drugbank_target|P05089 Arginase-1 (DB00129; DB01983; DB02381; DB02499; DB02689; DB03144; DB03731; DB03904; DB04197; DB04530; DB04585; DB04648; DB06757)
 OpenBabel12092119283D

  0  0  0     0  0            999 V3000
M  V30 BEGIN CTAB
M  V30 COUNTS 4947 4999 0 0 0
M  V30 BEGIN ATOM
M  V30 1 H -0.908 1.98254 -0.117106 0
M  V30 2 N 0 1.576 0 0
M  V30 3 C 0.933 2.03868 1.02534 0
M  V30 4 C 1.911 0.928543 1.3348 0
M  V30 5 O 3.095 1.19667 1.45644 0
M  V30 6 C 0.222 2.43627 2.35294 0
M  V30 7 C -0.732 3.65373 2.2001 0
M  V30 8 S 0.101 5.13292 1.52614 0
M  V30 9 C 1.257 5.56322 2.86805 0
M  V30 10 H 1.49 2.90518 0.631377 0
M  V30 11 H -0.977 1.52953 0.210867 0
M  V30 12 H 0.981 2.67203 3.11629 0
M  V30 13 H -0.358 1.57376 2.7183 0
M  V30 14 H -1.165 3.90944 3.18086 0
M  V30 15 H -1.563 3.418 1.51819 0
M  V30 16 H 0.729 5.58782 3.83104 0
M  V30 17 H 1.672 6.56266 2.65933 0
M  V30 18 H 2.08 4.83886 2.90714 0
M  V30 19 N 1.4781 -0.272755 1.55222 0
M  V30 20 C 2.7031 -1.02683 1.80197 0
M  V30 21 C 3.1281 -1.79142 0.573551 0
M  V30 22 O 2.4861 -1.74917 -0.476849 0
M  V30 23 C 2.5341 -1.9609 3.02624 0
M  V30 24 O 1.6381 -3.04863 2.77727 0
M  V30 25 H 0.9791 -0.293557 0.595584 0
M  V30 26 H 3.5091 -0.30159 2.02365 0
M  V30 27 H 3.5191 -2.38039 3.31363 0
M  V30 28 H 2.1941 -1.39851 3.91682 0
M  V30 29 H 0.7711 -2.67228 2.60084 0
M  V30 30 N 2.9562 -1.48159 -0.537278 0
M  V30 31 C 3.9192 -1.61665 -1.62472 0
M  V30 32 C 4.9192 -0.490395 -1.5314 0
M  V30 33 O 6.1092 -0.755998 -1.5694 0
M  V30 34 C 3.2412 -1.57997 -3.02076 0
M  V30 35 H 4.4342 -2.58621 -1.51839 0
M  V30 36 H 1.9872 -1.36647 -0.758771 0
M  V30 37 H 2.7222 -0.624913 -3.18222 0
M  V30 38 H 2.5072 -2.39755 -3.10258 0
M  V30 39 H 3.9972 -1.70627 -3.81151 0
M  V30 40 N 4.4343 0.785586 -1.36625 0
M  V30 41 C 5.3813 1.89838 -1.31264 0
M  V30 42 C 6.3513 1.65115 -0.180633 0
M  V30 43 O 7.5363 1.87222 -0.36777 0
M  V30 44 C 4.6763 3.26706 -1.11163 0
M  V30 45 C 3.7893 3.63476 -2.33472 0
M  V30 46 C 2.9243 4.89481 -2.06353 0
M  V30 47 C 1.9633 5.18941 -3.24602 0
M  V30 48 N 1.1003 6.36131 -2.97123 0
M  V30 49 H 5.9403 1.93756 -2.26413 0
M  V30 50 H 3.4773 0.947454 -1.12524 0
M  V30 51 H 5.4353 4.05639 -0.975337 0
M  V30 52 H 4.0653 3.222 -0.196674 0
M  V30 53 H 3.1173 2.79636 -2.57891 0
M  V30 54 H 4.4293 3.81193 -3.21704 0
M  V30 55 H 3.5833 5.76288 -1.89675 0
M  V30 56 H 2.3223 4.73841 -1.15437 0
M  V30 57 H 1.3273 4.30615 -3.41834 0
M  V30 58 H 2.5523 5.36498 -4.16349 0
M  V30 59 H 0.4983 6.21875 -2.08823 0
M  V30 60 H 0.4153 6.54198 -3.78894 0
M  V30 61 H 1.6833 7.2591 -2.84033 0
M  V30 62 N 5.9124 1.20967 1.01018 0
M  V30 63 C 7.1374 1.0503 1.78839 0
M  V30 64 C 7.5624 -0.395752 1.8389 0
M  V30 65 O 6.9204 -1.28529 1.27867 0
M  V30 66 C 6.9684 1.64602 3.2084 0
M  V30 67 O 6.0724 0.887988 4.02726 0
M  V30 68 H 5.4134 0.369987 0.551367 0
M  V30 69 H 7.9434 1.60399 1.27018 0
M  V30 70 H 7.9534 1.68607 3.71532 0
M  V30 71 H 6.6284 2.69841 3.16479 0
M  V30 72 H 5.2054 0.922648 3.61305 0
M  V30 73 N 7.3905 -1.2043 1.01659 0
M  V30 74 C 8.8065 -1.41852 0.731442 0
M  V30 75 C 9.0065 -1.89358 -0.688898 0
M  V30 76 O 8.0625 -2.06247 -1.45666 0
M  V30 77 C 9.3755 -2.44019 1.75714 0
M  V30 78 C 10.9235 -2.57785 1.77527 0
M  V30 79 C 11.3985 -3.63194 2.79023 0
M  V30 80 N 12.8895 -3.70678 2.77763 0
M  V30 81 C 13.6245 -4.51897 3.52954 0
M  V30 82 N 13.1205 -5.36921 4.37821 0
M  V30 83 N 14.9135 -4.4643 3.41551 0
M  V30 84 H 7.0645 -0.879093 1.93354 0
M  V30 85 H 9.3275 -0.448425 0.835236 0
M  V30 86 H 9.0335 -2.1611 2.77469 0
M  V30 87 H 8.9075 -3.43007 1.56927 0
M  V30 88 H 11.2945 -2.85023 0.764569 0
M  V30 89 H 11.3755 -1.58992 2.00387 0
M  V30 90 H 11.0195 -3.36699 3.80258 0
M  V30 91 H 10.9495 -4.61609 2.53425 0
M  V30 92 H 13.4405 -3.09944 2.16201 0
M  V30 93 H 13.7535 -5.95981 4.91962 0
M  V30 94 H 12.0985 -5.36424 4.41899 0
M  V30 95 H 15.2895 -3.79042 2.74672 0
M  V30 96 H 15.4625 -5.09491 4.00404 0
M  V30 97 N 8.8686 -0.792821 -1.36206 0
M  V30 98 C 10.0966 -0.378825 -2.03402 0
M  V30 99 C 10.5116 1.00586 -1.59774 0
M  V30 100 O 9.8686 1.64574 -0.788764 0
M  V30 101 C 9.9196 -0.43683 -3.58851 0
M  V30 102 O 9.6406 -1.76691 -4.00889 0
M  V30 103 C 11.1416 -0.0138943 -4.43298 0
M  V30 104 H 8.3616 -0.155673 -0.652692 0
M  V30 105 H 10.9056 -1.07261 -1.74113 0
M  V30 106 H 9.0606 0.208575 -3.86838 0
M  V30 107 H 9.4746 -1.72011 -4.95492 0
M  V30 108 H 10.9486 -0.105615 -5.51899 0
M  V30 109 H 11.4256 1.03915 -4.2673 0
M  V30 110 H 12.0316 -0.63192 -4.20579 0
M  V30 111 N 10.3467 1.47872 -0.545128 0
M  V30 112 C 11.5957 2.01695 -0.0145033 0
M  V30 113 C 11.9087 1.42609 1.33873 0
M  V30 114 O 13.1147 1.88021 1.95858 0
M  V30 115 C 11.5707 3.59892 0.0245068 0
M  V30 116 C 11.1787 4.27966 -1.32475 0
M  V30 117 C 12.9227 4.21507 0.50316 0
M  V30 118 C 10.8297 5.78136 -1.2455 0
M  V30 119 H 9.7597 0.753998 -0.00165172 0
M  V30 120 H 12.4107 1.69985 -0.691175 0
M  V30 121 H 10.7927 3.88509 0.766575 0
M  V30 122 H 11.9667 4.11003 -2.08357 0
M  V30 123 H 10.2817 3.78286 -1.74036 0
M  V30 124 H 12.8787 5.31538 0.580656 0
M  V30 125 H 13.2217 3.87855 1.51243 0
M  V30 126 H 13.7547 3.97376 -0.183681 0
M  V30 127 H 10.4937 6.16388 -2.23039 0
M  V30 128 H 10.0137 5.97469 -0.528282 0
M  V30 129 H 11.6927 6.40099 -0.942488 0
M  V30 130 N 11.8248 0.280983 1.55075 0
M  V30 131 C 13.0728 -0.333455 1.9933 0
M  V30 132 C 13.3938 -1.55937 1.17085 0
M  V30 133 O 12.6638 -1.94143 0.261805 0
M  V30 134 H 11.2438 -0.126197 0.736263 0
M  V30 135 H 13.9058 0.387678 1.91005 0
M  V30 136 H 13.0018 -0.619292 3.05894 0
M  V30 137 N 13.3029 -1.57598 0.00835791 0
M  V30 138 C 14.5519 -1.90107 -0.673968 0
M  V30 139 C 14.8649 -0.884275 -1.7447 0
M  V30 140 O 16.0709 -1.09987 -2.48224 0
M  V30 141 C 14.5269 -3.37497 -1.24995 0
M  V30 142 C 14.1349 -4.47491 -0.2136 0
M  V30 143 C 15.8789 -3.79104 -1.90999 0
M  V30 144 C 13.7859 -5.85963 -0.80005 0
M  V30 145 H 12.7159 -0.709393 -0.255495 0
M  V30 146 H 15.3669 -1.83365 0.0702693 0
M  V30 147 H 13.7489 -3.39102 -2.04513 0
M  V30 148 H 14.9229 -4.57414 0.557596 0
M  V30 149 H 13.2379 -4.14956 0.346474 0
M  V30 150 H 15.8349 -4.79901 -2.35795 0
M  V30 151 H 16.1779 -3.1306 -2.74407 0
M  V30 152 H 16.7109 -3.79833 -1.18203 0
M  V30 153 H 13.4499 -6.555 -0.00456708 0
M  V30 154 H 12.9699 -5.79687 -1.54021 0
M  V30 155 H 14.6489 -6.33884 -1.29615 0
M  V30 156 N 14.781 0.264519 -1.55364 0
M  V30 157 C 16.03 0.992812 -1.75574 0
M  V30 158 C 16.343 1.87142 -0.568979 0
M  V30 159 O 17.549 2.63513 -0.653682 0
M  V30 160 C 16.005 1.81519 -3.10771 0
M  V30 161 C 15.613 0.984839 -4.37041 0
M  V30 162 C 17.357 2.53727 -3.40327 0
M  V30 163 C 15.264 1.80209 -5.63275 0
M  V30 164 H 14.194 0.374412 -0.65447 0
M  V30 165 H 16.845 0.248138 -1.81815 0
M  V30 166 H 15.227 2.60115 -2.98591 0
M  V30 167 H 16.401 0.242455 -4.60162 0
M  V30 168 H 14.716 0.37691 -4.14691 0
M  V30 169 H 17.313 3.15292 -4.3185 0
M  V30 170 H 17.656 3.24447 -2.60845 0
M  V30 171 H 18.189 1.82156 -3.53644 0
M  V30 172 H 14.928 1.13896 -6.45529 0
M  V30 173 H 14.448 2.52022 -5.44284 0
M  V30 174 H 16.127 2.37364 -6.01887 0
M  V30 175 N 16.2591 1.48442 0.529413 0
M  V30 176 C 17.5071 1.56179 1.28267 0
M  V30 177 C 17.8281 0.237721 1.93546 0
M  V30 178 O 17.0981 -0.740779 1.81354 0
M  V30 179 H 15.6781 0.575367 0.476405 0
M  V30 180 H 18.3401 1.84909 0.61602 0
M  V30 181 H 17.4361 2.34312 2.06165 0
M  V30 182 N 17.7372 -0.778329 1.37039 0
M  V30 183 C 18.7002 -1.87301 1.32102 0
M  V30 184 C 19.7002 -1.59198 0.226405 0
M  V30 185 O 20.8902 -1.67403 0.481861 0
M  V30 186 C 18.0222 -3.24309 1.05055 0
M  V30 187 H 19.2152 -1.93093 2.29467 0
M  V30 188 H 16.7682 -0.977358 1.21973 0
M  V30 189 H 17.5032 -3.24196 0.0819373 0
M  V30 190 H 17.2882 -3.46098 1.84279 0
M  V30 191 H 18.7782 -4.04382 1.04234 0
M  V30 192 N 19.2153 -1.21501 -1.00376 0
M  V30 193 C 20.6263 -1.03146 -1.55621 0
M  V30 194 C 20.9773 0.408375 -1.91903 0
M  V30 195 O 20.1023 1.29177 -1.73616 0
M  V30 196 C 20.6973 -1.86612 -2.82775 0
M  V30 197 C 19.2563 -1.72586 -3.34501 0
M  V30 198 C 18.4033 -1.83747 -2.07683 0
M  V30 199 H 21.3543 -1.35505 -0.826081 0
M  V30 200 H 21.3753 -1.3771 -3.54706 0
M  V30 201 H 20.8873 -2.91399 -2.56336 0
M  V30 202 H 18.9883 -0.704877 -3.65872 0
M  V30 203 H 19.1013 -2.54623 -4.05837 0
M  V30 204 H 17.4653 -1.27069 -2.20739 0
M  V30 205 H 18.2483 -2.90044 -1.83655 0
M  V30 206 N 20.6934 1.19889 -1.02296 0
M  V30 207 C 21.9404 1.8942 -0.715972 0
M  V30 208 C 22.2684 1.79251 0.754944 0
M  V30 209 O 21.5234 1.17526 1.56481 0
M  V30 210 C 21.8224 3.39883 -1.10518 0
M  V30 211 C 21.4884 3.70254 -2.57337 0
M  V30 212 C 20.1504 3.78254 -2.97452 0
M  V30 213 C 22.5024 3.84052 -3.52354 0
M  V30 214 C 19.8304 3.97514 -4.31509 0
M  V30 215 C 22.1824 4.04824 -4.86108 0
M  V30 216 C 20.8464 4.11054 -5.25919 0
M  V30 217 H 20.1164 0.693138 -0.261993 0
M  V30 218 H 22.7634 1.42012 -1.28472 0
M  V30 219 H 21.0684 3.8915 -0.454953 0
M  V30 220 H 22.7654 3.9199 -0.845261 0
M  V30 221 H 19.3554 3.64632 -2.25258 0
M  V30 222 H 23.5394 3.77221 -3.22518 0
M  V30 223 H 18.7954 4.00574 -4.61898 0
M  V30 224 H 22.9694 4.14442 -5.59653 0
M  V30 225 H 20.5964 4.2573 -6.29808 0
M  V30 226 N 22.1715 0.800033 1.35784 0
M  V30 227 C 23.3965 0.388511 2.03729 0
M  V30 228 C 23.8215 -0.990481 1.5991 0
M  V30 229 O 23.1795 -1.64013 0.772612 0
M  V30 230 C 23.2275 0.4726 3.5749 0
M  V30 231 O 22.3315 -0.51646 4.09153 0
M  V30 232 H 21.6725 0.163271 0.643614 0
M  V30 233 H 24.2025 1.0841 1.73518 0
M  V30 234 H 24.2125 0.34003 4.06581 0
M  V30 235 H 22.8875 1.47848 3.88734 0
M  V30 236 H 21.4645 -0.344673 3.71304 0
M  V30 237 N 23.6496 -1.47581 0.552962 0
M  V30 238 C 24.5966 -2.29957 -0.197108 0
M  V30 239 C 25.5666 -1.38799 -0.912359 0
M  V30 240 O 26.7516 -1.67761 -0.908888 0
M  V30 241 C 23.8916 -3.22672 -1.22379 0
M  V30 242 C 23.0046 -4.28919 -0.515038 0
M  V30 243 C 22.1396 -5.0879 -1.52664 0
M  V30 244 C 21.1786 -6.06815 -0.802631 0
M  V30 245 N 20.3156 -6.7966 -1.76086 0
M  V30 246 H 25.1556 -2.93578 0.511486 0
M  V30 247 H 22.6926 -1.4471 0.264067 0
M  V30 248 H 24.6506 -3.74845 -1.83159 0
M  V30 249 H 23.2806 -2.60925 -1.90047 0
M  V30 250 H 22.3326 -3.79835 0.207192 0
M  V30 251 H 23.6446 -4.98773 0.0523425 0
M  V30 252 H 22.7986 -5.65091 -2.20809 0
M  V30 253 H 21.5376 -4.38828 -2.12794 0
M  V30 254 H 20.5426 -5.49695 -0.107238 0
M  V30 255 H 21.7676 -6.78784 -0.207135 0
M  V30 256 H 19.7136 -6.12432 -2.35081 0
M  V30 257 H 19.6306 -7.45669 -1.24552 0
M  V30 258 H 20.8986 -7.40538 -2.43359 0
M  V30 259 N 25.1277 -0.289203 -1.54924 0
M  V30 260 C 26.3757 0.322879 -1.99504 0
M  V30 261 C 26.6967 1.55313 -1.1791 0
M  V30 262 O 25.9667 1.94001 -0.272097 0
M  V30 263 H 24.5467 0.122291 -0.736922 0
M  V30 264 H 27.2087 -0.397802 -1.90797 0
M  V30 265 H 26.3047 0.603061 -3.06218 0
M  V30 266 N 26.6058 1.57591 -0.0167156 0
M  V30 267 C 27.5378 2.06343 0.997753 0
M  V30 268 C 28.5508 0.984469 1.29661 0
M  V30 269 O 29.7398 1.26093 1.26344 0
M  V30 270 C 26.8398 2.46255 2.32834 0
M  V30 271 C 26.0128 3.77083 2.21646 0
M  V30 272 C 25.0718 4.0368 3.37534 0
M  V30 273 O 24.0978 4.7411 3.14973 0
M  V30 274 N 25.2998 3.52881 4.60929 0
M  V30 275 H 28.0648 2.93997 0.581875 0
M  V30 276 H 25.6258 1.61002 0.170316 0
M  V30 277 H 27.6178 2.61149 3.09166 0
M  V30 278 H 26.1878 1.64032 2.66106 0
M  V30 279 H 25.4078 3.72106 1.30119 0
M  V30 280 H 26.6958 4.62822 2.11361 0
M  V30 281 H 26.0938 2.95878 4.82154 0
M  V30 282 H 24.6508 3.73076 5.34469 0
M  V30 283 N 28.0839 -0.256276 1.55502 0
M  V30 284 C 29.4949 -0.826068 1.67431 0
M  V30 285 C 29.8459 -1.86396 0.612446 0
M  V30 286 O 28.9709 -2.15031 -0.243025 0
M  V30 287 C 29.5659 -1.50512 3.03532 0
M  V30 288 C 28.1249 -2.02273 3.17431 0
M  V30 289 C 27.2719 -0.870548 2.63281 0
M  V30 290 H 30.2229 -0.0322728 1.58667 0
M  V30 291 H 30.2439 -2.37279 2.97454 0
M  V30 292 H 29.7559 -0.749484 3.80794 0
M  V30 293 H 27.8569 -2.80746 2.44974 0
M  V30 294 H 27.9699 -2.22655 4.24219 0
M  V30 295 H 26.3339 -1.26851 2.20864 0
M  V30 296 H 27.1169 -0.128149 3.43061 0
M  V30 297 N 29.562 -1.4872 -0.521534 0
M  V30 298 C 30.978 -1.35028 -0.850855 0
M  V30 299 C 31.178 -0.367712 -1.98116 0
M  V30 300 O 30.234 0.208037 -2.51642 0
M  V30 301 C 31.547 -2.75263 -1.21041 0
M  V30 302 C 33.095 -2.83813 -1.31981 0
M  V30 303 C 33.57 -4.24769 -1.71276 0
M  V30 304 N 35.061 -4.27482 -1.78363 0
M  V30 305 C 35.796 -5.33494 -2.1017 0
M  V30 306 N 35.292 -6.49775 -2.40343 0
M  V30 307 N 37.085 -5.20894 -2.11248 0
M  V30 308 H 29.236 -2.11214 0.22413 0
M  V30 309 H 31.499 -0.947252 0.0376439 0
M  V30 310 H 31.205 -3.48765 -0.453415 0
M  V30 311 H 31.079 -3.09327 -2.15863 0
M  V30 312 H 33.466 -2.10561 -2.06756 0
M  V30 313 H 33.547 -2.53358 -0.352596 0
M  V30 314 H 33.191 -4.9854 -0.970588 0
M  V30 315 H 33.121 -4.52673 -2.69062 0
M  V30 316 H 35.612 -3.43611 -1.57288 0
M  V30 317 H 35.925 -7.26402 -2.63743 0
M  V30 318 H 34.27 -6.53035 -2.37844 0
M  V30 319 H 37.461 -4.29065 -1.87139 0
M  V30 320 H 37.634 -6.03612 -2.35704 0
M  V30 321 N 31.0401 0.771051 -1.3745 0
M  V30 322 C 32.2881 1.52661 -1.32435 0
M  V30 323 C 32.6091 1.9479 0.0905024 0
M  V30 324 O 31.8791 1.66348 1.03466 0
M  V30 325 H 30.4591 0.566218 -0.487244 0
M  V30 326 H 33.1211 0.917636 -1.71946 0
M  V30 327 H 32.2171 2.42568 -1.96385 0
M  V30 328 N 32.5182 1.22032 0.997298 0
M  V30 329 C 33.7662 1.04016 1.73278 0
M  V30 330 C 34.0872 -0.426255 1.90284 0
M  V30 331 O 33.3572 -1.30694 1.45931 0
M  V30 332 H 31.9372 0.381897 0.642 0
M  V30 333 H 34.5992 1.5347 1.20137 0
M  V30 334 H 33.6952 1.51441 2.72896 0
M  V30 335 N 33.9963 -1.19345 1.0293 0
M  V30 336 C 35.2423 -1.89318 0.727083 0
M  V30 337 C 35.5753 -1.79446 -0.742483 0
M  V30 338 O 34.8503 -1.1871 -1.54072 0
M  V30 339 C 35.1333 -3.40238 1.17942 0
M  V30 340 C 34.9863 -3.58979 2.71024 0
M  V30 341 C 36.3053 -4.33479 0.760548 0
M  V30 342 H 33.4243 -0.687475 0.265606 0
M  V30 343 H 36.0663 -1.40477 1.2793 0
M  V30 344 H 34.2163 -3.81964 0.709608 0
M  V30 345 H 35.8883 -3.26421 3.25955 0
M  V30 346 H 34.1313 -3.02018 3.11396 0
M  V30 347 H 34.8023 -4.64823 2.9773 0
M  V30 348 H 37.2783 -3.99469 1.16464 0
M  V30 349 H 36.1543 -5.37664 1.10493 0
M  V30 350 H 36.4153 -4.40813 -0.337063 0
M  V30 351 N 35.4744 -0.807222 -1.35358 0
M  V30 352 C 36.3844 -0.219594 -2.3357 0
M  V30 353 C 37.4004 0.637734 -1.61892 0
M  V30 354 O 38.5764 0.549336 -1.93763 0
M  V30 355 C 35.6414 0.62158 -3.41083 0
M  V30 356 C 34.7024 -0.256315 -4.28534 0
M  V30 357 C 33.9354 0.544807 -5.30912 0
M  V30 358 O 34.1584 1.77944 -5.41934 0
M  V30 359 O 33.0924 -0.0646478 -6.01865 0
M  V30 360 H 36.9184 -1.03208 -2.85625 0
M  V30 361 H 34.5034 -0.569025 -1.38139 0
M  V30 362 H 36.3854 1.10067 -4.06772 0
M  V30 363 H 35.0604 1.41165 -2.91297 0
M  V30 364 H 33.9674 -0.782559 -3.65823 0
M  V30 365 H 35.3004 -1.01034 -4.81719 0
M  V30 366 N 36.9525 1.47285 -0.560781 0
M  V30 367 C 37.8625 2.33846 0.187954 0
M  V30 368 C 38.8785 1.48412 0.908293 0
M  V30 369 O 40.0545 1.81332 0.876388 0
M  V30 370 C 37.1195 3.25178 1.2025 0
M  V30 371 C 36.1805 4.26504 0.489208 0
M  V30 372 C 35.4135 5.13472 1.45542 0
M  V30 373 O 35.6365 5.02959 2.6905 0
M  V30 374 O 34.5705 5.93902 0.977963 0
M  V30 375 H 38.3965 2.99177 -0.522177 0
M  V30 376 H 35.9815 1.45903 -0.321364 0
M  V30 377 H 37.8635 3.81584 1.78805 0
M  V30 378 H 36.5385 2.6247 1.89449 0
M  V30 379 H 35.4455 3.73847 -0.137627 0
M  V30 380 H 36.7785 4.91935 -0.161399 0
M  V30 381 N 38.4306 0.297415 1.54768 0
M  V30 382 C 39.6786 -0.312295 1.99673 0
M  V30 383 C 39.9996 -1.54686 1.18732 0
M  V30 384 O 39.2696 -1.93854 0.282382 0
M  V30 385 H 37.8496 -0.118381 0.73756 0
M  V30 386 H 40.5116 0.407915 1.90583 0
M  V30 387 H 39.6076 -0.586813 3.06534 0
M  V30 388 N 39.9087 -1.5758 0.0250728 0
M  V30 389 C 41.3197 -1.79476 -0.514323 0
M  V30 390 C 41.6707 -0.934956 -1.72491 0
M  V30 391 O 40.7957 -0.144245 -2.15919 0
M  V30 392 C 41.3907 -3.25503 -0.939842 0
M  V30 393 C 39.9497 -3.48408 -1.42438 0
M  V30 394 C 39.0967 -2.74583 -0.387201 0
M  V30 395 H 42.0477 -1.567 0.25113 0
M  V30 396 H 42.0687 -3.34992 -1.80445 0
M  V30 397 H 41.5807 -3.88056 -0.0585628 0
M  V30 398 H 39.6817 -2.91103 -2.32572 0
M  V30 399 H 39.7947 -4.57119 -1.43455 0
M  V30 400 H 38.1587 -2.39942 -0.854409 0
M  V30 401 H 38.9417 -3.39849 0.485543 0
M  V30 402 N 41.3868 0.248026 -1.55636 0
M  V30 403 C 42.6148 0.993808 -1.81469 0
M  V30 404 C 43.0298 1.78991 -0.60064 0
M  V30 405 O 42.3868 1.77345 0.430682 0
M  V30 406 C 42.4378 1.93258 -3.05506 0
M  V30 407 O 42.1588 1.16869 -4.22224 0
M  V30 408 C 43.6598 2.79444 -3.4413 0
M  V30 409 H 40.8798 0.292486 -0.603898 0
M  V30 410 H 43.4238 0.271253 -2.02693 0
M  V30 411 H 41.5788 2.60943 -2.86335 0
M  V30 412 H 41.9928 1.80359 -4.92515 0
M  V30 413 H 43.4668 3.41066 -4.34026 0
M  V30 414 H 43.9438 3.50499 -2.64665 0
M  V30 415 H 44.5498 2.17214 -3.65648 0
M  V30 416 N 42.8649 1.48995 0.513639 0
M  V30 417 C 44.1109 1.58076 1.27042 0
M  V30 418 C 44.4439 0.261026 1.92438 0
M  V30 419 O 43.7189 -0.734393 1.80103 0
M  V30 420 C 44.0019 2.73091 2.34719 0
M  V30 421 C 43.8549 4.14821 1.73907 0
M  V30 422 C 45.1739 2.83796 3.36375 0
M  V30 423 H 42.2929 0.575391 0.460536 0
M  V30 424 H 44.9349 1.81232 0.570516 0
M  V30 425 H 43.0849 2.53479 2.94416 0
M  V30 426 H 44.7569 4.45917 1.18135 0
M  V30 427 H 42.9999 4.21058 1.0437 0
M  V30 428 H 43.6709 4.91147 2.51949 0
M  V30 429 H 46.1469 3.01611 2.86653 0
M  V30 430 H 45.0229 3.65971 4.09093 0
M  V30 431 H 45.2839 1.92624 3.9793 0
M  V30 432 N 44.343 -0.763751 1.37857 0
M  V30 433 C 45.273 -1.89103 1.36975 0
M  V30 434 C 46.254 -1.68439 0.237152 0
M  V30 435 O 47.439 -1.8918 0.438713 0
M  V30 436 C 44.569 -3.26496 1.18395 0
M  V30 437 C 43.523 -3.61741 2.28751 0
M  V30 438 C 42.849 -4.97762 1.95286 0
M  V30 439 C 44.149 -3.67665 3.70972 0
M  V30 440 H 45.843 -1.90099 2.31307 0
M  V30 441 H 43.389 -0.91319 1.11341 0
M  V30 442 H 45.342 -4.05003 1.16406 0
M  V30 443 H 44.066 -3.25955 0.205215 0
M  V30 444 H 42.725 -2.85547 2.29909 0
M  V30 445 H 42.373 -4.93769 0.959221 0
M  V30 446 H 42.073 -5.22313 2.69189 0
M  V30 447 H 43.597 -5.7866 1.94898 0
M  V30 448 H 45.011 -4.36307 3.719 0
M  V30 449 H 43.408 -4.03718 4.43995 0
M  V30 450 H 44.478 -2.68134 4.0402 0
M  V30 451 N 45.8211 -1.22559 -0.990812 0
M  V30 452 C 47.2371 -0.985996 -1.255 0
M  V30 453 C 47.4371 0.319173 -1.98956 0
M  V30 454 O 46.4931 1.04127 -2.3003 0
M  V30 455 C 47.8061 -2.18607 -2.06474 0
M  V30 456 C 49.3541 -2.22985 -2.19651 0
M  V30 457 C 49.8291 -3.4255 -3.04012 0
M  V30 458 N 51.3201 -3.42725 -3.11599 0
M  V30 459 C 52.0551 -4.31892 -3.7717 0
M  V30 460 N 51.5511 -5.31279 -4.44651 0
M  V30 461 N 53.3441 -4.19662 -3.73952 0
M  V30 462 H 45.4951 -2.06469 -0.49841 0
M  V30 463 H 47.7581 -0.904853 -0.282747 0
M  V30 464 H 47.4641 -3.13267 -1.59865 0
M  V30 465 H 47.3381 -2.18838 -3.07229 0
M  V30 466 H 49.7251 -1.28871 -2.65474 0
M  V30 467 H 49.8061 -2.26791 -1.18319 0
M  V30 468 H 49.4501 -4.36965 -2.58889 0
M  V30 469 H 49.3801 -3.35984 -4.0549 0
M  V30 470 H 51.8711 -2.70807 -2.63575 0
M  V30 471 H 52.1841 -5.95593 -4.92431 0
M  V30 472 H 50.5291 -5.3519 -4.43392 0
M  V30 473 H 53.7201 -3.41268 -3.20396 0
M  V30 474 H 53.8931 -4.89358 -4.24774 0
M  V30 475 N 47.2992 1.18797 -1.03562 0
M  V30 476 C 48.2462 2.22253 -0.622259 0
M  V30 477 C 49.2162 1.61987 0.36736 0
M  V30 478 O 50.4012 1.88986 0.262492 0
M  V30 479 C 47.5412 3.45097 0.0138462 0
M  V30 480 C 46.6542 4.19722 -1.02263 0
M  V30 481 C 45.7892 5.30009 -0.355573 0
M  V30 482 C 44.8282 5.96399 -1.37749 0
M  V30 483 N 43.9652 6.98234 -0.735766 0
M  V30 484 H 48.8052 2.56968 -1.50903 0
M  V30 485 H 46.3422 1.26245 -0.755017 0
M  V30 486 H 48.3002 4.15279 0.399948 0
M  V30 487 H 46.9302 3.11018 0.864158 0
M  V30 488 H 45.9822 3.48418 -1.52673 0
M  V30 489 H 47.2942 4.65227 -1.79903 0
M  V30 490 H 46.4482 6.0664 0.0850095 0
M  V30 491 H 45.1872 4.85592 0.452967 0
M  V30 492 H 44.1922 5.18512 -1.82826 0
M  V30 493 H 45.4172 6.42899 -2.18764 0
M  V30 494 H 43.3632 6.55979 0.0525597 0
M  V30 495 H 43.2802 7.41965 -1.44995 0
M  V30 496 H 44.5482 7.78845 -0.31941 0
M  V30 497 N 48.7773 0.814389 1.34928 0
M  V30 498 C 49.7403 0.235759 2.27984 0
M  V30 499 C 50.7403 -0.581412 1.49921 0
M  V30 500 O 51.9303 -0.398758 1.69575 0
M  V30 501 C 49.0623 -0.670433 3.34242 0
M  V30 502 H 50.2553 1.05659 2.80671 0
M  V30 503 H 47.8083 0.585614 1.44915 0
M  V30 504 H 48.5433 -1.51466 2.86755 0
M  V30 505 H 48.3283 -0.0860822 3.92005 0
M  V30 506 H 49.8183 -1.06935 4.03676 0
M  V30 507 N 50.2554 -1.46986 0.568584 0
M  V30 508 C 51.5034 -2.02041 0.0487022 0
M  V30 509 C 51.8244 -1.44408 -1.31039 0
M  V30 510 O 51.0944 -0.623477 -1.85714 0
M  V30 511 H 49.6744 -0.746849 0.015014 0
M  V30 512 H 52.3364 -1.80257 0.741168 0
M  V30 513 H 51.4324 -3.12085 -0.0308961 0
M  V30 514 N 51.7335 -0.305618 -1.54608 0
M  V30 515 C 52.6635 0.561482 -2.26649 0
M  V30 516 C 53.6445 1.13415 -1.26772 0
M  V30 517 O 54.8295 1.16262 -1.55553 0
M  V30 518 C 51.9595 1.73122 -3.01075 0
M  V30 519 C 50.9135 1.2887 -4.08138 0
M  V30 520 C 50.2395 2.54396 -4.70305 0
M  V30 521 C 51.5395 0.416578 -5.20636 0
M  V30 522 H 53.2335 -0.0393902 -2.99374 0
M  V30 523 H 50.7795 -0.020385 -1.43986 0
M  V30 524 H 52.7325 2.34396 -3.50195 0
M  V30 525 H 51.4565 2.3584 -2.25936 0
M  V30 526 H 50.1155 0.698991 -3.59875 0
M  V30 527 H 49.7635 3.15439 -3.918 0
M  V30 528 H 49.4635 2.25486 -5.42614 0
M  V30 529 H 50.9875 3.16464 -5.2219 0
M  V30 530 H 52.4015 0.935116 -5.65622 0
M  V30 531 H 50.7985 0.221046 -5.99693 0
M  V30 532 H 51.8685 -0.557162 -4.81688 0
M  V30 533 N 53.2116 1.57565 -0.0334293 0
M  V30 534 C 54.1416 2.13511 0.945265 0
M  V30 535 C 55.1226 1.05231 1.33643 0
M  V30 536 O 56.3076 1.33084 1.41429 0
M  V30 537 C 53.4376 2.6657 2.22616 0
M  V30 538 C 52.3916 3.79676 1.97561 0
M  V30 539 C 51.7176 4.1918 3.31952 0
M  V30 540 C 53.0176 5.0557 1.31135 0
M  V30 541 H 54.7116 2.95538 0.479325 0
M  V30 542 H 52.2576 1.42166 0.229115 0
M  V30 543 H 54.2106 3.04344 2.91466 0
M  V30 544 H 52.9346 1.8171 2.71384 0
M  V30 545 H 51.5936 3.42347 1.31127 0
M  V30 546 H 51.2416 3.31296 3.78487 0
M  V30 547 H 50.9416 4.95402 3.15992 0
M  V30 548 H 52.4656 4.59541 4.02063 0
M  V30 549 H 53.8796 5.40903 1.89992 0
M  V30 550 H 52.2766 5.86818 1.25559 0
M  V30 551 H 53.3466 4.84062 0.284894 0
M  V30 552 N 54.6897 -0.239769 1.55765 0
M  V30 553 C 55.5997 -1.31831 1.94056 0
M  V30 554 C 56.6157 -1.52275 0.841925 0
M  V30 555 O 57.7917 -1.65759 1.14394 0
M  V30 556 C 54.8567 -2.65156 2.23368 0
M  V30 557 C 53.9177 -2.53173 3.46701 0
M  V30 558 C 53.1507 -3.8014 3.74606 0
M  V30 559 O 53.3737 -4.82343 3.04469 0
M  V30 560 O 52.3077 -3.78344 4.68123 0
M  V30 561 H 56.1337 -1.02347 2.85935 0
M  V30 562 H 53.7187 -0.441123 1.42739 0
M  V30 563 H 55.6007 -3.43929 2.43497 0
M  V30 564 H 54.2757 -2.94358 1.34666 0
M  V30 565 H 53.1827 -1.72662 3.31871 0
M  V30 566 H 54.5157 -2.28915 4.35728 0
M  V30 567 N 56.1678 -1.49265 -0.50573 0
M  V30 568 C 57.1148 -1.65585 -1.6078 0
M  V30 569 C 58.0848 -0.497396 -1.58478 0
M  V30 570 O 59.2698 -0.72385 -1.76536 0
M  V30 571 C 56.4098 -1.72408 -2.98948 0
M  V30 572 C 55.5228 -2.99525 -3.11301 0
M  V30 573 C 54.6578 -2.97356 -4.40174 0
M  V30 574 C 53.6968 -4.19074 -4.46143 0
M  V30 575 N 52.8338 -4.14841 -5.66437 0
M  V30 576 H 57.6738 -2.59688 -1.46172 0
M  V30 577 H 55.2108 -1.28761 -0.711261 0
M  V30 578 H 57.1688 -1.74344 -3.79025 0
M  V30 579 H 55.7988 -0.817753 -3.1227 0
M  V30 580 H 54.8508 -3.07222 -2.24318 0
M  V30 581 H 56.1628 -3.89518 -3.11572 0
M  V30 582 H 55.3168 -2.97829 -5.28567 0
M  V30 583 H 54.0558 -2.05133 -4.42461 0
M  V30 584 H 53.0608 -4.1885 -3.56153 0
M  V30 585 H 54.2858 -5.12483 -4.45575 0
M  V30 586 H 52.2318 -3.25453 -5.69575 0
M  V30 587 H 52.1488 -4.98564 -5.68304 0
M  V30 588 H 53.4168 -4.1941 -6.57051 0
M  V30 589 N 57.6459 0.756429 -1.3826 0
M  V30 590 C 58.5759 1.88374 -1.37976 0
M  V30 591 C 59.5569 1.68311 -0.246082 0
M  V30 592 O 60.7419 1.88944 -0.44874 0
M  V30 593 C 57.8719 3.25864 -1.20125 0
M  V30 594 C 56.8259 3.60523 -2.30666 0
M  V30 595 C 56.1519 4.9672 -1.97923 0
M  V30 596 C 57.4519 3.65692 -3.72916 0
M  V30 597 H 59.1459 1.88869 -2.32312 0
M  V30 598 H 56.6919 0.907272 -1.11824 0
M  V30 599 H 58.6449 4.0438 -1.18552 0
M  V30 600 H 57.3689 3.25841 -0.222498 0
M  V30 601 H 56.0279 2.84324 -2.3142 0
M  V30 602 H 55.6759 4.93253 -0.985393 0
M  V30 603 H 55.3759 5.20878 -2.71955 0
M  V30 604 H 56.8999 5.77618 -1.97964 0
M  V30 605 H 58.3139 4.34328 -3.74208 0
M  V30 606 H 56.7109 4.01358 -4.4613 0
M  V30 607 H 57.7809 2.65987 -4.05436 0
M  V30 608 N 59.124 1.23083 0.984299 0
M  V30 609 C 60.071 1.00854 2.07598 0
M  V30 610 C 61.041 -0.0726709 1.65941 0
M  V30 611 O 62.226 0.0786535 1.90638 0
M  V30 612 C 59.366 0.601645 3.39815 0
M  V30 613 C 58.479 1.75456 3.94765 0
M  V30 614 C 57.614 1.29482 5.15177 0
M  V30 615 C 56.653 2.41873 5.62284 0
M  V30 616 N 55.79 1.96885 6.73929 0
M  V30 617 H 60.63 1.943 2.25946 0
M  V30 618 H 58.167 0.968001 1.10762 0
M  V30 619 H 60.125 0.346854 4.15756 0
M  V30 620 H 58.755 -0.295803 3.21442 0
M  V30 621 H 57.807 2.12346 3.15616 0
M  V30 622 H 59.119 2.59965 4.25699 0
M  V30 623 H 58.273 0.997923 5.98437 0
M  V30 624 H 57.012 0.420046 4.85888 0
M  V30 625 H 56.017 2.72342 4.77608 0
M  V30 626 H 57.242 3.29881 5.93595 0
M  V30 627 H 55.188 1.11782 6.46406 0
M  V30 628 H 55.105 2.74956 7.04227 0
M  V30 629 H 56.373 1.70289 7.60672 0
M  V30 630 N 60.6021 -1.18246 1.0419 0
M  V30 631 C 61.5121 -2.25574 0.644476 0
M  V30 632 C 62.5281 -1.70845 -0.329826 0
M  V30 633 O 63.7041 -2.00554 -0.184443 0
M  V30 634 C 60.7691 -3.46697 0.014877 0
M  V30 635 C 59.8301 -4.16554 1.03834 0
M  V30 636 C 59.0631 -5.31894 0.438692 0
M  V30 637 O 59.2861 -5.65385 -0.754752 0
M  V30 638 O 58.2201 -5.90459 1.168 0
M  V30 639 H 62.0461 -2.61836 1.53869 0
M  V30 640 H 59.6311 -1.25352 0.812854 0
M  V30 641 H 61.5131 -4.20062 -0.335538 0
M  V30 642 H 60.1881 -3.12255 -0.853138 0
M  V30 643 H 59.0951 -3.45251 1.44057 0
M  V30 644 H 60.4281 -4.54998 1.87716 0
M  V30 645 N 62.0802 -0.821533 -1.34494 0
M  V30 646 C 63.0122 -0.199946 -2.28326 0
M  V30 647 C 64.0252 0.609377 -1.50965 0
M  V30 648 O 65.2142 0.439285 -1.7301 0
M  V30 649 C 62.3142 0.738431 -3.30757 0
M  V30 650 C 61.4872 -0.0277632 -4.37391 0
M  V30 651 C 60.5462 0.831332 -5.19591 0
M  V30 652 O 59.5722 0.276822 -5.68526 0
M  V30 653 N 60.7742 2.15132 -5.39165 0
M  V30 654 H 63.5392 -1.00609 -2.82308 0
M  V30 655 H 61.1002 -0.678366 -1.47003 0
M  V30 656 H 63.0922 1.31773 -3.82646 0
M  V30 657 H 61.6622 1.44533 -2.7718 0
M  V30 658 H 60.8822 -0.788359 -3.86236 0
M  V30 659 H 62.1702 -0.555251 -5.05761 0
M  V30 660 H 61.5682 2.62559 -5.01078 0
M  V30 661 H 60.1252 2.6795 -5.94177 0
M  V30 662 N 63.5583 1.46682 -0.576371 0
M  V30 663 C 64.4683 2.34032 0.163141 0
M  V30 664 C 65.4843 1.49367 0.892501 0
M  V30 665 O 66.6603 1.82252 0.857106 0
M  V30 666 C 63.7253 3.26435 1.16795 0
M  V30 667 C 62.7863 4.26998 0.443944 0
M  V30 668 C 62.0193 5.14986 1.40088 0
M  V30 669 O 62.2423 5.05785 2.637 0
M  V30 670 O 61.1763 5.94906 0.914917 0
M  V30 671 H 65.0023 2.98607 -0.55388 0
M  V30 672 H 62.5873 1.45554 -0.336821 0
M  V30 673 H 64.4693 3.83459 1.74748 0
M  V30 674 H 63.1443 2.64465 1.86655 0
M  V30 675 H 62.0513 3.7368 -0.177271 0
M  V30 676 H 63.3843 4.91736 -0.213566 0
M  V30 677 N 65.0364 0.313813 1.54444 0
M  V30 678 C 66.2764 -0.292389 2.02298 0
M  V30 679 C 66.6404 -1.50105 1.19719 0
M  V30 680 O 67.8414 -2.17947 1.5733 0
M  V30 681 C 66.1124 -0.627682 3.51845 0
M  V30 682 S 67.6714 -1.21493 4.21646 0
M  V30 683 H 64.4894 -0.0890247 0.705405 0
M  V30 684 H 67.0914 0.444668 1.90376 0
M  V30 685 H 65.7954 0.260265 4.09574 0
M  V30 686 H 65.3264 -1.39519 3.67829 0
M  V30 687 H 67.3414 -2.5022 4.28491 0
M  V30 688 N 66.5145 -1.57545 0.0417849 0
M  V30 689 C 67.7915 -1.83642 -0.673433 0
M  V30 690 C 68.1715 -0.928298 -1.89594 0
M  V30 691 O 67.5195 0.0129955 -2.28496 0
M  V30 692 C 67.7295 -3.33155 -1.03964 0
M  V30 693 C 69.0775 -3.99941 -1.42592 0
M  V30 694 O 70.1015 -3.37725 -1.13226 0
M  V30 695 O 68.9605 -5.09619 -1.9736 0
M  V30 696 H 66.0545 -0.757638 -0.331533 0
M  V30 697 H 68.6005 -1.69554 0.070433 0
M  V30 698 H 67.3725 -3.9093 -0.170098 0
M  V30 699 H 66.9955 -3.52396 -1.84126 0
M  V30 700 N 67.9926 0.231505 -1.5589 0
M  V30 701 C 69.2386 0.95877 -1.78705 0
M  V30 702 C 69.5716 1.8438 -0.609725 0
M  V30 703 O 68.8466 1.90521 0.391426 0
M  V30 704 C 69.1296 1.8062 -3.11526 0
M  V30 705 C 68.9826 0.948328 -4.39689 0
M  V30 706 C 70.3016 2.78585 -3.40703 0
M  V30 707 H 67.4206 0.347129 -0.650131 0
M  V30 708 H 70.0626 0.228259 -1.88624 0
M  V30 709 H 68.2126 2.42902 -3.03201 0
M  V30 710 H 69.8846 0.343016 -4.60023 0
M  V30 711 H 68.1276 0.253314 -4.3306 0
M  V30 712 H 68.7986 1.57543 -5.29041 0
M  V30 713 H 71.2746 2.26439 -3.49091 0
M  V30 714 H 70.1506 3.34988 -4.34826 0
M  V30 715 H 70.4116 3.55825 -2.62375 0
M  V30 716 N 69.4707 1.49531 0.497807 0
M  V30 717 C 70.4177 1.66436 1.59899 0
M  V30 718 C 71.3877 0.505793 1.58212 0
M  V30 719 O 72.5727 0.733202 1.7615 0
M  V30 720 C 69.7127 1.7399 2.98029 0
M  V30 721 C 68.8257 3.01172 3.09708 0
M  V30 722 C 67.9607 2.99686 4.38591 0
M  V30 723 C 66.9997 4.21434 4.43914 0
M  V30 724 N 66.1367 4.1784 5.64229 0
M  V30 725 H 70.9767 2.60459 1.44793 0
M  V30 726 H 68.5137 1.29137 0.704423 0
M  V30 727 H 70.4717 1.76352 3.78095 0
M  V30 728 H 69.1017 0.834301 3.11832 0
M  V30 729 H 68.1537 3.08408 2.22685 0
M  V30 730 H 69.4657 3.91165 3.09502 0
M  V30 731 H 68.6197 3.00628 5.2698 0
M  V30 732 H 67.3587 2.07477 4.41367 0
M  V30 733 H 66.3637 4.20733 3.53926 0
M  V30 734 H 67.5887 5.14839 4.42851 0
M  V30 735 H 65.5347 3.28469 5.67841 0
M  V30 736 H 65.4517 5.01571 5.65652 0
M  V30 737 H 66.7197 4.22889 6.54817 0
M  V30 738 N 70.9488 -0.749086 1.3866 0
M  V30 739 C 72.2258 -1.4992 1.25632 0
M  V30 740 C 72.6058 -2.10633 -0.140317 0
M  V30 741 O 71.9538 -1.97437 -1.15025 0
M  V30 742 C 72.1638 -2.56195 2.36992 0
M  V30 743 C 73.5118 -3.22972 2.75634 0
M  V30 744 O 74.5358 -2.66502 2.36337 0
M  V30 745 O 73.3948 -4.25122 3.43415 0
M  V30 746 H 70.4888 -0.665067 0.491544 0
M  V30 747 H 73.0348 -0.784113 1.50498 0
M  V30 748 H 71.8068 -2.09612 3.30422 0
M  V30 749 H 71.4298 -3.35279 2.13714 0
M  V30 750 N 72.4269 -1.23603 -0.977757 0
M  V30 751 C 73.6569 -1.09487 -1.75203 0
M  V30 752 C 74.0649 0.356321 -1.85814 0
M  V30 753 O 73.4079 1.25816 -1.33851 0
M  V30 754 C 73.4699 -1.64905 -3.19447 0
M  V30 755 C 73.1339 -3.13688 -3.32338 0
M  V30 756 C 74.1309 -4.10953 -3.18455 0
M  V30 757 C 71.8159 -3.53449 -3.56902 0
M  V30 758 C 73.8099 -5.45962 -3.28944 0
M  V30 759 C 71.4969 -4.88602 -3.6703 0
M  V30 760 C 72.4949 -5.84668 -3.53062 0
M  V30 761 O 72.1829 -7.17365 -3.62826 0
M  V30 762 H 71.9149 -0.38367 -0.556573 0
M  V30 763 H 74.4689 -1.6398 -1.23693 0
M  V30 764 H 72.6989 -1.04835 -3.72218 0
M  V30 765 H 74.3879 -1.46226 -3.78646 0
M  V30 766 H 75.1539 -3.81577 -2.99372 0
M  V30 767 H 71.0329 -2.79188 -3.66844 0
M  V30 768 H 74.5769 -6.20925 -3.17958 0
M  V30 769 H 70.4739 -5.17653 -3.85623 0
M  V30 770 H 71.2419 -7.2515 -3.79605 0
M  V30 771 N 73.905 1.17692 -1.04816 0
M  V30 772 C 75.153 1.87488 -0.754497 0
M  V30 773 C 75.474 1.81205 0.720407 0
M  V30 774 O 74.744 1.23544 1.52032 0
M  V30 775 H 73.324 0.694101 -0.276102 0
M  V30 776 H 75.986 1.42793 -1.32651 0
M  V30 777 H 75.082 2.93328 -1.06606 0
M  V30 778 N 75.3831 0.828654 1.34056 0
M  V30 779 C 76.6601 0.341809 1.9259 0
M  V30 780 C 77.0401 -1.17158 1.75605 0
M  V30 781 O 76.3881 -1.98132 1.13824 0
M  V30 782 C 76.5981 0.777453 3.4023 0
M  V30 783 C 77.9461 0.779579 4.17382 0
M  V30 784 O 78.9701 0.7204 3.48839 0
M  V30 785 O 77.8291 0.857996 5.39723 0
M  V30 786 H 74.9231 0.0946085 0.821571 0
M  V30 787 H 77.4691 0.913827 1.42994 0
M  V30 788 H 76.2411 1.8196 3.46419 0
M  V30 789 H 75.8641 0.181444 3.97186 0
M  V30 790 N 76.8612 -1.46375 0.584142 0
M  V30 791 C 77.7912 -2.33103 -0.136037 0
M  V30 792 C 78.7722 -1.45431 -0.882255 0
M  V30 793 O 79.9572 -1.74246 -0.857434 0
M  V30 794 C 77.0872 -3.27731 -1.14933 0
M  V30 795 C 76.0412 -4.24855 -0.517862 0
M  V30 796 C 75.3672 -5.09001 -1.63773 0
M  V30 797 C 76.6672 -5.19439 0.545886 0
M  V30 798 H 78.3612 -2.93568 0.588086 0
M  V30 799 H 75.9072 -1.41166 0.284259 0
M  V30 800 H 77.8602 -3.87261 -1.66153 0
M  V30 801 H 76.5842 -2.65377 -1.90375 0
M  V30 802 H 75.2432 -3.6659 -0.0267361 0
M  V30 803 H 74.8912 -4.43031 -2.38185 0
M  V30 804 H 74.5912 -5.74777 -1.22085 0
M  V30 805 H 76.1152 -5.71396 -2.15266 0
M  V30 806 H 77.5292 -5.73177 0.118704 0
M  V30 807 H 75.9262 -5.93566 0.88317 0
M  V30 808 H 76.9962 -4.63285 1.43162 0
M  V30 809 N 78.3393 -0.321999 -1.54275 0
M  V30 810 C 79.7503 0.166384 -1.85957 0
M  V30 811 C 80.1013 1.51747 -1.24367 0
M  V30 812 O 79.2263 2.09317 -0.549124 0
M  V30 813 C 79.8213 0.308681 -3.37391 0
M  V30 814 C 78.3803 0.741286 -3.69028 0
M  V30 815 C 77.5273 -0.137937 -2.76957 0
M  V30 816 H 80.4783 -0.542335 -1.49146 0
M  V30 817 H 80.4993 1.13984 -3.63026 0
M  V30 818 H 80.0113 -0.674809 -3.82188 0
M  V30 819 H 78.1123 1.73458 -3.29762 0
M  V30 820 H 78.2253 0.546118 -4.75977 0
M  V30 821 H 76.5893 0.386251 -2.51754 0
M  V30 822 H 77.3723 -1.11816 -3.2458 0
M  V30 823 N 79.8174 1.5752 -0.0501392 0
M  V30 824 C 81.0644 1.9265 0.623874 0
M  V30 825 C 81.3924 0.928411 1.70912 0
M  V30 826 O 80.6474 -0.0594525 1.9561 0
M  V30 827 C 80.9464 3.34467 1.25963 0
M  V30 828 C 80.6124 4.49883 0.302689 0
M  V30 829 C 79.2744 4.81184 0.0393636 0
M  V30 830 C 81.6264 5.20002 -0.353205 0
M  V30 831 C 78.9544 5.79951 -0.887308 0
M  V30 832 C 81.3064 6.1976 -1.26806 0
M  V30 833 C 79.9704 6.49491 -1.54007 0
M  V30 834 H 79.2404 0.704957 0.228292 0
M  V30 835 H 81.8874 1.91146 -0.116398 0
M  V30 836 H 80.1924 3.32333 2.07514 0
M  V30 837 H 81.8894 3.58928 1.78806 0
M  V30 838 H 78.4794 4.25457 0.518109 0
M  V30 839 H 82.6634 4.96033 -0.162854 0
M  V30 840 H 77.9194 6.01322 -1.10553 0
M  V30 841 H 82.0934 6.73205 -1.78236 0
M  V30 842 H 79.7204 7.25837 -2.25976 0
M  V30 843 N 81.2955 -0.223234 1.56011 0
M  V30 844 C 82.2585 -1.26014 1.9145 0
M  V30 845 C 83.2585 -1.3989 0.792937 0
M  V30 846 O 84.4485 -1.38184 1.0607 0
M  V30 847 C 81.5805 -2.63422 2.16383 0
M  V30 848 H 82.7735 -0.95796 2.84189 0
M  V30 849 H 80.3265 -0.463576 1.49267 0
M  V30 850 H 81.0615 -2.98741 1.2619 0
M  V30 851 H 80.8465 -2.54728 2.98088 0
M  V30 852 H 82.3365 -3.38249 2.44903 0
M  V30 853 N 82.7736 -1.49793 -0.48987 0
M  V30 854 C 84.0506 -1.50348 -1.25119 0
M  V30 855 C 84.4306 -0.237466 -2.0976 0
M  V30 856 O 83.7786 0.77981 -2.14782 0
M  V30 857 C 83.9886 -2.78872 -2.09837 0
M  V30 858 C 85.3366 -3.288 -2.68655 0
M  V30 859 O 86.3606 -2.80065 -2.20096 0
M  V30 860 O 85.2196 -4.13707 -3.57083 0
M  V30 861 H 82.3136 -0.602242 -0.566775 0
M  V30 862 H 84.8596 -1.62067 -0.503229 0
M  V30 863 H 83.6316 -3.62499 -1.47343 0
M  V30 864 H 83.2546 -2.70066 -2.91805 0
M  V30 865 N 84.2517 0.741722 -1.39055 0
M  V30 866 C 85.5007 1.49656 -1.35225 0
M  V30 867 C 85.8137 1.95533 0.0512708 0
M  V30 868 O 87.0197 2.7067 0.212138 0
M  V30 869 C 85.4757 2.70389 -2.37525 0
M  V30 870 C 85.0837 2.31489 -3.83558 0
M  V30 871 C 86.8277 3.48236 -2.42759 0
M  V30 872 C 84.7347 3.48903 -4.77515 0
M  V30 873 H 83.6647 0.56197 -0.502699 0
M  V30 874 H 86.3157 0.809727 -1.64668 0
M  V30 875 H 84.6977 3.41113 -2.01142 0
M  V30 876 H 85.8717 1.68354 -4.28945 0
M  V30 877 H 84.1867 1.66749 -3.81554 0
M  V30 878 H 86.7837 4.35558 -3.1015 0
M  V30 879 H 87.1267 3.90229 -1.45008 0
M  V30 880 H 87.6597 2.84535 -2.78002 0
M  V30 881 H 84.3987 3.11966 -5.76504 0
M  V30 882 H 83.9187 4.11041 -4.36813 0
M  V30 883 H 85.5977 4.15328 -4.96096 0
M  V30 884 N 85.7298 1.2412 0.971189 0
M  V30 885 C 87.1408 1.07236 1.52831 0
M  V30 886 C 87.4918 -0.357352 1.92918 0
M  V30 887 O 86.6168 -1.24528 1.76979 0
M  V30 888 C 87.2118 1.94043 2.77728 0
M  V30 889 C 85.7708 1.81394 3.29808 0
M  V30 890 C 84.9178 1.89189 2.02738 0
M  V30 891 H 87.8688 1.37648 0.789864 0
M  V30 892 H 87.8898 1.47066 3.5093 0
M  V30 893 H 87.4018 2.98093 2.4852 0
M  V30 894 H 85.5028 0.801634 3.63874 0
M  V30 895 H 85.6158 2.65294 3.98944 0
M  V30 896 H 83.9798 1.32877 2.17292 0
M  V30 897 H 84.7628 2.94812 1.759 0
M  V30 898 N 87.2079 -1.17134 1.05439 0
M  V30 899 C 88.1559 -2.23289 0.651511 0
M  V30 900 C 89.1499 -1.66186 -0.328411 0
M  V30 901 O 90.3559 -1.78949 -0.194206 0
M  V30 902 H 86.7309 -0.726938 0.192523 0
M  V30 903 H 88.7019 -2.54565 1.55689 0
M  V30 904 C 87.4509 -3.47671 0.0448436 0
M  V30 905 H 86.7739 -3.91918 0.78996 0
M  V30 906 H 88.2139 -4.2353 -0.19964 0
M  V30 907 C 86.6729 -3.14453 -1.20918 0
M  V30 908 O 87.2029 -3.29459 -2.29825 0
M  V30 909 N 85.4089 -2.68657 -1.10779 0
M  V30 910 H 84.9559 -2.56646 -0.221526 0
M  V30 911 H 84.9139 -2.46804 -1.9477 0
M  V30 912 N 88.686 -0.835752 -1.33615 0
M  V30 913 C 89.963 -0.352017 -1.92406 0
M  V30 914 C 90.343 1.16225 -1.76224 0
M  V30 915 O 89.691 1.97526 -1.14873 0
M  V30 916 C 89.901 -0.795485 -3.39813 0
M  V30 917 C 91.249 -0.801703 -4.16963 0
M  V30 918 O 92.273 -0.738889 -3.48452 0
M  V30 919 O 91.132 -0.886607 -5.3926 0
M  V30 920 H 88.226 -0.0989641 -0.821057 0
M  V30 921 H 90.772 -0.921397 -1.42507 0
M  V30 922 H 89.544 -1.83795 -3.45449 0
M  V30 923 H 89.167 -0.202505 -3.97084 0
M  V30 924 N 90.1641 1.46063 -0.591896 0
M  V30 925 C 91.3891 2.07226 -0.0850314 0
M  V30 926 C 91.8141 1.43625 1.21463 0
M  V30 927 O 91.1721 0.523305 1.73583 0
M  V30 928 C 91.2201 3.60554 0.0576567 0
M  V30 929 O 90.3241 3.97128 1.11188 0
M  V30 930 H 89.6651 0.660615 -0.0669568 0
M  V30 931 H 92.1951 1.8756 -0.81745 0
M  V30 932 H 92.2051 4.07165 0.2609 0
M  V30 933 H 90.8801 4.06235 -0.891416 0
M  V30 934 H 89.4571 3.62213 0.886356 0
M  V30 935 N 91.6422 0.330177 1.54103 0
M  V30 936 C 93.0532 -0.15652 1.86043 0
M  V30 937 C 93.4042 -1.51086 1.2517 0
M  V30 938 O 92.5292 -2.09023 0.560217 0
M  V30 939 C 93.1242 -0.290784 3.3755 0
M  V30 940 C 91.6832 -0.721705 3.69416 0
M  V30 941 C 90.8302 0.152622 2.7688 0
M  V30 942 H 93.7812 0.550237 1.48856 0
M  V30 943 H 93.8022 -1.12058 3.63625 0
M  V30 944 H 93.3142 0.695068 3.81825 0
M  V30 945 H 91.4152 -1.71706 3.30678 0
M  V30 946 H 91.5282 -0.520869 4.7626 0
M  V30 947 H 89.8922 -0.372894 2.51956 0
M  V30 948 H 90.6752 1.13536 3.23982 0
M  V30 949 N 93.1203 -1.57491 0.0584922 0
M  V30 950 C 94.3673 -1.92978 -0.613648 0
M  V30 951 C 94.6953 -0.937461 -1.70417 0
M  V30 952 O 93.9503 0.049078 -1.95638 0
M  V30 953 C 94.2493 -3.3513 -1.24188 0
M  V30 954 C 93.9153 -4.50037 -0.278826 0
M  V30 955 C 92.5773 -4.81198 -0.0138447 0
M  V30 956 C 94.9293 -5.19807 0.380777 0
M  V30 957 C 92.2573 -5.79473 0.918052 0
M  V30 958 C 94.6093 -6.19079 1.30091 0
M  V30 959 C 93.2733 -6.48665 1.57449 0
M  V30 960 H 92.5433 -0.706157 -0.22455 0
M  V30 961 H 95.1903 -1.91082 0.126533 0
M  V30 962 H 93.4953 -3.33429 -2.05749 0
M  V30 963 H 95.1923 -3.59871 -1.769 0
M  V30 964 H 91.7823 -4.25726 -0.495539 0
M  V30 965 H 95.9663 -4.95939 0.189158 0
M  V30 966 H 91.2223 -6.00727 1.1374 0
M  V30 967 H 95.3963 -6.7225 1.81804 0
M  V30 968 H 93.0233 -7.24628 2.29822 0
M  V30 969 N 94.5984 0.214957 -1.56127 0
M  V30 970 C 95.5304 1.29004 -1.89448 0
M  V30 971 C 96.5434 1.42716 -0.783326 0
M  V30 972 O 97.7324 1.43496 -1.06166 0
M  V30 973 C 94.8324 2.66482 -2.09381 0
M  V30 974 C 94.0054 2.74633 -3.40434 0
M  V30 975 C 93.0644 3.9317 -3.49719 0
M  V30 976 O 92.0904 3.812 -4.227 0
M  V30 977 N 93.2924 5.07765 -2.81346 0
M  V30 978 H 96.0574 1.00743 -2.82261 0
M  V30 979 H 93.6184 0.40497 -1.56753 0
M  V30 980 H 95.6104 3.44173 -2.12901 0
M  V30 981 H 94.1804 2.87314 -1.23163 0
M  V30 982 H 93.4004 1.83368 -3.48955 0
M  V30 983 H 94.6884 2.77054 -4.26754 0
M  V30 984 H 94.0864 5.20386 -2.21843 0
M  V30 985 H 92.6434 5.83474 -2.90519 0
M  V30 986 N 96.0765 1.50051 0.48192 0
M  V30 987 C 97.3255 1.59741 1.23149 0
M  V30 988 C 97.6385 0.298163 1.93314 0
M  V30 989 O 98.8445 0.273835 2.70116 0
M  V30 990 C 97.3005 2.81926 2.23708 0
M  V30 991 C 96.9085 4.18685 1.59396 0
M  V30 992 C 98.6525 3.00956 2.99375 0
M  V30 993 C 96.5595 5.3207 2.58178 0
M  V30 994 H 95.4895 0.594838 0.46334 0
M  V30 995 H 98.1405 1.76467 0.503169 0
M  V30 996 H 96.5225 2.58736 2.99786 0
M  V30 997 H 97.6965 4.52088 0.891811 0
M  V30 998 H 96.0115 4.05171 0.960503 0
M  V30 999 H 98.6085 3.82836 3.73283 0
M  V30 1000 H 98.9515 2.12258 3.58123 0
M  V30 1001 H 99.4845 3.24277 2.30411 0
M  V30 1002 H 96.2235 6.22888 2.04184 0
M  V30 1003 H 95.7435 5.03098 3.26577 0
M  V30 1004 H 97.4225 5.62196 3.20225 0
M  V30 1005 N 97.5546 -0.734337 1.39446 0
M  V30 1006 C 98.8006 -1.49613 1.36908 0
M  V30 1007 C 99.1336 -1.94169 -0.0347829 0
M  V30 1008 O 98.4086 -1.66833 -0.999847 0
M  V30 1009 C 98.6916 -2.73534 2.34203 0
M  V30 1010 C 98.5446 -2.34993 3.83534 0
M  V30 1011 C 99.8636 -3.75635 2.29317 0
M  V30 1012 H 96.9826 -0.542714 0.498629 0
M  V30 1013 H 99.6246 -0.839597 1.70443 0
M  V30 1014 H 97.7746 -3.29553 2.05736 0
M  V30 1015 H 99.4466 -1.84601 4.22753 0
M  V30 1016 H 97.6896 -1.67213 4.00278 0
M  V30 1017 H 98.3606 -3.23738 4.47099 0
M  V30 1018 H 100.837 -3.29203 2.54489 0
M  V30 1019 H 99.7126 -4.60008 2.99472 0
M  V30 1020 H 99.9736 -4.22603 1.29842 0
M  V30 1021 N 99.0327 -1.24633 -0.964593 0
M  V30 1022 C 99.9797 -1.04144 -2.05968 0
M  V30 1023 C 100.95 0.046262 -1.66036 0
M  V30 1024 O 102.135 -0.108972 -1.90489 0
M  V30 1025 C 99.2747 -0.65563 -3.38815 0
M  V30 1026 C 98.3877 -1.81714 -3.91923 0
M  V30 1027 C 97.5227 -1.37662 -5.13052 0
M  V30 1028 C 96.5617 -2.50788 -5.58365 0
M  V30 1029 N 95.6987 -2.07582 -6.70712 0
M  V30 1030 H 100.539 -1.9787 -2.22827 0
M  V30 1031 H 98.0757 -0.9855 -1.09208 0
M  V30 1032 H 100.034 -0.412954 -4.15151 0
M  V30 1033 H 98.6637 0.244627 -3.21872 0
M  V30 1034 H 97.7157 -2.1734 -3.12198 0
M  V30 1035 H 99.0277 -2.66705 -4.21509 0
M  V30 1036 H 98.1817 -1.093 -5.96773 0
M  V30 1037 H 96.9207 -0.497293 -4.85158 0
M  V30 1038 H 95.9257 -2.79906 -4.73215 0
M  V30 1039 H 97.1507 -3.39283 -5.88272 0
M  V30 1040 H 95.0967 -1.22051 -6.44546 0
M  V30 1041 H 95.0137 -2.86125 -6.99763 0
M  V30 1042 H 96.2817 -1.82369 -7.57867 0
M  V30 1043 N 100.511 1.16574 -1.06058 0
M  V30 1044 C 101.459 2.22941 -0.663343 0
M  V30 1045 C 102.453 1.66358 0.319593 0
M  V30 1046 O 103.659 1.7905 0.184713 0
M  V30 1047 H 100.034 0.725907 -0.196376 0
M  V30 1048 H 102.005 2.53736 -1.57037 0
M  V30 1049 C 100.754 3.47642 -0.0632808 0
M  V30 1050 H 100.077 3.91493 -0.810733 0
M  V30 1051 H 101.517 4.2363 0.177177 0
M  V30 1052 C 99.9758 3.1509 1.19248 0
M  V30 1053 O 100.506 3.30673 2.28075 0
M  V30 1054 N 98.7118 2.6924 1.09353 0
M  V30 1055 H 98.2588 2.5676 0.207912 0
M  V30 1056 H 98.2168 2.47833 1.93458 0
M  V30 1057 N 101.989 0.842826 1.3317 0
M  V30 1058 C 103.4 0.496651 1.79973 0
M  V30 1059 C 103.751 -0.984641 1.69703 0
M  V30 1060 O 102.876 -1.76743 1.24863 0
M  V30 1061 C 103.471 0.894727 3.26772 0
M  V30 1062 C 102.03 0.600629 3.71577 0
M  V30 1063 C 101.177 1.10091 2.5451 0
M  V30 1064 H 104.128 1.03116 1.20635 0
M  V30 1065 H 104.149 0.206347 3.7994 0
M  V30 1066 H 103.661 1.97287 3.34215 0
M  V30 1067 H 101.762 -0.467284 3.69658 0
M  V30 1068 H 101.875 1.15863 4.64879 0
M  V30 1069 H 100.239 0.52162 2.49301 0
M  V30 1070 H 101.022 2.18591 2.64713 0
M  V30 1071 N 103.467 -1.45747 0.599634 0
M  V30 1072 C 104.883 -1.57424 0.26264 0
M  V30 1073 C 105.083 -1.59222 -1.23493 0
M  V30 1074 O 104.139 -1.51825 -2.01756 0
M  V30 1075 C 105.452 -2.86061 0.926795 0
M  V30 1076 C 107 -2.99722 0.901967 0
M  V30 1077 C 107.475 -4.31119 1.54598 0
M  V30 1078 N 108.966 -4.37858 1.5111 0
M  V30 1079 C 109.701 -5.3818 1.97863 0
M  V30 1080 N 109.197 -6.45083 2.52666 0
M  V30 1081 N 110.99 -5.29487 1.88679 0
M  V30 1082 H 103.141 -1.42823 1.57211 0
M  V30 1083 H 105.404 -0.68235 0.658105 0
M  V30 1084 H 105.11 -2.90605 1.98095 0
M  V30 1085 H 104.984 -3.74563 0.445238 0
M  V30 1086 H 107.371 -2.9475 -0.143617 0
M  V30 1087 H 107.452 -2.12652 1.42171 0
M  V30 1088 H 107.096 -4.36849 2.59085 0
M  V30 1089 H 107.026 -5.16992 1.00132 0
M  V30 1090 H 109.517 -3.61209 1.11068 0
M  V30 1091 H 109.83 -7.17869 2.86155 0
M  V30 1092 H 108.175 -6.45856 2.56701 0
M  V30 1093 H 111.366 -4.44877 1.4561 0
M  V30 1094 H 111.539 -6.07524 2.25429 0
M  V30 1095 N 104.945 -0.338344 -1.53925 0
M  V30 1096 C 106.17 0.263987 -2.05713 0
M  V30 1097 C 106.595 1.43847 -1.21201 0
M  V30 1098 O 105.953 1.79904 -0.224535 0
M  V30 1099 C 106.001 0.662 -3.54471 0
M  V30 1100 O 105.105 1.76265 -3.72833 0
M  V30 1101 H 104.446 0.0448722 -0.662482 0
M  V30 1102 H 106.976 -0.491048 -1.9862 0
M  V30 1103 H 106.986 0.940594 -3.9701 0
M  V30 1104 H 105.661 -0.196937 -4.15433 0
M  V30 1105 H 104.238 1.48173 -3.42198 0
M  V30 1106 N 106.423 1.57458 -0.0668435 0
M  V30 1107 C 107.669 1.93587 0.6043 0
M  V30 1108 C 108.002 0.946722 1.69561 0
M  V30 1109 O 107.277 -0.0248516 1.94484 0
M  V30 1110 C 107.56 3.40014 1.18585 0
M  V30 1111 C 107.413 4.49685 0.101529 0
M  V30 1112 C 108.732 3.87154 2.09284 0
M  V30 1113 H 105.851 0.703958 0.218202 0
M  V30 1114 H 108.493 1.89542 -0.131804 0
M  V30 1115 H 106.643 3.43592 1.81319 0
M  V30 1116 H 108.315 4.5823 -0.531279 0
M  V30 1117 H 106.558 4.30059 -0.568487 0
M  V30 1118 H 107.229 5.49266 0.54874 0
M  V30 1119 H 109.705 3.85551 1.56491 0
M  V30 1120 H 108.581 4.90231 2.46911 0
M  V30 1121 H 108.842 3.2481 2.99918 0
M  V30 1122 N 107.901 -0.206675 1.56239 0
M  V30 1123 C 109.149 -0.927007 1.79586 0
M  V30 1124 C 109.47 -1.8427 0.637929 0
M  V30 1125 O 108.74 -1.92849 -0.344398 0
M  V30 1126 H 107.32 -0.345292 0.662407 0
M  V30 1127 H 109.982 -0.21496 1.93711 0
M  V30 1128 H 109.078 -1.52501 2.72305 0
M  V30 1129 N 109.379 -1.50304 -0.473955 0
M  V30 1130 C 110.326 -1.68959 -1.57231 0
M  V30 1131 C 111.296 -0.530899 -1.57387 0
M  V30 1132 O 112.481 -0.761133 -1.74961 0
M  V30 1133 C 109.621 -1.7871 -2.95223 0
M  V30 1134 C 108.734 -3.06061 -3.04878 0
M  V30 1135 C 107.869 -3.06626 -4.33767 0
M  V30 1136 C 106.908 -4.28443 -4.37154 0
M  V30 1137 N 106.045 -4.26763 -5.5751 0
M  V30 1138 H 110.885 -2.6273 -1.40631 0
M  V30 1139 H 108.422 -1.30241 -0.683789 0
M  V30 1140 H 110.38 -1.82344 -3.75242 0
M  V30 1141 H 109.01 -0.883806 -3.10465 0
M  V30 1142 H 108.062 -3.11911 -2.17751 0
M  V30 1143 H 109.374 -3.96039 -3.0324 0
M  V30 1144 H 108.528 -3.08973 -5.22131 0
M  V30 1145 H 107.267 -2.14473 -4.3801 0
M  V30 1146 H 106.272 -4.2631 -3.47188 0
M  V30 1147 H 107.497 -5.2182 -4.34605 0
M  V30 1148 H 105.443 -3.37462 -5.62544 0
M  V30 1149 H 105.36 -5.10507 -5.57601 0
M  V30 1150 H 106.628 -4.33253 -6.48006 0
M  V30 1151 N 110.857 0.726932 -1.39834 0
M  V30 1152 C 111.82 1.82269 -1.38962 0
M  V30 1153 C 112.82 1.58248 -0.285334 0
M  V30 1154 O 114.01 1.65499 -0.54366 0
M  V30 1155 C 111.142 3.20186 -1.17019 0
M  V30 1156 H 112.335 1.84443 -2.36476 0
M  V30 1157 H 109.888 0.931416 -1.25516 0
M  V30 1158 H 110.623 3.23669 -0.202204 0
M  V30 1159 H 110.408 3.3902 -1.96998 0
M  V30 1160 H 111.898 4.00235 -1.1917 0
M  V30 1161 N 112.336 1.25143 0.95797 0
M  V30 1162 C 113.561 1.12521 1.74223 0
M  V30 1163 C 113.986 -0.317402 1.85403 0
M  V30 1164 O 113.344 -1.2299 1.33204 0
M  V30 1165 C 113.392 1.78062 3.1357 0
M  V30 1166 O 112.496 1.058 3.98598 0
M  V30 1167 H 111.837 0.39304 0.535178 0
M  V30 1168 H 114.367 1.65641 1.201 0
M  V30 1169 H 114.377 1.84213 3.64046 0
M  V30 1170 H 113.052 2.83021 3.04749 0
M  V30 1171 H 111.629 1.07506 3.57067 0
M  V30 1172 N 113.814 -1.1601 1.06675 0
M  V30 1173 C 114.724 -2.24156 0.692179 0
M  V30 1174 C 115.74 -1.71507 -0.293513 0
M  V30 1175 O 116.916 -2.009 -0.141861 0
M  V30 1176 C 113.981 -3.46587 0.0884131 0
M  V30 1177 C 113.042 -4.14257 1.12646 0
M  V30 1178 C 112.275 -5.30844 0.551416 0
M  V30 1179 O 112.498 -5.66858 -0.634656 0
M  V30 1180 O 111.432 -5.87848 1.29298 0
M  V30 1181 H 115.258 -2.58513 1.59388 0
M  V30 1182 H 112.843 -1.23599 0.83926 0
M  V30 1183 H 114.725 -4.20679 -0.246361 0
M  V30 1184 H 113.4 -3.13994 -0.786712 0
M  V30 1185 H 112.307 -3.42118 1.51348 0
M  V30 1186 H 113.64 -4.50914 1.97325 0
M  V30 1187 N 115.292 -0.849877 -1.32721 0
M  V30 1188 C 116.224 -0.248332 -2.27851 0
M  V30 1189 C 117.237 0.577218 -1.52224 0
M  V30 1190 O 118.426 0.402489 -1.73903 0
M  V30 1191 C 115.526 0.668107 -3.32249 0
M  V30 1192 C 114.699 -0.120534 -4.37234 0
M  V30 1193 C 113.758 0.720932 -5.21238 0
M  V30 1194 O 112.784 0.156166 -5.68986 0
M  V30 1195 N 113.986 2.03647 -5.43607 0
M  V30 1196 H 116.751 -1.06575 -2.80111 0
M  V30 1197 H 114.312 -0.709395 -1.45531 0
M  V30 1198 H 116.304 1.23627 -3.85355 0
M  V30 1199 H 114.874 1.38621 -2.80184 0
M  V30 1200 H 114.094 -0.870108 -3.84477 0
M  V30 1201 H 115.382 -0.662406 -5.0447 0
M  V30 1202 H 114.78 2.51871 -5.06535 0
M  V30 1203 H 113.337 2.55287 -5.99727 0
M  V30 1204 N 116.77 1.45427 -0.607355 0
M  V30 1205 C 117.7 2.3329 0.0989352 0
M  V30 1206 C 118.681 1.46816 0.859007 0
M  V30 1207 O 119.866 1.75588 0.829604 0
M  V30 1208 C 116.996 3.29518 1.09705 0
M  V30 1209 C 115.95 4.25626 0.450206 0
M  V30 1210 C 115.276 5.11542 1.55655 0
M  V30 1211 C 116.576 5.18505 -0.628455 0
M  V30 1212 H 118.27 2.92595 -0.634716 0
M  V30 1213 H 115.816 1.40696 -0.306681 0
M  V30 1214 H 117.769 3.89855 1.59971 0
M  V30 1215 H 116.493 2.68372 1.86129 0
M  V30 1216 H 115.152 3.66586 -0.0315886 0
M  V30 1217 H 114.8 4.46765 2.31107 0
M  V30 1218 H 114.5 5.76647 1.12925 0
M  V30 1219 H 116.024 5.74748 2.06148 0
M  V30 1220 H 117.438 5.72916 -0.209877 0
M  V30 1221 H 115.835 5.92085 -0.977489 0
M  V30 1222 H 116.905 4.60948 -1.50514 0
M  V30 1223 N 118.248 0.346503 1.53744 0
M  V30 1224 C 119.211 -0.496439 2.23759 0
M  V30 1225 C 120.211 -1.0252 1.2388 0
M  V30 1226 O 121.401 -0.913974 1.48297 0
M  V30 1227 C 118.533 -1.69187 2.95954 0
M  V30 1228 H 119.726 0.115952 2.99676 0
M  V30 1229 H 117.279 0.0978939 1.55993 0
M  V30 1230 H 118.014 -2.34288 2.24231 0
M  V30 1231 H 117.799 -1.31989 3.69217 0
M  V30 1232 H 119.289 -2.28969 3.49232 0
M  V30 1233 N 119.726 -1.57421 0.075193 0
M  V30 1234 C 120.974 -1.93236 -0.591974 0
M  V30 1235 C 121.295 -0.956241 -1.69944 0
M  V30 1236 O 120.565 -0.00494792 -1.95899 0
M  V30 1237 H 119.145 -0.713355 -0.22166 0
M  V30 1238 H 121.807 -1.9444 0.133848 0
M  V30 1239 H 120.903 -2.95131 -1.01509 0
M  V30 1240 N 121.204 0.198386 -1.56346 0
M  V30 1241 C 122.151 1.24589 -1.94284 0
M  V30 1242 C 123.121 1.454 -0.802997 0
M  V30 1243 O 124.306 1.58588 -1.06087 0
M  V30 1244 C 121.446 2.58631 -2.28482 0
M  V30 1245 C 120.559 2.45426 -3.55514 0
M  V30 1246 C 119.694 3.7215 -3.79049 0
M  V30 1247 C 118.733 3.53763 -4.99518 0
M  V30 1248 N 117.87 4.72491 -5.19323 0
M  V30 1249 H 122.71 0.915356 -2.83593 0
M  V30 1250 H 120.247 0.440629 -1.40346 0
M  V30 1251 H 122.205 3.3672 -2.46324 0
M  V30 1252 H 120.835 2.89734 -1.42317 0
M  V30 1253 H 119.887 1.58652 -3.45737 0
M  V30 1254 H 121.199 2.27772 -4.43758 0
M  V30 1255 H 120.353 4.58679 -3.97113 0
M  V30 1256 H 119.092 3.92754 -2.89129 0
M  V30 1257 H 118.097 2.65619 -4.8138 0
M  V30 1258 H 119.322 3.34607 -5.90944 0
M  V30 1259 H 117.268 4.93365 -4.3235 0
M  V30 1260 H 117.185 4.5765 -6.01741 0
M  V30 1261 H 118.453 5.6038 -5.41843 0
M  V30 1262 N 122.682 1.50554 0.465978 0
M  V30 1263 C 123.928 1.62038 1.21949 0
M  V30 1264 C 124.261 0.322116 1.9151 0
M  V30 1265 O 123.536 -0.676723 1.82348 0
M  V30 1266 C 123.819 2.80421 2.25912 0
M  V30 1267 C 123.672 4.20144 1.60622 0
M  V30 1268 C 124.991 2.94354 3.27176 0
M  V30 1269 H 122.11 0.589752 0.441998 0
M  V30 1270 H 124.752 1.82956 0.51257 0
M  V30 1271 H 122.902 2.62717 2.86203 0
M  V30 1272 H 124.574 4.49449 1.03889 0
M  V30 1273 H 122.817 4.24165 0.909211 0
M  V30 1274 H 123.488 4.98914 2.36196 0
M  V30 1275 H 125.964 3.10578 2.76913 0
M  V30 1276 H 124.84 3.788 3.97242 0
M  V30 1277 H 125.101 2.05186 3.916 0
M  V30 1278 N 124.16 -0.719506 1.40217 0
M  V30 1279 C 125.123 -1.8153 1.39927 0
M  V30 1280 C 126.123 -1.58095 0.293723 0
M  V30 1281 O 127.313 -1.65209 0.552429 0
M  V30 1282 C 124.445 -3.19561 1.18716 0
M  V30 1283 H 125.638 -1.83186 2.37451 0
M  V30 1284 H 123.191 -0.924746 1.26008 0
M  V30 1285 H 123.926 -3.23557 0.219366 0
M  V30 1286 H 123.711 -3.3797 1.98793 0
M  V30 1287 H 125.201 -3.99598 1.21291 0
M  V30 1288 N 125.638 -1.25649 -0.95132 0
M  V30 1289 C 126.548 -1.08073 -2.08224 0
M  V30 1290 C 127.564 -0.0169666 -1.73992 0
M  V30 1291 O 128.74 -0.218593 -2.0021 0
M  V30 1292 C 125.805 -0.704922 -3.39458 0
M  V30 1293 C 124.866 -1.84699 -3.87537 0
M  V30 1294 C 124.099 -1.48902 -5.12508 0
M  V30 1295 O 124.322 -0.386156 -5.69091 0
M  V30 1296 O 123.256 -2.32033 -5.55378 0
M  V30 1297 H 127.082 -2.02924 -2.25954 0
M  V30 1298 H 124.667 -1.04618 -1.06656 0
M  V30 1299 H 126.549 -0.507609 -4.18332 0
M  V30 1300 H 125.224 0.214291 -3.2299 0
M  V30 1301 H 124.131 -2.09919 -3.09653 0
M  V30 1302 H 125.464 -2.74557 -4.08509 0
M  V30 1303 N 127.117 1.15442 -1.07289 0
M  V30 1304 C 128.363 1.86489 -0.796846 0
M  V30 1305 C 128.696 1.82078 0.675371 0
M  V30 1306 O 127.971 1.24346 1.4956 0
M  V30 1307 C 128.254 3.35626 -1.30489 0
M  V30 1308 C 128.107 3.48673 -2.84161 0
M  V30 1309 C 129.426 4.30357 -0.920907 0
M  V30 1310 H 126.545 0.677144 -0.290939 0
M  V30 1311 H 129.187 1.35633 -1.33056 0
M  V30 1312 H 127.337 3.79068 -0.850883 0
M  V30 1313 H 129.009 3.14099 -3.37846 0
M  V30 1314 H 127.252 2.90253 -3.22391 0
M  V30 1315 H 127.923 4.53453 -3.14777 0
M  V30 1316 H 130.399 3.94871 -1.3121 0
M  V30 1317 H 129.275 5.33193 -1.30372 0
M  V30 1318 H 129.536 4.4176 0.173226 0
M  V30 1319 N 128.595 0.856903 1.32268 0
M  V30 1320 C 129.542 0.301172 2.28827 0
M  V30 1321 C 130.512 -0.593104 1.5515 0
M  V30 1322 O 131.697 -0.527537 1.83362 0
M  V30 1323 C 128.837 -0.502523 3.41422 0
M  V30 1324 C 127.95 0.417797 4.29975 0
M  V30 1325 C 127.085 -0.398749 5.29701 0
M  V30 1326 C 126.124 0.518827 6.09897 0
M  V30 1327 N 125.261 -0.260674 7.01616 0
M  V30 1328 H 130.101 1.12983 2.75751 0
M  V30 1329 H 127.638 0.568582 1.35667 0
M  V30 1330 H 129.596 -0.984141 4.05426 0
M  V30 1331 H 128.226 -1.29599 2.95642 0
M  V30 1332 H 127.278 1.01781 3.66531 0
M  V30 1333 H 128.59 1.12191 4.86019 0
M  V30 1334 H 127.744 -0.943435 5.9932 0
M  V30 1335 H 126.483 -1.13622 4.7428 0
M  V30 1336 H 125.488 1.07538 5.39181 0
M  V30 1337 H 126.713 1.25495 6.67404 0
M  V30 1338 H 124.659 -0.981198 6.4862 0
M  V30 1339 H 124.576 0.384364 7.55022 0
M  V30 1340 H 125.844 -0.787014 7.75517 0
M  V30 1341 N 130.073 -1.45103 0.615059 0
M  V30 1342 C 131.02 -2.30586 -0.0993978 0
M  V30 1343 C 131.99 -1.42544 -0.852669 0
M  V30 1344 O 133.175 -1.71465 -0.836917 0
M  V30 1345 C 130.315 -3.27572 -1.08583 0
M  V30 1346 C 129.428 -4.30717 -0.332656 0
M  V30 1347 C 128.563 -5.14807 -1.30947 0
M  V30 1348 C 127.602 -6.09673 -0.544538 0
M  V30 1349 N 126.739 -6.86517 -1.47101 0
M  V30 1350 H 131.579 -2.91144 0.635542 0
M  V30 1351 H 129.116 -1.4346 0.325206 0
M  V30 1352 H 131.074 -3.82276 -1.67095 0
M  V30 1353 H 129.704 -2.68751 -1.78809 0
M  V30 1354 H 128.756 -3.78615 0.368107 0
M  V30 1355 H 130.068 -4.98102 0.263842 0
M  V30 1356 H 129.222 -5.73948 -1.96643 0
M  V30 1357 H 127.961 -4.47458 -1.9399 0
M  V30 1358 H 126.966 -5.49656 0.126003 0
M  V30 1359 H 128.191 -6.79052 0.080947 0
M  V30 1360 H 126.137 -6.21851 -2.08895 0
M  V30 1361 H 126.054 -7.50281 -0.928137 0
M  V30 1362 H 127.322 -7.50194 -2.11731 0
M  V30 1363 N 131.551 -0.354651 -1.53558 0
M  V30 1364 C 132.499 0.512195 -2.26891 0
M  V30 1365 C 133.493 1.09263 -1.29452 0
M  V30 1366 O 134.699 1.03709 -1.47121 0
M  V30 1367 H 131.074 0.183878 -0.729173 0
M  V30 1368 H 133.045 -0.128202 -2.98124 0
M  V30 1369 C 131.794 1.64563 -3.06291 0
M  V30 1370 H 131.117 1.20829 -3.81104 0
M  V30 1371 H 132.557 2.22711 -3.60799 0
M  V30 1372 C 131.016 2.58158 -2.16462 0
M  V30 1373 O 131.546 3.60695 -1.76811 0
M  V30 1374 N 129.752 2.27096 -1.81317 0
M  V30 1375 H 129.299 1.43751 -2.1376 0
M  V30 1376 H 129.257 2.89975 -1.21498 0
M  V30 1377 N 133.029 1.57378 -0.0835403 0
M  V30 1378 C 134.277 1.93547 0.581718 0
M  V30 1379 C 134.598 0.96524 1.69435 0
M  V30 1380 O 133.868 0.0153369 1.95894 0
M  V30 1381 H 132.448 0.714521 0.217874 0
M  V30 1382 H 135.11 1.94366 -0.144158 0
M  V30 1383 H 134.206 2.95665 0.999423 0
M  V30 1384 N 134.507 -0.190092 1.56449 0
M  V30 1385 C 135.923 -0.54113 1.50146 0
M  V30 1386 C 136.123 -1.85603 0.784465 0
M  V30 1387 O 135.179 -2.5024 0.337051 0
M  V30 1388 C 136.492 -0.591241 2.9483 0
M  V30 1389 C 138.04 -0.679732 3.0553 0
M  V30 1390 C 138.515 -0.760908 4.51635 0
M  V30 1391 N 140.006 -0.824302 4.55806 0
M  V30 1392 C 140.741 -0.907365 5.66175 0
M  V30 1393 N 140.237 -0.952422 6.86222 0
M  V30 1394 N 142.03 -0.94494 5.541 0
M  V30 1395 H 134.181 0.67235 2.01478 0
M  V30 1396 H 136.444 0.240127 0.917084 0
M  V30 1397 H 136.15 0.305905 3.50367 0
M  V30 1398 H 136.024 -1.44422 3.48457 0
M  V30 1399 H 138.411 -1.56731 2.50039 0
M  V30 1400 H 138.492 0.199549 2.5502 0
M  V30 1401 H 138.136 0.122336 5.07753 0
M  V30 1402 H 138.066 -1.65606 4.99882 0
M  V30 1403 H 140.557 -0.798526 3.69367 0
M  V30 1404 H 140.87 -1.01645 7.66086 0
M  V30 1405 H 139.215 -0.921014 6.8887 0
M  V30 1406 H 142.406 -0.906612 4.59236 0
M  V30 1407 H 142.579 -1.00622 6.4014 0
M  V30 1408 N 135.985 -1.50799 -0.457987 0
M  V30 1409 C 137.234 -1.6168 -1.20593 0
M  V30 1410 C 137.547 -0.32888 -1.92815 0
M  V30 1411 O 138.753 -0.316773 -2.69646 0
M  V30 1412 C 137.209 -2.8545 -2.19195 0
M  V30 1413 C 136.817 -4.21168 -1.52715 0
M  V30 1414 C 138.561 -3.05681 -2.94549 0
M  V30 1415 C 136.468 -5.3611 -2.4968 0
M  V30 1416 H 135.398 -0.602134 -0.453818 0
M  V30 1417 H 138.049 -1.77245 -0.475031 0
M  V30 1418 H 136.431 -2.63472 -2.95632 0
M  V30 1419 H 137.605 -4.53449 -0.819775 0
M  V30 1420 H 135.92 -4.06648 -0.895922 0
M  V30 1421 H 138.517 -3.88727 -3.67145 0
M  V30 1422 H 138.86 -2.17929 -3.54701 0
M  V30 1423 H 139.393 -3.27901 -2.25223 0
M  V30 1424 H 136.132 -6.26057 -1.94249 0
M  V30 1425 H 135.652 -5.0823 -3.18532 0
M  V30 1426 H 137.331 -5.6722 -3.11241 0
M  V30 1427 N 137.463 0.71206 -1.40597 0
M  V30 1428 C 138.688 1.50617 -1.42581 0
M  V30 1429 C 139.113 1.88079 -0.0282102 0
M  V30 1430 O 138.471 1.53511 0.964579 0
M  V30 1431 C 138.519 2.7557 -2.3258 0
M  V30 1432 O 137.623 3.72414 -1.77148 0
M  V30 1433 H 136.964 0.453966 -0.484573 0
M  V30 1434 H 139.494 0.876649 -1.84868 0
M  V30 1435 H 139.504 3.2406 -2.47889 0
M  V30 1436 H 138.179 2.47639 -3.34138 0
M  V30 1437 H 136.756 3.31276 -1.71204 0
M  V30 1438 N 138.941 1.26152 0.944643 0
M  V30 1439 C 139.871 1.09902 2.06019 0
M  V30 1440 C 140.852 0.00519538 1.70099 0
M  V30 1441 O 142.037 0.176583 1.93396 0
M  V30 1442 C 139.167 0.727562 3.39594 0
M  V30 1443 C 138.121 1.77274 3.89561 0
M  V30 1444 C 137.447 1.25569 5.19747 0
M  V30 1445 C 138.747 3.17357 4.14827 0
M  V30 1446 H 140.441 2.03217 2.19871 0
M  V30 1447 H 137.987 0.978452 1.05652 0
M  V30 1448 H 139.94 0.600777 4.17095 0
M  V30 1449 H 138.664 -0.241287 3.25707 0
M  V30 1450 H 137.323 1.88814 3.14237 0
M  V30 1451 H 136.971 0.276783 5.02238 0
M  V30 1452 H 136.671 1.95433 5.54148 0
M  V30 1453 H 138.195 1.1415 5.99835 0
M  V30 1454 H 139.609 3.08914 4.82954 0
M  V30 1455 H 138.006 3.84781 4.60504 0
M  V30 1456 H 139.076 3.63673 3.20734 0
M  V30 1457 N 140.419 -1.14872 1.07899 0
M  V30 1458 C 141.665 -1.86064 0.806725 0
M  V30 1459 C 141.998 -1.82434 -0.665706 0
M  V30 1460 O 141.273 -1.25138 -1.48899 0
M  V30 1461 C 141.556 -3.34929 1.32267 0
M  V30 1462 C 141.409 -3.47161 2.86006 0
M  V30 1463 C 142.728 -4.29863 0.943717 0
M  V30 1464 H 139.847 -0.675591 0.294526 0
M  V30 1465 H 142.489 -1.34925 1.33773 0
M  V30 1466 H 140.639 -3.78611 0.870974 0
M  V30 1467 H 142.311 -3.12302 3.39507 0
M  V30 1468 H 140.554 -2.88539 3.23925 0
M  V30 1469 H 141.225 -4.51777 3.17177 0
M  V30 1470 H 143.701 -3.9417 1.33302 0
M  V30 1471 H 142.577 -5.32494 1.33198 0
M  V30 1472 H 142.838 -4.41846 -0.149796 0
M  V30 1473 N 141.898 -0.863906 -1.31812 0
M  V30 1474 C 142.828 -0.330843 -2.31144 0
M  V30 1475 C 143.809 0.575005 -1.60087 0
M  V30 1476 O 144.994 0.493304 -1.8783 0
M  V30 1477 C 142.124 0.47374 -3.44054 0
M  V30 1478 C 141.078 -0.338481 -4.26659 0
M  V30 1479 C 140.404 0.591412 -5.31419 0
M  V30 1480 C 141.704 -1.56926 -4.98168 0
M  V30 1481 H 143.398 -1.16086 -2.75979 0
M  V30 1482 H 140.944 -0.559657 -1.32679 0
M  V30 1483 H 142.897 0.857143 -4.12591 0
M  V30 1484 H 141.621 1.33721 -2.9797 0
M  V30 1485 H 140.28 -0.703754 -3.59782 0
M  V30 1486 H 139.928 1.45199 -4.81587 0
M  V30 1487 H 139.628 0.0519022 -5.87577 0
M  V30 1488 H 141.152 0.97179 -6.02817 0
M  V30 1489 H 142.566 -1.25764 -5.59336 0
M  V30 1490 H 140.963 -2.04739 -5.64094 0
M  V30 1491 H 142.033 -2.32544 -4.25501 0
M  V30 1492 N 143.376 1.44774 -0.622745 0
M  V30 1493 C 144.624 2.01721 -0.123655 0
M  V30 1494 C 144.945 1.49172 1.25589 0
M  V30 1495 O 144.215 0.691974 1.83272 0
M  V30 1496 H 142.795 0.745777 -0.0427225 0
M  V30 1497 H 145.457 1.77382 -0.807559 0
M  V30 1498 H 144.553 3.11984 -0.0849534 0
M  V30 1499 N 144.854 0.36279 1.53368 0
M  V30 1500 C 146.102 -0.227326 2.00817 0
M  V30 1501 C 146.423 -1.49511 1.25186 0
M  V30 1502 O 145.693 -1.92482 0.364348 0
M  V30 1503 H 144.273 -0.0869923 0.741917 0
M  V30 1504 H 146.935 0.488381 1.88682 0
M  V30 1505 H 146.031 -0.456273 3.08747 0
M  V30 1506 N 146.332 -1.57332 0.0918853 0
M  V30 1507 C 147.609 -1.85691 -0.614668 0
M  V30 1508 C 147.989 -0.988146 -1.86545 0
M  V30 1509 O 147.337 -0.0597055 -2.28422 0
M  V30 1510 C 147.547 -3.36294 -0.933126 0
M  V30 1511 C 148.895 -4.04275 -1.29796 0
M  V30 1512 O 149.919 -3.41157 -1.02424 0
M  V30 1513 O 148.778 -5.1564 -1.81047 0
M  V30 1514 H 145.872 -0.767802 -0.307261 0
M  V30 1515 H 148.418 -1.69244 0.12434 0
M  V30 1516 H 147.19 -3.91273 -0.0456404 0
M  V30 1517 H 146.813 -3.58076 -1.72822 0
M  V30 1518 N 147.81 0.181792 -1.56548 0
M  V30 1519 C 148.76 1.22961 -1.92002 0
M  V30 1520 C 149.744 1.40331 -0.787146 0
M  V30 1521 O 150.936 1.42478 -1.05019 0
M  V30 1522 C 148.065 2.57144 -2.27446 0
M  V30 1523 C 147.151 2.43512 -3.47222 0
M  V30 1524 N 147.542 1.99577 -4.64761 0
M  V30 1525 C 145.84 2.74368 -3.51622 0
M  V30 1526 C 146.541 1.98156 -5.46909 0
M  V30 1527 N 145.517 2.40164 -4.8767 0
M  V30 1528 H 149.319 0.881462 -2.8037 0
M  V30 1529 H 146.833 0.390141 -1.57644 0
M  V30 1530 H 148.83 3.32847 -2.51035 0
M  V30 1531 H 147.49 2.92771 -1.40411 0
M  V30 1532 H 148.501 1.70078 -4.89177 0
M  V30 1533 H 145.178 3.14102 -2.75038 0
M  V30 1534 H 146.568 1.65975 -6.51077 0
M  V30 1535 N 149.288 1.51039 0.449983 0
M  V30 1536 C 150.513 1.6715 1.22783 0
M  V30 1537 C 150.938 0.363081 1.84563 0
M  V30 1538 O 150.296 -0.675433 1.68249 0
M  V30 1539 C 150.344 2.77985 2.29689 0
M  V30 1540 O 149.448 2.40707 3.34864 0
M  V30 1541 H 148.789 0.557746 0.360299 0
M  V30 1542 H 151.319 1.97535 0.533005 0
M  V30 1543 H 151.329 3.01693 2.74673 0
M  V30 1544 H 150.004 3.72935 1.84098 0
M  V30 1545 H 148.581 2.27523 2.95445 0
M  V30 1546 N 150.766 -0.704594 1.40972 0
M  V30 1547 C 151.696 -1.83124 1.44872 0
M  V30 1548 C 152.677 -1.67281 0.30838 0
M  V30 1549 O 153.862 -1.87149 0.518556 0
M  V30 1550 C 150.992 -3.21181 1.32136 0
M  V30 1551 C 149.946 -3.51714 2.43888 0
M  V30 1552 C 149.272 -4.89032 2.16222 0
M  V30 1553 C 150.572 -3.516 3.86232 0
M  V30 1554 H 152.266 -1.80117 2.39161 0
M  V30 1555 H 149.812 -0.865145 1.15114 0
M  V30 1556 H 151.765 -3.99702 1.33479 0
M  V30 1557 H 150.489 -3.24791 0.343279 0
M  V30 1558 H 149.148 -2.75539 2.41813 0
M  V30 1559 H 148.796 -4.89256 1.16778 0
M  V30 1560 H 148.496 -5.10426 2.911 0
M  V30 1561 H 150.02 -5.69873 2.19265 0
M  V30 1562 H 151.434 -4.2014 3.9007 0
M  V30 1563 H 149.831 -3.84523 4.60719 0
M  V30 1564 H 150.901 -2.50757 4.15029 0
M  V30 1565 N 152.244 -1.26651 -0.937939 0
M  V30 1566 C 153.207 -1.08546 -2.01867 0
M  V30 1567 C 154.207 -0.0327327 -1.60767 0
M  V30 1568 O 155.397 -0.276427 -1.71993 0
M  V30 1569 C 152.529 -0.651711 -3.34613 0
M  V30 1570 H 153.722 -2.04502 -2.1936 0
M  V30 1571 H 151.275 -1.09294 -1.11734 0
M  V30 1572 H 152.01 0.309696 -3.22818 0
M  V30 1573 H 151.795 -1.41189 -3.65798 0
M  V30 1574 H 153.285 -0.546973 -4.14002 0
M  V30 1575 N 153.722 1.14298 -1.08507 0
M  V30 1576 C 154.971 1.84708 -0.810305 0
M  V30 1577 C 155.284 1.83903 0.666271 0
M  V30 1578 O 156.49 2.50112 1.05624 0
M  V30 1579 C 154.946 3.31572 -1.39957 0
M  V30 1580 C 154.554 3.40791 -2.90801 0
M  V30 1581 C 156.298 4.07087 -1.20334 0
M  V30 1582 C 154.205 4.81872 -3.4286 0
M  V30 1583 H 153.135 0.691985 -0.299454 0
M  V30 1584 H 155.786 1.28841 -1.30661 0
M  V30 1585 H 154.168 3.87183 -0.830976 0
M  V30 1586 H 155.342 2.95225 -3.53806 0
M  V30 1587 H 153.657 2.78732 -3.0935 0
M  V30 1588 H 156.254 5.11225 -1.56693 0
M  V30 1589 H 156.597 4.16054 -0.143237 0
M  V30 1590 H 157.13 3.57779 -1.73893 0
M  V30 1591 H 153.869 4.78094 -4.48449 0
M  V30 1592 H 153.389 5.27972 -2.84615 0
M  V30 1593 H 155.068 5.50765 -3.39509 0
M  V30 1594 N 155.201 0.870884 1.31352 0
M  V30 1595 C 156.449 0.48132 1.96285 0
M  V30 1596 C 156.77 -0.969813 1.69173 0
M  V30 1597 O 156.04 -1.67998 1.00764 0
M  V30 1598 H 154.62 0.175002 0.726212 0
M  V30 1599 H 157.282 1.11087 1.60143 0
M  V30 1600 H 156.378 0.639825 3.05471 0
M  V30 1601 N 156.679 -1.44442 0.630414 0
M  V30 1602 C 157.904 -2.06927 0.139944 0
M  V30 1603 C 158.329 -1.46795 -1.17613 0
M  V30 1604 O 157.687 -0.569144 -1.72135 0
M  V30 1605 C 157.735 -3.6058 0.0379581 0
M  V30 1606 O 156.839 -3.99937 -1.0062 0
M  V30 1607 H 156.18 -0.658608 0.0844483 0
M  V30 1608 H 158.71 -1.85327 0.866891 0
M  V30 1609 H 158.72 -4.07714 -0.152856 0
M  V30 1610 H 157.395 -4.03728 0.998809 0
M  V30 1611 H 155.972 -3.64436 -0.79001 0
M  V30 1612 N 158.157 -0.370918 -1.53173 0
M  V30 1613 C 159.406 0.218249 -2.00516 0
M  V30 1614 C 159.719 1.49429 -1.26215 0
M  V30 1615 O 160.925 2.16239 -1.64174 0
M  V30 1616 C 159.381 0.43948 -3.57207 0
M  V30 1617 C 158.989 -0.822244 -4.4039 0
M  V30 1618 C 160.733 0.986012 -4.1289 0
M  V30 1619 C 158.64 -0.570304 -5.88644 0
M  V30 1620 H 157.57 0.0853333 -0.749156 0
M  V30 1621 H 160.221 -0.490483 -1.76823 0
M  V30 1622 H 158.603 1.20961 -3.77074 0
M  V30 1623 H 159.777 -1.59557 -4.32294 0
M  V30 1624 H 158.092 -1.29238 -3.95836 0
M  V30 1625 H 160.689 1.18991 -5.21292 0
M  V30 1626 H 161.032 1.94972 -3.6782 0
M  V30 1627 H 161.565 0.27592 -3.96842 0
M  V30 1628 H 158.304 -1.50449 -6.38001 0
M  V30 1629 H 157.824 0.164427 -5.99575 0
M  V30 1630 H 159.503 -0.19784 -6.46697 0
M  V30 1631 N 159.635 1.57281 -0.100228 0
M  V30 1632 C 160.86 1.99302 0.573881 0
M  V30 1633 C 161.285 0.979059 1.60611 0
M  V30 1634 O 160.643 -0.0517803 1.81226 0
M  V30 1635 C 160.691 3.40274 1.19358 0
M  V30 1636 O 159.795 3.41676 2.30935 0
M  V30 1637 H 159.136 0.647944 0.145138 0
M  V30 1638 H 161.666 2.03779 -0.183156 0
M  V30 1639 H 161.676 3.78078 1.53365 0
M  V30 1640 H 160.351 4.13594 0.437385 0
M  V30 1641 H 158.928 3.15672 1.98509 0
M  V30 1642 N 161.113 -0.173488 1.56642 0
M  V30 1643 C 162.361 -0.888706 1.81512 0
M  V30 1644 C 162.682 -1.82875 0.676872 0
M  V30 1645 O 161.952 -1.93536 -0.303414 0
M  V30 1646 H 160.532 -0.331164 0.669582 0
M  V30 1647 H 163.194 -0.173823 1.94123 0
M  V30 1648 H 162.29 -1.46691 2.75478 0
M  V30 1649 N 162.591 -1.51276 -0.441967 0
M  V30 1650 C 163.541 -1.6864 -1.53442 0
M  V30 1651 C 164.525 -0.540444 -1.51552 0
M  V30 1652 O 165.717 -0.796157 -1.58083 0
M  V30 1653 C 162.846 -1.8106 -2.91672 0
M  V30 1654 C 161.932 -3.01424 -2.98336 0
M  V30 1655 N 162.323 -4.2467 -2.74752 0
M  V30 1656 C 160.621 -3.00584 -3.29493 0
M  V30 1657 C 161.322 -5.05891 -2.87139 0
M  V30 1658 N 160.298 -4.40442 -3.18609 0
M  V30 1659 H 164.1 -2.61598 -1.33954 0
M  V30 1660 H 161.614 -1.4886 -0.6492 0
M  V30 1661 H 163.611 -1.91609 -3.70259 0
M  V30 1662 H 162.271 -0.892795 -3.12185 0
M  V30 1663 H 163.282 -4.53691 -2.49769 0
M  V30 1664 H 159.959 -2.18417 -3.55809 0
M  V30 1665 H 161.349 -6.13983 -2.72899 0
M  V30 1666 N 164.069 0.697108 -1.41344 0
M  V30 1667 C 165.032 1.79281 -1.42797 0
M  V30 1668 C 166.032 1.57607 -0.318837 0
M  V30 1669 O 167.222 1.64309 -0.578642 0
M  V30 1670 C 164.354 3.17632 -1.23785 0
M  V30 1671 H 165.547 1.79385 -2.40335 0
M  V30 1672 H 163.1 0.904582 -1.27464 0
M  V30 1673 H 163.835 3.23167 -0.270814 0
M  V30 1674 H 163.62 3.34765 -2.04144 0
M  V30 1675 H 165.11 3.97617 -1.27633 0
M  V30 1676 N 165.547 1.27147 0.931209 0
M  V30 1677 C 166.963 1.04475 1.20653 0
M  V30 1678 C 167.163 -0.223885 2.00252 0
M  V30 1679 O 166.219 -0.930332 2.34736 0
M  V30 1680 C 167.532 2.28209 1.95809 0
M  V30 1681 C 169.08 2.33211 2.08762 0
M  V30 1682 C 169.555 3.56665 2.87323 0
M  V30 1683 N 171.046 3.57201 2.94892 0
M  V30 1684 C 171.781 4.49395 3.56134 0
M  V30 1685 N 171.277 5.51889 4.18796 0
M  V30 1686 N 173.07 4.37026 3.53504 0
M  V30 1687 H 165.221 2.08612 0.399333 0
M  V30 1688 H 167.484 0.917312 0.239253 0
M  V30 1689 H 167.19 3.20538 1.44736 0
M  V30 1690 H 167.064 2.33247 2.96438 0
M  V30 1691 H 169.451 1.41391 2.59023 0
M  V30 1692 H 169.532 2.32178 1.07364 0
M  V30 1693 H 169.176 4.4882 2.37746 0
M  V30 1694 H 169.106 3.54948 3.88998 0
M  V30 1695 H 171.597 2.83074 2.50354 0
M  V30 1696 H 171.91 6.18409 4.63454 0
M  V30 1697 H 170.255 5.55735 4.17353 0
M  V30 1698 H 173.446 3.56166 3.03749 0
M  V30 1699 H 173.619 5.09067 4.00942 0
M  V30 1700 N 167.025 -1.13721 1.09112 0
M  V30 1701 C 168.271 -1.85198 0.826414 0
M  V30 1702 C 168.604 -1.83129 -0.646319 0
M  V30 1703 O 167.879 -1.2671 -1.47563 0
M  V30 1704 C 168.162 -3.33507 1.35812 0
M  V30 1705 C 168.015 -3.44108 2.89672 0
M  V30 1706 C 169.334 -4.28838 0.989256 0
M  V30 1707 H 166.453 -0.67243 0.301675 0
M  V30 1708 H 169.095 -1.33499 1.35197 0
M  V30 1709 H 167.245 -3.77666 0.911082 0
M  V30 1710 H 168.917 -3.08684 3.428 0
M  V30 1711 H 167.16 -2.85087 3.26967 0
M  V30 1712 H 167.831 -4.48388 3.21951 0
M  V30 1713 H 170.307 -3.92734 1.37475 0
M  V30 1714 H 169.183 -5.31051 1.38838 0
M  V30 1715 H 169.444 -4.4198 -0.102924 0
M  V30 1716 N 168.503 -0.877838 -1.30888 0
M  V30 1717 C 169.453 -0.310872 -2.25871 0
M  V30 1718 C 170.437 0.556596 -1.50966 0
M  V30 1719 O 171.629 0.402187 -1.7237 0
M  V30 1720 C 168.758 0.479821 -3.3993 0
M  V30 1721 C 167.844 -0.401333 -4.22197 0
M  V30 1722 N 168.235 -1.49848 -4.83093 0
M  V30 1723 C 166.533 -0.195167 -4.45573 0
M  V30 1724 C 167.234 -2.0425 -5.44662 0
M  V30 1725 N 166.21 -1.33843 -5.26865 0
M  V30 1726 H 170.012 -1.1493 -2.70496 0
M  V30 1727 H 167.526 -0.726458 -1.45246 0
M  V30 1728 H 169.523 0.902582 -4.07012 0
M  V30 1729 H 168.183 1.31577 -2.96846 0
M  V30 1730 H 169.194 -1.88137 -4.82519 0
M  V30 1731 H 165.871 0.604192 -4.13105 0
M  V30 1732 H 167.261 -2.96345 -6.03017 0
M  V30 1733 N 169.982 1.44106 -0.638065 0
M  V30 1734 C 171.393 1.85316 -0.226894 0
M  V30 1735 C 171.744 1.53399 1.22324 0
M  V30 1736 O 170.869 0.975463 1.93167 0
M  V30 1737 C 171.464 3.3637 -0.405013 0
M  V30 1738 C 170.023 3.76369 -0.0482902 0
M  V30 1739 C 169.17 2.67921 -0.715108 0
M  V30 1740 H 172.121 1.34474 -0.842764 0
M  V30 1741 H 172.142 3.7885 0.354 0
M  V30 1742 H 171.654 3.59569 -1.46053 0
M  V30 1743 H 169.755 3.58784 1.00522 0
M  V30 1744 H 169.868 4.76856 -0.463187 0
M  V30 1745 H 168.232 2.54259 -0.149753 0
M  V30 1746 H 169.015 2.93951 -1.77335 0
M  V30 1747 N 171.46 0.379036 1.52974 0
M  V30 1748 C 172.737 -0.263479 1.93817 0
M  V30 1749 C 173.117 -1.65244 1.31368 0
M  V30 1750 O 172.465 -2.23448 0.477856 0
M  V30 1751 C 172.675 -0.300166 3.47707 0
M  V30 1752 C 174.023 -0.534061 4.21228 0
M  V30 1753 O 175.047 -0.38081 3.54159 0
M  V30 1754 O 173.906 -0.833501 5.40106 0
M  V30 1755 H 171 -0.161149 0.811147 0
M  V30 1756 H 173.546 0.432798 1.64088 0
M  V30 1757 H 172.318 0.673138 3.85467 0
M  V30 1758 H 171.941 -1.04179 3.83709 0
M  V30 1759 N 172.938 -1.57226 0.108567 0
M  V30 1760 C 173.868 -2.17778 -0.84232 0
M  V30 1761 C 174.849 -1.11487 -1.2847 0
M  V30 1762 O 176.034 -1.39681 -1.34918 0
M  V30 1763 C 173.164 -2.76888 -2.09644 0
M  V30 1764 C 172.118 -3.88669 -1.79221 0
M  V30 1765 C 171.444 -4.34541 -3.11574 0
M  V30 1766 C 172.744 -5.11251 -1.06864 0
M  V30 1767 H 174.438 -2.97489 -0.337774 0
M  V30 1768 H 171.984 -1.43097 -0.161025 0
M  V30 1769 H 173.937 -3.17904 -2.76614 0
M  V30 1770 H 172.661 -1.94451 -2.62405 0
M  V30 1771 H 171.32 -3.48213 -1.14644 0
M  V30 1772 H 170.968 -3.48977 -3.62249 0
M  V30 1773 H 170.668 -5.09914 -2.91996 0
M  V30 1774 H 172.192 -4.782 -3.7968 0
M  V30 1775 H 173.606 -5.49352 -1.63968 0
M  V30 1776 H 172.003 -5.9214 -0.974178 0
M  V30 1777 H 173.073 -4.8487 -0.0536168 0
M  V30 1778 N 174.416 0.165178 -1.56732 0
M  V30 1779 C 175.664 0.879068 -1.8198 0
M  V30 1780 C 175.985 1.82514 -0.686561 0
M  V30 1781 O 175.255 1.93694 0.293146 0
M  V30 1782 H 173.835 0.327608 -0.671329 0
M  V30 1783 H 176.497 0.163526 -1.94213 0
M  V30 1784 H 175.593 1.45228 -2.76252 0
M  V30 1785 N 175.894 1.51508 0.433938 0
M  V30 1786 C 177.14 1.64588 1.18484 0
M  V30 1787 C 177.473 0.362666 1.90784 0
M  V30 1788 O 176.748 -0.637892 1.83742 0
M  V30 1789 C 177.031 2.85149 2.19913 0
M  V30 1790 C 176.884 4.23456 1.51674 0
M  V30 1791 C 178.203 3.01227 3.20858 0
M  V30 1792 H 175.322 0.598994 0.429389 0
M  V30 1793 H 177.964 1.84002 0.473647 0
M  V30 1794 H 176.114 2.68729 2.80566 0
M  V30 1795 H 177.786 4.51552 0.943322 0
M  V30 1796 H 176.029 4.25998 0.819035 0
M  V30 1797 H 176.7 5.03812 2.2556 0
M  V30 1798 H 179.176 3.16382 2.70263 0
M  V30 1799 H 178.052 3.87141 3.89118 0
M  V30 1800 H 178.313 2.13447 3.8716 0
M  V30 1801 N 177.372 -0.689602 1.41712 0
M  V30 1802 C 178.621 -1.44534 1.40686 0
M  V30 1803 C 178.934 -1.95588 0.0213352 0
M  V30 1804 O 180.14 -2.71271 -0.111534 0
M  V30 1805 C 178.596 -2.61387 2.47396 0
M  V30 1806 C 178.204 -2.17094 3.91885 0
M  V30 1807 C 179.948 -3.38986 2.55517 0
M  V30 1808 C 177.855 -3.3094 4.90135 0
M  V30 1809 H 176.785 -0.542925 0.52321 0
M  V30 1810 H 179.436 -0.748054 1.6756 0
M  V30 1811 H 177.818 -3.33412 2.13664 0
M  V30 1812 H 178.992 -1.52318 4.34897 0
M  V30 1813 H 177.307 -1.52473 3.8748 0
M  V30 1814 H 179.904 -4.23747 3.26102 0
M  V30 1815 H 180.247 -3.84578 1.59391 0
M  V30 1816 H 180.78 -2.74021 2.8837 0
M  V30 1817 H 177.519 -2.90355 5.87685 0
M  V30 1818 H 177.039 -3.94546 4.51767 0
M  V30 1819 H 178.718 -3.9663 5.11169 0
M  V30 1820 N 178.85 -1.27639 -0.924453 0
M  V30 1821 C 180.096 -1.15345 -1.67532 0
M  V30 1822 C 180.451 0.297096 -1.90092 0
M  V30 1823 O 179.744 1.21374 -1.48253 0
M  V30 1824 C 179.938 -1.87407 -3.04325 0
M  V30 1825 C 179.767 -3.3932 -2.95114 0
M  V30 1826 C 178.537 -4.08644 -2.97218 0
M  V30 1827 C 180.735 -4.35242 -2.73987 0
M  V30 1828 N 178.717 -5.47102 -2.78482 0
M  V30 1829 C 180.088 -5.6099 -2.63988 0
M  V30 1830 C 182.143 -4.25294 -2.589 0
M  V30 1831 C 180.846 -6.77924 -2.40442 0
M  V30 1832 C 182.872 -5.41952 -2.36731 0
M  V30 1833 C 182.234 -6.66658 -2.27478 0
M  V30 1834 H 178.333 -0.47696 -0.619704 0
M  V30 1835 H 180.917 -1.6115 -1.09265 0
M  V30 1836 H 179.088 -1.44053 -3.60699 0
M  V30 1837 H 180.82 -1.6759 -3.68369 0
M  V30 1838 H 177.575 -3.60136 -3.07569 0
M  V30 1839 H 177.999 -6.19852 -2.72236 0
M  V30 1840 H 182.641 -3.29598 -2.64811 0
M  V30 1841 H 180.359 -7.73699 -2.3327 0
M  V30 1842 H 183.945 -5.36137 -2.25938 0
M  V30 1843 H 182.825 -7.55405 -2.10555 0
M  V30 1844 N 180.328 1.1314 -1.09713 0
M  V30 1845 C 181.574 1.84757 -0.836224 0
M  V30 1846 C 181.907 1.8347 0.636598 0
M  V30 1847 O 181.182 1.27491 1.46889 0
M  V30 1848 C 181.465 3.32782 -1.37578 0
M  V30 1849 C 181.318 3.42567 -2.91493 0
M  V30 1850 C 182.637 4.28307 -1.01198 0
M  V30 1851 H 179.756 0.67082 -0.305236 0
M  V30 1852 H 182.398 1.3278 -1.35903 0
M  V30 1853 H 180.548 3.77177 -0.931097 0
M  V30 1854 H 182.22 3.06862 -3.44432 0
M  V30 1855 H 180.463 2.83349 -3.28475 0
M  V30 1856 H 181.134 4.46674 -3.24324 0
M  V30 1857 H 183.61 3.91999 -1.39556 0
M  V30 1858 H 182.486 5.30307 -1.41653 0
M  V30 1859 H 182.747 4.42029 0.0794833 0
M  V30 1860 N 181.806 0.884767 1.30421 0
M  V30 1861 C 183.083 0.423185 1.90967 0
M  V30 1862 C 183.463 -1.09605 1.80416 0
M  V30 1863 O 182.811 -1.93126 1.22125 0
M  V30 1864 C 183.021 0.921056 3.36627 0
M  V30 1865 C 184.369 0.955903 4.137 0
M  V30 1866 O 185.393 0.867706 3.4547 0
M  V30 1867 O 184.252 1.08614 5.35598 0
M  V30 1868 H 181.346 0.129369 0.816819 0
M  V30 1869 H 183.892 0.973653 1.3899 0
M  V30 1870 H 182.664 1.96489 3.3839 0
M  V30 1871 H 182.287 0.349741 3.96059 0
M  V30 1872 N 183.284 -1.43765 0.645699 0
M  V30 1873 C 184.247 -2.29163 -0.0409488 0
M  V30 1874 C 185.247 -1.41813 -0.757996 0
M  V30 1875 O 186.437 -1.63527 -0.600382 0
M  V30 1876 C 183.569 -3.23716 -1.06869 0
M  V30 1877 H 184.762 -2.91366 0.710345 0
M  V30 1878 H 182.315 -1.5092 0.406547 0
M  V30 1879 H 183.05 -2.66393 -1.84947 0
M  V30 1880 H 182.835 -3.88105 -0.558277 0
M  V30 1881 H 184.325 -3.87831 -1.54845 0
M  V30 1882 N 184.763 -0.387143 -1.52771 0
M  V30 1883 C 185.713 0.465942 -2.23188 0
M  V30 1884 C 186.697 1.03138 -1.23496 0
M  V30 1885 O 187.889 0.957845 -1.48843 0
M  V30 1886 C 185.018 1.59384 -3.04059 0
M  V30 1887 C 184.104 1.04024 -4.11144 0
M  V30 1888 N 184.495 0.211416 -5.05358 0
M  V30 1889 C 182.793 1.31295 -4.26237 0
M  V30 1890 C 183.494 -0.0941698 -5.81624 0
M  V30 1891 N 182.47 0.509207 -5.4121 0
M  V30 1892 H 186.272 -0.173856 -2.93385 0
M  V30 1893 H 183.786 -0.19633 -1.61209 0
M  V30 1894 H 185.783 2.21738 -3.53041 0
M  V30 1895 H 184.443 2.23648 -2.35397 0
M  V30 1896 H 185.454 -0.151151 -5.17679 0
M  V30 1897 H 182.131 1.95679 -3.68803 0
M  V30 1898 H 183.521 -0.765572 -6.67524 0
M  V30 1899 N 186.241 1.57166 -0.116904 0
M  V30 1900 C 187.469 1.99473 0.549383 0
M  V30 1901 C 187.884 0.996541 1.60357 0
M  V30 1902 O 187.241 -0.0108731 1.82497 0
M  V30 1903 C 187.292 3.41788 1.17741 0
M  V30 1904 O 187.013 4.37788 0.165362 0
M  V30 1905 C 188.514 3.99216 1.92722 0
M  V30 1906 H 185.734 0.655009 0.145616 0
M  V30 1907 H 188.278 2.03494 -0.202625 0
M  V30 1908 H 186.433 3.38713 1.88021 0
M  V30 1909 H 186.847 5.20806 0.621403 0
M  V30 1910 H 188.321 5.00882 2.31995 0
M  V30 1911 H 188.798 3.3824 2.80161 0
M  V30 1912 H 189.404 4.0583 1.27209 0
M  V30 1913 N 187.719 -0.156864 1.56817 0
M  V30 1914 C 188.996 -0.899244 1.73704 0
M  V30 1915 C 189.376 -1.99771 0.682254 0
M  V30 1916 O 188.724 -2.26515 -0.300522 0
M  V30 1917 C 188.934 -1.45075 3.17418 0
M  V30 1918 C 190.282 -1.91802 3.7881 0
M  V30 1919 O 191.306 -1.54838 3.20786 0
M  V30 1920 O 190.165 -2.5994 4.80722 0
M  V30 1921 H 187.259 -0.424267 0.709878 0
M  V30 1922 H 189.805 -0.143561 1.69092 0
M  V30 1923 H 188.577 -0.660846 3.85679 0
M  V30 1924 H 188.2 -2.27021 3.26416 0
M  V30 1925 N 189.197 -1.51736 -0.425897 0
M  V30 1926 C 190.446 -1.64201 -1.17136 0
M  V30 1927 C 190.759 -0.369705 -1.92074 0
M  V30 1928 O 191.965 -0.373898 -2.68913 0
M  V30 1929 C 190.421 -2.90035 -2.13091 0
M  V30 1930 C 190.029 -4.24312 -1.43747 0
M  V30 1931 C 191.773 -3.1186 -2.87999 0
M  V30 1932 C 189.68 -5.41285 -2.38253 0
M  V30 1933 H 188.61 -0.611624 -0.440944 0
M  V30 1934 H 191.261 -1.78212 -0.437328 0
M  V30 1935 H 189.643 -2.69684 -2.89977 0
M  V30 1936 H 190.817 -4.55086 -0.723408 0
M  V30 1937 H 189.132 -4.08456 -0.809465 0
M  V30 1938 H 191.729 -3.96427 -3.58817 0
M  V30 1939 H 192.072 -2.25403 -3.49999 0
M  V30 1940 H 192.605 -3.32605 -2.18217 0
M  V30 1941 H 189.344 -6.30037 -1.80925 0
M  V30 1942 H 188.864 -5.14872 -3.0768 0
M  V30 1943 H 190.543 -5.73694 -2.99139 0
M  V30 1944 N 190.675 0.682077 -1.42076 0
M  V30 1945 C 191.623 1.81707 -1.45208 0
M  V30 1946 C 192.617 1.66183 -0.328591 0
M  V30 1947 O 193.823 1.7288 -0.501264 0
M  V30 1948 H 190.198 0.599014 -0.454628 0
M  V30 1949 H 192.169 1.76183 -2.40836 0
M  V30 1950 C 190.918 3.19816 -1.36428 0
M  V30 1951 H 190.241 3.32385 -2.22171 0
M  V30 1952 H 191.681 3.99272 -1.42681 0
M  V30 1953 C 190.14 3.36809 -0.078191 0
M  V30 1954 O 190.67 3.92124 0.87188 0
M  V30 1955 N 188.876 2.906 0.00229266 0
M  V30 1956 H 188.423 2.45772 -0.771616 0
M  V30 1957 H 188.381 3.02347 0.862179 0
M  V30 1958 N 192.153 1.28127 0.917671 0
M  V30 1959 C 193.381 1.17892 1.70026 0
M  V30 1960 C 193.796 -0.262958 1.8696 0
M  V30 1961 O 193.153 -1.17811 1.3938 0
M  V30 1962 C 193.204 1.86872 3.09453 0
M  V30 1963 O 192.925 3.25428 2.93306 0
M  V30 1964 C 194.426 1.8289 4.03815 0
M  V30 1965 H 191.646 0.40942 0.531617 0
M  V30 1966 H 194.19 1.69181 1.14883 0
M  V30 1967 H 192.345 1.39464 3.61426 0
M  V30 1968 H 192.759 3.59918 3.81523 0
M  V30 1969 H 194.233 2.35751 4.99125 0
M  V30 1970 H 194.71 0.800412 4.31845 0
M  V30 1971 H 195.316 2.29959 3.57769 0
M  V30 1972 N 193.631 -1.12557 1.10312 0
M  V30 1973 C 195.042 -1.65574 0.862678 0
M  V30 1974 C 195.393 -1.86566 -0.607256 0
M  V30 1975 O 194.518 -1.59121 -1.46662 0
M  V30 1976 C 195.113 -3.00776 1.55947 0
M  V30 1977 C 193.672 -3.50748 1.36576 0
M  V30 1978 C 192.819 -2.25797 1.60968 0
M  V30 1979 H 195.77 -0.963552 1.26101 0
M  V30 1980 H 195.791 -3.67185 0.997753 0
M  V30 1981 H 195.303 -2.85465 2.62928 0
M  V30 1982 H 193.404 -3.71245 0.317531 0
M  V30 1983 H 193.517 -4.30289 2.10686 0
M  V30 1984 H 191.881 -2.32841 1.03234 0
M  V30 1985 H 192.664 -2.13043 2.69198 0
M  V30 1986 N 195.109 -0.891671 -1.2995 0
M  V30 1987 C 196.039 -0.379797 -2.30391 0
M  V30 1988 C 197.02 0.540919 -1.6127 0
M  V30 1989 O 198.205 0.453352 -1.88834 0
M  V30 1990 C 195.335 0.400654 -3.44981 0
M  V30 1991 C 194.289 -0.428905 -4.25846 0
M  V30 1992 C 193.615 0.478557 -5.32554 0
M  V30 1993 C 194.915 -1.67458 -4.94727 0
M  V30 1994 H 196.609 -1.21914 -2.73454 0
M  V30 1995 H 194.155 -0.587675 -1.31462 0
M  V30 1996 H 196.108 0.769434 -4.14316 0
M  V30 1997 H 194.832 1.27371 -3.0074 0
M  V30 1998 H 193.491 -0.779911 -3.58208 0
M  V30 1999 H 193.139 1.34951 -4.84559 0
M  V30 2000 H 192.839 -0.0727433 -5.87555 0
M  V30 2001 H 194.363 0.843705 -6.04743 0
M  V30 2002 H 195.777 -1.376 -5.56542 0
M  V30 2003 H 194.174 -2.16659 -5.59624 0
M  V30 2004 H 195.244 -2.41518 -4.20473 0
M  V30 2005 N 196.587 1.43421 -0.653314 0
M  V30 2006 C 197.815 2.06163 -0.174491 0
M  V30 2007 C 198.23 1.48969 1.1599 0
M  V30 2008 O 197.587 0.621042 1.71608 0
M  V30 2009 C 197.638 3.61417 -0.0774865 0
M  V30 2010 O 197.359 4.16485 -1.35912 0
M  V30 2011 C 198.86 4.41235 0.427402 0
M  V30 2012 H 196.08 0.664946 -0.0899353 0
M  V30 2013 H 198.624 1.83924 -0.893988 0
M  V30 2014 H 196.779 3.82841 0.59257 0
M  V30 2015 H 197.193 5.10153 -1.21839 0
M  V30 2016 H 198.667 5.5021 0.44423 0
M  V30 2017 H 199.144 4.14268 1.45873 0
M  V30 2018 H 199.75 4.2478 -0.210167 0
M  V30 2019 N 198.065 0.39524 1.52563 0
M  V30 2020 C 199.293 -0.184943 2.06072 0
M  V30 2021 C 199.708 -1.40021 1.26647 0
M  V30 2022 O 199.065 -1.79767 0.314672 0
M  V30 2023 C 199.116 -0.549179 3.57304 0
M  V30 2024 O 198.837 0.617813 4.33722 0
M  V30 2025 C 200.338 -1.18459 4.2718 0
M  V30 2026 H 197.558 -0.0265025 0.670476 0
M  V30 2027 H 200.102 0.562184 1.96621 0
M  V30 2028 H 198.257 -1.2462 3.66809 0
M  V30 2029 H 198.671 0.317091 5.23541 0
M  V30 2030 H 200.145 -1.38976 5.34219 0
M  V30 2031 H 200.622 -2.15368 3.82771 0
M  V30 2032 H 201.228 -0.528163 4.22008 0
M  V30 2033 N 199.544 -1.57102 0.125237 0
M  V30 2034 C 200.772 -1.99761 -0.538797 0
M  V30 2035 C 201.187 -1.00503 -1.59827 0
M  V30 2036 O 200.544 0.00119474 -1.825 0
M  V30 2037 C 200.595 -3.42408 -1.15927 0
M  V30 2038 O 200.316 -4.37869 -0.142143 0
M  V30 2039 C 201.817 -4.00232 -1.90602 0
M  V30 2040 H 199.037 -0.655772 -0.14214 0
M  V30 2041 H 201.581 -2.03383 0.213413 0
M  V30 2042 H 199.736 -3.39706 -1.86223 0
M  V30 2043 H 200.15 -5.21128 -0.593775 0
M  V30 2044 H 201.624 -5.02105 -2.29335 0
M  V30 2045 H 202.101 -3.39721 -2.78363 0
M  V30 2046 H 202.707 -4.06499 -1.25055 0
M  V30 2047 N 201.022 0.148545 -1.56898 0
M  V30 2048 C 202.247 0.880385 -1.87787 0
M  V30 2049 C 202.672 1.74018 -0.714093 0
M  V30 2050 O 202.03 1.78153 0.336343 0
M  V30 2051 C 202.078 1.71422 -3.17249 0
M  V30 2052 O 201.182 2.8183 -3.01074 0
M  V30 2053 H 200.523 0.245301 -0.617028 0
M  V30 2054 H 203.053 0.139826 -2.04122 0
M  V30 2055 H 203.063 2.10954 -3.49231 0
M  V30 2056 H 201.738 1.08284 -4.01556 0
M  V30 2057 H 200.315 2.45715 -2.80497 0
M  V30 2058 N 202.5 1.5196 0.417844 0
M  V30 2059 C 203.748 1.65263 1.16329 0
M  V30 2060 C 204.069 0.380634 1.91249 0
M  V30 2061 O 203.339 -0.604214 1.86349 0
M  V30 2062 H 201.919 0.60912 0.432414 0
M  V30 2063 H 204.581 1.88969 0.477162 0
M  V30 2064 H 203.677 2.4896 1.88217 0
M  V30 2065 N 203.978 -0.674533 1.42435 0
M  V30 2066 C 204.926 -1.80934 1.46169 0
M  V30 2067 C 205.92 -1.66006 0.3374 0
M  V30 2068 O 207.126 -1.72611 0.510425 0
M  V30 2069 H 203.501 -0.596594 0.457798 0
M  V30 2070 H 205.472 -1.74903 2.41767 0
M  V30 2071 C 204.221 -3.19088 1.38123 0
M  V30 2072 H 203.544 -3.31203 2.23931 0
M  V30 2073 H 204.984 -3.9851 1.44797 0
M  V30 2074 C 203.443 -3.36763 0.0960517 0
M  V30 2075 O 203.973 -3.92581 -0.851073 0
M  V30 2076 N 202.179 -2.90597 0.0131186 0
M  V30 2077 H 201.726 -2.45359 0.784639 0
M  V30 2078 H 201.684 -3.028 -0.846133 0
M  V30 2079 N 205.456 -1.28612 -0.910864 0
M  V30 2080 C 206.386 -1.15326 -2.03032 0
M  V30 2081 C 207.367 -0.0502924 -1.70026 0
M  V30 2082 O 208.552 -0.227797 -1.92859 0
M  V30 2083 C 205.682 -0.817343 -3.37545 0
M  V30 2084 C 204.636 -1.8754 -3.84724 0
M  V30 2085 C 203.962 -1.39305 -5.16235 0
M  V30 2086 C 205.262 -3.28244 -4.06267 0
M  V30 2087 H 206.956 -2.08975 -2.14406 0
M  V30 2088 H 204.502 -1.00612 -1.03021 0
M  V30 2089 H 206.455 -0.711151 -4.15356 0
M  V30 2090 H 205.179 0.154846 -3.26233 0
M  V30 2091 H 203.838 -1.97079 -3.09121 0
M  V30 2092 H 203.486 -0.409846 -5.01328 0
M  V30 2093 H 203.186 -2.10057 -5.48771 0
M  V30 2094 H 204.71 -1.30014 -5.96598 0
M  V30 2095 H 206.124 -3.21611 -4.74594 0
M  V30 2096 H 204.521 -3.96855 -4.5014 0
M  V30 2097 H 205.591 -3.72048 -3.10979 0
M  V30 2098 N 206.934 1.1197 -1.10907 0
M  V30 2099 C 207.884 2.15946 -0.731538 0
M  V30 2100 C 208.868 1.58758 0.261699 0
M  V30 2101 O 210.06 1.76863 0.0696722 0
M  V30 2102 C 207.189 3.42877 -0.170299 0
M  V30 2103 C 206.275 4.07037 -1.19087 0
M  V30 2104 N 206.666 4.46135 -2.38322 0
M  V30 2105 C 204.964 4.33884 -1.03252 0
M  V30 2106 C 205.665 4.96331 -3.03366 0
M  V30 2107 N 204.641 4.9214 -2.30865 0
M  V30 2108 H 208.443 2.43947 -1.63912 0
M  V30 2109 H 205.957 1.28927 -0.987505 0
M  V30 2110 H 207.954 4.16732 0.118271 0
M  V30 2111 H 206.614 3.16343 0.731935 0
M  V30 2112 H 207.625 4.38345 -2.75815 0
M  V30 2113 H 204.302 4.17084 -0.186256 0
M  V30 2114 H 205.692 5.36257 -4.04818 0
M  V30 2115 N 208.412 0.89855 1.29475 0
M  V30 2116 C 209.66 0.522847 1.9522 0
M  V30 2117 C 209.981 -0.93371 1.71192 0
M  V30 2118 O 209.251 -1.65823 1.04305 0
M  V30 2119 H 207.831 0.190366 0.722336 0
M  V30 2120 H 210.493 1.14459 1.5775 0
M  V30 2121 H 209.589 0.704476 3.04045 0
M  V30 2122 N 209.89 -1.43072 0.660911 0
M  V30 2123 C 210.822 -2.29108 -0.0647641 0
M  V30 2124 C 211.835 -1.42928 -0.779448 0
M  V30 2125 O 213.024 -1.66788 -0.635921 0
M  V30 2126 C 210.124 -3.20032 -1.11503 0
M  V30 2127 C 209.297 -4.34792 -0.476955 0
M  V30 2128 C 208.356 -5.06534 -1.42513 0
M  V30 2129 O 207.382 -5.61538 -0.930771 0
M  V30 2130 N 208.584 -5.1075 -2.75889 0
M  V30 2131 H 211.349 -2.92029 0.673731 0
M  V30 2132 H 208.91 -1.53846 0.50427 0
M  V30 2133 H 210.902 -3.64892 -1.75032 0
M  V30 2134 H 209.472 -2.58658 -1.75541 0
M  V30 2135 H 208.692 -3.92752 0.337572 0
M  V30 2136 H 209.98 -5.0879 -0.0318525 0
M  V30 2137 H 209.378 -4.67447 -3.18606 0
M  V30 2138 H 207.935 -5.59302 -3.347 0
M  V30 2139 N 211.368 -0.403325 -1.52352 0
M  V30 2140 C 212.779 0.0675782 -1.86578 0
M  V30 2141 C 213.13 1.44941 -1.32236 0
M  V30 2142 O 212.255 2.06112 -0.659307 0
M  V30 2143 C 212.85 0.129404 -3.38553 0
M  V30 2144 C 211.409 0.544629 -3.72439 0
M  V30 2145 C 210.556 -0.284551 -2.75836 0
M  V30 2146 H 213.507 -0.620631 -1.46061 0
M  V30 2147 H 213.528 0.94581 -3.68558 0
M  V30 2148 H 213.04 -0.87645 -3.78074 0
M  V30 2149 H 211.141 1.55734 -3.38493 0
M  V30 2150 H 211.254 0.293046 -4.78203 0
M  V30 2151 H 209.618 0.252258 -2.53448 0
M  V30 2152 H 210.401 -1.28865 -3.18196 0
M  V30 2153 N 212.846 1.57033 -0.133567 0
M  V30 2154 C 214.092 1.95976 0.521649 0
M  V30 2155 C 214.425 1.01779 1.65393 0
M  V30 2156 O 213.7 0.0576581 1.94415 0
M  V30 2157 C 213.983 3.44738 1.04057 0
M  V30 2158 C 213.836 4.49711 -0.0892897 0
M  V30 2159 C 215.155 3.95682 1.92675 0
M  V30 2160 H 212.274 0.712579 0.188149 0
M  V30 2161 H 214.916 1.88813 -0.212076 0
M  V30 2162 H 213.066 3.50973 1.66583 0
M  V30 2163 H 214.738 4.55565 -0.725152 0
M  V30 2164 H 212.981 4.27261 -0.750378 0
M  V30 2165 H 213.652 5.51099 0.315284 0
M  V30 2166 H 216.128 3.91841 1.39998 0
M  V30 2167 H 215.004 5.00262 2.25897 0
M  V30 2168 H 215.265 3.37239 2.85872 0
M  V30 2169 N 214.325 -0.140222 1.56975 0
M  V30 2170 C 215.55 -0.870414 1.88251 0
M  V30 2171 C 215.975 -1.73637 0.723312 0
M  V30 2172 O 215.333 -1.78329 -0.32689 0
M  V30 2173 C 215.381 -1.69737 3.18154 0
M  V30 2174 O 214.485 -2.80229 3.02565 0
M  V30 2175 H 213.826 -0.242025 0.61832 0
M  V30 2176 H 216.356 -0.128999 2.04193 0
M  V30 2177 H 216.366 -2.09099 3.50345 0
M  V30 2178 H 215.041 -1.06152 4.02125 0
M  V30 2179 H 213.618 -2.44224 2.81796 0
M  V30 2180 N 215.803 -1.52179 -0.40978 0
M  V30 2181 C 217.05 -1.66206 -1.15679 0
M  V30 2182 C 217.378 -0.391674 -1.90516 0
M  V30 2183 O 216.633 0.62533 -1.8544 0
M  V30 2184 C 216.932 -2.83428 -2.17723 0
M  V30 2185 C 216.598 -4.21672 -1.59699 0
M  V30 2186 C 215.26 -4.59274 -1.43599 0
M  V30 2187 C 217.612 -5.07825 -1.17317 0
M  V30 2188 C 214.94 -5.80709 -0.836328 0
M  V30 2189 C 217.292 -6.29864 -0.587691 0
M  V30 2190 C 215.956 -6.66216 -0.413818 0
M  V30 2191 H 215.226 -0.608192 -0.423301 0
M  V30 2192 H 217.873 -1.86279 -0.444097 0
M  V30 2193 H 216.178 -2.57687 -2.95135 0
M  V30 2194 H 217.875 -2.91477 -2.75394 0
M  V30 2195 H 214.465 -3.9204 -1.73213 0
M  V30 2196 H 218.649 -4.79359 -1.28565 0
M  V30 2197 H 213.905 -6.07498 -0.689626 0
M  V30 2198 H 218.079 -6.95948 -0.250894 0
M  V30 2199 H 215.706 -7.60182 0.0529471 0
M  V30 2200 N 217.281 0.66697 -1.42791 0
M  V30 2201 C 218.211 1.79218 -1.49677 0
M  V30 2202 C 219.192 1.66405 -0.352623 0
M  V30 2203 O 220.377 1.85708 -0.567993 0
M  V30 2204 C 217.507 3.17565 -1.40605 0
M  V30 2205 C 216.461 3.45124 -2.53127 0
M  V30 2206 C 215.787 4.83127 -2.29112 0
M  V30 2207 C 217.087 3.41236 -3.95418 0
M  V30 2208 H 218.781 1.73713 -2.43853 0
M  V30 2209 H 216.327 0.83432 -1.17367 0
M  V30 2210 H 218.28 3.96022 -1.44029 0
M  V30 2211 H 217.004 3.23767 -0.429271 0
M  V30 2212 H 215.663 2.69031 -2.49034 0
M  V30 2213 H 215.311 4.85988 -1.29709 0
M  V30 2214 H 215.011 5.02528 -3.04531 0
M  V30 2215 H 216.535 5.63859 -2.34297 0
M  V30 2216 H 217.949 4.09651 -4.01073 0
M  V30 2217 H 216.346 3.72173 -4.70752 0
M  V30 2218 H 217.416 2.39665 -4.21532 0
M  V30 2219 N 218.759 1.29093 0.90403 0
M  V30 2220 C 219.689 1.16401 2.02418 0
M  V30 2221 C 220.67 0.0593085 1.69997 0
M  V30 2222 O 221.855 0.238021 1.92736 0
M  V30 2223 C 218.985 0.835233 3.37107 0
M  V30 2224 C 217.939 1.89578 3.83724 0
M  V30 2225 C 217.265 1.42041 5.15489 0
M  V30 2226 C 218.565 3.30394 4.04521 0
M  V30 2227 H 220.259 2.10109 2.13295 0
M  V30 2228 H 217.805 1.01157 1.02486 0
M  V30 2229 H 219.758 0.733169 4.14973 0
M  V30 2230 H 218.482 -0.137543 3.2631 0
M  V30 2231 H 217.141 1.98715 3.08071 0
M  V30 2232 H 216.789 0.436426 5.01103 0
M  V30 2233 H 216.489 2.12964 5.4765 0
M  V30 2234 H 218.013 1.33176 5.959 0
M  V30 2235 H 219.427 3.24123 4.72882 0
M  V30 2236 H 217.824 3.99237 4.48029 0
M  V30 2237 H 218.894 3.73692 3.09002 0
M  V30 2238 N 220.237 -1.11381 1.11499 0
M  V30 2239 C 221.184 -2.17439 0.773887 0
M  V30 2240 C 222.154 -1.64132 -0.254899 0
M  V30 2241 O 223.339 -1.90345 -0.13168 0
M  V30 2242 C 220.479 -3.44373 0.223917 0
M  V30 2243 C 219.592 -4.1168 1.30934 0
M  V30 2244 C 218.727 -5.263 0.71984 0
M  V30 2245 C 217.766 -5.85493 1.78507 0
M  V30 2246 N 216.903 -6.91507 1.21502 0
M  V30 2247 H 221.743 -2.45962 1.68246 0
M  V30 2248 H 219.28 -1.20744 0.840191 0
M  V30 2249 H 221.238 -4.17047 -0.112921 0
M  V30 2250 H 219.868 -3.16232 -0.647851 0
M  V30 2251 H 218.92 -3.37073 1.76312 0
M  V30 2252 H 220.232 -4.51729 2.11524 0
M  V30 2253 H 219.386 -6.05785 0.333094 0
M  V30 2254 H 218.125 -4.87559 -0.117377 0
M  V30 2255 H 217.13 -5.04686 2.18111 0
M  V30 2256 H 218.355 -6.26301 2.62533 0
M  V30 2257 H 216.301 -6.54783 0.399455 0
M  V30 2258 H 216.218 -7.30214 1.95763 0
M  V30 2259 H 217.486 -7.74795 0.855181 0
M  V30 2260 N 221.715 -0.905404 -1.28997 0
M  V30 2261 C 222.625 -0.392246 -2.31298 0
M  V30 2262 C 223.641 0.515889 -1.66176 0
M  V30 2263 O 224.817 0.404093 -1.97304 0
M  V30 2264 C 221.882 0.36686 -3.44754 0
M  V30 2265 C 220.943 -0.573485 -4.25452 0
M  V30 2266 C 220.176 0.149488 -5.33491 0
M  V30 2267 O 220.399 1.37255 -5.5364 0
M  V30 2268 O 219.333 -0.510919 -5.99728 0
M  V30 2269 H 223.159 -1.2411 -2.77183 0
M  V30 2270 H 220.744 -0.669926 -1.33538 0
M  V30 2271 H 222.626 0.795907 -4.13816 0
M  V30 2272 H 221.301 1.19169 -3.00966 0
M  V30 2273 H 220.208 -1.05176 -3.59011 0
M  V30 2274 H 221.541 -1.36489 -4.72897 0
M  V30 2275 N 223.193 1.4272 -0.668489 0
M  V30 2276 C 224.123 2.335 -0.000100175 0
M  V30 2277 C 225.104 1.50328 0.795964 0
M  V30 2278 O 226.289 1.78949 0.754385 0
M  V30 2279 C 223.419 3.33874 0.956302 0
M  V30 2280 C 222.373 4.27152 0.269278 0
M  V30 2281 C 221.699 5.17684 1.33818 0
M  V30 2282 C 222.999 5.15373 -0.847805 0
M  V30 2283 H 224.693 2.89639 -0.758244 0
M  V30 2284 H 222.239 1.39269 -0.366079 0
M  V30 2285 H 224.192 3.9629 1.43292 0
M  V30 2286 H 222.916 2.76025 1.74579 0
M  V30 2287 H 221.575 3.66123 -0.187042 0
M  V30 2288 H 221.223 4.56165 2.1195 0
M  V30 2289 H 220.923 5.80918 0.883659 0
M  V30 2290 H 222.447 5.82974 1.81586 0
M  V30 2291 H 223.861 5.7151 -0.452681 0
M  V30 2292 H 222.258 5.87407 -1.22773 0
M  V30 2293 H 223.328 4.5415 -1.69929 0
M  V30 2294 N 224.671 0.411399 1.52136 0
M  V30 2295 C 225.618 -0.412975 2.27075 0
M  V30 2296 C 226.588 -1.03912 1.29582 0
M  V30 2297 O 227.773 -1.06296 1.58448 0
M  V30 2298 C 224.913 -1.52247 3.09701 0
M  V30 2299 C 224.026 -0.917021 4.22155 0
M  V30 2300 C 223.161 -1.9994 4.92135 0
M  V30 2301 C 222.2 -1.37101 5.96548 0
M  V30 2302 N 221.337 -2.39364 6.60038 0
M  V30 2303 H 226.177 0.232499 2.97092 0
M  V30 2304 H 223.714 0.126496 1.46555 0
M  V30 2305 H 225.672 -2.17674 3.55913 0
M  V30 2306 H 224.302 -2.13794 2.41851 0
M  V30 2307 H 223.354 -0.151742 3.80097 0
M  V30 2308 H 224.666 -0.418006 4.97045 0
M  V30 2309 H 223.82 -2.73088 5.41763 0
M  V30 2310 H 222.559 -2.53208 4.16818 0
M  V30 2311 H 221.564 -0.624873 5.46237 0
M  V30 2312 H 222.789 -0.845998 6.7381 0
M  V30 2313 H 220.735 -2.91759 5.87548 0
M  V30 2314 H 220.652 -1.9428 7.3061 0
M  V30 2315 H 221.92 -3.12074 7.14304 0
M  V30 2316 N 226.149 -1.5696 0.141893 0
M  V30 2317 C 227.397 -1.95573 -0.509484 0
M  V30 2318 C 227.718 -1.02746 -1.65736 0
M  V30 2319 O 226.988 -0.0880311 -1.95702 0
M  V30 2320 H 225.568 -0.722115 -0.191205 0
M  V30 2321 H 228.23 -1.93697 0.216196 0
M  V30 2322 H 227.326 -2.99171 -0.889 0
M  V30 2323 N 227.627 0.131896 -1.57047 0
M  V30 2324 C 228.574 1.16236 -1.99393 0
M  V30 2325 C 229.544 1.41863 -0.863943 0
M  V30 2326 O 230.729 1.53946 -1.12718 0
M  V30 2327 C 227.869 2.48708 -2.39245 0
M  V30 2328 C 226.982 2.30127 -3.65603 0
M  V30 2329 C 226.117 3.55738 -3.94492 0
M  V30 2330 C 225.156 3.32259 -5.14073 0
M  V30 2331 N 224.293 4.50039 -5.38896 0
M  V30 2332 H 229.133 0.794251 -2.87221 0
M  V30 2333 H 226.67 0.380707 -1.42088 0
M  V30 2334 H 228.628 3.25969 -2.60384 0
M  V30 2335 H 227.258 2.83437 -1.54478 0
M  V30 2336 H 226.31 1.43845 -3.52154 0
M  V30 2337 H 227.622 2.08746 -4.5302 0
M  V30 2338 H 226.776 4.41423 -4.1621 0
M  V30 2339 H 225.515 3.80138 -3.05526 0
M  V30 2340 H 224.52 2.44963 -4.92212 0
M  V30 2341 H 225.745 3.09242 -6.04604 0
M  V30 2342 H 223.691 4.74584 -4.52886 0
M  V30 2343 H 223.608 4.31716 -6.2061 0
M  V30 2344 H 224.876 5.36895 -5.65123 0
M  V30 2345 N 229.106 1.52395 0.401703 0
M  V30 2346 C 230.355 1.66044 1.14509 0
M  V30 2347 C 230.668 0.400216 1.91462 0
M  V30 2348 O 231.874 0.416632 2.68284 0
M  V30 2349 C 230.33 2.93388 2.0845 0
M  V30 2350 C 229.938 4.26545 1.36978 0
M  V30 2351 C 231.682 3.16402 2.83001 0
M  V30 2352 C 229.589 5.45007 2.29611 0
M  V30 2353 H 228.519 0.618562 0.431158 0
M  V30 2354 H 231.17 1.78886 0.40892 0
M  V30 2355 H 229.552 2.74263 2.8565 0
M  V30 2356 H 230.726 4.56179 0.650916 0
M  V30 2357 H 229.041 4.09692 0.74438 0
M  V30 2358 H 231.638 4.02085 3.52465 0
M  V30 2359 H 231.981 2.30943 3.46368 0
M  V30 2360 H 232.514 3.36034 2.12898 0
M  V30 2361 H 229.253 6.32835 1.70879 0
M  V30 2362 H 228.773 5.19702 2.9945 0
M  V30 2363 H 230.452 5.7838 2.89974 0
M  V30 2364 N 230.584 -0.659388 1.43143 0
M  V30 2365 C 231.995 -1.24041 1.39537 0
M  V30 2366 C 232.346 -1.95963 0.0963364 0
M  V30 2367 O 231.471 -2.00892 -0.804438 0
M  V30 2368 C 232.066 -2.25601 2.52764 0
M  V30 2369 C 230.625 -2.79195 2.52443 0
M  V30 2370 C 229.772 -1.53743 2.30778 0
M  V30 2371 H 232.723 -0.451792 1.52133 0
M  V30 2372 H 232.744 -3.07651 2.23899 0
M  V30 2373 H 232.256 -1.73226 3.47296 0
M  V30 2374 H 230.357 -3.35649 1.61773 0
M  V30 2375 H 230.47 -3.2716 3.50004 0
M  V30 2376 H 228.834 -1.80869 1.79328 0
M  V30 2377 H 229.617 -1.03312 3.27386 0
M  V30 2378 N 232.062 -1.29571 -0.897171 0
M  V30 2379 C 233.339 -1.08365 -1.62839 0
M  V30 2380 C 233.719 0.371331 -2.07808 0
M  V30 2381 O 233.067 1.3606 -1.83576 0
M  V30 2382 C 233.277 -2.0735 -2.80726 0
M  V30 2383 C 234.625 -2.38406 -3.51351 0
M  V30 2384 O 235.649 -2.05564 -2.90898 0
M  V30 2385 O 234.508 -2.9453 -4.60341 0
M  V30 2386 H 231.602 -0.415345 -0.715134 0
M  V30 2387 H 234.148 -1.40952 -0.945018 0
M  V30 2388 H 232.92 -3.05339 -2.44711 0
M  V30 2389 H 232.543 -1.75507 -3.56767 0
M  V30 2390 N 233.54 1.10788 -1.12088 0
M  V30 2391 C 234.786 1.82942 -0.875226 0
M  V30 2392 C 235.119 1.84779 0.597538 0
M  V30 2393 O 234.394 1.30578 1.44152 0
M  V30 2394 C 234.677 3.29789 -1.44606 0
M  V30 2395 C 234.53 3.36307 -2.98693 0
M  V30 2396 C 235.849 4.26064 -1.10261 0
M  V30 2397 H 232.968 0.664195 -0.319397 0
M  V30 2398 H 235.61 1.29867 -1.38689 0
M  V30 2399 H 233.76 3.75118 -1.01089 0
M  V30 2400 H 235.432 2.99487 -3.50864 0
M  V30 2401 H 233.675 2.76318 -3.34411 0
M  V30 2402 H 234.346 4.39694 -3.33726 0
M  V30 2403 H 236.822 3.88951 -1.4784 0
M  V30 2404 H 235.698 5.27183 -1.52869 0
M  V30 2405 H 235.959 4.42098 -0.0142953 0
M  V30 2406 N 235.018 0.912232 1.28515 0
M  V30 2407 C 236.429 0.591352 1.77087 0
M  V30 2408 C 236.78 -0.8933 1.74684 0
M  V30 2409 O 235.905 -1.69876 1.34056 0
M  V30 2410 C 236.5 1.06668 3.2157 0
M  V30 2411 C 235.059 0.79675 3.67871 0
M  V30 2412 C 234.206 1.23427 2.48316 0
M  V30 2413 H 237.157 1.09365 1.15 0
M  V30 2414 H 237.178 0.407455 3.78312 0
M  V30 2415 H 236.69 2.14726 3.23287 0
M  V30 2416 H 234.791 -0.270679 3.71616 0
M  V30 2417 H 234.904 1.40343 4.58084 0
M  V30 2418 H 233.268 0.653036 2.46186 0
M  V30 2419 H 234.051 2.32316 2.52753 0
M  V30 2420 N 236.496 -1.42363 0.676048 0
M  V30 2421 C 237.744 -2.01123 0.198437 0
M  V30 2422 C 238.065 -1.53731 -1.19966 0
M  V30 2423 O 237.335 -0.759518 -1.80577 0
M  V30 2424 H 235.915 -0.743678 0.0703721 0
M  V30 2425 H 238.577 -1.74263 0.872837 0
M  V30 2426 H 237.673 -3.11454 0.200686 0
M  V30 2427 N 237.974 -0.419461 -1.51915 0
M  V30 2428 C 239.221 0.152939 -2.01922 0
M  V30 2429 C 239.549 1.4426 -1.30458 0
M  V30 2430 O 238.804 1.91514 -0.402593 0
M  V30 2431 C 239.103 0.437067 -3.54717 0
M  V30 2432 C 238.769 -0.764632 -4.44369 0
M  V30 2433 C 237.431 -1.09423 -4.68594 0
M  V30 2434 C 239.783 -1.56713 -4.97082 0
M  V30 2435 C 237.111 -2.22732 -5.42777 0
M  V30 2436 C 239.463 -2.69107 -5.72507 0
M  V30 2437 C 238.127 -3.02541 -5.95 0
M  V30 2438 H 237.397 0.0559644 -0.738884 0
M  V30 2439 H 240.044 -0.562998 -1.83037 0
M  V30 2440 H 238.349 1.23469 -3.71837 0
M  V30 2441 H 240.046 0.893083 -3.90928 0
M  V30 2442 H 236.636 -0.497775 -4.257 0
M  V30 2443 H 240.82 -1.32571 -4.78266 0
M  V30 2444 H 236.076 -2.48971 -5.58411 0
M  V30 2445 H 240.25 -3.31671 -6.12346 0
M  V30 2446 H 237.877 -3.90457 -6.52264 0
M  V30 2447 N 239.452 1.56882 -0.150215 0
M  V30 2448 C 240.677 2.01027 0.510184 0
M  V30 2449 C 241.102 1.02966 1.57415 0
M  V30 2450 O 240.46 0.00590158 1.81299 0
M  V30 2451 C 240.508 3.43899 1.08472 0
M  V30 2452 O 239.612 3.4885 2.19948 0
M  V30 2453 H 238.953 0.652233 0.124451 0
M  V30 2454 H 241.483 2.03093 -0.247894 0
M  V30 2455 H 241.493 3.82766 1.41259 0
M  V30 2456 H 240.168 4.14776 0.305582 0
M  V30 2457 H 238.745 3.21827 1.88366 0
M  V30 2458 N 240.93 -0.123565 1.57115 0
M  V30 2459 C 242.176 -0.828428 1.85765 0
M  V30 2460 C 242.531 -1.77709 0.737371 0
M  V30 2461 O 241.824 -1.89787 -0.262978 0
M  V30 2462 C 242.018 -1.62016 3.18568 0
M  V30 2463 C 241.847 -0.749663 4.43407 0
M  V30 2464 C 240.617 -0.406251 5.03664 0
M  V30 2465 C 242.815 -0.0693505 5.14253 0
M  V30 2466 N 240.797 0.475389 6.12057 0
M  V30 2467 C 242.168 0.671474 6.16353 0
M  V30 2468 C 244.223 0.00754393 4.97899 0
M  V30 2469 C 242.926 1.48197 7.03868 0
M  V30 2470 C 244.952 0.804845 5.85898 0
M  V30 2471 C 244.314 1.53388 6.87497 0
M  V30 2472 H 240.413 -0.280219 0.73007 0
M  V30 2473 H 242.997 -0.0924183 1.94481 0
M  V30 2474 H 241.168 -2.32724 3.10957 0
M  V30 2475 H 242.9 -2.27 3.35042 0
M  V30 2476 H 239.655 -0.747446 4.67665 0
M  V30 2477 H 240.079 0.907924 6.70884 0
M  V30 2478 H 244.721 -0.541741 4.19315 0
M  V30 2479 H 242.439 2.04242 7.81864 0
M  V30 2480 H 246.025 0.866642 5.75309 0
M  V30 2481 H 244.905 2.1409 7.5441 0
M  V30 2482 N 242.408 -1.52605 -0.393616 0
M  V30 2483 C 243.654 -1.67672 -1.14079 0
M  V30 2484 C 243.987 -0.413121 -1.89755 0
M  V30 2485 O 243.262 0.588952 -1.85369 0
M  V30 2486 C 243.545 -2.9088 -2.12276 0
M  V30 2487 C 243.398 -4.27329 -1.40394 0
M  V30 2488 C 244.717 -3.09628 -3.12759 0
M  V30 2489 H 241.836 -0.610168 -0.413356 0
M  V30 2490 H 244.478 -1.85193 -0.424696 0
M  V30 2491 H 242.628 -2.76073 -2.73342 0
M  V30 2492 H 244.3 -4.53894 -0.82327 0
M  V30 2493 H 242.543 -4.2802 -0.705801 0
M  V30 2494 H 243.214 -5.09615 -2.12123 0
M  V30 2495 H 245.69 -3.23436 -2.61779 0
M  V30 2496 H 244.566 -3.97322 -3.78717 0
M  V30 2497 H 244.827 -2.23637 -3.81365 0
M  V30 2498 N 243.887 0.651787 -1.4349 0
M  V30 2499 C 245.115 1.43937 -1.48626 0
M  V30 2500 C 245.53 1.8851 -0.104587 0
M  V30 2501 O 244.887 1.5958 0.885464 0
M  V30 2502 C 244.938 2.6734 -2.43334 0
M  V30 2503 O 244.659 2.24631 -3.76128 0
M  V30 2504 C 246.16 3.60683 -2.57726 0
M  V30 2505 H 243.38 0.44213 -0.504739 0
M  V30 2506 H 245.924 0.798944 -1.88248 0
M  V30 2507 H 244.079 3.2752 -2.06904 0
M  V30 2508 H 244.493 3.04485 -4.2707 0
M  V30 2509 H 245.967 4.43933 -3.28067 0
M  V30 2510 H 246.444 4.08126 -1.62265 0
M  V30 2511 H 247.05 3.06384 -2.94973 0
M  V30 2512 N 245.365 1.30045 0.890287 0
M  V30 2513 C 246.776 1.16738 1.45702 0
M  V30 2514 C 247.127 -0.233939 1.948 0
M  V30 2515 O 246.252 -1.13021 1.84541 0
M  V30 2516 C 246.847 2.11313 2.64825 0
M  V30 2517 C 245.406 2.02001 3.17604 0
M  V30 2518 C 244.553 2.01699 1.90296 0
M  V30 2519 H 247.504 1.42392 0.700726 0
M  V30 2520 H 247.525 1.69086 3.40867 0
M  V30 2521 H 247.037 3.13294 2.2906 0
M  V30 2522 H 245.138 1.03142 3.5804 0
M  V30 2523 H 245.251 2.90128 3.81264 0
M  V30 2524 H 243.615 1.46427 2.08402 0
M  V30 2525 H 244.398 3.05402 1.56795 0
M  V30 2526 N 246.843 -1.10192 1.12674 0
M  V30 2527 C 248.083 -1.83825 0.893736 0
M  V30 2528 C 248.447 -1.83341 -0.570082 0
M  V30 2529 O 249.648 -2.52553 -0.920354 0
M  V30 2530 C 247.919 -3.26405 1.45582 0
M  V30 2531 S 249.478 -4.17136 1.36171 0
M  V30 2532 H 246.296 -0.633732 0.322342 0
M  V30 2533 H 248.898 -1.32581 1.43675 0
M  V30 2534 H 247.602 -3.24329 2.51473 0
M  V30 2535 H 247.133 -3.82721 0.910405 0
M  V30 2536 H 249.148 -4.95069 0.334863 0
M  V30 2537 N 248.321 -0.919034 -1.28029 0
M  V30 2538 C 249.57 -0.550802 -1.94034 0
M  V30 2539 C 249.883 0.910877 -1.73096 0
M  V30 2540 O 251.089 1.3875 -2.33368 0
M  V30 2541 C 249.545 -0.934249 -3.47563 0
M  V30 2542 C 249.153 -2.41602 -3.7727 0
M  V30 2543 C 250.897 -0.636854 -4.19696 0
M  V30 2544 C 248.804 -2.73932 -5.24133 0
M  V30 2545 H 247.734 -0.202273 -0.726362 0
M  V30 2546 H 250.385 -1.11867 -1.45458 0
M  V30 2547 H 248.767 -0.295115 -3.94899 0
M  V30 2548 H 249.941 -3.10233 -3.40723 0
M  V30 2549 H 248.256 -2.68441 -3.18321 0
M  V30 2550 H 250.853 -0.855005 -5.2782 0
M  V30 2551 H 251.196 0.425575 -4.14119 0
M  V30 2552 H 251.729 -1.23469 -3.78154 0
M  V30 2553 H 248.468 -3.79049 -5.34792 0
M  V30 2554 H 247.988 -2.09942 -5.61858 0
M  V30 2555 H 249.667 -2.61215 -5.91925 0
M  V30 2556 N 249.799 1.42003 -0.683588 0
M  V30 2557 C 251.024 2.06265 -0.216647 0
M  V30 2558 C 251.449 1.51059 1.12083 0
M  V30 2559 O 250.807 0.632638 1.69904 0
M  V30 2560 C 250.855 3.60191 -0.171759 0
M  V30 2561 O 249.959 4.03396 0.857069 0
M  V30 2562 H 249.3 0.65502 -0.108834 0
M  V30 2563 H 251.83 1.81982 -0.935077 0
M  V30 2564 H 251.84 4.08 0.0014303 0
M  V30 2565 H 250.515 3.99743 -1.14796 0
M  V30 2566 H 249.092 3.67117 0.654208 0
M  V30 2567 N 251.277 0.427512 1.51691 0
M  V30 2568 C 252.24 -0.377132 2.26076 0
M  V30 2569 C 253.24 -0.958089 1.29141 0
M  V30 2570 O 254.43 -0.83408 1.52934 0
M  V30 2571 C 251.562 -1.53262 3.04506 0
M  V30 2572 H 252.755 0.27464 2.9864 0
M  V30 2573 H 250.308 0.180445 1.55255 0
M  V30 2574 H 251.043 -2.22072 2.36335 0
M  V30 2575 H 250.828 -1.12232 3.75694 0
M  V30 2576 H 252.318 -2.10135 3.60878 0
M  V30 2577 N 252.755 -1.56801 0.158532 0
M  V30 2578 C 253.702 -2.17337 -0.776729 0
M  V30 2579 C 254.672 -1.1096 -1.23601 0
M  V30 2580 O 255.857 -1.39054 -1.30647 0
M  V30 2581 C 252.997 -2.80822 -2.00582 0
M  V30 2582 C 252.11 -4.01624 -1.59129 0
M  V30 2583 C 251.245 -4.53072 -2.77306 0
M  V30 2584 C 250.284 -5.66314 -2.32282 0
M  V30 2585 N 249.421 -6.12329 -3.43508 0
M  V30 2586 H 254.261 -2.96918 -0.253701 0
M  V30 2587 H 251.798 -1.46661 -0.113504 0
M  V30 2588 H 253.756 -3.15779 -2.72652 0
M  V30 2589 H 252.386 -2.03866 -2.50277 0
M  V30 2590 H 251.438 -3.72571 -0.767806 0
M  V30 2591 H 252.75 -4.83633 -1.2207 0
M  V30 2592 H 251.904 -4.90145 -3.57551 0
M  V30 2593 H 250.643 -3.70095 -3.17617 0
M  V30 2594 H 249.648 -5.28806 -1.5048 0
M  V30 2595 H 250.873 -6.51085 -1.93043 0
M  V30 2596 H 248.819 -5.32284 -3.83418 0
M  V30 2597 H 248.736 -6.89293 -3.105 0
M  V30 2598 H 250.004 -6.5405 -4.24075 0
M  V30 2599 N 254.233 0.115231 -1.57178 0
M  V30 2600 C 255.51 0.852873 -1.76027 0
M  V30 2601 C 255.89 1.97892 -0.73498 0
M  V30 2602 O 255.238 2.27232 0.24036 0
M  V30 2603 C 255.448 1.36608 -3.21153 0
M  V30 2604 C 256.796 1.81692 -3.83762 0
M  V30 2605 O 257.82 1.46278 -3.24779 0
M  V30 2606 O 256.679 2.47104 -4.87444 0
M  V30 2607 H 253.773 0.405296 -0.720877 0
M  V30 2608 H 256.319 0.0986785 -1.69413 0
M  V30 2609 H 255.091 0.558357 -3.87296 0
M  V30 2610 H 254.714 2.18287 -3.3232 0
M  V30 2611 N 255.711 1.52812 0.385517 0
M  V30 2612 C 256.96 1.67249 1.12741 0
M  V30 2613 C 257.273 0.4205 1.91027 0
M  V30 2614 O 258.479 0.445064 2.67827 0
M  V30 2615 C 256.935 2.95583 2.05326 0
M  V30 2616 C 256.543 4.27974 1.32447 0
M  V30 2617 C 258.287 3.19386 2.7963 0
M  V30 2618 C 256.194 5.47412 2.23818 0
M  V30 2619 H 255.124 0.6231 0.424573 0
M  V30 2620 H 257.775 1.79309 0.389924 0
M  V30 2621 H 256.157 2.77277 2.82725 0
M  V30 2622 H 257.331 4.56844 0.602495 0
M  V30 2623 H 255.646 4.10459 0.700885 0
M  V30 2624 H 258.243 4.05801 3.48181 0
M  V30 2625 H 258.586 2.34604 3.43899 0
M  V30 2626 H 259.119 3.38274 2.09322 0
M  V30 2627 H 255.858 6.34612 1.64157 0
M  V30 2628 H 255.378 5.22849 2.93921 0
M  V30 2629 H 257.057 5.81423 2.83824 0
M  V30 2630 N 257.189 -0.644168 1.43834 0
M  V30 2631 C 258.435 -1.40603 1.46146 0
M  V30 2632 C 258.768 -1.93997 0.0887717 0
M  V30 2633 O 258.043 -1.72854 -0.891724 0
M  V30 2634 C 258.326 -2.58086 2.51124 0
M  V30 2635 C 258.179 -2.10126 3.97702 0
M  V30 2636 C 259.498 -3.60291 2.52742 0
M  V30 2637 H 256.617 -0.509905 0.532134 0
M  V30 2638 H 259.259 -0.729502 1.75437 0
M  V30 2639 H 257.409 -3.15801 2.26278 0
M  V30 2640 H 259.081 -1.57342 4.33637 0
M  V30 2641 H 257.324 -1.41419 4.10101 0
M  V30 2642 H 257.995 -2.94649 4.66783 0
M  V30 2643 H 260.471 -3.12352 2.7491 0
M  V30 2644 H 259.347 -4.40032 3.28121 0
M  V30 2645 H 259.608 -4.1349 1.56455 0
M  V30 2646 N 258.668 -1.30515 -0.883378 0
M  V30 2647 C 259.898 -1.22182 -1.66599 0
M  V30 2648 C 260.306 0.217507 -1.87946 0
M  V30 2649 O 259.649 1.1554 -1.42815 0
M  V30 2650 C 259.711 -1.88146 -3.06335 0
M  V30 2651 C 259.375 -3.37476 -3.08154 0
M  V30 2652 C 260.372 -4.33443 -2.87094 0
M  V30 2653 C 258.057 -3.7895 -3.29701 0
M  V30 2654 C 260.051 -5.68858 -2.8754 0
M  V30 2655 C 257.738 -5.14482 -3.29776 0
M  V30 2656 C 258.736 -6.09246 -3.0872 0
M  V30 2657 O 258.424 -7.42302 -3.08615 0
M  V30 2658 H 258.156 -0.423898 -0.52658 0
M  V30 2659 H 260.71 -1.72703 -1.11188 0
M  V30 2660 H 258.94 -1.32157 -3.63416 0
M  V30 2661 H 260.629 -1.7391 -3.66756 0
M  V30 2662 H 261.395 -4.02733 -2.70243 0
M  V30 2663 H 257.274 -3.05631 -3.45124 0
M  V30 2664 H 260.818 -6.428 -2.71024 0
M  V30 2665 H 256.715 -5.44832 -3.46163 0
M  V30 2666 H 257.483 -7.5131 -3.24769 0
M  V30 2667 N 260.146 1.09593 -1.13257 0
M  V30 2668 C 261.395 1.81105 -0.887917 0
M  V30 2669 C 261.708 1.86563 0.587672 0
M  V30 2670 O 262.914 2.54367 0.949204 0
M  V30 2671 C 261.37 3.25338 -1.53895 0
M  V30 2672 C 260.978 3.28151 -3.04994 0
M  V30 2673 C 262.722 4.01617 -1.37492 0
M  V30 2674 C 260.629 4.66897 -3.6299 0
M  V30 2675 H 259.559 0.678661 -0.328534 0
M  V30 2676 H 262.21 1.23183 -1.36008 0
M  V30 2677 H 260.592 3.8331 -0.994446 0
M  V30 2678 H 261.766 2.79953 -3.66009 0
M  V30 2679 H 260.081 2.65361 -3.20893 0
M  V30 2680 H 262.678 5.04119 -1.78235 0
M  V30 2681 H 263.021 4.15072 -0.31957 0
M  V30 2682 H 263.554 3.50082 -1.88912 0
M  V30 2683 H 260.293 4.58643 -4.68323 0
M  V30 2684 H 259.813 5.15426 -3.06752 0
M  V30 2685 H 261.492 5.3587 -3.62563 0
M  V30 2686 N 261.624 0.925811 1.2754 0
M  V30 2687 C 262.872 0.564138 1.94067 0
M  V30 2688 C 263.193 -0.897188 1.73134 0
M  V30 2689 O 262.463 -1.63573 1.07799 0
M  V30 2690 H 261.043 0.205645 0.718136 0
M  V30 2691 H 263.705 1.1778 1.55287 0
M  V30 2692 H 262.801 0.76881 3.02483 0
M  V30 2693 N 263.102 -1.41638 0.69111 0
M  V30 2694 C 264.032 -2.3347 0.037248 0
M  V30 2695 C 265.013 -1.51575 -0.771947 0
M  V30 2696 O 266.198 -1.80126 -0.72582 0
M  V30 2697 C 263.328 -3.35354 -0.903064 0
M  V30 2698 C 262.282 -4.27526 -0.201288 0
M  V30 2699 C 261.608 -5.19747 -1.25565 0
M  V30 2700 C 262.908 -5.13959 0.929689 0
M  V30 2701 H 264.602 -2.88397 0.804227 0
M  V30 2702 H 262.148 -1.38669 0.388189 0
M  V30 2703 H 264.101 -3.98519 -1.36969 0
M  V30 2704 H 262.825 -2.78767 -1.70166 0
M  V30 2705 H 261.484 -3.65779 0.245265 0
M  V30 2706 H 261.132 -4.59479 -2.04666 0
M  V30 2707 H 260.832 -5.8225 -0.791128 0
M  V30 2708 H 262.356 -5.85789 -1.72288 0
M  V30 2709 H 263.77 -5.70718 0.543546 0
M  V30 2710 H 262.167 -5.85379 1.32103 0
M  V30 2711 H 263.237 -4.51389 1.77133 0
M  V30 2712 N 264.58 -0.43555 -1.51462 0
M  V30 2713 C 265.996 -0.0877501 -1.59359 0
M  V30 2714 C 266.196 1.4027 -1.4466 0
M  V30 2715 O 265.252 2.17243 -1.28693 0
M  V30 2716 C 266.565 -0.606264 -2.94525 0
M  V30 2717 C 268.113 -0.566548 -3.0783 0
M  V30 2718 C 268.588 -1.06201 -4.45517 0
M  V30 2719 N 270.079 -1.01992 -4.51832 0
M  V30 2720 C 270.814 -1.37417 -5.5669 0
M  V30 2721 N 270.31 -1.80119 -6.68976 0
M  V30 2722 N 272.103 -1.29245 -5.47039 0
M  V30 2723 H 264.254 -1.40533 -1.59261 0
M  V30 2724 H 266.517 -0.578992 -0.750648 0
M  V30 2725 H 266.223 -1.64901 -3.10645 0
M  V30 2726 H 266.097 -0.0302097 -3.77188 0
M  V30 2727 H 268.484 0.467208 -2.91378 0
M  V30 2728 H 268.565 -1.17898 -2.2701 0
M  V30 2729 H 268.209 -2.09422 -4.62715 0
M  V30 2730 H 268.139 -0.426127 -5.24873 0
M  V30 2731 H 270.63 -0.706308 -3.71241 0
M  V30 2732 H 270.943 -2.05392 -7.45006 0
M  V30 2733 H 269.288 -1.84044 -6.70189 0
M  V30 2734 H 272.479 -0.957522 -4.58202 0
M  V30 2735 H 272.652 -1.57182 -6.28648 0
M  V30 2736 N 266.058 1.56714 -0.166846 0
M  V30 2737 C 267.335 1.88412 0.525373 0
M  V30 2738 C 267.715 1.07602 1.81618 0
M  V30 2739 O 267.063 0.168621 2.27877 0
M  V30 2740 C 267.273 3.40363 0.771613 0
M  V30 2741 C 268.621 4.10007 1.1036 0
M  V30 2742 O 269.645 3.45655 0.860304 0
M  V30 2743 O 268.504 5.2369 1.56239 0
M  V30 2744 H 265.598 0.781587 0.270278 0
M  V30 2745 H 268.144 1.68458 -0.204946 0
M  V30 2746 H 266.916 3.91046 -0.141093 0
M  V30 2747 H 266.539 3.65914 1.55541 0
M  V30 2748 N 267.536 -0.106894 1.57237 0
M  V30 2749 C 268.782 -0.81373 1.85759 0
M  V30 2750 C 269.115 -1.78952 0.754315 0
M  V30 2751 O 268.39 -1.93029 -0.23879 0
M  V30 2752 C 268.673 -1.55293 3.24894 0
M  V30 2753 C 268.526 -0.595929 4.45835 0
M  V30 2754 C 269.845 -2.5063 3.61763 0
M  V30 2755 H 266.964 -0.294369 0.67566 0
M  V30 2756 H 269.606 -0.0776472 1.89841 0
M  V30 2757 H 267.756 -2.1804 3.21544 0
M  V30 2758 H 269.428 0.0236262 4.61294 0
M  V30 2759 H 267.671 0.0916191 4.33703 0
M  V30 2760 H 268.342 -1.15004 5.39887 0
M  V30 2761 H 270.818 -1.97982 3.65981 0
M  V30 2762 H 269.694 -2.99376 4.60071 0
M  V30 2763 H 269.955 -3.3385 2.89821 0
M  V30 2764 N 269.014 -1.53014 -0.377408 0
M  V30 2765 C 270.291 -1.59215 -1.13622 0
M  V30 2766 C 270.671 -0.392407 -2.07421 0
M  V30 2767 O 270.019 0.618342 -2.19975 0
M  V30 2768 C 270.229 -2.93669 -1.88573 0
M  V30 2769 C 271.577 -3.47822 -2.43526 0
M  V30 2770 O 272.601 -2.9562 -1.98715 0
M  V30 2771 O 271.46 -4.39055 -3.25412 0
M  V30 2772 H 268.554 -0.642625 -0.52054 0
M  V30 2773 H 271.1 -1.65353 -0.381625 0
M  V30 2774 H 269.872 -3.7243 -1.20048 0
M  V30 2775 H 269.495 -2.90968 -2.70968 0
M  V30 2776 N 270.492 0.636531 -1.44174 0
M  V30 2777 C 271.903 1.21806 -1.41493 0
M  V30 2778 C 272.254 1.95785 -0.1275 0
M  V30 2779 O 271.379 2.02147 0.772376 0
M  V30 2780 C 271.974 2.21551 -2.56321 0
M  V30 2781 C 270.533 2.75143 -2.56853 0
M  V30 2782 C 269.68 1.50052 -2.33195 0
M  V30 2783 H 272.631 0.427531 -1.52833 0
M  V30 2784 H 272.652 3.0405 -2.28765 0
M  V30 2785 H 272.164 1.67679 -3.50008 0
M  V30 2786 H 270.265 3.33033 -1.67093 0
M  V30 2787 H 270.378 3.2155 -3.55165 0
M  V30 2788 H 268.742 1.77993 -1.82183 0
M  V30 2789 H 269.525 0.980903 -3.28988 0
M  V30 2790 N 271.97 1.30982 0.876444 0
M  V30 2791 C 273.218 1.20058 1.62575 0
M  V30 2792 C 273.539 -0.242947 1.93481 0
M  V30 2793 O 272.809 -1.1619 1.57724 0
M  V30 2794 H 271.389 0.44135 0.602677 0
M  V30 2795 H 274.051 1.64222 1.04962 0
M  V30 2796 H 273.147 1.76762 2.57219 0
M  V30 2797 N 273.449 -1.08991 1.13837 0
M  V30 2798 C 274.359 -2.19301 0.833333 0
M  V30 2799 C 275.375 -1.73026 -0.183847 0
M  V30 2800 O 276.551 -2.01395 -0.0138092 0
M  V30 2801 C 273.616 -3.45323 0.308651 0
M  V30 2802 C 272.677 -4.06255 1.38764 0
M  V30 2803 C 271.91 -5.26262 0.887896 0
M  V30 2804 O 272.133 -5.69747 -0.27287 0
M  V30 2805 O 271.067 -5.78435 1.66421 0
M  V30 2806 H 274.893 -2.47854 1.75506 0
M  V30 2807 H 272.478 -1.18012 0.916166 0
M  V30 2808 H 274.36 -4.21394 0.0216739 0
M  V30 2809 H 273.035 -3.18362 -0.585431 0
M  V30 2810 H 271.942 -3.318 1.72799 0
M  V30 2811 H 273.275 -4.37452 2.25602 0
M  V30 2812 N 274.927 -0.932562 -1.27047 0
M  V30 2813 C 275.877 -0.406392 -2.24349 0
M  V30 2814 C 276.861 0.492066 -1.53191 0
M  V30 2815 O 278.053 0.328717 -1.73921 0
M  V30 2816 C 275.182 0.335214 -3.41659 0
M  V30 2817 C 274.268 -0.58004 -4.20115 0
M  V30 2818 N 274.659 -1.70203 -4.76303 0
M  V30 2819 C 272.957 -0.383974 -4.44344 0
M  V30 2820 C 273.658 -2.27167 -5.35509 0
M  V30 2821 N 272.634 -1.56068 -5.20715 0
M  V30 2822 H 276.436 -1.26299 -2.65378 0
M  V30 2823 H 273.95 -0.787408 -1.42034 0
M  V30 2824 H 275.947 0.729142 -4.10474 0
M  V30 2825 H 274.607 1.18868 -3.0216 0
M  V30 2826 H 275.618 -2.08433 -4.74106 0
M  V30 2827 H 272.295 0.428436 -4.15296 0
M  V30 2828 H 273.685 -3.21654 -5.89905 0
M  V30 2829 N 276.405 1.4127 -0.698611 0
M  V30 2830 C 277.635 2.05205 -0.239644 0
M  V30 2831 C 278.043 1.52684 1.11733 0
M  V30 2832 O 277.386 0.671222 1.70998 0
M  V30 2833 C 277.448 3.59289 -0.123126 0
M  V30 2834 C 277.112 4.34619 -1.41263 0
M  V30 2835 C 278.109 4.63701 -2.35111 0
M  V30 2836 C 275.794 4.73837 -1.66684 0
M  V30 2837 C 277.788 5.30966 -3.52639 0
M  V30 2838 C 275.475 5.40837 -2.84498 0
M  V30 2839 C 276.473 5.69329 -3.77298 0
M  V30 2840 O 276.161 6.34949 -4.93047 0
M  V30 2841 H 275.893 0.66723 -0.108537 0
M  V30 2842 H 278.447 1.81974 -0.952602 0
M  V30 2843 H 276.677 3.81272 0.645628 0
M  V30 2844 H 278.366 4.04797 0.299056 0
M  V30 2845 H 279.132 4.33882 -2.16729 0
M  V30 2846 H 275.011 4.51039 -0.953135 0
M  V30 2847 H 278.555 5.53121 -4.25091 0
M  V30 2848 H 274.452 5.70075 -3.02795 0
M  V30 2849 H 275.22 6.53445 -4.92902 0
M  V30 2850 N 277.883 0.443576 1.51229 0
M  V30 2851 C 279.132 -0.122332 2.01329 0
M  V30 2852 C 279.445 -1.43237 1.33201 0
M  V30 2853 O 280.651 -2.0816 1.74304 0
M  V30 2854 C 279.107 -0.268551 3.58897 0
M  V30 2855 C 278.715 1.03142 4.35965 0
M  V30 2856 C 280.459 -0.787894 4.17124 0
M  V30 2857 C 278.366 0.850504 5.85252 0
M  V30 2858 H 277.296 -0.0494929 0.752374 0
M  V30 2859 H 279.947 0.574289 1.74282 0
M  V30 2860 H 278.329 -1.02832 3.82415 0
M  V30 2861 H 279.503 1.80001 4.24189 0
M  V30 2862 H 277.818 1.47977 3.89219 0
M  V30 2863 H 280.415 -0.939841 5.26375 0
M  V30 2864 H 280.758 -1.77201 3.76703 0
M  V30 2865 H 281.291 -0.0862669 3.97706 0
M  V30 2866 H 278.03 1.80718 6.30096 0
M  V30 2867 H 277.55 0.121825 5.99676 0
M  V30 2868 H 279.229 0.506163 6.45017 0
M  V30 2869 N 279.361 -1.56624 0.175154 0
M  V30 2870 C 280.291 -2.21155 -0.749195 0
M  V30 2871 C 281.272 -1.16836 -1.23626 0
M  V30 2872 O 282.457 -1.45277 -1.28873 0
M  V30 2873 C 279.587 -2.8553 -1.97711 0
M  V30 2874 C 278.541 -3.95921 -1.62575 0
M  V30 2875 C 277.867 -4.47365 -2.92864 0
M  V30 2876 C 279.167 -5.15323 -0.850838 0
M  V30 2877 H 280.861 -2.98653 -0.211295 0
M  V30 2878 H 278.407 -1.43651 -0.100188 0
M  V30 2879 H 280.36 -3.2935 -2.62881 0
M  V30 2880 H 279.084 -2.05406 -2.53921 0
M  V30 2881 H 277.743 -3.52762 -0.997719 0
M  V30 2882 H 277.391 -3.64027 -3.47122 0
M  V30 2883 H 277.091 -5.21839 -2.70106 0
M  V30 2884 H 278.615 -4.93873 -3.59056 0
M  V30 2885 H 280.029 -5.55812 -1.40521 0
M  V30 2886 H 278.426 -5.95739 -0.722154 0
M  V30 2887 H 279.496 -4.84661 0.152082 0
M  V30 2888 N 280.839 0.0985539 -1.57292 0
M  V30 2889 C 281.786 1.11981 -2.01814 0
M  V30 2890 C 282.756 1.39999 -0.89384 0
M  V30 2891 O 283.941 1.5152 -1.15958 0
M  V30 2892 C 281.081 2.43577 -2.44467 0
M  V30 2893 C 280.194 2.2232 -3.70402 0
M  V30 2894 C 279.329 3.4729 -4.01949 0
M  V30 2895 C 278.368 3.2128 -5.21005 0
M  V30 2896 N 277.505 4.38507 -5.48321 0
M  V30 2897 H 282.345 0.733149 -2.88841 0
M  V30 2898 H 279.882 0.350482 -1.42864 0
M  V30 2899 H 281.84 3.20373 -2.6724 0
M  V30 2900 H 280.47 2.80097 -1.60455 0
M  V30 2901 H 279.522 1.36343 -3.55126 0
M  V30 2902 H 280.834 1.99089 -4.57345 0
M  V30 2903 H 279.988 4.32495 -4.25479 0
M  V30 2904 H 278.727 3.73572 -3.13521 0
M  V30 2905 H 277.732 2.34468 -4.97298 0
M  V30 2906 H 278.957 2.96348 -6.11028 0
M  V30 2907 H 276.903 4.64871 -4.62851 0
M  V30 2908 H 276.82 4.18455 -6.29628 0
M  V30 2909 H 278.088 5.24787 -5.76385 0
M  V30 2910 N 282.317 1.53212 0.369288 0
M  V30 2911 C 283.545 1.73119 1.13303 0
M  V30 2912 C 283.96 0.458455 1.83149 0
M  V30 2913 O 283.317 -0.568403 1.73423 0
M  V30 2914 C 283.368 2.89413 2.16616 0
M  V30 2915 O 283.089 4.11761 1.49614 0
M  V30 2916 C 284.59 3.21161 3.05566 0
M  V30 2917 H 281.81 0.579107 0.338934 0
M  V30 2918 H 284.354 1.99942 0.429338 0
M  V30 2919 H 282.509 2.64994 2.82589 0
M  V30 2920 H 282.923 4.76858 2.18419 0
M  V30 2921 H 284.397 4.05949 3.74045 0
M  V30 2922 H 284.874 2.36369 3.70171 0
M  V30 2923 H 285.48 3.47492 2.45213 0
M  V30 2924 N 283.795 -0.628877 1.44509 0
M  V30 2925 C 284.725 -1.75187 1.54376 0
M  V30 2926 C 285.706 -1.65411 0.396618 0
M  V30 2927 O 286.891 -1.84137 0.617031 0
M  V30 2928 C 284.021 -3.13725 1.48976 0
M  V30 2929 C 282.975 -3.38291 2.62189 0
M  V30 2930 C 282.301 -4.76883 2.41841 0
M  V30 2931 C 283.601 -3.30632 4.04326 0
M  V30 2932 H 285.295 -1.67187 2.48373 0
M  V30 2933 H 282.841 -0.802909 1.19538 0
M  V30 2934 H 284.794 -3.92064 1.54478 0
M  V30 2935 H 283.518 -3.22515 0.514961 0
M  V30 2936 H 282.177 -2.62334 2.56079 0
M  V30 2937 H 281.825 -4.82378 1.42548 0
M  V30 2938 H 281.525 -4.94278 3.17747 0
M  V30 2939 H 283.049 -5.57449 2.49165 0
M  V30 2940 H 284.463 -3.98873 4.11793 0
M  V30 2941 H 282.86 -3.59561 4.80454 0
M  V30 2942 H 283.93 -2.28404 4.27738 0
M  V30 2943 N 285.273 -1.31445 -0.869486 0
M  V30 2944 C 286.521 -1.20918 -1.61936 0
M  V30 2945 C 286.842 0.232683 -1.93607 0
M  V30 2946 O 286.112 1.15352 -1.58338 0
M  V30 2947 H 284.692 -0.44454 -0.600328 0
M  V30 2948 H 287.354 -1.64776 -1.0409 0
M  V30 2949 H 286.45 -1.78124 -2.56278 0
M  V30 2950 N 286.751 1.08385 -1.14413 0
M  V30 2951 C 288 1.80153 -0.907076 0
M  V30 2952 C 288.313 1.87176 0.567851 0
M  V30 2953 O 289.519 2.55359 0.922172 0
M  V30 2954 C 287.975 3.23687 -1.57336 0
M  V30 2955 C 287.583 3.24897 -3.08457 0
M  V30 2956 C 289.327 4.00136 -1.41744 0
M  V30 2957 C 287.234 4.6302 -3.67921 0
M  V30 2958 H 286.164 0.675139 -0.335714 0
M  V30 2959 H 288.815 1.21733 -1.37307 0
M  V30 2960 H 287.197 3.82234 -1.03505 0
M  V30 2961 H 288.371 2.76055 -3.68958 0
M  V30 2962 H 286.686 2.61943 -3.2369 0
M  V30 2963 H 289.283 5.02201 -1.83572 0
M  V30 2964 H 289.626 4.14709 -0.363576 0
M  V30 2965 H 290.159 3.48058 -1.92614 0
M  V30 2966 H 286.898 4.5365 -4.73161 0
M  V30 2967 H 286.418 5.12143 -3.12201 0
M  V30 2968 H 288.097 5.31994 -3.68227 0
M  V30 2969 N 288.23 0.939286 1.26551 0
M  V30 2970 C 289.177 0.446088 2.26448 0
M  V30 2971 C 290.147 -0.493234 1.58608 0
M  V30 2972 O 291.332 -0.409857 1.86346 0
M  V30 2973 C 288.472 -0.284375 3.43926 0
M  V30 2974 C 287.585 0.690399 4.26448 0
M  V30 2975 C 286.72 -0.0610712 5.31165 0
M  V30 2976 C 285.759 0.905649 6.05363 0
M  V30 2977 N 284.896 0.186055 7.01853 0
M  V30 2978 H 289.736 1.30291 2.68008 0
M  V30 2979 H 287.273 0.65371 1.31776 0
M  V30 2980 H 289.231 -0.724313 4.10864 0
M  V30 2981 H 287.861 -1.10535 3.03285 0
M  V30 2982 H 286.913 1.24885 3.59316 0
M  V30 2983 H 288.225 1.42873 4.779 0
M  V30 2984 H 287.379 -0.56038 6.04106 0
M  V30 2985 H 286.118 -0.832297 4.80546 0
M  V30 2986 H 285.123 1.4161 5.3125 0
M  V30 2987 H 286.348 1.67685 6.58072 0
M  V30 2988 H 284.294 -0.566714 6.53548 0
M  V30 2989 H 284.211 0.863752 7.51049 0
M  V30 2990 H 285.479 -0.292221 7.78952 0
M  V30 2991 N 289.708 -1.40897 0.706093 0
M  V30 2992 C 290.938 -2.05075 0.250523 0
M  V30 2993 C 291.346 -1.53275 -1.10921 0
M  V30 2994 O 290.689 -0.680281 -1.7064 0
M  V30 2995 C 290.751 -3.59219 0.142178 0
M  V30 2996 C 290.415 -4.33864 1.43566 0
M  V30 2997 C 291.412 -4.62448 2.37566 0
M  V30 2998 C 289.097 -4.72946 1.69195 0
M  V30 2999 C 291.091 -5.29088 3.5545 0
M  V30 3000 C 288.778 -5.3932 2.87362 0
M  V30 3001 C 289.776 -5.6732 3.80312 0
M  V30 3002 O 289.464 -6.32325 4.96408 0
M  V30 3003 H 289.196 -0.666645 0.112074 0
M  V30 3004 H 291.75 -1.81467 0.962239 0
M  V30 3005 H 289.98 -3.81609 -0.6254 0
M  V30 3006 H 291.669 -4.0495 -0.277584 0
M  V30 3007 H 292.435 -4.32727 2.19027 0
M  V30 3008 H 288.314 -4.50527 0.977042 0
M  V30 3009 H 291.858 -5.50859 4.28018 0
M  V30 3010 H 287.755 -5.68461 3.05814 0
M  V30 3011 H 288.523 -6.50821 4.9636 0
M  V30 3012 N 291.186 -0.45159 -1.50991 0
M  V30 3013 C 292.433 0.110074 -2.02201 0
M  V30 3014 C 292.761 1.4146 -1.33489 0
M  V30 3015 O 292.016 1.90617 -0.443125 0
M  V30 3016 C 292.315 0.361728 -3.55565 0
M  V30 3017 C 291.981 -0.858717 -4.42648 0
M  V30 3018 C 290.643 -1.19338 -4.66167 0
M  V30 3019 C 292.995 -1.67221 -4.93646 0
M  V30 3020 C 290.323 -2.34195 -5.37931 0
M  V30 3021 C 292.675 -2.8119 -5.6667 0
M  V30 3022 C 291.339 -3.15094 -5.88449 0
M  V30 3023 H 290.609 0.040279 -0.739904 0
M  V30 3024 H 293.256 -0.601696 -1.81802 0
M  V30 3025 H 291.561 1.15554 -3.74372 0
M  V30 3026 H 293.258 0.80996 -3.92735 0
M  V30 3027 H 289.848 -0.58796 -4.24548 0
M  V30 3028 H 294.032 -1.42686 -4.75347 0
M  V30 3029 H 289.288 -2.6076 -5.53005 0
M  V30 3030 H 293.462 -3.44585 -6.05173 0
M  V30 3031 H 291.089 -4.04204 -6.43835 0
M  V30 3032 N 292.664 1.56529 -0.183458 0
M  V30 3033 C 293.889 2.02064 0.467428 0
M  V30 3034 C 294.314 1.06282 1.55196 0
M  V30 3035 O 293.672 0.0443565 1.81246 0
M  V30 3036 C 293.72 3.46122 1.01153 0
M  V30 3037 O 292.824 3.53437 2.12499 0
M  V30 3038 H 292.165 0.654726 0.110588 0
M  V30 3039 H 294.695 2.02521 -0.290917 0
M  V30 3040 H 294.705 3.85676 1.33108 0
M  V30 3041 H 293.38 4.15331 0.217533 0
M  V30 3042 H 291.957 3.2575 1.81497 0
M  V30 3043 N 294.142 -0.090211 1.57342 0
M  V30 3044 C 295.075 -1.14035 1.97664 0
M  V30 3045 C 296.053 -1.38576 0.850616 0
M  V30 3046 O 297.237 -1.52255 1.11134 0
M  V30 3047 C 294.364 -2.48854 2.2976 0
M  V30 3048 C 293.41 -2.40564 3.52181 0
M  V30 3049 S 294.243 -1.81745 5.03715 0
M  V30 3050 C 295.399 -3.18178 5.38993 0
M  V30 3051 H 295.632 -0.796636 2.86428 0
M  V30 3052 H 293.165 -0.298072 1.51496 0
M  V30 3053 H 295.123 -3.26413 2.48927 0
M  V30 3054 H 293.784 -2.80393 1.41558 0
M  V30 3055 H 292.977 -3.39942 3.72096 0
M  V30 3056 H 292.579 -1.71135 3.32549 0
M  V30 3057 H 294.871 -4.14461 5.35937 0
M  V30 3058 H 295.814 -3.03062 6.39968 0
M  V30 3059 H 296.222 -3.17935 4.66452 0
M  V30 3060 N 295.62 -1.53406 -0.361157 0
M  V30 3061 C 296.848 -1.73717 -1.12383 0
M  V30 3062 C 297.263 -0.468161 -1.82904 0
M  V30 3063 O 296.62 0.559198 -1.73722 0
M  V30 3064 C 296.671 -2.90558 -2.15078 0
M  V30 3065 O 296.392 -4.12549 -1.47428 0
M  V30 3066 C 297.893 -3.22777 -3.03858 0
M  V30 3067 H 295.113 -0.580896 -0.335858 0
M  V30 3068 H 297.657 -2.00167 -0.418728 0
M  V30 3069 H 295.812 -2.66489 -2.8118 0
M  V30 3070 H 296.226 -4.78009 -2.15887 0
M  V30 3071 H 297.7 -4.07927 -3.71887 0
M  V30 3072 H 298.177 -2.38329 -3.68912 0
M  V30 3073 H 298.783 -3.48787 -2.43367 0
M  V30 3074 N 297.098 0.621204 -1.44841 0
M  V30 3075 C 298.008 1.7612 -1.5498 0
M  V30 3076 C 299.024 1.68477 -0.434927 0
M  V30 3077 O 300.2 1.89076 -0.693693 0
M  V30 3078 C 297.265 3.1254 -1.50065 0
M  V30 3079 C 296.326 3.31741 -2.72482 0
M  V30 3080 C 295.559 4.61653 -2.67792 0
M  V30 3081 O 295.782 5.431 -1.74352 0
M  V30 3082 O 294.716 4.83271 -3.58794 0
M  V30 3083 H 298.542 1.70518 -2.51311 0
M  V30 3084 H 296.127 0.783643 -1.27198 0
M  V30 3085 H 298.009 3.93844 -1.49882 0
M  V30 3086 H 296.684 3.18663 -0.568806 0
M  V30 3087 H 295.591 2.50077 -2.7823 0
M  V30 3088 H 296.924 3.30486 -3.64746 0
M  V30 3089 N 298.576 1.31904 0.862503 0
M  V30 3090 C 299.822 1.22197 1.61851 0
M  V30 3091 C 300.155 -0.217641 1.92977 0
M  V30 3092 O 299.43 -1.15264 1.56666 0
M  V30 3093 C 299.713 2.07378 2.94391 0
M  V30 3094 C 299.566 3.59678 2.70096 0
M  V30 3095 C 300.885 1.92891 3.95577 0
M  V30 3096 H 298.004 0.445255 0.587296 0
M  V30 3097 H 300.646 1.6177 0.99651 0
M  V30 3098 H 298.796 1.73758 3.47477 0
M  V30 3099 H 300.468 4.03472 2.23625 0
M  V30 3100 H 298.711 3.82735 2.04197 0
M  V30 3101 H 299.382 4.14595 3.64438 0
M  V30 3102 H 301.858 2.22327 3.51724 0
M  V30 3103 H 300.734 2.54781 4.86187 0
M  V30 3104 H 300.995 0.894315 4.3296 0
M  V30 3105 N 300.054 -1.07777 1.14986 0
M  V30 3106 C 301.331 -1.7699 0.832695 0
M  V30 3107 C 301.711 -2.001 -0.672561 0
M  V30 3108 O 301.059 -1.61598 -1.6155 0
M  V30 3109 C 301.269 -3.08139 1.63863 0
M  V30 3110 C 302.617 -3.8256 1.84208 0
M  V30 3111 O 303.641 -3.17939 1.60603 0
M  V30 3112 O 302.5 -4.98612 2.23714 0
M  V30 3113 H 299.594 -0.768389 0.305791 0
M  V30 3114 H 302.14 -1.14182 1.25541 0
M  V30 3115 H 300.912 -2.86909 2.6608 0
M  V30 3116 H 300.535 -3.78678 1.21197 0
M  V30 3117 N 301.532 -0.945985 -1.26051 0
M  V30 3118 C 302.948 -0.649045 -1.45807 0
M  V30 3119 C 303.148 0.796158 -1.85104 0
M  V30 3120 O 302.204 1.57233 -1.97571 0
M  V30 3121 C 303.517 -1.61458 -2.53677 0
M  V30 3122 C 305.065 -1.62481 -2.67524 0
M  V30 3123 C 305.54 -2.57776 -3.7857 0
M  V30 3124 N 307.031 -2.5609 -3.85969 0
M  V30 3125 C 307.766 -3.26508 -4.7136 0
M  V30 3126 N 307.262 -4.0637 -5.61102 0
M  V30 3127 N 309.055 -3.15437 -4.65248 0
M  V30 3128 H 301.206 -1.88005 -0.988328 0
M  V30 3129 H 303.469 -0.808198 -0.4955 0
M  V30 3130 H 303.175 -2.64644 -2.31638 0
M  V30 3131 H 303.049 -1.37036 -3.51427 0
M  V30 3132 H 305.436 -0.600167 -2.88933 0
M  V30 3133 H 305.517 -1.90958 -1.70202 0
M  V30 3134 H 305.161 -3.60361 -3.57913 0
M  V30 3135 H 305.091 -2.26587 -4.75359 0
M  V30 3136 H 307.582 -1.98105 -3.21812 0
M  V30 3137 H 307.895 -4.57042 -6.23164 0
M  V30 3138 H 306.24 -4.10469 -5.60839 0
M  V30 3139 H 309.431 -2.52525 -3.94143 0
M  V30 3140 H 309.604 -3.70584 -5.31575 0
M  V30 3141 N 303.011 1.40521 -0.713556 0
M  V30 3142 C 303.941 2.33381 -0.0743864 0
M  V30 3143 C 304.922 1.52784 0.747735 0
M  V30 3144 O 306.107 1.81258 0.697071 0
M  V30 3145 C 303.237 3.36748 0.849598 0
M  V30 3146 C 302.191 4.27793 0.133247 0
M  V30 3147 C 301.517 5.21679 1.17281 0
M  V30 3148 C 302.817 5.12415 -1.01134 0
M  V30 3149 H 304.511 2.87081 -0.850007 0
M  V30 3150 H 302.057 1.38034 -0.410201 0
M  V30 3151 H 304.01 4.00648 1.30612 0
M  V30 3152 H 302.734 2.81439 1.65709 0
M  V30 3153 H 301.393 3.65342 -0.303426 0
M  V30 3154 H 301.041 4.62677 1.9733 0
M  V30 3155 H 300.741 5.83435 0.698397 0
M  V30 3156 H 302.265 5.88456 1.62947 0
M  V30 3157 H 303.679 5.69781 -0.634274 0
M  V30 3158 H 302.076 5.83203 -1.41399 0
M  V30 3159 H 303.146 4.48514 -1.84292 0
M  V30 3160 N 304.489 0.459591 1.5075 0
M  V30 3161 C 305.737 -0.0991532 2.01857 0
M  V30 3162 C 306.058 -1.41247 1.34441 0
M  V30 3163 O 305.328 -1.89775 0.486022 0
M  V30 3164 H 303.908 -0.039633 0.745948 0
M  V30 3165 H 306.57 0.607387 1.85194 0
M  V30 3166 H 305.666 -0.258998 3.11023 0
M  V30 3167 N 305.967 -1.56429 0.191757 0
M  V30 3168 C 307.216 -1.9666 -0.448088 0
M  V30 3169 C 307.529 -1.08136 -1.62991 0
M  V30 3170 O 308.735 -1.38135 -2.33733 0
M  V30 3171 C 307.191 -3.49753 -0.848585 0
M  V30 3172 C 306.799 -4.46935 0.308764 0
M  V30 3173 C 308.543 -3.9876 -1.4557 0
M  V30 3174 C 306.45 -5.91293 -0.112506 0
M  V30 3175 H 305.38 -0.734312 -0.171179 0
M  V30 3176 H 308.031 -1.81301 0.283242 0
M  V30 3177 H 306.413 -3.60604 -1.63649 0
M  V30 3178 H 307.587 -4.47813 1.08627 0
M  V30 3179 H 305.902 -4.08102 0.827158 0
M  V30 3180 H 308.499 -5.04086 -1.78328 0
M  V30 3181 H 308.842 -3.42875 -2.36099 0
M  V30 3182 H 309.375 -3.9101 -0.731836 0
M  V30 3183 H 306.114 -6.51097 0.758514 0
M  V30 3184 H 305.634 -5.93676 -0.854941 0
M  V30 3185 H 307.313 -6.44663 -0.549448 0
M  V30 3186 N 307.445 0.0818655 -1.57387 0
M  V30 3187 C 308.693 0.781368 -1.86384 0
M  V30 3188 C 309.014 1.78618 -0.782342 0
M  V30 3189 O 308.284 1.94976 0.190061 0
M  V30 3190 H 306.864 0.291562 -0.687751 0
M  V30 3191 H 309.526 0.060348 -1.94807 0
M  V30 3192 H 308.622 1.3038 -2.83562 0
M  V30 3193 N 308.923 1.53595 0.353017 0
M  V30 3194 C 309.87 1.80919 1.43308 0
M  V30 3195 C 310.84 0.654288 1.5267 0
M  V30 3196 O 312.025 0.897759 1.6836 0
M  V30 3197 C 309.165 2.01605 2.80089 0
M  V30 3198 C 308.278 3.29321 2.79593 0
M  V30 3199 C 307.413 3.40125 4.0803 0
M  V30 3200 C 306.452 4.61826 4.01725 0
M  V30 3201 N 305.589 4.69716 5.21834 0
M  V30 3202 H 310.429 2.73074 1.19308 0
M  V30 3203 H 307.966 1.35263 0.578131 0
M  V30 3204 H 309.924 2.11586 3.59565 0
M  V30 3205 H 308.554 1.12772 3.0246 0
M  V30 3206 H 307.606 3.28229 1.92276 0
M  V30 3207 H 308.918 4.18884 2.70809 0
M  V30 3208 H 308.072 3.49488 4.95927 0
M  V30 3209 H 306.811 2.48601 4.19582 0
M  V30 3210 H 305.816 4.52552 3.12213 0
M  V30 3211 H 307.041 5.54705 3.91764 0
M  V30 3212 H 304.987 3.81097 5.33948 0
M  V30 3213 H 304.904 5.53202 5.1527 0
M  V30 3214 H 306.172 4.83376 6.11529 0
M  V30 3215 N 310.401 -0.613514 1.45168 0
M  V30 3216 C 311.647 -1.37471 1.49096 0
M  V30 3217 C 311.98 -1.93765 0.129901 0
M  V30 3218 O 311.255 -1.74707 -0.854858 0
M  V30 3219 C 311.538 -2.52701 2.56542 0
M  V30 3220 C 311.391 -2.01643 4.0207 0
M  V30 3221 C 312.71 -3.54849 2.60327 0
M  V30 3222 H 309.829 -0.498502 0.54283 0
M  V30 3223 H 312.471 -0.692125 1.76945 0
M  V30 3224 H 310.621 -3.10931 2.32926 0
M  V30 3225 H 312.293 -1.48108 4.36877 0
M  V30 3226 H 310.536 -1.32688 4.13009 0
M  V30 3227 H 311.207 -2.84681 4.72928 0
M  V30 3228 H 313.683 -3.0645 2.81474 0
M  V30 3229 H 312.559 -4.32973 3.37381 0
M  V30 3230 H 312.82 -4.10079 1.6519 0
M  V30 3231 N 311.879 -1.3236 -0.855495 0
M  V30 3232 C 312.812 -1.15559 -1.96777 0
M  V30 3233 C 313.79 -0.0552681 -1.62506 0
M  V30 3234 O 314.974 -0.214419 -1.87277 0
M  V30 3235 C 312.101 -0.768851 -3.29858 0
M  V30 3236 C 311.147 -1.87429 -3.83109 0
M  V30 3237 S 311.98 -3.48243 -4.06801 0
M  V30 3238 C 313.136 -3.11539 -5.42858 0
M  V30 3239 H 313.369 -2.09717 -2.10727 0
M  V30 3240 H 310.902 -1.17011 -1.00737 0
M  V30 3241 H 312.86 -0.55248 -4.06765 0
M  V30 3242 H 311.521 0.153857 -3.13723 0
M  V30 3243 H 310.714 -1.55667 -4.79358 0
M  V30 3244 H 310.316 -2.04647 -3.13042 0
M  V30 3245 H 312.608 -2.61331 -6.2507 0
M  V30 3246 H 313.551 -4.06806 -5.79582 0
M  V30 3247 H 313.959 -2.48582 -5.06821 0
M  V30 3248 N 313.357 1.07166 -1.15556 0
M  V30 3249 C 314.267 2.17947 -0.868116 0
M  V30 3250 C 315.283 1.73297 0.156297 0
M  V30 3251 O 316.459 2.01392 -0.0182327 0
M  V30 3252 C 313.524 3.44789 -0.36355 0
M  V30 3253 C 312.585 4.03996 -1.45209 0
M  V30 3254 C 311.818 5.24783 -0.971508 0
M  V30 3255 O 312.041 5.70109 0.182194 0
M  V30 3256 O 310.975 5.75715 -1.75603 0
M  V30 3257 H 314.801 2.4503 -1.79427 0
M  V30 3258 H 312.386 1.16539 -0.934824 0
M  V30 3259 H 314.268 4.21307 -0.0887113 0
M  V30 3260 H 312.943 3.19253 0.534708 0
M  V30 3261 H 311.85 3.29009 -1.78056 0
M  V30 3262 H 313.183 4.33808 -2.32533 0
M  V30 3263 N 314.835 0.952656 1.25548 0
M  V30 3264 C 315.745 0.47782 2.29682 0
M  V30 3265 C 316.761 -0.453859 1.67977 0
M  V30 3266 O 317.937 -0.330587 1.98668 0
M  V30 3267 C 315.002 -0.238655 3.45878 0
M  V30 3268 C 314.063 0.730994 4.23031 0
M  V30 3269 C 313.296 0.0486165 5.33678 0
M  V30 3270 O 313.519 -1.16612 5.58353 0
M  V30 3271 O 312.453 0.733152 5.97418 0
M  V30 3272 H 316.279 1.34312 2.72386 0
M  V30 3273 H 313.864 0.719026 1.30959 0
M  V30 3274 H 315.746 -0.641774 4.16484 0
M  V30 3275 H 314.421 -1.07916 3.05181 0
M  V30 3276 H 313.328 1.18428 3.5486 0
M  V30 3277 H 314.661 1.53946 4.67506 0
M  V30 3278 N 316.313 -1.40141 0.720998 0
M  V30 3279 C 317.541 -2.05096 0.272656 0
M  V30 3280 C 317.956 -1.54334 -1.0875 0
M  V30 3281 O 317.313 -0.702211 -1.6845 0
M  V30 3282 C 317.364 -3.60636 0.249835 0
M  V30 3283 O 317.085 -4.09526 1.55629 0
M  V30 3284 C 318.586 -4.42772 -0.216396 0
M  V30 3285 H 315.806 -0.659897 0.121558 0
M  V30 3286 H 318.35 -1.79449 0.980723 0
M  V30 3287 H 316.505 -3.85232 -0.409237 0
M  V30 3288 H 316.919 -5.03758 1.4604 0
M  V30 3289 H 318.393 -5.51702 -0.181212 0
M  V30 3290 H 318.87 -4.20756 -1.25941 0
M  V30 3291 H 319.476 -4.23294 0.412596 0
M  V30 3292 N 317.792 -0.46758 -1.50504 0
M  V30 3293 C 318.722 0.318381 -2.31319 0
M  V30 3294 C 319.703 0.993564 -1.38066 0
M  V30 3295 O 320.888 0.991411 -1.66987 0
M  V30 3296 C 318.018 1.40275 -3.17711 0
M  V30 3297 C 316.972 0.849373 -4.19487 0
M  V30 3298 C 316.298 2.03177 -4.94594 0
M  V30 3299 C 317.598 -0.136942 -5.2212 0
M  V30 3300 H 319.292 -0.356106 -2.97275 0
M  V30 3301 H 316.838 -0.172703 -1.42961 0
M  V30 3302 H 318.791 1.96004 -3.73042 0
M  V30 3303 H 317.515 2.10596 -2.49634 0
M  V30 3304 H 316.174 0.314076 -3.65252 0
M  V30 3305 H 315.822 2.72187 -4.22993 0
M  V30 3306 H 315.522 1.66774 -5.63436 0
M  V30 3307 H 317.046 2.59403 -5.52759 0
M  V30 3308 H 318.46 0.331056 -5.72343 0
M  V30 3309 H 316.857 -0.41507 -5.98663 0
M  V30 3310 H 317.927 -1.06398 -4.73083 0
M  V30 3311 N 319.27 1.56325 -0.20005 0
M  V30 3312 C 320.495 2.02548 0.44597 0
M  V30 3313 C 320.92 1.07922 1.5406 0
M  V30 3314 O 320.278 0.0635775 1.81188 0
M  V30 3315 C 320.326 3.47175 0.974761 0
M  V30 3316 O 319.43 3.55671 2.08739 0
M  V30 3317 H 318.771 0.655862 0.103638 0
M  V30 3318 H 321.301 2.02201 -0.312381 0
M  V30 3319 H 321.311 3.87067 1.2901 0
M  V30 3320 H 319.986 4.15538 0.17347 0
M  V30 3321 H 318.563 3.27657 1.78032 0
M  V30 3322 N 320.748 -0.0735177 1.57428 0
M  V30 3323 C 321.978 -0.78483 1.91112 0
M  V30 3324 C 322.386 -1.71729 0.7941 0
M  V30 3325 O 321.729 -1.82105 -0.241542 0
M  V30 3326 C 321.791 -1.63346 3.20247 0
M  V30 3327 C 321.455 -0.870557 4.48632 0
M  V30 3328 C 322.452 -0.19058 5.19551 0
M  V30 3329 C 320.137 -0.838242 4.95256 0
M  V30 3330 C 322.131 0.511503 6.35344 0
M  V30 3331 C 319.818 -0.132386 6.10957 0
M  V30 3332 C 320.816 0.541288 6.80852 0
M  V30 3333 O 320.504 1.23578 7.94345 0
M  V30 3334 H 320.236 -0.228408 0.636244 0
M  V30 3335 H 322.79 -0.0486039 2.05342 0
M  V30 3336 H 321.02 -2.41245 3.02222 0
M  V30 3337 H 322.709 -2.22329 3.39595 0
M  V30 3338 H 323.475 -0.206864 4.84559 0
M  V30 3339 H 319.354 -1.35206 4.40727 0
M  V30 3340 H 322.898 1.03789 6.89836 0
M  V30 3341 H 318.795 -0.114023 6.45399 0
M  V30 3342 H 319.563 1.14487 8.10454 0
M  V30 3343 N 322.226 -1.5378 -0.344866 0
M  V30 3344 C 323.156 -1.84662 -1.42906 0
M  V30 3345 C 324.137 -0.701648 -1.54955 0
M  V30 3346 O 325.322 -0.953438 -1.69184 0
M  V30 3347 C 322.452 -2.05503 -2.79974 0
M  V30 3348 C 321.406 -3.21318 -2.82734 0
M  V30 3349 C 320.732 -3.2749 -4.22675 0
M  V30 3350 C 322.032 -4.59456 -2.48389 0
M  V30 3351 H 323.726 -2.75461 -1.17311 0
M  V30 3352 H 321.272 -1.32542 -0.562896 0
M  V30 3353 H 323.225 -2.25691 -3.55867 0
M  V30 3354 H 321.949 -1.11434 -3.07002 0
M  V30 3355 H 320.608 -3.00984 -2.09294 0
M  V30 3356 H 320.256 -2.31019 -4.4681 0
M  V30 3357 H 319.956 -4.05316 -4.25433 0
M  V30 3358 H 321.48 -3.49887 -5.00412 0
M  V30 3359 H 322.894 -4.79667 -3.13995 0
M  V30 3360 H 321.291 -5.39675 -2.62432 0
M  V30 3361 H 322.361 -4.63155 -1.4358 0
M  V30 3362 N 323.704 0.605807 -1.45491 0
M  V30 3363 C 324.634 1.72709 -1.57143 0
M  V30 3364 C 325.615 1.6476 -0.422884 0
M  V30 3365 O 326.8 1.83132 -0.646247 0
M  V30 3366 C 323.93 3.11316 -1.53948 0
M  V30 3367 C 322.884 3.34077 -2.67537 0
M  V30 3368 C 322.21 4.72975 -2.49397 0
M  V30 3369 C 323.51 3.24158 -4.09535 0
M  V30 3370 H 325.204 1.63214 -2.51001 0
M  V30 3371 H 322.75 0.78379 -1.208 0
M  V30 3372 H 324.703 3.89557 -1.60696 0
M  V30 3373 H 323.427 3.21655 -0.566205 0
M  V30 3374 H 322.086 2.58227 -2.6022 0
M  V30 3375 H 321.734 4.8005 -1.50205 0
M  V30 3376 H 321.434 4.8916 -3.25571 0
M  V30 3377 H 322.958 5.53414 -2.58002 0
M  V30 3378 H 324.372 3.92271 -4.18086 0
M  V30 3379 H 322.769 3.51872 -4.86113 0
M  V30 3380 H 323.839 2.2157 -4.31317 0
M  V30 3381 N 325.182 1.32811 0.848464 0
M  V30 3382 C 326.43 1.23479 1.59991 0
M  V30 3383 C 326.751 -0.201853 1.93952 0
M  V30 3384 O 326.021 -1.12818 1.60153 0
M  V30 3385 H 324.601 0.454034 0.593179 0
M  V30 3386 H 327.263 1.66412 1.01455 0
M  V30 3387 H 326.359 1.82178 2.53412 0
M  V30 3388 N 326.66 -1.06551 1.16123 0
M  V30 3389 C 328.076 -1.3142 0.905585 0
M  V30 3390 C 328.276 -1.96571 -0.442964 0
M  V30 3391 O 327.332 -2.23068 -1.18308 0
M  V30 3392 C 328.645 -2.19741 2.05267 0
M  V30 3393 C 330.193 -2.33165 2.08813 0
M  V30 3394 C 330.668 -3.24838 3.22868 0
M  V30 3395 N 332.159 -3.32421 3.22568 0
M  V30 3396 C 332.894 -4.0344 4.0746 0
M  V30 3397 N 332.39 -4.77003 5.02434 0
M  V30 3398 N 334.183 -3.99464 3.95456 0
M  V30 3399 H 326.334 -0.626548 2.02949 0
M  V30 3400 H 328.597 -0.338777 0.8854 0
M  V30 3401 H 328.303 -1.79142 3.02657 0
M  V30 3402 H 328.177 -3.20313 1.99198 0
M  V30 3403 H 330.564 -2.73013 1.12018 0
M  V30 3404 H 330.645 -1.3227 2.18948 0
M  V30 3405 H 330.289 -2.85708 4.19921 0
M  V30 3406 H 330.219 -4.25707 3.0997 0
M  V30 3407 H 332.71 -2.79994 2.53795 0
M  V30 3408 H 333.023 -5.28712 5.63634 0
M  V30 3409 H 331.368 -4.75992 5.06415 0
M  V30 3410 H 334.559 -3.4111 3.20564 0
M  V30 3411 H 334.732 -4.54544 4.61837 0
M  V30 3412 N 328.138 -0.959301 -1.25041 0
M  V30 3413 C 329.085 -0.482057 -2.2571 0
M  V30 3414 C 330.055 0.467939 -1.59372 0
M  V30 3415 O 331.24 0.380159 -1.86974 0
M  V30 3416 C 328.38 0.229623 -3.44335 0
M  V30 3417 C 327.493 -0.758156 -4.25295 0
M  V30 3418 C 326.628 -0.0234403 -5.31195 0
M  V30 3419 C 325.667 -1.00184 -6.03846 0
M  V30 3420 N 324.804 -0.29769 -7.01469 0
M  V30 3421 H 329.644 -1.34538 -2.65901 0
M  V30 3422 H 327.181 -0.674592 -1.3072 0
M  V30 3423 H 329.139 0.658856 -4.11965 0
M  V30 3424 H 327.769 1.05696 -3.05005 0
M  V30 3425 H 326.821 -1.30586 -3.57284 0
M  V30 3426 H 328.133 -1.50458 -4.75567 0
M  V30 3427 H 327.287 0.464201 -6.04922 0
M  V30 3428 H 326.026 0.755741 -4.81809 0
M  V30 3429 H 325.031 -1.50044 -5.2893 0
M  V30 3430 H 326.256 -1.78133 -6.55321 0
M  V30 3431 H 324.202 0.462668 -6.54366 0
M  V30 3432 H 324.119 -0.983128 -7.4958 0
M  V30 3433 H 325.387 0.16826 -7.79318 0
M  V30 3434 N 329.616 1.39756 -0.72842 0
M  V30 3435 C 330.563 2.30647 -0.0841519 0
M  V30 3436 C 331.533 1.48869 0.7367 0
M  V30 3437 O 332.718 1.77574 0.698015 0
M  V30 3438 C 329.858 3.35165 0.822091 0
M  V30 3439 C 328.971 4.31999 -0.0106663 0
M  V30 3440 C 328.106 5.23585 0.896241 0
M  V30 3441 C 327.145 6.12072 0.0583381 0
M  V30 3442 N 326.282 6.96035 0.920818 0
M  V30 3443 H 331.122 2.85173 -0.864891 0
M  V30 3444 H 328.659 1.40422 -0.438179 0
M  V30 3445 H 330.617 3.94345 1.36189 0
M  V30 3446 H 329.247 2.8211 1.56888 0
M  V30 3447 H 328.299 3.74492 -0.66781 0
M  V30 3448 H 329.611 4.9443 -0.658825 0
M  V30 3449 H 328.765 5.87759 1.50412 0
M  V30 3450 H 327.504 4.61459 1.57819 0
M  V30 3451 H 326.509 5.46916 -0.562389 0
M  V30 3452 H 327.734 6.76261 -0.6203 0
M  V30 3453 H 325.68 6.36485 1.58818 0
M  V30 3454 H 325.597 7.55284 0.32899 0
M  V30 3455 H 326.865 7.64646 1.51447 0
M  V30 3456 N 331.094 0.475555 1.50254 0
M  V30 3457 C 332.51 0.12997 1.5907 0
M  V30 3458 C 332.71 -1.36385 1.48328 0
M  V30 3459 O 331.766 -2.13754 1.34407 0
M  V30 3460 C 333.079 0.684139 2.92814 0
M  V30 3461 C 334.627 0.647965 3.0622 0
M  V30 3462 C 335.102 1.17975 4.42545 0
M  V30 3463 N 336.593 1.13936 4.48969 0
M  V30 3464 C 337.328 1.52129 5.52851 0
M  V30 3465 N 336.824 1.97793 6.63965 0
M  V30 3466 N 338.617 1.43704 5.4342 0
M  V30 3467 H 330.768 1.44706 1.55479 0
M  V30 3468 H 333.031 0.598691 0.735033 0
M  V30 3469 H 332.737 1.73079 3.06164 0
M  V30 3470 H 332.611 0.130204 3.76975 0
M  V30 3471 H 334.998 -0.38979 2.92514 0
M  V30 3472 H 335.079 1.23876 2.23805 0
M  V30 3473 H 334.723 2.21616 4.57 0
M  V30 3474 H 334.653 0.565138 5.23559 0
M  V30 3475 H 337.144 0.804488 3.69238 0
M  V30 3476 H 337.457 2.25072 7.39299 0
M  V30 3477 H 335.802 2.01749 6.65073 0
M  V30 3478 H 338.993 1.07867 4.55502 0
M  V30 3479 H 339.166 1.73794 6.24259 0
M  V30 3480 N 332.573 -1.56217 0.208337 0
M  V30 3481 C 333.984 -1.84243 -0.301904 0
M  V30 3482 C 334.335 -1.12939 -1.60434 0
M  V30 3483 O 333.46 -0.39461 -2.12772 0
M  V30 3484 C 334.055 -3.34231 -0.554543 0
M  V30 3485 C 332.614 -3.62621 -1.00912 0
M  V30 3486 C 331.761 -2.77224 -0.064933 0
M  V30 3487 H 334.712 -1.52712 0.431833 0
M  V30 3488 H 334.733 -3.5372 -1.40223 0
M  V30 3489 H 334.245 -3.86099 0.393561 0
M  V30 3490 H 332.346 -3.16197 -1.97104 0
M  V30 3491 H 332.459 -4.7071 -0.892674 0
M  V30 3492 H 330.823 -2.48256 -0.56929 0
M  V30 3493 H 331.606 -3.31887 0.877851 0
M  V30 3494 N 334.051 0.0651679 -1.57465 0
M  V30 3495 C 335.3 0.761916 -1.86756 0
M  V30 3496 C 335.613 1.78406 -0.801925 0
M  V30 3497 O 336.819 2.53084 -0.982885 0
M  V30 3498 C 335.275 1.40603 -3.31299 0
M  V30 3499 C 334.883 0.422115 -4.46007 0
M  V30 3500 C 336.627 2.08476 -3.69781 0
M  V30 3501 C 334.534 1.07252 -5.81593 0
M  V30 3502 H 333.464 0.288308 -0.696702 0
M  V30 3503 H 336.115 0.015344 -1.83494 0
M  V30 3504 H 334.497 2.20109 -3.29193 0
M  V30 3505 H 335.671 -0.343613 -4.59517 0
M  V30 3506 H 333.986 -0.152527 -4.16121 0
M  V30 3507 H 336.583 2.57925 -4.68379 0
M  V30 3508 H 336.926 2.88712 -2.99919 0
M  V30 3509 H 337.459 1.35792 -3.73905 0
M  V30 3510 H 334.198 0.310342 -6.54765 0
M  V30 3511 H 333.718 1.80895 -5.71872 0
M  V30 3512 H 335.397 1.59043 -6.27148 0
M  V30 3513 N 335.529 1.53961 0.336706 0
M  V30 3514 C 336.479 1.7881 1.41461 0
M  V30 3515 C 337.463 0.643561 1.47469 0
M  V30 3516 O 338.655 0.903166 1.52223 0
M  V30 3517 C 335.784 2.00722 2.78506 0
M  V30 3518 C 334.87 3.2126 2.76862 0
M  V30 3519 N 335.261 4.42588 2.44845 0
M  V30 3520 C 333.559 3.22568 3.08004 0
M  V30 3521 C 334.26 5.2447 2.51607 0
M  V30 3522 N 333.236 4.61344 2.87511 0
M  V30 3523 H 337.038 2.70205 1.15615 0
M  V30 3524 H 334.552 1.52978 0.545112 0
M  V30 3525 H 336.549 2.1666 3.5618 0
M  V30 3526 H 335.209 1.10573 3.05293 0
M  V30 3527 H 336.22 4.69819 2.17922 0
M  V30 3528 H 332.897 2.42409 3.39918 0
M  V30 3529 H 334.287 6.31324 2.29955 0
M  V30 3530 N 337.007 -0.598083 1.45811 0
M  V30 3531 C 337.937 -1.71873 1.58057 0
M  V30 3532 C 338.918 -1.64533 0.431615 0
M  V30 3533 O 340.103 -1.82787 0.65595 0
M  V30 3534 C 337.233 -3.10495 1.55597 0
M  V30 3535 C 336.187 -3.32654 2.69305 0
M  V30 3536 C 335.513 -4.71646 2.51902 0
M  V30 3537 C 336.813 -3.21981 4.11248 0
M  V30 3538 H 338.507 -1.61881 2.51863 0
M  V30 3539 H 336.053 -0.777372 1.21214 0
M  V30 3540 H 338.006 -3.88699 1.6276 0
M  V30 3541 H 336.73 -3.2135 0.583255 0
M  V30 3542 H 335.389 -2.56843 2.61586 0
M  V30 3543 H 335.037 -4.79246 1.52748 0
M  V30 3544 H 334.737 -4.87426 3.2816 0
M  V30 3545 H 336.261 -5.52038 2.60933 0
M  V30 3546 H 337.675 -3.90049 4.20161 0
M  V30 3547 H 336.072 -3.49289 4.87972 0
M  V30 3548 H 337.142 -2.1928 4.32486 0
M  V30 3549 N 338.485 -1.33259 -0.841409 0
M  V30 3550 C 339.71 -1.2775 -1.63385 0
M  V30 3551 C 340.135 0.149188 -1.87507 0
M  V30 3552 O 339.493 1.10498 -1.43736 0
M  V30 3553 C 339.541 -2.05571 -2.96265 0
M  V30 3554 O 338.645 -1.41257 -3.87453 0
M  V30 3555 H 337.986 -0.439627 -0.497618 0
M  V30 3556 H 340.516 -1.75782 -1.04699 0
M  V30 3557 H 340.526 -2.16241 -3.45982 0
M  V30 3558 H 339.201 -3.09309 -2.7803 0
M  V30 3559 H 337.778 -1.39217 -3.45938 0
M  V30 3560 N 339.963 1.05934 -1.16686 0
M  V30 3561 C 341.21 1.788 -0.950622 0
M  V30 3562 C 341.538 1.87384 0.521305 0
M  V30 3563 O 340.793 1.36438 1.40297 0
M  V30 3564 C 341.092 3.23105 -1.52767 0
M  V30 3565 C 340.758 3.34594 -3.02254 0
M  V30 3566 C 339.42 3.37437 -3.43059 0
M  V30 3567 C 341.772 3.36219 -3.98254 0
M  V30 3568 C 339.1 3.39525 -4.78477 0
M  V30 3569 C 341.452 3.39845 -5.33562 0
M  V30 3570 C 340.116 3.40971 -5.73842 0
M  V30 3571 H 339.386 0.654275 -0.347857 0
M  V30 3572 H 342.033 1.24555 -1.45459 0
M  V30 3573 H 340.338 3.80227 -0.94524 0
M  V30 3574 H 342.035 3.7809 -1.336 0
M  V30 3575 H 338.625 3.3309 -2.6972 0
M  V30 3576 H 342.809 3.33231 -3.67792 0
M  V30 3577 H 338.065 3.38703 -5.09009 0
M  V30 3578 H 342.239 3.4005 -6.07733 0
M  V30 3579 H 339.866 3.42342 -6.78753 0
M  V30 3580 N 341.441 0.965919 1.2453 0
M  V30 3581 C 342.718 0.543777 1.87889 0
M  V30 3582 C 343.098 -0.97909 1.87021 0
M  V30 3583 O 342.446 -1.84969 1.3416 0
M  V30 3584 C 342.656 1.13327 3.30088 0
M  V30 3585 C 344.004 1.21707 4.06783 0
M  V30 3586 O 345.028 1.08566 3.39252 0
M  V30 3587 O 343.887 1.42456 5.27606 0
M  V30 3588 H 340.981 0.181054 0.806938 0
M  V30 3589 H 343.527 1.06007 1.32516 0
M  V30 3590 H 342.299 2.17612 3.25209 0
M  V30 3591 H 341.922 0.600911 3.93033 0
M  V30 3592 N 342.919 -1.39368 0.735821 0
M  V30 3593 C 344.165 -2.00794 0.284544 0
M  V30 3594 C 344.498 -1.58255 -1.12557 0
M  V30 3595 O 343.773 -0.811819 -1.76748 0
M  V30 3596 C 344.056 -3.58011 0.387337 0
M  V30 3597 C 343.909 -4.10566 1.83728 0
M  V30 3598 C 345.228 -4.395 -0.22975 0
M  V30 3599 H 342.347 -0.729501 0.104866 0
M  V30 3600 H 344.989 -1.65564 0.93213 0
M  V30 3601 H 343.139 -3.88154 -0.164006 0
M  V30 3602 H 344.811 -3.91139 2.44556 0
M  V30 3603 H 343.054 -3.64095 2.35833 0
M  V30 3604 H 343.725 -5.19702 1.86047 0
M  V30 3605 H 346.201 -4.15406 0.240257 0
M  V30 3606 H 345.077 -5.48752 -0.127485 0
M  V30 3607 H 345.338 -4.22062 -1.3159 0
M  V30 3608 N 344.397 -0.483516 -1.5 0
M  V30 3609 C 345.674 0.129337 -1.95172 0
M  V30 3610 C 346.054 1.55802 -1.4244 0
M  V30 3611 O 345.402 2.19625 -0.630649 0
M  V30 3612 C 345.612 0.0599251 -3.48949 0
M  V30 3613 C 346.96 0.242617 -4.23906 0
M  V30 3614 O 347.984 0.135933 -3.55941 0
M  V30 3615 O 346.843 0.459454 -5.44565 0
M  V30 3616 H 343.937 0.104887 -0.820322 0
M  V30 3617 H 346.483 -0.544807 -1.60717 0
M  V30 3618 H 345.255 -0.937079 -3.79914 0
M  V30 3619 H 344.878 0.774984 -3.89974 0
M  V30 3620 N 345.875 1.56104 -0.216619 0
M  V30 3621 C 347.123 1.97781 0.415593 0
M  V30 3622 C 347.444 1.10536 1.60645 0
M  V30 3623 O 346.714 0.181303 1.95059 0
M  V30 3624 H 345.294 0.730415 0.156534 0
M  V30 3625 H 347.956 1.92445 -0.308366 0
M  V30 3626 H 347.052 3.03072 0.74525 0
M  V30 3627 N 347.353 -0.0568162 1.57498 0
M  V30 3628 C 348.283 -1.06593 2.0775 0
M  V30 3629 C 349.264 -1.39448 0.974082 0
M  V30 3630 O 350.449 -1.48815 1.24771 0
M  V30 3631 C 347.579 -2.37509 2.5339 0
M  V30 3632 C 346.533 -2.1897 3.67745 0
M  V30 3633 C 345.859 -3.55402 3.99492 0
M  V30 3634 C 347.159 -1.59859 4.97235 0
M  V30 3635 H 348.853 -0.647706 2.9231 0
M  V30 3636 H 346.399 -0.310116 1.40621 0
M  V30 3637 H 348.352 -3.08409 2.87162 0
M  V30 3638 H 347.076 -2.8134 1.65878 0
M  V30 3639 H 345.735 -1.50508 3.3428 0
M  V30 3640 H 345.383 -3.9683 3.09088 0
M  V30 3641 H 345.083 -3.43831 4.76502 0
M  V30 3642 H 346.607 -4.27708 4.35773 0
M  V30 3643 H 348.021 -2.20642 5.29141 0
M  V30 3644 H 346.418 -1.58942 5.78669 0
M  V30 3645 H 347.488 -0.561506 4.81638 0
M  V30 3646 N 348.832 -1.54138 -0.328536 0
M  V30 3647 C 350.109 -1.62749 -1.08499 0
M  V30 3648 C 350.489 -0.458198 -2.06067 0
M  V30 3649 O 349.837 0.548046 -2.2183 0
M  V30 3650 C 350.047 -2.99519 -1.79135 0
M  V30 3651 C 351.395 -3.55394 -2.32337 0
M  V30 3652 O 352.419 -3.01792 -1.89209 0
M  V30 3653 O 351.278 -4.49186 -3.11279 0
M  V30 3654 H 348.372 -0.65886 -0.499832 0
M  V30 3655 H 350.918 -1.66484 -0.328826 0
M  V30 3656 H 349.69 -3.76061 -1.08139 0
M  V30 3657 H 349.313 -2.99441 -2.61574 0
M  V30 3658 N 350.31 0.590341 -1.46126 0
M  V30 3659 C 351.721 1.17243 -1.45296 0
M  V30 3660 C 352.072 1.95281 -0.189723 0
M  V30 3661 O 351.197 2.04502 0.707674 0
M  V30 3662 C 351.792 2.13284 -2.6324 0
M  V30 3663 C 350.351 2.66832 -2.65476 0
M  V30 3664 C 349.498 1.42557 -2.3785 0
M  V30 3665 H 352.449 0.378692 -1.54116 0
M  V30 3666 H 352.47 2.96619 -2.38323 0
M  V30 3667 H 351.982 1.56459 -3.55165 0
M  V30 3668 H 350.083 3.27548 -1.77603 0
M  V30 3669 H 350.196 3.10088 -3.65215 0
M  V30 3670 H 348.56 1.72107 -1.87753 0
M  V30 3671 H 349.343 0.875741 -3.31942 0
M  V30 3672 N 351.788 1.33704 0.83433 0
M  V30 3673 C 353.013 1.28615 1.62705 0
M  V30 3674 C 353.438 -0.139242 1.87584 0
M  V30 3675 O 352.796 -1.09734 1.4432 0
M  V30 3676 C 352.844 2.07139 2.95171 0
M  V30 3677 O 351.948 1.4331 3.86699 0
M  V30 3678 H 351.289 0.44226 0.49528 0
M  V30 3679 H 353.819 1.76335 1.03766 0
M  V30 3680 H 353.829 2.18073 3.44831 0
M  V30 3681 H 352.504 3.10779 2.76386 0
M  V30 3682 H 351.081 1.4105 3.45195 0
M  V30 3683 N 353.266 -1.05314 1.17247 0
M  V30 3684 C 354.513 -1.78293 0.960091 0
M  V30 3685 C 354.841 -1.87658 -0.51136 0
M  V30 3686 O 354.096 -1.3718 -1.39571 0
M  V30 3687 C 354.395 -3.2229 1.54479 0
M  V30 3688 C 354.061 -3.32987 3.04024 0
M  V30 3689 C 352.723 -3.35613 3.44844 0
M  V30 3690 C 355.075 -3.34102 4.00031 0
M  V30 3691 C 352.403 -3.36982 4.8027 0
M  V30 3692 C 354.755 -3.3701 5.35357 0
M  V30 3693 C 353.419 -3.37923 5.75642 0
M  V30 3694 H 352.689 -0.652422 0.351322 0
M  V30 3695 H 355.336 -1.23782 1.46117 0
M  V30 3696 H 353.641 -3.7972 0.965391 0
M  V30 3697 H 355.338 -3.77376 1.35603 0
M  V30 3698 H 351.928 -3.31655 2.71483 0
M  V30 3699 H 356.112 -3.31276 3.69554 0
M  V30 3700 H 351.368 -3.35999 5.10798 0
M  V30 3701 H 355.542 -3.36822 6.09528 0
M  V30 3702 H 353.169 -3.38738 6.80559 0
M  V30 3703 N 354.744 -0.972509 -1.24016 0
M  V30 3704 C 355.972 -0.654803 -1.96265 0
M  V30 3705 C 356.387 0.776708 -1.72083 0
M  V30 3706 O 355.744 1.52171 -1.00748 0
M  V30 3707 C 355.795 -0.92592 -3.49441 0
M  V30 3708 O 355.516 -2.30116 -3.72798 0
M  V30 3709 C 357.017 -0.623068 -4.38899 0
M  V30 3710 H 354.237 -0.243907 -0.6251 0
M  V30 3711 H 356.781 -1.30175 -1.57717 0
M  V30 3712 H 354.936 -0.325108 -3.86033 0
M  V30 3713 H 355.35 -2.38483 -4.67147 0
M  V30 3714 H 356.824 -0.863189 -5.45209 0
M  V30 3715 H 357.301 0.442754 -4.36963 0
M  V30 3716 H 357.907 -1.204 -4.07902 0
M  V30 3717 N 356.222 1.38976 -0.743202 0
M  V30 3718 C 357.633 1.83123 -0.363732 0
M  V30 3719 C 357.984 1.6205 1.10609 0
M  V30 3720 O 357.109 1.11606 1.854 0
M  V30 3721 C 357.704 3.32439 -0.653408 0
M  V30 3722 C 356.263 3.74974 -0.327338 0
M  V30 3723 C 355.41 2.61878 -0.911875 0
M  V30 3724 H 358.361 1.27852 -0.940191 0
M  V30 3725 H 358.382 3.80432 0.0720031 0
M  V30 3726 H 357.894 3.47745 -1.72323 0
M  V30 3727 H 355.995 3.65252 0.736314 0
M  V30 3728 H 356.108 4.72106 -0.815631 0
M  V30 3729 H 354.472 2.52448 -0.337944 0
M  V30 3730 H 355.255 2.79987 -1.98651 0
M  V30 3731 N 357.7 0.491464 1.49741 0
M  V30 3732 C 358.663 -0.280906 2.27472 0
M  V30 3733 C 359.663 -0.902454 1.33088 0
M  V30 3734 O 360.853 -0.768465 1.56334 0
M  V30 3735 C 357.985 -1.40209 3.10732 0
M  V30 3736 H 359.178 0.401056 2.97206 0
M  V30 3737 H 356.731 0.246131 1.5435 0
M  V30 3738 H 357.466 -2.11849 2.45541 0
M  V30 3739 H 357.251 -0.961969 3.80117 0
M  V30 3740 H 358.741 -1.9464 3.69466 0
M  V30 3741 N 359.178 -1.55987 0.224894 0
M  V30 3742 C 360.406 -2.02784 -0.410665 0
M  V30 3743 C 360.821 -1.10464 -1.53112 0
M  V30 3744 O 360.178 -0.114871 -1.82138 0
M  V30 3745 C 360.229 -3.49087 -0.939165 0
M  V30 3746 O 359.95 -4.37887 0.136614 0
M  V30 3747 C 361.451 -4.11543 -1.64763 0
M  V30 3748 H 358.671 -0.663484 -0.100148 0
M  V30 3749 H 361.215 -2.01614 0.342326 0
M  V30 3750 H 359.37 -3.50861 -1.64242 0
M  V30 3751 H 359.784 -5.23849 -0.261155 0
M  V30 3752 H 361.258 -5.15673 -1.96939 0
M  V30 3753 H 361.735 -3.56736 -2.56195 0
M  V30 3754 H 362.341 -4.13629 -0.989503 0
M  V30 3755 N 360.656 0.0484629 -1.57525 0
M  V30 3756 C 361.904 0.741657 -1.88 0
M  V30 3757 C 362.225 1.76918 -0.820054 0
M  V30 3758 O 361.495 1.95335 0.148661 0
M  V30 3759 H 360.075 0.276908 -0.69378 0
M  V30 3760 H 362.737 0.019013 -1.94891 0
M  V30 3761 H 361.833 1.24336 -2.86264 0
M  V30 3762 N 362.134 1.5431 0.320358 0
M  V30 3763 C 363.362 1.76636 1.07738 0
M  V30 3764 C 363.777 0.51649 1.81598 0
M  V30 3765 O 363.134 -0.512942 1.75143 0
M  V30 3766 C 363.185 2.96158 2.07299 0
M  V30 3767 O 362.906 4.16313 1.36438 0
M  V30 3768 C 364.407 3.3072 2.95193 0
M  V30 3769 H 361.627 0.589597 0.320339 0
M  V30 3770 H 364.171 2.01207 0.36551 0
M  V30 3771 H 362.326 2.73851 2.74016 0
M  V30 3772 H 362.74 4.83565 2.03138 0
M  V30 3773 H 364.214 4.17643 3.60941 0
M  V30 3774 H 364.691 2.48026 3.62463 0
M  V30 3775 H 365.297 3.55117 2.34034 0
M  V30 3776 N 363.613 -0.582584 1.46437 0
M  V30 3777 C 365.024 -1.1647 1.45916 0
M  V30 3778 C 365.375 -1.95177 0.200077 0
M  V30 3779 O 364.5 -2.04874 -0.696819 0
M  V30 3780 C 365.095 -2.11885 2.64367 0
M  V30 3781 C 363.654 -2.65421 2.66887 0
M  V30 3782 C 362.801 -1.41294 2.38603 0
M  V30 3783 H 365.752 -0.370514 1.54314 0
M  V30 3784 H 365.773 -2.9535 2.39892 0
M  V30 3785 H 365.285 -1.54573 3.5599 0
M  V30 3786 H 363.386 -3.26602 1.79338 0
M  V30 3787 H 363.499 -3.08147 3.66854 0
M  V30 3788 H 361.863 -1.71109 1.88663 0
M  V30 3789 H 362.646 -0.858125 3.32402 0
M  V30 3790 N 365.091 -1.34144 -0.827227 0
M  V30 3791 C 366.337 -1.26446 -1.58554 0
M  V30 3792 C 366.67 0.1664 -1.93486 0
M  V30 3793 O 365.945 1.1107 -1.59667 0
M  V30 3794 C 366.228 -2.15111 -2.8879 0
M  V30 3795 C 366.081 -3.66712 -2.60465 0
M  V30 3796 C 367.4 -2.03311 -3.90324 0
M  V30 3797 H 364.519 -0.46067 -0.575284 0
M  V30 3798 H 367.161 -1.64356 -0.953269 0
M  V30 3799 H 365.311 -1.8291 -3.42748 0
M  V30 3800 H 366.983 -4.09259 -2.1285 0
M  V30 3801 H 365.226 -3.88014 -1.93978 0
M  V30 3802 H 365.897 -4.24112 -3.53317 0
M  V30 3803 H 368.373 -2.31574 -3.45706 0
M  V30 3804 H 367.249 -2.67582 -4.79261 0
M  V30 3805 H 367.51 -1.00879 -4.30437 0
M  V30 3806 N 366.569 1.04691 -1.17803 0
M  V30 3807 C 367.815 1.78045 -0.970969 0
M  V30 3808 C 368.148 1.87686 0.498751 0
M  V30 3809 O 367.423 1.38035 1.37027 0
M  V30 3810 C 367.706 3.2166 -1.61884 0
M  V30 3811 C 367.559 3.20001 -3.161 0
M  V30 3812 C 368.878 4.1962 -1.3269 0
M  V30 3813 H 365.997 0.64633 -0.354155 0
M  V30 3814 H 368.639 1.22333 -1.45378 0
M  V30 3815 H 366.789 3.69232 -1.20831 0
M  V30 3816 H 368.461 2.80467 -3.66246 0
M  V30 3817 H 366.704 2.58203 -3.48588 0
M  V30 3818 H 367.375 4.21386 -3.56564 0
M  V30 3819 H 369.851 3.80567 -1.68249 0
M  V30 3820 H 368.727 5.18339 -1.80599 0
M  V30 3821 H 368.988 4.414 -0.248622 0
M  V30 3822 N 368.047 0.979072 1.23499 0
M  V30 3823 C 369.295 0.645941 1.91499 0
M  V30 3824 C 369.616 -0.822948 1.76784 0
M  V30 3825 O 368.886 -1.58854 1.14639 0
M  V30 3826 H 367.466 0.235919 0.708767 0
M  V30 3827 H 370.128 1.2426 1.50152 0
M  V30 3828 H 369.224 0.896411 2.9895 0
M  V30 3829 N 369.525 -1.3858 0.750561 0
M  V30 3830 C 370.773 -1.99789 0.30477 0
M  V30 3831 C 371.094 -1.59874 -1.11649 0
M  V30 3832 O 370.364 -0.85417 -1.76297 0
M  V30 3833 H 368.944 -0.738902 0.109694 0
M  V30 3834 H 371.606 -1.69391 0.963983 0
M  V30 3835 H 370.702 -3.09952 0.365499 0
M  V30 3836 N 371.003 -0.499398 -1.49478 0
M  V30 3837 C 371.933 0.269244 -2.31943 0
M  V30 3838 C 372.914 0.964054 -1.40143 0
M  V30 3839 O 374.099 0.955767 -1.69052 0
M  V30 3840 C 371.229 1.33504 -3.20615 0
M  V30 3841 C 370.183 0.760202 -4.21195 0
M  V30 3842 C 369.509 1.9264 -4.98792 0
M  V30 3843 C 370.809 -0.247661 -5.21712 0
M  V30 3844 H 372.503 -0.419082 -2.96452 0
M  V30 3845 H 370.049 -0.202988 -1.42562 0
M  V30 3846 H 372.002 1.88048 -3.77115 0
M  V30 3847 H 370.726 2.05253 -2.54045 0
M  V30 3848 H 369.385 0.23653 -3.65836 0
M  V30 3849 H 369.033 2.63154 -4.28671 0
M  V30 3850 H 368.733 1.54785 -5.66847 0
M  V30 3851 H 370.257 2.4762 -5.58137 0
M  V30 3852 H 371.671 0.209579 -5.72917 0
M  V30 3853 H 370.068 -0.541962 -5.97648 0
M  V30 3854 H 371.138 -1.16409 -4.7072 0
M  V30 3855 N 372.481 1.55866 -0.233164 0
M  V30 3856 C 373.709 2.02998 0.399905 0
M  V30 3857 C 374.124 1.11274 1.52524 0
M  V30 3858 O 373.481 0.124528 1.82075 0
M  V30 3859 C 373.532 3.4958 0.920639 0
M  V30 3860 O 373.253 4.37808 -0.159834 0
M  V30 3861 C 374.754 4.12411 1.62578 0
M  V30 3862 H 371.974 0.664006 0.0966281 0
M  V30 3863 H 374.518 2.0143 -0.353013 0
M  V30 3864 H 372.673 3.51727 1.62379 0
M  V30 3865 H 373.087 5.23981 0.23337 0
M  V30 3866 H 374.561 5.16711 1.94201 0
M  V30 3867 H 375.038 3.5809 2.54299 0
M  V30 3868 H 375.644 4.14148 0.967553 0
M  V30 3869 N 373.959 -0.0401083 1.57549 0
M  V30 3870 C 375.189 -0.744115 1.92734 0
M  V30 3871 C 375.597 -1.70005 0.830348 0
M  V30 3872 O 374.94 -1.82576 -0.20286 0
M  V30 3873 C 375.002 -1.56516 3.2364 0
M  V30 3874 C 374.666 -0.7752 4.50377 0
M  V30 3875 C 375.663 -0.0803326 5.19838 0
M  V30 3876 C 373.348 -0.733002 4.96923 0
M  V30 3877 C 375.342 0.646154 6.34116 0
M  V30 3878 C 373.029 -0.00276321 6.111 0
M  V30 3879 C 374.027 0.685585 6.7955 0
M  V30 3880 O 373.715 1.40399 7.91545 0
M  V30 3881 H 373.447 -0.214861 0.640945 0
M  V30 3882 H 376.001 -0.00503675 2.05399 0
M  V30 3883 H 374.231 -2.3478 3.07271 0
M  V30 3884 H 375.92 -2.15076 3.44234 0
M  V30 3885 H 376.686 -0.104035 4.84888 0
M  V30 3886 H 372.565 -1.25827 4.43496 0
M  V30 3887 H 376.109 1.18398 6.87479 0
M  V30 3888 H 372.006 0.0229012 6.45496 0
M  V30 3889 H 372.774 1.31653 8.07843 0
M  V30 3890 N 375.437 -1.54477 -0.31217 0
M  V30 3891 C 376.853 -1.45442 -0.657185 0
M  V30 3892 C 377.053 -0.63653 -1.91182 0
M  V30 3893 O 376.109 -0.139815 -2.52113 0
M  V30 3894 C 377.422 -2.89287 -0.82058 0
M  V30 3895 C 378.97 -2.9926 -0.917188 0
M  V30 3896 C 379.445 -4.44279 -1.11267 0
M  V30 3897 N 380.936 -4.4794 -1.17914 0
M  V30 3898 C 381.671 -5.57318 -1.34848 0
M  V30 3899 N 381.167 -6.76642 -1.48752 0
M  V30 3900 N 382.96 -5.44986 -1.37647 0
M  V30 3901 H 375.111 -2.06129 0.512313 0
M  V30 3902 H 377.374 -0.933088 0.167485 0
M  V30 3903 H 377.08 -3.51687 0.0302604 0
M  V30 3904 H 376.954 -3.36061 -1.71298 0
M  V30 3905 H 379.341 -2.36981 -1.75852 0
M  V30 3906 H 379.422 -2.558 -0.00101257 0
M  V30 3907 H 379.066 -5.07149 -0.27614 0
M  V30 3908 H 378.996 -4.85359 -2.04289 0
M  V30 3909 H 381.487 -3.61969 -1.08567 0
M  V30 3910 H 381.8 -7.55758 -1.61397 0
M  V30 3911 H 380.145 -6.79529 -1.45828 0
M  V30 3912 H 383.336 -4.50715 -1.26388 0
M  V30 3913 H 383.509 -6.3028 -1.50501 0
M  V30 3914 N 376.915 0.57481 -1.46744 0
M  V30 3915 C 377.825 1.711 -1.60505 0
M  V30 3916 C 378.841 1.67008 -0.488307 0
M  V30 3917 O 380.017 1.86774 -0.753495 0
M  V30 3918 C 377.082 3.07608 -1.59932 0
M  V30 3919 C 376.143 3.22904 -2.82898 0
M  V30 3920 C 375.376 4.529 -2.82343 0
M  V30 3921 O 375.599 5.37278 -1.91542 0
M  V30 3922 O 374.533 4.71611 -3.73987 0
M  V30 3923 H 378.359 1.62436 -2.56609 0
M  V30 3924 H 375.944 0.742779 -1.29627 0
M  V30 3925 H 377.826 3.88877 -1.62336 0
M  V30 3926 H 376.501 3.16692 -0.669898 0
M  V30 3927 H 375.408 2.41099 -2.86046 0
M  V30 3928 H 376.741 3.18715 -3.75076 0
M  V30 3929 N 378.394 1.34581 0.820102 0
M  V30 3930 C 379.642 1.26845 1.57336 0
M  V30 3931 C 379.963 -0.160667 1.94337 0
M  V30 3932 O 379.233 -1.09396 1.6251 0
M  V30 3933 H 377.813 0.466514 0.583415 0
M  V30 3934 H 380.475 1.68526 0.979027 0
M  V30 3935 H 379.571 1.87513 2.4949 0
M  V30 3936 N 379.872 -1.04064 1.18357 0
M  V30 3937 C 380.802 -2.14001 0.934113 0
M  V30 3938 C 381.783 -1.69616 -0.128186 0
M  V30 3939 O 382.968 -1.94185 0.0244093 0
M  V30 3940 C 380.098 -3.44253 0.459066 0
M  V30 3941 C 379.052 -4.02261 1.46185 0
M  V30 3942 C 378.378 -5.27992 0.844322 0
M  V30 3943 C 379.678 -4.38432 2.83856 0
M  V30 3944 H 381.372 -2.35127 1.85352 0
M  V30 3945 H 378.918 -1.12998 0.892604 0
M  V30 3946 H 380.871 -4.20522 0.271907 0
M  V30 3947 H 379.595 -3.22813 -0.495912 0
M  V30 3948 H 378.254 -3.28074 1.63595 0
M  V30 3949 H 377.902 -5.02862 -0.117845 0
M  V30 3950 H 377.602 -5.67765 1.51384 0
M  V30 3951 H 379.126 -6.06938 0.667693 0
M  V30 3952 H 380.54 -5.05688 2.70098 0
M  V30 3953 H 378.937 -4.89254 3.47491 0
M  V30 3954 H 380.007 -3.4826 3.37406 0
M  V30 3955 N 381.35 -0.985608 -1.22978 0
M  V30 3956 C 382.58 -0.674603 -1.95276 0
M  V30 3957 C 382.988 0.763483 -1.73111 0
M  V30 3958 O 382.331 1.52601 -1.02268 0
M  V30 3959 C 382.393 -0.891597 -3.48268 0
M  V30 3960 C 382.057 -2.31275 -3.94158 0
M  V30 3961 C 383.054 -3.29179 -4.02415 0
M  V30 3962 C 380.739 -2.64524 -4.27004 0
M  V30 3963 C 382.733 -4.58407 -4.42879 0
M  V30 3964 C 380.42 -3.93974 -4.67149 0
M  V30 3965 C 381.418 -4.90727 -4.75053 0
M  V30 3966 O 381.106 -6.17865 -5.14294 0
M  V30 3967 H 380.838 -0.249251 -0.628371 0
M  V30 3968 H 383.392 -1.32106 -1.5728 0
M  V30 3969 H 381.622 -0.187962 -3.86243 0
M  V30 3970 H 383.311 -0.576957 -4.01779 0
M  V30 3971 H 384.077 -3.04823 -3.77237 0
M  V30 3972 H 379.956 -1.89923 -4.2006 0
M  V30 3973 H 383.5 -5.33926 -4.48964 0
M  V30 3974 H 379.397 -4.18122 -4.91777 0
M  V30 3975 H 380.165 -6.21694 -5.32389 0
M  V30 3976 N 382.828 1.3818 -0.7579 0
M  V30 3977 C 384.077 1.99261 -0.312744 0
M  V30 3978 C 384.39 1.60846 1.11301 0
M  V30 3979 O 385.596 2.14929 1.65885 0
M  V30 3980 C 384.052 3.56294 -0.50821 0
M  V30 3981 C 383.66 4.03657 -1.94333 0
M  V30 3982 C 385.404 4.24313 -0.125982 0
M  V30 3983 C 383.311 5.53347 -2.08712 0
M  V30 3984 H 382.241 0.745456 -0.113185 0
M  V30 3985 H 384.892 1.57889 -0.935056 0
M  V30 3986 H 383.274 3.95575 0.183353 0
M  V30 3987 H 384.448 3.75655 -2.66871 0
M  V30 3988 H 382.763 3.48376 -2.28086 0
M  V30 3989 H 385.36 5.34279 -0.212125 0
M  V30 3990 H 385.703 4.05962 0.921964 0
M  V30 3991 H 386.236 3.90285 -0.769563 0
M  V30 3992 H 382.975 5.76607 -3.11777 0
M  V30 3993 H 382.495 5.83078 -1.4064 0
M  V30 3994 H 384.174 6.19111 -1.87912 0
M  V30 3995 N 384.306 0.507319 1.49211 0
M  V30 3996 C 385.534 -0.0315749 2.06876 0
M  V30 3997 C 385.949 -1.30241 1.36685 0
M  V30 3998 O 385.306 -1.76937 0.447152 0
M  V30 3999 C 385.357 -0.282627 3.60393 0
M  V30 4000 O 385.078 0.937835 4.27944 0
M  V30 4001 C 386.579 -0.864453 4.3479 0
M  V30 4002 H 383.799 0.0233048 0.670595 0
M  V30 4003 H 386.343 0.706484 1.91909 0
M  V30 4004 H 384.498 -0.97068 3.75042 0
M  V30 4005 H 384.912 0.704567 5.19746 0
M  V30 4006 H 386.386 -0.989664 5.43056 0
M  V30 4007 H 386.863 -1.86382 3.97692 0
M  V30 4008 H 387.469 -0.213672 4.24763 0
M  V30 4009 N 385.784 -1.5574 0.241426 0
M  V30 4010 C 386.694 -2.2479 -0.671305 0
M  V30 4011 C 387.71 -1.26217 -1.19772 0
M  V30 4012 O 388.886 -1.59079 -1.23514 0
M  V30 4013 C 385.951 -2.92966 -1.85396 0
M  V30 4014 C 385.012 -4.06935 -1.36756 0
M  V30 4015 C 384.245 -4.71851 -2.49384 0
M  V30 4016 O 384.468 -4.35823 -3.67987 0
M  V30 4017 O 383.402 -5.60467 -2.19454 0
M  V30 4018 H 387.228 -3.0349 -0.112966 0
M  V30 4019 H 384.813 -1.49397 0.0101513 0
M  V30 4020 H 386.695 -3.35927 -2.54423 0
M  V30 4021 H 385.37 -2.17211 -2.40002 0
M  V30 4022 H 384.277 -3.68503 -0.644726 0
M  V30 4023 H 385.61 -4.84492 -0.867647 0
M  V30 4024 N 387.262 0.0317525 -1.57568 0
M  V30 4025 C 388.172 1.05021 -2.0978 0
M  V30 4026 C 389.188 1.39809 -1.03583 0
M  V30 4027 O 390.364 1.49182 -1.35302 0
M  V30 4028 C 387.429 2.33301 -2.56459 0
M  V30 4029 C 386.49 2.0512 -3.77127 0
M  V30 4030 C 385.723 3.27283 -4.2157 0
M  V30 4031 O 385.946 4.37861 -3.65559 0
M  V30 4032 O 384.88 3.13141 -5.14029 0
M  V30 4033 H 388.706 0.636505 -2.96955 0
M  V30 4034 H 386.291 0.248559 -1.47318 0
M  V30 4035 H 388.173 3.08722 -2.86825 0
M  V30 4036 H 386.848 2.73973 -1.72397 0
M  V30 4037 H 385.755 1.27276 -3.51784 0
M  V30 4038 H 387.088 1.69305 -4.62165 0
M  V30 4039 N 388.74 1.54641 0.303973 0
M  V30 4040 C 389.989 1.7299 1.03717 0
M  V30 4041 C 390.302 0.521168 1.88529 0
M  V30 4042 O 391.508 0.586408 2.65092 0
M  V30 4043 C 389.964 3.06051 1.89369 0
M  V30 4044 C 389.572 4.34393 1.09574 0
M  V30 4045 C 391.316 3.3376 2.62306 0
M  V30 4046 C 389.223 5.58506 1.94486 0
M  V30 4047 H 388.153 0.64473 0.390947 0
M  V30 4048 H 390.804 1.81124 0.294328 0
M  V30 4049 H 389.186 2.91874 2.67629 0
M  V30 4050 H 390.36 4.59396 0.359485 0
M  V30 4051 H 388.675 4.13597 0.482324 0
M  V30 4052 H 391.272 4.23687 3.26181 0
M  V30 4053 H 391.615 2.52503 3.3098 0
M  V30 4054 H 392.148 3.48894 1.91097 0
M  V30 4055 H 388.887 6.42422 1.30287 0
M  V30 4056 H 388.407 5.37694 2.65792 0
M  V30 4057 H 390.086 5.95651 2.52605 0
M  V30 4058 N 390.218 -0.567019 1.47046 0
M  V30 4059 C 391.448 -1.34831 1.56538 0
M  V30 4060 C 391.856 -1.8802 0.21101 0
M  V30 4061 O 391.199 -1.65152 -0.804387 0
M  V30 4062 C 391.261 -2.56139 2.52256 0
M  V30 4063 C 390.925 -2.24307 3.98165 0
M  V30 4064 C 391.922 -1.82192 4.86931 0
M  V30 4065 C 389.607 -2.35968 4.43423 0
M  V30 4066 C 391.601 -1.52153 6.18973 0
M  V30 4067 C 389.288 -2.05542 5.75496 0
M  V30 4068 C 390.286 -1.63701 6.63092 0
M  V30 4069 O 389.974 -1.33657 7.92711 0
M  V30 4070 H 389.706 -0.417683 0.531523 0
M  V30 4071 H 392.26 -0.694726 1.93294 0
M  V30 4072 H 390.49 -3.24356 2.10548 0
M  V30 4073 H 392.179 -3.18214 2.51982 0
M  V30 4074 H 392.945 -1.72684 4.53217 0
M  V30 4075 H 388.824 -2.67495 3.75456 0
M  V30 4076 H 392.368 -1.19421 6.87302 0
M  V30 4077 H 388.265 -2.14679 6.08755 0
M  V30 4078 H 389.033 -1.4737 8.05124 0
M  V30 4079 N 391.696 -1.35014 -0.812953 0
M  V30 4080 C 392.643 -1.27412 -1.92444 0
M  V30 4081 C 393.613 -0.14733 -1.65445 0
M  V30 4082 O 394.798 -0.329974 -1.87925 0
M  V30 4083 C 391.938 -1.04558 -3.28879 0
M  V30 4084 C 391.051 -2.26101 -3.68106 0
M  V30 4085 C 390.186 -1.96449 -4.9354 0
M  V30 4086 C 389.225 -3.14081 -5.25376 0
M  V30 4087 N 388.362 -2.84246 -6.41988 0
M  V30 4088 H 393.202 -2.22463 -1.98278 0
M  V30 4089 H 390.739 -1.10593 -0.969933 0
M  V30 4090 H 392.697 -0.893413 -4.07522 0
M  V30 4091 H 391.327 -0.131719 -3.22531 0
M  V30 4092 H 390.379 -2.52204 -2.84775 0
M  V30 4093 H 391.691 -3.13959 -3.87597 0
M  V30 4094 H 390.845 -1.78026 -5.79993 0
M  V30 4095 H 389.584 -1.05867 -4.76071 0
M  V30 4096 H 388.589 -3.33089 -4.37415 0
M  V30 4097 H 389.814 -4.05455 -5.44778 0
M  V30 4098 H 387.76 -1.96252 -6.25956 0
M  V30 4099 H 387.677 -3.65637 -6.61699 0
M  V30 4100 H 388.945 -2.6935 -7.31485 0
M  V30 4101 N 393.175 1.03435 -1.18907 0
M  V30 4102 C 394.403 1.80381 -1.01342 0
M  V30 4103 C 394.818 1.83649 0.438005 0
M  V30 4104 O 394.175 1.27655 1.30424 0
M  V30 4105 C 394.226 3.25689 -1.56873 0
M  V30 4106 O 393.947 3.22673 -2.96334 0
M  V30 4107 C 395.448 4.19255 -1.44014 0
M  V30 4108 H 392.668 0.56784 -0.35749 0
M  V30 4109 H 395.212 1.30317 -1.576 0
M  V30 4110 H 393.367 3.72962 -1.04777 0
M  V30 4111 H 393.781 4.13748 -3.22355 0
M  V30 4112 H 395.255 5.19123 -1.87657 0
M  V30 4113 H 395.732 4.37467 -0.389815 0
M  V30 4114 H 396.338 3.77851 -1.95214 0
M  V30 4115 N 394.653 0.992116 1.22453 0
M  V30 4116 C 395.901 0.666215 1.90804 0
M  V30 4117 C 396.222 -0.804152 1.77647 0
M  V30 4118 O 395.492 -1.57629 1.16318 0
M  V30 4119 H 394.072 0.243423 0.706225 0
M  V30 4120 H 396.734 1.25845 1.48825 0
M  V30 4121 H 395.83 0.928069 2.97982 0
M  V30 4122 N 396.131 -1.37776 0.765217 0
M  V30 4123 C 397.061 -2.32945 0.160953 0
M  V30 4124 C 398.042 -1.55454 -0.690516 0
M  V30 4125 O 399.227 -1.83721 -0.629318 0
M  V30 4126 C 396.357 -3.39669 -0.724031 0
M  V30 4127 C 395.311 -4.27992 0.0256173 0
M  V30 4128 C 394.637 -5.25673 -0.978383 0
M  V30 4129 C 395.937 -5.08309 1.20082 0
M  V30 4130 H 397.631 -2.83728 0.955969 0
M  V30 4131 H 395.177 -1.36416 0.461149 0
M  V30 4132 H 397.13 -4.05219 -1.15652 0
M  V30 4133 H 395.854 -2.87396 -1.5515 0
M  V30 4134 H 394.513 -3.63964 0.438812 0
M  V30 4135 H 394.161 -4.69682 -1.80022 0
M  V30 4136 H 393.861 -5.85625 -0.481378 0
M  V30 4137 H 395.385 -5.94098 -1.40995 0
M  V30 4138 H 396.799 -5.67034 0.845307 0
M  V30 4139 H 395.196 -5.77554 1.62947 0
M  V30 4140 H 396.266 -4.41365 2.00811 0
M  V30 4141 N 397.609 -0.515225 -1.4894 0
M  V30 4142 C 398.539 0.244628 -2.32215 0
M  V30 4143 C 399.52 0.949136 -1.41157 0
M  V30 4144 O 400.705 0.937783 -1.70057 0
M  V30 4145 C 397.835 1.30096 -3.22013 0
M  V30 4146 C 396.789 0.715486 -4.21977 0
M  V30 4147 C 396.115 1.87339 -5.00808 0
M  V30 4148 C 397.415 -0.302982 -5.2142 0
M  V30 4149 H 399.109 -0.450501 -2.95991 0
M  V30 4150 H 396.655 -0.218098 -1.42339 0
M  V30 4151 H 398.608 1.84037 -3.79089 0
M  V30 4152 H 397.332 2.02547 -2.56207 0
M  V30 4153 H 395.991 0.197715 -3.66066 0
M  V30 4154 H 395.639 2.58592 -4.31438 0
M  V30 4155 H 395.339 1.48764 -5.68457 0
M  V30 4156 H 396.863 2.41686 -5.60732 0
M  V30 4157 H 398.277 0.148802 -5.73107 0
M  V30 4158 H 396.674 -0.60532 -5.97039 0
M  V30 4159 H 397.744 -1.21395 -4.69459 0
M  V30 4160 N 399.087 1.5561 -0.249682 0
M  V30 4161 C 400.312 2.03865 0.381305 0
M  V30 4162 C 400.737 1.12769 1.50548 0
M  V30 4163 O 400.095 0.121189 1.80895 0
M  V30 4164 C 400.143 3.50101 0.863816 0
M  V30 4165 O 399.247 3.62132 1.97318 0
M  V30 4166 H 398.588 0.658827 0.0827194 0
M  V30 4167 H 401.118 2.01105 -0.376552 0
M  V30 4168 H 401.128 3.90975 1.1663 0
M  V30 4169 H 399.803 4.1588 0.0411816 0
M  V30 4170 H 398.38 3.33155 1.67517 0
M  V30 4171 N 400.565 -0.0233959 1.57583 0
M  V30 4172 C 401.813 -0.711654 1.89156 0
M  V30 4173 C 402.134 -1.75591 0.848096 0
M  V30 4174 O 401.404 -1.95547 -0.117566 0
M  V30 4175 H 399.984 -0.265835 0.698098 0
M  V30 4176 H 402.646 0.0119948 1.94896 0
M  V30 4177 H 401.742 -1.19766 2.88206 0
M  V30 4178 N 402.043 -1.548 -0.295768 0
M  V30 4179 C 402.973 -1.89115 -1.36959 0
M  V30 4180 C 403.954 -0.75059 -1.52644 0
M  V30 4181 O 405.139 -1.00678 -1.66065 0
M  V30 4182 C 402.269 -2.14307 -2.73295 0
M  V30 4183 C 401.223 -3.30151 -2.72368 0
M  V30 4184 C 400.549 -3.40772 -4.12042 0
M  V30 4185 C 401.849 -4.67126 -2.33646 0
M  V30 4186 H 403.543 -2.79053 -1.08488 0
M  V30 4187 H 401.089 -1.34266 -0.520443 0
M  V30 4188 H 403.042 -2.36898 -3.48507 0
M  V30 4189 H 401.766 -1.21145 -3.03301 0
M  V30 4190 H 400.425 -3.0749 -1.99613 0
M  V30 4191 H 400.073 -2.45117 -4.39234 0
M  V30 4192 H 399.773 -4.18645 -4.12322 0
M  V30 4193 H 401.297 -3.6563 -4.89027 0
M  V30 4194 H 402.711 -4.89414 -2.98575 0
M  V30 4195 H 401.108 -5.47751 -2.45129 0
M  V30 4196 H 402.178 -4.67489 -1.28772 0
M  V30 4197 N 403.521 0.559213 -1.47345 0
M  V30 4198 C 404.798 1.31997 -1.44348 0
M  V30 4199 C 405.178 2.1064 -0.139358 0
M  V30 4200 O 404.526 2.1091 0.879153 0
M  V30 4201 C 404.736 2.22618 -2.68779 0
M  V30 4202 C 406.084 2.83701 -3.1591 0
M  V30 4203 O 407.108 2.32921 -2.69493 0
M  V30 4204 O 405.967 3.75993 -3.966 0
M  V30 4205 H 403.061 0.594251 -0.575147 0
M  V30 4206 H 405.607 0.578282 -1.59543 0
M  V30 4207 H 404.379 1.64093 -3.55231 0
M  V30 4208 H 404.002 3.04085 -2.5616 0
M  V30 4209 N 404.999 1.35443 0.805782 0
M  V30 4210 C 406.248 1.28097 1.55801 0
M  V30 4211 C 406.561 -0.142428 1.95081 0
M  V30 4212 O 407.767 -0.33817 2.69386 0
M  V30 4213 C 406.223 2.24653 2.81174 0
M  V30 4214 C 405.831 3.72342 2.49129 0
M  V30 4215 C 407.575 2.2625 3.59181 0
M  V30 4216 C 405.482 4.60719 3.70799 0
M  V30 4217 H 404.412 0.475937 0.584808 0
M  V30 4218 H 407.063 1.60712 0.885661 0
M  V30 4219 H 405.445 1.85011 3.50124 0
M  V30 4220 H 406.619 4.20624 1.88181 0
M  V30 4221 H 404.934 3.73361 1.84366 0
M  V30 4222 H 407.531 2.89495 4.49552 0
M  V30 4223 H 407.874 1.26647 3.96568 0
M  V30 4224 H 408.407 2.64426 2.97193 0
M  V30 4225 H 405.146 5.61324 3.3852 0
M  V30 4226 H 404.666 4.17163 4.3097 0
M  V30 4227 H 406.345 4.76182 4.38018 0
M  V30 4228 N 406.477 -1.02803 1.19454 0
M  V30 4229 C 407.41 -2.107 0.876396 0
M  V30 4230 C 408.388 -1.61741 -0.166897 0
M  V30 4231 O 409.572 -1.88451 -0.0430195 0
M  V30 4232 C 406.699 -3.37262 0.311758 0
M  V30 4233 C 405.745 -4.05093 1.33424 0
M  V30 4234 S 406.578 -4.50498 2.89503 0
M  V30 4235 C 407.734 -5.80277 2.34584 0
M  V30 4236 H 407.967 -2.37362 1.79016 0
M  V30 4237 H 405.5 -1.15755 1.02177 0
M  V30 4238 H 407.458 -4.10499 -0.00748752 0
M  V30 4239 H 406.119 -3.08693 -0.58032 0
M  V30 4240 H 405.312 -4.9611 0.888302 0
M  V30 4241 H 404.914 -3.3803 1.60037 0
M  V30 4242 H 407.206 -6.54873 1.73633 0
M  V30 4243 H 408.149 -6.29651 3.23952 0
M  V30 4244 H 408.557 -5.3599 1.77131 0
M  V30 4245 N 407.956 -0.998596 -1.21925 0
M  V30 4246 C 408.866 -0.562736 -2.27751 0
M  V30 4247 C 409.882 0.391203 -1.69545 0
M  V30 4248 O 411.058 0.256625 -1.99758 0
M  V30 4249 C 408.123 0.11012 -3.46525 0
M  V30 4250 C 407.184 -0.887495 -4.20026 0
M  V30 4251 C 406.417 -0.246654 -5.3313 0
M  V30 4252 O 406.64 0.958088 -5.62296 0
M  V30 4253 O 405.574 -0.954374 -5.94286 0
M  V30 4254 H 409.4 -1.44329 -2.67213 0
M  V30 4255 H 406.985 -0.767135 -1.28201 0
M  V30 4256 H 408.867 0.486756 -4.18579 0
M  V30 4257 H 407.542 0.965154 -3.08976 0
M  V30 4258 H 406.449 -1.31517 -3.5022 0
M  V30 4259 H 407.782 -1.71191 -4.6147 0
M  V30 4260 N 409.434 1.37368 -0.772513 0
M  V30 4261 C 410.68 1.99969 -0.337681 0
M  V30 4262 C 411.013 1.61184 1.08321 0
M  V30 4263 O 410.288 0.858395 1.74533 0
M  V30 4264 C 410.571 3.56858 -0.482121 0
M  V30 4265 C 410.424 4.0555 -1.94549 0
M  V30 4266 C 411.743 4.39955 0.113143 0
M  V30 4267 H 408.862 0.726464 -0.124171 0
M  V30 4268 H 411.504 1.63034 -0.975699 0
M  V30 4269 H 409.654 3.88452 0.0610361 0
M  V30 4270 H 411.326 3.84518 -2.54841 0
M  V30 4271 H 409.569 3.57715 -2.45403 0
M  V30 4272 H 410.24 5.14587 -1.9976 0
M  V30 4273 H 412.716 4.14623 -0.35031 0
M  V30 4274 H 411.592 5.48897 -0.0180514 0
M  V30 4275 H 411.853 4.25403 1.20354 0
M  V30 4276 N 410.912 0.523116 1.48665 0
M  V30 4277 C 411.86 -0.256859 2.31177 0
M  V30 4278 C 412.854 -0.94199 1.40794 0
M  V30 4279 O 414.06 -0.867157 1.57735 0
M  V30 4280 H 410.435 -0.1017 0.745091 0
M  V30 4281 H 412.406 0.458739 2.94853 0
M  V30 4282 C 411.155 -1.29503 3.22683 0
M  V30 4283 H 410.478 -0.777248 3.92172 0
M  V30 4284 H 411.918 -1.81233 3.83315 0
M  V30 4285 C 410.377 -2.32501 2.43813 0
M  V30 4286 O 410.907 -3.3881 2.15803 0
M  V30 4287 N 409.113 -2.05538 2.05432 0
M  V30 4288 H 408.66 -1.19104 2.28412 0
M  V30 4289 H 408.618 -2.74676 1.52973 0
M  V30 4290 N 412.39 -1.55475 0.257931 0
M  V30 4291 C 413.801 -1.8511 -0.243135 0
M  V30 4292 C 414.152 -1.17986 -1.5676 0
M  V30 4293 O 413.277 -0.462102 -2.11409 0
M  V30 4294 C 413.872 -3.35826 -0.447929 0
M  V30 4295 C 412.431 -3.65647 -0.893245 0
M  V30 4296 C 411.578 -2.7729 0.0232965 0
M  V30 4297 H 414.529 -1.51261 0.480199 0
M  V30 4298 H 414.55 -3.58002 -1.28898 0
M  V30 4299 H 414.062 -3.84652 0.516196 0
M  V30 4300 H 412.163 -3.22308 -1.86945 0
M  V30 4301 H 412.276 -4.73312 -0.742469 0
M  V30 4302 H 410.64 -2.49942 -0.490021 0
M  V30 4303 H 411.423 -3.28926 0.982994 0
M  V30 4304 N 413.868 0.0150385 -1.57593 0
M  V30 4305 C 415.093 0.718067 -1.94573 0
M  V30 4306 C 415.518 1.6734 -0.859005 0
M  V30 4307 O 414.876 1.80362 0.184147 0
M  V30 4308 C 414.924 1.43918 -3.30636 0
M  V30 4309 O 414.028 2.55299 -3.23876 0
M  V30 4310 H 413.369 0.192125 -0.635597 0
M  V30 4311 H 415.899 -0.0336708 -2.04572 0
M  V30 4312 H 415.909 1.80598 -3.65853 0
M  V30 4313 H 414.584 0.738619 -4.09289 0
M  V30 4314 H 413.161 2.21058 -3.00312 0
M  V30 4315 N 415.346 1.54954 0.287554 0
M  V30 4316 C 416.276 1.89839 1.35954 0
M  V30 4317 C 417.257 0.758675 1.52244 0
M  V30 4318 O 418.442 1.01557 1.65529 0
M  V30 4319 C 415.572 2.15753 2.72154 0
M  V30 4320 C 414.526 3.3159 2.70614 0
M  V30 4321 C 413.852 3.42952 4.10229 0
M  V30 4322 C 415.152 4.68359 2.31165 0
M  V30 4323 H 416.846 2.79625 1.07007 0
M  V30 4324 H 414.392 1.3454 0.513316 0
M  V30 4325 H 416.345 2.38743 3.47246 0
M  V30 4326 H 415.069 1.22752 3.02654 0
M  V30 4327 H 413.728 3.08545 1.97979 0
M  V30 4328 H 413.376 2.47443 4.37928 0
M  V30 4329 H 413.076 4.20826 4.10097 0
M  V30 4330 H 414.6 3.68218 4.87081 0
M  V30 4331 H 416.014 4.9099 2.95976 0
M  V30 4332 H 414.411 5.49044 2.42221 0
M  V30 4333 H 415.481 4.68165 1.26291 0
M  V30 4334 N 416.824 -0.551391 1.4764 0
M  V30 4335 C 418.072 -1.30572 1.54258 0
M  V30 4336 C 418.393 -1.93877 0.208963 0
M  V30 4337 O 417.663 -1.80234 -0.767619 0
M  V30 4338 H 416.243 -0.484894 0.568231 0
M  V30 4339 H 418.905 -0.643402 1.83974 0
M  V30 4340 H 418.001 -2.09621 2.31226 0
M  V30 4341 N 418.302 -1.35869 -0.798587 0
M  V30 4342 C 419.249 -1.29446 -1.91082 0
M  V30 4343 C 420.219 -0.16487 -1.6528 0
M  V30 4344 O 421.404 -0.349888 -1.87564 0
M  V30 4345 C 418.544 -1.0804 -3.27752 0
M  V30 4346 C 417.657 -2.29993 -3.65687 0
M  V30 4347 C 416.792 -2.01673 -4.91428 0
M  V30 4348 C 415.831 -3.19636 -5.22015 0
M  V30 4349 N 414.968 -2.91039 -6.38937 0
M  V30 4350 H 419.808 -2.24553 -1.95907 0
M  V30 4351 H 417.345 -1.11615 -0.958148 0
M  V30 4352 H 419.303 -0.936586 -4.06551 0
M  V30 4353 H 417.933 -0.16592 -3.22373 0
M  V30 4354 H 416.985 -2.55211 -2.82085 0
M  V30 4355 H 418.297 -3.18052 -3.84245 0
M  V30 4356 H 417.451 -1.84168 -5.78072 0
M  V30 4357 H 416.19 -1.10911 -4.74921 0
M  V30 4358 H 415.195 -3.37709 -4.33858 0
M  V30 4359 H 416.42 -4.11211 -5.40447 0
M  V30 4360 H 414.366 -2.0288 -6.2384 0
M  V30 4361 H 414.283 -3.72635 -6.57784 0
M  V30 4362 H 415.551 -2.77093 -7.28587 0
M  V30 4363 N 419.78 1.02168 -1.19998 0
M  V30 4364 C 421.008 1.79296 -1.03249 0
M  V30 4365 C 421.423 1.84103 0.418502 0
M  V30 4366 O 420.78 1.29031 1.29063 0
M  V30 4367 C 420.831 3.24007 -1.60319 0
M  V30 4368 O 420.552 3.19512 -2.99739 0
M  V30 4369 C 422.053 4.17704 -1.48453 0
M  V30 4370 H 419.273 0.564016 -0.363493 0
M  V30 4371 H 421.817 1.28639 -1.58973 0
M  V30 4372 H 419.972 3.7183 -1.08727 0
M  V30 4373 H 420.386 4.10306 -3.26725 0
M  V30 4374 H 421.86 5.17104 -1.93153 0
M  V30 4375 H 422.337 4.37029 -0.436193 0
M  V30 4376 H 422.943 3.7576 -1.99211 0
M  V30 4377 N 421.258 1.00505 1.21394 0
M  V30 4378 C 422.669 0.721082 1.72213 0
M  V30 4379 C 423.02 -0.761263 1.80829 0
M  V30 4380 O 422.145 -1.59464 1.46288 0
M  V30 4381 C 422.74 1.30228 3.12772 0
M  V30 4382 C 421.299 1.06743 3.60947 0
M  V30 4383 C 420.446 1.41507 2.38477 0
M  V30 4384 H 423.397 1.17594 1.06571 0
M  V30 4385 H 423.418 0.686955 3.74247 0
M  V30 4386 H 422.93 2.38115 3.06468 0
M  V30 4387 H 421.031 0.00572162 3.726 0
M  V30 4388 H 421.144 1.73936 4.46411 0
M  V30 4389 H 419.508 0.833852 2.40664 0
M  V30 4390 H 420.291 2.50424 2.34824 0
M  V30 4391 N 422.737 -1.36956 0.779787 0
M  V30 4392 C 423.647 -2.33965 0.172491 0
M  V30 4393 C 424.663 -1.60574 -0.670222 0
M  V30 4394 O 425.839 -1.92617 -0.588263 0
M  V30 4395 C 422.904 -3.39761 -0.690173 0
M  V30 4396 C 421.965 -4.28964 0.169924 0
M  V30 4397 C 421.198 -5.29707 -0.651662 0
M  V30 4398 O 421.421 -5.38238 -1.88827 0
M  V30 4399 O 420.355 -6.01873 -0.0566264 0
M  V30 4400 H 424.181 -2.87647 0.974321 0
M  V30 4401 H 421.766 -1.39258 0.541078 0
M  V30 4402 H 423.648 -4.04471 -1.1824 0
M  V30 4403 H 422.323 -2.88394 -1.47006 0
M  V30 4404 H 421.23 -3.67326 0.708696 0
M  V30 4405 H 422.563 -4.83656 0.913085 0
M  V30 4406 N 424.215 -0.530993 -1.48385 0
M  V30 4407 C 425.125 0.23503 -2.3342 0
M  V30 4408 C 426.141 0.93801 -1.46552 0
M  V30 4409 O 427.317 0.912745 -1.7953 0
M  V30 4410 C 424.382 1.26778 -3.22689 0
M  V30 4411 C 423.443 0.575038 -4.25431 0
M  V30 4412 C 422.676 1.55858 -5.10435 0
M  V30 4413 O 422.899 2.79129 -4.97437 0
M  V30 4414 O 421.833 1.09742 -5.91811 0
M  V30 4415 H 425.659 -0.461794 -3.00169 0
M  V30 4416 H 423.244 -0.291903 -1.46521 0
M  V30 4417 H 425.126 1.86457 -3.77904 0
M  V30 4418 H 423.801 1.94699 -2.586 0
M  V30 4419 H 422.708 -0.0622782 -3.74048 0
M  V30 4420 H 424.041 -0.062253 -4.92161 0
M  V30 4421 N 425.693 1.55336 -0.266172 0
M  V30 4422 C 426.939 1.99692 0.353681 0
M  V30 4423 C 427.272 1.1543 1.56172 0
M  V30 4424 O 426.547 0.222218 1.93226 0
M  V30 4425 C 426.83 3.52316 0.74466 0
M  V30 4426 C 426.683 4.47337 -0.470101 0
M  V30 4427 C 428.002 4.10588 1.58447 0
M  V30 4428 H 425.121 0.725961 0.12708 0
M  V30 4429 H 427.763 1.86336 -0.371333 0
M  V30 4430 H 425.913 3.63829 1.36239 0
M  V30 4431 H 427.585 4.4778 -1.10864 0
M  V30 4432 H 425.828 4.19364 -1.10978 0
M  V30 4433 H 426.499 5.51788 -0.15291 0
M  V30 4434 H 428.975 4.02297 1.06286 0
M  V30 4435 H 427.851 5.17607 1.82686 0
M  V30 4436 H 428.112 3.60253 2.56262 0
M  V30 4437 N 427.171 -0.0066808 1.57599 0
M  V30 4438 C 428.399 -0.704087 1.94551 0
M  V30 4439 C 428.814 -1.67677 0.867746 0
M  V30 4440 O 428.171 -1.8185 -0.153925 0
M  V30 4441 C 428.222 -1.44177 3.31505 0
M  V30 4442 O 427.943 -0.508097 4.35144 0
M  V30 4443 C 429.444 -2.23429 3.82876 0
M  V30 4444 H 426.664 -0.196523 0.641576 0
M  V30 4445 H 429.208 0.042453 2.04456 0
M  V30 4446 H 427.363 -2.13999 3.22929 0
M  V30 4447 H 427.777 -1.02782 5.14331 0
M  V30 4448 H 429.251 -2.70552 4.8115 0
M  V30 4449 H 429.728 -3.05818 3.15233 0
M  V30 4450 H 430.334 -1.58636 3.94607 0
M  V30 4451 N 428.649 -1.55105 -0.279332 0
M  V30 4452 C 430.065 -1.46803 -0.626187 0
M  V30 4453 C 430.265 -0.676939 -1.89789 0
M  V30 4454 O 429.321 -0.19326 -2.51759 0
M  V30 4455 C 430.634 -2.90962 -0.759034 0
M  V30 4456 C 432.182 -3.01138 -0.853504 0
M  V30 4457 C 432.657 -4.46539 -1.01818 0
M  V30 4458 N 434.148 -4.50341 -1.08386 0
M  V30 4459 C 434.883 -5.60053 -1.22996 0
M  V30 4460 N 434.379 -6.79645 -1.34366 0
M  V30 4461 N 436.172 -5.47783 -1.26056 0
M  V30 4462 H 428.323 -2.04996 0.555921 0
M  V30 4463 H 430.586 -0.929325 0.187239 0
M  V30 4464 H 430.292 -3.51544 0.104852 0
M  V30 4465 H 430.166 -3.39619 -1.64131 0
M  V30 4466 H 432.553 -2.40658 -1.70786 0
M  V30 4467 H 432.634 -2.55745 0.0532466 0
M  V30 4468 H 432.278 -5.0762 -0.168504 0
M  V30 4469 H 432.208 -4.89583 -1.93948 0
M  V30 4470 H 434.699 -3.64191 -1.00864 0
M  V30 4471 H 435.012 -7.59012 -1.4533 0
M  V30 4472 H 433.357 -6.82469 -1.31382 0
M  V30 4473 H 436.548 -4.53294 -1.168 0
M  V30 4474 H 436.721 -6.33331 -1.37098 0
M  V30 4475 N 430.127 0.543554 -1.4793 0
M  V30 4476 C 431.355 1.32516 -1.58894 0
M  V30 4477 C 431.77 1.87215 -0.244131 0
M  V30 4478 O 431.127 1.65709 0.764652 0
M  V30 4479 C 431.178 2.48554 -2.62494 0
M  V30 4480 O 430.899 1.96112 -3.91755 0
M  V30 4481 C 432.4 3.40572 -2.8377 0
M  V30 4482 H 429.62 0.403472 -0.536145 0
M  V30 4483 H 432.164 0.657106 -1.93655 0
M  V30 4484 H 430.319 3.1127 -2.30629 0
M  V30 4485 H 430.733 2.71967 -4.4848 0
M  V30 4486 H 432.207 4.18375 -3.60093 0
M  V30 4487 H 432.684 3.94965 -1.92092 0
M  V30 4488 H 433.29 2.8366 -3.16887 0
M  V30 4489 N 431.605 1.3629 0.791371 0
M  V30 4490 C 432.851 1.30605 1.55146 0
M  V30 4491 C 433.184 -0.115042 1.93859 0
M  V30 4492 O 432.459 -1.06798 1.62556 0
M  V30 4493 C 432.742 2.22692 2.82985 0
M  V30 4494 C 432.595 3.73489 2.50651 0
M  V30 4495 C 433.914 2.13588 3.84796 0
M  V30 4496 H 431.033 0.475761 0.562868 0
M  V30 4497 H 433.675 1.66825 0.909358 0
M  V30 4498 H 431.825 1.91933 3.37778 0
M  V30 4499 H 433.497 4.14758 2.01924 0
M  V30 4500 H 431.74 3.93021 1.83622 0
M  V30 4501 H 432.411 4.3333 3.41949 0
M  V30 4502 H 434.887 2.40659 3.39445 0
M  V30 4503 H 433.763 2.80195 4.71998 0
M  V30 4504 H 434.024 1.12256 4.27611 0
M  V30 4505 N 433.083 -1.0153 1.20538 0
M  V30 4506 C 434.031 -2.12215 0.952235 0
M  V30 4507 C 435.025 -1.69123 -0.0968735 0
M  V30 4508 O 436.231 -1.7992 0.0536006 0
M  V30 4509 H 432.606 -0.693576 0.290613 0
M  V30 4510 H 434.577 -2.3075 1.89201 0
M  V30 4511 C 433.326 -3.43755 0.522287 0
M  V30 4512 H 432.649 -3.7734 1.32115 0
M  V30 4513 H 434.089 -4.22254 0.384389 0
M  V30 4514 C 432.548 -3.28088 -0.765489 0
M  V30 4515 O 433.078 -3.57921 -1.8236 0
M  V30 4516 N 431.284 -2.81333 -0.728011 0
M  V30 4517 H 430.831 -2.57255 0.133332 0
M  V30 4518 H 430.789 -2.71232 -1.58999 0
M  V30 4519 N 434.561 -1.01147 -1.20859 0
M  V30 4520 C 435.789 -0.716911 -1.94082 0
M  V30 4521 C 436.204 0.721568 -1.74467 0
M  V30 4522 O 435.561 1.48889 -1.05539 0
M  V30 4523 C 435.612 -1.03662 -3.46318 0
M  V30 4524 O 435.333 -2.4186 -3.65288 0
M  V30 4525 C 436.834 -0.762386 -4.36695 0
M  V30 4526 H 434.054 -0.26367 -0.617024 0
M  V30 4527 H 436.598 -1.35127 -1.53496 0
M  V30 4528 H 434.753 -0.447757 -3.84804 0
M  V30 4529 H 435.167 -2.53224 -4.59323 0
M  V30 4530 H 436.641 -1.03621 -5.42187 0
M  V30 4531 H 437.118 0.303514 -4.3815 0
M  V30 4532 H 437.724 -1.33316 -4.03865 0
M  V30 4533 N 436.039 1.36541 -0.78704 0
M  V30 4534 C 437.002 2.28413 -0.189778 0
M  V30 4535 C 438.002 1.48719 0.611499 0
M  V30 4536 O 439.192 1.68737 0.432842 0
M  V30 4537 C 436.324 3.32824 0.737638 0
M  V30 4538 H 437.517 2.82743 -0.999831 0
M  V30 4539 H 435.07 1.46065 -0.556298 0
M  V30 4540 H 435.805 2.83646 1.57212 0
M  V30 4541 H 435.59 3.91752 0.165044 0
M  V30 4542 H 437.08 4.0144 1.15047 0
M  V30 4543 N 437.518 0.538854 1.48102 0
M  V30 4544 C 438.764 0.00801365 2.02798 0
M  V30 4545 C 439.097 -1.3309 1.41424 0
M  V30 4546 O 438.372 -1.86169 0.563158 0
M  V30 4547 C 438.655 -0.104589 3.59948 0
M  V30 4548 C 438.508 1.26012 4.31788 0
M  V30 4549 C 439.827 -0.827055 4.32259 0
M  V30 4550 H 436.946 0.00438624 0.736987 0
M  V30 4551 H 439.588 0.6976 1.7673 0
M  V30 4552 H 437.738 -0.691893 3.82289 0
M  V30 4553 H 439.41 1.88922 4.2084 0
M  V30 4554 H 437.653 1.83968 3.92859 0
M  V30 4555 H 438.324 1.13424 5.40221 0
M  V30 4556 H 440.8 -0.328578 4.14801 0
M  V30 4557 H 439.676 -0.87476 5.41885 0
M  V30 4558 H 439.937 -1.87927 4.0017 0
M  V30 4559 N 438.996 -1.55193 0.274407 0
M  V30 4560 C 439.959 -2.212 -0.600279 0
M  V30 4561 C 440.959 -1.18963 -1.08187 0
M  V30 4562 O 442.149 -1.43873 -0.982158 0
M  V30 4563 C 439.281 -2.87739 -1.82809 0
M  V30 4564 H 440.474 -2.9989 -0.0239682 0
M  V30 4565 H 438.027 -1.5628 0.0250192 0
M  V30 4566 H 438.762 -2.13058 -2.44493 0
M  V30 4567 H 438.547 -3.62658 -1.49069 0
M  V30 4568 H 440.037 -3.38171 -2.45011 0
M  V30 4569 N 440.474 -0.00167713 -1.576 0
M  V30 4570 C 441.723 0.682021 -1.89819 0
M  V30 4571 C 442.036 1.74844 -0.876871 0
M  V30 4572 O 443.242 2.48688 -1.08934 0
M  V30 4573 C 441.698 1.26425 -3.36964 0
M  V30 4574 C 441.306 0.232568 -4.47396 0
M  V30 4575 C 443.05 1.92604 -3.78291 0
M  V30 4576 C 440.957 0.824882 -5.85619 0
M  V30 4577 H 439.887 0.258499 -0.708304 0
M  V30 4578 H 442.538 -0.0624957 -1.83394 0
M  V30 4579 H 440.92 2.05949 -3.38232 0
M  V30 4580 H 442.094 -0.5382 -4.57646 0
M  V30 4581 H 440.409 -0.32888 -4.15099 0
M  V30 4582 H 443.006 2.37827 -4.78897 0
M  V30 4583 H 443.349 2.75732 -3.11894 0
M  V30 4584 H 443.882 1.19812 -3.79328 0
M  V30 4585 H 440.621 0.0323542 -6.55492 0
M  V30 4586 H 440.141 1.56477 -5.79029 0
M  V30 4587 H 441.82 1.32301 -6.33329 0
M  V30 4588 N 441.952 1.55251 0.271103 0
M  V30 4589 C 443.18 1.79974 1.02064 0
M  V30 4590 C 443.595 0.574003 1.79863 0
M  V30 4591 O 442.952 -0.456962 1.76686 0
M  V30 4592 C 443.003 3.02603 1.97772 0
M  V30 4593 O 442.724 4.20443 1.23124 0
M  V30 4594 C 444.225 3.39944 2.84522 0
M  V30 4595 H 441.445 0.599489 0.301419 0
M  V30 4596 H 443.989 2.02268 0.301313 0
M  V30 4597 H 442.144 2.8243 2.65165 0
M  V30 4598 H 442.558 4.89783 1.87651 0
M  V30 4599 H 444.032 4.28915 3.47471 0
M  V30 4600 H 444.509 2.59432 3.54389 0
M  V30 4601 H 445.115 3.62383 2.22618 0
M  V30 4602 N 443.43 -0.535701 1.48216 0
M  V30 4603 C 444.36 -1.65014 1.65204 0
M  V30 4604 C 445.341 -1.62554 0.501011 0
M  V30 4605 O 446.526 -1.7984 0.732886 0
M  V30 4606 C 443.656 -3.03616 1.68626 0
M  V30 4607 C 442.61 -3.20932 2.83172 0
M  V30 4608 C 441.936 -4.60537 2.71679 0
M  V30 4609 C 443.236 -3.04249 4.24535 0
M  V30 4610 H 444.93 -1.51053 2.58502 0
M  V30 4611 H 442.476 -0.725262 1.24402 0
M  V30 4612 H 444.429 -3.81446 1.79099 0
M  V30 4613 H 443.153 -3.18587 0.719026 0
M  V30 4614 H 441.812 -2.45517 2.72244 0
M  V30 4615 H 441.46 -4.72336 1.72937 0
M  V30 4616 H 441.16 -4.73069 3.48538 0
M  V30 4617 H 442.684 -5.40475 2.84112 0
M  V30 4618 H 444.098 -3.71877 4.36326 0
M  V30 4619 H 442.495 -3.28278 5.02348 0
M  V30 4620 H 443.565 -2.00739 4.41397 0
M  V30 4621 N 444.908 -1.36708 -0.784132 0
M  V30 4622 C 445.871 -1.31307 -1.87859 0
M  V30 4623 C 446.871 -0.219654 -1.59293 0
M  V30 4624 O 448.061 -0.47476 -1.67606 0
M  V30 4625 C 445.193 -1.03679 -3.24751 0
M  V30 4626 H 446.386 -2.28647 -1.94064 0
M  V30 4627 H 443.939 -1.21558 -0.98252 0
M  V30 4628 H 444.674 -0.0681936 -3.24228 0
M  V30 4629 H 444.459 -1.82811 -3.46876 0
M  V30 4630 H 445.949 -1.02518 -4.04821 0
M  V30 4631 N 446.386 1.0089 -1.21074 0
M  V30 4632 C 447.626 1.76142 -1.03699 0
M  V30 4633 C 447.99 1.87292 0.422587 0
M  V30 4634 O 449.191 2.59068 0.716752 0
M  V30 4635 C 447.462 3.13805 -1.7106 0
M  V30 4636 S 449.021 4.04996 -1.68889 0
M  V30 4637 H 445.839 0.606113 -0.371683 0
M  V30 4638 H 448.441 1.20744 -1.53756 0
M  V30 4639 H 447.145 3.0332 -2.76451 0
M  V30 4640 H 446.676 3.74276 -1.21166 0
M  V30 4641 H 448.691 4.90842 -0.727211 0
M  V30 4642 N 447.864 1.01787 1.20321 0
M  V30 4643 C 449.111 0.707936 1.89722 0
M  V30 4644 C 449.439 -0.762535 1.78929 0
M  V30 4645 O 448.694 -1.56977 1.16861 0
M  V30 4646 C 448.993 1.09076 3.40349 0
M  V30 4647 C 448.659 2.55765 3.71342 0
M  V30 4648 C 447.321 2.95845 3.79511 0
M  V30 4649 C 449.673 3.50723 3.85542 0
M  V30 4650 C 447.001 4.2982 3.99339 0
M  V30 4651 C 449.353 4.84387 4.06881 0
M  V30 4652 C 448.017 5.24172 4.1328 0
M  V30 4653 H 447.287 0.259052 0.694243 0
M  V30 4654 H 449.934 1.27868 1.42555 0
M  V30 4655 H 448.239 0.438453 3.89339 0
M  V30 4656 H 449.936 0.828636 3.92345 0
M  V30 4657 H 446.526 2.2371 3.65584 0
M  V30 4658 H 450.71 3.20916 3.78585 0
M  V30 4659 H 445.966 4.60196 4.02529 0
M  V30 4660 H 450.14 5.57891 4.1681 0
M  V30 4661 H 447.767 6.27997 4.28396 0
M  V30 4662 N 449.342 -1.36122 0.79427 0
M  V30 4663 C 450.59 -1.98718 0.368177 0
M  V30 4664 C 450.911 -1.63345 -1.06506 0
M  V30 4665 O 450.181 -0.909825 -1.73491 0
M  V30 4666 H 448.761 -0.735038 0.133146 0
M  V30 4667 H 451.423 -1.66239 1.01739 0
M  V30 4668 H 450.519 -3.08633 0.463923 0
M  V30 4669 N 450.82 -0.546701 -1.47814 0
M  V30 4670 C 451.75 0.195317 -2.32682 0
M  V30 4671 C 452.731 0.918981 -1.43139 0
M  V30 4672 O 453.916 0.901501 -1.72008 0
M  V30 4673 C 451.046 1.23237 -3.247 0
M  V30 4674 C 450 0.625818 -4.234 0
M  V30 4675 C 449.326 1.76674 -5.04669 0
M  V30 4676 C 450.626 -0.413515 -5.2066 0
M  V30 4677 H 452.32 -0.513184 -2.94969 0
M  V30 4678 H 449.866 -0.248241 -1.41844 0
M  V30 4679 H 451.819 1.75955 -3.82907 0
M  V30 4680 H 450.543 1.97067 -2.60446 0
M  V30 4681 H 449.202 0.120023 -3.66403 0
M  V30 4682 H 448.85 2.49383 -4.36826 0
M  V30 4683 H 448.55 1.36673 -5.71484 0
M  V30 4684 H 450.074 2.29738 -5.65732 0
M  V30 4685 H 451.488 0.0272042 -5.73294 0
M  V30 4686 H 449.885 -0.731825 -5.95621 0
M  V30 4687 H 450.955 -1.31325 -4.66778 0
M  V30 4688 N 452.299 1.55045 -0.282633 0
M  V30 4689 C 453.262 2.21515 0.588539 0
M  V30 4690 C 454.262 1.19535 1.07554 0
M  V30 4691 O 455.452 1.44391 0.974514 0
M  V30 4692 C 452.584 2.88704 1.8128 0
M  V30 4693 H 453.777 2.99899 0.00806397 0
M  V30 4694 H 451.33 1.56265 -0.0333067 0
M  V30 4695 H 452.065 2.14352 2.43359 0
M  V30 4696 H 451.85 3.63443 1.47144 0
M  V30 4697 H 453.34 3.39465 2.43214 0
M  V30 4698 N 453.777 0.010035 1.57597 0
M  V30 4699 C 455.193 -0.346164 1.55801 0
M  V30 4700 C 455.393 -1.74144 1.01371 0
M  V30 4701 O 454.449 -2.43938 0.651968 0
M  V30 4702 C 455.762 -0.212216 2.9995 0
M  V30 4703 C 457.31 -0.286409 3.11687 0
M  V30 4704 C 457.785 -0.18147 4.5764 0
M  V30 4705 N 459.276 -0.239056 4.62583 0
M  V30 4706 C 460.011 -0.181351 5.73113 0
M  V30 4707 N 459.507 -0.073661 6.92761 0
M  V30 4708 N 461.3 -0.233949 5.61613 0
M  V30 4709 H 453.451 0.922657 1.91313 0
M  V30 4710 H 455.714 0.354595 0.879185 0
M  V30 4711 H 455.42 0.748169 3.4365 0
M  V30 4712 H 455.294 -0.990224 3.6397 0
M  V30 4713 H 457.681 -1.23724 2.67911 0
M  V30 4714 H 457.762 0.521645 2.50425 0
M  V30 4715 H 457.406 0.765863 5.02093 0
M  V30 4716 H 457.336 -1.00814 5.1686 0
M  V30 4717 H 459.827 -0.32321 3.76515 0
M  V30 4718 H 460.14 -0.0358003 7.72792 0
M  V30 4719 H 458.485 -0.0391461 6.94989 0
M  V30 4720 H 461.676 -0.316347 4.6703 0
M  V30 4721 H 461.849 -0.185514 6.47734 0
M  V30 4722 N 455.255 -1.55392 -0.262866 0
M  V30 4723 C 456.165 -1.92077 -1.34698 0
M  V30 4724 C 457.181 -0.819227 -1.53508 0
M  V30 4725 O 458.357 -1.11921 -1.67439 0
M  V30 4726 C 455.422 -2.19407 -2.68443 0
M  V30 4727 C 454.483 -3.42905 -2.58292 0
M  V30 4728 C 453.716 -3.68921 -3.85659 0
M  V30 4729 O 453.939 -2.97275 -4.8681 0
M  V30 4730 O 452.873 -4.62455 -3.85252 0
M  V30 4731 H 456.699 -2.84384 -1.06581 0
M  V30 4732 H 454.284 -1.42069 -0.462264 0
M  V30 4733 H 456.166 -2.38365 -3.47506 0
M  V30 4734 H 454.841 -1.30282 -2.96325 0
M  V30 4735 H 453.748 -3.29272 -1.7757 0
M  V30 4736 H 455.081 -4.32282 -2.35358 0
M  V30 4737 N 456.733 0.527833 -1.48498 0
M  V30 4738 C 457.981 1.28101 -1.56316 0
M  V30 4739 C 458.302 1.9352 -0.239781 0
M  V30 4740 O 457.572 1.81433 0.738849 0
M  V30 4741 H 456.152 0.475793 -0.575873 0
M  V30 4742 H 458.814 0.614052 -1.84974 0
M  V30 4743 H 457.91 2.05916 -2.34532 0
M  V30 4744 N 458.211 1.37122 0.776871 0
M  V30 4745 C 459.159 1.32549 1.91138 0
M  V30 4746 C 460.153 0.215119 1.68029 0
M  V30 4747 O 461.359 0.382852 1.75881 0
M  V30 4748 H 457.734 0.412952 0.62847 0
M  V30 4749 H 459.705 2.28332 1.92112 0
M  V30 4750 C 458.454 1.14422 3.28333 0
M  V30 4751 H 457.777 1.99115 3.46689 0
M  V30 4752 H 459.217 1.15272 4.0803 0
M  V30 4753 C 457.676 -0.150434 3.36564 0
M  V30 4754 O 458.206 -1.13584 3.85307 0
M  V30 4755 N 456.412 -0.19939 2.89915 0
M  V30 4756 H 455.959 0.603142 2.5044 0
M  V30 4757 H 455.917 -1.06526 2.95803 0
M  V30 4758 N 459.689 -1.00246 1.21608 0
M  V30 4759 C 460.639 -2.07492 0.945051 0
M  V30 4760 C 461.623 -1.60585 -0.100675 0
M  V30 4761 O 462.815 -1.76667 0.10859 0
M  V30 4762 C 459.944 -3.39425 0.514342 0
M  V30 4763 C 459.03 -3.92993 1.59428 0
M  V30 4764 N 459.421 -4.19898 2.81991 0
M  V30 4765 C 457.719 -4.21297 1.46374 0
M  V30 4766 C 458.42 -4.63297 3.51754 0
M  V30 4767 N 457.396 -4.66421 2.79199 0
M  V30 4768 H 461.198 -2.26222 1.87619 0
M  V30 4769 H 458.712 -1.18339 1.11219 0
M  V30 4770 H 460.709 -4.15808 0.301527 0
M  V30 4771 H 459.369 -3.22101 -0.410008 0
M  V30 4772 H 460.38 -4.08377 3.1851 0
M  V30 4773 H 457.057 -4.13095 0.604863 0
M  V30 4774 H 458.447 -4.92816 4.56708 0
M  V30 4775 N 461.167 -1.02423 -1.1978 0
M  V30 4776 C 462.114 -0.601023 -2.22837 0
M  V30 4777 C 463.084 0.382801 -1.61629 0
M  V30 4778 O 464.269 0.280514 -1.88727 0
M  V30 4779 C 461.409 0.0467755 -3.45068 0
M  V30 4780 C 460.522 -0.98253 -4.20678 0
M  V30 4781 C 459.657 -0.304982 -5.30324 0
M  V30 4782 C 458.696 -1.32052 -5.97686 0
M  V30 4783 N 457.833 -0.669105 -6.98904 0
M  V30 4784 H 462.673 -1.48444 -2.58396 0
M  V30 4785 H 460.21 -0.742936 -1.2696 0
M  V30 4786 H 462.168 0.439556 -4.14878 0
M  V30 4787 H 460.798 0.893796 -3.10179 0
M  V30 4788 H 459.85 -1.49341 -3.49859 0
M  V30 4789 H 461.162 -1.75455 -4.66923 0
M  V30 4790 H 460.316 0.142893 -6.06532 0
M  V30 4791 H 459.055 0.499283 -4.85138 0
M  V30 4792 H 458.06 -1.7787 -5.20233 0
M  V30 4793 H 459.285 -2.1262 -6.44957 0
M  V30 4794 H 457.231 0.115152 -6.55899 0
M  V30 4795 H 457.148 -1.37908 -7.43315 0
M  V30 4796 H 458.416 -0.245076 -7.79115 0
M  V30 4797 N 462.645 1.35699 -0.801477 0
M  V30 4798 C 464.056 1.81415 -0.441073 0
M  V30 4799 C 464.407 1.66595 1.03636 0
M  V30 4800 O 463.532 1.19369 1.80499 0
M  V30 4801 C 464.127 3.29369 -0.793819 0
M  V30 4802 C 462.686 3.73248 -0.486083 0
M  V30 4803 C 461.833 2.57775 -1.02213 0
M  V30 4804 H 464.784 1.23749 -0.993572 0
M  V30 4805 H 464.805 3.80395 -0.0894158 0
M  V30 4806 H 464.317 3.40123 -1.86917 0
M  V30 4807 H 462.418 3.68046 0.580735 0
M  V30 4808 H 462.531 4.68222 -1.01513 0
M  V30 4809 H 460.895 2.50788 -0.444712 0
M  V30 4810 H 461.678 2.71309 -2.10348 0
M  V30 4811 N 464.123 0.554532 1.47522 0
M  V30 4812 C 465.372 0.0273458 2.01681 0
M  V30 4813 C 465.685 -1.32962 1.43459 0
M  V30 4814 O 466.891 -1.94657 1.89265 0
M  V30 4815 C 465.347 -0.00159057 3.599 0
M  V30 4816 C 464.955 1.35197 4.27113 0
M  V30 4817 C 466.699 -0.476311 4.21819 0
M  V30 4818 C 464.606 1.28229 5.77331 0
M  V30 4819 H 463.536 0.00645269 0.753972 0
M  V30 4820 H 466.187 0.701985 1.69542 0
M  V30 4821 H 464.569 -0.741821 3.8899 0
M  V30 4822 H 465.743 2.1097 4.09668 0
M  V30 4823 H 464.058 1.76441 3.77171 0
M  V30 4824 H 466.655 -0.5468 5.31897 0
M  V30 4825 H 466.998 -1.4877 3.8881 0
M  V30 4826 H 467.531 0.20898 3.97251 0
M  V30 4827 H 464.27 2.26959 6.14955 0
M  V30 4828 H 463.79 0.566314 5.97121 0
M  V30 4829 H 465.469 0.983226 6.39485 0
M  V30 4830 N 465.601 -1.54893 0.290851 0
M  V30 4831 C 466.878 -1.91991 -0.373989 0
M  V30 4832 C 467.258 -1.21694 -1.72493 0
M  V30 4833 O 466.606 -0.34917 -2.25816 0
M  V30 4834 C 466.816 -3.45419 -0.498703 0
M  V30 4835 C 468.164 -4.1748 -0.774298 0
M  V30 4836 O 469.188 -3.51398 -0.582908 0
M  V30 4837 O 468.047 -5.3445 -1.14129 0
M  V30 4838 H 465.141 -0.800593 -0.207315 0
M  V30 4839 H 467.687 -1.66297 0.338164 0
M  V30 4840 H 466.459 -3.88688 0.451392 0
M  V30 4841 H 466.082 -3.77117 -1.25972 0
M  V30 4842 N 467.08 -0.0183926 -1.57589 0
M  V30 4843 C 468.31 0.67207 -1.95363 0
M  V30 4844 C 468.718 1.66807 -0.892872 0
M  V30 4845 O 468.061 1.83204 0.134958 0
M  V30 4846 C 468.123 1.44397 -3.29226 0
M  V30 4847 C 467.787 0.607511 -4.52944 0
M  V30 4848 C 468.784 -0.112657 -5.19778 0
M  V30 4849 C 466.469 0.548068 -4.99301 0
M  V30 4850 C 468.463 -0.881057 -6.31281 0
M  V30 4851 C 466.15 -0.224044 -6.10689 0
M  V30 4852 C 467.148 -0.937323 -6.76538 0
M  V30 4853 O 466.836 -1.6968 -7.85789 0
M  V30 4854 H 466.568 0.190925 -0.648478 0
M  V30 4855 H 469.122 -0.0711994 -2.05277 0
M  V30 4856 H 467.352 2.23214 -3.15773 0
M  V30 4857 H 469.041 2.02152 -3.51979 0
M  V30 4858 H 469.807 -0.0759998 -4.8494 0
M  V30 4859 H 465.686 1.09281 -4.4786 0
M  V30 4860 H 469.23 -1.43832 -6.82611 0
M  V30 4861 H 465.127 -0.262457 -6.44966 0
M  V30 4862 H 465.895 -1.61544 -8.024 0
M  V30 4863 N 468.558 1.5553 0.254621 0
M  V30 4864 C 469.488 1.9268 1.31897 0
M  V30 4865 C 470.469 0.790797 1.506 0
M  V30 4866 O 471.654 1.05045 1.63337 0
M  V30 4867 C 468.784 2.21477 2.67517 0
M  V30 4868 C 467.738 3.37256 2.63519 0
M  V30 4869 C 467.064 3.51576 4.02862 0
M  V30 4870 C 468.364 4.73157 2.21179 0
M  V30 4871 H 470.058 2.81832 1.01051 0
M  V30 4872 H 467.604 1.35599 0.484662 0
M  V30 4873 H 469.557 2.46055 3.42104 0
M  V30 4874 H 468.281 1.29144 2.99982 0
M  V30 4875 H 466.94 3.12675 1.9139 0
M  V30 4876 H 466.588 2.56676 4.32581 0
M  V30 4877 H 466.288 4.2943 4.01078 0
M  V30 4878 H 467.812 3.78467 4.79161 0
M  V30 4879 H 469.226 4.97158 2.85494 0
M  V30 4880 H 467.623 5.54058 2.30521 0
M  V30 4881 H 468.693 4.70739 1.16332 0
M  V30 4882 N 470.036 -0.519951 1.48776 0
M  V30 4883 C 470.984 -1.64443 1.64503 0
M  V30 4884 C 471.978 -1.61501 0.511248 0
M  V30 4885 O 473.184 -1.66238 0.690294 0
M  V30 4886 H 469.559 -0.544776 0.518385 0
M  V30 4887 H 471.53 -1.48325 2.58925 0
M  V30 4888 C 470.279 -3.02673 1.71127 0
M  V30 4889 H 469.602 -3.05635 2.57735 0
M  V30 4890 H 471.042 -3.80941 1.86172 0
M  V30 4891 C 469.501 -3.33854 0.452032 0
M  V30 4892 O 470.031 -3.99385 -0.430678 0
M  V30 4893 N 468.237 -2.88825 0.32069 0
M  V30 4894 H 467.784 -2.35674 1.03998 0
M  V30 4895 H 467.742 -3.10056 -0.520814 0
M  V30 4896 N 471.514 -1.37532 -0.769588 0
M  V30 4897 C 472.925 -1.29382 -1.346 0
M  V30 4898 C 473.276 0.0576039 -1.96115 0
M  V30 4899 O 472.401 0.95947 -1.93967 0
M  V30 4900 C 472.996 -2.34298 -2.44724 0
M  V30 4901 C 471.555 -2.29776 -2.98128 0
M  V30 4902 C 470.702 -2.18013 -1.71364 0
M  V30 4903 H 473.653 -1.48123 -0.56968 0
M  V30 4904 H 473.674 -1.99089 -3.24259 0
M  V30 4905 H 473.186 -3.32645 -1.99922 0
M  V30 4906 H 471.287 -1.34959 -3.47299 0
M  V30 4907 H 471.4 -3.23276 -3.53595 0
M  V30 4908 H 469.764 -1.64595 -1.94372 0
M  V30 4909 H 470.547 -3.18278 -1.28662 0
M  V30 4910 N 472.992 0.995999 -1.22138 0
M  V30 4911 C 474.403 1.54961 -1.04135 0
M  V30 4912 C 474.754 1.92159 0.396147 0
M  V30 4913 O 473.879 1.74435 1.28069 0
M  V30 4914 C 474.474 2.81581 -1.88408 0
M  V30 4915 C 473.033 3.33396 -1.74712 0
M  V30 4916 C 472.18 2.06509 -1.85066 0
M  V30 4917 H 475.131 0.817436 -1.36028 0
M  V30 4918 H 475.152 3.53822 -1.39966 0
M  V30 4919 H 474.664 2.54476 -2.93025 0
M  V30 4920 H 472.765 3.65416 -0.728159 0
M  V30 4921 H 472.878 4.04208 -2.57202 0
M  V30 4922 H 471.242 2.19925 -1.28472 0
M  V30 4923 H 472.025 1.81804 -2.91208 0
M  V30 4924 N 474.47 1.03057 1.19235 0
M  V30 4925 C 475.417 0.612832 2.22515 0
M  V30 4926 C 476.387 -0.374224 1.61829 0
M  V30 4927 O 477.572 -0.270501 1.88873 0
M  V30 4928 C 474.712 -0.028475 3.45088 0
M  V30 4929 C 473.825 1.00483 4.20151 0
M  V30 4930 C 472.96 0.333102 5.30155 0
M  V30 4931 C 471.999 1.3522 5.96977 0
M  V30 4932 N 471.136 0.70616 6.9854 0
M  V30 4933 H 475.976 1.49812 2.57605 0
M  V30 4934 H 473.513 0.749658 1.26564 0
M  V30 4935 H 475.471 -0.417548 4.15105 0
M  V30 4936 H 474.101 -0.877334 3.10649 0
M  V30 4937 H 473.153 1.51194 3.49062 0
M  V30 4938 H 474.465 1.77929 4.65986 0
M  V30 4939 H 473.619 -0.110725 6.06599 0
M  V30 4940 H 472.358 -0.473547 4.85396 0
M  V30 4941 H 471.363 1.80627 5.19282 0
M  V30 4942 H 472.588 2.16037 6.4382 0
M  V30 4943 H 470.534 -0.0803667 6.55951 0
M  V30 4944 H 470.451 1.41848 7.42573 0
M  V30 4945 H 471.719 0.286391 7.78974 0
M  V30 4946 O 475.987 -1.31014 0.944336 0
M  V30 4947 H 476.678 -1.85017 0.573431 0
M  V30 END ATOM
M  V30 BEGIN BOND
M  V30 END BOND
M  V30 END CTAB
M  END
$$$$
