drugbank_target|P12528 Tail fiber protein (DB02379; DB02590; DB04028)
 OpenBabel12092119523D

  0  0  0     0  0            999 V3000
M  V30 BEGIN CTAB
M  V30 COUNTS 10034 10137 0 0 0
M  V30 BEGIN ATOM
M  V30 1 H -0.908 1.98254 -0.117106 0
M  V30 2 N 0 1.576 0 0
M  V30 3 C 0.933 2.03868 1.02534 0
M  V30 4 C 1.911 0.928543 1.3348 0
M  V30 5 O 3.095 1.19667 1.45644 0
M  V30 6 C 0.222 2.43627 2.35294 0
M  V30 7 C -0.732 3.65373 2.2001 0
M  V30 8 S 0.101 5.13292 1.52614 0
M  V30 9 C 1.257 5.56322 2.86805 0
M  V30 10 H 1.49 2.90518 0.631377 0
M  V30 11 H -0.977 1.52953 0.210867 0
M  V30 12 H 0.981 2.67203 3.11629 0
M  V30 13 H -0.358 1.57376 2.7183 0
M  V30 14 H -1.165 3.90944 3.18086 0
M  V30 15 H -1.563 3.418 1.51819 0
M  V30 16 H 0.729 5.58782 3.83104 0
M  V30 17 H 1.672 6.56266 2.65933 0
M  V30 18 H 2.08 4.83886 2.90714 0
M  V30 19 N 1.4781 -0.272755 1.55222 0
M  V30 20 C 2.7061 -1.02255 1.79865 0
M  V30 21 C 3.1211 -1.79924 0.572088 0
M  V30 22 O 2.4781 -1.76638 -0.458842 0
M  V30 23 C 2.5291 -1.98094 3.02392 0
M  V30 24 O 2.2501 -1.23572 4.20311 0
M  V30 25 C 3.7511 -2.84884 3.39641 0
M  V30 26 H 0.9711 -0.302057 0.599168 0
M  V30 27 H 3.5151 -0.303465 2.02236 0
M  V30 28 H 1.6701 -2.65465 2.82147 0
M  V30 29 H 2.0841 -1.88172 4.89583 0
M  V30 30 H 3.5581 -3.47927 4.28545 0
M  V30 31 H 4.0351 -3.54665 2.59055 0
M  V30 32 H 4.6411 -2.23003 3.62146 0
M  V30 33 N 2.9562 -1.48159 -0.537278 0
M  V30 34 C 4.2332 -1.46291 -1.29839 0
M  V30 35 C 4.6132 -0.170613 -2.10409 0
M  V30 36 O 3.9612 0.847746 -2.12192 0
M  V30 37 C 4.1712 -2.72055 -2.18603 0
M  V30 38 C 5.5192 -3.20087 -2.7898 0
M  V30 39 O 6.5432 -2.72921 -2.28894 0
M  V30 40 O 5.4022 -4.02138 -3.70064 0
M  V30 41 H 2.4962 -0.583906 -0.585647 0
M  V30 42 H 5.0422 -1.60384 -0.554534 0
M  V30 43 H 3.8142 -3.57628 -1.58801 0
M  V30 44 H 3.4372 -2.60646 -3.00249 0
M  V30 45 N 4.4343 0.785586 -1.36625 0
M  V30 46 C 5.6833 1.53883 -1.30396 0
M  V30 47 C 5.9963 1.95271 0.113452 0
M  V30 48 O 7.2023 2.69858 0.298142 0
M  V30 49 C 5.6583 2.77808 -2.28802 0
M  V30 50 C 5.2663 2.43574 -3.75999 0
M  V30 51 C 7.0103 3.55783 -2.31558 0
M  V30 52 C 4.9173 3.63919 -4.66173 0
M  V30 53 H 3.8473 0.577678 -0.484566 0
M  V30 54 H 6.4983 0.861705 -1.62009 0
M  V30 55 H 4.8803 3.47339 -1.90188 0
M  V30 56 H 6.0543 1.81916 -4.23371 0
M  V30 57 H 4.3693 1.78803 -3.76056 0
M  V30 58 H 6.9663 4.45205 -2.96137 0
M  V30 59 H 7.3093 3.94644 -1.3252 0
M  V30 60 H 7.8423 2.93235 -2.68809 0
M  V30 61 H 4.5813 3.3015 -5.66287 0
M  V30 62 H 4.1013 4.2473 -4.23515 0
M  V30 63 H 5.7803 4.30901 -4.82632 0
M  V30 64 N 5.9124 1.20967 1.01018 0
M  V30 65 C 7.1404 1.04956 1.78303 0
M  V30 66 C 7.5554 -0.400915 1.84494 0
M  V30 67 O 6.9124 -1.27826 1.30257 0
M  V30 68 C 6.9634 1.63403 3.22462 0
M  V30 69 O 6.6844 3.02775 3.16637 0
M  V30 70 C 8.1854 1.52432 4.16268 0
M  V30 71 H 5.4054 0.368858 0.560522 0
M  V30 72 H 7.9494 1.60193 1.27116 0
M  V30 73 H 6.1044 1.1227 3.70775 0
M  V30 74 H 6.5184 3.30626 4.07169 0
M  V30 75 H 7.9924 1.98078 5.15237 0
M  V30 76 H 8.4694 0.477875 4.36592 0
M  V30 77 H 9.0754 2.02787 3.73841 0
M  V30 78 N 7.3905 -1.2043 1.01659 0
M  V30 79 C 8.3535 -2.21433 0.591616 0
M  V30 80 C 9.3535 -1.57203 -0.338226 0
M  V30 81 O 10.5435 -1.73737 -0.126918 0
M  V30 82 C 7.6755 -3.40628 -0.136058 0
M  V30 83 H 8.8685 -2.60545 1.48514 0
M  V30 84 H 6.4215 -1.33893 0.806379 0
M  V30 85 H 7.1565 -3.07019 -1.04449 0
M  V30 86 H 6.9415 -3.88475 0.531917 0
M  V30 87 H 8.4315 -4.15475 -0.420735 0
M  V30 88 N 8.8686 -0.792821 -1.36206 0
M  V30 89 C 9.8166 -0.181555 -2.3189 0
M  V30 90 C 10.8106 0.661025 -1.55971 0
M  V30 91 O 12.0166 0.555728 -1.71206 0
M  V30 92 H 8.3916 -0.0399382 -0.750939 0
M  V30 93 H 10.3626 -1.00394 -2.81005 0
M  V30 94 C 9.1116 0.666444 -3.41253 0
M  V30 95 H 8.4346 0.0274489 -3.99791 0
M  V30 96 H 9.8746 1.06076 -4.10517 0
M  V30 97 C 8.3336 1.82614 -2.83114 0
M  V30 98 O 8.8636 2.9229 -2.75553 0
M  V30 99 N 7.0696 1.63333 -2.40356 0
M  V30 100 H 6.6166 0.741217 -2.46706 0
M  V30 101 H 6.5746 2.41087 -2.01803 0
M  V30 102 N 10.3467 1.47872 -0.545128 0
M  V30 103 C 11.5927 2.02793 -0.0166104 0
M  V30 104 C 11.9257 1.41987 1.32489 0
M  V30 105 O 11.2007 0.571045 1.85928 0
M  V30 106 C 11.4837 3.59989 0.0893294 0
M  V30 107 C 11.3367 4.3125 -1.27841 0
M  V30 108 C 12.6557 4.32606 0.808724 0
M  V30 109 H 9.7747 0.736962 -0.00751035 0
M  V30 110 H 12.4167 1.76433 -0.705085 0
M  V30 111 H 10.5667 3.82579 0.675681 0
M  V30 112 H 12.2387 4.20035 -1.90704 0
M  V30 113 H 10.4817 3.92076 -1.85632 0
M  V30 114 H 11.1527 5.39736 -1.15713 0
M  V30 115 H 13.6287 4.14936 0.310992 0
M  V30 116 H 12.5047 5.42251 0.851782 0
M  V30 117 H 12.7657 4.00963 1.86229 0
M  V30 118 N 11.8248 0.280983 1.55075 0
M  V30 119 C 13.0708 -0.33461 2.00021 0
M  V30 120 C 13.4038 -1.55063 1.16915 0
M  V30 121 O 12.6788 -1.93006 0.240646 0
M  V30 122 C 12.9618 -0.711007 3.53011 0
M  V30 123 C 12.8148 0.512766 4.46868 0
M  V30 124 C 14.1338 -1.54522 4.12081 0
M  V30 125 H 11.2528 -0.120147 0.727141 0
M  V30 126 H 13.8948 0.389097 1.85973 0
M  V30 127 H 12.0448 -1.32761 3.65112 0
M  V30 128 H 13.7168 1.15131 4.46702 0
M  V30 129 H 11.9598 1.14975 4.18286 0
M  V30 130 H 12.6308 0.205556 5.51617 0
M  V30 131 H 15.1068 -1.02442 4.03293 0
M  V30 132 H 13.9828 -1.77739 5.19327 0
M  V30 133 H 14.2438 -2.52813 3.62682 0
M  V30 134 N 13.3029 -1.57598 0.00835791 0
M  V30 135 C 14.5489 -1.91211 -0.675732 0
M  V30 136 C 14.8819 -0.883139 -1.72958 0
M  V30 137 O 14.1569 0.097016 -1.94258 0
M  V30 138 C 14.4399 -3.35379 -1.31123 0
M  V30 139 C 14.2929 -4.48999 -0.268356 0
M  V30 140 C 15.6119 -3.7912 -2.23508 0
M  V30 141 H 12.7309 -0.695374 -0.244179 0
M  V30 142 H 15.3729 -1.89901 0.0613655 0
M  V30 143 H 13.5229 -3.36626 -1.93946 0
M  V30 144 H 15.1949 -4.59887 0.360844 0
M  V30 145 H 13.4379 -4.31873 0.408482 0
M  V30 146 H 14.1089 -5.46851 -0.752218 0
M  V30 147 H 16.5849 -3.79477 -1.70693 0
M  V30 148 H 15.4609 -4.80729 -2.64936 0
M  V30 149 H 15.7219 -3.13455 -3.11766 0
M  V30 150 N 14.781 0.264519 -1.55364 0
M  V30 151 C 16.006 1.01726 -1.80739 0
M  V30 152 C 16.431 1.78836 -0.583044 0
M  V30 153 O 15.789 1.75167 0.467566 0
M  V30 154 C 15.837 1.94482 -3.03659 0
M  V30 155 O 14.941 3.03386 -2.7934 0
M  V30 156 H 14.282 0.290395 -0.597132 0
M  V30 157 H 16.812 0.290854 -2.02522 0
M  V30 158 H 16.822 2.36278 -3.32621 0
M  V30 159 H 15.497 1.37772 -3.92418 0
M  V30 160 H 14.074 2.65844 -2.61498 0
M  V30 161 N 16.2591 1.48442 0.529413 0
M  V30 162 C 17.2071 1.63452 1.65487 0
M  V30 163 C 18.2011 0.500955 1.61823 0
M  V30 164 O 19.4071 0.679695 1.66674 0
M  V30 165 H 15.7821 0.514905 0.548066 0
M  V30 166 H 17.7531 2.57975 1.49971 0
M  V30 167 C 16.5021 1.69196 3.03756 0
M  V30 168 H 15.8251 2.55784 3.07269 0
M  V30 169 H 17.2651 1.83743 3.82119 0
M  V30 170 C 15.7241 0.430765 3.34135 0
M  V30 171 O 16.2541 -0.4561 3.99102 0
M  V30 172 N 14.4601 0.302293 2.89023 0
M  V30 173 H 14.0071 1.02496 2.36331 0
M  V30 174 H 13.9651 -0.540546 3.09718 0
M  V30 175 N 17.7372 -0.778329 1.37039 0
M  V30 176 C 19.1482 -1.35421 1.28523 0
M  V30 177 C 19.4992 -1.96075 -0.0700901 0
M  V30 178 O 18.6242 -1.93352 -0.971801 0
M  V30 179 C 19.2192 -2.46211 2.32735 0
M  V30 180 C 17.7782 -2.99585 2.27873 0
M  V30 181 C 16.9252 -1.72748 2.16918 0
M  V30 182 H 19.8762 -0.5791 1.47757 0
M  V30 183 H 19.8972 -3.2552 1.9702 0
M  V30 184 H 19.4092 -2.02036 3.31365 0
M  V30 185 H 17.5102 -3.48152 1.32745 0
M  V30 186 H 17.6232 -3.55646 3.21018 0
M  V30 187 H 15.9872 -1.95416 1.63354 0
M  V30 188 H 16.7702 -1.30686 3.17452 0
M  V30 189 N 19.2153 -1.21501 -1.00376 0
M  V30 190 C 20.6313 -0.972629 -1.26539 0
M  V30 191 C 20.8313 0.340257 -1.98606 0
M  V30 192 O 19.8873 1.06561 -2.28913 0
M  V30 193 C 21.2003 -2.16404 -2.08781 0
M  V30 194 C 22.7483 -2.20643 -2.22004 0
M  V30 195 C 23.2233 -3.39306 -3.07629 0
M  V30 196 N 24.7143 -3.39401 -3.15217 0
M  V30 197 C 25.4493 -4.27867 -3.81729 0
M  V30 198 N 24.9453 -5.26533 -4.5026 0
M  V30 199 N 26.7383 -4.15672 -3.78382 0
M  V30 200 H 18.8893 -2.05929 -0.520281 0
M  V30 201 H 21.1523 -0.901803 -0.292328 0
M  V30 202 H 20.8583 -3.11554 -1.63178 0
M  V30 203 H 20.7323 -2.15567 -3.09533 0
M  V30 204 H 23.1193 -1.26048 -2.66825 0
M  V30 205 H 23.2003 -2.25523 -1.20718 0
M  V30 206 H 22.8443 -4.34195 -2.63509 0
M  V30 207 H 22.7743 -3.31665 -4.09031 0
M  V30 208 H 25.2653 -2.67997 -2.66432 0
M  V30 209 H 25.5783 -5.90337 -4.98721 0
M  V30 210 H 23.9233 -5.30457 -4.49044 0
M  V30 211 H 27.1143 -3.3785 -3.23998 0
M  V30 212 H 27.2873 -4.84825 -4.2994 0
M  V30 213 N 20.6934 1.19889 -1.02296 0
M  V30 214 C 22.1044 1.71124 -0.746568 0
M  V30 215 C 22.4554 1.81939 0.734335 0
M  V30 216 O 21.5804 1.48639 1.57275 0
M  V30 217 C 22.1754 3.10804 -1.34857 0
M  V30 218 C 20.7344 3.59323 -1.1209 0
M  V30 219 C 19.8814 2.3635 -1.45031 0
M  V30 220 H 22.8324 1.04813 -1.19163 0
M  V30 221 H 22.8534 3.73186 -0.742437 0
M  V30 222 H 22.3654 3.029 -2.42638 0
M  V30 223 H 20.4664 3.7255 -0.0610337 0
M  V30 224 H 20.5794 4.4378 -1.80544 0
M  V30 225 H 18.9434 2.39399 -0.869487 0
M  V30 226 H 19.7264 2.31081 -2.53883 0
M  V30 227 N 22.1715 0.800033 1.35784 0
M  V30 228 C 23.4205 0.37387 1.98205 0
M  V30 229 C 23.7335 -1.06302 1.64193 0
M  V30 230 O 24.9395 -1.59198 2.19928 0
M  V30 231 C 23.3955 0.617532 3.54562 0
M  V30 232 C 23.0035 2.06654 3.9749 0
M  V30 233 C 24.7475 0.256401 4.23725 0
M  V30 234 C 22.6545 2.2563 5.46667 0
M  V30 235 H 21.5845 0.136055 0.741623 0
M  V30 236 H 24.2355 0.983166 1.54939 0
M  V30 237 H 22.6175 -0.0616248 3.95952 0
M  V30 238 H 23.7915 2.78296 3.67271 0
M  V30 239 H 22.1065 2.38691 3.41197 0
M  V30 240 H 24.7035 0.376318 5.33374 0
M  V30 241 H 25.0465 -0.796692 4.08606 0
M  V30 242 H 25.5795 0.889214 3.87734 0
M  V30 243 H 22.3185 3.2936 5.66747 0
M  V30 244 H 21.8385 1.58504 5.78478 0
M  V30 245 H 23.5175 2.06861 6.1304 0
M  V30 246 N 23.6496 -1.47581 0.552962 0
M  V30 247 C 24.8966 -2.02482 0.0273243 0
M  V30 248 C 25.2246 -1.42776 -1.32081 0
M  V30 249 O 24.4796 -0.571393 -1.87173 0
M  V30 250 C 24.7786 -3.57199 -0.119728 0
M  V30 251 C 24.4446 -4.35804 1.15697 0
M  V30 252 C 23.1066 -4.57 1.50681 0
M  V30 253 C 25.4586 -4.81167 2.00319 0
M  V30 254 C 22.7866 -5.20807 2.70142 0
M  V30 255 C 25.1386 -5.46293 3.18978 0
M  V30 256 C 23.8026 -5.65722 3.54281 0
M  V30 257 H 23.0726 -0.740933 0.00999866 0
M  V30 258 H 25.7196 -1.77302 0.72362 0
M  V30 259 H 24.0246 -3.81348 -0.89896 0
M  V30 260 H 25.7216 -3.97324 -0.541718 0
M  V30 261 H 22.3116 -4.19582 0.874561 0
M  V30 262 H 26.4956 -4.64574 1.74599 0
M  V30 263 H 21.7516 -5.34045 2.97668 0
M  V30 264 H 25.9256 -5.80407 3.84838 0
M  V30 265 H 23.5526 -6.14936 4.46942 0
M  V30 266 N 25.1277 -0.289203 -1.54924 0
M  V30 267 C 26.3557 0.326463 -2.04308 0
M  V30 268 C 26.7707 1.48413 -1.16701 0
M  V30 269 O 26.1277 1.81507 -0.190087 0
M  V30 270 C 26.1787 0.794014 -3.52672 0
M  V30 271 O 25.8997 -0.317564 -4.36948 0
M  V30 272 C 27.4007 1.47605 -4.18004 0
M  V30 273 H 24.6207 0.0726272 -0.667058 0
M  V30 274 H 27.1647 -0.425401 -2.00026 0
M  V30 275 H 25.3197 1.49593 -3.57352 0
M  V30 276 H 25.7337 0.0443186 -5.24481 0
M  V30 277 H 27.2077 1.75447 -5.23376 0
M  V30 278 H 27.6847 2.41224 -3.67025 0
M  V30 279 H 28.2907 0.81762 -4.17367 0
M  V30 280 N 26.6058 1.57591 -0.0167156 0
M  V30 281 C 27.5158 2.1291 0.98521 0
M  V30 282 C 28.5318 1.07834 1.36557 0
M  V30 283 O 29.7078 1.39826 1.44951 0
M  V30 284 C 26.7728 2.63512 2.25305 0
M  V30 285 C 25.8338 3.83256 1.93426 0
M  V30 286 C 25.0668 4.31435 3.14165 0
M  V30 287 O 25.2898 3.78851 4.26413 0
M  V30 288 O 24.2238 5.23416 2.97186 0
M  V30 289 H 28.0498 2.98772 0.544888 0
M  V30 290 H 25.6348 1.48012 0.203141 0
M  V30 291 H 27.5168 2.96183 2.99756 0
M  V30 292 H 26.1918 1.8074 2.68542 0
M  V30 293 H 25.0988 3.55531 1.16398 0
M  V30 294 H 26.4318 4.67153 1.55013 0
M  V30 295 N 28.0839 -0.256276 1.55502 0
M  V30 296 C 29.3089 -1.00766 1.81276 0
M  V30 297 C 29.7339 -1.78524 0.59252 0
M  V30 298 O 29.0919 -1.75413 -0.45827 0
M  V30 299 C 29.1399 -1.92869 3.04687 0
M  V30 300 O 28.2439 -3.019 2.80945 0
M  V30 301 H 27.5849 -0.287224 0.598664 0
M  V30 302 H 30.1149 -0.280109 2.02674 0
M  V30 303 H 30.1249 -2.34511 3.33869 0
M  V30 304 H 28.7999 -1.35689 3.93143 0
M  V30 305 H 27.3769 -2.64454 2.62904 0
M  V30 306 N 29.562 -1.4872 -0.521534 0
M  V30 307 C 30.978 -1.35028 -0.850855 0
M  V30 308 C 31.178 -0.367712 -1.98116 0
M  V30 309 O 30.234 0.208037 -2.51642 0
M  V30 310 C 31.547 -2.75263 -1.21041 0
M  V30 311 C 33.095 -2.83813 -1.31981 0
M  V30 312 C 33.57 -4.24769 -1.71276 0
M  V30 313 N 35.061 -4.27482 -1.78363 0
M  V30 314 C 35.796 -5.33494 -2.1017 0
M  V30 315 N 35.292 -6.49775 -2.40343 0
M  V30 316 N 37.085 -5.20894 -2.11248 0
M  V30 317 H 29.236 -2.11214 0.22413 0
M  V30 318 H 31.499 -0.947252 0.0376439 0
M  V30 319 H 31.205 -3.48765 -0.453415 0
M  V30 320 H 31.079 -3.09327 -2.15863 0
M  V30 321 H 33.466 -2.10561 -2.06756 0
M  V30 322 H 33.547 -2.53358 -0.352596 0
M  V30 323 H 33.191 -4.9854 -0.970588 0
M  V30 324 H 33.121 -4.52673 -2.69062 0
M  V30 325 H 35.612 -3.43611 -1.57288 0
M  V30 326 H 35.925 -7.26402 -2.63743 0
M  V30 327 H 34.27 -6.53035 -2.37844 0
M  V30 328 H 37.461 -4.29065 -1.87139 0
M  V30 329 H 37.634 -6.03612 -2.35704 0
M  V30 330 N 31.0401 0.771051 -1.3745 0
M  V30 331 C 32.2651 1.56529 -1.36065 0
M  V30 332 C 32.6901 1.88029 0.0515859 0
M  V30 333 O 32.0481 1.49282 1.02882 0
M  V30 334 C 32.0961 2.85187 -2.20683 0
M  V30 335 O 31.2001 3.79593 -1.61193 0
M  V30 336 H 30.5411 0.47411 -0.464883 0
M  V30 337 H 33.0711 0.954269 -1.80983 0
M  V30 338 H 33.0811 3.34283 -2.33921 0
M  V30 339 H 31.7561 2.61588 -3.23334 0
M  V30 340 H 30.3331 3.38239 -1.56999 0
M  V30 341 N 32.5182 1.22032 0.997298 0
M  V30 342 C 33.7652 1.04222 1.73621 0
M  V30 343 C 34.0932 -0.423264 1.89839 0
M  V30 344 O 33.3482 -1.3302 1.43542 0
M  V30 345 C 33.6472 1.69345 3.14733 0
M  V30 346 C 33.3132 3.19226 3.18442 0
M  V30 347 C 31.9752 3.60124 3.19161 0
M  V30 348 C 34.3272 4.15181 3.15078 0
M  V30 349 C 31.6552 4.95467 3.14212 0
M  V30 350 C 34.0072 5.50495 3.1167 0
M  V30 351 C 32.6712 5.90779 3.10703 0
M  V30 352 H 31.9412 0.381374 0.635323 0
M  V30 353 H 34.5882 1.51732 1.16831 0
M  V30 354 H 32.8932 1.14147 3.74803 0
M  V30 355 H 34.5902 1.53059 3.7064 0
M  V30 356 H 31.1802 2.86659 3.18629 0
M  V30 357 H 35.3642 3.84605 3.13676 0
M  V30 358 H 30.6202 5.25916 3.11805 0
M  V30 359 H 34.7942 6.24576 3.08022 0
M  V30 360 H 32.4212 6.9562 3.06622 0
M  V30 361 N 33.9963 -1.19345 1.0293 0
M  V30 362 C 34.9433 -2.2258 0.610464 0
M  V30 363 C 35.9133 -1.6179 -0.375946 0
M  V30 364 O 37.0983 -1.88844 -0.272511 0
M  V30 365 C 34.2383 -3.45085 -0.0321473 0
M  V30 366 C 33.3513 -4.20258 1.00035 0
M  V30 367 C 32.4863 -5.3019 0.32746 0
M  V30 368 C 31.5253 -5.97121 1.34584 0
M  V30 369 N 30.6623 -6.98615 0.698726 0
M  V30 370 H 35.5023 -2.57764 1.49538 0
M  V30 371 H 33.0393 -1.26644 0.748311 0
M  V30 372 H 34.9973 -4.15061 -0.421966 0
M  V30 373 H 33.6273 -3.10555 -0.88064 0
M  V30 374 H 32.6793 -3.49223 1.50823 0
M  V30 375 H 33.9913 -4.66175 1.77433 0
M  V30 376 H 33.1453 -6.06587 -0.11718 0
M  V30 377 H 31.8843 -4.85345 -0.478713 0
M  V30 378 H 30.8893 -5.19474 1.80074 0
M  V30 379 H 32.1143 -6.4405 2.15352 0
M  V30 380 H 30.0603 -6.55942 -0.0873471 0
M  V30 381 H 29.9773 -7.42724 1.41058 0
M  V30 382 H 31.2453 -7.79004 0.278102 0
M  V30 383 N 35.4744 -0.807222 -1.35358 0
M  V30 384 C 36.4374 -0.223665 -2.28106 0
M  V30 385 C 37.4374 0.589354 -1.4961 0
M  V30 386 O 38.6274 0.407745 -1.69361 0
M  V30 387 C 35.7594 0.688149 -3.33882 0
M  V30 388 H 36.9524 -1.04169 -2.81227 0
M  V30 389 H 34.5054 -0.577921 -1.45223 0
M  V30 390 H 35.2404 1.52984 -2.85948 0
M  V30 391 H 35.0254 0.10687 -3.91954 0
M  V30 392 H 36.5154 1.09075 -4.03104 0
M  V30 393 N 36.9525 1.47285 -0.560781 0
M  V30 394 C 38.1985 2.02764 -0.0381184 0
M  V30 395 C 38.5315 1.43384 1.30976 0
M  V30 396 O 37.8065 0.590733 1.85312 0
M  V30 397 C 38.0895 3.60064 0.0511427 0
M  V30 398 C 37.9425 4.2987 -1.32408 0
M  V30 399 C 39.2615 4.33439 0.762795 0
M  V30 400 H 36.3805 0.736841 -0.0153264 0
M  V30 401 H 39.0225 1.75675 -0.723759 0
M  V30 402 H 37.1725 3.83274 0.635065 0
M  V30 403 H 38.8445 4.17989 -1.95148 0
M  V30 404 H 37.0875 3.90085 -1.8978 0
M  V30 405 H 37.7585 5.38478 -1.21431 0
M  V30 406 H 40.2345 4.15243 0.266965 0
M  V30 407 H 39.1105 5.43124 0.794221 0
M  V30 408 H 39.3715 4.02915 1.81966 0
M  V30 409 N 38.4306 0.297415 1.54768 0
M  V30 410 C 39.3936 -0.567375 2.22066 0
M  V30 411 C 40.3936 -1.06409 1.20556 0
M  V30 412 O 41.5836 -0.960691 1.45315 0
M  V30 413 C 38.7156 -1.78517 2.90421 0
M  V30 414 H 39.9086 0.0205534 2.99893 0
M  V30 415 H 37.4616 0.0482163 1.56226 0
M  V30 416 H 38.1966 -2.41303 2.16664 0
M  V30 417 H 37.9816 -1.43669 3.64831 0
M  V30 418 H 39.4716 -2.39964 3.41771 0
M  V30 419 N 39.9087 -1.5758 0.0250728 0
M  V30 420 C 40.8567 -2.11125 -0.97617 0
M  V30 421 C 41.8507 -1.03689 -1.33959 0
M  V30 422 O 43.0567 -1.22128 -1.3223 0
M  V30 423 H 39.4317 -0.674468 -0.332561 0
M  V30 424 H 41.4027 -2.94194 -0.499223 0
M  V30 425 C 40.1517 -2.65017 -2.2508 0
M  V30 426 H 39.4747 -3.47333 -1.9799 0
M  V30 427 H 40.9147 -3.06133 -2.93357 0
M  V30 428 C 39.3737 -1.57574 -2.97779 0
M  V30 429 O 39.9037 -0.973203 -3.89733 0
M  V30 430 N 38.1097 -1.29716 -2.60043 0
M  V30 431 H 37.6567 -1.789 -1.85345 0
M  V30 432 H 37.6147 -0.58051 -3.08994 0
M  V30 433 N 41.3868 0.248026 -1.55636 0
M  V30 434 C 42.6348 0.974295 -1.77065 0
M  V30 435 C 42.9558 1.85897 -0.588849 0
M  V30 436 O 42.2258 1.91868 0.395407 0
M  V30 437 H 40.8058 0.362733 -0.653019 0
M  V30 438 H 43.4678 0.266244 -1.93073 0
M  V30 439 H 42.5638 1.59667 -2.68166 0
M  V30 440 N 42.8649 1.48995 0.513639 0
M  V30 441 C 43.8119 1.6473 1.61656 0
M  V30 442 C 44.7819 0.488984 1.58739 0
M  V30 443 O 45.9669 0.714478 1.76918 0
M  V30 444 C 43.1069 1.7082 2.99858 0
M  V30 445 C 42.2199 2.9787 3.12885 0
M  V30 446 C 41.3549 2.95017 4.41744 0
M  V30 447 C 40.3939 4.16702 4.48359 0
M  V30 448 N 39.5309 4.11832 5.68629 0
M  V30 449 H 44.3709 2.58909 1.47547 0
M  V30 450 H 41.9079 1.28382 0.71808 0
M  V30 451 H 43.8659 1.72331 3.79944 0
M  V30 452 H 42.4959 0.801181 3.12699 0
M  V30 453 H 41.5479 3.06029 2.25944 0
M  V30 454 H 42.8599 3.8786 3.13633 0
M  V30 455 H 42.0139 2.95021 5.30139 0
M  V30 456 H 40.7529 2.02784 4.43542 0
M  V30 457 H 39.7579 4.16955 3.58369 0
M  V30 458 H 40.9829 5.10113 4.48287 0
M  V30 459 H 38.9289 3.22428 5.71293 0
M  V30 460 H 38.8459 4.95543 5.7094 0
M  V30 461 H 40.1139 4.1592 6.59266 0
M  V30 462 N 44.343 -0.763751 1.37857 0
M  V30 463 C 45.592 -1.51789 1.32827 0
M  V30 464 C 45.905 -1.95426 -0.0823719 0
M  V30 465 O 47.111 -2.70298 -0.255172 0
M  V30 466 C 45.567 -2.74133 2.33193 0
M  V30 467 C 45.175 -2.37562 3.79827 0
M  V30 468 C 46.919 -3.52054 2.37188 0
M  V30 469 C 44.826 -3.56456 4.71904 0
M  V30 470 H 43.756 -0.569896 0.493695 0
M  V30 471 H 46.407 -0.835822 1.63359 0
M  V30 472 H 44.789 -3.4427 1.9569 0
M  V30 473 H 45.963 -1.75157 4.26212 0
M  V30 474 H 44.278 -1.72798 3.78853 0
M  V30 475 H 46.875 -4.40437 3.03182 0
M  V30 476 H 47.218 -3.92486 1.38782 0
M  V30 477 H 47.751 -2.88921 2.7344 0
M  V30 478 H 44.49 -3.21099 5.71468 0
M  V30 479 H 44.01 -4.17938 4.30218 0
M  V30 480 H 45.689 -4.23168 4.89426 0
M  V30 481 N 45.8211 -1.22559 -0.990812 0
M  V30 482 C 47.0511 -1.07623 -1.76355 0
M  V30 483 C 47.4591 0.37601 -1.85426 0
M  V30 484 O 46.8021 1.27228 -1.32509 0
M  V30 485 C 46.8641 -1.61507 -3.21179 0
M  V30 486 C 46.5281 -3.10146 -3.35646 0
M  V30 487 C 47.5251 -4.07553 -3.22796 0
M  V30 488 C 45.2101 -3.49644 -3.60631 0
M  V30 489 C 47.2041 -5.42442 -3.34716 0
M  V30 490 C 44.8911 -4.84682 -3.72192 0
M  V30 491 C 45.8891 -5.8089 -3.59243 0
M  V30 492 O 45.5771 -7.13476 -3.70415 0
M  V30 493 H 45.3091 -0.377745 -0.560611 0
M  V30 494 H 47.8631 -1.62658 -1.25425 0
M  V30 495 H 46.0931 -1.00881 -3.73309 0
M  V30 496 H 47.7821 -1.42202 -3.80175 0
M  V30 497 H 48.5481 -3.78381 -3.03403 0
M  V30 498 H 44.4271 -2.75282 -3.69785 0
M  V30 499 H 47.9711 -6.17518 -3.24526 0
M  V30 500 H 43.8681 -5.13534 -3.91092 0
M  V30 501 H 44.6361 -7.21083 -3.87275 0
M  V30 502 N 47.2992 1.18797 -1.03562 0
M  V30 503 C 48.5482 1.87978 -0.731235 0
M  V30 504 C 48.8612 1.80911 0.743671 0
M  V30 505 O 50.0672 2.45407 1.16137 0
M  V30 506 C 48.5232 3.3721 -1.25768 0
M  V30 507 C 48.1312 3.52818 -2.76085 0
M  V30 508 C 49.8752 4.11825 -1.0296 0
M  V30 509 C 47.7822 4.9598 -3.22114 0
M  V30 510 H 46.7122 0.704063 -0.269835 0
M  V30 511 H 49.3632 1.34266 -1.25079 0
M  V30 512 H 47.7452 3.90359 -0.666011 0
M  V30 513 H 48.9192 3.09965 -3.40966 0
M  V30 514 H 47.2342 2.91602 -2.97249 0
M  V30 515 H 49.8312 5.17411 -1.34869 0
M  V30 516 H 50.1742 4.16287 0.0333546 0
M  V30 517 H 50.7072 3.64833 -1.58562 0
M  V30 518 H 47.4462 4.96684 -4.27768 0
M  V30 519 H 46.9662 5.39569 -2.61965 0
M  V30 520 H 48.6452 5.6467 -3.15844 0
M  V30 521 N 48.7773 0.814389 1.34928 0
M  V30 522 C 50.0253 0.397636 1.9815 0
M  V30 523 C 50.3463 -1.04069 1.64908 0
M  V30 524 O 49.6163 -1.72121 0.93548 0
M  V30 525 H 48.1963 0.144043 0.732981 0
M  V30 526 H 50.8583 1.04195 1.6471 0
M  V30 527 H 49.9543 0.509688 3.0791 0
M  V30 528 N 50.2554 -1.46986 0.568584 0
M  V30 529 C 51.1874 -2.28233 -0.210337 0
M  V30 530 C 52.2004 -1.37682 -0.868767 0
M  V30 531 O 53.3894 -1.62406 -0.740705 0
M  V30 532 C 50.4894 -3.12293 -1.3163 0
M  V30 533 C 49.6624 -4.30878 -0.7525 0
M  V30 534 C 48.7214 -4.96445 -1.74439 0
M  V30 535 O 47.7474 -5.54482 -1.286 0
M  V30 536 N 48.9494 -4.92171 -3.07812 0
M  V30 537 H 51.7144 -2.95723 0.486648 0
M  V30 538 H 49.2754 -1.56742 0.405409 0
M  V30 539 H 51.2674 -3.53022 -1.97883 0
M  V30 540 H 49.8374 -2.46971 -1.91636 0
M  V30 541 H 49.0574 -3.94104 0.0871128 0
M  V30 542 H 50.3454 -5.07558 -0.35536 0
M  V30 543 H 49.7434 -4.46239 -3.47688 0
M  V30 544 H 48.3004 -5.36884 -3.69592 0
M  V30 545 N 51.7335 -0.305618 -1.54608 0
M  V30 546 C 52.9825 0.303098 -1.9941 0
M  V30 547 C 53.2955 1.54648 -1.19764 0
M  V30 548 O 54.5015 2.23007 -1.54855 0
M  V30 549 C 52.9575 0.590588 -3.55021 0
M  V30 550 C 52.5655 -0.634719 -4.43481 0
M  V30 551 C 54.3095 1.16025 -4.08336 0
M  V30 552 C 52.2165 -0.320126 -5.90533 0
M  V30 553 H 51.1465 0.117031 -0.744862 0
M  V30 554 H 53.7975 -0.415045 -1.78745 0
M  V30 555 H 52.1795 1.36845 -3.71604 0
M  V30 556 H 53.3535 -1.41079 -4.38672 0
M  V30 557 H 51.6685 -1.12333 -4.00962 0
M  V30 558 H 54.2655 1.40994 -5.15776 0
M  V30 559 H 54.6085 2.10397 -3.5922 0
M  V30 560 H 55.1415 0.443985 -3.95315 0
M  V30 561 H 51.8805 -1.23254 -6.43808 0
M  V30 562 H 51.4005 0.418579 -5.98338 0
M  V30 563 H 53.0795 0.0766241 -6.46955 0
M  V30 564 N 53.2116 1.57565 -0.0334293 0
M  V30 565 C 54.4886 1.83282 0.683163 0
M  V30 566 C 54.8686 0.91823 1.90084 0
M  V30 567 O 54.2166 -0.025113 2.28486 0
M  V30 568 C 54.4266 3.32599 1.0573 0
M  V30 569 C 55.7746 3.99179 1.44711 0
M  V30 570 O 56.7986 3.3712 1.15015 0
M  V30 571 O 55.6576 5.08565 2.0006 0
M  V30 572 H 52.7516 0.755869 0.335546 0
M  V30 573 H 55.2976 1.69589 -0.0614402 0
M  V30 574 H 54.0696 3.90834 0.190828 0
M  V30 575 H 53.6926 3.51415 1.85993 0
M  V30 576 N 54.6897 -0.239769 1.55765 0
M  V30 577 C 55.9177 -0.98417 1.81994 0
M  V30 578 C 56.3327 -1.7867 0.610124 0
M  V30 579 O 55.6897 -1.77571 -0.421271 0
M  V30 580 C 55.7407 -1.91635 3.06526 0
M  V30 581 O 55.4617 -1.14629 4.22838 0
M  V30 582 C 56.9627 -2.77616 3.45607 0
M  V30 583 H 54.1827 -0.28928 0.605441 0
M  V30 584 H 56.7267 -0.260499 2.02834 0
M  V30 585 H 54.8817 -2.5942 2.87715 0
M  V30 586 H 55.2957 -1.77745 4.93464 0
M  V30 587 H 56.7697 -3.38759 4.35828 0
M  V30 588 H 57.2467 -3.4909 2.6652 0
M  V30 589 H 57.8527 -2.15271 3.66795 0
M  V30 590 N 56.1678 -1.49265 -0.50573 0
M  V30 591 C 57.4448 -1.49012 -1.26707 0
M  V30 592 C 57.8248 -0.215205 -2.1 0
M  V30 593 O 57.1728 0.802547 -2.13943 0
M  V30 594 C 57.3828 -2.7663 -2.12783 0
M  V30 595 C 58.7308 -3.25932 -2.72127 0
M  V30 596 O 59.7548 -2.77715 -2.23054 0
M  V30 597 O 58.6138 -4.09897 -3.61451 0
M  V30 598 H 55.7078 -0.596197 -0.57313 0
M  V30 599 H 58.2538 -1.61524 -0.52039 0
M  V30 600 H 57.0258 -3.60916 -1.5118 0
M  V30 601 H 56.6488 -2.66956 -2.94653 0
M  V30 602 N 57.6459 0.756429 -1.3826 0
M  V30 603 C 59.0569 1.33359 -1.30661 0
M  V30 604 C 59.4079 1.96161 0.0388875 0
M  V30 605 O 58.5329 1.94874 0.940918 0
M  V30 606 C 59.1279 2.42477 -2.36622 0
M  V30 607 C 57.6869 2.95922 -2.3261 0
M  V30 608 C 56.8339 1.69275 -2.19639 0
M  V30 609 H 59.7849 0.55552 -1.4866 0
M  V30 610 H 59.8059 3.22345 -2.02174 0
M  V30 611 H 59.3179 1.96739 -3.34538 0
M  V30 612 H 57.4189 3.45996 -1.38267 0
M  V30 613 H 57.5319 3.50494 -3.26636 0
M  V30 614 H 55.8959 1.92793 -1.66442 0
M  V30 615 H 56.6789 1.25619 -3.19491 0
M  V30 616 N 59.124 1.23083 0.984299 0
M  V30 617 C 60.37 1.06214 1.72761 0
M  V30 618 C 60.703 -0.400584 1.90024 0
M  V30 619 O 59.978 -1.29672 1.44967 0
M  V30 620 C 60.261 1.78375 3.12817 0
M  V30 621 C 60.114 3.32296 3.03149 0
M  V30 622 C 61.433 1.54309 4.12161 0
M  V30 623 H 58.552 0.387251 0.627061 0
M  V30 624 H 61.194 1.51536 1.14616 0
M  V30 625 H 59.344 1.39848 3.62457 0
M  V30 626 H 61.016 3.8032 2.61064 0
M  V30 627 H 59.259 3.6153 2.39747 0
M  V30 628 H 59.93 3.77972 4.02295 0
M  V30 629 H 62.406 1.87791 3.71314 0
M  V30 630 H 61.282 2.07281 5.08258 0
M  V30 631 H 61.543 0.477572 4.39513 0
M  V30 632 N 60.6021 -1.18246 1.0419 0
M  V30 633 C 61.5501 -2.23968 0.627792 0
M  V30 634 C 62.5441 -1.65828 -0.346019 0
M  V30 635 O 63.7501 -1.78733 -0.213175 0
M  V30 636 H 60.1251 -0.728939 0.184802 0
M  V30 637 H 62.0961 -2.56202 1.52981 0
M  V30 638 C 60.8451 -3.47699 0.00796591 0
M  V30 639 H 60.1681 -3.92734 0.748347 0
M  V30 640 H 61.6081 -4.23294 -0.24455 0
M  V30 641 C 60.0671 -3.13153 -1.24246 0
M  V30 642 O 60.5971 -3.27003 -2.33307 0
M  V30 643 N 58.8031 -2.67467 -1.13622 0
M  V30 644 H 58.3501 -2.56396 -0.248734 0
M  V30 645 H 58.3081 -2.44724 -1.97377 0
M  V30 646 N 62.0802 -0.821533 -1.34494 0
M  V30 647 C 63.4912 -0.467956 -1.8074 0
M  V30 648 C 63.8422 1.01151 -1.68116 0
M  V30 649 O 62.9672 1.78707 -1.22036 0
M  V30 650 C 63.5622 -0.842627 -3.28154 0
M  V30 651 C 62.1212 -0.541439 -3.72485 0
M  V30 652 C 61.2682 -1.06028 -2.56229 0
M  V30 653 H 64.2192 -1.01183 -1.22261 0
M  V30 654 H 64.2402 -0.145876 -3.8022 0
M  V30 655 H 63.7522 -1.91945 -3.37311 0
M  V30 656 H 61.8532 0.526034 -3.68868 0
M  V30 657 H 61.9662 -1.08453 -4.66663 0
M  V30 658 H 60.3302 -0.481892 -2.501 0
M  V30 659 H 61.1132 -2.14352 -2.68157 0
M  V30 660 N 63.5583 1.46682 -0.576371 0
M  V30 661 C 64.5213 2.28707 0.150239 0
M  V30 662 C 65.5213 1.38035 0.824794 0
M  V30 663 O 66.7113 1.60476 0.677719 0
M  V30 664 C 63.8433 3.18248 1.22192 0
M  V30 665 H 65.0363 2.94423 -0.570521 0
M  V30 666 H 62.5893 1.52688 -0.334078 0
M  V30 667 H 63.3243 2.57265 1.97447 0
M  V30 668 H 63.1093 3.85 0.742812 0
M  V30 669 H 64.5993 3.80001 1.73172 0
M  V30 670 N 65.0364 0.313813 1.54444 0
M  V30 671 C 65.9844 -0.572171 2.25453 0
M  V30 672 C 66.9784 -1.12657 1.2651 0
M  V30 673 O 68.1844 -1.07573 1.44319 0
M  V30 674 H 64.5594 -0.203146 0.724041 0
M  V30 675 H 66.5304 0.0491145 2.9836 0
M  V30 676 C 65.2794 -1.72626 3.0182 0
M  V30 677 H 64.6024 -1.30891 3.77767 0
M  V30 678 H 66.0424 -2.32199 3.54767 0
M  V30 679 C 64.5014 -2.63806 2.09542 0
M  V30 680 O 65.0314 -3.65256 1.67185 0
M  V30 681 N 63.2374 -2.31824 1.75232 0
M  V30 682 H 62.7844 -1.49368 2.09873 0
M  V30 683 H 62.7424 -2.93095 1.13767 0
M  V30 684 N 66.5145 -1.57545 0.0417849 0
M  V30 685 C 67.4465 -2.07904 -0.964799 0
M  V30 686 C 68.4595 -1.00497 -1.28079 0
M  V30 687 O 69.6485 -1.28087 -1.24322 0
M  V30 688 C 66.7485 -2.49928 -2.28887 0
M  V30 689 C 65.9215 -3.80562 -2.15619 0
M  V30 690 C 64.9805 -4.08999 -3.31069 0
M  V30 691 O 64.0065 -4.79061 -3.0739 0
M  V30 692 N 65.2085 -3.6017 -4.55256 0
M  V30 693 H 67.9735 -2.94886 -0.535029 0
M  V30 694 H 65.5345 -1.61252 -0.144681 0
M  V30 695 H 67.5265 -2.66034 -3.04972 0
M  V30 696 H 66.0965 -1.68245 -2.63463 0
M  V30 697 H 65.3165 -3.74129 -1.24183 0
M  V30 698 H 66.6045 -4.66126 -2.03971 0
M  V30 699 H 66.0025 -3.03512 -4.77386 0
M  V30 700 H 64.5595 -3.81532 -5.28466 0
M  V30 701 N 67.9926 0.231505 -1.5589 0
M  V30 702 C 69.2416 0.955346 -1.7764 0
M  V30 703 C 69.5546 1.85893 -0.608546 0
M  V30 704 O 70.7606 2.62067 -0.70943 0
M  V30 705 C 69.2166 1.74886 -3.14552 0
M  V30 706 C 68.8246 0.891915 -4.39032 0
M  V30 707 C 70.5686 2.46452 -3.45633 0
M  V30 708 C 68.4756 1.68221 -5.66971 0
M  V30 709 H 67.4056 0.360446 -0.662265 0
M  V30 710 H 70.0566 0.209516 -1.823 0
M  V30 711 H 68.4386 2.53723 -3.04041 0
M  V30 712 H 69.6126 0.144793 -4.60572 0
M  V30 713 H 67.9276 0.288863 -4.15397 0
M  V30 714 H 70.5246 3.06061 -4.38441 0
M  V30 715 H 70.8676 3.18841 -2.67668 0
M  V30 716 H 71.4006 1.74613 -3.57428 0
M  V30 717 H 68.1396 1.00178 -6.478 0
M  V30 718 H 67.6596 2.4042 -5.49507 0
M  V30 719 H 69.3386 2.24544 -6.06786 0
M  V30 720 N 69.4707 1.49531 0.497807 0
M  V30 721 C 70.8817 1.52344 1.07927 0
M  V30 722 C 71.2327 0.311469 1.93712 0
M  V30 723 O 70.3577 -0.578405 2.08527 0
M  V30 724 C 70.9527 2.76062 1.96405 0
M  V30 725 C 69.5117 2.81643 2.49709 0
M  V30 726 C 68.6587 2.46299 1.27404 0
M  V30 727 H 71.6097 1.56182 0.281576 0
M  V30 728 H 71.6307 2.56405 2.81135 0
M  V30 729 H 71.1427 3.64254 1.33943 0
M  V30 730 H 69.2437 1.97739 3.15801 0
M  V30 731 H 69.3567 3.83891 2.86643 0
M  V30 732 H 67.7207 1.98148 1.60029 0
M  V30 733 H 68.5037 3.36769 0.66645 0
M  V30 734 N 70.9488 -0.749086 1.3866 0
M  V30 735 C 72.1948 -1.51056 1.35314 0
M  V30 736 C 72.5278 -1.94121 -0.0553751 0
M  V30 737 O 71.8028 -1.65763 -1.01749 0
M  V30 738 C 72.0858 -2.76003 2.31288 0
M  V30 739 C 71.9388 -2.39047 3.8102 0
M  V30 740 C 73.2578 -3.78046 2.2532 0
M  V30 741 H 70.3768 -0.547972 0.492844 0
M  V30 742 H 73.0188 -0.857628 1.69543 0
M  V30 743 H 71.1688 -3.31716 2.02229 0
M  V30 744 H 72.8408 -1.89074 4.20771 0
M  V30 745 H 71.0838 -1.71449 3.98482 0
M  V30 746 H 71.7548 -3.28462 4.4364 0
M  V30 747 H 74.2308 -3.31884 2.50983 0
M  V30 748 H 73.1068 -4.63159 2.94576 0
M  V30 749 H 73.3678 -4.23957 1.25352 0
M  V30 750 N 72.4269 -1.23603 -0.977757 0
M  V30 751 C 73.6569 -1.09487 -1.75203 0
M  V30 752 C 74.0649 0.356321 -1.85814 0
M  V30 753 O 73.4079 1.25816 -1.33851 0
M  V30 754 C 73.4699 -1.64905 -3.19447 0
M  V30 755 C 73.1339 -3.13688 -3.32338 0
M  V30 756 C 74.1309 -4.10953 -3.18455 0
M  V30 757 C 71.8159 -3.53449 -3.56902 0
M  V30 758 C 73.8099 -5.45962 -3.28944 0
M  V30 759 C 71.4969 -4.88602 -3.6703 0
M  V30 760 C 72.4949 -5.84668 -3.53062 0
M  V30 761 O 72.1829 -7.17365 -3.62826 0
M  V30 762 H 71.9149 -0.38367 -0.556573 0
M  V30 763 H 74.4689 -1.6398 -1.23693 0
M  V30 764 H 72.6989 -1.04835 -3.72218 0
M  V30 765 H 74.3879 -1.46226 -3.78646 0
M  V30 766 H 75.1539 -3.81577 -2.99372 0
M  V30 767 H 71.0329 -2.79188 -3.66844 0
M  V30 768 H 74.5769 -6.20925 -3.17958 0
M  V30 769 H 70.4739 -5.17653 -3.85623 0
M  V30 770 H 71.2419 -7.2515 -3.79605 0
M  V30 771 N 73.905 1.17692 -1.04816 0
M  V30 772 C 75.154 1.87192 -0.751132 0
M  V30 773 C 75.467 1.8169 0.724441 0
M  V30 774 O 76.673 2.46625 1.13527 0
M  V30 775 C 75.129 3.35857 -1.29338 0
M  V30 776 C 74.737 3.4987 -2.79812 0
M  V30 777 C 76.481 4.10709 -1.07322 0
M  V30 778 C 74.388 4.92536 -3.27356 0
M  V30 779 H 73.318 0.701162 -0.277288 0
M  V30 780 H 75.969 1.32932 -1.26496 0
M  V30 781 H 74.351 3.89631 -0.707376 0
M  V30 782 H 75.525 3.06332 -3.44235 0
M  V30 783 H 73.84 2.88433 -3.00325 0
M  V30 784 H 76.437 5.15952 -1.4035 0
M  V30 785 H 76.78 4.16299 -0.0108001 0
M  V30 786 H 77.313 3.6313 -1.62423 0
M  V30 787 H 74.052 4.92119 -4.33012 0
M  V30 788 H 73.572 5.3676 -2.67673 0
M  V30 789 H 75.251 5.61288 -3.21815 0
M  V30 790 N 75.3831 0.828654 1.34056 0
M  V30 791 C 76.2931 0.256725 2.33191 0
M  V30 792 C 77.3091 -0.611898 1.62886 0
M  V30 793 O 78.4851 -0.51844 1.94613 0
M  V30 794 C 75.5501 -0.567238 3.42028 0
M  V30 795 C 74.6111 0.324458 4.28072 0
M  V30 796 C 73.8441 -0.460274 5.31712 0
M  V30 797 O 74.0671 -1.693 5.44696 0
M  V30 798 O 73.0011 0.160391 6.01686 0
M  V30 799 H 76.8271 1.07739 2.83947 0
M  V30 800 H 74.4121 0.59093 1.37217 0
M  V30 801 H 76.2941 -1.03582 4.08471 0
M  V30 802 H 74.9691 -1.36513 2.93506 0
M  V30 803 H 73.8761 0.840659 3.64532 0
M  V30 804 H 75.2091 1.08685 4.8005 0
M  V30 805 N 76.8612 -1.46375 0.584142 0
M  V30 806 C 77.8092 -2.32042 -0.161047 0
M  V30 807 C 78.8032 -1.44569 -0.882966 0
M  V30 808 O 80.0092 -1.61186 -0.801191 0
M  V30 809 H 76.3842 -0.748659 -0.0708033 0
M  V30 810 H 78.3552 -2.92704 0.580269 0
M  V30 811 C 77.1042 -3.27762 -1.1605 0
M  V30 812 H 76.4272 -3.95051 -0.614419 0
M  V30 813 H 77.8672 -3.90481 -1.65228 0
M  V30 814 C 76.3262 -2.53218 -2.22221 0
M  V30 815 O 76.8562 -2.29628 -3.29597 0
M  V30 816 N 75.0622 -2.13756 -1.96868 0
M  V30 817 H 74.6092 -2.33142 -1.09557 0
M  V30 818 H 74.5672 -1.642 -2.68115 0
M  V30 819 N 78.3393 -0.321999 -1.54275 0
M  V30 820 C 79.2493 0.553631 -2.27974 0
M  V30 821 C 80.2653 1.13054 -1.32268 0
M  V30 822 O 81.4413 1.15084 -1.6528 0
M  V30 823 C 78.5063 1.69927 -3.02201 0
M  V30 824 C 77.5673 1.15433 -4.1349 0
M  V30 825 C 76.8003 2.24537 -4.84168 0
M  V30 826 O 77.0233 3.44852 -4.5435 0
M  V30 827 O 75.9573 1.90044 -5.7111 0
M  V30 828 H 79.7833 -0.0448345 -3.03667 0
M  V30 829 H 77.3683 -0.0877418 -1.49142 0
M  V30 830 H 79.2503 2.3663 -3.48689 0
M  V30 831 H 77.9253 2.28395 -2.29385 0
M  V30 832 H 76.8323 0.452436 -3.71354 0
M  V30 833 H 78.1653 0.614805 -4.88345 0
M  V30 834 N 79.8174 1.5752 -0.0501392 0
M  V30 835 C 81.0944 1.83996 0.663685 0
M  V30 836 C 81.4744 0.938339 1.89099 0
M  V30 837 O 80.8224 -0.00087759 2.285 0
M  V30 838 C 81.0324 3.33702 1.02196 0
M  V30 839 C 82.3804 4.00691 1.40469 0
M  V30 840 O 83.4044 3.38321 1.11433 0
M  V30 841 O 82.2634 5.10658 1.94654 0
M  V30 842 H 79.3574 0.759385 0.32751 0
M  V30 843 H 81.9034 1.69514 -0.0794238 0
M  V30 844 H 80.6754 3.91015 0.149364 0
M  V30 845 H 80.2984 3.53368 1.82255 0
M  V30 846 N 81.2955 -0.223234 1.56011 0
M  V30 847 C 82.5435 -0.946003 1.78592 0
M  V30 848 C 82.8645 -1.84936 0.618349 0
M  V30 849 O 82.1345 -1.92473 -0.364833 0
M  V30 850 H 80.7145 -0.352298 0.658707 0
M  V30 851 H 83.3765 -0.235494 1.93472 0
M  V30 852 H 82.4725 -1.55381 2.70672 0
M  V30 853 N 82.7736 -1.49793 -0.48987 0
M  V30 854 C 83.9986 -1.63836 -1.27172 0
M  V30 855 C 84.4236 -0.31402 -1.8546 0
M  V30 856 O 83.7816 0.719803 -1.66399 0
M  V30 857 C 83.8296 -2.71797 -2.36978 0
M  V30 858 O 82.9336 -2.31744 -3.41128 0
M  V30 859 H 82.2746 -0.547997 -0.37496 0
M  V30 860 H 84.8046 -1.96053 -0.585191 0
M  V30 861 H 84.8146 -2.94305 -2.82575 0
M  V30 862 H 83.4896 -3.67923 -1.93921 0
M  V30 863 H 82.0666 -2.1961 -3.01373 0
M  V30 864 N 84.2517 0.741722 -1.39055 0
M  V30 865 C 85.2017 1.84661 -1.33732 0
M  V30 866 C 86.1857 1.59397 -0.219401 0
M  V30 867 O 87.3777 1.71015 -0.456375 0
M  V30 868 C 84.5067 3.22512 -1.17647 0
M  V30 869 C 83.5927 3.53628 -2.34112 0
M  V30 870 N 83.9837 3.55723 -3.59576 0
M  V30 871 C 82.2817 3.83956 -2.26923 0
M  V30 872 C 82.9827 3.84443 -4.36553 0
M  V30 873 N 81.9587 4.01877 -3.66055 0
M  V30 874 H 85.7607 1.84576 -2.28711 0
M  V30 875 H 83.2747 0.939647 -1.32455 0
M  V30 876 H 85.2717 4.01597 -1.11917 0
M  V30 877 H 83.9317 3.2384 -0.236124 0
M  V30 878 H 84.9427 3.37196 -3.93089 0
M  V30 879 H 81.6197 3.92929 -1.41113 0
M  V30 880 H 83.0097 3.92588 -5.45274 0
M  V30 881 N 85.7298 1.2412 0.971189 0
M  V30 882 C 86.9758 1.08041 1.71625 0
M  V30 883 C 87.3088 -0.380407 1.90438 0
M  V30 884 O 86.5838 -1.28127 1.46334 0
M  V30 885 C 86.8668 1.81682 3.10908 0
M  V30 886 C 86.7198 3.35493 2.99608 0
M  V30 887 C 88.0388 1.58671 4.10501 0
M  V30 888 H 85.1578 0.39388 0.622919 0
M  V30 889 H 87.7998 1.52743 1.13003 0
M  V30 890 H 85.9498 1.43684 3.60953 0
M  V30 891 H 87.6218 3.83068 2.57015 0
M  V30 892 H 85.8648 3.64052 2.35899 0
M  V30 893 H 86.5358 3.82217 3.98264 0
M  V30 894 H 89.0118 1.91719 3.69301 0
M  V30 895 H 87.8878 2.1266 5.06031 0
M  V30 896 H 88.1488 0.524161 4.38982 0
M  V30 897 N 87.2079 -1.17134 1.05439 0
M  V30 898 C 88.1399 -2.2078 0.615539 0
M  V30 899 C 89.1529 -1.59584 -0.322001 0
M  V30 900 O 90.3419 -1.78133 -0.114344 0
M  V30 901 C 87.4419 -3.38691 -0.118938 0
M  V30 902 C 86.6149 -4.29454 0.829924 0
M  V30 903 C 85.6739 -5.26024 0.136258 0
M  V30 904 O 84.6999 -5.63952 0.77115 0
M  V30 905 N 85.9019 -5.69487 -1.1254 0
M  V30 906 H 88.6669 -2.59052 1.50705 0
M  V30 907 H 86.2279 -1.32058 0.936603 0
M  V30 908 H 88.2199 -4.00329 -0.593179 0
M  V30 909 H 86.7899 -2.98996 -0.91215 0
M  V30 910 H 86.0099 -3.65211 1.48373 0
M  V30 911 H 87.2979 -4.86984 1.47392 0
M  V30 912 H 86.6959 -5.4075 -1.6615 0
M  V30 913 H 85.2529 -6.33257 -1.54366 0
M  V30 914 N 88.686 -0.835752 -1.33615 0
M  V30 915 C 89.935 -0.426289 -1.97144 0
M  V30 916 C 90.248 1.01912 -1.66953 0
M  V30 917 O 91.454 1.53311 -2.24072 0
M  V30 918 C 89.91 -0.711321 -3.52801 0
M  V30 919 C 89.518 -2.1712 -3.91871 0
M  V30 920 C 91.262 -0.368654 -4.22896 0
M  V30 921 C 89.169 -2.40044 -5.40493 0
M  V30 922 H 88.099 -0.15567 -0.737755 0
M  V30 923 H 90.75 -1.0239 -1.52278 0
M  V30 924 H 89.132 -0.0433766 -3.95976 0
M  V30 925 H 90.306 -2.87936 -3.59763 0
M  V30 926 H 88.621 -2.47654 -3.34749 0
M  V30 927 H 91.218 -0.517601 -5.32189 0
M  V30 928 H 91.561 0.688078 -4.10574 0
M  V30 929 H 92.094 -0.991702 -3.8524 0
M  V30 930 H 88.833 -3.44271 -5.57815 0
M  V30 931 H 88.353 -1.73785 -5.74072 0
M  V30 932 H 90.032 -2.23042 -6.0734 0
M  V30 933 N 90.1641 1.46063 -0.591896 0
M  V30 934 C 91.3921 2.06717 -0.0868936 0
M  V30 935 C 91.8071 1.43916 1.22203 0
M  V30 936 O 91.1641 0.547698 1.74088 0
M  V30 937 C 91.2151 3.6142 0.0758725 0
M  V30 938 O 90.9361 4.21874 -1.18126 0
M  V30 939 C 92.4371 4.39025 0.61416 0
M  V30 940 H 89.6571 0.668162 -0.0616518 0
M  V30 941 H 92.2011 1.8755 -0.815175 0
M  V30 942 H 90.3561 3.79983 0.754413 0
M  V30 943 H 90.7701 5.14861 -1.00092 0
M  V30 944 H 92.2441 5.4783 0.677193 0
M  V30 945 H 92.7211 4.07708 1.63312 0
M  V30 946 H 93.3271 4.2529 -0.0298142 0
M  V30 947 N 91.6422 0.330177 1.54103 0
M  V30 948 C 92.5742 -0.566902 2.22079 0
M  V30 949 C 93.5872 -1.07462 1.22294 0
M  V30 950 O 94.7762 -0.987065 1.48726 0
M  V30 951 C 91.8762 -1.79138 2.87685 0
M  V30 952 C 91.0492 -1.42123 4.13666 0
M  V30 953 C 90.1082 -2.50394 4.62806 0
M  V30 954 O 89.1342 -2.14261 5.27334 0
M  V30 955 N 90.3362 -3.81433 4.37595 0
M  V30 956 H 93.1012 0.0151844 2.99696 0
M  V30 957 H 90.6622 0.153681 1.61169 0
M  V30 958 H 92.6542 -2.50975 3.1748 0
M  V30 959 H 91.2242 -2.28115 2.13734 0
M  V30 960 H 90.4442 -0.534201 3.90564 0
M  V30 961 H 91.7322 -1.14971 4.9564 0
M  V30 962 H 91.1302 -4.13584 3.8596 0
M  V30 963 H 89.6872 -4.4948 4.72029 0
M  V30 964 N 93.1203 -1.57491 0.0584922 0
M  V30 965 C 94.5313 -1.80526 -0.476138 0
M  V30 966 C 94.8823 -0.971334 -1.70469 0
M  V30 967 O 94.0073 -0.190012 -2.15564 0
M  V30 968 C 94.6023 -3.27424 -0.870587 0
M  V30 969 C 93.1613 -3.51351 -1.35015 0
M  V30 970 C 92.3083 -2.75343 -0.32887 0
M  V30 971 H 95.2593 -1.56133 0.284312 0
M  V30 972 H 95.2803 -3.38745 -1.73299 0
M  V30 973 H 94.7923 -3.88093 0.0237627 0
M  V30 974 H 92.8933 -2.95971 -2.26345 0
M  V30 975 H 93.0063 -4.60059 -1.33726 0
M  V30 976 H 91.3703 -2.417 -0.803321 0
M  V30 977 H 92.1533 -3.38743 0.557521 0
M  V30 978 N 94.5984 0.214957 -1.56127 0
M  V30 979 C 95.5284 1.2695 -1.95974 0
M  V30 980 C 96.5094 1.48539 -0.828868 0
M  V30 981 O 97.6944 1.60611 -1.09168 0
M  V30 982 C 94.8244 2.61794 -2.28214 0
M  V30 983 C 93.7784 2.54851 -3.43853 0
M  V30 984 C 93.1044 3.93785 -3.61715 0
M  V30 985 C 94.4044 2.09065 -4.78632 0
M  V30 986 H 96.0984 0.93846 -2.84312 0
M  V30 987 H 93.6444 0.449996 -1.36788 0
M  V30 988 H 95.5974 3.35731 -2.54682 0
M  V30 989 H 94.3214 2.96599 -1.36736 0
M  V30 990 H 92.9804 1.8337 -3.17444 0
M  V30 991 H 92.6284 4.25908 -2.67602 0
M  V30 992 H 92.3284 3.90019 -4.39498 0
M  V30 993 H 93.8524 4.69374 -3.90539 0
M  V30 994 H 95.2664 2.7275 -5.04262 0
M  V30 995 H 93.6634 2.16346 -5.59745 0
M  V30 996 H 94.7334 1.04315 -4.73547 0
M  V30 997 N 96.0765 1.50051 0.48192 0
M  V30 998 C 97.3255 1.59741 1.23149 0
M  V30 999 C 97.6385 0.298163 1.93314 0
M  V30 1000 O 98.8445 0.273835 2.70116 0
M  V30 1001 C 97.3005 2.81926 2.23708 0
M  V30 1002 C 96.9085 4.18685 1.59396 0
M  V30 1003 C 98.6525 3.00956 2.99375 0
M  V30 1004 C 96.5595 5.3207 2.58178 0
M  V30 1005 H 95.4895 0.594838 0.46334 0
M  V30 1006 H 98.1405 1.76467 0.503169 0
M  V30 1007 H 96.5225 2.58736 2.99786 0
M  V30 1008 H 97.6965 4.52088 0.891811 0
M  V30 1009 H 96.0115 4.05171 0.960503 0
M  V30 1010 H 98.6085 3.82836 3.73283 0
M  V30 1011 H 98.9515 2.12258 3.58123 0
M  V30 1012 H 99.4845 3.24277 2.30411 0
M  V30 1013 H 96.2235 6.22888 2.04184 0
M  V30 1014 H 95.7435 5.03098 3.26577 0
M  V30 1015 H 97.4225 5.62196 3.20225 0
M  V30 1016 N 97.5546 -0.734337 1.39446 0
M  V30 1017 C 98.8036 -1.48937 1.36017 0
M  V30 1018 C 99.1166 -1.95557 -0.0409005 0
M  V30 1019 O 100.323 -2.70779 -0.19778 0
M  V30 1020 C 98.7786 -2.69125 2.38955 0
M  V30 1021 C 98.3866 -2.29452 3.8478 0
M  V30 1022 C 100.131 -3.46944 2.44603 0
M  V30 1023 C 98.0376 -3.46366 4.79358 0
M  V30 1024 H 96.9676 -0.559296 0.505672 0
M  V30 1025 H 99.6186 -0.800983 1.65095 0
M  V30 1026 H 98.0006 -3.40041 2.02948 0
M  V30 1027 H 99.1746 -1.66077 4.29831 0
M  V30 1028 H 97.4896 -1.64723 3.82433 0
M  V30 1029 H 100.087 -4.33907 3.12456 0
M  V30 1030 H 100.43 -3.89454 1.47076 0
M  V30 1031 H 100.963 -2.83056 2.79507 0
M  V30 1032 H 97.7016 -3.08905 5.78151 0
M  V30 1033 H 97.2216 -4.08719 4.38986 0
M  V30 1034 H 98.9006 -4.12691 4.98292 0
M  V30 1035 N 99.0327 -1.24633 -0.964593 0
M  V30 1036 C 99.9807 -1.03917 -2.08096 0
M  V30 1037 C 100.975 0.0268581 -1.69379 0
M  V30 1038 O 102.181 -0.127952 -1.79545 0
M  V30 1039 H 98.5557 -0.319044 -0.680966 0
M  V30 1040 H 100.527 -1.98581 -2.22729 0
M  V30 1041 C 99.2757 -0.663983 -3.41301 0
M  V30 1042 H 98.5987 -1.47605 -3.71555 0
M  V30 1043 H 100.039 -0.558663 -4.20303 0
M  V30 1044 C 98.4977 0.629169 -3.30973 0
M  V30 1045 O 99.0277 1.67404 -3.65156 0
M  V30 1046 N 97.2337 0.611057 -2.84103 0
M  V30 1047 H 96.7807 -0.239593 -2.56483 0
M  V30 1048 H 96.7387 1.47647 -2.77575 0
M  V30 1049 N 100.511 1.16574 -1.06058 0
M  V30 1050 C 101.474 2.19085 -0.673392 0
M  V30 1051 C 102.474 1.5835 0.279648 0
M  V30 1052 O 103.664 1.74088 0.0623488 0
M  V30 1053 C 100.796 3.40899 0.00954234 0
M  V30 1054 H 101.989 2.54853 -1.58081 0
M  V30 1055 H 99.5418 1.30808 -0.855516 0
M  V30 1056 H 100.277 3.10684 0.929826 0
M  V30 1057 H 100.062 3.86233 -0.67573 0
M  V30 1058 H 101.552 4.1675 0.266245 0
M  V30 1059 N 101.989 0.842826 1.3317 0
M  V30 1060 C 102.952 0.284065 2.27433 0
M  V30 1061 C 103.952 -0.54948 1.5112 0
M  V30 1062 O 105.142 -0.362699 1.70382 0
M  V30 1063 C 102.274 -0.599384 3.35589 0
M  V30 1064 H 103.467 1.11589 2.78366 0
M  V30 1065 H 101.02 0.616221 1.4364 0
M  V30 1066 H 101.755 -1.45349 2.89904 0
M  V30 1067 H 101.54 -0.00291266 3.921 0
M  V30 1068 H 103.03 -0.983488 4.05854 0
M  V30 1069 N 103.467 -1.45747 0.599634 0
M  V30 1070 C 104.715 -2.01893 0.0915472 0
M  V30 1071 C 105.036 -1.47155 -1.27946 0
M  V30 1072 O 104.306 -0.66273 -1.84349 0
M  V30 1073 H 102.886 -0.746363 0.0308524 0
M  V30 1074 H 105.548 -1.78645 0.779237 0
M  V30 1075 H 104.644 -3.1208 0.0353086 0
M  V30 1076 N 104.945 -0.338344 -1.53925 0
M  V30 1077 C 105.892 0.520845 -2.24846 0
M  V30 1078 C 106.862 1.09976 -1.24477 0
M  V30 1079 O 108.047 1.13735 -1.53196 0
M  V30 1080 C 105.187 1.6685 -3.02084 0
M  V30 1081 C 104.3 1.11739 -4.17299 0
M  V30 1082 C 103.435 2.23193 -4.82036 0
M  V30 1083 C 102.474 1.65407 -5.89328 0
M  V30 1084 N 101.611 2.70582 -6.47866 0
M  V30 1085 H 106.451 -0.0904881 -2.97863 0
M  V30 1086 H 103.988 -0.0564282 -1.46992 0
M  V30 1087 H 105.946 2.34407 -3.45122 0
M  V30 1088 H 104.576 2.2509 -2.31375 0
M  V30 1089 H 103.628 0.332919 -3.7894 0
M  V30 1090 H 104.94 0.654677 -4.94485 0
M  V30 1091 H 104.094 2.98626 -5.28117 0
M  V30 1092 H 102.833 2.72807 -4.04262 0
M  V30 1093 H 101.838 0.884779 -5.42634 0
M  V30 1094 H 103.063 1.16652 -6.69006 0
M  V30 1095 H 101.009 3.1946 -5.72959 0
M  V30 1096 H 100.926 2.28917 -7.20509 0
M  V30 1097 H 102.194 3.45799 -6.98601 0
M  V30 1098 N 106.423 1.57458 -0.0668435 0
M  V30 1099 C 107.672 1.92477 0.602947 0
M  V30 1100 C 107.985 0.948419 1.71068 0
M  V30 1101 O 109.191 1.19124 2.43971 0
M  V30 1102 C 107.647 3.41903 1.12383 0
M  V30 1103 C 107.255 4.47975 0.04737 0
M  V30 1104 C 108.999 3.85931 1.76797 0
M  V30 1105 C 106.906 5.88529 0.582022 0
M  V30 1106 H 105.836 0.718387 0.22899 0
M  V30 1107 H 108.487 1.82978 -0.138276 0
M  V30 1108 H 106.869 3.46459 1.91787 0
M  V30 1109 H 108.043 4.55029 -0.726978 0
M  V30 1110 H 106.358 4.13384 -0.500243 0
M  V30 1111 H 108.955 4.88322 2.17821 0
M  V30 1112 H 109.298 3.23029 2.62599 0
M  V30 1113 H 109.831 3.83958 1.04024 0
M  V30 1114 H 106.57 6.55065 -0.238721 0
M  V30 1115 H 106.09 5.85004 1.324 0
M  V30 1116 H 107.769 6.38258 1.05999 0
M  V30 1117 N 107.901 -0.206675 1.56239 0
M  V30 1118 C 109.147 -0.930218 1.80208 0
M  V30 1119 C 109.48 -1.83387 0.638981 0
M  V30 1120 O 108.755 -1.91119 -0.361066 0
M  V30 1121 C 109.038 -1.75641 3.1436 0
M  V30 1122 C 108.891 -0.878257 4.41142 0
M  V30 1123 C 110.21 -2.73129 3.45092 0
M  V30 1124 H 107.329 -0.336742 0.655571 0
M  V30 1125 H 109.971 -0.198222 1.88963 0
M  V30 1126 H 108.121 -2.38048 3.07027 0
M  V30 1127 H 109.793 -0.269787 4.6051 0
M  V30 1128 H 108.036 -0.184385 4.33408 0
M  V30 1129 H 108.707 -1.49106 5.3148 0
M  V30 1130 H 111.183 -2.20856 3.52649 0
M  V30 1131 H 110.059 -3.28028 4.40101 0
M  V30 1132 H 110.32 -3.51606 2.68003 0
M  V30 1133 N 109.379 -1.50304 -0.473955 0
M  V30 1134 C 110.609 -1.64663 -1.24778 0
M  V30 1135 C 111.017 -0.328174 -1.86332 0
M  V30 1136 O 110.36 0.699536 -1.69859 0
M  V30 1137 C 110.422 -2.6778 -2.39863 0
M  V30 1138 C 110.086 -4.11413 -1.98969 0
M  V30 1139 C 111.083 -4.97372 -1.51385 0
M  V30 1140 C 108.768 -4.57312 -2.07777 0
M  V30 1141 C 110.762 -6.27277 -1.13148 0
M  V30 1142 C 108.449 -5.87223 -1.69152 0
M  V30 1143 C 109.447 -6.72031 -1.21915 0
M  V30 1144 O 109.135 -7.99518 -0.838237 0
M  V30 1145 H 108.867 -0.556602 -0.383627 0
M  V30 1146 H 111.421 -1.9726 -0.572491 0
M  V30 1147 H 109.651 -2.30419 -3.10554 0
M  V30 1148 H 111.34 -2.71388 -3.01833 0
M  V30 1149 H 112.106 -4.63128 -1.44004 0
M  V30 1150 H 107.985 -3.91449 -2.43493 0
M  V30 1151 H 111.529 -6.93425 -0.762077 0
M  V30 1152 H 107.426 -6.20989 -1.76191 0
M  V30 1153 H 108.194 -8.12764 -0.967339 0
M  V30 1154 N 110.857 0.726932 -1.39834 0
M  V30 1155 C 111.805 1.86235 -1.39353 0
M  V30 1156 C 112.799 1.67144 -0.275555 0
M  V30 1157 O 114.005 1.74387 -0.44601 0
M  V30 1158 H 110.38 0.613174 -0.43534 0
M  V30 1159 H 112.351 1.83756 -2.35109 0
M  V30 1160 C 111.1 3.23995 -1.26185 0
M  V30 1161 H 110.423 3.39285 -2.11484 0
M  V30 1162 H 111.863 4.03609 -1.29907 0
M  V30 1163 C 110.322 3.36888 0.0290018 0
M  V30 1164 O 110.852 3.89152 0.99619 0
M  V30 1165 N 109.058 2.90446 0.0947437 0
M  V30 1166 H 108.605 2.48102 -0.693035 0
M  V30 1167 H 108.563 2.99451 0.957932 0
M  V30 1168 N 112.336 1.25143 0.95797 0
M  V30 1169 C 113.584 1.09476 1.69881 0
M  V30 1170 C 113.905 -0.365502 1.91544 0
M  V30 1171 O 113.175 -1.25985 1.50015 0
M  V30 1172 H 111.755 0.402128 0.629525 0
M  V30 1173 H 114.417 1.57214 1.15194 0
M  V30 1174 H 113.513 1.60046 2.6794 0
M  V30 1175 N 113.814 -1.1601 1.06675 0
M  V30 1176 C 114.746 -2.20115 0.638921 0
M  V30 1177 C 115.759 -1.59916 -0.305057 0
M  V30 1178 O 116.948 -1.78245 -0.0954446 0
M  V30 1179 C 114.048 -3.38798 -0.0830083 0
M  V30 1180 C 113.221 -4.2855 0.875426 0
M  V30 1181 C 112.28 -5.25849 0.192042 0
M  V30 1182 O 111.306 -5.63102 0.830921 0
M  V30 1183 N 112.508 -5.70648 -1.06493 0
M  V30 1184 H 115.273 -2.57439 1.53444 0
M  V30 1185 H 112.834 -1.31057 0.950557 0
M  V30 1186 H 114.826 -4.00936 -0.550685 0
M  V30 1187 H 113.396 -2.99947 -0.880386 0
M  V30 1188 H 112.616 -3.63617 1.52238 0
M  V30 1189 H 113.904 -4.85393 1.52548 0
M  V30 1190 H 113.302 -5.42482 -1.60405 0
M  V30 1191 H 111.859 -6.34859 -1.47641 0
M  V30 1192 N 115.292 -0.849877 -1.32721 0
M  V30 1193 C 116.222 -0.306308 -2.31482 0
M  V30 1194 C 117.203 0.591952 -1.59468 0
M  V30 1195 O 118.388 0.513199 -1.87296 0
M  V30 1196 C 115.518 0.510204 -3.43532 0
M  V30 1197 C 114.472 -0.293209 -4.26994 0
M  V30 1198 C 113.798 0.647743 -5.30762 0
M  V30 1199 C 115.098 -1.51634 -4.99804 0
M  V30 1200 H 116.792 -1.13153 -2.77195 0
M  V30 1201 H 114.338 -0.545553 -1.33266 0
M  V30 1202 H 116.291 0.900856 -4.11658 0
M  V30 1203 H 115.015 1.36874 -2.96535 0
M  V30 1204 H 113.674 -0.665555 -3.60508 0
M  V30 1205 H 113.322 1.50299 -4.8002 0
M  V30 1206 H 113.022 0.11422 -5.87489 0
M  V30 1207 H 114.546 1.03567 -6.01753 0
M  V30 1208 H 115.96 -1.19824 -5.60638 0
M  V30 1209 H 114.357 -1.98745 -5.66234 0
M  V30 1210 H 115.427 -2.28018 -4.27943 0
M  V30 1211 N 116.77 1.45427 -0.607355 0
M  V30 1212 C 118.016 2.0254 -0.102607 0
M  V30 1213 C 118.349 1.47478 1.26348 0
M  V30 1214 O 117.624 0.64939 1.83339 0
M  V30 1215 C 117.907 3.60044 -0.0634347 0
M  V30 1216 C 117.76 4.2544 -1.46017 0
M  V30 1217 C 119.079 4.35646 0.624514 0
M  V30 1218 H 116.198 0.73598 -0.0387607 0
M  V30 1219 H 118.84 1.73284 -0.779282 0
M  V30 1220 H 116.99 3.85101 0.512808 0
M  V30 1221 H 118.662 4.11569 -2.08347 0
M  V30 1222 H 116.905 3.83849 -2.02094 0
M  V30 1223 H 117.576 5.34342 -1.385 0
M  V30 1224 H 120.052 4.15882 0.134723 0
M  V30 1225 H 118.928 5.45376 0.621028 0
M  V30 1226 H 119.189 4.08501 1.69055 0
M  V30 1227 N 118.248 0.346503 1.53744 0
M  V30 1228 C 119.195 -0.508914 2.25119 0
M  V30 1229 C 120.165 -1.09315 1.25058 0
M  V30 1230 O 121.35 -1.12921 1.53797 0
M  V30 1231 C 118.49 -1.65246 3.02965 0
M  V30 1232 C 117.603 -1.09525 4.17886 0
M  V30 1233 C 116.738 -2.20634 4.83212 0
M  V30 1234 C 115.777 -1.62279 5.90196 0
M  V30 1235 N 114.914 -2.67143 6.49291 0
M  V30 1236 H 119.754 0.106283 2.9781 0
M  V30 1237 H 117.291 0.0642227 1.4696 0
M  V30 1238 H 119.249 -2.32574 3.4636 0
M  V30 1239 H 117.879 -2.2386 2.32565 0
M  V30 1240 H 116.931 -0.312818 3.79112 0
M  V30 1241 H 118.243 -0.628444 4.94825 0
M  V30 1242 H 117.397 -2.95821 5.29693 0
M  V30 1243 H 116.136 -2.70659 4.05703 0
M  V30 1244 H 115.141 -0.855989 5.43096 0
M  V30 1245 H 116.366 -1.13102 6.69615 0
M  V30 1246 H 114.312 -3.16417 5.74645 0
M  V30 1247 H 114.229 -2.25093 7.21713 0
M  V30 1248 H 115.497 -3.4209 7.00425 0
M  V30 1249 N 119.726 -1.57421 0.075193 0
M  V30 1250 C 120.975 -1.92794 -0.592731 0
M  V30 1251 C 121.288 -0.957478 -1.70563 0
M  V30 1252 O 122.494 -1.20417 -2.43335 0
M  V30 1253 C 120.95 -3.42495 -1.10569 0
M  V30 1254 C 120.558 -4.47994 -0.0236121 0
M  V30 1255 C 122.302 -3.86864 -1.74748 0
M  V30 1256 C 120.209 -5.88829 -0.550803 0
M  V30 1257 H 119.139 -0.719591 -0.225177 0
M  V30 1258 H 121.79 -1.82902 0.147978 0
M  V30 1259 H 120.172 -3.47471 -1.89947 0
M  V30 1260 H 121.346 -4.54637 0.751099 0
M  V30 1261 H 119.661 -4.13113 0.522159 0
M  V30 1262 H 122.258 -4.8947 -2.15229 0
M  V30 1263 H 122.601 -3.24417 -2.60882 0
M  V30 1264 H 123.134 -3.84504 -1.01986 0
M  V30 1265 H 119.873 -6.54929 0.273457 0
M  V30 1266 H 119.393 -5.85698 -1.29296 0
M  V30 1267 H 121.072 -6.38811 -1.02613 0
M  V30 1268 N 121.204 0.198386 -1.56346 0
M  V30 1269 C 122.45 0.920648 -1.80698 0
M  V30 1270 C 122.783 1.83045 -0.648697 0
M  V30 1271 O 122.058 1.91308 0.350925 0
M  V30 1272 C 122.341 1.73971 -3.15287 0
M  V30 1273 C 122.194 0.85485 -4.41602 0
M  V30 1274 C 123.513 2.71296 -3.46535 0
M  V30 1275 H 120.632 0.333261 -0.657348 0
M  V30 1276 H 123.274 0.188198 -1.89066 0
M  V30 1277 H 121.424 2.36416 -3.08285 0
M  V30 1278 H 123.096 0.245362 -4.60647 0
M  V30 1279 H 121.339 0.161398 -4.335 0
M  V30 1280 H 122.01 1.46286 -5.32264 0
M  V30 1281 H 124.486 2.18983 -3.53816 0
M  V30 1282 H 123.362 3.2569 -4.41834 0
M  V30 1283 H 123.623 3.5018 -2.69864 0
M  V30 1284 N 122.682 1.50554 0.465978 0
M  V30 1285 C 123.91 1.65563 1.24083 0
M  V30 1286 C 124.325 0.341051 1.85694 0
M  V30 1287 O 123.682 -0.677543 1.69457 0
M  V30 1288 C 123.733 2.75051 2.34583 0
M  V30 1289 O 123.454 4.01413 1.75497 0
M  V30 1290 C 124.955 3.01078 3.25372 0
M  V30 1291 H 122.175 0.55638 0.375077 0
M  V30 1292 H 124.719 1.96807 0.555624 0
M  V30 1293 H 122.874 2.46486 2.9887 0
M  V30 1294 H 123.288 4.62002 2.48303 0
M  V30 1295 H 124.762 3.81339 3.99105 0
M  V30 1296 H 125.239 2.12349 3.84453 0
M  V30 1297 H 125.845 3.31194 2.66816 0
M  V30 1298 N 124.16 -0.719506 1.40217 0
M  V30 1299 C 125.406 -1.48152 1.38488 0
M  V30 1300 C 125.739 -1.94195 -0.0141867 0
M  V30 1301 O 125.014 -1.67884 -0.982096 0
M  V30 1302 C 125.297 -2.71035 2.37091 0
M  V30 1303 C 125.15 -2.30912 3.86005 0
M  V30 1304 C 126.469 -3.73182 2.33288 0
M  V30 1305 H 123.588 -0.537395 0.504357 0
M  V30 1306 H 126.23 -0.821472 1.71324 0
M  V30 1307 H 124.38 -3.27352 2.0922 0
M  V30 1308 H 126.052 -1.80107 4.24687 0
M  V30 1309 H 124.295 -1.62958 4.02029 0
M  V30 1310 H 124.966 -3.18978 4.50508 0
M  V30 1311 H 127.442 -3.26485 2.57966 0
M  V30 1312 H 126.318 -4.56806 3.04334 0
M  V30 1313 H 126.579 -4.21202 1.34317 0
M  V30 1314 N 125.638 -1.25649 -0.95132 0
M  V30 1315 C 126.57 -1.02112 -2.05197 0
M  V30 1316 C 127.583 0.0150571 -1.62793 0
M  V30 1317 O 128.772 -0.223874 -1.77091 0
M  V30 1318 C 125.872 -0.522361 -3.3485 0
M  V30 1319 C 125.045 -1.62546 -4.06076 0
M  V30 1320 C 124.104 -1.12649 -5.14001 0
M  V30 1321 O 123.13 -1.82156 -5.39266 0
M  V30 1322 N 124.332 0.03047 -5.80492 0
M  V30 1323 H 127.097 -1.96885 -2.25957 0
M  V30 1324 H 124.658 -1.16899 -1.1201 0
M  V30 1325 H 126.65 -0.172961 -4.0433 0
M  V30 1326 H 125.22 0.33151 -3.10837 0
M  V30 1327 H 124.44 -2.14628 -3.30649 0
M  V30 1328 H 125.728 -2.36644 -4.50419 0
M  V30 1329 H 125.126 0.611169 -5.62389 0
M  V30 1330 H 123.683 0.320875 -6.5101 0
M  V30 1331 N 127.117 1.15442 -1.07289 0
M  V30 1332 C 128.365 1.85845 -0.794096 0
M  V30 1333 C 128.686 1.82692 0.681809 0
M  V30 1334 O 127.956 1.26741 1.49377 0
M  V30 1335 H 126.536 0.688089 -0.290763 0
M  V30 1336 H 129.198 1.39947 -1.3565 0
M  V30 1337 H 128.294 2.91001 -1.12804 0
M  V30 1338 N 128.595 0.856903 1.32268 0
M  V30 1339 C 129.545 0.274899 2.26337 0
M  V30 1340 C 130.529 -0.580543 1.50062 0
M  V30 1341 O 131.721 -0.429559 1.71708 0
M  V30 1342 C 128.85 -0.533841 3.39124 0
M  V30 1343 C 127.936 0.334114 4.22782 0
M  V30 1344 N 128.327 1.42143 4.85416 0
M  V30 1345 C 126.625 0.124256 4.45827 0
M  V30 1346 C 127.326 1.95559 5.47843 0
M  V30 1347 N 126.302 1.25444 5.28928 0
M  V30 1348 H 130.104 1.10612 2.72291 0
M  V30 1349 H 127.618 0.703258 1.46383 0
M  V30 1350 H 129.615 -0.96722 4.05525 0
M  V30 1351 H 128.275 -1.36283 2.94715 0
M  V30 1352 H 129.286 1.80436 4.85451 0
M  V30 1353 H 125.963 -0.669837 4.12092 0
M  V30 1354 H 127.353 2.86714 6.07655 0
M  V30 1355 N 130.073 -1.45103 0.615059 0
M  V30 1356 C 131.298 -2.07064 0.117988 0
M  V30 1357 C 131.723 -1.4554 -1.19163 0
M  V30 1358 O 131.081 -0.550855 -1.72729 0
M  V30 1359 C 131.129 -3.606 -0.000288387 0
M  V30 1360 O 130.233 -3.98847 -1.04856 0
M  V30 1361 H 129.574 -0.659467 0.0774581 0
M  V30 1362 H 132.104 -1.86236 0.847186 0
M  V30 1363 H 132.114 -4.07529 -0.196091 0
M  V30 1364 H 130.789 -4.04765 0.955932 0
M  V30 1365 H 129.366 -3.63577 -0.828619 0
M  V30 1366 N 131.551 -0.354651 -1.53558 0
M  V30 1367 C 132.484 0.540273 -2.21712 0
M  V30 1368 C 133.462 1.09161 -1.2051 0
M  V30 1369 O 134.646 1.14979 -1.49372 0
M  V30 1370 C 131.773 1.74435 -2.90328 0
M  V30 1371 C 130.819 1.32146 -4.05512 0
M  V30 1372 S 131.652 0.331924 -5.3447 0
M  V30 1373 C 132.808 1.54258 -6.06593 0
M  V30 1374 H 133.041 -0.0385776 -2.97275 0
M  V30 1375 H 130.574 -0.138736 -1.53775 0
M  V30 1376 H 132.532 2.43507 -3.30476 0
M  V30 1377 H 131.193 2.29444 -2.1451 0
M  V30 1378 H 130.386 2.21952 -4.52497 0
M  V30 1379 H 129.988 0.710091 -3.67197 0
M  V30 1380 H 132.28 2.47534 -6.30661 0
M  V30 1381 H 133.223 1.11431 -6.99277 0
M  V30 1382 H 133.631 1.74367 -5.36895 0
M  V30 1383 N 133.029 1.57378 -0.0835403 0
M  V30 1384 C 133.992 2.12252 0.864959 0
M  V30 1385 C 134.992 1.04916 1.21858 0
M  V30 1386 O 136.182 1.30853 1.14991 0
M  V30 1387 C 133.314 2.63358 2.16461 0
M  V30 1388 H 134.507 2.97371 0.388676 0
M  V30 1389 H 132.06 1.55423 0.165317 0
M  V30 1390 H 132.795 1.81727 2.686 0
M  V30 1391 H 132.58 3.41826 1.92087 0
M  V30 1392 H 134.07 3.05847 2.84337 0
M  V30 1393 N 134.507 -0.190092 1.56449 0
M  V30 1394 C 135.756 -0.907912 1.80111 0
M  V30 1395 C 136.069 -1.84214 0.657619 0
M  V30 1396 O 137.275 -2.60094 0.778663 0
M  V30 1397 C 135.731 -1.66485 3.19078 0
M  V30 1398 C 135.339 -0.7752 4.41242 0
M  V30 1399 C 137.083 -2.37201 3.52045 0
M  V30 1400 C 134.99 -1.53129 5.71231 0
M  V30 1401 H 133.92 -0.34276 0.671589 0
M  V30 1402 H 136.571 -0.161109 1.82791 0
M  V30 1403 H 134.953 -2.45572 3.10661 0
M  V30 1404 H 136.127 -0.0226298 4.60794 0
M  V30 1405 H 134.442 -0.178627 4.16017 0
M  V30 1406 H 137.039 -2.94329 4.46402 0
M  V30 1407 H 137.382 -3.11632 2.76028 0
M  V30 1408 H 137.915 -1.65075 3.61932 0
M  V30 1409 H 134.654 -0.82967 6.50228 0
M  V30 1410 H 134.174 -2.25767 5.55688 0
M  V30 1411 H 135.853 -2.08377 6.12526 0
M  V30 1412 N 135.985 -1.50799 -0.457987 0
M  V30 1413 C 137.215 -1.65977 -1.23025 0
M  V30 1414 C 137.623 -0.347918 -1.85974 0
M  V30 1415 O 136.966 0.68148 -1.70592 0
M  V30 1416 C 137.028 -2.70309 -2.3701 0
M  V30 1417 C 136.692 -4.135 -1.94594 0
M  V30 1418 C 137.689 -4.98949 -1.46101 0
M  V30 1419 C 135.374 -4.5949 -2.02915 0
M  V30 1420 C 137.368 -6.28442 -1.06489 0
M  V30 1421 C 135.055 -5.88984 -1.62914 0
M  V30 1422 C 136.053 -6.73286 -1.1478 0
M  V30 1423 O 135.741 -8.00362 -0.75339 0
M  V30 1424 H 135.473 -0.56064 -0.377702 0
M  V30 1425 H 138.027 -1.97857 -0.551537 0
M  V30 1426 H 136.257 -2.337 -3.08093 0
M  V30 1427 H 137.946 -2.74574 -2.98938 0
M  V30 1428 H 138.712 -4.6463 -1.39084 0
M  V30 1429 H 134.591 -3.94009 -2.39328 0
M  V30 1430 H 138.135 -6.94194 -0.688488 0
M  V30 1431 H 134.032 -6.22822 -1.69595 0
M  V30 1432 H 134.8 -8.13744 -0.88108 0
M  V30 1433 N 137.463 0.71206 -1.40597 0
M  V30 1434 C 138.74 1.46536 -1.29563 0
M  V30 1435 C 139.12 2.10931 0.0844217 0
M  V30 1436 O 138.468 2.00418 1.0975 0
M  V30 1437 C 138.678 2.49821 -2.43701 0
M  V30 1438 C 140.026 3.15551 -2.841 0
M  V30 1439 O 141.05 2.60142 -2.4332 0
M  V30 1440 O 139.909 4.15867 -3.54566 0
M  V30 1441 H 137.003 0.651801 -0.509004 0
M  V30 1442 H 139.549 0.743935 -1.52524 0
M  V30 1443 H 138.321 2.00778 -3.35863 0
M  V30 1444 H 137.944 3.29495 -2.22528 0
M  V30 1445 N 138.941 1.26152 0.944643 0
M  V30 1446 C 139.904 1.07474 2.0244 0
M  V30 1447 C 140.904 0.0242064 1.60782 0
M  V30 1448 O 142.094 0.267302 1.72137 0
M  V30 1449 C 139.226 0.633956 3.34953 0
M  V30 1450 H 140.419 2.03336 2.20442 0
M  V30 1451 H 137.972 1.087 1.12312 0
M  V30 1452 H 138.707 -0.326811 3.22649 0
M  V30 1453 H 138.492 1.39247 3.66542 0
M  V30 1454 H 139.982 0.52501 4.14287 0
M  V30 1455 N 140.419 -1.14872 1.07899 0
M  V30 1456 C 141.367 -2.21857 0.698727 0
M  V30 1457 C 142.361 -1.66845 -0.293086 0
M  V30 1458 O 143.567 -1.79321 -0.156204 0
M  V30 1459 H 139.942 -0.722691 0.207899 0
M  V30 1460 H 141.913 -2.51205 1.61054 0
M  V30 1461 C 140.662 -3.47498 0.11858 0
M  V30 1462 H 139.985 -3.90154 0.872914 0
M  V30 1463 H 141.425 -4.23858 -0.109759 0
M  V30 1464 C 139.884 -3.16947 -1.1422 0
M  V30 1465 O 140.414 -3.3426 -2.22785 0
M  V30 1466 N 138.62 -2.70946 -1.05055 0
M  V30 1467 H 138.167 -2.57058 -0.167038 0
M  V30 1468 H 138.125 -2.50879 -1.89491 0
M  V30 1469 N 141.898 -0.863906 -1.31812 0
M  V30 1470 C 143.146 -0.470904 -1.96537 0
M  V30 1471 C 143.467 0.978771 -1.68657 0
M  V30 1472 O 142.737 1.6853 -0.998717 0
M  V30 1473 H 141.317 -0.171148 -0.72713 0
M  V30 1474 H 143.979 -1.10236 -1.60729 0
M  V30 1475 H 143.075 -0.623616 -3.05806 0
M  V30 1476 N 143.376 1.44774 -0.622745 0
M  V30 1477 C 144.601 2.06999 -0.128968 0
M  V30 1478 C 145.026 1.4617 1.1839 0
M  V30 1479 O 144.384 0.560007 1.72434 0
M  V30 1480 C 144.432 3.60595 -0.0188351 0
M  V30 1481 O 143.536 3.99398 1.02739 0
M  V30 1482 H 142.877 0.659047 -0.0809544 0
M  V30 1483 H 145.407 1.85784 -0.85705 0
M  V30 1484 H 145.417 4.07627 0.174476 0
M  V30 1485 H 144.092 4.04252 -0.977384 0
M  V30 1486 H 142.669 3.64011 0.809326 0
M  V30 1487 N 144.854 0.36279 1.53368 0
M  V30 1488 C 145.786 -0.519668 2.23231 0
M  V30 1489 C 146.799 -1.04844 1.24546 0
M  V30 1490 O 147.988 -0.955296 1.50786 0
M  V30 1491 C 145.088 -1.72995 2.9142 0
M  V30 1492 C 144.261 -1.33316 4.16588 0
M  V30 1493 C 143.32 -2.40521 4.68013 0
M  V30 1494 O 142.346 -2.03027 5.3176 0
M  V30 1495 N 143.548 -3.72065 4.45587 0
M  V30 1496 H 146.313 0.078751 2.99597 0
M  V30 1497 H 143.874 0.187833 1.60807 0
M  V30 1498 H 145.866 -2.44184 3.22733 0
M  V30 1499 H 144.436 -2.2353 2.18525 0
M  V30 1500 H 143.656 -0.451236 3.91609 0
M  V30 1501 H 144.944 -1.04432 4.97967 0
M  V30 1502 H 144.342 -4.05304 3.94646 0
M  V30 1503 H 142.899 -4.39366 4.81457 0
M  V30 1504 N 146.332 -1.57332 0.0918853 0
M  V30 1505 C 147.578 -1.94524 -0.573425 0
M  V30 1506 C 147.911 -0.973578 -1.68033 0
M  V30 1507 O 147.186 -0.00609226 -1.94499 0
M  V30 1508 C 147.469 -3.41858 -1.13161 0
M  V30 1509 C 147.322 -4.4979 -0.0299747 0
M  V30 1510 C 148.641 -3.90435 -2.03098 0
M  V30 1511 H 145.76 -0.70734 -0.206975 0
M  V30 1512 H 148.402 -1.89309 0.161942 0
M  V30 1513 H 146.552 -3.46433 -1.7583 0
M  V30 1514 H 148.224 -4.57327 0.604112 0
M  V30 1515 H 146.467 -4.291 0.636833 0
M  V30 1516 H 147.138 -5.50069 -0.461287 0
M  V30 1517 H 149.614 -3.87992 -1.50338 0
M  V30 1518 H 148.49 -4.94097 -2.39081 0
M  V30 1519 H 148.751 -3.29541 -2.94712 0
M  V30 1520 N 147.81 0.181792 -1.56548 0
M  V30 1521 C 149.087 0.926765 -1.72251 0
M  V30 1522 C 149.467 2.00831 -0.650386 0
M  V30 1523 O 148.815 2.26008 0.336521 0
M  V30 1524 C 149.025 1.50106 -3.1507 0
M  V30 1525 C 150.373 1.97805 -3.75711 0
M  V30 1526 O 151.397 1.59922 -3.18282 0
M  V30 1527 O 150.256 2.67555 -4.76525 0
M  V30 1528 H 147.35 0.435506 -0.703039 0
M  V30 1529 H 149.896 0.170443 -1.68842 0
M  V30 1530 H 148.668 0.72212 -3.84579 0
M  V30 1531 H 148.291 2.32186 -3.22763 0
M  V30 1532 N 149.288 1.51039 0.449983 0
M  V30 1533 C 150.518 1.66627 1.22143 0
M  V30 1534 C 150.926 0.357776 1.85786 0
M  V30 1535 O 150.269 -0.672424 1.70951 0
M  V30 1536 C 150.331 2.71562 2.35573 0
M  V30 1537 C 149.995 4.14526 1.92399 0
M  V30 1538 C 150.992 4.99717 1.43453 0
M  V30 1539 C 148.677 4.60559 2.00475 0
M  V30 1540 C 150.671 6.28998 1.03155 0
M  V30 1541 C 148.358 5.8984 1.59788 0
M  V30 1542 C 149.356 6.73886 1.11208 0
M  V30 1543 O 149.044 8.0075 0.710935 0
M  V30 1544 H 148.776 0.562635 0.374724 0
M  V30 1545 H 151.33 1.98146 0.541036 0
M  V30 1546 H 149.56 2.3533 3.06849 0
M  V30 1547 H 151.249 2.76156 2.97478 0
M  V30 1548 H 152.015 4.65361 1.36618 0
M  V30 1549 H 147.894 3.95273 2.37235 0
M  V30 1550 H 151.438 6.9455 0.651663 0
M  V30 1551 H 147.335 6.23713 1.66289 0
M  V30 1552 H 148.103 8.142 0.837913 0
M  V30 1553 N 150.766 -0.704594 1.40972 0
M  V30 1554 C 152.015 -1.46018 1.39146 0
M  V30 1555 C 152.328 -1.956 0.000589254 0
M  V30 1556 O 153.534 -2.71137 -0.1403 0
M  V30 1557 C 151.99 -2.63996 2.4461 0
M  V30 1558 C 151.598 -2.21238 3.89561 0
M  V30 1559 C 153.342 -3.41677 2.51907 0
M  V30 1560 C 151.249 -3.3612 4.86598 0
M  V30 1561 H 150.179 -0.548444 0.517422 0
M  V30 1562 H 152.83 -0.765784 1.66757 0
M  V30 1563 H 151.212 -3.3566 2.10115 0
M  V30 1564 H 152.386 -1.56923 4.33257 0
M  V30 1565 H 150.701 -1.56574 3.85841 0
M  V30 1566 H 153.298 -4.27182 3.2159 0
M  V30 1567 H 153.641 -3.86247 1.55303 0
M  V30 1568 H 154.174 -2.77064 2.85448 0
M  V30 1569 H 150.913 -2.96572 5.84573 0
M  V30 1570 H 150.433 -3.99315 4.47557 0
M  V30 1571 H 152.112 -4.02029 5.06934 0
M  V30 1572 N 152.244 -1.26651 -0.937939 0
M  V30 1573 C 153.207 -1.08546 -2.01867 0
M  V30 1574 C 154.207 -0.0327327 -1.60767 0
M  V30 1575 O 155.397 -0.276427 -1.71993 0
M  V30 1576 C 152.529 -0.651711 -3.34613 0
M  V30 1577 H 153.722 -2.04502 -2.1936 0
M  V30 1578 H 151.275 -1.09294 -1.11734 0
M  V30 1579 H 152.01 0.309696 -3.22818 0
M  V30 1580 H 151.795 -1.41189 -3.65798 0
M  V30 1581 H 153.285 -0.546973 -4.14002 0
M  V30 1582 N 153.722 1.14298 -1.08507 0
M  V30 1583 C 154.67 2.21483 -0.710483 0
M  V30 1584 C 155.664 1.66998 0.284234 0
M  V30 1585 O 156.87 1.79401 0.146692 0
M  V30 1586 H 153.245 0.721578 -0.211729 0
M  V30 1587 H 155.216 2.50348 -1.62384 0
M  V30 1588 C 153.965 3.4743 -0.137007 0
M  V30 1589 H 153.288 3.89686 -0.893592 0
M  V30 1590 H 154.728 4.2391 0.0872789 0
M  V30 1591 C 153.187 3.17548 1.12538 0
M  V30 1592 O 153.717 3.35437 2.21009 0
M  V30 1593 N 151.923 2.71499 1.03617 0
M  V30 1594 H 151.47 2.57143 0.153403 0
M  V30 1595 H 151.428 2.51881 1.88158 0
M  V30 1596 N 155.201 0.870884 1.31352 0
M  V30 1597 C 156.447 0.482987 1.96965 0
M  V30 1598 C 156.78 -0.962462 1.68672 0
M  V30 1599 O 156.055 -1.6779 0.98371 0
M  V30 1600 C 156.338 0.741752 3.52378 0
M  V30 1601 C 156.191 2.2368 3.9024 0
M  V30 1602 C 157.51 0.208838 4.39604 0
M  V30 1603 H 154.629 0.176955 0.715441 0
M  V30 1604 H 157.271 1.09229 1.55464 0
M  V30 1605 H 155.421 0.223149 3.87859 0
M  V30 1606 H 157.093 2.82273 3.64856 0
M  V30 1607 H 155.336 2.70901 3.38814 0
M  V30 1608 H 156.007 2.3685 4.98604 0
M  V30 1609 H 158.483 0.652529 4.10952 0
M  V30 1610 H 157.359 0.419336 5.47296 0
M  V30 1611 H 157.62 -0.889275 4.33064 0
M  V30 1612 N 156.679 -1.44442 0.630414 0
M  V30 1613 C 157.609 -2.33418 -0.0618083 0
M  V30 1614 C 158.59 -1.48165 -0.835541 0
M  V30 1615 O 159.775 -1.76886 -0.801564 0
M  V30 1616 C 156.905 -3.31222 -1.04449 0
M  V30 1617 C 155.859 -4.26288 -0.382436 0
M  V30 1618 C 155.185 -5.13954 -1.47497 0
M  V30 1619 C 156.485 -5.1744 0.710865 0
M  V30 1620 H 158.179 -2.91548 0.681184 0
M  V30 1621 H 155.725 -1.40191 0.329026 0
M  V30 1622 H 157.678 -3.92351 -1.53748 0
M  V30 1623 H 156.402 -2.71299 -1.81836 0
M  V30 1624 H 155.061 -3.6649 0.0899054 0
M  V30 1625 H 154.709 -4.50385 -2.2397 0
M  V30 1626 H 154.409 -5.7837 -1.03737 0
M  V30 1627 H 155.933 -5.77955 -1.96979 0
M  V30 1628 H 157.347 -5.72509 0.300996 0
M  V30 1629 H 155.744 -5.90455 1.07156 0
M  V30 1630 H 156.814 -4.58496 1.57829 0
M  V30 1631 N 158.157 -0.370918 -1.53173 0
M  V30 1632 C 159.104 0.473035 -2.259 0
M  V30 1633 C 160.074 1.07311 -1.26781 0
M  V30 1634 O 161.259 1.1046 -1.55574 0
M  V30 1635 C 158.399 1.60405 -3.05556 0
M  V30 1636 C 157.512 1.02863 -4.19575 0
M  V30 1637 C 156.647 2.12918 -4.86661 0
M  V30 1638 C 155.686 1.52869 -5.92704 0
M  V30 1639 N 154.823 2.56779 -6.53459 0
M  V30 1640 H 159.663 -0.153649 -2.97604 0
M  V30 1641 H 157.2 -0.0875946 -1.46839 0
M  V30 1642 H 159.158 2.27034 -3.50016 0
M  V30 1643 H 157.788 2.20131 -2.36097 0
M  V30 1644 H 156.84 0.252465 -3.79561 0
M  V30 1645 H 158.152 0.549642 -4.95762 0
M  V30 1646 H 157.306 2.87356 -5.34333 0
M  V30 1647 H 156.045 2.6417 -4.09958 0
M  V30 1648 H 155.05 0.769479 -5.44389 0
M  V30 1649 H 156.275 1.02435 -6.7133 0
M  V30 1650 H 154.221 3.07235 -5.79606 0
M  V30 1651 H 154.138 2.13583 -7.25202 0
M  V30 1652 H 155.406 3.30903 -7.05779 0
M  V30 1653 N 159.635 1.57281 -0.100228 0
M  V30 1654 C 160.865 1.98591 0.569681 0
M  V30 1655 C 161.273 0.978315 1.61943 0
M  V30 1656 O 160.616 -0.0396108 1.83657 0
M  V30 1657 C 160.678 3.36282 1.271 0
M  V30 1658 C 160.342 4.55488 0.371409 0
M  V30 1659 C 161.339 5.18491 -0.382504 0
M  V30 1660 C 159.024 5.01474 0.287965 0
M  V30 1661 C 161.018 6.25852 -1.20779 0
M  V30 1662 C 158.705 6.08701 -0.540965 0
M  V30 1663 C 159.703 6.70755 -1.28749 0
M  V30 1664 O 159.391 7.75914 -2.10269 0
M  V30 1665 H 159.123 0.65752 0.156982 0
M  V30 1666 H 161.677 2.0463 -0.177734 0
M  V30 1667 H 159.907 3.26941 2.0651 0
M  V30 1668 H 161.596 3.62005 1.83595 0
M  V30 1669 H 162.362 4.83891 -0.3278 0
M  V30 1670 H 158.241 4.52932 0.858689 0
M  V30 1671 H 161.785 6.74218 -1.79096 0
M  V30 1672 H 157.682 6.42732 -0.597131 0
M  V30 1673 H 158.45 7.92925 -2.03007 0
M  V30 1674 N 161.113 -0.173488 1.56642 0
M  V30 1675 C 162.39 -0.917617 1.7274 0
M  V30 1676 C 162.77 -2.00484 0.661027 0
M  V30 1677 O 162.118 -2.26184 -0.32453 0
M  V30 1678 C 162.328 -1.48433 3.15862 0
M  V30 1679 C 163.676 -1.95809 3.76754 0
M  V30 1680 O 164.7 -1.58231 3.19126 0
M  V30 1681 O 163.559 -2.65024 4.77938 0
M  V30 1682 H 160.653 -0.431772 0.705338 0
M  V30 1683 H 163.199 -0.161487 1.6893 0
M  V30 1684 H 161.971 -0.701715 3.84957 0
M  V30 1685 H 161.594 -2.30471 3.23989 0
M  V30 1686 N 162.591 -1.51276 -0.441967 0
M  V30 1687 C 164.002 -1.56244 -1.02199 0
M  V30 1688 C 164.353 -0.383149 -1.92422 0
M  V30 1689 O 163.478 0.500613 -2.1053 0
M  V30 1690 C 164.073 -2.83162 -1.86024 0
M  V30 1691 C 162.632 -2.90716 -2.39084 0
M  V30 1692 C 161.779 -2.50858 -1.18175 0
M  V30 1693 H 164.73 -1.5712 -0.223416 0
M  V30 1694 H 164.751 -2.66663 -2.71425 0
M  V30 1695 H 164.263 -3.68974 -1.20331 0
M  V30 1696 H 162.364 -2.09323 -3.08244 0
M  V30 1697 H 162.477 -3.94266 -2.72198 0
M  V30 1698 H 160.841 -2.03951 -1.52565 0
M  V30 1699 H 161.624 -3.3901 -0.541001 0
M  V30 1700 N 164.069 0.697108 -1.41344 0
M  V30 1701 C 165.346 1.45154 -1.31109 0
M  V30 1702 C 165.726 2.11009 0.0620449 0
M  V30 1703 O 165.074 2.01571 1.07618 0
M  V30 1704 C 165.284 2.47223 -2.46337 0
M  V30 1705 C 166.632 3.1252 -2.87431 0
M  V30 1706 O 167.656 2.57547 -2.46065 0
M  V30 1707 O 166.515 4.12083 -3.58957 0
M  V30 1708 H 163.609 0.646365 -0.515889 0
M  V30 1709 H 166.155 0.727716 -1.53305 0
M  V30 1710 H 164.927 1.97204 -3.37974 0
M  V30 1711 H 164.55 3.27116 -2.2601 0
M  V30 1712 N 165.547 1.27147 0.931209 0
M  V30 1713 C 166.479 1.05364 2.03546 0
M  V30 1714 C 167.492 0.0108438 1.62796 0
M  V30 1715 O 168.681 0.25202 1.76712 0
M  V30 1716 C 165.781 0.575566 3.33977 0
M  V30 1717 C 164.954 1.68985 4.03439 0
M  V30 1718 C 164.013 1.20813 5.12143 0
M  V30 1719 O 163.039 1.90712 5.363 0
M  V30 1720 N 164.241 0.0618851 5.80467 0
M  V30 1721 H 167.006 2.00454 2.22796 0
M  V30 1722 H 164.567 1.18666 1.10136 0
M  V30 1723 H 166.559 0.237264 4.04004 0
M  V30 1724 H 165.129 -0.282016 3.11325 0
M  V30 1725 H 164.349 2.19861 3.27192 0
M  V30 1726 H 165.637 2.4378 4.46597 0
M  V30 1727 H 165.035 -0.521621 5.6329 0
M  V30 1728 H 163.592 -0.217264 6.51438 0
M  V30 1729 N 167.025 -1.13721 1.09112 0
M  V30 1730 C 168.255 -1.88499 0.845671 0
M  V30 1731 C 168.663 -1.79218 -0.606432 0
M  V30 1732 O 168.006 -1.1544 -1.42896 0
M  V30 1733 C 168.068 -3.38954 1.19793 0
M  V30 1734 C 167.732 -3.72018 2.65428 0
M  V30 1735 C 168.729 -3.7153 3.63677 0
M  V30 1736 C 166.414 -4.01775 3.01467 0
M  V30 1737 C 168.408 -4.00336 4.95994 0
M  V30 1738 C 166.095 -4.30243 4.33975 0
M  V30 1739 C 167.093 -4.29508 5.31048 0
M  V30 1740 O 166.781 -4.5728 6.61173 0
M  V30 1741 H 166.513 -0.603702 0.304171 0
M  V30 1742 H 169.067 -1.44903 1.45576 0
M  V30 1743 H 167.297 -3.83039 0.530871 0
M  V30 1744 H 168.986 -3.95052 0.932146 0
M  V30 1745 H 169.752 -3.4862 3.37179 0
M  V30 1746 H 165.631 -4.01496 2.26544 0
M  V30 1747 H 169.175 -3.99678 5.71755 0
M  V30 1748 H 165.072 -4.52625 4.60219 0
M  V30 1749 H 165.84 -4.74964 6.66597 0
M  V30 1750 N 168.503 -0.877838 -1.30888 0
M  V30 1751 C 169.728 -0.506629 -2.01117 0
M  V30 1752 C 170.153 0.895564 -1.65412 0
M  V30 1753 O 169.511 1.5923 -0.866922 0
M  V30 1754 C 169.559 -0.680223 -3.54126 0
M  V30 1755 O 168.663 0.277033 -4.11468 0
M  V30 1756 H 168.004 -0.200518 -0.633 0
M  V30 1757 H 170.534 -1.18342 -1.66902 0
M  V30 1758 H 170.544 -0.5765 -4.03907 0
M  V30 1759 H 169.219 -1.70261 -3.79452 0
M  V30 1760 H 167.796 0.127606 -3.72682 0
M  V30 1761 N 169.982 1.44106 -0.638065 0
M  V30 1762 C 171.231 2.01194 -0.142744 0
M  V30 1763 C 171.544 1.50835 1.24532 0
M  V30 1764 O 172.75 2.00096 1.83504 0
M  V30 1765 C 171.206 3.59319 -0.20442 0
M  V30 1766 C 170.814 4.18674 -1.59423 0
M  V30 1767 C 172.558 4.23854 0.234079 0
M  V30 1768 C 170.465 5.69045 -1.61065 0
M  V30 1769 H 169.395 0.752367 -0.0495998 0
M  V30 1770 H 172.046 1.65246 -0.797881 0
M  V30 1771 H 170.428 3.92598 0.517946 0
M  V30 1772 H 171.602 3.96921 -2.34074 0
M  V30 1773 H 169.917 3.66453 -1.97741 0
M  V30 1774 H 172.514 5.34155 0.241443 0
M  V30 1775 H 172.857 3.96688 1.2627 0
M  V30 1776 H 173.39 3.95403 -0.436025 0
M  V30 1777 H 170.129 6.00956 -2.61787 0
M  V30 1778 H 169.649 5.929 -0.90718 0
M  V30 1779 H 171.328 6.32809 -1.34766 0
M  V30 1780 N 171.46 0.379036 1.52974 0
M  V30 1781 C 172.37 -0.468639 2.29872 0
M  V30 1782 C 173.386 -1.08067 1.36373 0
M  V30 1783 O 174.562 -1.08871 1.69438 0
M  V30 1784 C 171.627 -1.58594 3.083 0
M  V30 1785 C 170.688 -1.00007 4.17489 0
M  V30 1786 C 169.921 -2.06413 4.92168 0
M  V30 1787 O 170.144 -3.27751 4.66835 0
M  V30 1788 O 169.078 -1.68717 5.7777 0
M  V30 1789 H 172.904 0.157508 3.03291 0
M  V30 1790 H 170.489 0.143035 1.48714 0
M  V30 1791 H 172.371 -2.23525 3.57232 0
M  V30 1792 H 171.046 -2.19724 2.37703 0
M  V30 1793 H 169.953 -0.314299 3.72777 0
M  V30 1794 H 171.286 -0.433135 4.90291 0
M  V30 1795 N 172.938 -1.57226 0.108567 0
M  V30 1796 C 173.901 -2.13602 -0.831082 0
M  V30 1797 C 174.901 -1.06841 -1.20173 0
M  V30 1798 O 176.091 -1.32666 -1.12895 0
M  V30 1799 C 173.223 -2.66769 -2.12243 0
M  V30 1800 H 174.416 -2.97951 -0.341317 0
M  V30 1801 H 171.969 -1.55667 -0.14057 0
M  V30 1802 H 172.704 -1.85977 -2.65675 0
M  V30 1803 H 172.489 -3.44839 -1.86625 0
M  V30 1804 H 173.979 -3.10332 -2.79435 0
M  V30 1805 N 174.416 0.165178 -1.56732 0
M  V30 1806 C 175.693 0.908443 -1.73224 0
M  V30 1807 C 176.073 2.0013 -0.67165 0
M  V30 1808 O 175.421 2.26353 0.31253 0
M  V30 1809 C 175.631 1.46756 -3.16644 0
M  V30 1810 C 176.979 1.93809 -3.77787 0
M  V30 1811 O 178.003 1.56537 -3.1996 0
M  V30 1812 O 176.862 2.62486 -4.79336 0
M  V30 1813 H 173.956 0.428025 -0.707618 0
M  V30 1814 H 176.502 0.152526 -1.69013 0
M  V30 1815 H 175.274 0.68129 -3.85323 0
M  V30 1816 H 174.897 2.28749 -3.25207 0
M  V30 1817 N 175.894 1.51508 0.433938 0
M  V30 1818 C 176.841 1.73068 1.52696 0
M  V30 1819 C 177.811 0.572441 1.55924 0
M  V30 1820 O 178.996 0.807253 1.72882 0
M  V30 1821 C 176.136 1.86474 2.90381 0
M  V30 1822 C 175.249 3.14037 2.96656 0
M  V30 1823 C 174.384 3.18019 4.25485 0
M  V30 1824 C 173.423 4.39882 4.2564 0
M  V30 1825 N 172.56 4.41394 5.45999 0
M  V30 1826 H 177.4 2.66366 1.33615 0
M  V30 1827 H 174.937 1.32008 0.649018 0
M  V30 1828 H 176.895 1.92229 3.70275 0
M  V30 1829 H 175.525 0.965809 3.08013 0
M  V30 1830 H 174.577 3.17575 2.09404 0
M  V30 1831 H 175.889 4.0394 2.92633 0
M  V30 1832 H 175.043 3.22708 5.13755 0
M  V30 1833 H 173.782 2.2601 4.3217 0
M  V30 1834 H 172.787 4.35366 3.35763 0
M  V30 1835 H 174.012 5.33159 4.20617 0
M  V30 1836 H 171.958 3.52258 5.53399 0
M  V30 1837 H 171.875 5.25111 5.4387 0
M  V30 1838 H 173.143 4.50281 6.36292 0
M  V30 1839 N 177.372 -0.689602 1.41712 0
M  V30 1840 C 178.319 -1.80345 1.44029 0
M  V30 1841 C 179.289 -1.63478 0.293948 0
M  V30 1842 O 180.474 -1.84244 0.495869 0
M  V30 1843 C 177.614 -3.18272 1.33405 0
M  V30 1844 C 176.727 -3.46529 2.57956 0
M  V30 1845 C 175.862 -4.74103 2.39582 0
M  V30 1846 C 174.901 -4.95347 3.5958 0
M  V30 1847 N 174.038 -6.14151 3.40239 0
M  V30 1848 H 178.878 -1.77698 2.39222 0
M  V30 1849 H 176.415 -0.867688 1.18784 0
M  V30 1850 H 178.373 -3.97956 1.25246 0
M  V30 1851 H 177.003 -3.2008 0.418164 0
M  V30 1852 H 176.055 -2.61207 2.76542 0
M  V30 1853 H 177.367 -3.58126 3.47199 0
M  V30 1854 H 176.521 -5.61853 2.28924 0
M  V30 1855 H 175.26 -4.64763 1.47805 0
M  V30 1856 H 174.265 -4.06044 3.70686 0
M  V30 1857 H 175.49 -5.06542 4.52318 0
M  V30 1858 H 173.436 -6.06013 2.51167 0
M  V30 1859 H 173.353 -6.26543 4.23061 0
M  V30 1860 H 174.621 -7.04619 3.33365 0
M  V30 1861 N 178.85 -1.27639 -0.924453 0
M  V30 1862 C 180.097 -1.14167 -1.67249 0
M  V30 1863 C 180.425 0.311863 -1.91984 0
M  V30 1864 O 179.68 1.24425 -1.51053 0
M  V30 1865 C 179.979 -1.87407 -3.04325 0
M  V30 1866 C 179.645 -3.37249 -2.99289 0
M  V30 1867 C 178.307 -3.7812 -2.97622 0
M  V30 1868 C 180.659 -4.32845 -2.90336 0
M  V30 1869 C 177.987 -5.12944 -2.8479 0
M  V30 1870 C 180.339 -5.6773 -2.79045 0
M  V30 1871 C 179.003 -6.07889 -2.7573 0
M  V30 1872 H 178.273 -0.417766 -0.612007 0
M  V30 1873 H 180.92 -1.58286 -1.07786 0
M  V30 1874 H 179.225 -1.35805 -3.67511 0
M  V30 1875 H 180.922 -1.74408 -3.61086 0
M  V30 1876 H 177.512 -3.04748 -3.01374 0
M  V30 1877 H 181.696 -4.02239 -2.90719 0
M  V30 1878 H 176.952 -5.432 -2.80612 0
M  V30 1879 H 181.126 -6.41472 -2.71083 0
M  V30 1880 H 178.753 -7.12314 -2.65544 0
M  V30 1881 N 180.328 1.1314 -1.09713 0
M  V30 1882 C 181.275 2.18642 -0.739196 0
M  V30 1883 C 182.245 1.63706 0.280978 0
M  V30 1884 O 183.43 1.90111 0.161946 0
M  V30 1885 C 180.57 3.44685 -0.169102 0
M  V30 1886 C 179.683 4.13711 -1.24367 0
M  V30 1887 C 178.818 5.27379 -0.636019 0
M  V30 1888 C 177.857 5.88259 -1.69169 0
M  V30 1889 N 176.994 6.93352 -1.10485 0
M  V30 1890 H 181.834 2.48607 -1.64312 0
M  V30 1891 H 179.371 1.22066 -0.820875 0
M  V30 1892 H 181.329 4.16815 0.179256 0
M  V30 1893 H 179.959 3.15161 0.698079 0
M  V30 1894 H 179.011 3.39835 -1.70927 0
M  V30 1895 H 180.323 4.55037 -2.04311 0
M  V30 1896 H 179.477 6.06238 -0.236677 0
M  V30 1897 H 178.216 4.8731 0.194928 0
M  V30 1898 H 177.221 5.08092 -2.10055 0
M  V30 1899 H 178.446 6.30399 -2.52536 0
M  V30 1900 H 176.392 6.55335 -0.295234 0
M  V30 1901 H 176.309 7.33236 -1.84121 0
M  V30 1902 H 177.577 7.76057 -0.73181 0
M  V30 1903 N 181.806 0.884767 1.30421 0
M  V30 1904 C 183.036 0.517293 2.00019 0
M  V30 1905 C 183.444 -0.898632 1.66497 0
M  V30 1906 O 182.787 -1.60245 0.898181 0
M  V30 1907 C 182.849 0.612025 3.54252 0
M  V30 1908 C 182.513 1.99222 4.1129 0
M  V30 1909 C 183.51 2.9616 4.273 0
M  V30 1910 C 181.195 2.29755 4.46674 0
M  V30 1911 C 183.189 4.21764 4.77906 0
M  V30 1912 C 180.876 3.55606 4.96979 0
M  V30 1913 C 181.874 4.51425 5.12547 0
M  V30 1914 O 181.562 5.75043 5.61766 0
M  V30 1915 H 181.294 0.198529 0.64619 0
M  V30 1916 H 183.848 1.1919 1.67281 0
M  V30 1917 H 182.078 -0.119561 3.86515 0
M  V30 1918 H 183.767 0.255859 4.05093 0
M  V30 1919 H 184.533 2.73882 4.00267 0
M  V30 1920 H 180.412 1.55942 4.33824 0
M  V30 1921 H 183.956 4.96561 4.89972 0
M  V30 1922 H 179.853 3.7772 5.23448 0
M  V30 1923 H 180.621 5.77422 5.80109 0
M  V30 1924 N 183.284 -1.43765 0.645699 0
M  V30 1925 C 184.509 -2.06767 0.161883 0
M  V30 1926 C 184.934 -1.48034 -1.16049 0
M  V30 1927 O 184.292 -0.587369 -1.71522 0
M  V30 1928 C 184.34 -3.60519 0.0762003 0
M  V30 1929 O 183.444 -4.00982 -0.963721 0
M  V30 1930 H 182.785 -0.657675 0.091429 0
M  V30 1931 H 185.315 -1.84397 0.886499 0
M  V30 1932 H 185.325 -4.07853 -0.109604 0
M  V30 1933 H 184 -4.02646 1.04157 0
M  V30 1934 H 182.577 -3.65253 -0.751312 0
M  V30 1935 N 184.763 -0.387143 -1.52771 0
M  V30 1936 C 186.009 0.196025 -2.0185 0
M  V30 1937 C 186.342 1.46641 -1.27319 0
M  V30 1938 O 185.617 1.90889 -0.373032 0
M  V30 1939 C 185.9 0.466136 -3.5707 0
M  V30 1940 C 185.753 -0.819385 -4.42274 0
M  V30 1941 C 187.072 1.25768 -4.21747 0
M  V30 1942 H 184.191 0.0697708 -0.73369 0
M  V30 1943 H 186.833 -0.516286 -1.82851 0
M  V30 1944 H 184.983 1.07293 -3.7339 0
M  V30 1945 H 186.655 -1.4563 -4.37709 0
M  V30 1946 H 184.898 -1.43517 -4.09372 0
M  V30 1947 H 185.569 -0.585065 -5.48891 0
M  V30 1948 H 188.045 0.744167 -4.09391 0
M  V30 1949 H 186.921 1.41541 -5.30337 0
M  V30 1950 H 187.182 2.27228 -3.79236 0
M  V30 1951 N 186.241 1.57166 -0.116904 0
M  V30 1952 C 187.188 2.15202 0.83408 0
M  V30 1953 C 188.158 1.07644 1.26499 0
M  V30 1954 O 189.343 1.35541 1.34288 0
M  V30 1955 C 186.483 2.75405 2.07957 0
M  V30 1956 C 185.596 3.97264 1.69721 0
M  V30 1957 C 184.731 4.45561 2.89221 0
M  V30 1958 C 183.77 5.59956 2.47215 0
M  V30 1959 N 182.907 6.03006 3.59622 0
M  V30 1960 H 187.747 2.96141 0.332335 0
M  V30 1961 H 185.284 1.46309 0.152349 0
M  V30 1962 H 187.242 3.08439 2.80929 0
M  V30 1963 H 185.872 1.97159 2.55594 0
M  V30 1964 H 184.924 3.70404 0.866316 0
M  V30 1965 H 186.236 4.80226 1.34849 0
M  V30 1966 H 185.39 4.80493 3.7042 0
M  V30 1967 H 184.129 3.61544 3.27318 0
M  V30 1968 H 183.134 5.2463 1.64448 0
M  V30 1969 H 184.359 6.45738 2.10238 0
M  V30 1970 H 182.305 5.21931 3.97396 0
M  V30 1971 H 182.222 6.80819 3.28667 0
M  V30 1972 H 183.49 6.42576 4.41267 0
M  V30 1973 N 187.719 -0.156864 1.56817 0
M  V30 1974 C 188.649 -1.19589 2.00551 0
M  V30 1975 C 189.63 -1.4536 0.883426 0
M  V30 1976 O 190.815 -1.56449 1.15054 0
M  V30 1977 C 187.945 -2.53143 2.37773 0
M  V30 1978 C 186.899 -2.41913 3.53075 0
M  V30 1979 C 186.225 -3.80088 3.76081 0
M  V30 1980 C 187.525 -1.91157 4.86062 0
M  V30 1981 H 189.219 -0.832293 2.87599 0
M  V30 1982 H 186.765 -0.398918 1.38364 0
M  V30 1983 H 188.718 -3.26047 2.66967 0
M  V30 1984 H 187.442 -2.91319 1.4765 0
M  V30 1985 H 186.101 -1.71462 3.24031 0
M  V30 1986 H 185.749 -4.15683 2.83225 0
M  V30 1987 H 185.449 -3.73439 4.53671 0
M  V30 1988 H 186.973 -4.54556 4.0769 0
M  V30 1989 H 188.387 -2.53846 5.14038 0
M  V30 1990 H 186.784 -1.95422 5.67389 0
M  V30 1991 H 187.854 -0.866673 4.77092 0
M  V30 1992 N 189.197 -1.51736 -0.425897 0
M  V30 1993 C 190.422 -1.69082 -1.20108 0
M  V30 1994 C 190.847 -0.392398 -1.83962 0
M  V30 1995 O 190.205 0.64858 -1.69302 0
M  V30 1996 C 190.253 -2.81604 -2.25237 0
M  V30 1997 O 189.357 -2.46004 -3.30992 0
M  V30 1998 H 188.698 -0.563408 -0.35138 0
M  V30 1999 H 191.228 -1.98358 -0.501512 0
M  V30 2000 H 191.238 -3.06025 -2.69838 0
M  V30 2001 H 189.913 -3.75817 -1.78142 0
M  V30 2002 H 188.49 -2.32195 -2.91787 0
M  V30 2003 N 190.675 0.682077 -1.42076 0
M  V30 2004 C 191.952 1.43755 -1.32642 0
M  V30 2005 C 192.332 2.11063 0.0396611 0
M  V30 2006 O 191.68 2.02701 1.05474 0
M  V30 2007 C 191.89 2.44596 -2.48946 0
M  V30 2008 C 193.238 3.09454 -2.9073 0
M  V30 2009 O 194.262 2.54922 -2.48783 0
M  V30 2010 O 193.121 4.08253 -3.63307 0
M  V30 2011 H 190.215 0.640857 -0.522715 0
M  V30 2012 H 192.761 0.711415 -1.54068 0
M  V30 2013 H 191.533 1.93609 -3.40046 0
M  V30 2014 H 191.156 3.24701 -2.29467 0
M  V30 2015 N 192.153 1.28127 0.917671 0
M  V30 2016 C 193.383 1.17722 1.6978 0
M  V30 2017 C 193.791 -0.267261 1.87303 0
M  V30 2018 O 193.134 -1.19286 1.39702 0
M  V30 2019 C 193.196 1.79958 3.11216 0
M  V30 2020 C 192.86 3.29187 3.16993 0
M  V30 2021 C 193.857 4.25679 2.98485 0
M  V30 2022 C 191.542 3.70075 3.39632 0
M  V30 2023 C 193.536 5.61035 3.02521 0
M  V30 2024 C 191.223 5.05557 3.433 0
M  V30 2025 C 192.221 6.00847 3.24764 0
M  V30 2026 O 191.909 7.33859 3.28187 0
M  V30 2027 H 191.641 0.409788 0.537634 0
M  V30 2028 H 194.195 1.69694 1.15728 0
M  V30 2029 H 192.425 1.22475 3.66793 0
M  V30 2030 H 194.114 1.64125 3.71238 0
M  V30 2031 H 194.88 3.95426 2.80826 0
M  V30 2032 H 190.759 2.96373 3.53106 0
M  V30 2033 H 194.303 6.35388 2.87971 0
M  V30 2034 H 190.2 5.35462 3.60486 0
M  V30 2035 H 190.968 7.42436 3.44575 0
M  V30 2036 N 193.631 -1.12557 1.10312 0
M  V30 2037 C 195.042 -1.65574 0.862678 0
M  V30 2038 C 195.393 -1.86566 -0.607256 0
M  V30 2039 O 194.518 -1.59121 -1.46662 0
M  V30 2040 C 195.113 -3.00776 1.55947 0
M  V30 2041 C 193.672 -3.50748 1.36576 0
M  V30 2042 C 192.819 -2.25797 1.60968 0
M  V30 2043 H 195.77 -0.963552 1.26101 0
M  V30 2044 H 195.791 -3.67185 0.997753 0
M  V30 2045 H 195.303 -2.85465 2.62928 0
M  V30 2046 H 193.404 -3.71245 0.317531 0
M  V30 2047 H 193.517 -4.30289 2.10686 0
M  V30 2048 H 191.881 -2.32841 1.03234 0
M  V30 2049 H 192.664 -2.13043 2.69198 0
M  V30 2050 N 195.109 -0.891671 -1.2995 0
M  V30 2051 C 196.337 -0.52866 -2.00032 0
M  V30 2052 C 196.752 0.884574 -1.66795 0
M  V30 2053 O 196.109 1.5827 -0.908669 0
M  V30 2054 C 196.16 -0.701814 -3.54622 0
M  V30 2055 O 195.881 -2.05942 -3.86678 0
M  V30 2056 C 197.382 -0.342683 -4.41973 0
M  V30 2057 H 194.602 -0.203659 -0.639347 0
M  V30 2058 H 197.146 -1.19881 -1.65677 0
M  V30 2059 H 195.301 -0.0789468 -3.8732 0
M  V30 2060 H 195.715 -2.08291 -4.81368 0
M  V30 2061 H 197.189 -0.514709 -5.49595 0
M  V30 2062 H 197.666 0.71975 -4.33262 0
M  V30 2063 H 198.272 -0.942154 -4.14733 0
M  V30 2064 N 196.587 1.43421 -0.653314 0
M  V30 2065 C 197.517 2.33487 0.0246656 0
M  V30 2066 C 198.498 1.49475 0.811863 0
M  V30 2067 O 199.683 1.78139 0.773322 0
M  V30 2068 C 196.813 3.32841 0.99166 0
M  V30 2069 C 195.767 4.26842 0.314568 0
M  V30 2070 C 195.093 5.16236 1.39302 0
M  V30 2071 C 196.393 5.16243 -0.793095 0
M  V30 2072 H 198.087 2.90427 -0.727481 0
M  V30 2073 H 195.633 1.39649 -0.351287 0
M  V30 2074 H 197.586 3.94747 1.47487 0
M  V30 2075 H 196.31 2.74158 1.77497 0
M  V30 2076 H 194.969 3.663 -0.148199 0
M  V30 2077 H 194.617 4.53891 2.16776 0
M  V30 2078 H 194.317 5.79948 0.945223 0
M  V30 2079 H 195.841 5.81015 1.87759 0
M  V30 2080 H 197.255 5.71958 -0.392039 0
M  V30 2081 H 195.652 5.88676 -1.16536 0
M  V30 2082 H 196.722 4.55927 -1.65103 0
M  V30 2083 N 198.065 0.39524 1.52563 0
M  V30 2084 C 198.997 -0.472201 2.24283 0
M  V30 2085 C 200.01 -1.02178 1.26742 0
M  V30 2086 O 201.199 -0.923097 1.52778 0
M  V30 2087 C 198.299 -1.66775 2.95024 0
M  V30 2088 C 197.472 -1.2445 4.19322 0
M  V30 2089 C 196.531 -2.30539 4.7301 0
M  V30 2090 O 195.557 -1.91702 5.35947 0
M  V30 2091 N 196.759 -3.6253 4.53379 0
M  V30 2092 H 199.524 0.142282 2.99362 0
M  V30 2093 H 197.085 0.2219 1.60372 0
M  V30 2094 H 199.077 -2.37283 3.27839 0
M  V30 2095 H 197.647 -2.18845 2.23217 0
M  V30 2096 H 196.867 -0.368069 3.92478 0
M  V30 2097 H 198.155 -0.938457 5.0007 0
M  V30 2098 H 197.553 -3.96841 4.03154 0
M  V30 2099 H 196.11 -4.29055 4.90668 0
M  V30 2100 N 199.544 -1.57102 0.125237 0
M  V30 2101 C 200.821 -1.86953 -0.575142 0
M  V30 2102 C 201.201 -1.02749 -1.84407 0
M  V30 2103 O 200.549 -0.108144 -2.28244 0
M  V30 2104 C 200.759 -3.38198 -0.861583 0
M  V30 2105 C 202.107 -4.06937 -1.21192 0
M  V30 2106 O 203.131 -3.43252 -0.951645 0
M  V30 2107 O 201.99 -5.19364 -1.70068 0
M  V30 2108 H 199.084 -0.774147 -0.290906 0
M  V30 2109 H 201.63 -1.68942 0.160211 0
M  V30 2110 H 200.402 -3.91282 0.0373647 0
M  V30 2111 H 200.025 -3.61661 -1.65188 0
M  V30 2112 N 201.022 0.148545 -1.56898 0
M  V30 2113 C 201.985 1.16736 -1.97244 0
M  V30 2114 C 202.985 1.35947 -0.858777 0
M  V30 2115 O 204.175 1.32966 -1.12542 0
M  V30 2116 C 201.307 2.52798 -2.28705 0
M  V30 2117 H 202.5 0.821279 -2.88435 0
M  V30 2118 H 200.053 0.391831 -1.51309 0
M  V30 2119 H 200.788 2.92381 -1.403 0
M  V30 2120 H 200.573 2.40216 -3.09901 0
M  V30 2121 H 202.063 3.26179 -2.60762 0
M  V30 2122 N 202.5 1.5196 0.417844 0
M  V30 2123 C 203.463 1.74065 1.49111 0
M  V30 2124 C 204.463 0.610537 1.48758 0
M  V30 2125 O 205.653 0.87832 1.50437 0
M  V30 2126 C 202.785 1.81502 2.88565 0
M  V30 2127 H 203.978 2.69869 1.30807 0
M  V30 2128 H 201.531 1.42244 0.647785 0
M  V30 2129 H 202.266 0.875813 3.1225 0
M  V30 2130 H 202.051 2.63651 2.90225 0
M  V30 2131 H 203.541 2.00376 3.66387 0
M  V30 2132 N 203.978 -0.674533 1.42435 0
M  V30 2133 C 205.203 -1.46784 1.46524 0
M  V30 2134 C 205.628 -1.87938 0.078066 0
M  V30 2135 O 204.986 -1.56014 -0.92354 0
M  V30 2136 C 205.034 -2.69307 2.39805 0
M  V30 2137 O 204.138 -3.67587 1.86959 0
M  V30 2138 H 203.479 -0.440959 0.496439 0
M  V30 2139 H 206.009 -0.827326 1.87127 0
M  V30 2140 H 206.019 -3.17374 2.56393 0
M  V30 2141 H 204.694 -2.38692 3.40586 0
M  V30 2142 H 203.271 -3.2662 1.79927 0
M  V30 2143 N 205.456 -1.28612 -0.910864 0
M  V30 2144 C 206.419 -1.12803 -1.9952 0
M  V30 2145 C 207.419 -0.0668264 -1.60661 0
M  V30 2146 O 208.609 -0.312847 -1.71368 0
M  V30 2147 C 205.741 -0.72254 -3.33155 0
M  V30 2148 H 206.934 -2.09109 -2.14973 0
M  V30 2149 H 204.487 -1.11639 -1.09391 0
M  V30 2150 H 205.222 0.241152 -3.23402 0
M  V30 2151 H 205.007 -1.48916 -3.62721 0
M  V30 2152 H 206.497 -0.634666 -4.12749 0
M  V30 2153 N 206.934 1.1197 -1.10907 0
M  V30 2154 C 207.897 2.16031 -0.765707 0
M  V30 2155 C 208.897 1.59393 0.212235 0
M  V30 2156 O 210.087 1.74196 -0.0115441 0
M  V30 2157 C 207.219 3.40632 -0.135053 0
M  V30 2158 H 208.412 2.47919 -1.68748 0
M  V30 2159 H 205.965 1.27061 -0.910226 0
M  V30 2160 H 206.7 3.14348 0.797218 0
M  V30 2161 H 206.485 3.8302 -0.838937 0
M  V30 2162 H 207.975 4.17505 0.0892469 0
M  V30 2163 N 208.412 0.89855 1.29475 0
M  V30 2164 C 209.658 0.524658 1.95896 0
M  V30 2165 C 209.991 -0.926468 1.70676 0
M  V30 2166 O 209.266 -1.65665 1.01908 0
M  V30 2167 C 209.549 0.81633 3.50725 0
M  V30 2168 C 209.402 2.31907 3.85408 0
M  V30 2169 C 210.721 0.302038 4.39062 0
M  V30 2170 H 207.84 0.19209 0.711527 0
M  V30 2171 H 210.482 1.12502 1.53112 0
M  V30 2172 H 208.632 0.305369 3.87298 0
M  V30 2173 H 210.304 2.89949 3.58786 0
M  V30 2174 H 208.547 2.78027 3.32992 0
M  V30 2175 H 209.218 2.47373 4.93468 0
M  V30 2176 H 211.694 0.739551 4.09475 0
M  V30 2177 H 210.57 0.535331 5.46283 0
M  V30 2178 H 210.831 -0.797216 4.34853 0
M  V30 2179 N 209.89 -1.43072 0.660911 0
M  V30 2180 C 211.167 -1.95307 0.107017 0
M  V30 2181 C 211.547 -1.60192 -1.37484 0
M  V30 2182 O 210.895 -0.890949 -2.10415 0
M  V30 2183 C 211.105 -3.47124 0.361402 0
M  V30 2184 C 212.453 -4.23738 0.270455 0
M  V30 2185 O 213.477 -3.54981 0.294382 0
M  V30 2186 O 212.336 -5.46131 0.200737 0
M  V30 2187 H 209.43 -0.826984 -0.00517729 0
M  V30 2188 H 211.976 -1.52972 0.734681 0
M  V30 2189 H 210.748 -3.65837 1.38848 0
M  V30 2190 H 210.371 -3.96475 -0.298953 0
M  V30 2191 N 211.368 -0.403325 -1.52352 0
M  V30 2192 C 212.616 0.174003 -2.0135 0
M  V30 2193 C 212.937 1.46139 -1.29106 0
M  V30 2194 O 212.207 1.91448 -0.415253 0
M  V30 2195 H 210.787 0.0672911 -0.743963 0
M  V30 2196 H 213.449 -0.538235 -1.87321 0
M  V30 2197 H 212.545 0.374254 -3.09848 0
M  V30 2198 N 212.846 1.57033 -0.133567 0
M  V30 2199 C 213.776 2.1909 0.807567 0
M  V30 2200 C 214.757 1.13517 1.26681 0
M  V30 2201 O 215.942 1.41809 1.32679 0
M  V30 2202 C 213.072 2.80188 2.05212 0
M  V30 2203 C 212.026 3.91471 1.73015 0
M  V30 2204 C 211.352 4.39443 3.04622 0
M  V30 2205 C 212.652 5.12886 0.987168 0
M  V30 2206 H 214.346 2.97988 0.290403 0
M  V30 2207 H 211.892 1.43335 0.138239 0
M  V30 2208 H 213.845 3.22264 2.71521 0
M  V30 2209 H 212.569 1.98601 2.59278 0
M  V30 2210 H 211.228 3.49993 1.0909 0
M  V30 2211 H 210.876 3.54695 3.56651 0
M  V30 2212 H 210.576 5.14495 2.83847 0
M  V30 2213 H 212.1 4.8418 3.72024 0
M  V30 2214 H 213.514 5.51891 1.55208 0
M  V30 2215 H 211.911 5.93615 0.87985 0
M  V30 2216 H 212.981 4.84894 -0.0235286 0
M  V30 2217 N 214.325 -0.140222 1.56975 0
M  V30 2218 C 215.255 -1.17456 2.01808 0
M  V30 2219 C 216.236 -1.44415 0.898794 0
M  V30 2220 O 217.421 -1.5522 1.16707 0
M  V30 2221 C 214.551 -2.50607 2.40444 0
M  V30 2222 C 213.505 -2.38155 3.55621 0
M  V30 2223 C 212.831 -3.76078 3.80091 0
M  V30 2224 C 214.131 -1.85991 4.88062 0
M  V30 2225 H 215.825 -0.801743 2.88466 0
M  V30 2226 H 213.371 -0.38422 1.38779 0
M  V30 2227 H 215.324 -3.23197 2.7041 0
M  V30 2228 H 214.048 -2.89737 1.50732 0
M  V30 2229 H 212.707 -1.68016 3.25832 0
M  V30 2230 H 212.355 -4.12656 2.87618 0
M  V30 2231 H 212.055 -3.68606 4.57606 0
M  V30 2232 H 213.579 -4.50206 4.12488 0
M  V30 2233 H 214.993 -2.4838 5.16701 0
M  V30 2234 H 213.39 -1.89393 5.6943 0
M  V30 2235 H 214.46 -0.816023 4.77984 0
M  V30 2236 N 215.803 -1.52179 -0.40978 0
M  V30 2237 C 217.052 -1.65434 -1.15388 0
M  V30 2238 C 217.365 -0.390056 -1.91671 0
M  V30 2239 O 218.571 -0.402399 -2.68501 0
M  V30 2240 C 217.027 -2.92279 -2.10003 0
M  V30 2241 C 216.635 -4.25813 -1.39239 0
M  V30 2242 C 218.379 -3.14897 -2.84675 0
M  V30 2243 C 216.286 -5.43782 -2.32498 0
M  V30 2244 H 215.216 -0.616267 -0.434432 0
M  V30 2245 H 217.867 -1.78666 -0.418401 0
M  V30 2246 H 216.249 -2.72744 -2.871 0
M  V30 2247 H 217.423 -4.55828 -0.675099 0
M  V30 2248 H 215.738 -4.09292 -0.766097 0
M  V30 2249 H 218.335 -4.0021 -3.54593 0
M  V30 2250 H 218.678 -2.29103 -3.47588 0
M  V30 2251 H 219.211 -3.34901 -2.14677 0
M  V30 2252 H 215.95 -6.3192 -1.74233 0
M  V30 2253 H 215.47 -5.18106 -3.02201 0
M  V30 2254 H 217.149 -5.76834 -2.93038 0
M  V30 2255 N 217.281 0.66697 -1.42791 0
M  V30 2256 C 218.558 1.4234 -1.34159 0
M  V30 2257 C 218.938 2.11093 0.0172729 0
M  V30 2258 O 218.286 2.03808 1.03318 0
M  V30 2259 C 218.496 2.41942 -2.51526 0
M  V30 2260 C 219.844 3.06353 -2.93995 0
M  V30 2261 O 220.868 2.52269 -2.51473 0
M  V30 2262 O 219.727 4.04376 -3.67617 0
M  V30 2263 H 216.821 0.635277 -0.529483 0
M  V30 2264 H 219.367 0.695034 -1.54814 0
M  V30 2265 H 218.139 1.89991 -3.42081 0
M  V30 2266 H 217.762 3.22249 -2.32898 0
M  V30 2267 N 218.759 1.29093 0.90403 0
M  V30 2268 C 220.175 1.07011 1.1841 0
M  V30 2269 C 220.375 -0.181358 2.00682 0
M  V30 2270 O 219.431 -0.880331 2.36657 0
M  V30 2271 C 220.744 2.32311 1.90924 0
M  V30 2272 C 222.292 2.37587 2.03768 0
M  V30 2273 C 222.767 3.62679 2.79693 0
M  V30 2274 N 224.258 3.63376 2.87249 0
M  V30 2275 C 224.993 4.56848 3.46522 0
M  V30 2276 N 224.489 5.60648 4.06996 0
M  V30 2277 N 226.282 4.44426 3.44154 0
M  V30 2278 H 218.433 2.09412 0.354993 0
M  V30 2279 H 220.696 0.922181 0.219742 0
M  V30 2280 H 220.402 3.23536 1.37905 0
M  V30 2281 H 220.276 2.39483 2.91424 0
M  V30 2282 H 222.663 1.46853 2.55965 0
M  V30 2283 H 222.744 2.34403 1.02415 0
M  V30 2284 H 222.388 4.53762 2.28173 0
M  V30 2285 H 222.318 3.63119 3.81381 0
M  V30 2286 H 224.809 2.88321 2.44293 0
M  V30 2287 H 225.122 6.28101 4.50232 0
M  V30 2288 H 223.467 5.64463 4.05471 0
M  V30 2289 H 226.658 3.62529 2.96126 0
M  V30 2290 H 226.831 5.17457 3.90054 0
M  V30 2291 N 220.237 -1.11381 1.11499 0
M  V30 2292 C 221.514 -1.7955 0.775965 0
M  V30 2293 C 221.894 -1.97859 -0.73588 0
M  V30 2294 O 221.242 -1.56376 -1.66609 0
M  V30 2295 C 221.452 -3.13196 1.53977 0
M  V30 2296 C 222.8 -3.88227 1.71944 0
M  V30 2297 O 223.824 -3.22887 1.50407 0
M  V30 2298 O 222.683 -5.05477 2.07738 0
M  V30 2299 H 219.777 -0.777728 0.28119 0
M  V30 2300 H 222.323 -1.18118 1.21845 0
M  V30 2301 H 221.095 -2.95229 2.56818 0
M  V30 2302 H 220.718 -3.82342 1.09088 0
M  V30 2303 N 221.715 -0.905404 -1.28997 0
M  V30 2304 C 222.945 -0.549049 -1.99171 0
M  V30 2305 C 223.353 0.87203 -1.67906 0
M  V30 2306 O 222.696 1.58796 -0.923561 0
M  V30 2307 C 222.758 -0.668306 -3.53234 0
M  V30 2308 C 222.422 -2.0574 -4.08069 0
M  V30 2309 C 223.419 -3.0292 -4.22534 0
M  V30 2310 C 221.104 -2.36833 -4.42962 0
M  V30 2311 C 223.098 -4.29314 -4.71135 0
M  V30 2312 C 220.785 -3.63467 -4.91258 0
M  V30 2313 C 221.783 -4.59522 -5.053 0
M  V30 2314 O 221.471 -5.83907 -5.52546 0
M  V30 2315 H 221.203 -0.208784 -0.64295 0
M  V30 2316 H 223.757 -1.21836 -1.65363 0
M  V30 2317 H 221.987 0.0580547 -3.86656 0
M  V30 2318 H 223.676 -0.320273 -4.04634 0
M  V30 2319 H 224.442 -2.80216 -3.95859 0
M  V30 2320 H 220.321 -1.62824 -4.31288 0
M  V30 2321 H 223.865 -5.04293 -4.8201 0
M  V30 2322 H 219.762 -3.86 -5.17372 0
M  V30 2323 H 220.53 -5.86578 -5.70849 0
M  V30 2324 N 223.193 1.4272 -0.668489 0
M  V30 2325 C 224.141 2.32586 0.0254857 0
M  V30 2326 C 225.135 1.49471 0.797176 0
M  V30 2327 O 226.341 1.65583 0.705853 0
M  V30 2328 H 222.716 0.751514 0.0270339 0
M  V30 2329 H 224.687 2.88823 -0.749936 0
M  V30 2330 C 223.436 3.3397 0.967427 0
M  V30 2331 H 222.759 3.97961 0.383048 0
M  V30 2332 H 224.199 3.9945 1.42181 0
M  V30 2333 C 222.658 2.65744 2.0708 0
M  V30 2334 O 223.188 2.48454 3.15648 0
M  V30 2335 N 221.394 2.2487 1.8407 0
M  V30 2336 H 220.941 2.39132 0.95778 0
M  V30 2337 H 220.899 1.79552 2.58086 0
M  V30 2338 N 224.671 0.411399 1.52136 0
M  V30 2339 C 225.918 -0.163645 2.01838 0
M  V30 2340 C 226.246 -1.4495 1.29691 0
M  V30 2341 O 225.501 -1.91725 0.392431 0
M  V30 2342 C 225.8 -0.455872 3.54481 0
M  V30 2343 C 225.466 0.741055 4.44769 0
M  V30 2344 C 224.128 1.06936 4.69167 0
M  V30 2345 C 226.48 1.54075 4.97906 0
M  V30 2346 C 223.808 2.19851 5.43951 0
M  V30 2347 C 226.16 2.66067 5.73926 0
M  V30 2348 C 224.824 2.99381 5.96596 0
M  V30 2349 H 224.094 -0.0598821 0.738576 0
M  V30 2350 H 226.741 0.553283 1.83333 0
M  V30 2351 H 225.046 -1.2544 3.71177 0
M  V30 2352 H 226.743 -0.913802 3.90449 0
M  V30 2353 H 223.333 0.475192 4.25958 0
M  V30 2354 H 227.517 1.30033 4.78963 0
M  V30 2355 H 222.773 2.46006 5.59724 0
M  V30 2356 H 226.947 3.28419 6.14096 0
M  V30 2357 H 224.574 3.86992 6.54325 0
M  V30 2358 N 226.149 -1.5696 0.141893 0
M  V30 2359 C 227.379 -2.00031 -0.516828 0
M  V30 2360 C 227.787 -1.02091 -1.59293 0
M  V30 2361 O 227.13 -0.00909657 -1.83698 0
M  V30 2362 C 227.192 -3.39534 -1.1814 0
M  V30 2363 C 226.856 -4.56313 -0.250513 0
M  V30 2364 C 227.853 -5.17295 0.519839 0
M  V30 2365 C 225.538 -5.02061 -0.154907 0
M  V30 2366 C 227.532 -6.2243 1.3733 0
M  V30 2367 C 225.219 -6.07053 0.702161 0
M  V30 2368 C 226.217 -6.67106 1.46487 0
M  V30 2369 O 225.905 -7.70066 2.30767 0
M  V30 2370 H 225.637 -0.661451 -0.139493 0
M  V30 2371 H 228.191 -2.04086 0.231926 0
M  V30 2372 H 226.421 -3.32302 -1.97769 0
M  V30 2373 H 228.11 -3.66745 -1.73933 0
M  V30 2374 H 228.876 -4.82852 0.45598 0
M  V30 2375 H 224.755 -4.5505 -0.7383 0
M  V30 2376 H 228.299 -6.69233 1.96909 0
M  V30 2377 H 224.196 -6.40923 0.76733 0
M  V30 2378 H 224.964 -7.87264 2.23959 0
M  V30 2379 N 227.627 0.131896 -1.57047 0
M  V30 2380 C 228.875 0.840269 -1.83804 0
M  V30 2381 C 229.196 1.81017 -0.72512 0
M  V30 2382 O 228.466 1.94272 0.251995 0
M  V30 2383 H 227.046 0.313294 -0.678127 0
M  V30 2384 H 229.708 0.122294 -1.94516 0
M  V30 2385 H 228.804 1.39335 -2.79271 0
M  V30 2386 N 229.106 1.52395 0.401703 0
M  V30 2387 C 230.354 1.66488 1.14569 0
M  V30 2388 C 230.675 0.400897 1.90835 0
M  V30 2389 O 229.945 -0.584415 1.8698 0
M  V30 2390 H 228.525 0.613672 0.425929 0
M  V30 2391 H 231.187 1.89464 0.457093 0
M  V30 2392 H 230.283 2.50942 1.85566 0
M  V30 2393 N 230.584 -0.659388 1.43143 0
M  V30 2394 C 231.494 -1.80167 1.50256 0
M  V30 2395 C 232.51 -1.69571 0.390106 0
M  V30 2396 O 233.686 -1.90849 0.643319 0
M  V30 2397 C 230.751 -3.16409 1.41725 0
M  V30 2398 C 229.812 -3.38848 2.63591 0
M  V30 2399 C 229.045 -4.68591 2.55458 0
M  V30 2400 O 229.268 -5.47532 1.59891 0
M  V30 2401 O 228.202 -4.92614 3.45854 0
M  V30 2402 H 232.028 -1.77121 2.46702 0
M  V30 2403 H 229.613 -0.817092 1.25076 0
M  V30 2404 H 231.495 -3.9768 1.39387 0
M  V30 2405 H 230.17 -3.20059 0.484118 0
M  V30 2406 H 229.077 -2.57366 2.71502 0
M  V30 2407 H 230.41 -3.4004 3.55856 0
M  V30 2408 N 232.062 -1.29571 -0.897171 0
M  V30 2409 C 233.29 -1.20583 -1.68129 0
M  V30 2410 C 233.705 0.233181 -1.87354 0
M  V30 2411 O 233.062 1.15579 -1.41236 0
M  V30 2412 C 233.113 -1.91772 -3.06441 0
M  V30 2413 O 232.834 -3.30053 -2.88091 0
M  V30 2414 C 234.335 -1.89291 -4.00854 0
M  V30 2415 H 231.555 -0.417826 -0.525036 0
M  V30 2416 H 234.099 -1.70987 -1.12177 0
M  V30 2417 H 232.254 -1.45196 -3.59161 0
M  V30 2418 H 232.668 -3.65942 -3.75748 0
M  V30 2419 H 234.142 -2.43662 -4.95311 0
M  V30 2420 H 234.619 -0.869014 -4.30517 0
M  V30 2421 H 235.225 -2.35622 -3.54066 0
M  V30 2422 N 233.54 1.10788 -1.12088 0
M  V30 2423 C 234.786 1.82942 -0.875226 0
M  V30 2424 C 235.119 1.84779 0.597538 0
M  V30 2425 O 234.394 1.30578 1.44152 0
M  V30 2426 C 234.677 3.29789 -1.44606 0
M  V30 2427 C 234.53 3.36307 -2.98693 0
M  V30 2428 C 235.849 4.26064 -1.10261 0
M  V30 2429 H 232.968 0.664195 -0.319397 0
M  V30 2430 H 235.61 1.29867 -1.38689 0
M  V30 2431 H 233.76 3.75118 -1.01089 0
M  V30 2432 H 235.432 2.99487 -3.50864 0
M  V30 2433 H 233.675 2.76318 -3.34411 0
M  V30 2434 H 234.346 4.39694 -3.33726 0
M  V30 2435 H 236.822 3.88951 -1.4784 0
M  V30 2436 H 235.698 5.27183 -1.52869 0
M  V30 2437 H 235.959 4.42098 -0.0142953 0
M  V30 2438 N 235.018 0.912232 1.28515 0
M  V30 2439 C 236.295 0.463597 1.90027 0
M  V30 2440 C 236.675 -1.05753 1.82701 0
M  V30 2441 O 236.023 -1.90492 1.26194 0
M  V30 2442 C 236.233 0.992253 3.34597 0
M  V30 2443 C 237.581 1.04344 4.11579 0
M  V30 2444 O 238.605 0.94079 3.43551 0
M  V30 2445 O 237.464 1.1995 5.33174 0
M  V30 2446 H 234.558 0.146666 0.813891 0
M  V30 2447 H 237.104 1.00292 1.36893 0
M  V30 2448 H 235.876 2.03623 3.34146 0
M  V30 2449 H 235.499 0.433672 3.95228 0
M  V30 2450 N 236.496 -1.42363 0.676048 0
M  V30 2451 C 237.743 -2.01522 0.19883 0
M  V30 2452 C 238.071 -1.53456 -1.19505 0
M  V30 2453 O 237.326 -0.727967 -1.81657 0
M  V30 2454 C 237.625 -3.56929 0.183431 0
M  V30 2455 C 237.291 -4.24431 1.52215 0
M  V30 2456 C 235.953 -4.42585 1.8887 0
M  V30 2457 C 238.305 -4.62459 2.40377 0
M  V30 2458 C 235.633 -4.96039 3.13309 0
M  V30 2459 C 237.985 -5.17294 3.64129 0
M  V30 2460 C 236.649 -5.33661 4.00951 0
M  V30 2461 H 235.919 -0.737419 0.0727571 0
M  V30 2462 H 238.566 -1.70531 0.871281 0
M  V30 2463 H 236.871 -3.87594 -0.572532 0
M  V30 2464 H 238.568 -4.00486 -0.203035 0
M  V30 2465 H 235.158 -4.10661 1.22701 0
M  V30 2466 H 239.342 -4.48105 2.13343 0
M  V30 2467 H 234.598 -5.06896 3.41857 0
M  V30 2468 H 238.772 -5.45704 4.32644 0
M  V30 2469 H 236.399 -5.74845 4.9745 0
M  V30 2470 N 237.974 -0.419461 -1.51915 0
M  V30 2471 C 239.222 0.152637 -2.01523 0
M  V30 2472 C 239.543 1.44762 -1.30649 0
M  V30 2473 O 238.813 1.90997 -0.435535 0
M  V30 2474 H 237.393 0.0593966 -0.744635 0
M  V30 2475 H 240.055 -0.558073 -1.86739 0
M  V30 2476 H 239.151 0.341369 -3.10227 0
M  V30 2477 N 239.452 1.56882 -0.150215 0
M  V30 2478 C 240.7 1.9584 0.499105 0
M  V30 2479 C 241.021 1.03623 1.65188 0
M  V30 2480 O 240.291 0.0984084 1.95653 0
M  V30 2481 H 238.871 0.723119 0.187373 0
M  V30 2482 H 241.533 1.9358 -0.226466 0
M  V30 2483 H 240.629 2.99638 0.873122 0
M  V30 2484 N 240.93 -0.123565 1.57115 0
M  V30 2485 C 241.877 -1.15177 2.00007 0
M  V30 2486 C 242.847 -1.41403 0.871454 0
M  V30 2487 O 244.032 -1.53346 1.13533 0
M  V30 2488 C 241.172 -2.47436 2.40561 0
M  V30 2489 C 240.285 -2.28184 3.66819 0
M  V30 2490 C 239.42 -3.53641 3.96373 0
M  V30 2491 C 238.459 -3.29528 5.15827 0
M  V30 2492 N 237.596 -4.47175 5.41275 0
M  V30 2493 H 242.436 -0.779008 2.87638 0
M  V30 2494 H 239.973 -0.373166 1.42288 0
M  V30 2495 H 241.931 -3.24584 2.62109 0
M  V30 2496 H 240.561 -2.82614 1.55978 0
M  V30 2497 H 239.613 -1.41976 3.52912 0
M  V30 2498 H 240.925 -2.0634 4.5412 0
M  V30 2499 H 240.079 -4.39209 4.18545 0
M  V30 2500 H 238.818 -3.78512 3.07538 0
M  V30 2501 H 237.823 -2.42349 4.93505 0
M  V30 2502 H 239.048 -3.06031 6.06236 0
M  V30 2503 H 236.994 -4.72175 4.55397 0
M  V30 2504 H 236.911 -4.28419 6.22891 0
M  V30 2505 H 238.179 -5.3389 5.67963 0
M  V30 2506 N 242.408 -1.52605 -0.393616 0
M  V30 2507 C 243.654 -1.67672 -1.14079 0
M  V30 2508 C 243.987 -0.413121 -1.89755 0
M  V30 2509 O 243.262 0.588952 -1.85369 0
M  V30 2510 C 243.545 -2.9088 -2.12276 0
M  V30 2511 C 243.398 -4.27329 -1.40394 0
M  V30 2512 C 244.717 -3.09628 -3.12759 0
M  V30 2513 H 241.836 -0.610168 -0.413356 0
M  V30 2514 H 244.478 -1.85193 -0.424696 0
M  V30 2515 H 242.628 -2.76073 -2.73342 0
M  V30 2516 H 244.3 -4.53894 -0.82327 0
M  V30 2517 H 242.543 -4.2802 -0.705801 0
M  V30 2518 H 243.214 -5.09615 -2.12123 0
M  V30 2519 H 245.69 -3.23436 -2.61779 0
M  V30 2520 H 244.566 -3.97322 -3.78717 0
M  V30 2521 H 244.827 -2.23637 -3.81365 0
M  V30 2522 N 243.887 0.651787 -1.4349 0
M  V30 2523 C 244.817 1.77621 -1.51569 0
M  V30 2524 C 245.798 1.66022 -0.370253 0
M  V30 2525 O 246.983 1.85095 -0.587658 0
M  V30 2526 C 244.113 3.16056 -1.43966 0
M  V30 2527 C 243.067 3.4242 -2.56774 0
M  V30 2528 C 242.393 4.8067 -2.34223 0
M  V30 2529 C 243.693 3.37023 -3.99015 0
M  V30 2530 H 245.387 1.71117 -2.45681 0
M  V30 2531 H 242.933 0.821825 -1.18246 0
M  V30 2532 H 244.886 3.94472 -1.48221 0
M  V30 2533 H 243.61 3.23293 -0.463586 0
M  V30 2534 H 242.269 2.66375 -2.51873 0
M  V30 2535 H 241.917 4.84585 -1.34856 0
M  V30 2536 H 241.617 4.9927 -3.09844 0
M  V30 2537 H 243.141 5.61342 -2.40265 0
M  V30 2538 H 244.555 4.05374 -4.05395 0
M  V30 2539 H 242.952 3.67159 -4.74673 0
M  V30 2540 H 244.022 2.3518 -4.2405 0
M  V30 2541 N 245.365 1.30045 0.890287 0
M  V30 2542 C 246.593 1.21472 1.67487 0
M  V30 2543 C 247.008 -0.223241 1.87476 0
M  V30 2544 O 246.365 -1.14828 1.41847 0
M  V30 2545 C 246.416 1.93394 3.05419 0
M  V30 2546 O 246.137 3.31576 2.86337 0
M  V30 2547 C 247.638 1.91414 3.99844 0
M  V30 2548 H 244.858 0.420604 0.522813 0
M  V30 2549 H 247.402 1.7158 1.11268 0
M  V30 2550 H 245.557 1.47099 3.58386 0
M  V30 2551 H 245.971 3.67929 3.73802 0
M  V30 2552 H 247.445 2.46285 4.94012 0
M  V30 2553 H 247.922 0.891833 4.3005 0
M  V30 2554 H 248.528 2.37496 3.52811 0
M  V30 2555 N 246.843 -1.10192 1.12674 0
M  V30 2556 C 248.092 -1.81573 0.8783 0
M  V30 2557 C 248.405 -1.86249 -0.597557 0
M  V30 2558 O 249.611 -2.5386 -0.962681 0
M  V30 2559 C 248.067 -3.26149 1.52167 0
M  V30 2560 C 247.675 -3.29763 3.03249 0
M  V30 2561 C 249.419 -4.0234 1.3536 0
M  V30 2562 C 247.326 -4.68815 3.60508 0
M  V30 2563 H 246.256 -0.680394 0.324931 0
M  V30 2564 H 248.907 -1.23902 1.35353 0
M  V30 2565 H 247.289 -3.83832 0.974104 0
M  V30 2566 H 248.463 -2.8189 3.6452 0
M  V30 2567 H 246.778 -2.67059 3.19481 0
M  V30 2568 H 249.375 -5.05058 1.75559 0
M  V30 2569 H 249.718 -4.15235 0.297554 0
M  V30 2570 H 250.251 -3.51079 1.87052 0
M  V30 2571 H 246.99 -4.61121 4.65884 0
M  V30 2572 H 246.51 -5.17045 3.04014 0
M  V30 2573 H 248.189 -5.37785 3.59717 0
M  V30 2574 N 248.321 -0.919034 -1.28029 0
M  V30 2575 C 249.231 -0.416756 -2.30869 0
M  V30 2576 C 250.247 0.498235 -1.66714 0
M  V30 2577 O 251.423 0.383144 -1.97722 0
M  V30 2578 C 248.488 0.330274 -3.45123 0
M  V30 2579 C 247.549 -0.618578 -4.2482 0
M  V30 2580 C 246.782 0.0928959 -5.33619 0
M  V30 2581 O 247.005 1.31375 -5.55065 0
M  V30 2582 O 245.939 -0.574499 -5.99152 0
M  V30 2583 H 249.765 -1.27043 -2.75851 0
M  V30 2584 H 247.35 -0.684052 -1.3282 0
M  V30 2585 H 249.232 0.751972 -4.14636 0
M  V30 2586 H 247.907 1.1597 -3.02213 0
M  V30 2587 H 246.814 -1.08978 -3.57875 0
M  V30 2588 H 248.147 -1.41497 -4.71423 0
M  V30 2589 N 249.799 1.42003 -0.683588 0
M  V30 2590 C 251.039 2.03282 -0.213513 0
M  V30 2591 C 251.403 1.52924 1.16097 0
M  V30 2592 O 252.604 2.06048 1.7262 0
M  V30 2593 C 250.875 3.56483 -0.255856 0
M  V30 2594 S 252.434 4.3857 0.14193 0
M  V30 2595 H 249.252 0.705659 -0.0869853 0
M  V30 2596 H 251.854 1.73619 -0.8987 0
M  V30 2597 H 250.558 3.90631 -1.25841 0
M  V30 2598 H 250.089 3.90831 0.448875 0
M  V30 2599 H 252.104 4.76828 1.37295 0
M  V30 2600 N 251.277 0.427512 1.51691 0
M  V30 2601 C 252.224 -0.388867 2.275 0
M  V30 2602 C 253.194 -1.02532 1.30677 0
M  V30 2603 O 254.379 -1.0461 1.59566 0
M  V30 2604 C 251.519 -1.48954 3.11298 0
M  V30 2605 C 250.632 -0.872194 4.23104 0
M  V30 2606 C 249.767 -1.94709 4.94228 0
M  V30 2607 C 248.806 -1.30766 5.97969 0
M  V30 2608 N 247.943 -2.32349 6.62539 0
M  V30 2609 H 252.783 0.263997 2.96828 0
M  V30 2610 H 250.32 0.142033 1.46413 0
M  V30 2611 H 252.278 -2.13887 3.58201 0
M  V30 2612 H 250.908 -2.11217 2.44105 0
M  V30 2613 H 249.96 -0.111419 3.80237 0
M  V30 2614 H 251.272 -0.365264 4.97461 0
M  V30 2615 H 250.426 -2.67327 5.44629 0
M  V30 2616 H 249.165 -2.48773 4.1948 0
M  V30 2617 H 248.17 -0.566902 5.4687 0
M  V30 2618 H 249.395 -0.774483 6.74669 0
M  V30 2619 H 247.341 -2.85511 5.90609 0
M  V30 2620 H 247.258 -1.8652 7.3263 0
M  V30 2621 H 248.526 -3.04481 7.17574 0
M  V30 2622 N 252.755 -1.56801 0.158532 0
M  V30 2623 C 253.718 -2.16138 -0.762705 0
M  V30 2624 C 254.718 -1.1061 -1.16713 0
M  V30 2625 O 255.908 -1.36191 -1.08617 0
M  V30 2626 C 253.04 -2.73386 -2.03649 0
M  V30 2627 H 254.233 -2.98886 -0.246354 0
M  V30 2628 H 251.786 -1.56035 -0.0909744 0
M  V30 2629 H 252.521 -1.94335 -2.59623 0
M  V30 2630 H 252.306 -3.50601 -1.75559 0
M  V30 2631 H 253.796 -3.19065 -2.6942 0
M  V30 2632 N 254.233 0.115231 -1.57178 0
M  V30 2633 C 255.18 1.14115 -2.00615 0
M  V30 2634 C 256.15 1.40939 -0.878941 0
M  V30 2635 O 257.335 1.52741 -1.14345 0
M  V30 2636 C 254.475 2.46156 -2.4187 0
M  V30 2637 C 253.588 2.26236 -3.68024 0
M  V30 2638 C 252.723 3.51534 -3.98243 0
M  V30 2639 C 251.762 3.26787 -5.17568 0
M  V30 2640 N 250.899 4.44298 -5.43639 0
M  V30 2641 H 255.739 0.763743 -2.88047 0
M  V30 2642 H 253.276 0.365615 -1.42484 0
M  V30 2643 H 255.234 3.23189 -2.63827 0
M  V30 2644 H 253.864 2.81783 -1.57475 0
M  V30 2645 H 252.916 1.40102 -3.5366 0
M  V30 2646 H 254.228 2.03929 -4.55208 0
M  V30 2647 H 253.382 4.36984 -4.20868 0
M  V30 2648 H 252.121 3.76876 -3.09541 0
M  V30 2649 H 251.126 2.39729 -4.94783 0
M  V30 2650 H 252.351 3.02812 -6.0785 0
M  V30 2651 H 250.297 4.69754 -4.57895 0
M  V30 2652 H 250.214 4.25109 -6.25154 0
M  V30 2653 H 251.482 5.3087 -5.70786 0
M  V30 2654 N 255.711 1.52812 0.385517 0
M  V30 2655 C 256.958 1.68026 1.1302 0
M  V30 2656 C 257.286 0.421934 1.89868 0
M  V30 2657 O 256.541 -0.595749 1.86412 0
M  V30 2658 C 256.84 2.86856 2.13187 0
M  V30 2659 C 256.506 4.24159 1.5297 0
M  V30 2660 C 255.168 4.61501 1.36274 0
M  V30 2661 C 257.52 5.09627 1.09223 0
M  V30 2662 C 254.848 5.81966 0.743837 0
M  V30 2663 C 257.2 6.30719 0.487411 0
M  V30 2664 C 255.864 6.6679 0.307777 0
M  V30 2665 H 255.134 0.614849 0.413571 0
M  V30 2666 H 257.781 1.86962 0.414405 0
M  V30 2667 H 256.086 2.6235 2.90998 0
M  V30 2668 H 257.783 2.95821 2.70722 0
M  V30 2669 H 254.373 3.94746 1.66954 0
M  V30 2670 H 258.557 4.81343 1.20922 0
M  V30 2671 H 253.813 6.08519 0.592891 0
M  V30 2672 H 257.987 6.96259 0.140143 0
M  V30 2673 H 255.614 7.60001 -0.173879 0
M  V30 2674 N 257.189 -0.644168 1.43834 0
M  V30 2675 C 258.438 -1.39985 1.45214 0
M  V30 2676 C 258.751 -1.95421 0.0835494 0
M  V30 2677 O 259.957 -2.71488 -0.0251748 0
M  V30 2678 C 258.413 -2.53384 2.55587 0
M  V30 2679 C 258.021 -2.04517 3.98594 0
M  V30 2680 C 259.765 -3.30685 2.66172 0
M  V30 2681 C 257.672 -3.1518 5.00416 0
M  V30 2682 H 256.602 -0.526005 0.540218 0
M  V30 2683 H 259.253 -0.694367 1.69855 0
M  V30 2684 H 257.635 -3.26446 2.24163 0
M  V30 2685 H 258.809 -1.38405 4.39523 0
M  V30 2686 H 257.124 -1.40068 3.92135 0
M  V30 2687 H 259.721 -4.13158 3.39418 0
M  V30 2688 H 260.064 -3.79312 1.71546 0
M  V30 2689 H 260.597 -2.64708 2.96942 0
M  V30 2690 H 257.336 -2.71511 5.96625 0
M  V30 2691 H 256.856 -3.79974 4.64091 0
M  V30 2692 H 258.535 -3.80166 5.23529 0
M  V30 2693 N 258.668 -1.30515 -0.883378 0
M  V30 2694 C 259.916 -1.19194 -1.63209 0
M  V30 2695 C 260.237 0.253205 -1.93349 0
M  V30 2696 O 259.507 1.17025 -1.57105 0
M  V30 2697 H 258.087 -0.438148 -0.605009 0
M  V30 2698 H 260.749 -1.63663 -1.05832 0
M  V30 2699 H 259.845 -1.75396 -2.58153 0
M  V30 2700 N 260.146 1.09593 -1.13257 0
M  V30 2701 C 261.423 1.78293 -0.804432 0
M  V30 2702 C 261.803 1.99004 0.70431 0
M  V30 2703 O 261.151 1.59007 1.641 0
M  V30 2704 C 261.361 3.10707 -1.5894 0
M  V30 2705 C 262.709 3.85443 -1.78099 0
M  V30 2706 O 263.733 3.20454 -1.55525 0
M  V30 2707 O 262.592 5.02108 -2.15753 0
M  V30 2708 H 259.686 0.773156 -0.293528 0
M  V30 2709 H 262.232 1.16164 -1.23709 0
M  V30 2710 H 261.004 2.91106 -2.61482 0
M  V30 2711 H 260.627 3.80558 -1.15157 0
M  V30 2712 N 261.624 0.925811 1.2754 0
M  V30 2713 C 262.872 0.564138 1.94067 0
M  V30 2714 C 263.193 -0.897188 1.73134 0
M  V30 2715 O 262.463 -1.63573 1.07799 0
M  V30 2716 H 261.043 0.205645 0.718136 0
M  V30 2717 H 263.705 1.1778 1.55287 0
M  V30 2718 H 262.801 0.76881 3.02483 0
M  V30 2719 N 263.102 -1.41638 0.69111 0
M  V30 2720 C 264.05 -2.32597 0.0115199 0
M  V30 2721 C 265.044 -1.5072 -0.773296 0
M  V30 2722 O 266.25 -1.66685 -0.67942 0
M  V30 2723 H 262.625 -0.751849 -0.0150746 0
M  V30 2724 H 264.596 -2.87593 0.795791 0
M  V30 2725 C 263.345 -3.35467 -0.914172 0
M  V30 2726 H 262.668 -3.9852 -0.319687 0
M  V30 2727 H 264.108 -4.01662 -1.35808 0
M  V30 2728 C 262.567 -2.69004 -2.02826 0
M  V30 2729 O 263.097 -2.53444 -3.11655 0
M  V30 2730 N 261.303 -2.2777 -1.80469 0
M  V30 2731 H 260.85 -2.40626 -0.919615 0
M  V30 2732 H 260.808 -1.83635 -2.55197 0
M  V30 2733 N 264.58 -0.43555 -1.51462 0
M  V30 2734 C 265.51 0.367376 -2.30592 0
M  V30 2735 C 266.491 1.02263 -1.35928 0
M  V30 2736 O 267.676 1.02661 -1.64847 0
M  V30 2737 C 264.806 1.46983 -3.14664 0
M  V30 2738 C 263.76 0.938161 -4.17591 0
M  V30 2739 C 263.086 2.13622 -4.90173 0
M  V30 2740 C 264.386 -0.0261621 -5.22293 0
M  V30 2741 H 266.08 -0.292969 -2.97963 0
M  V30 2742 H 263.626 -0.14234 -1.43295 0
M  V30 2743 H 265.579 2.03873 -3.688 0
M  V30 2744 H 264.303 2.15843 -2.4511 0
M  V30 2745 H 262.962 0.391481 -3.64504 0
M  V30 2746 H 262.61 2.81098 -4.17124 0
M  V30 2747 H 262.31 1.78688 -5.59772 0
M  V30 2748 H 263.834 2.7107 -5.47132 0
M  V30 2749 H 265.248 0.452384 -5.71512 0
M  V30 2750 H 263.645 -0.287992 -5.99409 0
M  V30 2751 H 264.715 -0.963391 -4.75233 0
M  V30 2752 N 266.058 1.56714 -0.166846 0
M  V30 2753 C 267.307 1.95922 0.479318 0
M  V30 2754 C 267.62 1.05529 1.6469 0
M  V30 2755 O 268.826 1.34399 2.35901 0
M  V30 2756 C 267.282 3.48359 0.90412 0
M  V30 2757 C 266.89 4.47369 -0.237621 0
M  V30 2758 C 268.634 3.96394 1.51896 0
M  V30 2759 C 266.541 5.91039 0.206561 0
M  V30 2760 H 265.471 0.731495 0.18284 0
M  V30 2761 H 268.122 1.81728 -0.254363 0
M  V30 2762 H 266.504 3.57955 1.69365 0
M  V30 2763 H 267.678 4.49485 -1.01489 0
M  V30 2764 H 265.993 4.09366 -0.762128 0
M  V30 2765 H 268.59 5.01186 1.86325 0
M  V30 2766 H 268.933 3.39075 2.41524 0
M  V30 2767 H 269.466 3.89796 0.79395 0
M  V30 2768 H 266.205 6.52221 -0.654834 0
M  V30 2769 H 265.725 5.9224 0.949282 0
M  V30 2770 H 267.404 6.43707 0.651939 0
M  V30 2771 N 267.536 -0.106894 1.57237 0
M  V30 2772 C 268.783 -0.812526 1.85484 0
M  V30 2773 C 269.111 -1.79304 0.753687 0
M  V30 2774 O 268.366 -1.94047 -0.253853 0
M  V30 2775 C 268.665 -1.58628 3.20268 0
M  V30 2776 C 268.331 -0.748967 4.44636 0
M  V30 2777 C 266.993 -0.518104 4.78403 0
M  V30 2778 C 269.345 -0.166122 5.20935 0
M  V30 2779 C 266.673 0.305659 5.85903 0
M  V30 2780 C 269.025 0.644899 6.29304 0
M  V30 2781 C 267.689 0.885965 6.61594 0
M  V30 2782 H 266.959 -0.297324 0.678734 0
M  V30 2783 H 269.606 -0.0744332 1.91355 0
M  V30 2784 H 267.911 -2.39562 3.10028 0
M  V30 2785 H 269.608 -2.13643 3.39349 0
M  V30 2786 H 266.198 -0.939006 4.18187 0
M  V30 2787 H 270.382 -0.33167 4.95191 0
M  V30 2788 H 265.638 0.501528 6.0934 0
M  V30 2789 H 269.812 1.10345 6.87602 0
M  V30 2790 H 267.439 1.52609 7.44725 0
M  V30 2791 N 269.014 -1.53014 -0.377408 0
M  V30 2792 C 270.242 -1.72515 -1.14219 0
M  V30 2793 C 270.657 -0.448735 -1.8339 0
M  V30 2794 O 270.014 0.577592 -1.73119 0
M  V30 2795 C 270.065 -2.8826 -2.18148 0
M  V30 2796 O 269.786 -4.10962 -1.51795 0
M  V30 2797 C 271.287 -3.19536 -3.07264 0
M  V30 2798 H 268.507 -0.577301 -0.342001 0
M  V30 2799 H 271.051 -1.99712 -0.439935 0
M  V30 2800 H 269.206 -2.63492 -2.83991 0
M  V30 2801 H 269.62 -4.75693 -2.20945 0
M  V30 2802 H 271.094 -4.03959 -3.76193 0
M  V30 2803 H 271.571 -2.34403 -3.71419 0
M  V30 2804 H 272.177 -3.46186 -2.47053 0
M  V30 2805 N 270.492 0.636531 -1.44174 0
M  V30 2806 C 271.439 1.74875 -1.50624 0
M  V30 2807 C 272.409 1.62275 -0.35442 0
M  V30 2808 O 273.594 1.82276 -0.563908 0
M  V30 2809 C 270.734 3.13102 -1.45125 0
M  V30 2810 C 269.847 3.36717 -2.7064 0
M  V30 2811 C 268.982 4.64885 -2.57013 0
M  V30 2812 C 268.021 4.8166 -3.77717 0
M  V30 2813 N 267.158 6.01101 -3.62798 0
M  V30 2814 H 271.998 1.68697 -2.45653 0
M  V30 2815 H 269.535 0.823004 -1.21922 0
M  V30 2816 H 271.493 3.93034 -1.39929 0
M  V30 2817 H 270.123 3.18308 -0.536671 0
M  V30 2818 H 269.175 2.50763 -2.86046 0
M  V30 2819 H 270.487 3.44993 -3.60252 0
M  V30 2820 H 269.641 5.52969 -2.49619 0
M  V30 2821 H 268.38 4.58957 -1.64953 0
M  V30 2822 H 267.385 3.92007 -3.85501 0
M  V30 2823 H 268.61 4.89406 -4.70807 0
M  V30 2824 H 266.556 5.96273 -2.73486 0
M  V30 2825 H 266.473 6.10409 -4.46023 0
M  V30 2826 H 267.741 6.91761 -3.59286 0
M  V30 2827 N 271.97 1.30982 0.876444 0
M  V30 2828 C 272.9 1.20668 1.99903 0
M  V30 2829 C 273.881 0.095354 1.69833 0
M  V30 2830 O 275.066 0.27885 1.92188 0
M  V30 2831 C 272.196 0.90655 3.3526 0
M  V30 2832 C 271.15 1.97675 3.79617 0
M  V30 2833 C 270.476 1.52943 5.1236 0
M  V30 2834 C 271.776 3.389 3.97422 0
M  V30 2835 H 273.47 2.14586 2.0879 0
M  V30 2836 H 271.016 1.03308 1.00317 0
M  V30 2837 H 272.969 0.821025 4.13324 0
M  V30 2838 H 271.693 -0.0682969 3.26529 0
M  V30 2839 H 270.352 2.05205 3.03787 0
M  V30 2840 H 270 0.54262 5.00065 0
M  V30 2841 H 269.7 2.24532 5.43009 0
M  V30 2842 H 271.224 1.45786 5.92941 0
M  V30 2843 H 272.638 3.34081 4.659 0
M  V30 2844 H 271.035 4.0865 4.3946 0
M  V30 2845 H 272.105 3.80163 3.01006 0
M  V30 2846 N 273.449 -1.08991 1.13837 0
M  V30 2847 C 274.697 -1.80899 0.901098 0
M  V30 2848 C 275.018 -1.86356 -0.574134 0
M  V30 2849 O 274.288 -1.35235 -1.41733 0
M  V30 2850 H 272.868 -0.669966 0.330386 0
M  V30 2851 H 275.53 -1.318 1.43578 0
M  V30 2852 H 274.626 -2.83929 1.29578 0
M  V30 2853 N 274.927 -0.932562 -1.27047 0
M  V30 2854 C 275.874 -0.434072 -2.26681 0
M  V30 2855 C 276.844 0.501639 -1.58344 0
M  V30 2856 O 278.029 0.419734 -1.86126 0
M  V30 2857 C 275.169 0.30261 -3.43771 0
M  V30 2858 C 274.282 -0.667774 -4.26808 0
M  V30 2859 C 273.417 0.0892393 -5.31125 0
M  V30 2860 C 272.456 -0.873532 -6.05835 0
M  V30 2861 N 271.593 -0.148832 -7.01942 0
M  V30 2862 H 276.433 -1.28868 -2.68695 0
M  V30 2863 H 273.97 -0.646713 -1.32121 0
M  V30 2864 H 275.928 0.746092 -4.10474 0
M  V30 2865 H 274.558 1.12142 -3.02695 0
M  V30 2866 H 273.61 -1.22978 -3.59973 0
M  V30 2867 H 274.922 -1.40337 -4.78651 0
M  V30 2868 H 274.076 0.592409 -6.03801 0
M  V30 2869 H 272.815 0.85777 -4.80097 0
M  V30 2870 H 271.82 -1.38791 -5.31994 0
M  V30 2871 H 273.045 -1.64193 -6.58952 0
M  V30 2872 H 270.991 0.601365 -6.53238 0
M  V30 2873 H 270.908 -0.82391 -7.51497 0
M  V30 2874 H 272.176 0.333527 -7.78786 0
M  V30 2875 N 276.405 1.4127 -0.698611 0
M  V30 2876 C 277.653 2.00782 -0.230409 0
M  V30 2877 C 277.974 1.5562 1.17505 0
M  V30 2878 O 277.244 0.78815 1.79346 0
M  V30 2879 H 275.824 0.742464 -0.0821944 0
M  V30 2880 H 278.486 1.72852 -0.90045 0
M  V30 2881 H 277.582 3.11095 -0.25021 0
M  V30 2882 N 277.883 0.443576 1.51229 0
M  V30 2883 C 279.108 -0.121648 2.07043 0
M  V30 2884 C 279.533 -1.35156 1.30823 0
M  V30 2885 O 278.891 -1.7793 0.347934 0
M  V30 2886 C 278.939 -0.41624 3.5819 0
M  V30 2887 O 278.043 -1.50163 3.8409 0
M  V30 2888 H 277.384 0.000871367 0.663999 0
M  V30 2889 H 279.914 0.626706 1.94765 0
M  V30 2890 H 279.924 -0.664867 4.02546 0
M  V30 2891 H 278.599 0.482653 4.1309 0
M  V30 2892 H 277.176 -1.24248 3.51592 0
M  V30 2893 N 279.361 -1.56624 0.175154 0
M  V30 2894 C 280.777 -1.58571 -0.180966 0
M  V30 2895 C 280.977 -1.19065 -1.6256 0
M  V30 2896 O 280.033 -0.904044 -2.35761 0
M  V30 2897 C 281.346 -3.00522 0.103326 0
M  V30 2898 C 282.894 -3.12972 0.0418426 0
M  V30 2899 C 283.369 -4.57022 0.299175 0
M  V30 2900 N 284.86 -4.62541 0.247086 0
M  V30 2901 C 285.595 -5.71857 0.420318 0
M  V30 2902 N 285.091 -6.89717 0.652816 0
M  V30 2903 N 286.884 -5.60972 0.355957 0
M  V30 2904 H 279.035 -1.80589 1.11809 0
M  V30 2905 H 281.298 -0.837178 0.444788 0
M  V30 2906 H 281.004 -3.33916 1.10422 0
M  V30 2907 H 280.878 -3.72344 -0.603299 0
M  V30 2908 H 283.265 -2.79403 -0.949636 0
M  V30 2909 H 283.346 -2.43578 0.781238 0
M  V30 2910 H 282.99 -4.913 1.28788 0
M  V30 2911 H 282.92 -5.24579 -0.460876 0
M  V30 2912 H 285.411 -3.77829 0.0731895 0
M  V30 2913 H 285.724 -7.68911 0.774347 0
M  V30 2914 H 284.069 -6.91572 0.689476 0
M  V30 2915 H 287.26 -4.67773 0.174882 0
M  V30 2916 H 287.433 -6.46111 0.494388 0
M  V30 2917 N 280.839 0.0985539 -1.57292 0
M  V30 2918 C 282.088 0.801358 -1.85098 0
M  V30 2919 C 282.401 1.80066 -0.763902 0
M  V30 2920 O 283.607 2.55112 -0.928981 0
M  V30 2921 C 282.063 1.47599 -3.28242 0
M  V30 2922 C 281.671 0.516624 -4.45011 0
M  V30 2923 C 283.415 2.16272 -3.65276 0
M  V30 2924 C 281.322 1.19564 -5.79188 0
M  V30 2925 H 280.252 0.303022 -0.69043 0
M  V30 2926 H 282.903 0.0542623 -1.8342 0
M  V30 2927 H 281.285 2.27042 -3.2445 0
M  V30 2928 H 282.459 -0.246065 -4.60143 0
M  V30 2929 H 280.774 -0.064227 -4.1635 0
M  V30 2930 H 283.371 2.67802 -4.62803 0
M  V30 2931 H 283.714 2.95009 -2.93727 0
M  V30 2932 H 284.247 1.43693 -3.70941 0
M  V30 2933 H 280.986 0.449157 -6.53959 0
M  V30 2934 H 280.506 1.92984 -5.67906 0
M  V30 2935 H 282.185 1.7231 -6.23633 0
M  V30 2936 N 282.317 1.53212 0.369288 0
M  V30 2937 C 283.28 1.7872 1.43498 0
M  V30 2938 C 284.28 0.657554 1.46741 0
M  V30 2939 O 285.47 0.925736 1.47566 0
M  V30 2940 C 282.602 1.90591 2.82645 0
M  V30 2941 H 283.795 2.73894 1.22156 0
M  V30 2942 H 281.348 1.44233 0.602203 0
M  V30 2943 H 282.083 0.974709 3.09306 0
M  V30 2944 H 281.868 2.72751 2.8169 0
M  V30 2945 H 283.358 2.11931 3.59826 0
M  V30 2946 N 283.795 -0.628877 1.44509 0
M  V30 2947 C 285.043 -1.38565 1.4712 0
M  V30 2948 C 285.364 -1.94712 0.105899 0
M  V30 2949 O 284.634 -1.75912 -0.862079 0
M  V30 2950 H 283.214 -0.514333 0.541729 0
M  V30 2951 H 285.876 -0.740018 1.80305 0
M  V30 2952 H 284.972 -2.21583 2.19789 0
M  V30 2953 N 285.273 -1.31445 -0.869486 0
M  V30 2954 C 286.519 -1.21337 -1.62496 0
M  V30 2955 C 286.852 0.227872 -1.92858 0
M  V30 2956 O 286.127 1.16094 -1.56053 0
M  V30 2957 C 286.41 -2.05814 -2.95487 0
M  V30 2958 C 286.263 -3.5824 -2.72 0
M  V30 2959 C 287.582 -1.9079 -3.96594 0
M  V30 2960 H 284.701 -0.442135 -0.589649 0
M  V30 2961 H 287.343 -1.6124 -1.00507 0
M  V30 2962 H 285.493 -1.71913 -3.48394 0
M  V30 2963 H 287.165 -4.0228 -2.25762 0
M  V30 2964 H 285.408 -3.81647 -2.06224 0
M  V30 2965 H 286.079 -4.12657 -3.66631 0
M  V30 2966 H 288.555 -2.20459 -3.52898 0
M  V30 2967 H 287.431 -2.52199 -4.87531 0
M  V30 2968 H 287.692 -0.871341 -4.33428 0
M  V30 2969 N 286.751 1.08385 -1.14413 0
M  V30 2970 C 287.998 1.80776 -0.912482 0
M  V30 2971 C 288.326 1.86236 0.560934 0
M  V30 2972 O 287.581 1.33431 1.43159 0
M  V30 2973 C 287.88 3.26273 -1.45879 0
M  V30 2974 C 287.546 3.4093 -2.95089 0
M  V30 2975 C 286.208 3.44638 -3.35824 0
M  V30 2976 C 288.56 3.44591 -3.91033 0
M  V30 2977 C 285.888 3.49597 -4.71167 0
M  V30 2978 C 288.24 3.51086 -5.26233 0
M  V30 2979 C 286.904 3.53067 -5.6648 0
M  V30 2980 H 286.174 0.661507 -0.333901 0
M  V30 2981 H 288.821 1.27613 -1.42784 0
M  V30 2982 H 287.126 3.82146 -0.864376 0
M  V30 2983 H 288.823 3.80839 -1.2555 0
M  V30 2984 H 285.413 3.38736 -2.62594 0
M  V30 2985 H 289.597 3.40957 -3.60641 0
M  V30 2986 H 284.853 3.49424 -5.0171 0
M  V30 2987 H 289.027 3.52864 -6.00383 0
M  V30 2988 H 286.654 3.56662 -6.71339 0
M  V30 2989 N 288.23 0.939286 1.26551 0
M  V30 2990 C 289.163 0.391702 2.24813 0
M  V30 2991 C 290.141 -0.518421 1.54114 0
M  V30 2992 O 291.325 -0.456299 1.82894 0
M  V30 2993 C 288.452 -0.437382 3.35864 0
M  V30 2994 C 287.498 0.410946 4.24516 0
M  V30 2995 S 288.331 1.83372 5.03125 0
M  V30 2996 C 289.487 1.01264 6.17654 0
M  V30 2997 H 289.72 1.22448 2.70913 0
M  V30 2998 H 287.253 0.742269 1.35387 0
M  V30 2999 H 289.211 -0.909837 4.0029 0
M  V30 3000 H 287.872 -1.24482 2.8838 0
M  V30 3001 H 287.065 -0.224191 5.03501 0
M  V30 3002 H 286.667 0.818014 3.64945 0
M  V30 3003 H 288.959 0.254023 6.77024 0
M  V30 3004 H 289.902 1.77589 6.85469 0
M  V30 3005 H 290.31 0.549532 5.61819 0
M  V30 3006 N 289.708 -1.40897 0.706093 0
M  V30 3007 C 290.618 -2.3455 0.0482286 0
M  V30 3008 C 291.634 -1.56796 -0.754396 0
M  V30 3009 O 292.81 -1.89228 -0.689538 0
M  V30 3010 C 289.875 -3.35625 -0.869303 0
M  V30 3011 C 288.936 -4.29261 -0.0576994 0
M  V30 3012 C 288.169 -5.25508 -0.931531 0
M  V30 3013 O 288.392 -5.27472 -2.17092 0
M  V30 3014 O 287.326 -6.00727 -0.375587 0
M  V30 3015 H 291.152 -2.92407 0.820476 0
M  V30 3016 H 288.737 -1.4193 0.4665 0
M  V30 3017 H 290.619 -3.97635 -1.39514 0
M  V30 3018 H 289.294 -2.80196 -1.62086 0
M  V30 3019 H 288.201 -3.70566 0.512988 0
M  V30 3020 H 289.534 -4.87817 0.655426 0
M  V30 3021 N 291.186 -0.45159 -1.50991 0
M  V30 3022 C 292.411 0.110667 -2.07105 0
M  V30 3023 C 292.836 1.3446 -1.31538 0
M  V30 3024 O 292.194 1.77743 -0.357365 0
M  V30 3025 C 292.242 0.397238 -3.58405 0
M  V30 3026 O 291.346 1.48124 -3.84881 0
M  V30 3027 H 290.687 -0.00439271 -0.663985 0
M  V30 3028 H 293.217 -0.637026 -1.9443 0
M  V30 3029 H 293.227 0.64351 -4.02893 0
M  V30 3030 H 291.902 -0.504553 -4.12828 0
M  V30 3031 H 290.479 1.22381 -3.52246 0
M  V30 3032 N 292.664 1.56529 -0.183458 0
M  V30 3033 C 293.892 2.01623 0.464285 0
M  V30 3034 C 294.307 1.06366 1.55986 0
M  V30 3035 O 293.664 0.0665398 1.82379 0
M  V30 3036 C 293.715 3.46475 1.03139 0
M  V30 3037 O 293.436 4.38095 -0.0204675 0
M  V30 3038 C 294.937 4.0703 1.75617 0
M  V30 3039 H 292.157 0.660596 0.117704 0
M  V30 3040 H 294.701 2.02451 -0.288751 0
M  V30 3041 H 292.856 3.46383 1.73486 0
M  V30 3042 H 293.27 5.22973 0.399952 0
M  V30 3043 H 294.744 5.10271 2.10542 0
M  V30 3044 H 295.221 3.49819 2.65563 0
M  V30 3045 H 295.827 4.1086 1.09882 0
M  V30 3046 N 294.142 -0.090211 1.57342 0
M  V30 3047 C 295.37 -0.806224 1.90546 0
M  V30 3048 C 295.785 -1.72041 0.777644 0
M  V30 3049 O 295.142 -1.80778 -0.250103 0
M  V30 3050 C 295.193 -1.61546 3.23396 0
M  V30 3051 O 294.914 -0.738043 4.31839 0
M  V30 3052 C 296.415 -2.4341 3.70495 0
M  V30 3053 H 293.635 -0.230256 0.630257 0
M  V30 3054 H 296.179 -0.0659843 2.04394 0
M  V30 3055 H 294.334 -2.30816 3.11131 0
M  V30 3056 H 294.748 -1.29901 5.08159 0
M  V30 3057 H 296.222 -2.95676 4.66133 0
M  V30 3058 H 296.699 -3.22098 2.98579 0
M  V30 3059 H 297.305 -1.79331 3.85643 0
M  V30 3060 N 295.62 -1.53406 -0.361157 0
M  V30 3061 C 296.848 -1.73717 -1.12383 0
M  V30 3062 C 297.263 -0.468161 -1.82904 0
M  V30 3063 O 296.62 0.559198 -1.73722 0
M  V30 3064 C 296.671 -2.90558 -2.15078 0
M  V30 3065 O 296.392 -4.12549 -1.47428 0
M  V30 3066 C 297.893 -3.22777 -3.03858 0
M  V30 3067 H 295.113 -0.580896 -0.335858 0
M  V30 3068 H 297.657 -2.00167 -0.418728 0
M  V30 3069 H 295.812 -2.66489 -2.8118 0
M  V30 3070 H 296.226 -4.78009 -2.15887 0
M  V30 3071 H 297.7 -4.07927 -3.71887 0
M  V30 3072 H 298.177 -2.38329 -3.68912 0
M  V30 3073 H 298.783 -3.48787 -2.43367 0
M  V30 3074 N 297.098 0.621204 -1.44841 0
M  V30 3075 C 298.509 1.20298 -1.42777 0
M  V30 3076 C 298.86 1.95639 -0.148259 0
M  V30 3077 O 297.985 2.02955 0.750892 0
M  V30 3078 C 298.58 2.1882 -2.58657 0
M  V30 3079 C 297.139 2.72403 -2.59756 0
M  V30 3080 C 296.286 1.4757 -2.34773 0
M  V30 3081 H 299.237 0.411297 -1.53278 0
M  V30 3082 H 299.258 3.01607 -2.31977 0
M  V30 3083 H 298.77 1.63957 -3.51766 0
M  V30 3084 H 296.871 3.31242 -1.70615 0
M  V30 3085 H 296.984 3.17765 -3.58556 0
M  V30 3086 H 295.348 1.76051 -1.8406 0
M  V30 3087 H 296.131 0.945954 -3.3001 0
M  V30 3088 N 298.576 1.31904 0.862503 0
M  V30 3089 C 299.822 1.23207 1.61838 0
M  V30 3090 C 300.177 -0.206062 1.91293 0
M  V30 3091 O 299.47 -1.14162 1.53875 0
M  V30 3092 C 299.664 2.01713 2.95037 0
M  V30 3093 C 299.493 3.53014 2.78588 0
M  V30 3094 C 298.263 4.22359 2.77382 0
M  V30 3095 C 300.461 4.47819 2.52909 0
M  V30 3096 N 298.443 5.59766 2.52062 0
M  V30 3097 C 299.814 5.72947 2.36922 0
M  V30 3098 C 301.869 4.37162 2.38314 0
M  V30 3099 C 300.572 6.88623 2.07823 0
M  V30 3100 C 302.598 5.5263 2.10604 0
M  V30 3101 C 301.96 6.76752 1.95411 0
M  V30 3102 H 298.059 0.505984 0.596242 0
M  V30 3103 H 300.643 1.66179 1.01452 0
M  V30 3104 H 298.814 1.61098 3.53415 0
M  V30 3105 H 300.546 1.84975 3.59953 0
M  V30 3106 H 297.301 3.74401 2.90036 0
M  V30 3107 H 297.725 6.32135 2.42352 0
M  V30 3108 H 302.367 3.41857 2.48784 0
M  V30 3109 H 300.085 7.83948 1.9609 0
M  V30 3110 H 303.671 5.46307 2.00101 0
M  V30 3111 H 302.551 7.6459 1.74274 0
M  V30 3112 N 300.054 -1.07777 1.14986 0
M  V30 3113 C 301.3 -1.80557 0.923422 0
M  V30 3114 C 301.633 -1.86298 -0.548337 0
M  V30 3115 O 300.908 -1.34354 -1.40639 0
M  V30 3116 C 301.191 -3.25839 1.53299 0
M  V30 3117 C 301.044 -3.28269 3.07505 0
M  V30 3118 C 302.363 -4.22991 1.21518 0
M  V30 3119 H 299.482 -0.655493 0.336894 0
M  V30 3120 H 302.124 -1.26144 1.42083 0
M  V30 3121 H 300.274 -3.72306 1.10999 0
M  V30 3122 H 301.946 -2.90079 3.58681 0
M  V30 3123 H 300.189 -2.67355 3.4162 0
M  V30 3124 H 300.86 -4.30691 3.45266 0
M  V30 3125 H 303.336 -3.84894 1.581 0
M  V30 3126 H 302.212 -5.22945 1.66793 0
M  V30 3127 H 302.473 -4.41904 0.131505 0
M  V30 3128 N 301.532 -0.945985 -1.26051 0
M  V30 3129 C 302.781 -0.591836 -1.92822 0
M  V30 3130 C 303.094 0.873956 -1.7499 0
M  V30 3131 O 304.3 1.33769 -2.36259 0
M  V30 3132 C 302.756 -1.00776 -3.45503 0
M  V30 3133 C 302.364 -2.4955 -3.7206 0
M  V30 3134 C 304.108 -0.725735 -4.1825 0
M  V30 3135 C 302.015 -2.84988 -5.18205 0
M  V30 3136 H 300.945 -0.217635 -0.721908 0
M  V30 3137 H 303.596 -1.14927 -1.43052 0
M  V30 3138 H 301.978 -0.378812 -3.94184 0
M  V30 3139 H 303.152 -3.1739 -3.34066 0
M  V30 3140 H 301.467 -2.75133 -3.12555 0
M  V30 3141 H 304.064 -0.966771 -5.25887 0
M  V30 3142 H 304.407 0.337639 -4.14929 0
M  V30 3143 H 304.94 -1.31463 -3.7545 0
M  V30 3144 H 301.679 -3.90307 -5.26631 0
M  V30 3145 H 301.199 -2.21813 -5.57278 0
M  V30 3146 H 302.878 -2.73712 -5.86252 0
M  V30 3147 N 303.011 1.40521 -0.713556 0
M  V30 3148 C 303.958 2.30723 -0.059684 0
M  V30 3149 C 304.928 1.48079 0.752448 0
M  V30 3150 O 306.113 1.76823 0.71681 0
M  V30 3151 C 303.253 3.34274 0.857594 0
M  V30 3152 C 302.366 4.31986 0.0351536 0
M  V30 3153 C 301.501 5.22605 0.951724 0
M  V30 3154 C 300.54 6.11976 0.123253 0
M  V30 3155 N 299.677 6.9502 0.99459 0
M  V30 3156 H 304.517 2.86074 -0.834596 0
M  V30 3157 H 302.054 1.40879 -0.42326 0
M  V30 3158 H 304.012 3.92879 1.40364 0
M  V30 3159 H 302.642 2.8043 1.59871 0
M  V30 3160 H 301.694 3.7518 -0.628052 0
M  V30 3161 H 303.006 4.95101 -0.606347 0
M  V30 3162 H 302.16 5.86131 1.56638 0
M  V30 3163 H 300.899 4.59759 1.62705 0
M  V30 3164 H 299.904 5.47482 -0.50435 0
M  V30 3165 H 301.129 6.76881 -0.548539 0
M  V30 3166 H 299.075 6.34764 1.6556 0
M  V30 3167 H 298.992 7.54892 0.40908 0
M  V30 3168 H 300.26 7.62997 1.59549 0
M  V30 3169 N 304.489 0.459591 1.5075 0
M  V30 3170 C 305.9 0.00171547 1.867 0
M  V30 3171 C 306.251 -1.39934 1.37525 0
M  V30 3172 O 305.376 -2.03523 0.735349 0
M  V30 3173 C 305.971 -0.00366298 3.388 0
M  V30 3174 C 304.53 -0.406026 3.74204 0
M  V30 3175 C 303.677 0.38673 2.7459 0
M  V30 3176 H 306.628 0.674413 1.43657 0
M  V30 3177 H 306.649 -0.808371 3.71814 0
M  V30 3178 H 306.161 1.01617 3.74561 0
M  V30 3179 H 304.262 -1.43063 3.4404 0
M  V30 3180 H 304.375 -0.115362 4.78961 0
M  V30 3181 H 302.739 -0.158019 2.54209 0
M  V30 3182 H 303.522 1.40585 3.13194 0
M  V30 3183 N 305.967 -1.56429 0.191757 0
M  V30 3184 C 307.213 -1.98541 -0.441943 0
M  V30 3185 C 307.568 -1.07646 -1.59468 0
M  V30 3186 O 306.861 -0.120191 -1.91223 0
M  V30 3187 C 307.055 -3.44449 -0.953384 0
M  V30 3188 C 306.884 -4.49456 0.148262 0
M  V30 3189 C 305.654 -5.01668 0.604781 0
M  V30 3190 C 307.852 -5.05336 0.95602 0
M  V30 3191 N 305.834 -5.90334 1.6846 0
M  V30 3192 C 307.205 -5.9064 1.88531 0
M  V30 3193 C 309.26 -4.87779 0.998811 0
M  V30 3194 C 307.963 -6.60264 2.85383 0
M  V30 3195 C 309.989 -5.58139 1.95537 0
M  V30 3196 C 309.351 -6.43187 2.8721 0
M  V30 3197 H 305.45 -0.771247 -0.129236 0
M  V30 3198 H 308.034 -1.92426 0.296682 0
M  V30 3199 H 306.205 -3.5107 -1.66146 0
M  V30 3200 H 307.937 -3.73533 -1.55741 0
M  V30 3201 H 304.692 -4.73183 0.198736 0
M  V30 3202 H 305.116 -6.39371 2.22561 0
M  V30 3203 H 309.758 -4.21705 0.304048 0
M  V30 3204 H 307.476 -7.25538 3.55837 0
M  V30 3205 H 311.062 -5.46532 1.99484 0
M  V30 3206 H 309.942 -6.96674 3.60022 0
M  V30 3207 N 307.445 0.0818655 -1.57387 0
M  V30 3208 C 308.673 0.796108 -1.9097 0
M  V30 3209 C 309.088 1.71626 -0.786757 0
M  V30 3210 O 308.445 1.80908 0.240513 0
M  V30 3211 C 308.496 1.59829 -3.24248 0
M  V30 3212 O 308.217 0.715131 -4.32224 0
M  V30 3213 C 309.718 2.41442 -3.7178 0
M  V30 3214 H 306.938 0.22691 -0.631469 0
M  V30 3215 H 309.482 0.0551439 -2.04426 0
M  V30 3216 H 307.637 2.29163 -3.12351 0
M  V30 3217 H 308.051 1.27205 -5.08841 0
M  V30 3218 H 309.525 2.932 -4.67694 0
M  V30 3219 H 310.002 3.2051 -3.00283 0
M  V30 3220 H 310.608 1.77283 -3.86589 0
M  V30 3221 N 308.923 1.53595 0.353017 0
M  V30 3222 C 310.2 1.61002 1.11075 0
M  V30 3223 C 310.58 0.425356 2.0677 0
M  V30 3224 O 309.928 -0.583267 2.2093 0
M  V30 3225 C 310.138 2.96631 1.83877 0
M  V30 3226 C 311.486 3.51653 2.37961 0
M  V30 3227 O 312.51 2.98743 1.93987 0
M  V30 3228 O 311.369 4.44177 3.18386 0
M  V30 3229 H 308.463 0.650825 0.510251 0
M  V30 3230 H 311.009 1.6594 0.35527 0
M  V30 3231 H 309.781 3.74293 1.14108 0
M  V30 3232 H 309.404 2.95242 2.66304 0
M  V30 3233 N 310.401 -0.613514 1.45168 0
M  V30 3234 C 311.678 -1.37263 1.39349 0
M  V30 3235 C 312.058 -2.11012 0.0610848 0
M  V30 3236 O 311.406 -2.07502 -0.956825 0
M  V30 3237 C 311.616 -2.3244 2.60332 0
M  V30 3238 C 312.964 -2.9523 3.05163 0
M  V30 3239 O 313.988 -2.42762 2.60663 0
M  V30 3240 O 312.847 -3.90454 3.82372 0
M  V30 3241 H 309.941 -0.615188 0.552696 0
M  V30 3242 H 312.487 -0.637097 1.57287 0
M  V30 3243 H 311.259 -1.77164 3.48896 0
M  V30 3244 H 310.882 -3.13383 2.44698 0
M  V30 3245 N 311.879 -1.3236 -0.855495 0
M  V30 3246 C 312.827 -1.2118 -1.9854 0
M  V30 3247 C 313.821 -0.116788 -1.68997 0
M  V30 3248 O 315.027 -0.279657 -1.77814 0
M  V30 3249 H 311.402 -0.375608 -0.651477 0
M  V30 3250 H 313.373 -2.16743 -2.05098 0
M  V30 3251 C 312.122 -0.950849 -3.34446 0
M  V30 3252 H 311.445 -1.78563 -3.57708 0
M  V30 3253 H 312.885 -0.912863 -4.14057 0
M  V30 3254 C 311.344 0.346404 -3.35114 0
M  V30 3255 O 311.874 1.35855 -3.7803 0
M  V30 3256 N 310.08 0.36808 -2.88259 0
M  V30 3257 H 309.627 -0.456102 -2.5353 0
M  V30 3258 H 309.585 1.23591 -2.89089 0
M  V30 3259 N 313.357 1.07166 -1.15556 0
M  V30 3260 C 314.289 2.14341 -0.811815 0
M  V30 3261 C 315.302 1.61835 0.177015 0
M  V30 3262 O 316.491 1.78439 -0.0464996 0
M  V30 3263 C 313.591 3.38387 -0.186481 0
M  V30 3264 C 312.764 4.20238 -1.21321 0
M  V30 3265 C 311.823 5.2266 -0.609302 0
M  V30 3266 O 310.849 5.54719 -1.27576 0
M  V30 3267 N 312.051 5.77306 0.608099 0
M  V30 3268 H 314.816 2.44431 -1.73417 0
M  V30 3269 H 312.377 1.23089 -1.0517 0
M  V30 3270 H 314.369 4.04044 0.230339 0
M  V30 3271 H 312.939 3.05994 0.639249 0
M  V30 3272 H 312.159 3.50369 -1.80652 0
M  V30 3273 H 313.447 4.71736 -1.90638 0
M  V30 3274 H 312.845 5.53513 1.1679 0
M  V30 3275 H 311.402 6.44583 0.96725 0
M  V30 3276 N 314.835 0.952656 1.25548 0
M  V30 3277 C 316.081 0.616826 1.93822 0
M  V30 3278 C 316.436 -0.836684 1.73255 0
M  V30 3279 O 315.729 -1.59218 1.06584 0
M  V30 3280 C 315.923 0.908818 3.45652 0
M  V30 3281 C 315.752 2.38916 3.80984 0
M  V30 3282 C 314.522 3.04637 4.03143 0
M  V30 3283 C 316.72 3.36838 3.88645 0
M  V30 3284 N 314.702 4.42565 4.25453 0
M  V30 3285 C 316.073 4.60065 4.1562 0
M  V30 3286 C 318.128 3.31704 3.71318 0
M  V30 3287 C 316.831 5.78795 4.2707 0
M  V30 3288 C 318.857 4.4977 3.84006 0
M  V30 3289 C 318.219 5.71783 4.11392 0
M  V30 3290 H 314.318 0.27629 0.731565 0
M  V30 3291 H 316.902 1.22443 1.5138 0
M  V30 3292 H 315.073 0.330166 3.86994 0
M  V30 3293 H 316.805 0.533093 4.01174 0
M  V30 3294 H 313.56 2.55215 3.98952 0
M  V30 3295 H 313.984 5.1399 4.40617 0
M  V30 3296 H 318.626 2.3842 3.49164 0
M  V30 3297 H 316.344 6.72521 4.48041 0
M  V30 3298 H 319.93 4.47342 3.71989 0
M  V30 3299 H 318.81 6.61617 4.2099 0
M  V30 3300 N 316.313 -1.40141 0.720998 0
M  V30 3301 C 317.243 -2.33339 0.0867621 0
M  V30 3302 C 318.224 -1.53178 -0.739622 0
M  V30 3303 O 319.409 -1.81625 -0.687449 0
M  V30 3304 C 316.539 -3.37194 -0.831728 0
M  V30 3305 C 315.493 -4.27857 -0.110558 0
M  V30 3306 C 314.819 -5.22294 -1.14513 0
M  V30 3307 C 316.119 -5.11872 1.0385 0
M  V30 3308 H 317.813 -2.86626 0.865219 0
M  V30 3309 H 315.359 -1.37814 0.417516 0
M  V30 3310 H 317.312 -4.01335 -1.28485 0
M  V30 3311 H 316.036 -2.82314 -1.64214 0
M  V30 3312 H 314.695 -3.65176 0.322797 0
M  V30 3313 H 314.343 -4.63717 -1.94874 0
M  V30 3314 H 314.043 -5.83797 -0.667446 0
M  V30 3315 H 315.567 -5.89312 -1.59824 0
M  V30 3316 H 316.981 -5.69436 0.664482 0
M  V30 3317 H 315.378 -5.82445 1.4449 0
M  V30 3318 H 316.448 -4.4753 1.86668 0
M  V30 3319 N 317.792 -0.46758 -1.50504 0
M  V30 3320 C 319.02 0.0864133 -2.06719 0
M  V30 3321 C 319.435 1.33819 -1.33184 0
M  V30 3322 O 318.792 1.78061 -0.400083 0
M  V30 3323 C 318.843 0.378079 -3.59517 0
M  V30 3324 O 318.564 -0.824044 -4.3028 0
M  V30 3325 C 320.065 0.979426 -4.32345 0
M  V30 3326 H 317.285 -0.00551697 -0.670977 0
M  V30 3327 H 319.829 -0.655354 -1.93715 0
M  V30 3328 H 317.984 1.06977 -3.72337 0
M  V30 3329 H 318.398 -0.566518 -5.21432 0
M  V30 3330 H 319.872 1.1333 -5.40241 0
M  V30 3331 H 320.349 1.9686 -3.9261 0
M  V30 3332 H 320.955 0.326216 -4.24047 0
M  V30 3333 N 319.27 1.56325 -0.20005 0
M  V30 3334 C 320.547 1.89484 0.48529 0
M  V30 3335 C 320.927 1.1143 1.79294 0
M  V30 3336 O 320.275 0.216919 2.27468 0
M  V30 3337 C 320.485 3.41923 0.699243 0
M  V30 3338 C 321.833 4.12256 1.01638 0
M  V30 3339 O 322.857 3.47402 0.786792 0
M  V30 3340 O 321.716 5.26887 1.45095 0
M  V30 3341 H 318.81 0.787144 0.253639 0
M  V30 3342 H 321.356 1.67985 -0.240633 0
M  V30 3343 H 320.128 3.90658 -0.224008 0
M  V30 3344 H 319.751 3.69131 1.47744 0
M  V30 3345 N 320.748 -0.0735177 1.57428 0
M  V30 3346 C 321.711 -1.07192 2.02589 0
M  V30 3347 C 322.711 -1.31695 0.922661 0
M  V30 3348 O 323.901 -1.27445 1.18758 0
M  V30 3349 C 321.033 -2.41599 2.40506 0
M  V30 3350 H 322.226 -0.682727 2.92025 0
M  V30 3351 H 319.779 -0.319193 1.53006 0
M  V30 3352 H 320.514 -2.85354 1.5409 0
M  V30 3353 H 320.299 -2.25156 3.21009 0
M  V30 3354 H 321.789 -3.13367 2.76027 0
M  V30 3355 N 322.226 -1.5378 -0.344866 0
M  V30 3356 C 323.189 -1.80981 -1.40637 0
M  V30 3357 C 324.189 -0.680816 -1.45676 0
M  V30 3358 O 325.379 -0.949095 -1.46075 0
M  V30 3359 C 322.511 -1.95063 -2.79577 0
M  V30 3360 H 323.704 -2.75803 -1.17783 0
M  V30 3361 H 321.257 -1.45173 -0.579181 0
M  V30 3362 H 321.992 -1.02379 -3.07716 0
M  V30 3363 H 321.777 -2.77198 -2.77315 0
M  V30 3364 H 323.267 -2.17629 -3.56409 0
M  V30 3365 N 323.704 0.605807 -1.45491 0
M  V30 3366 C 324.667 1.69836 -1.5391 0
M  V30 3367 C 325.667 1.55261 -0.418424 0
M  V30 3368 O 326.857 1.60296 -0.681965 0
M  V30 3369 C 323.989 3.09117 -1.43734 0
M  V30 3370 H 325.182 1.63738 -2.51257 0
M  V30 3371 H 322.735 0.821689 -1.32959 0
M  V30 3372 H 323.47 3.20791 -0.475788 0
M  V30 3373 H 323.255 3.21104 -2.25021 0
M  V30 3374 H 324.745 3.88696 -1.52661 0
M  V30 3375 N 325.182 1.32811 0.848464 0
M  V30 3376 C 326.428 1.23907 1.60546 0
M  V30 3377 C 326.761 -0.197161 1.93197 0
M  V30 3378 O 326.036 -1.13596 1.5788 0
M  V30 3379 C 326.319 2.10489 2.92175 0
M  V30 3380 C 326.172 3.62522 2.66266 0
M  V30 3381 C 327.491 1.97075 3.93509 0
M  V30 3382 H 324.61 0.451459 0.58254 0
M  V30 3383 H 327.252 1.62818 0.979296 0
M  V30 3384 H 325.402 1.77434 3.45614 0
M  V30 3385 H 327.074 4.05821 2.19334 0
M  V30 3386 H 325.317 3.84879 2.00126 0
M  V30 3387 H 325.988 4.18437 3.6002 0
M  V30 3388 H 328.464 2.26045 3.49346 0
M  V30 3389 H 327.34 2.59923 4.83457 0
M  V30 3390 H 327.601 0.940186 4.31987 0
M  V30 3391 N 326.66 -1.06551 1.16123 0
M  V30 3392 C 327.906 -1.79567 0.94252 0
M  V30 3393 C 328.239 -1.86869 -0.528547 0
M  V30 3394 O 327.514 -1.35838 -1.39206 0
M  V30 3395 C 327.797 -3.24195 1.56747 0
M  V30 3396 C 327.65 -3.24989 3.10969 0
M  V30 3397 C 328.969 -4.21678 1.25998 0
M  V30 3398 H 326.088 -0.651883 0.343828 0
M  V30 3399 H 328.73 -1.2463 1.43413 0
M  V30 3400 H 326.88 -3.71107 1.14942 0
M  V30 3401 H 328.552 -2.86258 3.61737 0
M  V30 3402 H 326.795 -2.63716 3.44436 0
M  V30 3403 H 327.466 -4.27005 3.49815 0
M  V30 3404 H 329.942 -3.83196 1.62174 0
M  V30 3405 H 328.818 -5.21146 1.7233 0
M  V30 3406 H 329.079 -4.4174 0.178367 0
M  V30 3407 N 328.138 -0.959301 -1.25041 0
M  V30 3408 C 329.101 -0.487677 -2.23952 0
M  V30 3409 C 330.101 0.41119 -1.55454 0
M  V30 3410 O 331.291 0.207825 -1.72956 0
M  V30 3411 C 328.423 0.294807 -3.39623 0
M  V30 3412 H 329.616 -1.36198 -2.67189 0
M  V30 3413 H 327.169 -0.743042 -1.37508 0
M  V30 3414 H 327.904 1.18658 -3.01813 0
M  V30 3415 H 327.689 -0.35012 -3.90534 0
M  V30 3416 H 329.179 0.614089 -4.1306 0
M  V30 3417 N 329.616 1.39756 -0.72842 0
M  V30 3418 C 330.844 2.04948 -0.283528 0
M  V30 3419 C 331.259 1.54908 1.0793 0
M  V30 3420 O 330.616 0.711135 1.68075 0
M  V30 3421 C 330.667 3.60498 -0.268957 0
M  V30 3422 O 330.388 4.08695 -1.57798 0
M  V30 3423 C 331.889 4.4288 0.192912 0
M  V30 3424 H 329.109 0.659243 -0.125056 0
M  V30 3425 H 331.653 1.78927 -0.990226 0
M  V30 3426 H 329.808 3.85444 0.388801 0
M  V30 3427 H 330.222 5.02977 -1.48709 0
M  V30 3428 H 331.696 5.51791 0.151952 0
M  V30 3429 H 332.173 4.21418 1.23708 0
M  V30 3430 H 332.779 4.23069 -0.435039 0
M  V30 3431 N 331.094 0.475555 1.50254 0
M  V30 3432 C 332.024 -0.30611 2.31485 0
M  V30 3433 C 333.005 -0.986228 1.38591 0
M  V30 3434 O 334.19 -0.982541 1.67511 0
M  V30 3435 C 331.32 -1.38588 3.1845 0
M  V30 3436 C 330.274 -0.827115 4.19932 0
M  V30 3437 C 329.6 -2.00551 4.95665 0
M  V30 3438 C 330.9 0.16463 5.2204 0
M  V30 3439 H 332.594 0.371866 2.97082 0
M  V30 3440 H 330.14 0.180282 1.42867 0
M  V30 3441 H 332.093 -1.94023 3.74076 0
M  V30 3442 H 330.817 -2.09269 2.50747 0
M  V30 3443 H 329.476 -0.294702 3.65414 0
M  V30 3444 H 329.124 -2.6994 4.2443 0
M  V30 3445 H 328.824 -1.63784 5.64313 0
M  V30 3446 H 330.348 -2.56468 5.54127 0
M  V30 3447 H 331.762 -0.300699 5.72511 0
M  V30 3448 H 330.159 0.446813 5.98434 0
M  V30 3449 H 331.229 1.08905 4.72512 0
M  V30 3450 N 332.573 -1.56217 0.208337 0
M  V30 3451 C 333.52 -2.19699 -0.707192 0
M  V30 3452 C 334.49 -1.14836 -1.20008 0
M  V30 3453 O 335.675 -1.4314 -1.26157 0
M  V30 3454 C 332.815 -2.87061 -1.91546 0
M  V30 3455 C 331.928 -4.06483 -1.46271 0
M  V30 3456 C 331.063 -4.61665 -2.62752 0
M  V30 3457 C 330.102 -5.73417 -2.14147 0
M  V30 3458 N 329.239 -6.22948 -3.23853 0
M  V30 3459 H 334.079 -2.97575 -0.159111 0
M  V30 3460 H 331.616 -1.46948 -0.0667874 0
M  V30 3461 H 333.574 -3.24294 -2.62468 0
M  V30 3462 H 332.204 -2.11725 -2.43664 0
M  V30 3463 H 331.256 -3.74825 -0.648886 0
M  V30 3464 H 332.568 -4.87271 -1.06622 0
M  V30 3465 H 331.722 -5.01272 -3.41776 0
M  V30 3466 H 330.461 -3.80013 -3.05682 0
M  V30 3467 H 329.466 -5.33326 -1.33581 0
M  V30 3468 H 330.691 -6.56897 -1.72232 0
M  V30 3469 H 328.637 -5.44213 -3.6629 0
M  V30 3470 H 328.554 -6.98823 -2.88414 0
M  V30 3471 H 329.822 -6.6721 -4.03052 0
M  V30 3472 N 334.051 0.0651679 -1.57465 0
M  V30 3473 C 334.983 1.10359 -2.00882 0
M  V30 3474 C 335.996 1.346 -0.915788 0
M  V30 3475 O 337.185 1.32723 -1.1936 0
M  V30 3476 C 334.285 2.45312 -2.33828 0
M  V30 3477 C 333.458 2.40934 -3.65061 0
M  V30 3478 C 332.517 3.58047 -3.85602 0
M  V30 3479 O 331.543 3.39175 -4.57109 0
M  V30 3480 N 332.745 4.78637 -3.28462 0
M  V30 3481 H 335.51 0.733807 -2.90578 0
M  V30 3482 H 333.071 0.253719 -1.599 0
M  V30 3483 H 335.063 3.22314 -2.44737 0
M  V30 3484 H 333.633 2.74267 -1.49988 0
M  V30 3485 H 332.853 1.49273 -3.64844 0
M  V30 3486 H 334.141 2.35117 -4.51218 0
M  V30 3487 H 333.539 4.96872 -2.70433 0
M  V30 3488 H 332.096 5.53127 -3.44809 0
M  V30 3489 N 335.529 1.53961 0.336706 0
M  V30 3490 C 336.754 1.75797 1.10046 0
M  V30 3491 C 337.179 0.498985 1.81361 0
M  V30 3492 O 336.537 -0.548769 1.72795 0
M  V30 3493 C 336.585 2.94257 2.08436 0
M  V30 3494 O 335.689 2.64883 3.16087 0
M  V30 3495 H 335.03 0.582936 0.317934 0
M  V30 3496 H 337.56 2.00945 0.38501 0
M  V30 3497 H 337.57 3.21237 2.51537 0
M  V30 3498 H 336.245 3.85564 1.55927 0
M  V30 3499 H 334.822 2.48812 2.77753 0
M  V30 3500 N 337.007 -0.598083 1.45811 0
M  V30 3501 C 337.954 -1.7082 1.55207 0
M  V30 3502 C 338.924 -1.61278 0.39732 0
M  V30 3503 O 340.109 -1.80717 0.612038 0
M  V30 3504 C 337.249 -3.09144 1.53376 0
M  V30 3505 C 336.362 -3.29423 2.79472 0
M  V30 3506 C 335.497 -4.57907 2.69248 0
M  V30 3507 C 334.536 -4.71476 3.90354 0
M  V30 3508 N 333.673 -5.9127 3.78608 0
M  V30 3509 H 338.513 -1.62125 2.50039 0
M  V30 3510 H 336.05 -0.790389 1.24062 0
M  V30 3511 H 338.008 -3.89186 1.50301 0
M  V30 3512 H 336.638 -3.16773 0.620876 0
M  V30 3513 H 335.69 -2.43091 2.92594 0
M  V30 3514 H 337.002 -3.3532 3.69272 0
M  V30 3515 H 336.156 -5.46157 2.64192 0
M  V30 3516 H 334.895 -4.54423 1.77063 0
M  V30 3517 H 333.9 -3.81648 3.95759 0
M  V30 3518 H 335.125 -4.76751 4.83617 0
M  V30 3519 H 333.071 -5.88813 2.89199 0
M  V30 3520 H 332.988 -5.98369 4.6205 0
M  V30 3521 H 334.256 -6.81992 3.77501 0
M  V30 3522 N 338.485 -1.33259 -0.841409 0
M  V30 3523 C 339.713 -1.27605 -1.62864 0
M  V30 3524 C 340.128 0.153507 -1.88175 0
M  V30 3525 O 339.485 1.09485 -1.46011 0
M  V30 3526 C 339.536 -2.04596 -2.98031 0
M  V30 3527 O 339.257 -3.41975 -2.73834 0
M  V30 3528 C 340.758 -2.06122 -3.92465 0
M  V30 3529 H 337.978 -0.439718 -0.506842 0
M  V30 3530 H 340.522 -1.75591 -1.04824 0
M  V30 3531 H 338.677 -1.60299 -3.5268 0
M  V30 3532 H 339.091 -3.81549 -3.59889 0
M  V30 3533 H 340.565 -2.64451 -4.84531 0
M  V30 3534 H 341.042 -1.05083 -4.26444 0
M  V30 3535 H 341.648 -2.50427 -3.43753 0
M  V30 3536 N 339.963 1.05934 -1.16686 0
M  V30 3537 C 341.24 1.75643 -0.860747 0
M  V30 3538 C 341.62 2.01144 0.640641 0
M  V30 3539 O 340.968 1.64147 1.58959 0
M  V30 3540 C 341.178 3.05493 -1.68745 0
M  V30 3541 C 342.526 3.79581 -1.90271 0
M  V30 3542 O 343.55 3.15344 -1.65641 0
M  V30 3543 O 342.409 4.9499 -2.31618 0
M  V30 3544 H 339.503 0.763426 -0.317977 0
M  V30 3545 H 342.049 1.1217 -1.27342 0
M  V30 3546 H 340.821 2.8264 -2.70611 0
M  V30 3547 H 340.444 3.76702 -1.27206 0
M  V30 3548 N 341.441 0.965919 1.2453 0
M  V30 3549 C 342.689 0.625593 1.92174 0
M  V30 3550 C 343.01 -0.841652 1.75901 0
M  V30 3551 O 342.28 -1.60061 1.12948 0
M  V30 3552 H 340.86 0.228388 0.71123 0
M  V30 3553 H 343.522 1.2266 1.51461 0
M  V30 3554 H 342.618 0.864653 2.99884 0
M  V30 3555 N 342.919 -1.39368 0.735821 0
M  V30 3556 C 344.149 -2.04498 0.293967 0
M  V30 3557 C 344.557 -1.55593 -1.07645 0
M  V30 3558 O 343.9 -0.716324 -1.69158 0
M  V30 3559 C 343.962 -3.58836 0.218342 0
M  V30 3560 C 343.626 -4.30721 1.52736 0
M  V30 3561 C 344.623 -4.57305 2.47322 0
M  V30 3562 C 342.308 -4.69251 1.79189 0
M  V30 3563 C 344.302 -5.21429 3.66593 0
M  V30 3564 C 341.989 -5.33104 2.98737 0
M  V30 3565 C 342.987 -5.59125 3.9226 0
M  V30 3566 O 342.675 -6.21653 5.09708 0
M  V30 3567 H 342.407 -0.664118 0.126189 0
M  V30 3568 H 344.961 -1.79385 1.00051 0
M  V30 3569 H 343.191 -3.8285 -0.544314 0
M  V30 3570 H 344.88 -4.05447 -0.191626 0
M  V30 3571 H 345.646 -4.27983 2.28156 0
M  V30 3572 H 341.525 -4.48354 1.07239 0
M  V30 3573 H 345.069 -5.41656 4.39607 0
M  V30 3574 H 340.966 -5.61846 3.17803 0
M  V30 3575 H 341.734 -6.40146 5.10054 0
M  V30 3576 N 344.397 -0.483516 -1.5 0
M  V30 3577 C 345.329 0.340634 -2.26655 0
M  V30 3578 C 346.342 0.946152 -1.32483 0
M  V30 3579 O 347.531 0.832453 -1.579 0
M  V30 3580 C 344.631 1.4929 -3.04246 0
M  V30 3581 C 343.804 0.997903 -4.25865 0
M  V30 3582 C 342.863 2.02569 -4.85646 0
M  V30 3583 O 341.889 1.60128 -5.46212 0
M  V30 3584 N 343.091 3.3548 -4.73744 0
M  V30 3585 H 345.856 -0.316577 -2.98023 0
M  V30 3586 H 343.417 -0.315024 -1.58806 0
M  V30 3587 H 345.409 2.17766 -3.41116 0
M  V30 3588 H 343.979 2.05458 -2.35597 0
M  V30 3589 H 343.199 0.138617 -3.93956 0
M  V30 3590 H 344.487 0.645305 -5.04691 0
M  V30 3591 H 343.885 3.72661 -4.25605 0
M  V30 3592 H 342.442 3.99718 -5.14848 0
M  V30 3593 N 345.875 1.56104 -0.216619 0
M  V30 3594 C 347.286 1.844 0.292128 0
M  V30 3595 C 347.637 1.13788 1.59833 0
M  V30 3596 O 346.762 0.405888 2.12559 0
M  V30 3597 C 347.357 3.3452 0.53681 0
M  V30 3598 C 345.916 3.63151 0.989876 0
M  V30 3599 C 345.063 2.77255 0.0502302 0
M  V30 3600 H 348.014 1.52481 -0.439926 0
M  V30 3601 H 348.035 3.54459 1.38345 0
M  V30 3602 H 347.547 3.85885 -0.414031 0
M  V30 3603 H 345.648 3.17238 1.95425 0
M  V30 3604 H 345.761 4.71177 0.867698 0
M  V30 3605 H 344.125 2.48555 0.556117 0
M  V30 3606 H 344.908 3.31416 -0.89544 0
M  V30 3607 N 347.353 -0.0568162 1.57498 0
M  V30 3608 C 348.581 -0.765626 1.92213 0
M  V30 3609 C 348.996 -1.70353 0.813961 0
M  V30 3610 O 348.353 -1.81268 -0.211701 0
M  V30 3611 C 348.404 -1.5465 3.2675 0
M  V30 3612 O 348.125 -0.646278 4.33307 0
M  V30 3613 C 349.626 -2.35497 3.75574 0
M  V30 3614 H 346.846 -0.216835 0.634999 0
M  V30 3615 H 349.39 -0.0226146 2.04487 0
M  V30 3616 H 347.545 -2.24165 3.15957 0
M  V30 3617 H 347.959 -1.19093 5.108 0
M  V30 3618 H 349.433 -2.85722 4.72299 0
M  V30 3619 H 349.91 -3.15692 3.05344 0
M  V30 3620 H 350.516 -1.7111 3.8936 0
M  V30 3621 N 348.832 -1.54138 -0.328536 0
M  V30 3622 C 350.078 -1.7236 -1.06865 0
M  V30 3623 C 350.411 -0.493231 -1.87832 0
M  V30 3624 O 349.686 0.5098 -1.877 0
M  V30 3625 C 349.969 -2.99621 -1.99747 0
M  V30 3626 C 349.822 -4.32899 -1.22143 0
M  V30 3627 C 351.141 -3.22615 -2.99345 0
M  V30 3628 H 348.26 -0.627151 -0.387105 0
M  V30 3629 H 350.902 -1.86827 -0.345767 0
M  V30 3630 H 349.052 -2.87418 -2.61387 0
M  V30 3631 H 350.724 -4.56978 -0.630017 0
M  V30 3632 H 348.967 -4.30628 -0.523628 0
M  V30 3633 H 349.638 -5.18154 -1.90318 0
M  V30 3634 H 352.114 -3.34248 -2.47826 0
M  V30 3635 H 350.99 -4.13027 -3.61524 0
M  V30 3636 H 351.251 -2.3961 -3.71536 0
M  V30 3637 N 350.31 0.590341 -1.46126 0
M  V30 3638 C 351.535 1.37991 -1.54833 0
M  V30 3639 C 351.96 1.87163 -0.187506 0
M  V30 3640 O 351.318 1.61133 0.831008 0
M  V30 3641 C 351.366 2.54867 -2.55098 0
M  V30 3642 O 350.47 3.56061 -2.08073 0
M  V30 3643 H 349.811 0.411265 -0.521303 0
M  V30 3644 H 352.341 0.716819 -1.91632 0
M  V30 3645 H 352.351 3.01886 -2.74461 0
M  V30 3646 H 351.026 2.18429 -3.53923 0
M  V30 3647 H 349.603 3.15574 -1.98664 0
M  V30 3648 N 351.788 1.33704 0.83433 0
M  V30 3649 C 353.065 1.16011 1.57483 0
M  V30 3650 C 353.445 -0.27176 2.09343 0
M  V30 3651 O 352.793 -1.27146 1.89858 0
M  V30 3652 C 353.003 2.20507 2.70514 0
M  V30 3653 C 354.351 2.54898 3.39577 0
M  V30 3654 O 355.375 2.19209 2.80759 0
M  V30 3655 O 354.234 3.16158 4.45765 0
M  V30 3656 H 351.328 0.448992 0.694503 0
M  V30 3657 H 353.874 1.453 0.876691 0
M  V30 3658 H 352.646 3.16667 2.29865 0
M  V30 3659 H 352.269 1.92329 3.47987 0
M  V30 3660 N 353.266 -1.05314 1.17247 0
M  V30 3661 C 354.496 -1.81707 0.983166 0
M  V30 3662 C 354.904 -1.83222 -0.471822 0
M  V30 3663 O 354.247 -1.25721 -1.3394 0
M  V30 3664 C 354.309 -3.29134 1.44606 0
M  V30 3665 C 353.973 -3.51304 2.92292 0
M  V30 3666 C 354.97 -3.4353 3.90235 0
M  V30 3667 C 352.655 -3.78306 3.30439 0
M  V30 3668 C 354.649 -3.62442 5.24323 0
M  V30 3669 C 352.336 -3.96866 4.64694 0
M  V30 3670 C 353.334 -3.88933 5.61445 0
M  V30 3671 O 353.022 -4.06976 6.93272 0
M  V30 3672 H 352.754 -0.579476 0.348114 0
M  V30 3673 H 355.308 -1.33705 1.55924 0
M  V30 3674 H 353.538 -3.78046 0.813537 0
M  V30 3675 H 355.227 -3.87049 1.22262 0
M  V30 3676 H 355.993 -3.22648 3.62109 0
M  V30 3677 H 351.872 -3.83585 2.55702 0
M  V30 3678 H 355.416 -3.56165 5.99827 0
M  V30 3679 H 351.313 -4.1724 4.92525 0
M  V30 3680 H 352.081 -4.24209 6.99992 0
M  V30 3681 N 354.744 -0.972509 -1.24016 0
M  V30 3682 C 355.99 -0.637978 -1.92504 0
M  V30 3683 C 356.323 0.825383 -1.75787 0
M  V30 3684 O 355.598 1.59442 -1.11393 0
M  V30 3685 C 355.881 -1.01942 -3.45369 0
M  V30 3686 C 355.734 -2.53983 -3.71231 0
M  V30 3687 C 357.053 -0.55751 -4.36555 0
M  V30 3688 H 354.172 -0.233248 -0.699117 0
M  V30 3689 H 356.814 -1.21238 -1.46292 0
M  V30 3690 H 354.964 -0.530656 -3.84859 0
M  V30 3691 H 356.636 -3.10374 -3.41271 0
M  V30 3692 H 354.879 -2.96968 -3.16216 0
M  V30 3693 H 355.55 -2.75723 -4.78206 0
M  V30 3694 H 358.026 -0.977029 -4.04467 0
M  V30 3695 H 356.902 -0.85292 -5.42233 0
M  V30 3696 H 357.163 0.542328 -4.38761 0
M  V30 3697 N 356.222 1.38976 -0.743202 0
M  V30 3698 C 357.169 2.30544 -0.10861 0
M  V30 3699 C 358.139 1.49642 0.720869 0
M  V30 3700 O 359.324 1.78304 0.679142 0
M  V30 3701 C 356.464 3.36018 0.786496 0
M  V30 3702 C 355.577 4.31963 -0.0564849 0
M  V30 3703 C 354.712 5.24506 0.840657 0
M  V30 3704 C 353.751 6.121 -0.00658363 0
M  V30 3705 N 352.888 6.96973 0.846943 0
M  V30 3706 H 357.728 2.8424 -0.895088 0
M  V30 3707 H 355.265 1.3995 -0.453048 0
M  V30 3708 H 357.223 3.95768 1.31999 0
M  V30 3709 H 355.853 2.83758 1.53887 0
M  V30 3710 H 354.905 3.73763 -0.707492 0
M  V30 3711 H 356.217 4.93703 -0.711229 0
M  V30 3712 H 355.371 5.89322 1.4417 0
M  V30 3713 H 354.11 4.63107 1.52916 0
M  V30 3714 H 353.115 5.46289 -0.620366 0
M  V30 3715 H 354.34 6.75565 -0.691992 0
M  V30 3716 H 352.286 6.38133 1.52059 0
M  V30 3717 H 352.203 7.5559 0.248864 0
M  V30 3718 H 353.471 7.6621 1.43328 0
M  V30 3719 N 357.7 0.491464 1.49741 0
M  V30 3720 C 358.947 -0.0564256 2.02421 0
M  V30 3721 C 359.275 -1.37872 1.37192 0
M  V30 3722 O 358.53 -1.89375 0.493508 0
M  V30 3723 C 358.829 -0.267329 3.56399 0
M  V30 3724 C 358.495 0.975775 4.40215 0
M  V30 3725 C 357.157 1.31655 4.62839 0
M  V30 3726 C 359.509 1.80251 4.89039 0
M  V30 3727 C 356.837 2.48375 5.31532 0
M  V30 3728 C 359.189 2.96116 5.59015 0
M  V30 3729 C 357.853 3.30585 5.79888 0
M  V30 3730 H 357.123 -0.0206476 0.740712 0
M  V30 3731 H 359.77 0.649686 1.80143 0
M  V30 3732 H 358.075 -1.05588 3.77304 0
M  V30 3733 H 359.772 -0.705549 3.94744 0
M  V30 3734 H 356.362 0.700315 4.2284 0
M  V30 3735 H 360.546 1.55239 4.71396 0
M  V30 3736 H 355.802 2.7533 5.45897 0
M  V30 3737 H 359.976 3.60509 5.95824 0
M  V30 3738 H 357.603 4.21132 6.32892 0
M  V30 3739 N 359.178 -1.55987 0.224894 0
M  V30 3740 C 360.589 -1.84553 -0.282345 0
M  V30 3741 C 360.94 -1.14634 -1.59227 0
M  V30 3742 O 360.065 -0.417155 -2.12341 0
M  V30 3743 C 360.66 -3.348 -0.519062 0
M  V30 3744 C 359.219 -3.63671 -0.970604 0
M  V30 3745 C 358.366 -2.77277 -0.0355261 0
M  V30 3746 H 361.317 -1.52245 0.448006 0
M  V30 3747 H 361.338 -3.55187 -1.36463 0
M  V30 3748 H 360.85 -3.8566 0.43449 0
M  V30 3749 H 358.951 -3.1827 -1.9374 0
M  V30 3750 H 359.064 -4.71631 -0.842698 0
M  V30 3751 H 357.428 -2.48846 -0.542927 0
M  V30 3752 H 358.211 -3.30937 0.913003 0
M  V30 3753 N 360.656 0.0484629 -1.57525 0
M  V30 3754 C 361.904 0.741657 -1.88 0
M  V30 3755 C 362.225 1.76918 -0.820054 0
M  V30 3756 O 361.495 1.95335 0.148661 0
M  V30 3757 H 360.075 0.276908 -0.69378 0
M  V30 3758 H 362.737 0.019013 -1.94891 0
M  V30 3759 H 361.833 1.24336 -2.86264 0
M  V30 3760 N 362.134 1.5431 0.320358 0
M  V30 3761 C 363.383 1.7188 1.05546 0
M  V30 3762 C 363.696 0.501143 1.89071 0
M  V30 3763 O 364.902 0.558258 2.65699 0
M  V30 3764 C 363.358 3.04025 1.92605 0
M  V30 3765 C 362.966 4.33207 1.14176 0
M  V30 3766 C 364.71 3.30959 2.65832 0
M  V30 3767 C 362.617 5.56412 2.00399 0
M  V30 3768 H 361.547 0.640547 0.397763 0
M  V30 3769 H 364.198 1.80802 0.313522 0
M  V30 3770 H 362.58 2.89019 2.7071 0
M  V30 3771 H 363.754 4.58989 0.40819 0
M  V30 3772 H 362.069 4.13062 0.526165 0
M  V30 3773 H 364.666 4.20203 3.30656 0
M  V30 3774 H 365.009 2.48979 3.33639 0
M  V30 3775 H 365.542 3.46847 1.94787 0
M  V30 3776 H 362.281 6.41004 1.37094 0
M  V30 3777 H 361.801 5.34844 2.7148 0
M  V30 3778 H 363.48 5.92938 2.58908 0
M  V30 3779 N 363.613 -0.582584 1.46437 0
M  V30 3780 C 364.523 -1.71949 1.59595 0
M  V30 3781 C 365.539 -1.67264 0.479443 0
M  V30 3782 O 366.715 -1.87171 0.743579 0
M  V30 3783 C 363.78 -3.08452 1.58298 0
M  V30 3784 C 362.841 -3.244 2.81182 0
M  V30 3785 C 362.074 -4.54391 2.79937 0
M  V30 3786 O 362.297 -5.38287 1.8869 0
M  V30 3787 O 361.231 -4.73588 3.71481 0
M  V30 3788 H 365.057 -1.63795 2.55744 0
M  V30 3789 H 362.642 -0.749643 1.29231 0
M  V30 3790 H 364.524 -3.89732 1.60271 0
M  V30 3791 H 363.199 -3.17043 0.653094 0
M  V30 3792 H 362.106 -2.42613 2.84763 0
M  V30 3793 H 363.439 -3.20699 3.7338 0
M  V30 3794 N 365.091 -1.34144 -0.827227 0
M  V30 3795 C 366.319 -1.29325 -1.61501 0
M  V30 3796 C 366.734 0.13354 -1.88327 0
M  V30 3797 O 366.091 1.0793 -1.47164 0
M  V30 3798 C 366.142 -2.07746 -2.95844 0
M  V30 3799 O 365.863 -3.4486 -2.70191 0
M  V30 3800 C 367.364 -2.10273 -3.90256 0
M  V30 3801 H 364.584 -0.445069 -0.50215 0
M  V30 3802 H 367.128 -1.76693 -1.02955 0
M  V30 3803 H 365.283 -1.6403 -3.5096 0
M  V30 3804 H 365.697 -3.85345 -3.55822 0
M  V30 3805 H 367.171 -2.69575 -4.81698 0
M  V30 3806 H 367.648 -1.096 -4.25305 0
M  V30 3807 H 368.254 -2.54059 -3.41078 0
M  V30 3808 N 366.569 1.04691 -1.17803 0
M  V30 3809 C 367.499 2.14494 -0.92275 0
M  V30 3810 C 368.48 1.69546 0.137179 0
M  V30 3811 O 369.665 1.94195 -0.0141108 0
M  V30 3812 C 366.795 3.44491 -0.440803 0
M  V30 3813 C 365.749 4.03031 -1.4405 0
M  V30 3814 C 365.075 5.28432 -0.81631 0
M  V30 3815 C 366.375 4.39932 -2.81527 0
M  V30 3816 H 368.069 2.36107 -1.84103 0
M  V30 3817 H 365.615 1.1347 -0.886599 0
M  V30 3818 H 367.568 4.2066 -0.249602 0
M  V30 3819 H 366.292 3.22546 0.513025 0
M  V30 3820 H 364.951 3.28937 -1.61853 0
M  V30 3821 H 364.599 5.02792 0.144511 0
M  V30 3822 H 364.299 5.68559 -1.48371 0
M  V30 3823 H 365.823 6.07284 -0.635496 0
M  V30 3824 H 367.237 5.07113 -2.67412 0
M  V30 3825 H 365.634 4.9109 -3.44892 0
M  V30 3826 H 366.704 3.50045 -3.35554 0
M  V30 3827 N 368.047 0.979072 1.23499 0
M  V30 3828 C 368.977 0.537606 2.27227 0
M  V30 3829 C 369.958 -0.428539 1.64613 0
M  V30 3830 O 371.143 -0.322191 1.91509 0
M  V30 3831 C 368.273 -0.162052 3.46922 0
M  V30 3832 C 367.227 0.721242 4.21879 0
M  V30 3833 C 366.553 -0.110555 5.34586 0
M  V30 3834 C 367.853 2.01141 4.82016 0
M  V30 3835 H 369.547 1.40462 2.64406 0
M  V30 3836 H 367.093 0.67684 1.27102 0
M  V30 3837 H 369.046 -0.482192 4.18632 0
M  V30 3838 H 367.77 -1.06351 3.08799 0
M  V30 3839 H 366.429 1.02482 3.51984 0
M  V30 3840 H 366.077 -1.0125 4.92704 0
M  V30 3841 H 365.777 0.477325 5.85658 0
M  V30 3842 H 367.301 -0.425107 6.09118 0
M  V30 3843 H 368.715 1.75612 5.45741 0
M  V30 3844 H 367.112 2.54695 5.43369 0
M  V30 3845 H 368.182 2.69909 4.02836 0
M  V30 3846 N 369.525 -1.3858 0.750561 0
M  V30 3847 C 370.936 -1.82927 0.373438 0
M  V30 3848 C 371.287 -1.62634 -1.09748 0
M  V30 3849 O 370.412 -1.12588 -1.84805 0
M  V30 3850 C 371.007 -3.32088 0.671029 0
M  V30 3851 C 369.566 -3.74795 0.34722 0
M  V30 3852 C 368.713 -2.61391 0.92575 0
M  V30 3853 H 371.664 -1.27351 0.946958 0
M  V30 3854 H 371.685 -3.80465 -0.0518269 0
M  V30 3855 H 371.197 -3.46826 1.74164 0
M  V30 3856 H 369.298 -3.65638 -0.716933 0
M  V30 3857 H 369.411 -4.71667 0.840656 0
M  V30 3858 H 367.775 -2.52265 0.351327 0
M  V30 3859 H 368.558 -2.78929 2.00133 0
M  V30 3860 N 371.003 -0.499398 -1.49478 0
M  V30 3861 C 372.414 -0.051215 -1.8663 0
M  V30 3862 C 372.765 1.36238 -1.41186 0
M  V30 3863 O 371.89 2.01502 -0.789051 0
M  V30 3864 C 372.485 -0.0861651 -3.3869 0
M  V30 3865 C 371.044 0.30667 -3.75149 0
M  V30 3866 C 370.191 -0.459397 -2.73468 0
M  V30 3867 H 373.142 -0.712264 -1.41818 0
M  V30 3868 H 373.163 0.709507 -3.73826 0
M  V30 3869 H 372.675 -1.11512 -3.71735 0
M  V30 3870 H 370.776 1.33892 -3.47712 0
M  V30 3871 H 370.889 -0.0116669 -4.79099 0
M  V30 3872 H 369.253 0.0905645 -2.54539 0
M  V30 3873 H 370.036 -1.4884 -3.09357 0
M  V30 3874 N 372.481 1.55866 -0.233164 0
M  V30 3875 C 373.429 2.22176 0.68851 0
M  V30 3876 C 374.423 1.20487 1.19076 0
M  V30 3877 O 375.629 1.38536 1.14925 0
M  V30 3878 H 372.004 0.712511 0.240483 0
M  V30 3879 H 373.975 2.98212 0.105935 0
M  V30 3880 C 372.724 2.92446 1.88071 0
M  V30 3881 H 372.047 3.70458 1.50337 0
M  V30 3882 H 373.487 3.42226 2.50314 0
M  V30 3883 C 371.946 1.95555 2.74335 0
M  V30 3884 O 372.476 1.47986 3.73447 0
M  V30 3885 N 370.682 1.62953 2.40613 0
M  V30 3886 H 370.229 2.01831 1.60069 0
M  V30 3887 H 370.187 0.983886 2.98609 0
M  V30 3888 N 373.959 -0.0401083 1.57549 0
M  V30 3889 C 374.922 -1.02871 2.04817 0
M  V30 3890 C 375.922 -1.29708 0.950388 0
M  V30 3891 O 377.112 -1.24897 1.21435 0
M  V30 3892 C 374.244 -2.36443 2.45576 0
M  V30 3893 H 375.437 -0.620631 2.93408 0
M  V30 3894 H 372.99 -0.286667 1.53649 0
M  V30 3895 H 373.725 -2.82021 1.60108 0
M  V30 3896 H 373.51 -2.18296 3.25713 0
M  V30 3897 H 375 -3.07441 2.82612 0
M  V30 3898 N 375.437 -1.54477 -0.31217 0
M  V30 3899 C 376.384 -1.84655 -1.38461 0
M  V30 3900 C 377.354 -0.694536 -1.50882 0
M  V30 3901 O 378.539 -0.942081 -1.6592 0
M  V30 3902 C 375.679 -2.0896 -2.74645 0
M  V30 3903 C 374.792 -3.36618 -2.70763 0
M  V30 3904 C 373.927 -3.50824 -3.98868 0
M  V30 3905 C 372.966 -4.72315 -3.89339 0
M  V30 3906 N 372.103 -4.83387 -5.09197 0
M  V30 3907 H 376.943 -2.76142 -1.12026 0
M  V30 3908 H 374.48 -1.36748 -0.542065 0
M  V30 3909 H 376.438 -2.21045 -3.53829 0
M  V30 3910 H 375.068 -1.20752 -2.99364 0
M  V30 3911 H 374.12 -3.33211 -1.83506 0
M  V30 3912 H 375.432 -4.25917 -2.59608 0
M  V30 3913 H 374.586 -3.62513 -4.86486 0
M  V30 3914 H 373.325 -2.59638 -4.12843 0
M  V30 3915 H 372.33 -4.6067 -3.00105 0
M  V30 3916 H 373.555 -5.64897 -3.76919 0
M  V30 3917 H 371.501 -3.9512 -5.23657 0
M  V30 3918 H 371.418 -5.66669 -5.00422 0
M  V30 3919 H 372.686 -4.9942 -5.98498 0
M  V30 3920 N 376.915 0.57481 -1.46744 0
M  V30 3921 C 378.163 1.33009 -1.52161 0
M  V30 3922 C 378.484 1.94185 -0.178092 0
M  V30 3923 O 377.754 1.7899 0.796196 0
M  V30 3924 H 376.334 0.493873 -0.560445 0
M  V30 3925 H 378.996 0.672589 -1.82927 0
M  V30 3926 H 378.092 2.13273 -2.27862 0
M  V30 3927 N 378.394 1.34581 0.820102 0
M  V30 3928 C 379.326 1.22236 1.93884 0
M  V30 3929 C 380.339 0.148776 1.62119 0
M  V30 3930 O 381.528 0.400877 1.7394 0
M  V30 3931 C 378.628 0.856542 3.27897 0
M  V30 3932 C 377.801 2.02569 3.87666 0
M  V30 3933 C 376.86 1.63782 5.00062 0
M  V30 3934 O 375.886 2.35477 5.18208 0
M  V30 3935 N 377.088 0.553611 5.77854 0
M  V30 3936 H 379.853 2.18615 2.05006 0
M  V30 3937 H 377.414 1.27573 0.99683 0
M  V30 3938 H 379.406 0.578806 4.0054 0
M  V30 3939 H 377.976 -0.0171518 3.12595 0
M  V30 3940 H 377.196 2.468 3.07382 0
M  V30 3941 H 378.484 2.80752 4.24329 0
M  V30 3942 H 377.882 -0.0423528 5.65684 0
M  V30 3943 H 376.439 0.335614 6.50935 0
M  V30 3944 N 379.872 -1.04064 1.18357 0
M  V30 3945 C 380.82 -2.14187 0.907007 0
M  V30 3946 C 381.814 -1.68879 -0.132725 0
M  V30 3947 O 383.02 -1.79993 0.0154248 0
M  V30 3948 H 379.395 -0.699585 0.275835 0
M  V30 3949 H 381.366 -2.34711 1.84264 0
M  V30 3950 C 380.115 -3.44785 0.449254 0
M  V30 3951 H 379.438 -3.80058 1.24081 0
M  V30 3952 H 380.878 -4.22974 0.294737 0
M  V30 3953 C 379.337 -3.26391 -0.834909 0
M  V30 3954 O 379.867 -3.53973 -1.89911 0
M  V30 3955 N 378.073 -2.79726 -0.787523 0
M  V30 3956 H 377.62 -2.5748 0.0787347 0
M  V30 3957 H 377.578 -2.67798 -1.64716 0
M  V30 3958 N 381.35 -0.985608 -1.22978 0
M  V30 3959 C 382.599 -0.652881 -1.90841 0
M  V30 3960 C 382.912 0.817842 -1.77681 0
M  V30 3961 O 384.118 1.26185 -2.40395 0
M  V30 3962 C 382.574 -1.11717 -3.42122 0
M  V30 3963 C 382.182 -2.6126 -3.63933 0
M  V30 3964 C 383.926 -0.85843 -4.1573 0
M  V30 3965 C 381.833 -3.0133 -5.08876 0
M  V30 3966 H 380.763 -0.240491 -0.714619 0
M  V30 3967 H 383.414 -1.1942 -1.39324 0
M  V30 3968 H 381.796 -0.504027 -3.92779 0
M  V30 3969 H 382.97 -3.27858 -3.23799 0
M  V30 3970 H 381.285 -2.84937 -3.03644 0
M  V30 3971 H 383.882 -1.13359 -5.22546 0
M  V30 3972 H 384.225 0.205461 -4.15793 0
M  V30 3973 H 384.758 -1.43341 -3.71077 0
M  V30 3974 H 381.497 -4.06864 -5.13947 0
M  V30 3975 H 381.017 -2.3943 -5.49939 0
M  V30 3976 H 382.696 -2.92224 -5.77247 0
M  V30 3977 N 382.828 1.3818 -0.7579 0
M  V30 3978 C 384.056 2.04301 -0.326937 0
M  V30 3979 C 384.471 1.57163 1.0462 0
M  V30 3980 O 383.828 0.746626 1.66529 0
M  V30 3981 C 383.879 3.59846 -0.345363 0
M  V30 3982 O 383.6 4.05256 -1.66432 0
M  V30 3983 C 385.101 4.4319 0.098927 0
M  V30 3984 H 382.321 0.656443 -0.139012 0
M  V30 3985 H 384.865 1.76786 -1.02796 0
M  V30 3986 H 383.02 3.86182 0.306955 0
M  V30 3987 H 383.434 4.99709 -1.59345 0
M  V30 3988 H 384.908 5.51989 0.0348745 0
M  V30 3989 H 385.385 4.23947 1.14741 0
M  V30 3990 H 385.991 4.22051 -0.52468 0
M  V30 3991 N 384.306 0.507319 1.49211 0
M  V30 3992 C 385.531 -0.033725 2.07373 0
M  V30 3993 C 385.956 -1.29485 1.36437 0
M  V30 3994 O 385.314 -1.76294 0.423087 0
M  V30 3995 C 385.362 -0.263945 3.59633 0
M  V30 3996 O 384.466 -1.33737 3.90113 0
M  V30 3997 H 383.807 0.0290331 0.663365 0
M  V30 3998 H 386.337 0.708749 1.91932 0
M  V30 3999 H 386.347 -0.493536 4.05004 0
M  V30 4000 H 385.022 0.657424 4.10671 0
M  V30 4001 H 383.599 -1.09224 3.56545 0
M  V30 4002 N 385.784 -1.5574 0.241426 0
M  V30 4003 C 387.012 -2.03208 -0.389134 0
M  V30 4004 C 387.427 -1.12082 -1.51931 0
M  V30 4005 O 386.784 -0.134183 -1.82006 0
M  V30 4006 C 386.835 -3.50064 -0.902087 0
M  V30 4007 O 386.556 -4.37717 0.18305 0
M  V30 4008 C 388.057 -4.13268 -1.60389 0
M  V30 4009 H 385.277 -0.664509 -0.0931053 0
M  V30 4010 H 387.821 -2.0124 0.36369 0
M  V30 4011 H 385.976 -3.52583 -1.60511 0
M  V30 4012 H 386.39 -5.24097 -0.205579 0
M  V30 4013 H 387.864 -5.17733 -1.91458 0
M  V30 4014 H 388.341 -3.59434 -2.52397 0
M  V30 4015 H 388.947 -4.14655 -0.945576 0
M  V30 4016 N 387.262 0.0317525 -1.57568 0
M  V30 4017 C 388.192 1.03274 -2.0942 0
M  V30 4018 C 389.173 1.3788 -0.996143 0
M  V30 4019 O 390.358 1.46811 -1.27122 0
M  V30 4020 C 387.488 2.33448 -2.57137 0
M  V30 4021 C 386.442 2.13091 -3.71182 0
M  V30 4022 C 385.768 3.49001 -4.05095 0
M  V30 4023 C 387.068 1.51928 -4.99715 0
M  V30 4024 H 388.762 0.60112 -2.93303 0
M  V30 4025 H 386.308 0.287705 -1.41097 0
M  V30 4026 H 388.261 3.03802 -2.92032 0
M  V30 4027 H 386.985 2.78665 -1.70333 0
M  V30 4028 H 385.644 1.45171 -3.36632 0
M  V30 4029 H 385.292 3.91862 -3.15362 0
M  V30 4030 H 384.992 3.36207 -4.81911 0
M  V30 4031 H 386.516 4.20721 -4.42522 0
M  V30 4032 H 387.93 2.12196 -5.32584 0
M  V30 4033 H 386.327 1.49716 -5.81124 0
M  V30 4034 H 387.397 0.484811 -4.8247 0
M  V30 4035 N 388.74 1.54641 0.303973 0
M  V30 4036 C 389.65 1.88439 1.39743 0
M  V30 4037 C 390.666 0.778239 1.55626 0
M  V30 4038 O 391.842 1.07442 1.70347 0
M  V30 4039 C 388.907 2.12212 2.74166 0
M  V30 4040 C 387.968 3.35936 2.67293 0
M  V30 4041 C 387.201 3.58566 3.95305 0
M  V30 4042 O 387.424 2.84263 4.9452 0
M  V30 4043 O 386.358 4.52078 3.97378 0
M  V30 4044 H 390.184 2.81458 1.14083 0
M  V30 4045 H 387.769 1.40793 0.499768 0
M  V30 4046 H 389.651 2.29067 3.53704 0
M  V30 4047 H 388.326 1.22379 2.99675 0
M  V30 4048 H 387.233 3.24448 1.86237 0
M  V30 4049 H 388.566 4.2589 2.46736 0
M  V30 4050 N 390.218 -0.567019 1.47046 0
M  V30 4051 C 391.467 -1.32091 1.5243 0
M  V30 4052 C 391.78 -1.94704 0.187021 0
M  V30 4053 O 392.986 -2.7124 0.118771 0
M  V30 4054 C 391.442 -2.39479 2.68659 0
M  V30 4055 C 391.05 -1.831 4.08874 0
M  V30 4056 C 392.794 -3.16111 2.83327 0
M  V30 4057 C 390.701 -2.8821 5.16419 0
M  V30 4058 H 389.631 -0.496629 0.56734 0
M  V30 4059 H 392.282 -0.603354 1.73297 0
M  V30 4060 H 390.664 -3.14105 2.41152 0
M  V30 4061 H 391.838 -1.14913 4.46242 0
M  V30 4062 H 390.153 -1.19085 3.99008 0
M  V30 4063 H 392.75 -3.94585 3.60842 0
M  V30 4064 H 393.093 -3.69686 1.91411 0
M  V30 4065 H 393.626 -2.48595 3.10556 0
M  V30 4066 H 390.365 -2.39504 6.10179 0
M  V30 4067 H 389.885 -3.54839 4.8358 0
M  V30 4068 H 391.564 -3.51881 5.42945 0
M  V30 4069 N 391.696 -1.35014 -0.812953 0
M  V30 4070 C 393.112 -1.14914 -1.10757 0
M  V30 4071 C 393.312 0.0426818 -2.01455 0
M  V30 4072 O 392.368 0.715212 -2.42159 0
M  V30 4073 C 393.681 -2.44911 -1.74468 0
M  V30 4074 C 395.229 -2.5106 -1.86917 0
M  V30 4075 C 395.704 -3.81085 -2.54044 0
M  V30 4076 N 397.195 -3.82301 -2.61535 0
M  V30 4077 C 397.93 -4.79634 -3.14227 0
M  V30 4078 N 397.426 -5.87353 -3.67407 0
M  V30 4079 N 399.219 -4.67078 -3.12721 0
M  V30 4080 H 391.37 -2.1136 -0.20989 0
M  V30 4081 H 393.633 -0.935128 -0.155692 0
M  V30 4082 H 393.339 -3.32267 -1.15289 0
M  V30 4083 H 393.213 -2.58989 -2.74234 0
M  V30 4084 H 395.6 -1.64137 -2.45241 0
M  V30 4085 H 395.681 -2.40901 -0.860242 0
M  V30 4086 H 395.325 -4.68402 -1.96372 0
M  V30 4087 H 395.255 -3.88529 -3.55461 0
M  V30 4088 H 397.746 -3.04465 -2.23851 0
M  V30 4089 H 398.059 -6.57624 -4.05894 0
M  V30 4090 H 396.404 -5.91054 -3.65623 0
M  V30 4091 H 399.595 -3.82067 -2.70449 0
M  V30 4092 H 399.768 -5.43098 -3.53481 0
M  V30 4093 N 393.175 1.03435 -1.18907 0
M  V30 4094 C 394.085 2.15075 -0.937015 0
M  V30 4095 C 395.101 1.73706 0.101085 0
M  V30 4096 O 396.277 2.01232 -0.0822948 0
M  V30 4097 C 393.342 3.43458 -0.473057 0
M  V30 4098 C 392.403 3.99172 -1.57989 0
M  V30 4099 C 391.636 5.21427 -1.13797 0
M  V30 4100 O 391.859 5.704 0.000725941 0
M  V30 4101 O 390.793 5.69837 -1.9383 0
M  V30 4102 H 394.619 2.39198 -1.87131 0
M  V30 4103 H 392.204 1.13506 -0.971427 0
M  V30 4104 H 394.086 4.20811 -0.222702 0
M  V30 4105 H 392.761 3.20793 0.432869 0
M  V30 4106 H 391.668 3.23178 -1.88433 0
M  V30 4107 H 393.001 4.2619 -2.46217 0
M  V30 4108 N 394.653 0.992116 1.22453 0
M  V30 4109 C 395.893 0.675727 1.92907 0
M  V30 4110 C 396.257 -0.777762 1.75542 0
M  V30 4111 O 397.458 -1.20553 2.40251 0
M  V30 4112 C 395.729 1.0696 3.4102 0
M  V30 4113 S 397.288 0.871456 4.30059 0
M  V30 4114 H 394.106 0.247089 0.666684 0
M  V30 4115 H 396.708 1.27423 1.48269 0
M  V30 4116 H 395.412 2.12383 3.51172 0
M  V30 4117 H 394.943 0.462858 3.90668 0
M  V30 4118 H 396.958 -0.238436 4.95627 0
M  V30 4119 N 396.131 -1.37776 0.765217 0
M  V30 4120 C 397.38 -1.99092 0.323307 0
M  V30 4121 C 397.693 -1.61434 -1.10446 0
M  V30 4122 O 398.899 -2.15805 -1.64743 0
M  V30 4123 C 397.355 -3.56019 0.527098 0
M  V30 4124 C 396.963 -4.0262 1.96471 0
M  V30 4125 C 398.707 -4.2424 0.148483 0
M  V30 4126 C 396.614 -5.52233 2.11644 0
M  V30 4127 H 395.544 -0.744846 0.117137 0
M  V30 4128 H 398.195 -1.57391 0.943417 0
M  V30 4129 H 396.577 -3.95667 -0.162372 0
M  V30 4130 H 397.751 -3.74234 2.68859 0
M  V30 4131 H 396.066 -3.47161 2.29931 0
M  V30 4132 H 398.663 -5.34159 0.240456 0
M  V30 4133 H 399.006 -4.06446 -0.900422 0
M  V30 4134 H 399.539 -3.89872 0.79025 0
M  V30 4135 H 396.278 -5.74945 3.1483 0
M  V30 4136 H 395.798 -5.82324 1.4373 0
M  V30 4137 H 397.477 -6.18106 1.91193 0
M  V30 4138 N 397.609 -0.515225 -1.4894 0
M  V30 4139 C 398.857 0.0241671 -2.02086 0
M  V30 4140 C 399.178 1.3616 -1.3959 0
M  V30 4141 O 398.448 1.87841 -0.556121 0
M  V30 4142 H 397.028 0.0119203 -0.746905 0
M  V30 4143 H 399.69 -0.675702 -1.82812 0
M  V30 4144 H 398.786 0.143385 -3.1177 0
M  V30 4145 N 399.087 1.5561 -0.249682 0
M  V30 4146 C 400.333 1.99306 0.374841 0
M  V30 4147 C 400.666 1.13767 1.57387 0
M  V30 4148 O 399.941 0.201711 1.93451 0
M  V30 4149 C 400.224 3.51507 0.781986 0
M  V30 4150 C 400.077 4.4781 -0.422629 0
M  V30 4151 C 401.396 4.08884 1.62793 0
M  V30 4152 H 398.515 0.724572 0.134773 0
M  V30 4153 H 401.157 1.86719 -0.351549 0
M  V30 4154 H 399.307 3.62363 1.4009 0
M  V30 4155 H 400.979 4.48931 -1.06108 0
M  V30 4156 H 399.222 4.20518 -1.06524 0
M  V30 4157 H 399.893 5.51919 -0.0943766 0
M  V30 4158 H 402.369 4.01147 1.10547 0
M  V30 4159 H 401.245 5.1564 1.88166 0
M  V30 4160 H 401.506 3.57515 2.60068 0
M  V30 4161 N 400.565 -0.0233959 1.57583 0
M  V30 4162 C 401.475 -1.03907 2.10334 0
M  V30 4163 C 402.491 -1.39257 1.04323 0
M  V30 4164 O 403.667 -1.48462 1.36091 0
M  V30 4165 C 400.732 -2.31938 2.57693 0
M  V30 4166 C 399.793 -2.03117 3.78209 0
M  V30 4167 C 399.026 -3.25043 4.233 0
M  V30 4168 O 399.249 -4.35916 3.67876 0
M  V30 4169 O 398.183 -3.10411 5.15683 0
M  V30 4170 H 402.009 -0.620748 2.97288 0
M  V30 4171 H 399.594 -0.240743 1.47448 0
M  V30 4172 H 401.476 -3.07196 2.88458 0
M  V30 4173 H 400.151 -2.73055 1.73847 0
M  V30 4174 H 399.058 -1.25408 3.52454 0
M  V30 4175 H 400.391 -1.66852 4.63056 0
M  V30 4176 N 402.043 -1.548 -0.295768 0
M  V30 4177 C 403.289 -1.74588 -1.03184 0
M  V30 4178 C 403.622 -0.532962 -1.86744 0
M  V30 4179 O 402.897 0.469872 -1.88739 0
M  V30 4180 C 403.18 -3.03791 -1.93347 0
M  V30 4181 C 403.033 -4.35392 -1.12933 0
M  V30 4182 C 404.352 -3.28892 -2.92435 0
M  V30 4183 H 401.471 -0.635221 -0.373715 0
M  V30 4184 H 404.113 -1.87519 -0.30606 0
M  V30 4185 H 402.263 -2.92898 -2.55232 0
M  V30 4186 H 403.935 -4.58211 -0.532943 0
M  V30 4187 H 402.178 -4.31642 -0.432168 0
M  V30 4188 H 402.849 -5.22074 -1.79284 0
M  V30 4189 H 405.325 -3.39429 -2.4068 0
M  V30 4190 H 404.201 -4.20603 -3.52682 0
M  V30 4191 H 404.462 -2.47437 -3.6637 0
M  V30 4192 N 403.521 0.559213 -1.47345 0
M  V30 4193 C 404.471 1.66192 -1.5609 0
M  V30 4194 C 405.455 1.55323 -0.419957 0
M  V30 4195 O 406.647 1.63839 -0.669762 0
M  V30 4196 C 403.776 3.0497 -1.57634 0
M  V30 4197 C 402.862 3.2105 -2.77106 0
M  V30 4198 N 403.253 3.07203 -4.01821 0
M  V30 4199 C 401.551 3.52046 -2.73825 0
M  V30 4200 C 402.252 3.25919 -4.81821 0
M  V30 4201 N 401.228 3.52161 -4.14106 0
M  V30 4202 H 405.03 1.54052 -2.5029 0
M  V30 4203 H 402.544 0.763914 -1.43311 0
M  V30 4204 H 404.541 3.84142 -1.61989 0
M  V30 4205 H 403.201 3.18224 -0.645281 0
M  V30 4206 H 404.212 2.84572 -4.32711 0
M  V30 4207 H 400.889 3.71839 -1.89848 0
M  V30 4208 H 402.279 3.20198 -5.90697 0
M  V30 4209 N 404.999 1.35443 0.805782 0
M  V30 4210 C 406.415 1.15499 1.10146 0
M  V30 4211 C 406.615 -0.0319975 2.01475 0
M  V30 4212 O 405.671 -0.70236 2.42535 0
M  V30 4213 C 406.984 2.45833 1.73166 0
M  V30 4214 C 408.532 2.52047 1.85583 0
M  V30 4215 C 409.007 3.82427 2.52019 0
M  V30 4216 N 410.498 3.83682 2.59504 0
M  V30 4217 C 411.233 4.81294 3.11679 0
M  V30 4218 N 410.729 5.89294 3.64287 0
M  V30 4219 N 412.522 4.6873 3.1024 0
M  V30 4220 H 404.673 2.11469 0.198678 0
M  V30 4221 H 406.936 0.93594 0.150731 0
M  V30 4222 H 406.642 3.32874 1.13526 0
M  V30 4223 H 406.516 2.6044 2.72857 0
M  V30 4224 H 408.903 1.65435 2.44367 0
M  V30 4225 H 408.984 2.41354 0.847455 0
M  V30 4226 H 408.628 4.69437 1.93885 0
M  V30 4227 H 408.558 3.90409 3.53395 0
M  V30 4228 H 411.049 3.05648 2.22234 0
M  V30 4229 H 411.362 6.59768 4.02401 0
M  V30 4230 H 409.707 5.92985 3.62483 0
M  V30 4231 H 412.898 3.83496 2.68419 0
M  V30 4232 H 413.071 5.44965 3.50596 0
M  V30 4233 N 406.477 -1.02803 1.19454 0
M  V30 4234 C 407.44 -2.09264 0.934955 0
M  V30 4235 C 408.44 -1.60576 -0.0849015 0
M  V30 4236 O 409.63 -1.73554 0.149933 0
M  V30 4237 C 406.762 -3.38482 0.40531 0
M  V30 4238 H 407.955 -2.33726 1.87916 0
M  V30 4239 H 405.508 -1.19426 1.00832 0
M  V30 4240 H 406.243 -3.19689 -0.544899 0
M  V30 4241 H 406.028 -3.75142 1.14065 0
M  V30 4242 H 407.518 -4.16894 0.242806 0
M  V30 4243 N 407.956 -0.998596 -1.21925 0
M  V30 4244 C 409.181 -0.696015 -1.95372 0
M  V30 4245 C 409.606 0.733826 -1.73195 0
M  V30 4246 O 408.964 1.50242 -1.01474 0
M  V30 4247 C 409.012 -1.01466 -3.4603 0
M  V30 4248 O 408.116 -0.116415 -4.12236 0
M  V30 4249 H 407.457 -0.259938 -0.611006 0
M  V30 4250 H 409.987 -1.33711 -1.54863 0
M  V30 4251 H 409.997 -0.958855 -3.96573 0
M  V30 4252 H 408.672 -2.05653 -3.61497 0
M  V30 4253 H 407.249 -0.228193 -3.72201 0
M  V30 4254 N 409.434 1.37368 -0.772513 0
M  V30 4255 C 410.682 1.99279 -0.336516 0
M  V30 4256 C 411.003 1.6163 1.09091 0
M  V30 4257 O 410.273 0.882109 1.74916 0
M  V30 4258 H 408.853 0.737063 -0.121435 0
M  V30 4259 H 411.515 1.67836 -0.990809 0
M  V30 4260 H 410.611 3.09332 -0.414763 0
M  V30 4261 N 410.912 0.523116 1.48665 0
M  V30 4262 C 411.842 -0.23231 2.32342 0
M  V30 4263 C 412.823 -0.941637 1.41659 0
M  V30 4264 O 414.008 -0.928751 1.70552 0
M  V30 4265 C 411.138 -1.28387 3.22698 0
M  V30 4266 C 410.092 -0.693098 4.22351 0
M  V30 4267 C 409.418 -1.8468 5.01794 0
M  V30 4268 C 410.718 0.33063 5.21252 0
M  V30 4269 H 412.412 0.466192 2.95748 0
M  V30 4270 H 409.958 0.225643 1.42221 0
M  V30 4271 H 411.911 -1.82024 3.80059 0
M  V30 4272 H 410.635 -2.01186 2.57278 0
M  V30 4273 H 409.294 -0.178299 3.66166 0
M  V30 4274 H 408.942 -2.56301 4.32804 0
M  V30 4275 H 408.642 -1.45747 5.69238 0
M  V30 4276 H 410.166 -2.38709 5.62006 0
M  V30 4277 H 411.58 -0.118407 5.73178 0
M  V30 4278 H 409.977 0.636974 5.9671 0
M  V30 4279 H 411.047 1.23883 4.68808 0
M  V30 4280 N 412.39 -1.55475 0.257931 0
M  V30 4281 C 413.323 -2.179 -0.677862 0
M  V30 4282 C 414.301 -1.13448 -1.16483 0
M  V30 4283 O 415.485 -1.41889 -1.24095 0
M  V30 4284 C 412.612 -2.78851 -1.92249 0
M  V30 4285 C 411.658 -3.96454 -1.57246 0
M  V30 4286 S 412.491 -5.31349 -0.665501 0
M  V30 4287 C 413.647 -5.9576 -1.91889 0
M  V30 4288 H 413.88 -2.96934 -0.147396 0
M  V30 4289 H 411.413 -1.54342 0.0423023 0
M  V30 4290 H 413.371 -3.14602 -2.63697 0
M  V30 4291 H 412.032 -1.99742 -2.42409 0
M  V30 4292 H 411.225 -4.37731 -2.49814 0
M  V30 4293 H 410.827 -3.62038 -0.938325 0
M  V30 4294 H 413.119 -6.13947 -2.86487 0
M  V30 4295 H 414.062 -6.9094 -1.54942 0
M  V30 4296 H 414.47 -5.2494 -2.076 0
M  V30 4297 N 413.868 0.0150385 -1.57593 0
M  V30 4298 C 414.831 0.995996 -2.06428 0
M  V30 4299 C 415.831 1.2818 -0.970903 0
M  V30 4300 O 417.021 1.22949 -1.23406 0
M  V30 4301 C 414.153 2.32506 -2.49307 0
M  V30 4302 H 415.346 0.573873 -2.94358 0
M  V30 4303 H 412.899 0.262186 -1.54085 0
M  V30 4304 H 413.634 2.79438 -1.64575 0
M  V30 4305 H 413.419 2.13087 -3.29145 0
M  V30 4306 H 414.909 3.02906 -2.87468 0
M  V30 4307 N 415.346 1.54954 0.287554 0
M  V30 4308 C 416.594 1.74528 1.01904 0
M  V30 4309 C 416.915 0.541349 1.87335 0
M  V30 4310 O 416.185 -0.444108 1.908 0
M  V30 4311 H 414.765 0.643576 0.379235 0
M  V30 4312 H 417.427 1.92333 0.315294 0
M  V30 4313 H 416.523 2.64015 1.6644 0
M  V30 4314 N 416.824 -0.551391 1.4764 0
M  V30 4315 C 418.071 -1.3083 1.54563 0
M  V30 4316 C 418.399 -1.93359 0.210361 0
M  V30 4317 O 417.654 -1.78721 -0.797332 0
M  V30 4318 C 417.953 -2.43469 2.61644 0
M  V30 4319 C 417.619 -1.98732 4.04742 0
M  V30 4320 C 416.281 -1.86248 4.43695 0
M  V30 4321 C 418.633 -1.64659 4.94507 0
M  V30 4322 C 415.961 -1.37995 5.70241 0
M  V30 4323 C 418.313 -1.17875 6.21521 0
M  V30 4324 C 416.977 -1.03992 6.5935 0
M  V30 4325 H 416.247 -0.478741 0.565587 0
M  V30 4326 H 418.894 -0.617697 1.81264 0
M  V30 4327 H 417.199 -3.18109 2.28722 0
M  V30 4328 H 418.896 -3.01642 2.64222 0
M  V30 4329 H 415.486 -2.09393 3.73968 0
M  V30 4330 H 419.67 -1.73174 4.65107 0
M  V30 4331 H 414.926 -1.25915 5.98294 0
M  V30 4332 H 419.1 -0.905739 6.90485 0
M  V30 4333 H 416.727 -0.663794 7.57296 0
M  V30 4334 N 418.302 -1.35869 -0.798587 0
M  V30 4335 C 419.232 -1.32118 -1.92528 0
M  V30 4336 C 420.213 -0.194209 -1.68988 0
M  V30 4337 O 421.398 -0.390426 -1.90235 0
M  V30 4338 C 418.528 -1.10047 -3.29404 0
M  V30 4339 C 417.482 -2.19471 -3.67446 0
M  V30 4340 C 416.808 -1.82555 -5.02571 0
M  V30 4341 C 418.108 -3.61495 -3.76987 0
M  V30 4342 H 419.802 -2.26394 -1.95924 0
M  V30 4343 H 417.348 -1.08981 -0.94123 0
M  V30 4344 H 419.301 -1.06061 -4.07835 0
M  V30 4345 H 418.025 -0.122195 -3.26371 0
M  V30 4346 H 416.684 -2.22568 -2.91306 0
M  V30 4347 H 416.332 -0.833249 -4.9605 0
M  V30 4348 H 416.032 -2.5581 -5.28995 0
M  V30 4349 H 417.556 -1.80108 -5.83432 0
M  V30 4350 H 418.97 -3.60676 -4.4563 0
M  V30 4351 H 417.367 -4.33577 -4.14887 0
M  V30 4352 H 418.437 -3.97065 -2.78329 0
M  V30 4353 N 419.78 1.02168 -1.19998 0
M  V30 4354 C 421.027 1.75685 -1.00702 0
M  V30 4355 C 421.355 1.88947 0.461426 0
M  V30 4356 O 420.61 1.40832 1.35885 0
M  V30 4357 C 420.909 3.18081 -1.62969 0
M  V30 4358 C 420.575 3.24809 -3.12746 0
M  V30 4359 C 419.237 3.26352 -3.53621 0
M  V30 4360 C 421.589 3.23379 -4.08749 0
M  V30 4361 C 418.917 3.2413 -4.89036 0
M  V30 4362 C 421.269 3.22698 -5.44104 0
M  V30 4363 C 419.933 3.22542 -5.84399 0
M  V30 4364 H 419.203 0.642877 -0.368496 0
M  V30 4365 H 421.85 1.19865 -1.49348 0
M  V30 4366 H 420.155 3.77027 -1.06573 0
M  V30 4367 H 421.852 3.73648 -1.45561 0
M  V30 4368 H 418.442 3.2434 -2.80181 0
M  V30 4369 H 422.626 3.21361 -3.78207 0
M  V30 4370 H 417.882 3.22338 -5.19527 0
M  V30 4371 H 422.056 3.20543 -6.18244 0
M  V30 4372 H 419.683 3.20575 -6.89301 0
M  V30 4373 N 421.258 1.00505 1.21394 0
M  V30 4374 C 422.674 0.717873 1.42544 0
M  V30 4375 C 422.874 -0.706936 1.88692 0
M  V30 4376 O 421.93 -1.47627 2.04847 0
M  V30 4377 C 423.243 1.73377 2.45684 0
M  V30 4378 C 424.791 1.75059 2.59467 0
M  V30 4379 C 425.266 2.75545 3.6584 0
M  V30 4380 N 426.757 2.74213 3.73311 0
M  V30 4381 C 427.492 3.48626 4.55245 0
M  V30 4382 N 426.988 4.32678 5.41075 0
M  V30 4383 N 428.781 3.37276 4.49668 0
M  V30 4384 H 420.932 1.92506 0.897503 0
M  V30 4385 H 423.195 0.830919 0.456375 0
M  V30 4386 H 422.901 2.75395 2.18748 0
M  V30 4387 H 422.775 1.53647 3.44489 0
M  V30 4388 H 425.162 0.737337 2.8574 0
M  V30 4389 H 425.243 1.98861 1.60897 0
M  V30 4390 H 424.887 3.77028 3.40313 0
M  V30 4391 H 424.817 2.49009 4.64007 0
M  V30 4392 H 427.308 2.13234 3.11993 0
M  V30 4393 H 427.621 4.86253 6.00648 0
M  V30 4394 H 425.966 4.3676 5.40616 0
M  V30 4395 H 429.157 2.71043 3.81646 0
M  V30 4396 H 429.33 3.95524 5.13288 0
M  V30 4397 N 422.737 -1.36956 0.779787 0
M  V30 4398 C 423.985 -1.99097 0.347079 0
M  V30 4399 C 424.306 -1.62206 -1.08232 0
M  V30 4400 O 423.576 -0.891373 -1.74446 0
M  V30 4401 H 422.156 -0.736409 0.125342 0
M  V30 4402 H 424.818 -1.67308 0.999696 0
M  V30 4403 H 423.914 -3.09107 0.431162 0
M  V30 4404 N 424.215 -0.530993 -1.48385 0
M  V30 4405 C 425.455 0.000718982 -2.044 0
M  V30 4406 C 425.819 1.31485 -1.39913 0
M  V30 4407 O 427.02 1.93265 -1.86821 0
M  V30 4408 C 425.291 0.119177 -3.57201 0
M  V30 4409 S 426.85 0.600806 -4.34667 0
M  V30 4410 H 423.668 -0.0125473 -0.710889 0
M  V30 4411 H 426.27 -0.711783 -1.82082 0
M  V30 4412 H 424.974 -0.842061 -4.01668 0
M  V30 4413 H 424.505 0.856026 -3.83974 0
M  V30 4414 H 426.52 1.86514 -4.59812 0
M  V30 4415 N 425.693 1.55336 -0.266172 0
M  V30 4416 C 426.643 2.18848 0.639497 0
M  V30 4417 C 427.627 1.1503 1.12503 0
M  V30 4418 O 428.819 1.40875 1.0716 0
M  V30 4419 C 425.948 2.90626 1.82733 0
M  V30 4420 C 425.034 4.01723 1.35939 0
M  V30 4421 N 425.425 5.02145 0.606988 0
M  V30 4422 C 423.723 4.1463 1.6431 0
M  V30 4423 C 424.424 5.80572 0.362138 0
M  V30 4424 N 423.4 5.35551 0.931971 0
M  V30 4425 H 427.202 2.93845 0.0567057 0
M  V30 4426 H 424.716 1.62252 -0.0693312 0
M  V30 4427 H 426.713 3.34569 2.48735 0
M  V30 4428 H 425.373 2.17137 2.41416 0
M  V30 4429 H 426.384 5.17271 0.255198 0
M  V30 4430 H 423.061 3.52326 2.23993 0
M  V30 4431 H 424.451 6.71472 -0.239848 0
M  V30 4432 N 427.171 -0.0066808 1.57599 0
M  V30 4433 C 428.418 -0.69292 1.90276 0
M  V30 4434 C 428.746 -1.74148 0.866192 0
M  V30 4435 O 428.001 -1.95268 -0.129933 0
M  V30 4436 C 428.3 -1.37939 3.29708 0
M  V30 4437 C 427.966 -0.464679 4.48499 0
M  V30 4438 C 426.628 -0.212809 4.80729 0
M  V30 4439 C 428.98 0.16551 5.20937 0
M  V30 4440 C 426.308 0.677653 5.82773 0
M  V30 4441 C 428.66 1.04381 6.23929 0
M  V30 4442 C 427.324 1.30492 6.54621 0
M  V30 4443 H 426.594 -0.253558 0.696268 0
M  V30 4444 H 429.241 0.0474123 1.91441 0
M  V30 4445 H 427.546 -2.1936 3.24636 0
M  V30 4446 H 429.243 -1.9163 3.52249 0
M  V30 4447 H 425.833 -0.671153 4.23313 0
M  V30 4448 H 430.017 -0.0160756 4.96297 0
M  V30 4449 H 425.273 0.88803 6.04917 0
M  V30 4450 H 429.447 1.53851 6.79193 0
M  V30 4451 H 427.074 1.99662 7.33512 0
M  V30 4452 N 428.649 -1.55105 -0.279332 0
M  V30 4453 C 429.889 -1.7716 -1.01949 0
M  V30 4454 C 430.253 -0.557511 -1.83728 0
M  V30 4455 O 431.454 -0.656198 -2.60667 0
M  V30 4456 C 429.725 -3.0372 -1.88385 0
M  V30 4457 S 431.284 -3.46868 -2.68752 0
M  V30 4458 H 428.102 -0.62253 -0.343478 0
M  V30 4459 H 430.704 -1.93329 -0.290572 0
M  V30 4460 H 429.408 -3.90184 -1.2722 0
M  V30 4461 H 428.939 -2.902 -2.65608 0
M  V30 4462 H 430.954 -3.05643 -3.90892 0
M  V30 4463 N 430.127 0.543554 -1.4793 0
M  V30 4464 C 431.074 1.64942 -1.6144 0
M  V30 4465 C 432.044 1.59692 -0.456903 0
M  V30 4466 O 433.229 1.78321 -0.678688 0
M  V30 4467 C 430.369 3.03238 -1.64744 0
M  V30 4468 C 429.482 3.18823 -2.91506 0
M  V30 4469 C 428.617 4.47599 -2.86057 0
M  V30 4470 C 427.656 4.56664 -4.07584 0
M  V30 4471 N 426.793 5.76811 -4.00292 0
M  V30 4472 H 431.633 1.52733 -2.55884 0
M  V30 4473 H 429.17 0.7438 -1.2691 0
M  V30 4474 H 431.128 3.83339 -1.64641 0
M  V30 4475 H 429.758 3.1425 -0.738017 0
M  V30 4476 H 428.81 2.32064 -3.01414 0
M  V30 4477 H 430.122 3.21384 -3.81463 0
M  V30 4478 H 429.276 5.35975 -2.84281 0
M  V30 4479 H 428.015 4.47538 -1.93807 0
M  V30 4480 H 427.02 3.66697 -4.09651 0
M  V30 4481 H 428.245 4.58474 -5.00978 0
M  V30 4482 H 426.191 5.77673 -3.10853 0
M  V30 4483 H 426.108 5.80808 -4.8394 0
M  V30 4484 H 427.376 6.67512 -4.02553 0
M  V30 4485 N 431.605 1.3629 0.791371 0
M  V30 4486 C 432.538 1.24816 1.9104 0
M  V30 4487 C 433.516 0.132739 1.62057 0
M  V30 4488 O 434.7 0.303527 1.8604 0
M  V30 4489 C 431.827 0.925355 3.25814 0
M  V30 4490 C 430.873 2.05495 3.7373 0
M  V30 4491 S 431.706 3.67255 3.89723 0
M  V30 4492 C 432.862 3.37084 5.27376 0
M  V30 4493 H 433.095 2.19533 2.00481 0
M  V30 4494 H 430.628 1.21684 0.950393 0
M  V30 4495 H 432.586 0.745924 4.03666 0
M  V30 4496 H 431.247 -0.00400098 3.141 0
M  V30 4497 H 430.44 1.7836 4.71385 0
M  V30 4498 H 430.042 2.1935 3.02922 0
M  V30 4499 H 432.334 2.90856 6.1189 0
M  V30 4500 H 433.277 4.33995 5.59512 0
M  V30 4501 H 433.685 2.7248 4.94383 0
M  V30 4502 N 433.083 -1.0153 1.20538 0
M  V30 4503 C 434.329 -1.75408 1.01783 0
M  V30 4504 C 434.662 -1.88943 -0.448814 0
M  V30 4505 O 433.937 -1.4162 -1.33319 0
M  V30 4506 C 434.22 -3.17255 1.70356 0
M  V30 4507 C 434.073 -3.11508 3.24473 0
M  V30 4508 C 435.392 -4.15955 1.43769 0
M  V30 4509 H 432.511 -0.636713 0.371167 0
M  V30 4510 H 435.153 -1.18436 1.4857 0
M  V30 4511 H 433.303 -3.65898 1.30578 0
M  V30 4512 H 434.975 -2.70658 3.73553 0
M  V30 4513 H 433.218 -2.4887 3.55311 0
M  V30 4514 H 433.889 -4.11784 3.67611 0
M  V30 4515 H 436.365 -3.75973 1.7828 0
M  V30 4516 H 435.241 -5.13368 1.94279 0
M  V30 4517 H 435.502 -4.40586 0.365564 0
M  V30 4518 N 434.561 -1.01147 -1.20859 0
M  V30 4519 C 435.838 -0.613136 -1.85742 0
M  V30 4520 C 436.218 0.909004 -1.90526 0
M  V30 4521 O 435.566 1.79862 -1.40932 0
M  V30 4522 C 435.776 -1.255 -3.25654 0
M  V30 4523 C 437.124 -1.3672 -4.01986 0
M  V30 4524 O 438.148 -1.21082 -3.34989 0
M  V30 4525 O 437.007 -1.6194 -5.21956 0
M  V30 4526 H 434.101 -0.210878 -0.799662 0
M  V30 4527 H 436.647 -1.10853 -1.2849 0
M  V30 4528 H 435.419 -2.29532 -3.16908 0
M  V30 4529 H 435.042 -0.746369 -3.90532 0
M  V30 4530 N 436.039 1.36541 -0.78704 0
M  V30 4531 C 437.002 2.28413 -0.189778 0
M  V30 4532 C 438.002 1.48719 0.611499 0
M  V30 4533 O 439.192 1.68737 0.432842 0
M  V30 4534 C 436.324 3.32824 0.737638 0
M  V30 4535 H 437.517 2.82743 -0.999831 0
M  V30 4536 H 435.07 1.46065 -0.556298 0
M  V30 4537 H 435.805 2.83646 1.57212 0
M  V30 4538 H 435.59 3.91752 0.165044 0
M  V30 4539 H 437.08 4.0144 1.15047 0
M  V30 4540 N 437.518 0.538854 1.48102 0
M  V30 4541 C 438.466 -0.232325 2.31437 0
M  V30 4542 C 439.46 -0.927004 1.41785 0
M  V30 4543 O 440.666 -0.850378 1.58646 0
M  V30 4544 H 437.041 -0.0937916 0.746128 0
M  V30 4545 H 439.012 0.489986 2.9435 0
M  V30 4546 C 437.761 -1.26074 3.24038 0
M  V30 4547 H 437.084 -0.735609 3.92974 0
M  V30 4548 H 438.524 -1.77157 3.85216 0
M  V30 4549 C 436.983 -2.29902 2.46265 0
M  V30 4550 O 437.513 -3.36502 2.19384 0
M  V30 4551 N 435.719 -2.03348 2.07601 0
M  V30 4552 H 435.266 -1.16675 2.29662 0
M  V30 4553 H 435.224 -2.73038 1.55877 0
M  V30 4554 N 438.996 -1.55193 0.274407 0
M  V30 4555 C 439.944 -2.23924 -0.629362 0
M  V30 4556 C 440.938 -1.23602 -1.1584 0
M  V30 4557 O 442.144 -1.41535 -1.11211 0
M  V30 4558 H 438.519 -0.718637 -0.221507 0
M  V30 4559 H 440.49 -2.98388 -0.0268322 0
M  V30 4560 C 439.239 -2.97329 -1.80252 0
M  V30 4561 H 438.562 -3.74313 -1.40462 0
M  V30 4562 H 440.002 -3.48743 -2.41152 0
M  V30 4563 C 438.461 -2.0276 -2.69054 0
M  V30 4564 O 438.991 -1.57836 -3.69392 0
M  V30 4565 N 437.197 -1.69275 -2.36208 0
M  V30 4566 H 436.744 -2.06004 -1.54661 0
M  V30 4567 H 436.702 -1.06271 -2.95895 0
M  V30 4568 N 440.474 -0.00167713 -1.576 0
M  V30 4569 C 441.885 0.54091 -1.78693 0
M  V30 4570 C 442.236 1.7386 -0.909247 0
M  V30 4571 O 441.361 2.16109 -0.112176 0
M  V30 4572 C 441.956 0.98806 -3.24072 0
M  V30 4573 C 440.515 1.47594 -3.46256 0
M  V30 4574 C 439.662 0.42792 -2.73978 0
M  V30 4575 H 442.613 -0.22784 -1.57056 0
M  V30 4576 H 442.634 1.85398 -3.32277 0
M  V30 4577 H 442.146 0.116164 -3.87926 0
M  V30 4578 H 440.247 2.36868 -2.87618 0
M  V30 4579 H 440.36 1.50225 -4.54939 0
M  V30 4580 H 438.724 0.889934 -2.38647 0
M  V30 4581 H 439.507 -0.435038 -3.40532 0
M  V30 4582 N 441.952 1.55251 0.271103 0
M  V30 4583 C 443.177 1.80306 1.02491 0
M  V30 4584 C 443.602 0.575457 1.79081 0
M  V30 4585 O 442.96 -0.474987 1.74967 0
M  V30 4586 C 443.008 3.02832 1.95768 0
M  V30 4587 O 442.112 2.78051 3.04568 0
M  V30 4588 H 441.453 0.595896 0.292923 0
M  V30 4589 H 443.983 2.02397 0.299436 0
M  V30 4590 H 443.993 3.31616 2.37686 0
M  V30 4591 H 442.668 3.9183 1.39434 0
M  V30 4592 H 441.245 2.60369 2.66951 0
M  V30 4593 N 443.43 -0.535701 1.48216 0
M  V30 4594 C 444.678 -1.28928 1.55634 0
M  V30 4595 C 444.999 -1.93645 0.229514 0
M  V30 4596 O 444.269 -1.81038 -0.74846 0
M  V30 4597 H 442.849 -0.47884 0.573342 0
M  V30 4598 H 445.511 -0.623853 1.84646 0
M  V30 4599 H 444.607 -2.07157 2.33436 0
M  V30 4600 N 444.908 -1.36708 -0.784132 0
M  V30 4601 C 446.156 -1.30972 -1.53918 0
M  V30 4602 C 446.477 0.109086 -1.94695 0
M  V30 4603 O 445.747 1.05048 -1.65353 0
M  V30 4604 H 444.327 -0.481819 -0.570841 0
M  V30 4605 H 446.989 -1.71063 -0.934002 0
M  V30 4606 H 446.085 -1.94061 -2.44431 0
M  V30 4607 N 446.386 1.0089 -1.21074 0
M  V30 4608 C 447.333 2.09588 -0.966512 0
M  V30 4609 C 448.303 1.65761 0.106089 0
M  V30 4610 O 449.488 1.90758 -0.0402287 0
M  V30 4611 C 446.628 3.40958 -0.533058 0
M  V30 4612 C 445.741 3.9822 -1.67467 0
M  V30 4613 C 444.876 5.17682 -1.19076 0
M  V30 4614 C 443.915 5.67043 -2.30496 0
M  V30 4615 N 443.052 6.77759 -1.83267 0
M  V30 4616 H 447.892 2.29815 -1.89708 0
M  V30 4617 H 445.429 1.12689 -0.945489 0
M  V30 4618 H 447.387 4.1637 -0.263019 0
M  V30 4619 H 446.017 3.20781 0.360505 0
M  V30 4620 H 445.069 3.1983 -2.05944 0
M  V30 4621 H 446.381 4.3085 -2.51336 0
M  V30 4622 H 445.535 6.00326 -0.877151 0
M  V30 4623 H 444.274 4.86635 -0.322066 0
M  V30 4624 H 443.279 4.82999 -2.62664 0
M  V30 4625 H 444.504 6.00121 -3.17855 0
M  V30 4626 H 442.45 6.48527 -0.987356 0
M  V30 4627 H 442.367 7.09624 -2.60711 0
M  V30 4628 H 443.635 7.63949 -1.54928 0
M  V30 4629 N 447.864 1.01787 1.20321 0
M  V30 4630 C 449.141 0.622978 1.85414 0
M  V30 4631 C 449.521 -0.898887 1.91006 0
M  V30 4632 O 448.869 -1.79112 1.41884 0
M  V30 4633 C 449.079 1.27226 3.24984 0
M  V30 4634 C 450.427 1.3885 4.01255 0
M  V30 4635 O 451.451 1.22857 3.34342 0
M  V30 4636 O 450.31 1.64705 5.2109 0
M  V30 4637 H 447.404 0.215116 0.798533 0
M  V30 4638 H 449.95 1.11533 1.27901 0
M  V30 4639 H 448.722 2.31209 3.15687 0
M  V30 4640 H 448.345 0.767069 3.90131 0
M  V30 4641 N 449.342 -1.36122 0.79427 0
M  V30 4642 C 450.59 -1.98718 0.368177 0
M  V30 4643 C 450.911 -1.63345 -1.06506 0
M  V30 4644 O 450.181 -0.909825 -1.73491 0
M  V30 4645 H 448.761 -0.735038 0.133146 0
M  V30 4646 H 451.423 -1.66239 1.01739 0
M  V30 4647 H 450.519 -3.08633 0.463923 0
M  V30 4648 N 450.82 -0.546701 -1.47814 0
M  V30 4649 C 452.069 -0.0166497 -2.01693 0
M  V30 4650 C 452.382 1.33721 -1.42752 0
M  V30 4651 O 453.588 1.95658 -1.8823 0
M  V30 4652 C 452.044 0.0206769 -3.59894 0
M  V30 4653 C 451.652 -1.3293 -4.27824 0
M  V30 4654 C 453.396 0.498674 -4.21561 0
M  V30 4655 C 451.303 -1.25165 -5.78003 0
M  V30 4656 H 450.233 -0.0024541 -0.753996 0
M  V30 4657 H 452.884 -0.692984 -1.69912 0
M  V30 4658 H 451.266 0.76244 -3.88591 0
M  V30 4659 H 452.44 -2.08795 -4.10781 0
M  V30 4660 H 450.755 -1.74438 -3.78101 0
M  V30 4661 H 453.352 0.575 -5.31599 0
M  V30 4662 H 453.695 1.5083 -3.88016 0
M  V30 4663 H 454.228 -0.18791 -3.97356 0
M  V30 4664 H 450.967 -2.23695 -6.1615 0
M  V30 4665 H 450.487 -0.53464 -5.97412 0
M  V30 4666 H 452.166 -0.949299 -6.39998 0
M  V30 4667 N 452.299 1.55045 -0.282633 0
M  V30 4668 C 453.548 1.98938 0.332667 0
M  V30 4669 C 453.861 1.17455 1.56409 0
M  V30 4670 O 455.067 1.51527 2.25282 0
M  V30 4671 C 453.523 3.54105 0.643226 0
M  V30 4672 C 453.131 4.44374 -0.568814 0
M  V30 4673 C 454.875 4.06569 1.22074 0
M  V30 4674 C 452.782 5.90943 -0.232426 0
M  V30 4675 H 451.712 0.743043 0.128075 0
M  V30 4676 H 454.363 1.79341 -0.388464 0
M  V30 4677 H 452.745 3.69532 1.42346 0
M  V30 4678 H 453.919 4.40718 -1.34551 0
M  V30 4679 H 452.234 4.02585 -1.06369 0
M  V30 4680 H 454.831 5.13626 1.48635 0
M  V30 4681 H 455.174 3.56057 2.15707 0
M  V30 4682 H 455.707 3.94612 0.502621 0
M  V30 4683 H 452.446 6.45567 -1.13683 0
M  V30 4684 H 451.966 5.9765 0.507357 0
M  V30 4685 H 453.645 6.4677 0.172657 0
M  V30 4686 N 453.777 0.010035 1.57597 0
M  V30 4687 C 455.005 -0.683413 1.95287 0
M  V30 4688 C 455.42 -1.66747 0.885481 0
M  V30 4689 O 454.777 -1.82003 -0.134629 0
M  V30 4690 C 454.828 -1.40652 3.33015 0
M  V30 4691 O 454.549 -0.461916 4.35658 0
M  V30 4692 C 456.05 -2.19356 3.85225 0
M  V30 4693 H 453.27 -0.189708 0.643624 0
M  V30 4694 H 455.814 0.0641359 2.04399 0
M  V30 4695 H 453.969 -2.10562 3.2518 0
M  V30 4696 H 454.383 -0.973215 5.15392 0
M  V30 4697 H 455.857 -2.65433 4.83993 0
M  V30 4698 H 456.334 -3.02457 3.18459 0
M  V30 4699 H 456.94 -1.54442 3.96267 0
M  V30 4700 N 455.255 -1.55392 -0.262866 0
M  V30 4701 C 456.502 -1.76476 -0.993109 0
M  V30 4702 C 456.83 -0.571479 -1.85915 0
M  V30 4703 O 456.085 0.445733 -1.90556 0
M  V30 4704 C 456.384 -3.02889 -1.89718 0
M  V30 4705 C 456.05 -4.34974 -1.18781 0
M  V30 4706 C 454.712 -4.7087 -0.991699 0
M  V30 4707 C 457.064 -5.16695 -0.683798 0
M  V30 4708 C 454.392 -5.86036 -0.279024 0
M  V30 4709 C 456.744 -6.32598 0.0153327 0
M  V30 4710 C 455.408 -6.67127 0.223062 0
M  V30 4711 H 454.678 -0.64577 -0.363404 0
M  V30 4712 H 457.325 -1.89664 -0.264525 0
M  V30 4713 H 455.63 -2.84644 -2.6923 0
M  V30 4714 H 457.327 -3.16399 -2.46359 0
M  V30 4715 H 453.917 -4.06765 -1.35058 0
M  V30 4716 H 458.101 -4.8943 -0.8229 0
M  V30 4717 H 453.357 -6.11306 -0.107456 0
M  V30 4718 H 457.531 -6.95171 0.413584 0
M  V30 4719 H 455.158 -7.56216 0.777265 0
M  V30 4720 N 456.733 0.527833 -1.48498 0
M  V30 4721 C 457.643 1.65907 -1.65867 0
M  V30 4722 C 458.659 1.6537 -0.541192 0
M  V30 4723 O 459.835 1.84282 -0.812534 0
M  V30 4724 C 456.9 3.02364 -1.69637 0
M  V30 4725 C 455.961 3.1374 -2.93028 0
M  V30 4726 C 455.194 4.43688 -2.96609 0
M  V30 4727 O 455.417 5.30913 -2.08538 0
M  V30 4728 O 454.351 4.59475 -3.88802 0
M  V30 4729 H 458.177 1.5419 -2.61647 0
M  V30 4730 H 455.762 0.701163 -1.31924 0
M  V30 4731 H 457.644 3.83515 -1.74625 0
M  V30 4732 H 456.319 3.14401 -0.770312 0
M  V30 4733 H 455.226 2.31877 -2.93571 0
M  V30 4734 H 456.559 3.06621 -3.85026 0
M  V30 4735 N 458.211 1.37122 0.776871 0
M  V30 4736 C 459.159 1.32549 1.91138 0
M  V30 4737 C 460.153 0.215119 1.68029 0
M  V30 4738 O 461.359 0.382852 1.75881 0
M  V30 4739 H 457.734 0.412952 0.62847 0
M  V30 4740 H 459.705 2.28332 1.92112 0
M  V30 4741 C 458.454 1.14422 3.28333 0
M  V30 4742 H 457.777 1.99115 3.46689 0
M  V30 4743 H 459.217 1.15272 4.0803 0
M  V30 4744 C 457.676 -0.150434 3.36564 0
M  V30 4745 O 458.206 -1.13584 3.85307 0
M  V30 4746 N 456.412 -0.19939 2.89915 0
M  V30 4747 H 455.959 0.603142 2.5044 0
M  V30 4748 H 455.917 -1.06526 2.95803 0
M  V30 4749 N 459.689 -1.00246 1.21608 0
M  V30 4750 C 460.619 -2.10921 1.00172 0
M  V30 4751 C 461.6 -1.69938 -0.0741587 0
M  V30 4752 O 462.785 -1.94009 0.0861753 0
M  V30 4753 C 459.915 -3.42618 0.568355 0
M  V30 4754 C 458.869 -3.97407 1.58909 0
M  V30 4755 C 458.195 -5.25038 1.01187 0
M  V30 4756 C 459.495 -4.2918 2.97661 0
M  V30 4757 H 461.189 -2.29112 1.92739 0
M  V30 4758 H 458.735 -1.10101 0.928102 0
M  V30 4759 H 460.688 -4.19444 0.405555 0
M  V30 4760 H 459.412 -3.24227 -0.392961 0
M  V30 4761 H 458.071 -3.22703 1.73949 0
M  V30 4762 H 457.719 -5.02982 0.0421965 0
M  V30 4763 H 457.419 -5.62661 1.6937 0
M  V30 4764 H 458.943 -6.04507 0.860448 0
M  V30 4765 H 460.357 -4.96839 2.86049 0
M  V30 4766 H 458.754 -4.77952 3.6288 0
M  V30 4767 H 459.824 -3.3735 3.48315 0
M  V30 4768 N 461.167 -1.02423 -1.1978 0
M  V30 4769 C 462.392 -0.7373 -1.93852 0
M  V30 4770 C 462.817 0.696923 -1.74713 0
M  V30 4771 O 462.175 1.48056 -1.04638 0
M  V30 4772 C 462.223 -1.08783 -3.438 0
M  V30 4773 O 461.327 -0.20383 -4.11896 0
M  V30 4774 H 460.668 -0.27284 -0.605355 0
M  V30 4775 H 463.198 -1.36966 -1.51992 0
M  V30 4776 H 463.208 -1.04276 -3.9445 0
M  V30 4777 H 461.883 -2.13274 -3.57053 0
M  V30 4778 H 460.46 -0.307091 -3.71633 0
M  V30 4779 N 462.645 1.35699 -0.801477 0
M  V30 4780 C 463.893 1.9852 -0.37871 0
M  V30 4781 C 464.214 1.63907 1.05638 0
M  V30 4782 O 463.484 0.919013 1.73006 0
M  V30 4783 H 462.064 0.734322 -0.137042 0
M  V30 4784 H 464.726 1.65697 -1.02619 0
M  V30 4785 H 463.822 3.08382 -0.480284 0
M  V30 4786 N 464.123 0.554532 1.47522 0
M  V30 4787 C 465.4 -0.0360704 1.95567 0
M  V30 4788 C 465.78 -1.48828 1.49711 0
M  V30 4789 O 465.128 -2.16366 0.734717 0
M  V30 4790 C 465.338 0.106631 3.48837 0
M  V30 4791 C 466.686 -0.0400899 4.24581 0
M  V30 4792 O 467.71 0.0340453 3.56184 0
M  V30 4793 O 466.569 -0.199111 5.46137 0
M  V30 4794 H 463.663 -0.0656294 0.824392 0
M  V30 4795 H 466.209 0.620867 1.57935 0
M  V30 4796 H 464.981 1.11727 3.7501 0
M  V30 4797 H 464.604 -0.58804 3.93227 0
M  V30 4798 N 465.601 -1.54893 0.290851 0
M  V30 4799 C 466.847 -2.00949 -0.314784 0
M  V30 4800 C 467.202 -1.1757 -1.52299 0
M  V30 4801 O 466.495 -0.241558 -1.90071 0
M  V30 4802 C 466.689 -3.49815 -0.732397 0
M  V30 4803 C 466.518 -4.47603 0.433799 0
M  V30 4804 C 465.288 -4.96806 0.922599 0
M  V30 4805 C 467.486 -4.98233 1.27546 0
M  V30 4806 N 465.468 -5.78426 2.05662 0
M  V30 4807 C 466.839 -5.77455 2.25712 0
M  V30 4808 C 468.894 -4.80439 1.307 0
M  V30 4809 C 467.597 -6.40778 3.26796 0
M  V30 4810 C 469.623 -5.44574 2.30637 0
M  V30 4811 C 468.985 -6.23619 3.27533 0
M  V30 4812 H 465.084 -0.777905 -0.0799257 0
M  V30 4813 H 467.668 -1.9015 0.418458 0
M  V30 4814 H 465.839 -3.60925 -1.43483 0
M  V30 4815 H 467.571 -3.82681 -1.31671 0
M  V30 4816 H 464.326 -4.70961 0.49926 0
M  V30 4817 H 464.75 -6.23923 2.62772 0
M  V30 4818 H 469.392 -4.18918 0.571622 0
M  V30 4819 H 467.11 -7.01439 4.01258 0
M  V30 4820 H 470.696 -5.32739 2.33838 0
M  V30 4821 H 469.576 -6.72367 4.03599 0
M  V30 4822 N 467.08 -0.0183926 -1.57589 0
M  V30 4823 C 468.328 0.661253 -1.90976 0
M  V30 4824 C 468.649 1.73281 -0.894353 0
M  V30 4825 O 467.919 1.9579 0.0656788 0
M  V30 4826 H 466.499 0.247233 -0.704901 0
M  V30 4827 H 469.161 -0.0636639 -1.94796 0
M  V30 4828 H 468.257 1.12083 -2.9128 0
M  V30 4829 N 468.558 1.5553 0.254621 0
M  V30 4830 C 469.505 1.89666 1.31512 0
M  V30 4831 C 470.475 0.750057 1.482 0
M  V30 4832 O 471.66 1.00301 1.62309 0
M  V30 4833 C 468.8 2.19009 2.667 0
M  V30 4834 C 467.913 3.46435 2.58083 0
M  V30 4835 C 467.048 3.65386 3.85573 0
M  V30 4836 C 466.087 4.8644 3.71541 0
M  V30 4837 N 465.224 5.01952 4.90906 0
M  V30 4838 H 470.064 2.80109 1.017 0
M  V30 4839 H 467.601 1.38666 0.490938 0
M  V30 4840 H 469.559 2.34025 3.45381 0
M  V30 4841 H 468.189 1.31779 2.94676 0
M  V30 4842 H 467.241 3.39792 1.71013 0
M  V30 4843 H 468.553 4.35258 2.43622 0
M  V30 4844 H 467.707 3.80319 4.72697 0
M  V30 4845 H 466.446 2.74781 4.02922 0
M  V30 4846 H 465.451 4.71491 2.82801 0
M  V30 4847 H 466.676 5.78497 3.55694 0
M  V30 4848 H 464.622 4.14283 5.08631 0
M  V30 4849 H 464.539 5.84851 4.79046 0
M  V30 4850 H 465.807 5.21289 5.7955 0
M  V30 4851 N 470.036 -0.519951 1.48776 0
M  V30 4852 C 471.284 -1.2727 1.56993 0
M  V30 4853 C 471.605 -1.9339 0.25004 0
M  V30 4854 O 470.875 -1.81822 -0.729216 0
M  V30 4855 H 469.455 -0.472732 0.578389 0
M  V30 4856 H 472.117 -0.604234 1.85297 0
M  V30 4857 H 471.213 -2.04669 2.3562 0
M  V30 4858 N 471.514 -1.37532 -0.769588 0
M  V30 4859 C 472.462 -1.33561 -1.90432 0
M  V30 4860 C 473.456 -0.224027 -1.67912 0
M  V30 4861 O 474.662 -0.392174 -1.75676 0
M  V30 4862 H 471.037 -0.416279 -0.626271 0
M  V30 4863 H 473.008 -2.29348 -1.90899 0
M  V30 4864 C 471.757 -1.16162 -3.27722 0
M  V30 4865 H 471.08 -2.00951 -3.45628 0
M  V30 4866 H 472.52 -1.17434 -4.07413 0
M  V30 4867 C 470.979 0.132583 -3.36639 0
M  V30 4868 O 471.509 1.11539 -3.85904 0
M  V30 4869 N 469.715 0.184013 -2.90017 0
M  V30 4870 H 469.262 -0.616415 -2.50116 0
M  V30 4871 H 469.22 1.04956 -2.96364 0
M  V30 4872 N 472.992 0.995999 -1.22138 0
M  V30 4873 C 474.222 1.76809 -1.06874 0
M  V30 4874 C 474.63 1.85265 0.383866 0
M  V30 4875 O 473.973 1.31969 1.27789 0
M  V30 4876 C 474.035 3.2186 -1.60144 0
M  V30 4877 C 473.699 3.36958 -3.0872 0
M  V30 4878 C 474.696 3.2452 -4.0618 0
M  V30 4879 C 472.381 3.62109 -3.48112 0
M  V30 4880 C 474.375 3.37013 -5.41019 0
M  V30 4881 C 472.062 3.74243 -4.831 0
M  V30 4882 C 473.06 3.61702 -5.79362 0
M  V30 4883 O 472.748 3.73436 -7.119 0
M  V30 4884 H 472.48 0.562207 -0.375365 0
M  V30 4885 H 475.034 1.26113 -1.62125 0
M  V30 4886 H 473.264 3.73734 -0.992981 0
M  V30 4887 H 474.953 3.80775 -1.40589 0
M  V30 4888 H 475.719 3.05004 -3.77091 0
M  V30 4889 H 471.598 3.70949 -2.73712 0
M  V30 4890 H 475.142 3.27141 -6.16137 0
M  V30 4891 H 471.039 3.93266 -5.11872 0
M  V30 4892 H 471.807 3.90328 -7.19435 0
M  V30 4893 N 474.47 1.03057 1.19235 0
M  V30 4894 C 475.716 0.729098 1.89241 0
M  V30 4895 C 476.049 -0.740573 1.79525 0
M  V30 4896 O 475.324 -1.53946 1.18874 0
M  V30 4897 C 475.607 1.18304 3.40112 0
M  V30 4898 C 475.46 2.71406 3.5869 0
M  V30 4899 C 476.779 0.765161 4.33397 0
M  V30 4900 H 473.898 0.266338 0.687192 0
M  V30 4901 H 476.54 1.28079 1.40341 0
M  V30 4902 H 474.69 0.713672 3.81889 0
M  V30 4903 H 476.362 3.26303 3.26074 0
M  V30 4904 H 474.605 3.11717 3.01687 0
M  V30 4905 H 475.276 2.98225 4.64506 0
M  V30 4906 H 477.752 1.16889 3.99345 0
M  V30 4907 H 476.628 1.11065 5.37546 0
M  V30 4908 H 476.889 -0.332372 4.40849 0
M  V30 4909 N 475.948 -1.35272 0.808662 0
M  V30 4910 C 477.197 -1.97963 0.386483 0
M  V30 4911 C 477.51 -1.64866 -1.05255 0
M  V30 4912 O 478.716 -2.20937 -1.57794 0
M  V30 4913 C 477.172 -3.54162 0.640096 0
M  V30 4914 C 476.78 -3.96166 2.0918 0
M  V30 4915 C 478.524 -4.23553 0.283376 0
M  V30 4916 C 476.431 -5.4522 2.29106 0
M  V30 4917 H 475.361 -0.740742 0.140774 0
M  V30 4918 H 478.012 -1.5431 0.993012 0
M  V30 4919 H 476.394 -3.95983 -0.0364117 0
M  V30 4920 H 477.568 -3.65491 2.80629 0
M  V30 4921 H 475.883 -3.3967 2.40859 0
M  V30 4922 H 478.48 -5.33124 0.410273 0
M  V30 4923 H 478.823 -4.09105 -0.770659 0
M  V30 4924 H 479.356 -3.8716 0.913884 0
M  V30 4925 H 476.095 -5.64638 3.32962 0
M  V30 4926 H 475.615 -5.77457 1.62184 0
M  V30 4927 H 477.294 -6.1171 2.1076 0
M  V30 4928 N 477.426 -0.562348 -1.47226 0
M  V30 4929 C 478.674 -0.0401371 -2.0206 0
M  V30 4930 C 478.995 1.3165 -1.43852 0
M  V30 4931 O 478.265 1.85976 -0.615599 0
M  V30 4932 H 476.845 -0.0118479 -0.746906 0
M  V30 4933 H 479.507 -0.73352 -1.8057 0
M  V30 4934 H 478.603 0.0441254 -3.12069 0
M  V30 4935 N 478.904 1.54736 -0.299062 0
M  V30 4936 C 480.152 1.99706 0.31017 0
M  V30 4937 C 480.473 1.18896 1.54559 0
M  V30 4938 O 479.743 0.284445 1.93824 0
M  V30 4939 H 478.323 0.737686 0.117596 0
M  V30 4940 H 480.985 1.9054 -0.409943 0
M  V30 4941 H 480.081 3.06596 0.58355 0
M  V30 4942 N 480.382 0.0267497 1.57577 0
M  V30 4943 C 481.798 -0.32962 1.56159 0
M  V30 4944 C 481.998 -1.73059 1.03213 0
M  V30 4945 O 481.054 -2.43233 0.677804 0
M  V30 4946 C 482.367 -0.18039 3.00158 0
M  V30 4947 C 483.915 -0.253334 3.11973 0
M  V30 4948 C 484.39 -0.132921 4.57807 0
M  V30 4949 N 485.881 -0.189979 4.6281 0
M  V30 4950 C 486.616 -0.120554 5.73273 0
M  V30 4951 N 486.112 -0.000180315 6.928 0
M  V30 4952 N 487.905 -0.174369 5.61829 0
M  V30 4953 H 480.056 0.942896 1.90324 0
M  V30 4954 H 482.319 0.3639 0.875375 0
M  V30 4955 H 482.025 0.784576 3.42837 0
M  V30 4956 H 481.899 -0.951565 3.65 0
M  V30 4957 H 484.286 -1.20876 2.69208 0
M  V30 4958 H 484.367 0.548177 2.49857 0
M  V30 4959 H 484.011 0.819073 5.01252 0
M  V30 4960 H 483.941 -0.953264 5.179 0
M  V30 4961 H 486.432 -0.283257 3.76837 0
M  V30 4962 H 486.745 0.0461666 7.72786 0
M  V30 4963 H 485.09 0.034569 6.94991 0
M  V30 4964 H 488.281 -0.266794 4.67339 0
M  V30 4965 H 488.454 -0.116802 6.47895 0
M  V30 4966 N 481.861 -1.55662 -0.24637 0
M  V30 4967 C 483.089 -1.81575 -0.991876 0
M  V30 4968 C 483.504 -0.602545 -1.78927 0
M  V30 4969 O 482.861 0.428795 -1.77391 0
M  V30 4970 C 482.912 -3.05711 -1.92933 0
M  V30 4971 O 482.633 -4.22348 -1.1642 0
M  V30 4972 C 484.134 -3.44428 -2.79078 0
M  V30 4973 H 481.354 -0.604209 -0.291844 0
M  V30 4974 H 483.898 -2.02722 -0.269095 0
M  V30 4975 H 482.053 -2.86612 -2.60638 0
M  V30 4976 H 482.467 -4.92706 -1.79835 0
M  V30 4977 H 483.941 -4.34388 -3.40603 0
M  V30 4978 H 484.418 -2.65037 -3.50217 0
M  V30 4979 H 485.024 -3.65879 -2.16824 0
M  V30 4980 N 483.339 0.512053 -1.4905 0
M  V30 4981 C 484.564 1.2959 -1.6193 0
M  V30 4982 C 484.989 1.85906 -0.286454 0
M  V30 4983 O 484.347 1.65312 0.744426 0
M  V30 4984 C 484.395 2.40987 -2.68249 0
M  V30 4985 O 483.499 3.44531 -2.26654 0
M  V30 4986 H 482.84 0.383053 -0.542371 0
M  V30 4987 H 485.37 0.614231 -1.95162 0
M  V30 4988 H 485.38 2.86913 -2.90078 0
M  V30 4989 H 484.055 1.99361 -3.65004 0
M  V30 4990 H 482.632 3.046 -2.15112 0
M  V30 4991 N 484.817 1.37938 0.762283 0
M  V30 4992 C 486.047 1.36685 1.54922 0
M  V30 4993 C 486.455 -0.0474099 1.89141 0
M  V30 4994 O 485.798 -1.02213 1.52638 0
M  V30 4995 C 485.86 2.14963 2.88152 0
M  V30 4996 C 485.524 3.6385 2.76518 0
M  V30 4997 C 486.521 4.57531 2.46904 0
M  V30 4998 C 484.206 4.07095 2.94243 0
M  V30 4999 C 486.2 5.92436 2.35156 0
M  V30 5000 C 483.887 5.42083 2.82116 0
M  V30 5001 C 484.885 6.34567 2.52614 0
M  V30 5002 O 484.573 7.67073 2.40529 0
M  V30 5003 H 484.305 0.469586 0.486276 0
M  V30 5004 H 486.859 1.82012 0.951876 0
M  V30 5005 H 485.089 1.6434 3.50042 0
M  V30 5006 H 486.778 2.06224 3.49609 0
M  V30 5007 H 487.544 4.25428 2.32886 0
M  V30 5008 H 483.423 3.35462 3.16206 0
M  V30 5009 H 486.967 6.64591 2.12049 0
M  V30 5010 H 482.864 5.73785 2.95704 0
M  V30 5011 H 483.632 7.77499 2.55807 0
M  V30 5012 N 486.295 -0.989507 1.22664 0
M  V30 5013 C 487.543 -1.72612 1.05117 0
M  V30 5014 C 487.864 -1.90552 -0.414131 0
M  V30 5015 O 487.134 -1.4676 -1.29762 0
M  V30 5016 H 485.714 -0.639555 0.385977 0
M  V30 5017 H 488.376 -1.19158 1.54232 0
M  V30 5018 H 487.472 -2.71926 1.53175 0
M  V30 5019 N 487.773 -1.03688 -1.18687 0
M  V30 5020 C 488.998 -0.757819 -1.93059 0
M  V30 5021 C 489.423 0.678353 -1.75442 0
M  V30 5022 O 488.781 1.46938 -1.06203 0
M  V30 5023 C 488.829 -1.12423 -3.42627 0
M  V30 5024 O 487.933 -0.247505 -4.11657 0
M  V30 5025 H 487.274 -0.279245 -0.602427 0
M  V30 5026 H 489.804 -1.3857 -1.5053 0
M  V30 5027 H 489.814 -1.08454 -3.93322 0
M  V30 5028 H 488.489 -2.17049 -3.54771 0
M  V30 5029 H 487.066 -0.34649 -3.71287 0
M  V30 5030 N 489.251 1.34841 -0.815825 0
M  V30 5031 C 490.497 1.98793 -0.401129 0
M  V30 5032 C 490.83 1.64548 1.03139 0
M  V30 5033 O 490.105 0.913487 1.71714 0
M  V30 5034 C 490.388 3.55143 -0.595409 0
M  V30 5035 C 490.241 3.99155 -2.07352 0
M  V30 5036 C 491.56 4.40092 -0.0268823 0
M  V30 5037 H 488.679 0.722146 -0.14722 0
M  V30 5038 H 491.321 1.59847 -1.02707 0
M  V30 5039 H 489.471 3.8845 -0.0625779 0
M  V30 5040 H 491.143 3.76216 -2.66945 0
M  V30 5041 H 489.386 3.49726 -2.56659 0
M  V30 5042 H 490.057 5.07971 -2.1603 0
M  V30 5043 H 492.533 4.13298 -0.482042 0
M  V30 5044 H 491.409 5.48562 -0.19267 0
M  V30 5045 H 491.67 4.29016 1.06759 0
M  V30 5046 N 490.729 0.570148 1.46925 0
M  V30 5047 C 491.954 0.0542592 2.07329 0
M  V30 5048 C 492.379 -1.23582 1.41806 0
M  V30 5049 O 491.737 -1.74341 0.497479 0
M  V30 5050 C 491.785 -0.111175 3.60429 0
M  V30 5051 O 490.889 -1.17071 3.95434 0
M  V30 5052 H 490.23 0.0571425 0.661537 0
M  V30 5053 H 492.76 0.789516 1.88753 0
M  V30 5054 H 492.77 -0.321315 4.06733 0
M  V30 5055 H 491.445 0.831012 4.07513 0
M  V30 5056 H 490.022 -0.940029 3.60857 0
M  V30 5057 N 492.207 -1.54576 0.307264 0
M  V30 5058 C 493.432 -2.05139 -0.305379 0
M  V30 5059 C 493.857 -1.18278 -1.46259 0
M  V30 5060 O 493.215 -0.188243 -1.8032 0
M  V30 5061 C 493.263 -3.53066 -0.733283 0
M  V30 5062 O 492.367 -3.69206 -1.83741 0
M  V30 5063 H 491.708 -0.661444 -0.0582105 0
M  V30 5064 H 494.238 -1.99569 0.450931 0
M  V30 5065 H 494.248 -3.95034 -1.02039 0
M  V30 5066 H 492.923 -4.15746 0.113198 0
M  V30 5067 H 491.5 -3.39143 -1.55037 0
M  V30 5068 N 493.685 -0.035106 -1.57561 0
M  V30 5069 C 494.648 0.929819 -2.09492 0
M  V30 5070 C 495.648 1.25026 -1.01119 0
M  V30 5071 O 496.838 1.18961 -1.27255 0
M  V30 5072 C 493.97 2.24457 -2.56577 0
M  V30 5073 H 495.163 0.479935 -2.96035 0
M  V30 5074 H 492.716 0.213033 -1.54841 0
M  V30 5075 H 493.451 2.74061 -1.73382 0
M  V30 5076 H 493.236 2.02508 -3.35757 0
M  V30 5077 H 494.726 2.93607 -2.96959 0
M  V30 5078 N 495.163 1.55791 0.238111 0
M  V30 5079 C 496.095 1.87513 1.31802 0
M  V30 5080 C 497.108 0.762053 1.43863 0
M  V30 5081 O 498.297 1.04024 1.45056 0
M  V30 5082 C 495.397 2.05402 2.69561 0
M  V30 5083 C 494.57 3.3632 2.79656 0
M  V30 5084 C 493.629 3.43844 3.98319 0
M  V30 5085 O 492.655 4.16994 3.87433 0
M  V30 5086 N 493.857 2.73777 5.11885 0
M  V30 5087 H 496.622 2.80734 1.04922 0
M  V30 5088 H 494.183 1.56135 0.428196 0
M  V30 5089 H 496.175 2.07769 3.47296 0
M  V30 5090 H 494.745 1.18884 2.89111 0
M  V30 5091 H 493.965 3.46195 1.88528 0
M  V30 5092 H 495.253 4.22594 2.83358 0
M  V30 5093 H 494.651 2.14094 5.23622 0
M  V30 5094 H 493.208 2.81825 5.87723 0
M  V30 5095 N 496.642 -0.504142 1.49319 0
M  V30 5096 C 497.889 -1.25846 1.58647 0
M  V30 5097 C 498.217 -1.92592 0.27177 0
M  V30 5098 O 497.472 -1.81167 -0.74007 0
M  V30 5099 C 497.771 -2.35021 2.69258 0
M  V30 5100 C 497.437 -1.85755 4.1086 0
M  V30 5101 C 496.099 -1.72038 4.49395 0
M  V30 5102 C 498.451 -1.48844 4.99495 0
M  V30 5103 C 495.779 -1.19783 5.74342 0
M  V30 5104 C 498.131 -0.980422 6.24956 0
M  V30 5105 C 496.795 -0.829622 6.62324 0
M  V30 5106 H 496.065 -0.460505 0.580531 0
M  V30 5107 H 498.712 -0.559716 1.83138 0
M  V30 5108 H 497.017 -3.10672 2.38726 0
M  V30 5109 H 498.714 -2.93083 2.73685 0
M  V30 5110 H 495.304 -1.9739 3.80441 0
M  V30 5111 H 499.488 -1.5829 4.70381 0
M  V30 5112 H 494.744 -1.06817 6.01997 0
M  V30 5113 H 498.918 -0.685608 6.93017 0
M  V30 5114 H 496.545 -0.42253 7.59025 0
M  V30 5115 N 498.12 -1.38341 -0.754957 0
M  V30 5116 C 499.05 -1.38176 -1.88227 0
M  V30 5117 C 500.031 -0.247873 -1.68284 0
M  V30 5118 O 501.216 -0.45075 -1.88896 0
M  V30 5119 C 498.346 -1.20471 -3.25736 0
M  V30 5120 C 497.3 -2.3105 -3.60278 0
M  V30 5121 C 496.626 -1.98452 -4.96509 0
M  V30 5122 C 497.926 -3.73305 -3.65295 0
M  V30 5123 H 499.62 -2.32512 -1.88622 0
M  V30 5124 H 497.166 -1.1192 -0.906082 0
M  V30 5125 H 499.119 -1.18982 -4.04254 0
M  V30 5126 H 497.843 -0.225965 -3.25817 0
M  V30 5127 H 496.502 -2.31723 -2.84078 0
M  V30 5128 H 496.15 -0.990641 -4.93148 0
M  V30 5129 H 495.85 -2.7251 -5.20588 0
M  V30 5130 H 497.374 -1.98578 -5.77407 0
M  V30 5131 H 498.788 -3.7467 -4.3393 0
M  V30 5132 H 497.185 -4.46557 -4.00883 0
M  V30 5133 H 498.255 -4.05719 -2.65556 0
M  V30 5134 N 499.598 0.982988 -1.23187 0
M  V30 5135 C 501.014 1.2487 -0.993967 0
M  V30 5136 C 501.214 1.99155 0.306498 0
M  V30 5137 O 500.27 2.30688 1.0266 0
M  V30 5138 C 501.583 2.05078 -2.19917 0
M  V30 5139 C 503.131 2.18227 -2.2438 0
M  V30 5140 C 503.606 3.01825 -3.44479 0
M  V30 5141 N 505.097 3.09411 -3.44702 0
M  V30 5142 C 505.832 3.74412 -4.34285 0
M  V30 5143 N 505.328 4.41259 -5.341 0
M  V30 5144 N 507.121 3.71273 -4.22035 0
M  V30 5145 H 499.272 0.485253 -2.06783 0
M  V30 5146 H 501.535 0.276979 -0.906635 0
M  V30 5147 H 501.241 1.57867 -3.14279 0
M  V30 5148 H 501.115 3.05829 -2.2079 0
M  V30 5149 H 503.502 2.64648 -1.30559 0
M  V30 5150 H 503.583 1.16873 -2.2754 0
M  V30 5151 H 503.227 2.56102 -4.38605 0
M  V30 5152 H 503.157 4.03342 -3.38559 0
M  V30 5153 H 505.648 2.61845 -2.7248 0
M  V30 5154 H 505.961 4.88629 -5.98717 0
M  V30 5155 H 504.306 4.39975 -5.38002 0
M  V30 5156 H 507.497 3.18217 -3.43301 0
M  V30 5157 H 507.67 4.21649 -4.92053 0
M  V30 5158 N 501.076 1.04316 1.18135 0
M  V30 5159 C 502.024 0.630175 2.23901 0
M  V30 5160 C 503.018 -0.344254 1.65865 0
M  V30 5161 O 504.224 -0.211273 1.78756 0
M  V30 5162 H 500.599 0.185578 0.728742 0
M  V30 5163 H 502.57 1.53253 2.56039 0
M  V30 5164 C 501.319 0.011666 3.47698 0
M  V30 5165 H 500.642 0.752526 3.92654 0
M  V30 5166 H 502.082 -0.240046 4.2332 0
M  V30 5167 C 500.541 -1.23913 3.13285 0
M  V30 5168 O 501.071 -2.32959 3.27251 0
M  V30 5169 N 499.277 -1.13338 2.67587 0
M  V30 5170 H 498.824 -0.246006 2.56423 0
M  V30 5171 H 498.782 -1.97116 2.44934 0
M  V30 5172 N 502.554 -1.34406 0.822964 0
M  V30 5173 C 503.502 -2.31428 0.233165 0
M  V30 5174 C 504.496 -1.57404 -0.626118 0
M  V30 5175 O 505.702 -1.72402 -0.517453 0
M  V30 5176 H 502.077 -0.749863 0.0566557 0
M  V30 5177 H 504.048 -2.78699 1.06628 0
M  V30 5178 C 502.797 -3.42653 -0.590264 0
M  V30 5179 H 502.12 -3.99753 0.0616129 0
M  V30 5180 H 503.56 -4.12778 -0.969054 0
M  V30 5181 C 502.019 -2.87112 -1.76262 0
M  V30 5182 O 502.549 -2.81995 -2.8608 0
M  V30 5183 N 500.755 -2.43934 -1.57938 0
M  V30 5184 H 500.302 -2.48296 -0.686078 0
M  V30 5185 H 500.26 -2.07123 -2.36532 0
M  V30 5186 N 504.032 -0.577932 -1.46621 0
M  V30 5187 C 505.28 -0.061566 -2.02006 0
M  V30 5188 C 505.601 1.30117 -1.4524 0
M  V30 5189 O 504.871 1.85313 -0.63529 0
M  V30 5190 H 503.451 -0.0197692 -0.746738 0
M  V30 5191 H 506.113 -0.752631 -1.79782 0
M  V30 5192 H 505.209 0.0110238 -3.12098 0
M  V30 5193 N 505.51 1.54411 -0.315457 0
M  V30 5194 C 506.758 2.00023 0.288971 0
M  V30 5195 C 507.079 1.20529 1.5329 0
M  V30 5196 O 506.349 0.304986 1.93511 0
M  V30 5197 H 504.929 0.738891 0.109766 0
M  V30 5198 H 507.591 1.90094 -0.430129 0
M  V30 5199 H 506.687 3.07198 0.550999 0
M  V30 5200 N 506.988 0.0434614 1.5754 0
M  V30 5201 C 508.235 -0.632035 1.92384 0
M  V30 5202 C 508.563 -1.71304 0.921157 0
M  V30 5203 O 507.818 -1.95583 -0.067744 0
M  V30 5204 C 508.117 -1.2738 3.3393 0
M  V30 5205 C 507.783 -0.321757 4.49751 0
M  V30 5206 C 506.445 -0.0597611 4.81163 0
M  V30 5207 C 508.797 0.331158 5.20147 0
M  V30 5208 C 506.125 0.862715 5.80322 0
M  V30 5209 C 508.477 1.24178 6.20292 0
M  V30 5210 C 507.141 1.51252 6.50138 0
M  V30 5211 H 506.411 -0.231278 0.703983 0
M  V30 5212 H 509.058 0.108294 1.91194 0
M  V30 5213 H 507.363 -2.08921 3.3145 0
M  V30 5214 H 509.06 -1.80326 3.58167 0
M  V30 5215 H 505.65 -0.53614 4.25233 0
M  V30 5216 H 509.834 0.141826 4.96097 0
M  V30 5217 H 505.09 1.08003 6.01785 0
M  V30 5218 H 509.264 1.75381 6.73954 0
M  V30 5219 H 506.891 2.22897 7.26788 0
M  V30 5220 N 508.466 -1.55915 -0.229846 0
M  V30 5221 C 509.376 -1.94891 -1.30593 0
M  V30 5222 C 510.392 -0.851604 -1.51736 0
M  V30 5223 O 511.568 -1.15447 -1.65027 0
M  V30 5224 C 508.633 -2.25052 -2.63728 0
M  V30 5225 C 507.694 -3.48306 -2.5096 0
M  V30 5226 C 506.927 -3.77019 -3.77747 0
M  V30 5227 O 507.15 -3.07534 -4.80395 0
M  V30 5228 O 506.084 -4.70523 -3.75356 0
M  V30 5229 H 509.91 -2.86581 -1.00525 0
M  V30 5230 H 507.495 -1.43017 -0.432025 0
M  V30 5231 H 509.377 -2.45682 -3.42372 0
M  V30 5232 H 508.052 -1.36538 -2.93495 0
M  V30 5233 H 506.959 -3.32964 -1.70546 0
M  V30 5234 H 508.292 -4.37177 -2.26136 0
M  V30 5235 N 509.944 0.496216 -1.49584 0
M  V30 5236 C 511.36 0.827814 -1.36453 0
M  V30 5237 C 511.56 1.97464 -0.401285 0
M  V30 5238 O 510.616 2.51958 0.165296 0
M  V30 5239 C 511.929 1.16352 -2.77277 0
M  V30 5240 C 513.477 1.27145 -2.86013 0
M  V30 5241 C 513.952 1.64042 -4.27615 0
M  V30 5242 N 515.443 1.71082 -4.30448 0
M  V30 5243 C 516.178 2.01085 -5.36984 0
M  V30 5244 N 515.674 2.2928 -6.5376 0
M  V30 5245 N 517.467 2.02376 -5.24405 0
M  V30 5246 H 509.618 -0.259947 -2.10803 0
M  V30 5247 H 511.881 -0.0537163 -0.946477 0
M  V30 5248 H 511.587 0.394153 -3.49484 0
M  V30 5249 H 511.461 2.10582 -3.12946 0
M  V30 5250 H 513.848 2.03152 -2.1404 0
M  V30 5251 H 513.929 0.309542 -2.5392 0
M  V30 5252 H 513.573 0.88583 -5.00115 0
M  V30 5253 H 513.503 2.6134 -4.57175 0
M  V30 5254 H 515.994 1.51434 -3.46232 0
M  V30 5255 H 516.307 2.51376 -7.30774 0
M  V30 5256 H 514.652 2.26726 -6.56978 0
M  V30 5257 H 517.843 1.79829 -4.32179 0
M  V30 5258 H 518.016 2.25425 -6.07526 0
M  V30 5259 N 511.423 1.38739 0.74761 0
M  V30 5260 C 512.7 1.25791 1.49786 0
M  V30 5261 C 513.08 -0.138075 2.10648 0
M  V30 5262 O 512.428 -1.14815 1.9756 0
M  V30 5263 C 512.638 2.37265 2.55942 0
M  V30 5264 C 513.986 2.75978 3.22679 0
M  V30 5265 O 515.01 2.36621 2.6625 0
M  V30 5266 O 513.869 3.43867 4.24756 0
M  V30 5267 H 510.963 0.492251 0.664543 0
M  V30 5268 H 513.509 1.50582 0.782511 0
M  V30 5269 H 512.281 3.30644 2.0926 0
M  V30 5270 H 511.904 2.14071 3.35051 0
M  V30 5271 N 512.901 -0.976442 1.23707 0
M  V30 5272 C 514.149 -1.71487 1.06942 0
M  V30 5273 C 514.47 -1.9098 -0.393897 0
M  V30 5274 O 513.74 -1.48128 -1.28198 0
M  V30 5275 H 512.32 -0.635425 0.392739 0
M  V30 5276 H 514.982 -1.17515 1.55487 0
M  V30 5277 H 514.078 -2.70286 1.56051 0
M  V30 5278 N 514.379 -1.04941 -1.1758 0
M  V30 5279 C 515.627 -0.756492 -1.87408 0
M  V30 5280 C 515.948 0.718478 -1.81281 0
M  V30 5281 O 515.218 1.519 -1.23706 0
M  V30 5282 H 513.798 -0.276841 -0.693807 0
M  V30 5283 H 516.46 -1.32803 -1.42652 0
M  V30 5284 H 515.556 -1.06918 -2.93215 0
M  V30 5285 N 515.857 1.33968 -0.830081 0
M  V30 5286 C 517.103 1.98357 -0.422191 0
M  V30 5287 C 517.436 1.65633 1.01387 0
M  V30 5288 O 516.711 0.931648 1.70735 0
M  V30 5289 C 516.994 3.54492 -0.633043 0
M  V30 5290 C 516.847 3.96934 -2.11574 0
M  V30 5291 C 518.166 4.40039 -0.0735584 0
M  V30 5292 H 515.285 0.720544 -0.154871 0
M  V30 5293 H 517.927 1.58749 -1.04397 0
M  V30 5294 H 516.077 3.88361 -0.103775 0
M  V30 5295 H 517.749 3.73363 -2.7092 0
M  V30 5296 H 515.992 3.46984 -2.60354 0
M  V30 5297 H 516.663 5.05651 -2.21406 0
M  V30 5298 H 519.139 4.12764 -0.52585 0
M  V30 5299 H 518.015 5.48327 -0.250841 0
M  V30 5300 H 518.276 4.30124 1.02202 0
M  V30 5301 N 517.335 0.585699 1.46312 0
M  V30 5302 C 518.584 0.0701192 2.01578 0
M  V30 5303 C 518.897 -1.29889 1.46247 0
M  V30 5304 O 520.103 -1.90598 1.93351 0
M  V30 5305 C 518.559 0.0747499 3.59822 0
M  V30 5306 C 518.167 1.44226 4.24149 0
M  V30 5307 C 519.911 -0.38673 4.22735 0
M  V30 5308 C 517.818 1.40446 5.74481 0
M  V30 5309 H 516.748 0.0224441 0.753666 0
M  V30 5310 H 519.399 0.737789 1.68015 0
M  V30 5311 H 517.781 -0.659144 3.90476 0
M  V30 5312 H 518.955 2.19612 4.05101 0
M  V30 5313 H 517.27 1.84401 3.73343 0
M  V30 5314 H 519.867 -0.433853 5.32937 0
M  V30 5315 H 520.21 -1.40489 3.91878 0
M  V30 5316 H 520.743 0.293195 3.96718 0
M  V30 5317 H 517.482 2.39952 6.10003 0
M  V30 5318 H 517.002 0.692845 5.95785 0
M  V30 5319 H 518.681 1.11865 6.37256 0
M  V30 5320 N 518.813 -1.54241 0.323641 0
M  V30 5321 C 520.061 -2.00174 -0.278359 0
M  V30 5322 C 520.382 -1.2134 -1.52648 0
M  V30 5323 O 519.652 -0.315244 -1.93347 0
M  V30 5324 H 518.232 -0.739463 -0.105845 0
M  V30 5325 H 520.894 -1.89864 0.440204 0
M  V30 5326 H 519.99 -3.07486 -0.5347 0
M  V30 5327 N 520.291 -0.0518155 -1.57515 0
M  V30 5328 C 521.538 0.621823 -1.92716 0
M  V30 5329 C 521.866 1.70813 -0.930229 0
M  V30 5330 O 521.121 1.95616 0.0573708 0
M  V30 5331 C 521.42 1.25607 -3.34601 0
M  V30 5332 C 521.086 0.297901 -4.49915 0
M  V30 5333 C 519.748 0.034243 -4.81188 0
M  V30 5334 C 522.1 -0.358738 -5.19964 0
M  V30 5335 C 519.428 -0.893479 -5.79857 0
M  V30 5336 C 521.78 -1.27466 -6.19625 0
M  V30 5337 C 520.444 -1.54698 -6.49326 0
M  V30 5338 H 519.714 0.227541 -0.705199 0
M  V30 5339 H 522.361 -0.118432 -1.91133 0
M  V30 5340 H 520.666 2.07161 -3.32553 0
M  V30 5341 H 522.363 1.78424 -3.59118 0
M  V30 5342 H 518.953 0.513581 -4.25512 0
M  V30 5343 H 523.137 -0.168133 -4.96015 0
M  V30 5344 H 518.393 -1.11193 -6.01204 0
M  V30 5345 H 522.567 -1.78953 -6.73015 0
M  V30 5346 H 520.194 -2.26748 -7.25596 0
M  V30 5347 N 521.769 1.56035 0.221574 0
M  V30 5348 C 522.997 1.8313 0.962864 0
M  V30 5349 C 523.412 0.630934 1.77946 0
M  V30 5350 O 522.769 -0.400519 1.78051 0
M  V30 5351 C 522.82 3.08742 1.88045 0
M  V30 5352 O 522.541 4.24147 1.09686 0
M  V30 5353 C 524.042 3.48824 2.73563 0
M  V30 5354 H 521.262 0.608775 0.282194 0
M  V30 5355 H 523.806 2.03124 0.23681 0
M  V30 5356 H 521.961 2.90723 2.56045 0
M  V30 5357 H 522.375 4.95505 1.71974 0
M  V30 5358 H 523.849 4.39752 3.3365 0
M  V30 5359 H 524.326 2.70575 3.45956 0
M  V30 5360 H 524.932 3.69282 2.10976 0
M  V30 5361 N 523.247 -0.488276 1.49845 0
M  V30 5362 C 524.472 -1.26997 1.63971 0
M  V30 5363 C 524.897 -1.85427 0.315994 0
M  V30 5364 O 524.255 -1.66475 -0.718032 0
M  V30 5365 C 524.303 -2.36689 2.72049 0
M  V30 5366 O 523.407 -3.40882 2.32107 0
M  V30 5367 H 522.748 -0.374376 0.548396 0
M  V30 5368 H 525.278 -0.583104 1.96115 0
M  V30 5369 H 525.288 -2.82262 2.94605 0
M  V30 5370 H 523.963 -1.93529 3.68129 0
M  V30 5371 H 522.54 -3.01139 2.19931 0
M  V30 5372 N 524.725 -1.39134 -0.740242 0
M  V30 5373 C 525.955 -1.39132 -1.52728 0
M  V30 5374 C 526.363 0.0173133 -1.89192 0
M  V30 5375 O 525.706 0.997715 -1.54244 0
M  V30 5376 C 525.768 -2.1952 -2.84695 0
M  V30 5377 C 525.432 -3.68203 -2.70695 0
M  V30 5378 C 526.429 -4.61401 -2.39593 0
M  V30 5379 C 524.114 -4.11724 -2.8773 0
M  V30 5380 C 526.108 -5.96102 -2.25701 0
M  V30 5381 C 523.795 -5.46503 -2.73456 0
M  V30 5382 C 524.793 -6.38506 -2.42486 0
M  V30 5383 O 524.481 -7.70803 -2.28295 0
M  V30 5384 H 524.213 -0.477263 -0.478744 0
M  V30 5385 H 526.767 -1.83504 -0.922799 0
M  V30 5386 H 524.997 -1.69888 -3.47383 0
M  V30 5387 H 526.686 -2.1176 -3.46284 0
M  V30 5388 H 527.452 -4.29079 -2.26088 0
M  V30 5389 H 523.331 -3.4045 -3.10829 0
M  V30 5390 H 526.875 -6.6788 -2.0145 0
M  V30 5391 H 522.772 -5.78417 -2.86538 0
M  V30 5392 H 523.54 -7.8147 -2.43405 0
M  V30 5393 N 526.204 0.969867 -1.24223 0
M  V30 5394 C 527.62 1.23809 -1.00716 0
M  V30 5395 C 527.82 1.99469 0.285358 0
M  V30 5396 O 526.876 2.31764 1.00207 0
M  V30 5397 C 528.189 2.02734 -2.2208 0
M  V30 5398 C 529.737 2.15834 -2.26681 0
M  V30 5399 C 530.212 2.98154 -3.47661 0
M  V30 5400 N 531.703 3.05737 -3.47964 0
M  V30 5401 C 532.438 3.69785 -4.38231 0
M  V30 5402 N 531.934 4.35569 -5.3875 0
M  V30 5403 N 533.727 3.66775 -4.25949 0
M  V30 5404 H 525.878 0.463294 -2.07286 0
M  V30 5405 H 528.141 0.267348 -0.909521 0
M  V30 5406 H 527.847 1.54524 -3.15935 0
M  V30 5407 H 527.721 3.0347 -2.24021 0
M  V30 5408 H 530.108 2.63248 -1.33359 0
M  V30 5409 H 530.189 1.14453 -2.28767 0
M  V30 5410 H 529.833 2.51435 -4.41297 0
M  V30 5411 H 529.763 3.99729 -3.42818 0
M  V30 5412 H 532.254 2.58941 -2.75242 0
M  V30 5413 H 532.567 4.82251 -6.03866 0
M  V30 5414 H 530.912 4.34244 -5.42639 0
M  V30 5415 H 534.103 3.14558 -3.46657 0
M  V30 5416 H 534.276 4.16407 -4.96497 0
M  V30 5417 N 527.682 1.05563 1.17022 0
M  V30 5418 C 528.645 0.664098 2.19368 0
M  V30 5419 C 529.645 -0.286358 1.5823 0
M  V30 5420 O 530.835 -0.069728 1.7406 0
M  V30 5421 C 527.967 -0.0239932 3.40892 0
M  V30 5422 H 529.16 1.57 2.55521 0
M  V30 5423 H 526.713 0.849964 1.31169 0
M  V30 5424 H 527.448 -0.942988 3.10287 0
M  V30 5425 H 527.233 0.659351 3.86516 0
M  V30 5426 H 528.723 -0.283909 4.16634 0
M  V30 5427 N 529.16 -1.33526 0.837174 0
M  V30 5428 C 530.408 -1.97446 0.431211 0
M  V30 5429 C 530.729 -1.6665 -1.01255 0
M  V30 5430 O 529.999 -0.964559 -1.70508 0
M  V30 5431 H 528.579 -0.73043 0.156463 0
M  V30 5432 H 531.241 -1.62918 1.06976 0
M  V30 5433 H 530.337 -3.07001 0.561877 0
M  V30 5434 N 530.638 -0.59345 -1.46 0
M  V30 5435 C 531.548 0.135817 -2.34207 0
M  V30 5436 C 532.564 0.875008 -1.50398 0
M  V30 5437 O 533.74 0.835778 -1.83239 0
M  V30 5438 C 530.805 1.12977 -3.27776 0
M  V30 5439 C 529.866 0.394081 -4.27487 0
M  V30 5440 C 529.099 1.34068 -5.16586 0
M  V30 5441 O 529.322 2.5778 -5.08828 0
M  V30 5442 O 528.256 0.845426 -5.95933 0
M  V30 5443 H 532.082 -0.588691 -2.9794 0
M  V30 5444 H 529.667 -0.353784 -1.45151 0
M  V30 5445 H 531.549 1.70261 -3.85473 0
M  V30 5446 H 530.224 1.83556 -2.66625 0
M  V30 5447 H 529.131 -0.220869 -3.73447 0
M  V30 5448 H 530.464 -0.270939 -4.91454 0
M  V30 5449 N 532.116 1.54067 -0.331816 0
M  V30 5450 C 533.341 2.05599 0.272705 0
M  V30 5451 C 533.766 1.2059 1.44359 0
M  V30 5452 O 533.124 0.216907 1.79998 0
M  V30 5453 C 533.172 3.54188 0.677021 0
M  V30 5454 O 532.276 3.72082 1.77844 0
M  V30 5455 H 531.617 0.662286 0.0476801 0
M  V30 5456 H 534.147 1.98826 -0.482624 0
M  V30 5457 H 534.157 3.96608 0.957415 0
M  V30 5458 H 532.832 4.15513 -0.179325 0
M  V30 5459 H 531.409 3.41566 1.49622 0
M  V30 5460 N 533.594 0.0601682 1.57485 0
M  V30 5461 C 534.842 -0.610386 1.92662 0
M  V30 5462 C 535.163 -1.70849 0.939981 0
M  V30 5463 O 534.433 -1.95895 -0.0137455 0
M  V30 5464 H 533.013 -0.228457 0.711208 0
M  V30 5465 H 535.675 0.115288 1.94559 0
M  V30 5466 H 534.771 -1.0432 2.94149 0
M  V30 5467 N 535.072 -1.5615 -0.213296 0
M  V30 5468 C 536.318 -1.79812 -0.937849 0
M  V30 5469 C 536.651 -0.631201 -1.83656 0
M  V30 5470 O 535.926 0.369165 -1.90964 0
M  V30 5471 C 536.209 -3.13613 -1.76972 0
M  V30 5472 C 536.062 -4.40766 -0.89695 0
M  V30 5473 C 537.381 -3.43931 -2.7459 0
M  V30 5474 H 534.5 -0.654138 -0.339518 0
M  V30 5475 H 537.142 -1.88877 -0.20623 0
M  V30 5476 H 535.292 -3.06015 -2.39347 0
M  V30 5477 H 536.964 -4.60392 -0.289306 0
M  V30 5478 H 535.207 -4.33326 -0.202756 0
M  V30 5479 H 535.878 -5.30843 -1.51358 0
M  V30 5480 H 538.354 -3.5171 -2.22349 0
M  V30 5481 H 537.23 -4.38706 -3.29891 0
M  V30 5482 H 537.491 -2.6651 -3.52739 0
M  V30 5483 N 536.55 0.480323 -1.50102 0
M  V30 5484 C 537.497 1.57946 -1.6829 0
M  V30 5485 C 538.467 1.57611 -0.524223 0
M  V30 5486 O 539.652 1.75282 -0.753709 0
M  V30 5487 C 536.792 2.95978 -1.77457 0
M  V30 5488 C 535.905 3.06173 -3.04766 0
M  V30 5489 C 535.04 4.35063 -3.04784 0
M  V30 5490 C 534.079 4.38966 -4.26586 0
M  V30 5491 N 533.216 5.59314 -4.24396 0
M  V30 5492 H 538.056 1.41743 -2.62131 0
M  V30 5493 H 535.593 0.689304 -1.2995 0
M  V30 5494 H 537.551 3.76011 -1.80752 0
M  V30 5495 H 536.181 3.10837 -0.870637 0
M  V30 5496 H 535.233 2.19071 -3.10986 0
M  V30 5497 H 536.545 3.04916 -3.9475 0
M  V30 5498 H 535.699 5.23436 -3.06757 0
M  V30 5499 H 534.438 4.38915 -2.12614 0
M  V30 5500 H 533.443 3.48992 -4.24835 0
M  V30 5501 H 534.668 4.36813 -5.19972 0
M  V30 5502 H 532.614 5.63969 -3.35074 0
M  V30 5503 H 532.531 5.5976 -5.08138 0
M  V30 5504 H 533.799 6.49837 -4.30502 0
M  V30 5505 N 538.028 1.39524 0.732853 0
M  V30 5506 C 539.256 1.40143 1.52209 0
M  V30 5507 C 539.671 -0.00348836 1.888 0
M  V30 5508 O 539.028 -0.975357 1.5425 0
M  V30 5509 C 539.079 2.27632 2.8083 0
M  V30 5510 O 538.8 3.62654 2.45792 0
M  V30 5511 C 540.301 2.36658 3.74844 0
M  V30 5512 H 537.521 0.478604 0.470297 0
M  V30 5513 H 540.065 1.83366 0.905388 0
M  V30 5514 H 538.22 1.87818 3.38826 0
M  V30 5515 H 538.634 4.08941 3.28431 0
M  V30 5516 H 540.108 3.02118 4.61984 0
M  V30 5517 H 540.585 1.38638 4.16745 0
M  V30 5518 H 541.191 2.76951 3.22766 0
M  V30 5519 N 539.506 -0.963266 1.24736 0
M  V30 5520 C 540.752 -1.71 1.10139 0
M  V30 5521 C 541.107 -1.89089 -0.35541 0
M  V30 5522 O 540.4 -1.44451 -1.25875 0
M  V30 5523 C 540.594 -3.09944 1.7796 0
M  V30 5524 C 540.423 -3.05408 3.30085 0
M  V30 5525 C 539.193 -3.09643 3.99311 0
M  V30 5526 C 541.391 -2.87241 4.26611 0
M  V30 5527 N 539.373 -2.95174 5.3828 0
M  V30 5528 C 540.744 -2.81114 5.52607 0
M  V30 5529 C 542.799 -2.71856 4.17132 0
M  V30 5530 C 541.502 -2.61174 6.70209 0
M  V30 5531 C 543.528 -2.53284 5.34417 0
M  V30 5532 C 542.89 -2.4787 6.59348 0
M  V30 5533 H 538.989 -0.634078 0.457678 0
M  V30 5534 H 541.573 -1.14169 1.57713 0
M  V30 5535 H 539.744 -3.64958 1.32893 0
M  V30 5536 H 541.476 -3.73348 1.56183 0
M  V30 5537 H 538.231 -3.18498 3.50508 0
M  V30 5538 H 538.655 -2.91168 6.11188 0
M  V30 5539 H 543.297 -2.74821 3.21299 0
M  V30 5540 H 541.015 -2.56952 7.6616 0
M  V30 5541 H 544.601 -2.42317 5.28936 0
M  V30 5542 H 543.481 -2.33685 7.48573 0
M  V30 5543 N 540.985 -1.06182 -1.16461 0
M  V30 5544 C 541.917 -0.629584 -2.20383 0
M  V30 5545 C 542.93 0.311834 -1.59786 0
M  V30 5546 O 544.119 0.103 -1.78203 0
M  V30 5547 C 541.219 0.0973695 -3.3876 0
M  V30 5548 C 540.392 -0.857252 -4.28917 0
M  V30 5549 C 539.451 -0.169749 -5.25926 0
M  V30 5550 O 538.477 -0.807044 -5.6345 0
M  V30 5551 N 539.679 1.08911 -5.70192 0
M  V30 5552 H 542.444 -1.52352 -2.58087 0
M  V30 5553 H 540.005 -0.944993 -1.31459 0
M  V30 5554 H 541.997 0.567676 -4.00699 0
M  V30 5555 H 540.567 0.893093 -2.99571 0
M  V30 5556 H 539.787 -1.50696 -3.64259 0
M  V30 5557 H 541.075 -1.50489 -4.86035 0
M  V30 5558 H 540.473 1.62703 -5.41797 0
M  V30 5559 H 539.03 1.50331 -6.34227 0
M  V30 5560 N 542.463 1.3308 -0.844243 0
M  V30 5561 C 543.711 1.97215 -0.441676 0
M  V30 5562 C 544.032 1.67185 1.0037 0
M  V30 5563 O 543.302 0.973588 1.69994 0
M  V30 5564 H 541.882 0.72959 -0.160335 0
M  V30 5565 H 544.544 1.62348 -1.07838 0
M  V30 5566 H 543.64 3.06698 -0.57815 0
M  V30 5567 N 543.941 0.601185 1.45683 0
M  V30 5568 C 545.169 0.100054 2.06658 0
M  V30 5569 C 545.584 -1.21285 1.44691 0
M  V30 5570 O 544.941 -1.73735 0.558772 0
M  V30 5571 C 544.992 -0.0528579 3.61461 0
M  V30 5572 O 544.713 1.20809 4.21114 0
M  V30 5573 C 546.214 -0.586193 4.39407 0
M  V30 5574 H 543.434 0.065905 0.667756 0
M  V30 5575 H 545.978 0.827101 1.87028 0
M  V30 5576 H 544.133 -0.730203 3.80456 0
M  V30 5577 H 544.547 1.03368 5.14213 0
M  V30 5578 H 546.021 -0.642297 5.4825 0
M  V30 5579 H 546.498 -1.60713 4.0874 0
M  V30 5580 H 547.104 0.0568935 4.25262 0
M  V30 5581 N 545.419 -1.53889 0.339982 0
M  V30 5582 C 546.665 -2.01152 -0.258003 0
M  V30 5583 C 546.998 -1.22749 -1.50487 0
M  V30 5584 O 546.273 -0.314156 -1.91946 0
M  V30 5585 C 546.556 -3.55468 -0.575717 0
M  V30 5586 C 546.409 -4.44584 0.682996 0
M  V30 5587 C 547.728 -4.1768 -1.38677 0
M  V30 5588 H 544.847 -0.731198 -0.0922992 0
M  V30 5589 H 547.489 -1.84352 0.459814 0
M  V30 5590 H 545.639 -3.69914 -1.18725 0
M  V30 5591 H 547.311 -4.41981 1.32102 0
M  V30 5592 H 545.554 -4.13592 1.3086 0
M  V30 5593 H 546.225 -5.5043 0.416001 0
M  V30 5594 H 548.701 -4.0691 -0.869705 0
M  V30 5595 H 547.577 -5.25734 -1.57783 0
M  V30 5596 H 547.838 -3.72069 -2.38782 0
M  V30 5597 N 546.897 -0.0685191 -1.57451 0
M  V30 5598 C 548.145 0.60016 -1.92983 0
M  V30 5599 C 548.466 1.70348 -0.949028 0
M  V30 5600 O 547.736 1.959 0.00335647 0
M  V30 5601 H 546.316 0.224682 -0.712409 0
M  V30 5602 H 548.978 -0.125605 -1.94495 0
M  V30 5603 H 548.074 1.02759 -2.94698 0
M  V30 5604 N 548.375 1.56261 0.205012 0
M  V30 5605 C 549.6 1.84491 0.947512 0
M  V30 5606 C 550.025 0.650894 1.76479 0
M  V30 5607 O 549.383 -0.40035 1.76824 0
M  V30 5608 C 549.431 3.10863 1.82747 0
M  V30 5609 O 548.535 2.90719 2.925 0
M  V30 5610 H 547.876 0.607783 0.267386 0
M  V30 5611 H 550.406 2.03485 0.213323 0
M  V30 5612 H 550.416 3.41399 2.23407 0
M  V30 5613 H 549.091 3.97392 1.2269 0
M  V30 5614 H 547.668 2.71457 2.55667 0
M  V30 5615 N 549.853 -0.472356 1.50355 0
M  V30 5616 C 551.081 -1.24784 1.65035 0
M  V30 5617 C 551.496 -1.85837 0.333176 0
M  V30 5618 O 550.853 -1.69168 -0.68472 0
M  V30 5619 C 550.904 -2.35747 2.74054 0
M  V30 5620 O 550.625 -1.77197 4.00665 0
M  V30 5621 C 552.126 -3.26645 2.99696 0
M  V30 5622 H 549.346 -0.377432 0.554785 0
M  V30 5623 H 551.89 -0.563962 1.9657 0
M  V30 5624 H 550.045 -2.99912 2.45217 0
M  V30 5625 H 550.459 -2.5026 4.60945 0
M  V30 5626 H 551.933 -4.00718 3.79644 0
M  V30 5627 H 552.41 -3.8535 2.10718 0
M  V30 5628 H 553.016 -2.68218 3.3006 0
M  V30 5629 N 551.331 -1.39911 -0.725443 0
M  V30 5630 C 552.559 -1.40949 -1.51463 0
M  V30 5631 C 552.974 -0.0065242 -1.88799 0
M  V30 5632 O 552.331 0.967163 -1.54765 0
M  V30 5633 C 552.382 -2.29119 -2.79619 0
M  V30 5634 O 552.103 -3.63952 -2.43866 0
M  V30 5635 C 553.604 -2.38642 -3.73584 0
M  V30 5636 H 550.824 -0.481091 -0.467752 0
M  V30 5637 H 553.368 -1.83843 -0.895651 0
M  V30 5638 H 551.523 -1.89612 -3.37826 0
M  V30 5639 H 551.937 -4.10677 -3.26258 0
M  V30 5640 H 553.411 -3.04563 -4.60375 0
M  V30 5641 H 553.888 -1.40846 -4.16004 0
M  V30 5642 H 554.494 -2.78659 -3.21293 0
M  V30 5643 N 552.809 0.956637 -1.25245 0
M  V30 5644 C 554.034 1.74104 -1.12706 0
M  V30 5645 C 554.459 1.85436 0.315429 0
M  V30 5646 O 553.817 1.33334 1.22848 0
M  V30 5647 C 553.865 3.1338 -1.78396 0
M  V30 5648 O 552.969 3.98485 -1.06224 0
M  V30 5649 H 552.31 0.53476 -0.393609 0
M  V30 5650 H 554.84 1.19924 -1.65769 0
M  V30 5651 H 554.85 3.6385 -1.846 0
M  V30 5652 H 553.525 3.04448 -2.83345 0
M  V30 5653 H 552.102 3.56952 -1.07886 0
M  V30 5654 N 554.287 1.06798 1.15896 0
M  V30 5655 C 555.703 0.792423 1.38538 0
M  V30 5656 C 555.903 -0.60592 1.92174 0
M  V30 5657 O 554.959 -1.36561 2.12385 0
M  V30 5658 C 556.272 1.86157 2.36149 0
M  V30 5659 C 557.82 1.88567 2.49823 0
M  V30 5660 C 558.295 2.9455 3.5072 0
M  V30 5661 N 559.786 2.93616 3.58251 0
M  V30 5662 C 560.521 3.72267 4.36125 0
M  V30 5663 N 560.017 4.60751 5.17379 0
M  V30 5664 N 561.81 3.60637 4.31158 0
M  V30 5665 H 553.961 1.96993 0.794198 0
M  V30 5666 H 556.224 0.853942 0.411688 0
M  V30 5667 H 555.93 2.86603 2.03843 0
M  V30 5668 H 555.804 1.71692 3.3586 0
M  V30 5669 H 558.191 0.887765 2.8143 0
M  V30 5670 H 558.272 2.0711 1.5013 0
M  V30 5671 H 557.916 3.94537 3.19849 0
M  V30 5672 H 557.846 2.73255 4.50155 0
M  V30 5673 H 560.337 2.29472 3.00252 0
M  V30 5674 H 560.65 5.17408 5.74028 0
M  V30 5675 H 558.995 4.64803 5.16704 0
M  V30 5676 H 562.186 2.90892 3.66742 0
M  V30 5677 H 562.359 4.22176 4.91601 0
M  V30 5678 N 555.766 -1.3263 0.851289 0
M  V30 5679 C 556.714 -2.30882 0.282202 0
M  V30 5680 C 557.708 -1.58697 -0.592589 0
M  V30 5681 O 558.914 -1.73461 -0.480768 0
M  V30 5682 H 555.289 -0.748492 0.0725487 0
M  V30 5683 H 557.26 -2.76374 1.12516 0
M  V30 5684 C 556.009 -3.43828 -0.517449 0
M  V30 5685 H 555.332 -3.99532 0.146392 0
M  V30 5686 H 556.772 -4.1474 -0.88128 0
M  V30 5687 C 555.231 -2.90786 -1.70133 0
M  V30 5688 O 555.761 -2.88 -2.80034 0
M  V30 5689 N 553.967 -2.4723 -1.52728 0
M  V30 5690 H 553.514 -2.49695 -0.633257 0
M  V30 5691 H 553.472 -2.12094 -2.32085 0
M  V30 5692 N 557.244 -0.608902 -1.45362 0
M  V30 5693 C 558.474 -0.110852 -2.06302 0
M  V30 5694 C 558.882 1.21062 -1.45398 0
M  V30 5695 O 558.225 1.74861 -0.562976 0
M  V30 5696 C 558.287 0.101793 -3.59356 0
M  V30 5697 C 557.951 -1.13808 -4.42602 0
M  V30 5698 C 558.948 -2.05653 -4.77496 0
M  V30 5699 C 556.633 -1.36727 -4.83333 0
M  V30 5700 C 558.627 -3.18745 -5.51978 0
M  V30 5701 C 556.314 -2.5012 -5.57569 0
M  V30 5702 C 557.312 -3.40957 -5.91809 0
M  V30 5703 O 557 -4.52376 -6.64538 0
M  V30 5704 H 556.732 -0.0666001 -0.672711 0
M  V30 5705 H 559.286 -0.836942 -1.87575 0
M  V30 5706 H 557.516 0.88279 -3.76489 0
M  V30 5707 H 559.205 0.551607 -4.02134 0
M  V30 5708 H 559.971 -1.89172 -4.46586 0
M  V30 5709 H 555.85 -0.669216 -4.56117 0
M  V30 5710 H 559.394 -3.8967 -5.78622 0
M  V30 5711 H 555.291 -2.66553 -5.87894 0
M  V30 5712 H 556.059 -4.51075 -6.82989 0
M  V30 5713 N 558.722 1.53707 -0.348139 0
M  V30 5714 C 559.67 2.26671 0.521808 0
M  V30 5715 C 560.664 1.28988 1.09811 0
M  V30 5716 O 561.87 1.4668 1.04332 0
M  V30 5717 H 558.245 0.728387 0.186968 0
M  V30 5718 H 560.216 2.98176 -0.115563 0
M  V30 5719 C 558.965 3.05591 1.6586 0
M  V30 5720 H 558.288 3.80589 1.22443 0
M  V30 5721 H 559.728 3.59851 2.24239 0
M  V30 5722 C 558.187 2.15366 2.59073 0
M  V30 5723 O 558.717 1.7528 3.61441 0
M  V30 5724 N 556.923 1.80352 2.27863 0
M  V30 5725 H 556.47 2.13149 1.44656 0
M  V30 5726 H 556.428 1.20268 2.90488 0
M  V30 5727 N 560.2 0.0768682 1.57412 0
M  V30 5728 C 561.13 -0.886026 2.16037 0
M  V30 5729 C 562.111 -1.30691 1.08876 0
M  V30 5730 O 563.296 -1.37705 1.36934 0
M  V30 5731 C 560.426 -2.1518 2.72608 0
M  V30 5732 C 559.38 -1.87015 3.8498 0
M  V30 5733 C 558.706 -3.20266 4.28175 0
M  V30 5734 C 560.006 -1.17143 5.08994 0
M  V30 5735 H 561.7 -0.397642 2.96748 0
M  V30 5736 H 559.246 -0.189823 1.42743 0
M  V30 5737 H 561.199 -2.82962 3.12266 0
M  V30 5738 H 559.923 -2.66269 1.89125 0
M  V30 5739 H 558.582 -1.21636 3.45833 0
M  V30 5740 H 558.23 -3.69207 3.41607 0
M  V30 5741 H 557.93 -3.0221 5.03927 0
M  V30 5742 H 559.454 -3.89237 4.70454 0
M  V30 5743 H 560.868 -1.75003 5.45937 0
M  V30 5744 H 559.265 -1.09328 5.90057 0
M  V30 5745 H 560.335 -0.151295 4.84664 0
M  V30 5746 N 561.678 -1.56367 -0.196722 0
M  V30 5747 C 562.61 -1.90941 -1.26784 0
M  V30 5748 C 563.623 -0.799928 -1.41792 0
M  V30 5749 O 564.812 -1.07833 -1.42247 0
M  V30 5750 C 561.912 -2.12477 -2.6402 0
M  V30 5751 C 561.085 -3.43616 -2.70641 0
M  V30 5752 C 560.144 -3.54284 -3.89062 0
M  V30 5753 O 559.17 -4.2712 -3.76241 0
M  V30 5754 N 560.372 -2.87252 -5.04447 0
M  V30 5755 H 563.137 -2.83417 -0.974417 0
M  V30 5756 H 560.698 -1.57215 -0.386649 0
M  V30 5757 H 562.69 -2.16904 -3.41665 0
M  V30 5758 H 561.26 -1.26508 -2.85857 0
M  V30 5759 H 560.48 -3.51072 -1.79283 0
M  V30 5760 H 561.768 -4.29958 -2.72054 0
M  V30 5761 H 561.166 -2.27901 -5.17762 0
M  V30 5762 H 559.723 -2.97308 -5.80044 0
M  V30 5763 N 563.156 0.464375 -1.50603 0
M  V30 5764 C 564.403 1.21596 -1.61928 0
M  V30 5765 C 564.731 1.91804 -0.322737 0
M  V30 5766 O 563.986 1.83065 0.691776 0
M  V30 5767 C 564.285 2.278 -2.75394 0
M  V30 5768 C 563.951 1.74797 -4.1564 0
M  V30 5769 C 562.613 1.60063 -4.53799 0
M  V30 5770 C 564.965 1.35548 -5.03266 0
M  V30 5771 C 562.293 1.04514 -5.77316 0
M  V30 5772 C 564.645 0.814381 -6.27336 0
M  V30 5773 C 563.309 0.653726 -6.64291 0
M  V30 5774 H 562.579 0.444951 -0.592536 0
M  V30 5775 H 565.226 0.510964 -1.84557 0
M  V30 5776 H 563.531 3.04233 -2.46879 0
M  V30 5777 H 565.228 2.85723 -2.81359 0
M  V30 5778 H 561.818 1.87234 -3.8554 0
M  V30 5779 H 566.002 1.45763 -4.74412 0
M  V30 5780 H 561.258 0.908186 -6.04617 0
M  V30 5781 H 565.432 0.501626 -6.94591 0
M  V30 5782 H 563.059 0.22114 -7.59878 0
M  V30 5783 N 564.634 1.40294 0.718013 0
M  V30 5784 C 566.05 1.2227 1.02577 0
M  V30 5785 C 566.25 0.0961976 2.0127 0
M  V30 5786 O 565.306 -0.546695 2.46511 0
M  V30 5787 C 566.619 2.56348 1.57182 0
M  V30 5788 C 568.167 2.6334 1.69178 0
M  V30 5789 C 568.642 3.9768 2.27188 0
M  V30 5790 N 570.133 3.99409 2.34578 0
M  V30 5791 C 570.868 5.00141 2.8044 0
M  V30 5792 N 570.364 6.11268 3.26073 0
M  V30 5793 N 572.157 4.87511 2.79802 0
M  V30 5794 H 564.308 2.12304 0.0637899 0
M  V30 5795 H 566.571 0.943632 0.0909036 0
M  V30 5796 H 566.277 3.3942 0.921262 0
M  V30 5797 H 566.151 2.77266 2.55741 0
M  V30 5798 H 568.538 1.80641 2.33351 0
M  V30 5799 H 568.619 2.46255 0.692247 0
M  V30 5800 H 568.263 4.80817 1.63638 0
M  V30 5801 H 568.193 4.12093 3.27852 0
M  V30 5802 H 570.684 3.19162 2.02346 0
M  V30 5803 H 570.997 6.84023 3.59628 0
M  V30 5804 H 569.342 6.14837 3.24038 0
M  V30 5805 H 572.533 3.9979 2.43487 0
M  V30 5806 H 572.706 5.66158 3.15228 0
M  V30 5807 N 566.112 -0.949982 1.2575 0
M  V30 5808 C 567.389 -1.6718 1.01539 0
M  V30 5809 C 567.769 -2.06095 -0.456942 0
M  V30 5810 O 567.117 -1.77792 -1.43534 0
M  V30 5811 C 567.327 -2.8906 1.95564 0
M  V30 5812 C 568.675 -3.60909 2.23673 0
M  V30 5813 O 569.699 -2.9915 1.9336 0
M  V30 5814 O 568.558 -4.72127 2.75243 0
M  V30 5815 H 565.652 -0.731697 0.385419 0
M  V30 5816 H 568.198 -1.00249 1.36924 0
M  V30 5817 H 566.97 -2.57128 2.94959 0
M  V30 5818 H 566.593 -3.63719 1.60605 0
M  V30 5819 N 567.59 -1.07411 -1.15328 0
M  V30 5820 C 568.815 -0.818856 -1.90551 0
M  V30 5821 C 569.24 0.622194 -1.77512 0
M  V30 5822 O 568.598 1.43484 -1.10824 0
M  V30 5823 C 568.646 -1.23267 -3.38877 0
M  V30 5824 O 567.75 -0.378345 -4.10661 0
M  V30 5825 H 567.091 -0.29827 -0.593238 0
M  V30 5826 H 569.621 -1.43289 -1.46046 0
M  V30 5827 H 569.631 -1.20912 -3.89672 0
M  V30 5828 H 568.306 -2.28226 -3.47686 0
M  V30 5829 H 566.883 -0.464437 -3.69996 0
M  V30 5830 N 569.068 1.32177 -0.85831 0
M  V30 5831 C 570.314 1.97417 -0.46417 0
M  V30 5832 C 570.647 1.67746 0.978514 0
M  V30 5833 O 569.922 0.967654 1.68721 0
M  V30 5834 C 570.205 3.53069 -0.708094 0
M  V30 5835 C 570.058 3.92357 -2.19946 0
M  V30 5836 C 571.377 4.39783 -0.166881 0
M  V30 5837 H 568.496 0.717097 -0.17012 0
M  V30 5838 H 571.138 1.56499 -1.07741 0
M  V30 5839 H 569.288 3.88054 -0.186128 0
M  V30 5840 H 570.96 3.67533 -2.78779 0
M  V30 5841 H 569.203 3.41384 -2.67656 0
M  V30 5842 H 569.874 5.00841 -2.32082 0
M  V30 5843 H 572.35 4.11556 -0.613285 0
M  V30 5844 H 571.226 5.47671 -0.367093 0
M  V30 5845 H 571.487 4.32196 0.930559 0
M  V30 5846 N 570.547 0.616602 1.45037 0
M  V30 5847 C 571.793 0.115501 2.02471 0
M  V30 5848 C 572.126 -1.25406 1.4828 0
M  V30 5849 O 571.401 -1.82922 0.661051 0
M  V30 5850 C 571.684 0.0863588 3.59996 0
M  V30 5851 C 571.537 1.48723 4.24501 0
M  V30 5852 C 572.856 -0.596762 4.36035 0
M  V30 5853 H 569.975 0.0434461 0.735718 0
M  V30 5854 H 572.617 0.7903 1.72784 0
M  V30 5855 H 570.767 -0.488277 3.85419 0
M  V30 5856 H 572.439 2.10964 4.10234 0
M  V30 5857 H 570.682 2.04534 3.82555 0
M  V30 5858 H 571.353 1.419 5.3345 0
M  V30 5859 H 573.829 -0.10824 4.15959 0
M  V30 5860 H 572.705 -0.586289 5.4576 0
M  V30 5861 H 572.966 -1.66451 4.09569 0
M  V30 5862 N 572.025 -1.5352 0.356285 0
M  V30 5863 C 573.274 -2.00298 -0.237373 0
M  V30 5864 C 573.587 -1.24784 -1.50627 0
M  V30 5865 O 574.793 -1.62103 -2.17795 0
M  V30 5866 C 573.249 -3.56771 -0.473545 0
M  V30 5867 C 572.857 -4.41154 0.780183 0
M  V30 5868 C 574.601 -4.1193 -1.02537 0
M  V30 5869 C 572.508 -5.89161 0.514108 0
M  V30 5870 H 571.438 -0.748307 -0.092478 0
M  V30 5871 H 574.089 -1.77283 0.473588 0
M  V30 5872 H 572.471 -3.75902 -1.24553 0
M  V30 5873 H 573.645 -4.33797 1.55425 0
M  V30 5874 H 571.96 -3.97052 1.25455 0
M  V30 5875 H 574.557 -5.20133 -1.2396 0
M  V30 5876 H 574.9 -3.65943 -1.98473 0
M  V30 5877 H 575.433 -3.96561 -0.313775 0
M  V30 5878 H 572.172 -6.39408 1.44355 0
M  V30 5879 H 571.692 -5.9939 -0.221632 0
M  V30 5880 H 573.371 -6.46857 0.136122 0
M  V30 5881 N 573.503 -0.0852151 -1.57369 0
M  V30 5882 C 574.733 0.588605 -1.98038 0
M  V30 5883 C 575.141 1.62869 -0.962817 0
M  V30 5884 O 574.484 1.83611 0.057134 0
M  V30 5885 C 574.546 1.30303 -3.35054 0
M  V30 5886 C 574.21 0.414855 -4.55113 0
M  V30 5887 C 575.207 -0.333011 -5.18832 0
M  V30 5888 C 572.892 0.335804 -5.01176 0
M  V30 5889 C 574.886 -1.14801 -6.26976 0
M  V30 5890 C 572.573 -0.482857 -6.09189 0
M  V30 5891 C 573.571 -1.22342 -6.71953 0
M  V30 5892 O 573.259 -2.02855 -7.77885 0
M  V30 5893 H 572.991 0.163249 -0.655992 0
M  V30 5894 H 575.545 -0.1582 -2.0479 0
M  V30 5895 H 573.775 2.0962 -3.24956 0
M  V30 5896 H 575.464 1.87041 -3.60237 0
M  V30 5897 H 576.23 -0.281611 -4.84182 0
M  V30 5898 H 572.109 0.901869 -4.52092 0
M  V30 5899 H 575.653 -1.72654 -6.75897 0
M  V30 5900 H 571.55 -0.535773 -6.43273 0
M  V30 5901 H 572.318 -1.95432 -7.94826 0
M  V30 5902 N 574.981 1.5647 0.188427 0
M  V30 5903 C 576.392 1.70864 0.752494 0
M  V30 5904 C 576.743 0.692905 1.83557 0
M  V30 5905 O 575.868 -0.149307 2.15884 0
M  V30 5906 C 576.463 3.09789 1.37173 0
M  V30 5907 C 575.022 3.25925 1.88281 0
M  V30 5908 C 574.169 2.66817 0.755259 0
M  V30 5909 H 577.12 1.58657 -0.0367408 0
M  V30 5910 H 577.141 3.07489 2.24122 0
M  V30 5911 H 576.653 3.83693 0.583219 0
M  V30 5912 H 574.754 2.56948 2.6983 0
M  V30 5913 H 574.867 4.33498 2.04001 0
M  V30 5914 H 573.231 2.2617 1.17128 0
M  V30 5915 H 574.014 3.43294 -0.0211237 0
M  V30 5916 N 576.459 -0.456382 1.50847 0
M  V30 5917 C 577.705 -1.20914 1.62811 0
M  V30 5918 C 578.038 -1.91301 0.334304 0
M  V30 5919 O 577.313 -1.82775 -0.665098 0
M  V30 5920 C 577.596 -2.24122 2.81853 0
M  V30 5921 C 577.449 -1.57944 4.21158 0
M  V30 5922 C 578.768 -3.25295 2.96431 0
M  V30 5923 H 575.887 -0.438233 0.592554 0
M  V30 5924 H 578.529 -0.50091 1.83278 0
M  V30 5925 H 576.679 -2.84524 2.64534 0
M  V30 5926 H 578.351 -1.01025 4.50102 0
M  V30 5927 H 576.594 -0.882185 4.24735 0
M  V30 5928 H 577.265 -2.33014 5.00408 0
M  V30 5929 H 579.741 -2.7493 3.12335 0
M  V30 5930 H 578.617 -3.94822 3.81322 0
M  V30 5931 H 578.878 -3.90286 2.07676 0
M  V30 5932 N 577.937 -1.40673 -0.710563 0
M  V30 5933 C 579.183 -1.4043 -1.47142 0
M  V30 5934 C 579.538 -0.00781557 -1.92398 0
M  V30 5935 O 578.831 0.963535 -1.6561 0
M  V30 5936 C 579.025 -2.33253 -2.70791 0
M  V30 5937 C 578.854 -3.81789 -2.37629 0
M  V30 5938 C 577.624 -4.5057 -2.28724 0
M  V30 5939 C 579.822 -4.73152 -2.01572 0
M  V30 5940 N 577.804 -5.84312 -1.88289 0
M  V30 5941 C 579.175 -5.95728 -1.71778 0
M  V30 5942 C 581.23 -4.6094 -1.88252 0
M  V30 5943 C 579.933 -7.07454 -1.30003 0
M  V30 5944 C 581.959 -5.72613 -1.47881 0
M  V30 5945 C 581.321 -6.94278 -1.18987 0
M  V30 5946 H 577.42 -0.569115 -0.536314 0
M  V30 5947 H 580.004 -1.76425 -0.823547 0
M  V30 5948 H 578.175 -1.99378 -3.33321 0
M  V30 5949 H 579.907 -2.23833 -3.37166 0
M  V30 5950 H 576.662 -4.04315 -2.46629 0
M  V30 5951 H 577.086 -6.55153 -1.70596 0
M  V30 5952 H 581.728 -3.67389 -2.09249 0
M  V30 5953 H 579.446 -8.00884 -1.07749 0
M  V30 5954 H 583.032 -5.65161 -1.38145 0
M  V30 5955 H 581.912 -7.79222 -0.88219 0
M  V30 5956 N 579.415 0.9433 -1.26252 0
M  V30 5957 C 580.692 1.66639 -1.02424 0
M  V30 5958 C 581.072 2.06335 0.446006 0
M  V30 5959 O 580.42 1.78551 1.42589 0
M  V30 5960 C 580.63 2.88019 -1.97094 0
M  V30 5961 C 581.978 3.59718 -2.25584 0
M  V30 5962 O 583.002 2.9812 -1.94943 0
M  V30 5963 O 581.861 4.7066 -2.77743 0
M  V30 5964 H 578.955 0.729643 -0.389294 0
M  V30 5965 H 581.501 0.995218 -1.37454 0
M  V30 5966 H 580.273 2.5556 -2.96319 0
M  V30 5967 H 579.896 3.62863 -1.62532 0
M  V30 5968 N 580.893 1.08022 1.14757 0
M  V30 5969 C 582.141 0.805913 1.85336 0
M  V30 5970 C 582.462 -0.670162 1.83122 0
M  V30 5971 O 581.732 -1.48567 1.2769 0
M  V30 5972 H 580.312 0.295138 0.686223 0
M  V30 5973 H 582.974 1.36538 1.3908 0
M  V30 5974 H 582.07 1.14655 2.90277 0
M  V30 5975 N 582.371 -1.3172 0.865308 0
M  V30 5976 C 583.618 -1.96876 0.473931 0
M  V30 5977 C 583.946 -1.68425 -0.972786 0
M  V30 5978 O 583.201 -0.970742 -1.69927 0
M  V30 5979 C 583.5 -3.5102 0.672283 0
M  V30 5980 C 583.166 -3.9948 2.09108 0
M  V30 5981 C 581.828 -4.12425 2.4791 0
M  V30 5982 C 584.18 -4.2503 3.0166 0
M  V30 5983 C 581.508 -4.48267 3.78515 0
M  V30 5984 C 583.86 -4.62335 4.31774 0
M  V30 5985 C 582.524 -4.73486 4.70497 0
M  V30 5986 H 581.794 -0.72042 0.173424 0
M  V30 5987 H 584.441 -1.56937 1.0974 0
M  V30 5988 H 582.746 -3.91785 -0.034356 0
M  V30 5989 H 584.443 -3.99475 0.349353 0
M  V30 5990 H 581.033 -3.89898 1.77981 0
M  V30 5991 H 585.217 -4.14529 2.7291 0
M  V30 5992 H 580.473 -4.55097 4.08285 0
M  V30 5993 H 584.647 -4.81058 5.03543 0
M  V30 5994 H 582.274 -5.01016 5.71741 0
M  V30 5995 N 583.85 -0.624285 -1.44708 0
M  V30 5996 C 585.127 -0.0572781 -1.95516 0
M  V30 5997 C 585.507 1.41516 -1.56641 0
M  V30 5998 O 584.855 2.12614 -0.837111 0
M  V30 5999 C 585.065 -0.272944 -3.47931 0
M  V30 6000 C 586.413 -0.162529 -4.24289 0
M  V30 6001 O 587.437 -0.203946 -3.55616 0
M  V30 6002 O 586.296 -0.0616847 -5.46465 0
M  V30 6003 H 583.389 0.0262219 -0.826584 0
M  V30 6004 H 585.936 -0.695512 -1.54793 0
M  V30 6005 H 584.707 -1.29492 -3.69253 0
M  V30 6006 H 584.331 0.399756 -3.95585 0
M  V30 6007 N 585.328 1.53329 -0.364422 0
M  V30 6008 C 586.258 2.28627 0.474543 0
M  V30 6009 C 587.239 1.31009 1.08492 0
M  V30 6010 O 588.424 1.59878 1.10239 0
M  V30 6011 C 585.554 3.07465 1.61501 0
M  V30 6012 C 584.508 4.1276 1.13194 0
M  V30 6013 C 583.834 4.79674 2.36255 0
M  V30 6014 C 585.134 5.21847 0.217507 0
M  V30 6015 H 586.828 2.99005 -0.153656 0
M  V30 6016 H 584.374 1.43803 -0.0753406 0
M  V30 6017 H 586.327 3.58889 2.20855 0
M  V30 6018 H 585.051 2.34775 2.27042 0
M  V30 6019 H 583.71 3.62281 0.56109 0
M  V30 6020 H 583.358 4.03557 3.00251 0
M  V30 6021 H 583.058 5.50827 2.04606 0
M  V30 6022 H 584.582 5.33892 2.96297 0
M  V30 6023 H 585.996 5.6878 0.718493 0
M  V30 6024 H 584.393 6.00099 -0.00806408 0
M  V30 6025 H 585.463 4.7921 -0.740653 0
M  V30 6026 N 586.806 0.0935595 1.57322 0
M  V30 6027 C 588.054 -0.569383 1.93913 0
M  V30 6028 C 588.375 -1.68817 0.976009 0
M  V30 6029 O 587.645 -1.9588 0.0278099 0
M  V30 6030 H 586.225 -0.21332 0.715894 0
M  V30 6031 H 588.887 0.156531 1.9427 0
M  V30 6032 H 587.983 -0.980577 2.96296 0
M  V30 6033 N 588.284 -1.56567 -0.180126 0
M  V30 6034 C 589.247 -1.94852 -1.20686 0
M  V30 6035 C 590.247 -0.831212 -1.3765 0
M  V30 6036 O 591.437 -1.09841 -1.35206 0
M  V30 6037 C 588.569 -2.23565 -2.57355 0
M  V30 6038 H 589.762 -2.86722 -0.879225 0
M  V30 6039 H 587.315 -1.50489 -0.422237 0
M  V30 6040 H 588.05 -1.34381 -2.95148 0
M  V30 6041 H 587.835 -3.04999 -2.46411 0
M  V30 6042 H 589.325 -2.54137 -3.31367 0
M  V30 6043 N 589.762 0.448376 -1.51087 0
M  V30 6044 C 591.039 1.20926 -1.53741 0
M  V30 6045 C 591.419 2.09025 -0.295222 0
M  V30 6046 O 590.767 2.16851 0.720283 0
M  V30 6047 C 590.977 2.02067 -2.84552 0
M  V30 6048 C 592.325 2.59486 -3.36084 0
M  V30 6049 O 593.349 2.12289 -2.86028 0
M  V30 6050 O 592.208 3.45539 -4.23397 0
M  V30 6051 H 589.302 0.549951 -0.617643 0
M  V30 6052 H 591.848 0.458344 -1.63393 0
M  V30 6053 H 590.62 1.37291 -3.66425 0
M  V30 6054 H 590.243 2.84246 -2.78011 0
M  V30 6055 N 591.24 1.41047 0.703093 0
M  V30 6056 C 592.468 1.4334 1.49202 0
M  V30 6057 C 592.883 0.0365596 1.88765 0
M  V30 6058 O 592.24 -0.942419 1.56284 0
M  V30 6059 C 592.291 2.33538 2.75939 0
M  V30 6060 O 592.012 3.67786 2.38045 0
M  V30 6061 C 593.513 2.44555 3.6974 0
M  V30 6062 H 590.733 0.488472 0.460039 0
M  V30 6063 H 593.277 1.85245 0.86629 0
M  V30 6064 H 591.432 1.94962 3.34766 0
M  V30 6065 H 591.846 4.15816 3.19683 0
M  V30 6066 H 593.32 3.11849 4.55471 0
M  V30 6067 H 593.797 1.47447 4.1371 0
M  V30 6068 H 594.403 2.83735 3.16819 0
M  V30 6069 N 592.718 -0.936591 1.26751 0
M  V30 6070 C 593.995 -1.66094 1.03306 0
M  V30 6071 C 594.375 -2.06568 -0.435058 0
M  V30 6072 O 593.723 -1.79305 -1.41641 0
M  V30 6073 C 593.933 -2.86969 1.98619 0
M  V30 6074 C 595.281 -3.58516 2.27489 0
M  V30 6075 O 596.305 -2.97082 1.96522 0
M  V30 6076 O 595.164 -4.69181 2.80235 0
M  V30 6077 H 592.258 -0.727568 0.393158 0
M  V30 6078 H 594.804 -0.987914 1.3798 0
M  V30 6079 H 593.576 -2.53985 2.9767 0
M  V30 6080 H 593.199 -3.61996 1.64454 0
M  V30 6081 N 594.196 -1.08629 -1.14182 0
M  V30 6082 C 595.129 -0.662329 -2.18377 0
M  V30 6083 C 596.107 0.327054 -1.59277 0
M  V30 6084 O 597.291 0.230376 -1.87087 0
M  V30 6085 C 594.418 0.0254765 -3.3869 0
M  V30 6086 C 593.464 -0.924414 -4.16361 0
M  V30 6087 S 594.297 -2.43226 -4.77076 0
M  V30 6088 C 595.453 -1.75663 -6.00744 0
M  V30 6089 H 595.686 -1.54501 -2.54001 0
M  V30 6090 H 593.219 -0.901484 -1.2535 0
M  V30 6091 H 595.177 0.416032 -4.08386 0
M  V30 6092 H 593.838 0.884689 -3.01384 0
M  V30 6093 H 593.031 -0.390099 -5.02488 0
M  V30 6094 H 592.633 -1.25598 -3.5228 0
M  V30 6095 H 594.925 -1.07589 -6.68903 0
M  V30 6096 H 595.868 -2.59673 -6.58768 0
M  V30 6097 H 596.276 -1.22903 -5.50958 0
M  V30 6098 N 595.674 1.31259 -0.872281 0
M  V30 6099 C 596.622 2.30404 -0.318897 0
M  V30 6100 C 597.616 1.5962 0.567267 0
M  V30 6101 O 598.822 1.74204 0.453111 0
M  V30 6102 H 595.197 0.747243 -0.0844474 0
M  V30 6103 H 597.168 2.74549 -1.16899 0
M  V30 6104 C 595.917 3.44608 0.462683 0
M  V30 6105 H 595.24 3.99248 -0.209936 0
M  V30 6106 H 596.68 4.1609 0.815187 0
M  V30 6107 C 595.139 2.93456 1.65485 0
M  V30 6108 O 595.669 2.92418 2.75417 0
M  V30 6109 N 593.875 2.49628 1.48776 0
M  V30 6110 H 593.422 2.50671 0.593452 0
M  V30 6111 H 593.38 2.15759 2.28682 0
M  V30 6112 N 597.152 0.631951 1.44375 0
M  V30 6113 C 598.563 0.219036 1.85411 0
M  V30 6114 C 598.914 -1.22974 1.52879 0
M  V30 6115 O 598.039 -1.93579 0.967266 0
M  V30 6116 C 598.634 0.39075 3.36539 0
M  V30 6117 C 597.193 0.0323351 3.76386 0
M  V30 6118 C 596.34 0.703744 2.68221 0
M  V30 6119 H 599.291 0.837056 1.3483 0
M  V30 6120 H 599.312 -0.370056 3.78696 0
M  V30 6121 H 598.824 1.44527 3.60185 0
M  V30 6122 H 596.925 -1.02042 3.58355 0
M  V30 6123 H 597.038 0.442969 4.77048 0
M  V30 6124 H 595.402 0.138974 2.54321 0
M  V30 6125 H 596.185 1.76088 2.947 0
M  V30 6126 N 598.631 -1.53133 0.372548 0
M  V30 6127 C 599.541 -2.29671 -0.478379 0
M  V30 6128 C 600.557 -1.35913 -1.08644 0
M  V30 6129 O 601.733 -1.68975 -1.09588 0
M  V30 6130 C 598.798 -3.07625 -1.599 0
M  V30 6131 C 597.859 -4.17061 -1.01776 0
M  V30 6132 C 597.092 -4.91289 -2.08497 0
M  V30 6133 O 597.315 -4.65442 -3.29727 0
M  V30 6134 O 596.249 -5.7705 -1.71164 0
M  V30 6135 H 600.075 -3.03355 0.144649 0
M  V30 6136 H 597.66 -1.48773 0.136729 0
M  V30 6137 H 599.542 -3.56281 -2.25038 0
M  V30 6138 H 598.217 -2.3677 -2.2073 0
M  V30 6139 H 597.124 -3.72641 -0.330098 0
M  V30 6140 H 598.457 -4.90102 -0.453915 0
M  V30 6141 N 600.109 -0.101901 -1.5727 0
M  V30 6142 C 601.039 0.851544 -2.17419 0
M  V30 6143 C 602.02 1.28942 -1.10941 0
M  V30 6144 O 603.205 1.35509 -1.39107 0
M  V30 6145 C 600.335 2.10816 -2.75996 0
M  V30 6146 C 599.289 1.80867 -3.87906 0
M  V30 6147 C 598.615 3.13413 -4.33216 0
M  V30 6148 C 599.915 1.0903 -5.10793 0
M  V30 6149 H 601.609 0.350381 -2.97343 0
M  V30 6150 H 599.155 0.16709 -1.43027 0
M  V30 6151 H 601.108 2.77959 -3.16729 0
M  V30 6152 H 599.832 2.63227 -1.93337 0
M  V30 6153 H 598.491 1.16119 -3.47724 0
M  V30 6154 H 598.139 3.63725 -3.47438 0
M  V30 6155 H 597.839 2.94155 -5.08671 0
M  V30 6156 H 599.363 3.81704 -4.76586 0
M  V30 6157 H 600.777 1.66295 -5.48652 0
M  V30 6158 H 599.174 0.99927 -5.91722 0
M  V30 6159 H 600.244 0.0741704 -4.84843 0
M  V30 6160 N 601.587 1.56661 0.17182 0
M  V30 6161 C 602.864 1.72838 0.915778 0
M  V30 6162 C 603.244 0.66316 2.00413 0
M  V30 6163 O 602.592 -0.322123 2.26218 0
M  V30 6164 C 602.802 3.16019 1.48097 0
M  V30 6165 C 604.15 3.76962 1.95408 0
M  V30 6166 O 605.174 3.19294 1.57892 0
M  V30 6167 O 604.033 4.78219 2.64516 0
M  V30 6168 H 601.127 0.705797 0.431021 0
M  V30 6169 H 603.673 1.68947 0.159689 0
M  V30 6170 H 602.445 3.85031 0.697618 0
M  V30 6171 H 602.068 3.24234 2.30126 0
M  V30 6172 N 603.065 -0.440357 1.51323 0
M  V30 6173 C 604.481 -0.7766 1.39431 0
M  V30 6174 C 604.681 -1.95838 0.474296 0
M  V30 6175 O 603.737 -2.52398 -0.0716692 0
M  V30 6176 C 605.05 -1.05981 2.81405 0
M  V30 6177 C 606.598 -1.16442 2.90534 0
M  V30 6178 C 607.073 -1.48058 4.33408 0
M  V30 6179 N 608.564 -1.54988 4.36501 0
M  V30 6180 C 609.299 -1.81017 5.44078 0
M  V30 6181 N 608.795 -2.04858 6.61819 0
M  V30 6182 N 610.588 -1.82774 5.31554 0
M  V30 6183 H 602.739 0.338006 2.09693 0
M  V30 6184 H 605.002 0.0888072 0.943831 0
M  V30 6185 H 604.708 -0.264173 3.50706 0
M  V30 6186 H 604.582 -1.98822 3.20546 0
M  V30 6187 H 606.969 -1.95068 2.21432 0
M  V30 6188 H 607.05 -0.215088 2.54894 0
M  V30 6189 H 606.694 -0.699605 5.03059 0
M  V30 6190 H 606.624 -2.44192 4.66559 0
M  V30 6191 H 609.115 -1.38479 3.51613 0
M  V30 6192 H 609.428 -2.2408 7.396 0
M  V30 6193 H 607.773 -2.02187 6.6494 0
M  V30 6194 H 610.964 -1.63665 4.38556 0
M  V30 6195 H 611.137 -2.02722 6.15474 0
M  V30 6196 N 604.543 -1.41418 -0.695603 0
M  V30 6197 C 605.954 -1.36335 -1.27552 0
M  V30 6198 C 606.305 -0.0464336 -1.96145 0
M  V30 6199 O 605.43 0.855304 -1.9878 0
M  V30 6200 C 606.025 -2.46941 -2.3196 0
M  V30 6201 C 604.584 -2.45256 -2.85529 0
M  V30 6202 C 603.731 -2.2679 -1.59566 0
M  V30 6203 H 606.682 -1.50934 -0.490362 0
M  V30 6204 H 606.703 -2.15997 -3.1325 0
M  V30 6205 H 606.215 -3.42775 -1.82008 0
M  V30 6206 H 604.316 -1.53179 -3.39657 0
M  V30 6207 H 604.429 -3.41565 -3.35961 0
M  V30 6208 H 602.793 -1.74667 -1.85374 0
M  V30 6209 H 603.576 -3.24651 -1.1161 0
M  V30 6210 N 606.021 0.929856 -1.27246 0
M  V30 6211 C 607.269 1.674 -1.13233 0
M  V30 6212 C 607.59 1.92311 0.322744 0
M  V30 6213 O 606.86 1.52784 1.22612 0
M  V30 6214 H 605.44 0.620411 -0.416052 0
M  V30 6215 H 608.102 1.11663 -1.59741 0
M  V30 6216 H 607.198 2.64308 -1.65975 0
M  V30 6217 N 607.499 1.09233 1.13605 0
M  V30 6218 C 608.776 0.739633 1.81077 0
M  V30 6219 C 609.156 -0.775595 1.96336 0
M  V30 6220 O 608.504 -1.69726 1.52988 0
M  V30 6221 C 608.714 1.47636 3.16235 0
M  V30 6222 C 610.062 1.64087 3.91613 0
M  V30 6223 O 611.086 1.43871 3.25852 0
M  V30 6224 O 609.945 1.97511 5.0956 0
M  V30 6225 H 607.039 0.265464 0.783236 0
M  V30 6226 H 609.585 1.19441 1.20549 0
M  V30 6227 H 608.357 2.50818 3.00344 0
M  V30 6228 H 607.98 1.01362 3.84462 0
M  V30 6229 N 608.977 -1.30795 0.87923 0
M  V30 6230 C 610.207 -2.00237 0.50881 0
M  V30 6231 C 610.615 -1.66115 -0.905682 0
M  V30 6232 O 609.958 -0.89138 -1.60624 0
M  V30 6233 C 610.02 -3.54508 0.597003 0
M  V30 6234 C 609.684 -4.12131 1.97477 0
M  V30 6235 C 610.681 -4.28552 2.94346 0
M  V30 6236 C 608.366 -4.47644 2.2786 0
M  V30 6237 C 610.36 -4.79689 4.19735 0
M  V30 6238 C 608.047 -4.98481 3.53496 0
M  V30 6239 C 609.045 -5.14456 4.49248 0
M  V30 6240 O 608.733 -5.64199 5.72656 0
M  V30 6241 H 608.465 -0.647026 0.195788 0
M  V30 6242 H 611.019 -1.67785 1.1848 0
M  V30 6243 H 609.249 -3.86461 -0.135945 0
M  V30 6244 H 610.938 -4.05198 0.238684 0
M  V30 6245 H 611.704 -4.01424 2.72183 0
M  V30 6246 H 607.583 -4.34481 1.54102 0
M  V30 6247 H 611.127 -4.92073 4.9448 0
M  V30 6248 H 607.024 -5.25044 3.75498 0
M  V30 6249 H 607.792 -5.82551 5.74957 0
M  V30 6250 N 610.455 -0.639598 -1.44038 0
M  V30 6251 C 611.866 -0.228866 -1.85292 0
M  V30 6252 C 612.217 1.22161 -1.53529 0
M  V30 6253 O 611.342 1.93064 -0.977518 0
M  V30 6254 C 611.937 -0.408592 -3.36327 0
M  V30 6255 C 610.496 -0.0522953 -3.76364 0
M  V30 6256 C 609.643 -0.717959 -2.67844 0
M  V30 6257 H 612.594 -0.844194 -1.34384 0
M  V30 6258 H 612.615 0.349968 -3.78887 0
M  V30 6259 H 612.127 -1.46435 -3.59414 0
M  V30 6260 H 610.228 1.0014 -3.58891 0
M  V30 6261 H 610.341 -0.468261 -4.76806 0
M  V30 6262 H 608.705 -0.152459 -2.54243 0
M  V30 6263 H 609.488 -1.77648 -2.93762 0
M  V30 6264 N 611.933 1.52934 -0.380664 0
M  V30 6265 C 613.182 2.00651 0.205477 0
M  V30 6266 C 613.495 1.27164 1.48623 0
M  V30 6267 O 614.701 1.65547 2.15189 0
M  V30 6268 C 613.157 3.57479 0.416726 0
M  V30 6269 C 612.765 4.39857 -0.850268 0
M  V30 6270 C 614.509 4.13509 0.959702 0
M  V30 6271 C 612.416 5.88269 -0.607773 0
M  V30 6272 H 611.346 0.749684 0.0805614 0
M  V30 6273 H 613.997 1.76508 -0.501732 0
M  V30 6274 H 612.379 3.77836 1.18557 0
M  V30 6275 H 613.553 4.31269 -1.62307 0
M  V30 6276 H 611.868 3.95005 -1.31756 0
M  V30 6277 H 614.465 5.22039 1.15669 0
M  V30 6278 H 614.808 3.69054 1.92626 0
M  V30 6279 H 615.341 3.9701 0.250645 0
M  V30 6280 H 612.08 6.3703 -1.54509 0
M  V30 6281 H 611.6 5.99667 0.126247 0
M  V30 6282 H 613.279 6.46558 -0.239014 0
M  V30 6283 N 613.412 0.11024 1.57214 0
M  V30 6284 C 614.64 -0.557834 1.99238 0
M  V30 6285 C 615.055 -1.60778 0.989734 0
M  V30 6286 O 614.412 -1.82491 -0.0186092 0
M  V30 6287 C 614.463 -1.19189 3.41286 0
M  V30 6288 O 614.184 -0.183919 4.37714 0
M  V30 6289 C 615.685 -1.94413 3.98395 0
M  V30 6290 H 612.905 -0.148392 0.654386 0
M  V30 6291 H 615.449 0.193996 2.03578 0
M  V30 6292 H 613.604 -1.89456 3.37913 0
M  V30 6293 H 614.018 -0.643475 5.20538 0
M  V30 6294 H 615.492 -2.34116 4.99894 0
M  V30 6295 H 615.969 -2.81592 3.3705 0
M  V30 6296 H 616.575 -1.28928 4.05287 0
M  V30 6297 N 614.89 -1.56749 -0.16351 0
M  V30 6298 C 615.822 -1.93587 -1.22705 0
M  V30 6299 C 616.835 -0.829824 -1.40063 0
M  V30 6300 O 618.024 -1.10826 -1.39928 0
M  V30 6301 C 615.124 -2.1803 -2.59454 0
M  V30 6302 C 614.297 -3.4928 -2.63292 0
M  V30 6303 C 613.356 -3.62457 -3.8146 0
M  V30 6304 O 612.382 -4.35004 -3.67096 0
M  V30 6305 N 613.584 -2.97888 -4.9824 0
M  V30 6306 H 616.349 -2.8542 -0.914081 0
M  V30 6307 H 613.91 -1.58 -0.353214 0
M  V30 6308 H 615.902 -2.24102 -3.36987 0
M  V30 6309 H 614.472 -1.32543 -2.8311 0
M  V30 6310 H 613.692 -3.54795 -1.71796 0
M  V30 6311 H 614.98 -4.35632 -2.62873 0
M  V30 6312 H 614.378 -2.38833 -5.12811 0
M  V30 6313 H 612.935 -3.09545 -5.73607 0
M  V30 6314 N 616.368 0.432326 -1.51554 0
M  V30 6315 C 617.598 1.2019 -1.68042 0
M  V30 6316 C 618.006 1.85356 -0.379434 0
M  V30 6317 O 617.349 1.71724 0.652427 0
M  V30 6318 C 617.411 2.32387 -2.74292 0
M  V30 6319 C 617.075 1.87548 -4.16743 0
M  V30 6320 C 618.072 1.37611 -5.01357 0
M  V30 6321 C 615.757 1.95087 -4.62868 0
M  V30 6322 C 617.751 0.958069 -6.30159 0
M  V30 6323 C 615.438 1.52894 -5.91664 0
M  V30 6324 C 616.436 1.03336 -6.75137 0
M  V30 6325 O 616.124 0.617435 -8.01525 0
M  V30 6326 H 615.856 0.368132 -0.56697 0
M  V30 6327 H 618.41 0.517875 -1.98764 0
M  V30 6328 H 616.64 3.04082 -2.38895 0
M  V30 6329 H 618.329 2.94235 -2.79608 0
M  V30 6330 H 619.095 1.31178 -4.66923 0
M  V30 6331 H 614.974 2.32606 -3.98015 0
M  V30 6332 H 618.518 0.570562 -6.95263 0
M  V30 6333 H 614.415 1.58999 -6.25611 0
M  V30 6334 H 615.183 0.742835 -8.15122 0
M  V30 6335 N 617.846 1.41785 0.688094 0
M  V30 6336 C 619.257 1.3701 1.26828 0
M  V30 6337 C 619.608 0.056835 1.96118 0
M  V30 6338 O 618.733 -0.84475 1.99231 0
M  V30 6339 C 619.328 2.48168 2.30648 0
M  V30 6340 C 617.887 2.46766 2.84224 0
M  V30 6341 C 617.034 2.27633 1.58361 0
M  V30 6342 H 619.985 1.51192 0.482351 0
M  V30 6343 H 620.006 2.17655 3.121 0
M  V30 6344 H 619.518 3.43735 1.80188 0
M  V30 6345 H 617.619 1.54978 3.3884 0
M  V30 6346 H 617.732 3.43342 3.34145 0
M  V30 6347 H 616.096 1.75648 1.84445 0
M  V30 6348 H 616.879 3.25238 1.09887 0
M  V30 6349 N 619.324 -0.923095 1.27737 0
M  V30 6350 C 620.254 -2.04124 1.13383 0
M  V30 6351 C 621.235 -1.70066 0.0340658 0
M  V30 6352 O 622.42 -1.93068 0.209383 0
M  V30 6353 C 619.55 -3.3831 0.785097 0
M  V30 6354 C 618.504 -3.86496 1.8386 0
M  V30 6355 C 617.83 -5.1754 1.34373 0
M  V30 6356 C 619.13 -4.09381 3.24353 0
M  V30 6357 H 620.824 -2.1639 2.06919 0
M  V30 6358 H 618.37 -1.03976 0.996243 0
M  V30 6359 H 620.323 -4.16016 0.671485 0
M  V30 6360 H 619.047 -3.2607 -0.185969 0
M  V30 6361 H 617.706 -3.10987 1.9412 0
M  V30 6362 H 617.354 -5.01696 0.361989 0
M  V30 6363 H 617.054 -5.50751 2.04811 0
M  V30 6364 H 618.578 -5.97811 1.24315 0
M  V30 6365 H 619.992 -4.77641 3.17067 0
M  V30 6366 H 618.389 -4.53906 3.92542 0
M  V30 6367 H 619.459 -3.14515 3.69064 0
M  V30 6368 N 620.802 -1.09834 -1.13024 0
M  V30 6369 C 621.752 -0.710899 -2.16634 0
M  V30 6370 C 622.736 0.276836 -1.58501 0
M  V30 6371 O 623.928 0.0865457 -1.76788 0
M  V30 6372 C 621.057 -0.137574 -3.43024 0
M  V30 6373 C 620.143 -1.15198 -4.08155 0
M  V30 6374 N 620.534 -2.34054 -4.48388 0
M  V30 6375 C 618.832 -0.991074 -4.34849 0
M  V30 6376 C 619.533 -2.98616 -4.99203 0
M  V30 6377 N 618.509 -2.26159 -4.94321 0
M  V30 6378 H 622.311 -1.61576 -2.455 0
M  V30 6379 H 619.825 -0.975158 -1.29863 0
M  V30 6380 H 621.822 0.158031 -4.166 0
M  V30 6381 H 620.482 0.762088 -3.1563 0
M  V30 6382 H 621.493 -2.7162 -4.40957 0
M  V30 6383 H 618.17 -0.146448 -4.17243 0
M  V30 6384 H 619.56 -3.99683 -5.40096 0
M  V30 6385 N 622.28 1.30327 -0.886154 0
M  V30 6386 C 623.212 2.27079 -0.311072 0
M  V30 6387 C 624.225 1.53758 0.53502 0
M  V30 6388 O 625.414 1.74947 0.354378 0
M  V30 6389 C 622.514 3.33965 0.576228 0
M  V30 6390 C 621.687 4.36735 -0.241064 0
M  V30 6391 C 620.746 5.23028 0.576916 0
M  V30 6392 O 619.772 5.692 -0.000802231 0
M  V30 6393 N 620.974 5.49016 1.88579 0
M  V30 6394 H 623.739 2.77065 -1.14259 0
M  V30 6395 H 621.3 1.43519 -0.749258 0
M  V30 6396 H 623.292 3.88618 1.12953 0
M  V30 6397 H 621.862 2.839 1.30842 0
M  V30 6398 H 621.082 3.81932 -0.975805 0
M  V30 6399 H 622.37 5.02451 -0.801272 0
M  V30 6400 H 621.768 5.13288 2.37806 0
M  V30 6401 H 620.325 6.06539 2.38651 0
M  V30 6402 N 623.758 0.647228 1.43697 0
M  V30 6403 C 624.688 -0.0345631 2.33474 0
M  V30 6404 C 625.669 -0.818193 1.4913 0
M  V30 6405 O 626.854 -0.780867 1.77809 0
M  V30 6406 C 623.984 -1.00576 3.32418 0
M  V30 6407 C 622.938 -0.33266 4.26705 0
M  V30 6408 C 622.264 -1.41489 5.1564 0
M  V30 6409 C 623.564 0.771204 5.16575 0
M  V30 6410 H 625.258 0.715163 2.90733 0
M  V30 6411 H 622.804 0.345364 1.39797 0
M  V30 6412 H 624.757 -1.49159 3.94119 0
M  V30 6413 H 623.481 -1.78657 2.73403 0
M  V30 6414 H 622.14 0.13267 3.6636 0
M  V30 6415 H 621.788 -2.18698 4.52968 0
M  V30 6416 H 621.488 -0.969799 5.79542 0
M  V30 6417 H 623.012 -1.9022 5.80214 0
M  V30 6418 H 624.426 0.36779 5.72119 0
M  V30 6419 H 622.823 1.1404 5.89165 0
M  V30 6420 H 623.893 1.63169 4.56622 0
M  V30 6421 N 625.236 -1.5273 0.388769 0
M  V30 6422 C 626.647 -1.86505 -0.0853788 0
M  V30 6423 C 626.998 -1.30847 -1.46197 0
M  V30 6424 O 626.123 -0.639609 -2.06732 0
M  V30 6425 C 626.718 -3.38414 -0.161703 0
M  V30 6426 C 625.277 -3.71902 -0.580144 0
M  V30 6427 C 624.424 -2.76095 0.258218 0
M  V30 6428 H 627.375 -1.46647 0.606665 0
M  V30 6429 H 627.396 -3.67638 -0.980936 0
M  V30 6430 H 626.908 -3.78893 0.840333 0
M  V30 6431 H 625.009 -3.36992 -1.58957 0
M  V30 6432 H 625.122 -4.77902 -0.338663 0
M  V30 6433 H 623.486 -2.53195 -0.276432 0
M  V30 6434 H 624.269 -3.19411 1.25822 0
M  V30 6435 N 626.714 -0.118576 -1.57153 0
M  V30 6436 C 627.644 0.828436 -2.1831 0
M  V30 6437 C 628.625 1.27758 -1.12303 0
M  V30 6438 O 629.81 1.34026 -1.40537 0
M  V30 6439 C 626.94 2.07876 -2.78217 0
M  V30 6440 C 625.894 1.76742 -3.89803 0
M  V30 6441 C 625.22 3.08801 -4.36516 0
M  V30 6442 C 626.52 1.03606 -5.11921 0
M  V30 6443 H 628.214 0.318824 -2.97698 0
M  V30 6444 H 625.76 0.151911 -1.43196 0
M  V30 6445 H 627.713 2.74584 -3.19659 0
M  V30 6446 H 626.437 2.61161 -1.96118 0
M  V30 6447 H 625.096 1.12424 -3.48936 0
M  V30 6448 H 624.744 3.6002 -3.51276 0
M  V30 6449 H 624.444 2.88743 -5.11763 0
M  V30 6450 H 625.968 3.76627 -4.80608 0
M  V30 6451 H 627.382 1.60467 -5.50385 0
M  V30 6452 H 625.779 0.936454 -5.92748 0
M  V30 6453 H 626.849 0.0227421 -4.84895 0
M  V30 6454 N 628.193 1.56834 0.155195 0
M  V30 6455 C 629.141 1.98584 1.21107 0
M  V30 6456 C 630.135 0.876987 1.44932 0
M  V30 6457 O 631.341 1.06215 1.45322 0
M  V30 6458 H 627.716 0.632039 0.407469 0
M  V30 6459 H 629.687 2.86561 0.832195 0
M  V30 6460 C 628.436 2.37555 2.53895 0
M  V30 6461 H 627.759 3.22428 2.3639 0
M  V30 6462 H 629.199 2.70598 3.26424 0
M  V30 6463 C 627.658 1.22507 3.13837 0
M  V30 6464 O 628.188 0.521388 3.98302 0
M  V30 6465 N 626.394 0.991444 2.73164 0
M  V30 6466 H 625.941 1.56544 2.04577 0
M  V30 6467 H 625.899 0.223546 3.13604 0
M  V30 6468 N 629.671 -0.424282 1.51781 0
M  V30 6469 C 630.621 -1.51464 1.70419 0
M  V30 6470 C 631.605 -1.50911 0.558094 0
M  V30 6471 O 632.797 -1.57143 0.814552 0
M  V30 6472 C 629.926 -2.89539 1.84451 0
M  V30 6473 C 629.012 -2.94798 3.04886 0
M  V30 6474 N 629.403 -2.69778 4.27848 0
M  V30 6475 C 627.701 -3.25962 3.04408 0
M  V30 6476 C 628.402 -2.81216 5.09208 0
M  V30 6477 N 627.378 -3.13447 4.44131 0
M  V30 6478 H 631.18 -1.30892 2.63144 0
M  V30 6479 H 628.694 -0.631783 1.49607 0
M  V30 6480 H 630.691 -3.67998 1.95917 0
M  V30 6481 H 629.351 -3.11121 0.929168 0
M  V30 6482 H 630.362 -2.44458 4.56575 0
M  V30 6483 H 627.039 -3.53236 2.22555 0
M  V30 6484 H 628.429 -2.65715 6.17127 0
M  V30 6485 N 631.149 -1.42148 -0.680565 0
M  V30 6486 C 632.079 -1.4796 -1.80638 0
M  V30 6487 C 633.06 -0.336728 -1.66734 0
M  V30 6488 O 634.245 -0.550247 -1.86242 0
M  V30 6489 C 631.375 -1.37569 -3.18892 0
M  V30 6490 C 630.329 -2.49823 -3.47524 0
M  V30 6491 C 629.655 -2.24491 -4.85291 0
M  V30 6492 C 630.955 -3.92144 -3.44994 0
M  V30 6493 H 632.649 -2.42184 -1.76032 0
M  V30 6494 H 630.195 -1.16566 -0.845481 0
M  V30 6495 H 632.148 -1.40243 -3.97379 0
M  V30 6496 H 630.872 -0.398357 -3.24162 0
M  V30 6497 H 629.531 -2.46455 -2.71395 0
M  V30 6498 H 629.179 -1.25066 -4.87204 0
M  V30 6499 H 628.879 -2.99722 -5.05411 0
M  V30 6500 H 630.403 -2.28906 -5.66069 0
M  V30 6501 H 631.817 -3.97145 -4.13459 0
M  V30 6502 H 630.214 -4.67179 -3.76648 0
M  V30 6503 H 631.284 -4.19225 -2.43676 0
M  V30 6504 N 632.627 0.916307 -1.28225 0
M  V30 6505 C 633.876 1.65975 -1.14608 0
M  V30 6506 C 634.189 1.93204 0.305191 0
M  V30 6507 O 635.395 2.65611 0.562432 0
M  V30 6508 C 633.851 2.98989 -2.00333 0
M  V30 6509 C 633.459 2.79417 -3.50186 0
M  V30 6510 C 635.203 3.76856 -1.95397 0
M  V30 6511 C 633.11 4.08056 -4.28071 0
M  V30 6512 H 632.04 0.622587 -0.425324 0
M  V30 6513 H 634.691 1.01705 -1.52736 0
M  V30 6514 H 633.073 3.6438 -1.5506 0
M  V30 6515 H 634.247 2.22723 -4.034 0
M  V30 6516 H 632.562 2.14966 -3.56621 0
M  V30 6517 H 635.159 4.72203 -2.50856 0
M  V30 6518 H 635.502 4.05776 -0.930137 0
M  V30 6519 H 636.035 3.1828 -2.38626 0
M  V30 6520 H 632.774 3.8431 -5.31024 0
M  V30 6521 H 632.294 4.64371 -3.79631 0
M  V30 6522 H 633.973 4.76333 -4.37854 0
M  V30 6523 N 634.105 1.10431 1.1244 0
M  V30 6524 C 635.382 0.758797 1.80282 0
M  V30 6525 C 635.762 -0.754727 1.97147 0
M  V30 6526 O 635.11 -1.68094 1.54779 0
M  V30 6527 C 635.32 1.50982 3.14651 0
M  V30 6528 C 636.668 1.68232 3.8985 0
M  V30 6529 O 637.692 1.47319 3.24308 0
M  V30 6530 O 636.551 2.02905 5.07437 0
M  V30 6531 H 633.645 0.273756 0.780376 0
M  V30 6532 H 636.191 1.20713 1.19275 0
M  V30 6533 H 634.963 2.53989 2.97666 0
M  V30 6534 H 634.586 1.05435 3.83366 0
M  V30 6535 N 635.583 -1.29855 0.893053 0
M  V30 6536 C 636.531 -2.29867 0.355512 0
M  V30 6537 C 637.525 -1.60502 -0.541801 0
M  V30 6538 O 638.731 -1.74902 -0.425339 0
M  V30 6539 H 635.106 -0.745805 0.0963247 0
M  V30 6540 H 637.077 -2.72655 1.21252 0
M  V30 6541 C 635.826 -3.453 -0.407801 0
M  V30 6542 H 635.149 -3.98864 0.273426 0
M  V30 6543 H 636.589 -4.17334 -0.748887 0
M  V30 6544 C 635.048 -2.96051 -1.60795 0
M  V30 6545 O 635.578 -2.96763 -2.7073 0
M  V30 6546 N 633.784 -2.51963 -1.44786 0
M  V30 6547 H 633.331 -2.51583 -0.553498 0
M  V30 6548 H 633.289 -2.1937 -2.2522 0
M  V30 6549 N 637.061 -0.65484 -1.43351 0
M  V30 6550 C 637.991 0.0221809 -2.33489 0
M  V30 6551 C 638.972 0.810272 -1.49561 0
M  V30 6552 O 640.157 0.771426 -1.78221 0
M  V30 6553 C 637.287 0.988117 -3.32947 0
M  V30 6554 C 636.241 0.310026 -4.26876 0
M  V30 6555 C 635.567 1.38752 -5.16384 0
M  V30 6556 C 636.867 -0.798589 -5.16159 0
M  V30 6557 H 638.561 -0.730571 -2.9035 0
M  V30 6558 H 636.107 -0.352773 -1.39612 0
M  V30 6559 H 638.06 1.47067 -3.94904 0
M  V30 6560 H 636.784 1.77205 -2.74346 0
M  V30 6561 H 635.443 -0.152097 -3.66284 0
M  V30 6562 H 635.091 2.16293 -4.54121 0
M  V30 6563 H 634.791 0.939051 -5.80048 0
M  V30 6564 H 636.315 1.87141 -5.81215 0
M  V30 6565 H 637.729 -0.398126 -5.71916 0
M  V30 6566 H 636.126 -1.17163 -5.88552 0
M  V30 6567 H 637.196 -1.65588 -4.55751 0
M  V30 6568 N 638.539 1.52521 -0.396863 0
M  V30 6569 C 639.469 2.29582 0.425941 0
M  V30 6570 C 640.45 1.33281 1.05689 0
M  V30 6571 O 641.635 1.62181 1.06823 0
M  V30 6572 C 638.765 3.10821 1.54943 0
M  V30 6573 C 637.719 4.15069 1.04413 0
M  V30 6574 C 637.045 4.84578 2.26028 0
M  V30 6575 C 638.345 5.22191 0.106767 0
M  V30 6576 H 640.039 2.98612 -0.217045 0
M  V30 6577 H 637.585 1.43611 -0.105826 0
M  V30 6578 H 639.538 3.63492 2.13193 0
M  V30 6579 H 638.262 2.39538 2.22011 0
M  V30 6580 H 636.921 3.63389 0.484118 0
M  V30 6581 H 636.569 4.09835 2.91623 0
M  V30 6582 H 636.269 5.55043 1.92876 0
M  V30 6583 H 637.793 5.40056 2.84906 0
M  V30 6584 H 639.207 5.70176 0.597685 0
M  V30 6585 H 637.604 5.99947 -0.135352 0
M  V30 6586 H 638.674 4.77531 -0.842134 0
M  V30 6587 N 640.017 0.126909 1.57088 0
M  V30 6588 C 641.263 -0.529952 1.95753 0
M  V30 6589 C 641.596 -1.65823 1.01077 0
M  V30 6590 O 640.871 -1.94437 0.0494162 0
M  V30 6591 C 641.154 -1.05517 3.44294 0
M  V30 6592 C 641.007 0.0702253 4.49745 0
M  V30 6593 C 642.326 -1.9435 3.94862 0
M  V30 6594 H 639.445 -0.191168 0.711775 0
M  V30 6595 H 642.087 0.204071 1.88901 0
M  V30 6596 H 640.237 -1.68069 3.50264 0
M  V30 6597 H 641.909 0.705834 4.55868 0
M  V30 6598 H 640.152 0.732259 4.27575 0
M  V30 6599 H 640.823 -0.338642 5.5096 0
M  V30 6600 H 643.299 -1.41658 3.91244 0
M  V30 6601 H 642.175 -2.28015 4.993 0
M  V30 6602 H 642.436 -2.87299 3.36024 0
M  V30 6603 N 641.495 -1.56914 -0.146875 0
M  V30 6604 C 642.911 -1.51582 -0.499518 0
M  V30 6605 C 643.111 -0.83535 -1.83369 0
M  V30 6606 O 642.167 -0.405932 -2.49216 0
M  V30 6607 C 643.48 -2.96349 -0.509711 0
M  V30 6608 C 645.028 -3.07288 -0.595217 0
M  V30 6609 C 645.503 -4.53562 -0.636071 0
M  V30 6610 N 646.994 -4.57906 -0.69829 0
M  V30 6611 C 647.729 -5.68462 -0.750886 0
M  V30 6612 N 647.225 -6.88588 -0.76282 0
M  V30 6613 N 649.018 -5.56496 -0.791777 0
M  V30 6614 H 641.169 -1.99547 0.727656 0
M  V30 6615 H 643.432 -0.910113 0.265327 0
M  V30 6616 H 643.138 -3.4939 0.402409 0
M  V30 6617 H 643.012 -3.52307 -1.34758 0
M  V30 6618 H 645.399 -2.54266 -1.49776 0
M  V30 6619 H 645.48 -2.54373 0.2698 0
M  V30 6620 H 645.124 -5.07222 0.262313 0
M  V30 6621 H 645.054 -5.04259 -1.51758 0
M  V30 6622 H 647.545 -3.71429 -0.696362 0
M  V30 6623 H 647.858 -7.68598 -0.804804 0
M  V30 6624 H 646.203 -6.91148 -0.730694 0
M  V30 6625 H 649.394 -4.61562 -0.779624 0
M  V30 6626 H 649.567 -6.42671 -0.829301 0
M  V30 6627 N 642.974 0.416227 -1.52004 0
M  V30 6628 C 644.222 1.16153 -1.65387 0
M  V30 6629 C 644.543 1.91208 -0.382669 0
M  V30 6630 O 643.813 1.86413 0.602231 0
M  V30 6631 H 642.393 0.431765 -0.60958 0
M  V30 6632 H 645.055 0.475151 -1.89019 0
M  V30 6633 H 644.151 1.87952 -2.4916 0
M  V30 6634 N 644.452 1.42507 0.673017 0
M  V30 6635 C 645.415 1.4582 1.76831 0
M  V30 6636 C 646.415 0.345542 1.57043 0
M  V30 6637 O 647.605 0.606447 1.63303 0
M  V30 6638 C 644.737 1.29158 3.15485 0
M  V30 6639 H 645.93 2.43345 1.7528 0
M  V30 6640 H 643.483 1.28981 0.882817 0
M  V30 6641 H 644.218 0.325626 3.22661 0
M  V30 6642 H 644.003 2.09797 3.31252 0
M  V30 6643 H 645.493 1.34363 3.95394 0
M  V30 6644 N 645.93 -0.909495 1.28709 0
M  V30 6645 C 646.86 -2.0291 1.15542 0
M  V30 6646 C 647.841 -1.7002 0.0521017 0
M  V30 6647 O 649.026 -1.92835 0.229849 0
M  V30 6648 C 646.156 -3.37458 0.820935 0
M  V30 6649 C 645.11 -3.84524 1.87949 0
M  V30 6650 C 644.436 -5.16086 1.39854 0
M  V30 6651 C 645.736 -4.05918 3.28676 0
M  V30 6652 H 647.43 -2.14183 2.09203 0
M  V30 6653 H 644.976 -1.02913 1.00722 0
M  V30 6654 H 646.929 -4.1528 0.715571 0
M  V30 6655 H 645.653 -3.26249 -0.151374 0
M  V30 6656 H 644.312 -3.08911 1.97408 0
M  V30 6657 H 643.96 -5.01284 0.41518 0
M  V30 6658 H 643.66 -5.48547 2.1064 0
M  V30 6659 H 645.184 -5.96459 1.30649 0
M  V30 6660 H 646.598 -4.74252 3.22115 0
M  V30 6661 H 644.995 -4.49717 3.97334 0
M  V30 6662 H 646.065 -3.10583 3.72379 0
M  V30 6663 N 647.408 -1.11026 -1.11852 0
M  V30 6664 C 648.656 -0.854769 -1.83134 0
M  V30 6665 C 648.977 0.621375 -1.84835 0
M  V30 6666 O 648.247 1.45129 -1.31584 0
M  V30 6667 H 646.827 -0.313229 -0.678157 0
M  V30 6668 H 649.489 -1.40178 -1.35411 0
M  V30 6669 H 648.585 -1.22311 -2.87135 0
M  V30 6670 N 648.886 1.2938 -0.899927 0
M  V30 6671 C 650.132 1.9584 -0.526742 0
M  V30 6672 C 650.465 1.70774 0.924651 0
M  V30 6673 O 649.74 1.02084 1.65557 0
M  V30 6674 C 650.023 3.50638 -0.820062 0
M  V30 6675 C 649.876 3.85161 -2.32317 0
M  V30 6676 C 651.195 4.3903 -0.30671 0
M  V30 6677 H 648.314 0.711322 -0.192848 0
M  V30 6678 H 650.956 1.52992 -1.12665 0
M  V30 6679 H 649.106 3.87265 -0.309491 0
M  V30 6680 H 650.778 3.58477 -2.9033 0
M  V30 6681 H 649.021 3.32696 -2.78381 0
M  V30 6682 H 649.692 4.93204 -2.47898 0
M  V30 6683 H 652.168 4.09396 -0.743908 0
M  V30 6684 H 651.044 5.46226 -0.541144 0
M  V30 6685 H 651.305 4.34937 0.792588 0
M  V30 6686 N 650.364 0.662433 1.43002 0
M  V30 6687 C 651.612 0.179237 2.01304 0
M  V30 6688 C 651.933 -1.21428 1.52579 0
M  V30 6689 O 651.203 -1.81294 0.742252 0
M  V30 6690 H 649.783 0.0632725 0.744316 0
M  V30 6691 H 652.445 0.856169 1.75088 0
M  V30 6692 H 651.541 0.170957 3.11631 0
M  V30 6693 N 651.842 -1.52309 0.404946 0
M  V30 6694 C 653.089 -2.01767 -0.1722 0
M  V30 6695 C 653.417 -1.29075 -1.45498 0
M  V30 6696 O 652.672 -0.3843 -1.9189 0
M  V30 6697 C 652.971 -3.54284 -0.470895 0
M  V30 6698 C 652.637 -4.45079 0.722194 0
M  V30 6699 C 651.299 -4.69617 1.04946 0
M  V30 6700 C 653.651 -4.98555 1.51962 0
M  V30 6701 C 650.979 -5.44878 2.17543 0
M  V30 6702 C 653.331 -5.75049 2.63632 0
M  V30 6703 C 651.995 -5.9786 2.9685 0
M  V30 6704 H 651.265 -0.738316 -0.0630125 0
M  V30 6705 H 653.912 -1.83566 0.545506 0
M  V30 6706 H 652.217 -3.70642 -1.27012 0
M  V30 6707 H 653.914 -3.90058 -0.930346 0
M  V30 6708 H 650.504 -4.26155 0.457131 0
M  V30 6709 H 654.688 -4.79509 1.28002 0
M  V30 6710 H 649.944 -5.60762 2.43631 0
M  V30 6711 H 654.118 -6.15483 3.25813 0
M  V30 6712 H 651.745 -6.5596 3.84215 0
M  V30 6713 N 653.32 -0.135238 -1.57019 0
M  V30 6714 C 654.568 0.51777 -1.95355 0
M  V30 6715 C 654.889 1.6617 -1.02042 0
M  V30 6716 O 654.159 1.95738 -0.0797343 0
M  V30 6717 H 652.739 0.194264 -0.721298 0
M  V30 6718 H 655.401 -0.207983 -1.93787 0
M  V30 6719 H 654.497 0.901675 -2.98791 0
M  V30 6720 N 654.798 1.5699 0.138552 0
M  V30 6721 C 655.731 1.94064 1.2006 0
M  V30 6722 C 656.709 0.807601 1.41126 0
M  V30 6723 O 657.893 1.06399 1.556 0
M  V30 6724 C 655.02 2.21999 2.55801 0
M  V30 6725 C 654.066 3.44617 2.5128 0
M  V30 6726 S 654.899 4.97888 1.97149 0
M  V30 6727 C 656.055 5.28954 3.34602 0
M  V30 6728 H 656.288 2.83843 0.884337 0
M  V30 6729 H 653.821 1.50507 0.344517 0
M  V30 6730 H 655.779 2.38772 3.33914 0
M  V30 6731 H 654.44 1.32869 2.84613 0
M  V30 6732 H 653.633 3.61466 3.51224 0
M  V30 6733 H 653.235 3.27129 1.8128 0
M  V30 6734 H 655.527 5.22938 4.30745 0
M  V30 6735 H 656.47 6.30346 3.22598 0
M  V30 6736 H 656.878 4.56455 3.32128 0
M  V30 6737 N 656.276 -0.40816 1.52223 0
M  V30 6738 C 657.553 -1.16807 1.56893 0
M  V30 6739 C 657.933 -2.08169 0.350537 0
M  V30 6740 O 657.281 -2.18684 -0.662536 0
M  V30 6741 C 657.491 -1.94451 2.8981 0
M  V30 6742 C 658.839 -2.50484 3.42845 0
M  V30 6743 O 659.863 -2.0463 2.91556 0
M  V30 6744 O 658.722 -3.34192 4.3241 0
M  V30 6745 H 655.816 -0.533382 0.632007 0
M  V30 6746 H 658.362 -0.414862 1.64551 0
M  V30 6747 H 657.134 -1.27527 3.69936 0
M  V30 6748 H 656.757 -2.76775 2.85449 0
M  V30 6749 N 657.755 -1.42862 -0.66545 0
M  V30 6750 C 659.003 -1.43546 -1.42264 0
M  V30 6751 C 659.324 -0.0563116 -1.94919 0
M  V30 6752 O 658.594 0.906568 -1.73661 0
M  V30 6753 H 657.174 -0.528464 -0.527953 0
M  V30 6754 H 659.836 -1.78363 -0.785665 0
M  V30 6755 H 658.932 -2.14079 -2.27105 0
M  V30 6756 N 659.233 0.902656 -1.29189 0
M  V30 6757 C 660.18 2.00643 -1.14066 0
M  V30 6758 C 661.15 1.66064 -0.0347756 0
M  V30 6759 O 662.335 1.8973 -0.201752 0
M  V30 6760 C 659.475 3.35214 -0.820104 0
M  V30 6761 C 658.588 3.82594 -2.00614 0
M  V30 6762 C 657.723 5.05727 -1.62522 0
M  V30 6763 C 656.762 5.45469 -2.77724 0
M  V30 6764 N 655.899 6.59789 -2.40048 0
M  V30 6765 H 660.739 2.1291 -2.08502 0
M  V30 6766 H 658.276 1.04271 -1.03759 0
M  V30 6767 H 660.234 4.12643 -0.614949 0
M  V30 6768 H 658.864 3.22682 0.0873452 0
M  V30 6769 H 657.916 3.01226 -2.32308 0
M  V30 6770 H 659.228 4.07999 -2.86946 0
M  V30 6771 H 658.382 5.90732 -1.38277 0
M  V30 6772 H 657.121 4.82155 -0.733333 0
M  V30 6773 H 656.126 4.59 -3.02653 0
M  V30 6774 H 657.351 5.71024 -3.67572 0
M  V30 6775 H 655.297 6.37826 -1.53343 0
M  V30 6776 H 655.214 6.84975 -3.19914 0
M  V30 6777 H 656.482 7.4807 -2.19116 0
M  V30 6778 N 660.711 1.11618 1.11262 0
M  V30 6779 C 661.959 0.864469 1.82678 0
M  V30 6780 C 662.28 -0.611564 1.85162 0
M  V30 6781 O 661.55 -1.44429 1.32352 0
M  V30 6782 H 660.13 0.316821 0.676486 0
M  V30 6783 H 662.792 1.40894 1.34666 0
M  V30 6784 H 661.888 1.23832 2.86482 0
M  V30 6785 N 662.189 -1.289 0.906776 0
M  V30 6786 C 663.122 -2.25737 0.334362 0
M  V30 6787 C 664.1 -1.52745 -0.557474 0
M  V30 6788 O 665.284 -1.81673 -0.502697 0
M  V30 6789 C 662.411 -3.34642 -0.522716 0
M  V30 6790 C 661.457 -4.25424 0.302777 0
M  V30 6791 S 662.29 -5.07629 1.70508 0
M  V30 6792 C 663.446 -6.20031 0.855118 0
M  V30 6793 H 663.679 -2.73941 1.15514 0
M  V30 6794 H 661.212 -1.37233 0.707573 0
M  V30 6795 H 663.17 -3.97845 -1.01141 0
M  V30 6796 H 661.831 -2.85119 -1.31781 0
M  V30 6797 H 661.024 -5.02767 -0.352257 0
M  V30 6798 H 660.626 -3.66908 0.724873 0
M  V30 6799 H 662.918 -6.77451 0.0816418 0
M  V30 6800 H 663.861 -6.89767 1.60087 0
M  V30 6801 H 664.269 -5.63035 0.406375 0
M  V30 6802 N 663.667 -0.670007 -1.42649 0
M  V30 6803 C 664.897 -0.198252 -2.05647 0
M  V30 6804 C 665.305 1.14786 -1.50402 0
M  V30 6805 O 664.648 1.72316 -0.636634 0
M  V30 6806 C 664.71 -0.0507132 -3.59464 0
M  V30 6807 C 664.374 -1.32478 -4.37377 0
M  V30 6808 C 665.371 -2.2572 -4.68344 0
M  V30 6809 C 663.056 -1.57104 -4.77099 0
M  V30 6810 C 665.05 -3.4187 -5.37963 0
M  V30 6811 C 662.737 -2.73543 -5.46459 0
M  V30 6812 C 663.735 -3.65751 -5.76815 0
M  V30 6813 O 663.423 -4.80154 -6.44753 0
M  V30 6814 H 663.155 -0.0950721 -0.669281 0
M  V30 6815 H 665.709 -0.915745 -1.83857 0
M  V30 6816 H 663.939 0.722314 -3.79894 0
M  V30 6817 H 665.628 0.380552 -4.04112 0
M  V30 6818 H 666.394 -2.07943 -4.38161 0
M  V30 6819 H 662.273 -0.862069 -4.52868 0
M  V30 6820 H 665.817 -4.13861 -5.61574 0
M  V30 6821 H 661.714 -2.91248 -5.7606 0
M  V30 6822 H 662.482 -4.79637 -6.63243 0
M  V30 6823 N 665.145 1.52092 -0.413018 0
M  V30 6824 C 666.391 2.02154 0.161737 0
M  V30 6825 C 666.724 1.29789 1.44459 0
M  V30 6826 O 665.999 0.405378 1.90229 0
M  V30 6827 C 666.282 3.5781 0.405463 0
M  V30 6828 C 666.135 4.40819 -0.894335 0
M  V30 6829 C 667.454 4.23821 1.18591 0
M  V30 6830 H 664.573 0.734769 0.0573077 0
M  V30 6831 H 667.215 1.81948 -0.547247 0
M  V30 6832 H 665.365 3.75158 1.0094 0
M  V30 6833 H 667.037 4.35175 -1.53039 0
M  V30 6834 H 665.28 4.06877 -1.50444 0
M  V30 6835 H 665.951 5.47819 -0.678144 0
M  V30 6836 H 668.427 4.10596 0.674573 0
M  V30 6837 H 667.303 5.32663 1.3252 0
M  V30 6838 H 667.564 3.83038 2.20758 0
M  V30 6839 N 666.623 0.143563 1.56945 0
M  V30 6840 C 667.848 -0.518701 2.00809 0
M  V30 6841 C 668.273 -1.5785 1.02298 0
M  V30 6842 O 667.631 -1.813 -0.0017839 0
M  V30 6843 C 667.679 -1.09929 3.43436 0
M  V30 6844 O 666.783 -2.21425 3.47915 0
M  V30 6845 H 666.124 -0.127215 0.6517 0
M  V30 6846 H 668.654 0.239283 2.03196 0
M  V30 6847 H 668.664 -1.4288 3.82164 0
M  V30 6848 H 667.339 -0.323162 4.14643 0
M  V30 6849 H 665.916 -1.89728 3.21026 0
M  V30 6850 N 668.101 -1.57061 -0.130224 0
M  V30 6851 C 669.049 -2.00486 -1.17933 0
M  V30 6852 C 670.043 -0.899933 -1.43519 0
M  V30 6853 O 671.249 -1.08514 -1.43613 0
M  V30 6854 H 667.624 -0.638441 -0.397363 0
M  V30 6855 H 669.595 -2.87848 -0.786501 0
M  V30 6856 C 668.344 -2.41565 -2.50084 0
M  V30 6857 H 667.667 -3.26148 -2.31231 0
M  V30 6858 H 669.107 -2.75757 -3.22078 0
M  V30 6859 C 667.566 -1.27485 -3.11848 0
M  V30 6860 O 668.096 -0.584688 -3.97422 0
M  V30 6861 N 666.302 -1.03478 -2.71552 0
M  V30 6862 H 665.849 -1.59779 -2.02061 0
M  V30 6863 H 665.807 -0.27341 -3.13209 0
M  V30 6864 N 669.579 0.400081 -1.52437 0
M  V30 6865 C 670.828 1.14332 -1.66166 0
M  V30 6866 C 671.141 1.91419 -0.402253 0
M  V30 6867 O 672.347 2.6824 -0.419487 0
M  V30 6868 C 670.803 2.08137 -2.9361 0
M  V30 6869 C 670.411 1.36524 -4.26691 0
M  V30 6870 C 672.155 2.82664 -3.16703 0
M  V30 6871 C 670.062 2.29031 -5.45251 0
M  V30 6872 H 668.992 0.430499 -0.61902 0
M  V30 6873 H 671.643 0.407017 -1.78929 0
M  V30 6874 H 670.025 2.85358 -2.74567 0
M  V30 6875 H 671.199 0.646061 -4.56249 0
M  V30 6876 H 669.514 0.74002 -4.09771 0
M  V30 6877 H 672.111 3.52037 -4.0246 0
M  V30 6878 H 672.454 3.46122 -2.31312 0
M  V30 6879 H 672.987 2.12541 -3.36261 0
M  V30 6880 H 669.726 1.70206 -6.33017 0
M  V30 6881 H 669.246 2.98896 -5.2002 0
M  V30 6882 H 670.925 2.89359 -5.78689 0
M  V30 6883 N 671.057 1.43213 0.657864 0
M  V30 6884 C 672.285 1.48015 1.44566 0
M  V30 6885 C 672.7 0.0965951 1.88553 0
M  V30 6886 O 672.057 -0.892221 1.59203 0
M  V30 6887 C 672.108 2.42199 2.68369 0
M  V30 6888 O 671.829 3.75173 2.26223 0
M  V30 6889 C 673.33 2.56195 3.61772 0
M  V30 6890 H 670.55 0.502861 0.444266 0
M  V30 6891 H 673.094 1.87907 0.806917 0
M  V30 6892 H 671.249 2.05514 3.28394 0
M  V30 6893 H 671.663 4.25776 3.06293 0
M  V30 6894 H 673.137 3.26182 4.4532 0
M  V30 6895 H 673.614 1.60534 4.0881 0
M  V30 6896 H 674.22 2.93671 3.07632 0
M  V30 6897 N 672.536 -0.895792 1.29666 0
M  V30 6898 C 673.782 -1.64908 1.18039 0
M  V30 6899 C 674.115 -1.9236 -0.266682 0
M  V30 6900 O 673.39 -1.53682 -1.19214 0
M  V30 6901 C 673.673 -2.99574 1.99819 0
M  V30 6902 C 673.526 -2.79163 3.52687 0
M  V30 6903 C 674.845 -4.00358 1.82761 0
M  V30 6904 H 671.964 -0.598437 0.430165 0
M  V30 6905 H 674.606 -1.03736 1.59182 0
M  V30 6906 H 672.756 -3.51786 1.64859 0
M  V30 6907 H 674.428 -2.33821 3.9765 0
M  V30 6908 H 672.671 -2.13871 3.77414 0
M  V30 6909 H 673.342 -3.74871 4.05186 0
M  V30 6910 H 675.818 -3.57268 2.13304 0
M  V30 6911 H 674.694 -4.92514 2.42325 0
M  V30 6912 H 674.955 -4.35096 0.783839 0
M  V30 6913 N 674.014 -1.12206 -1.10668 0
M  V30 6914 C 674.924 -0.800686 -2.20513 0
M  V30 6915 C 675.94 0.209512 -1.72734 0
M  V30 6916 O 677.116 0.043705 -2.01353 0
M  V30 6917 C 674.181 -0.257353 -3.45744 0
M  V30 6918 C 673.242 -1.32718 -4.0827 0
M  V30 6919 C 672.475 -0.809674 -5.27522 0
M  V30 6920 O 672.698 0.35742 -5.69279 0
M  V30 6921 O 671.632 -1.57816 -5.80842 0
M  V30 6922 H 675.458 -1.71807 -2.50432 0
M  V30 6923 H 673.043 -0.898546 -1.19359 0
M  V30 6924 H 674.925 0.0408849 -4.2138 0
M  V30 6925 H 673.6 0.632627 -3.17458 0
M  V30 6926 H 672.507 -1.67855 -3.34329 0
M  V30 6927 H 673.84 -2.19083 -4.40753 0
M  V30 6928 N 675.492 1.28418 -0.913599 0
M  V30 6929 C 676.769 1.89977 -0.465619 0
M  V30 6930 C 677.149 1.82813 1.05559 0
M  V30 6931 O 676.497 1.26397 1.90358 0
M  V30 6932 C 676.707 3.34492 -0.995813 0
M  V30 6933 C 678.055 4.11468 -1.04782 0
M  V30 6934 O 679.079 3.43451 -0.944445 0
M  V30 6935 O 677.938 5.33046 -1.20518 0
M  V30 6936 H 675.032 0.813734 -0.147532 0
M  V30 6937 H 677.578 1.36786 -1.00437 0
M  V30 6938 H 676.35 3.33929 -2.03978 0
M  V30 6939 H 675.973 3.95181 -0.437878 0
M  V30 6940 N 676.97 0.677563 1.42291 0
M  V30 6941 C 678.21 0.204894 2.0337 0
M  V30 6942 C 678.574 -1.16744 1.5243 0
M  V30 6943 O 679.775 -1.73492 2.05314 0
M  V30 6944 C 678.046 0.240742 3.56588 0
M  V30 6945 S 679.605 -0.16052 4.38506 0
M  V30 6946 H 676.423 0.0839932 0.706021 0
M  V30 6947 H 679.025 0.891332 1.73999 0
M  V30 6948 H 677.729 1.24184 3.91161 0
M  V30 6949 H 677.26 -0.465439 3.90637 0
M  V30 6950 H 679.275 -1.39315 4.76241 0
M  V30 6951 N 678.448 -1.51871 0.421078 0
M  V30 6952 C 679.411 -2.25914 -0.386712 0
M  V30 6953 C 680.411 -1.28733 -0.963555 0
M  V30 6954 O 681.601 -1.52579 -0.840556 0
M  V30 6955 C 678.733 -3.03853 -1.54551 0
M  V30 6956 H 679.926 -2.98754 0.261978 0
M  V30 6957 H 677.479 -1.5533 0.173862 0
M  V30 6958 H 678.214 -2.35392 -2.23072 0
M  V30 6959 H 677.999 -3.75215 -1.13824 0
M  V30 6960 H 679.489 -3.59984 -2.11663 0
M  V30 6961 N 679.926 -0.151884 -1.56866 0
M  V30 6962 C 681.174 0.497021 -1.95893 0
M  V30 6963 C 681.495 1.65078 -1.03799 0
M  V30 6964 O 680.765 1.95642 -0.10049 0
M  V30 6965 H 679.345 0.186603 -0.723318 0
M  V30 6966 H 682.007 -0.228525 -1.93556 0
M  V30 6967 H 681.103 0.869933 -2.99731 0
M  V30 6968 N 681.404 1.57128 0.121893 0
M  V30 6969 C 682.629 1.89254 0.848385 0
M  V30 6970 C 683.054 0.743527 1.72781 0
M  V30 6971 O 682.412 -0.306056 1.78698 0
M  V30 6972 C 682.46 3.20113 1.66012 0
M  V30 6973 O 681.564 3.05815 2.76679 0
M  V30 6974 H 680.905 0.621103 0.234793 0
M  V30 6975 H 683.435 2.0433 0.10516 0
M  V30 6976 H 683.445 3.52761 2.04996 0
M  V30 6977 H 682.12 4.03336 1.01452 0
M  V30 6978 H 680.697 2.84627 2.40918 0
M  V30 6979 N 682.882 -0.391992 1.52647 0
M  V30 6980 C 684.13 -1.13507 1.67214 0
M  V30 6981 C 684.451 -1.90575 0.41304 0
M  V30 6982 O 683.721 -1.87348 -0.572498 0
M  V30 6983 H 682.301 -0.422013 0.616372 0
M  V30 6984 H 684.963 -0.44502 1.89751 0
M  V30 6985 H 684.059 -1.83964 2.52118 0
M  V30 6986 N 684.36 -1.4356 -0.65026 0
M  V30 6987 C 685.323 -1.48615 -1.74489 0
M  V30 6988 C 686.323 -0.370483 -1.56474 0
M  V30 6989 O 687.513 -0.632351 -1.62317 0
M  V30 6990 C 684.645 -1.34161 -3.13391 0
M  V30 6991 H 685.838 -2.46103 -1.71387 0
M  V30 6992 H 683.391 -1.30369 -0.862186 0
M  V30 6993 H 684.126 -0.376918 -3.22102 0
M  V30 6994 H 683.911 -2.1504 -3.27872 0
M  V30 6995 H 685.401 -1.40637 -3.93206 0
M  V30 6996 N 685.838 0.888903 -1.30139 0
M  V30 6997 C 687.068 1.67115 -1.21474 0
M  V30 6998 C 687.476 1.87852 0.225472 0
M  V30 6999 O 686.819 1.42324 1.16145 0
M  V30 7000 C 686.881 3.0713 -1.86846 0
M  V30 7001 C 686.545 3.09582 -3.36167 0
M  V30 7002 C 687.542 2.88929 -4.32222 0
M  V30 7003 C 685.227 3.31304 -3.77549 0
M  V30 7004 C 687.221 2.89949 -5.67634 0
M  V30 7005 C 684.908 3.31954 -5.13079 0
M  V30 7006 C 685.906 3.113 -6.07932 0
M  V30 7007 O 685.594 3.11758 -7.40987 0
M  V30 7008 H 685.326 0.528372 -0.421662 0
M  V30 7009 H 687.88 1.11919 -1.7223 0
M  V30 7010 H 686.11 3.63973 -1.30615 0
M  V30 7011 H 687.799 3.6749 -1.72354 0
M  V30 7012 H 688.565 2.71948 -4.01584 0
M  V30 7013 H 684.444 3.46417 -3.04165 0
M  V30 7014 H 687.988 2.73746 -6.41645 0
M  V30 7015 H 683.885 3.48469 -5.43359 0
M  V30 7016 H 684.653 3.27951 -7.49927 0
M  V30 7017 N 687.317 1.12792 1.10072 0
M  V30 7018 C 688.247 0.821688 2.18565 0
M  V30 7019 C 689.228 -0.21612 1.68721 0
M  V30 7020 O 690.413 -0.0764932 1.94049 0
M  V30 7021 C 687.543 0.279624 3.46172 0
M  V30 7022 C 686.497 1.25092 4.09312 0
M  V30 7023 C 685.823 0.568916 5.31665 0
M  V30 7024 C 687.123 2.60699 4.52585 0
M  V30 7025 H 688.817 1.72888 2.44438 0
M  V30 7026 H 686.363 0.832702 1.17482 0
M  V30 7027 H 688.316 0.053099 4.21367 0
M  V30 7028 H 687.04 -0.662929 3.19801 0
M  V30 7029 H 685.699 1.46332 3.36129 0
M  V30 7030 H 685.347 -0.378898 5.01571 0
M  V30 7031 H 685.047 1.21687 5.74862 0
M  V30 7032 H 686.571 0.351517 6.09587 0
M  V30 7033 H 687.985 2.43465 5.19035 0
M  V30 7034 H 686.382 3.21608 5.06644 0
M  V30 7035 H 687.452 3.1886 3.65317 0
M  V30 7036 N 688.795 -1.27931 0.920396 0
M  V30 7037 C 689.725 -2.29487 0.431024 0
M  V30 7038 C 690.706 -1.62435 -0.504861 0
M  V30 7039 O 691.891 -1.89797 -0.411176 0
M  V30 7040 C 689.021 -3.45788 -0.323709 0
M  V30 7041 C 687.975 -4.24784 0.523658 0
M  V30 7042 C 687.301 -5.33488 -0.359809 0
M  V30 7043 C 688.601 -4.90874 1.78437 0
M  V30 7044 H 690.295 -2.70671 1.27975 0
M  V30 7045 H 687.841 -1.30121 0.616813 0
M  V30 7046 H 689.794 -4.15927 -0.676952 0
M  V30 7047 H 688.518 -3.03502 -1.2064 0
M  V30 7048 H 687.177 -3.56382 0.85951 0
M  V30 7049 H 686.825 -4.87445 -1.24124 0
M  V30 7050 H 686.525 -5.87247 0.203605 0
M  V30 7051 H 688.049 -6.06472 -0.708787 0
M  V30 7052 H 689.463 -5.53339 1.49963 0
M  V30 7053 H 687.86 -5.54659 2.29071 0
M  V30 7054 H 688.93 -4.14988 2.50824 0
M  V30 7055 N 690.273 -0.685099 -1.4193 0
M  V30 7056 C 691.501 -0.220372 -2.05723 0
M  V30 7057 C 691.916 1.12642 -1.51516 0
M  V30 7058 O 691.273 1.70182 -0.659114 0
M  V30 7059 C 691.324 -0.157974 -3.61155 0
M  V30 7060 O 691.045 -1.45156 -4.13354 0
M  V30 7061 C 692.546 0.329009 -4.42077 0
M  V30 7062 H 689.766 -0.104725 -0.662777 0
M  V30 7063 H 692.31 -0.934736 -1.81887 0
M  V30 7064 H 690.465 0.507144 -3.84066 0
M  V30 7065 H 690.879 -1.33172 -5.07312 0
M  V30 7066 H 692.353 0.321559 -5.51063 0
M  V30 7067 H 692.83 1.36608 -4.17414 0
M  V30 7068 H 693.436 -0.304737 -4.24207 0
M  V30 7069 N 691.751 1.51645 -0.429126 0
M  V30 7070 C 692.701 2.24388 0.404217 0
M  V30 7071 C 693.685 1.26294 0.996933 0
M  V30 7072 O 694.877 1.51428 0.916434 0
M  V30 7073 C 692.006 3.08338 1.50938 0
M  V30 7074 C 691.092 4.13857 0.926464 0
M  V30 7075 N 691.483 5.05749 0.0719732 0
M  V30 7076 C 689.781 4.29695 1.19491 0
M  V30 7077 C 690.482 5.81143 -0.254528 0
M  V30 7078 N 689.458 5.42408 0.359763 0
M  V30 7079 H 693.26 2.92794 -0.254697 0
M  V30 7080 H 690.774 1.60606 -0.240712 0
M  V30 7081 H 692.771 3.59022 2.11918 0
M  V30 7082 H 691.431 2.41475 2.17072 0
M  V30 7083 H 692.442 5.17066 -0.293854 0
M  V30 7084 H 689.119 3.74059 1.85434 0
M  V30 7085 H 690.509 6.65159 -0.949365 0
M  V30 7086 N 693.229 0.160201 1.56784 0
M  V30 7087 C 694.139 -0.787167 2.21 0
M  V30 7088 C 695.155 -1.26167 1.19825 0
M  V30 7089 O 696.331 -1.31611 1.52448 0
M  V30 7090 C 693.396 -2.00364 2.8294 0
M  V30 7091 C 692.457 -1.5771 3.99282 0
M  V30 7092 C 691.69 -2.73558 4.58259 0
M  V30 7093 O 691.913 -3.90129 4.16119 0
M  V30 7094 O 690.847 -2.48271 5.48311 0
M  V30 7095 H 694.673 -0.270462 3.02493 0
M  V30 7096 H 692.258 -0.0674666 1.49248 0
M  V30 7097 H 694.14 -2.71529 3.22257 0
M  V30 7098 H 692.815 -2.50961 2.04451 0
M  V30 7099 H 691.722 -0.835274 3.64656 0
M  V30 7100 H 693.055 -1.11815 4.79331 0
M  V30 7101 N 694.707 -1.5719 -0.113559 0
M  V30 7102 C 695.932 -1.89702 -0.838336 0
M  V30 7103 C 696.357 -0.752679 -1.72384 0
M  V30 7104 O 695.715 0.296575 -1.78858 0
M  V30 7105 C 695.763 -3.20989 -1.64312 0
M  V30 7106 O 694.867 -3.07278 -2.75053 0
M  V30 7107 H 694.208 -0.622339 -0.231496 0
M  V30 7108 H 696.738 -2.04382 -0.0943228 0
M  V30 7109 H 696.748 -3.53843 -2.03123 0
M  V30 7110 H 695.423 -4.03869 -0.993119 0
M  V30 7111 H 694 -2.85901 -2.39406 0
M  V30 7112 N 696.185 0.383891 -1.52853 0
M  V30 7113 C 697.431 1.13009 -1.68395 0
M  V30 7114 C 697.764 1.89488 -0.425195 0
M  V30 7115 O 697.039 1.8574 0.577136 0
M  V30 7116 C 697.322 2.10419 -2.92226 0
M  V30 7117 C 697.175 1.3767 -4.28214 0
M  V30 7118 C 698.494 3.10781 -3.11614 0
M  V30 7119 H 695.613 0.409463 -0.612788 0
M  V30 7120 H 698.255 0.412895 -1.85459 0
M  V30 7121 H 696.405 2.71579 -2.77808 0
M  V30 7122 H 698.077 0.794352 -4.54409 0
M  V30 7123 H 696.32 0.678533 -4.2846 0
M  V30 7124 H 696.991 2.08874 -5.10956 0
M  V30 7125 H 699.467 2.59715 -3.25096 0
M  V30 7126 H 698.343 3.76179 -3.99725 0
M  V30 7127 H 698.604 3.79933 -2.2606 0
M  V30 7128 N 697.663 1.43903 0.642637 0
M  V30 7129 C 698.91 1.46079 1.40239 0
M  V30 7130 C 699.238 0.0890335 1.94296 0
M  V30 7131 O 698.493 -0.907533 1.73385 0
M  V30 7132 C 698.792 2.45907 2.59354 0
M  V30 7133 C 698.458 3.91522 2.23654 0
M  V30 7134 C 697.12 4.31179 2.1363 0
M  V30 7135 C 699.472 4.83242 1.95261 0
M  V30 7136 C 696.8 5.60495 1.73384 0
M  V30 7137 C 699.152 6.12933 1.56511 0
M  V30 7138 C 697.816 6.51556 1.4502 0
M  V30 7139 H 697.086 0.534542 0.513172 0
M  V30 7140 H 699.733 1.77047 0.72984 0
M  V30 7141 H 698.038 2.08381 3.3179 0
M  V30 7142 H 699.735 2.44842 3.17574 0
M  V30 7143 H 696.325 3.60142 2.32369 0
M  V30 7144 H 700.509 4.53367 2.0192 0
M  V30 7145 H 695.765 5.89249 1.63082 0
M  V30 7146 H 699.939 6.83469 1.33576 0
M  V30 7147 H 697.566 7.51663 1.13606 0
M  V30 7148 N 699.141 -0.881989 1.30609 0
M  V30 7149 C 700.369 -1.66711 1.22536 0
M  V30 7150 C 700.784 -1.87614 -0.2113 0
M  V30 7151 O 700.141 -1.42576 -1.13923 0
M  V30 7152 C 700.192 -3.04182 1.95335 0
M  V30 7153 O 699.913 -2.8422 3.33393 0
M  V30 7154 C 701.414 -3.98617 1.93956 0
M  V30 7155 H 698.634 -0.520124 0.423925 0
M  V30 7156 H 701.178 -1.10174 1.72285 0
M  V30 7157 H 699.333 -3.57442 1.49378 0
M  V30 7158 H 699.747 -3.71452 3.70302 0
M  V30 7159 H 701.221 -4.92433 2.49426 0
M  V30 7160 H 701.698 -4.29473 0.919198 0
M  V30 7161 H 702.304 -3.51292 2.39738 0
M  V30 7162 N 700.619 -1.13374 -1.09472 0
M  V30 7163 C 701.567 -0.806105 -2.18185 0
M  V30 7164 C 702.561 0.21136 -1.68076 0
M  V30 7165 O 703.767 0.0685558 -1.79869 0
M  V30 7166 H 700.142 -0.242901 -0.71169 0
M  V30 7167 H 702.113 -1.73115 -2.43051 0
M  V30 7168 C 700.862 -0.287928 -3.46506 0
M  V30 7169 H 700.185 -1.06217 -3.85432 0
M  V30 7170 H 701.625 -0.0971054 -4.23889 0
M  V30 7171 C 700.084 0.986256 -3.22141 0
M  V30 7172 O 700.614 2.06217 -3.44728 0
M  V30 7173 N 698.82 0.917153 -2.75747 0
M  V30 7174 H 698.367 0.0414609 -2.57567 0
M  V30 7175 H 698.325 1.77029 -2.59823 0
M  V30 7176 N 702.098 1.27442 -0.927168 0
M  V30 7177 C 703.347 1.93679 -0.563146 0
M  V30 7178 C 703.66 1.73673 0.899837 0
M  V30 7179 O 704.866 2.34247 1.37262 0
M  V30 7180 C 703.322 3.46961 -0.95636 0
M  V30 7181 C 702.93 3.75724 -2.43999 0
M  V30 7182 C 704.674 4.19282 -0.663565 0
M  V30 7183 C 702.581 5.22378 -2.77263 0
M  V30 7184 H 701.511 0.725059 -0.206894 0
M  V30 7185 H 704.162 1.44743 -1.12791 0
M  V30 7186 H 702.544 3.94703 -0.320254 0
M  V30 7187 H 703.718 3.38741 -3.12396 0
M  V30 7188 H 702.033 3.16605 -2.70463 0
M  V30 7189 H 704.63 5.27265 -0.888596 0
M  V30 7190 H 704.973 4.14382 0.399198 0
M  V30 7191 H 705.506 3.7736 -1.25875 0
M  V30 7192 H 702.245 5.32367 -3.82446 0
M  V30 7193 H 701.765 5.6051 -2.13516 0
M  V30 7194 H 703.444 5.9025 -2.64979 0
M  V30 7195 N 703.576 0.692616 1.41565 0
M  V30 7196 C 704.539 0.0344174 2.29174 0
M  V30 7197 C 705.539 -0.710961 1.44229 0
M  V30 7198 O 706.729 -0.546293 1.65412 0
M  V30 7199 C 703.861 -0.961682 3.27054 0
M  V30 7200 H 705.054 0.805755 2.88873 0
M  V30 7201 H 702.607 0.455947 1.49502 0
M  V30 7202 H 703.342 -1.76089 2.72329 0
M  V30 7203 H 703.127 -0.430375 3.89731 0
M  V30 7204 H 704.617 -1.4201 3.92712 0
M  V30 7205 N 705.054 -1.51416 0.437162 0
M  V30 7206 C 706.303 -2.01275 -0.130865 0
M  V30 7207 C 706.616 -1.32593 -1.438 0
M  V30 7208 O 707.822 -1.7342 -2.08897 0
M  V30 7209 C 706.278 -3.5878 -0.283763 0
M  V30 7210 C 705.886 -4.36399 1.01293 0
M  V30 7211 C 707.63 -4.16786 -0.805569 0
M  V30 7212 C 705.537 -5.85608 0.825687 0
M  V30 7213 H 704.467 -0.752157 -0.0526818 0
M  V30 7214 H 707.118 -1.74524 0.566896 0
M  V30 7215 H 705.5 -3.81976 -1.04452 0
M  V30 7216 H 706.674 -4.24948 1.78201 0
M  V30 7217 H 704.989 -3.89843 1.46326 0
M  V30 7218 H 707.586 -5.25972 -0.962146 0
M  V30 7219 H 707.929 -3.75949 -1.78796 0
M  V30 7220 H 708.462 -3.97666 -0.103125 0
M  V30 7221 H 705.201 -6.30857 1.78045 0
M  V30 7222 H 704.721 -5.99723 0.0964029 0
M  V30 7223 H 706.4 -6.45226 0.478815 0
M  V30 7224 N 706.532 -0.168513 -1.56696 0
M  V30 7225 C 707.781 0.477233 -1.95973 0
M  V30 7226 C 708.094 1.64578 -1.05704 0
M  V30 7227 O 709.3 2.35758 -1.3465 0
M  V30 7228 C 707.756 0.900413 -3.48455 0
M  V30 7229 C 707.364 -0.242382 -4.47344 0
M  V30 7230 C 709.108 1.51474 -3.96555 0
M  V30 7231 C 707.015 0.200272 -5.91061 0
M  V30 7232 H 705.945 0.182061 -0.73169 0
M  V30 7233 H 708.596 -0.256297 -1.81701 0
M  V30 7234 H 706.978 1.68984 -3.58135 0
M  V30 7235 H 708.152 -1.01967 -4.49377 0
M  V30 7236 H 706.467 -0.766484 -4.09285 0
M  V30 7237 H 709.064 1.85792 -5.01384 0
M  V30 7238 H 709.407 2.41163 -3.39332 0
M  V30 7239 H 709.94 0.789802 -3.89881 0
M  V30 7240 H 706.679 -0.661775 -6.52151 0
M  V30 7241 H 706.199 0.942979 -5.92341 0
M  V30 7242 H 707.878 0.645088 -6.43776 0
M  V30 7243 N 708.01 1.57248 0.105221 0
M  V30 7244 C 709.287 1.76566 0.841647 0
M  V30 7245 C 709.667 0.747566 1.9742 0
M  V30 7246 O 709.015 -0.225886 2.27381 0
M  V30 7247 C 709.225 3.22016 1.3456 0
M  V30 7248 C 710.573 3.84911 1.79244 0
M  V30 7249 O 711.597 3.25703 1.44207 0
M  V30 7250 O 710.456 4.89008 2.43995 0
M  V30 7251 H 707.55 0.723443 0.400698 0
M  V30 7252 H 710.096 1.69472 0.0878893 0
M  V30 7253 H 708.868 3.87644 0.533685 0
M  V30 7254 H 708.491 3.33703 2.16167 0
M  V30 7255 N 709.488 -0.375779 1.53054 0
M  V30 7256 C 710.716 -1.14036 1.72637 0
M  V30 7257 C 711.131 -1.83342 0.450687 0
M  V30 7258 O 710.488 -1.7318 -0.575749 0
M  V30 7259 C 710.539 -2.17841 2.88492 0
M  V30 7260 O 710.26 -1.51358 4.11123 0
M  V30 7261 C 711.761 -3.06924 3.19863 0
M  V30 7262 H 708.981 -0.341386 0.577665 0
M  V30 7263 H 711.525 -0.437809 1.99759 0
M  V30 7264 H 709.68 -2.8371 2.63794 0
M  V30 7265 H 710.094 -2.20439 4.75928 0
M  V30 7266 H 711.568 -3.75763 4.04359 0
M  V30 7267 H 712.045 -3.71169 2.34798 0
M  V30 7268 H 712.651 -2.46684 3.46449 0
M  V30 7269 N 710.966 -1.44241 -0.634997 0
M  V30 7270 C 711.914 -1.51103 -1.76835 0
M  V30 7271 C 712.908 -0.383051 -1.65012 0
M  V30 7272 O 714.114 -0.557832 -1.71138 0
M  V30 7273 H 710.489 -0.474076 -0.583743 0
M  V30 7274 H 712.46 -2.46499 -1.68169 0
M  V30 7275 C 711.209 -1.4687 -3.15158 0
M  V30 7276 H 710.532 -2.32979 -3.24901 0
M  V30 7277 H 711.972 -1.55731 -3.94365 0
M  V30 7278 C 710.431 -0.188884 -3.3637 0
M  V30 7279 O 710.961 0.742487 -3.94778 0
M  V30 7280 N 709.167 -0.0932516 -2.9045 0
M  V30 7281 H 708.714 -0.852004 -2.43102 0
M  V30 7282 H 708.672 0.762308 -3.05018 0
M  V30 7283 N 712.444 0.87505 -1.31075 0
M  V30 7284 C 713.672 1.66058 -1.23419 0
M  V30 7285 C 714.087 1.87723 0.201347 0
M  V30 7286 O 713.444 1.43178 1.13165 0
M  V30 7287 C 713.495 3.03142 -1.96945 0
M  V30 7288 O 713.216 2.82448 -3.34895 0
M  V30 7289 C 714.717 3.97583 -1.96067 0
M  V30 7290 H 711.937 0.517868 -0.426677 0
M  V30 7291 H 714.481 1.09258 -1.72867 0
M  V30 7292 H 712.636 3.56645 -1.51271 0
M  V30 7293 H 713.05 3.69483 -3.72267 0
M  V30 7294 H 714.524 4.91104 -2.52034 0
M  V30 7295 H 715.001 4.2898 -0.941961 0
M  V30 7296 H 715.607 3.50015 -2.41597 0
M  V30 7297 N 713.922 1.13953 1.08869 0
M  V30 7298 C 714.869 0.82213 2.15661 0
M  V30 7299 C 715.839 -0.218274 1.6466 0
M  V30 7300 O 717.024 -0.0892475 1.90591 0
M  V30 7301 C 714.164 0.300572 3.43789 0
M  V30 7302 C 713.277 1.40071 4.08661 0
M  V30 7303 C 712.412 0.836897 5.24566 0
M  V30 7304 C 711.451 1.91504 5.81371 0
M  V30 7305 N 710.588 1.36875 6.88629 0
M  V30 7306 H 715.428 1.73683 2.42153 0
M  V30 7307 H 712.965 0.866879 1.18843 0
M  V30 7308 H 714.923 -0.0199943 4.17195 0
M  V30 7309 H 713.553 -0.577248 3.17597 0
M  V30 7310 H 712.605 1.83776 3.33062 0
M  V30 7311 H 713.917 2.21534 4.46905 0
M  V30 7312 H 713.071 0.467953 6.04893 0
M  V30 7313 H 711.81 -0.00874207 4.87699 0
M  V30 7314 H 710.815 2.29299 4.99702 0
M  V30 7315 H 712.04 2.76419 6.20298 0
M  V30 7316 H 709.986 0.545211 6.5373 0
M  V30 7317 H 709.903 2.1198 7.25672 0
M  V30 7318 H 711.171 1.02756 7.72698 0
M  V30 7319 N 715.4 -1.26948 0.933913 0
M  V30 7320 C 716.677 -1.89212 0.495784 0
M  V30 7321 C 717.057 -1.84469 -1.02637 0
M  V30 7322 O 716.405 -1.29409 -1.88323 0
M  V30 7323 C 716.615 -3.32865 1.0489 0
M  V30 7324 C 717.963 -4.09749 1.11315 0
M  V30 7325 O 718.987 -3.41905 0.998966 0
M  V30 7326 O 717.846 -5.31061 1.28983 0
M  V30 7327 H 714.94 -0.811284 0.160459 0
M  V30 7328 H 717.486 -1.35171 1.02601 0
M  V30 7329 H 716.258 -3.30642 2.09265 0
M  V30 7330 H 715.881 -3.94435 0.500692 0
M  V30 7331 N 716.879 -0.700114 -1.41195 0
M  V30 7332 C 718.126 -0.233006 -2.01155 0
M  V30 7333 C 718.454 1.16883 -1.55462 0
M  V30 7334 O 717.709 1.80395 -0.758695 0
M  V30 7335 C 718.008 -0.243986 -3.56566 0
M  V30 7336 C 717.674 -1.59397 -4.21786 0
M  V30 7337 C 716.336 -1.96355 -4.39316 0
M  V30 7338 C 718.688 -2.48192 -4.58312 0
M  V30 7339 C 716.016 -3.21683 -4.9065 0
M  V30 7340 C 718.368 -3.72857 -5.11039 0
M  V30 7341 C 717.032 -4.09951 -5.26779 0
M  V30 7342 H 716.302 -0.085263 -0.736078 0
M  V30 7343 H 718.949 -0.9001 -1.69028 0
M  V30 7344 H 717.254 0.506663 -3.8851 0
M  V30 7345 H 718.951 0.135031 -4.00773 0
M  V30 7346 H 715.541 -1.29654 -4.08519 0
M  V30 7347 H 719.725 -2.20918 -4.4442 0
M  V30 7348 H 714.981 -3.50412 -5.01021 0
M  V30 7349 H 719.155 -4.41844 -5.38282 0
M  V30 7350 H 716.782 -5.07136 -5.66319 0
M  V30 7351 N 718.357 1.51182 -0.445186 0
M  V30 7352 C 719.289 2.25714 0.398206 0
M  V30 7353 C 720.302 1.30032 0.979562 0
M  V30 7354 O 721.491 1.55731 0.872368 0
M  V30 7355 C 718.591 3.00348 1.56985 0
M  V30 7356 C 717.764 4.23187 1.10596 0
M  V30 7357 C 716.823 4.80334 2.14863 0
M  V30 7358 O 715.849 5.4196 1.73977 0
M  V30 7359 N 717.051 4.65053 3.47427 0
M  V30 7360 H 719.816 2.98732 -0.240629 0
M  V30 7361 H 717.377 1.59556 -0.274507 0
M  V30 7362 H 719.369 3.35464 2.26376 0
M  V30 7363 H 717.939 2.30291 2.11387 0
M  V30 7364 H 717.159 3.93476 0.238832 0
M  V30 7365 H 718.447 5.02886 0.773537 0
M  V30 7366 H 717.845 4.15984 3.83372 0
M  V30 7367 H 716.402 5.04509 4.12691 0
M  V30 7368 N 719.835 0.176821 1.56605 0
M  V30 7369 C 720.798 -0.737429 2.17013 0
M  V30 7370 C 721.798 -1.15414 1.11965 0
M  V30 7371 O 722.988 -1.0702 1.37449 0
M  V30 7372 C 720.12 -2.00445 2.75744 0
M  V30 7373 H 721.313 -0.211455 2.99154 0
M  V30 7374 H 718.866 -0.0727582 1.56131 0
M  V30 7375 H 719.601 -2.57338 1.97352 0
M  V30 7376 H 719.386 -1.71456 3.52626 0
M  V30 7377 H 720.876 -2.65679 3.22187 0
M  V30 7378 N 721.313 -1.57302 -0.09688 0
M  V30 7379 C 722.261 -2.02942 -1.13654 0
M  V30 7380 C 723.255 -0.930173 -1.41577 0
M  V30 7381 O 724.461 -1.11535 -1.41279 0
M  V30 7382 H 720.836 -0.646726 -0.383731 0
M  V30 7383 H 722.807 -2.89452 -0.725267 0
M  V30 7384 C 721.556 -2.46815 -2.44903 0
M  V30 7385 H 720.879 -3.30979 -2.24261 0
M  V30 7386 H 722.319 -2.82527 -3.16156 0
M  V30 7387 C 720.778 -1.34071 -3.09074 0
M  V30 7388 O 721.308 -0.668856 -3.96092 0
M  V30 7389 N 719.514 -1.09214 -2.69296 0
M  V30 7390 H 719.061 -1.64029 -1.98626 0
M  V30 7391 H 719.019 -0.339785 -3.12559 0
M  V30 7392 N 722.791 0.367657 -1.53252 0
M  V30 7393 C 723.723 1.47032 -1.75824 0
M  V30 7394 C 724.736 1.49736 -0.63898 0
M  V30 7395 O 725.925 1.53253 -0.915193 0
M  V30 7396 C 723.025 2.85805 -1.82122 0
M  V30 7397 C 722.198 3.06822 -3.11736 0
M  V30 7398 C 721.257 4.25698 -3.09302 0
M  V30 7399 O 720.283 4.20972 -3.83107 0
M  V30 7400 N 721.485 5.33002 -2.29977 0
M  V30 7401 H 724.25 1.28048 -2.70968 0
M  V30 7402 H 721.811 0.557363 -1.52004 0
M  V30 7403 H 723.803 3.63465 -1.77975 0
M  V30 7404 H 722.373 2.98046 -0.942716 0
M  V30 7405 H 721.593 2.1684 -3.29202 0
M  V30 7406 H 722.881 3.17731 -3.97397 0
M  V30 7407 H 722.279 5.39703 -1.69521 0
M  V30 7408 H 720.836 6.09247 -2.3165 0
M  V30 7409 N 724.269 1.44576 0.627338 0
M  V30 7410 C 725.518 1.46837 1.38281 0
M  V30 7411 C 725.831 0.10635 1.95311 0
M  V30 7412 O 727.037 0.00651084 2.71499 0
M  V30 7413 C 725.493 2.58527 2.50384 0
M  V30 7414 C 725.101 4.00953 1.99851 0
M  V30 7415 C 726.845 2.70013 3.27557 0
M  V30 7416 C 724.752 5.0406 3.09318 0
M  V30 7417 H 723.682 0.546319 0.519664 0
M  V30 7418 H 726.333 1.70654 0.674497 0
M  V30 7419 H 724.715 2.27957 3.23808 0
M  V30 7420 H 725.889 4.41108 1.33267 0
M  V30 7421 H 724.204 3.93743 1.35482 0
M  V30 7422 H 726.801 3.44217 4.09168 0
M  V30 7423 H 727.144 1.75961 3.77284 0
M  V30 7424 H 727.677 3.00011 2.61224 0
M  V30 7425 H 724.416 5.99753 2.6453 0
M  V30 7426 H 723.936 4.68493 3.74532 0
M  V30 7427 H 725.615 5.2793 3.74031 0
M  V30 7428 N 725.747 -0.868086 1.31537 0
M  V30 7429 C 726.977 -1.65162 1.24118 0
M  V30 7430 C 727.385 -1.88187 -0.195558 0
M  V30 7431 O 726.728 -1.44154 -1.13866 0
M  V30 7432 C 726.79 -3.04119 1.91708 0
M  V30 7433 C 726.454 -3.04194 3.4105 0
M  V30 7434 C 727.451 -2.82016 4.36764 0
M  V30 7435 C 725.136 -3.25256 3.82772 0
M  V30 7436 C 727.13 -2.80881 5.72175 0
M  V30 7437 C 724.817 -3.23749 5.18295 0
M  V30 7438 C 725.815 -3.01589 6.12808 0
M  V30 7439 O 725.503 -2.9993 7.45853 0
M  V30 7440 H 725.235 -0.521597 0.430015 0
M  V30 7441 H 727.789 -1.09165 1.73989 0
M  V30 7442 H 726.019 -3.61849 1.36389 0
M  V30 7443 H 727.708 -3.64701 1.78179 0
M  V30 7444 H 728.474 -2.65525 4.05859 0
M  V30 7445 H 724.353 -3.41534 3.09638 0
M  V30 7446 H 727.897 -2.63503 6.45919 0
M  V30 7447 H 723.794 -3.39781 5.48834 0
M  V30 7448 H 724.562 -3.15979 7.55049 0
M  V30 7449 N 727.225 -1.14528 -1.08264 0
M  V30 7450 C 728.474 -0.908992 -1.80056 0
M  V30 7451 C 728.787 0.565859 -1.87236 0
M  V30 7452 O 729.993 0.919454 -2.55457 0
M  V30 7453 C 728.449 -1.57681 -3.23519 0
M  V30 7454 C 728.057 -3.08803 -3.24569 0
M  V30 7455 C 729.801 -1.4217 -3.99985 0
M  V30 7456 C 727.708 -3.68414 -4.62629 0
M  V30 7457 H 726.638 -0.336432 -0.674781 0
M  V30 7458 H 729.289 -1.37437 -1.21587 0
M  V30 7459 H 727.671 -1.03911 -3.82124 0
M  V30 7460 H 728.845 -3.69252 -2.75663 0
M  V30 7461 H 727.16 -3.23968 -2.61598 0
M  V30 7462 H 729.757 -1.84106 -5.02005 0
M  V30 7463 H 730.1 -0.367989 -4.1467 0
M  V30 7464 H 730.633 -1.92984 -3.47853 0
M  V30 7465 H 727.372 -4.73644 -4.53147 0
M  V30 7466 H 726.892 -3.12746 -5.11811 0
M  V30 7467 H 728.571 -3.68793 -5.31602 0
M  V30 7468 N 728.703 1.26451 -0.940633 0
M  V30 7469 C 729.928 1.98407 -0.60412 0
M  V30 7470 C 730.353 1.69584 0.81382 0
M  V30 7471 O 729.711 0.943553 1.54812 0
M  V30 7472 C 729.759 3.50387 -0.852136 0
M  V30 7473 O 728.863 4.1233 0.076013 0
M  V30 7474 H 728.204 0.622466 -0.231153 0
M  V30 7475 H 730.734 1.60932 -1.26342 0
M  V30 7476 H 730.744 4.00614 -0.772816 0
M  V30 7477 H 729.419 3.70696 -1.88566 0
M  V30 7478 H 727.996 3.7286 -0.0543187 0
M  V30 7479 N 730.181 0.707592 1.40822 0
M  V30 7480 C 731.429 0.243189 2.00632 0
M  V30 7481 C 731.75 -1.16512 1.56365 0
M  V30 7482 O 731.02 -1.78841 0.799553 0
M  V30 7483 H 729.6 0.0869203 0.741926 0
M  V30 7484 H 732.262 0.911438 1.72275 0
M  V30 7485 H 731.358 0.270014 3.1093 0
M  V30 7486 N 731.66 -1.50943 0.453197 0
M  V30 7487 C 732.623 -2.26684 -0.338705 0
M  V30 7488 C 733.623 -1.30748 -0.936032 0
M  V30 7489 O 734.813 -1.54327 -0.808002 0
M  V30 7490 C 731.945 -3.07063 -1.48071 0
M  V30 7491 H 733.138 -2.98131 0.325289 0
M  V30 7492 H 730.691 -1.54926 0.206771 0
M  V30 7493 H 731.426 -2.4007 -2.18029 0
M  V30 7494 H 731.211 -3.77545 -1.0584 0
M  V30 7495 H 732.701 -3.64393 -2.0398 0
M  V30 7496 N 733.138 -0.185124 -1.56509 0
M  V30 7497 C 734.378 0.458547 -1.9919 0
M  V30 7498 C 734.742 1.59484 -1.06906 0
M  V30 7499 O 735.943 2.30201 -1.38783 0
M  V30 7500 C 734.214 0.916263 -3.45455 0
M  V30 7501 S 735.773 1.55918 -4.10165 0
M  V30 7502 H 732.591 0.147008 -0.695636 0
M  V30 7503 H 735.193 -0.285841 -1.93399 0
M  V30 7504 H 733.897 0.0790543 -4.10324 0
M  V30 7505 H 733.428 1.69436 -3.55042 0
M  V30 7506 H 735.443 2.84771 -4.0635 0
M  V30 7507 N 734.616 1.57351 0.0885366 0
M  V30 7508 C 736.032 1.53331 0.442916 0
M  V30 7509 C 736.232 0.902831 1.80142 0
M  V30 7510 O 735.288 0.498147 2.47537 0
M  V30 7511 C 736.601 2.98036 0.399372 0
M  V30 7512 C 738.149 3.09286 0.480759 0
M  V30 7513 C 738.624 4.5561 0.467296 0
M  V30 7514 N 740.115 4.60182 0.52786 0
M  V30 7515 C 740.85 5.70857 0.539388 0
M  V30 7516 N 740.346 6.90944 0.506729 0
M  V30 7517 N 742.139 5.59051 0.584691 0
M  V30 7518 H 734.29 1.96709 -0.801215 0
M  V30 7519 H 736.553 0.899639 -0.298922 0
M  V30 7520 H 736.259 3.47656 -0.531806 0
M  V30 7521 H 736.133 3.57066 1.21589 0
M  V30 7522 H 738.52 2.5965 1.40236 0
M  V30 7523 H 738.601 2.53197 -0.364023 0
M  V30 7524 H 738.245 5.05899 -0.450384 0
M  V30 7525 H 738.175 5.09544 1.32938 0
M  V30 7526 H 740.666 3.73757 0.558028 0
M  V30 7527 H 740.979 7.71055 0.518989 0
M  V30 7528 H 739.324 6.93384 0.473675 0
M  V30 7529 H 742.515 4.64138 0.607781 0
M  V30 7530 H 742.688 6.45307 0.590206 0
M  V30 7531 N 736.094 -0.359525 1.53444 0
M  V30 7532 C 737.34 -1.10315 1.70172 0
M  V30 7533 C 737.673 -1.88788 0.455287 0
M  V30 7534 O 736.948 -1.86635 -0.547514 0
M  V30 7535 C 737.231 -2.05744 2.95536 0
M  V30 7536 C 737.084 -1.3084 4.3035 0
M  V30 7537 C 738.403 -3.05784 3.16518 0
M  V30 7538 H 735.522 -0.399662 0.619225 0
M  V30 7539 H 738.164 -0.383338 1.86093 0
M  V30 7540 H 736.314 -2.67125 2.82093 0
M  V30 7541 H 737.986 -0.721959 4.55615 0
M  V30 7542 H 736.229 -0.610283 4.29486 0
M  V30 7543 H 736.9 -2.00718 5.14214 0
M  V30 7544 H 739.376 -2.5451 3.29187 0
M  V30 7545 H 738.252 -3.69772 4.05659 0
M  V30 7546 H 738.513 -3.76289 2.32076 0
M  V30 7547 N 737.572 -1.44907 -0.619662 0
M  V30 7548 C 738.52 -1.52971 -1.75222 0
M  V30 7549 C 739.514 -0.400531 -1.64597 0
M  V30 7550 O 740.72 -0.575952 -1.70537 0
M  V30 7551 H 737.095 -0.480241 -0.578682 0
M  V30 7552 H 739.066 -2.48269 -1.65545 0
M  V30 7553 C 737.815 -1.50204 -3.13583 0
M  V30 7554 H 737.138 -2.36412 -3.22412 0
M  V30 7555 H 738.578 -1.59905 -3.92691 0
M  V30 7556 C 737.037 -0.22455 -3.36151 0
M  V30 7557 O 737.567 0.700574 -3.95544 0
M  V30 7558 N 735.773 -0.124052 -2.90335 0
M  V30 7559 H 735.32 -0.87774 -2.42185 0
M  V30 7560 H 735.278 0.729914 -3.0581 0
M  V30 7561 N 739.05 0.861098 -1.31996 0
M  V30 7562 C 740.298 1.61162 -1.21947 0
M  V30 7563 C 740.619 1.93751 0.220351 0
M  V30 7564 O 739.889 1.59069 1.14341 0
M  V30 7565 H 738.469 0.597485 -0.448353 0
M  V30 7566 H 741.131 1.03039 -1.65436 0
M  V30 7567 H 740.227 2.55138 -1.79752 0
M  V30 7568 N 740.528 1.15101 1.07655 0
M  V30 7569 C 741.458 0.867864 2.16773 0
M  V30 7570 C 742.439 -0.180283 1.69142 0
M  V30 7571 O 743.624 -0.0353152 1.94168 0
M  V30 7572 C 740.754 0.35299 3.45501 0
M  V30 7573 C 739.708 1.33746 4.06566 0
M  V30 7574 C 739.034 0.681562 5.30338 0
M  V30 7575 C 740.334 2.7024 4.46954 0
M  V30 7576 H 742.028 1.78034 2.40716 0
M  V30 7577 H 739.574 0.857435 1.15689 0
M  V30 7578 H 741.527 0.142465 4.21159 0
M  V30 7579 H 740.251 -0.594945 3.21135 0
M  V30 7580 H 738.91 1.53429 3.32949 0
M  V30 7581 H 738.558 -0.272422 5.02262 0
M  V30 7582 H 738.258 1.33853 5.72151 0
M  V30 7583 H 739.782 0.48074 6.08705 0
M  V30 7584 H 741.196 2.5442 5.13754 0
M  V30 7585 H 739.593 3.32282 4.99709 0
M  V30 7586 H 740.663 3.26537 3.58471 0
M  V30 7587 N 742.006 -1.2595 0.947325 0
M  V30 7588 C 743.422 -1.45737 0.650597 0
M  V30 7589 C 743.622 -1.85189 -0.794188 0
M  V30 7590 O 742.678 -1.97738 -1.57022 0
M  V30 7591 C 743.991 -2.53505 1.61728 0
M  V30 7592 C 745.539 -2.67351 1.62765 0
M  V30 7593 C 746.014 -3.78296 2.58179 0
M  V30 7594 N 747.505 -3.85696 2.56501 0
M  V30 7595 C 748.24 -4.71012 3.2701 0
M  V30 7596 N 747.736 -5.60669 4.06966 0
M  V30 7597 N 749.529 -4.64912 3.15932 0
M  V30 7598 H 741.68 -0.986327 1.8811 0
M  V30 7599 H 743.943 -0.494639 0.808725 0
M  V30 7600 H 743.649 -2.31357 2.6489 0
M  V30 7601 H 743.523 -3.51281 1.3741 0
M  V30 7602 H 745.91 -2.88869 0.603241 0
M  V30 7603 H 745.991 -1.69998 1.91139 0
M  V30 7604 H 745.635 -3.5753 3.60742 0
M  V30 7605 H 745.565 -4.75117 2.27093 0
M  V30 7606 H 748.056 -3.21601 1.98447 0
M  V30 7607 H 748.369 -6.22677 4.57704 0
M  V30 7608 H 746.714 -5.60402 4.11066 0
M  V30 7609 H 749.905 -3.93874 2.52945 0
M  V30 7610 H 750.078 -5.3118 3.71149 0
M  V30 7611 N 743.484 -0.715051 -1.40445 0
M  V30 7612 C 744.414 -0.0768699 -2.33373 0
M  V30 7613 C 745.395 0.746109 -1.52863 0
M  V30 7614 O 746.58 0.695142 -1.81332 0
M  V30 7615 C 743.71 0.846014 -3.36838 0
M  V30 7616 C 742.664 0.128694 -4.27806 0
M  V30 7617 C 741.99 1.16726 -5.21804 0
M  V30 7618 C 743.29 -1.01679 -5.12307 0
M  V30 7619 H 744.984 -0.853061 -2.8699 0
M  V30 7620 H 742.53 -0.41167 -1.3799 0
M  V30 7621 H 744.483 1.30185 -4.00786 0
M  V30 7622 H 743.207 1.6541 -2.81615 0
M  V30 7623 H 741.866 -0.307314 -3.6531 0
M  V30 7624 H 741.514 1.96838 -4.62887 0
M  V30 7625 H 741.214 0.692188 -5.83509 0
M  V30 7626 H 742.738 1.62321 -5.88629 0
M  V30 7627 H 744.152 -0.640337 -5.69713 0
M  V30 7628 H 742.549 -1.4202 -5.83053 0
M  V30 7629 H 743.619 -1.84769 -4.48317 0
M  V30 7630 N 744.962 1.50701 -0.461195 0
M  V30 7631 C 746.211 2.01458 0.0988277 0
M  V30 7632 C 746.524 1.34863 1.41673 0
M  V30 7633 O 747.73 1.76721 2.06111 0
M  V30 7634 C 746.186 3.59186 0.226648 0
M  V30 7635 C 745.794 4.34732 -1.08223 0
M  V30 7636 C 747.538 4.18015 0.73916 0
M  V30 7637 C 745.445 5.8422 -0.918747 0
M  V30 7638 H 744.375 0.7529 0.040709 0
M  V30 7639 H 747.026 1.736 -0.594589 0
M  V30 7640 H 745.408 3.83589 0.983621 0
M  V30 7641 H 746.582 4.22059 -1.84939 0
M  V30 7642 H 744.897 3.87466 -1.52509 0
M  V30 7643 H 747.494 5.27436 0.878347 0
M  V30 7644 H 747.837 3.78746 1.72793 0
M  V30 7645 H 748.37 3.9778 0.0398469 0
M  V30 7646 H 745.109 6.27944 -1.88059 0
M  V30 7647 H 744.629 5.99493 -0.191801 0
M  V30 7648 H 746.308 6.44382 -0.581405 0
M  V30 7649 N 746.441 0.193421 1.56409 0
M  V30 7650 C 747.689 -0.444908 1.97142 0
M  V30 7651 C 748.01 -1.62268 1.08139 0
M  V30 7652 O 747.28 -1.95307 0.152326 0
M  V30 7653 H 745.86 -0.16736 0.728011 0
M  V30 7654 H 748.522 0.279763 1.92882 0
M  V30 7655 H 747.618 -0.790159 3.01932 0
M  V30 7656 N 747.919 -1.57396 -0.0801906 0
M  V30 7657 C 749.168 -1.8602 -0.779702 0
M  V30 7658 C 749.481 -0.784864 -1.79163 0
M  V30 7659 O 750.687 -0.958691 -2.54011 0
M  V30 7660 C 749.143 -3.29942 -1.43758 0
M  V30 7661 C 748.751 -4.45584 -0.464654 0
M  V30 7662 C 750.495 -3.67775 -2.11995 0
M  V30 7663 C 748.402 -5.80544 -1.12797 0
M  V30 7664 H 747.332 -0.69392 -0.294943 0
M  V30 7665 H 749.983 -1.83471 -0.0328527 0
M  V30 7666 H 748.365 -3.27078 -2.2324 0
M  V30 7667 H 749.539 -4.59824 0.299749 0
M  V30 7668 H 747.854 -4.16247 0.112813 0
M  V30 7669 H 750.451 -4.65896 -2.62383 0
M  V30 7670 H 750.794 -2.9715 -2.91561 0
M  V30 7671 H 751.327 -3.72593 -1.39354 0
M  V30 7672 H 748.066 -6.54439 -0.372807 0
M  V30 7673 H 747.586 -5.70119 -1.86344 0
M  V30 7674 H 749.265 -6.25602 -1.6502 0
M  V30 7675 N 749.397 0.351382 -1.53633 0
M  V30 7676 C 750.813 0.693987 -1.43722 0
M  V30 7677 C 751.013 1.9274 -0.587669 0
M  V30 7678 O 750.069 2.52387 -0.0756082 0
M  V30 7679 C 751.382 0.893937 -2.87105 0
M  V30 7680 C 752.93 0.993051 -2.96829 0
M  V30 7681 C 753.405 1.22537 -4.41303 0
M  V30 7682 N 754.896 1.29275 -4.44795 0
M  V30 7683 C 755.631 1.48988 -5.53706 0
M  V30 7684 N 755.127 1.65924 -6.72637 0
M  V30 7685 N 756.92 1.51472 -5.41306 0
M  V30 7686 H 749.071 -0.459688 -2.07366 0
M  V30 7687 H 751.334 -0.143684 -0.937048 0
M  V30 7688 H 751.04 0.0592517 -3.5165 0
M  V30 7689 H 750.914 1.79795 -3.31592 0
M  V30 7690 H 753.301 1.81827 -2.32429 0
M  V30 7691 H 753.382 0.0661119 -2.55715 0
M  V30 7692 H 753.026 0.405117 -5.06282 0
M  V30 7693 H 752.956 2.16575 -4.80003 0
M  V30 7694 H 755.447 1.17743 -3.59089 0
M  V30 7695 H 755.76 1.80578 -7.51406 0
M  V30 7696 H 754.105 1.63075 -6.75597 0
M  V30 7697 H 757.296 1.37818 -4.47352 0
M  V30 7698 H 757.469 1.66493 -6.26246 0
M  V30 7699 N 750.875 1.45233 0.611969 0
M  V30 7700 C 752.1 1.52767 1.40274 0
M  V30 7701 C 752.525 0.159701 1.87421 0
M  V30 7702 O 751.883 -0.854837 1.59882 0
M  V30 7703 C 751.931 2.51286 2.58626 0
M  V30 7704 O 751.035 2.02764 3.59111 0
M  V30 7705 H 750.376 0.515141 0.418958 0
M  V30 7706 H 752.906 1.90547 0.745188 0
M  V30 7707 H 752.916 2.69949 3.05927 0
M  V30 7708 H 751.591 3.50641 2.23659 0
M  V30 7709 H 750.168 1.93957 3.18489 0
M  V30 7710 N 752.353 -0.854086 1.3245 0
M  V30 7711 C 753.581 -1.64074 1.26045 0
M  V30 7712 C 753.996 -1.8802 -0.171456 0
M  V30 7713 O 753.353 -1.4496 -1.10873 0
M  V30 7714 C 753.404 -2.9997 2.01743 0
M  V30 7715 O 753.125 -2.77084 3.39346 0
M  V30 7716 C 754.626 -3.94414 2.02368 0
M  V30 7717 H 751.846 -0.511015 0.434862 0
M  V30 7718 H 754.39 -1.06494 1.74583 0
M  V30 7719 H 752.545 -3.54193 1.56926 0
M  V30 7720 H 752.959 -3.63514 3.78098 0
M  V30 7721 H 754.433 -4.87032 2.59815 0
M  V30 7722 H 754.91 -4.27427 1.01009 0
M  V30 7723 H 755.516 -3.46127 2.47135 0
M  V30 7724 N 753.831 -1.1567 -1.07043 0
M  V30 7725 C 755.108 -0.843948 -1.76456 0
M  V30 7726 C 755.488 0.659806 -2.00524 0
M  V30 7727 O 754.836 1.60518 -1.62623 0
M  V30 7728 C 755.046 -1.65822 -3.0709 0
M  V30 7729 C 756.394 -1.8664 -3.8138 0
M  V30 7730 O 757.418 -1.62624 -3.1691 0
M  V30 7731 O 756.277 -2.26884 -4.97178 0
M  V30 7732 H 753.371 -0.310677 -0.766426 0
M  V30 7733 H 755.917 -1.26266 -1.1338 0
M  V30 7734 H 754.689 -2.67902 -2.85209 0
M  V30 7735 H 754.312 -1.23605 -3.77899 0
M  V30 7736 N 755.309 1.25446 -0.953992 0
M  V30 7737 C 756.557 1.92762 -0.607227 0
M  V30 7738 C 756.878 1.7509 0.858399 0
M  V30 7739 O 756.148 1.11416 1.61132 0
M  V30 7740 H 754.728 0.713377 -0.221591 0
M  V30 7741 H 757.39 1.52625 -1.21209 0
M  V30 7742 H 756.486 3.00695 -0.835998 0
M  V30 7743 N 756.787 0.722489 1.40064 0
M  V30 7744 C 757.719 0.0349057 2.29173 0
M  V30 7745 C 758.732 -0.716571 1.46182 0
M  V30 7746 O 759.921 -0.562806 1.69395 0
M  V30 7747 C 757.021 -0.974839 3.24577 0
M  V30 7748 C 756.194 -0.287471 4.36454 0
M  V30 7749 C 755.253 -1.20356 5.12251 0
M  V30 7750 O 754.279 -0.685753 5.65054 0
M  V30 7751 N 755.481 -2.53422 5.22262 0
M  V30 7752 H 758.246 0.800058 2.88824 0
M  V30 7753 H 755.807 0.57068 1.51509 0
M  V30 7754 H 757.799 -1.59002 3.72157 0
M  V30 7755 H 756.369 -1.6413 2.66046 0
M  V30 7756 H 755.589 0.508008 3.90913 0
M  V30 7757 H 756.877 0.189382 5.08447 0
M  V30 7758 H 756.275 -2.97981 4.80857 0
M  V30 7759 H 754.832 -3.10067 5.73325 0
M  V30 7760 N 758.265 -1.50454 0.469181 0
M  V30 7761 C 759.513 -2.01916 -0.0862982 0
M  V30 7762 C 759.834 -1.35337 -1.40388 0
M  V30 7763 O 759.104 -0.498096 -1.89462 0
M  V30 7764 H 757.684 -0.746185 -0.0348825 0
M  V30 7765 H 760.346 -1.84804 0.619167 0
M  V30 7766 H 759.442 -3.11182 -0.239189 0
M  V30 7767 N 759.743 -0.201713 -1.56304 0
M  V30 7768 C 760.673 0.71155 -2.22394 0
M  V30 7769 C 761.654 1.21625 -1.18917 0
M  V30 7770 O 762.839 1.26388 -1.47444 0
M  V30 7771 C 759.969 1.92837 -2.88845 0
M  V30 7772 C 758.923 1.55831 -3.98623 0
M  V30 7773 C 758.249 2.85228 -4.52271 0
M  V30 7774 C 759.549 0.763249 -5.16693 0
M  V30 7775 H 761.243 0.160573 -2.98969 0
M  V30 7776 H 758.789 0.0757916 -1.438 0
M  V30 7777 H 760.742 2.57253 -3.33764 0
M  V30 7778 H 759.466 2.50398 -2.09686 0
M  V30 7779 H 758.125 0.9377 -3.54405 0
M  V30 7780 H 757.773 3.40893 -3.69866 0
M  V30 7781 H 757.473 2.6121 -5.26349 0
M  V30 7782 H 758.997 3.50622 -4.99897 0
M  V30 7783 H 760.411 1.31066 -5.58117 0
M  V30 7784 H 758.808 0.620935 -5.96879 0
M  V30 7785 H 759.878 -0.234322 -4.84334 0
M  V30 7786 N 761.222 1.57436 0.0718424 0
M  V30 7787 C 762.45 1.91474 0.783932 0
M  V30 7788 C 762.865 0.797669 1.71122 0
M  V30 7789 O 762.222 -0.228989 1.81058 0
M  V30 7790 C 762.273 3.25259 1.57761 0
M  V30 7791 O 761.994 4.3267 0.687596 0
M  V30 7792 C 763.495 3.7331 2.3907 0
M  V30 7793 H 760.715 0.632901 0.222885 0
M  V30 7794 H 763.259 2.04457 0.0421262 0
M  V30 7795 H 761.414 3.13804 2.27169 0
M  V30 7796 H 761.828 5.09641 1.23962 0
M  V30 7797 H 763.302 4.69551 2.90216 0
M  V30 7798 H 763.779 3.02318 3.18591 0
M  V30 7799 H 764.385 3.8771 1.74818 0
M  V30 7800 N 762.7 -0.34323 1.53817 0
M  V30 7801 C 763.949 -1.08086 1.70295 0
M  V30 7802 C 764.262 -1.89794 0.47302 0
M  V30 7803 O 765.468 -2.66498 0.518754 0
M  V30 7804 C 763.924 -1.97097 3.01133 0
M  V30 7805 C 763.532 -1.20594 4.31464 0
M  V30 7806 C 765.276 -2.70715 3.26976 0
M  V30 7807 C 763.183 -2.08636 5.53376 0
M  V30 7808 H 762.113 -0.407228 0.634572 0
M  V30 7809 H 764.764 -0.340328 1.80316 0
M  V30 7810 H 763.146 -2.74971 2.84969 0
M  V30 7811 H 764.32 -0.476282 4.58332 0
M  V30 7812 H 762.635 -0.587426 4.12236 0
M  V30 7813 H 765.232 -3.36857 4.15248 0
M  V30 7814 H 765.575 -3.37299 2.43998 0
M  V30 7815 H 766.108 -1.99914 3.43917 0
M  V30 7816 H 762.847 -1.46594 6.38898 0
M  V30 7817 H 762.367 -2.7939 5.30755 0
M  V30 7818 H 764.046 -2.67682 5.89029 0
M  V30 7819 N 764.178 -1.45556 -0.604258 0
M  V30 7820 C 765.455 -1.40221 -1.36373 0
M  V30 7821 C 765.835 -0.0745195 -2.10968 0
M  V30 7822 O 765.183 0.943594 -2.08107 0
M  V30 7823 C 765.393 -2.61807 -2.30777 0
M  V30 7824 C 766.741 -3.07037 -2.93281 0
M  V30 7825 O 767.765 -2.62203 -2.41097 0
M  V30 7826 O 766.624 -3.8485 -3.88011 0
M  V30 7827 H 763.718 -0.556602 -0.611656 0
M  V30 7828 H 766.264 -1.57689 -0.627069 0
M  V30 7829 H 765.036 -3.50017 -1.74939 0
M  V30 7830 H 764.659 -2.46688 -3.11818 0
M  V30 7831 N 765.656 0.84705 -1.32902 0
M  V30 7832 C 766.619 1.9378 -1.224 0
M  V30 7833 C 767.619 1.60144 -0.145108 0
M  V30 7834 O 768.809 1.69638 -0.396058 0
M  V30 7835 C 765.941 3.29234 -0.884174 0
M  V30 7836 H 767.134 2.04518 -2.19345 0
M  V30 7837 H 764.687 1.03816 -1.16842 0
M  V30 7838 H 765.422 3.24193 0.0831277 0
M  V30 7839 H 765.207 3.55026 -1.6643 0
M  V30 7840 H 766.697 4.09162 -0.835226 0
M  V30 7841 N 767.134 1.16236 1.06428 0
M  V30 7842 C 768.545 0.950942 1.60667 0
M  V30 7843 C 768.896 -0.505491 1.89576 0
M  V30 7844 O 768.021 -1.37843 1.66818 0
M  V30 7845 C 768.616 1.71982 2.91904 0
M  V30 7846 C 767.175 1.55342 3.4285 0
M  V30 7847 C 766.322 1.72942 2.16763 0
M  V30 7848 H 769.273 1.31126 0.893959 0
M  V30 7849 H 769.294 1.19483 3.61253 0
M  V30 7850 H 768.806 2.77978 2.70831 0
M  V30 7851 H 766.907 0.5178 3.68985 0
M  V30 7852 H 767.02 2.33643 4.18267 0
M  V30 7853 H 765.384 1.15673 2.26918 0
M  V30 7854 H 766.167 2.80324 1.98175 0
M  V30 7855 N 768.612 -1.24939 0.960631 0
M  V30 7856 C 769.56 -2.27659 0.47686 0
M  V30 7857 C 770.554 -1.63148 -0.455961 0
M  V30 7858 O 771.76 -1.76911 -0.332029 0
M  V30 7859 H 768.135 -0.739651 0.135723 0
M  V30 7860 H 770.106 -2.65844 1.35534 0
M  V30 7861 C 768.855 -3.46976 -0.224191 0
M  V30 7862 H 768.178 -3.96854 0.484471 0
M  V30 7863 H 769.618 -4.20717 -0.526615 0
M  V30 7864 C 768.077 -3.04159 -1.44876 0
M  V30 7865 O 768.607 -3.10697 -2.54618 0
M  V30 7866 N 766.813 -2.59284 -1.31226 0
M  V30 7867 H 766.36 -2.54164 -0.419361 0
M  V30 7868 H 766.318 -2.31 -2.13275 0
M  V30 7869 N 770.09 -0.729906 -1.39679 0
M  V30 7870 C 771.315 -0.284345 -2.05442 0
M  V30 7871 C 771.74 1.07056 -1.54663 0
M  V30 7872 O 771.098 1.67732 -0.688157 0
M  V30 7873 C 771.146 -0.290089 -3.59431 0
M  V30 7874 O 770.25 0.723978 -4.05995 0
M  V30 7875 H 769.591 -0.130311 -0.651088 0
M  V30 7876 H 772.121 -0.994403 -1.78809 0
M  V30 7877 H 772.131 -0.132712 -4.07784 0
M  V30 7878 H 770.806 -1.27877 -3.95753 0
M  V30 7879 H 769.383 0.533154 -3.69069 0
M  V30 7880 N 771.568 1.50203 -0.477153 0
M  V30 7881 C 772.796 2.0677 0.0732489 0
M  V30 7882 C 773.211 1.34033 1.32968 0
M  V30 7883 O 772.568 0.411412 1.77802 0
M  V30 7884 C 772.619 3.59751 0.35518 0
M  V30 7885 O 772.34 4.29747 -0.851425 0
M  V30 7886 C 773.841 4.3296 0.951877 0
M  V30 7887 H 771.061 0.670929 -0.00978923 0
M  V30 7888 H 773.605 1.93293 -0.667676 0
M  V30 7889 H 771.76 3.7301 1.04605 0
M  V30 7890 H 772.174 5.2106 -0.599708 0
M  V30 7891 H 773.648 5.40952 1.09888 0
M  V30 7892 H 774.125 3.93856 1.94356 0
M  V30 7893 H 774.731 4.24246 0.299208 0
M  V30 7894 N 773.046 0.209999 1.56195 0
M  V30 7895 C 774.292 -0.425442 1.98287 0
M  V30 7896 C 774.625 -1.60232 1.09724 0
M  V30 7897 O 773.9 -1.93902 0.152414 0
M  V30 7898 C 774.183 -0.871189 3.49403 0
M  V30 7899 C 774.036 0.308527 4.48741 0
M  V30 7900 C 775.355 -1.73146 4.04609 0
M  V30 7901 H 772.474 -0.153169 0.720908 0
M  V30 7902 H 775.116 0.303916 1.87554 0
M  V30 7903 H 773.266 -1.49266 3.58681 0
M  V30 7904 H 774.938 0.946487 4.51486 0
M  V30 7905 H 773.181 0.957878 4.23092 0
M  V30 7906 H 773.852 -0.0461143 5.51981 0
M  V30 7907 H 776.328 -1.2072 3.98203 0
M  V30 7908 H 775.204 -2.01228 5.10684 0
M  V30 7909 H 775.465 -2.69083 3.5078 0
M  V30 7910 N 774.524 -1.57472 -0.0634922 0
M  V30 7911 C 775.749 -1.92273 -0.77756 0
M  V30 7912 C 776.174 -0.807141 -1.69902 0
M  V30 7913 O 775.532 0.239523 -1.79711 0
M  V30 7914 C 775.58 -3.26054 -1.54017 0
M  V30 7915 O 774.684 -3.15873 -2.65138 0
M  V30 7916 H 774.025 -0.629389 -0.211579 0
M  V30 7917 H 776.555 -2.04579 -0.0292523 0
M  V30 7918 H 776.565 -3.60127 -1.91763 0
M  V30 7919 H 775.24 -4.06824 -0.864128 0
M  V30 7920 H 773.817 -2.93373 -2.30189 0
M  V30 7921 N 776.003 0.335068 -1.53997 0
M  V30 7922 C 777.251 1.07223 -1.71312 0
M  V30 7923 C 777.572 1.88911 -0.483486 0
M  V30 7924 O 776.842 1.89344 0.50257 0
M  V30 7925 H 775.422 0.398846 -0.63161 0
M  V30 7926 H 778.084 0.374288 -1.91272 0
M  V30 7927 H 777.18 1.7448 -2.58772 0
M  V30 7928 N 777.481 1.45874 0.596531 0
M  V30 7929 C 778.73 1.49737 1.35135 0
M  V30 7930 C 779.043 0.147755 1.95041 0
M  V30 7931 O 780.249 0.0640984 2.71424 0
M  V30 7932 C 778.705 2.6378 2.44843 0
M  V30 7933 C 778.313 4.05102 1.91301 0
M  V30 7934 C 780.057 2.769 3.21755 0
M  V30 7935 C 777.964 5.10508 2.98557 0
M  V30 7936 H 776.894 0.557219 0.507959 0
M  V30 7937 H 779.545 1.72046 0.638147 0
M  V30 7938 H 777.927 2.34774 3.189 0
M  V30 7939 H 779.101 4.43836 1.2388 0
M  V30 7940 H 777.416 3.96528 1.271 0
M  V30 7941 H 780.013 3.52819 4.01775 0
M  V30 7942 H 780.356 1.83924 3.73467 0
M  V30 7943 H 780.889 3.05485 2.54802 0
M  V30 7944 H 777.628 6.0523 2.51749 0
M  V30 7945 H 777.148 4.76332 3.6451 0
M  V30 7946 H 778.827 5.35745 3.62748 0
M  V30 7947 N 778.959 -0.83999 1.33349 0
M  V30 7948 C 780.187 -1.62728 1.27778 0
M  V30 7949 C 780.602 -1.88191 -0.151505 0
M  V30 7950 O 779.959 -1.46128 -1.09329 0
M  V30 7951 C 780.01 -2.97813 2.04913 0
M  V30 7952 O 779.731 -2.73469 3.42266 0
M  V30 7953 C 781.232 -3.92245 2.0654 0
M  V30 7954 H 778.452 -0.506374 0.440257 0
M  V30 7955 H 780.996 -1.04637 1.75703 0
M  V30 7956 H 779.151 -3.52509 1.60674 0
M  V30 7957 H 779.565 -3.59483 3.81932 0
M  V30 7958 H 781.039 -4.84249 2.64966 0
M  V30 7959 H 781.516 -4.26332 1.05537 0
M  V30 7960 H 782.122 -3.43487 2.50793 0
M  V30 7961 N 780.437 -1.16799 -1.0581 0
M  V30 7962 C 781.685 -0.950642 -1.78346 0
M  V30 7963 C 782.006 0.522524 -1.87869 0
M  V30 7964 O 781.276 1.3795 -1.39092 0
M  V30 7965 H 779.856 -0.348736 -0.6606 0
M  V30 7966 H 782.518 -1.47158 -1.27791 0
M  V30 7967 H 781.614 -1.37359 -2.80248 0
M  V30 7968 N 781.915 1.24427 -0.967243 0
M  V30 7969 C 782.848 2.23885 -0.441683 0
M  V30 7970 C 783.826 1.55231 0.483963 0
M  V30 7971 O 785.01 1.83865 0.415445 0
M  V30 7972 C 782.137 3.36755 0.362458 0
M  V30 7973 C 781.183 4.23495 -0.505407 0
M  V30 7974 S 782.016 4.98916 -1.94534 0
M  V30 7975 C 783.172 6.15245 -1.14997 0
M  V30 7976 H 783.405 2.68118 -1.28453 0
M  V30 7977 H 780.938 1.337 -0.772243 0
M  V30 7978 H 782.896 4.02218 0.820445 0
M  V30 7979 H 781.557 2.91081 1.18027 0
M  V30 7980 H 780.75 5.03876 0.111979 0
M  V30 7981 H 780.352 3.63032 -0.899104 0
M  V30 7982 H 782.644 6.7629 -0.404769 0
M  V30 7983 H 783.587 6.81343 -1.92814 0
M  V30 7984 H 783.995 5.60455 -0.674543 0
M  V30 7985 N 783.393 0.737304 1.3929 0
M  V30 7986 C 784.639 0.286681 2.00763 0
M  V30 7987 C 784.972 -1.12388 1.58375 0
M  V30 7988 O 784.247 -1.76661 0.813699 0
M  V30 7989 C 784.53 0.391147 3.57969 0
M  V30 7990 C 784.383 1.84165 4.1037 0
M  V30 7991 C 785.702 -0.225072 4.39524 0
M  V30 7992 H 782.821 0.105642 0.729389 0
M  V30 7993 H 785.463 0.933892 1.65464 0
M  V30 7994 H 783.613 -0.159875 3.88171 0
M  V30 7995 H 785.285 2.44972 3.90879 0
M  V30 7996 H 783.528 2.3622 3.63844 0
M  V30 7997 H 784.199 1.866 5.19504 0
M  V30 7998 H 786.675 0.244677 4.1538 0
M  V30 7999 H 785.551 -0.121646 5.48765 0
M  V30 8000 H 785.812 -1.31141 4.22202 0
M  V30 8001 N 784.871 -1.49948 0.485112 0
M  V30 8002 C 786.148 -1.95186 -0.12726 0
M  V30 8003 C 786.528 -1.42605 -1.5565 0
M  V30 8004 O 785.876 -0.632986 -2.19558 0
M  V30 8005 C 786.086 -3.48955 -0.0562117 0
M  V30 8006 C 787.434 -4.23932 -0.238106 0
M  V30 8007 O 788.458 -3.55955 -0.132145 0
M  V30 8008 O 787.317 -5.44614 -0.453658 0
M  V30 8009 H 784.411 -0.820433 -0.104014 0
M  V30 8010 H 786.957 -1.60659 0.546517 0
M  V30 8011 H 785.729 -3.79814 0.941122 0
M  V30 8012 H 785.352 -3.90056 -0.770834 0
M  V30 8013 N 786.349 -0.21828 -1.56081 0
M  V30 8014 C 787.76 0.290166 -1.84431 0
M  V30 8015 C 788.111 1.59712 -1.13958 0
M  V30 8016 O 787.236 2.12516 -0.40815 0
M  V30 8017 C 787.831 0.53325 -3.34577 0
M  V30 8018 C 786.39 0.986011 -3.63256 0
M  V30 8019 C 785.537 0.0472798 -2.7726 0
M  V30 8020 H 788.488 -0.441548 -1.52434 0
M  V30 8021 H 788.509 1.37967 -3.54606 0
M  V30 8022 H 788.021 -0.418137 -3.85841 0
M  V30 8023 H 786.122 1.95087 -3.17446 0
M  V30 8024 H 786.235 0.862684 -4.71269 0
M  V30 8025 H 784.599 0.553471 -2.48614 0
M  V30 8026 H 785.382 -0.898966 -3.31321 0
M  V30 8027 N 787.827 1.57504 0.0551401 0
M  V30 8028 C 789.052 1.92682 0.767352 0
M  V30 8029 C 789.477 0.81614 1.69472 0
M  V30 8030 O 788.835 -0.229989 1.79835 0
M  V30 8031 C 788.883 3.26866 1.52286 0
M  V30 8032 O 787.987 3.17274 2.63459 0
M  V30 8033 H 787.328 0.630502 0.208238 0
M  V30 8034 H 789.858 2.04592 0.0184026 0
M  V30 8035 H 789.868 3.61138 1.8985 0
M  V30 8036 H 788.543 4.07276 0.842541 0
M  V30 8037 H 787.12 2.94589 2.2863 0
M  V30 8038 N 789.305 -0.326896 1.54172 0
M  V30 8039 C 790.721 -0.671034 1.44808 0
M  V30 8040 C 790.921 -1.91781 0.618258 0
M  V30 8041 O 789.977 -2.52235 0.115751 0
M  V30 8042 C 791.29 -0.848147 2.88491 0
M  V30 8043 C 792.838 -0.945702 2.98371 0
M  V30 8044 C 793.313 -1.15501 4.43197 0
M  V30 8045 N 794.804 -1.22183 4.46795 0
M  V30 8046 C 795.539 -1.4016 5.56006 0
M  V30 8047 N 795.035 -1.55202 6.75192 0
M  V30 8048 N 796.828 -1.42841 5.43648 0
M  V30 8049 H 788.979 0.49262 2.06608 0
M  V30 8050 H 791.242 0.158574 0.934643 0
M  V30 8051 H 790.948 -0.00329969 3.517 0
M  V30 8052 H 790.822 -1.74497 3.34411 0
M  V30 8053 H 793.209 -1.78106 2.35292 0
M  V30 8054 H 793.29 -0.0254215 2.55787 0
M  V30 8055 H 792.934 -0.324521 5.06862 0
M  V30 8056 H 792.864 -2.08911 4.83388 0
M  V30 8057 H 795.355 -1.12016 3.60917 0
M  V30 8058 H 795.668 -1.68601 7.54184 0
M  V30 8059 H 794.013 -1.52306 6.78106 0
M  V30 8060 H 797.204 -1.30683 4.49488 0
M  V30 8061 H 797.377 -1.56509 6.28816 0
M  V30 8062 N 790.784 -1.46188 -0.588786 0
M  V30 8063 C 792.033 -1.50452 -1.34339 0
M  V30 8064 C 792.346 -0.158096 -1.9496 0
M  V30 8065 O 793.552 -0.0784918 -2.71387 0
M  V30 8066 C 792.008 -2.65074 -2.43441 0
M  V30 8067 C 791.616 -4.06111 -1.8915 0
M  V30 8068 C 793.36 -2.78603 -3.20282 0
M  V30 8069 C 791.267 -5.12084 -2.95845 0
M  V30 8070 H 790.197 -0.559905 -0.504997 0
M  V30 8071 H 792.848 -1.72382 -0.629014 0
M  V30 8072 H 791.23 -2.36462 -3.1765 0
M  V30 8073 H 792.404 -4.44487 -1.21524 0
M  V30 8074 H 790.719 -3.97197 -1.24995 0
M  V30 8075 H 793.316 -3.54944 -3.99898 0
M  V30 8076 H 793.659 -1.85902 -3.72486 0
M  V30 8077 H 794.192 -3.06832 -2.53178 0
M  V30 8078 H 790.931 -6.06556 -2.48535 0
M  V30 8079 H 790.451 -4.78259 -3.61979 0
M  V30 8080 H 792.13 -5.37661 -3.59902 0
M  V30 8081 N 792.262 0.832906 -1.33792 0
M  V30 8082 C 793.21 1.96455 -1.24532 0
M  V30 8083 C 794.204 1.68774 -0.145455 0
M  V30 8084 O 795.41 1.77314 -0.309797 0
M  V30 8085 H 791.785 0.645008 -0.386611 0
M  V30 8086 H 793.756 2.01389 -2.20193 0
M  V30 8087 C 792.505 3.32784 -1.00748 0
M  V30 8088 H 791.828 3.54626 -1.84609 0
M  V30 8089 H 793.268 4.12447 -0.98301 0
M  V30 8090 C 791.727 3.35654 0.289475 0
M  V30 8091 O 792.257 3.80281 1.29419 0
M  V30 8092 N 790.463 2.88843 0.3191 0
M  V30 8093 H 790.01 2.52719 -0.499069 0
M  V30 8094 H 789.968 2.91145 1.18667 0
M  V30 8095 N 793.74 1.17359 1.05189 0
M  V30 8096 C 794.986 0.963413 1.78455 0
M  V30 8097 C 795.319 -0.506703 1.87473 0
M  V30 8098 O 794.594 -1.37611 1.37453 0
M  V30 8099 C 794.877 1.60519 3.22344 0
M  V30 8100 C 794.73 3.14741 3.21338 0
M  V30 8101 C 796.049 1.3091 4.20179 0
M  V30 8102 H 793.168 0.351412 0.647826 0
M  V30 8103 H 795.81 1.44858 1.22948 0
M  V30 8104 H 793.96 1.19265 3.69741 0
M  V30 8105 H 795.632 3.65053 2.82017 0
M  V30 8106 H 793.875 3.4749 2.59679 0
M  V30 8107 H 794.546 3.54775 4.22894 0
M  V30 8108 H 797.022 1.66635 3.81277 0
M  V30 8109 H 795.898 1.784 5.191 0
M  V30 8110 H 796.159 0.229908 4.41502 0
M  V30 8111 N 795.218 -1.23913 0.973828 0
M  V30 8112 C 796.181 -2.23367 0.51378 0
M  V30 8113 C 797.181 -1.55923 -0.39302 0
M  V30 8114 O 798.371 -1.73187 -0.187626 0
M  V30 8115 C 795.503 -3.39944 -0.255152 0
M  V30 8116 H 796.696 -2.65581 1.39307 0
M  V30 8117 H 794.249 -1.36632 0.759039 0
M  V30 8118 H 794.984 -3.03177 -1.15127 0
M  V30 8119 H 794.769 -3.90098 0.395673 0
M  V30 8120 H 796.259 -4.13749 -0.565842 0
M  V30 8121 N 796.696 -0.74468 -1.38897 0
M  V30 8122 C 797.644 -0.100312 -2.32384 0
M  V30 8123 C 798.638 0.715191 -1.53562 0
M  V30 8124 O 799.844 0.615288 -1.69157 0
M  V30 8125 H 796.219 -0.0136403 -0.751876 0
M  V30 8126 H 798.19 -0.905007 -2.84345 0
M  V30 8127 C 796.939 0.785432 -3.38713 0
M  V30 8128 H 796.262 0.167308 -3.9945 0
M  V30 8129 H 797.702 1.20374 -4.06554 0
M  V30 8130 C 796.161 1.92408 -2.76552 0
M  V30 8131 O 796.691 3.01752 -2.65157 0
M  V30 8132 N 794.897 1.71642 -2.34494 0
M  V30 8133 H 794.444 0.827079 -2.43961 0
M  V30 8134 H 794.402 2.48 -1.93244 0
M  V30 8135 N 798.174 1.49689 -0.493057 0
M  V30 8136 C 799.104 2.31826 0.279073 0
M  V30 8137 C 800.085 1.39733 0.969987 0
M  V30 8138 O 801.27 1.68646 0.962925 0
M  V30 8139 C 798.4 3.20046 1.34862 0
M  V30 8140 C 797.354 4.20869 0.77805 0
M  V30 8141 C 796.68 4.97971 1.94753 0
M  V30 8142 C 797.98 5.21813 -0.225543 0
M  V30 8143 H 799.674 2.96627 -0.406512 0
M  V30 8144 H 797.22 1.42647 -0.196943 0
M  V30 8145 H 799.173 3.76315 1.89645 0
M  V30 8146 H 797.897 2.53172 2.06328 0
M  V30 8147 H 796.556 3.65733 0.252036 0
M  V30 8148 H 796.204 4.27552 2.64969 0
M  V30 8149 H 795.904 5.66186 1.57187 0
M  V30 8150 H 797.428 5.57082 2.49984 0
M  V30 8151 H 798.842 5.72823 0.233864 0
M  V30 8152 H 797.239 5.97872 -0.516622 0
M  V30 8153 H 798.309 4.71209 -1.14412 0
M  V30 8154 N 799.652 0.226554 1.55963 0
M  V30 8155 C 800.615 -0.668015 2.19249 0
M  V30 8156 C 801.615 -1.11794 1.1558 0
M  V30 8157 O 802.805 -1.02593 1.40784 0
M  V30 8158 C 799.937 -1.91571 2.81981 0
M  V30 8159 H 801.13 -0.116175 2.99675 0
M  V30 8160 H 798.683 -0.0230497 1.56283 0
M  V30 8161 H 799.418 -2.50929 2.05439 0
M  V30 8162 H 799.203 -1.6015 3.57903 0
M  V30 8163 H 800.693 -2.55294 3.30477 0
M  V30 8164 N 801.13 -1.57531 -0.0467866 0
M  V30 8165 C 802.04 -2.08768 -1.07018 0
M  V30 8166 C 803.056 -1.02245 -1.40791 0
M  V30 8167 O 804.232 -1.33873 -1.50466 0
M  V30 8168 C 801.297 -2.54221 -2.35738 0
M  V30 8169 C 800.358 -3.75152 -2.08709 0
M  V30 8170 C 799.591 -4.18428 -3.31291 0
M  V30 8171 O 799.814 -3.61365 -4.4133 0
M  V30 8172 O 798.748 -5.11018 -3.18032 0
M  V30 8173 H 802.574 -2.96334 -0.664812 0
M  V30 8174 H 800.159 -1.47074 -0.262605 0
M  V30 8175 H 802.041 -2.83866 -3.11445 0
M  V30 8176 H 800.716 -1.69774 -2.75605 0
M  V30 8177 H 799.623 -3.50553 -1.30627 0
M  V30 8178 H 800.956 -4.60528 -1.73708 0
M  V30 8179 N 802.608 0.318715 -1.54344 0
M  V30 8180 C 803.518 1.41535 -1.87097 0
M  V30 8181 C 804.534 1.56361 -0.763353 0
M  V30 8182 O 805.71 1.71365 -1.05811 0
M  V30 8183 C 802.775 2.76178 -2.09587 0
M  V30 8184 C 801.836 2.70486 -3.3337 0
M  V30 8185 C 801.069 3.98708 -3.54778 0
M  V30 8186 O 801.292 4.9721 -2.79532 0
M  V30 8187 O 800.226 4.01674 -4.48266 0
M  V30 8188 H 804.052 1.16764 -2.80357 0
M  V30 8189 H 801.637 0.51318 -1.4031 0
M  V30 8190 H 803.519 3.55873 -2.25682 0
M  V30 8191 H 802.194 3.00829 -1.19514 0
M  V30 8192 H 801.101 1.89325 -3.22656 0
M  V30 8193 H 802.434 2.50789 -4.23516 0
M  V30 8194 N 804.086 1.46499 0.581025 0
M  V30 8195 C 805.334 1.51596 1.33653 0
M  V30 8196 C 805.655 0.169859 1.94259 0
M  V30 8197 O 804.925 -0.803776 1.78651 0
M  V30 8198 H 803.505 0.558346 0.496244 0
M  V30 8199 H 806.167 1.8264 0.680338 0
M  V30 8200 H 805.263 2.26956 2.14237 0
M  V30 8201 N 805.565 -0.825799 1.34232 0
M  V30 8202 C 806.495 -1.95151 1.28212 0
M  V30 8203 C 807.476 -1.69345 0.160123 0
M  V30 8204 O 808.661 -1.90983 0.352019 0
M  V30 8205 C 805.791 -3.31554 1.03388 0
M  V30 8206 C 804.745 -3.71793 2.12023 0
M  V30 8207 C 804.071 -5.06147 1.72392 0
M  V30 8208 C 805.371 -3.84193 3.53826 0
M  V30 8209 H 807.065 -2.00445 2.22401 0
M  V30 8210 H 804.611 -0.962996 1.07063 0
M  V30 8211 H 806.564 -4.09889 0.978225 0
M  V30 8212 H 805.288 -3.26551 0.0564142 0
M  V30 8213 H 803.947 -2.95731 2.16654 0
M  V30 8214 H 803.595 -4.97628 0.733137 0
M  V30 8215 H 803.295 -5.34041 2.451 0
M  V30 8216 H 804.819 -5.86943 1.68317 0
M  V30 8217 H 806.233 -4.52806 3.51624 0
M  V30 8218 H 804.63 -4.23538 4.2513 0
M  V30 8219 H 805.7 -2.86272 3.91377 0
M  V30 8220 N 807.043 -1.17915 -1.04565 0
M  V30 8221 C 808.291 -0.969505 -1.77327 0
M  V30 8222 C 808.612 0.502569 -1.88412 0
M  V30 8223 O 807.882 1.36467 -1.40547 0
M  V30 8224 H 806.462 -0.355723 -0.656864 0
M  V30 8225 H 809.124 -1.48506 -1.26223 0
M  V30 8226 H 808.22 -1.40324 -2.78775 0
M  V30 8227 N 808.521 1.23394 -0.980386 0
M  V30 8228 C 809.469 2.26872 -0.513018 0
M  V30 8229 C 810.463 1.63853 0.429948 0
M  V30 8230 O 811.669 1.77417 0.303842 0
M  V30 8231 H 808.044 0.737398 -0.147473 0
M  V30 8232 H 810.015 2.63654 -1.39746 0
M  V30 8233 C 808.764 3.47289 0.168962 0
M  V30 8234 H 808.087 3.96033 -0.547546 0
M  V30 8235 H 809.527 4.21502 0.459616 0
M  V30 8236 C 807.986 3.06425 1.40019 0
M  V30 8237 O 808.516 3.14708 2.49643 0
M  V30 8238 N 806.722 2.61339 1.27084 0
M  V30 8239 H 806.269 2.54799 0.378872 0
M  V30 8240 H 806.227 2.34364 2.09573 0
M  V30 8241 N 809.999 0.752036 1.385 0
M  V30 8242 C 811.248 0.304294 1.99391 0
M  V30 8243 C 811.561 -1.11982 1.60373 0
M  V30 8244 O 812.767 -1.66795 2.14223 0
M  V30 8245 C 811.223 0.493101 3.56506 0
M  V30 8246 C 810.831 1.9262 4.04477 0
M  V30 8247 C 812.575 0.107994 4.24363 0
M  V30 8248 C 810.482 2.06365 5.54227 0
M  V30 8249 H 809.412 0.110024 0.745929 0
M  V30 8250 H 812.063 0.928355 1.58284 0
M  V30 8251 H 810.445 -0.20012 3.95494 0
M  V30 8252 H 811.619 2.65276 3.76783 0
M  V30 8253 H 809.934 2.26608 3.49339 0
M  V30 8254 H 812.531 0.189474 5.34364 0
M  V30 8255 H 812.874 -0.939165 4.05568 0
M  V30 8256 H 813.407 0.753011 3.90608 0
M  V30 8257 H 810.146 3.0933 5.77923 0
M  V30 8258 H 809.666 1.38167 5.83669 0
M  V30 8259 H 811.345 1.85286 6.19902 0
M  V30 8260 N 811.477 -1.49425 0.500989 0
M  V30 8261 C 812.893 -1.58826 0.156951 0
M  V30 8262 C 813.093 -1.50622 -1.33848 0
M  V30 8263 O 812.149 -1.38016 -2.11442 0
M  V30 8264 C 813.462 -2.91611 0.73374 0
M  V30 8265 C 815.01 -3.05076 0.699846 0
M  V30 8266 C 815.485 -4.40479 1.2547 0
M  V30 8267 N 816.976 -4.4697 1.2154 0
M  V30 8268 C 817.711 -5.50189 1.6149 0
M  V30 8269 N 817.207 -6.60512 2.09034 0
M  V30 8270 N 819 -5.40903 1.52907 0
M  V30 8271 H 811.151 -1.53001 1.47324 0
M  V30 8272 H 813.414 -0.724765 0.61108 0
M  V30 8273 H 813.12 -3.03182 1.78251 0
M  V30 8274 H 812.994 -3.767 0.19417 0
M  V30 8275 H 815.381 -2.93134 -0.340085 0
M  V30 8276 H 815.462 -2.2167 1.27656 0
M  V30 8277 H 815.106 -4.53172 2.29341 0
M  V30 8278 H 815.036 -5.22524 0.653921 0
M  V30 8279 H 817.527 -3.67819 0.867043 0
M  V30 8280 H 817.84 -7.35372 2.37588 0
M  V30 8281 H 816.185 -6.61553 2.13008 0
M  V30 8282 H 819.376 -4.53606 1.15583 0
M  V30 8283 H 819.549 -6.21219 1.84365 0
M  V30 8284 N 812.955 -0.234822 -1.55841 0
M  V30 8285 C 813.918 0.656378 -2.196 0
M  V30 8286 C 814.918 1.11179 -1.16171 0
M  V30 8287 O 816.108 1.01845 -1.41326 0
M  V30 8288 C 813.24 1.90072 -2.82993 0
M  V30 8289 H 814.433 0.100281 -2.99732 0
M  V30 8290 H 811.986 0.0147613 -1.56293 0
M  V30 8291 H 812.721 2.49836 -2.06767 0
M  V30 8292 H 812.506 1.5825 -3.58747 0
M  V30 8293 H 813.996 2.53538 -3.31826 0
M  V30 8294 N 814.433 1.57553 0.0384317 0
M  V30 8295 C 815.381 2.07021 1.06043 0
M  V30 8296 C 816.375 0.982078 1.38028 0
M  V30 8297 O 817.581 1.16702 1.37042 0
M  V30 8298 H 813.956 0.660522 0.359464 0
M  V30 8299 H 815.927 2.91944 0.617339 0
M  V30 8300 C 814.676 2.55734 2.35574 0
M  V30 8301 H 813.999 3.39074 2.11822 0
M  V30 8302 H 815.439 2.94066 3.05452 0
M  V30 8303 C 813.898 1.45449 3.03885 0
M  V30 8304 O 814.428 0.815402 3.93337 0
M  V30 8305 N 812.634 1.19134 2.65058 0
M  V30 8306 H 812.181 1.71288 1.92401 0
M  V30 8307 H 812.139 0.455554 3.11082 0
M  V30 8308 N 815.911 -0.310526 1.54511 0
M  V30 8309 C 817.136 -1.07046 1.7764 0
M  V30 8310 C 817.561 -1.80488 0.529696 0
M  V30 8311 O 816.919 -1.73702 -0.519361 0
M  V30 8312 C 816.967 -2.03411 2.97752 0
M  V30 8313 O 816.071 -3.11545 2.7021 0
M  V30 8314 H 815.412 -0.307994 0.588248 0
M  V30 8315 H 817.942 -0.350848 2.01569 0
M  V30 8316 H 817.952 -2.46048 3.2546 0
M  V30 8317 H 816.627 -1.49361 3.88155 0
M  V30 8318 H 815.204 -2.7349 2.53491 0
M  V30 8319 N 817.389 -1.46805 -0.573248 0
M  V30 8320 C 818.636 -1.52604 -1.3311 0
M  V30 8321 C 818.964 -0.181633 -1.9365 0
M  V30 8322 O 818.219 0.823775 -1.77517 0
M  V30 8323 C 818.518 -2.58001 -2.47326 0
M  V30 8324 C 818.184 -4.01747 -2.04719 0
M  V30 8325 C 816.846 -4.40881 -1.92814 0
M  V30 8326 C 819.198 -4.92008 -1.71982 0
M  V30 8327 C 816.526 -5.68129 -1.46445 0
M  V30 8328 C 818.878 -6.19703 -1.27089 0
M  V30 8329 C 817.542 -6.57733 -1.13768 0
M  V30 8330 H 816.812 -0.558417 -0.487084 0
M  V30 8331 H 819.459 -1.80327 -0.644538 0
M  V30 8332 H 817.764 -2.23974 -3.2147 0
M  V30 8333 H 819.461 -2.59715 -3.05531 0
M  V30 8334 H 816.051 -3.70819 -2.14922 0
M  V30 8335 H 820.235 -4.62485 -1.8006 0
M  V30 8336 H 815.491 -5.96359 -1.34783 0
M  V30 8337 H 819.665 -6.89064 -1.00814 0
M  V30 8338 H 817.292 -7.56228 -0.776142 0
M  V30 8339 N 818.867 0.818669 -1.34668 0
M  V30 8340 C 820.115 1.57201 -1.27013 0
M  V30 8341 C 820.436 1.94354 0.158599 0
M  V30 8342 O 819.706 1.62626 1.09223 0
M  V30 8343 H 818.286 0.582919 -0.467135 0
M  V30 8344 H 820.948 0.977234 -1.6863 0
M  V30 8345 H 820.044 2.49291 -1.87778 0
M  V30 8346 N 820.346 1.18468 1.03938 0
M  V30 8347 C 821.576 1.0043 1.80547 0
M  V30 8348 C 821.984 -0.450407 1.83761 0
M  V30 8349 O 821.327 -1.32463 1.27276 0
M  V30 8350 C 821.389 1.48437 3.27424 0
M  V30 8351 C 821.053 2.96372 3.47869 0
M  V30 8352 C 822.05 3.94217 3.38953 0
M  V30 8353 C 819.735 3.34831 3.74424 0
M  V30 8354 C 821.729 5.28517 3.56298 0
M  V30 8355 C 819.416 4.69294 3.91416 0
M  V30 8356 C 820.414 5.65946 3.82354 0
M  V30 8357 O 820.102 6.97974 3.98858 0
M  V30 8358 H 819.834 0.354853 0.575374 0
M  V30 8359 H 822.388 1.57473 1.31876 0
M  V30 8360 H 820.618 0.857601 3.7707 0
M  V30 8361 H 822.307 1.2677 3.85596 0
M  V30 8362 H 823.073 3.6585 3.184 0
M  V30 8363 H 818.952 2.60161 3.80575 0
M  V30 8364 H 822.496 6.03943 3.49141 0
M  V30 8365 H 818.393 4.97361 4.11463 0
M  V30 8366 H 819.161 7.04895 4.1601 0
M  V30 8367 N 821.824 -1.22873 0.986916 0
M  V30 8368 C 823.101 -1.86939 0.575589 0
M  V30 8369 C 823.481 -1.88656 -0.947205 0
M  V30 8370 O 822.829 -1.3728 -1.82665 0
M  V30 8371 C 823.039 -3.28117 1.18914 0
M  V30 8372 C 824.387 -4.04659 1.28593 0
M  V30 8373 O 825.411 -3.3736 1.14308 0
M  V30 8374 O 824.27 -5.25112 1.51391 0
M  V30 8375 H 821.364 -0.803748 0.194724 0
M  V30 8376 H 823.91 -1.30698 1.08241 0
M  V30 8377 H 822.682 -3.21468 2.231 0
M  V30 8378 H 822.305 -3.91956 0.667535 0
M  V30 8379 N 823.302 -0.75937 -1.38099 0
M  V30 8380 C 824.527 -0.327859 -2.04792 0
M  V30 8381 C 824.952 1.03752 -1.56899 0
M  V30 8382 O 824.31 1.66235 -0.723581 0
M  V30 8383 C 824.358 -0.366264 -3.58735 0
M  V30 8384 O 823.462 0.637697 -4.0744 0
M  V30 8385 H 822.803 -0.144092 -0.648177 0
M  V30 8386 H 825.333 -1.03211 -1.7666 0
M  V30 8387 H 825.343 -0.219179 -4.07411 0
M  V30 8388 H 824.018 -1.36243 -3.92951 0
M  V30 8389 H 822.595 0.454749 -3.70117 0
M  V30 8390 N 824.78 1.49157 -0.508906 0
M  V30 8391 C 825.743 2.27784 0.25434 0
M  V30 8392 C 826.743 1.34132 0.88686 0
M  V30 8393 O 827.933 1.5722 0.750168 0
M  V30 8394 C 825.065 3.12347 1.36573 0
M  V30 8395 H 826.258 2.96718 -0.435714 0
M  V30 8396 H 823.811 1.54052 -0.264128 0
M  V30 8397 H 824.546 2.47997 2.08969 0
M  V30 8398 H 824.331 3.81213 0.917543 0
M  V30 8399 H 825.821 3.71712 1.90315 0
M  V30 8400 N 826.258 0.243083 1.55714 0
M  V30 8401 C 827.221 -0.644723 2.19945 0
M  V30 8402 C 828.221 -1.10562 1.16759 0
M  V30 8403 O 829.411 -1.01095 1.41865 0
M  V30 8404 C 826.543 -1.88569 2.83997 0
M  V30 8405 H 827.736 -0.0843839 2.99781 0
M  V30 8406 H 825.289 -0.00647246 1.56299 0
M  V30 8407 H 826.024 -2.48736 2.08089 0
M  V30 8408 H 825.809 -1.56345 3.59581 0
M  V30 8409 H 827.299 -2.51774 3.33166 0
M  V30 8410 N 827.736 -1.57571 -0.0300757 0
M  V30 8411 C 828.985 -1.88407 -0.720126 0
M  V30 8412 C 829.298 -0.841466 -1.76575 0
M  V30 8413 O 830.504 -1.03902 -2.50832 0
M  V30 8414 C 828.96 -3.34348 -1.33188 0
M  V30 8415 C 828.568 -4.46837 -0.32266 0
M  V30 8416 C 830.312 -3.74333 -2.00187 0
M  V30 8417 C 828.219 -5.83838 -0.942703 0
M  V30 8418 H 827.149 -0.702952 -0.272718 0
M  V30 8419 H 829.8 -1.83482 0.0255337 0
M  V30 8420 H 828.182 -3.34014 -2.12721 0
M  V30 8421 H 829.356 -4.58638 0.445887 0
M  V30 8422 H 827.671 -4.15678 0.245181 0
M  V30 8423 H 830.268 -4.74008 -2.47428 0
M  V30 8424 H 830.611 -3.06275 -2.81959 0
M  V30 8425 H 831.144 -3.76837 -1.2743 0
M  V30 8426 H 827.883 -6.55294 -0.164413 0
M  V30 8427 H 827.403 -5.75759 -1.68111 0
M  V30 8428 H 829.082 -6.30535 -1.45034 0
M  V30 8429 N 829.214 0.302327 -1.54673 0
M  V30 8430 C 830.161 1.37282 -1.85532 0
M  V30 8431 C 831.131 1.50437 -0.704129 0
M  V30 8432 O 832.316 1.65317 -0.952627 0
M  V30 8433 C 829.456 2.73309 -2.10704 0
M  V30 8434 C 828.569 2.68614 -3.38335 0
M  V30 8435 C 827.704 3.96626 -3.53357 0
M  V30 8436 C 826.743 3.86324 -4.74784 0
M  V30 8437 N 825.88 5.06109 -4.86619 0
M  V30 8438 H 830.72 1.10265 -2.76849 0
M  V30 8439 H 828.257 0.533346 -1.37091 0
M  V30 8440 H 830.215 3.52414 -2.23294 0
M  V30 8441 H 828.845 2.98589 -1.22656 0
M  V30 8442 H 827.897 1.81381 -3.34373 0
M  V30 8443 H 829.209 2.56891 -4.27561 0
M  V30 8444 H 828.363 4.84168 -3.65604 0
M  V30 8445 H 827.102 4.11182 -2.62261 0
M  V30 8446 H 826.107 2.97166 -4.62572 0
M  V30 8447 H 827.332 3.73315 -5.67286 0
M  V30 8448 H 825.278 5.2113 -3.98446 0
M  V30 8449 H 825.195 4.96804 -5.69844 0
M  V30 8450 H 826.463 5.95306 -5.03221 0
M  V30 8451 N 830.692 1.47107 0.565454 0
M  V30 8452 C 831.622 1.61846 1.68309 0
M  V30 8453 C 832.603 0.468159 1.63531 0
M  V30 8454 O 833.788 0.696504 1.8128 0
M  V30 8455 C 830.918 1.62474 3.06952 0
M  V30 8456 C 829.872 2.76649 3.26572 0
M  V30 8457 C 829.198 2.62345 4.65917 0
M  V30 8458 C 830.498 4.18319 3.12741 0
M  V30 8459 H 832.192 2.55407 1.5623 0
M  V30 8460 H 829.738 1.22916 0.750179 0
M  V30 8461 H 831.691 1.71378 3.84977 0
M  V30 8462 H 830.415 0.654692 3.19971 0
M  V30 8463 H 829.074 2.67242 2.50952 0
M  V30 8464 H 828.722 1.63386 4.75725 0
M  V30 8465 H 828.422 3.38936 4.79996 0
M  V30 8466 H 829.946 2.73165 5.46089 0
M  V30 8467 H 831.36 4.28745 3.80593 0
M  V30 8468 H 829.757 4.95632 3.38333 0
M  V30 8469 H 830.827 4.37263 2.09592 0
M  V30 8470 N 832.17 -0.811516 1.35101 0
M  V30 8471 C 833.586 -1.10634 1.15031 0
M  V30 8472 C 833.786 -2.01459 -0.0405379 0
M  V30 8473 O 832.842 -2.42235 -0.712635 0
M  V30 8474 C 834.155 -1.74207 2.45097 0
M  V30 8475 C 835.703 -1.8665 2.51258 0
M  V30 8476 C 836.178 -2.53638 3.81355 0
M  V30 8477 N 837.669 -2.61128 3.82579 0
M  V30 8478 C 838.404 -3.13717 4.79968 0
M  V30 8479 N 837.9 -3.66782 5.87744 0
M  V30 8480 N 839.693 -3.12224 4.67411 0
M  V30 8481 H 831.844 -0.207641 2.11383 0
M  V30 8482 H 834.107 -0.154697 0.935293 0
M  V30 8483 H 833.813 -1.14936 3.32389 0
M  V30 8484 H 833.687 -2.73958 2.59281 0
M  V30 8485 H 836.074 -2.45066 1.64398 0
M  V30 8486 H 836.155 -0.857678 2.40993 0
M  V30 8487 H 835.799 -1.95873 4.68611 0
M  V30 8488 H 835.729 -3.55047 3.88907 0
M  V30 8489 H 838.22 -2.23527 3.04703 0
M  V30 8490 H 838.533 -4.05194 6.58056 0
M  V30 8491 H 836.878 -3.64994 5.91443 0
M  V30 8492 H 840.069 -2.70042 3.82354 0
M  V30 8493 H 840.242 -3.52903 5.43474 0
M  V30 8494 N 833.648 -1.19017 -1.03309 0
M  V30 8495 C 834.897 -0.984542 -1.76039 0
M  V30 8496 C 835.21 0.485937 -1.89468 0
M  V30 8497 O 836.416 0.810278 -2.59127 0
M  V30 8498 C 834.872 -1.71261 -3.1654 0
M  V30 8499 C 834.48 -3.22291 -3.11179 0
M  V30 8500 C 836.224 -1.59007 -3.93595 0
M  V30 8501 C 834.131 -3.87704 -4.46587 0
M  V30 8502 H 833.061 -0.364749 -0.659905 0
M  V30 8503 H 835.712 -1.4247 -1.15649 0
M  V30 8504 H 834.094 -1.20025 -3.77373 0
M  V30 8505 H 835.268 -3.80611 -2.59753 0
M  V30 8506 H 833.583 -3.34772 -2.47622 0
M  V30 8507 H 836.18 -2.05232 -4.93745 0
M  V30 8508 H 836.523 -0.543534 -4.12736 0
M  V30 8509 H 837.056 -2.07564 -3.39355 0
M  V30 8510 H 833.795 -4.92437 -4.3265 0
M  V30 8511 H 833.315 -3.34172 -4.98085 0
M  V30 8512 H 834.994 -3.91008 -5.15482 0
M  V30 8513 N 835.127 1.22348 -0.993418 0
M  V30 8514 C 836.077 2.221 -0.515333 0
M  V30 8515 C 837.061 1.55409 0.416762 0
M  V30 8516 O 838.253 1.75317 0.243497 0
M  V30 8517 C 835.382 3.42888 0.168173 0
M  V30 8518 C 834.468 4.16786 -0.784257 0
M  V30 8519 N 834.859 4.67435 -1.93231 0
M  V30 8520 C 833.157 4.41942 -0.600243 0
M  V30 8521 C 833.858 5.23792 -2.53016 0
M  V30 8522 N 832.834 5.12483 -1.8128 0
M  V30 8523 H 836.636 2.58902 -1.39093 0
M  V30 8524 H 834.15 1.38024 -0.855747 0
M  V30 8525 H 836.147 4.13542 0.528069 0
M  V30 8526 H 834.807 3.07598 1.03989 0
M  V30 8527 H 835.818 4.63375 -2.31309 0
M  V30 8528 H 832.495 4.16891 0.225369 0
M  V30 8529 H 833.885 5.73515 -3.50043 0
M  V30 8530 N 836.605 0.766683 1.37694 0
M  V30 8531 C 837.552 0.147725 2.30327 0
M  V30 8532 C 838.522 -0.695366 1.50844 0
M  V30 8533 O 839.707 -0.64878 1.79431 0
M  V30 8534 C 836.847 -0.72935 3.37305 0
M  V30 8535 C 835.96 0.129795 4.31805 0
M  V30 8536 C 835.095 -0.751511 5.25857 0
M  V30 8537 C 834.134 0.110475 6.12 0
M  V30 8538 N 833.271 -0.728522 6.9831 0
M  V30 8539 H 838.111 0.943204 2.82679 0
M  V30 8540 H 835.648 0.476736 1.3916 0
M  V30 8541 H 837.606 -1.25263 3.97951 0
M  V30 8542 H 836.236 -1.49048 2.86329 0
M  V30 8543 H 835.288 0.770829 3.72508 0
M  V30 8544 H 836.6 0.794923 4.92425 0
M  V30 8545 H 835.754 -1.34146 5.91684 0
M  V30 8546 H 834.493 -1.45034 4.65636 0
M  V30 8547 H 833.498 0.712999 5.45157 0
M  V30 8548 H 834.723 0.806557 6.74293 0
M  V30 8549 H 832.669 -1.41206 6.40622 0
M  V30 8550 H 832.586 -0.12058 7.55904 0
M  V30 8551 H 833.854 -1.30303 7.68532 0
M  V30 8552 N 838.083 -1.48885 0.516809 0
M  V30 8553 C 839.013 -2.32241 -0.242157 0
M  V30 8554 C 839.994 -1.41258 -0.947633 0
M  V30 8555 O 841.179 -1.70156 -0.935973 0
M  V30 8556 C 838.309 -3.22151 -1.29754 0
M  V30 8557 C 837.263 -4.22053 -0.710995 0
M  V30 8558 C 836.589 -5.01007 -1.86806 0
M  V30 8559 C 837.889 -5.21388 0.30853 0
M  V30 8560 H 839.583 -2.95943 0.453651 0
M  V30 8561 H 837.129 -1.42316 0.219612 0
M  V30 8562 H 839.082 -3.79284 -1.83634 0
M  V30 8563 H 837.806 -2.56423 -2.02274 0
M  V30 8564 H 836.465 -3.66087 -0.193819 0
M  V30 8565 H 836.113 -4.31713 -2.58133 0
M  V30 8566 H 835.813 -5.68615 -1.48159 0
M  V30 8567 H 837.337 -5.60989 -2.4109 0
M  V30 8568 H 838.751 -5.73122 -0.142703 0
M  V30 8569 H 837.148 -5.96975 0.611673 0
M  V30 8570 H 838.218 -4.69329 1.21894 0
M  V30 8571 N 839.561 -0.251338 -1.55583 0
M  V30 8572 C 840.786 0.379136 -2.03905 0
M  V30 8573 C 841.211 1.50428 -1.12929 0
M  V30 8574 O 840.569 1.80882 -0.123114 0
M  V30 8575 C 840.617 0.86009 -3.50193 0
M  V30 8576 O 839.721 1.96932 -3.62342 0
M  V30 8577 H 839.062 0.0820183 -0.658915 0
M  V30 8578 H 841.592 -0.378692 -2.01065 0
M  V30 8579 H 841.602 1.16214 -3.91099 0
M  V30 8580 H 840.277 0.0367559 -4.15884 0
M  V30 8581 H 838.854 1.67163 -3.33333 0
M  V30 8582 N 841.039 1.57585 0.0217189 0
M  V30 8583 C 841.986 2.07036 1.02004 0
M  V30 8584 C 842.956 0.96106 1.35473 0
M  V30 8585 O 844.141 1.23211 1.45684 0
M  V30 8586 C 841.281 2.56056 2.31364 0
M  V30 8587 C 840.394 3.80805 2.03989 0
M  V30 8588 C 839.529 4.18409 3.27272 0
M  V30 8589 C 838.568 5.36055 2.95486 0
M  V30 8590 N 837.705 5.69056 4.11242 0
M  V30 8591 H 842.545 2.92073 0.591396 0
M  V30 8592 H 840.082 1.44403 0.280384 0
M  V30 8593 H 842.04 2.82548 3.06957 0
M  V30 8594 H 840.67 1.73925 2.71937 0
M  V30 8595 H 839.722 3.61354 1.1886 0
M  V30 8596 H 841.034 4.66512 1.76546 0
M  V30 8597 H 840.188 4.46068 4.11228 0
M  V30 8598 H 838.927 3.31369 3.57835 0
M  V30 8599 H 837.932 5.08142 2.09933 0
M  V30 8600 H 839.157 6.24755 2.66193 0
M  V30 8601 H 837.103 4.84974 4.41742 0
M  V30 8602 H 837.02 6.49288 3.87247 0
M  V30 8603 H 838.288 6.01295 4.96049 0
M  V30 8604 N 842.517 -0.29412 1.54831 0
M  V30 8605 C 843.745 -1.04724 1.78439 0
M  V30 8606 C 844.16 -1.80695 0.547239 0
M  V30 8607 O 843.517 -1.75989 -0.483141 0
M  V30 8608 C 843.568 -2.02242 2.99634 0
M  V30 8609 O 843.289 -1.29352 4.18568 0
M  V30 8610 C 844.79 -2.89537 3.35683 0
M  V30 8611 H 842.01 -0.310285 0.594949 0
M  V30 8612 H 844.554 -0.331306 2.01798 0
M  V30 8613 H 842.709 -2.69328 2.78462 0
M  V30 8614 H 843.123 -1.94901 4.86943 0
M  V30 8615 H 844.597 -3.538 4.23709 0
M  V30 8616 H 845.074 -3.58201 2.54143 0
M  V30 8617 H 845.68 -2.27973 3.59038 0
M  V30 8618 N 843.995 -1.47404 -0.557645 0
M  V30 8619 C 844.925 -1.62736 -1.67449 0
M  V30 8620 C 845.906 -0.476824 -1.6328 0
M  V30 8621 O 847.091 -0.706108 -1.80908 0
M  V30 8622 C 844.221 -1.641 -3.06086 0
M  V30 8623 C 843.175 -2.78377 -3.25101 0
M  V30 8624 C 842.501 -2.64812 -4.6452 0
M  V30 8625 C 843.801 -4.19971 -3.10518 0
M  V30 8626 H 845.495 -2.56232 -1.54873 0
M  V30 8627 H 843.041 -1.23312 -0.743649 0
M  V30 8628 H 844.994 -1.73417 -3.84063 0
M  V30 8629 H 843.718 -0.671652 -3.19619 0
M  V30 8630 H 842.377 -2.6857 -2.49531 0
M  V30 8631 H 842.025 -1.65906 -4.74852 0
M  V30 8632 H 841.725 -3.41477 -4.78191 0
M  V30 8633 H 843.249 -2.76057 -5.44633 0
M  V30 8634 H 844.663 -4.30757 -3.78313 0
M  V30 8635 H 843.06 -4.97419 -3.35699 0
M  V30 8636 H 844.13 -4.38369 -2.0727 0
M  V30 8637 N 845.473 0.80434 -1.35529 0
M  V30 8638 C 846.75 1.5486 -1.1949 0
M  V30 8639 C 847.13 2.09897 0.22506 0
M  V30 8640 O 846.478 1.92643 1.22886 0
M  V30 8641 C 846.688 2.65535 -2.26478 0
M  V30 8642 C 848.036 3.33814 -2.62399 0
M  V30 8643 O 849.06 2.75807 -2.25409 0
M  V30 8644 O 847.919 4.38612 -3.26009 0
M  V30 8645 H 845.013 0.68433 -0.464351 0
M  V30 8646 H 847.559 0.844107 -1.47217 0
M  V30 8647 H 846.331 2.22754 -3.21709 0
M  V30 8648 H 845.954 3.43617 -2.00033 0
M  V30 8649 N 846.951 1.19563 1.02676 0
M  V30 8650 C 848.176 1.02556 1.80269 0
M  V30 8651 C 848.601 -0.421056 1.83327 0
M  V30 8652 O 847.959 -1.30279 1.26084 0
M  V30 8653 C 848.007 1.60165 3.23078 0
M  V30 8654 O 847.111 0.832404 4.03912 0
M  V30 8655 H 846.452 0.362354 0.556413 0
M  V30 8656 H 848.982 1.58633 1.29216 0
M  V30 8657 H 848.992 1.6347 3.7382 0
M  V30 8658 H 847.667 2.65454 3.20167 0
M  V30 8659 H 846.244 0.872768 3.62543 0
M  V30 8660 N 848.429 -1.21819 0.999893 0
M  V30 8661 C 849.677 -1.90375 0.678351 0
M  V30 8662 C 849.998 -1.78155 -0.792824 0
M  V30 8663 O 849.268 -1.17319 -1.56885 0
M  V30 8664 H 847.848 -0.704661 0.247915 0
M  V30 8665 H 850.51 -1.48021 1.2679 0
M  V30 8666 H 849.606 -2.97385 0.947023 0
M  V30 8667 N 849.908 -0.773975 -1.37286 0
M  V30 8668 C 850.871 -0.167974 -2.28584 0
M  V30 8669 C 851.871 0.625662 -1.48129 0
M  V30 8670 O 853.061 0.448924 -1.68316 0
M  V30 8671 C 850.193 0.769364 -3.32105 0
M  V30 8672 H 851.386 -0.972806 -2.83684 0
M  V30 8673 H 848.939 -0.542335 -1.46589 0
M  V30 8674 H 849.674 1.59912 -2.82132 0
M  V30 8675 H 849.459 0.202419 -3.91577 0
M  V30 8676 H 850.949 1.18872 -4.00324 0
M  V30 8677 N 851.386 1.48609 -0.524698 0
M  V30 8678 C 852.316 2.32366 0.229837 0
M  V30 8679 C 853.297 1.41759 0.940129 0
M  V30 8680 O 854.482 1.7065 0.926936 0
M  V30 8681 C 851.612 3.22835 1.28043 0
M  V30 8682 C 850.566 4.22424 0.688603 0
M  V30 8683 C 849.892 5.0199 1.84146 0
M  V30 8684 C 851.192 5.21217 -0.336176 0
M  V30 8685 H 852.886 2.95698 -0.469339 0
M  V30 8686 H 850.432 1.42197 -0.227156 0
M  V30 8687 H 852.385 3.80253 1.8162 0
M  V30 8688 H 851.109 2.57492 2.00912 0
M  V30 8689 H 849.768 3.66185 0.174402 0
M  V30 8690 H 849.416 4.33076 2.5584 0
M  V30 8691 H 849.116 5.69392 1.45142 0
M  V30 8692 H 850.64 5.62259 2.38111 0
M  V30 8693 H 852.054 5.7319 0.112307 0
M  V30 8694 H 850.451 5.96642 -0.643324 0
M  V30 8695 H 851.521 4.68676 -1.24381 0
M  V30 8696 N 852.864 0.259585 1.55447 0
M  V30 8697 C 854.094 -0.364863 2.03353 0
M  V30 8698 C 854.502 -1.5116 1.13786 0
M  V30 8699 O 853.845 -1.83109 0.147283 0
M  V30 8700 C 853.907 -0.922587 3.4746 0
M  V30 8701 C 853.571 0.0935207 4.56904 0
M  V30 8702 C 854.568 0.907571 5.11917 0
M  V30 8703 C 852.253 0.223276 5.01804 0
M  V30 8704 C 854.247 1.83771 6.10333 0
M  V30 8705 C 851.934 1.15691 6.00049 0
M  V30 8706 C 852.932 1.96264 6.54194 0
M  V30 8707 O 852.62 2.88052 7.50521 0
M  V30 8708 H 852.352 -0.0893313 0.670072 0
M  V30 8709 H 854.906 0.384821 2.01763 0
M  V30 8710 H 853.136 -1.72206 3.4624 0
M  V30 8711 H 854.825 -1.45846 3.78792 0
M  V30 8712 H 855.591 0.817979 4.78052 0
M  V30 8713 H 851.47 -0.393834 4.59315 0
M  V30 8714 H 855.014 2.46703 6.52521 0
M  V30 8715 H 850.911 1.24738 6.33333 0
M  V30 8716 H 851.679 2.82557 7.68182 0
M  V30 8717 N 854.342 -1.57594 -0.0133615 0
M  V30 8718 C 855.567 -1.94649 -0.715996 0
M  V30 8719 C 855.992 -0.860786 -1.67249 0
M  V30 8720 O 855.35 0.182228 -1.80382 0
M  V30 8721 C 855.398 -3.30789 -1.43566 0
M  V30 8722 O 854.502 -3.24148 -2.54955 0
M  V30 8723 H 853.843 -0.635801 -0.191449 0
M  V30 8724 H 856.373 -2.04569 0.0358478 0
M  V30 8725 H 856.383 -3.66045 -1.80208 0
M  V30 8726 H 855.058 -4.09367 -0.734263 0
M  V30 8727 H 853.635 -3.00548 -2.20739 0
M  V30 8728 N 855.82 0.285905 -1.54985 0
M  V30 8729 C 856.77 1.35505 -1.83364 0
M  V30 8730 C 857.754 1.45273 -0.691698 0
M  V30 8731 O 858.946 1.49172 -0.952725 0
M  V30 8732 C 856.075 2.71756 -2.0977 0
M  V30 8733 C 855.161 2.6615 -3.30189 0
M  V30 8734 N 855.552 2.30161 -4.50399 0
M  V30 8735 C 853.85 2.97232 -3.3252 0
M  V30 8736 C 854.551 2.34228 -5.32459 0
M  V30 8737 N 853.527 2.72187 -4.70548 0
M  V30 8738 H 857.329 1.06668 -2.7386 0
M  V30 8739 H 854.843 0.494521 -1.54688 0
M  V30 8740 H 856.84 3.48864 -2.28253 0
M  V30 8741 H 855.5 3.01492 -1.20551 0
M  V30 8742 H 856.511 2.02358 -4.7673 0
M  V30 8743 H 853.188 3.31764 -2.53454 0
M  V30 8744 H 854.578 2.09074 -6.38543 0
M  V30 8745 N 857.298 1.47698 0.54982 0
M  V30 8746 C 858.547 1.53961 1.30303 0
M  V30 8747 C 858.86 0.209731 1.94472 0
M  V30 8748 O 860.066 0.150418 2.71083 0
M  V30 8749 C 858.522 2.71436 2.36328 0
M  V30 8750 C 858.13 4.10983 1.78316 0
M  V30 8751 C 859.874 2.86996 3.12783 0
M  V30 8752 C 857.781 5.19747 2.82164 0
M  V30 8753 H 856.711 0.573098 0.489975 0
M  V30 8754 H 859.362 1.73989 0.583089 0
M  V30 8755 H 857.744 2.44801 3.11269 0
M  V30 8756 H 858.918 4.47552 1.09697 0
M  V30 8757 H 857.233 4.00371 1.1442 0
M  V30 8758 H 859.83 3.65422 3.90347 0
M  V30 8759 H 860.173 1.95712 3.67427 0
M  V30 8760 H 860.706 3.13436 2.44954 0
M  V30 8761 H 857.445 6.12932 2.32366 0
M  V30 8762 H 856.965 4.87688 3.49171 0
M  V30 8763 H 858.644 5.47014 3.4552 0
M  V30 8764 N 858.776 -0.797141 1.35954 0
M  V30 8765 C 859.724 -1.93084 1.29697 0
M  V30 8766 C 860.718 -1.68329 0.190152 0
M  V30 8767 O 861.924 -1.7643 0.3567 0
M  V30 8768 H 858.299 -0.634531 0.403577 0
M  V30 8769 H 860.27 -1.95481 2.25455 0
M  V30 8770 C 859.019 -3.29996 1.09536 0
M  V30 8771 H 858.342 -3.49607 1.93946 0
M  V30 8772 H 859.782 -4.09696 1.09202 0
M  V30 8773 C 858.241 -3.36304 -0.200381 0
M  V30 8774 O 858.771 -3.83579 -1.19291 0
M  V30 8775 N 856.977 -2.89587 -0.242406 0
M  V30 8776 H 856.524 -2.51307 0.565897 0
M  V30 8777 H 856.482 -2.94189 -1.10906 0
M  V30 8778 N 860.254 -1.20106 -1.0204 0
M  V30 8779 C 861.502 -1.0069 -1.75231 0
M  V30 8780 C 861.823 0.462491 -1.89436 0
M  V30 8781 O 861.093 1.33455 -1.4341 0
M  V30 8782 H 859.673 -0.369576 -0.649171 0
M  V30 8783 H 862.335 -1.51149 -1.23044 0
M  V30 8784 H 861.431 -1.46205 -2.75736 0
M  V30 8785 N 861.732 1.21287 -1.00634 0
M  V30 8786 C 862.98 1.90013 -0.688438 0
M  V30 8787 C 863.301 1.78573 0.783365 0
M  V30 8788 O 862.571 1.1815 1.56261 0
M  V30 8789 H 861.151 0.703336 -0.251648 0
M  V30 8790 H 863.813 1.47346 -1.27574 0
M  V30 8791 H 862.909 2.96879 -0.962781 0
M  V30 8792 N 863.21 0.781244 1.36873 0
M  V30 8793 C 864.173 0.180094 2.28491 0
M  V30 8794 C 865.173 -0.617798 1.48458 0
M  V30 8795 O 866.363 -0.439991 1.68552 0
M  V30 8796 C 863.495 -0.751741 3.32508 0
M  V30 8797 H 864.688 0.987837 2.83164 0
M  V30 8798 H 862.241 0.550102 1.463 0
M  V30 8799 H 862.976 -1.58413 2.82977 0
M  V30 8800 H 862.761 -0.181649 3.91679 0
M  V30 8801 H 864.251 -1.16748 4.00949 0
M  V30 8802 N 864.689 -1.48329 0.532571 0
M  V30 8803 C 865.937 -2.021 -0.000581206 0
M  V30 8804 C 866.258 -1.4117 -1.34522 0
M  V30 8805 O 865.528 -0.578005 -1.87179 0
M  V30 8806 H 864.108 -0.746993 -0.00320281 0
M  V30 8807 H 866.77 -1.82011 0.696991 0
M  V30 8808 H 865.866 -3.11917 -0.106991 0
M  V30 8809 N 866.167 -0.267825 -1.55308 0
M  V30 8810 C 867.392 0.357487 -2.04296 0
M  V30 8811 C 867.817 1.49222 -1.14518 0
M  V30 8812 O 867.175 1.80741 -0.142292 0
M  V30 8813 C 867.223 0.822899 -3.51085 0
M  V30 8814 O 866.327 1.93078 -3.6441 0
M  V30 8815 H 865.668 0.075025 -0.659748 0
M  V30 8816 H 868.198 -0.399996 -2.00652 0
M  V30 8817 H 868.208 1.12059 -3.92309 0
M  V30 8818 H 866.883 -0.0073562 -4.15899 0
M  V30 8819 H 865.46 1.63618 -3.35087 0
M  V30 8820 N 867.645 1.57599 0.00500368 0
M  V30 8821 C 868.893 1.89973 0.68953 0
M  V30 8822 C 869.214 0.868531 1.7459 0
M  V30 8823 O 868.484 -0.0947367 1.95671 0
M  V30 8824 H 867.064 0.701153 0.25767 0
M  V30 8825 H 869.726 1.94869 -0.0347392 0
M  V30 8826 H 868.822 2.89584 1.16394 0
M  V30 8827 N 869.123 -0.277682 1.55134 0
M  V30 8828 C 870.348 -1.03254 1.7987 0
M  V30 8829 C 870.773 -1.79324 0.567861 0
M  V30 8830 O 870.131 -1.74764 -0.4824 0
M  V30 8831 C 870.179 -1.9705 3.02 0
M  V30 8832 O 869.283 -3.05744 2.76757 0
M  V30 8833 H 868.624 -0.295447 0.594649 0
M  V30 8834 H 871.154 -0.308013 2.02268 0
M  V30 8835 H 871.164 -2.3909 3.30606 0
M  V30 8836 H 869.839 -1.41094 3.91236 0
M  V30 8837 H 868.416 -2.68052 2.59235 0
M  V30 8838 N 870.601 -1.47988 -0.541979 0
M  V30 8839 C 871.564 -1.61148 -1.62984 0
M  V30 8840 C 872.564 -0.48553 -1.53295 0
M  V30 8841 O 873.754 -0.751012 -1.5718 0
M  V30 8842 C 870.886 -1.57038 -3.02576 0
M  V30 8843 H 872.079 -2.58138 -1.52659 0
M  V30 8844 H 869.632 -1.36405 -0.763106 0
M  V30 8845 H 870.367 -0.614807 -3.18419 0
M  V30 8846 H 870.152 -2.38769 -3.11018 0
M  V30 8847 H 871.642 -1.69416 -3.81691 0
M  V30 8848 N 872.079 0.78992 -1.36375 0
M  V30 8849 C 873.309 1.57644 -1.33536 0
M  V30 8850 C 873.717 1.89007 0.0855075 0
M  V30 8851 O 873.06 1.50547 1.05267 0
M  V30 8852 C 873.122 2.92424 -2.09113 0
M  V30 8853 C 872.786 2.83793 -3.58205 0
M  V30 8854 C 873.783 2.56072 -4.52464 0
M  V30 8855 C 871.468 3.02386 -4.01084 0
M  V30 8856 C 873.462 2.47044 -5.87578 0
M  V30 8857 C 871.149 2.9298 -5.36289 0
M  V30 8858 C 872.147 2.65347 -6.29349 0
M  V30 8859 O 871.835 2.55935 -7.62071 0
M  V30 8860 H 871.567 0.495639 -0.459694 0
M  V30 8861 H 874.121 0.988354 -1.80058 0
M  V30 8862 H 872.351 3.53282 -1.57254 0
M  V30 8863 H 874.04 3.53693 -1.99139 0
M  V30 8864 H 874.806 2.4141 -4.2065 0
M  V30 8865 H 870.685 3.229 -3.29023 0
M  V30 8866 H 874.229 2.25396 -6.60184 0
M  V30 8867 H 870.126 3.07204 -5.67711 0
M  V30 8868 H 870.894 2.7142 -7.72187 0
M  V30 8869 N 873.557 1.20646 1.01402 0
M  V30 8870 C 874.785 1.04389 1.78635 0
M  V30 8871 C 875.2 -0.406771 1.84366 0
M  V30 8872 O 874.557 -1.28239 1.2985 0
M  V30 8873 C 874.608 1.62378 3.22979 0
M  V30 8874 O 874.329 3.01768 3.17597 0
M  V30 8875 C 875.83 1.5111 4.1675 0
M  V30 8876 H 873.05 0.367077 0.56169 0
M  V30 8877 H 875.594 1.59789 1.27624 0
M  V30 8878 H 873.749 1.11092 3.7113 0
M  V30 8879 H 874.163 3.29331 4.08217 0
M  V30 8880 H 875.637 1.96441 5.15863 0
M  V30 8881 H 876.114 0.464011 4.36742 0
M  V30 8882 H 876.72 2.01599 3.74483 0
M  V30 8883 N 875.035 -1.20752 1.01276 0
M  V30 8884 C 875.967 -2.22798 0.537917 0
M  V30 8885 C 876.98 -1.5836 -0.377638 0
M  V30 8886 O 878.169 -1.77624 -0.176599 0
M  V30 8887 C 875.269 -3.38068 -0.237364 0
M  V30 8888 C 874.442 -4.32095 0.679161 0
M  V30 8889 C 873.501 -5.26178 -0.0478676 0
M  V30 8890 O 872.527 -5.66305 0.573366 0
M  V30 8891 N 873.729 -5.65201 -1.32396 0
M  V30 8892 H 876.494 -2.64166 1.4155 0
M  V30 8893 H 874.055 -1.35254 0.889826 0
M  V30 8894 H 876.047 -3.98009 -0.73288 0
M  V30 8895 H 874.617 -2.95622 -1.0162 0
M  V30 8896 H 873.837 -3.70179 1.35505 0
M  V30 8897 H 875.125 -4.91842 1.30263 0
M  V30 8898 H 874.523 -5.34606 -1.84968 0
M  V30 8899 H 873.08 -6.27468 -1.76428 0
M  V30 8900 N 876.513 -0.788492 -1.36457 0
M  V30 8901 C 877.443 -0.200468 -2.32638 0
M  V30 8902 C 878.424 0.664031 -1.56603 0
M  V30 8903 O 879.609 0.598045 -1.84762 0
M  V30 8904 C 876.739 0.666274 -3.40849 0
M  V30 8905 C 875.693 -0.0982574 -4.27887 0
M  V30 8906 C 875.019 0.889018 -5.27258 0
M  V30 8907 C 876.319 -1.28692 -5.06197 0
M  V30 8908 H 878.013 -1.00399 -2.82065 0
M  V30 8909 H 875.559 -0.484237 -1.35614 0
M  V30 8910 H 877.512 1.08757 -4.07124 0
M  V30 8911 H 876.236 1.50249 -2.89987 0
M  V30 8912 H 874.895 -0.500525 -3.63167 0
M  V30 8913 H 874.543 1.72024 -4.7267 0
M  V30 8914 H 874.243 0.381909 -5.86358 0
M  V30 8915 H 875.767 1.30891 -5.96406 0
M  V30 8916 H 877.181 -0.941429 -5.65517 0
M  V30 8917 H 875.578 -1.72726 -5.74705 0
M  V30 8918 H 876.648 -2.08273 -4.37893 0
M  V30 8919 N 877.991 1.48044 -0.54043 0
M  V30 8920 C 879.219 2.06895 -0.0145153 0
M  V30 8921 C 879.634 1.39552 1.27164 0
M  V30 8922 O 878.991 0.486454 1.75897 0
M  V30 8923 C 879.042 3.60934 0.202278 0
M  V30 8924 O 878.763 4.25749 -1.03293 0
M  V30 8925 C 880.264 4.36607 0.767387 0
M  V30 8926 H 877.484 0.66991 -0.0382368 0
M  V30 8927 H 880.028 1.90288 -0.749057 0
M  V30 8928 H 878.183 3.77111 0.886897 0
M  V30 8929 H 878.597 5.18048 -0.820167 0
M  V30 8930 H 880.071 5.45126 0.86845 0
M  V30 8931 H 880.548 4.01745 1.77477 0
M  V30 8932 H 881.154 4.25133 0.119002 0
M  V30 8933 N 879.47 0.276058 1.55163 0
M  V30 8934 C 880.433 -0.597924 2.21263 0
M  V30 8935 C 881.433 -1.0806 1.19078 0
M  V30 8936 O 882.623 -0.980626 1.43977 0
M  V30 8937 C 879.755 -1.82503 2.87933 0
M  V30 8938 H 880.948 -0.0207769 2.99893 0
M  V30 8939 H 878.501 0.0266823 1.56277 0
M  V30 8940 H 879.236 -2.44266 2.13318 0
M  V30 8941 H 879.021 -1.48683 3.62816 0
M  V30 8942 H 880.511 -2.44651 3.38431 0
M  V30 8943 N 880.948 -1.576 0.00335426 0
M  V30 8944 C 882.197 -1.89892 -0.680001 0
M  V30 8945 C 882.51 -0.878731 -1.7475 0
M  V30 8946 O 883.716 -1.09199 -2.48572 0
M  V30 8947 C 882.172 -3.37098 -1.26066 0
M  V30 8948 C 881.78 -4.4742 -0.227807 0
M  V30 8949 C 883.524 -3.78495 -1.92202 0
M  V30 8950 C 881.431 -5.85706 -0.81865 0
M  V30 8951 H 880.361 -0.708578 -0.257746 0
M  V30 8952 H 883.012 -1.83387 0.0644472 0
M  V30 8953 H 881.394 -3.38451 -2.05589 0
M  V30 8954 H 882.568 -4.57589 0.54307 0
M  V30 8955 H 880.883 -4.15064 0.333297 0
M  V30 8956 H 883.48 -4.7915 -2.37318 0
M  V30 8957 H 883.823 -3.12187 -2.75399 0
M  V30 8958 H 884.356 -3.79456 -1.19408 0
M  V30 8959 H 881.095 -6.55495 -0.0253787 0
M  V30 8960 H 880.615 -5.79196 -1.55861 0
M  V30 8961 H 882.294 -6.33469 -1.31627 0
M  V30 8962 N 882.426 0.269451 -1.5528 0
M  V30 8963 C 883.651 1.02299 -1.80415 0
M  V30 8964 C 884.076 1.7902 -0.577363 0
M  V30 8965 O 883.434 1.75018 0.473125 0
M  V30 8966 C 883.482 1.95445 -3.0304 0
M  V30 8967 O 882.586 3.04271 -2.78375 0
M  V30 8968 H 881.927 0.292289 -0.596207 0
M  V30 8969 H 884.457 0.297282 -2.02429 0
M  V30 8970 H 884.467 2.37333 -3.31869 0
M  V30 8971 H 883.142 1.39017 -3.91978 0
M  V30 8972 H 881.719 2.66673 -2.60653 0
M  V30 8973 N 883.904 1.48273 0.534124 0
M  V30 8974 C 885.152 1.55771 1.28762 0
M  V30 8975 C 885.473 0.231575 1.9362 0
M  V30 8976 O 884.743 -0.746533 1.81118 0
M  V30 8977 H 883.323 0.573851 0.47823 0
M  V30 8978 H 885.985 1.84712 0.621888 0
M  V30 8979 H 885.081 2.33657 2.06908 0
M  V30 8980 N 885.382 -0.782676 1.36792 0
M  V30 8981 C 886.607 -1.57676 1.34733 0
M  V30 8982 C 887.032 -1.87979 -0.0675253 0
M  V30 8983 O 886.39 -1.48404 -1.04144 0
M  V30 8984 C 886.438 -2.87047 2.18257 0
M  V30 8985 O 885.542 -3.80946 1.57969 0
M  V30 8986 H 884.883 -0.478034 0.460846 0
M  V30 8987 H 887.413 -0.969578 1.80168 0
M  V30 8988 H 887.423 -3.36254 2.31079 0
M  V30 8989 H 886.098 -2.64319 3.21104 0
M  V30 8990 H 884.675 -3.39558 1.54126 0
M  V30 8991 N 886.86 -1.21182 -1.00761 0
M  V30 8992 C 888.088 -1.05335 -1.78079 0
M  V30 8993 C 888.503 0.396988 -1.84579 0
M  V30 8994 O 887.86 1.27548 -1.30529 0
M  V30 8995 C 887.911 -1.64089 -3.22113 0
M  V30 8996 O 887.632 -3.03448 -3.15992 0
M  V30 8997 C 889.133 -1.53318 -4.15943 0
M  V30 8998 H 886.353 -0.37005 -0.559736 0
M  V30 8999 H 888.897 -1.60463 -1.26775 0
M  V30 9000 H 887.052 -1.13059 -3.70535 0
M  V30 9001 H 887.466 -3.31492 -4.06465 0
M  V30 9002 H 888.94 -1.99174 -5.14814 0
M  V30 9003 H 889.417 -0.487166 -4.3649 0
M  V30 9004 H 890.023 -2.03582 -3.73409 0
M  V30 9005 N 888.338 1.20213 -1.01915 0
M  V30 9006 C 889.749 1.7136 -0.741131 0
M  V30 9007 C 890.1 1.81705 0.740107 0
M  V30 9008 O 889.225 1.48139 1.57746 0
M  V30 9009 C 889.82 3.11231 -1.33869 0
M  V30 9010 C 888.379 3.59677 -1.10948 0
M  V30 9011 C 887.526 2.36809 -1.4428 0
M  V30 9012 H 890.477 1.05191 -1.1883 0
M  V30 9013 H 890.498 3.7342 -0.730585 0
M  V30 9014 H 890.01 3.03669 -2.41675 0
M  V30 9015 H 888.111 3.72568 -0.0492052 0
M  V30 9016 H 888.224 4.44351 -1.79134 0
M  V30 9017 H 886.588 2.39674 -0.861881 0
M  V30 9018 H 887.371 2.31886 -2.53148 0
M  V30 9019 N 889.816 0.795718 1.36037 0
M  V30 9020 C 891.093 0.294743 1.93367 0
M  V30 9021 C 891.473 -1.21406 1.72696 0
M  V30 9022 O 890.821 -2.00849 1.08959 0
M  V30 9023 C 891.031 0.694254 3.42025 0
M  V30 9024 C 892.379 0.677566 4.19159 0
M  V30 9025 O 893.403 0.635119 3.50492 0
M  V30 9026 O 892.262 0.726127 5.41655 0
M  V30 9027 H 889.356 0.0745459 0.823633 0
M  V30 9028 H 891.902 0.878685 1.4518 0
M  V30 9029 H 890.674 1.73458 3.50753 0
M  V30 9030 H 890.297 0.0845338 3.9751 0
M  V30 9031 N 891.294 -1.47756 0.548274 0
M  V30 9032 C 892.257 -2.28379 -0.193857 0
M  V30 9033 C 893.257 -1.36436 -0.850986 0
M  V30 9034 O 894.447 -1.59154 -0.70822 0
M  V30 9035 C 891.579 -3.15858 -1.28243 0
M  V30 9036 H 892.772 -2.95458 0.514231 0
M  V30 9037 H 890.325 -1.53298 0.304879 0
M  V30 9038 H 891.06 -2.5345 -2.0232 0
M  V30 9039 H 890.845 -3.83512 -0.816148 0
M  V30 9040 H 892.335 -3.76627 -1.80393 0
M  V30 9041 N 892.772 -0.284283 -1.55015 0
M  V30 9042 C 894.018 0.330352 -2.00091 0
M  V30 9043 C 894.351 1.54814 -1.17244 0
M  V30 9044 O 893.626 1.92954 -0.244753 0
M  V30 9045 C 893.909 0.703492 -3.53161 0
M  V30 9046 C 893.762 -0.522275 -4.46758 0
M  V30 9047 C 895.081 1.53645 -4.12409 0
M  V30 9048 H 892.2 0.118599 -0.727395 0
M  V30 9049 H 894.842 -0.393054 -1.8589 0
M  V30 9050 H 892.992 1.31983 -3.65394 0
M  V30 9051 H 894.664 -1.16082 -4.46456 0
M  V30 9052 H 892.907 -1.15865 -4.1804 0
M  V30 9053 H 893.578 -0.217295 -5.51572 0
M  V30 9054 H 896.054 1.01583 -4.0351 0
M  V30 9055 H 894.93 1.76633 -5.19704 0
M  V30 9056 H 895.191 2.5204 -3.63219 0
M  V30 9057 N 894.251 1.57596 -0.0117121 0
M  V30 9058 C 895.476 1.95764 0.684938 0
M  V30 9059 C 895.901 0.887285 1.65858 0
M  V30 9060 O 895.259 -0.153508 1.80649 0
M  V30 9061 C 895.307 3.33031 1.38285 0
M  V30 9062 O 894.411 3.28163 2.49765 0
M  V30 9063 H 893.752 0.638767 0.181309 0
M  V30 9064 H 896.282 2.04486 -0.0683883 0
M  V30 9065 H 896.292 3.68866 1.74362 0
M  V30 9066 H 894.967 4.10483 0.669043 0
M  V30 9067 H 893.544 3.04021 2.15929 0
M  V30 9068 N 895.729 -0.261212 1.5542 0
M  V30 9069 C 896.659 -1.32712 1.92119 0
M  V30 9070 C 897.64 -1.50934 0.784406 0
M  V30 9071 O 898.825 -1.63781 1.04352 0
M  V30 9072 C 895.955 -2.68453 2.20341 0
M  V30 9073 C 894.909 -2.64947 3.36136 0
M  V30 9074 C 894.235 -4.04349 3.49865 0
M  V30 9075 C 895.535 -2.23182 4.72215 0
M  V30 9076 H 897.229 -1.02245 2.81401 0
M  V30 9077 H 894.775 -0.490406 1.35392 0
M  V30 9078 H 896.728 -3.43144 2.44603 0
M  V30 9079 H 895.452 -3.00527 1.27871 0
M  V30 9080 H 894.111 -1.92714 3.11861 0
M  V30 9081 H 893.759 -4.33665 2.5484 0
M  V30 9082 H 893.459 -4.02895 4.27726 0
M  V30 9083 H 894.983 -4.80761 3.76432 0
M  V30 9084 H 896.397 -2.87599 4.95943 0
M  V30 9085 H 894.794 -2.32867 5.53076 0
M  V30 9086 H 895.864 -1.18327 4.70241 0
M  V30 9087 N 897.207 -1.48554 -0.526253 0
M  V30 9088 C 898.154 -1.63354 -1.63046 0
M  V30 9089 C 899.124 -0.475509 -1.59148 0
M  V30 9090 O 900.309 -0.699453 -1.77517 0
M  V30 9091 C 897.449 -1.68271 -3.01295 0
M  V30 9092 C 896.562 -2.95207 -3.15399 0
M  V30 9093 C 895.697 -2.91262 -4.4423 0
M  V30 9094 C 894.736 -4.12886 -4.51876 0
M  V30 9095 N 893.873 -4.06996 -5.721 0
M  V30 9096 H 898.713 -2.57649 -1.49737 0
M  V30 9097 H 896.25 -1.27769 -0.728938 0
M  V30 9098 H 898.208 -1.69104 -3.81392 0
M  V30 9099 H 896.838 -0.774641 -3.13367 0
M  V30 9100 H 895.89 -3.04102 -2.2853 0
M  V30 9101 H 897.202 -3.85187 -3.1691 0
M  V30 9102 H 896.356 -2.90516 -5.32621 0
M  V30 9103 H 895.095 -1.99016 -4.45246 0
M  V30 9104 H 894.1 -4.13902 -3.61891 0
M  V30 9105 H 895.325 -5.06294 -4.52596 0
M  V30 9106 H 893.271 -3.17573 -5.74006 0
M  V30 9107 H 893.188 -4.90685 -5.75121 0
M  V30 9108 H 894.456 -4.10315 -6.62768 0
M  V30 9109 N 898.685 0.775411 -1.37205 0
M  V30 9110 C 899.931 1.53611 -1.32407 0
M  V30 9111 C 900.264 1.9398 0.0924103 0
M  V30 9112 O 899.539 1.63791 1.04893 0
M  V30 9113 C 899.822 2.80367 -2.25979 0
M  V30 9114 C 899.675 2.46275 -3.76389 0
M  V30 9115 C 900.994 3.82277 -2.18064 0
M  V30 9116 H 898.113 0.557278 -0.482297 0
M  V30 9117 H 900.755 0.889826 -1.67875 0
M  V30 9118 H 898.905 3.35515 -1.95862 0
M  V30 9119 H 900.577 1.9707 -4.17087 0
M  V30 9120 H 898.82 1.79023 -3.95137 0
M  V30 9121 H 899.491 3.36868 -4.37291 0
M  V30 9122 H 901.967 3.36613 -2.44604 0
M  V30 9123 H 900.843 4.68696 -2.85684 0
M  V30 9124 H 901.104 4.26272 -1.17239 0
M  V30 9125 N 900.163 1.21714 1.00117 0
M  V30 9126 C 901.111 0.976937 2.11089 0
M  V30 9127 C 902.105 -0.0771295 1.69224 0
M  V30 9128 O 903.311 0.0745945 1.79845 0
M  V30 9129 H 899.686 0.298687 0.690138 0
M  V30 9130 H 901.657 1.91881 2.28526 0
M  V30 9131 C 900.406 0.562369 3.43122 0
M  V30 9132 H 899.729 1.36509 3.75773 0
M  V30 9133 H 901.169 0.433642 4.21777 0
M  V30 9134 C 899.628 -0.727148 3.28959 0
M  V30 9135 O 900.158 -1.78171 3.60025 0
M  V30 9136 N 898.364 -0.695129 2.82164 0
M  V30 9137 H 897.911 0.163346 2.57082 0
M  V30 9138 H 897.869 -1.55822 2.73069 0
M  V30 9139 N 901.641 -1.19671 1.02551 0
M  V30 9140 C 902.591 -2.20655 0.574037 0
M  V30 9141 C 903.575 -1.56459 -0.375412 0
M  V30 9142 O 904.767 -1.75901 -0.196929 0
M  V30 9143 C 901.896 -3.43213 -0.0772031 0
M  V30 9144 C 900.982 -4.1456 0.894485 0
M  V30 9145 N 901.373 -4.62147 2.05557 0
M  V30 9146 C 899.671 -4.40196 0.717205 0
M  V30 9147 C 900.372 -5.16899 2.66814 0
M  V30 9148 N 899.348 -5.07496 1.94804 0
M  V30 9149 H 903.15 -2.55124 1.45908 0
M  V30 9150 H 900.664 -1.35707 0.89204 0
M  V30 9151 H 902.661 -4.14797 -0.41824 0
M  V30 9152 H 901.321 -3.10247 -0.957973 0
M  V30 9153 H 902.332 -4.5708 2.43513 0
M  V30 9154 H 899.009 -4.17342 -0.114758 0
M  V30 9155 H 900.399 -5.64032 3.65126 0
M  V30 9156 N 903.119 -0.802921 -1.35613 0
M  V30 9157 C 904.066 -0.20874 -2.29854 0
M  V30 9158 C 905.036 0.655128 -1.52634 0
M  V30 9159 O 906.221 0.600979 -1.81088 0
M  V30 9160 C 903.361 0.639663 -3.3912 0
M  V30 9161 C 902.474 -0.244234 -4.31309 0
M  V30 9162 C 901.609 0.611825 -5.27665 0
M  V30 9163 C 900.648 -0.272698 -6.11492 0
M  V30 9164 N 899.785 0.543122 -6.99996 0
M  V30 9165 H 904.625 -1.01782 -2.80079 0
M  V30 9166 H 902.162 -0.513465 -1.37848 0
M  V30 9167 H 904.12 1.14668 -4.01132 0
M  V30 9168 H 902.75 1.41404 -2.9018 0
M  V30 9169 H 901.802 -0.869322 -3.70334 0
M  V30 9170 H 903.114 -0.925202 -4.90144 0
M  V30 9171 H 902.268 1.18412 -5.95032 0
M  V30 9172 H 901.007 1.32637 -4.69317 0
M  V30 9173 H 900.012 -0.857287 -5.43075 0
M  V30 9174 H 901.237 -0.985051 -6.71918 0
M  V30 9175 H 899.183 1.24171 -6.44141 0
M  V30 9176 H 899.1 -0.0798767 -7.55958 0
M  V30 9177 H 900.368 1.09881 -7.71717 0
M  V30 9178 N 904.597 1.47463 -0.556102 0
M  V30 9179 C 905.874 1.9557 0.0339892 0
M  V30 9180 C 906.254 1.49869 1.48669 0
M  V30 9181 O 905.602 0.737019 2.16288 0
M  V30 9182 C 905.812 3.48826 -0.110343 0
M  V30 9183 C 907.16 4.24585 0.0355716 0
M  V30 9184 O 908.184 3.5618 -0.0378356 0
M  V30 9185 O 907.043 5.46158 0.193299 0
M  V30 9186 H 904.137 0.824461 0.0647521 0
M  V30 9187 H 906.683 1.57868 -0.622547 0
M  V30 9188 H 905.455 3.74891 -1.12126 0
M  V30 9189 H 905.078 3.9329 0.583855 0
M  V30 9190 N 906.075 0.2925 1.54862 0
M  V30 9191 C 907.315 -0.32024 2.01876 0
M  V30 9192 C 907.679 -1.5174 1.17639 0
M  V30 9193 O 908.88 -2.20094 1.54312 0
M  V30 9194 C 907.151 -0.67611 3.50947 0
M  V30 9195 S 908.71 -1.27292 4.19931 0
M  V30 9196 H 905.528 -0.0987374 0.704111 0
M  V30 9197 H 908.13 0.41839 1.90971 0
M  V30 9198 H 906.834 0.203797 4.09894 0
M  V30 9199 H 906.365 -1.44575 3.65871 0
M  V30 9200 H 908.38 -2.56102 4.25002 0
M  V30 9201 N 907.553 -1.57587 0.0200696 0
M  V30 9202 C 908.969 -1.56018 -0.336237 0
M  V30 9203 C 909.169 -1.02478 -1.73495 0
M  V30 9204 O 908.225 -0.667487 -2.43518 0
M  V30 9205 C 909.538 -3.00079 -0.193112 0
M  V30 9206 C 911.086 -3.11863 -0.266557 0
M  V30 9207 C 911.561 -4.57747 -0.152326 0
M  V30 9208 N 913.052 -4.62726 -0.209596 0
M  V30 9209 C 913.787 -5.73217 -0.144855 0
M  V30 9210 N 913.283 -6.92794 -0.0295487 0
M  V30 9211 N 915.076 -5.61751 -0.198184 0
M  V30 9212 H 907.227 -1.90722 0.93482 0
M  V30 9213 H 909.49 -0.876909 0.360186 0
M  V30 9214 H 909.196 -3.43167 0.770036 0
M  V30 9215 H 909.07 -3.64593 -0.967029 0
M  V30 9216 H 911.457 -2.68693 -1.22016 0
M  V30 9217 H 911.538 -2.50087 0.53758 0
M  V30 9218 H 911.182 -5.01595 0.797817 0
M  V30 9219 H 911.112 -5.17491 -0.97521 0
M  V30 9220 H 913.603 -3.76713 -0.299229 0
M  V30 9221 H 913.916 -7.72799 0.0134071 0
M  V30 9222 H 912.261 -6.95 0.00510737 0
M  V30 9223 H 915.452 -4.67222 -0.286603 0
M  V30 9224 H 915.625 -6.47839 -0.144266 0
M  V30 9225 N 909.032 0.252966 -1.55557 0
M  V30 9226 C 910.28 0.979912 -1.76754 0
M  V30 9227 C 910.601 1.86083 -0.582944 0
M  V30 9228 O 909.871 1.91742 0.401497 0
M  V30 9229 H 908.451 0.364805 -0.651864 0
M  V30 9230 H 911.113 0.272372 -1.92987 0
M  V30 9231 H 910.209 1.60518 -2.67657 0
M  V30 9232 N 910.51 1.48831 0.518367 0
M  V30 9233 C 911.473 1.63721 1.604 0
M  V30 9234 C 912.473 0.509857 1.52503 0
M  V30 9235 O 913.663 0.775922 1.55965 0
M  V30 9236 C 910.795 1.61831 3.00039 0
M  V30 9237 H 911.988 2.60534 1.48533 0
M  V30 9238 H 909.541 1.37602 0.741309 0
M  V30 9239 H 910.276 0.665387 3.17401 0
M  V30 9240 H 910.061 2.43686 3.0718 0
M  V30 9241 H 911.551 1.75467 3.78947 0
M  V30 9242 N 911.988 -0.768124 1.37614 0
M  V30 9243 C 912.898 -1.91249 1.35871 0
M  V30 9244 C 913.914 -1.7208 0.257786 0
M  V30 9245 O 915.09 -1.95253 0.493782 0
M  V30 9246 C 912.155 -3.26423 1.16829 0
M  V30 9247 C 911.216 -3.5822 2.36594 0
M  V30 9248 C 910.449 -4.86945 2.1845 0
M  V30 9249 O 910.672 -5.58258 1.17064 0
M  V30 9250 O 909.606 -5.17888 3.06718 0
M  V30 9251 H 913.432 -1.95671 2.32264 0
M  V30 9252 H 911.017 -0.911382 1.18382 0
M  V30 9253 H 912.899 -4.07269 1.08212 0
M  V30 9254 H 911.574 -3.22845 0.235123 0
M  V30 9255 H 910.481 -2.77594 2.50783 0
M  V30 9256 H 911.814 -3.66545 3.2849 0
M  V30 9257 N 913.466 -1.22244 -0.994698 0
M  V30 9258 C 914.715 -1.04005 -1.72817 0
M  V30 9259 C 915.028 0.425413 -1.90918 0
M  V30 9260 O 916.234 0.727429 -2.61574 0
M  V30 9261 C 914.69 -1.81244 -3.10932 0
M  V30 9262 C 914.298 -3.32028 -3.00768 0
M  V30 9263 C 916.042 -1.71448 -3.88337 0
M  V30 9264 C 913.949 -4.01716 -4.34026 0
M  V30 9265 H 912.879 -0.385559 -0.647966 0
M  V30 9266 H 915.53 -1.46077 -1.11058 0
M  V30 9267 H 913.912 -1.3197 -3.73363 0
M  V30 9268 H 915.086 -3.88682 -2.47513 0
M  V30 9269 H 913.401 -3.4248 -2.36846 0
M  V30 9270 H 915.998 -2.20836 -4.86965 0
M  V30 9271 H 916.341 -0.674568 -4.10798 0
M  V30 9272 H 916.874 -2.18256 -3.3258 0
M  V30 9273 H 913.613 -5.05952 -4.16765 0
M  V30 9274 H 913.133 -3.49849 -4.87202 0
M  V30 9275 H 914.812 -4.0721 -5.02782 0
M  V30 9276 N 914.944 1.19125 -1.03184 0
M  V30 9277 C 916.355 1.70564 -0.759264 0
M  V30 9278 C 916.706 1.8248 0.720794 0
M  V30 9279 O 915.831 1.49804 1.56166 0
M  V30 9280 C 916.426 3.09793 -1.37163 0
M  V30 9281 C 914.985 3.5848 -1.14757 0
M  V30 9282 C 914.132 2.35265 -1.46784 0
M  V30 9283 H 917.083 1.03925 -1.19939 0
M  V30 9284 H 917.104 3.72624 -0.77015 0
M  V30 9285 H 916.616 3.01088 -2.44882 0
M  V30 9286 H 914.717 3.72494 -0.0887182 0
M  V30 9287 H 914.83 4.42426 -1.83836 0
M  V30 9288 H 913.194 2.38747 -0.887254 0
M  V30 9289 H 913.977 2.29188 -2.55593 0
M  V30 9290 N 916.422 0.810101 1.35185 0
M  V30 9291 C 917.669 0.392117 1.98667 0
M  V30 9292 C 917.997 -1.0416 1.64259 0
M  V30 9293 O 917.252 -1.73795 0.899647 0
M  V30 9294 C 917.551 0.526561 3.535 0
M  V30 9295 C 917.217 1.92411 4.07785 0
M  V30 9296 C 915.879 2.30644 4.22323 0
M  V30 9297 C 918.231 2.83827 4.37141 0
M  V30 9298 C 915.559 3.59655 4.63536 0
M  V30 9299 C 917.911 4.12287 4.79794 0
M  V30 9300 C 916.575 4.50515 4.92536 0
M  V30 9301 H 915.845 0.143486 0.726975 0
M  V30 9302 H 918.492 1.03157 1.61341 0
M  V30 9303 H 916.797 -0.19633 3.91308 0
M  V30 9304 H 918.494 0.183871 4.00578 0
M  V30 9305 H 915.084 1.61707 3.96924 0
M  V30 9306 H 919.268 2.55536 4.25459 0
M  V30 9307 H 914.524 3.89117 4.71591 0
M  V30 9308 H 918.698 4.83221 5.01468 0
M  V30 9309 H 916.325 5.50535 5.24229 0
M  V30 9310 N 917.9 -1.47166 0.563914 0
M  V30 9311 C 919.146 -2.02756 0.0424338 0
M  V30 9312 C 919.479 -1.43662 -1.3067 0
M  V30 9313 O 918.754 -0.594676 -1.85186 0
M  V30 9314 C 919.037 -3.60074 -0.0434793 0
M  V30 9315 C 918.89 -4.29587 1.33323 0
M  V30 9316 C 920.209 -4.336 -0.753568 0
M  V30 9317 H 917.328 -0.736806 0.0168946 0
M  V30 9318 H 919.97 -1.75521 0.727496 0
M  V30 9319 H 918.12 -3.83409 -0.626906 0
M  V30 9320 H 919.792 -4.17573 1.96037 0
M  V30 9321 H 918.035 -3.8968 1.9061 0
M  V30 9322 H 918.706 -5.38218 1.22576 0
M  V30 9323 H 921.182 -4.15299 -0.258126 0
M  V30 9324 H 920.058 -5.43291 -0.782659 0
M  V30 9325 H 920.319 -4.03302 -1.81108 0
M  V30 9326 N 919.378 -0.300708 -1.54705 0
M  V30 9327 C 920.789 0.191995 -1.8571 0
M  V30 9328 C 921.14 1.53447 -1.22264 0
M  V30 9329 O 920.265 2.10054 -0.520226 0
M  V30 9330 C 920.86 0.355148 -3.36933 0
M  V30 9331 C 919.419 0.792071 -3.67972 0
M  V30 9332 C 918.566 -0.099756 -2.77121 0
M  V30 9333 H 921.517 -0.521729 -1.49879 0
M  V30 9334 H 921.538 1.18977 -3.61421 0
M  V30 9335 H 921.05 -0.622075 -3.83082 0
M  V30 9336 H 919.151 1.77986 -3.27341 0
M  V30 9337 H 919.264 0.611661 -4.75179 0
M  V30 9338 H 917.628 0.420909 -2.51198 0
M  V30 9339 H 918.411 -1.07333 -3.2609 0
M  V30 9340 N 920.856 1.57574 -0.0284266 0
M  V30 9341 C 922.133 1.83064 0.688979 0
M  V30 9342 C 922.513 0.91219 1.90374 0
M  V30 9343 O 921.861 -0.0323672 2.28477 0
M  V30 9344 C 922.071 3.32262 1.06785 0
M  V30 9345 C 923.419 3.98717 1.45978 0
M  V30 9346 O 924.443 3.36753 1.16085 0
M  V30 9347 O 923.302 5.07927 2.01673 0
M  V30 9348 H 920.396 0.7548 0.337944 0
M  V30 9349 H 922.942 1.69607 -0.0560555 0
M  V30 9350 H 921.714 3.90772 0.203235 0
M  V30 9351 H 921.337 3.50823 1.87107 0
M  V30 9352 N 922.334 -0.244713 1.55689 0
M  V30 9353 C 923.583 -0.970373 1.76824 0
M  V30 9354 C 923.896 -1.86402 0.592764 0
M  V30 9355 O 925.102 -2.62659 0.687186 0
M  V30 9356 C 923.558 -1.77547 3.13058 0
M  V30 9357 C 923.166 -0.929104 4.3826 0
M  V30 9358 C 924.91 -2.49373 3.43531 0
M  V30 9359 C 922.817 -1.73021 5.65524 0
M  V30 9360 H 921.747 -0.366048 0.659185 0
M  V30 9361 H 924.398 -0.224964 1.82116 0
M  V30 9362 H 922.78 -2.56291 3.01879 0
M  V30 9363 H 923.954 -0.183836 4.60433 0
M  V30 9364 H 922.269 -0.324071 4.15137 0
M  V30 9365 H 924.866 -3.09767 4.35831 0
M  V30 9366 H 925.209 -3.21099 2.64955 0
M  V30 9367 H 925.742 -1.77637 3.55935 0
M  V30 9368 H 922.481 -1.05666 6.46927 0
M  V30 9369 H 922.001 -2.45071 5.47449 0
M  V30 9370 H 923.68 -2.2968 6.0486 0
M  V30 9371 N 923.813 -1.49104 -0.510467 0
M  V30 9372 C 924.776 -1.64569 -1.59529 0
M  V30 9373 C 925.776 -0.517937 -1.5223 0
M  V30 9374 O 926.966 -0.784183 -1.55551 0
M  V30 9375 C 924.098 -1.6342 -2.99177 0
M  V30 9376 H 925.291 -2.61318 -1.4715 0
M  V30 9377 H 922.844 -1.37993 -0.734001 0
M  V30 9378 H 923.579 -0.68221 -3.17043 0
M  V30 9379 H 923.364 -2.45312 -3.05883 0
M  V30 9380 H 924.854 -1.77474 -3.78011 0
M  V30 9381 N 925.291 0.760815 -1.38019 0
M  V30 9382 C 926.516 1.55513 -1.37224 0
M  V30 9383 C 926.941 1.88062 0.037611 0
M  V30 9384 O 926.299 1.50042 1.0177 0
M  V30 9385 C 926.347 2.83539 -2.22796 0
M  V30 9386 O 925.451 3.78384 -1.64009 0
M  V30 9387 H 924.792 0.470642 -0.468393 0
M  V30 9388 H 927.322 0.940792 -1.81687 0
M  V30 9389 H 927.332 3.32535 -2.36399 0
M  V30 9390 H 926.007 2.59178 -3.25269 0
M  V30 9391 H 924.584 3.37063 -1.59508 0
M  V30 9392 N 926.769 1.22769 0.988202 0
M  V30 9393 C 928.046 0.9635 1.70223 0
M  V30 9394 C 928.426 -0.520102 2.04593 0
M  V30 9395 O 927.774 -1.48934 1.73295 0
M  V30 9396 C 927.984 1.86583 2.94937 0
M  V30 9397 C 929.332 2.12469 3.67616 0
M  V30 9398 O 930.356 1.84069 3.04954 0
M  V30 9399 O 929.215 2.60595 4.80367 0
M  V30 9400 H 926.309 0.362737 0.743203 0
M  V30 9401 H 928.855 1.33776 1.04412 0
M  V30 9402 H 927.627 2.86913 2.66077 0
M  V30 9403 H 927.25 1.49344 3.68486 0
M  V30 9404 N 928.247 -1.18576 1.03814 0
M  V30 9405 C 929.524 -1.8433 0.654358 0
M  V30 9406 C 929.904 -1.92504 -0.866338 0
M  V30 9407 O 929.252 -1.44904 -1.76678 0
M  V30 9408 C 929.462 -3.22778 1.32723 0
M  V30 9409 C 930.81 -3.98841 1.45641 0
M  V30 9410 O 931.834 -3.32209 1.28514 0
M  V30 9411 O 930.693 -5.18219 1.73526 0
M  V30 9412 H 927.787 -0.794766 0.228638 0
M  V30 9413 H 930.333 -1.25989 1.13687 0
M  V30 9414 H 929.105 -3.11717 2.36534 0
M  V30 9415 H 928.728 -3.88772 0.833176 0
M  V30 9416 N 929.725 -0.817259 -1.34754 0
M  V30 9417 C 930.972 -0.402648 -1.98457 0
M  V30 9418 C 931.3 1.03287 -1.64809 0
M  V30 9419 O 930.555 1.73316 -0.908851 0
M  V30 9420 C 930.854 -0.5453 -3.53216 0
M  V30 9421 C 930.52 -1.9457 -4.06759 0
M  V30 9422 C 929.182 -2.32881 -4.21094 0
M  V30 9423 C 931.534 -2.86141 -4.35629 0
M  V30 9424 C 928.862 -3.62108 -4.61622 0
M  V30 9425 C 931.214 -4.14826 -4.776 0
M  V30 9426 C 929.878 -4.53121 -4.9014 0
M  V30 9427 H 929.148 -0.147339 -0.726204 0
M  V30 9428 H 931.795 -1.04011 -1.60791 0
M  V30 9429 H 930.1 0.175576 -3.91406 0
M  V30 9430 H 931.797 -0.205112 -4.00475 0
M  V30 9431 H 928.387 -1.6381 -3.96061 0
M  V30 9432 H 932.571 -2.57788 -4.24098 0
M  V30 9433 H 927.827 -3.91613 -4.69521 0
M  V30 9434 H 932.001 -4.85874 -4.98899 0
M  V30 9435 H 929.628 -5.53307 -5.21302 0
M  V30 9436 N 931.203 1.46865 -0.571711 0
M  V30 9437 C 932.452 2.01636 -0.050881 0
M  V30 9438 C 932.765 1.45001 1.31279 0
M  V30 9439 O 933.971 1.91523 1.92435 0
M  V30 9440 C 932.427 3.59877 -0.0404114 0
M  V30 9441 C 932.035 4.25506 -1.40172 0
M  V30 9442 C 933.779 4.22346 0.42705 0
M  V30 9443 C 931.686 5.75795 -1.34958 0
M  V30 9444 H 930.616 0.753846 -0.0152514 0
M  V30 9445 H 933.267 1.68711 -0.721723 0
M  V30 9446 H 931.649 3.89829 0.696374 0
M  V30 9447 H 932.823 4.07178 -2.15737 0
M  V30 9448 H 931.138 3.75086 -1.8083 0
M  V30 9449 H 933.735 5.32499 0.484688 0
M  V30 9450 H 934.078 3.9052 1.44222 0
M  V30 9451 H 934.611 3.9698 -0.255326 0
M  V30 9452 H 931.35 6.12265 -2.3412 0
M  V30 9453 H 930.87 5.96419 -0.635962 0
M  V30 9454 H 932.549 6.38294 -1.05779 0
M  V30 9455 N 932.681 0.308908 1.54543 0
M  V30 9456 C 933.628 -0.563659 2.23811 0
M  V30 9457 C 934.598 -1.12332 1.22355 0
M  V30 9458 O 935.783 -1.16638 1.50997 0
M  V30 9459 C 932.923 -1.72585 2.98845 0
M  V30 9460 C 932.036 -1.19682 4.1509 0
M  V30 9461 C 931.171 -2.32351 4.77688 0
M  V30 9462 C 930.21 -1.76623 5.86064 0
M  V30 9463 N 929.347 -2.82896 6.42584 0
M  V30 9464 H 934.187 0.0336288 2.97981 0
M  V30 9465 H 931.724 0.0283666 1.47073 0
M  V30 9466 H 933.682 -2.40951 3.40586 0
M  V30 9467 H 932.312 -2.29464 2.27037 0
M  V30 9468 H 931.364 -0.405173 3.78236 0
M  V30 9469 H 932.676 -0.748923 4.93146 0
M  V30 9470 H 931.83 -3.0865 5.22322 0
M  V30 9471 H 930.569 -2.80472 3.98982 0
M  V30 9472 H 929.574 -0.988171 5.40847 0
M  V30 9473 H 930.799 -1.29398 6.66658 0
M  V30 9474 H 928.745 -3.30336 5.66758 0
M  V30 9475 H 928.662 -2.42626 7.16009 0
M  V30 9476 H 929.93 -3.59068 6.91875 0
M  V30 9477 N 934.159 -1.57557 0.0367827 0
M  V30 9478 C 935.436 -1.83427 -0.679261 0
M  V30 9479 C 935.816 -0.922274 -1.89888 0
M  V30 9480 O 935.164 0.02025 -2.28491 0
M  V30 9481 C 935.374 -3.32823 -1.05022 0
M  V30 9482 C 936.722 -3.99486 -1.43861 0
M  V30 9483 O 937.746 -3.37364 -1.14297 0
M  V30 9484 O 936.605 -5.0899 -1.98977 0
M  V30 9485 H 933.699 -0.756581 -0.333936 0
M  V30 9486 H 936.245 -1.69575 0.0650494 0
M  V30 9487 H 935.017 -3.90874 -0.182509 0
M  V30 9488 H 934.64 -3.5181 -1.85244 0
M  V30 9489 N 935.637 0.236453 -1.55816 0
M  V30 9490 C 936.862 0.98449 -1.82545 0
M  V30 9491 C 937.287 1.77755 -0.615206 0
M  V30 9492 O 936.645 1.75982 0.435895 0
M  V30 9493 C 936.693 1.88973 -3.07118 0
M  V30 9494 O 935.797 2.98298 -2.84766 0
M  V30 9495 H 935.138 0.279577 -0.602273 0
M  V30 9496 H 937.668 0.254277 -2.03014 0
M  V30 9497 H 937.678 2.3024 -3.36829 0
M  V30 9498 H 936.353 1.30671 -3.94839 0
M  V30 9499 H 934.93 2.61085 -2.6625 0
M  V30 9500 N 937.115 1.49373 0.502552 0
M  V30 9501 C 938.34 1.62752 1.28556 0
M  V30 9502 C 938.765 0.298285 1.8572 0
M  V30 9503 O 938.123 -0.733885 1.65782 0
M  V30 9504 C 938.171 2.69778 2.39274 0
M  V30 9505 O 937.275 2.28843 3.43081 0
M  V30 9506 H 936.616 0.544799 0.379592 0
M  V30 9507 H 939.146 1.9555 0.601792 0
M  V30 9508 H 939.156 2.91899 2.8506 0
M  V30 9509 H 937.831 3.66266 1.97033 0
M  V30 9510 H 936.408 2.17047 3.03224 0
M  V30 9511 N 938.594 -0.753485 1.38421 0
M  V30 9512 C 939.834 -1.52544 1.3605 0
M  V30 9513 C 940.198 -1.91937 -0.0493257 0
M  V30 9514 O 941.399 -2.6807 -0.197908 0
M  V30 9515 C 939.67 -2.74432 2.28958 0
M  V30 9516 S 941.229 -3.64297 2.44607 0
M  V30 9517 H 938.047 -0.522017 0.48272 0
M  V30 9518 H 940.649 -0.884503 1.74347 0
M  V30 9519 H 939.353 -2.43602 3.30282 0
M  V30 9520 H 938.884 -3.43471 1.91811 0
M  V30 9521 H 940.899 -4.67245 1.67022 0
M  V30 9522 N 940.072 -1.23292 -0.981677 0
M  V30 9523 C 941.319 -1.06424 -1.72279 0
M  V30 9524 C 941.647 0.399055 -1.90362 0
M  V30 9525 O 940.902 1.31181 -1.45224 0
M  V30 9526 C 941.201 -1.73339 -3.12551 0
M  V30 9527 C 940.867 -3.23256 -3.14351 0
M  V30 9528 C 939.529 -3.64159 -3.14549 0
M  V30 9529 C 941.881 -4.1916 -3.09765 0
M  V30 9530 C 939.209 -4.99428 -3.07877 0
M  V30 9531 C 941.561 -5.54419 -3.04635 0
M  V30 9532 C 940.225 -5.94688 -3.03154 0
M  V30 9533 H 939.495 -0.389434 -0.630415 0
M  V30 9534 H 942.142 -1.53208 -1.1489 0
M  V30 9535 H 940.447 -1.18911 -3.73319 0
M  V30 9536 H 942.144 -1.57767 -3.68661 0
M  V30 9537 H 938.734 -2.90693 -3.14953 0
M  V30 9538 H 942.918 -3.88569 -3.08753 0
M  V30 9539 H 938.174 -5.29844 -3.05083 0
M  V30 9540 H 942.348 -6.28448 -3.00043 0
M  V30 9541 H 939.975 -6.99468 -2.97739 0
M  V30 9542 N 941.55 1.18024 -1.04442 0
M  V30 9543 C 942.48 2.23988 -0.659683 0
M  V30 9544 C 943.461 1.6669 0.338904 0
M  V30 9545 O 944.646 1.92971 0.21817 0
M  V30 9546 C 941.776 3.4729 -0.0257672 0
M  V30 9547 C 940.73 4.17362 -0.948299 0
M  V30 9548 C 940.056 5.34401 -0.17866 0
M  V30 9549 C 941.356 4.70435 -2.26909 0
M  V30 9550 H 943.05 2.56425 -1.54553 0
M  V30 9551 H 940.596 1.23256 -0.744575 0
M  V30 9552 H 942.549 4.20627 0.255131 0
M  V30 9553 H 941.273 3.14098 0.894981 0
M  V30 9554 H 939.932 3.45928 -1.21364 0
M  V30 9555 H 939.58 4.97458 0.744614 0
M  V30 9556 H 939.28 5.8222 -0.793294 0
M  V30 9557 H 940.804 6.10526 0.0951315 0
M  V30 9558 H 942.218 5.35447 -2.04864 0
M  V30 9559 H 940.615 5.28803 -2.83703 0
M  V30 9560 H 941.685 3.87653 -2.91296 0
M  V30 9561 N 943.028 0.824394 1.34319 0
M  V30 9562 C 944.439 0.471802 1.8064 0
M  V30 9563 C 944.79 -1.00793 1.6833 0
M  V30 9564 O 943.915 -1.78447 1.22416 0
M  V30 9565 C 944.51 0.849609 3.27974 0
M  V30 9566 C 943.069 0.549365 3.72369 0
M  V30 9567 C 942.216 1.06573 2.56003 0
M  V30 9568 H 945.167 1.01443 1.22045 0
M  V30 9569 H 945.188 0.153968 3.80188 0
M  V30 9570 H 944.7 1.92663 3.36902 0
M  V30 9571 H 942.801 -0.518182 3.68979 0
M  V30 9572 H 942.914 1.09446 4.66432 0
M  V30 9573 H 941.278 0.487214 2.49997 0
M  V30 9574 H 942.061 2.14923 2.677 0
M  V30 9575 N 944.506 -1.46559 0.579492 0
M  V30 9576 C 945.736 -2.06484 0.0692642 0
M  V30 9577 C 946.144 -1.4293 -1.23967 0
M  V30 9578 O 945.487 -0.527632 -1.75959 0
M  V30 9579 C 945.549 -3.59078 -0.174174 0
M  V30 9580 C 945.213 -4.44805 1.04867 0
M  V30 9581 C 946.21 -4.81543 1.95991 0
M  V30 9582 C 943.895 -4.8599 1.26961 0
M  V30 9583 C 945.889 -5.58288 3.0756 0
M  V30 9584 C 943.576 -5.62495 2.38836 0
M  V30 9585 C 944.574 -5.98558 3.28964 0
M  V30 9586 O 944.262 -6.73518 4.38896 0
M  V30 9587 H 943.994 -0.673917 0.0530331 0
M  V30 9588 H 946.548 -1.89223 0.79898 0
M  V30 9589 H 944.778 -3.74634 -0.958464 0
M  V30 9590 H 946.467 -4.00941 -0.632515 0
M  V30 9591 H 947.233 -4.50307 1.80136 0
M  V30 9592 H 943.112 -4.57372 0.577184 0
M  V30 9593 H 946.656 -5.86355 3.77933 0
M  V30 9594 H 942.553 -5.93145 2.54655 0
M  V30 9595 H 943.321 -6.91938 4.37223 0
M  V30 9596 N 945.984 -0.3171 -1.54377 0
M  V30 9597 C 947.23 0.280631 -2.01455 0
M  V30 9598 C 947.585 1.50282 -1.20138 0
M  V30 9599 O 946.878 1.89634 -0.273785 0
M  V30 9600 C 947.072 0.672917 -3.51008 0
M  V30 9601 C 946.901 -0.509709 -4.46802 0
M  V30 9602 C 945.671 -1.00679 -4.95168 0
M  V30 9603 C 947.869 -1.35984 -4.95997 0
M  V30 9604 N 945.851 -2.1545 -5.74852 0
M  V30 9605 C 947.222 -2.35481 -5.73541 0
M  V30 9606 C 949.277 -1.38836 -4.78152 0
M  V30 9607 C 947.98 -3.37625 -6.35139 0
M  V30 9608 C 950.006 -2.39847 -5.40581 0
M  V30 9609 C 949.368 -3.38071 -6.1797 0
M  V30 9610 H 945.467 0.0667107 -0.779149 0
M  V30 9611 H 948.051 -0.450672 -1.89412 0
M  V30 9612 H 946.222 1.37336 -3.63309 0
M  V30 9613 H 947.954 1.25156 -3.84861 0
M  V30 9614 H 944.709 -0.579125 -4.70046 0
M  V30 9615 H 945.133 -2.73324 -6.19373 0
M  V30 9616 H 949.775 -0.642643 -4.17887 0
M  V30 9617 H 947.493 -4.13106 -6.94528 0
M  V30 9618 H 951.079 -2.42847 -5.28693 0
M  V30 9619 H 949.959 -4.14953 -6.6542 0
M  V30 9620 N 947.462 1.57535 -0.0451378 0
M  V30 9621 C 948.372 2.14653 0.946646 0
M  V30 9622 C 949.388 1.10279 1.3459 0
M  V30 9623 O 950.564 1.42417 1.42405 0
M  V30 9624 C 947.629 2.67533 2.20515 0
M  V30 9625 C 946.69 3.86682 1.86481 0
M  V30 9626 C 945.923 4.37031 3.06332 0
M  V30 9627 O 946.146 3.86481 4.1951 0
M  V30 9628 O 945.08 5.28691 2.87697 0
M  V30 9629 H 948.906 2.99706 0.49091 0
M  V30 9630 H 946.491 1.48355 0.17641 0
M  V30 9631 H 948.373 3.01542 2.94365 0
M  V30 9632 H 947.048 1.85554 2.65238 0
M  V30 9633 H 945.955 3.57573 1.09966 0
M  V30 9634 H 947.288 4.69873 1.46562 0
M  V30 9635 N 948.94 -0.228186 1.55939 0
M  V30 9636 C 949.888 -1.30239 1.92719 0
M  V30 9637 C 950.882 -1.48865 0.808424 0
M  V30 9638 O 952.088 -1.50118 0.993204 0
M  V30 9639 H 948.463 -0.436509 0.612343 0
M  V30 9640 H 950.434 -0.964965 2.82367 0
M  V30 9641 C 949.183 -2.647 2.25453 0
M  V30 9642 H 948.506 -2.51173 3.1105 0
M  V30 9643 H 949.946 -3.38691 2.55077 0
M  V30 9644 C 948.405 -3.1921 1.07734 0
M  V30 9645 O 948.935 -4.00301 0.335019 0
M  V30 9646 N 947.141 -2.77492 0.862938 0
M  V30 9647 H 946.688 -2.11657 1.4683 0
M  V30 9648 H 946.646 -3.14306 0.0770119 0
M  V30 9649 N 950.418 -1.49637 -0.494624 0
M  V30 9650 C 951.366 -1.6727 -1.61627 0
M  V30 9651 C 952.36 -0.538587 -1.6061 0
M  V30 9652 O 953.566 -0.718411 -1.65042 0
M  V30 9653 H 949.941 -0.527557 -0.535899 0
M  V30 9654 H 951.912 -2.61405 -1.43909 0
M  V30 9655 C 950.661 -1.7624 -2.99725 0
M  V30 9656 H 949.984 -2.62886 -3.01216 0
M  V30 9657 H 951.424 -1.92611 -3.77726 0
M  V30 9658 C 949.883 -0.508632 -3.33038 0
M  V30 9659 O 950.413 0.362828 -4.00058 0
M  V30 9660 N 948.619 -0.369667 -2.88239 0
M  V30 9661 H 948.166 -1.07984 -2.33875 0
M  V30 9662 H 948.124 0.468112 -3.10896 0
M  V30 9663 N 951.896 0.746133 -1.38819 0
M  V30 9664 C 953.121 1.54049 -1.38866 0
M  V30 9665 C 953.546 1.88092 0.0176624 0
M  V30 9666 O 952.904 1.51113 1.00173 0
M  V30 9667 C 952.952 2.8116 -2.25791 0
M  V30 9668 O 952.056 3.76623 -1.68014 0
M  V30 9669 H 951.397 0.465648 -0.473359 0
M  V30 9670 H 953.927 0.921469 -1.82675 0
M  V30 9671 H 953.937 3.30009 -2.39913 0
M  V30 9672 H 952.612 2.55713 -3.27999 0
M  V30 9673 H 951.189 3.35352 -1.63074 0
M  V30 9674 N 953.375 1.23811 0.975125 0
M  V30 9675 C 954.603 1.10019 1.75224 0
M  V30 9676 C 955.018 -0.34791 1.85567 0
M  V30 9677 O 954.375 -1.24043 1.33864 0
M  V30 9678 C 954.426 1.72572 3.1765 0
M  V30 9679 O 954.147 3.11719 3.07836 0
M  V30 9680 C 955.648 1.64292 4.11732 0
M  V30 9681 H 952.868 0.38476 0.549728 0
M  V30 9682 H 955.412 1.63768 1.22476 0
M  V30 9683 H 953.567 1.22843 3.67408 0
M  V30 9684 H 953.981 3.42152 3.97533 0
M  V30 9685 H 955.455 2.12754 5.09352 0
M  V30 9686 H 955.932 0.602722 4.35045 0
M  V30 9687 H 956.538 2.13411 3.6788 0
M  V30 9688 N 954.853 -1.17469 1.05066 0
M  V30 9689 C 956.078 -1.92162 0.780298 0
M  V30 9690 C 956.503 -1.76222 -0.657832 0
M  V30 9691 O 955.861 -1.0791 -1.45688 0
M  V30 9692 C 955.909 -3.41292 1.16414 0
M  V30 9693 O 955.013 -4.1134 0.295531 0
M  V30 9694 H 954.354 -0.599127 0.286257 0
M  V30 9695 H 956.884 -1.48903 1.40318 0
M  V30 9696 H 956.894 -3.92029 1.13036 0
M  V30 9697 H 955.569 -3.52214 2.21175 0
M  V30 9698 H 954.146 -3.70857 0.389797 0
M  V30 9699 N 956.331 -0.831506 -1.3388 0
M  V30 9700 C 957.261 -0.274378 -2.31882 0
M  V30 9701 C 958.242 0.613872 -1.58637 0
M  V30 9702 O 959.427 0.538961 -1.86571 0
M  V30 9703 C 956.557 0.557498 -3.42796 0
M  V30 9704 C 955.511 -0.234337 -4.27358 0
M  V30 9705 C 954.837 0.720825 -5.29819 0
M  V30 9706 C 956.137 -1.44732 -5.01847 0
M  V30 9707 H 957.831 -1.09322 -2.78728 0
M  V30 9708 H 955.377 -0.527136 -1.34005 0
M  V30 9709 H 957.33 0.957501 -4.10378 0
M  V30 9710 H 956.054 1.40947 -2.94621 0
M  V30 9711 H 954.713 -0.61581 -3.61391 0
M  V30 9712 H 954.361 1.569 -4.77903 0
M  V30 9713 H 954.061 0.195171 -5.87276 0
M  V30 9714 H 955.585 1.1185 -6.00268 0
M  V30 9715 H 956.999 -1.12087 -5.62236 0
M  V30 9716 H 955.396 -1.90923 -5.68919 0
M  V30 9717 H 956.466 -2.22099 -4.31045 0
M  V30 9718 N 957.809 1.4625 -0.587256 0
M  V30 9719 C 958.756 2.30354 0.143384 0
M  V30 9720 C 959.726 1.40891 0.879716 0
M  V30 9721 O 960.911 1.69837 0.869486 0
M  V30 9722 C 958.051 3.25441 1.14815 0
M  V30 9723 C 957.164 4.30004 0.414792 0
M  V30 9724 C 956.299 5.12214 1.40748 0
M  V30 9725 C 955.338 6.08523 0.660786 0
M  V30 9726 N 954.475 6.83585 1.60176 0
M  V30 9727 H 959.315 2.92304 -0.579866 0
M  V30 9728 H 956.852 1.44055 -0.29777 0
M  V30 9729 H 958.81 3.79018 1.7436 0
M  V30 9730 H 957.44 2.6529 1.83906 0
M  V30 9731 H 956.492 3.79248 -0.295787 0
M  V30 9732 H 957.804 4.98515 -0.168738 0
M  V30 9733 H 956.958 5.70091 2.0756 0
M  V30 9734 H 955.697 4.43675 2.02494 0
M  V30 9735 H 954.702 5.49796 -0.0210864 0
M  V30 9736 H 955.927 6.79083 0.0486551 0
M  V30 9737 H 953.873 6.17752 2.20724 0
M  V30 9738 H 953.79 7.48373 1.07115 0
M  V30 9739 H 955.058 7.46016 2.26009 0
M  V30 9740 N 959.287 0.325282 1.54207 0
M  V30 9741 C 960.25 -0.527228 2.23054 0
M  V30 9742 C 961.25 -1.04217 1.22456 0
M  V30 9743 O 962.44 -0.934325 1.47024 0
M  V30 9744 C 959.572 -1.7325 2.93594 0
M  V30 9745 H 960.765 0.0746423 2.99807 0
M  V30 9746 H 958.318 0.0763872 1.56113 0
M  V30 9747 H 959.053 -2.37356 2.20981 0
M  V30 9748 H 958.838 -1.37065 3.67363 0
M  V30 9749 H 960.328 -2.3376 3.46043 0
M  V30 9750 N 960.765 -1.57509 0.0534917 0
M  V30 9751 C 961.695 -2.14698 -0.917999 0
M  V30 9752 C 962.676 -1.06924 -1.32292 0
M  V30 9753 O 963.861 -1.34875 -1.39723 0
M  V30 9754 C 960.991 -2.69383 -2.19203 0
M  V30 9755 C 959.945 -3.82161 -1.9271 0
M  V30 9756 C 959.271 -4.23373 -3.26587 0
M  V30 9757 C 960.571 -5.07199 -1.24686 0
M  V30 9758 H 962.265 -2.96125 -0.44165 0
M  V30 9759 H 959.811 -1.42446 -0.210993 0
M  V30 9760 H 961.764 -3.08031 -2.87567 0
M  V30 9761 H 960.488 -1.85151 -2.69048 0
M  V30 9762 H 959.147 -3.43989 -1.26757 0
M  V30 9763 H 958.795 -3.36089 -3.74237 0
M  V30 9764 H 958.495 -4.99385 -3.09658 0
M  V30 9765 H 960.019 -4.64623 -3.96178 0
M  V30 9766 H 961.433 -5.43279 -1.83088 0
M  V30 9767 H 959.83 -5.88369 -1.18076 0
M  V30 9768 H 960.9 -4.84386 -0.223227 0
M  V30 9769 N 962.243 0.219913 -1.56058 0
M  V30 9770 C 963.489 0.945463 -1.79412 0
M  V30 9771 C 963.822 1.83922 -0.62341 0
M  V30 9772 O 963.097 1.90806 0.377256 0
M  V30 9773 C 963.38 1.783 -3.1286 0
M  V30 9774 C 963.233 0.915626 -4.40382 0
M  V30 9775 C 964.552 2.76045 -3.42764 0
M  V30 9776 H 961.671 0.342288 -0.652693 0
M  V30 9777 H 964.313 0.214235 -1.88788 0
M  V30 9778 H 962.463 2.40642 -3.04998 0
M  V30 9779 H 964.135 0.30882 -4.60265 0
M  V30 9780 H 962.378 0.221124 -4.33236 0
M  V30 9781 H 963.049 1.53607 -5.30197 0
M  V30 9782 H 965.525 2.23838 -3.50764 0
M  V30 9783 H 964.401 3.31748 -4.37304 0
M  V30 9784 H 964.662 3.53866 -2.65012 0
M  V30 9785 N 963.721 1.49897 0.486681 0
M  V30 9786 C 964.668 1.67619 1.58658 0
M  V30 9787 C 965.638 0.517537 1.57831 0
M  V30 9788 O 966.823 0.746272 1.756 0
M  V30 9789 C 963.963 1.762 2.96728 0
M  V30 9790 C 963.076 3.03465 3.07462 0
M  V30 9791 C 962.211 3.02937 4.36351 0
M  V30 9792 C 961.25 4.24721 4.4077 0
M  V30 9793 N 960.387 4.22021 5.61108 0
M  V30 9794 H 965.227 2.61528 1.42853 0
M  V30 9795 H 962.764 1.29657 0.694807 0
M  V30 9796 H 964.722 1.79156 3.76774 0
M  V30 9797 H 963.352 0.857452 3.11203 0
M  V30 9798 H 962.404 3.10054 2.20387 0
M  V30 9799 H 963.716 3.93454 3.06586 0
M  V30 9800 H 962.87 3.04536 5.24731 0
M  V30 9801 H 961.609 2.10751 4.39813 0
M  V30 9802 H 960.614 4.23352 3.5079 0
M  V30 9803 H 961.839 5.18116 4.39013 0
M  V30 9804 H 959.785 3.3268 5.65385 0
M  V30 9805 H 959.702 5.05761 5.61909 0
M  V30 9806 H 960.97 4.27743 6.51656 0
M  V30 9807 N 965.199 -0.738761 1.39212 0
M  V30 9808 C 966.146 -1.85273 1.37631 0
M  V30 9809 C 967.116 -1.64407 0.236572 0
M  V30 9810 O 968.301 -1.85866 0.431104 0
M  V30 9811 C 965.441 -3.22745 1.22188 0
M  V30 9812 C 964.554 -3.55342 2.45674 0
M  V30 9813 C 963.689 -4.82195 2.22847 0
M  V30 9814 C 962.728 -5.07625 3.42029 0
M  V30 9815 N 961.865 -6.25679 3.18543 0
M  V30 9816 H 966.705 -1.85959 2.32859 0
M  V30 9817 H 964.242 -0.908716 1.15675 0
M  V30 9818 H 966.2 -4.02095 1.11245 0
M  V30 9819 H 964.83 -3.21347 0.30592 0
M  V30 9820 H 963.882 -2.70722 2.67233 0
M  V30 9821 H 965.194 -3.70054 3.34457 0
M  V30 9822 H 964.348 -5.69518 2.09126 0
M  V30 9823 H 963.087 -4.6965 1.31454 0
M  V30 9824 H 962.092 -4.18765 3.56253 0
M  V30 9825 H 963.317 -5.22058 4.34319 0
M  V30 9826 H 961.263 -6.14429 2.2981 0
M  V30 9827 H 961.18 -6.40961 4.0088 0
M  V30 9828 H 962.448 -7.15851 3.08508 0
M  V30 9829 N 966.677 -1.24326 -0.968545 0
M  V30 9830 C 968.088 -1.07561 -1.52603 0
M  V30 9831 C 968.439 0.353245 -1.92994 0
M  V30 9832 O 967.564 1.24151 -1.77244 0
M  V30 9833 C 968.159 -1.94634 -2.77314 0
M  V30 9834 C 966.718 -1.82095 -3.29421 0
M  V30 9835 C 965.865 -1.8962 -2.02335 0
M  V30 9836 H 968.816 -1.37815 -0.786932 0
M  V30 9837 H 968.837 -1.47812 -3.50616 0
M  V30 9838 H 968.349 -2.98621 -2.47885 0
M  V30 9839 H 966.45 -0.809376 -3.63703 0
M  V30 9840 H 966.563 -2.66142 -3.98378 0
M  V30 9841 H 964.927 -1.33339 -2.17009 0
M  V30 9842 H 965.71 -2.95185 -1.75273 0
M  V30 9843 N 968.156 1.1691 -1.05688 0
M  V30 9844 C 969.104 2.2315 -0.656262 0
M  V30 9845 C 970.098 1.66256 0.324873 0
M  V30 9846 O 971.304 1.7899 0.190397 0
M  V30 9847 H 967.679 0.726527 -0.19407 0
M  V30 9848 H 969.65 2.54233 -1.56231 0
M  V30 9849 C 968.399 3.47661 -0.0522431 0
M  V30 9850 H 967.722 3.91749 -0.798299 0
M  V30 9851 H 969.162 4.23571 0.190626 0
M  V30 9852 C 967.621 3.14709 1.20248 0
M  V30 9853 O 968.151 3.29947 2.29124 0
M  V30 9854 N 966.357 2.68892 1.10207 0
M  V30 9855 H 965.904 2.56692 0.216063 0
M  V30 9856 H 965.862 2.47218 1.94244 0
M  V30 9857 N 969.634 0.838594 1.33437 0
M  V30 9858 C 970.882 0.433312 1.974 0
M  V30 9859 C 971.203 -1.01078 1.66758 0
M  V30 9860 O 970.473 -1.70406 0.966373 0
M  V30 9861 H 969.053 0.15724 0.730263 0
M  V30 9862 H 971.715 1.07149 1.62804 0
M  V30 9863 H 970.811 0.565144 3.06941 0
M  V30 9864 N 971.112 -1.45937 0.595003 0
M  V30 9865 C 972.022 -2.34221 -0.133325 0
M  V30 9866 C 973.038 -1.50491 -0.873407 0
M  V30 9867 O 974.214 -1.83328 -0.833828 0
M  V30 9868 C 971.279 -3.27896 -1.12628 0
M  V30 9869 C 970.34 -4.27529 -0.389532 0
M  V30 9870 C 969.573 -5.16729 -1.33519 0
M  V30 9871 O 969.796 -5.09102 -2.57238 0
M  V30 9872 O 968.73 -5.96023 -0.839084 0
M  V30 9873 H 972.556 -2.97877 0.591861 0
M  V30 9874 H 970.141 -1.45113 0.355329 0
M  V30 9875 H 972.023 -3.85654 -1.69851 0
M  V30 9876 H 970.698 -2.6682 -1.83272 0
M  V30 9877 H 969.605 -3.73424 0.224843 0
M  V30 9878 H 970.938 -4.91425 0.276169 0
M  V30 9879 N 972.59 -0.333456 -1.54032 0
M  V30 9880 C 973.52 0.52051 -2.27625 0
M  V30 9881 C 974.501 1.1111 -1.28797 0
M  V30 9882 O 975.686 1.13438 -1.57625 0
M  V30 9883 C 972.816 1.67663 -3.04149 0
M  V30 9884 C 971.77 1.21487 -4.10396 0
M  V30 9885 C 971.096 2.45872 -4.74817 0
M  V30 9886 C 972.396 0.322603 -5.21303 0
M  V30 9887 H 974.09 -0.0933823 -2.99254 0
M  V30 9888 H 971.636 -0.0463526 -1.43925 0
M  V30 9889 H 973.589 2.28041 -3.54366 0
M  V30 9890 H 972.313 2.31727 -2.30153 0
M  V30 9891 H 970.972 0.633966 -3.61077 0
M  V30 9892 H 970.62 3.0832 -3.97426 0
M  V30 9893 H 970.32 2.15662 -5.46593 0
M  V30 9894 H 971.844 3.06994 -5.27814 0
M  V30 9895 H 973.258 0.832942 -5.67217 0
M  V30 9896 H 971.655 0.112843 -5.99994 0
M  V30 9897 H 972.725 -0.643954 -4.80605 0
M  V30 9898 N 974.068 1.57479 -0.061844 0
M  V30 9899 C 975.314 1.93395 0.610443 0
M  V30 9900 C 975.647 0.941334 1.6986 0
M  V30 9901 O 974.922 -0.0310262 1.94475 0
M  V30 9902 C 975.205 3.39636 1.19664 0
M  V30 9903 C 975.058 4.49651 0.115805 0
M  V30 9904 C 976.377 3.86488 2.10512 0
M  V30 9905 H 973.496 0.703262 0.220436 0
M  V30 9906 H 976.138 1.89583 -0.125785 0
M  V30 9907 H 974.288 3.43015 1.82409 0
M  V30 9908 H 975.96 4.58397 -0.516728 0
M  V30 9909 H 974.203 4.30237 -0.55483 0
M  V30 9910 H 974.874 5.49089 0.566176 0
M  V30 9911 H 977.35 3.85052 1.57715 0
M  V30 9912 H 976.226 4.89444 2.48466 0
M  V30 9913 H 976.487 3.23856 3.00948 0
M  V30 9914 N 975.546 -0.211634 1.56173 0
M  V30 9915 C 976.962 -0.56177 1.49386 0
M  V30 9916 C 977.162 -1.86666 0.758813 0
M  V30 9917 O 976.218 -2.50681 0.302534 0
M  V30 9918 C 977.531 -0.631815 2.93987 0
M  V30 9919 C 979.079 -0.721773 3.04564 0
M  V30 9920 C 979.554 -0.823075 4.50544 0
M  V30 9921 N 981.045 -0.887038 4.54627 0
M  V30 9922 C 981.78 -0.985304 5.64871 0
M  V30 9923 N 981.276 -1.0469 6.84844 0
M  V30 9924 N 983.069 -1.02121 5.52746 0
M  V30 9925 H 975.22 0.64452 2.02385 0
M  V30 9926 H 977.483 0.227466 0.920306 0
M  V30 9927 H 977.189 0.257592 3.50755 0
M  V30 9928 H 977.063 -1.4921 3.46433 0
M  V30 9929 H 979.45 -1.60162 2.47855 0
M  V30 9930 H 979.531 0.164385 2.55271 0
M  V30 9931 H 979.175 0.0523511 5.07873 0
M  V30 9932 H 979.105 -1.72479 4.97552 0
M  V30 9933 H 981.596 -0.849352 3.68231 0
M  V30 9934 H 981.909 -1.12193 7.64613 0
M  V30 9935 H 980.254 -1.01586 6.87536 0
M  V30 9936 H 983.445 -0.969814 4.57943 0
M  V30 9937 H 983.618 -1.09434 6.38693 0
M  V30 9938 N 977.024 -1.50153 -0.478725 0
M  V30 9939 C 977.954 -1.71384 -1.58587 0
M  V30 9940 C 978.935 -0.562705 -1.60523 0
M  V30 9941 O 980.12 -0.80101 -1.76911 0
M  V30 9942 C 977.25 -1.80094 -2.96957 0
M  V30 9943 C 976.204 -2.95218 -3.09888 0
M  V30 9944 C 975.53 -2.89063 -4.49829 0
M  V30 9945 C 976.83 -4.35841 -2.8782 0
M  V30 9946 H 978.524 -2.64081 -1.41073 0
M  V30 9947 H 976.07 -1.27081 -0.677239 0
M  V30 9948 H 978.023 -1.93531 -3.74331 0
M  V30 9949 H 976.747 -0.840131 -3.1561 0
M  V30 9950 H 975.406 -2.81419 -2.34944 0
M  V30 9951 H 975.054 -1.90844 -4.6539 0
M  V30 9952 H 974.754 -3.66345 -4.59418 0
M  V30 9953 H 976.278 -3.04539 -5.29234 0
M  V30 9954 H 977.692 -4.50205 -3.54948 0
M  V30 9955 H 976.089 -5.14515 -3.0886 0
M  V30 9956 H 977.159 -4.48739 -1.83742 0
M  V30 9957 N 978.502 0.731368 -1.39602 0
M  V30 9958 C 979.73 1.52059 -1.40305 0
M  V30 9959 C 980.145 1.888 0.00147921 0
M  V30 9960 O 979.502 1.54354 0.973715 0
M  V30 9961 C 979.553 2.80588 -2.27931 0
M  V30 9962 O 979.274 2.45406 -3.62915 0
M  V30 9963 C 980.775 3.74592 -2.37056 0
M  V30 9964 H 977.995 0.469787 -0.479104 0
M  V30 9965 H 980.539 0.903436 -1.83462 0
M  V30 9966 H 978.694 3.38626 -1.88178 0
M  V30 9967 H 979.108 3.27996 -4.09291 0
M  V30 9968 H 980.582 4.61662 -3.02609 0
M  V30 9969 H 981.059 4.16597 -1.39081 0
M  V30 9970 H 981.665 3.22471 -2.77295 0
M  V30 9971 N 979.98 1.24838 0.961938 0
M  V30 9972 C 980.91 1.07053 2.07514 0
M  V30 9973 C 981.891 -0.0182465 1.7009 0
M  V30 9974 O 983.076 0.149915 1.9362 0
M  V30 9975 C 980.206 0.680693 3.40564 0
M  V30 9976 C 979.16 1.71889 3.91967 0
M  V30 9977 C 978.486 1.18395 5.21428 0
M  V30 9978 C 979.786 3.1161 4.19161 0
M  V30 9979 H 981.48 2.00167 2.22651 0
M  V30 9980 H 979.026 0.963799 1.0699 0
M  V30 9981 H 980.979 0.54324 4.17884 0
M  V30 9982 H 979.703 -0.28615 3.25344 0
M  V30 9983 H 978.362 1.84465 3.16809 0
M  V30 9984 H 978.01 0.207543 5.02572 0
M  V30 9985 H 977.71 1.87778 5.56788 0
M  V30 9986 H 979.234 1.05873 6.01351 0
M  V30 9987 H 980.648 3.0223 4.87165 0
M  V30 9988 H 979.045 3.78398 4.65763 0
M  V30 9989 H 980.115 3.59218 3.25715 0
M  V30 9990 N 981.458 -1.16348 1.06306 0
M  V30 9991 C 982.421 -2.18941 0.678053 0
M  V30 9992 C 983.421 -1.58409 -0.276277 0
M  V30 9993 O 984.611 -1.74101 -0.0586435 0
M  V30 9994 C 981.743 -3.409 -0.00228684 0
M  V30 9995 H 982.936 -2.54516 1.58624 0
M  V30 9996 H 980.489 -1.30625 0.858298 0
M  V30 9997 H 981.224 -3.10881 -0.923212 0
M  V30 9998 H 981.009 -3.86089 0.683949 0
M  V30 9999 H 982.499 -4.16806 -0.257374 0
M  V30 10000 N 982.937 -0.845659 -1.3299 0
M  V30 10001 C 984.165 -0.45835 -2.01759 0
M  V30 10002 C 984.58 0.94239 -1.63598 0
M  V30 10003 O 983.937 1.61353 -0.852738 0
M  V30 10004 C 983.988 -0.577311 -3.5686 0
M  V30 10005 O 983.709 -1.92287 -3.93646 0
M  V30 10006 C 985.21 -0.187839 -4.42902 0
M  V30 10007 H 982.43 -0.181165 -0.646081 0
M  V30 10008 H 984.974 -1.14011 -1.6977 0
M  V30 10009 H 983.129 0.0566146 -3.87359 0
M  V30 10010 H 983.543 -1.91322 -4.88361 0
M  V30 10011 H 985.017 -0.322105 -5.51059 0
M  V30 10012 H 985.494 0.870896 -4.30479 0
M  V30 10013 H 986.1 -0.796473 -4.17776 0
M  V30 10014 N 984.415 1.45619 -0.602734 0
M  V30 10015 C 985.345 2.33258 0.106342 0
M  V30 10016 C 986.326 1.46543 0.863664 0
M  V30 10017 O 987.511 1.75324 0.835175 0
M  V30 10018 C 984.641 3.29168 1.10751 0
M  V30 10019 C 983.595 4.25481 0.463717 0
M  V30 10020 C 982.921 5.11046 1.57278 0
M  V30 10021 C 984.221 5.18702 -0.61199 0
M  V30 10022 H 985.915 2.92795 -0.625423 0
M  V30 10023 H 983.461 1.40793 -0.302213 0
M  V30 10024 H 985.414 3.89346 1.61208 0
M  V30 10025 H 984.138 2.6778 1.8698 0
M  V30 10026 H 982.797 3.66595 -0.0199496 0
M  V30 10027 H 982.445 4.46029 2.32524 0
M  V30 10028 H 982.145 5.76286 1.14755 0
M  V30 10029 H 983.669 5.74091 2.07972 0
M  V30 10030 H 985.083 5.72979 -0.191686 0
M  V30 10031 H 983.48 5.92393 -0.958686 0
M  V30 10032 H 984.55 4.61424 -1.4905 0
M  V30 10033 O 985.932 0.4838 1.54083 0
M  V30 10034 H 986.623 -0.0382762 1.93662 0
M  V30 END ATOM
M  V30 BEGIN BOND
M  V30 END BOND
M  V30 END CTAB
M  END
$$$$
