drugbank_target|Q05655 Protein kinase C delta type (DB04376; DB05013; DB12010)
 OpenBabel12092120143D

  0  0  0     0  0            999 V3000
M  V30 BEGIN CTAB
M  V30 COUNTS 10840 10966 0 0 0
M  V30 BEGIN ATOM
M  V30 1 H -0.908 1.98254 -0.117106 0
M  V30 2 N 0 1.576 0 0
M  V30 3 C 0.933 2.03868 1.02534 0
M  V30 4 C 1.911 0.928543 1.3348 0
M  V30 5 O 3.095 1.19667 1.45644 0
M  V30 6 C 0.222 2.43627 2.35294 0
M  V30 7 C -0.732 3.65373 2.2001 0
M  V30 8 S 0.101 5.13292 1.52614 0
M  V30 9 C 1.257 5.56322 2.86805 0
M  V30 10 H 1.49 2.90518 0.631377 0
M  V30 11 H -0.977 1.52953 0.210867 0
M  V30 12 H 0.981 2.67203 3.11629 0
M  V30 13 H -0.358 1.57376 2.7183 0
M  V30 14 H -1.165 3.90944 3.18086 0
M  V30 15 H -1.563 3.418 1.51819 0
M  V30 16 H 0.729 5.58782 3.83104 0
M  V30 17 H 1.672 6.56266 2.65933 0
M  V30 18 H 2.08 4.83886 2.90714 0
M  V30 19 N 1.4781 -0.272755 1.55222 0
M  V30 20 C 2.4411 -1.32041 1.87344 0
M  V30 21 C 3.4411 -1.42342 0.74803 0
M  V30 22 O 4.6311 -1.41488 1.0162 0
M  V30 23 C 1.7631 -2.70173 2.07893 0
M  V30 24 H 2.9561 -1.04789 2.80997 0
M  V30 25 H 0.5091 -0.51083 1.47717 0
M  V30 26 H 1.2441 -3.02605 1.16622 0
M  V30 27 H 1.0291 -2.64082 2.89833 0
M  V30 28 H 2.5191 -3.45869 2.34017 0
M  V30 29 N 2.9562 -1.48159 -0.537278 0
M  V30 30 C 4.3672 -1.49429 -1.11928 0
M  V30 31 C 4.7182 -0.26 -1.9447 0
M  V30 32 O 3.8432 0.633489 -2.0692 0
M  V30 33 C 4.4382 -2.70758 -2.03656 0
M  V30 34 C 2.9972 -2.74923 -2.57088 0
M  V30 35 C 2.1442 -2.42835 -1.3389 0
M  V30 36 H 5.0952 -1.55381 -0.322886 0
M  V30 37 H 5.1162 -2.48861 -2.87834 0
M  V30 38 H 4.6282 -3.60575 -1.43553 0
M  V30 39 H 2.7292 -1.89296 -3.20933 0
M  V30 40 H 2.8422 -3.76157 -2.9672 0
M  V30 41 H 1.2062 -1.93836 -1.65226 0
M  V30 42 H 1.9892 -3.34884 -0.755504 0
M  V30 43 N 4.4343 0.785586 -1.36625 0
M  V30 44 C 5.6813 1.54362 -1.31067 0
M  V30 45 C 6.0093 1.94195 0.10893 0
M  V30 46 O 5.2643 1.63262 1.07908 0
M  V30 47 C 5.5633 2.83007 -2.1827 0
M  V30 48 C 5.2293 2.62294 -3.6676 0
M  V30 49 C 3.8913 2.56353 -4.0723 0
M  V30 50 C 6.2433 2.43371 -4.6089 0
M  V30 51 C 3.5713 2.29461 -5.39967 0
M  V30 52 C 5.9233 2.18005 -5.93849 0
M  V30 53 C 4.5873 2.105 -6.3344 0
M  V30 54 H 3.8573 0.564851 -0.479609 0
M  V30 55 H 6.5043 0.906028 -1.68711 0
M  V30 56 H 4.8093 3.51253 -1.73576 0
M  V30 57 H 6.5063 3.40817 -2.11292 0
M  V30 58 H 3.0963 2.67774 -3.34656 0
M  V30 59 H 7.2803 2.46959 -4.30494 0
M  V30 60 H 2.5363 2.22135 -5.69619 0
M  V30 61 H 6.7103 2.02359 -6.66351 0
M  V30 62 H 4.3373 1.89425 -7.36222 0
M  V30 63 N 5.9124 1.20967 1.01018 0
M  V30 64 C 6.8424 0.988272 2.11555 0
M  V30 65 C 7.8234 -0.0849778 1.69888 0
M  V30 66 O 9.0084 0.0738202 1.9406 0
M  V30 67 C 6.1384 0.546528 3.42973 0
M  V30 68 C 5.0924 1.56375 3.9841 0
M  V30 69 C 4.4184 0.97842 5.25672 0
M  V30 70 C 5.7184 2.94922 4.31066 0
M  V30 71 H 7.4124 1.91276 2.30334 0
M  V30 72 H 4.9584 0.921073 1.1069 0
M  V30 73 H 6.9114 0.378839 4.19694 0
M  V30 74 H 5.6354 -0.413598 3.23971 0
M  V30 75 H 4.2944 1.71891 3.23804 0
M  V30 76 H 3.9424 0.0101688 5.02999 0
M  V30 77 H 3.6424 1.65784 5.63728 0
M  V30 78 H 5.1664 0.821939 6.05043 0
M  V30 79 H 6.5804 2.8288 4.9865 0
M  V30 80 H 4.9774 3.5983 4.80253 0
M  V30 81 H 6.0474 3.4616 3.39561 0
M  V30 82 N 7.3905 -1.2043 1.01659 0
M  V30 83 C 8.8065 -1.41852 0.731442 0
M  V30 84 C 9.0065 -1.89358 -0.688898 0
M  V30 85 O 8.0625 -2.06247 -1.45666 0
M  V30 86 C 9.3755 -2.44019 1.75714 0
M  V30 87 C 10.9235 -2.57785 1.77527 0
M  V30 88 C 11.3985 -3.63194 2.79023 0
M  V30 89 N 12.8895 -3.70678 2.77763 0
M  V30 90 C 13.6245 -4.51897 3.52954 0
M  V30 91 N 13.1205 -5.36921 4.37821 0
M  V30 92 N 14.9135 -4.4643 3.41551 0
M  V30 93 H 7.0645 -0.879093 1.93354 0
M  V30 94 H 9.3275 -0.448425 0.835236 0
M  V30 95 H 9.0335 -2.1611 2.77469 0
M  V30 96 H 8.9075 -3.43007 1.56927 0
M  V30 97 H 11.2945 -2.85023 0.764569 0
M  V30 98 H 11.3755 -1.58992 2.00387 0
M  V30 99 H 11.0195 -3.36699 3.80258 0
M  V30 100 H 10.9495 -4.61609 2.53425 0
M  V30 101 H 13.4405 -3.09944 2.16201 0
M  V30 102 H 13.7535 -5.95981 4.91962 0
M  V30 103 H 12.0985 -5.36424 4.41899 0
M  V30 104 H 15.2895 -3.79042 2.74672 0
M  V30 105 H 15.4625 -5.09491 4.00404 0
M  V30 106 N 8.8686 -0.792821 -1.36206 0
M  V30 107 C 10.1176 -0.363353 -1.984 0
M  V30 108 C 10.4306 1.07172 -1.63626 0
M  V30 109 O 11.6366 1.60362 -2.19081 0
M  V30 110 C 10.0926 -0.59872 -3.54885 0
M  V30 111 C 9.7006 -2.04543 -3.9858 0
M  V30 112 C 11.4446 -0.233926 -4.23855 0
M  V30 113 C 9.3516 -2.22727 -5.47856 0
M  V30 114 H 8.2816 -0.13212 -0.742334 0
M  V30 115 H 10.9326 -0.974935 -1.55458 0
M  V30 116 H 9.3146 0.0826222 -3.95914 0
M  V30 117 H 10.4886 -2.76345 -3.68741 0
M  V30 118 H 8.8036 -2.36879 -3.42458 0
M  V30 119 H 11.4006 -0.348027 -5.33566 0
M  V30 120 H 11.7436 0.818351 -4.08177 0
M  V30 121 H 12.2766 -0.868639 -3.882 0
M  V30 122 H 9.0156 -3.2635 -5.68486 0
M  V30 123 H 8.5356 -1.55434 -5.7931 0
M  V30 124 H 10.2146 -2.03607 -6.14128 0
M  V30 125 N 10.3467 1.47872 -0.545128 0
M  V30 126 C 11.3097 2.28337 0.198717 0
M  V30 127 C 12.3097 1.36255 0.853888 0
M  V30 128 O 13.4997 1.59003 0.711606 0
M  V30 129 C 10.6317 3.15585 1.28915 0
M  V30 130 H 11.8247 2.95567 -0.507941 0
M  V30 131 H 9.3777 1.53362 -0.301616 0
M  V30 132 H 10.1127 2.53019 2.02859 0
M  V30 133 H 9.8977 3.83337 0.824309 0
M  V30 134 H 11.3877 3.76243 1.81194 0
M  V30 135 N 11.8248 0.280983 1.55075 0
M  V30 136 C 13.0718 -0.334115 1.99725 0
M  V30 137 C 13.3998 -1.5542 1.1694 0
M  V30 138 O 12.6548 -1.94361 0.228531 0
M  V30 139 C 12.9538 -0.754656 3.49342 0
M  V30 140 C 12.6198 0.361445 4.49449 0
M  V30 141 C 11.2818 0.667893 4.76542 0
M  V30 142 C 13.6338 1.11322 5.09173 0
M  V30 143 C 10.9618 1.7296 5.60626 0
M  V30 144 C 13.3138 2.1647 5.9441 0
M  V30 145 C 11.9778 2.47742 6.19822 0
M  V30 146 H 11.2478 -0.122261 0.730844 0
M  V30 147 H 13.8948 0.395917 1.87363 0
M  V30 148 H 12.1998 -1.56446 3.5921 0
M  V30 149 H 13.8968 -1.24142 3.813 0
M  V30 150 H 10.4868 0.112481 4.28452 0
M  V30 151 H 14.6708 0.88973 4.8826 0
M  V30 152 H 9.9268 1.97684 5.78559 0
M  V30 153 H 14.1008 2.75193 6.3972 0
M  V30 154 H 11.7278 3.30145 6.84769 0
M  V30 155 N 13.3029 -1.57598 0.00835791 0
M  V30 156 C 14.2509 -2.10078 -0.998508 0
M  V30 157 C 15.2449 -1.02262 -1.35051 0
M  V30 158 O 16.4509 -1.20719 -1.33518 0
M  V30 159 H 12.8259 -0.670903 -0.339696 0
M  V30 160 H 14.7969 -2.93648 -0.530398 0
M  V30 161 C 13.5459 -2.62615 -2.27879 0
M  V30 162 H 12.8689 -3.45213 -2.01662 0
M  V30 163 H 14.3089 -3.03004 -2.96588 0
M  V30 164 C 12.7679 -1.54407 -2.99433 0
M  V30 165 O 13.2979 -0.931812 -3.90743 0
M  V30 166 N 11.5039 -1.2695 -2.61404 0
M  V30 167 H 11.0509 -1.76924 -1.87232 0
M  V30 168 H 11.0089 -0.547704 -3.09593 0
M  V30 169 N 14.781 0.264519 -1.55364 0
M  V30 170 C 16.006 1.01726 -1.80739 0
M  V30 171 C 16.431 1.78836 -0.583044 0
M  V30 172 O 15.789 1.75167 0.467566 0
M  V30 173 C 15.837 1.94482 -3.03659 0
M  V30 174 O 14.941 3.03386 -2.7934 0
M  V30 175 H 14.282 0.290395 -0.597132 0
M  V30 176 H 16.812 0.290854 -2.02522 0
M  V30 177 H 16.822 2.36278 -3.32621 0
M  V30 178 H 15.497 1.37772 -3.92418 0
M  V30 179 H 14.074 2.65844 -2.61498 0
M  V30 180 N 16.2591 1.48442 0.529413 0
M  V30 181 C 17.4891 1.59919 1.30804 0
M  V30 182 C 17.8971 0.258792 1.87422 0
M  V30 183 O 17.2401 -0.762096 1.67146 0
M  V30 184 C 17.3021 2.58693 2.49636 0
M  V30 185 C 16.9661 4.03745 2.14101 0
M  V30 186 C 17.9631 4.9141 1.6974 0
M  V30 187 C 15.6481 4.49285 2.24607 0
M  V30 188 C 17.6421 6.22645 1.36351 0
M  V30 189 C 15.3291 5.8054 1.9083 0
M  V30 190 C 16.3271 6.67043 1.46773 0
M  V30 191 O 16.0151 7.95856 1.1344 0
M  V30 192 H 15.7471 0.541981 0.404021 0
M  V30 193 H 18.3011 1.95 0.645309 0
M  V30 194 H 16.5311 2.18734 3.18892 0
M  V30 195 H 18.2201 2.59999 3.11698 0
M  V30 196 H 18.9861 4.57465 1.61094 0
M  V30 197 H 14.8651 3.82142 2.57854 0
M  V30 198 H 18.4091 6.90119 1.01891 0
M  V30 199 H 14.3061 6.14022 1.99117 0
M  V30 200 H 15.0741 8.08613 1.26832 0
M  V30 201 N 17.7372 -0.778329 1.37039 0
M  V30 202 C 18.6472 -1.92253 1.34446 0
M  V30 203 C 19.6632 -1.72267 0.244991 0
M  V30 204 O 20.8392 -1.95615 0.479258 0
M  V30 205 C 17.9042 -3.27282 1.144 0
M  V30 206 C 16.9652 -3.59969 2.33925 0
M  V30 207 C 16.1982 -4.88555 2.14825 0
M  V30 208 O 16.4212 -5.59113 1.12912 0
M  V30 209 O 15.3552 -5.20153 3.02861 0
M  V30 210 H 19.1812 -1.97392 2.30803 0
M  V30 211 H 16.7662 -0.920154 1.17701 0
M  V30 212 H 18.6482 -4.08062 1.05182 0
M  V30 213 H 17.3232 -3.23011 0.211124 0
M  V30 214 H 16.2302 -2.7945 2.48714 0
M  V30 215 H 17.5632 -3.68976 3.25757 0
M  V30 216 N 19.2153 -1.21501 -1.00376 0
M  V30 217 C 20.1453 -0.999478 -2.11028 0
M  V30 218 C 21.1263 0.0759671 -1.6993 0
M  V30 219 O 22.3113 -0.0841106 -1.94018 0
M  V30 220 C 19.4413 -0.564709 -3.42678 0
M  V30 221 C 18.3953 -1.58486 -3.97576 0
M  V30 222 C 17.7213 -1.00628 -5.25146 0
M  V30 223 C 19.0213 -2.97204 -4.29496 0
M  V30 224 H 20.7153 -1.92495 -2.29317 0
M  V30 225 H 18.2613 -0.92693 -1.102 0
M  V30 226 H 20.2143 -0.401091 -4.19487 0
M  V30 227 H 18.9383 0.396411 -3.24185 0
M  V30 228 H 17.5973 -1.73606 -3.22888 0
M  V30 229 H 17.2453 -0.0368439 -5.02987 0
M  V30 230 H 16.9453 -1.68771 -5.62841 0
M  V30 231 H 18.4693 -0.854015 -6.04598 0
M  V30 232 H 19.8833 -2.8552 -4.97143 0
M  V30 233 H 18.2803 -3.62372 -4.78338 0
M  V30 234 H 19.3503 -3.47956 -3.3772 0
M  V30 235 N 20.6934 1.19889 -1.02296 0
M  V30 236 C 21.9414 1.89046 -0.714558 0
M  V30 237 C 22.2624 1.79636 0.758681 0
M  V30 238 O 21.5324 1.20292 1.54618 0
M  V30 239 H 20.1124 0.699802 -0.261317 0
M  V30 240 H 22.7744 1.45574 -1.29592 0
M  V30 241 H 21.8704 2.95524 -1.0036 0
M  V30 242 N 22.1715 0.800033 1.35784 0
M  V30 243 C 23.3965 0.388511 2.03729 0
M  V30 244 C 23.8215 -0.990481 1.5991 0
M  V30 245 O 23.1795 -1.64013 0.772612 0
M  V30 246 C 23.2275 0.4726 3.5749 0
M  V30 247 O 22.3315 -0.51646 4.09153 0
M  V30 248 H 21.6725 0.163271 0.643614 0
M  V30 249 H 24.2025 1.0841 1.73518 0
M  V30 250 H 24.2125 0.34003 4.06581 0
M  V30 251 H 22.8875 1.47848 3.88734 0
M  V30 252 H 21.4645 -0.344673 3.71304 0
M  V30 253 N 23.6496 -1.47581 0.552962 0
M  V30 254 C 24.5796 -2.32762 -0.185451 0
M  V30 255 C 25.5606 -1.43527 -0.912905 0
M  V30 256 O 26.7456 -1.72388 -0.894201 0
M  V30 257 C 23.8756 -3.25219 -1.21859 0
M  V30 258 C 22.8296 -4.23661 -0.607864 0
M  V30 259 C 22.1556 -5.05413 -1.74533 0
M  V30 260 C 23.4556 -5.20481 0.435582 0
M  V30 261 H 25.1496 -2.94749 0.525684 0
M  V30 262 H 22.6956 -1.41738 0.254251 0
M  V30 263 H 24.6486 -3.8365 -1.7433 0
M  V30 264 H 23.3726 -2.61279 -1.95961 0
M  V30 265 H 22.0316 -3.66451 -0.104489 0
M  V30 266 H 21.6796 -4.3788 -2.47529 0
M  V30 267 H 21.3796 -5.72059 -1.34249 0
M  V30 268 H 22.9036 -5.66701 -2.27338 0
M  V30 269 H 24.3176 -5.733 -0.00290157 0
M  V30 270 H 22.7146 -5.95305 0.757067 0
M  V30 271 H 23.7846 -4.66217 1.33303 0
M  V30 272 N 25.1277 -0.289203 -1.54924 0
M  V30 273 C 26.0597 0.625583 -2.20497 0
M  V30 274 C 27.0727 1.10667 -1.19402 0
M  V30 275 O 28.2617 1.02615 -1.46056 0
M  V30 276 C 25.3617 1.86702 -2.82835 0
M  V30 277 C 24.5347 1.5304 -4.09753 0
M  V30 278 C 23.5937 2.62576 -4.56005 0
M  V30 279 O 22.6197 2.28167 -5.21468 0
M  V30 280 N 23.8217 3.92901 -4.27328 0
M  V30 281 H 26.5867 0.0642801 -2.99631 0
M  V30 282 H 24.1477 -0.110896 -1.6152 0
M  V30 283 H 26.1397 2.59304 -3.10715 0
M  V30 284 H 24.7097 2.33702 -2.07611 0
M  V30 285 H 23.9297 0.637564 -3.8901 0
M  V30 286 H 25.2177 1.28072 -4.92418 0
M  V30 287 H 24.6157 4.23671 -3.74859 0
M  V30 288 H 23.1727 4.61837 -4.59946 0
M  V30 289 N 26.6058 1.57591 -0.0167156 0
M  V30 290 C 27.5688 2.08393 0.954204 0
M  V30 291 C 28.5688 0.996531 1.26198 0
M  V30 292 O 29.7588 1.25858 1.20438 0
M  V30 293 C 26.8908 2.5394 2.27436 0
M  V30 294 H 28.0838 2.95455 0.514451 0
M  V30 295 H 25.6368 1.54582 0.231089 0
M  V30 296 H 26.3718 1.70171 2.76066 0
M  V30 297 H 26.1568 3.33371 2.06412 0
M  V30 298 H 27.6468 2.93512 2.97053 0
M  V30 299 N 28.0839 -0.256276 1.55502 0
M  V30 300 C 28.9939 -1.33882 1.92647 0
M  V30 301 C 30.0099 -1.53159 0.825727 0
M  V30 302 O 31.1859 -1.66963 1.12629 0
M  V30 303 C 28.2509 -2.6751 2.20543 0
M  V30 304 C 27.3119 -2.56836 3.43997 0
M  V30 305 C 26.5449 -3.84092 3.70553 0
M  V30 306 O 26.7679 -4.85545 2.99336 0
M  V30 307 O 25.7019 -3.83288 4.64084 0
M  V30 308 H 29.5279 -1.05374 2.84833 0
M  V30 309 H 27.1129 -0.456237 1.42263 0
M  V30 310 H 28.9949 -3.46492 2.39835 0
M  V30 311 H 27.6699 -2.9577 1.31536 0
M  V30 312 H 26.5769 -1.76172 3.30021 0
M  V30 313 H 27.9099 -2.33523 4.33275 0
M  V30 314 N 29.562 -1.4872 -0.521534 0
M  V30 315 C 30.839 -1.4766 -1.2828 0
M  V30 316 C 31.219 -0.19292 -2.10217 0
M  V30 317 O 30.567 0.825193 -2.13079 0
M  V30 318 C 30.777 -2.74358 -2.15705 0
M  V30 319 C 32.125 -3.23028 -2.75569 0
M  V30 320 O 33.149 -2.75333 -2.25987 0
M  V30 321 O 32.008 -4.0604 -3.65778 0
M  V30 322 H 29.102 -0.590085 -0.579421 0
M  V30 323 H 31.648 -1.60963 -0.537492 0
M  V30 324 H 30.42 -3.59292 -1.54999 0
M  V30 325 H 30.043 -2.63816 -2.97467 0
M  V30 326 N 31.0401 0.771051 -1.3745 0
M  V30 327 C 31.9501 1.91538 -1.35464 0
M  V30 328 C 32.9661 1.72134 -0.254123 0
M  V30 329 O 34.1421 1.95358 -0.489626 0
M  V30 330 C 31.2071 3.26671 -1.16134 0
M  V30 331 C 30.2681 3.58723 -2.35831 0
M  V30 332 C 29.5011 4.87409 -2.17413 0
M  V30 333 O 29.7241 5.58506 -1.15876 0
M  V30 334 O 28.6581 5.18539 -3.05615 0
M  V30 335 H 32.4841 1.96165 -2.31847 0
M  V30 336 H 30.0691 0.9139 -1.18187 0
M  V30 337 H 31.9511 4.07499 -1.07345 0
M  V30 338 H 30.6261 3.22894 -0.228251 0
M  V30 339 H 29.5331 2.78127 -2.50192 0
M  V30 340 H 30.8661 3.67243 -3.27709 0
M  V30 341 N 32.5182 1.22032 0.997298 0
M  V30 342 C 33.4812 0.987909 2.06816 0
M  V30 343 C 34.4812 -0.0440084 1.6074 0
M  V30 344 O 35.6712 0.194053 1.73116 0
M  V30 345 C 32.8032 0.49132 3.37341 0
M  V30 346 H 33.9962 1.93803 2.28868 0
M  V30 347 H 31.5492 1.03838 1.16822 0
M  V30 348 H 32.2842 -0.463364 3.20973 0
M  V30 349 H 32.0692 1.23575 3.72118 0
M  V30 350 H 33.5592 0.348824 4.16141 0
M  V30 351 N 33.9963 -1.19345 1.0293 0
M  V30 352 C 34.9443 -2.24621 0.604001 0
M  V30 353 C 35.9383 -1.65452 -0.363587 0
M  V30 354 O 37.1443 -1.78497 -0.23212 0
M  V30 355 H 33.5193 -0.730858 0.177061 0
M  V30 356 H 35.4903 -2.5781 1.50255 0
M  V30 357 C 34.2393 -3.47688 -0.0289127 0
M  V30 358 H 33.5623 -3.93505 0.706651 0
M  V30 359 H 35.0023 -4.23011 -0.289432 0
M  V30 360 C 33.4613 -3.11817 -1.2756 0
M  V30 361 O 33.9913 -3.2451 -2.36762 0
M  V30 362 N 32.1973 -2.66246 -1.16453 0
M  V30 363 H 31.7443 -2.56118 -0.275914 0
M  V30 364 H 31.7023 -2.42617 -1.99961 0
M  V30 365 N 35.4744 -0.807222 -1.35358 0
M  V30 366 C 36.4064 -0.175717 -2.28525 0
M  V30 367 C 37.4194 0.625354 -1.5031 0
M  V30 368 O 38.6084 0.457611 -1.72535 0
M  V30 369 C 35.7084 0.773471 -3.29956 0
M  V30 370 C 34.8814 0.0186296 -4.37396 0
M  V30 371 C 33.9404 0.886395 -5.18681 0
M  V30 372 O 32.9664 0.337106 -5.68201 0
M  V30 373 N 34.1684 2.20839 -5.36852 0
M  V30 374 H 36.9334 -0.976091 -2.83359 0
M  V30 375 H 34.4944 -0.662737 -1.47714 0
M  V30 376 H 36.4864 1.35824 -3.81227 0
M  V30 377 H 35.0564 1.47465 -2.75632 0
M  V30 378 H 34.2764 -0.747349 -3.87051 0
M  V30 379 H 35.5644 -0.501577 -5.06322 0
M  V30 380 H 34.9624 2.67858 -4.98265 0
M  V30 381 H 33.5194 2.74237 -5.91301 0
M  V30 382 N 36.9525 1.47285 -0.560781 0
M  V30 383 C 38.3635 1.86258 -0.128343 0
M  V30 384 C 38.7145 1.46699 1.30284 0
M  V30 385 O 37.8395 0.871698 1.98067 0
M  V30 386 C 38.4345 3.38044 -0.22614 0
M  V30 387 C 36.9935 3.76096 0.151283 0
M  V30 388 C 36.1405 2.71335 -0.572084 0
M  V30 389 H 39.0915 1.38752 -0.770297 0
M  V30 390 H 39.1125 3.76441 0.554322 0
M  V30 391 H 38.6245 3.66806 -1.26788 0
M  V30 392 H 36.7255 3.52951 1.19399 0
M  V30 393 H 36.8385 4.78641 -0.209765 0
M  V30 394 H 35.2025 2.54696 -0.0147653 0
M  V30 395 H 35.9855 3.02938 -1.61504 0
M  V30 396 N 38.4306 0.297415 1.54768 0
M  V30 397 C 39.6776 -0.312913 2.00068 0
M  V30 398 C 40.0056 -1.54171 1.18582 0
M  V30 399 O 39.2606 -1.94108 0.249133 0
M  V30 400 C 39.5596 -0.717561 3.50123 0
M  V30 401 C 39.2256 0.409095 4.4904 0
M  V30 402 C 37.8876 0.718399 4.75807 0
M  V30 403 C 40.2396 1.16717 5.07963 0
M  V30 404 C 37.5676 1.78896 5.5876 0
M  V30 405 C 39.9196 2.22762 5.92081 0
M  V30 406 C 38.5836 2.54303 6.1716 0
M  V30 407 H 37.8536 -0.114503 0.7321 0
M  V30 408 H 40.5006 0.415767 1.86932 0
M  V30 409 H 38.8056 -1.52627 3.60849 0
M  V30 410 H 40.5026 -1.20091 3.82595 0
M  V30 411 H 37.0926 0.157918 4.28309 0
M  V30 412 H 41.2766 0.941466 4.87289 0
M  V30 413 H 36.5326 2.0381 5.7643 0
M  V30 414 H 40.7066 2.81962 6.36765 0
M  V30 415 H 38.3336 3.3739 6.81229 0
M  V30 416 N 39.9087 -1.5758 0.0250728 0
M  V30 417 C 41.1487 -1.93497 -0.65865 0
M  V30 418 C 41.5127 -0.901409 -1.69525 0
M  V30 419 O 42.7137 -1.14664 -2.43116 0
M  V30 420 C 40.9847 -3.34352 -1.26267 0
M  V30 421 S 42.5437 -3.92191 -1.96803 0
M  V30 422 H 39.3617 -0.67709 -0.216958 0
M  V30 423 H 41.9637 -1.95303 0.0877692 0
M  V30 424 H 40.6677 -4.07395 -0.495741 0
M  V30 425 H 40.1987 -3.3598 -2.04648 0
M  V30 426 H 42.2137 -3.75298 -3.24601 0
M  V30 427 N 41.3868 0.248026 -1.55636 0
M  V30 428 C 42.3498 1.29044 -1.89421 0
M  V30 429 C 43.3498 1.41134 -0.770581 0
M  V30 430 O 44.5398 1.39854 -1.03858 0
M  V30 431 C 41.6718 2.66831 -2.12165 0
M  V30 432 H 42.8648 1.00305 -2.82629 0
M  V30 433 H 40.4178 0.487265 -1.48511 0
M  V30 434 H 41.1528 3.00711 -1.21422 0
M  V30 435 H 40.9378 2.59438 -2.93997 0
M  V30 436 H 42.4278 3.42103 -2.3949 0
M  V30 437 N 42.8649 1.48995 0.513639 0
M  V30 438 C 44.1109 1.58076 1.27042 0
M  V30 439 C 44.4439 0.261026 1.92438 0
M  V30 440 O 43.7189 -0.734393 1.80103 0
M  V30 441 C 44.0019 2.73091 2.34719 0
M  V30 442 C 43.8549 4.14821 1.73907 0
M  V30 443 C 45.1739 2.83796 3.36375 0
M  V30 444 H 42.2929 0.575391 0.460536 0
M  V30 445 H 44.9349 1.81232 0.570516 0
M  V30 446 H 43.0849 2.53479 2.94416 0
M  V30 447 H 44.7569 4.45917 1.18135 0
M  V30 448 H 42.9999 4.21058 1.0437 0
M  V30 449 H 43.6709 4.91147 2.51949 0
M  V30 450 H 46.1469 3.01611 2.86653 0
M  V30 451 H 45.0229 3.65971 4.09093 0
M  V30 452 H 45.2839 1.92624 3.9793 0
M  V30 453 N 44.343 -0.763751 1.37857 0
M  V30 454 C 45.29 -1.87726 1.34267 0
M  V30 455 C 46.26 -1.64807 0.206879 0
M  V30 456 O 47.445 -1.86613 0.397508 0
M  V30 457 C 44.585 -3.24896 1.16346 0
M  V30 458 C 43.698 -3.59716 2.39225 0
M  V30 459 C 42.833 -4.86137 2.14114 0
M  V30 460 C 41.872 -5.13711 3.32817 0
M  V30 461 N 41.009 -6.31323 3.07206 0
M  V30 462 H 45.849 -1.90129 2.29466 0
M  V30 463 H 43.386 -0.929433 1.14017 0
M  V30 464 H 45.344 -4.04036 1.03975 0
M  V30 465 H 43.974 -3.21847 0.247909 0
M  V30 466 H 43.026 -2.75498 2.62307 0
M  V30 467 H 44.338 -3.76027 3.27728 0
M  V30 468 H 43.492 -5.73198 1.9882 0
M  V30 469 H 42.231 -4.71945 1.22961 0
M  V30 470 H 41.236 -4.25123 3.48641 0
M  V30 471 H 42.461 -5.29807 4.24832 0
M  V30 472 H 40.407 -6.18474 2.1869 0
M  V30 473 H 40.324 -6.48087 3.89254 0
M  V30 474 H 41.592 -7.213 2.95546 0
M  V30 475 N 45.8211 -1.22559 -0.990812 0
M  V30 476 C 46.7541 -0.940773 -2.07905 0
M  V30 477 C 47.7321 0.117082 -1.62178 0
M  V30 478 O 48.9161 -0.0149506 -1.88494 0
M  V30 479 C 46.0431 -0.415321 -3.36144 0
M  V30 480 C 45.0891 -1.45818 -4.00799 0
M  V30 481 S 45.9221 -3.03219 -4.41382 0
M  V30 482 C 47.0781 -2.52317 -5.72789 0
M  V30 483 H 47.3111 -1.8623 -2.31745 0
M  V30 484 H 44.8441 -1.05688 -1.12558 0
M  V30 485 H 46.8021 -0.118747 -4.10328 0
M  V30 486 H 45.4631 0.485121 -3.10331 0
M  V30 487 H 44.6561 -1.04044 -4.93144 0
M  V30 488 H 44.2581 -1.70356 -3.32949 0
M  V30 489 H 46.5501 -1.93688 -6.49224 0
M  V30 490 H 47.4931 -3.43161 -6.19392 0
M  V30 491 H 47.9011 -1.93529 -5.30289 0
M  V30 492 N 47.2992 1.18797 -1.03562 0
M  V30 493 C 48.2462 2.22253 -0.622259 0
M  V30 494 C 49.2162 1.61987 0.36736 0
M  V30 495 O 50.4012 1.88986 0.262492 0
M  V30 496 C 47.5412 3.45097 0.0138462 0
M  V30 497 C 46.6542 4.19722 -1.02263 0
M  V30 498 C 45.7892 5.30009 -0.355573 0
M  V30 499 C 44.8282 5.96399 -1.37749 0
M  V30 500 N 43.9652 6.98234 -0.735766 0
M  V30 501 H 48.8052 2.56968 -1.50903 0
M  V30 502 H 46.3422 1.26245 -0.755017 0
M  V30 503 H 48.3002 4.15279 0.399948 0
M  V30 504 H 46.9302 3.11018 0.864158 0
M  V30 505 H 45.9822 3.48418 -1.52673 0
M  V30 506 H 47.2942 4.65227 -1.79903 0
M  V30 507 H 46.4482 6.0664 0.0850095 0
M  V30 508 H 45.1872 4.85592 0.452967 0
M  V30 509 H 44.1922 5.18512 -1.82826 0
M  V30 510 H 45.4172 6.42899 -2.18764 0
M  V30 511 H 43.3632 6.55979 0.0525597 0
M  V30 512 H 43.2802 7.41965 -1.44995 0
M  V30 513 H 44.5482 7.78845 -0.31941 0
M  V30 514 N 48.7773 0.814389 1.34928 0
M  V30 515 C 49.6873 0.231978 2.3345 0
M  V30 516 C 50.7033 -0.629139 1.62228 0
M  V30 517 O 51.8793 -0.539052 1.94052 0
M  V30 518 C 48.9443 -0.603482 3.41407 0
M  V30 519 C 48.0053 0.279037 4.28392 0
M  V30 520 C 47.2383 -0.516643 5.31193 0
M  V30 521 O 47.4613 -1.75068 5.4287 0
M  V30 522 O 46.3953 0.0965652 6.01823 0
M  V30 523 H 50.2213 1.04721 2.85074 0
M  V30 524 H 47.8063 0.576343 1.37836 0
M  V30 525 H 49.6883 -1.07908 4.0735 0
M  V30 526 H 48.3633 -1.39618 2.92042 0
M  V30 527 H 47.2703 0.801948 3.65403 0
M  V30 528 H 48.6033 1.03588 4.81176 0
M  V30 529 N 50.2554 -1.46986 0.568584 0
M  V30 530 C 51.2184 -2.28624 -0.162366 0
M  V30 531 C 52.2184 -1.37596 -0.832103 0
M  V30 532 O 53.4084 -1.60115 -0.68622 0
M  V30 533 C 50.5404 -3.17596 -1.23878 0
M  V30 534 H 51.7334 -2.94722 0.554899 0
M  V30 535 H 49.2864 -1.52863 0.325976 0
M  V30 536 H 50.0214 -2.56214 -1.98808 0
M  V30 537 H 49.8064 -3.846 -0.763219 0
M  V30 538 H 51.2964 -3.79078 -1.75185 0
M  V30 539 N 51.7335 -0.305618 -1.54608 0
M  V30 540 C 52.6635 0.561482 -2.26649 0
M  V30 541 C 53.6445 1.13415 -1.26772 0
M  V30 542 O 54.8295 1.16262 -1.55553 0
M  V30 543 C 51.9595 1.73122 -3.01075 0
M  V30 544 C 50.9135 1.2887 -4.08138 0
M  V30 545 C 50.2395 2.54396 -4.70305 0
M  V30 546 C 51.5395 0.416578 -5.20636 0
M  V30 547 H 53.2335 -0.0393902 -2.99374 0
M  V30 548 H 50.7795 -0.020385 -1.43986 0
M  V30 549 H 52.7325 2.34396 -3.50195 0
M  V30 550 H 51.4565 2.3584 -2.25936 0
M  V30 551 H 50.1155 0.698991 -3.59875 0
M  V30 552 H 49.7635 3.15439 -3.918 0
M  V30 553 H 49.4635 2.25486 -5.42614 0
M  V30 554 H 50.9875 3.16464 -5.2219 0
M  V30 555 H 52.4015 0.935116 -5.65622 0
M  V30 556 H 50.7985 0.221046 -5.99693 0
M  V30 557 H 51.8685 -0.557162 -4.81688 0
M  V30 558 N 53.2116 1.57565 -0.0334293 0
M  V30 559 C 54.4366 1.96689 0.657895 0
M  V30 560 C 54.8616 0.910057 1.64619 0
M  V30 561 O 54.2196 -0.128598 1.80843 0
M  V30 562 C 54.2676 3.34905 1.33683 0
M  V30 563 O 53.3716 3.31574 2.45219 0
M  V30 564 H 52.7126 0.641205 0.172489 0
M  V30 565 H 55.2426 2.04372 -0.0965621 0
M  V30 566 H 55.2526 3.71234 1.69262 0
M  V30 567 H 53.9276 4.11366 0.612411 0
M  V30 568 H 52.5046 3.06968 2.11719 0
M  V30 569 N 54.6897 -0.239769 1.55765 0
M  V30 570 C 55.9177 -0.98417 1.81994 0
M  V30 571 C 56.3327 -1.7867 0.610124 0
M  V30 572 O 55.6897 -1.77571 -0.421271 0
M  V30 573 C 55.7407 -1.91635 3.06526 0
M  V30 574 O 55.4617 -1.14629 4.22838 0
M  V30 575 C 56.9627 -2.77616 3.45607 0
M  V30 576 H 54.1827 -0.28928 0.605441 0
M  V30 577 H 56.7267 -0.260499 2.02834 0
M  V30 578 H 54.8817 -2.5942 2.87715 0
M  V30 579 H 55.2957 -1.77745 4.93464 0
M  V30 580 H 56.7697 -3.38759 4.35828 0
M  V30 581 H 57.2467 -3.4909 2.6652 0
M  V30 582 H 57.8527 -2.15271 3.66795 0
M  V30 583 N 56.1678 -1.49265 -0.50573 0
M  V30 584 C 57.0778 -1.68312 -1.63427 0
M  V30 585 C 58.0938 -0.565682 -1.64548 0
M  V30 586 O 59.2698 -0.839801 -1.83055 0
M  V30 587 C 56.3348 -1.74107 -2.99813 0
M  V30 588 C 55.3958 -2.97653 -3.09356 0
M  V30 589 C 54.6288 -3.03163 -4.39236 0
M  V30 590 O 54.8518 -2.16396 -5.27758 0
M  V30 591 O 53.7858 -3.9558 -4.53652 0
M  V30 592 H 57.6118 -2.63907 -1.50289 0
M  V30 593 H 55.1968 -1.32951 -0.681502 0
M  V30 594 H 57.0788 -1.803 -3.80881 0
M  V30 595 H 55.7538 -0.816901 -3.13223 0
M  V30 596 H 54.6608 -2.96981 -2.27493 0
M  V30 597 H 55.9938 -3.89535 -3.00871 0
M  V30 598 N 57.6459 0.756429 -1.3826 0
M  V30 599 C 59.0619 1.0591 -1.19395 0
M  V30 600 C 59.2619 2.01459 -0.0406567 0
M  V30 601 O 58.3179 2.44909 0.614467 0
M  V30 602 C 59.6309 1.64191 -2.51916 0
M  V30 603 C 61.1789 1.76376 -2.58574 0
M  V30 604 C 61.6539 2.38069 -3.91264 0
M  V30 605 N 63.1449 2.45503 -3.92788 0
M  V30 606 C 63.8799 2.94126 -4.92217 0
M  V30 607 N 63.3759 3.42805 -6.02043 0
M  V30 608 N 65.1689 2.9314 -4.7961 0
M  V30 609 H 57.3199 0.122313 -2.12048 0
M  V30 610 H 59.5829 0.116892 -0.940766 0
M  V30 611 H 59.2889 1.01451 -3.3675 0
M  V30 612 H 59.1629 2.6329 -2.70108 0
M  V30 613 H 61.5499 2.38244 -1.74137 0
M  V30 614 H 61.6309 0.759894 -2.44252 0
M  V30 615 H 61.2749 1.76835 -4.76121 0
M  V30 616 H 61.2049 3.39091 -4.02895 0
M  V30 617 H 63.6959 2.1107 -3.13461 0
M  V30 618 H 64.0089 3.78354 -6.73846 0
M  V30 619 H 62.3539 3.4087 -6.05667 0
M  V30 620 H 65.5449 2.54419 -3.92923 0
M  V30 621 H 65.7179 3.30721 -5.5725 0
M  V30 622 N 59.124 1.23083 0.984299 0
M  V30 623 C 60.372 1.05848 1.72165 0
M  V30 624 C 60.693 -0.406049 1.90726 0
M  V30 625 O 59.963 -1.29139 1.47309 0
M  V30 626 H 58.543 0.388685 0.637913 0
M  V30 627 H 61.205 1.54736 1.18503 0
M  V30 628 H 60.301 1.54327 2.71274 0
M  V30 629 N 60.6021 -1.18246 1.0419 0
M  V30 630 C 61.5491 -2.2192 0.634037 0
M  V30 631 C 62.5191 -1.62179 -0.358765 0
M  V30 632 O 63.7041 -1.89122 -0.252466 0
M  V30 633 C 60.8441 -3.451 0.00445535 0
M  V30 634 C 59.9571 -4.19174 1.04487 0
M  V30 635 C 59.0921 -5.29813 0.383676 0
M  V30 636 C 58.1311 -5.9566 1.4091 0
M  V30 637 N 57.2681 -6.97834 0.772784 0
M  V30 638 H 62.1081 -2.56164 1.52263 0
M  V30 639 H 59.6451 -1.25843 0.761701 0
M  V30 640 H 61.6031 -4.15485 -0.377919 0
M  V30 641 H 60.2331 -3.11472 -0.847652 0
M  V30 642 H 59.2851 -3.47604 1.54518 0
M  V30 643 H 60.5971 -4.64267 1.82368 0
M  V30 644 H 59.7511 -6.06677 -0.0528366 0
M  V30 645 H 58.4901 -4.85825 -0.427208 0
M  V30 646 H 57.4951 -5.17535 1.85574 0
M  V30 647 H 58.7201 -6.4173 2.22171 0
M  V30 648 H 56.6661 -6.55998 -0.0177708 0
M  V30 649 H 56.5831 -7.41186 1.48928 0
M  V30 650 H 57.8511 -7.78665 0.36071 0
M  V30 651 N 62.0802 -0.821533 -1.34494 0
M  V30 652 C 63.3082 -0.421884 -2.02553 0
M  V30 653 C 63.7232 0.971745 -1.61872 0
M  V30 654 O 63.0802 1.62864 -0.823496 0
M  V30 655 C 63.1312 -0.51285 -3.57844 0
M  V30 656 O 62.8522 -1.85155 -3.97051 0
M  V30 657 C 64.3532 -0.107921 -4.43169 0
M  V30 658 H 61.5732 -0.169482 -0.649243 0
M  V30 659 H 64.1172 -1.1093 -1.71798 0
M  V30 660 H 62.2722 0.126474 -3.87193 0
M  V30 661 H 62.6862 -1.82482 -4.91732 0
M  V30 662 H 64.1602 -0.222657 -5.51551 0
M  V30 663 H 64.6372 0.948401 -4.28838 0
M  V30 664 H 65.2432 -0.720989 -4.19144 0
M  V30 665 N 63.5583 1.46682 -0.576371 0
M  V30 666 C 64.4883 2.33028 0.148397 0
M  V30 667 C 65.4693 1.44961 0.889956 0
M  V30 668 O 66.6543 1.73789 0.866662 0
M  V30 669 C 63.7843 3.27117 1.1667 0
M  V30 670 C 62.7383 4.24575 0.540386 0
M  V30 671 C 62.0643 5.08126 1.6647 0
M  V30 672 C 63.3643 5.19722 -0.518331 0
M  V30 673 H 65.0583 2.93875 -0.572509 0
M  V30 674 H 62.6043 1.41315 -0.276768 0
M  V30 675 H 64.5573 3.86374 1.68204 0
M  V30 676 H 63.2813 2.64364 1.9178 0
M  V30 677 H 61.9403 3.66571 0.0461769 0
M  V30 678 H 61.5883 4.41762 2.40531 0
M  V30 679 H 61.2883 5.74122 1.25131 0
M  V30 680 H 62.8123 5.70246 2.18293 0
M  V30 681 H 64.2263 5.73232 -0.0883058 0
M  V30 682 H 62.6233 5.94026 -0.851679 0
M  V30 683 H 63.6933 4.64037 -1.40703 0
M  V30 684 N 65.0364 0.313813 1.54444 0
M  V30 685 C 66.2824 -0.292108 2.00685 0
M  V30 686 C 66.6154 -1.52548 1.20177 0
M  V30 687 O 65.8904 -1.92452 0.281531 0
M  V30 688 C 66.1734 -0.635968 3.5444 0
M  V30 689 C 66.0264 0.607437 4.4568 0
M  V30 690 C 67.3454 -1.45747 4.15266 0
M  V30 691 H 64.4644 -0.104697 0.729526 0
M  V30 692 H 67.1064 0.428457 1.85106 0
M  V30 693 H 65.2564 -1.24986 3.67846 0
M  V30 694 H 66.9284 1.24581 4.44159 0
M  V30 695 H 65.1714 1.23822 4.15753 0
M  V30 696 H 65.8424 0.322515 5.51057 0
M  V30 697 H 68.3184 -0.938645 4.05375 0
M  V30 698 H 67.1944 -1.66683 5.2298 0
M  V30 699 H 67.4554 -2.45063 3.67963 0
M  V30 700 N 66.5145 -1.57545 0.0417849 0
M  V30 701 C 67.4465 -2.07904 -0.964799 0
M  V30 702 C 68.4595 -1.00497 -1.28079 0
M  V30 703 O 69.6485 -1.28087 -1.24322 0
M  V30 704 C 66.7485 -2.49928 -2.28887 0
M  V30 705 C 65.9215 -3.80562 -2.15619 0
M  V30 706 C 64.9805 -4.08999 -3.31069 0
M  V30 707 O 64.0065 -4.79061 -3.0739 0
M  V30 708 N 65.2085 -3.6017 -4.55256 0
M  V30 709 H 67.9735 -2.94886 -0.535029 0
M  V30 710 H 65.5345 -1.61252 -0.144681 0
M  V30 711 H 67.5265 -2.66034 -3.04972 0
M  V30 712 H 66.0965 -1.68245 -2.63463 0
M  V30 713 H 65.3165 -3.74129 -1.24183 0
M  V30 714 H 66.6045 -4.66126 -2.03971 0
M  V30 715 H 66.0025 -3.03512 -4.77386 0
M  V30 716 H 64.5595 -3.81532 -5.28466 0
M  V30 717 N 67.9926 0.231505 -1.5589 0
M  V30 718 C 68.9396 1.28682 -1.91598 0
M  V30 719 C 69.9096 1.47071 -0.771974 0
M  V30 720 O 71.0946 1.60802 -1.027 0
M  V30 721 C 68.2346 2.6342 -2.22944 0
M  V30 722 C 67.3476 2.52912 -3.50228 0
M  V30 723 C 66.4826 3.80106 -3.7107 0
M  V30 724 C 65.5216 3.64279 -4.91902 0
M  V30 725 N 64.6586 4.834 -5.09184 0
M  V30 726 H 69.4986 0.975305 -2.81588 0
M  V30 727 H 67.0356 0.470299 -1.39379 0
M  V30 728 H 68.9936 3.41869 -2.39126 0
M  V30 729 H 67.6236 2.92687 -1.36139 0
M  V30 730 H 66.6756 1.6595 -3.42294 0
M  V30 731 H 67.9876 2.37133 -4.38827 0
M  V30 732 H 67.1416 4.66999 -3.87295 0
M  V30 733 H 65.8806 3.98799 -2.80733 0
M  V30 734 H 64.8856 2.7577 -4.75637 0
M  V30 735 H 66.1106 3.47067 -5.83714 0
M  V30 736 H 64.0566 5.02425 -4.21788 0
M  V30 737 H 63.9736 4.70311 -5.91898 0
M  V30 738 H 65.2416 5.71747 -5.29835 0
M  V30 739 N 69.4707 1.49531 0.497807 0
M  V30 740 C 70.4177 1.66436 1.59899 0
M  V30 741 C 71.3877 0.505793 1.58212 0
M  V30 742 O 72.5727 0.733202 1.7615 0
M  V30 743 C 69.7127 1.7399 2.98029 0
M  V30 744 C 68.8257 3.01172 3.09708 0
M  V30 745 C 67.9607 2.99686 4.38591 0
M  V30 746 C 66.9997 4.21434 4.43914 0
M  V30 747 N 66.1367 4.1784 5.64229 0
M  V30 748 H 70.9767 2.60459 1.44793 0
M  V30 749 H 68.5137 1.29137 0.704423 0
M  V30 750 H 70.4717 1.76352 3.78095 0
M  V30 751 H 69.1017 0.834301 3.11832 0
M  V30 752 H 68.1537 3.08408 2.22685 0
M  V30 753 H 69.4657 3.91165 3.09502 0
M  V30 754 H 68.6197 3.00628 5.2698 0
M  V30 755 H 67.3587 2.07477 4.41367 0
M  V30 756 H 66.3637 4.20733 3.53926 0
M  V30 757 H 67.5887 5.14839 4.42851 0
M  V30 758 H 65.5347 3.28469 5.67841 0
M  V30 759 H 65.4517 5.01571 5.65652 0
M  V30 760 H 66.7197 4.22889 6.54817 0
M  V30 761 N 70.9488 -0.749086 1.3866 0
M  V30 762 C 72.3598 -1.32664 1.31366 0
M  V30 763 C 72.7108 -1.96179 -0.028484 0
M  V30 764 O 71.8358 -1.9537 -0.93057 0
M  V30 765 C 72.4308 -2.41219 2.37905 0
M  V30 766 C 70.9898 -2.94684 2.34176 0
M  V30 767 C 70.1368 -1.68108 2.20533 0
M  V30 768 H 73.0878 -0.547628 1.48952 0
M  V30 769 H 73.1088 -3.21268 2.0388 0
M  V30 770 H 72.6208 -1.94962 3.35576 0
M  V30 771 H 70.7218 -3.45258 1.401 0
M  V30 772 H 70.8348 -3.48757 3.2849 0
M  V30 773 H 69.1988 -1.91907 1.67463 0
M  V30 774 H 69.9818 -1.23923 3.20153 0
M  V30 775 N 72.4269 -1.23603 -0.977757 0
M  V30 776 C 73.6549 -1.09646 -1.75458 0
M  V30 777 C 74.0699 0.351859 -1.85492 0
M  V30 778 O 73.4269 1.24327 -1.336 0
M  V30 779 C 73.4779 -1.71895 -3.18016 0
M  V30 780 O 73.1989 -3.11063 -3.08498 0
M  V30 781 C 74.6999 -1.63415 -4.12081 0
M  V30 782 H 71.9199 -0.38359 -0.550545 0
M  V30 783 H 74.4639 -1.63507 -1.22824 0
M  V30 784 H 72.6189 -1.22061 -3.67668 0
M  V30 785 H 73.0329 -3.41305 -3.9826 0
M  V30 786 H 74.5069 -2.11669 -5.09804 0
M  V30 787 H 74.9839 -0.593462 -4.35172 0
M  V30 788 H 75.5899 -2.12628 -3.68334 0
M  V30 789 N 73.905 1.17692 -1.04816 0
M  V30 790 C 74.838 2.20436 -0.590173 0
M  V30 791 C 75.816 1.58115 0.379244 0
M  V30 792 O 77 1.86228 0.291762 0
M  V30 793 C 74.127 3.38424 0.136817 0
M  V30 794 C 73.173 4.19176 -0.787023 0
M  V30 795 S 74.006 4.84815 -2.27409 0
M  V30 796 C 75.162 6.06195 -1.55817 0
M  V30 797 H 75.395 2.58944 -1.46067 0
M  V30 798 H 72.928 1.28246 -0.859784 0
M  V30 799 H 74.886 4.06798 0.550076 0
M  V30 800 H 73.547 2.98312 0.983299 0
M  V30 801 H 72.74 5.03499 -0.224681 0
M  V30 802 H 72.342 3.56219 -1.13947 0
M  V30 803 H 74.634 6.72078 -0.855387 0
M  V30 804 H 75.577 6.6695 -2.37873 0
M  V30 805 H 75.985 5.54701 -1.04722 0
M  V30 806 N 75.3831 0.828654 1.34056 0
M  V30 807 C 76.6131 0.431993 2.02033 0
M  V30 808 C 77.0211 -0.96844 1.62536 0
M  V30 809 O 76.3641 -1.6391 0.829408 0
M  V30 810 C 76.4261 0.461224 3.56529 0
M  V30 811 C 76.0901 1.81599 4.1937 0
M  V30 812 C 77.0871 2.7777 4.39477 0
M  V30 813 C 74.7721 2.10604 4.56017 0
M  V30 814 C 76.7661 4.01115 4.95364 0
M  V30 815 C 74.4531 3.34207 5.11614 0
M  V30 816 C 75.4511 4.2928 5.31232 0
M  V30 817 O 75.1391 5.50699 5.8565 0
M  V30 818 H 74.8711 0.170943 0.654029 0
M  V30 819 H 77.4251 1.11988 1.72185 0
M  V30 820 H 75.6551 -0.283388 3.8566 0
M  V30 821 H 77.3441 0.0838149 4.05813 0
M  V30 822 H 78.1101 2.56659 4.11523 0
M  V30 823 H 73.9891 1.37402 4.40047 0
M  V30 824 H 77.5331 4.75333 5.10592 0
M  V30 825 H 73.4301 3.55179 5.38997 0
M  V30 826 H 74.1981 5.52298 6.04077 0
M  V30 827 N 76.8612 -1.46375 0.584142 0
M  V30 828 C 78.2722 -1.86031 0.157959 0
M  V30 829 C 78.6232 -1.48753 -1.27933 0
M  V30 830 O 77.7482 -0.903098 -1.96655 0
M  V30 831 C 78.3432 -3.37642 0.279892 0
M  V30 832 C 76.9022 -3.76289 -0.09143 0
M  V30 833 C 76.0492 -2.7039 0.615178 0
M  V30 834 H 79.0002 -1.37509 0.792274 0
M  V30 835 H 79.0212 -3.77275 -0.494364 0
M  V30 836 H 78.5332 -3.64742 1.32607 0
M  V30 837 H 76.6342 -3.54806 -1.13769 0
M  V30 838 H 76.7472 -4.78246 0.285886 0
M  V30 839 H 75.1112 -2.5464 0.0552833 0
M  V30 840 H 75.8942 -3.0033 1.66303 0
M  V30 841 N 78.3393 -0.321999 -1.54275 0
M  V30 842 C 79.2493 0.553631 -2.27974 0
M  V30 843 C 80.2653 1.13054 -1.32268 0
M  V30 844 O 81.4413 1.15084 -1.6528 0
M  V30 845 C 78.5063 1.69927 -3.02201 0
M  V30 846 C 77.5673 1.15433 -4.1349 0
M  V30 847 C 76.8003 2.24537 -4.84168 0
M  V30 848 O 77.0233 3.44852 -4.5435 0
M  V30 849 O 75.9573 1.90044 -5.7111 0
M  V30 850 H 79.7833 -0.0448345 -3.03667 0
M  V30 851 H 77.3683 -0.0877418 -1.49142 0
M  V30 852 H 79.2503 2.3663 -3.48689 0
M  V30 853 H 77.9253 2.28395 -2.29385 0
M  V30 854 H 76.8323 0.452436 -3.71354 0
M  V30 855 H 78.1653 0.614805 -4.88345 0
M  V30 856 N 79.8174 1.5752 -0.0501392 0
M  V30 857 C 81.0634 1.93755 0.618901 0
M  V30 858 C 81.4184 0.928514 1.68512 0
M  V30 859 O 80.7114 -0.0524613 1.91528 0
M  V30 860 C 80.9054 3.34467 1.25963 0
M  V30 861 C 80.7344 4.48965 0.257 0
M  V30 862 C 79.5044 5.05075 -0.150656 0
M  V30 863 C 81.7024 5.11891 -0.497166 0
M  V30 864 N 79.6844 6.03104 -1.14626 0
M  V30 865 C 81.0554 6.05216 -1.34588 0
M  V30 866 C 83.1104 4.9479 -0.55559 0
M  V30 867 C 81.8134 6.83277 -2.24778 0
M  V30 868 C 83.8394 5.73477 -1.44492 0
M  V30 869 C 83.2014 6.66433 -2.28136 0
M  V30 870 H 79.3004 0.756479 0.198149 0
M  V30 871 H 81.8844 1.94316 -0.122229 0
M  V30 872 H 80.0554 3.34685 1.97079 0
M  V30 873 H 81.7874 3.57994 1.88739 0
M  V30 874 H 78.5424 4.7305 0.228094 0
M  V30 875 H 78.9664 6.56813 -1.64092 0
M  V30 876 H 83.6084 4.2273 0.0768625 0
M  V30 877 H 81.3264 7.54629 -2.89069 0
M  V30 878 H 84.9124 5.62273 -1.49468 0
M  V30 879 H 83.7924 7.26258 -2.95835 0
M  V30 880 N 81.2955 -0.223234 1.56011 0
M  V30 881 C 82.2425 -1.27664 1.92277 0
M  V30 882 C 83.2125 -1.46659 0.779763 0
M  V30 883 O 84.3975 -1.60256 1.03551 0
M  V30 884 C 81.5375 -2.62234 2.24338 0
M  V30 885 C 80.6505 -2.51051 3.51564 0
M  V30 886 C 79.7855 -3.78133 3.7308 0
M  V30 887 C 78.8245 -3.61665 4.93827 0
M  V30 888 N 77.9615 -4.80693 5.11741 0
M  V30 889 H 82.8015 -0.960358 2.82101 0
M  V30 890 H 80.3385 -0.462901 1.39627 0
M  V30 891 H 82.2965 -3.40596 2.40936 0
M  V30 892 H 80.9265 -2.91961 1.3769 0
M  V30 893 H 79.9785 -1.64132 3.43169 0
M  V30 894 H 81.2905 -2.34803 4.40079 0
M  V30 895 H 80.4445 -4.64938 3.89766 0
M  V30 896 H 79.1835 -3.97304 2.82844 0
M  V30 897 H 78.1885 -2.73244 4.77093 0
M  V30 898 H 79.4135 -3.43966 5.85546 0
M  V30 899 H 77.3595 -5.00181 4.24446 0
M  V30 900 H 77.2765 -4.67165 5.94384 0
M  V30 901 H 78.5445 -5.6893 5.3286 0
M  V30 902 N 82.7736 -1.49793 -0.48987 0
M  V30 903 C 83.9986 -1.63836 -1.27172 0
M  V30 904 C 84.4236 -0.31402 -1.8546 0
M  V30 905 O 83.7816 0.719803 -1.66399 0
M  V30 906 C 83.8296 -2.71797 -2.36978 0
M  V30 907 O 82.9336 -2.31744 -3.41128 0
M  V30 908 H 82.2746 -0.547997 -0.37496 0
M  V30 909 H 84.8046 -1.96053 -0.585191 0
M  V30 910 H 84.8146 -2.94305 -2.82575 0
M  V30 911 H 83.4896 -3.67923 -1.93921 0
M  V30 912 H 82.0666 -2.1961 -3.01373 0
M  V30 913 N 84.2517 0.741722 -1.39055 0
M  V30 914 C 85.4797 1.53098 -1.39171 0
M  V30 915 C 85.8947 1.88794 0.0155099 0
M  V30 916 O 85.2517 1.53626 0.985159 0
M  V30 917 C 85.3027 2.82274 -2.2584 0
M  V30 918 O 85.0237 2.48097 -3.61081 0
M  V30 919 C 86.5247 3.76343 -2.34266 0
M  V30 920 H 83.7447 0.473335 -0.4756 0
M  V30 921 H 86.2887 0.917045 -1.82785 0
M  V30 922 H 84.4437 3.40015 -1.85656 0
M  V30 923 H 84.8577 3.31029 -4.06842 0
M  V30 924 H 86.3317 4.63898 -2.9917 0
M  V30 925 H 86.8087 4.17619 -1.35982 0
M  V30 926 H 87.4147 3.24523 -2.74891 0
M  V30 927 N 85.7298 1.2412 0.971189 0
M  V30 928 C 86.9768 1.07881 1.71371 0
M  V30 929 C 87.3048 -0.382901 1.90694 0
M  V30 930 O 86.5598 -1.29945 1.46331 0
M  V30 931 C 86.8588 1.75983 3.11071 0
M  V30 932 C 86.5248 3.25909 3.11599 0
M  V30 933 C 85.1868 3.66813 3.11451 0
M  V30 934 C 87.5388 4.21771 3.062 0
M  V30 935 C 84.8668 5.02021 3.03631 0
M  V30 936 C 87.2188 5.56982 2.99923 0
M  V30 937 C 85.8828 5.97237 2.98102 0
M  V30 938 H 85.1528 0.394764 0.62709 0
M  V30 939 H 87.7998 1.54176 1.13587 0
M  V30 940 H 86.1048 1.22072 3.72298 0
M  V30 941 H 87.8018 1.60887 3.6731 0
M  V30 942 H 84.3918 2.93353 3.12477 0
M  V30 943 H 88.5758 3.91172 3.05447 0
M  V30 944 H 83.8318 5.32411 3.0058 0
M  V30 945 H 88.0058 6.30969 2.94704 0
M  V30 946 H 85.6328 7.01967 2.91798 0
M  V30 947 N 87.2079 -1.17134 1.05439 0
M  V30 948 C 88.4849 -1.83411 0.679699 0
M  V30 949 C 88.8649 -1.9368 -0.839726 0
M  V30 950 O 88.2129 -1.47325 -1.74664 0
M  V30 951 C 88.4229 -3.20918 1.37159 0
M  V30 952 C 89.7709 -3.96796 1.51123 0
M  V30 953 O 90.7949 -3.30406 1.3308 0
M  V30 954 O 89.6539 -5.15778 1.80651 0
M  V30 955 H 86.7479 -0.79154 0.239569 0
M  V30 956 H 89.2939 -1.24411 1.15413 0
M  V30 957 H 88.0659 -3.08428 2.40807 0
M  V30 958 H 87.6889 -3.87587 0.886674 0
M  V30 959 N 88.686 -0.835752 -1.33615 0
M  V30 960 C 89.649 -0.272 -2.2758 0
M  V30 961 C 90.649 0.557487 -1.50827 0
M  V30 962 O 91.839 0.37173 -1.70188 0
M  V30 963 C 88.971 0.617173 -3.35267 0
M  V30 964 H 90.164 -1.10111 -2.78954 0
M  V30 965 H 87.717 -0.608594 -1.43965 0
M  V30 966 H 88.452 1.46884 -2.89129 0
M  V30 967 H 88.237 0.0237066 -3.92093 0
M  V30 968 H 89.727 1.005 -4.05326 0
M  V30 969 N 90.1641 1.46063 -0.591896 0
M  V30 970 C 91.1141 2.27458 0.157172 0
M  V30 971 C 92.0981 1.3641 0.853301 0
M  V30 972 O 93.2901 1.60517 0.74588 0
M  V30 973 C 90.4191 3.22956 1.16423 0
M  V30 974 C 89.5051 4.2149 0.469742 0
M  V30 975 N 89.8961 5.03519 -0.479839 0
M  V30 976 C 88.1941 4.40161 0.719319 0
M  V30 977 C 88.8951 5.74904 -0.886591 0
M  V30 978 N 87.8711 5.43097 -0.233731 0
M  V30 979 H 91.6731 2.88272 -0.572392 0
M  V30 980 H 89.1871 1.57024 -0.414375 0
M  V30 981 H 91.1841 3.79986 1.71513 0
M  V30 982 H 89.8441 2.63701 1.89451 0
M  V30 983 H 90.8551 5.1078 -0.855823 0
M  V30 984 H 87.5321 3.92046 1.43548 0
M  V30 985 H 88.9221 6.50844 -1.66888 0
M  V30 986 N 91.6422 0.330177 1.54103 0
M  V30 987 C 92.8912 -0.271336 1.99867 0
M  V30 988 C 93.2042 -1.52723 1.22209 0
M  V30 989 O 94.4102 -2.20515 1.58383 0
M  V30 990 C 92.8662 -0.534032 3.55916 0
M  V30 991 C 92.4742 0.705193 4.42415 0
M  V30 992 C 94.2182 -1.09514 4.1013 0
M  V30 993 C 92.1252 0.414035 5.89949 0
M  V30 994 H 91.0552 -0.105166 0.74663 0
M  V30 995 H 93.7062 0.443429 1.78062 0
M  V30 996 H 92.0882 -1.30915 3.73734 0
M  V30 997 H 93.2622 1.4804 4.36372 0
M  V30 998 H 91.5772 1.18698 3.99124 0
M  V30 999 H 94.1742 -1.3277 5.17954 0
M  V30 1000 H 94.5172 -2.04656 3.62521 0
M  V30 1001 H 95.0502 -0.381038 3.95971 0
M  V30 1002 H 91.7892 1.33481 6.41766 0
M  V30 1003 H 91.3092 -0.323336 5.98928 0
M  V30 1004 H 92.9882 0.0263105 6.46995 0
M  V30 1005 N 93.1203 -1.57491 0.0584922 0
M  V30 1006 C 94.3503 -1.9701 -0.622134 0
M  V30 1007 C 94.7583 -0.935034 -1.6448 0
M  V30 1008 O 94.1013 0.0882904 -1.83488 0
M  V30 1009 C 94.1633 -3.32794 -1.35972 0
M  V30 1010 C 93.8273 -4.54343 -0.492043 0
M  V30 1011 C 94.8243 -5.19323 0.244901 0
M  V30 1012 C 92.5093 -5.00534 -0.420821 0
M  V30 1013 C 94.5033 -6.28835 1.04143 0
M  V30 1014 C 92.1903 -6.09921 0.379389 0
M  V30 1015 C 93.1883 -6.73933 1.10919 0
M  V30 1016 O 92.8763 -7.81216 1.89623 0
M  V30 1017 H 92.6083 -0.653127 -0.174359 0
M  V30 1018 H 95.1623 -2.05029 0.123418 0
M  V30 1019 H 93.3923 -3.21351 -2.15105 0
M  V30 1020 H 95.0813 -3.5701 -1.93129 0
M  V30 1021 H 95.8473 -4.8459 0.19939 0
M  V30 1022 H 91.7263 -4.50496 -0.978474 0
M  V30 1023 H 95.2703 -6.7873 1.61157 0
M  V30 1024 H 91.1673 -6.44089 0.426512 0
M  V30 1025 H 91.9353 -7.98029 1.81913 0
M  V30 1026 N 94.5984 0.214957 -1.56127 0
M  V30 1027 C 95.5084 1.28727 -1.96129 0
M  V30 1028 C 96.5244 1.50916 -0.866044 0
M  V30 1029 O 97.7004 1.63918 -1.17016 0
M  V30 1030 C 94.7654 2.61569 -2.27558 0
M  V30 1031 C 93.8264 2.47625 -3.50685 0
M  V30 1032 C 93.0594 3.74132 -3.80606 0
M  V30 1033 O 93.2824 4.77438 -3.12104 0
M  V30 1034 O 92.2164 3.70849 -4.74083 0
M  V30 1035 H 96.0424 0.977855 -2.87527 0
M  V30 1036 H 93.6274 0.418358 -1.43423 0
M  V30 1037 H 95.5094 3.40012 -2.48938 0
M  V30 1038 H 94.1844 2.92178 -1.39332 0
M  V30 1039 H 93.0914 1.67361 -3.34576 0
M  V30 1040 H 94.4244 2.21954 -4.39315 0
M  V30 1041 N 96.0765 1.50051 0.48192 0
M  V30 1042 C 97.3245 1.60181 1.23234 0
M  V30 1043 C 97.6455 0.299176 1.92691 0
M  V30 1044 O 96.9155 -0.682708 1.83619 0
M  V30 1045 H 95.4955 0.590232 0.457859 0
M  V30 1046 H 98.1575 1.86775 0.556881 0
M  V30 1047 H 97.2535 2.40753 1.98607 0
M  V30 1048 N 97.5546 -0.734337 1.39446 0
M  V30 1049 C 98.9706 -1.03997 1.21065 0
M  V30 1050 C 99.1706 -2.01369 0.0727019 0
M  V30 1051 O 98.2266 -2.45856 -0.575426 0
M  V30 1052 C 99.5396 -1.60163 2.54496 0
M  V30 1053 C 101.088 -1.7224 2.61347 0
M  V30 1054 C 101.563 -2.31814 3.95002 0
M  V30 1055 N 103.054 -2.39223 3.96644 0
M  V30 1056 C 103.789 -2.86258 4.96834 0
M  V30 1057 N 103.285 -3.33184 6.07421 0
M  V30 1058 N 105.078 -2.85473 4.84213 0
M  V30 1059 H 97.2286 -0.0885624 2.12215 0
M  V30 1060 H 99.4916 -0.10191 0.942506 0
M  V30 1061 H 99.1976 -0.960811 3.38321 0
M  V30 1062 H 99.0716 -2.5896 2.74262 0
M  V30 1063 H 101.459 -2.35443 1.77906 0
M  V30 1064 H 101.54 -0.720939 2.4543 0
M  V30 1065 H 101.184 -1.69238 4.78875 0
M  V30 1066 H 101.114 -3.32638 4.08239 0
M  V30 1067 H 103.605 -2.06057 3.16779 0
M  V30 1068 H 103.918 -3.67586 6.7978 0
M  V30 1069 H 102.263 -3.31191 6.11013 0
M  V30 1070 H 105.454 -2.48136 3.96921 0
M  V30 1071 H 105.627 -3.21814 5.62441 0
M  V30 1072 N 99.0327 -1.24633 -0.964593 0
M  V30 1073 C 100.279 -1.08949 -1.71049 0
M  V30 1074 C 100.612 0.370302 -1.90637 0
M  V30 1075 O 99.8867 1.27349 -1.47011 0
M  V30 1076 C 100.17 -1.83329 -3.0994 0
M  V30 1077 C 100.023 -3.37077 -2.97824 0
M  V30 1078 C 101.342 -1.60846 -4.09654 0
M  V30 1079 H 98.4607 -0.397178 -0.620821 0
M  V30 1080 H 101.103 -1.5334 -1.12191 0
M  V30 1081 H 99.2527 -1.45597 -3.60186 0
M  V30 1082 H 100.925 -3.84425 -2.5498 0
M  V30 1083 H 99.1677 -3.65298 -2.33965 0
M  V30 1084 H 99.8387 -3.84324 -3.96231 0
M  V30 1085 H 102.315 -1.93674 -3.68279 0
M  V30 1086 H 101.191 -2.1534 -5.04896 0
M  V30 1087 H 101.452 -0.547434 -4.38698 0
M  V30 1088 N 100.511 1.16574 -1.06058 0
M  V30 1089 C 101.76 1.86385 -0.770944 0
M  V30 1090 C 102.073 1.82448 0.705129 0
M  V30 1091 O 103.279 2.47815 1.10905 0
M  V30 1092 C 101.735 3.34466 -1.32893 0
M  V30 1093 C 101.343 3.46883 -2.83507 0
M  V30 1094 C 103.087 4.09548 -1.11672 0
M  V30 1095 C 100.994 4.89036 -3.32562 0
M  V30 1096 H 99.9238 0.698181 -0.284709 0
M  V30 1097 H 102.575 1.31583 -1.27899 0
M  V30 1098 H 100.957 3.88859 -0.748662 0
M  V30 1099 H 102.131 3.02663 -3.47465 0
M  V30 1100 H 100.446 2.85232 -3.03368 0
M  V30 1101 H 103.043 5.14434 -1.45814 0
M  V30 1102 H 103.386 4.16264 -0.0549535 0
M  V30 1103 H 103.919 3.61387 -1.66265 0
M  V30 1104 H 100.658 4.87499 -4.38207 0
M  V30 1105 H 100.178 5.3389 -2.73351 0
M  V30 1106 H 101.857 5.57843 -3.2775 0
M  V30 1107 N 101.989 0.842826 1.3317 0
M  V30 1108 C 102.921 0.236245 2.27979 0
M  V30 1109 C 103.934 -0.585282 1.51915 0
M  V30 1110 O 105.123 -0.411705 1.73687 0
M  V30 1111 C 102.223 -0.685717 3.3189 0
M  V30 1112 C 101.396 0.0973448 4.37292 0
M  V30 1113 C 100.455 -0.748565 5.20848 0
M  V30 1114 O 99.4809 -0.186339 5.68895 0
M  V30 1115 N 100.683 -2.06527 5.42519 0
M  V30 1116 H 103.448 1.05088 2.80672 0
M  V30 1117 H 101.009 0.701667 1.45905 0
M  V30 1118 H 103.001 -1.25669 3.84694 0
M  V30 1119 H 101.571 -1.40105 2.79445 0
M  V30 1120 H 100.791 0.849706 3.84933 0
M  V30 1121 H 102.079 0.635643 5.04814 0
M  V30 1122 H 101.477 -2.54554 5.05192 0
M  V30 1123 H 100.034 -2.58464 5.98364 0
M  V30 1124 N 103.467 -1.45747 0.599634 0
M  V30 1125 C 104.716 -2.01502 0.0893511 0
M  V30 1126 C 105.029 -1.4748 -1.28488 0
M  V30 1127 O 106.235 -1.95161 -1.88745 0
M  V30 1128 C 104.691 -3.59735 0.109082 0
M  V30 1129 C 104.299 -4.22754 1.48267 0
M  V30 1130 C 106.043 -4.23085 -0.346374 0
M  V30 1131 C 103.95 -5.73115 1.45921 0
M  V30 1132 H 102.88 -0.753417 0.0296347 0
M  V30 1133 H 105.531 -1.67303 0.753788 0
M  V30 1134 H 103.913 -3.91087 -0.621854 0
M  V30 1135 H 105.087 -4.02987 2.23468 0
M  V30 1136 H 103.402 -3.71567 1.87955 0
M  V30 1137 H 105.999 -5.33327 -0.38298 0
M  V30 1138 H 106.342 -3.93201 -1.36743 0
M  V30 1139 H 106.875 -3.9642 0.331038 0
M  V30 1140 H 103.614 -6.07685 2.45762 0
M  V30 1141 H 103.134 -5.95097 0.749665 0
M  V30 1142 H 104.813 -6.3616 1.17941 0
M  V30 1143 N 104.945 -0.338344 -1.53925 0
M  V30 1144 C 106.191 0.260143 -2.01125 0
M  V30 1145 C 106.524 1.50617 -1.22589 0
M  V30 1146 O 105.799 1.91979 -0.312113 0
M  V30 1147 C 106.082 0.579499 -3.55407 0
M  V30 1148 C 105.935 -0.678264 -4.44657 0
M  V30 1149 C 107.254 1.39122 -4.17532 0
M  V30 1150 H 104.373 0.0930772 -0.731099 0
M  V30 1151 H 107.015 -0.457852 -1.84401 0
M  V30 1152 H 105.165 1.19118 -3.69788 0
M  V30 1153 H 106.837 -1.31631 -4.42121 0
M  V30 1154 H 105.08 -1.3042 -4.13731 0
M  V30 1155 H 105.751 -0.410143 -5.50474 0
M  V30 1156 H 108.227 0.874035 -4.06817 0
M  V30 1157 H 107.103 1.58342 -5.25565 0
M  V30 1158 H 107.364 2.39178 -3.71815 0
M  V30 1159 N 106.423 1.57458 -0.0668435 0
M  V30 1160 C 107.353 2.15468 0.899764 0
M  V30 1161 C 108.334 1.08042 1.31381 0
M  V30 1162 O 109.519 1.36054 1.38574 0
M  V30 1163 C 106.649 2.71232 2.16911 0
M  V30 1164 C 105.603 3.83781 1.89463 0
M  V30 1165 C 104.929 4.26127 3.22986 0
M  V30 1166 C 106.229 5.08238 1.20381 0
M  V30 1167 H 107.923 2.96488 0.416529 0
M  V30 1168 H 105.469 1.4262 0.198908 0
M  V30 1169 H 107.422 3.10458 2.84945 0
M  V30 1170 H 106.146 1.87426 2.67468 0
M  V30 1171 H 104.805 3.45051 1.23836 0
M  V30 1172 H 104.453 3.39249 3.71374 0
M  V30 1173 H 104.153 5.01993 3.05413 0
M  V30 1174 H 105.677 4.67966 3.92225 0
M  V30 1175 H 107.091 5.44811 1.78475 0
M  V30 1176 H 105.488 5.89349 1.13083 0
M  V30 1177 H 106.558 4.84558 0.182153 0
M  V30 1178 N 107.901 -0.206675 1.56239 0
M  V30 1179 C 108.834 -1.28383 1.88661 0
M  V30 1180 C 109.812 -1.44504 0.745481 0
M  V30 1181 O 110.996 -1.60079 0.995336 0
M  V30 1182 C 108.123 -2.65211 2.10667 0
M  V30 1183 C 107.169 -2.66025 3.33366 0
M  V30 1184 S 108.002 -2.18609 4.88846 0
M  V30 1185 C 109.158 -3.57283 5.13906 0
M  V30 1186 H 109.391 -1.00691 2.7973 0
M  V30 1187 H 106.924 -0.409627 1.48867 0
M  V30 1188 H 108.882 -3.43979 2.24029 0
M  V30 1189 H 107.543 -2.90121 1.20369 0
M  V30 1190 H 106.736 -3.66607 3.45855 0
M  V30 1191 H 106.338 -1.95331 3.18938 0
M  V30 1192 H 108.63 -4.53074 5.03717 0
M  V30 1193 H 109.573 -3.49699 6.15724 0
M  V30 1194 H 109.981 -3.51659 4.41583 0
M  V30 1195 N 109.379 -1.50304 -0.473955 0
M  V30 1196 C 110.795 -1.37667 -0.807466 0
M  V30 1197 C 110.995 -0.430555 -1.96846 0
M  V30 1198 O 110.051 0.127874 -2.52176 0
M  V30 1199 C 111.364 -2.78974 -1.12223 0
M  V30 1200 C 112.912 -2.87868 -1.22885 0
M  V30 1201 C 113.387 -4.30003 -1.57676 0
M  V30 1202 N 114.878 -4.3294 -1.64673 0
M  V30 1203 C 115.613 -5.3991 -1.93091 0
M  V30 1204 N 115.109 -6.57092 -2.1955 0
M  V30 1205 N 116.902 -5.27351 -1.94569 0
M  V30 1206 H 109.053 -2.10394 0.291212 0
M  V30 1207 H 111.316 -0.945575 0.0677609 0
M  V30 1208 H 111.022 -3.50031 -0.342229 0
M  V30 1209 H 110.896 -3.16038 -2.05913 0
M  V30 1210 H 113.283 -2.17032 -1.99953 0
M  V30 1211 H 113.364 -2.54352 -0.271814 0
M  V30 1212 H 113.008 -5.01375 -0.81149 0
M  V30 1213 H 112.938 -4.61004 -2.54525 0
M  V30 1214 H 115.429 -3.48441 -1.46277 0
M  V30 1215 H 115.742 -7.34425 -2.405 0
M  V30 1216 H 114.087 -6.60272 -2.16948 0
M  V30 1217 H 117.278 -4.34801 -1.73394 0
M  V30 1218 H 117.451 -6.10805 -2.16381 0
M  V30 1219 N 110.857 0.726932 -1.39834 0
M  V30 1220 C 111.82 1.82269 -1.38962 0
M  V30 1221 C 112.82 1.58248 -0.285334 0
M  V30 1222 O 114.01 1.65499 -0.54366 0
M  V30 1223 C 111.142 3.20186 -1.17019 0
M  V30 1224 H 112.335 1.84443 -2.36476 0
M  V30 1225 H 109.888 0.931416 -1.25516 0
M  V30 1226 H 110.623 3.23669 -0.202204 0
M  V30 1227 H 110.408 3.3902 -1.96998 0
M  V30 1228 H 111.898 4.00235 -1.1917 0
M  V30 1229 N 112.336 1.25143 0.95797 0
M  V30 1230 C 113.299 1.05321 2.03569 0
M  V30 1231 C 114.299 0.007152 1.60798 0
M  V30 1232 O 115.489 0.24903 1.72411 0
M  V30 1233 C 112.621 0.598394 3.35607 0
M  V30 1234 H 113.814 2.00986 2.22586 0
M  V30 1235 H 111.367 1.07502 1.13459 0
M  V30 1236 H 112.102 -0.361014 3.22284 0
M  V30 1237 H 111.887 1.35351 3.67998 0
M  V30 1238 H 113.377 0.48104 4.1482 0
M  V30 1239 N 113.814 -1.1601 1.06675 0
M  V30 1240 C 114.724 -2.24156 0.692179 0
M  V30 1241 C 115.74 -1.71507 -0.293513 0
M  V30 1242 O 116.916 -2.009 -0.141861 0
M  V30 1243 C 113.981 -3.46587 0.0884131 0
M  V30 1244 C 113.042 -4.14257 1.12646 0
M  V30 1245 C 112.275 -5.30844 0.551416 0
M  V30 1246 O 112.498 -5.66858 -0.634656 0
M  V30 1247 O 111.432 -5.87848 1.29298 0
M  V30 1248 H 115.258 -2.58513 1.59388 0
M  V30 1249 H 112.843 -1.23599 0.83926 0
M  V30 1250 H 114.725 -4.20679 -0.246361 0
M  V30 1251 H 113.4 -3.13994 -0.786712 0
M  V30 1252 H 112.307 -3.42118 1.51348 0
M  V30 1253 H 113.64 -4.50914 1.97325 0
M  V30 1254 N 115.292 -0.849877 -1.32721 0
M  V30 1255 C 116.202 -0.293791 -2.32753 0
M  V30 1256 C 117.218 0.585906 -1.63839 0
M  V30 1257 O 118.394 0.487413 -1.95413 0
M  V30 1258 C 115.459 0.512752 -3.42887 0
M  V30 1259 C 114.52 -0.39252 -4.27502 0
M  V30 1260 C 113.753 0.375625 -5.32377 0
M  V30 1261 O 113.976 1.60613 -5.4732 0
M  V30 1262 O 112.91 -0.256094 -6.01355 0
M  V30 1263 H 116.736 -1.12242 -2.82197 0
M  V30 1264 H 114.321 -0.612685 -1.36259 0
M  V30 1265 H 116.203 0.970704 -4.10067 0
M  V30 1266 H 114.878 1.31826 -2.95641 0
M  V30 1267 H 113.785 -0.898547 -3.63149 0
M  V30 1268 H 115.118 -1.16309 -4.7826 0
M  V30 1269 N 116.77 1.45427 -0.607355 0
M  V30 1270 C 118.181 1.85756 -0.187535 0
M  V30 1271 C 118.532 1.5077 1.25551 0
M  V30 1272 O 117.657 0.93427 1.95193 0
M  V30 1273 C 118.252 3.37154 -0.333572 0
M  V30 1274 C 116.811 3.76387 0.0315542 0
M  V30 1275 C 115.958 2.69377 -0.658117 0
M  V30 1276 H 118.909 1.36231 -0.81405 0
M  V30 1277 H 118.93 3.78014 0.43428 0
M  V30 1278 H 118.442 3.62586 -1.38393 0
M  V30 1279 H 116.543 3.56571 1.0811 0
M  V30 1280 H 116.656 4.77731 -0.361935 0
M  V30 1281 H 115.02 2.5452 -0.0957873 0
M  V30 1282 H 115.803 2.97646 -1.7106 0
M  V30 1283 N 118.248 0.346503 1.53744 0
M  V30 1284 C 119.494 -0.249473 2.0126 0
M  V30 1285 C 119.827 -1.49965 1.23386 0
M  V30 1286 O 119.102 -1.91811 0.32229 0
M  V30 1287 C 119.385 -0.560643 3.55709 0
M  V30 1288 C 119.238 0.701836 4.44291 0
M  V30 1289 C 120.557 -1.36905 4.18264 0
M  V30 1290 H 117.676 -0.0891987 0.731582 0
M  V30 1291 H 120.318 0.467624 1.84156 0
M  V30 1292 H 118.468 -1.17156 3.70414 0
M  V30 1293 H 120.14 1.33974 4.41417 0
M  V30 1294 H 118.383 1.32612 4.13033 0
M  V30 1295 H 119.054 0.43933 5.50249 0
M  V30 1296 H 121.53 -0.852448 4.07275 0
M  V30 1297 H 120.406 -1.55553 5.26398 0
M  V30 1298 H 120.667 -2.37203 3.73078 0
M  V30 1299 N 119.726 -1.57421 0.075193 0
M  V30 1300 C 120.951 -1.98364 -0.605515 0
M  V30 1301 C 121.376 -0.953383 -1.62149 0
M  V30 1302 O 120.734 0.0806053 -1.81121 0
M  V30 1303 C 120.782 -3.38332 -1.24756 0
M  V30 1304 O 119.886 -3.37959 -2.36342 0
M  V30 1305 H 119.227 -0.645553 -0.155428 0
M  V30 1306 H 121.757 -2.04044 0.150714 0
M  V30 1307 H 121.767 -3.75591 -1.5936 0
M  V30 1308 H 120.442 -4.12846 -0.503129 0
M  V30 1309 H 119.019 -3.12474 -2.03506 0
M  V30 1310 N 121.204 0.198386 -1.56346 0
M  V30 1311 C 122.114 1.2664 -1.97483 0
M  V30 1312 C 123.13 1.49989 -0.882002 0
M  V30 1313 O 124.306 1.62668 -1.18748 0
M  V30 1314 C 121.371 2.59141 -2.30319 0
M  V30 1315 C 120.432 2.43892 -3.53292 0
M  V30 1316 C 119.665 3.70074 -3.84553 0
M  V30 1317 O 119.888 4.74101 -3.1715 0
M  V30 1318 O 118.822 3.658 -4.7799 0
M  V30 1319 H 122.648 0.947304 -2.88548 0
M  V30 1320 H 120.233 0.403123 -1.43859 0
M  V30 1321 H 122.115 3.37352 -2.5253 0
M  V30 1322 H 120.79 2.90684 -1.42423 0
M  V30 1323 H 119.697 1.63803 -3.36332 0
M  V30 1324 H 121.03 2.17282 -4.41644 0
M  V30 1325 N 122.682 1.50554 0.465978 0
M  V30 1326 C 123.928 1.62038 1.21949 0
M  V30 1327 C 124.261 0.322116 1.9151 0
M  V30 1328 O 123.536 -0.676723 1.82348 0
M  V30 1329 C 123.819 2.80421 2.25912 0
M  V30 1330 C 123.672 4.20144 1.60622 0
M  V30 1331 C 124.991 2.94354 3.27176 0
M  V30 1332 H 122.11 0.589752 0.441998 0
M  V30 1333 H 124.752 1.82956 0.51257 0
M  V30 1334 H 122.902 2.62717 2.86203 0
M  V30 1335 H 124.574 4.49449 1.03889 0
M  V30 1336 H 122.817 4.24165 0.909211 0
M  V30 1337 H 123.488 4.98914 2.36196 0
M  V30 1338 H 125.964 3.10578 2.76913 0
M  V30 1339 H 124.84 3.788 3.97242 0
M  V30 1340 H 125.101 2.05186 3.916 0
M  V30 1341 N 124.16 -0.719506 1.40217 0
M  V30 1342 C 125.388 -1.50864 1.41589 0
M  V30 1343 C 125.803 -1.88794 0.0145275 0
M  V30 1344 O 125.16 -1.55174 -0.960594 0
M  V30 1345 C 125.211 -2.78646 2.30302 0
M  V30 1346 O 124.932 -2.42321 3.64983 0
M  V30 1347 C 126.433 -3.72569 2.40224 0
M  V30 1348 H 123.653 -0.465709 0.48307 0
M  V30 1349 H 126.197 -0.88785 1.84221 0
M  V30 1350 H 124.352 -3.37019 1.91042 0
M  V30 1351 H 124.766 -3.24514 4.12057 0
M  V30 1352 H 126.24 -4.5908 3.06512 0
M  V30 1353 H 126.717 -4.15403 1.42608 0
M  V30 1354 H 127.323 -3.20109 2.80019 0
M  V30 1355 N 125.638 -1.25649 -0.95132 0
M  V30 1356 C 126.884 -1.10757 -1.69884 0
M  V30 1357 C 127.217 0.350061 -1.91019 0
M  V30 1358 O 126.492 1.25783 -1.48354 0
M  V30 1359 C 126.775 -1.86606 -3.07978 0
M  V30 1360 C 126.628 -3.40217 -2.94232 0
M  V30 1361 C 127.947 -1.65182 -4.07925 0
M  V30 1362 H 125.066 -0.40374 -0.616574 0
M  V30 1363 H 127.708 -1.54521 -1.10558 0
M  V30 1364 H 125.858 -1.49409 -3.58621 0
M  V30 1365 H 127.53 -3.87108 -2.50889 0
M  V30 1366 H 125.773 -3.67759 -2.30078 0
M  V30 1367 H 126.444 -3.88505 -3.92133 0
M  V30 1368 H 128.92 -1.9757 -3.66204 0
M  V30 1369 H 127.796 -2.20683 -5.02583 0
M  V30 1370 H 128.057 -0.593933 -4.38092 0
M  V30 1371 N 127.117 1.15442 -1.07289 0
M  V30 1372 C 128.365 1.85845 -0.794096 0
M  V30 1373 C 128.686 1.82692 0.681809 0
M  V30 1374 O 127.956 1.26741 1.49377 0
M  V30 1375 H 126.536 0.688089 -0.290763 0
M  V30 1376 H 129.198 1.39947 -1.3565 0
M  V30 1377 H 128.294 2.91001 -1.12804 0
M  V30 1378 N 128.595 0.856903 1.32268 0
M  V30 1379 C 129.841 0.462069 1.97466 0
M  V30 1380 C 130.174 -0.980298 1.67642 0
M  V30 1381 O 129.449 -1.68824 0.965858 0
M  V30 1382 C 129.732 0.704336 3.53145 0
M  V30 1383 C 129.585 2.19529 3.9259 0
M  V30 1384 C 130.904 0.1622 4.39801 0
M  V30 1385 H 128.023 0.169357 0.717278 0
M  V30 1386 H 130.665 1.07574 1.56614 0
M  V30 1387 H 128.815 0.181999 3.88073 0
M  V30 1388 H 130.487 2.78387 3.67829 0
M  V30 1389 H 128.73 2.67292 3.41668 0
M  V30 1390 H 129.401 2.31549 5.01088 0
M  V30 1391 H 131.877 0.608905 4.11621 0
M  V30 1392 H 130.753 0.361265 5.4771 0
M  V30 1393 H 131.014 -0.935158 4.32096 0
M  V30 1394 N 130.073 -1.45103 0.615059 0
M  V30 1395 C 131.298 -2.07064 0.117988 0
M  V30 1396 C 131.723 -1.4554 -1.19163 0
M  V30 1397 O 131.081 -0.550855 -1.72729 0
M  V30 1398 C 131.129 -3.606 -0.000288387 0
M  V30 1399 O 130.233 -3.98847 -1.04856 0
M  V30 1400 H 129.574 -0.659467 0.0774581 0
M  V30 1401 H 132.104 -1.86236 0.847186 0
M  V30 1402 H 132.114 -4.07529 -0.196091 0
M  V30 1403 H 130.789 -4.04765 0.955932 0
M  V30 1404 H 129.366 -3.63577 -0.828619 0
M  V30 1405 N 131.551 -0.354651 -1.53558 0
M  V30 1406 C 132.797 0.238797 -2.01389 0
M  V30 1407 C 133.13 1.49309 -1.2418 0
M  V30 1408 O 132.405 1.91638 -0.332457 0
M  V30 1409 C 132.688 0.541771 -3.56001 0
M  V30 1410 C 132.541 -0.725388 -4.43912 0
M  V30 1411 C 133.86 1.34685 -4.18984 0
M  V30 1412 H 130.979 0.0853177 -0.732045 0
M  V30 1413 H 133.621 -0.477384 -1.83905 0
M  V30 1414 H 131.771 1.15189 -3.71031 0
M  V30 1415 H 133.443 -1.36313 -4.407 0
M  V30 1416 H 131.686 -1.34801 -4.12324 0
M  V30 1417 H 132.357 -0.468505 -5.50008 0
M  V30 1418 H 134.833 0.830837 -4.07721 0
M  V30 1419 H 133.709 1.52759 -5.27215 0
M  V30 1420 H 133.97 2.35221 -3.74331 0
M  V30 1421 N 133.029 1.57378 -0.0835403 0
M  V30 1422 C 133.959 2.1641 0.87686 0
M  V30 1423 C 134.94 1.09429 1.30228 0
M  V30 1424 O 136.125 1.37516 1.37124 0
M  V30 1425 C 133.255 2.73517 2.14022 0
M  V30 1426 C 132.209 3.85769 1.85381 0
M  V30 1427 C 131.535 4.29529 3.18448 0
M  V30 1428 C 132.835 5.09486 1.14984 0
M  V30 1429 H 134.529 2.96914 0.385059 0
M  V30 1430 H 132.075 1.42823 0.18377 0
M  V30 1431 H 134.028 3.13463 2.81636 0
M  V30 1432 H 132.752 1.90252 2.65465 0
M  V30 1433 H 131.411 3.46345 1.20169 0
M  V30 1434 H 131.059 3.43169 3.67755 0
M  V30 1435 H 130.759 5.05204 3.00071 0
M  V30 1436 H 132.283 4.72099 3.8724 0
M  V30 1437 H 133.697 5.46674 1.72687 0
M  V30 1438 H 132.094 5.90515 1.06826 0
M  V30 1439 H 133.164 4.84724 0.130749 0
M  V30 1440 N 134.507 -0.190092 1.56449 0
M  V30 1441 C 135.47 -1.21925 1.9408 0
M  V30 1442 C 136.47 -1.38176 0.822431 0
M  V30 1443 O 137.66 -1.35903 1.08977 0
M  V30 1444 C 134.792 -2.58773 2.21922 0
M  V30 1445 H 135.985 -0.897464 2.86157 0
M  V30 1446 H 133.538 -0.43181 1.50217 0
M  V30 1447 H 134.273 -2.95998 1.32499 0
M  V30 1448 H 134.058 -2.48348 3.03424 0
M  V30 1449 H 135.548 -3.32978 2.52022 0
M  V30 1450 N 135.985 -1.50799 -0.457987 0
M  V30 1451 C 136.895 -1.73426 -1.57989 0
M  V30 1452 C 137.911 -0.617745 -1.62665 0
M  V30 1453 O 139.087 -0.897614 -1.80291 0
M  V30 1454 C 136.152 -1.83557 -2.94122 0
M  V30 1455 C 135.213 -3.07345 -2.99729 0
M  V30 1456 C 134.446 -3.16983 -4.29368 0
M  V30 1457 O 134.669 -2.33077 -5.20607 0
M  V30 1458 O 133.603 -4.09812 -4.40837 0
M  V30 1459 H 137.429 -2.68555 -1.41817 0
M  V30 1460 H 135.014 -1.35052 -0.638859 0
M  V30 1461 H 136.896 -1.92326 -3.74952 0
M  V30 1462 H 135.571 -0.916137 -3.10465 0
M  V30 1463 H 134.478 -3.04068 -2.1793 0
M  V30 1464 H 135.811 -3.9891 -2.88326 0
M  V30 1465 N 137.463 0.71206 -1.40597 0
M  V30 1466 C 138.879 1.02058 -1.22704 0
M  V30 1467 C 139.079 2.01228 -0.104729 0
M  V30 1468 O 138.135 2.4674 0.53624 0
M  V30 1469 C 139.448 1.56094 -2.57012 0
M  V30 1470 C 140.996 1.6806 -2.64054 0
M  V30 1471 C 141.471 2.25501 -3.9864 0
M  V30 1472 N 142.962 2.32882 -4.004 0
M  V30 1473 C 143.697 2.78317 -5.01325 0
M  V30 1474 N 143.193 3.23478 -6.12645 0
M  V30 1475 N 144.986 2.77733 -4.88693 0
M  V30 1476 H 137.137 0.0547896 -2.12329 0
M  V30 1477 H 139.4 0.0869027 -0.944008 0
M  V30 1478 H 139.106 0.906865 -3.39807 0
M  V30 1479 H 138.98 2.54564 -2.78347 0
M  V30 1480 H 141.367 2.32583 -1.81629 0
M  V30 1481 H 141.448 0.681802 -2.46546 0
M  V30 1482 H 141.092 1.61598 -4.81506 0
M  V30 1483 H 141.022 3.26102 -4.13479 0
M  V30 1484 H 143.513 2.00991 -3.20017 0
M  V30 1485 H 143.826 3.56725 -6.85542 0
M  V30 1486 H 142.171 3.21429 -6.16205 0
M  V30 1487 H 145.362 2.4179 -4.00818 0
M  V30 1488 H 145.535 3.12826 -5.67489 0
M  V30 1489 N 138.941 1.26152 0.944643 0
M  V30 1490 C 140.181 1.12708 1.70517 0
M  V30 1491 C 140.545 -0.324727 1.89234 0
M  V30 1492 O 141.746 -0.581211 2.62441 0
M  V30 1493 C 140.017 1.8713 3.04495 0
M  V30 1494 S 141.576 1.89698 3.95677 0
M  V30 1495 H 138.394 0.402665 0.585988 0
M  V30 1496 H 140.996 1.59821 1.12594 0
M  V30 1497 H 139.7 2.91833 2.88551 0
M  V30 1498 H 139.231 1.40444 3.67477 0
M  V30 1499 H 141.246 0.981198 4.86402 0
M  V30 1500 N 140.419 -1.14872 1.07899 0
M  V30 1501 C 141.366 -2.19791 0.704319 0
M  V30 1502 C 142.336 -1.63238 -0.306987 0
M  V30 1503 O 143.521 -1.8983 -0.192171 0
M  V30 1504 C 140.661 -3.44911 0.114244 0
M  V30 1505 C 139.774 -4.15637 1.1777 0
M  V30 1506 C 138.909 -5.28324 0.552037 0
M  V30 1507 C 137.948 -5.90875 1.59789 0
M  V30 1508 N 137.085 -6.95022 0.994404 0
M  V30 1509 H 141.925 -2.5119 1.60336 0
M  V30 1510 H 139.462 -1.23356 0.801352 0
M  V30 1511 H 141.42 -4.16477 -0.245544 0
M  V30 1512 H 140.05 -3.14011 -0.74813 0
M  V30 1513 H 139.102 -3.42512 1.65499 0
M  V30 1514 H 140.414 -4.5823 1.97046 0
M  V30 1515 H 139.568 -6.06538 0.1402 0
M  V30 1516 H 138.307 -4.86939 -0.272431 0
M  V30 1517 H 137.312 -5.11369 2.01945 0
M  V30 1518 H 138.537 -6.34337 2.42474 0
M  V30 1519 H 136.483 -6.55722 0.190939 0
M  V30 1520 H 136.4 -7.36073 1.72432 0
M  V30 1521 H 137.668 -7.77123 0.608253 0
M  V30 1522 N 141.898 -0.863906 -1.31812 0
M  V30 1523 C 142.845 -0.313303 -2.28664 0
M  V30 1524 C 143.815 0.584868 -1.55462 0
M  V30 1525 O 145 0.517805 -1.83639 0
M  V30 1526 C 142.14 0.48441 -3.41683 0
M  V30 1527 C 141.253 -0.440594 -4.29747 0
M  V30 1528 C 140.388 0.370652 -5.29905 0
M  V30 1529 C 139.427 -0.551164 -6.09613 0
M  V30 1530 N 138.564 0.223462 -7.01744 0
M  V30 1531 H 143.404 -1.14444 -2.75148 0
M  V30 1532 H 140.941 -0.575769 -1.35364 0
M  V30 1533 H 142.899 0.962627 -4.05943 0
M  V30 1534 H 141.529 1.28029 -2.96325 0
M  V30 1535 H 140.581 -1.03724 -3.65986 0
M  V30 1536 H 141.893 -1.14767 -4.85417 0
M  V30 1537 H 141.047 0.911638 -5.99812 0
M  V30 1538 H 139.786 1.11105 -4.74876 0
M  V30 1539 H 138.791 -1.10396 -5.38603 0
M  V30 1540 H 140.016 -1.29032 -6.66729 0
M  V30 1541 H 137.962 0.946787 -6.49132 0
M  V30 1542 H 137.879 -0.424399 -7.54808 0
M  V30 1543 H 139.147 0.745876 -7.75923 0
M  V30 1544 N 143.376 1.44774 -0.622745 0
M  V30 1545 C 144.324 2.32387 0.0994683 0
M  V30 1546 C 145.318 1.46859 0.844326 0
M  V30 1547 O 146.524 1.63254 0.758174 0
M  V30 1548 H 142.899 0.750273 0.0509291 0
M  V30 1549 H 144.87 2.91062 -0.65767 0
M  V30 1550 C 143.619 3.30723 1.07319 0
M  V30 1551 H 142.942 3.96541 0.509462 0
M  V30 1552 H 144.382 3.94725 1.54817 0
M  V30 1553 C 142.841 2.59021 2.15429 0
M  V30 1554 O 143.371 2.38286 3.23393 0
M  V30 1555 N 141.577 2.189 1.91131 0
M  V30 1556 H 141.124 2.35964 1.03337 0
M  V30 1557 H 141.082 1.71251 2.63668 0
M  V30 1558 N 144.854 0.36279 1.53368 0
M  V30 1559 C 145.802 -0.500155 2.27159 0
M  V30 1560 C 146.796 -1.08575 1.3003 0
M  V30 1561 O 148.002 -1.02927 1.47668 0
M  V30 1562 H 144.377 -0.180009 0.730138 0
M  V30 1563 H 146.348 0.14401 2.98052 0
M  V30 1564 C 145.097 -1.62937 3.07159 0
M  V30 1565 H 144.42 -1.18806 3.8174 0
M  V30 1566 H 145.86 -2.20795 3.61975 0
M  V30 1567 C 144.319 -2.57007 2.17829 0
M  V30 1568 O 144.849 -3.59752 1.78721 0
M  V30 1569 N 143.055 -2.26131 1.82518 0
M  V30 1570 H 142.602 -1.42616 2.14519 0
M  V30 1571 H 142.56 -2.89327 1.23034 0
M  V30 1572 N 146.332 -1.57332 0.0918853 0
M  V30 1573 C 147.58 -1.93853 -0.571446 0
M  V30 1574 C 147.901 -0.974212 -1.6892 0
M  V30 1575 O 147.171 -0.0257254 -1.95883 0
M  V30 1576 H 145.751 -0.715666 -0.214082 0
M  V30 1577 H 148.413 -1.94287 0.154464 0
M  V30 1578 H 147.509 -2.96191 -0.983729 0
M  V30 1579 N 147.81 0.181792 -1.56548 0
M  V30 1580 C 148.757 1.22521 -1.95595 0
M  V30 1581 C 149.727 1.4454 -0.818373 0
M  V30 1582 O 150.912 1.57454 -1.07763 0
M  V30 1583 C 148.052 2.56193 -2.31212 0
M  V30 1584 C 147.165 2.41641 -3.58097 0
M  V30 1585 C 146.3 3.68108 -3.82975 0
M  V30 1586 C 145.339 3.48445 -5.03242 0
M  V30 1587 N 144.476 4.66956 -5.24306 0
M  V30 1588 H 149.316 0.885226 -2.84548 0
M  V30 1589 H 146.853 0.425718 -1.40805 0
M  V30 1590 H 148.811 3.34088 -2.49882 0
M  V30 1591 H 147.441 2.88208 -1.45382 0
M  V30 1592 H 146.493 1.54976 -3.474 0
M  V30 1593 H 147.805 2.23052 -4.46149 0
M  V30 1594 H 146.959 4.54441 -4.01956 0
M  V30 1595 H 145.698 3.89666 -2.93278 0
M  V30 1596 H 144.703 2.60499 -4.8417 0
M  V30 1597 H 145.928 3.2832 -5.9446 0
M  V30 1598 H 143.874 4.88752 -4.37559 0
M  V30 1599 H 143.791 4.51242 -6.06561 0
M  V30 1600 H 145.059 5.54602 -5.47756 0
M  V30 1601 N 149.288 1.51039 0.449983 0
M  V30 1602 C 150.251 1.70863 1.5277 0
M  V30 1603 C 151.251 0.578846 1.5002 0
M  V30 1604 O 152.441 0.846213 1.52266 0
M  V30 1605 C 149.573 1.75341 2.9235 0
M  V30 1606 H 150.766 2.67034 1.36502 0
M  V30 1607 H 148.319 1.40838 0.677812 0
M  V30 1608 H 149.054 0.809383 3.14037 0
M  V30 1609 H 148.839 2.57436 2.95752 0
M  V30 1610 H 150.329 1.92559 3.70555 0
M  V30 1611 N 150.766 -0.704594 1.40972 0
M  V30 1612 C 151.676 -1.84856 1.44448 0
M  V30 1613 C 152.692 -1.70726 0.335961 0
M  V30 1614 O 153.868 -1.92799 0.582276 0
M  V30 1615 C 150.933 -3.20758 1.31587 0
M  V30 1616 C 149.994 -3.47063 2.52677 0
M  V30 1617 C 149.227 -4.76481 2.4042 0
M  V30 1618 O 149.45 -5.52341 1.42391 0
M  V30 1619 O 148.384 -5.03367 3.30007 0
M  V30 1620 H 152.21 -1.8488 2.40942 0
M  V30 1621 H 149.795 -0.85647 1.22413 0
M  V30 1622 H 151.677 -4.01913 1.26665 0
M  V30 1623 H 150.352 -3.21438 0.382049 0
M  V30 1624 H 149.259 -2.65873 2.63177 0
M  V30 1625 H 150.592 -3.5119 3.44858 0
M  V30 1626 N 152.244 -1.26651 -0.937939 0
M  V30 1627 C 153.491 -1.12387 -1.6845 0
M  V30 1628 C 153.819 0.332208 -1.91642 0
M  V30 1629 O 153.074 1.2602 -1.49725 0
M  V30 1630 C 153.373 -1.84168 -3.06295 0
M  V30 1631 C 153.039 -3.34056 -3.02849 0
M  V30 1632 C 151.701 -3.74942 -3.01616 0
M  V30 1633 C 154.053 -4.29741 -2.9491 0
M  V30 1634 C 151.381 -5.09894 -2.90215 0
M  V30 1635 C 153.733 -5.64738 -2.8505 0
M  V30 1636 C 152.397 -6.0493 -2.82162 0
M  V30 1637 H 151.667 -0.411252 -0.616403 0
M  V30 1638 H 154.314 -1.57134 -1.09459 0
M  V30 1639 H 152.619 -1.319 -3.6893 0
M  V30 1640 H 154.316 -1.70569 -3.62915 0
M  V30 1641 H 150.906 -3.01534 -3.0459 0
M  V30 1642 H 155.09 -3.99133 -2.94969 0
M  V30 1643 H 150.346 -5.40194 -2.86358 0
M  V30 1644 H 154.52 -6.38561 -2.77872 0
M  V30 1645 H 152.147 -7.09457 -2.73084 0
M  V30 1646 N 153.722 1.14298 -1.08507 0
M  V30 1647 C 154.968 1.85854 -0.826438 0
M  V30 1648 C 155.323 1.81413 0.640878 0
M  V30 1649 O 154.616 1.23463 1.46518 0
M  V30 1650 C 154.81 3.33547 -1.28379 0
M  V30 1651 C 154.639 3.52369 -2.79403 0
M  V30 1652 C 153.409 3.67159 -3.47164 0
M  V30 1653 C 155.607 3.49203 -3.77573 0
M  V30 1654 N 153.589 3.74149 -4.86709 0
M  V30 1655 C 154.96 3.6245 -5.03021 0
M  V30 1656 C 157.015 3.32547 -3.70563 0
M  V30 1657 C 155.718 3.60761 -6.2229 0
M  V30 1658 C 157.744 3.32162 -4.89308 0
M  V30 1659 C 157.106 3.45949 -6.13595 0
M  V30 1660 H 153.205 0.696705 -0.355143 0
M  V30 1661 H 155.789 1.36981 -1.38362 0
M  V30 1662 H 153.96 3.81008 -0.754166 0
M  V30 1663 H 155.692 3.92867 -0.971469 0
M  V30 1664 H 152.447 3.68433 -2.9758 0
M  V30 1665 H 152.871 3.81359 -5.5937 0
M  V30 1666 H 157.513 3.20797 -2.75407 0
M  V30 1667 H 155.231 3.71286 -7.17755 0
M  V30 1668 H 158.817 3.20485 -4.85573 0
M  V30 1669 H 157.697 3.456 -7.03939 0
M  V30 1670 N 155.201 0.870884 1.31352 0
M  V30 1671 C 156.131 0.343096 2.30966 0
M  V30 1672 C 157.112 -0.566507 1.60389 0
M  V30 1673 O 158.297 -0.483336 1.88089 0
M  V30 1674 C 155.427 -0.455487 3.443 0
M  V30 1675 C 154.381 0.361103 4.26474 0
M  V30 1676 C 153.707 -0.563221 5.31725 0
M  V30 1677 C 155.007 1.59566 4.97329 0
M  V30 1678 H 156.701 1.17548 2.75359 0
M  V30 1679 H 154.247 0.566686 1.32381 0
M  V30 1680 H 156.2 -0.83525 4.13039 0
M  V30 1681 H 154.924 -1.32139 2.98675 0
M  V30 1682 H 153.583 0.722825 3.59403 0
M  V30 1683 H 153.231 -1.42643 4.82351 0
M  V30 1684 H 152.931 -0.0207409 5.87596 0
M  V30 1685 H 154.455 -0.939808 6.03324 0
M  V30 1686 H 155.869 1.28728 5.58661 0
M  V30 1687 H 154.266 2.07728 5.63 0
M  V30 1688 H 155.336 2.34798 4.24262 0
M  V30 1689 N 156.679 -1.44442 0.630414 0
M  V30 1690 C 157.956 -1.9549 0.0655657 0
M  V30 1691 C 158.336 -1.5724 -1.40851 0
M  V30 1692 O 157.684 -0.846116 -2.12257 0
M  V30 1693 C 157.894 -3.47812 0.287691 0
M  V30 1694 C 159.242 -4.24216 0.180513 0
M  V30 1695 O 160.266 -3.55526 0.219019 0
M  V30 1696 O 159.125 -5.46434 0.0848493 0
M  V30 1697 H 156.219 -0.826688 -0.0227177 0
M  V30 1698 H 158.765 -1.54496 0.702068 0
M  V30 1699 H 157.537 -3.687 1.31056 0
M  V30 1700 H 157.16 -3.95751 -0.382984 0
M  V30 1701 N 158.157 -0.370918 -1.53173 0
M  V30 1702 C 159.087 0.464847 -2.28826 0
M  V30 1703 C 160.068 1.07936 -1.31468 0
M  V30 1704 O 161.253 1.0956 -1.60344 0
M  V30 1705 C 158.383 1.60196 -3.08147 0
M  V30 1706 C 157.337 1.11443 -4.13237 0
M  V30 1707 C 156.663 2.3422 -4.80672 0
M  V30 1708 C 157.963 0.195384 -5.21934 0
M  V30 1709 H 159.657 -0.166329 -2.98938 0
M  V30 1710 H 157.203 -0.0814359 -1.4377 0
M  V30 1711 H 159.156 2.19332 -3.59822 0
M  V30 1712 H 157.88 2.26045 -2.35735 0
M  V30 1713 H 156.539 0.545727 -3.62515 0
M  V30 1714 H 156.187 2.98537 -4.04827 0
M  V30 1715 H 155.887 2.02269 -5.51689 0
M  V30 1716 H 157.411 2.94032 -5.35143 0
M  V30 1717 H 158.825 0.694375 -5.69079 0
M  V30 1718 H 157.222 -0.0335027 -6.00091 0
M  V30 1719 H 158.292 -0.760961 -4.78892 0
M  V30 1720 N 159.635 1.57281 -0.100228 0
M  V30 1721 C 160.567 2.11342 0.886972 0
M  V30 1722 C 161.58 1.05182 1.24261 0
M  V30 1723 O 162.769 1.32613 1.19483 0
M  V30 1724 C 159.869 2.5825 2.19454 0
M  V30 1725 C 159.042 3.88302 2.01346 0
M  V30 1726 C 158.101 4.21004 3.15661 0
M  V30 1727 O 157.127 4.9014 2.89398 0
M  V30 1728 N 158.329 3.76818 4.41575 0
M  V30 1729 H 161.094 2.96668 0.425216 0
M  V30 1730 H 158.655 1.61678 0.0847334 0
M  V30 1731 H 160.647 2.7717 2.94888 0
M  V30 1732 H 159.217 1.77907 2.57037 0
M  V30 1733 H 158.437 3.7848 1.10212 0
M  V30 1734 H 159.725 4.73375 1.8653 0
M  V30 1735 H 159.123 3.2102 4.65792 0
M  V30 1736 H 157.68 4.00882 5.13942 0
M  V30 1737 N 161.113 -0.173488 1.56642 0
M  V30 1738 C 162.524 -0.736155 1.71574 0
M  V30 1739 C 162.875 -1.82888 0.710389 0
M  V30 1740 O 162 -2.16017 -0.1287 0
M  V30 1741 C 162.595 -1.34211 3.11083 0
M  V30 1742 C 161.154 -1.85162 3.27707 0
M  V30 1743 C 160.301 -0.729765 2.67525 0
M  V30 1744 H 163.252 0.0518786 1.58615 0
M  V30 1745 H 163.273 -2.21178 3.09613 0
M  V30 1746 H 162.785 -0.546579 3.84232 0
M  V30 1747 H 160.886 -2.67366 2.59512 0
M  V30 1748 H 160.999 -1.99855 4.35425 0
M  V30 1749 H 159.363 -1.14965 2.27278 0
M  V30 1750 H 160.146 0.0538806 3.43258 0
M  V30 1751 N 162.591 -1.51276 -0.441967 0
M  V30 1752 C 163.523 -1.68444 -1.55433 0
M  V30 1753 C 164.536 -0.565187 -1.52674 0
M  V30 1754 O 165.725 -0.839356 -1.57534 0
M  V30 1755 C 162.825 -1.67966 -2.94348 0
M  V30 1756 C 161.998 -2.964 -3.21661 0
M  V30 1757 C 161.057 -2.88171 -4.40277 0
M  V30 1758 O 160.083 -3.62119 -4.39157 0
M  V30 1759 N 161.285 -2.03706 -5.43584 0
M  V30 1760 H 164.05 -2.644 -1.41112 0
M  V30 1761 H 161.611 -1.49104 -0.630838 0
M  V30 1762 H 163.603 -1.60035 -3.71713 0
M  V30 1763 H 162.173 -0.796225 -3.0229 0
M  V30 1764 H 161.393 -3.18234 -2.32638 0
M  V30 1765 H 162.681 -3.81427 -3.36736 0
M  V30 1766 H 162.079 -1.42995 -5.47329 0
M  V30 1767 H 160.636 -2.01658 -6.1982 0
M  V30 1768 N 164.069 0.697108 -1.41344 0
M  V30 1769 C 165.032 1.79281 -1.42797 0
M  V30 1770 C 166.032 1.57607 -0.318837 0
M  V30 1771 O 167.222 1.64309 -0.578642 0
M  V30 1772 C 164.354 3.17632 -1.23785 0
M  V30 1773 H 165.547 1.79385 -2.40335 0
M  V30 1774 H 163.1 0.904582 -1.27464 0
M  V30 1775 H 163.835 3.23167 -0.270814 0
M  V30 1776 H 163.62 3.34765 -2.04144 0
M  V30 1777 H 165.11 3.97617 -1.27633 0
M  V30 1778 N 165.547 1.27147 0.931209 0
M  V30 1779 C 166.494 1.09568 2.03134 0
M  V30 1780 C 167.464 -0.00222433 1.661 0
M  V30 1781 O 168.649 0.159439 1.90133 0
M  V30 1782 C 165.789 0.745231 3.36957 0
M  V30 1783 C 164.902 1.92041 3.86968 0
M  V30 1784 C 164.037 1.51216 5.09222 0
M  V30 1785 C 163.076 2.65504 5.5152 0
M  V30 1786 N 162.213 2.25291 6.64972 0
M  V30 1787 H 167.053 2.03708 2.17502 0
M  V30 1788 H 164.59 1.01411 1.06556 0
M  V30 1789 H 166.548 0.522878 4.1391 0
M  V30 1790 H 165.178 -0.159202 3.22407 0
M  V30 1791 H 164.23 2.25541 3.06326 0
M  V30 1792 H 165.542 2.77787 4.1429 0
M  V30 1793 H 164.696 1.25084 5.93666 0
M  V30 1794 H 163.435 0.625749 4.83669 0
M  V30 1795 H 162.44 2.92354 4.65628 0
M  V30 1796 H 163.665 3.54761 5.7907 0
M  V30 1797 H 161.611 1.39098 6.41083 0
M  V30 1798 H 161.528 3.04577 6.91931 0
M  V30 1799 H 162.796 2.02398 7.52765 0
M  V30 1800 N 167.025 -1.13721 1.09112 0
M  V30 1801 C 168.271 -1.85198 0.826414 0
M  V30 1802 C 168.604 -1.83129 -0.646319 0
M  V30 1803 O 167.879 -1.2671 -1.47563 0
M  V30 1804 C 168.162 -3.33507 1.35812 0
M  V30 1805 C 168.015 -3.44108 2.89672 0
M  V30 1806 C 169.334 -4.28838 0.989256 0
M  V30 1807 H 166.453 -0.67243 0.301675 0
M  V30 1808 H 169.095 -1.33499 1.35197 0
M  V30 1809 H 167.245 -3.77666 0.911082 0
M  V30 1810 H 168.917 -3.08684 3.428 0
M  V30 1811 H 167.16 -2.85087 3.26967 0
M  V30 1812 H 167.831 -4.48388 3.21951 0
M  V30 1813 H 170.307 -3.92734 1.37475 0
M  V30 1814 H 169.183 -5.31051 1.38838 0
M  V30 1815 H 169.444 -4.4198 -0.102924 0
M  V30 1816 N 168.503 -0.877838 -1.30888 0
M  V30 1817 C 169.433 -0.35534 -2.3078 0
M  V30 1818 C 170.414 0.557994 -1.60687 0
M  V30 1819 O 171.599 0.473355 -1.88343 0
M  V30 1820 C 168.729 0.437221 -3.44537 0
M  V30 1821 C 167.683 -0.383715 -4.26276 0
M  V30 1822 C 167.009 0.535014 -5.32017 0
M  V30 1823 C 168.309 -1.62201 -4.96476 0
M  V30 1824 H 170.003 -1.19007 -2.74732 0
M  V30 1825 H 167.549 -0.573698 -1.32078 0
M  V30 1826 H 169.502 0.813334 -4.13477 0
M  V30 1827 H 168.226 1.30553 -2.99372 0
M  V30 1828 H 166.885 -0.741874 -3.59015 0
M  V30 1829 H 166.533 1.40083 -4.831 0
M  V30 1830 H 166.233 -0.0104211 -5.87599 0
M  V30 1831 H 167.757 0.907799 -6.03814 0
M  V30 1832 H 169.171 -1.31689 -5.5797 0
M  V30 1833 H 167.568 -2.10711 -5.61891 0
M  V30 1834 H 168.638 -2.37044 -4.23011 0
M  V30 1835 N 169.982 1.44106 -0.638065 0
M  V30 1836 C 170.915 2.27924 0.112161 0
M  V30 1837 C 171.893 1.38945 0.844574 0
M  V30 1838 O 173.077 1.68386 0.847248 0
M  V30 1839 C 170.204 3.18029 1.16512 0
M  V30 1840 C 169.25 4.23163 0.532458 0
M  V30 1841 S 170.083 5.31131 -0.682666 0
M  V30 1842 C 171.239 6.24805 0.37013 0
M  V30 1843 H 171.472 2.91205 -0.598887 0
M  V30 1844 H 169.005 1.48394 -0.426441 0
M  V30 1845 H 170.963 3.70492 1.76766 0
M  V30 1846 H 169.624 2.53955 1.8484 0
M  V30 1847 H 168.817 4.86252 1.32571 0
M  V30 1848 H 168.419 3.74 0.00437644 0
M  V30 1849 H 170.711 6.66042 1.24071 0
M  V30 1850 H 171.654 7.07741 -0.225349 0
M  V30 1851 H 172.062 5.60154 0.699141 0
M  V30 1852 N 171.46 0.379036 1.52974 0
M  V30 1853 C 172.685 -0.209353 2.06341 0
M  V30 1854 C 173.11 -1.40583 1.24972 0
M  V30 1855 O 172.468 -1.79246 0.272155 0
M  V30 1856 C 172.516 -0.567786 3.56102 0
M  V30 1857 O 171.62 -1.66318 3.77375 0
M  V30 1858 H 170.961 -0.0272919 0.663439 0
M  V30 1859 H 173.491 0.543536 1.97248 0
M  V30 1860 H 173.501 -0.835003 3.99364 0
M  V30 1861 H 172.176 0.307013 4.14765 0
M  V30 1862 H 170.753 -1.39048 3.46006 0
M  V30 1863 N 172.938 -1.57226 0.108567 0
M  V30 1864 C 174.184 -1.95121 -0.552761 0
M  V30 1865 C 174.517 -0.991345 -1.66991 0
M  V30 1866 O 173.792 -0.0267211 -1.94482 0
M  V30 1867 C 174.075 -3.43039 -1.09528 0
M  V30 1868 C 173.928 -4.49797 0.0177332 0
M  V30 1869 C 175.247 -3.92567 -1.98945 0
M  V30 1870 H 172.366 -0.709496 -0.199461 0
M  V30 1871 H 175.008 -1.89126 0.182011 0
M  V30 1872 H 173.158 -3.48279 -1.72146 0
M  V30 1873 H 174.83 -4.56661 0.652584 0
M  V30 1874 H 173.073 -4.284 0.682309 0
M  V30 1875 H 173.744 -5.50528 -0.402919 0
M  V30 1876 H 176.22 -3.89565 -1.46214 0
M  V30 1877 H 175.096 -4.96605 -2.33827 0
M  V30 1878 H 175.357 -3.32648 -2.91201 0
M  V30 1879 N 174.416 0.165178 -1.56732 0
M  V30 1880 C 175.348 1.22911 -1.93457 0
M  V30 1881 C 176.361 1.40152 -0.828333 0
M  V30 1882 O 177.55 1.40046 -1.10677 0
M  V30 1883 C 174.65 2.59686 -2.17753 0
M  V30 1884 C 173.823 2.63663 -3.48999 0
M  V30 1885 C 172.882 3.81845 -3.62051 0
M  V30 1886 O 171.908 3.67559 -4.34613 0
M  V30 1887 N 173.11 4.98557 -2.97357 0
M  V30 1888 H 175.875 0.917118 -2.85323 0
M  V30 1889 H 173.436 0.354895 -1.57962 0
M  V30 1890 H 175.428 3.37225 -2.23743 0
M  V30 1891 H 173.998 2.83251 -1.32242 0
M  V30 1892 H 173.218 1.72173 -3.54612 0
M  V30 1893 H 174.506 2.63336 -4.35352 0
M  V30 1894 H 173.904 5.13065 -2.38287 0
M  V30 1895 H 172.461 5.73936 -3.08934 0
M  V30 1896 N 175.894 1.51508 0.433938 0
M  V30 1897 C 177.124 1.67914 1.20369 0
M  V30 1898 C 177.532 0.377461 1.85397 0
M  V30 1899 O 176.875 -0.654255 1.71654 0
M  V30 1900 C 176.937 2.74045 2.32679 0
M  V30 1901 C 176.601 4.16543 1.87991 0
M  V30 1902 C 177.598 5.01211 1.38145 0
M  V30 1903 C 175.283 4.6266 1.95579 0
M  V30 1904 C 177.277 6.30056 0.964774 0
M  V30 1905 C 174.964 5.91501 1.53523 0
M  V30 1906 C 175.962 6.75027 1.04055 0
M  V30 1907 O 175.65 8.01459 0.625964 0
M  V30 1908 H 175.382 0.566578 0.368735 0
M  V30 1909 H 177.936 1.98709 0.51999 0
M  V30 1910 H 176.166 2.38572 3.04336 0
M  V30 1911 H 177.855 2.79295 2.94532 0
M  V30 1912 H 178.621 4.66783 1.31675 0
M  V30 1913 H 174.5 3.97767 2.33029 0
M  V30 1914 H 178.044 6.95202 0.57796 0
M  V30 1915 H 173.941 6.25442 1.59665 0
M  V30 1916 H 174.709 8.15043 0.751509 0
M  V30 1917 N 177.372 -0.689602 1.41712 0
M  V30 1918 C 178.619 -1.44966 1.4139 0
M  V30 1919 C 178.947 -1.94484 0.025105 0
M  V30 1920 O 178.202 -1.70307 -0.964048 0
M  V30 1921 C 178.501 -2.67298 2.37247 0
M  V30 1922 C 178.167 -2.36405 3.83958 0
M  V30 1923 C 176.829 -2.27691 4.23923 0
M  V30 1924 C 179.181 -2.11043 4.76561 0
M  V30 1925 C 176.509 -1.91719 5.54492 0
M  V30 1926 C 178.861 -1.76578 6.07456 0
M  V30 1927 C 177.525 -1.66363 6.46436 0
M  V30 1928 H 176.795 -0.53047 0.517381 0
M  V30 1929 H 179.442 -0.787655 1.74552 0
M  V30 1930 H 177.747 -3.38461 1.9736 0
M  V30 1931 H 179.444 -3.25452 2.34269 0
M  V30 1932 H 176.034 -2.44085 3.52308 0
M  V30 1933 H 180.218 -2.16717 4.46483 0
M  V30 1934 H 175.474 -1.82367 5.83568 0
M  V30 1935 H 179.648 -1.55974 6.78708 0
M  V30 1936 H 177.275 -1.38258 7.47522 0
M  V30 1937 N 178.85 -1.27639 -0.924453 0
M  V30 1938 C 179.78 -1.13166 -2.04244 0
M  V30 1939 C 180.761 -0.032256 -1.70069 0
M  V30 1940 O 181.946 -0.207328 -1.9309 0
M  V30 1941 C 179.076 -0.781496 -3.38393 0
M  V30 1942 C 178.03 -1.83449 -3.86692 0
M  V30 1943 C 177.356 -1.33822 -5.17683 0
M  V30 1944 C 178.656 -3.23917 -4.09726 0
M  V30 1945 H 180.35 -2.06689 -2.1661 0
M  V30 1946 H 177.896 -0.995136 -1.04082 0
M  V30 1947 H 179.849 -0.667057 -4.16087 0
M  V30 1948 H 178.573 0.189439 -3.2605 0
M  V30 1949 H 177.232 -1.93789 -3.11193 0
M  V30 1950 H 176.88 -0.35665 -5.01734 0
M  V30 1951 H 176.58 -2.04224 -5.50968 0
M  V30 1952 H 178.104 -1.23679 -5.97943 0
M  V30 1953 H 179.518 -3.16559 -4.77978 0
M  V30 1954 H 177.915 -3.92059 -4.54324 0
M  V30 1955 H 178.985 -3.68729 -3.14908 0
M  V30 1956 N 180.328 1.1314 -1.09713 0
M  V30 1957 C 181.238 2.22242 -0.751367 0
M  V30 1958 C 182.254 1.72224 0.247938 0
M  V30 1959 O 183.43 2.01205 0.0885463 0
M  V30 1960 C 180.495 3.46231 -0.180274 0
M  V30 1961 C 179.556 4.11125 -1.2359 0
M  V30 1962 C 178.789 5.29195 -0.691966 0
M  V30 1963 O 179.012 5.68342 0.48414 0
M  V30 1964 O 177.946 5.84214 -1.44838 0
M  V30 1965 H 181.772 2.54197 -1.66186 0
M  V30 1966 H 179.357 1.21331 -0.871735 0
M  V30 1967 H 181.239 4.21185 0.134739 0
M  V30 1968 H 179.914 3.1597 0.703185 0
M  V30 1969 H 178.821 3.37985 -1.60366 0
M  V30 1970 H 180.154 4.45524 -2.09211 0
M  V30 1971 N 181.806 0.884767 1.30421 0
M  V30 1972 C 183.083 0.423185 1.90967 0
M  V30 1973 C 183.463 -1.09605 1.80416 0
M  V30 1974 O 182.811 -1.93126 1.22125 0
M  V30 1975 C 183.021 0.921056 3.36627 0
M  V30 1976 C 184.369 0.955903 4.137 0
M  V30 1977 O 185.393 0.867706 3.4547 0
M  V30 1978 O 184.252 1.08614 5.35598 0
M  V30 1979 H 181.346 0.129369 0.816819 0
M  V30 1980 H 183.892 0.973653 1.3899 0
M  V30 1981 H 182.664 1.96489 3.3839 0
M  V30 1982 H 182.287 0.349741 3.96059 0
M  V30 1983 N 183.284 -1.43765 0.645699 0
M  V30 1984 C 184.53 -2.02197 0.156271 0
M  V30 1985 C 184.863 -1.50776 -1.22393 0
M  V30 1986 O 184.138 -0.697771 -1.81553 0
M  V30 1987 C 184.421 -3.59749 0.158872 0
M  V30 1988 C 184.274 -4.21419 1.57245 0
M  V30 1989 C 185.593 -4.37149 -0.50879 0
M  V30 1990 H 182.712 -0.734694 0.0582602 0
M  V30 1991 H 185.354 -1.71157 0.824951 0
M  V30 1992 H 183.504 -3.86325 -0.410525 0
M  V30 1993 H 185.176 -4.059 2.19186 0
M  V30 1994 H 183.419 -3.78356 2.122 0
M  V30 1995 H 184.09 -5.30482 1.52619 0
M  V30 1996 H 186.566 -4.16093 -0.024412 0
M  V30 1997 H 185.442 -5.4683 -0.476213 0
M  V30 1998 H 185.703 -4.12839 -1.58165 0
M  V30 1999 N 184.763 -0.387143 -1.52771 0
M  V30 2000 C 186.04 0.253197 -1.93954 0
M  V30 2001 C 186.42 1.64545 -1.32243 0
M  V30 2002 O 185.768 2.23191 -0.489699 0
M  V30 2003 C 185.978 0.281722 -3.47861 0
M  V30 2004 C 187.326 0.511715 -4.21505 0
M  V30 2005 O 188.35 0.362023 -3.54356 0
M  V30 2006 O 187.209 0.804847 -5.40541 0
M  V30 2007 H 184.303 0.156845 -0.811991 0
M  V30 2008 H 186.849 -0.441494 -1.63856 0
M  V30 2009 H 185.621 -0.693571 -3.85104 0
M  V30 2010 H 185.244 1.02142 -3.84256 0
M  V30 2011 N 186.241 1.57166 -0.116904 0
M  V30 2012 C 187.481 1.97008 0.544715 0
M  V30 2013 C 187.845 0.998713 1.63981 0
M  V30 2014 O 189.046 1.28644 2.36018 0
M  V30 2015 C 187.317 3.41145 1.06559 0
M  V30 2016 S 188.876 4.02998 1.73603 0
M  V30 2017 H 185.694 0.688587 0.177112 0
M  V30 2018 H 188.296 1.94459 -0.201487 0
M  V30 2019 H 187 4.09592 0.257374 0
M  V30 2020 H 186.531 3.4734 1.84712 0
M  V30 2021 H 188.546 3.93585 3.02168 0
M  V30 2022 N 187.719 -0.156864 1.56817 0
M  V30 2023 C 188.666 -1.19394 1.97519 0
M  V30 2024 C 189.636 -1.4322 0.841265 0
M  V30 2025 O 190.821 -1.55719 1.10255 0
M  V30 2026 C 187.961 -2.52483 2.35258 0
M  V30 2027 C 187.074 -2.35914 3.61896 0
M  V30 2028 C 186.209 -3.61969 3.88782 0
M  V30 2029 C 185.248 -3.40395 5.08722 0
M  V30 2030 N 184.385 -4.58556 5.31668 0
M  V30 2031 H 189.225 -0.839845 2.85921 0
M  V30 2032 H 186.762 -0.403264 1.41464 0
M  V30 2033 H 188.72 -3.30071 2.55165 0
M  V30 2034 H 187.35 -2.85859 1.49949 0
M  V30 2035 H 186.402 -1.49429 3.49821 0
M  V30 2036 H 187.714 -2.15926 4.49641 0
M  V30 2037 H 186.868 -4.47989 4.09135 0
M  V30 2038 H 185.607 -3.84951 2.9944 0
M  V30 2039 H 184.612 -2.52763 4.88253 0
M  V30 2040 H 185.837 -3.18822 5.99608 0
M  V30 2041 H 183.783 -4.81729 4.45279 0
M  V30 2042 H 183.7 -4.41535 6.13664 0
M  V30 2043 H 184.968 -5.45817 5.5651 0
M  V30 2044 N 189.197 -1.51736 -0.425897 0
M  V30 2045 C 190.129 -1.70083 -1.53638 0
M  V30 2046 C 191.142 -0.581349 -1.52066 0
M  V30 2047 O 192.331 -0.856017 -1.56635 0
M  V30 2048 C 189.431 -1.71078 -2.9255 0
M  V30 2049 C 188.604 -2.99795 -3.185 0
M  V30 2050 C 187.663 -2.92825 -4.37196 0
M  V30 2051 O 186.689 -3.66756 -4.35291 0
M  V30 2052 N 187.891 -2.0946 -5.41393 0
M  V30 2053 H 190.656 -2.65882 -1.383 0
M  V30 2054 H 188.217 -1.49765 -0.614988 0
M  V30 2055 H 190.209 -1.63969 -3.69995 0
M  V30 2056 H 188.779 -0.828242 -3.01428 0
M  V30 2057 H 187.999 -3.20684 -2.2925 0
M  V30 2058 H 189.287 -3.84977 -3.32671 0
M  V30 2059 H 188.685 -1.48792 -5.45781 0
M  V30 2060 H 187.242 -2.08221 -6.17647 0
M  V30 2061 N 190.675 0.682077 -1.42076 0
M  V30 2062 C 191.9 1.47558 -1.45744 0
M  V30 2063 C 192.325 1.87977 -0.0680981 0
M  V30 2064 O 191.683 1.55522 0.9318 0
M  V30 2065 C 191.731 2.70575 -2.38373 0
M  V30 2066 O 190.835 3.68573 -1.85007 0
M  V30 2067 H 190.176 0.443585 -0.494093 0
M  V30 2068 H 192.706 0.837238 -1.86686 0
M  V30 2069 H 192.716 3.18729 -2.54707 0
M  V30 2070 H 191.391 2.40495 -3.39315 0
M  V30 2071 H 189.968 3.2757 -1.78192 0
M  V30 2072 N 192.153 1.28127 0.917671 0
M  V30 2073 C 193.086 1.06039 2.02067 0
M  V30 2074 C 194.064 -0.0223285 1.62585 0
M  V30 2075 O 195.248 0.124823 1.88086 0
M  V30 2076 C 192.375 0.610596 3.33151 0
M  V30 2077 C 191.421 1.68937 3.91615 0
M  V30 2078 S 192.254 3.28437 4.22953 0
M  V30 2079 C 193.41 2.85283 5.57103 0
M  V30 2080 H 193.643 1.99425 2.20493 0
M  V30 2081 H 191.176 1.12071 1.06205 0
M  V30 2082 H 193.134 0.357778 4.08938 0
M  V30 2083 H 191.795 -0.303364 3.12632 0
M  V30 2084 H 190.988 1.32619 4.86239 0
M  V30 2085 H 190.59 1.89478 3.2245 0
M  V30 2086 H 192.882 2.3121 6.36827 0
M  V30 2087 H 193.825 3.7869 5.98331 0
M  V30 2088 H 194.233 2.24118 5.18104 0
M  V30 2089 N 193.631 -1.12557 1.10312 0
M  V30 2090 C 195.047 -1.36036 0.834649 0
M  V30 2091 C 195.247 -1.93946 -0.546539 0
M  V30 2092 O 194.303 -2.16484 -1.29966 0
M  V30 2093 C 195.616 -2.30312 1.9333 0
M  V30 2094 C 197.164 -2.43906 1.9616 0
M  V30 2095 C 197.639 -3.41496 3.05195 0
M  V30 2096 N 199.13 -3.49053 3.04494 0
M  V30 2097 C 199.865 -4.24471 3.85502 0
M  V30 2098 N 199.361 -5.02966 4.76442 0
M  V30 2099 N 201.154 -4.19864 3.73725 0
M  V30 2100 H 193.305 -0.733246 1.99342 0
M  V30 2101 H 195.568 -0.385234 0.866198 0
M  V30 2102 H 195.274 -1.94933 2.92735 0
M  V30 2103 H 195.148 -3.30421 1.81939 0
M  V30 2104 H 197.535 -2.78567 0.973886 0
M  V30 2105 H 197.616 -1.4369 2.11629 0
M  V30 2106 H 197.26 -3.07565 4.04186 0
M  V30 2107 H 197.19 -4.41539 2.86968 0
M  V30 2108 H 199.681 -2.93053 2.38596 0
M  V30 2109 H 199.994 -5.57846 5.34815 0
M  V30 2110 H 198.339 -5.02167 4.80472 0
M  V30 2111 H 201.53 -3.57623 3.02032 0
M  V30 2112 H 201.703 -4.78386 4.37093 0
M  V30 2113 N 195.109 -0.891671 -1.2995 0
M  V30 2114 C 196.334 -0.527932 -2.00568 0
M  V30 2115 C 196.759 0.877969 -1.66353 0
M  V30 2116 O 196.117 1.58301 -0.883762 0
M  V30 2117 C 196.165 -0.717745 -3.53385 0
M  V30 2118 O 195.269 0.233376 -4.11739 0
M  V30 2119 H 194.61 -0.20722 -0.630837 0
M  V30 2120 H 197.14 -1.20105 -1.65638 0
M  V30 2121 H 197.15 -0.619307 -4.03272 0
M  V30 2122 H 195.825 -1.74276 -3.77625 0
M  V30 2123 H 194.402 0.0880706 -3.72796 0
M  V30 2124 N 196.587 1.43421 -0.653314 0
M  V30 2125 C 197.497 2.34568 0.0388565 0
M  V30 2126 C 198.513 1.53888 0.81207 0
M  V30 2127 O 199.689 1.86539 0.759294 0
M  V30 2128 C 196.754 3.32167 0.993269 0
M  V30 2129 C 195.815 4.28751 0.216977 0
M  V30 2130 C 195.048 5.21688 1.12593 0
M  V30 2131 O 195.271 5.19052 2.36519 0
M  V30 2132 O 194.205 5.98919 0.598284 0
M  V30 2133 H 198.031 2.95251 -0.711386 0
M  V30 2134 H 195.616 1.43564 -0.413502 0
M  V30 2135 H 197.498 3.92183 1.54176 0
M  V30 2136 H 196.173 2.73987 1.72374 0
M  V30 2137 H 195.08 3.72215 -0.375101 0
M  V30 2138 H 196.413 4.89913 -0.473924 0
M  V30 2139 N 198.065 0.39524 1.52563 0
M  V30 2140 C 199.342 -0.242908 1.94086 0
M  V30 2141 C 199.722 -1.63841 1.33114 0
M  V30 2142 O 199.07 -2.22928 0.501529 0
M  V30 2143 C 199.28 -0.26327 3.48006 0
M  V30 2144 C 200.628 -0.489354 4.21771 0
M  V30 2145 O 201.652 -0.343226 3.54543 0
M  V30 2146 O 200.511 -0.776169 5.4096 0
M  V30 2147 H 197.605 -0.152536 0.812811 0
M  V30 2148 H 200.151 0.450178 1.6362 0
M  V30 2149 H 198.923 0.713985 3.84731 0
M  V30 2150 H 198.546 -1.00103 3.84792 0
M  V30 2151 N 199.544 -1.57102 0.125237 0
M  V30 2152 C 200.454 -2.19191 -0.8362 0
M  V30 2153 C 201.47 -1.16985 -1.28805 0
M  V30 2154 O 202.646 -1.49479 -1.34974 0
M  V30 2155 C 199.711 -2.78407 -2.06617 0
M  V30 2156 C 198.772 -3.9567 -1.66565 0
M  V30 2157 C 198.005 -4.52052 -2.83698 0
M  V30 2158 O 198.228 -4.07326 -3.99302 0
M  V30 2159 O 197.162 -5.42645 -2.60423 0
M  V30 2160 H 200.988 -3.01816 -0.337776 0
M  V30 2161 H 198.573 -1.4906 -0.100695 0
M  V30 2162 H 200.455 -3.16129 -2.7864 0
M  V30 2163 H 199.13 -1.9881 -2.55453 0
M  V30 2164 H 198.037 -3.62705 -0.916296 0
M  V30 2165 H 199.37 -4.76722 -1.22464 0
M  V30 2166 N 201.022 0.148545 -1.56898 0
M  V30 2167 C 201.985 1.16736 -1.97244 0
M  V30 2168 C 202.985 1.35947 -0.858777 0
M  V30 2169 O 204.175 1.32966 -1.12542 0
M  V30 2170 C 201.307 2.52798 -2.28705 0
M  V30 2171 H 202.5 0.821279 -2.88435 0
M  V30 2172 H 200.053 0.391831 -1.51309 0
M  V30 2173 H 200.788 2.92381 -1.403 0
M  V30 2174 H 200.573 2.40216 -3.09901 0
M  V30 2175 H 202.063 3.26179 -2.60762 0
M  V30 2176 N 202.5 1.5196 0.417844 0
M  V30 2177 C 203.447 1.74678 1.50852 0
M  V30 2178 C 204.417 0.588947 1.55308 0
M  V30 2179 O 205.602 0.825544 1.72016 0
M  V30 2180 C 202.742 1.89544 2.88387 0
M  V30 2181 C 201.855 3.17166 2.93309 0
M  V30 2182 C 200.99 3.22513 4.22088 0
M  V30 2183 C 200.029 4.44372 4.20951 0
M  V30 2184 N 199.166 4.47161 5.41287 0
M  V30 2185 H 204.006 2.67768 1.30783 0
M  V30 2186 H 201.543 1.32689 0.63498 0
M  V30 2187 H 203.501 1.96146 3.68216 0
M  V30 2188 H 202.131 0.998424 3.06971 0
M  V30 2189 H 201.183 3.19778 2.06024 0
M  V30 2190 H 202.495 4.07021 2.88332 0
M  V30 2191 H 201.649 3.28139 5.10303 0
M  V30 2192 H 200.388 2.30581 4.29748 0
M  V30 2193 H 199.393 4.38902 3.31127 0
M  V30 2194 H 200.618 5.3759 4.14938 0
M  V30 2195 H 198.564 3.58108 5.49632 0
M  V30 2196 H 198.481 5.3085 5.3827 0
M  V30 2197 H 199.749 4.57005 6.3148 0
M  V30 2198 N 203.978 -0.674533 1.42435 0
M  V30 2199 C 205.225 -1.43459 1.42919 0
M  V30 2200 C 205.553 -1.94446 0.0457312 0
M  V30 2201 O 204.808 -1.7132 -0.94593 0
M  V30 2202 C 205.107 -2.64767 2.40069 0
M  V30 2203 C 204.773 -2.3232 3.86443 0
M  V30 2204 C 203.435 -2.23182 4.26314 0
M  V30 2205 C 205.787 -2.05977 4.78773 0
M  V30 2206 C 203.115 -1.85827 5.56494 0
M  V30 2207 C 205.467 -1.70125 6.09295 0
M  V30 2208 C 204.131 -1.59498 6.48164 0
M  V30 2209 H 203.401 -0.524952 0.522978 0
M  V30 2210 H 206.048 -0.769097 1.75377 0
M  V30 2211 H 204.353 -3.36349 2.00939 0
M  V30 2212 H 206.05 -3.22949 2.37707 0
M  V30 2213 H 202.64 -2.40334 3.54877 0
M  V30 2214 H 206.824 -2.11969 4.48757 0
M  V30 2215 H 202.08 -1.76168 5.8547 0
M  V30 2216 H 206.254 -1.48767 6.80324 0
M  V30 2217 H 203.881 -1.30322 7.48946 0
M  V30 2218 N 205.456 -1.28612 -0.910864 0
M  V30 2219 C 206.867 -1.14406 -1.47541 0
M  V30 2220 C 207.218 0.264901 -1.94403 0
M  V30 2221 O 206.343 1.15942 -1.82719 0
M  V30 2222 C 206.938 -2.07073 -2.68153 0
M  V30 2223 C 205.497 -1.96923 -3.20778 0
M  V30 2224 C 204.644 -1.98646 -1.93481 0
M  V30 2225 H 207.595 -1.41259 -0.723291 0
M  V30 2226 H 207.616 -1.63642 -3.43514 0
M  V30 2227 H 207.128 -3.09611 -2.34015 0
M  V30 2228 H 205.229 -0.97433 -3.59635 0
M  V30 2229 H 205.342 -2.84026 -3.85832 0
M  V30 2230 H 203.706 -1.43093 -2.10705 0
M  V30 2231 H 204.489 -3.02868 -1.61634 0
M  V30 2232 N 206.934 1.1197 -1.10907 0
M  V30 2233 C 208.162 1.87402 -0.876824 0
M  V30 2234 C 208.577 1.79894 0.573025 0
M  V30 2235 O 207.934 1.17629 1.39534 0
M  V30 2236 C 207.985 3.36428 -1.32282 0
M  V30 2237 O 207.706 3.43765 -2.71582 0
M  V30 2238 C 209.207 4.28783 -1.12518 0
M  V30 2239 H 206.427 0.592793 -0.314384 0
M  V30 2240 H 208.971 1.41649 -1.47499 0
M  V30 2241 H 207.126 3.79706 -0.768229 0
M  V30 2242 H 207.54 4.3652 -2.90776 0
M  V30 2243 H 209.014 5.31613 -1.48633 0
M  V30 2244 H 209.491 4.39153 -0.0642394 0
M  V30 2245 H 210.097 3.91291 -1.66648 0
M  V30 2246 N 208.412 0.89855 1.29475 0
M  V30 2247 C 209.345 0.319981 2.25945 0
M  V30 2248 C 210.323 -0.567189 1.52387 0
M  V30 2249 O 211.507 -0.514254 1.8135 0
M  V30 2250 C 208.634 -0.544013 3.34303 0
M  V30 2251 C 207.68 0.275682 4.25608 0
M  V30 2252 S 208.513 1.67272 5.08704 0
M  V30 2253 C 209.669 0.815621 6.20563 0
M  V30 2254 H 209.902 1.13767 2.74671 0
M  V30 2255 H 207.435 0.69882 1.3768 0
M  V30 2256 H 209.393 -1.03673 3.97193 0
M  V30 2257 H 208.054 -1.33593 2.84274 0
M  V30 2258 H 207.247 -0.384263 5.02533 0
M  V30 2259 H 206.849 0.701496 3.67362 0
M  V30 2260 H 209.141 0.0385042 6.77489 0
M  V30 2261 H 210.084 1.55691 6.90772 0
M  V30 2262 H 210.492 0.370516 5.63283 0
M  V30 2263 N 209.89 -1.43072 0.660911 0
M  V30 2264 C 210.838 -2.32569 -0.0378199 0
M  V30 2265 C 211.832 -1.49046 -0.805092 0
M  V30 2266 O 213.038 -1.65206 -0.714624 0
M  V30 2267 H 209.413 -0.75136 -0.031019 0
M  V30 2268 H 211.384 -2.89216 0.734609 0
M  V30 2269 C 210.133 -3.33453 -0.985124 0
M  V30 2270 H 209.456 -3.97752 -0.404147 0
M  V30 2271 H 210.896 -3.98691 -1.44297 0
M  V30 2272 C 209.355 -2.64642 -2.08486 0
M  V30 2273 O 209.885 -2.46776 -3.16961 0
M  V30 2274 N 208.091 -2.23891 -1.8526 0
M  V30 2275 H 207.638 -2.38621 -0.970449 0
M  V30 2276 H 207.596 -1.78181 -2.59034 0
M  V30 2277 N 211.368 -0.403325 -1.52352 0
M  V30 2278 C 212.784 -0.0539281 -1.59509 0
M  V30 2279 C 212.984 1.43307 -1.41652 0
M  V30 2280 O 212.04 2.19924 -1.24056 0
M  V30 2281 C 213.353 -0.543654 -2.95745 0
M  V30 2282 C 214.901 -0.501125 -3.08962 0
M  V30 2283 C 215.376 -0.967267 -4.47669 0
M  V30 2284 N 216.867 -0.923849 -4.53893 0
M  V30 2285 C 217.602 -1.25578 -5.5948 0
M  V30 2286 N 217.098 -1.65889 -6.72646 0
M  V30 2287 N 218.891 -1.17613 -5.49658 0
M  V30 2288 H 211.042 -1.37123 -1.62206 0
M  V30 2289 H 213.305 -0.56294 -0.76276 0
M  V30 2290 H 213.011 -1.58275 -3.14073 0
M  V30 2291 H 212.885 0.0498042 -3.77167 0
M  V30 2292 H 215.272 0.528909 -2.90321 0
M  V30 2293 H 215.353 -1.13056 -2.2946 0
M  V30 2294 H 214.997 -1.9956 -4.67053 0
M  V30 2295 H 214.927 -0.314698 -5.25659 0
M  V30 2296 H 217.418 -0.627403 -3.72655 0
M  V30 2297 H 217.731 -1.89543 -7.49195 0
M  V30 2298 H 216.076 -1.69787 -6.73942 0
M  V30 2299 H 219.267 -0.860115 -4.6013 0
M  V30 2300 H 219.44 -1.43812 -6.3184 0
M  V30 2301 N 212.846 1.57033 -0.133567 0
M  V30 2302 C 214.262 1.58035 0.222944 0
M  V30 2303 C 214.462 1.14713 1.6566 0
M  V30 2304 O 213.518 0.841218 2.38075 0
M  V30 2305 C 214.831 3.00691 -0.0236116 0
M  V30 2306 C 216.379 3.12973 0.0411512 0
M  V30 2307 C 216.854 4.57654 -0.177899 0
M  V30 2308 N 218.345 4.63033 -0.124365 0
M  V30 2309 C 219.08 5.72771 -0.268553 0
M  V30 2310 N 218.576 6.91206 -0.46972 0
M  V30 2311 N 220.369 5.61718 -0.2071 0
M  V30 2312 H 212.52 1.8349 -1.06981 0
M  V30 2313 H 214.783 0.848677 -0.422436 0
M  V30 2314 H 214.489 3.36726 -1.0153 0
M  V30 2315 H 214.363 3.70614 0.701808 0
M  V30 2316 H 216.75 2.76787 1.02338 0
M  V30 2317 H 216.831 2.45564 -0.716383 0
M  V30 2318 H 216.475 4.94542 -1.15717 0
M  V30 2319 H 216.405 5.23173 0.599797 0
M  V30 2320 H 218.896 3.7789 0.027011 0
M  V30 2321 H 219.209 7.70693 -0.570212 0
M  V30 2322 H 217.554 6.93156 -0.505876 0
M  V30 2323 H 220.745 4.68072 -0.0507986 0
M  V30 2324 H 220.918 6.47195 -0.322909 0
M  V30 2325 N 214.325 -0.140222 1.56975 0
M  V30 2326 C 215.573 -0.850005 1.83356 0
M  V30 2327 C 215.894 -1.81399 0.71551 0
M  V30 2328 O 215.164 -1.94136 -0.262294 0
M  V30 2329 H 213.744 -0.316886 0.676456 0
M  V30 2330 H 216.406 -0.132608 1.94448 0
M  V30 2331 H 215.502 -1.40814 2.78528 0
M  V30 2332 N 215.803 -1.52179 -0.40978 0
M  V30 2333 C 216.766 -1.74853 -1.48186 0
M  V30 2334 C 217.766 -0.618417 -1.48433 0
M  V30 2335 O 218.956 -0.886286 -1.49969 0
M  V30 2336 C 216.088 -1.8303 -2.87598 0
M  V30 2337 H 217.281 -2.70559 -1.29374 0
M  V30 2338 H 214.834 -1.42586 -0.640233 0
M  V30 2339 H 215.569 -0.89236 -3.11781 0
M  V30 2340 H 215.354 -2.65187 -2.88822 0
M  V30 2341 H 216.844 -2.02316 -3.65319 0
M  V30 2342 N 217.281 0.66697 -1.42791 0
M  V30 2343 C 218.53 1.42278 -1.42968 0
M  V30 2344 C 218.843 1.9553 -0.0524489 0
M  V30 2345 O 220.049 2.71414 0.068363 0
M  V30 2346 C 218.505 2.57418 -2.51524 0
M  V30 2347 C 218.113 2.10832 -3.9529 0
M  V30 2348 C 219.857 3.34878 -2.60877 0
M  V30 2349 C 217.764 3.23101 -4.95338 0
M  V30 2350 H 216.694 0.534533 -0.531781 0
M  V30 2351 H 219.345 0.721302 -1.68729 0
M  V30 2352 H 217.727 3.29971 -2.18941 0
M  V30 2353 H 218.901 1.4538 -4.37266 0
M  V30 2354 H 217.216 1.46289 -3.89857 0
M  V30 2355 H 219.813 4.18505 -3.32802 0
M  V30 2356 H 220.156 3.81993 -1.6549 0
M  V30 2357 H 220.689 2.69398 -2.92693 0
M  V30 2358 H 217.428 2.80969 -5.9223 0
M  V30 2359 H 216.948 3.87309 -4.57987 0
M  V30 2360 H 218.627 3.88447 -5.17415 0
M  V30 2361 N 218.759 1.29093 0.90403 0
M  V30 2362 C 219.706 1.13853 2.00764 0
M  V30 2363 C 220.676 0.0330084 1.66067 0
M  V30 2364 O 221.861 0.199733 1.89752 0
M  V30 2365 C 219.001 0.816537 3.35301 0
M  V30 2366 C 218.114 2.00206 3.82807 0
M  V30 2367 C 217.249 1.61983 5.059 0
M  V30 2368 C 216.288 2.77143 5.45764 0
M  V30 2369 N 215.425 2.39346 6.60044 0
M  V30 2370 H 220.265 2.08276 2.13132 0
M  V30 2371 H 217.802 1.03648 1.04381 0
M  V30 2372 H 219.76 0.610557 4.12708 0
M  V30 2373 H 218.39 -0.090779 3.22672 0
M  V30 2374 H 217.442 2.31988 3.01473 0
M  V30 2375 H 218.754 2.86512 4.08304 0
M  V30 2376 H 217.908 1.37649 5.90879 0
M  V30 2377 H 216.647 0.728202 4.82233 0
M  V30 2378 H 215.652 3.02165 4.59322 0
M  V30 2379 H 216.877 3.66964 5.71414 0
M  V30 2380 H 214.823 1.52665 6.37989 0
M  V30 2381 H 214.74 3.19185 6.85315 0
M  V30 2382 H 216.008 2.1832 7.48303 0
M  V30 2383 N 220.237 -1.11381 1.11499 0
M  V30 2384 C 221.169 -2.17207 0.731704 0
M  V30 2385 C 222.182 -1.61066 -0.236957 0
M  V30 2386 O 223.371 -1.78489 -0.0197591 0
M  V30 2387 C 220.471 -3.38846 0.0607624 0
M  V30 2388 C 219.644 -4.24451 1.0564 0
M  V30 2389 C 218.703 -5.24562 0.4149 0
M  V30 2390 O 217.729 -5.59071 1.069 0
M  V30 2391 N 218.931 -5.74651 -0.821943 0
M  V30 2392 H 221.696 -2.50699 1.64225 0
M  V30 2393 H 219.257 -1.26908 1.00529 0
M  V30 2394 H 221.249 -4.02911 -0.380139 0
M  V30 2395 H 219.819 -3.03411 -0.752376 0
M  V30 2396 H 219.039 -3.56833 1.67524 0
M  V30 2397 H 220.327 -4.78486 1.72998 0
M  V30 2398 H 219.725 -5.48797 -1.37252 0
M  V30 2399 H 218.282 -6.40549 -1.20582 0
M  V30 2400 N 221.715 -0.905404 -1.28997 0
M  V30 2401 C 222.678 -0.392253 -2.25819 0
M  V30 2402 C 223.678 0.476753 -1.5357 0
M  V30 2403 O 224.868 0.280994 -1.71919 0
M  V30 2404 C 222 0.438588 -3.38067 0
M  V30 2405 H 223.193 -1.24743 -2.72725 0
M  V30 2406 H 220.746 -0.684051 -1.40536 0
M  V30 2407 H 221.481 1.31352 -2.96508 0
M  V30 2408 H 221.266 -0.184167 -3.91667 0
M  V30 2409 H 222.756 0.78873 -4.10084 0
M  V30 2410 N 223.193 1.4272 -0.668489 0
M  V30 2411 C 224.14 2.30796 0.0137489 0
M  V30 2412 C 225.11 1.4561 0.799177 0
M  V30 2413 O 226.295 1.74453 0.772702 0
M  V30 2414 C 223.435 3.31377 0.963507 0
M  V30 2415 C 222.548 4.31655 0.172569 0
M  V30 2416 C 221.683 5.19312 1.1175 0
M  V30 2417 C 220.722 6.11274 0.317886 0
M  V30 2418 N 219.859 6.91504 1.2152 0
M  V30 2419 H 224.699 2.88585 -0.743161 0
M  V30 2420 H 222.236 1.42154 -0.378226 0
M  V30 2421 H 224.194 3.88214 1.52792 0
M  V30 2422 H 222.824 2.75202 1.68712 0
M  V30 2423 H 221.876 3.76988 -0.508374 0
M  V30 2424 H 223.188 4.96779 -0.448527 0
M  V30 2425 H 222.342 5.80851 1.75206 0
M  V30 2426 H 221.081 4.5435 1.77249 0
M  V30 2427 H 220.086 5.48809 -0.329918 0
M  V30 2428 H 221.311 6.78283 -0.332917 0
M  V30 2429 H 219.257 6.29176 1.85671 0
M  V30 2430 H 219.174 7.53209 0.649036 0
M  V30 2431 H 220.442 7.57535 1.83742 0
M  V30 2432 N 224.671 0.411399 1.52136 0
M  V30 2433 C 225.92 -0.165009 2.01024 0
M  V30 2434 C 226.233 -1.4603 1.30133 0
M  V30 2435 O 227.439 -2.1181 1.69849 0
M  V30 2436 C 225.895 -0.344618 3.58246 0
M  V30 2437 C 225.503 0.938716 4.38055 0
M  V30 2438 C 227.247 -0.876195 4.15359 0
M  V30 2439 C 225.154 0.726172 5.86925 0
M  V30 2440 H 224.084 -0.0654407 0.751155 0
M  V30 2441 H 226.735 0.537192 1.75461 0
M  V30 2442 H 225.117 -1.10921 3.80148 0
M  V30 2443 H 226.291 1.70963 4.27912 0
M  V30 2444 H 224.606 1.39688 3.92271 0
M  V30 2445 H 227.203 -1.05128 5.24263 0
M  V30 2446 H 227.546 -1.85152 3.7286 0
M  V30 2447 H 228.079 -0.170607 3.97434 0
M  V30 2448 H 224.818 1.67312 6.33788 0
M  V30 2449 H 224.338 -0.00540283 5.998 0
M  V30 2450 H 226.017 0.369231 6.45946 0
M  V30 2451 N 226.149 -1.5696 0.141893 0
M  V30 2452 C 227.099 -2.13074 -0.811383 0
M  V30 2453 C 228.083 -1.05726 -1.21288 0
M  V30 2454 O 229.275 -1.31914 -1.18015 0
M  V30 2455 C 226.404 -2.75186 -2.0525 0
M  V30 2456 C 225.49 -3.8965 -1.67432 0
M  V30 2457 N 225.881 -4.95733 -1.0041 0
M  V30 2458 C 224.179 -4.00262 -1.96739 0
M  V30 2459 C 224.88 -5.75858 -0.822345 0
M  V30 2460 N 223.856 -5.26452 -1.3546 0
M  V30 2461 H 227.658 -2.92465 -0.290031 0
M  V30 2462 H 225.172 -1.6229 -0.0598218 0
M  V30 2463 H 227.169 -3.13745 -2.74535 0
M  V30 2464 H 225.829 -1.97266 -2.57907 0
M  V30 2465 H 226.84 -5.13607 -0.665441 0
M  V30 2466 H 223.517 -3.33412 -2.51282 0
M  V30 2467 H 224.907 -6.71254 -0.294496 0
M  V30 2468 N 227.627 0.131896 -1.57047 0
M  V30 2469 C 228.857 0.855219 -1.88068 0
M  V30 2470 C 229.265 1.74557 -0.729817 0
M  V30 2471 O 228.608 1.81083 0.308962 0
M  V30 2472 C 228.67 1.75119 -3.13964 0
M  V30 2473 C 228.334 1.03646 -4.45091 0
M  V30 2474 C 229.331 0.383276 -5.18485 0
M  V30 2475 C 227.016 1.02148 -4.91804 0
M  V30 2476 C 229.01 -0.275347 -6.36805 0
M  V30 2477 C 226.697 0.359047 -6.10044 0
M  V30 2478 C 227.695 -0.288222 -6.82392 0
M  V30 2479 O 227.383 -0.94011 -7.98384 0
M  V30 2480 H 227.115 0.251864 -0.627328 0
M  V30 2481 H 229.669 0.124782 -2.05021 0
M  V30 2482 H 227.899 2.52295 -2.9306 0
M  V30 2483 H 229.588 2.3478 -3.31109 0
M  V30 2484 H 230.354 0.386562 -4.83457 0
M  V30 2485 H 226.233 1.5147 -4.35405 0
M  V30 2486 H 229.777 -0.781148 -6.93213 0
M  V30 2487 H 225.674 0.35348 -6.44531 0
M  V30 2488 H 226.442 -0.84329 -8.14144 0
M  V30 2489 N 229.106 1.52395 0.401703 0
M  V30 2490 C 230.355 1.66044 1.14509 0
M  V30 2491 C 230.668 0.400216 1.91462 0
M  V30 2492 O 231.874 0.416632 2.68284 0
M  V30 2493 C 230.33 2.93388 2.0845 0
M  V30 2494 C 229.938 4.26545 1.36978 0
M  V30 2495 C 231.682 3.16402 2.83001 0
M  V30 2496 C 229.589 5.45007 2.29611 0
M  V30 2497 H 228.519 0.618562 0.431158 0
M  V30 2498 H 231.17 1.78886 0.40892 0
M  V30 2499 H 229.552 2.74263 2.8565 0
M  V30 2500 H 230.726 4.56179 0.650916 0
M  V30 2501 H 229.041 4.09692 0.74438 0
M  V30 2502 H 231.638 4.02085 3.52465 0
M  V30 2503 H 231.981 2.30943 3.46368 0
M  V30 2504 H 232.514 3.36034 2.12898 0
M  V30 2505 H 229.253 6.32835 1.70879 0
M  V30 2506 H 228.773 5.19702 2.9945 0
M  V30 2507 H 230.452 5.7838 2.89974 0
M  V30 2508 N 230.584 -0.659388 1.43143 0
M  V30 2509 C 231.531 -1.77249 1.47822 0
M  V30 2510 C 232.501 -1.62818 0.328558 0
M  V30 2511 O 233.686 -1.83151 0.534838 0
M  V30 2512 C 230.826 -3.15371 1.40126 0
M  V30 2513 C 229.939 -3.4098 2.65249 0
M  V30 2514 C 229.074 -4.68915 2.49584 0
M  V30 2515 C 228.113 -4.87608 3.70006 0
M  V30 2516 N 227.25 -6.06796 3.53189 0
M  V30 2517 H 232.09 -1.72584 2.42938 0
M  V30 2518 H 229.627 -0.842297 1.20598 0
M  V30 2519 H 231.585 -3.9521 1.33659 0
M  V30 2520 H 230.215 -3.19121 0.485964 0
M  V30 2521 H 229.267 -2.55282 2.8202 0
M  V30 2522 H 230.579 -3.50681 3.54717 0
M  V30 2523 H 229.733 -5.56871 2.4079 0
M  V30 2524 H 228.472 -4.61524 1.5763 0
M  V30 2525 H 227.477 -3.9809 3.79215 0
M  V30 2526 H 228.702 -4.96834 4.62961 0
M  V30 2527 H 226.648 -6.00549 2.63965 0
M  V30 2528 H 226.565 -6.17428 4.36255 0
M  V30 2529 H 227.833 -6.9739 3.48236 0
M  V30 2530 N 232.062 -1.29571 -0.897171 0
M  V30 2531 C 233.01 -1.14802 -2.02295 0
M  V30 2532 C 234.004 -0.0629637 -1.69283 0
M  V30 2533 O 235.21 -0.222945 -1.78614 0
M  V30 2534 H 231.585 -0.354692 -0.663097 0
M  V30 2535 H 233.556 -2.10108 -2.11889 0
M  V30 2536 C 232.305 -0.843966 -3.37302 0
M  V30 2537 H 231.628 -1.67093 -3.63208 0
M  V30 2538 H 233.068 -0.780672 -4.16751 0
M  V30 2539 C 231.527 0.452843 -3.33843 0
M  V30 2540 O 232.057 1.47813 -3.73516 0
M  V30 2541 N 230.263 0.459601 -2.86943 0
M  V30 2542 H 229.81 -0.375213 -2.54853 0
M  V30 2543 H 229.768 1.32726 -2.85011 0
M  V30 2544 N 233.54 1.10788 -1.12088 0
M  V30 2545 C 234.49 2.15158 -0.754401 0
M  V30 2546 C 235.474 1.59026 0.244846 0
M  V30 2547 O 236.666 1.76927 0.0509097 0
M  V30 2548 C 233.795 3.42677 -0.206657 0
M  V30 2549 C 232.881 4.05751 -1.23398 0
M  V30 2550 N 233.272 4.43582 -2.43041 0
M  V30 2551 C 231.57 4.32764 -1.07848 0
M  V30 2552 C 232.271 4.93085 -3.08613 0
M  V30 2553 N 231.247 4.89664 -2.36072 0
M  V30 2554 H 235.049 2.42195 -1.6649 0
M  V30 2555 H 232.563 1.27872 -1.00112 0
M  V30 2556 H 234.56 4.16834 0.0740646 0
M  V30 2557 H 233.22 3.17101 0.698342 0
M  V30 2558 H 234.231 4.35395 -2.80449 0
M  V30 2559 H 230.908 4.16863 -0.230483 0
M  V30 2560 H 232.298 5.31933 -4.10483 0
M  V30 2561 N 235.018 0.912232 1.28515 0
M  V30 2562 C 235.928 0.404506 2.31086 0
M  V30 2563 C 236.944 -0.50707 1.66448 0
M  V30 2564 O 238.12 -0.393624 1.97516 0
M  V30 2565 C 235.185 -0.348572 3.44943 0
M  V30 2566 C 234.246 0.59604 4.25142 0
M  V30 2567 C 233.479 -0.121194 5.33562 0
M  V30 2568 O 233.702 -1.34317 5.5436 0
M  V30 2569 O 232.636 0.542716 5.99448 0
M  V30 2570 H 236.462 1.25579 2.76521 0
M  V30 2571 H 234.047 0.676998 1.33181 0
M  V30 2572 H 235.929 -0.77395 4.14232 0
M  V30 2573 H 234.604 -1.17571 3.01594 0
M  V30 2574 H 233.511 1.07079 3.58448 0
M  V30 2575 H 234.844 1.38995 4.72167 0
M  V30 2576 N 236.496 -1.42363 0.676048 0
M  V30 2577 C 237.743 -2.01522 0.19883 0
M  V30 2578 C 238.071 -1.53456 -1.19505 0
M  V30 2579 O 237.326 -0.727967 -1.81657 0
M  V30 2580 C 237.625 -3.56929 0.183431 0
M  V30 2581 C 237.291 -4.24431 1.52215 0
M  V30 2582 C 235.953 -4.42585 1.8887 0
M  V30 2583 C 238.305 -4.62459 2.40377 0
M  V30 2584 C 235.633 -4.96039 3.13309 0
M  V30 2585 C 237.985 -5.17294 3.64129 0
M  V30 2586 C 236.649 -5.33661 4.00951 0
M  V30 2587 H 235.919 -0.737419 0.0727571 0
M  V30 2588 H 238.566 -1.70531 0.871281 0
M  V30 2589 H 236.871 -3.87594 -0.572532 0
M  V30 2590 H 238.568 -4.00486 -0.203035 0
M  V30 2591 H 235.158 -4.10661 1.22701 0
M  V30 2592 H 239.342 -4.48105 2.13343 0
M  V30 2593 H 234.598 -5.06896 3.41857 0
M  V30 2594 H 238.772 -5.45704 4.32644 0
M  V30 2595 H 236.399 -5.74845 4.9745 0
M  V30 2596 N 237.974 -0.419461 -1.51915 0
M  V30 2597 C 239.223 0.154346 -2.01109 0
M  V30 2598 C 239.536 1.45338 -1.30905 0
M  V30 2599 O 240.742 2.10906 -1.7097 0
M  V30 2600 C 239.198 0.325615 -3.58424 0
M  V30 2601 C 238.806 -0.961934 -4.37551 0
M  V30 2602 C 240.55 0.854155 -4.15818 0
M  V30 2603 C 238.457 -0.757287 -5.86531 0
M  V30 2604 H 237.387 0.0614563 -0.751491 0
M  V30 2605 H 240.038 -0.54649 -1.75173 0
M  V30 2606 H 238.42 1.08903 -3.80731 0
M  V30 2607 H 239.594 -1.7323 -4.26999 0
M  V30 2608 H 237.909 -1.41766 -3.91524 0
M  V30 2609 H 240.506 1.02346 -5.24814 0
M  V30 2610 H 240.849 1.83172 -3.73837 0
M  V30 2611 H 241.382 0.149528 -3.97519 0
M  V30 2612 H 238.121 -1.70671 -6.32892 0
M  V30 2613 H 237.641 -0.0264061 -5.99794 0
M  V30 2614 H 239.32 -0.403482 -6.45741 0
M  V30 2615 N 239.452 1.56882 -0.150215 0
M  V30 2616 C 240.415 2.1573 0.774157 0
M  V30 2617 C 241.415 1.0999 1.17298 0
M  V30 2618 O 242.605 1.35613 1.09338 0
M  V30 2619 C 239.737 2.72302 2.05096 0
M  V30 2620 H 240.93 2.98752 0.262201 0
M  V30 2621 H 238.483 1.55985 0.099248 0
M  V30 2622 H 239.218 1.92956 2.6065 0
M  V30 2623 H 239.003 3.49665 1.77416 0
M  V30 2624 H 240.493 3.17632 2.71109 0
M  V30 2625 N 240.93 -0.123565 1.57115 0
M  V30 2626 C 242.158 -0.846461 1.88793 0
M  V30 2627 C 242.573 -1.73652 0.740976 0
M  V30 2628 O 241.93 -1.80207 -0.288393 0
M  V30 2629 C 241.981 -1.6837 3.19897 0
M  V30 2630 O 241.702 -0.829477 4.30176 0
M  V30 2631 C 243.203 -2.51214 3.65248 0
M  V30 2632 H 240.423 -0.243573 0.625231 0
M  V30 2633 H 242.967 -0.109324 2.04208 0
M  V30 2634 H 241.122 -2.37364 3.06165 0
M  V30 2635 H 241.536 -1.40651 5.0529 0
M  V30 2636 H 243.01 -3.05497 4.59756 0
M  V30 2637 H 243.487 -3.28359 2.9168 0
M  V30 2638 H 244.093 -1.8747 3.81752 0
M  V30 2639 N 242.408 -1.52605 -0.393616 0
M  V30 2640 C 243.655 -1.67424 -1.1391 0
M  V30 2641 C 243.983 -0.411859 -1.90089 0
M  V30 2642 O 243.238 0.605626 -1.86093 0
M  V30 2643 C 243.537 -2.85721 -2.14705 0
M  V30 2644 C 243.203 -4.23342 -1.55218 0
M  V30 2645 C 241.865 -4.60771 -1.3872 0
M  V30 2646 C 244.217 -5.09041 -1.11924 0
M  V30 2647 C 241.545 -5.81563 -0.774689 0
M  V30 2648 C 243.897 -6.30452 -0.520853 0
M  V30 2649 C 242.561 -6.66617 -0.343134 0
M  V30 2650 H 241.831 -0.612648 -0.416826 0
M  V30 2651 H 244.478 -1.8674 -0.424315 0
M  V30 2652 H 242.783 -2.60803 -2.92385 0
M  V30 2653 H 244.48 -2.94382 -2.72288 0
M  V30 2654 H 241.07 -3.93855 -1.69045 0
M  V30 2655 H 245.254 -4.80695 -1.23473 0
M  V30 2656 H 240.51 -6.08196 -0.625154 0
M  V30 2657 H 244.684 -6.96175 -0.177065 0
M  V30 2658 H 242.311 -7.60083 0.133571 0
M  V30 2659 N 243.887 0.651787 -1.4349 0
M  V30 2660 C 245.134 1.41167 -1.45183 0
M  V30 2661 C 245.462 1.94349 -0.0766601 0
M  V30 2662 O 244.717 1.72804 0.918555 0
M  V30 2663 C 245.016 2.60914 -2.44251 0
M  V30 2664 C 244.682 2.26142 -3.9009 0
M  V30 2665 C 243.344 2.16371 -4.2981 0
M  V30 2666 C 245.696 1.98334 -4.81989 0
M  V30 2667 C 243.024 1.7695 -5.5938 0
M  V30 2668 C 245.376 1.6041 -6.11924 0
M  V30 2669 C 244.04 1.49166 -6.5062 0
M  V30 2670 H 243.31 0.516566 -0.531263 0
M  V30 2671 H 245.957 0.741099 -1.76579 0
M  V30 2672 H 244.262 3.3311 -2.06265 0
M  V30 2673 H 245.959 3.19127 -2.42815 0
M  V30 2674 H 242.549 2.34658 -3.58655 0
M  V30 2675 H 246.733 2.04803 -4.52072 0
M  V30 2676 H 241.989 1.66831 -5.88198 0
M  V30 2677 H 246.163 1.37925 -6.82605 0
M  V30 2678 H 243.79 1.1839 -7.50925 0
M  V30 2679 N 245.365 1.30045 0.890287 0
M  V30 2680 C 246.613 1.18327 1.63839 0
M  V30 2681 C 246.934 -0.263455 1.93212 0
M  V30 2682 O 246.204 -1.17856 1.56482 0
M  V30 2683 H 244.784 0.434933 0.607324 0
M  V30 2684 H 247.446 1.631 1.06698 0
M  V30 2685 H 246.542 1.74024 2.59079 0
M  V30 2686 N 246.843 -1.10192 1.12674 0
M  V30 2687 C 247.775 -2.16418 0.754701 0
M  V30 2688 C 248.788 -1.61309 -0.21986 0
M  V30 2689 O 249.977 -1.785 -0.000826841 0
M  V30 2690 C 247.077 -3.38762 0.096698 0
M  V30 2691 C 246.25 -4.23307 1.10136 0
M  V30 2692 C 245.309 -5.24092 0.470513 0
M  V30 2693 O 244.335 -5.57906 1.12824 0
M  V30 2694 N 245.537 -5.75491 -0.760948 0
M  V30 2695 H 248.302 -2.48943 1.66875 0
M  V30 2696 H 245.863 -1.25834 1.01869 0
M  V30 2697 H 247.855 -4.03291 -0.337384 0
M  V30 2698 H 246.425 -3.04192 -0.720153 0
M  V30 2699 H 245.645 -3.55036 1.71299 0
M  V30 2700 H 246.933 -4.76624 1.78064 0
M  V30 2701 H 246.331 -5.50222 -1.31424 0
M  V30 2702 H 244.888 -6.41792 -1.13781 0
M  V30 2703 N 248.321 -0.919034 -1.28029 0
M  V30 2704 C 249.732 -0.600735 -1.76771 0
M  V30 2705 C 250.083 0.884024 -1.75156 0
M  V30 2706 O 249.208 1.69163 -1.34956 0
M  V30 2707 C 249.803 -1.08372 -3.21 0
M  V30 2708 C 248.362 -0.816248 -3.67443 0
M  V30 2709 C 247.509 -1.24742 -2.47658 0
M  V30 2710 H 250.46 -1.09974 -1.14418 0
M  V30 2711 H 250.481 -0.427512 -3.78091 0
M  V30 2712 H 249.993 -2.16437 -3.22144 0
M  V30 2713 H 248.094 0.250968 -3.71754 0
M  V30 2714 H 248.207 -1.4277 -4.57333 0
M  V30 2715 H 246.571 -0.666083 -2.45836 0
M  V30 2716 H 247.354 -2.33653 -2.51518 0
M  V30 2717 N 249.799 1.42003 -0.683588 0
M  V30 2718 C 251.027 2.05746 -0.218182 0
M  V30 2719 C 251.442 1.51396 1.12804 0
M  V30 2720 O 250.799 0.657303 1.70252 0
M  V30 2721 C 250.85 3.61171 -0.154131 0
M  V30 2722 O 250.571 4.13508 -1.44716 0
M  V30 2723 C 252.072 4.42042 0.333713 0
M  V30 2724 H 249.292 0.662888 -0.10402 0
M  V30 2725 H 251.836 1.81987 -0.9328 0
M  V30 2726 H 249.991 3.84012 0.511231 0
M  V30 2727 H 250.405 5.07453 -1.32632 0
M  V30 2728 H 251.879 5.51028 0.327423 0
M  V30 2729 H 252.356 4.17269 1.37053 0
M  V30 2730 H 252.962 4.24239 -0.300222 0
M  V30 2731 N 251.277 0.427512 1.51691 0
M  V30 2732 C 252.524 -0.142229 2.02 0
M  V30 2733 C 252.852 -1.43566 1.31221 0
M  V30 2734 O 252.107 -1.91298 0.412744 0
M  V30 2735 C 252.406 -0.418249 3.54944 0
M  V30 2736 C 252.072 0.788187 4.43958 0
M  V30 2737 C 250.734 1.11906 4.68007 0
M  V30 2738 C 253.086 1.59347 4.96244 0
M  V30 2739 C 250.414 2.25608 5.41588 0
M  V30 2740 C 252.766 2.7214 5.71072 0
M  V30 2741 C 251.43 3.05692 5.93387 0
M  V30 2742 H 250.7 -0.0520451 0.73917 0
M  V30 2743 H 253.347 0.572697 1.82736 0
M  V30 2744 H 251.652 -1.21496 3.72486 0
M  V30 2745 H 253.349 -0.872339 3.91397 0
M  V30 2746 H 249.939 0.520344 4.2543 0
M  V30 2747 H 254.123 1.35106 4.77556 0
M  V30 2748 H 249.379 2.51929 5.57083 0
M  V30 2749 H 253.553 3.34914 6.10578 0
M  V30 2750 H 251.18 3.9391 6.50184 0
M  V30 2751 N 252.755 -1.56801 0.158532 0
M  V30 2752 C 253.995 -1.98383 -0.49229 0
M  V30 2753 C 254.359 -1.04184 -1.61275 0
M  V30 2754 O 255.56 -1.34856 -2.32524 0
M  V30 2755 C 253.831 -3.4385 -0.974766 0
M  V30 2756 S 255.39 -4.07459 -1.62857 0
M  V30 2757 H 252.208 -0.693041 -0.158794 0
M  V30 2758 H 254.81 -1.93856 0.252974 0
M  V30 2759 H 253.514 -4.10131 -0.148688 0
M  V30 2760 H 253.045 -3.52115 -1.75438 0
M  V30 2761 H 255.06 -4.01458 -2.91627 0
M  V30 2762 N 254.233 0.115231 -1.57178 0
M  V30 2763 C 255.458 0.840354 -1.89612 0
M  V30 2764 C 255.883 1.72464 -0.750845 0
M  V30 2765 O 255.241 1.78826 0.298478 0
M  V30 2766 C 255.289 1.64654 -3.20814 0
M  V30 2767 O 254.393 2.7538 -3.06985 0
M  V30 2768 H 253.734 0.232158 -0.622092 0
M  V30 2769 H 256.264 0.0964977 -2.04372 0
M  V30 2770 H 256.274 2.03499 -3.53627 0
M  V30 2771 H 254.949 0.997416 -4.03763 0
M  V30 2772 H 253.526 2.3971 -2.85646 0
M  V30 2773 N 255.711 1.52812 0.385517 0
M  V30 2774 C 256.957 1.68275 1.13188 0
M  V30 2775 C 257.29 0.423179 1.89533 0
M  V30 2776 O 256.565 -0.579113 1.85679 0
M  V30 2777 C 256.848 2.92001 2.1073 0
M  V30 2778 C 256.701 4.28067 1.38125 0
M  V30 2779 C 258.02 3.11283 3.11113 0
M  V30 2780 H 255.139 0.612352 0.410115 0
M  V30 2781 H 257.781 1.85415 0.414869 0
M  V30 2782 H 255.931 2.77519 2.71874 0
M  V30 2783 H 257.603 4.54324 0.799187 0
M  V30 2784 H 255.846 4.28388 0.683092 0
M  V30 2785 H 256.517 5.10733 2.09417 0
M  V30 2786 H 258.993 3.2482 2.6006 0
M  V30 2787 H 257.869 3.99325 3.76605 0
M  V30 2788 H 258.13 2.25656 3.80173 0
M  V30 2789 N 257.189 -0.644168 1.43834 0
M  V30 2790 C 258.429 -1.41565 1.47441 0
M  V30 2791 C 258.793 -1.91743 0.0992723 0
M  V30 2792 O 259.994 -2.68798 0.0100192 0
M  V30 2793 C 258.265 -2.55902 2.49498 0
M  V30 2794 S 259.824 -3.44287 2.72051 0
M  V30 2795 H 256.642 -0.483118 0.521649 0
M  V30 2796 H 259.244 -0.747008 1.80666 0
M  V30 2797 H 257.948 -2.17327 3.48134 0
M  V30 2798 H 257.479 -3.27607 2.17801 0
M  V30 2799 H 259.494 -4.52927 2.0266 0
M  V30 2800 N 258.668 -1.30515 -0.883378 0
M  V30 2801 C 259.615 -1.17032 -1.98927 0
M  V30 2802 C 260.585 -0.0594241 -1.65994 0
M  V30 2803 O 261.77 -0.229895 -1.8941 0
M  V30 2804 C 258.91 -0.869777 -3.33959 0
M  V30 2805 C 258.023 -2.06271 -3.79574 0
M  V30 2806 C 257.158 -1.70011 -5.03259 0
M  V30 2807 C 256.197 -2.8579 -5.41286 0
M  V30 2808 N 255.334 -2.49816 -6.56153 0
M  V30 2809 H 260.174 -2.1164 -2.09792 0
M  V30 2810 H 257.711 -1.05296 -1.02719 0
M  V30 2811 H 259.669 -0.676138 -4.11685 0
M  V30 2812 H 258.299 0.0394332 -3.22776 0
M  V30 2813 H 257.351 -2.36755 -2.97744 0
M  V30 2814 H 258.663 -2.92971 -4.03694 0
M  V30 2815 H 257.817 -1.47032 -5.88614 0
M  V30 2816 H 256.556 -0.804829 -4.81013 0
M  V30 2817 H 255.561 -3.09434 -4.54456 0
M  V30 2818 H 256.786 -3.76008 -5.65504 0
M  V30 2819 H 254.732 -1.62795 -6.35479 0
M  V30 2820 H 254.649 -3.30048 -6.8015 0
M  V30 2821 H 255.917 -2.30197 -7.44735 0
M  V30 2822 N 260.146 1.09593 -1.13257 0
M  V30 2823 C 261.423 1.78293 -0.804432 0
M  V30 2824 C 261.803 1.99004 0.70431 0
M  V30 2825 O 261.151 1.59007 1.641 0
M  V30 2826 C 261.361 3.10707 -1.5894 0
M  V30 2827 C 262.709 3.85443 -1.78099 0
M  V30 2828 O 263.733 3.20454 -1.55525 0
M  V30 2829 O 262.592 5.02108 -2.15753 0
M  V30 2830 H 259.686 0.773156 -0.293528 0
M  V30 2831 H 262.232 1.16164 -1.23709 0
M  V30 2832 H 261.004 2.91106 -2.61482 0
M  V30 2833 H 260.627 3.80558 -1.15157 0
M  V30 2834 N 261.624 0.925811 1.2754 0
M  V30 2835 C 262.871 0.565255 1.94451 0
M  V30 2836 C 263.199 -0.89316 1.7278 0
M  V30 2837 O 262.454 -1.65213 1.04895 0
M  V30 2838 C 262.753 0.835296 3.47502 0
M  V30 2839 C 262.419 2.27515 3.89291 0
M  V30 2840 C 261.081 2.66879 4.00411 0
M  V30 2841 C 263.433 3.21158 4.10496 0
M  V30 2842 C 260.761 3.99014 4.30122 0
M  V30 2843 C 263.113 4.52871 4.4169 0
M  V30 2844 C 261.777 4.92072 4.51023 0
M  V30 2845 H 261.047 0.206841 0.711546 0
M  V30 2846 H 263.694 1.16942 1.51647 0
M  V30 2847 H 261.999 0.148442 3.91519 0
M  V30 2848 H 263.696 0.535322 3.97411 0
M  V30 2849 H 260.286 1.95976 3.81171 0
M  V30 2850 H 264.47 2.9195 4.01346 0
M  V30 2851 H 259.726 4.2907 4.35556 0
M  V30 2852 H 263.9 5.25436 4.57045 0
M  V30 2853 H 261.527 5.9449 4.738 0
M  V30 2854 N 263.102 -1.41638 0.69111 0
M  V30 2855 C 264.348 -2.01598 0.220519 0
M  V30 2856 C 264.681 -1.54594 -1.17535 0
M  V30 2857 O 263.956 -0.755177 -1.79241 0
M  V30 2858 C 264.239 -3.59062 0.273243 0
M  V30 2859 C 264.092 -4.16203 1.70573 0
M  V30 2860 C 265.411 -4.38546 -0.369457 0
M  V30 2861 H 262.53 -0.732468 0.0816045 0
M  V30 2862 H 265.172 -1.68445 0.878986 0
M  V30 2863 H 263.322 -3.87435 -0.287411 0
M  V30 2864 H 264.994 -3.98722 2.31989 0
M  V30 2865 H 263.237 -3.71414 2.2413 0
M  V30 2866 H 263.908 -5.25358 1.69419 0
M  V30 2867 H 266.384 -4.1596 0.107977 0
M  V30 2868 H 265.26 -5.48069 -0.302002 0
M  V30 2869 H 265.521 -4.17662 -1.44951 0
M  V30 2870 N 264.58 -0.43555 -1.51462 0
M  V30 2871 C 265.826 0.123979 -2.03022 0
M  V30 2872 C 266.181 1.4054 -1.31401 0
M  V30 2873 O 265.474 1.86948 -0.419634 0
M  V30 2874 C 265.668 0.39942 -3.55161 0
M  V30 2875 C 265.497 -0.853754 -4.41521 0
M  V30 2876 C 264.267 -1.38675 -4.85898 0
M  V30 2877 C 266.465 -1.73939 -4.83994 0
M  V30 2878 N 264.447 -2.59265 -5.56466 0
M  V30 2879 C 265.818 -2.79135 -5.5361 0
M  V30 2880 C 267.873 -1.75402 -4.65981 0
M  V30 2881 C 266.576 -3.85737 -6.07124 0
M  V30 2882 C 268.602 -2.80938 -5.20411 0
M  V30 2883 C 267.964 -3.84854 -5.89972 0
M  V30 2884 H 264.063 0.00624887 -0.781975 0
M  V30 2885 H 266.647 -0.59582 -1.85359 0
M  V30 2886 H 264.818 1.08825 -3.72843 0
M  V30 2887 H 266.55 0.95015 -3.93388 0
M  V30 2888 H 263.305 -0.94094 -4.64159 0
M  V30 2889 H 263.729 -3.2041 -5.96378 0
M  V30 2890 H 268.371 -0.963926 -4.11665 0
M  V30 2891 H 266.089 -4.65586 -6.60496 0
M  V30 2892 H 269.675 -2.8301 -5.08327 0
M  V30 2893 H 268.555 -4.65176 -6.31333 0
M  V30 2894 N 266.058 1.56714 -0.166846 0
M  V30 2895 C 267.306 1.96358 0.478305 0
M  V30 2896 C 267.627 1.0537 1.6408 0
M  V30 2897 O 266.897 0.119154 1.95537 0
M  V30 2898 H 265.477 0.725065 0.179692 0
M  V30 2899 H 268.139 1.93329 -0.246985 0
M  V30 2900 H 267.235 3.00547 0.841292 0
M  V30 2901 N 267.536 -0.106894 1.57237 0
M  V30 2902 C 268.466 -1.13148 2.04254 0
M  V30 2903 C 269.447 -1.42476 0.929224 0
M  V30 2904 O 270.632 -1.52709 1.19973 0
M  V30 2905 C 267.762 -2.4545 2.45706 0
M  V30 2906 C 266.716 -2.30558 3.60592 0
M  V30 2907 C 266.042 -3.67931 3.87983 0
M  V30 2908 C 267.342 -1.75597 4.91897 0
M  V30 2909 H 269.036 -0.740374 2.90101 0
M  V30 2910 H 266.582 -0.354696 1.39563 0
M  V30 2911 H 268.535 -3.17389 2.77205 0
M  V30 2912 H 267.259 -2.86475 1.56843 0
M  V30 2913 H 265.918 -1.61067 3.29322 0
M  V30 2914 H 265.566 -4.06462 2.96306 0
M  V30 2915 H 265.266 -3.58817 4.65322 0
M  V30 2916 H 266.79 -4.41356 4.21945 0
M  V30 2917 H 268.204 -2.37364 5.21854 0
M  V30 2918 H 266.601 -1.77272 5.73319 0
M  V30 2919 H 267.671 -0.714451 4.79608 0
M  V30 2920 N 269.014 -1.53014 -0.377408 0
M  V30 2921 C 269.962 -1.7927 -1.48206 0
M  V30 2922 C 270.956 -0.661195 -1.55963 0
M  V30 2923 O 272.162 -0.843908 -1.58991 0
M  V30 2924 H 268.537 -0.567425 -0.493491 0
M  V30 2925 H 270.508 -2.71753 -1.2326 0
M  V30 2926 C 269.257 -1.98894 -2.85196 0
M  V30 2927 H 268.58 -2.85395 -2.79981 0
M  V30 2928 H 270.02 -2.21249 -3.61698 0
M  V30 2929 C 268.479 -0.764691 -3.28107 0
M  V30 2930 O 269.009 0.0523226 -4.01666 0
M  V30 2931 N 267.215 -0.591493 -2.84517 0
M  V30 2932 H 266.762 -1.25749 -2.24822 0
M  V30 2933 H 266.72 0.226253 -3.13585 0
M  V30 2934 N 270.492 0.636531 -1.44174 0
M  V30 2935 C 271.439 1.74875 -1.50624 0
M  V30 2936 C 272.409 1.62275 -0.35442 0
M  V30 2937 O 273.594 1.82276 -0.563908 0
M  V30 2938 C 270.734 3.13102 -1.45125 0
M  V30 2939 C 269.847 3.36717 -2.7064 0
M  V30 2940 C 268.982 4.64885 -2.57013 0
M  V30 2941 C 268.021 4.8166 -3.77717 0
M  V30 2942 N 267.158 6.01101 -3.62798 0
M  V30 2943 H 271.998 1.68697 -2.45653 0
M  V30 2944 H 269.535 0.823004 -1.21922 0
M  V30 2945 H 271.493 3.93034 -1.39929 0
M  V30 2946 H 270.123 3.18308 -0.536671 0
M  V30 2947 H 269.175 2.50763 -2.86046 0
M  V30 2948 H 270.487 3.44993 -3.60252 0
M  V30 2949 H 269.641 5.52969 -2.49619 0
M  V30 2950 H 268.38 4.58957 -1.64953 0
M  V30 2951 H 267.385 3.92007 -3.85501 0
M  V30 2952 H 268.61 4.89406 -4.70807 0
M  V30 2953 H 266.556 5.96273 -2.73486 0
M  V30 2954 H 266.473 6.10409 -4.46023 0
M  V30 2955 H 267.741 6.91761 -3.59286 0
M  V30 2956 N 271.97 1.30982 0.876444 0
M  V30 2957 C 272.902 1.13902 1.98894 0
M  V30 2958 C 273.915 0.0798815 1.62604 0
M  V30 2959 O 275.104 0.326743 1.75484 0
M  V30 2960 C 272.204 0.716699 3.31235 0
M  V30 2961 C 271.377 1.85945 3.95908 0
M  V30 2962 C 270.436 1.42426 5.06558 0
M  V30 2963 O 269.462 2.13287 5.27729 0
M  V30 2964 N 270.664 0.308025 5.79682 0
M  V30 2965 H 273.429 2.09724 2.14094 0
M  V30 2966 H 270.99 1.2323 1.05004 0
M  V30 2967 H 272.982 0.408403 4.02634 0
M  V30 2968 H 271.552 -0.149719 3.12241 0
M  V30 2969 H 270.772 2.33541 3.17573 0
M  V30 2970 H 272.06 2.62503 4.35855 0
M  V30 2971 H 271.458 -0.282241 5.64995 0
M  V30 2972 H 270.015 0.0592282 6.51773 0
M  V30 2973 N 273.449 -1.08991 1.13837 0
M  V30 2974 C 274.697 -1.80899 0.901098 0
M  V30 2975 C 275.018 -1.86356 -0.574134 0
M  V30 2976 O 274.288 -1.35235 -1.41733 0
M  V30 2977 H 272.868 -0.669966 0.330386 0
M  V30 2978 H 275.53 -1.318 1.43578 0
M  V30 2979 H 274.626 -2.83929 1.29578 0
M  V30 2980 N 274.927 -0.932562 -1.27047 0
M  V30 2981 C 276.157 -0.591173 -1.97961 0
M  V30 2982 C 276.565 0.836219 -1.69717 0
M  V30 2983 O 275.908 1.56801 -0.957036 0
M  V30 2984 C 275.97 -0.743082 -3.51736 0
M  V30 2985 C 275.634 -2.1435 -4.03613 0
M  V30 2986 C 276.631 -3.11815 -4.16014 0
M  V30 2987 C 274.316 -2.46175 -4.37839 0
M  V30 2988 C 276.31 -4.39211 -4.61923 0
M  V30 2989 C 273.997 -3.73806 -4.83438 0
M  V30 2990 C 274.995 -4.70137 -4.95439 0
M  V30 2991 O 274.683 -5.95496 -5.40037 0
M  V30 2992 H 274.415 -0.222375 -0.638377 0
M  V30 2993 H 276.969 -1.25317 -1.62742 0
M  V30 2994 H 275.199 -0.0239739 -3.86693 0
M  V30 2995 H 276.888 -0.40603 -4.03864 0
M  V30 2996 H 277.654 -2.88549 -3.89826 0
M  V30 2997 H 273.533 -1.71936 -4.27737 0
M  V30 2998 H 277.077 -5.14404 -4.71205 0
M  V30 2999 H 272.974 -3.96888 -5.09068 0
M  V30 3000 H 273.742 -5.98554 -5.58279 0
M  V30 3001 N 276.405 1.4127 -0.698611 0
M  V30 3002 C 277.352 2.30773 -0.0352094 0
M  V30 3003 C 278.322 1.47273 0.768111 0
M  V30 3004 O 279.507 1.76053 0.735524 0
M  V30 3005 C 276.647 3.33346 0.893 0
M  V30 3006 C 275.76 4.31924 0.0809695 0
M  V30 3007 C 274.895 5.21566 1.0071 0
M  V30 3008 C 273.934 6.11811 0.188155 0
M  V30 3009 N 273.071 6.93926 1.06825 0
M  V30 3010 H 277.911 2.86943 -0.804207 0
M  V30 3011 H 275.448 1.4132 -0.408294 0
M  V30 3012 H 277.406 3.91368 1.44523 0
M  V30 3013 H 276.036 2.78719 1.62836 0
M  V30 3014 H 275.088 3.75825 -0.588224 0
M  V30 3015 H 276.4 4.95716 -0.553801 0
M  V30 3016 H 275.554 5.84437 1.62845 0
M  V30 3017 H 274.293 4.58008 1.67572 0
M  V30 3018 H 273.298 5.47986 -0.446254 0
M  V30 3019 H 274.523 6.77425 -0.476716 0
M  V30 3020 H 272.469 6.32973 1.72283 0
M  V30 3021 H 272.386 7.54416 0.489123 0
M  V30 3022 H 273.654 7.61262 1.67632 0
M  V30 3023 N 277.883 0.443576 1.51229 0
M  V30 3024 C 279.123 -0.119889 2.04048 0
M  V30 3025 C 279.487 -1.39418 1.32009 0
M  V30 3026 O 280.688 -2.03829 1.75235 0
M  V30 3027 C 278.959 -0.327233 3.55899 0
M  V30 3028 S 280.518 -0.853208 4.30425 0
M  V30 3029 H 277.336 -0.028921 0.710412 0
M  V30 3030 H 279.938 0.604413 1.85922 0
M  V30 3031 H 278.642 0.606445 4.05895 0
M  V30 3032 H 278.173 -1.07844 3.7833 0
M  V30 3033 H 280.188 -2.13005 4.48155 0
M  V30 3034 N 279.361 -1.56624 0.175154 0
M  V30 3035 C 280.777 -1.58571 -0.180966 0
M  V30 3036 C 280.977 -1.19065 -1.6256 0
M  V30 3037 O 280.033 -0.904044 -2.35761 0
M  V30 3038 C 281.346 -3.00522 0.103326 0
M  V30 3039 C 282.894 -3.12972 0.0418426 0
M  V30 3040 C 283.369 -4.57022 0.299175 0
M  V30 3041 N 284.86 -4.62541 0.247086 0
M  V30 3042 C 285.595 -5.71857 0.420318 0
M  V30 3043 N 285.091 -6.89717 0.652816 0
M  V30 3044 N 286.884 -5.60972 0.355957 0
M  V30 3045 H 279.035 -1.80589 1.11809 0
M  V30 3046 H 281.298 -0.837178 0.444788 0
M  V30 3047 H 281.004 -3.33916 1.10422 0
M  V30 3048 H 280.878 -3.72344 -0.603299 0
M  V30 3049 H 283.265 -2.79403 -0.949636 0
M  V30 3050 H 283.346 -2.43578 0.781238 0
M  V30 3051 H 282.99 -4.913 1.28788 0
M  V30 3052 H 282.92 -5.24579 -0.460876 0
M  V30 3053 H 285.411 -3.77829 0.0731895 0
M  V30 3054 H 285.724 -7.68911 0.774347 0
M  V30 3055 H 284.069 -6.91572 0.689476 0
M  V30 3056 H 287.26 -4.67773 0.174882 0
M  V30 3057 H 287.433 -6.46111 0.494388 0
M  V30 3058 N 280.839 0.0985539 -1.57292 0
M  V30 3059 C 281.771 1.14595 -1.98496 0
M  V30 3060 C 282.784 1.36512 -0.887031 0
M  V30 3061 O 283.973 1.35225 -1.16518 0
M  V30 3062 C 281.073 2.50216 -2.28572 0
M  V30 3063 C 280.246 2.48624 -3.59868 0
M  V30 3064 C 279.305 3.66146 -3.7792 0
M  V30 3065 O 278.331 3.48795 -4.49812 0
M  V30 3066 N 279.533 4.85496 -3.18235 0
M  V30 3067 H 282.298 0.795277 -2.88956 0
M  V30 3068 H 279.859 0.287579 -1.59325 0
M  V30 3069 H 281.851 3.27432 -2.37845 0
M  V30 3070 H 280.421 2.77387 -1.44136 0
M  V30 3071 H 279.641 1.56978 -3.61596 0
M  V30 3072 H 280.929 2.44635 -4.46129 0
M  V30 3073 H 280.327 5.02497 -2.59833 0
M  V30 3074 H 278.884 5.60317 -3.32999 0
M  V30 3075 N 282.317 1.53212 0.369288 0
M  V30 3076 C 283.557 1.70915 1.12105 0
M  V30 3077 C 283.921 0.449444 1.86665 0
M  V30 3078 O 285.122 0.503105 2.6405 0
M  V30 3079 C 283.393 2.9222 2.05772 0
M  V30 3080 S 284.952 3.30609 2.88519 0
M  V30 3081 H 281.77 0.601445 0.379189 0
M  V30 3082 H 284.372 1.91306 0.402794 0
M  V30 3083 H 283.076 3.82103 1.49752 0
M  V30 3084 H 282.607 2.7422 2.82076 0
M  V30 3085 H 284.622 2.82333 4.08047 0
M  V30 3086 N 283.795 -0.628877 1.44509 0
M  V30 3087 C 284.743 -1.76193 1.51852 0
M  V30 3088 C 285.737 -1.64849 0.390042 0
M  V30 3089 O 286.943 -1.709 0.565082 0
M  V30 3090 H 283.318 -0.581728 0.476547 0
M  V30 3091 H 285.289 -1.67123 2.47209 0
M  V30 3092 C 284.038 -3.14533 1.48204 0
M  V30 3093 H 283.361 -3.23911 2.34354 0
M  V30 3094 H 284.801 -3.93701 1.57402 0
M  V30 3095 C 283.26 -3.36287 0.203142 0
M  V30 3096 O 283.79 -3.9509 -0.725745 0
M  V30 3097 N 281.996 -2.90408 0.105563 0
M  V30 3098 H 281.543 -2.42739 0.862301 0
M  V30 3099 H 281.501 -3.05339 -0.749371 0
M  V30 3100 N 285.273 -1.31445 -0.869486 0
M  V30 3101 C 286.236 -1.19094 -1.9583 0
M  V30 3102 C 287.236 -0.117906 -1.60367 0
M  V30 3103 O 288.426 -0.367208 -1.70286 0
M  V30 3104 C 285.558 -0.828165 -3.30688 0
M  V30 3105 H 286.751 -2.15842 -2.08212 0
M  V30 3106 H 284.304 -1.15063 -1.05784 0
M  V30 3107 H 285.039 0.138142 -3.24006 0
M  V30 3108 H 284.824 -1.6038 -3.578 0
M  V30 3109 H 286.314 -0.765658 -4.10521 0
M  V30 3110 N 286.751 1.08385 -1.14413 0
M  V30 3111 C 287.714 2.13486 -0.834048 0
M  V30 3112 C 288.714 1.59988 0.161418 0
M  V30 3113 O 289.904 1.74071 -0.0669575 0
M  V30 3114 C 287.036 3.4003 -0.243354 0
M  V30 3115 H 288.229 2.42425 -1.7655 0
M  V30 3116 H 285.782 1.24101 -0.950189 0
M  V30 3117 H 286.517 3.16726 0.696807 0
M  V30 3118 H 286.302 3.80157 -0.960367 0
M  V30 3119 H 287.792 4.17577 -0.0436242 0
M  V30 3120 N 288.23 0.939286 1.26551 0
M  V30 3121 C 289.479 0.581601 1.93133 0
M  V30 3122 C 289.792 -0.883224 1.74524 0
M  V30 3123 O 290.998 -1.3502 2.35546 0
M  V30 3124 C 289.454 0.989425 3.46032 0
M  V30 3125 C 289.062 2.47573 3.73379 0
M  V30 3126 C 290.806 0.703544 4.18629 0
M  V30 3127 C 288.713 2.82235 5.19709 0
M  V30 3128 H 287.643 0.213803 0.723052 0
M  V30 3129 H 290.294 1.14167 1.4366 0
M  V30 3130 H 288.676 0.357902 3.94379 0
M  V30 3131 H 289.85 3.15614 3.35744 0
M  V30 3132 H 288.165 2.73471 3.1401 0
M  V30 3133 H 290.762 0.938869 5.26393 0
M  V30 3134 H 291.105 -0.359639 4.14744 0
M  V30 3135 H 291.638 1.2947 3.76141 0
M  V30 3136 H 288.377 3.87509 5.28694 0
M  V30 3137 H 287.897 2.18854 5.58447 0
M  V30 3138 H 289.576 2.70599 5.87695 0
M  V30 3139 N 289.708 -1.40897 0.706093 0
M  V30 3140 C 290.658 -2.27987 0.0240746 0
M  V30 3141 C 291.642 -1.42759 -0.742204 0
M  V30 3142 O 292.834 -1.65936 -0.615966 0
M  V30 3143 C 289.963 -3.31186 -0.903907 0
M  V30 3144 C 289.049 -4.2389 -0.133318 0
M  V30 3145 N 289.44 -4.98113 0.878444 0
M  V30 3146 C 287.738 -4.44485 -0.367269 0
M  V30 3147 C 288.439 -5.6604 1.34064 0
M  V30 3148 N 287.415 -5.39522 0.664565 0
M  V30 3149 H 291.217 -2.82812 0.799658 0
M  V30 3150 H 288.731 -1.53235 0.537845 0
M  V30 3151 H 290.728 -3.92413 -1.40775 0
M  V30 3152 H 289.388 -2.77922 -1.67897 0
M  V30 3153 H 290.399 -5.02364 1.25901 0
M  V30 3154 H 287.076 -4.02213 -1.1194 0
M  V30 3155 H 288.466 -6.35524 2.1808 0
M  V30 3156 N 291.186 -0.45159 -1.50991 0
M  V30 3157 C 292.133 0.352625 -2.2809 0
M  V30 3158 C 293.103 1.0044 -1.32291 0
M  V30 3159 O 294.288 1.02058 -1.6121 0
M  V30 3160 C 291.428 1.43983 -3.13629 0
M  V30 3161 C 290.541 0.804772 -4.24438 0
M  V30 3162 C 289.676 1.86822 -4.97263 0
M  V30 3163 C 288.715 1.21236 -5.99973 0
M  V30 3164 N 287.852 2.2178 -6.66152 0
M  V30 3165 H 292.692 -0.311186 -2.96371 0
M  V30 3166 H 290.229 -0.165308 -1.46168 0
M  V30 3167 H 292.187 2.08161 -3.61559 0
M  V30 3168 H 290.817 2.07307 -2.47434 0
M  V30 3169 H 289.869 0.0509129 -3.80366 0
M  V30 3170 H 291.181 0.286076 -4.97979 0
M  V30 3171 H 290.335 2.58628 -5.48813 0
M  V30 3172 H 289.074 2.42068 -4.23385 0
M  V30 3173 H 288.079 0.479828 -5.47702 0
M  V30 3174 H 289.304 0.667051 -6.75816 0
M  V30 3175 H 287.25 2.76079 -5.95077 0
M  V30 3176 H 287.167 1.74841 -7.35504 0
M  V30 3177 H 288.435 2.93026 -7.22327 0
M  V30 3178 N 292.664 1.56529 -0.183458 0
M  V30 3179 C 293.611 2.18546 0.742055 0
M  V30 3180 C 294.581 1.12912 1.2182 0
M  V30 3181 O 295.766 1.41115 1.28418 0
M  V30 3182 C 292.906 2.83977 1.96089 0
M  V30 3183 C 292.019 4.04105 1.52719 0
M  V30 3184 C 291.154 4.57427 2.70063 0
M  V30 3185 C 290.193 5.69938 2.23243 0
M  V30 3186 N 289.33 6.17717 3.33722 0
M  V30 3187 H 294.17 2.97284 0.206432 0
M  V30 3188 H 291.707 1.46823 0.0901571 0
M  V30 3189 H 293.665 3.20077 2.67594 0
M  V30 3190 H 292.295 2.07822 2.47002 0
M  V30 3191 H 291.347 3.73745 0.708436 0
M  V30 3192 H 292.659 4.85513 1.1436 0
M  V30 3193 H 291.813 4.95772 3.49708 0
M  V30 3194 H 290.552 3.75101 3.11689 0
M  V30 3195 H 289.557 5.31133 1.42048 0
M  V30 3196 H 290.782 6.54073 1.82661 0
M  V30 3197 H 288.728 5.38317 3.74902 0
M  V30 3198 H 288.645 6.94146 2.99495 0
M  V30 3199 H 289.913 6.60713 4.13616 0
M  V30 3200 N 294.142 -0.090211 1.57342 0
M  V30 3201 C 295.382 -0.798365 1.88163 0
M  V30 3202 C 295.746 -1.75662 0.775046 0
M  V30 3203 O 296.947 -2.50849 0.965816 0
M  V30 3204 C 295.218 -1.50376 3.24225 0
M  V30 3205 S 296.777 -2.24952 3.76752 0
M  V30 3206 H 293.595 -0.265883 0.659414 0
M  V30 3207 H 296.197 -0.055264 1.95422 0
M  V30 3208 H 294.901 -0.792286 4.0268 0
M  V30 3209 H 294.432 -2.28666 3.20118 0
M  V30 3210 H 296.447 -3.51173 3.5056 0
M  V30 3211 N 295.62 -1.53406 -0.361157 0
M  V30 3212 C 296.869 -1.69022 -1.10066 0
M  V30 3213 C 297.182 -0.450838 -1.90333 0
M  V30 3214 O 298.388 -0.487617 -2.67085 0
M  V30 3215 C 296.844 -2.98812 -2.00598 0
M  V30 3216 C 296.452 -4.30027 -1.25621 0
M  V30 3217 C 298.196 -3.23795 -2.74513 0
M  V30 3218 C 296.103 -5.50903 -2.1508 0
M  V30 3219 H 295.033 -0.629776 -0.414606 0
M  V30 3220 H 297.684 -1.79907 -0.361348 0
M  V30 3221 H 296.066 -2.8174 -2.78278 0
M  V30 3222 H 297.24 -4.57745 -0.529739 0
M  V30 3223 H 295.555 -4.11522 -0.635496 0
M  V30 3224 H 298.152 -4.11289 -3.41681 0
M  V30 3225 H 298.495 -2.40045 -3.40123 0
M  V30 3226 H 299.028 -3.41561 -2.03914 0
M  V30 3227 H 295.767 -6.37143 -1.54041 0
M  V30 3228 H 295.287 -5.27459 -2.85565 0
M  V30 3229 H 296.966 -5.85865 -2.74538 0
M  V30 3230 N 297.098 0.621204 -1.44841 0
M  V30 3231 C 298.375 1.38 -1.38619 0
M  V30 3232 C 298.755 2.11041 -0.0498935 0
M  V30 3233 O 298.103 2.06992 0.967816 0
M  V30 3234 C 298.313 2.33817 -2.59096 0
M  V30 3235 C 299.661 2.96844 -3.03593 0
M  V30 3236 O 300.685 2.44141 -2.59371 0
M  V30 3237 O 299.544 3.92476 -3.80296 0
M  V30 3238 H 296.638 0.61811 -0.549426 0
M  V30 3239 H 299.184 0.645429 -1.56947 0
M  V30 3240 H 297.956 1.79012 -3.47952 0
M  V30 3241 H 297.579 3.14676 -2.43032 0
M  V30 3242 N 298.576 1.31904 0.862503 0
M  V30 3243 C 299.523 1.20182 1.9704 0
M  V30 3244 C 300.493 0.0858247 1.65878 0
M  V30 3245 O 301.678 0.26 1.8902 0
M  V30 3246 C 298.818 0.922797 3.32533 0
M  V30 3247 C 297.931 2.12284 3.76244 0
M  V30 3248 C 297.066 1.77996 5.00491 0
M  V30 3249 C 296.105 2.94366 5.36671 0
M  V30 3250 N 295.242 2.60223 6.52095 0
M  V30 3251 H 300.082 2.14951 2.06398 0
M  V30 3252 H 297.619 1.06917 1.01031 0
M  V30 3253 H 299.577 0.741548 4.10557 0
M  V30 3254 H 298.207 0.0119227 3.22798 0
M  V30 3255 H 297.259 2.41461 2.9394 0
M  V30 3256 H 298.571 2.99357 3.98982 0
M  V30 3257 H 297.725 1.56377 5.862 0
M  V30 3258 H 296.464 0.881252 4.79672 0
M  V30 3259 H 295.469 3.16625 4.49476 0
M  V30 3260 H 296.694 3.84957 5.59451 0
M  V30 3261 H 294.64 1.72884 6.32809 0
M  V30 3262 H 294.557 3.40827 6.74814 0
M  V30 3263 H 295.825 2.42016 7.40978 0
M  V30 3264 N 300.054 -1.07777 1.14986 0
M  V30 3265 C 301.303 -1.79669 0.916617 0
M  V30 3266 C 301.616 -1.87474 -0.557917 0
M  V30 3267 O 302.822 -2.55845 -0.908617 0
M  V30 3268 C 301.278 -3.22848 1.59051 0
M  V30 3269 C 300.886 -3.23257 3.10176 0
M  V30 3270 C 302.63 -3.99379 1.43864 0
M  V30 3271 C 300.537 -4.61063 3.70372 0
M  V30 3272 H 299.467 -0.673349 0.33929 0
M  V30 3273 H 302.118 -1.21003 1.37951 0
M  V30 3274 H 300.5 -3.8168 1.0553 0
M  V30 3275 H 301.674 -2.74095 3.70417 0
M  V30 3276 H 299.989 -2.60222 3.25074 0
M  V30 3277 H 302.586 -5.0122 1.86232 0
M  V30 3278 H 302.929 -4.14511 0.385564 0
M  V30 3279 H 303.462 -3.47032 1.94457 0
M  V30 3280 H 300.201 -4.51135 4.7556 0
M  V30 3281 H 299.721 -5.1048 3.14913 0
M  V30 3282 H 301.4 -5.30034 3.71043 0
M  V30 3283 N 301.532 -0.945985 -1.26051 0
M  V30 3284 C 302.781 -0.591836 -1.92822 0
M  V30 3285 C 303.094 0.873956 -1.7499 0
M  V30 3286 O 304.3 1.33769 -2.36259 0
M  V30 3287 C 302.756 -1.00776 -3.45503 0
M  V30 3288 C 302.364 -2.4955 -3.7206 0
M  V30 3289 C 304.108 -0.725735 -4.1825 0
M  V30 3290 C 302.015 -2.84988 -5.18205 0
M  V30 3291 H 300.945 -0.217635 -0.721908 0
M  V30 3292 H 303.596 -1.14927 -1.43052 0
M  V30 3293 H 301.978 -0.378812 -3.94184 0
M  V30 3294 H 303.152 -3.1739 -3.34066 0
M  V30 3295 H 301.467 -2.75133 -3.12555 0
M  V30 3296 H 304.064 -0.966771 -5.25887 0
M  V30 3297 H 304.407 0.337639 -4.14929 0
M  V30 3298 H 304.94 -1.31463 -3.7545 0
M  V30 3299 H 301.679 -3.90307 -5.26631 0
M  V30 3300 H 301.199 -2.21813 -5.57278 0
M  V30 3301 H 302.878 -2.73712 -5.86252 0
M  V30 3302 N 303.011 1.40521 -0.713556 0
M  V30 3303 C 304.259 2.00527 -0.251692 0
M  V30 3304 C 304.58 1.56857 1.15848 0
M  V30 3305 O 303.85 0.807127 1.785 0
M  V30 3306 H 302.43 0.741551 -0.0900646 0
M  V30 3307 H 305.092 1.71887 -0.918733 0
M  V30 3308 H 304.188 3.10813 -0.283192 0
M  V30 3309 N 304.489 0.459591 1.5075 0
M  V30 3310 C 305.905 0.113092 1.59199 0
M  V30 3311 C 306.105 -1.37951 1.46874 0
M  V30 3312 O 305.161 -2.15168 1.32132 0
M  V30 3313 C 306.474 0.653043 2.93523 0
M  V30 3314 C 308.022 0.615449 3.0689 0
M  V30 3315 C 308.497 1.13275 4.43771 0
M  V30 3316 N 309.988 1.09167 4.50152 0
M  V30 3317 C 310.723 1.46256 5.54434 0
M  V30 3318 N 310.219 1.90739 6.66026 0
M  V30 3319 N 312.012 1.37932 5.44914 0
M  V30 3320 H 304.163 1.43049 1.57005 0
M  V30 3321 H 306.426 0.590861 0.741341 0
M  V30 3322 H 306.132 1.69822 3.07983 0
M  V30 3323 H 306.006 0.0902132 3.77092 0
M  V30 3324 H 308.393 -0.420793 2.92084 0
M  V30 3325 H 308.474 1.21495 2.25106 0
M  V30 3326 H 308.118 2.16757 4.59324 0
M  V30 3327 H 308.048 0.509576 5.24129 0
M  V30 3328 H 310.539 0.76528 3.7007 0
M  V30 3329 H 310.852 2.17218 7.41644 0
M  V30 3330 H 309.197 1.94683 6.67176 0
M  V30 3331 H 312.388 1.0303 4.56621 0
M  V30 3332 H 312.561 1.67164 6.26067 0
M  V30 3333 N 305.967 -1.56429 0.191757 0
M  V30 3334 C 307.207 -1.99383 -0.450099 0
M  V30 3335 C 307.571 -1.07581 -1.59029 0
M  V30 3336 O 308.772 -1.39758 -2.29611 0
M  V30 3337 C 307.043 -3.45841 -0.901611 0
M  V30 3338 S 308.602 -4.10822 -1.54177 0
M  V30 3339 H 305.42 -0.696253 -0.144057 0
M  V30 3340 H 308.022 -1.93276 0.294036 0
M  V30 3341 H 306.726 -4.10354 -0.0616596 0
M  V30 3342 H 306.257 -3.55757 -1.67929 0
M  V30 3343 H 308.272 -4.07553 -2.83046 0
M  V30 3344 N 307.445 0.0818655 -1.57387 0
M  V30 3345 C 308.673 0.796108 -1.9097 0
M  V30 3346 C 309.088 1.71626 -0.786757 0
M  V30 3347 O 308.445 1.80908 0.240513 0
M  V30 3348 C 308.496 1.59829 -3.24248 0
M  V30 3349 O 308.217 0.715131 -4.32224 0
M  V30 3350 C 309.718 2.41442 -3.7178 0
M  V30 3351 H 306.938 0.22691 -0.631469 0
M  V30 3352 H 309.482 0.0551439 -2.04426 0
M  V30 3353 H 307.637 2.29163 -3.12351 0
M  V30 3354 H 308.051 1.27205 -5.08841 0
M  V30 3355 H 309.525 2.932 -4.67694 0
M  V30 3356 H 310.002 3.2051 -3.00283 0
M  V30 3357 H 310.608 1.77283 -3.86589 0
M  V30 3358 N 308.923 1.53595 0.353017 0
M  V30 3359 C 310.171 1.70049 1.09215 0
M  V30 3360 C 310.492 0.461406 1.89463 0
M  V30 3361 O 309.762 -0.524633 1.88744 0
M  V30 3362 H 308.342 0.626912 0.40619 0
M  V30 3363 H 311.004 1.90822 0.396585 0
M  V30 3364 H 310.1 2.56718 1.77488 0
M  V30 3365 N 310.401 -0.613514 1.45168 0
M  V30 3366 C 311.629 -1.39946 1.5239 0
M  V30 3367 C 312.044 -1.88167 0.154531 0
M  V30 3368 O 311.401 -1.61872 -0.842843 0
M  V30 3369 C 311.452 -2.60795 2.50337 0
M  V30 3370 O 311.173 -2.1458 3.81952 0
M  V30 3371 C 312.674 -3.53723 2.67198 0
M  V30 3372 H 309.894 -0.428593 0.516284 0
M  V30 3373 H 312.438 -0.748753 1.903 0
M  V30 3374 H 310.593 -3.21919 2.15515 0
M  V30 3375 H 311.007 -2.93055 4.34993 0
M  V30 3376 H 312.481 -4.35079 3.39721 0
M  V30 3377 H 312.958 -4.0368 1.73029 0
M  V30 3378 H 313.564 -2.98456 3.02992 0
M  V30 3379 N 311.879 -1.3236 -0.855495 0
M  V30 3380 C 312.842 -1.21164 -1.94556 0
M  V30 3381 C 313.842 -0.134908 -1.60233 0
M  V30 3382 O 315.032 -0.385249 -1.69887 0
M  V30 3383 C 312.164 -0.863192 -3.29791 0
M  V30 3384 H 313.357 -2.18038 -2.05911 0
M  V30 3385 H 310.91 -1.16179 -1.04557 0
M  V30 3386 H 311.645 0.103769 -3.24134 0
M  V30 3387 H 311.43 -1.64166 -3.56078 0
M  V30 3388 H 312.92 -0.809156 -4.09686 0
M  V30 3389 N 313.357 1.07166 -1.15556 0
M  V30 3390 C 314.32 2.12589 -0.856644 0
M  V30 3391 C 315.32 1.6015 0.14444 0
M  V30 3392 O 316.51 1.7399 -0.0854163 0
M  V30 3393 C 313.642 3.39753 -0.279405 0
M  V30 3394 H 314.835 2.40539 -1.79112 0
M  V30 3395 H 312.388 1.23086 -0.963298 0
M  V30 3396 H 313.123 3.17447 0.663174 0
M  V30 3397 H 312.908 3.79117 -1.00063 0
M  V30 3398 H 314.398 4.17507 -0.0879113 0
M  V30 3399 N 314.835 0.952656 1.25548 0
M  V30 3400 C 315.783 0.462354 2.27958 0
M  V30 3401 C 316.777 -0.46634 1.62855 0
M  V30 3402 O 317.983 -0.343287 1.76696 0
M  V30 3403 H 314.358 0.13101 0.7405 0
M  V30 3404 H 316.329 1.33839 2.66702 0
M  V30 3405 C 315.078 -0.24628 3.46827 0
M  V30 3406 H 314.401 0.459192 3.97154 0
M  V30 3407 H 315.841 -0.553393 4.20373 0
M  V30 3408 C 314.3 -1.4681 3.0323 0
M  V30 3409 O 314.83 -2.56591 3.09069 0
M  V30 3410 N 313.036 -1.32874 2.58443 0
M  V30 3411 H 312.583 -0.435536 2.53891 0
M  V30 3412 H 312.541 -2.14742 2.29637 0
M  V30 3413 N 316.313 -1.40141 0.720998 0
M  V30 3414 C 317.538 -2.05618 0.271258 0
M  V30 3415 C 317.963 -1.53978 -1.08039 0
M  V30 3416 O 317.321 -0.677463 -1.68167 0
M  V30 3417 C 317.369 -3.59609 0.267197 0
M  V30 3418 O 316.473 -4.05526 -0.749814 0
M  V30 3419 H 315.814 -0.651904 0.126162 0
M  V30 3420 H 318.344 -1.79439 0.982997 0
M  V30 3421 H 318.354 -4.0786 0.106744 0
M  V30 3422 H 317.029 -3.96559 1.25354 0
M  V30 3423 H 315.606 -3.68722 -0.556644 0
M  V30 3424 N 317.792 -0.46758 -1.50504 0
M  V30 3425 C 319.208 -0.121533 -1.59137 0
M  V30 3426 C 319.408 1.3717 -1.47603 0
M  V30 3427 O 318.464 2.14464 -1.33272 0
M  V30 3428 C 319.777 -0.6686 -2.93173 0
M  V30 3429 C 321.325 -0.631716 -3.06559 0
M  V30 3430 C 321.8 -1.15627 -4.43164 0
M  V30 3431 N 323.291 -1.11553 -4.49567 0
M  V30 3432 C 324.026 -1.49195 -5.5365 0
M  V30 3433 N 323.522 -1.94269 -6.65005 0
M  V30 3434 N 325.315 -1.4082 -5.44175 0
M  V30 3435 H 317.466 -1.4388 -1.56245 0
M  V30 3436 H 319.729 -0.594784 -0.738198 0
M  V30 3437 H 319.435 -1.71453 -3.07078 0
M  V30 3438 H 319.309 -0.11021 -3.77039 0
M  V30 3439 H 321.696 0.405297 -2.92304 0
M  V30 3440 H 321.777 -1.22687 -2.24458 0
M  V30 3441 H 321.421 -2.1919 -4.58168 0
M  V30 3442 H 321.351 -0.537365 -5.23851 0
M  V30 3443 H 323.842 -0.784895 -3.69659 0
M  V30 3444 H 324.155 -2.21148 -7.40482 0
M  V30 3445 H 322.5 -1.98219 -6.66134 0
M  V30 3446 H 325.691 -1.0545 -4.56068 0
M  V30 3447 H 325.864 -1.70481 -6.25172 0
M  V30 3448 N 319.27 1.56325 -0.20005 0
M  V30 3449 C 320.547 1.89484 0.48529 0
M  V30 3450 C 320.927 1.1143 1.79294 0
M  V30 3451 O 320.275 0.216919 2.27468 0
M  V30 3452 C 320.485 3.41923 0.699243 0
M  V30 3453 C 321.833 4.12256 1.01638 0
M  V30 3454 O 322.857 3.47402 0.786792 0
M  V30 3455 O 321.716 5.26887 1.45095 0
M  V30 3456 H 318.81 0.787144 0.253639 0
M  V30 3457 H 321.356 1.67985 -0.240633 0
M  V30 3458 H 320.128 3.90658 -0.224008 0
M  V30 3459 H 319.751 3.69131 1.47744 0
M  V30 3460 N 320.748 -0.0735177 1.57428 0
M  V30 3461 C 321.976 -0.785969 1.9139 0
M  V30 3462 C 322.391 -1.71207 0.795847 0
M  V30 3463 O 321.748 -1.81033 -0.230915 0
M  V30 3464 C 321.799 -1.58107 3.25091 0
M  V30 3465 O 321.52 -0.6922 4.32597 0
M  V30 3466 C 323.021 -2.39467 3.73055 0
M  V30 3467 H 320.241 -0.223558 0.632663 0
M  V30 3468 H 322.785 -0.044302 2.04452 0
M  V30 3469 H 320.94 -2.27503 3.13562 0
M  V30 3470 H 321.354 -1.24504 5.09508 0
M  V30 3471 H 322.828 -2.90716 4.69242 0
M  V30 3472 H 323.305 -3.18913 3.01979 0
M  V30 3473 H 323.911 -1.7523 3.87523 0
M  V30 3474 N 322.226 -1.5378 -0.344866 0
M  V30 3475 C 323.475 -1.7018 -1.08267 0
M  V30 3476 C 323.788 -0.471 -1.89845 0
M  V30 3477 O 324.994 -0.515917 -2.66553 0
M  V30 3478 C 323.45 -3.00923 -1.97417 0
M  V30 3479 C 323.058 -4.31335 -1.21053 0
M  V30 3480 C 324.802 -3.26688 -2.71063 0
M  V30 3481 C 322.709 -5.53153 -2.09225 0
M  V30 3482 H 321.639 -0.634138 -0.407903 0
M  V30 3483 H 324.29 -1.8028 -0.342246 0
M  V30 3484 H 322.672 -2.84676 -2.75274 0
M  V30 3485 H 323.846 -4.58281 -0.481159 0
M  V30 3486 H 322.161 -4.12173 -0.591813 0
M  V30 3487 H 324.758 -4.1489 -3.37299 0
M  V30 3488 H 325.101 -2.43639 -3.37558 0
M  V30 3489 H 325.634 -3.43705 -2.0028 0
M  V30 3490 H 322.373 -6.38741 -1.47274 0
M  V30 3491 H 321.893 -5.30458 -2.79955 0
M  V30 3492 H 323.572 -5.88744 -2.68308 0
M  V30 3493 N 323.704 0.605807 -1.45491 0
M  V30 3494 C 324.951 1.36476 -1.49601 0
M  V30 3495 C 325.279 1.94007 -0.138452 0
M  V30 3496 O 324.534 1.75638 0.863114 0
M  V30 3497 C 324.833 2.53012 -2.52428 0
M  V30 3498 C 324.499 2.13617 -3.97087 0
M  V30 3499 C 323.161 2.02587 -4.36477 0
M  V30 3500 C 325.513 1.82899 -4.88055 0
M  V30 3501 C 322.841 1.59064 -5.64726 0
M  V30 3502 C 325.193 1.40861 -6.16718 0
M  V30 3503 C 323.857 1.28391 -6.55036 0
M  V30 3504 H 323.127 0.499402 -0.547429 0
M  V30 3505 H 325.774 0.684546 -1.78847 0
M  V30 3506 H 324.079 3.26379 -2.16758 0
M  V30 3507 H 325.776 3.1124 -2.52845 0
M  V30 3508 H 322.366 2.23129 -3.65939 0
M  V30 3509 H 326.55 1.90317 -4.58359 0
M  V30 3510 H 321.806 1.48034 -5.93208 0
M  V30 3511 H 325.98 1.16138 -6.86648 0
M  V30 3512 H 323.607 0.944403 -7.54311 0
M  V30 3513 N 325.182 1.32811 0.848464 0
M  V30 3514 C 326.114 1.18095 1.96433 0
M  V30 3515 C 327.127 0.114354 1.62398 0
M  V30 3516 O 328.316 0.363892 1.74751 0
M  V30 3517 C 325.416 0.786798 3.2964 0
M  V30 3518 C 324.589 1.943 3.91875 0
M  V30 3519 C 323.648 1.53138 5.03423 0
M  V30 3520 O 322.674 2.24432 5.23086 0
M  V30 3521 N 323.876 0.430915 5.78898 0
M  V30 3522 H 326.641 2.14218 2.09597 0
M  V30 3523 H 324.202 1.2543 1.02367 0
M  V30 3524 H 326.194 0.493715 4.01677 0
M  V30 3525 H 324.764 -0.0834541 3.12489 0
M  V30 3526 H 323.984 2.40224 3.12547 0
M  V30 3527 H 325.272 2.71689 4.30189 0
M  V30 3528 H 324.67 -0.162333 5.65467 0
M  V30 3529 H 323.227 0.197466 6.51501 0
M  V30 3530 N 326.66 -1.06551 1.16123 0
M  V30 3531 C 327.607 -2.13961 0.865414 0
M  V30 3532 C 328.577 -1.65066 -0.185055 0
M  V30 3533 O 329.762 -1.90732 -0.05083 0
M  V30 3534 C 326.902 -3.43113 0.369776 0
M  V30 3535 C 326.015 -4.05756 1.48276 0
M  V30 3536 C 325.15 -5.22773 0.942414 0
M  V30 3537 C 324.189 -5.77395 2.03179 0
M  V30 3538 N 323.326 -6.85731 1.50721 0
M  V30 3539 H 328.166 -2.38605 1.78527 0
M  V30 3540 H 325.703 -1.17072 0.890646 0
M  V30 3541 H 327.661 -4.17151 0.0640643 0
M  V30 3542 H 326.291 -3.18695 -0.513143 0
M  V30 3543 H 325.343 -3.29292 1.9045 0
M  V30 3544 H 326.655 -4.42351 2.30493 0
M  V30 3545 H 325.809 -6.03827 0.589729 0
M  V30 3546 H 324.548 -4.87618 0.0895191 0
M  V30 3547 H 323.553 -4.94981 2.3932 0
M  V30 3548 H 324.778 -6.14603 2.8886 0
M  V30 3549 H 322.724 -6.52499 0.676811 0
M  V30 3550 H 322.641 -7.21254 2.26557 0
M  V30 3551 H 323.909 -7.7047 1.18303 0
M  V30 3552 N 328.138 -0.959301 -1.25041 0
M  V30 3553 C 329.048 -0.489994 -2.29426 0
M  V30 3554 C 330.064 0.444944 -1.68215 0
M  V30 3555 O 331.24 0.320046 -1.98841 0
M  V30 3556 C 328.305 0.220309 -3.45999 0
M  V30 3557 C 327.366 -0.753418 -4.22637 0
M  V30 3558 C 326.599 -0.076918 -5.33645 0
M  V30 3559 O 326.822 1.13649 -5.58963 0
M  V30 3560 O 325.756 -0.764824 -5.97021 0
M  V30 3561 H 329.582 -1.35755 -2.71669 0
M  V30 3562 H 327.167 -0.725961 -1.30576 0
M  V30 3563 H 329.049 0.619677 -4.16819 0
M  V30 3564 H 327.724 1.06296 -3.0575 0
M  V30 3565 H 326.631 -1.20308 -3.54227 0
M  V30 3566 H 327.964 -1.56423 -4.66683 0
M  V30 3567 N 329.616 1.39756 -0.72842 0
M  V30 3568 C 331.032 1.5442 -0.403308 0
M  V30 3569 C 331.232 1.69694 1.08656 0
M  V30 3570 O 330.288 1.69373 1.87267 0
M  V30 3571 C 331.601 2.76555 -1.18058 0
M  V30 3572 C 333.149 2.90384 -1.16815 0
M  V30 3573 C 333.624 4.15449 -1.92785 0
M  V30 3574 N 335.115 4.22475 -1.89918 0
M  V30 3575 C 335.85 5.1818 -2.45514 0
M  V30 3576 N 335.346 6.19714 -3.09719 0
M  V30 3577 N 337.139 5.1035 -2.35584 0
M  V30 3578 H 329.29 1.28089 -1.69431 0
M  V30 3579 H 331.553 0.620327 -0.716867 0
M  V30 3580 H 331.259 2.7159 -2.23455 0
M  V30 3581 H 331.133 3.69033 -0.780662 0
M  V30 3582 H 333.52 2.94846 -0.12234 0
M  V30 3583 H 333.601 1.98988 -1.6074 0
M  V30 3584 H 333.245 4.11749 -2.97364 0
M  V30 3585 H 333.175 5.05877 -1.46272 0
M  V30 3586 H 335.666 3.49743 -1.43138 0
M  V30 3587 H 335.979 6.8919 -3.49625 0
M  V30 3588 H 334.324 6.20121 -3.13807 0
M  V30 3589 H 337.515 4.2996 -1.85072 0
M  V30 3590 H 337.688 5.84761 -2.79211 0
M  V30 3591 N 331.094 0.475555 1.50254 0
M  V30 3592 C 332.341 -0.0778919 2.0235 0
M  V30 3593 C 332.669 -1.39319 1.35722 0
M  V30 3594 O 331.924 -1.89888 0.473395 0
M  V30 3595 C 332.223 -0.305114 3.56095 0
M  V30 3596 C 331.889 0.92903 4.41225 0
M  V30 3597 C 330.551 1.26739 4.6421 0
M  V30 3598 C 332.903 1.75054 4.90923 0
M  V30 3599 C 330.231 2.42724 5.34137 0
M  V30 3600 C 332.583 2.9017 5.62125 0
M  V30 3601 C 331.247 3.24416 5.83362 0
M  V30 3602 H 330.517 -0.0285027 0.740452 0
M  V30 3603 H 333.164 0.630543 1.80821 0
M  V30 3604 H 331.469 -1.09584 3.76163 0
M  V30 3605 H 333.166 -0.747377 3.93974 0
M  V30 3606 H 329.756 0.655428 4.23559 0
M  V30 3607 H 333.94 1.50231 4.73016 0
M  V30 3608 H 329.196 2.69525 5.48786 0
M  V30 3609 H 333.37 3.54169 5.99614 0
M  V30 3610 H 330.997 4.14396 6.37323 0
M  V30 3611 N 332.573 -1.56217 0.208337 0
M  V30 3612 C 333.521 -2.21053 -0.723769 0
M  V30 3613 C 334.515 -1.18578 -1.20978 0
M  V30 3614 O 335.721 -1.36691 -1.17114 0
M  V30 3615 H 332.096 -0.708595 -0.251788 0
M  V30 3616 H 334.067 -2.98006 -0.153365 0
M  V30 3617 C 332.816 -2.89417 -1.927 0
M  V30 3618 H 332.139 -3.68019 -1.56212 0
M  V30 3619 H 333.579 -3.38201 -2.55727 0
M  V30 3620 C 332.038 -1.91166 -2.77411 0
M  V30 3621 O 332.568 -1.42026 -3.75754 0
M  V30 3622 N 330.774 -1.59105 -2.43175 0
M  V30 3623 H 330.321 -1.99259 -1.63259 0
M  V30 3624 H 330.279 -0.936255 -3.00136 0
M  V30 3625 N 334.051 0.0651679 -1.57465 0
M  V30 3626 C 335.3 0.761916 -1.86756 0
M  V30 3627 C 335.613 1.78406 -0.801925 0
M  V30 3628 O 336.819 2.53084 -0.982885 0
M  V30 3629 C 335.275 1.40603 -3.31299 0
M  V30 3630 C 334.883 0.422115 -4.46007 0
M  V30 3631 C 336.627 2.08476 -3.69781 0
M  V30 3632 C 334.534 1.07252 -5.81593 0
M  V30 3633 H 333.464 0.288308 -0.696702 0
M  V30 3634 H 336.115 0.015344 -1.83494 0
M  V30 3635 H 334.497 2.20109 -3.29193 0
M  V30 3636 H 335.671 -0.343613 -4.59517 0
M  V30 3637 H 333.986 -0.152527 -4.16121 0
M  V30 3638 H 336.583 2.57925 -4.68379 0
M  V30 3639 H 336.926 2.88712 -2.99919 0
M  V30 3640 H 337.459 1.35792 -3.73905 0
M  V30 3641 H 334.198 0.310342 -6.54765 0
M  V30 3642 H 333.718 1.80895 -5.71872 0
M  V30 3643 H 335.397 1.59043 -6.27148 0
M  V30 3644 N 335.529 1.53961 0.336706 0
M  V30 3645 C 336.806 1.62171 1.09361 0
M  V30 3646 C 337.186 0.447263 2.06307 0
M  V30 3647 O 336.534 -0.559802 2.21537 0
M  V30 3648 C 336.744 2.98565 1.80721 0
M  V30 3649 C 338.092 3.54157 2.34218 0
M  V30 3650 O 339.116 3.00784 1.90807 0
M  V30 3651 O 337.975 4.47528 3.13657 0
M  V30 3652 H 335.069 0.6562 0.503319 0
M  V30 3653 H 337.615 1.66307 0.33765 0
M  V30 3654 H 336.387 3.75482 1.10132 0
M  V30 3655 H 336.01 2.9805 2.63158 0
M  V30 3656 N 337.007 -0.598083 1.45811 0
M  V30 3657 C 337.94 -1.7223 1.49706 0
M  V30 3658 C 338.918 -1.58732 0.352535 0
M  V30 3659 O 340.102 -1.80162 0.554438 0
M  V30 3660 C 337.229 -3.10148 1.3611 0
M  V30 3661 C 336.275 -3.42209 2.54549 0
M  V30 3662 S 337.108 -3.35989 4.16979 0
M  V30 3663 C 338.264 -4.76471 4.05865 0
M  V30 3664 H 338.497 -1.68665 2.44826 0
M  V30 3665 H 336.03 -0.775541 1.33509 0
M  V30 3666 H 337.988 -3.8972 1.28953 0
M  V30 3667 H 336.649 -3.11219 0.424451 0
M  V30 3668 H 335.842 -4.42652 2.40988 0
M  V30 3669 H 335.444 -2.70173 2.58617 0
M  V30 3670 H 337.736 -5.665 3.71596 0
M  V30 3671 H 338.679 -4.95089 5.06253 0
M  V30 3672 H 339.087 -4.52599 3.37364 0
M  V30 3673 N 338.485 -1.33259 -0.841409 0
M  V30 3674 C 339.896 -1.22066 -1.41269 0
M  V30 3675 C 340.247 0.161479 -1.95534 0
M  V30 3676 O 339.372 1.06094 -1.88608 0
M  V30 3677 C 339.967 -2.20996 -2.568 0
M  V30 3678 C 338.526 -2.13649 -3.09888 0
M  V30 3679 C 337.673 -2.08623 -1.82679 0
M  V30 3680 H 340.624 -1.44895 -0.647395 0
M  V30 3681 H 340.645 -1.81621 -3.34356 0
M  V30 3682 H 340.157 -3.2158 -2.17274 0
M  V30 3683 H 338.258 -1.16359 -3.53965 0
M  V30 3684 H 338.371 -3.04079 -3.70234 0
M  V30 3685 H 336.735 -1.54061 -2.02824 0
M  V30 3686 H 337.518 -3.1101 -1.45353 0
M  V30 3687 N 339.963 1.05934 -1.16686 0
M  V30 3688 C 340.913 2.11764 -0.844978 0
M  V30 3689 C 341.897 1.59922 0.177178 0
M  V30 3690 O 343.089 1.76983 -0.0241768 0
M  V30 3691 C 340.218 3.41493 -0.351812 0
M  V30 3692 C 339.304 4.00152 -1.40496 0
M  V30 3693 N 339.695 4.32874 -2.61636 0
M  V30 3694 C 337.993 4.278 -1.26106 0
M  V30 3695 C 338.694 4.79552 -3.29249 0
M  V30 3696 N 337.67 4.79211 -2.56628 0
M  V30 3697 H 341.472 2.34916 -1.76612 0
M  V30 3698 H 338.986 1.23511 -1.05446 0
M  V30 3699 H 340.983 4.16773 -0.102796 0
M  V30 3700 H 339.643 3.19778 0.56322 0
M  V30 3701 H 340.654 4.23109 -2.98663 0
M  V30 3702 H 337.331 4.15511 -0.407081 0
M  V30 3703 H 338.721 5.14045 -4.32675 0
M  V30 3704 N 341.441 0.965919 1.2453 0
M  V30 3705 C 342.857 0.67216 1.44756 0
M  V30 3706 C 343.057 -0.766609 1.86347 0
M  V30 3707 O 342.113 -1.5407 2.00047 0
M  V30 3708 C 343.426 1.65473 2.51076 0
M  V30 3709 C 344.974 1.66716 2.64905 0
M  V30 3710 C 345.449 2.63766 3.74421 0
M  V30 3711 N 346.94 2.62198 3.81846 0
M  V30 3712 C 347.675 3.33966 4.66106 0
M  V30 3713 N 347.171 4.15245 5.54566 0
M  V30 3714 N 348.964 3.22799 4.60171 0
M  V30 3715 H 341.115 1.89553 0.958293 0
M  V30 3716 H 343.378 0.815979 0.482579 0
M  V30 3717 H 343.084 2.68296 2.27399 0
M  V30 3718 H 342.958 1.4261 3.49202 0
M  V30 3719 H 345.345 0.646057 2.87941 0
M  V30 3720 H 345.426 1.93642 1.67142 0
M  V30 3721 H 345.07 3.6601 3.52135 0
M  V30 3722 H 345 2.34121 4.71694 0
M  V30 3723 H 347.491 2.032 3.18619 0
M  V30 3724 H 347.804 4.66898 6.15814 0
M  V30 3725 H 346.149 4.1934 5.54237 0
M  V30 3726 H 349.34 2.58764 3.90075 0
M  V30 3727 H 349.513 3.78994 5.25612 0
M  V30 3728 N 342.919 -1.39368 0.735821 0
M  V30 3729 C 344.166 -2.00497 0.284123 0
M  V30 3730 C 344.494 -1.58387 -1.12889 0
M  V30 3731 O 343.749 -0.804359 -1.78406 0
M  V30 3732 C 344.048 -3.5583 0.334651 0
M  V30 3733 C 343.714 -4.17593 1.7008 0
M  V30 3734 C 342.376 -4.34176 2.07472 0
M  V30 3735 C 344.728 -4.51848 2.59775 0
M  V30 3736 C 342.056 -4.82304 3.34065 0
M  V30 3737 C 344.408 -5.01384 3.85741 0
M  V30 3738 C 343.072 -5.16175 4.23225 0
M  V30 3739 H 342.342 -0.73367 0.103968 0
M  V30 3740 H 344.989 -1.66683 0.942825 0
M  V30 3741 H 343.294 -3.89674 -0.407625 0
M  V30 3742 H 344.991 -4.00986 -0.0329927 0
M  V30 3743 H 341.581 -4.05087 1.40008 0
M  V30 3744 H 345.765 -4.38653 2.32157 0
M  V30 3745 H 341.021 -4.91941 3.63049 0
M  V30 3746 H 345.195 -5.26863 4.55399 0
M  V30 3747 H 342.822 -5.5323 5.21384 0
M  V30 3748 N 344.397 -0.483516 -1.5 0
M  V30 3749 C 345.344 0.304164 -2.28787 0
M  V30 3750 C 346.314 0.976114 -1.34392 0
M  V30 3751 O 347.499 0.986156 -1.63339 0
M  V30 3752 C 344.639 1.37298 -3.16612 0
M  V30 3753 C 343.752 0.714561 -4.26049 0
M  V30 3754 C 342.887 1.76232 -5.01114 0
M  V30 3755 C 341.926 1.08483 -6.0241 0
M  V30 3756 N 341.063 2.076 -6.70706 0
M  V30 3757 H 345.903 -0.373981 -2.95644 0
M  V30 3758 H 343.44 -0.196275 -1.45785 0
M  V30 3759 H 345.398 2.00445 -3.65893 0
M  V30 3760 H 344.028 2.02012 -2.51776 0
M  V30 3761 H 343.08 -0.0297798 -3.80388 0
M  V30 3762 H 344.392 0.180383 -4.98474 0
M  V30 3763 H 343.546 2.46929 -5.54176 0
M  V30 3764 H 342.285 2.33033 -4.28424 0
M  V30 3765 H 341.29 0.363545 -5.48597 0
M  V30 3766 H 342.515 0.523551 -6.77079 0
M  V30 3767 H 340.461 2.63394 -6.00799 0
M  V30 3768 H 340.378 1.59201 -7.39047 0
M  V30 3769 H 341.646 2.77639 -7.2838 0
M  V30 3770 N 345.875 1.56104 -0.216619 0
M  V30 3771 C 347.121 1.98466 0.417033 0
M  V30 3772 C 347.454 1.10403 1.59765 0
M  V30 3773 O 346.729 0.160632 1.93836 0
M  V30 3774 C 347.012 3.49769 0.85637 0
M  V30 3775 C 346.865 4.48606 -0.327546 0
M  V30 3776 C 348.184 4.05339 1.7143 0
M  V30 3777 H 345.303 0.721551 0.150112 0
M  V30 3778 H 347.945 1.87423 -0.311864 0
M  V30 3779 H 346.095 3.5931 1.47745 0
M  V30 3780 H 347.767 4.5108 -0.965618 0
M  V30 3781 H 346.01 4.22682 -0.975805 0
M  V30 3782 H 346.681 5.51995 0.0227149 0
M  V30 3783 H 349.157 3.98712 1.19031 0
M  V30 3784 H 348.033 5.11533 1.99061 0
M  V30 3785 H 348.294 3.51918 2.67593 0
M  V30 3786 N 347.353 -0.0568162 1.57498 0
M  V30 3787 C 348.303 -1.07315 2.01166 0
M  V30 3788 C 349.287 -1.33632 0.896171 0
M  V30 3789 O 350.479 -1.33682 1.16009 0
M  V30 3790 C 347.608 -2.38257 2.47161 0
M  V30 3791 C 346.694 -2.1515 3.65474 0
M  V30 3792 N 347.085 -1.62014 4.7915 0
M  V30 3793 C 345.383 -2.45559 3.72313 0
M  V30 3794 C 346.084 -1.54069 5.60926 0
M  V30 3795 N 345.06 -2.00652 5.05213 0
M  V30 3796 H 348.862 -0.655878 2.86488 0
M  V30 3797 H 346.376 -0.263635 1.60246 0
M  V30 3798 H 348.373 -3.11845 2.76691 0
M  V30 3799 H 347.033 -2.80687 1.63232 0
M  V30 3800 H 348.044 -1.30667 5.01145 0
M  V30 3801 H 344.721 -2.91253 2.99129 0
M  V30 3802 H 346.111 -1.13712 6.62208 0
M  V30 3803 N 348.832 -1.54138 -0.328536 0
M  V30 3804 C 349.78 -1.83894 -1.42428 0
M  V30 3805 C 350.774 -0.710478 -1.53781 0
M  V30 3806 O 351.98 -0.894062 -1.56226 0
M  V30 3807 H 348.355 -0.582837 -0.475189 0
M  V30 3808 H 350.326 -2.75537 -1.14552 0
M  V30 3809 C 349.075 -2.07866 -2.78724 0
M  V30 3810 H 348.398 -2.94158 -2.7076 0
M  V30 3811 H 349.838 -2.32644 -3.54476 0
M  V30 3812 C 348.297 -0.868689 -3.25508 0
M  V30 3813 O 348.827 -0.0754908 -4.01629 0
M  V30 3814 N 347.033 -0.681711 -2.82491 0
M  V30 3815 H 346.58 -1.32838 -2.20708 0
M  V30 3816 H 346.538 0.126374 -3.14146 0
M  V30 3817 N 350.31 0.590341 -1.46126 0
M  V30 3818 C 351.54 1.37304 -1.54373 0
M  V30 3819 C 351.948 1.88332 -0.181071 0
M  V30 3820 O 351.291 1.63852 0.830559 0
M  V30 3821 C 351.353 2.6012 -2.48149 0
M  V30 3822 C 351.017 2.30613 -3.94546 0
M  V30 3823 C 352.014 1.89915 -4.83971 0
M  V30 3824 C 349.699 2.42993 -4.39613 0
M  V30 3825 C 351.693 1.61981 -6.16475 0
M  V30 3826 C 349.38 2.14672 -5.72153 0
M  V30 3827 C 350.378 1.7423 -6.60404 0
M  V30 3828 O 350.066 1.46251 -7.90485 0
M  V30 3829 H 349.798 0.426086 -0.524811 0
M  V30 3830 H 352.352 0.72539 -1.92165 0
M  V30 3831 H 350.582 3.27664 -2.05361 0
M  V30 3832 H 352.271 3.22182 -2.46887 0
M  V30 3833 H 353.037 1.79872 -4.50412 0
M  V30 3834 H 348.916 2.73435 -3.71153 0
M  V30 3835 H 352.46 1.30341 -6.85315 0
M  V30 3836 H 348.357 2.24337 -6.05263 0
M  V30 3837 H 349.125 1.6016 -8.02677 0
M  V30 3838 N 351.788 1.33704 0.83433 0
M  V30 3839 C 352.721 1.18675 1.94914 0
M  V30 3840 C 353.699 0.0811145 1.62398 0
M  V30 3841 O 354.883 0.244186 1.86912 0
M  V30 3842 C 352.01 0.821231 3.28593 0
M  V30 3843 C 351.056 1.93501 3.80079 0
M  V30 3844 S 351.889 3.54671 4.01209 0
M  V30 3845 C 353.045 3.20136 5.37833 0
M  V30 3846 H 353.278 2.13043 2.07364 0
M  V30 3847 H 350.811 1.18598 0.988624 0
M  V30 3848 H 352.769 0.617123 4.05835 0
M  V30 3849 H 351.43 -0.103927 3.13928 0
M  V30 3850 H 350.623 1.63273 4.76821 0
M  V30 3851 H 350.225 2.09601 3.09747 0
M  V30 3852 H 352.517 2.71242 6.20833 0
M  V30 3853 H 353.46 4.15975 5.73036 0
M  V30 3854 H 353.868 2.56613 5.02802 0
M  V30 3855 N 353.266 -1.05314 1.17247 0
M  V30 3856 C 354.491 -1.82509 0.985148 0
M  V30 3857 C 354.916 -1.82343 -0.461788 0
M  V30 3858 O 354.274 -1.23151 -1.33055 0
M  V30 3859 C 354.322 -3.26566 1.52929 0
M  V30 3860 O 353.426 -4.05666 0.742225 0
M  V30 3861 H 352.767 -0.564347 0.349869 0
M  V30 3862 H 355.297 -1.32718 1.55715 0
M  V30 3863 H 355.307 -3.77369 1.55103 0
M  V30 3864 H 353.982 -3.26001 2.58256 0
M  V30 3865 H 352.559 -3.64397 0.791794 0
M  V30 3866 N 354.744 -0.972509 -1.24016 0
M  V30 3867 C 356.155 -0.67517 -1.74064 0
M  V30 3868 C 356.506 0.808939 -1.78747 0
M  V30 3869 O 355.631 1.63286 -1.42009 0
M  V30 3870 C 356.226 -1.21889 -3.16115 0
M  V30 3871 C 354.785 -0.971358 -3.6365 0
M  V30 3872 C 353.932 -1.35134 -2.42145 0
M  V30 3873 H 356.883 -1.14727 -1.09651 0
M  V30 3874 H 356.904 -0.587489 -3.75937 0
M  V30 3875 H 356.416 -2.29906 -3.12674 0
M  V30 3876 H 354.517 0.0930686 -3.72484 0
M  V30 3877 H 354.63 -1.62039 -4.50866 0
M  V30 3878 H 352.994 -0.769751 -2.4279 0
M  V30 3879 H 353.777 -2.4411 -2.41381 0
M  V30 3880 N 356.222 1.38976 -0.743202 0
M  V30 3881 C 357.45 2.04636 -0.30525 0
M  V30 3882 C 357.865 1.56044 1.06281 0
M  V30 3883 O 357.222 0.728921 1.67311 0
M  V30 3884 C 357.273 3.60193 -0.307177 0
M  V30 3885 O 356.994 4.06998 -1.62124 0
M  V30 3886 C 358.495 4.4306 0.145928 0
M  V30 3887 H 355.715 0.65788 -0.132041 0
M  V30 3888 H 358.259 1.77866 -1.00915 0
M  V30 3889 H 356.414 3.85835 0.347898 0
M  V30 3890 H 356.828 5.01371 -1.54036 0
M  V30 3891 H 358.302 5.51921 0.0934183 0
M  V30 3892 H 358.779 4.22706 1.19231 0
M  V30 3893 H 359.385 4.22584 -0.479886 0
M  V30 3894 N 357.7 0.491464 1.49741 0
M  V30 3895 C 358.947 -0.0564256 2.02421 0
M  V30 3896 C 359.275 -1.37872 1.37192 0
M  V30 3897 O 358.53 -1.89375 0.493508 0
M  V30 3898 C 358.829 -0.267329 3.56399 0
M  V30 3899 C 358.495 0.975775 4.40215 0
M  V30 3900 C 357.157 1.31655 4.62839 0
M  V30 3901 C 359.509 1.80251 4.89039 0
M  V30 3902 C 356.837 2.48375 5.31532 0
M  V30 3903 C 359.189 2.96116 5.59015 0
M  V30 3904 C 357.853 3.30585 5.79888 0
M  V30 3905 H 357.123 -0.0206476 0.740712 0
M  V30 3906 H 359.77 0.649686 1.80143 0
M  V30 3907 H 358.075 -1.05588 3.77304 0
M  V30 3908 H 359.772 -0.705549 3.94744 0
M  V30 3909 H 356.362 0.700315 4.2284 0
M  V30 3910 H 360.546 1.55239 4.71396 0
M  V30 3911 H 355.802 2.7533 5.45897 0
M  V30 3912 H 359.976 3.60509 5.95824 0
M  V30 3913 H 357.603 4.21132 6.32892 0
M  V30 3914 N 359.178 -1.55987 0.224894 0
M  V30 3915 C 360.418 -2.00293 -0.407706 0
M  V30 3916 C 360.782 -1.1093 -1.56711 0
M  V30 3917 O 361.983 -1.44597 -2.26595 0
M  V30 3918 C 360.254 -3.47675 -0.82805 0
M  V30 3919 S 361.813 -4.14 -1.45429 0
M  V30 3920 H 358.631 -0.699152 -0.129256 0
M  V30 3921 H 361.233 -1.92609 0.334967 0
M  V30 3922 H 359.937 -4.10392 0.0253964 0
M  V30 3923 H 359.468 -3.59239 -1.60345 0
M  V30 3924 H 361.483 -4.13465 -2.74337 0
M  V30 3925 N 360.656 0.0484629 -1.57525 0
M  V30 3926 C 361.933 0.777447 -1.79486 0
M  V30 3927 C 362.313 1.94597 -0.818251 0
M  V30 3928 O 361.661 2.28047 0.143767 0
M  V30 3929 C 361.871 1.22864 -3.26658 0
M  V30 3930 C 363.219 1.65251 -3.91123 0
M  V30 3931 O 364.243 1.32372 -3.3069 0
M  V30 3932 O 363.102 2.26207 -4.97486 0
M  V30 3933 H 360.196 0.374357 -0.737419 0
M  V30 3934 H 362.742 0.0267359 -1.69679 0
M  V30 3935 H 361.514 0.393589 -3.89316 0
M  V30 3936 H 361.137 2.03996 -3.41279 0
M  V30 3937 N 362.134 1.5431 0.320358 0
M  V30 3938 C 363.084 1.803 1.39556 0
M  V30 3939 C 364.068 0.659166 1.46778 0
M  V30 3940 O 365.26 0.91926 1.51257 0
M  V30 3941 C 362.389 2.03665 2.76361 0
M  V30 3942 C 361.475 3.24178 2.73439 0
M  V30 3943 N 361.866 4.4516 2.40137 0
M  V30 3944 C 360.164 3.25816 3.04565 0
M  V30 3945 C 360.865 5.27109 2.4603 0
M  V30 3946 N 359.841 4.64368 2.82601 0
M  V30 3947 H 363.643 2.71416 1.12742 0
M  V30 3948 H 361.157 1.53548 0.528856 0
M  V30 3949 H 363.154 2.20425 3.53862 0
M  V30 3950 H 361.814 1.13805 3.04103 0
M  V30 3951 H 362.825 4.72104 2.12927 0
M  V30 3952 H 359.502 2.46001 3.37328 0
M  V30 3953 H 360.892 6.33728 2.23246 0
M  V30 3954 N 363.613 -0.582584 1.46437 0
M  V30 3955 C 364.853 -1.35184 1.53312 0
M  V30 3956 C 365.217 -1.9115 0.180508 0
M  V30 3957 O 366.418 -2.68514 0.124017 0
M  V30 3958 C 364.689 -2.45089 2.60127 0
M  V30 3959 S 366.248 -3.32439 2.86408 0
M  V30 3960 H 363.066 -0.460559 0.54167 0
M  V30 3961 H 365.668 -0.669709 1.83671 0
M  V30 3962 H 364.372 -2.02366 3.57038 0
M  V30 3963 H 363.903 -3.18074 2.315 0
M  V30 3964 H 365.918 -4.43924 2.21688 0
M  V30 3965 N 365.091 -1.34144 -0.827227 0
M  V30 3966 C 366.339 -1.26009 -1.58007 0
M  V30 3967 C 366.66 0.170971 -1.94249 0
M  V30 3968 O 365.93 1.10256 -1.61927 0
M  V30 3969 H 364.51 -0.463414 -0.585881 0
M  V30 3970 H 367.172 -1.68005 -0.987951 0
M  V30 3971 H 366.268 -1.86187 -2.50481 0
M  V30 3972 N 366.569 1.04691 -1.17803 0
M  V30 3973 C 367.794 1.81984 -0.994813 0
M  V30 3974 C 368.219 1.82586 0.452112 0
M  V30 3975 O 367.577 1.23854 1.324 0
M  V30 3976 C 367.625 3.2575 -1.54659 0
M  V30 3977 O 366.729 4.05267 -0.763728 0
M  V30 3978 H 366.07 0.562483 -0.352857 0
M  V30 3979 H 368.6 1.3189 -1.56417 0
M  V30 3980 H 368.61 3.76541 -1.57102 0
M  V30 3981 H 367.285 3.24627 -2.59981 0
M  V30 3982 H 365.862 3.63972 -0.811108 0
M  V30 3983 N 368.047 0.979072 1.23499 0
M  V30 3984 C 368.977 0.537606 2.27227 0
M  V30 3985 C 369.958 -0.428539 1.64613 0
M  V30 3986 O 371.143 -0.322191 1.91509 0
M  V30 3987 C 368.273 -0.162052 3.46922 0
M  V30 3988 C 367.227 0.721242 4.21879 0
M  V30 3989 C 366.553 -0.110555 5.34586 0
M  V30 3990 C 367.853 2.01141 4.82016 0
M  V30 3991 H 369.547 1.40462 2.64406 0
M  V30 3992 H 367.093 0.67684 1.27102 0
M  V30 3993 H 369.046 -0.482192 4.18632 0
M  V30 3994 H 367.77 -1.06351 3.08799 0
M  V30 3995 H 366.429 1.02482 3.51984 0
M  V30 3996 H 366.077 -1.0125 4.92704 0
M  V30 3997 H 365.777 0.477325 5.85658 0
M  V30 3998 H 367.301 -0.425107 6.09118 0
M  V30 3999 H 368.715 1.75612 5.45741 0
M  V30 4000 H 367.112 2.54695 5.43369 0
M  V30 4001 H 368.182 2.69909 4.02836 0
M  V30 4002 N 369.525 -1.3858 0.750561 0
M  V30 4003 C 370.455 -2.33102 0.136237 0
M  V30 4004 C 371.436 -1.54713 -0.706965 0
M  V30 4005 O 372.621 -1.83043 -0.648769 0
M  V30 4006 C 369.751 -3.38882 -0.760017 0
M  V30 4007 C 368.705 -4.27995 -0.0197785 0
M  V30 4008 C 368.031 -5.24605 -1.03408 0
M  V30 4009 C 369.331 -5.09554 1.14684 0
M  V30 4010 H 371.025 -2.84726 0.925822 0
M  V30 4011 H 368.571 -1.36898 0.446654 0
M  V30 4012 H 370.524 -4.0397 -1.19943 0
M  V30 4013 H 369.248 -2.85734 -1.58189 0
M  V30 4014 H 367.907 -3.64409 0.400184 0
M  V30 4015 H 367.555 -4.67746 -1.84994 0
M  V30 4016 H 367.255 -5.85081 -0.543464 0
M  V30 4017 H 368.779 -5.9257 -1.47288 0
M  V30 4018 H 370.193 -5.67899 0.785118 0
M  V30 4019 H 368.59 -5.7925 1.56812 0
M  V30 4020 H 369.66 -4.4347 1.96118 0
M  V30 4021 N 371.003 -0.499398 -1.49478 0
M  V30 4022 C 372.249 0.0377587 -2.03365 0
M  V30 4023 C 372.604 1.3484 -1.37244 0
M  V30 4024 O 371.897 1.85 -0.498547 0
M  V30 4025 C 372.091 0.248424 -3.56536 0
M  V30 4026 C 371.92 -1.04025 -4.37503 0
M  V30 4027 C 370.69 -1.59159 -4.79579 0
M  V30 4028 C 372.888 -1.9431 -4.76181 0
M  V30 4029 N 370.87 -2.82634 -5.44969 0
M  V30 4030 C 372.241 -3.02364 -5.41272 0
M  V30 4031 C 374.296 -1.95008 -4.58123 0
M  V30 4032 C 372.999 -4.1114 -5.90217 0
M  V30 4033 C 375.025 -3.02758 -5.08027 0
M  V30 4034 C 374.387 -4.09531 -5.73118 0
M  V30 4035 H 370.486 -0.026923 -0.781536 0
M  V30 4036 H 373.07 -0.673901 -1.82665 0
M  V30 4037 H 371.241 0.929139 -3.77123 0
M  V30 4038 H 372.973 0.782445 -3.97064 0
M  V30 4039 H 369.728 -1.13696 -4.5975 0
M  V30 4040 H 370.152 -3.45416 -5.82252 0
M  V30 4041 H 374.794 -1.13766 -4.07207 0
M  V30 4042 H 372.512 -4.93181 -6.40155 0
M  V30 4043 H 376.098 -3.04315 -4.95866 0
M  V30 4044 H 374.978 -4.91534 -6.11035 0
M  V30 4045 N 372.481 1.55866 -0.233164 0
M  V30 4046 C 373.729 1.9821 0.394593 0
M  V30 4047 C 374.05 1.12234 1.59463 0
M  V30 4048 O 373.32 0.201981 1.94856 0
M  V30 4049 H 371.9 0.732034 0.148778 0
M  V30 4050 H 374.562 1.92107 -0.32876 0
M  V30 4051 H 373.658 3.03845 0.713063 0
M  V30 4052 N 373.959 -0.0401083 1.57549 0
M  V30 4053 C 374.889 -1.04384 2.08869 0
M  V30 4054 C 375.87 -1.38407 0.988817 0
M  V30 4055 O 377.055 -1.47483 1.26342 0
M  V30 4056 C 374.185 -2.34808 2.55895 0
M  V30 4057 C 373.139 -2.15057 3.70047 0
M  V30 4058 C 372.465 -3.51145 4.03239 0
M  V30 4059 C 373.765 -1.54576 4.98902 0
M  V30 4060 H 375.459 -0.616666 2.92981 0
M  V30 4061 H 373.005 -0.295184 1.40942 0
M  V30 4062 H 374.958 -3.05346 2.90417 0
M  V30 4063 H 373.682 -2.79565 1.68853 0
M  V30 4064 H 372.341 -1.46954 3.35857 0
M  V30 4065 H 371.989 -3.93529 3.13279 0
M  V30 4066 H 371.689 -3.38758 4.80122 0
M  V30 4067 H 373.213 -4.23062 4.40285 0
M  V30 4068 H 374.627 -2.15017 5.31451 0
M  V30 4069 H 373.024 -1.52796 5.80322 0
M  V30 4070 H 374.094 -0.51039 4.82206 0
M  V30 4071 N 375.437 -1.54477 -0.31217 0
M  V30 4072 C 376.683 -1.73483 -1.0503 0
M  V30 4073 C 377.016 -0.513125 -1.87298 0
M  V30 4074 O 376.291 0.489864 -1.8823 0
M  V30 4075 C 376.574 -3.01723 -1.96558 0
M  V30 4076 C 376.427 -4.3417 -1.17545 0
M  V30 4077 C 377.746 -3.25772 -2.95907 0
M  V30 4078 H 374.865 -0.631222 -0.380432 0
M  V30 4079 H 377.507 -1.87184 -0.325932 0
M  V30 4080 H 375.657 -2.90174 -2.58324 0
M  V30 4081 H 377.329 -4.5762 -0.581513 0
M  V30 4082 H 375.572 -4.31159 -0.477925 0
M  V30 4083 H 376.243 -5.20143 -1.84811 0
M  V30 4084 H 378.719 -3.36857 -2.44267 0
M  V30 4085 H 377.595 -4.16838 -3.57123 0
M  V30 4086 H 377.856 -2.43537 -3.68974 0
M  V30 4087 N 376.915 0.57481 -1.46744 0
M  V30 4088 C 377.862 1.68329 -1.57905 0
M  V30 4089 C 378.832 1.60625 -0.422927 0
M  V30 4090 O 380.017 1.79721 -0.640711 0
M  V30 4091 C 377.157 3.06665 -1.58274 0
M  V30 4092 C 376.27 3.24935 -2.84678 0
M  V30 4093 C 375.405 4.53566 -2.76499 0
M  V30 4094 C 374.444 4.65207 -3.97806 0
M  V30 4095 N 373.581 5.85172 -3.87967 0
M  V30 4096 H 378.421 1.58127 -2.52587 0
M  V30 4097 H 375.958 0.770552 -1.25303 0
M  V30 4098 H 377.916 3.86745 -1.56473 0
M  V30 4099 H 376.546 3.15745 -0.671194 0
M  V30 4100 H 375.598 2.38405 -2.96424 0
M  V30 4101 H 376.91 3.29403 -3.7456 0
M  V30 4102 H 376.064 5.41885 -2.72848 0
M  V30 4103 H 374.803 4.51548 -1.8427 0
M  V30 4104 H 373.808 3.75304 -4.0178 0
M  V30 4105 H 375.033 4.68997 -4.9114 0
M  V30 4106 H 372.979 5.84137 -2.98529 0
M  V30 4107 H 372.896 5.90943 -4.71511 0
M  V30 4108 H 374.164 6.759 -3.88303 0
M  V30 4109 N 378.394 1.34581 0.820102 0
M  V30 4110 C 379.326 1.22236 1.93884 0
M  V30 4111 C 380.339 0.148776 1.62119 0
M  V30 4112 O 381.528 0.400877 1.7394 0
M  V30 4113 C 378.628 0.856542 3.27897 0
M  V30 4114 C 377.801 2.02569 3.87666 0
M  V30 4115 C 376.86 1.63782 5.00062 0
M  V30 4116 O 375.886 2.35477 5.18208 0
M  V30 4117 N 377.088 0.553611 5.77854 0
M  V30 4118 H 379.853 2.18615 2.05006 0
M  V30 4119 H 377.414 1.27573 0.99683 0
M  V30 4120 H 379.406 0.578806 4.0054 0
M  V30 4121 H 377.976 -0.0171518 3.12595 0
M  V30 4122 H 377.196 2.468 3.07382 0
M  V30 4123 H 378.484 2.80752 4.24329 0
M  V30 4124 H 377.882 -0.0423528 5.65684 0
M  V30 4125 H 376.439 0.335614 6.50935 0
M  V30 4126 N 379.872 -1.04064 1.18357 0
M  V30 4127 C 381.12 -1.76915 0.977013 0
M  V30 4128 C 381.441 -1.88624 -0.494577 0
M  V30 4129 O 380.711 -1.41125 -1.3587 0
M  V30 4130 H 379.291 -0.65535 0.358504 0
M  V30 4131 H 381.953 -1.25592 1.49039 0
M  V30 4132 H 381.049 -2.78178 1.41504 0
M  V30 4133 N 381.35 -0.985608 -1.22978 0
M  V30 4134 C 382.28 -0.549649 -2.26939 0
M  V30 4135 C 383.261 0.419803 -1.64838 0
M  V30 4136 O 384.446 0.31203 -1.91677 0
M  V30 4137 C 381.576 0.143652 -3.47003 0
M  V30 4138 C 380.53 -0.743606 -4.21491 0
M  V30 4139 C 379.856 0.0822027 -5.34637 0
M  V30 4140 C 381.156 -2.03694 -4.80943 0
M  V30 4141 H 382.85 -1.41862 -2.63658 0
M  V30 4142 H 380.396 -0.683571 -1.26741 0
M  V30 4143 H 382.349 0.459985 -4.18882 0
M  V30 4144 H 381.073 1.04711 -3.09359 0
M  V30 4145 H 379.732 -1.04347 -3.51436 0
M  V30 4146 H 379.38 0.986359 -4.93234 0
M  V30 4147 H 379.08 -0.508377 -5.85397 0
M  V30 4148 H 380.604 0.392797 -6.09335 0
M  V30 4149 H 382.018 -1.78504 -5.44802 0
M  V30 4150 H 380.415 -2.57573 -5.42011 0
M  V30 4151 H 381.485 -2.72042 -4.01399 0
M  V30 4152 N 382.828 1.3818 -0.7579 0
M  V30 4153 C 383.775 2.30416 -0.133057 0
M  V30 4154 C 384.745 1.50398 0.704957 0
M  V30 4155 O 385.93 1.79014 0.660192 0
M  V30 4156 C 383.07 3.36834 0.750813 0
M  V30 4157 C 382.183 4.31879 -0.102297 0
M  V30 4158 C 381.318 5.25368 0.784979 0
M  V30 4159 C 380.357 6.12058 -0.0715046 0
M  V30 4160 N 379.494 6.97832 0.772972 0
M  V30 4161 H 384.334 2.83274 -0.925186 0
M  V30 4162 H 381.871 1.39461 -0.467866 0
M  V30 4163 H 383.829 3.97145 1.27794 0
M  V30 4164 H 382.459 2.85374 1.50868 0
M  V30 4165 H 381.511 3.72991 -0.747095 0
M  V30 4166 H 382.823 4.92921 -0.763552 0
M  V30 4167 H 381.977 5.90818 1.37911 0
M  V30 4168 H 380.716 4.64703 1.47996 0
M  V30 4169 H 379.721 5.456 -0.678272 0
M  V30 4170 H 380.946 6.74793 -0.763606 0
M  V30 4171 H 378.892 6.3971 1.45282 0
M  V30 4172 H 378.809 7.55812 0.168709 0
M  V30 4173 H 380.077 7.67687 1.35194 0
M  V30 4174 N 384.306 0.507319 1.49211 0
M  V30 4175 C 385.546 -0.0332372 2.04373 0
M  V30 4176 C 385.91 -1.33694 1.37804 0
M  V30 4177 O 387.111 -1.96213 1.83722 0
M  V30 4178 C 385.382 -0.17599 3.56966 0
M  V30 4179 S 386.941 -0.669882 4.33657 0
M  V30 4180 H 383.759 0.00123603 0.710999 0
M  V30 4181 H 386.361 0.682725 1.83191 0
M  V30 4182 H 385.065 0.778053 4.02957 0
M  V30 4183 H 384.596 -0.917005 3.82563 0
M  V30 4184 H 386.611 -1.93806 4.56786 0
M  V30 4185 N 385.784 -1.5574 0.241426 0
M  V30 4186 C 386.694 -2.2479 -0.671305 0
M  V30 4187 C 387.71 -1.26217 -1.19772 0
M  V30 4188 O 388.886 -1.59079 -1.23514 0
M  V30 4189 C 385.951 -2.92966 -1.85396 0
M  V30 4190 C 385.012 -4.06935 -1.36756 0
M  V30 4191 C 384.245 -4.71851 -2.49384 0
M  V30 4192 O 384.468 -4.35823 -3.67987 0
M  V30 4193 O 383.402 -5.60467 -2.19454 0
M  V30 4194 H 387.228 -3.0349 -0.112966 0
M  V30 4195 H 384.813 -1.49397 0.0101513 0
M  V30 4196 H 386.695 -3.35927 -2.54423 0
M  V30 4197 H 385.37 -2.17211 -2.40002 0
M  V30 4198 H 384.277 -3.68503 -0.644726 0
M  V30 4199 H 385.61 -4.84492 -0.867647 0
M  V30 4200 N 387.262 0.0317525 -1.57568 0
M  V30 4201 C 388.539 0.758366 -1.803 0
M  V30 4202 C 388.919 1.93718 -0.838845 0
M  V30 4203 O 388.267 2.28187 0.119571 0
M  V30 4204 C 388.477 1.19392 -3.27943 0
M  V30 4205 C 389.825 1.61094 -3.92854 0
M  V30 4206 O 390.849 1.28857 -3.32076 0
M  V30 4207 O 389.708 2.20918 -4.99858 0
M  V30 4208 H 386.802 0.366514 -0.741348 0
M  V30 4209 H 389.348 0.00873765 -1.69698 0
M  V30 4210 H 388.12 0.352275 -3.89711 0
M  V30 4211 H 387.743 2.00365 -3.43424 0
M  V30 4212 N 388.74 1.54641 0.303973 0
M  V30 4213 C 389.98 1.75516 1.04755 0
M  V30 4214 C 390.344 0.528211 1.84591 0
M  V30 4215 O 391.545 0.614645 2.61678 0
M  V30 4216 C 389.816 3.00685 1.93193 0
M  V30 4217 S 391.375 3.42549 2.74237 0
M  V30 4218 H 388.193 0.616987 0.353339 0
M  V30 4219 H 390.795 1.92842 0.321292 0
M  V30 4220 H 389.499 3.8811 1.33411 0
M  V30 4221 H 389.03 2.85937 2.70191 0
M  V30 4222 H 391.045 2.99386 3.95705 0
M  V30 4223 N 390.218 -0.567019 1.47046 0
M  V30 4224 C 391.466 -1.322 1.52864 0
M  V30 4225 C 391.787 -1.94088 0.188388 0
M  V30 4226 O 391.057 -1.7941 -0.786693 0
M  V30 4227 H 389.637 -0.490894 0.563056 0
M  V30 4228 H 392.299 -0.662879 1.83281 0
M  V30 4229 H 391.395 -2.12062 2.2899 0
M  V30 4230 N 391.696 -1.35014 -0.812953 0
M  V30 4231 C 392.629 -1.21761 -1.93001 0
M  V30 4232 C 393.607 -0.10694 -1.62248 0
M  V30 4233 O 394.791 -0.273891 -1.865 0
M  V30 4234 C 391.918 -0.873404 -3.27245 0
M  V30 4235 C 390.964 -1.99523 -3.76952 0
M  V30 4236 S 391.797 -3.61009 -3.95516 0
M  V30 4237 C 392.953 -3.28651 -5.32672 0
M  V30 4238 H 393.186 -2.16315 -2.03948 0
M  V30 4239 H 390.719 -1.20156 -0.969631 0
M  V30 4240 H 392.677 -0.68161 -4.04802 0
M  V30 4241 H 391.338 0.053971 -3.14054 0
M  V30 4242 H 390.531 -1.70838 -4.74163 0
M  V30 4243 H 390.133 -2.14503 -3.06373 0
M  V30 4244 H 392.425 -2.81085 -6.1644 0
M  V30 4245 H 393.368 -4.25039 -5.66346 0
M  V30 4246 H 393.776 -2.6458 -4.98656 0
M  V30 4247 N 393.175 1.03435 -1.18907 0
M  V30 4248 C 394.123 2.13703 -0.918353 0
M  V30 4249 C 395.117 1.68947 0.123767 0
M  V30 4250 O 396.323 1.79983 -0.0249701 0
M  V30 4251 H 392.698 0.698112 -0.279542 0
M  V30 4252 H 394.669 2.33731 -1.85506 0
M  V30 4253 C 393.418 3.44542 -0.467532 0
M  V30 4254 H 392.741 3.79394 -1.26095 0
M  V30 4255 H 394.181 4.22812 -0.317164 0
M  V30 4256 C 392.64 3.26829 0.817588 0
M  V30 4257 O 393.17 3.54975 1.88031 0
M  V30 4258 N 391.376 2.80139 0.772677 0
M  V30 4259 H 390.923 2.57434 -0.0923883 0
M  V30 4260 H 390.881 2.68668 1.63294 0
M  V30 4261 N 394.653 0.992116 1.22453 0
M  V30 4262 C 395.899 0.668523 1.91464 0
M  V30 4263 C 396.232 -0.797313 1.77078 0
M  V30 4264 O 395.507 -1.5765 1.13916 0
M  V30 4265 C 395.79 1.07424 3.43703 0
M  V30 4266 C 395.643 2.59857 3.67143 0
M  V30 4267 C 396.962 0.626891 4.35612 0
M  V30 4268 H 394.081 0.244341 0.695318 0
M  V30 4269 H 396.723 1.2355 1.44345 0
M  V30 4270 H 394.873 0.591816 3.83966 0
M  V30 4271 H 396.545 3.15764 3.3629 0
M  V30 4272 H 394.788 3.01961 3.11451 0
M  V30 4273 H 395.459 2.83296 4.73759 0
M  V30 4274 H 397.935 1.04125 4.02861 0
M  V30 4275 H 396.811 0.939076 5.40807 0
M  V30 4276 H 397.072 -0.472457 4.39568 0
M  V30 4277 N 396.131 -1.37776 0.765217 0
M  V30 4278 C 397.081 -2.2768 0.12075 0
M  V30 4279 C 398.065 -1.45778 -0.680988 0
M  V30 4280 O 399.257 -1.684 -0.545033 0
M  V30 4281 C 396.386 -3.34722 -0.762626 0
M  V30 4282 C 395.472 -4.24074 0.0465881 0
M  V30 4283 N 395.863 -4.93939 1.08892 0
M  V30 4284 C 394.161 -4.45643 -0.178418 0
M  V30 4285 C 394.862 -5.59845 1.57951 0
M  V30 4286 N 393.838 -5.36218 0.892797 0
M  V30 4287 H 397.64 -2.79166 0.918889 0
M  V30 4288 H 395.154 -1.50816 0.602353 0
M  V30 4289 H 397.151 -3.98031 -1.24005 0
M  V30 4290 H 395.811 -2.84793 -1.55959 0
M  V30 4291 H 396.822 -4.96572 1.47095 0
M  V30 4292 H 393.499 -4.06599 -0.9478 0
M  V30 4293 H 394.889 -6.25703 2.44838 0
M  V30 4294 N 397.609 -0.515225 -1.4894 0
M  V30 4295 C 398.559 0.275113 -2.26334 0
M  V30 4296 C 399.543 0.923007 -1.31793 0
M  V30 4297 O 400.735 0.828254 -1.56426 0
M  V30 4298 C 397.864 1.33041 -3.16473 0
M  V30 4299 C 396.95 0.688051 -4.18481 0
M  V30 4300 N 397.341 -0.217638 -5.05332 0
M  V30 4301 C 395.639 0.94699 -4.3583 0
M  V30 4302 C 396.34 -0.58676 -5.78733 0
M  V30 4303 N 395.316 0.0486966 -5.43578 0
M  V30 4304 H 399.118 -0.421876 -2.90856 0
M  V30 4305 H 396.632 -0.332249 -1.58965 0
M  V30 4306 H 398.629 1.9102 -3.70563 0
M  V30 4307 H 397.289 2.02894 -2.53504 0
M  V30 4308 H 398.3 -0.589343 -5.14536 0
M  V30 4309 H 394.977 1.63719 -3.8406 0
M  V30 4310 H 396.367 -1.32855 -6.58634 0
M  V30 4311 N 399.087 1.5561 -0.249682 0
M  V30 4312 C 400.034 2.21496 0.648694 0
M  V30 4313 C 401.004 1.17977 1.16921 0
M  V30 4314 O 402.189 1.46434 1.22318 0
M  V30 4315 C 399.329 2.92039 1.83868 0
M  V30 4316 C 398.442 4.10219 1.35442 0
M  V30 4317 C 397.577 4.6847 2.50419 0
M  V30 4318 C 396.616 5.78893 1.98869 0
M  V30 4319 N 395.753 6.31315 3.07223 0
M  V30 4320 H 400.593 2.97892 0.0801582 0
M  V30 4321 H 398.13 1.47074 0.0278031 0
M  V30 4322 H 400.088 3.31138 2.53778 0
M  V30 4323 H 398.718 2.18111 2.37965 0
M  V30 4324 H 397.77 3.76413 0.54928 0
M  V30 4325 H 399.082 4.89927 0.936649 0
M  V30 4326 H 398.236 5.10158 3.28366 0
M  V30 4327 H 396.975 3.87984 2.95499 0
M  V30 4328 H 395.98 5.3668 1.19393 0
M  V30 4329 H 397.205 6.61232 1.54755 0
M  V30 4330 H 395.151 5.53733 3.51732 0
M  V30 4331 H 395.068 7.06224 2.69784 0
M  V30 4332 H 396.336 6.77662 3.8522 0
M  V30 4333 N 400.565 -0.0233959 1.57583 0
M  V30 4334 C 401.805 -0.71784 1.9138 0
M  V30 4335 C 402.169 -1.72216 0.848853 0
M  V30 4336 O 403.37 -2.46527 1.07134 0
M  V30 4337 C 401.641 -1.36489 3.30311 0
M  V30 4338 S 403.2 -2.0877 3.85954 0
M  V30 4339 H 400.018 -0.237676 0.670098 0
M  V30 4340 H 402.62 0.0276709 1.9548 0
M  V30 4341 H 401.324 -0.620782 4.05678 0
M  V30 4342 H 400.855 -2.14883 3.29528 0
M  V30 4343 H 402.87 -3.35988 3.65139 0
M  V30 4344 N 402.043 -1.548 -0.295768 0
M  V30 4345 C 403.459 -1.4613 -0.641722 0
M  V30 4346 C 403.659 -0.656771 -1.90496 0
M  V30 4347 O 402.715 -0.166547 -2.5195 0
M  V30 4348 C 404.028 -2.90141 -0.789852 0
M  V30 4349 C 405.576 -3.00216 -0.885396 0
M  V30 4350 C 406.051 -4.45434 -1.06548 0
M  V30 4351 N 407.542 -4.49166 -1.13156 0
M  V30 4352 C 408.277 -5.58717 -1.28929 0
M  V30 4353 N 407.773 -6.78182 -1.41567 0
M  V30 4354 N 409.566 -5.46415 -1.31859 0
M  V30 4355 H 401.717 -2.05574 0.534147 0
M  V30 4356 H 403.98 -0.931259 0.177372 0
M  V30 4357 H 403.686 -3.51635 0.0675598 0
M  V30 4358 H 403.56 -3.37859 -1.67724 0
M  V30 4359 H 405.947 -2.38833 -1.73329 0
M  V30 4360 H 406.028 -2.55787 0.0261185 0
M  V30 4361 H 405.672 -5.07413 -0.222335 0
M  V30 4362 H 405.602 -4.87499 -1.9913 0
M  V30 4363 H 408.093 -3.631 -1.04721 0
M  V30 4364 H 408.406 -7.57428 -1.53372 0
M  V30 4365 H 406.751 -6.81037 -1.38613 0
M  V30 4366 H 409.942 -4.5203 -1.21601 0
M  V30 4367 H 410.115 -6.31841 -1.43808 0
M  V30 4368 N 403.521 0.559213 -1.47345 0
M  V30 4369 C 404.431 1.69388 -1.62311 0
M  V30 4370 C 405.447 1.6648 -0.505993 0
M  V30 4371 O 406.623 1.85964 -0.773262 0
M  V30 4372 C 403.688 3.05894 -1.63185 0
M  V30 4373 C 402.749 3.19885 -2.86307 0
M  V30 4374 C 401.982 4.49879 -2.87131 0
M  V30 4375 O 402.205 5.35217 -1.97229 0
M  V30 4376 O 401.139 4.67618 -3.78968 0
M  V30 4377 H 404.965 1.59706 -2.58317 0
M  V30 4378 H 402.55 0.728989 -1.30407 0
M  V30 4379 H 404.432 3.87133 -1.66451 0
M  V30 4380 H 403.107 3.15964 -0.70345 0
M  V30 4381 H 402.014 2.38052 -2.88587 0
M  V30 4382 H 403.347 3.14718 -3.78435 0
M  V30 4383 N 404.999 1.35443 0.805782 0
M  V30 4384 C 405.946 1.28431 1.91766 0
M  V30 4385 C 406.916 0.156102 1.65365 0
M  V30 4386 O 408.101 0.339936 1.87747 0
M  V30 4387 C 405.241 1.06301 3.2832 0
M  V30 4388 C 404.354 2.2805 3.66902 0
M  V30 4389 C 403.489 1.99064 4.92491 0
M  V30 4390 C 402.528 3.16863 5.23703 0
M  V30 4391 N 401.665 2.87647 6.40471 0
M  V30 4392 H 406.505 2.23511 1.97096 0
M  V30 4393 H 404.042 1.11105 0.964054 0
M  V30 4394 H 406 0.915012 4.07042 0
M  V30 4395 H 404.63 0.148822 3.22457 0
M  V30 4396 H 403.682 2.53711 2.83434 0
M  V30 4397 H 404.994 3.1601 3.85927 0
M  V30 4398 H 404.148 1.81099 5.7904 0
M  V30 4399 H 402.887 1.0839 4.75503 0
M  V30 4400 H 401.892 3.35404 4.35642 0
M  V30 4401 H 403.117 4.08339 5.4262 0
M  V30 4402 H 401.063 1.99568 6.24907 0
M  V30 4403 H 400.98 3.69141 6.59751 0
M  V30 4404 H 402.248 2.73226 7.30047 0
M  V30 4405 N 406.477 -1.02803 1.19454 0
M  V30 4406 C 407.723 -1.76478 0.999171 0
M  V30 4407 C 408.056 -1.88456 -0.468828 0
M  V30 4408 O 407.331 -1.40198 -1.34814 0
M  V30 4409 C 407.614 -3.19044 1.66981 0
M  V30 4410 C 407.467 -3.14932 3.21151 0
M  V30 4411 C 408.786 -4.17456 1.39349 0
M  V30 4412 H 405.905 -0.640614 0.364393 0
M  V30 4413 H 408.547 -1.20005 1.47305 0
M  V30 4414 H 406.697 -3.67263 1.2669 0
M  V30 4415 H 408.369 -2.74605 3.70661 0
M  V30 4416 H 406.612 -2.52625 3.52652 0
M  V30 4417 H 407.283 -4.1566 3.63223 0
M  V30 4418 H 409.759 -3.77842 1.74283 0
M  V30 4419 H 408.635 -5.154 1.88823 0
M  V30 4420 H 408.896 -4.40949 0.318813 0
M  V30 4421 N 407.956 -0.998596 -1.21925 0
M  V30 4422 C 408.919 -0.558679 -2.22287 0
M  V30 4423 C 409.919 0.361525 -1.56683 0
M  V30 4424 O 411.109 0.152695 -1.73529 0
M  V30 4425 C 408.241 0.18661 -3.40389 0
M  V30 4426 H 409.434 -1.4463 -2.62721 0
M  V30 4427 H 406.987 -0.786413 -1.35075 0
M  V30 4428 H 407.722 1.08996 -3.05435 0
M  V30 4429 H 407.507 -0.474188 -3.89222 0
M  V30 4430 H 408.997 0.482367 -4.14805 0
M  V30 4431 N 409.434 1.37368 -0.772513 0
M  V30 4432 C 410.382 2.32134 -0.147111 0
M  V30 4433 C 411.376 1.54972 0.684106 0
M  V30 4434 O 412.582 1.70363 0.581083 0
M  V30 4435 H 408.957 0.751449 -0.028786 0
M  V30 4436 H 410.928 2.82464 -0.962112 0
M  V30 4437 C 409.677 3.40226 0.71703 0
M  V30 4438 H 409 3.99706 0.0867951 0
M  V30 4439 H 410.44 4.08897 1.12159 0
M  V30 4440 C 408.899 2.80372 1.86797 0
M  V30 4441 O 409.429 2.71183 2.96349 0
M  V30 4442 N 407.635 2.37904 1.66883 0
M  V30 4443 H 407.182 2.45578 0.777759 0
M  V30 4444 H 407.14 1.98202 2.44056 0
M  V30 4445 N 410.912 0.523116 1.48665 0
M  V30 4446 C 411.842 -0.23231 2.32342 0
M  V30 4447 C 412.823 -0.941637 1.41659 0
M  V30 4448 O 414.008 -0.928751 1.70552 0
M  V30 4449 C 411.138 -1.28387 3.22698 0
M  V30 4450 C 410.092 -0.693098 4.22351 0
M  V30 4451 C 409.418 -1.8468 5.01794 0
M  V30 4452 C 410.718 0.33063 5.21252 0
M  V30 4453 H 412.412 0.466192 2.95748 0
M  V30 4454 H 409.958 0.225643 1.42221 0
M  V30 4455 H 411.911 -1.82024 3.80059 0
M  V30 4456 H 410.635 -2.01186 2.57278 0
M  V30 4457 H 409.294 -0.178299 3.66166 0
M  V30 4458 H 408.942 -2.56301 4.32804 0
M  V30 4459 H 408.642 -1.45747 5.69238 0
M  V30 4460 H 410.166 -2.38709 5.62006 0
M  V30 4461 H 411.58 -0.118407 5.73178 0
M  V30 4462 H 409.977 0.636974 5.9671 0
M  V30 4463 H 411.047 1.23883 4.68808 0
M  V30 4464 N 412.39 -1.55475 0.257931 0
M  V30 4465 C 413.63 -2.01112 -0.365129 0
M  V30 4466 C 413.994 -1.1423 -1.54323 0
M  V30 4467 O 415.195 -1.49371 -2.23477 0
M  V30 4468 C 413.466 -3.49353 -0.754117 0
M  V30 4469 S 415.025 -4.16992 -1.36614 0
M  V30 4470 H 411.843 -0.701737 -0.114397 0
M  V30 4471 H 414.445 -1.91855 0.375747 0
M  V30 4472 H 413.149 -4.10246 0.112441 0
M  V30 4473 H 412.68 -3.6256 -1.52689 0
M  V30 4474 H 414.695 -4.19191 -2.65505 0
M  V30 4475 N 413.868 0.0150385 -1.57593 0
M  V30 4476 C 415.116 0.701613 -1.8953 0
M  V30 4477 C 415.437 1.75139 -0.857396 0
M  V30 4478 O 414.707 1.95607 0.107194 0
M  V30 4479 H 413.287 0.26213 -0.699498 0
M  V30 4480 H 415.949 -0.0223304 -1.94887 0
M  V30 4481 H 415.045 1.18236 -2.88837 0
M  V30 4482 N 415.346 1.54954 0.287554 0
M  V30 4483 C 416.595 1.74081 1.01877 0
M  V30 4484 C 416.908 0.541135 1.87966 0
M  V30 4485 O 418.114 0.614491 2.64455 0
M  V30 4486 C 416.57 3.08042 1.86113 0
M  V30 4487 C 416.178 4.35531 1.04961 0
M  V30 4488 C 417.922 3.36523 2.58752 0
M  V30 4489 C 415.829 5.60538 1.88551 0
M  V30 4490 H 414.759 0.64884 0.384087 0
M  V30 4491 H 417.41 1.81426 0.275101 0
M  V30 4492 H 415.792 2.94696 2.64519 0
M  V30 4493 H 416.966 4.59751 0.31074 0
M  V30 4494 H 415.281 4.14085 0.43843 0
M  V30 4495 H 417.878 4.27122 3.21668 0
M  V30 4496 H 418.221 2.56 3.28283 0
M  V30 4497 H 418.754 3.50901 1.87386 0
M  V30 4498 H 415.493 6.43767 1.23466 0
M  V30 4499 H 415.013 5.40483 2.60074 0
M  V30 4500 H 416.692 5.98297 2.46273 0
M  V30 4501 N 416.824 -0.551391 1.4764 0
M  V30 4502 C 417.772 -1.67896 1.60978 0
M  V30 4503 C 418.766 -1.62549 0.476877 0
M  V30 4504 O 419.972 -1.67664 0.654878 0
M  V30 4505 H 416.347 -0.555649 0.506713 0
M  V30 4506 H 418.318 -1.53784 2.55721 0
M  V30 4507 C 417.067 -3.06234 1.64669 0
M  V30 4508 H 416.39 -3.11033 2.51194 0
M  V30 4509 H 417.83 -3.84804 1.7805 0
M  V30 4510 C 416.289 -3.34737 0.381115 0
M  V30 4511 O 416.819 -3.98381 -0.515297 0
M  V30 4512 N 415.025 -2.8944 0.259354 0
M  V30 4513 H 414.572 -2.37827 0.98976 0
M  V30 4514 H 414.53 -3.08882 -0.586464 0
M  V30 4515 N 418.302 -1.35869 -0.798587 0
M  V30 4516 C 419.234 -1.25305 -1.91915 0
M  V30 4517 C 420.247 -0.174548 -1.61862 0
M  V30 4518 O 421.436 -0.428499 -1.73281 0
M  V30 4519 C 418.536 -0.9086 -3.26493 0
M  V30 4520 C 417.709 -2.08711 -3.84394 0
M  V30 4521 C 416.768 -1.71717 -4.97393 0
M  V30 4522 O 415.794 -2.43692 -5.14396 0
M  V30 4523 N 416.996 -0.645473 -5.769 0
M  V30 4524 H 419.761 -2.21849 -2.01502 0
M  V30 4525 H 417.322 -1.29143 -0.976408 0
M  V30 4526 H 419.314 -0.642455 -3.99568 0
M  V30 4527 H 417.884 -0.0325815 -3.12583 0
M  V30 4528 H 417.104 -2.51659 -3.03416 0
M  V30 4529 H 418.392 -2.87468 -4.19809 0
M  V30 4530 H 417.79 -0.047648 -5.6568 0
M  V30 4531 H 416.347 -0.43913 -6.50319 0
M  V30 4532 N 419.78 1.02168 -1.19998 0
M  V30 4533 C 420.727 2.10601 -0.944228 0
M  V30 4534 C 421.697 1.65639 0.123664 0
M  V30 4535 O 422.882 1.9079 -0.0199941 0
M  V30 4536 C 420.022 3.41504 -0.496865 0
M  V30 4537 C 419.135 3.99973 -1.63234 0
M  V30 4538 C 418.27 5.18915 -1.13579 0
M  V30 4539 C 417.309 5.69456 -2.24468 0
M  V30 4540 N 416.446 6.79665 -1.76068 0
M  V30 4541 H 421.286 2.31814 -1.8726 0
M  V30 4542 H 418.823 1.13686 -0.933483 0
M  V30 4543 H 420.781 4.16626 -0.218843 0
M  V30 4544 H 419.411 3.2038 0.394508 0
M  V30 4545 H 418.463 3.21997 -2.0254 0
M  V30 4546 H 419.775 4.33492 -2.46752 0
M  V30 4547 H 418.929 6.01222 -0.813429 0
M  V30 4548 H 417.668 4.8695 -0.270434 0
M  V30 4549 H 416.673 4.85757 -2.57526 0
M  V30 4550 H 417.898 6.03459 -3.11472 0
M  V30 4551 H 415.844 6.49538 -0.918516 0
M  V30 4552 H 415.761 7.12349 -2.5317 0
M  V30 4553 H 417.029 7.65549 -1.46817 0
M  V30 4554 N 421.258 1.00505 1.21394 0
M  V30 4555 C 422.188 0.585684 2.26035 0
M  V30 4556 C 423.169 -0.393525 1.65485 0
M  V30 4557 O 424.354 -0.281497 1.92149 0
M  V30 4558 C 421.484 -0.0884283 3.47187 0
M  V30 4559 C 420.438 0.810567 4.20254 0
M  V30 4560 C 419.764 0.00286382 5.347 0
M  V30 4561 C 421.064 2.1132 4.77641 0
M  V30 4562 H 422.758 1.46039 2.61368 0
M  V30 4563 H 420.304 0.703648 1.25638 0
M  V30 4564 H 422.257 -0.393286 4.19561 0
M  V30 4565 H 420.981 -0.997766 3.10986 0
M  V30 4566 H 419.64 1.09925 3.49731 0
M  V30 4567 H 419.288 -0.907765 4.94741 0
M  V30 4568 H 418.988 0.601444 5.84514 0
M  V30 4569 H 420.512 -0.295808 6.09883 0
M  V30 4570 H 421.926 1.87148 5.41893 0
M  V30 4571 H 420.323 2.66164 5.37845 0
M  V30 4572 H 421.393 2.78393 3.9702 0
M  V30 4573 N 422.737 -1.36956 0.779787 0
M  V30 4574 C 423.667 -2.32761 0.185651 0
M  V30 4575 C 424.648 -1.56177 -0.673989 0
M  V30 4576 O 425.833 -1.84378 -0.609797 0
M  V30 4577 C 422.963 -3.40418 -0.687964 0
M  V30 4578 C 421.917 -4.27941 0.0710102 0
M  V30 4579 C 421.243 -5.26681 -0.922573 0
M  V30 4580 C 422.543 -5.07006 1.25467 0
M  V30 4581 H 424.237 -2.82698 0.986008 0
M  V30 4582 H 421.783 -1.3592 0.475592 0
M  V30 4583 H 423.736 -4.06423 -1.11348 0
M  V30 4584 H 422.46 -2.89025 -1.52093 0
M  V30 4585 H 421.119 -3.63478 0.47739 0
M  V30 4586 H 420.767 -4.71565 -1.7503 0
M  V30 4587 H 420.467 -5.86103 -0.419237 0
M  V30 4588 H 421.991 -5.9556 -1.34686 0
M  V30 4589 H 423.405 -5.66105 0.905401 0
M  V30 4590 H 421.802 -5.75793 1.69063 0
M  V30 4591 H 422.872 -4.3921 2.05481 0
M  V30 4592 N 424.215 -0.530993 -1.48385 0
M  V30 4593 C 425.178 0.220497 -2.28137 0
M  V30 4594 C 426.178 0.866851 -1.35434 0
M  V30 4595 O 427.368 0.726746 -1.58316 0
M  V30 4596 C 424.5 1.31921 -3.1434 0
M  V30 4597 H 425.693 -0.479714 -2.96038 0
M  V30 4598 H 423.246 -0.286968 -1.53643 0
M  V30 4599 H 423.981 2.05264 -2.51072 0
M  V30 4600 H 423.766 0.86085 -3.82533 0
M  V30 4601 H 425.256 1.84776 -3.74497 0
M  V30 4602 N 425.693 1.55336 -0.266172 0
M  V30 4603 C 426.603 2.2583 0.635458 0
M  V30 4604 C 427.619 1.28106 1.17749 0
M  V30 4605 O 428.795 1.61024 1.20968 0
M  V30 4606 C 425.86 2.95879 1.80712 0
M  V30 4607 C 424.921 4.09059 1.30265 0
M  V30 4608 C 424.154 4.75759 2.41846 0
M  V30 4609 O 424.377 4.41622 3.61007 0
M  V30 4610 O 423.311 5.63888 2.1051 0
M  V30 4611 H 427.137 3.03631 0.0646693 0
M  V30 4612 H 424.722 1.49361 -0.0339177 0
M  V30 4613 H 426.604 3.39932 2.49047 0
M  V30 4614 H 425.279 2.21002 2.36516 0
M  V30 4615 H 424.186 3.69482 0.586019 0
M  V30 4616 H 425.519 4.85811 0.790458 0
M  V30 4617 N 427.171 -0.0066808 1.57599 0
M  V30 4618 C 428.134 -0.985035 2.06953 0
M  V30 4619 C 429.134 -1.27663 0.977687 0
M  V30 4620 O 430.324 -1.22293 1.24057 0
M  V30 4621 C 427.456 -2.3118 2.50536 0
M  V30 4622 H 428.649 -0.558255 2.94658 0
M  V30 4623 H 426.202 -0.254011 1.54222 0
M  V30 4624 H 426.937 -2.78561 1.66054 0
M  V30 4625 H 426.722 -2.11338 3.3027 0
M  V30 4626 H 428.212 -3.01377 2.8907 0
M  V30 4627 N 428.649 -1.55105 -0.279332 0
M  V30 4628 C 429.579 -1.90557 -1.34945 0
M  V30 4629 C 430.56 -0.766738 -1.51839 0
M  V30 4630 O 431.745 -1.02434 -1.64988 0
M  V30 4631 C 428.875 -2.17193 -2.71006 0
M  V30 4632 C 427.829 -3.33021 -2.68851 0
M  V30 4633 C 427.155 -3.45123 -4.08405 0
M  V30 4634 C 428.455 -4.69578 -2.28678 0
M  V30 4635 H 430.149 -2.80188 -1.05522 0
M  V30 4636 H 427.695 -1.34811 -0.506173 0
M  V30 4637 H 429.648 -2.40581 -3.45975 0
M  V30 4638 H 428.372 -1.24355 -3.01999 0
M  V30 4639 H 427.031 -3.0959 -1.9634 0
M  V30 4640 H 426.679 -2.49762 -4.3661 0
M  V30 4641 H 426.379 -4.22995 -4.07859 0
M  V30 4642 H 427.903 -3.70796 -4.85121 0
M  V30 4643 H 429.317 -4.92553 -2.93368 0
M  V30 4644 H 427.714 -5.5032 -2.39306 0
M  V30 4645 H 428.784 -4.68828 -1.23807 0
M  V30 4646 N 430.127 0.543554 -1.4793 0
M  V30 4647 C 431.075 1.67039 -1.61866 0
M  V30 4648 C 432.069 1.62294 -0.48549 0
M  V30 4649 O 433.275 1.67315 -0.66376 0
M  V30 4650 H 429.65 0.552954 -0.509652 0
M  V30 4651 H 431.621 1.52426 -2.56533 0
M  V30 4652 C 430.37 3.05357 -1.6629 0
M  V30 4653 H 429.693 3.09696 -2.5284 0
M  V30 4654 H 431.133 3.83855 -1.80088 0
M  V30 4655 C 429.592 3.34531 -0.398861 0
M  V30 4656 O 430.122 3.98649 0.494162 0
M  V30 4657 N 428.328 2.89299 -0.2747 0
M  V30 4658 H 427.875 2.37298 -1.00236 0
M  V30 4659 H 427.833 3.09188 0.570075 0
M  V30 4660 N 431.605 1.3629 0.791371 0
M  V30 4661 C 432.537 1.26321 1.91248 0
M  V30 4662 C 433.55 0.18313 1.61767 0
M  V30 4663 O 434.739 0.437682 1.73051 0
M  V30 4664 C 431.839 0.925901 3.26007 0
M  V30 4665 C 431.012 2.10746 3.83281 0
M  V30 4666 C 430.071 1.74352 4.96475 0
M  V30 4667 O 429.097 2.46416 5.13096 0
M  V30 4668 N 430.299 0.676058 5.7655 0
M  V30 4669 H 433.064 2.22915 2.00323 0
M  V30 4670 H 430.625 1.29659 0.969546 0
M  V30 4671 H 432.617 0.663636 3.99222 0
M  V30 4672 H 431.187 0.0491581 3.12561 0
M  V30 4673 H 430.407 2.53264 3.02077 0
M  V30 4674 H 431.695 2.8969 4.18279 0
M  V30 4675 H 431.093 0.0776467 5.65647 0
M  V30 4676 H 429.65 0.473612 6.50077 0
M  V30 4677 N 433.083 -1.0153 1.20538 0
M  V30 4678 C 434.329 -1.75408 1.01783 0
M  V30 4679 C 434.662 -1.88943 -0.448814 0
M  V30 4680 O 433.937 -1.4162 -1.33319 0
M  V30 4681 C 434.22 -3.17255 1.70356 0
M  V30 4682 C 434.073 -3.11508 3.24473 0
M  V30 4683 C 435.392 -4.15955 1.43769 0
M  V30 4684 H 432.511 -0.636713 0.371167 0
M  V30 4685 H 435.153 -1.18436 1.4857 0
M  V30 4686 H 433.303 -3.65898 1.30578 0
M  V30 4687 H 434.975 -2.70658 3.73553 0
M  V30 4688 H 433.218 -2.4887 3.55311 0
M  V30 4689 H 433.889 -4.11784 3.67611 0
M  V30 4690 H 436.365 -3.75973 1.7828 0
M  V30 4691 H 435.241 -5.13368 1.94279 0
M  V30 4692 H 435.502 -4.40586 0.365564 0
M  V30 4693 N 434.561 -1.01147 -1.20859 0
M  V30 4694 C 435.789 -0.716911 -1.94082 0
M  V30 4695 C 436.204 0.721568 -1.74467 0
M  V30 4696 O 435.561 1.48889 -1.05539 0
M  V30 4697 C 435.612 -1.03662 -3.46318 0
M  V30 4698 O 435.333 -2.4186 -3.65288 0
M  V30 4699 C 436.834 -0.762386 -4.36695 0
M  V30 4700 H 434.054 -0.26367 -0.617024 0
M  V30 4701 H 436.598 -1.35127 -1.53496 0
M  V30 4702 H 434.753 -0.447757 -3.84804 0
M  V30 4703 H 435.167 -2.53224 -4.59323 0
M  V30 4704 H 436.641 -1.03621 -5.42187 0
M  V30 4705 H 437.118 0.303514 -4.3815 0
M  V30 4706 H 437.724 -1.33316 -4.03865 0
M  V30 4707 N 436.039 1.36541 -0.78704 0
M  V30 4708 C 436.971 2.28761 -0.141773 0
M  V30 4709 C 437.984 1.49365 0.647599 0
M  V30 4710 O 439.173 1.71836 0.483173 0
M  V30 4711 C 436.273 3.28771 0.822368 0
M  V30 4712 C 435.446 4.3732 0.0835594 0
M  V30 4713 C 434.505 5.17307 0.963296 0
M  V30 4714 O 433.531 5.67638 0.421419 0
M  V30 4715 N 434.733 5.33515 2.28784 0
M  V30 4716 H 437.498 2.84777 -0.933919 0
M  V30 4717 H 435.059 1.48682 -0.640735 0
M  V30 4718 H 437.051 3.79169 1.41468 0
M  V30 4719 H 435.621 2.73412 1.5154 0
M  V30 4720 H 434.841 3.88118 -0.689809 0
M  V30 4721 H 436.129 5.0701 -0.426358 0
M  V30 4722 H 435.527 4.94234 2.75226 0
M  V30 4723 H 434.084 5.87165 2.82985 0
M  V30 4724 N 437.518 0.538854 1.48102 0
M  V30 4725 C 438.934 0.19732 1.58376 0
M  V30 4726 C 439.134 -1.29971 1.5398 0
M  V30 4727 O 438.19 -2.07861 1.43352 0
M  V30 4728 C 439.503 0.807716 2.89649 0
M  V30 4729 C 441.051 0.77726 3.03196 0
M  V30 4730 C 441.526 1.36639 4.37143 0
M  V30 4731 N 443.017 1.32875 4.43732 0
M  V30 4732 C 443.752 1.7544 5.45901 0
M  V30 4733 N 443.248 2.25776 6.54979 0
M  V30 4734 N 445.041 1.66623 5.36836 0
M  V30 4735 H 437.192 1.5117 1.49202 0
M  V30 4736 H 439.455 0.629327 0.708979 0
M  V30 4737 H 439.161 1.85909 2.98548 0
M  V30 4738 H 439.035 0.289975 3.76084 0
M  V30 4739 H 441.422 -0.265374 2.93904 0
M  V30 4740 H 441.503 1.33256 2.18349 0
M  V30 4741 H 441.147 2.408 4.47189 0
M  V30 4742 H 441.077 0.786689 5.20691 0
M  V30 4743 H 443.568 0.96037 3.65493 0
M  V30 4744 H 443.881 2.56226 7.29087 0
M  V30 4745 H 442.226 2.29775 6.55918 0
M  V30 4746 H 445.417 1.27089 4.50517 0
M  V30 4747 H 445.59 2.00115 6.16326 0
M  V30 4748 N 438.996 -1.55193 0.274407 0
M  V30 4749 C 439.959 -2.212 -0.600279 0
M  V30 4750 C 440.959 -1.18963 -1.08187 0
M  V30 4751 O 442.149 -1.43873 -0.982158 0
M  V30 4752 C 439.281 -2.87739 -1.82809 0
M  V30 4753 H 440.474 -2.9989 -0.0239682 0
M  V30 4754 H 438.027 -1.5628 0.0250192 0
M  V30 4755 H 438.762 -2.13058 -2.44493 0
M  V30 4756 H 438.547 -3.62658 -1.49069 0
M  V30 4757 H 440.037 -3.38171 -2.45011 0
M  V30 4758 N 440.474 -0.00167713 -1.576 0
M  V30 4759 C 441.699 0.69739 -1.95323 0
M  V30 4760 C 442.124 1.6642 -0.876706 0
M  V30 4761 O 441.482 1.80548 0.165007 0
M  V30 4762 C 441.53 1.40403 -3.32144 0
M  V30 4763 O 440.634 2.5185 -3.26566 0
M  V30 4764 H 439.975 0.185373 -0.637599 0
M  V30 4765 H 442.505 -0.0553665 -2.04525 0
M  V30 4766 H 442.515 1.76707 -3.67748 0
M  V30 4767 H 441.19 0.695167 -4.10049 0
M  V30 4768 H 439.767 2.17861 -3.0264 0
M  V30 4769 N 441.952 1.55251 0.271103 0
M  V30 4770 C 443.368 1.47133 0.618393 0
M  V30 4771 C 443.568 0.686994 1.89427 0
M  V30 4772 O 442.624 0.206609 2.51653 0
M  V30 4773 C 443.937 2.91361 0.743593 0
M  V30 4774 C 445.485 3.01587 0.837522 0
M  V30 4775 C 445.96 4.47073 0.994483 0
M  V30 4776 N 447.451 4.50909 1.05996 0
M  V30 4777 C 448.186 5.60698 1.20024 0
M  V30 4778 N 447.682 6.80348 1.30759 0
M  V30 4779 N 449.475 5.48444 1.23149 0
M  V30 4780 H 441.626 2.04698 -0.566784 0
M  V30 4781 H 443.889 0.928319 -0.192165 0
M  V30 4782 H 443.595 3.51483 -0.123493 0
M  V30 4783 H 443.469 3.40484 1.62328 0
M  V30 4784 H 445.856 2.4156 1.69507 0
M  V30 4785 H 445.937 2.55713 -0.0668086 0
M  V30 4786 H 445.581 5.07703 0.141582 0
M  V30 4787 H 445.511 4.90605 1.91349 0
M  V30 4788 H 448.002 3.6472 0.989316 0
M  V30 4789 H 448.315 7.59772 1.41303 0
M  V30 4790 H 446.66 6.83156 1.27761 0
M  V30 4791 H 449.851 4.53907 1.14394 0
M  V30 4792 H 450.024 6.34049 1.33738 0
M  V30 4793 N 443.43 -0.535701 1.48216 0
M  V30 4794 C 444.846 -0.863701 1.3421 0
M  V30 4795 C 445.046 -1.98458 0.34879 0
M  V30 4796 O 444.102 -2.51432 -0.23204 0
M  V30 4797 C 445.415 -1.23662 2.74095 0
M  V30 4798 C 446.963 -1.34683 2.82541 0
M  V30 4799 C 447.438 -1.75322 4.23115 0
M  V30 4800 N 448.929 -1.82434 4.2576 0
M  V30 4801 C 449.664 -2.15252 5.31464 0
M  V30 4802 N 449.16 -2.46533 6.47452 0
M  V30 4803 N 450.953 -2.16209 5.18855 0
M  V30 4804 H 443.104 0.203965 2.11418 0
M  V30 4805 H 445.367 0.0286033 0.947568 0
M  V30 4806 H 445.073 -0.486674 3.48316 0
M  V30 4807 H 444.947 -2.18805 3.07253 0
M  V30 4808 H 447.334 -2.08756 2.08579 0
M  V30 4809 H 447.415 -0.376756 2.5301 0
M  V30 4810 H 447.059 -1.01812 4.97591 0
M  V30 4811 H 446.989 -2.7337 4.50085 0
M  V30 4812 H 449.48 -1.6056 3.42095 0
M  V30 4813 H 449.793 -2.70662 7.23852 0
M  V30 4814 H 448.138 -2.44065 6.50736 0
M  V30 4815 H 451.329 -1.91224 4.2726 0
M  V30 4816 H 451.502 -2.41453 6.01335 0
M  V30 4817 N 444.908 -1.36708 -0.784132 0
M  V30 4818 C 446.133 -1.34565 -1.5782 0
M  V30 4819 C 446.558 0.0695257 -1.87971 0
M  V30 4820 O 445.916 1.04302 -1.48293 0
M  V30 4821 C 445.964 -2.17952 -2.87279 0
M  V30 4822 O 445.068 -1.57563 -3.81114 0
M  V30 4823 H 444.409 -0.460337 -0.478524 0
M  V30 4824 H 446.939 -1.80064 -0.971495 0
M  V30 4825 H 446.949 -2.30721 -3.365 0
M  V30 4826 H 445.624 -3.20823 -2.64661 0
M  V30 4827 H 444.201 -1.53764 -3.39722 0
M  V30 4828 N 446.386 1.0089 -1.21074 0
M  V30 4829 C 447.663 1.71834 -0.934469 0
M  V30 4830 C 448.043 2.0368 0.554753 0
M  V30 4831 O 447.391 1.70742 1.51854 0
M  V30 4832 C 447.601 2.98061 -1.8155 0
M  V30 4833 C 448.949 3.7117 -2.06199 0
M  V30 4834 O 449.973 3.08034 -1.78867 0
M  V30 4835 O 448.832 4.84721 -2.52404 0
M  V30 4836 H 445.926 0.749253 -0.35007 0
M  V30 4837 H 448.472 1.06668 -1.31985 0
M  V30 4838 H 447.244 2.70908 -2.82355 0
M  V30 4839 H 446.867 3.70968 -1.43068 0
M  V30 4840 N 447.864 1.01787 1.20321 0
M  V30 4841 C 449.089 0.727009 1.9424 0
M  V30 4842 C 449.514 -0.706179 1.74341 0
M  V30 4843 O 448.872 -1.48609 1.03852 0
M  V30 4844 C 448.92 1.06958 3.44372 0
M  V30 4845 O 448.024 0.181983 4.11998 0
M  V30 4846 H 447.365 0.269626 0.606793 0
M  V30 4847 H 449.895 1.36158 1.52716 0
M  V30 4848 H 449.905 1.02182 3.94997 0
M  V30 4849 H 448.58 2.11378 3.58179 0
M  V30 4850 H 447.157 0.287378 3.71791 0
M  V30 4851 N 449.342 -1.36122 0.79427 0
M  V30 4852 C 450.305 -2.28309 0.201889 0
M  V30 4853 C 451.305 -1.49041 -0.603603 0
M  V30 4854 O 452.495 -1.68964 -0.423888 0
M  V30 4855 C 449.627 -3.3321 -0.719978 0
M  V30 4856 H 450.82 -2.82208 1.01481 0
M  V30 4857 H 448.373 -1.45768 0.564037 0
M  V30 4858 H 449.108 -2.84475 -1.55706 0
M  V30 4859 H 448.893 -3.91835 -0.144266 0
M  V30 4860 H 450.383 -4.02044 -1.12916 0
M  V30 4861 N 450.82 -0.546701 -1.47814 0
M  V30 4862 C 452.045 -0.021268 -2.07389 0
M  V30 4863 C 452.47 1.25822 -1.39822 0
M  V30 4864 O 451.828 1.75111 -0.46968 0
M  V30 4865 C 451.876 0.168502 -3.60206 0
M  V30 4866 O 450.98 1.23347 -3.93522 0
M  V30 4867 H 450.321 -0.0466108 -0.662362 0
M  V30 4868 H 452.851 -0.759387 -1.89985 0
M  V30 4869 H 452.861 0.385982 -4.0617 0
M  V30 4870 H 451.536 -0.766075 -4.08784 0
M  V30 4871 H 450.113 0.997319 -3.59316 0
M  V30 4872 N 452.299 1.55045 -0.282633 0
M  V30 4873 C 453.524 2.04628 0.337977 0
M  V30 4874 C 453.949 1.15937 1.48123 0
M  V30 4875 O 453.307 0.159532 1.80597 0
M  V30 4876 C 453.355 3.51854 0.78936 0
M  V30 4877 O 452.459 3.66236 1.89592 0
M  V30 4878 H 451.8 0.660434 0.0687261 0
M  V30 4879 H 454.33 2.00261 -0.419124 0
M  V30 4880 H 454.34 3.93361 1.08311 0
M  V30 4881 H 453.015 4.15873 -0.0470419 0
M  V30 4882 H 451.592 3.36633 1.60413 0
M  V30 4883 N 453.777 0.010035 1.57597 0
M  V30 4884 C 454.687 -0.994226 2.12491 0
M  V30 4885 C 455.703 -1.37013 1.07254 0
M  V30 4886 O 456.879 -1.45542 1.3921 0
M  V30 4887 C 453.944 -2.2642 2.62555 0
M  V30 4888 C 453.005 -1.95049 3.82432 0
M  V30 4889 C 452.238 -3.15991 4.30099 0
M  V30 4890 O 452.461 -4.28015 3.7704 0
M  V30 4891 O 451.395 -2.99403 5.22151 0
M  V30 4892 H 455.221 -0.557549 2.98538 0
M  V30 4893 H 452.806 -0.209413 1.47925 0
M  V30 4894 H 454.688 -3.01009 2.9491 0
M  V30 4895 H 453.363 -2.69306 1.796 0
M  V30 4896 H 452.27 -1.17904 3.55034 0
M  V30 4897 H 453.603 -1.56992 4.66491 0
M  V30 4898 N 455.255 -1.55392 -0.262866 0
M  V30 4899 C 456.666 -1.67079 -0.833158 0
M  V30 4900 C 457.017 -0.604539 -1.86654 0
M  V30 4901 O 456.142 0.252138 -2.14926 0
M  V30 4902 C 456.737 -3.02891 -1.51797 0
M  V30 4903 C 455.296 -3.16571 -2.03617 0
M  V30 4904 C 454.443 -2.62909 -0.881701 0
M  V30 4905 H 457.394 -1.58652 -0.0389986 0
M  V30 4906 H 457.415 -2.96445 -2.38538 0
M  V30 4907 H 456.927 -3.80473 -0.765619 0
M  V30 4908 H 455.028 -2.43782 -2.81782 0
M  V30 4909 H 455.141 -4.23271 -2.24452 0
M  V30 4910 H 453.505 -2.20324 -1.27786 0
M  V30 4911 H 454.288 -3.43003 -0.14269 0
M  V30 4912 N 456.733 0.527833 -1.48498 0
M  V30 4913 C 457.979 1.28545 -1.56857 0
M  V30 4914 C 458.312 1.92678 -0.242651 0
M  V30 4915 O 457.587 1.79394 0.751545 0
M  V30 4916 C 457.87 2.37314 -2.70839 0
M  V30 4917 C 457.723 1.77858 -4.13142 0
M  V30 4918 C 459.042 3.39068 -2.80573 0
M  V30 4919 H 456.161 0.466006 -0.570971 0
M  V30 4920 H 458.803 0.587784 -1.8068 0
M  V30 4921 H 456.953 2.96821 -2.50658 0
M  V30 4922 H 458.625 1.22385 -4.44769 0
M  V30 4923 H 456.868 1.08383 -4.20042 0
M  V30 4924 H 457.539 2.56624 -4.88721 0
M  V30 4925 H 460.015 2.89518 -2.98862 0
M  V30 4926 H 458.891 4.12566 -3.6205 0
M  V30 4927 H 459.152 3.9975 -1.88818 0
M  V30 4928 N 458.211 1.37122 0.776871 0
M  V30 4929 C 459.459 1.31787 1.53221 0
M  V30 4930 C 459.78 -0.0987589 1.9475 0
M  V30 4931 O 459.05 -1.0417 1.65908 0
M  V30 4932 H 457.63 0.484839 0.568278 0
M  V30 4933 H 460.292 1.71556 0.924917 0
M  V30 4934 H 459.388 1.95355 2.43398 0
M  V30 4935 N 459.689 -1.00246 1.21608 0
M  V30 4936 C 460.938 -1.73476 1.02902 0
M  V30 4937 C 461.251 -1.90643 -0.437561 0
M  V30 4938 O 462.457 -2.61105 -0.74407 0
M  V30 4939 C 460.913 -3.12079 1.79261 0
M  V30 4940 C 460.521 -3.02877 3.30106 0
M  V30 4941 C 462.265 -3.89421 1.68972 0
M  V30 4942 C 460.172 -4.36575 3.98944 0
M  V30 4943 H 459.102 -0.650408 0.381425 0
M  V30 4944 H 461.753 -1.11985 1.45367 0
M  V30 4945 H 460.135 -3.74196 1.2959 0
M  V30 4946 H 461.309 -2.49983 3.87098 0
M  V30 4947 H 459.624 -2.39022 3.40965 0
M  V30 4948 H 462.221 -4.88362 2.17731 0
M  V30 4949 H 462.564 -4.1122 0.648397 0
M  V30 4950 H 463.097 -3.33963 2.16133 0
M  V30 4951 H 459.836 -4.19978 5.03288 0
M  V30 4952 H 459.356 -4.8942 3.4674 0
M  V30 4953 H 461.035 -5.05364 4.04 0
M  V30 4954 N 461.167 -1.02423 -1.1978 0
M  V30 4955 C 462.397 -0.736387 -1.93031 0
M  V30 4956 C 462.805 0.708023 -1.75453 0
M  V30 4957 O 462.148 1.4927 -1.07071 0
M  V30 4958 C 462.21 -1.00194 -3.45255 0
M  V30 4959 C 461.874 -2.43698 -3.86601 0
M  V30 4960 C 462.871 -3.41814 -3.91738 0
M  V30 4961 C 460.556 -2.77975 -4.18372 0
M  V30 4962 C 462.55 -4.72265 -4.28071 0
M  V30 4963 C 460.237 -4.08636 -4.54378 0
M  V30 4964 C 461.235 -5.05592 -4.59201 0
M  V30 4965 O 460.923 -6.33914 -4.94376 0
M  V30 4966 H 460.655 -0.269116 -0.620123 0
M  V30 4967 H 463.209 -1.37043 -1.52998 0
M  V30 4968 H 461.439 -0.310747 -3.85449 0
M  V30 4969 H 463.128 -0.704488 -3.9974 0
M  V30 4970 H 463.894 -3.16671 -3.67348 0
M  V30 4971 H 459.773 -2.0319 -4.13805 0
M  V30 4972 H 463.317 -5.4794 -4.3175 0
M  V30 4973 H 459.214 -4.33556 -4.78226 0
M  V30 4974 H 459.982 -6.38317 -5.12341 0
M  V30 4975 N 462.645 1.35699 -0.801477 0
M  V30 4976 C 463.577 2.28598 -0.166028 0
M  V30 4977 C 464.59 1.50044 0.631721 0
M  V30 4978 O 465.779 1.72339 0.464921 0
M  V30 4979 C 462.879 3.29625 0.787451 0
M  V30 4980 C 462.052 4.37384 0.037171 0
M  V30 4981 C 461.111 5.183 0.908375 0
M  V30 4982 O 460.137 5.68053 0.361189 0
M  V30 4983 N 461.339 5.35912 2.23112 0
M  V30 4984 H 464.104 2.83771 -0.964071 0
M  V30 4985 H 461.665 1.47994 -0.656469 0
M  V30 4986 H 463.657 3.80648 1.37439 0
M  V30 4987 H 462.227 2.75004 1.48632 0
M  V30 4988 H 461.447 3.87364 -0.730935 0
M  V30 4989 H 462.735 5.0653 -0.480109 0
M  V30 4990 H 462.133 4.97125 2.69968 0
M  V30 4991 H 460.69 5.90133 2.76741 0
M  V30 4992 N 464.123 0.554532 1.47522 0
M  V30 4993 C 465.371 0.0294208 2.02079 0
M  V30 4994 C 465.692 -1.32411 1.43151 0
M  V30 4995 O 464.962 -1.863 0.605728 0
M  V30 4996 H 463.542 0.00788672 0.746958 0
M  V30 4997 H 466.204 0.723934 1.80956 0
M  V30 4998 H 465.3 -0.0606745 3.12041 0
M  V30 4999 N 465.601 -1.54893 0.290851 0
M  V30 5000 C 466.848 -1.99933 -0.321391 0
M  V30 5001 C 467.176 -1.17927 -1.54672 0
M  V30 5002 O 466.431 -0.240902 -1.94212 0
M  V30 5003 C 466.73 -3.49815 -0.732397 0
M  V30 5004 C 466.396 -4.4921 0.390056 0
M  V30 5005 C 465.058 -4.76107 0.698223 0
M  V30 5006 C 467.41 -5.08453 1.14562 0
M  V30 5007 C 464.738 -5.59514 1.76526 0
M  V30 5008 C 467.09 -5.9302 2.2025 0
M  V30 5009 C 465.754 -6.18232 2.51684 0
M  V30 5010 H 465.024 -0.731608 -0.117605 0
M  V30 5011 H 467.671 -1.87107 0.407839 0
M  V30 5012 H 465.976 -3.60199 -1.54155 0
M  V30 5013 H 467.673 -3.82083 -1.21712 0
M  V30 5014 H 464.263 -4.28372 0.13976 0
M  V30 5015 H 468.447 -4.87683 0.920801 0
M  V30 5016 H 463.703 -5.77289 2.01364 0
M  V30 5017 H 467.877 -6.37955 2.7926 0
M  V30 5018 H 465.504 -6.82653 3.34499 0
M  V30 5019 N 467.08 -0.0183926 -1.57589 0
M  V30 5020 C 467.99 0.982943 -2.13015 0
M  V30 5021 C 469.006 1.36443 -1.07979 0
M  V30 5022 O 470.182 1.44802 -1.3998 0
M  V30 5023 C 467.247 2.25024 -2.63752 0
M  V30 5024 C 466.308 1.93018 -3.83461 0
M  V30 5025 C 465.541 3.13706 -4.31769 0
M  V30 5026 O 465.764 4.2601 -3.79305 0
M  V30 5027 O 464.698 2.96629 -5.23732 0
M  V30 5028 H 468.524 0.541709 -2.9883 0
M  V30 5029 H 466.109 0.201565 -1.48034 0
M  V30 5030 H 467.991 2.99441 -2.96502 0
M  V30 5031 H 466.666 2.68349 -1.81026 0
M  V30 5032 H 465.573 1.16019 -3.55655 0
M  V30 5033 H 466.906 1.54516 -4.67317 0
M  V30 5034 N 468.558 1.5553 0.254621 0
M  V30 5035 C 469.505 1.89666 1.31512 0
M  V30 5036 C 470.475 0.750057 1.482 0
M  V30 5037 O 471.66 1.00301 1.62309 0
M  V30 5038 C 468.8 2.19009 2.667 0
M  V30 5039 C 467.913 3.46435 2.58083 0
M  V30 5040 C 467.048 3.65386 3.85573 0
M  V30 5041 C 466.087 4.8644 3.71541 0
M  V30 5042 N 465.224 5.01952 4.90906 0
M  V30 5043 H 470.064 2.80109 1.017 0
M  V30 5044 H 467.601 1.38666 0.490938 0
M  V30 5045 H 469.559 2.34025 3.45381 0
M  V30 5046 H 468.189 1.31779 2.94676 0
M  V30 5047 H 467.241 3.39792 1.71013 0
M  V30 5048 H 468.553 4.35258 2.43622 0
M  V30 5049 H 467.707 3.80319 4.72697 0
M  V30 5050 H 466.446 2.74781 4.02922 0
M  V30 5051 H 465.451 4.71491 2.82801 0
M  V30 5052 H 466.676 5.78497 3.55694 0
M  V30 5053 H 464.622 4.14283 5.08631 0
M  V30 5054 H 464.539 5.84851 4.79046 0
M  V30 5055 H 465.807 5.21289 5.7955 0
M  V30 5056 N 470.036 -0.519951 1.48776 0
M  V30 5057 C 470.983 -1.62352 1.64044 0
M  V30 5058 C 471.953 -1.58945 0.482251 0
M  V30 5059 O 473.138 -1.77219 0.706971 0
M  V30 5060 C 470.278 -3.00579 1.69547 0
M  V30 5061 C 469.391 -3.14145 2.96541 0
M  V30 5062 C 468.526 -4.42991 2.93142 0
M  V30 5063 C 467.565 -4.50122 4.14797 0
M  V30 5064 N 466.702 -5.7037 4.09418 0
M  V30 5065 H 471.542 -1.48643 2.58281 0
M  V30 5066 H 469.079 -0.723516 1.28077 0
M  V30 5067 H 471.037 -3.80671 1.70719 0
M  V30 5068 H 469.667 -3.13036 0.787918 0
M  V30 5069 H 468.719 -2.27239 3.05068 0
M  V30 5070 H 470.031 -3.15275 3.86527 0
M  V30 5071 H 469.185 -5.31385 2.92772 0
M  V30 5072 H 467.924 -4.44398 2.00902 0
M  V30 5073 H 466.929 -3.60133 4.15433 0
M  V30 5074 H 468.154 -4.50445 5.08208 0
M  V30 5075 H 466.1 -5.72655 3.20004 0
M  V30 5076 H 466.017 -5.73036 4.93119 0
M  V30 5077 H 467.285 -6.61023 4.13121 0
M  V30 5078 N 471.514 -1.37532 -0.769588 0
M  V30 5079 C 472.742 -1.36059 -1.55871 0
M  V30 5080 C 473.157 0.053544 -1.88724 0
M  V30 5081 O 472.514 1.01591 -1.5161 0
M  V30 5082 C 472.565 -2.20107 -2.86767 0
M  V30 5083 O 472.286 -3.56009 -2.55321 0
M  V30 5084 C 473.787 -2.26636 -3.80987 0
M  V30 5085 H 471.007 -0.465967 -0.482821 0
M  V30 5086 H 473.551 -1.80901 -0.953686 0
M  V30 5087 H 471.706 -1.78768 -3.43687 0
M  V30 5088 H 472.12 -4.0009 -3.39158 0
M  V30 5089 H 473.594 -2.89763 -4.69831 0
M  V30 5090 H 474.071 -1.2754 -4.20274 0
M  V30 5091 H 474.677 -2.68296 -3.29996 0
M  V30 5092 N 472.992 0.995999 -1.22138 0
M  V30 5093 C 474.24 1.73167 -1.042 0
M  V30 5094 C 474.561 1.90329 0.42423 0
M  V30 5095 O 473.831 1.4607 1.30539 0
M  V30 5096 H 472.411 0.641593 -0.38258 0
M  V30 5097 H 475.073 1.19974 -1.53598 0
M  V30 5098 H 474.169 2.72734 -1.51731 0
M  V30 5099 N 474.47 1.03057 1.19235 0
M  V30 5100 C 475.716 0.729098 1.89241 0
M  V30 5101 C 476.049 -0.740573 1.79525 0
M  V30 5102 O 475.324 -1.53946 1.18874 0
M  V30 5103 C 475.607 1.18304 3.40112 0
M  V30 5104 C 475.46 2.71406 3.5869 0
M  V30 5105 C 476.779 0.765161 4.33397 0
M  V30 5106 H 473.898 0.266338 0.687192 0
M  V30 5107 H 476.54 1.28079 1.40341 0
M  V30 5108 H 474.69 0.713672 3.81889 0
M  V30 5109 H 476.362 3.26303 3.26074 0
M  V30 5110 H 474.605 3.11717 3.01687 0
M  V30 5111 H 475.276 2.98225 4.64506 0
M  V30 5112 H 477.752 1.16889 3.99345 0
M  V30 5113 H 476.628 1.11065 5.37546 0
M  V30 5114 H 476.889 -0.332372 4.40849 0
M  V30 5115 N 475.948 -1.35272 0.808662 0
M  V30 5116 C 476.911 -2.28082 0.226093 0
M  V30 5117 C 477.911 -1.49673 -0.587762 0
M  V30 5118 O 479.101 -1.69404 -0.405943 0
M  V30 5119 C 476.233 -3.33955 -0.684596 0
M  V30 5120 H 477.426 -2.81116 1.04469 0
M  V30 5121 H 474.979 -1.45162 0.579466 0
M  V30 5122 H 475.714 -2.86111 -1.5268 0
M  V30 5123 H 475.499 -3.91965 -0.102699 0
M  V30 5124 H 476.989 -4.03219 -1.08646 0
M  V30 5125 N 477.426 -0.562348 -1.47226 0
M  V30 5126 C 478.674 -0.0401371 -2.0206 0
M  V30 5127 C 478.995 1.3165 -1.43852 0
M  V30 5128 O 478.265 1.85976 -0.615599 0
M  V30 5129 H 476.845 -0.0118479 -0.746906 0
M  V30 5130 H 479.507 -0.73352 -1.8057 0
M  V30 5131 H 478.603 0.0441254 -3.12069 0
M  V30 5132 N 478.904 1.54736 -0.299062 0
M  V30 5133 C 479.814 2.27127 0.587413 0
M  V30 5134 C 480.83 1.30575 1.15005 0
M  V30 5135 O 482.006 1.63554 1.17525 0
M  V30 5136 C 479.071 2.99645 1.74395 0
M  V30 5137 C 478.132 4.11731 1.21559 0
M  V30 5138 C 477.365 4.80781 2.317 0
M  V30 5139 O 477.588 4.4918 3.51558 0
M  V30 5140 O 476.522 5.68226 1.98501 0
M  V30 5141 H 480.348 3.037 0.000250109 0
M  V30 5142 H 477.933 1.49256 -0.0655919 0
M  V30 5143 H 479.815 3.45138 2.4178 0
M  V30 5144 H 478.49 2.25969 2.31775 0
M  V30 5145 H 477.397 3.70641 0.507514 0
M  V30 5146 H 478.73 4.87379 0.687233 0
M  V30 5147 N 480.382 0.0267497 1.57577 0
M  V30 5148 C 481.659 -0.690926 1.82991 0
M  V30 5149 C 482.039 -1.90471 0.910164 0
M  V30 5150 O 481.387 -2.28474 -0.0347985 0
M  V30 5151 C 481.597 -1.07139 3.32148 0
M  V30 5152 C 482.945 -1.46402 3.98562 0
M  V30 5153 O 483.969 -1.16443 3.36629 0
M  V30 5154 O 482.828 -2.02214 5.07712 0
M  V30 5155 H 479.922 -0.338747 0.75444 0
M  V30 5156 H 482.468 0.0542506 1.69613 0
M  V30 5157 H 481.24 -0.207394 3.9075 0
M  V30 5158 H 480.863 -1.87481 3.50623 0
M  V30 5159 N 481.861 -1.55662 -0.24637 0
M  V30 5160 C 482.794 -1.85332 -1.33143 0
M  V30 5161 C 483.772 -0.708464 -1.46354 0
M  V30 5162 O 484.956 -0.954274 -1.6256 0
M  V30 5163 C 482.083 -2.0385 -2.70487 0
M  V30 5164 C 481.129 -3.26488 -2.74423 0
M  V30 5165 S 481.962 -4.83124 -2.30979 0
M  V30 5166 C 483.118 -5.04647 -3.70246 0
M  V30 5167 H 483.351 -2.77077 -1.07777 0
M  V30 5168 H 480.884 -1.47776 -0.44738 0
M  V30 5169 H 482.842 -2.15202 -3.49569 0
M  V30 5170 H 481.503 -1.12947 -2.9309 0
M  V30 5171 H 480.696 -3.36413 -3.7529 0
M  V30 5172 H 480.298 -3.13864 -2.03385 0
M  V30 5173 H 482.59 -4.92023 -4.65746 0
M  V30 5174 H 483.533 -6.06625 -3.65255 0
M  V30 5175 H 483.941 -4.32491 -3.62784 0
M  V30 5176 N 483.339 0.512053 -1.4905 0
M  V30 5177 C 484.271 1.63121 -1.6101 0
M  V30 5178 C 485.284 1.55145 -0.493352 0
M  V30 5179 O 486.473 1.61278 -0.764955 0
M  V30 5180 C 483.573 3.01863 -1.54052 0
M  V30 5181 C 482.746 3.35138 -2.81072 0
M  V30 5182 C 481.805 4.5324 -2.67319 0
M  V30 5183 O 480.831 4.55571 -3.41238 0
M  V30 5184 N 482.033 5.52495 -1.78127 0
M  V30 5185 H 484.798 1.53292 -2.5753 0
M  V30 5186 H 482.359 0.699706 -1.45999 0
M  V30 5187 H 484.351 3.78774 -1.42521 0
M  V30 5188 H 482.921 3.05675 -0.654345 0
M  V30 5189 H 482.141 2.4723 -3.07036 0
M  V30 5190 H 483.429 3.54162 -3.65304 0
M  V30 5191 H 482.827 5.53403 -1.17308 0
M  V30 5192 H 481.384 6.28553 -1.72525 0
M  V30 5193 N 484.817 1.37938 0.762283 0
M  V30 5194 C 486.094 1.24196 1.51112 0
M  V30 5195 C 486.474 -0.160409 2.1049 0
M  V30 5196 O 485.822 -1.16904 1.96331 0
M  V30 5197 C 486.032 2.34537 2.58445 0
M  V30 5198 C 487.38 2.7254 3.25588 0
M  V30 5199 O 488.404 2.33783 2.68745 0
M  V30 5200 O 487.263 3.39343 4.28379 0
M  V30 5201 H 484.357 0.485175 0.669727 0
M  V30 5202 H 486.903 1.49743 0.798438 0
M  V30 5203 H 485.675 3.28406 2.12756 0
M  V30 5204 H 485.298 2.10505 3.37303 0
M  V30 5205 N 486.295 -0.989507 1.22664 0
M  V30 5206 C 487.243 -2.10148 0.997035 0
M  V30 5207 C 488.237 -1.6929 -0.0609783 0
M  V30 5208 O 489.443 -1.79766 0.0917523 0
M  V30 5209 H 485.818 -0.687256 0.305259 0
M  V30 5210 H 487.789 -2.26685 1.94053 0
M  V30 5211 C 486.538 -3.4257 0.595085 0
M  V30 5212 H 485.861 -3.74453 1.40089 0
M  V30 5213 H 487.301 -4.21344 0.473869 0
M  V30 5214 C 485.76 -3.29638 -0.695725 0
M  V30 5215 O 486.29 -3.61709 -1.74727 0
M  V30 5216 N 484.496 -2.82814 -0.668173 0
M  V30 5217 H 484.043 -2.56914 0.18787 0
M  V30 5218 H 484.001 -2.74544 -1.5321 0
M  V30 5219 N 487.773 -1.03688 -1.18687 0
M  V30 5220 C 488.998 -0.757819 -1.93059 0
M  V30 5221 C 489.423 0.678353 -1.75442 0
M  V30 5222 O 488.781 1.46938 -1.06203 0
M  V30 5223 C 488.829 -1.12423 -3.42627 0
M  V30 5224 O 487.933 -0.247505 -4.11657 0
M  V30 5225 H 487.274 -0.279245 -0.602427 0
M  V30 5226 H 489.804 -1.3857 -1.5053 0
M  V30 5227 H 489.814 -1.08454 -3.93322 0
M  V30 5228 H 488.489 -2.17049 -3.54771 0
M  V30 5229 H 487.066 -0.34649 -3.71287 0
M  V30 5230 N 489.251 1.34841 -0.815825 0
M  V30 5231 C 490.499 1.98107 -0.399744 0
M  V30 5232 C 490.82 1.65019 1.03894 0
M  V30 5233 O 490.09 0.937311 1.72021 0
M  V30 5234 H 488.67 0.732827 -0.144823 0
M  V30 5235 H 491.332 1.64599 -1.0437 0
M  V30 5236 H 490.428 3.07856 -0.512965 0
M  V30 5237 N 490.729 0.570148 1.46925 0
M  V30 5238 C 491.957 0.0561966 2.06824 0
M  V30 5239 C 492.372 -1.24326 1.42086 0
M  V30 5240 O 491.729 -1.74882 0.521794 0
M  V30 5241 C 491.78 -0.129517 3.61268 0
M  V30 5242 O 491.501 1.1185 4.23581 0
M  V30 5243 C 493.002 -0.679266 4.38065 0
M  V30 5244 H 490.222 0.0517261 0.669003 0
M  V30 5245 H 492.766 0.787243 1.8874 0
M  V30 5246 H 490.921 -0.810739 3.78822 0
M  V30 5247 H 491.335 0.924375 5.1629 0
M  V30 5248 H 492.809 -0.758445 5.46765 0
M  V30 5249 H 493.286 -1.69346 4.05239 0
M  V30 5250 H 493.892 -0.0333237 4.25287 0
M  V30 5251 N 492.207 -1.54576 0.307264 0
M  V30 5252 C 493.437 -2.04378 -0.302158 0
M  V30 5253 C 493.845 -1.18381 -1.47589 0
M  V30 5254 O 493.188 -0.20352 -1.82569 0
M  V30 5255 C 493.25 -3.50133 -0.815305 0
M  V30 5256 C 492.914 -4.56401 0.233977 0
M  V30 5257 C 493.911 -5.08884 1.06456 0
M  V30 5258 C 491.596 -5.0088 0.377478 0
M  V30 5259 C 493.59 -6.04394 2.02452 0
M  V30 5260 C 491.277 -5.96208 1.34088 0
M  V30 5261 C 492.275 -6.47849 2.16288 0
M  V30 5262 O 491.963 -7.41308 3.10994 0
M  V30 5263 H 491.695 -0.672502 -0.0686839 0
M  V30 5264 H 494.249 -2.00484 0.446682 0
M  V30 5265 H 492.479 -3.51371 -1.61478 0
M  V30 5266 H 494.168 -3.83098 -1.34129 0
M  V30 5267 H 494.934 -4.75311 0.964596 0
M  V30 5268 H 490.813 -4.60309 -0.252405 0
M  V30 5269 H 494.357 -6.44626 2.66652 0
M  V30 5270 H 490.254 -6.29198 1.44154 0
M  V30 5271 H 491.022 -7.5913 3.06045 0
M  V30 5272 N 493.685 -0.035106 -1.57561 0
M  V30 5273 C 494.933 0.64096 -1.91667 0
M  V30 5274 C 495.254 1.72323 -0.912681 0
M  V30 5275 O 494.524 1.95849 0.0449089 0
M  V30 5276 H 493.104 0.239743 -0.707483 0
M  V30 5277 H 495.766 -0.084321 -1.94718 0
M  V30 5278 H 494.862 1.08987 -2.92452 0
M  V30 5279 N 495.163 1.55791 0.238111 0
M  V30 5280 C 496.11 1.9105 1.29493 0
M  V30 5281 C 497.08 0.765733 1.47397 0
M  V30 5282 O 498.265 1.02017 1.61236 0
M  V30 5283 C 495.405 2.21826 2.64362 0
M  V30 5284 C 494.518 3.49153 2.54394 0
M  V30 5285 C 493.653 3.69455 3.81676 0
M  V30 5286 C 492.692 4.90353 3.66361 0
M  V30 5287 N 491.829 5.07131 4.85554 0
M  V30 5288 H 496.669 2.81172 0.987233 0
M  V30 5289 H 494.206 1.39179 0.476203 0
M  V30 5290 H 496.164 2.37675 3.4288 0
M  V30 5291 H 494.794 1.34897 2.93262 0
M  V30 5292 H 493.846 3.41587 1.67399 0
M  V30 5293 H 495.158 4.37818 2.38991 0
M  V30 5294 H 494.312 3.85311 4.68636 0
M  V30 5295 H 493.051 2.7904 3.99985 0
M  V30 5296 H 492.056 4.74464 2.77784 0
M  V30 5297 H 493.281 5.82237 3.49538 0
M  V30 5298 H 491.227 4.19654 5.04209 0
M  V30 5299 H 491.144 5.89899 4.72816 0
M  V30 5300 H 492.412 5.27407 5.73988 0
M  V30 5301 N 496.642 -0.504142 1.49319 0
M  V30 5302 C 497.891 -1.25507 1.57895 0
M  V30 5303 C 498.204 -1.93735 0.269433 0
M  V30 5304 O 499.41 -2.70492 0.233706 0
M  V30 5305 C 497.866 -2.27869 2.78574 0
M  V30 5306 C 497.474 -1.65594 4.16272 0
M  V30 5307 C 499.218 -3.0381 2.96479 0
M  V30 5308 C 497.125 -2.66048 5.28178 0
M  V30 5309 H 496.055 -0.47212 0.587894 0
M  V30 5310 H 498.706 -0.52931 1.757 0
M  V30 5311 H 497.088 -3.03594 2.54257 0
M  V30 5312 H 498.262 -0.958826 4.50714 0
M  V30 5313 H 496.577 -1.02055 4.037 0
M  V30 5314 H 499.174 -3.78925 3.77253 0
M  V30 5315 H 499.517 -3.61235 2.06918 0
M  V30 5316 H 500.05 -2.352 3.20821 0
M  V30 5317 H 496.789 -2.13408 6.19788 0
M  V30 5318 H 496.309 -3.34009 4.98195 0
M  V30 5319 H 497.988 -3.28536 5.57381 0
M  V30 5320 N 498.12 -1.38341 -0.754957 0
M  V30 5321 C 499.366 -1.35678 -1.51536 0
M  V30 5322 C 499.721 0.0533985 -1.92326 0
M  V30 5323 O 499.014 1.01573 -1.6246 0
M  V30 5324 C 499.208 -2.2452 -2.78075 0
M  V30 5325 C 499.037 -3.74035 -2.49655 0
M  V30 5326 C 497.807 -4.43066 -2.42942 0
M  V30 5327 C 500.005 -4.665 -2.16523 0
M  V30 5328 N 497.987 -5.78026 -2.06783 0
M  V30 5329 C 499.358 -5.89962 -1.90644 0
M  V30 5330 C 501.413 -4.54718 -2.02821 0
M  V30 5331 C 500.116 -7.0296 -1.52444 0
M  V30 5332 C 502.142 -5.67618 -1.66023 0
M  V30 5333 C 501.504 -6.90141 -1.41015 0
M  V30 5334 H 497.603 -0.551764 -0.554148 0
M  V30 5335 H 500.187 -1.73716 -0.879258 0
M  V30 5336 H 498.358 -1.88673 -3.39496 0
M  V30 5337 H 500.09 -2.12993 -3.44116 0
M  V30 5338 H 496.845 -3.96264 -2.59367 0
M  V30 5339 H 497.269 -6.49394 -1.91353 0
M  V30 5340 H 501.911 -3.60546 -2.20831 0
M  V30 5341 H 499.629 -7.97051 -1.33174 0
M  V30 5342 H 503.215 -5.6048 -1.56055 0
M  V30 5343 H 502.095 -7.76021 -1.12965 0
M  V30 5344 N 499.598 0.982988 -1.23187 0
M  V30 5345 C 500.508 2.10907 -1.02739 0
M  V30 5346 C 501.524 1.73979 0.0273188 0
M  V30 5347 O 502.7 2.00702 -0.16757 0
M  V30 5348 C 499.765 3.41142 -0.618304 0
M  V30 5349 C 498.826 3.92112 -1.74777 0
M  V30 5350 C 498.059 5.16131 -1.3581 0
M  V30 5351 O 498.282 5.6989 -0.241201 0
M  V30 5352 O 497.216 5.61103 -2.17824 0
M  V30 5353 H 501.042 2.31046 -1.97108 0
M  V30 5354 H 498.627 1.09284 -1.01869 0
M  V30 5355 H 500.509 4.19488 -0.400982 0
M  V30 5356 H 499.184 3.2234 0.296421 0
M  V30 5357 H 498.091 3.14895 -2.0197 0
M  V30 5358 H 499.424 4.15364 -2.64071 0
M  V30 5359 N 501.076 1.04316 1.18135 0
M  V30 5360 C 502.324 0.746542 1.87806 0
M  V30 5361 C 502.645 -0.728082 1.80898 0
M  V30 5362 O 501.915 -1.52554 1.22899 0
M  V30 5363 H 500.495 0.273157 0.695265 0
M  V30 5364 H 503.157 1.32044 1.43354 0
M  V30 5365 H 502.253 1.05362 2.93778 0
M  V30 5366 N 502.554 -1.34406 0.822964 0
M  V30 5367 C 503.779 -2.0304 0.423034 0
M  V30 5368 C 504.204 -1.61568 -0.963196 0
M  V30 5369 O 503.562 -0.800339 -1.62678 0
M  V30 5370 C 503.61 -3.56636 0.53321 0
M  V30 5371 O 502.714 -4.09971 -0.446939 0
M  V30 5372 H 502.055 -0.64075 0.174171 0
M  V30 5373 H 504.585 -1.71653 1.11339 0
M  V30 5374 H 504.595 -4.05945 0.408991 0
M  V30 5375 H 503.27 -3.86168 1.54425 0
M  V30 5376 H 501.847 -3.71835 -0.281601 0
M  V30 5377 N 504.032 -0.577932 -1.46621 0
M  V30 5378 C 505.257 -0.0652536 -2.07297 0
M  V30 5379 C 505.682 1.22828 -1.4246 0
M  V30 5380 O 505.04 1.74075 -0.506718 0
M  V30 5381 C 505.088 0.0920589 -3.60482 0
M  V30 5382 O 504.192 1.14972 -3.96049 0
M  V30 5383 H 503.533 -0.06065 -0.661224 0
M  V30 5384 H 506.063 -0.799515 -1.88332 0
M  V30 5385 H 506.073 0.299741 -4.06897 0
M  V30 5386 H 504.748 -0.852612 -4.07067 0
M  V30 5387 H 503.325 0.920879 -3.61351 0
M  V30 5388 N 505.51 1.54411 -0.315457 0
M  V30 5389 C 506.457 2.24048 0.554166 0
M  V30 5390 C 507.427 1.2283 1.11812 0
M  V30 5391 O 508.612 1.51491 1.15997 0
M  V30 5392 C 505.752 2.99574 1.71316 0
M  V30 5393 C 504.865 4.15594 1.17922 0
M  V30 5394 C 504 4.78669 2.30324 0
M  V30 5395 C 503.039 5.86807 1.74137 0
M  V30 5396 N 502.176 6.43777 2.8017 0
M  V30 5397 H 507.016 2.97964 -0.0462602 0
M  V30 5398 H 504.553 1.47059 -0.0346009 0
M  V30 5399 H 506.511 3.41604 2.39505 0
M  V30 5400 H 505.141 2.28008 2.285 0
M  V30 5401 H 504.193 3.78404 0.389136 0
M  V30 5402 H 505.505 4.93459 0.728012 0
M  V30 5403 H 504.659 5.23626 3.06433 0
M  V30 5404 H 503.398 4.00168 2.78778 0
M  V30 5405 H 502.403 5.41261 0.965236 0
M  V30 5406 H 503.628 6.67201 1.2657 0
M  V30 5407 H 501.574 5.68153 3.2793 0
M  V30 5408 H 501.491 7.17031 2.39588 0
M  V30 5409 H 502.759 6.9339 3.56132 0
M  V30 5410 N 506.988 0.0434614 1.5754 0
M  V30 5411 C 508.228 -0.636023 1.94253 0
M  V30 5412 C 508.592 -1.68461 0.921132 0
M  V30 5413 O 509.793 -2.41762 1.17494 0
M  V30 5414 C 508.064 -1.22357 3.35803 0
M  V30 5415 S 509.623 -1.92213 3.94461 0
M  V30 5416 H 506.441 -0.209041 0.679575 0
M  V30 5417 H 509.043 0.110556 1.95187 0
M  V30 5418 H 507.747 -0.448162 4.07946 0
M  V30 5419 H 507.278 -2.00713 3.38346 0
M  V30 5420 H 509.293 -3.20199 3.79061 0
M  V30 5421 N 508.466 -1.55915 -0.229846 0
M  V30 5422 C 509.414 -1.9258 -1.30444 0
M  V30 5423 C 510.408 -0.806839 -1.48951 0
M  V30 5424 O 511.614 -0.991606 -1.50224 0
M  V30 5425 H 507.989 -0.611878 -0.437161 0
M  V30 5426 H 509.96 -2.82264 -0.96797 0
M  V30 5427 C 508.709 -2.25171 -2.6494 0
M  V30 5428 H 508.032 -3.10782 -2.51504 0
M  V30 5429 H 509.472 -2.54716 -3.38963 0
M  V30 5430 C 507.931 -1.07394 -3.19324 0
M  V30 5431 O 508.461 -0.330759 -4.00336 0
M  V30 5432 N 506.667 -0.859984 -2.77584 0
M  V30 5433 H 506.214 -1.46605 -2.11813 0
M  V30 5434 H 506.172 -0.0736671 -3.14314 0
M  V30 5435 N 509.944 0.496216 -1.49584 0
M  V30 5436 C 511.193 1.24668 -1.58558 0
M  V30 5437 C 511.506 1.9359 -0.279703 0
M  V30 5438 O 512.712 2.70365 -0.248048 0
M  V30 5439 C 511.168 2.26388 -2.79779 0
M  V30 5440 C 510.776 1.63384 -4.17145 0
M  V30 5441 C 512.52 3.02233 -2.98086 0
M  V30 5442 C 510.427 2.63243 -5.29582 0
M  V30 5443 H 509.357 0.468995 -0.590389 0
M  V30 5444 H 512.008 0.519985 -1.75978 0
M  V30 5445 H 510.39 3.02241 -2.55863 0
M  V30 5446 H 511.564 0.93491 -4.51216 0
M  V30 5447 H 509.879 0.999121 -4.04236 0
M  V30 5448 H 512.476 3.76919 -3.79257 0
M  V30 5449 H 512.819 3.60132 -2.08831 0
M  V30 5450 H 513.352 2.33495 -3.22063 0
M  V30 5451 H 510.091 2.10119 -6.20911 0
M  V30 5452 H 509.611 3.31363 -4.99959 0
M  V30 5453 H 511.29 3.25575 -5.59115 0
M  V30 5454 N 511.423 1.38739 0.74761 0
M  V30 5455 C 512.371 1.36573 1.88283 0
M  V30 5456 C 513.365 0.250712 1.67534 0
M  V30 5457 O 514.571 0.420073 1.7503 0
M  V30 5458 H 510.946 0.42619 0.619569 0
M  V30 5459 H 512.917 2.32356 1.87226 0
M  V30 5460 C 511.666 1.21361 3.25832 0
M  V30 5461 H 510.989 2.06424 3.42388 0
M  V30 5462 H 512.429 1.23901 4.05493 0
M  V30 5463 C 510.888 -0.0790099 3.36807 0
M  V30 5464 O 511.418 -1.05385 3.8763 0
M  V30 5465 N 509.624 -0.13785 2.90273 0
M  V30 5466 H 509.171 0.656128 2.49104 0
M  V30 5467 H 509.129 -1.00228 2.97996 0
M  V30 5468 N 512.901 -0.976442 1.23707 0
M  V30 5469 C 513.849 -2.09078 1.01927 0
M  V30 5470 C 514.843 -1.69345 -0.0430193 0
M  V30 5471 O 516.049 -1.79659 0.110814 0
M  V30 5472 H 512.424 -0.68398 0.312531 0
M  V30 5473 H 514.395 -2.24614 1.96447 0
M  V30 5474 C 513.144 -3.41919 0.631385 0
M  V30 5475 H 512.467 -3.72946 1.44053 0
M  V30 5476 H 513.907 -4.20817 0.518532 0
M  V30 5477 C 512.366 -3.30357 -0.660723 0
M  V30 5478 O 512.896 -3.63542 -1.70881 0
M  V30 5479 N 511.102 -2.83507 -0.638139 0
M  V30 5480 H 510.649 -2.567 0.215108 0
M  V30 5481 H 510.607 -2.76153 -1.50289 0
M  V30 5482 N 514.379 -1.04941 -1.1758 0
M  V30 5483 C 515.626 -0.757989 -1.87779 0
M  V30 5484 C 515.954 0.714827 -1.80888 0
M  V30 5485 O 515.209 1.53824 -1.20982 0
M  V30 5486 C 515.508 -1.18062 -3.37337 0
M  V30 5487 C 515.174 -2.65521 -3.6443 0
M  V30 5488 C 513.836 -3.05804 -3.71534 0
M  V30 5489 C 516.188 -3.60822 -3.76108 0
M  V30 5490 C 513.516 -4.40256 -3.87803 0
M  V30 5491 C 515.868 -4.95005 -3.93895 0
M  V30 5492 C 514.532 -5.34945 -3.99237 0
M  V30 5493 H 513.802 -0.277368 -0.68713 0
M  V30 5494 H 516.449 -1.31603 -1.39115 0
M  V30 5495 H 514.754 -0.541525 -3.8804 0
M  V30 5496 H 516.451 -0.932368 -3.9001 0
M  V30 5497 H 513.041 -2.33324 -3.59524 0
M  V30 5498 H 517.225 -3.30841 -3.69943 0
M  V30 5499 H 512.481 -4.70707 -3.90186 0
M  V30 5500 H 516.655 -5.68746 -4.01872 0
M  V30 5501 H 514.282 -6.39135 -4.11596 0
M  V30 5502 N 515.857 1.33968 -0.830081 0
M  V30 5503 C 517.106 1.97323 -0.417928 0
M  V30 5504 C 517.419 1.6652 1.02618 0
M  V30 5505 O 518.625 2.2342 1.54259 0
M  V30 5506 C 517.081 3.53099 -0.696359 0
M  V30 5507 C 516.689 3.92788 -2.15457 0
M  V30 5508 C 518.433 4.23049 -0.350724 0
M  V30 5509 C 516.34 5.41506 -2.37751 0
M  V30 5510 H 515.27 0.738409 -0.152541 0
M  V30 5511 H 517.921 1.52711 -1.01744 0
M  V30 5512 H 516.303 3.95991 -0.0265904 0
M  V30 5513 H 517.477 3.6098 -2.86408 0
M  V30 5514 H 515.792 3.35795 -2.46232 0
M  V30 5515 H 518.389 5.32403 -0.495036 0
M  V30 5516 H 518.732 4.10279 0.705476 0
M  V30 5517 H 519.265 3.85657 -0.975362 0
M  V30 5518 H 516.004 5.5927 -3.41903 0
M  V30 5519 H 515.524 5.74804 -1.7135 0
M  V30 5520 H 517.203 6.0828 -2.20465 0
M  V30 5521 N 517.335 0.585699 1.46312 0
M  V30 5522 C 518.582 0.0724211 2.0237 0
M  V30 5523 C 518.91 -1.28868 1.45683 0
M  V30 5524 O 518.165 -1.85853 0.612945 0
M  V30 5525 C 518.464 -0.0401312 3.57377 0
M  V30 5526 C 518.13 1.25376 4.33119 0
M  V30 5527 C 516.792 1.60824 4.5353 0
M  V30 5528 C 519.144 2.10987 4.76586 0
M  V30 5529 C 516.472 2.81676 5.14661 0
M  V30 5530 C 518.824 3.31068 5.39052 0
M  V30 5531 C 517.488 3.66794 5.5769 0
M  V30 5532 H 516.758 0.0265007 0.740526 0
M  V30 5533 H 519.405 0.762935 1.75646 0
M  V30 5534 H 517.71 -0.813791 3.83255 0
M  V30 5535 H 519.407 -0.453078 3.98432 0
M  V30 5536 H 515.997 0.967808 4.1753 0
M  V30 5537 H 520.181 1.84904 4.60569 0
M  V30 5538 H 515.437 3.0949 5.27282 0
M  V30 5539 H 519.611 3.97672 5.71691 0
M  V30 5540 H 517.238 4.60529 6.04828 0
M  V30 5541 N 518.813 -1.54241 0.323641 0
M  V30 5542 C 519.763 -2.21071 -0.557833 0
M  V30 5543 C 520.747 -1.19126 -1.08157 0
M  V30 5544 O 521.939 -1.44755 -1.01857 0
M  V30 5545 C 519.068 -2.97208 -1.71821 0
M  V30 5546 C 518.154 -4.06491 -1.20936 0
M  V30 5547 N 518.545 -5.04052 -0.420202 0
M  V30 5548 C 516.843 -4.20443 -1.48808 0
M  V30 5549 C 517.544 -5.81516 -0.146413 0
M  V30 5550 N 516.52 -5.38641 -0.732562 0
M  V30 5551 H 520.322 -2.93853 0.0523921 0
M  V30 5552 H 517.836 -1.61883 0.129502 0
M  V30 5553 H 519.833 -3.4357 -2.36146 0
M  V30 5554 H 518.493 -2.25947 -2.33191 0
M  V30 5555 H 519.504 -5.17862 -0.0630401 0
M  V30 5556 H 516.181 -3.60396 -2.10762 0
M  V30 5557 H 517.571 -6.70119 0.488895 0
M  V30 5558 N 520.291 -0.0518155 -1.57515 0
M  V30 5559 C 521.238 0.922352 -2.11569 0
M  V30 5560 C 522.208 1.30842 -1.02321 0
M  V30 5561 O 523.393 1.39778 -1.29872 0
M  V30 5562 C 520.533 2.19167 -2.6657 0
M  V30 5563 C 519.646 1.86003 -3.89906 0
M  V30 5564 C 518.781 3.07398 -4.33221 0
M  V30 5565 C 517.82 2.70158 -5.49255 0
M  V30 5566 N 516.957 3.84248 -5.8762 0
M  V30 5567 H 521.797 0.454506 -2.94514 0
M  V30 5568 H 519.334 0.212718 -1.45554 0
M  V30 5569 H 521.292 2.93443 -2.96559 0
M  V30 5570 H 519.922 2.63528 -1.86421 0
M  V30 5571 H 518.974 1.01874 -3.66505 0
M  V30 5572 H 520.286 1.54592 -4.74239 0
M  V30 5573 H 519.44 3.89972 -4.64765 0
M  V30 5574 H 518.179 3.41988 -3.477 0
M  V30 5575 H 517.184 1.86001 -5.17382 0
M  V30 5576 H 518.409 2.36759 -6.36492 0
M  V30 5577 H 516.355 4.18638 -5.05053 0
M  V30 5578 H 516.272 3.56538 -6.66646 0
M  V30 5579 H 517.54 4.6746 -6.2378 0
M  V30 5580 N 521.769 1.56035 0.221574 0
M  V30 5581 C 523.015 1.79312 0.947372 0
M  V30 5582 C 523.348 0.621453 1.83988 0
M  V30 5583 O 522.623 -0.379287 1.90766 0
M  V30 5584 C 522.906 3.1267 1.78633 0
M  V30 5585 C 522.759 4.40284 0.920312 0
M  V30 5586 C 524.078 3.4247 2.7641 0
M  V30 5587 H 521.197 0.652328 0.342982 0
M  V30 5588 H 523.839 1.88765 0.216244 0
M  V30 5589 H 521.989 3.04741 2.40967 0
M  V30 5590 H 523.661 4.60232 0.313718 0
M  V30 5591 H 521.904 4.33212 0.225734 0
M  V30 5592 H 522.575 5.30033 1.54171 0
M  V30 5593 H 525.051 3.50526 2.24211 0
M  V30 5594 H 523.927 4.3695 3.32213 0
M  V30 5595 H 524.188 2.64635 3.54148 0
M  V30 5596 N 523.247 -0.488276 1.49845 0
M  V30 5597 C 524.177 -1.59675 1.70371 0
M  V30 5598 C 525.158 -1.60878 0.552473 0
M  V30 5599 O 526.343 -1.77417 0.78973 0
M  V30 5600 C 523.473 -2.98098 1.782 0
M  V30 5601 C 522.427 -3.11761 2.93239 0
M  V30 5602 C 521.753 -4.51661 2.86193 0
M  V30 5603 C 523.053 -2.90589 4.33999 0
M  V30 5604 H 524.747 -1.42752 2.63177 0
M  V30 5605 H 522.293 -0.685317 1.26647 0
M  V30 5606 H 524.246 -3.75555 1.91144 0
M  V30 5607 H 522.97 -3.16138 0.820018 0
M  V30 5608 H 521.629 -2.36732 2.79917 0
M  V30 5609 H 521.277 -4.66595 1.87877 0
M  V30 5610 H 520.977 -4.61742 3.63412 0
M  V30 5611 H 522.501 -5.31162 3.01163 0
M  V30 5612 H 523.915 -3.57807 4.47936 0
M  V30 5613 H 522.312 -3.1213 5.12538 0
M  V30 5614 H 523.382 -1.86595 4.4756 0
M  V30 5615 N 524.725 -1.39134 -0.740242 0
M  V30 5616 C 525.973 -1.35803 -1.49673 0
M  V30 5617 C 526.294 0.0470897 -1.94943 0
M  V30 5618 O 525.564 0.997347 -1.68611 0
M  V30 5619 H 524.144 -0.499736 -0.555224 0
M  V30 5620 H 526.806 -1.73947 -0.879107 0
M  V30 5621 H 525.902 -2.0174 -2.38133 0
M  V30 5622 N 526.204 0.969867 -1.24223 0
M  V30 5623 C 527.151 2.06407 -1.0327 0
M  V30 5624 C 528.121 1.66014 0.0533 0
M  V30 5625 O 529.306 1.90533 -0.100896 0
M  V30 5626 C 526.446 3.3909 -0.641262 0
M  V30 5627 C 525.559 3.9269 -1.80051 0
M  V30 5628 C 524.694 5.13631 -1.35486 0
M  V30 5629 C 523.733 5.59423 -2.48419 0
M  V30 5630 N 522.87 6.71586 -2.04737 0
M  V30 5631 H 527.71 2.23663 -1.96923 0
M  V30 5632 H 525.247 1.09624 -0.980862 0
M  V30 5633 H 527.205 4.15323 -0.395351 0
M  V30 5634 H 525.835 3.21765 0.258269 0
M  V30 5635 H 524.887 3.13116 -2.16014 0
M  V30 5636 H 526.199 4.22636 -2.64916 0
M  V30 5637 H 525.353 5.97231 -1.0677 0
M  V30 5638 H 524.092 4.85364 -0.476722 0
M  V30 5639 H 523.097 4.74398 -2.77897 0
M  V30 5640 H 524.322 5.89705 -3.36786 0
M  V30 5641 H 522.268 6.45058 -1.19318 0
M  V30 5642 H 522.185 7.0097 -2.83156 0
M  V30 5643 H 523.453 7.58633 -1.79154 0
M  V30 5644 N 527.682 1.05563 1.17022 0
M  V30 5645 C 528.93 0.76642 1.87004 0
M  V30 5646 C 529.251 -0.708854 1.8166 0
M  V30 5647 O 528.521 -1.51242 1.2451 0
M  V30 5648 H 527.101 0.280516 0.692329 0
M  V30 5649 H 529.763 1.33557 1.41945 0
M  V30 5650 H 528.859 1.08472 2.92644 0
M  V30 5651 N 529.16 -1.33526 0.837174 0
M  V30 5652 C 530.385 -2.0258 0.444545 0
M  V30 5653 C 530.81 -1.6258 -0.946006 0
M  V30 5654 O 530.168 -0.817548 -1.6182 0
M  V30 5655 C 530.216 -3.5605 0.571006 0
M  V30 5656 O 529.32 -4.10422 -0.403431 0
M  V30 5657 H 528.661 -0.638866 0.180958 0
M  V30 5658 H 531.191 -1.70462 1.13154 0
M  V30 5659 H 531.201 -4.05488 0.452024 0
M  V30 5660 H 529.876 -3.84509 1.58512 0
M  V30 5661 H 528.453 -3.72113 -0.242147 0
M  V30 5662 N 530.638 -0.59345 -1.46 0
M  V30 5663 C 531.885 -0.0831523 -2.02329 0
M  V30 5664 C 532.213 1.28093 -1.46364 0
M  V30 5665 O 531.468 1.85526 -0.622793 0
M  V30 5666 C 531.767 0.021178 -3.57394 0
M  V30 5667 C 531.433 -1.27671 -4.32448 0
M  V30 5668 C 530.095 -1.63227 -4.5267 0
M  V30 5669 C 532.447 -2.13511 -4.7546 0
M  V30 5670 C 529.775 -2.84401 -5.1316 0
M  V30 5671 C 532.127 -3.33922 -5.37289 0
M  V30 5672 C 530.791 -3.69747 -5.55737 0
M  V30 5673 H 530.061 -0.0304276 -0.740375 0
M  V30 5674 H 532.708 -0.772239 -1.75239 0
M  V30 5675 H 531.013 0.793454 -3.83682 0
M  V30 5676 H 532.71 0.431942 -3.98667 0
M  V30 5677 H 529.3 -0.989937 -4.17011 0
M  V30 5678 H 533.484 -1.87344 -4.59582 0
M  V30 5679 H 528.74 -3.12282 -5.25633 0
M  V30 5680 H 532.914 -4.00698 -5.69574 0
M  V30 5681 H 530.541 -4.6373 -6.02377 0
M  V30 5682 N 532.116 1.54067 -0.331816 0
M  V30 5683 C 533.364 2.00319 0.267739 0
M  V30 5684 C 533.685 1.22148 1.52003 0
M  V30 5685 O 532.955 0.325494 1.93177 0
M  V30 5686 H 531.535 0.740014 0.101922 0
M  V30 5687 H 534.197 1.89628 -0.450267 0
M  V30 5688 H 533.293 3.07765 0.518385 0
M  V30 5689 N 533.594 0.0601682 1.57485 0
M  V30 5690 C 534.541 -0.91112 2.12055 0
M  V30 5691 C 535.511 -1.30298 1.03013 0
M  V30 5692 O 536.696 -1.39087 1.30612 0
M  V30 5693 C 533.836 -2.1775 2.67729 0
M  V30 5694 C 532.949 -1.83933 3.90887 0
M  V30 5695 C 532.084 -3.05096 4.34845 0
M  V30 5696 C 531.123 -2.67241 5.5068 0
M  V30 5697 N 530.26 -3.81127 5.8965 0
M  V30 5698 H 535.1 -0.43888 2.9475 0
M  V30 5699 H 532.637 -0.204995 1.45665 0
M  V30 5700 H 534.595 -2.91866 2.98111 0
M  V30 5701 H 533.225 -2.62535 1.87816 0
M  V30 5702 H 532.277 -0.999287 3.6704 0
M  V30 5703 H 533.589 -1.52074 4.75052 0
M  V30 5704 H 532.743 -3.87502 4.66827 0
M  V30 5705 H 531.482 -3.40139 3.49509 0
M  V30 5706 H 530.487 -1.83254 5.18361 0
M  V30 5707 H 531.712 -2.3338 6.37738 0
M  V30 5708 H 529.658 -4.15954 5.07266 0
M  V30 5709 H 529.575 -3.52997 6.68528 0
M  V30 5710 H 530.843 -4.64145 6.2625 0
M  V30 5711 N 535.072 -1.5615 -0.213296 0
M  V30 5712 C 536.318 -1.79812 -0.937849 0
M  V30 5713 C 536.651 -0.631201 -1.83656 0
M  V30 5714 O 535.926 0.369165 -1.90964 0
M  V30 5715 C 536.209 -3.13613 -1.76972 0
M  V30 5716 C 536.062 -4.40766 -0.89695 0
M  V30 5717 C 537.381 -3.43931 -2.7459 0
M  V30 5718 H 534.5 -0.654138 -0.339518 0
M  V30 5719 H 537.142 -1.88877 -0.20623 0
M  V30 5720 H 535.292 -3.06015 -2.39347 0
M  V30 5721 H 536.964 -4.60392 -0.289306 0
M  V30 5722 H 535.207 -4.33326 -0.202756 0
M  V30 5723 H 535.878 -5.30843 -1.51358 0
M  V30 5724 H 538.354 -3.5171 -2.22349 0
M  V30 5725 H 537.23 -4.38706 -3.29891 0
M  V30 5726 H 537.491 -2.6651 -3.52739 0
M  V30 5727 N 536.55 0.480323 -1.50102 0
M  V30 5728 C 537.48 1.58769 -1.71215 0
M  V30 5729 C 538.461 1.60583 -0.560997 0
M  V30 5730 O 539.646 1.76996 -0.799127 0
M  V30 5731 C 536.776 2.97148 -1.79778 0
M  V30 5732 C 535.73 3.10201 -2.94888 0
M  V30 5733 C 535.056 4.50137 -2.88584 0
M  V30 5734 C 536.356 2.88283 -4.35534 0
M  V30 5735 H 538.05 1.41354 -2.6393 0
M  V30 5736 H 535.596 0.678591 -1.27008 0
M  V30 5737 H 537.549 3.74536 -1.93133 0
M  V30 5738 H 536.273 3.15699 -0.836772 0
M  V30 5739 H 534.932 2.35244 -2.81169 0
M  V30 5740 H 534.58 4.65593 -1.90349 0
M  V30 5741 H 534.28 4.59808 -3.65856 0
M  V30 5742 H 535.804 5.29558 -3.03976 0
M  V30 5743 H 537.218 3.55427 -4.49827 0
M  V30 5744 H 535.615 3.09408 -5.14186 0
M  V30 5745 H 536.685 1.84219 -4.48544 0
M  V30 5746 N 538.028 1.39524 0.732853 0
M  V30 5747 C 538.958 1.41153 1.86005 0
M  V30 5748 C 539.939 0.274614 1.67869 0
M  V30 5749 O 541.124 0.480745 1.88155 0
M  V30 5750 C 538.254 1.25638 3.23778 0
M  V30 5751 C 537.208 2.36752 3.56556 0
M  V30 5752 C 536.534 2.06326 4.93289 0
M  V30 5753 C 537.834 3.79069 3.5931 0
M  V30 5754 H 539.528 2.35484 1.84899 0
M  V30 5755 H 537.074 1.13348 0.888162 0
M  V30 5756 H 539.027 1.25398 4.0231 0
M  V30 5757 H 537.751 0.277772 3.25417 0
M  V30 5758 H 536.41 2.36213 2.80355 0
M  V30 5759 H 536.058 1.06897 4.9151 0
M  V30 5760 H 535.758 2.80757 5.16187 0
M  V30 5761 H 537.282 2.07739 5.74175 0
M  V30 5762 H 538.696 3.81526 4.27914 0
M  V30 5763 H 537.093 4.52878 3.93728 0
M  V30 5764 H 538.163 4.09893 2.59068 0
M  V30 5765 N 539.506 -0.963266 1.24736 0
M  V30 5766 C 540.754 -1.70343 1.08755 0
M  V30 5767 C 541.075 -1.91387 -0.373619 0
M  V30 5768 O 540.345 -1.4948 -1.2662 0
M  V30 5769 H 538.925 -0.631224 0.399456 0
M  V30 5770 H 541.587 -1.15859 1.56725 0
M  V30 5771 H 540.683 -2.68616 1.58909 0
M  V30 5772 N 540.985 -1.06182 -1.16461 0
M  V30 5773 C 541.895 -0.682671 -2.24448 0
M  V30 5774 C 542.911 0.30078 -1.71381 0
M  V30 5775 O 544.087 0.150376 -2.00838 0
M  V30 5776 C 541.152 -0.0737202 -3.46622 0
M  V30 5777 C 540.213 -1.10889 -4.14731 0
M  V30 5778 C 539.446 -0.528908 -5.31073 0
M  V30 5779 O 539.669 0.65868 -5.66584 0
M  V30 5780 O 538.603 -1.26805 -5.88391 0
M  V30 5781 H 542.429 -1.58291 -2.59187 0
M  V30 5782 H 540.014 -0.834013 -1.23954 0
M  V30 5783 H 541.896 0.264192 -4.20571 0
M  V30 5784 H 540.571 0.800015 -3.13658 0
M  V30 5785 H 539.478 -1.49896 -3.42756 0
M  V30 5786 H 540.811 -1.95412 -4.51747 0
M  V30 5787 N 542.463 1.3308 -0.844243 0
M  V30 5788 C 543.393 2.3161 -0.296493 0
M  V30 5789 C 544.374 1.59215 0.598707 0
M  V30 5790 O 545.559 1.87077 0.521134 0
M  V30 5791 C 542.689 3.43313 0.524762 0
M  V30 5792 C 541.643 4.27115 -0.275106 0
M  V30 5793 C 540.969 5.30483 0.670236 0
M  V30 5794 C 542.269 5.00443 -1.49514 0
M  V30 5795 H 543.963 2.77672 -1.11976 0
M  V30 5796 H 541.509 1.33496 -0.539899 0
M  V30 5797 H 543.462 4.11273 0.918298 0
M  V30 5798 H 542.186 2.95952 1.3813 0
M  V30 5799 H 540.845 3.60787 -0.650267 0
M  V30 5800 H 540.493 4.79379 1.52332 0
M  V30 5801 H 540.193 5.87435 0.139123 0
M  V30 5802 H 541.717 6.01308 1.06117 0
M  V30 5803 H 543.131 5.61141 -1.17447 0
M  V30 5804 H 541.528 5.67071 -1.96343 0
M  V30 5805 H 542.598 4.28906 -2.26202 0
M  V30 5806 N 543.941 0.601185 1.45683 0
M  V30 5807 C 544.888 -0.121396 2.30481 0
M  V30 5808 C 545.858 -0.866232 1.41724 0
M  V30 5809 O 547.043 -0.85324 1.70659 0
M  V30 5810 C 544.183 -1.11704 3.26521 0
M  V30 5811 C 543.296 -0.373741 4.3038 0
M  V30 5812 C 542.431 -1.35854 5.13534 0
M  V30 5813 C 541.47 -0.602689 6.09126 0
M  V30 5814 N 540.607 -1.53645 6.85082 0
M  V30 5815 H 545.447 0.607732 2.91737 0
M  V30 5816 H 542.984 0.311502 1.43764 0
M  V30 5817 H 544.942 -1.70735 3.80664 0
M  V30 5818 H 543.572 -1.81366 2.67032 0
M  V30 5819 H 542.624 0.331962 3.78949 0
M  V30 5820 H 543.936 0.2163 4.98331 0
M  V30 5821 H 543.09 -2.02111 5.72046 0
M  V30 5822 H 541.829 -1.98251 4.45587 0
M  V30 5823 H 540.834 0.0735482 5.49751 0
M  V30 5824 H 542.059 0.0161467 6.79098 0
M  V30 5825 H 540.005 -2.14819 6.1983 0
M  V30 5826 H 539.922 -0.999688 7.49361 0
M  V30 5827 H 541.19 -2.1888 7.48139 0
M  V30 5828 N 545.419 -1.53889 0.339982 0
M  V30 5829 C 546.667 -2.00458 -0.257112 0
M  V30 5830 C 546.988 -1.22953 -1.51353 0
M  V30 5831 O 546.258 -0.335734 -1.93002 0
M  V30 5832 H 544.838 -0.740544 -0.0979965 0
M  V30 5833 H 547.5 -1.89386 0.460317 0
M  V30 5834 H 546.596 -3.08035 -0.502057 0
M  V30 5835 N 546.897 -0.0685191 -1.57451 0
M  V30 5836 C 548.313 0.288101 -1.56978 0
M  V30 5837 C 548.513 1.70262 -1.07765 0
M  V30 5838 O 547.569 2.4135 -0.742054 0
M  V30 5839 C 548.882 0.100745 -3.00531 0
M  V30 5840 C 550.43 0.170531 -3.12535 0
M  V30 5841 C 550.905 0.0114944 -4.57999 0
M  V30 5842 N 552.396 0.0672065 -4.63151 0
M  V30 5843 C 553.131 -0.0314813 -5.73391 0
M  V30 5844 N 552.627 -0.183503 -6.92557 0
M  V30 5845 N 554.42 0.0253489 -5.62094 0
M  V30 5846 H 546.571 -0.993026 -1.87757 0
M  V30 5847 H 548.834 -0.386981 -0.865419 0
M  V30 5848 H 548.54 -0.875197 -3.40636 0
M  V30 5849 H 548.414 0.854457 -3.67395 0
M  V30 5850 H 550.801 1.13696 -2.72318 0
M  V30 5851 H 550.882 -0.614229 -2.48316 0
M  V30 5852 H 550.526 -0.951684 -4.98904 0
M  V30 5853 H 550.456 0.815617 -5.20245 0
M  V30 5854 H 552.947 0.183246 -3.77455 0
M  V30 5855 H 553.26 -0.251041 -7.72392 0
M  V30 5856 H 551.605 -0.218822 -6.94655 0
M  V30 5857 H 554.796 0.142794 -4.67882 0
M  V30 5858 H 554.969 -0.0550166 -6.47977 0
M  V30 5859 N 548.375 1.56261 0.205012 0
M  V30 5860 C 549.623 1.79684 0.925096 0
M  V30 5861 C 549.944 0.63989 1.84202 0
M  V30 5862 O 549.214 -0.342345 1.92885 0
M  V30 5863 H 547.794 0.662774 0.344587 0
M  V30 5864 H 550.456 1.93734 0.212899 0
M  V30 5865 H 549.552 2.72467 1.52211 0
M  V30 5866 N 549.853 -0.472356 1.50355 0
M  V30 5867 C 550.763 -1.59637 1.7191 0
M  V30 5868 C 551.779 -1.63247 0.602195 0
M  V30 5869 O 552.955 -1.81139 0.880369 0
M  V30 5870 C 550.02 -2.9586 1.80742 0
M  V30 5871 C 549.081 -3.02649 3.04471 0
M  V30 5872 C 548.314 -4.32374 3.12872 0
M  V30 5873 O 548.537 -5.22807 2.28099 0
M  V30 5874 O 547.471 -4.44728 4.05587 0
M  V30 5875 H 551.297 -1.44373 2.67189 0
M  V30 5876 H 548.882 -0.651717 1.34436 0
M  V30 5877 H 550.764 -3.7677 1.88739 0
M  V30 5878 H 549.439 -3.11325 0.88647 0
M  V30 5879 H 548.346 -2.20821 3.01975 0
M  V30 5880 H 549.679 -2.92119 3.9614 0
M  V30 5881 N 551.331 -1.39911 -0.725443 0
M  V30 5882 C 552.561 -1.40744 -1.51244 0
M  V30 5883 C 552.969 -0.00275403 -1.892 0
M  V30 5884 O 552.312 0.981299 -1.55294 0
M  V30 5885 C 552.374 -2.22527 -2.82351 0
M  V30 5886 C 552.038 -3.71053 -2.66774 0
M  V30 5887 C 553.035 -4.63916 -2.34686 0
M  V30 5888 C 550.72 -4.14753 -2.83347 0
M  V30 5889 C 552.714 -5.98463 -2.19366 0
M  V30 5890 C 550.401 -5.49372 -2.67644 0
M  V30 5891 C 551.399 -6.41042 -2.357 0
M  V30 5892 O 551.087 -7.73181 -2.20107 0
M  V30 5893 H 550.819 -0.482314 -0.473655 0
M  V30 5894 H 553.373 -1.84472 -0.903284 0
M  V30 5895 H 551.603 -1.73563 -3.45562 0
M  V30 5896 H 553.292 -2.15421 -3.44018 0
M  V30 5897 H 554.058 -4.31453 -2.21525 0
M  V30 5898 H 549.937 -3.43728 -3.072 0
M  V30 5899 H 553.481 -6.69979 -1.94354 0
M  V30 5900 H 549.378 -5.81424 -2.80387 0
M  V30 5901 H 550.146 -7.84008 -2.35103 0
M  V30 5902 N 552.809 0.956637 -1.25245 0
M  V30 5903 C 554.056 1.701 -1.09874 0
M  V30 5904 C 554.384 1.91128 0.36062 0
M  V30 5905 O 553.639 1.47837 1.28229 0
M  V30 5906 C 553.938 3.08996 -1.79601 0
M  V30 5907 C 553.604 3.07774 -3.29523 0
M  V30 5908 C 552.266 3.07149 -3.70423 0
M  V30 5909 C 554.618 3.01257 -4.25316 0
M  V30 5910 C 551.946 2.97752 -5.0553 0
M  V30 5911 C 554.298 2.93403 -5.60444 0
M  V30 5912 C 552.962 2.91111 -6.00675 0
M  V30 5913 H 552.232 0.62244 -0.402056 0
M  V30 5914 H 554.879 1.1178 -1.55491 0
M  V30 5915 H 553.184 3.70848 -1.26408 0
M  V30 5916 H 554.881 3.65407 -1.65162 0
M  V30 5917 H 551.471 3.09032 -2.9698 0
M  V30 5918 H 555.655 3.00861 -3.9471 0
M  V30 5919 H 550.911 2.94346 -5.35883 0
M  V30 5920 H 555.085 2.87321 -6.34366 0
M  V30 5921 H 552.712 2.83586 -7.05325 0
M  V30 5922 N 554.287 1.06798 1.15896 0
M  V30 5923 C 555.25 0.687328 2.18651 0
M  V30 5924 C 556.25 -0.269559 1.58524 0
M  V30 5925 O 557.44 -0.0512627 1.74125 0
M  V30 5926 C 554.572 0.0121642 3.40898 0
M  V30 5927 H 555.765 1.59701 2.53842 0
M  V30 5928 H 553.318 0.863828 1.3026 0
M  V30 5929 H 554.053 -0.910025 3.1127 0
M  V30 5930 H 553.838 0.700309 3.85795 0
M  V30 5931 H 555.328 -0.239703 4.16911 0
M  V30 5932 N 555.766 -1.3263 0.851289 0
M  V30 5933 C 557.015 -1.96633 0.449267 0
M  V30 5934 C 557.328 -1.68131 -0.999562 0
M  V30 5935 O 558.534 -2.25845 -1.50685 0
M  V30 5936 C 556.99 -3.51946 0.752446 0
M  V30 5937 C 556.598 -3.89311 2.21678 0
M  V30 5938 C 558.342 -4.22437 0.417983 0
M  V30 5939 C 556.249 -5.37655 2.46336 0
M  V30 5940 H 555.179 -0.735888 0.164269 0
M  V30 5941 H 557.83 -1.51073 1.0416 0
M  V30 5942 H 556.212 -3.95899 0.0895858 0
M  V30 5943 H 557.386 -3.56378 2.92115 0
M  V30 5944 H 555.701 -3.31836 2.51543 0
M  V30 5945 H 558.298 -5.31549 0.579674 0
M  V30 5946 H 558.641 -4.11349 -0.640115 0
M  V30 5947 H 559.174 -3.84057 1.03659 0
M  V30 5948 H 555.913 -5.5376 3.50757 0
M  V30 5949 H 555.433 -5.72005 1.80473 0
M  V30 5950 H 557.112 -6.04695 2.30115 0
M  V30 5951 N 557.244 -0.608902 -1.45362 0
M  V30 5952 C 558.191 0.109172 -2.30542 0
M  V30 5953 C 559.161 0.858704 -1.42181 0
M  V30 5954 O 560.346 0.844178 -1.71109 0
M  V30 5955 C 557.486 1.09971 -3.27109 0
M  V30 5956 C 556.599 0.350911 -4.30572 0
M  V30 5957 C 555.734 1.33129 -5.14247 0
M  V30 5958 C 554.773 0.570377 -6.09437 0
M  V30 5959 N 553.91 1.5001 -6.85887 0
M  V30 5960 H 558.75 -0.623195 -2.91411 0
M  V30 5961 H 556.287 -0.319122 -1.43597 0
M  V30 5962 H 558.245 1.68714 -3.81564 0
M  V30 5963 H 556.875 1.79947 -2.67991 0
M  V30 5964 H 555.927 -0.352054 -3.78767 0
M  V30 5965 H 557.239 -0.242725 -4.98209 0
M  V30 5966 H 556.393 1.99074 -5.73109 0
M  V30 5967 H 555.132 1.95885 -4.46632 0
M  V30 5968 H 554.137 -0.102702 -5.49704 0
M  V30 5969 H 555.362 -0.0521607 -6.7908 0
M  V30 5970 H 553.308 2.11529 -6.2096 0
M  V30 5971 H 553.225 0.959934 -7.49881 0
M  V30 5972 H 554.493 2.14909 -7.49289 0
M  V30 5973 N 558.722 1.53707 -0.348139 0
M  V30 5974 C 559.685 2.23812 0.494058 0
M  V30 5975 C 560.685 1.23989 1.02388 0
M  V30 5976 O 561.875 1.48395 0.912396 0
M  V30 5977 C 559.007 2.96133 1.68872 0
M  V30 5978 H 560.2 2.99663 -0.119141 0
M  V30 5979 H 557.753 1.55983 -0.0995539 0
M  V30 5980 H 558.488 2.24481 2.34049 0
M  V30 5981 H 558.273 3.69357 1.31596 0
M  V30 5982 H 559.763 3.49475 2.28597 0
M  V30 5983 N 560.2 0.0768682 1.57412 0
M  V30 5984 C 561.13 -0.886026 2.16037 0
M  V30 5985 C 562.111 -1.30691 1.08876 0
M  V30 5986 O 563.296 -1.37705 1.36934 0
M  V30 5987 C 560.426 -2.1518 2.72608 0
M  V30 5988 C 559.38 -1.87015 3.8498 0
M  V30 5989 C 558.706 -3.20266 4.28175 0
M  V30 5990 C 560.006 -1.17143 5.08994 0
M  V30 5991 H 561.7 -0.397642 2.96748 0
M  V30 5992 H 559.246 -0.189823 1.42743 0
M  V30 5993 H 561.199 -2.82962 3.12266 0
M  V30 5994 H 559.923 -2.66269 1.89125 0
M  V30 5995 H 558.582 -1.21636 3.45833 0
M  V30 5996 H 558.23 -3.69207 3.41607 0
M  V30 5997 H 557.93 -3.0221 5.03927 0
M  V30 5998 H 559.454 -3.89237 4.70454 0
M  V30 5999 H 560.868 -1.75003 5.45937 0
M  V30 6000 H 559.265 -1.09328 5.90057 0
M  V30 6001 H 560.335 -0.151295 4.84664 0
M  V30 6002 N 561.678 -1.56367 -0.196722 0
M  V30 6003 C 562.625 -1.94417 -1.24382 0
M  V30 6004 C 563.595 -0.804543 -1.45315 0
M  V30 6005 O 564.78 -1.06256 -1.58475 0
M  V30 6006 C 561.92 -2.28757 -2.58388 0
M  V30 6007 C 561.033 -3.55775 -2.45047 0
M  V30 6008 C 560.168 -3.79445 -3.71746 0
M  V30 6009 C 559.207 -4.99894 -3.53231 0
M  V30 6010 N 558.344 -5.19826 -4.71938 0
M  V30 6011 H 563.184 -2.83691 -0.912338 0
M  V30 6012 H 560.721 -1.40392 -0.439135 0
M  V30 6013 H 562.679 -2.46682 -3.36457 0
M  V30 6014 H 561.309 -1.42625 -2.89582 0
M  V30 6015 H 560.361 -3.45905 -1.58284 0
M  V30 6016 H 561.673 -4.44 -2.27299 0
M  V30 6017 H 560.827 -3.97601 -4.58256 0
M  V30 6018 H 559.566 -2.89546 -3.92446 0
M  V30 6019 H 558.571 -4.81662 -2.65107 0
M  V30 6020 H 559.796 -5.913 -3.33978 0
M  V30 6021 H 557.742 -4.32875 -4.92905 0
M  V30 6022 H 557.659 -6.02228 -4.57009 0
M  V30 6023 H 558.927 -5.42439 -5.59803 0
M  V30 6024 N 563.156 0.464375 -1.50603 0
M  V30 6025 C 564.103 1.56152 -1.69956 0
M  V30 6026 C 565.073 1.57046 -0.54091 0
M  V30 6027 O 566.258 1.74473 -0.772258 0
M  V30 6028 C 563.398 2.94079 -1.80586 0
M  V30 6029 C 562.511 3.02923 -3.07996 0
M  V30 6030 C 561.646 4.31806 -3.09382 0
M  V30 6031 C 560.685 4.34417 -4.31218 0
M  V30 6032 N 559.822 5.54782 -4.30304 0
M  V30 6033 H 564.662 1.38955 -2.6362 0
M  V30 6034 H 562.199 0.675482 -1.30674 0
M  V30 6035 H 564.157 3.74073 -1.8473 0
M  V30 6036 H 562.787 3.09896 -0.903556 0
M  V30 6037 H 561.839 2.1576 -3.13292 0
M  V30 6038 H 563.151 3.00712 -3.97962 0
M  V30 6039 H 562.305 5.20153 -3.12292 0
M  V30 6040 H 561.044 4.36636 -2.17257 0
M  V30 6041 H 560.049 3.44467 -4.28512 0
M  V30 6042 H 561.274 4.31273 -5.24576 0
M  V30 6043 H 559.22 5.60384 -3.41037 0
M  V30 6044 H 559.137 5.54339 -5.14047 0
M  V30 6045 H 560.405 6.45235 -4.3737 0
M  V30 6046 N 564.634 1.40294 0.718013 0
M  V30 6047 C 565.911 1.2894 1.47084 0
M  V30 6048 C 566.291 -0.0933625 2.10893 0
M  V30 6049 O 565.639 -1.10598 1.99951 0
M  V30 6050 C 565.849 2.4264 2.50852 0
M  V30 6051 C 567.197 2.8276 3.16752 0
M  V30 6052 O 568.221 2.42215 2.61171 0
M  V30 6053 O 567.08 3.528 4.17366 0
M  V30 6054 H 564.174 0.506236 0.653952 0
M  V30 6055 H 566.72 1.52208 0.750394 0
M  V30 6056 H 565.492 3.35009 2.022 0
M  V30 6057 H 565.115 2.21129 3.30435 0
M  V30 6058 N 566.112 -0.949982 1.2575 0
M  V30 6059 C 567.358 -1.69766 1.10938 0
M  V30 6060 C 567.691 -1.91056 -0.348028 0
M  V30 6061 O 566.966 -1.48488 -1.25625 0
M  V30 6062 C 567.249 -3.07779 1.86933 0
M  V30 6063 C 567.102 -2.9387 3.4053 0
M  V30 6064 C 568.421 -4.07749 1.65616 0
M  V30 6065 H 565.54 -0.616144 0.404396 0
M  V30 6066 H 568.182 -1.10394 1.54639 0
M  V30 6067 H 566.332 -3.58462 1.4979 0
M  V30 6068 H 568.004 -2.50476 3.87375 0
M  V30 6069 H 566.247 -2.29686 3.68004 0
M  V30 6070 H 566.918 -3.91719 3.88922 0
M  V30 6071 H 569.394 -3.65994 1.97959 0
M  V30 6072 H 568.27 -5.02348 2.21218 0
M  V30 6073 H 568.531 -4.38029 0.598595 0
M  V30 6074 N 567.59 -1.07411 -1.15328 0
M  V30 6075 C 568.836 -0.798831 -1.86404 0
M  V30 6076 C 569.169 0.673433 -1.8215 0
M  V30 6077 O 568.444 1.49428 -1.24505 0
M  V30 6078 C 568.727 -1.30846 -3.35487 0
M  V30 6079 C 568.58 -2.84532 -3.4837 0
M  V30 6080 C 569.899 -0.925486 -4.30259 0
M  V30 6081 H 567.018 -0.291659 -0.676834 0
M  V30 6082 H 569.66 -1.332 -1.35491 0
M  V30 6083 H 567.81 -0.854916 -3.78977 0
M  V30 6084 H 569.482 -3.3818 -3.13739 0
M  V30 6085 H 567.725 -3.22699 -2.8991 0
M  V30 6086 H 568.396 -3.15259 -4.53118 0
M  V30 6087 H 570.872 -1.3163 -3.94731 0
M  V30 6088 H 569.748 -1.3094 -5.33053 0
M  V30 6089 H 570.009 0.168525 -4.41779 0
M  V30 6090 N 569.068 1.32177 -0.85831 0
M  V30 6091 C 569.998 2.31282 -0.321041 0
M  V30 6092 C 570.979 1.59841 0.581786 0
M  V30 6093 O 572.164 1.87619 0.501262 0
M  V30 6094 C 569.294 3.4385 0.48832 0
M  V30 6095 C 568.248 4.26799 -0.320391 0
M  V30 6096 C 567.574 5.31164 0.613934 0
M  V30 6097 C 568.874 4.98829 -1.54813 0
M  V30 6098 H 570.568 2.76469 -1.14915 0
M  V30 6099 H 568.114 1.32916 -0.554028 0
M  V30 6100 H 570.067 4.12224 0.874626 0
M  V30 6101 H 568.791 2.97401 1.34983 0
M  V30 6102 H 567.45 3.60077 -0.688497 0
M  V30 6103 H 567.098 4.80967 1.47239 0
M  V30 6104 H 566.798 5.8755 0.0768097 0
M  V30 6105 H 568.322 6.024 0.997336 0
M  V30 6106 H 569.736 5.59864 -1.23392 0
M  V30 6107 H 568.133 5.64957 -2.02346 0
M  V30 6108 H 569.203 4.26483 -2.30739 0
M  V30 6109 N 570.547 0.616602 1.45037 0
M  V30 6110 C 571.796 0.112861 2.01384 0
M  V30 6111 C 572.109 -1.26758 1.48969 0
M  V30 6112 O 573.315 -1.86454 1.9735 0
M  V30 6113 C 571.771 0.151057 3.59583 0
M  V30 6114 C 571.379 1.53191 4.20995 0
M  V30 6115 C 573.123 -0.296974 4.2346 0
M  V30 6116 C 571.03 1.526 5.71373 0
M  V30 6117 H 569.96 0.0384254 0.75302 0
M  V30 6118 H 572.611 0.773262 1.66412 0
M  V30 6119 H 570.993 -0.57617 3.91786 0
M  V30 6120 H 572.167 2.28156 4.00352 0
M  V30 6121 H 570.482 1.92279 3.69348 0
M  V30 6122 H 573.079 -0.320712 5.33737 0
M  V30 6123 H 573.422 -1.32145 3.9477 0
M  V30 6124 H 573.955 0.377279 3.96007 0
M  V30 6125 H 570.694 2.52837 6.04776 0
M  V30 6126 H 570.214 0.819064 5.94181 0
M  V30 6127 H 571.893 1.25357 6.3474 0
M  V30 6128 N 572.025 -1.5352 0.356285 0
M  V30 6129 C 573.302 -1.93405 -0.292223 0
M  V30 6130 C 573.682 -1.28901 -1.67176 0
M  V30 6131 O 573.03 -0.444632 -2.24132 0
M  V30 6132 C 573.24 -3.47223 -0.35175 0
M  V30 6133 C 574.588 -4.20389 -0.596534 0
M  V30 6134 O 575.612 -3.53554 -0.433344 0
M  V30 6135 O 574.471 -5.3881 -0.913589 0
M  V30 6136 H 571.565 -0.808666 -0.173172 0
M  V30 6137 H 574.111 -1.64713 0.408391 0
M  V30 6138 H 572.883 -3.86423 0.615841 0
M  V30 6139 H 572.506 -3.8212 -1.09864 0
M  V30 6140 N 573.503 -0.0852151 -1.57369 0
M  V30 6141 C 574.78 0.622534 -1.85429 0
M  V30 6142 C 575.16 1.86962 -0.980229 0
M  V30 6143 O 574.508 2.28445 -0.0500219 0
M  V30 6144 C 574.718 0.947374 -3.35896 0
M  V30 6145 C 576.066 1.31509 -4.03721 0
M  V30 6146 O 577.09 1.03869 -3.40719 0
M  V30 6147 O 575.949 1.83231 -5.14868 0
M  V30 6148 H 573.043 0.310513 -0.766492 0
M  V30 6149 H 575.589 -0.117164 -1.69295 0
M  V30 6150 H 574.361 0.0622264 -3.91251 0
M  V30 6151 H 573.984 1.74338 -3.5734 0
M  V30 6152 N 574.981 1.5647 0.188427 0
M  V30 6153 C 576.258 1.71857 0.934058 0
M  V30 6154 C 576.638 0.641867 2.01105 0
M  V30 6155 O 575.986 -0.346098 2.25864 0
M  V30 6156 C 576.196 3.14431 1.5144 0
M  V30 6157 C 577.544 3.74869 1.99396 0
M  V30 6158 O 578.568 3.17601 1.61269 0
M  V30 6159 O 577.427 4.75387 2.69573 0
M  V30 6160 H 574.521 0.701186 0.438483 0
M  V30 6161 H 577.067 1.68768 0.177599 0
M  V30 6162 H 575.839 3.8427 0.738416 0
M  V30 6163 H 575.462 3.21775 2.33552 0
M  V30 6164 N 576.459 -0.456382 1.50847 0
M  V30 6165 C 577.705 -1.20914 1.62811 0
M  V30 6166 C 578.038 -1.91301 0.334304 0
M  V30 6167 O 577.313 -1.82775 -0.665098 0
M  V30 6168 C 577.596 -2.24122 2.81853 0
M  V30 6169 C 577.449 -1.57944 4.21158 0
M  V30 6170 C 578.768 -3.25295 2.96431 0
M  V30 6171 H 575.887 -0.438233 0.592554 0
M  V30 6172 H 578.529 -0.50091 1.83278 0
M  V30 6173 H 576.679 -2.84524 2.64534 0
M  V30 6174 H 578.351 -1.01025 4.50102 0
M  V30 6175 H 576.594 -0.882185 4.24735 0
M  V30 6176 H 577.265 -2.33014 5.00408 0
M  V30 6177 H 579.741 -2.7493 3.12335 0
M  V30 6178 H 578.617 -3.94822 3.81322 0
M  V30 6179 H 578.878 -3.90286 2.07676 0
M  V30 6180 N 577.937 -1.40673 -0.710563 0
M  V30 6181 C 578.847 -1.43663 -1.85467 0
M  V30 6182 C 579.863 -0.328721 -1.70867 0
M  V30 6183 O 581.039 -0.574098 -1.93044 0
M  V30 6184 C 578.104 -1.30226 -3.21313 0
M  V30 6185 C 577.165 -2.51204 -3.48131 0
M  V30 6186 C 576.398 -2.38398 -4.77495 0
M  V30 6187 O 576.621 -1.40048 -5.5294 0
M  V30 6188 O 575.555 -3.2787 -5.04762 0
M  V30 6189 H 579.381 -2.40156 -1.859 0
M  V30 6190 H 576.966 -1.22049 -0.861652 0
M  V30 6191 H 578.848 -1.2496 -4.02446 0
M  V30 6192 H 577.523 -0.368419 -3.21597 0
M  V30 6193 H 576.43 -2.62048 -2.66987 0
M  V30 6194 H 577.763 -3.43366 -3.52648 0
M  V30 6195 N 579.415 0.9433 -1.26252 0
M  V30 6196 C 580.655 1.70397 -1.1289 0
M  V30 6197 C 581.019 1.89268 0.322713 0
M  V30 6198 O 582.22 2.62503 0.578418 0
M  V30 6199 C 580.491 3.04296 -1.87453 0
M  V30 6200 S 582.05 3.95475 -1.90119 0
M  V30 6201 H 578.868 0.585559 -0.403289 0
M  V30 6202 H 581.47 1.12424 -1.59941 0
M  V30 6203 H 580.174 2.8824 -2.9214 0
M  V30 6204 H 579.705 3.67327 -1.40835 0
M  V30 6205 H 581.72 4.86297 -0.986373 0
M  V30 6206 N 580.893 1.08022 1.14757 0
M  V30 6207 C 582.121 0.828847 1.89572 0
M  V30 6208 C 582.536 -0.618621 1.78377 0
M  V30 6209 O 581.893 -1.42482 1.1404 0
M  V30 6210 C 581.944 1.23677 3.39685 0
M  V30 6211 O 581.665 2.62746 3.50566 0
M  V30 6212 C 583.166 1.01569 4.31507 0
M  V30 6213 H 580.386 0.299196 0.600602 0
M  V30 6214 H 582.93 1.43846 1.45357 0
M  V30 6215 H 581.085 0.671347 3.81539 0
M  V30 6216 H 581.499 2.79573 4.43778 0
M  V30 6217 H 582.973 1.35055 5.35223 0
M  V30 6218 H 583.45 -0.0475433 4.39174 0
M  V30 6219 H 584.056 1.56636 3.95405 0
M  V30 6220 N 582.371 -1.3172 0.865308 0
M  V30 6221 C 583.304 -2.26687 0.262376 0
M  V30 6222 C 584.282 -1.50894 -0.605787 0
M  V30 6223 O 585.466 -1.79982 -0.56024 0
M  V30 6224 C 582.593 -3.3281 -0.628915 0
M  V30 6225 C 581.639 -4.26172 0.167278 0
M  V30 6226 S 582.472 -5.12797 1.54272 0
M  V30 6227 C 583.628 -6.22438 0.657427 0
M  V30 6228 H 583.861 -2.77478 1.0674 0
M  V30 6229 H 581.394 -1.39414 0.663555 0
M  V30 6230 H 583.352 -3.94426 -1.13747 0
M  V30 6231 H 582.013 -2.80782 -1.40785 0
M  V30 6232 H 581.206 -5.01392 -0.51203 0
M  V30 6233 H 580.808 -3.69029 0.607777 0
M  V30 6234 H 583.1 -6.77368 -0.133925 0
M  V30 6235 H 584.043 -6.9451 1.38061 0
M  V30 6236 H 584.451 -5.64043 0.227044 0
M  V30 6237 N 583.85 -0.624285 -1.44708 0
M  V30 6238 C 585.096 -0.126237 -2.02407 0
M  V30 6239 C 585.428 1.24618 -1.48943 0
M  V30 6240 O 584.704 1.82569 -0.670742 0
M  V30 6241 C 584.986 -0.105449 -3.59946 0
M  V30 6242 C 584.84 -1.50972 -4.23707 0
M  V30 6243 C 586.159 0.573629 -4.36346 0
M  V30 6244 H 583.278 -0.0473472 -0.735478 0
M  V30 6245 H 585.92 -0.799452 -1.72362 0
M  V30 6246 H 584.07 0.46783 -3.85673 0
M  V30 6247 H 585.742 -2.13136 -4.0911 0
M  V30 6248 H 583.985 -2.0656 -3.81465 0
M  V30 6249 H 584.656 -1.44727 -5.32689 0
M  V30 6250 H 587.132 0.0861787 -4.16011 0
M  V30 6251 H 586.008 0.557338 -5.46063 0
M  V30 6252 H 586.269 1.64276 -4.10446 0
M  V30 6253 N 585.328 1.53329 -0.364422 0
M  V30 6254 C 586.238 2.29414 0.490552 0
M  V30 6255 C 587.254 1.35335 1.09363 0
M  V30 6256 O 588.43 1.68391 1.10483 0
M  V30 6257 C 585.495 3.06772 1.61529 0
M  V30 6258 C 584.556 4.16516 1.03986 0
M  V30 6259 C 583.789 4.90176 2.111 0
M  V30 6260 O 584.012 4.63687 3.32191 0
M  V30 6261 O 582.946 5.76134 1.74222 0
M  V30 6262 H 586.772 3.03428 -0.12856 0
M  V30 6263 H 584.357 1.48843 -0.128837 0
M  V30 6264 H 586.239 3.55082 2.26924 0
M  V30 6265 H 584.914 2.35596 2.21983 0
M  V30 6266 H 583.821 3.7246 0.349856 0
M  V30 6267 H 585.154 4.89855 0.4799 0
M  V30 6268 N 586.806 0.0935595 1.57322 0
M  V30 6269 C 587.753 -0.865935 2.1394 0
M  V30 6270 C 588.723 -1.28083 1.05754 0
M  V30 6271 O 589.908 -1.36285 1.33533 0
M  V30 6272 C 587.048 -2.12023 2.72287 0
M  V30 6273 C 586.161 -1.756 3.94701 0
M  V30 6274 C 585.296 -2.95804 4.41218 0
M  V30 6275 C 584.335 -2.555 5.56225 0
M  V30 6276 N 583.472 -3.68534 5.97601 0
M  V30 6277 H 588.312 -0.376261 2.95615 0
M  V30 6278 H 585.849 -0.174052 1.46067 0
M  V30 6279 H 587.807 -2.85477 3.04235 0
M  V30 6280 H 586.437 -2.58492 1.93343 0
M  V30 6281 H 585.489 -0.921208 3.69077 0
M  V30 6282 H 586.801 -1.41964 4.78171 0
M  V30 6283 H 585.955 -3.77513 4.74941 0
M  V30 6284 H 584.694 -3.32649 3.56645 0
M  V30 6285 H 583.699 -1.72218 5.22131 0
M  V30 6286 H 584.924 -2.19801 6.42545 0
M  V30 6287 H 582.87 -4.051 5.15974 0
M  V30 6288 H 582.787 -3.38737 6.75865 0
M  V30 6289 H 584.055 -4.50757 6.35955 0
M  V30 6290 N 588.284 -1.56567 -0.180126 0
M  V30 6291 C 589.7 -1.50488 -0.531559 0
M  V30 6292 C 589.9 -0.796267 -1.851 0
M  V30 6293 O 588.956 -0.352978 -2.50021 0
M  V30 6294 C 590.269 -2.95201 -0.572456 0
M  V30 6295 C 591.817 -3.05957 -0.660264 0
M  V30 6296 C 592.292 -4.5211 -0.732135 0
M  V30 6297 N 593.783 -4.56322 -0.795262 0
M  V30 6298 C 594.518 -5.66742 -0.871296 0
M  V30 6299 N 594.014 -6.86815 -0.908708 0
M  V30 6300 N 595.807 -5.54691 -0.909639 0
M  V30 6301 H 587.958 -2.01045 0.685165 0
M  V30 6302 H 590.221 -0.915536 0.245962 0
M  V30 6303 H 589.927 -3.50165 0.328208 0
M  V30 6304 H 589.801 -3.49369 -1.422 0
M  V30 6305 H 592.188 -2.51032 -1.55136 0
M  V30 6306 H 592.269 -2.54888 0.215783 0
M  V30 6307 H 591.913 -5.07664 0.154664 0
M  V30 6308 H 591.843 -5.00926 -1.6242 0
M  V30 6309 H 594.334 -3.69868 -0.77499 0
M  V30 6310 H 594.647 -7.66718 -0.967654 0
M  V30 6311 H 592.992 -6.89443 -0.877132 0
M  V30 6312 H 596.183 -4.59804 -0.877353 0
M  V30 6313 H 596.356 -6.40768 -0.965434 0
M  V30 6314 N 589.762 0.448376 -1.51087 0
M  V30 6315 C 591.008 1.20049 -1.6345 0
M  V30 6316 C 591.341 1.91121 -0.344444 0
M  V30 6317 O 590.616 1.83125 0.655396 0
M  V30 6318 C 590.899 2.22624 -2.83038 0
M  V30 6319 C 590.752 1.55708 -4.21989 0
M  V30 6320 C 592.071 3.23718 -2.98152 0
M  V30 6321 H 589.19 0.435085 -0.59487 0
M  V30 6322 H 591.832 0.491183 -1.83541 0
M  V30 6323 H 589.982 2.83117 -2.66039 0
M  V30 6324 H 591.654 0.986367 -4.50631 0
M  V30 6325 H 589.897 0.859647 -4.25197 0
M  V30 6326 H 590.568 2.30357 -5.01637 0
M  V30 6327 H 593.044 2.73269 -3.13788 0
M  V30 6328 H 591.92 3.92795 -3.83411 0
M  V30 6329 H 592.181 3.89179 -2.09743 0
M  V30 6330 N 591.24 1.41047 0.703093 0
M  V30 6331 C 592.17 1.45067 1.82969 0
M  V30 6332 C 593.151 0.31016 1.67248 0
M  V30 6333 O 594.336 0.520548 1.87093 0
M  V30 6334 C 591.466 1.32478 3.2104 0
M  V30 6335 C 590.42 2.44262 3.51454 0
M  V30 6336 C 589.746 2.16742 4.88801 0
M  V30 6337 C 591.046 3.86606 3.51189 0
M  V30 6338 H 592.74 2.39353 1.79863 0
M  V30 6339 H 590.286 1.15206 0.863919 0
M  V30 6340 H 592.239 1.33904 3.99559 0
M  V30 6341 H 590.963 0.346735 3.24754 0
M  V30 6342 H 589.622 2.42107 2.75282 0
M  V30 6343 H 589.27 1.17299 4.89132 0
M  V30 6344 H 588.97 2.91643 5.10116 0
M  V30 6345 H 590.494 2.19872 5.69639 0
M  V30 6346 H 591.908 3.90517 4.19725 0
M  V30 6347 H 590.305 4.61128 3.84033 0
M  V30 6348 H 591.375 4.15296 2.50315 0
M  V30 6349 N 592.718 -0.936591 1.26751 0
M  V30 6350 C 593.946 -1.71758 1.15355 0
M  V30 6351 C 594.361 -1.86549 -0.290683 0
M  V30 6352 O 593.718 -1.37616 -1.19868 0
M  V30 6353 C 593.769 -3.12193 1.82258 0
M  V30 6354 O 593.49 -2.98105 3.21038 0
M  V30 6355 C 594.991 -4.06485 1.76875 0
M  V30 6356 H 592.211 -0.537636 0.401483 0
M  V30 6357 H 594.755 -1.17382 1.67457 0
M  V30 6358 H 592.91 -3.63456 1.34083 0
M  V30 6359 H 593.324 -3.86824 3.54214 0
M  V30 6360 H 594.798 -5.02569 2.28316 0
M  V30 6361 H 595.275 -4.32986 0.736216 0
M  V30 6362 H 595.881 -3.61144 2.24623 0
M  V30 6363 N 594.196 -1.08629 -1.14182 0
M  V30 6364 C 595.126 -0.740003 -2.21464 0
M  V30 6365 C 596.107 0.278591 -1.67803 0
M  V30 6366 O 597.292 0.148461 -1.93632 0
M  V30 6367 C 594.422 -0.150952 -3.46972 0
M  V30 6368 C 593.376 -1.09815 -4.13672 0
M  V30 6369 C 592.702 -0.3712 -5.3341 0
M  V30 6370 C 594.002 -2.43722 -4.61949 0
M  V30 6371 H 595.696 -1.63697 -2.50686 0
M  V30 6372 H 593.242 -0.788526 -1.20492 0
M  V30 6373 H 595.195 0.103325 -4.21273 0
M  V30 6374 H 593.919 0.781164 -3.1712 0
M  V30 6375 H 592.578 -1.33756 -3.41328 0
M  V30 6376 H 592.226 0.564792 -4.99819 0
M  V30 6377 H 591.926 -1.00267 -5.78982 0
M  V30 6378 H 593.45 -0.12503 -6.10472 0
M  V30 6379 H 594.864 -2.24034 -5.27714 0
M  V30 6380 H 593.261 -3.02582 -5.18232 0
M  V30 6381 H 594.331 -3.05082 -3.76899 0
M  V30 6382 N 595.674 1.31259 -0.872281 0
M  V30 6383 C 596.637 2.26744 -0.334656 0
M  V30 6384 C 597.637 1.52307 0.515681 0
M  V30 6385 O 598.827 1.71148 0.324656 0
M  V30 6386 C 595.959 3.36841 0.524482 0
M  V30 6387 H 597.152 2.75812 -1.17762 0
M  V30 6388 H 594.705 1.42232 -0.648064 0
M  V30 6389 H 595.44 2.93069 1.38855 0
M  V30 6390 H 595.225 3.92009 -0.0844299 0
M  V30 6391 H 596.715 4.07944 0.892838 0
M  V30 6392 N 597.152 0.631951 1.44375 0
M  V30 6393 C 598.115 -0.0628142 2.29114 0
M  V30 6394 C 599.115 -0.771494 1.41084 0
M  V30 6395 O 600.305 -0.615959 1.62947 0
M  V30 6396 C 597.437 -1.09953 3.22681 0
M  V30 6397 H 598.63 0.682509 2.92031 0
M  V30 6398 H 596.183 0.392128 1.51301 0
M  V30 6399 H 596.918 -1.87481 2.64616 0
M  V30 6400 H 596.703 -0.595286 3.87555 0
M  V30 6401 H 598.193 -1.58538 3.86336 0
M  V30 6402 N 598.631 -1.53133 0.372548 0
M  V30 6403 C 599.541 -2.29671 -0.478379 0
M  V30 6404 C 600.557 -1.35913 -1.08644 0
M  V30 6405 O 601.733 -1.68975 -1.09588 0
M  V30 6406 C 598.798 -3.07625 -1.599 0
M  V30 6407 C 597.859 -4.17061 -1.01776 0
M  V30 6408 C 597.092 -4.91289 -2.08497 0
M  V30 6409 O 597.315 -4.65442 -3.29727 0
M  V30 6410 O 596.249 -5.7705 -1.71164 0
M  V30 6411 H 600.075 -3.03355 0.144649 0
M  V30 6412 H 597.66 -1.48773 0.136729 0
M  V30 6413 H 599.542 -3.56281 -2.25038 0
M  V30 6414 H 598.217 -2.3677 -2.2073 0
M  V30 6415 H 597.124 -3.72641 -0.330098 0
M  V30 6416 H 598.457 -4.90102 -0.453915 0
M  V30 6417 N 600.109 -0.101901 -1.5727 0
M  V30 6418 C 601.057 0.872034 -2.15635 0
M  V30 6419 C 602.051 1.28742 -1.10099 0
M  V30 6420 O 603.257 1.26116 -1.28432 0
M  V30 6421 H 599.632 0.299269 -0.689886 0
M  V30 6422 H 601.603 0.355137 -2.96279 0
M  V30 6423 C 600.352 2.11886 -2.7568 0
M  V30 6424 H 599.675 1.80813 -3.56576 0
M  V30 6425 H 601.115 2.78077 -3.20077 0
M  V30 6426 C 599.574 2.89739 -1.7191 0
M  V30 6427 O 600.104 3.84522 -1.16213 0
M  V30 6428 N 598.31 2.53407 -1.42245 0
M  V30 6429 H 597.857 1.76398 -1.87727 0
M  V30 6430 H 597.815 3.05795 -0.730529 0
M  V30 6431 N 601.587 1.56661 0.17182 0
M  V30 6432 C 602.998 1.71652 0.734329 0
M  V30 6433 C 603.349 0.712335 1.82812 0
M  V30 6434 O 602.474 -0.126401 2.16031 0
M  V30 6435 C 603.069 3.11226 1.3388 0
M  V30 6436 C 601.628 3.27904 1.84813 0
M  V30 6437 C 600.775 2.67603 0.726917 0
M  V30 6438 H 603.726 1.5861 -0.0535665 0
M  V30 6439 H 603.747 3.09849 2.20849 0
M  V30 6440 H 603.259 3.8429 0.54249 0
M  V30 6441 H 601.36 2.59796 2.6709 0
M  V30 6442 H 601.473 4.35637 1.99392 0
M  V30 6443 H 599.837 2.274 1.14723 0
M  V30 6444 H 600.62 3.43252 -0.0575334 0
M  V30 6445 N 603.065 -0.440357 1.51323 0
M  V30 6446 C 604.312 -1.19004 1.63842 0
M  V30 6447 C 604.64 -1.91266 0.35321 0
M  V30 6448 O 603.895 -1.84143 -0.662565 0
M  V30 6449 C 604.194 -2.2339 2.78984 0
M  V30 6450 C 603.86 -1.68162 4.18369 0
M  V30 6451 C 602.522 -1.52823 4.56288 0
M  V30 6452 C 604.874 -1.27524 5.05358 0
M  V30 6453 C 602.202 -0.953157 5.78906 0
M  V30 6454 C 604.554 -0.714474 6.28552 0
M  V30 6455 C 603.218 -0.547961 6.65247 0
M  V30 6456 H 602.488 -0.435468 0.59954 0
M  V30 6457 H 605.135 -0.481538 1.85347 0
M  V30 6458 H 603.44 -3.00267 2.51688 0
M  V30 6459 H 605.137 -2.81211 2.85869 0
M  V30 6460 H 601.727 -1.81077 3.8847 0
M  V30 6461 H 605.911 -1.38197 4.76671 0
M  V30 6462 H 601.167 -0.811882 6.05986 0
M  V30 6463 H 605.341 -0.391059 6.95301 0
M  V30 6464 H 602.968 -0.100222 7.60134 0
M  V30 6465 N 604.543 -1.41418 -0.695603 0
M  V30 6466 C 605.473 -1.46035 -1.82197 0
M  V30 6467 C 606.454 -0.319025 -1.67082 0
M  V30 6468 O 607.639 -0.530462 -1.86815 0
M  V30 6469 C 604.769 -1.34179 -3.20333 0
M  V30 6470 C 603.723 -2.46123 -3.50154 0
M  V30 6471 C 603.049 -2.19332 -4.87645 0
M  V30 6472 C 604.349 -3.88463 -3.49133 0
M  V30 6473 H 606.043 -2.40303 -1.78591 0
M  V30 6474 H 603.589 -1.15663 -0.857797 0
M  V30 6475 H 605.542 -1.36021 -3.98844 0
M  V30 6476 H 604.266 -0.363952 -3.24566 0
M  V30 6477 H 602.925 -2.43563 -2.73994 0
M  V30 6478 H 602.573 -1.19891 -4.88503 0
M  V30 6479 H 602.273 -2.94344 -5.08562 0
M  V30 6480 H 603.797 -2.22889 -5.68465 0
M  V30 6481 H 605.211 -3.92738 -4.17648 0
M  V30 6482 H 603.608 -4.63158 -3.81582 0
M  V30 6483 H 604.678 -4.16617 -2.48109 0
M  V30 6484 N 606.021 0.929856 -1.27246 0
M  V30 6485 C 607.249 1.71144 -1.16265 0
M  V30 6486 C 607.664 1.867 0.280786 0
M  V30 6487 O 607.021 1.38249 1.19136 0
M  V30 6488 C 607.072 3.11222 -1.83911 0
M  V30 6489 O 606.793 2.96398 -3.22614 0
M  V30 6490 C 608.294 4.05541 -1.79028 0
M  V30 6491 H 605.514 0.535499 -0.404328 0
M  V30 6492 H 608.058 1.16492 -1.68077 0
M  V30 6493 H 606.213 3.6274 -1.36009 0
M  V30 6494 H 606.627 3.8494 -3.56261 0
M  V30 6495 H 608.101 5.01351 -2.30978 0
M  V30 6496 H 608.578 4.32589 -0.759168 0
M  V30 6497 H 609.184 3.59947 -2.26535 0
M  V30 6498 N 607.499 1.09233 1.13605 0
M  V30 6499 C 608.449 0.6994 2.17008 0
M  V30 6500 C 609.433 -0.285238 1.58352 0
M  V30 6501 O 610.625 -0.09592 1.7674 0
M  V30 6502 C 607.754 0.11938 3.43092 0
M  V30 6503 C 606.84 1.13031 4.0876 0
M  V30 6504 N 607.231 2.31673 4.49623 0
M  V30 6505 C 605.529 0.967999 4.35369 0
M  V30 6506 C 606.23 2.95964 5.00779 0
M  V30 6507 N 605.206 2.23534 4.95513 0
M  V30 6508 H 609.008 1.60272 2.46354 0
M  V30 6509 H 606.522 0.968257 1.30378 0
M  V30 6510 H 608.519 -0.180122 4.16511 0
M  V30 6511 H 607.179 -0.778816 3.15221 0
M  V30 6512 H 608.19 2.69277 4.42391 0
M  V30 6513 H 604.867 0.124319 4.17315 0
M  V30 6514 H 606.257 3.96813 5.42208 0
M  V30 6515 N 608.977 -1.30795 0.87923 0
M  V30 6516 C 609.907 -2.30742 0.357796 0
M  V30 6517 C 610.888 -1.60747 -0.556283 0
M  V30 6518 O 612.073 -1.88393 -0.47135 0
M  V30 6519 C 609.203 -3.44583 -0.433555 0
M  V30 6520 C 608.157 -4.26235 0.388251 0
M  V30 6521 C 607.483 -5.32073 -0.529352 0
M  V30 6522 C 608.783 -4.96303 1.62729 0
M  V30 6523 H 610.477 -2.74605 1.19299 0
M  V30 6524 H 608.023 -1.32017 0.575104 0
M  V30 6525 H 609.976 -4.13563 -0.808934 0
M  V30 6526 H 608.7 -2.99511 -1.30234 0
M  V30 6527 H 607.359 -3.58936 0.745695 0
M  V30 6528 H 607.007 -4.83249 -1.39569 0
M  V30 6529 H 606.707 -5.87598 0.0166741 0
M  V30 6530 H 608.231 -6.0391 -0.901373 0
M  V30 6531 H 609.645 -5.5783 1.32283 0
M  V30 6532 H 608.042 -5.61666 2.11309 0
M  V30 6533 H 609.112 -4.22758 2.37494 0
M  V30 6534 N 610.455 -0.639598 -1.44038 0
M  V30 6535 C 611.704 -0.144885 -2.01179 0
M  V30 6536 C 612.017 1.24372 -1.50967 0
M  V30 6537 O 613.223 1.83291 -2.00292 0
M  V30 6538 C 611.679 -0.208244 -3.59297 0
M  V30 6539 C 611.287 -1.59869 -4.18504 0
M  V30 6540 C 613.031 0.229568 -4.23879 0
M  V30 6541 C 610.938 -1.61671 -5.68873 0
M  V30 6542 H 609.868 -0.0504005 -0.752314 0
M  V30 6543 H 612.519 -0.799639 -1.65161 0
M  V30 6544 H 610.901 0.513767 -3.92653 0
M  V30 6545 H 612.075 -2.34496 -3.96671 0
M  V30 6546 H 610.39 -1.98131 -3.66242 0
M  V30 6547 H 612.987 0.235758 -5.3418 0
M  V30 6548 H 613.33 1.25848 -3.96822 0
M  V30 6549 H 613.863 -0.440233 -3.95357 0
M  V30 6550 H 610.602 -2.62427 -6.00677 0
M  V30 6551 H 610.122 -0.913489 -5.92803 0
M  V30 6552 H 611.801 -1.35439 -6.32665 0
M  V30 6553 N 611.933 1.52934 -0.380664 0
M  V30 6554 C 613.173 2.03378 0.204161 0
M  V30 6555 C 613.537 1.26132 1.44758 0
M  V30 6556 O 614.738 1.66657 2.109 0
M  V30 6557 C 613.009 3.54241 0.474118 0
M  V30 6558 S 614.568 4.26529 1.03046 0
M  V30 6559 H 611.386 0.708608 0.0582719 0
M  V30 6560 H 613.988 1.88263 -0.527017 0
M  V30 6561 H 612.692 4.08055 -0.438088 0
M  V30 6562 H 612.223 3.73547 1.23396 0
M  V30 6563 H 614.238 4.38964 2.31354 0
M  V30 6564 N 613.412 0.11024 1.57214 0
M  V30 6565 C 614.64 -0.557834 1.99238 0
M  V30 6566 C 615.055 -1.60778 0.989734 0
M  V30 6567 O 614.412 -1.82491 -0.0186092 0
M  V30 6568 C 614.463 -1.19189 3.41286 0
M  V30 6569 O 614.184 -0.183919 4.37714 0
M  V30 6570 C 615.685 -1.94413 3.98395 0
M  V30 6571 H 612.905 -0.148392 0.654386 0
M  V30 6572 H 615.449 0.193996 2.03578 0
M  V30 6573 H 613.604 -1.89456 3.37913 0
M  V30 6574 H 614.018 -0.643475 5.20538 0
M  V30 6575 H 615.492 -2.34116 4.99894 0
M  V30 6576 H 615.969 -2.81592 3.3705 0
M  V30 6577 H 616.575 -1.28928 4.05287 0
M  V30 6578 N 614.89 -1.56749 -0.16351 0
M  V30 6579 C 616.137 -1.82434 -0.878866 0
M  V30 6580 C 616.465 -0.688557 -1.81904 0
M  V30 6581 O 615.72 0.323644 -1.93005 0
M  V30 6582 C 616.019 -3.14342 -1.70071 0
M  V30 6583 C 615.685 -4.41647 -0.908775 0
M  V30 6584 C 614.347 -4.76224 -0.690236 0
M  V30 6585 C 616.699 -5.19998 -0.353815 0
M  V30 6586 C 614.027 -5.86624 0.0942374 0
M  V30 6587 C 616.379 -6.3122 0.41761 0
M  V30 6588 C 615.043 -6.64358 0.646879 0
M  V30 6589 H 614.313 -0.667574 -0.3216 0
M  V30 6590 H 616.96 -1.90963 -0.14337 0
M  V30 6591 H 615.265 -3.0119 -2.50583 0
M  V30 6592 H 616.962 -3.31426 -2.25738 0
M  V30 6593 H 613.552 -4.1453 -1.08916 0
M  V30 6594 H 617.736 -4.93673 -0.509975 0
M  V30 6595 H 612.992 -6.10751 0.281529 0
M  V30 6596 H 617.166 -6.91133 0.854849 0
M  V30 6597 H 614.793 -7.49742 1.25662 0
M  V30 6598 N 616.368 0.432326 -1.51554 0
M  V30 6599 C 617.3 1.54357 -1.6943 0
M  V30 6600 C 618.313 1.52311 -0.574897 0
M  V30 6601 O 619.502 1.56997 -0.849369 0
M  V30 6602 C 616.602 2.93273 -1.69836 0
M  V30 6603 C 615.775 3.19768 -2.98442 0
M  V30 6604 C 614.834 4.38433 -2.90969 0
M  V30 6605 O 613.86 4.36842 -3.64908 0
M  V30 6606 N 615.062 5.42276 -2.07163 0
M  V30 6607 H 617.827 1.39426 -2.65293 0
M  V30 6608 H 615.388 0.621331 -1.49503 0
M  V30 6609 H 617.38 3.70687 -1.62399 0
M  V30 6610 H 615.95 3.01777 -0.815456 0
M  V30 6611 H 615.17 2.30607 -3.19709 0
M  V30 6612 H 616.458 3.343 -3.83563 0
M  V30 6613 H 615.856 5.46407 -1.46477 0
M  V30 6614 H 614.413 6.18524 -2.05601 0
M  V30 6615 N 617.846 1.41785 0.688094 0
M  V30 6616 C 619.074 1.44915 1.47673 0
M  V30 6617 C 619.489 0.0565786 1.88715 0
M  V30 6618 O 618.846 -0.92579 1.57275 0
M  V30 6619 C 618.897 2.36452 2.73446 0
M  V30 6620 O 618.618 3.7029 2.34131 0
M  V30 6621 C 620.119 2.48463 3.67125 0
M  V30 6622 H 617.339 0.493324 0.454832 0
M  V30 6623 H 619.883 1.86153 0.846594 0
M  V30 6624 H 618.038 1.98502 3.3268 0
M  V30 6625 H 618.452 4.19183 3.15255 0
M  V30 6626 H 619.926 3.16662 4.52138 0
M  V30 6627 H 620.403 1.51826 4.12123 0
M  V30 6628 H 621.009 2.8708 3.13792 0
M  V30 6629 N 619.324 -0.923095 1.27737 0
M  V30 6630 C 620.271 -2.02432 1.1086 0
M  V30 6631 C 621.241 -1.66098 0.00835195 0
M  V30 6632 O 622.426 -1.90027 0.171542 0
M  V30 6633 C 619.566 -3.36476 0.766671 0
M  V30 6634 C 618.679 -3.85737 1.94501 0
M  V30 6635 C 617.814 -5.08249 1.54455 0
M  V30 6636 C 616.853 -5.49818 2.6901 0
M  V30 6637 N 615.99 -6.63524 2.29521 0
M  V30 6638 H 620.83 -2.16201 2.05089 0
M  V30 6639 H 618.367 -1.05909 1.02087 0
M  V30 6640 H 620.325 -4.13569 0.549223 0
M  V30 6641 H 618.955 -3.22502 -0.13867 0
M  V30 6642 H 618.007 -3.04883 2.27487 0
M  V30 6643 H 619.319 -4.12513 2.80419 0
M  V30 6644 H 618.473 -5.92857 1.28862 0
M  V30 6645 H 617.212 -4.83261 0.656534 0
M  V30 6646 H 616.217 -4.63757 2.95313 0
M  V30 6647 H 617.442 -5.76799 3.5844 0
M  V30 6648 H 615.388 -6.40185 1.43177 0
M  V30 6649 H 615.305 -6.89978 3.08977 0
M  V30 6650 H 616.573 -7.51461 2.07187 0
M  V30 6651 N 620.802 -1.09834 -1.13024 0
M  V30 6652 C 622.079 -0.749225 -1.80682 0
M  V30 6653 C 622.459 0.765171 -1.96744 0
M  V30 6654 O 621.807 1.68912 -1.53886 0
M  V30 6655 C 622.017 -1.49311 -3.15448 0
M  V30 6656 C 623.365 -1.66162 -3.90737 0
M  V30 6657 O 624.389 -1.45597 -3.25085 0
M  V30 6658 O 623.248 -2.00211 -5.08505 0
M  V30 6659 H 620.342 -0.269614 -0.781817 0
M  V30 6660 H 622.888 -1.20078 -1.19914 0
M  V30 6661 H 621.66 -2.52407 -2.99009 0
M  V30 6662 H 621.283 -1.034 -3.8392 0
M  V30 6663 N 622.28 1.30327 -0.886154 0
M  V30 6664 C 623.23 2.25668 -0.325248 0
M  V30 6665 C 624.214 1.51318 0.546972 0
M  V30 6666 O 625.406 1.72623 0.391203 0
M  V30 6667 C 622.535 3.40229 0.458167 0
M  V30 6668 C 621.621 4.21933 -0.428208 0
M  V30 6669 N 622.012 4.82129 -1.52921 0
M  V30 6670 C 620.31 4.45439 -0.223535 0
M  V30 6671 C 621.011 5.43351 -2.07714 0
M  V30 6672 N 619.987 5.26002 -1.37195 0
M  V30 6673 H 623.789 2.69759 -1.1665 0
M  V30 6674 H 621.303 1.4478 -0.735691 0
M  V30 6675 H 623.3 4.07579 0.876648 0
M  V30 6676 H 621.96 2.97678 1.29684 0
M  V30 6677 H 622.971 4.81312 -1.91205 0
M  V30 6678 H 619.648 4.13481 0.577875 0
M  V30 6679 H 621.038 6.01118 -3.00178 0
M  V30 6680 N 623.758 0.647228 1.43697 0
M  V30 6681 C 624.688 -0.0345631 2.33474 0
M  V30 6682 C 625.669 -0.818193 1.4913 0
M  V30 6683 O 626.854 -0.780867 1.77809 0
M  V30 6684 C 623.984 -1.00576 3.32418 0
M  V30 6685 C 622.938 -0.33266 4.26705 0
M  V30 6686 C 622.264 -1.41489 5.1564 0
M  V30 6687 C 623.564 0.771204 5.16575 0
M  V30 6688 H 625.258 0.715163 2.90733 0
M  V30 6689 H 622.804 0.345364 1.39797 0
M  V30 6690 H 624.757 -1.49159 3.94119 0
M  V30 6691 H 623.481 -1.78657 2.73403 0
M  V30 6692 H 622.14 0.13267 3.6636 0
M  V30 6693 H 621.788 -2.18698 4.52968 0
M  V30 6694 H 621.488 -0.969799 5.79542 0
M  V30 6695 H 623.012 -1.9022 5.80214 0
M  V30 6696 H 624.426 0.36779 5.72119 0
M  V30 6697 H 622.823 1.1404 5.89165 0
M  V30 6698 H 623.893 1.63169 4.56622 0
M  V30 6699 N 625.236 -1.5273 0.388769 0
M  V30 6700 C 626.483 -2.01573 -0.19359 0
M  V30 6701 C 626.811 -1.27525 -1.46859 0
M  V30 6702 O 626.066 -0.363926 -1.92286 0
M  V30 6703 C 626.365 -3.53765 -0.508445 0
M  V30 6704 C 626.031 -4.4582 0.674947 0
M  V30 6705 C 624.693 -4.70703 0.999596 0
M  V30 6706 C 627.045 -5.00138 1.46666 0
M  V30 6707 C 624.373 -5.47155 2.11751 0
M  V30 6708 C 626.725 -5.77812 2.57518 0
M  V30 6709 C 625.389 -6.00975 2.90492 0
M  V30 6710 H 624.659 -0.737606 -0.0708397 0
M  V30 6711 H 627.306 -1.84134 0.526006 0
M  V30 6712 H 625.611 -3.69274 -1.30936 0
M  V30 6713 H 627.308 -3.8905 -0.971664 0
M  V30 6714 H 623.898 -4.26616 0.411906 0
M  V30 6715 H 628.082 -4.8084 1.22909 0
M  V30 6716 H 623.338 -5.63314 2.3767 0
M  V30 6717 H 627.512 -6.18904 3.19267 0
M  V30 6718 H 625.139 -6.59998 3.77236 0
M  V30 6719 N 626.714 -0.118576 -1.57153 0
M  V30 6720 C 627.961 0.539526 -1.9518 0
M  V30 6721 C 628.289 1.66714 -1.00184 0
M  V30 6722 O 627.544 1.95683 -0.0256482 0
M  V30 6723 C 627.843 1.11303 -3.39627 0
M  V30 6724 C 627.509 0.106809 -4.50773 0
M  V30 6725 C 626.171 -0.169876 -4.809 0
M  V30 6726 C 628.523 -0.57895 -5.17975 0
M  V30 6727 C 625.851 -1.13861 -5.75545 0
M  V30 6728 C 628.203 -1.53631 -6.13661 0
M  V30 6729 C 626.867 -1.82099 -6.42181 0
M  V30 6730 H 626.137 0.197427 -0.714215 0
M  V30 6731 H 628.784 -0.199391 -1.90459 0
M  V30 6732 H 627.089 1.92869 -3.4104 0
M  V30 6733 H 628.786 1.63032 -3.66363 0
M  V30 6734 H 625.376 0.332645 -4.27307 0
M  V30 6735 H 629.56 -0.378359 -4.94856 0
M  V30 6736 H 624.816 -1.36592 -5.95947 0
M  V30 6737 H 628.99 -2.07337 -6.64819 0
M  V30 6738 H 626.617 -2.57319 -7.15326 0
M  V30 6739 N 628.193 1.56834 0.155195 0
M  V30 6740 C 629.439 1.83169 0.870467 0
M  V30 6741 C 629.772 0.698929 1.81187 0
M  V30 6742 O 629.047 -0.298035 1.92203 0
M  V30 6743 C 629.33 3.19965 1.65211 0
M  V30 6744 C 629.183 4.43792 0.732744 0
M  V30 6745 C 630.502 3.53885 2.61636 0
M  V30 6746 H 627.621 0.666288 0.315006 0
M  V30 6747 H 630.263 1.89513 0.135988 0
M  V30 6748 H 628.413 3.14687 2.27825 0
M  V30 6749 H 630.085 4.61148 0.118236 0
M  V30 6750 H 628.328 4.3378 0.0417906 0
M  V30 6751 H 628.999 5.36095 1.31552 0
M  V30 6752 H 631.475 3.5972 2.09143 0
M  V30 6753 H 630.351 4.50648 3.13381 0
M  V30 6754 H 630.612 2.79418 3.42605 0
M  V30 6755 N 629.671 -0.424282 1.51781 0
M  V30 6756 C 630.604 -1.53633 1.68737 0
M  V30 6757 C 631.582 -1.53549 0.534915 0
M  V30 6758 O 632.766 -1.72483 0.760391 0
M  V30 6759 C 629.893 -2.92195 1.71288 0
M  V30 6760 C 628.939 -3.10251 2.92654 0
M  V30 6761 S 629.772 -2.85166 4.53256 0
M  V30 6762 C 630.928 -4.25986 4.58571 0
M  V30 6763 H 631.161 -1.39018 2.62795 0
M  V30 6764 H 628.694 -0.614854 1.41629 0
M  V30 6765 H 630.652 -3.72059 1.73443 0
M  V30 6766 H 629.313 -3.04162 0.783847 0
M  V30 6767 H 628.506 -4.1159 2.90877 0
M  V30 6768 H 628.108 -2.38231 2.88308 0
M  V30 6769 H 630.4 -5.19392 4.35015 0
M  V30 6770 H 631.343 -4.32792 5.60444 0
M  V30 6771 H 631.751 -4.1025 3.87757 0
M  V30 6772 N 631.149 -1.42148 -0.680565 0
M  V30 6773 C 632.059 -1.47565 -1.82378 0
M  V30 6774 C 633.075 -0.36489 -1.70131 0
M  V30 6775 O 634.251 -0.614916 -1.91783 0
M  V30 6776 C 631.316 -1.37013 -3.18478 0
M  V30 6777 C 630.377 -2.58532 -3.42724 0
M  V30 6778 C 629.61 -2.48473 -4.72331 0
M  V30 6779 O 629.833 -1.51745 -5.49845 0
M  V30 6780 O 628.767 -3.38503 -4.97694 0
M  V30 6781 H 632.593 -2.44045 -1.80764 0
M  V30 6782 H 630.178 -1.23849 -0.835569 0
M  V30 6783 H 632.06 -1.33468 -3.99705 0
M  V30 6784 H 630.735 -0.436552 -3.20743 0
M  V30 6785 H 629.642 -2.67652 -2.61368 0
M  V30 6786 H 630.975 -3.50769 -3.45286 0
M  V30 6787 N 632.627 0.916307 -1.28225 0
M  V30 6788 C 633.874 1.66518 -1.1523 0
M  V30 6789 C 634.202 1.92178 0.299632 0
M  V30 6790 O 633.457 1.51842 1.2346 0
M  V30 6791 C 633.756 3.03125 -1.8934 0
M  V30 6792 C 633.422 2.97135 -3.39148 0
M  V30 6793 C 632.084 2.95208 -3.80007 0
M  V30 6794 C 634.436 2.87574 -4.34685 0
M  V30 6795 C 631.764 2.81518 -5.14747 0
M  V30 6796 C 634.116 2.75424 -5.69495 0
M  V30 6797 C 632.78 2.71854 -6.09632 0
M  V30 6798 H 632.05 0.609334 -0.421655 0
M  V30 6799 H 634.697 1.06776 -1.58969 0
M  V30 6800 H 633.002 3.66639 -1.38143 0
M  V30 6801 H 634.699 3.59968 -1.76704 0
M  V30 6802 H 631.289 2.99428 -3.06661 0
M  V30 6803 H 635.473 2.88152 -4.04082 0
M  V30 6804 H 630.729 2.77148 -5.44976 0
M  V30 6805 H 634.903 2.66993 -6.43185 0
M  V30 6806 H 632.53 2.61003 -7.1399 0
M  V30 6807 N 634.105 1.10431 1.1244 0
M  V30 6808 C 635.035 0.775143 2.20258 0
M  V30 6809 C 636.016 -0.25186 1.68225 0
M  V30 6810 O 637.201 -0.117637 1.93843 0
M  V30 6811 C 634.331 0.206133 3.46688 0
M  V30 6812 C 633.285 1.16382 4.11873 0
M  V30 6813 C 632.611 0.456014 5.32752 0
M  V30 6814 C 633.911 2.5104 4.58013 0
M  V30 6815 H 635.605 1.67665 2.4805 0
M  V30 6816 H 633.151 0.807595 1.19222 0
M  V30 6817 H 635.104 -0.036291 4.21384 0
M  V30 6818 H 633.828 -0.730614 3.18323 0
M  V30 6819 H 632.487 1.39169 3.39157 0
M  V30 6820 H 632.135 -0.485203 5.00654 0
M  V30 6821 H 631.835 1.09466 5.77314 0
M  V30 6822 H 633.359 0.222135 6.10196 0
M  V30 6823 H 634.773 2.32401 5.24083 0
M  V30 6824 H 633.17 3.10789 5.13352 0
M  V30 6825 H 634.24 3.11039 3.71998 0
M  V30 6826 N 635.583 -1.29855 0.893053 0
M  V30 6827 C 636.531 -2.29867 0.355512 0
M  V30 6828 C 637.525 -1.60502 -0.541801 0
M  V30 6829 O 638.731 -1.74902 -0.425339 0
M  V30 6830 H 635.106 -0.745805 0.0963247 0
M  V30 6831 H 637.077 -2.72655 1.21252 0
M  V30 6832 C 635.826 -3.453 -0.407801 0
M  V30 6833 H 635.149 -3.98864 0.273426 0
M  V30 6834 H 636.589 -4.17334 -0.748887 0
M  V30 6835 C 635.048 -2.96051 -1.60795 0
M  V30 6836 O 635.578 -2.96763 -2.7073 0
M  V30 6837 N 633.784 -2.51963 -1.44786 0
M  V30 6838 H 633.331 -2.51583 -0.553498 0
M  V30 6839 H 633.289 -2.1937 -2.2522 0
M  V30 6840 N 637.061 -0.65484 -1.43351 0
M  V30 6841 C 638.309 -0.168559 -2.01396 0
M  V30 6842 C 638.63 1.22235 -1.51933 0
M  V30 6843 O 637.9 1.81685 -0.732627 0
M  V30 6844 H 636.48 -0.0593244 -0.744641 0
M  V30 6845 H 639.142 -0.846871 -1.75539 0
M  V30 6846 H 638.238 -0.154428 -3.11718 0
M  V30 6847 N 638.539 1.52521 -0.396863 0
M  V30 6848 C 639.787 2.01274 0.182536 0
M  V30 6849 C 640.108 1.28485 1.46685 0
M  V30 6850 O 639.378 0.407134 1.91623 0
M  V30 6851 H 637.958 0.743671 0.0704442 0
M  V30 6852 H 640.62 1.87547 -0.530289 0
M  V30 6853 H 639.716 3.09687 0.387385 0
M  V30 6854 N 640.017 0.126909 1.57088 0
M  V30 6855 C 641.294 -0.573152 1.87014 0
M  V30 6856 C 641.674 -1.84297 1.02945 0
M  V30 6857 O 641.022 -2.28232 0.110573 0
M  V30 6858 C 641.232 -0.857984 3.38289 0
M  V30 6859 C 642.58 -1.20759 4.07066 0
M  V30 6860 O 643.604 -0.947992 3.43353 0
M  V30 6861 O 642.463 -1.69516 5.19545 0
M  V30 6862 H 639.557 -0.290082 0.774456 0
M  V30 6863 H 642.103 0.162008 1.68925 0
M  V30 6864 H 640.875 0.0415286 3.91278 0
M  V30 6865 H 640.498 -1.64803 3.61837 0
M  V30 6866 N 641.495 -1.56914 -0.146875 0
M  V30 6867 C 642.425 -2.01308 -1.1831 0
M  V30 6868 C 643.406 -0.892664 -1.44795 0
M  V30 6869 O 644.591 -1.16048 -1.55713 0
M  V30 6870 C 641.721 -2.3938 -2.51624 0
M  V30 6871 C 640.675 -3.54608 -2.3966 0
M  V30 6872 C 640.001 -3.78493 -3.77686 0
M  V30 6873 C 641.301 -4.87269 -1.88058 0
M  V30 6874 H 642.995 -2.88123 -0.813964 0
M  V30 6875 H 640.541 -1.38615 -0.3901 0
M  V30 6876 H 642.494 -2.69037 -3.24341 0
M  V30 6877 H 641.218 -1.49502 -2.90373 0
M  V30 6878 H 639.877 -3.25116 -1.69396 0
M  V30 6879 H 639.525 -2.85866 -4.13871 0
M  V30 6880 H 639.225 -4.56039 -3.70543 0
M  V30 6881 H 640.749 -4.10576 -4.51951 0
M  V30 6882 H 642.163 -5.15644 -2.50568 0
M  V30 6883 H 640.56 -5.68622 -1.91805 0
M  V30 6884 H 641.63 -4.77634 -0.836277 0
M  V30 6885 N 642.974 0.416227 -1.52004 0
M  V30 6886 C 643.907 1.52736 -1.6955 0
M  V30 6887 C 644.885 1.53264 -0.54305 0
M  V30 6888 O 646.069 1.72077 -0.769527 0
M  V30 6889 C 643.196 2.91283 -1.72835 0
M  V30 6890 C 642.242 3.08695 -2.94295 0
M  V30 6891 S 643.075 2.82758 -4.54762 0
M  V30 6892 C 644.231 4.23548 -4.60823 0
M  V30 6893 H 644.464 1.37623 -2.63528 0
M  V30 6894 H 641.997 0.607335 -1.41954 0
M  V30 6895 H 643.955 3.71134 -1.75413 0
M  V30 6896 H 642.616 3.03742 -0.799966 0
M  V30 6897 H 641.809 4.10042 -2.93056 0
M  V30 6898 H 641.411 2.36699 -2.89568 0
M  V30 6899 H 643.703 5.17078 -4.37763 0
M  V30 6900 H 644.646 4.29813 -5.62731 0
M  V30 6901 H 645.054 4.08188 -3.89927 0
M  V30 6902 N 644.452 1.42507 0.673017 0
M  V30 6903 C 645.682 1.46261 1.45916 0
M  V30 6904 C 646.09 0.0729724 1.89059 0
M  V30 6905 O 645.433 -0.922987 1.58829 0
M  V30 6906 C 645.495 2.32853 2.73898 0
M  V30 6907 C 645.159 3.80699 2.52819 0
M  V30 6908 C 646.156 4.72307 2.17306 0
M  V30 6909 C 643.841 4.24983 2.67758 0
M  V30 6910 C 645.835 6.06192 1.97003 0
M  V30 6911 C 643.522 5.58927 2.4707 0
M  V30 6912 C 644.52 6.49348 2.11746 0
M  V30 6913 O 644.208 7.80817 1.91259 0
M  V30 6914 H 643.94 0.499561 0.455428 0
M  V30 6915 H 646.494 1.87697 0.834196 0
M  V30 6916 H 644.724 1.86268 3.38882 0
M  V30 6917 H 646.413 2.28041 3.35786 0
M  V30 6918 H 647.179 4.39378 2.05359 0
M  V30 6919 H 643.058 3.54893 2.94231 0
M  V30 6920 H 646.602 6.76731 1.69355 0
M  V30 6921 H 642.499 5.91429 2.58615 0
M  V30 6922 H 643.267 7.92194 2.05843 0
M  V30 6923 N 645.93 -0.909495 1.28709 0
M  V30 6924 C 646.88 -1.9991 1.09636 0
M  V30 6925 C 647.864 -1.60889 0.01872 0
M  V30 6926 O 649.056 -1.75374 0.239338 0
M  V30 6927 C 646.185 -3.34675 0.764702 0
M  V30 6928 C 645.271 -3.80085 1.8814 0
M  V30 6929 N 645.662 -3.97824 3.12361 0
M  V30 6930 C 643.96 -4.09278 1.77221 0
M  V30 6931 C 644.661 -4.35928 3.85151 0
M  V30 6932 N 643.637 -4.44426 3.13028 0
M  V30 6933 H 647.439 -2.11681 2.03883 0
M  V30 6934 H 644.953 -1.09763 1.1969 0
M  V30 6935 H 646.95 -4.12426 0.609132 0
M  V30 6936 H 645.61 -3.24255 -0.169952 0
M  V30 6937 H 646.621 -3.83626 3.47925 0
M  V30 6938 H 643.298 -4.0747 0.909621 0
M  V30 6939 H 644.688 -4.57581 4.92006 0
M  V30 6940 N 647.408 -1.11026 -1.11852 0
M  V30 6941 C 648.657 -0.851249 -1.82857 0
M  V30 6942 C 648.97 0.62514 -1.85341 0
M  V30 6943 O 650.176 1.00026 -2.52403 0
M  V30 6944 C 648.632 -1.47309 -3.28372 0
M  V30 6945 C 648.24 -2.9832 -3.34229 0
M  V30 6946 C 649.984 -1.29373 -4.04306 0
M  V30 6947 C 647.891 -3.53509 -4.74115 0
M  V30 6948 H 646.821 -0.314794 -0.685143 0
M  V30 6949 H 649.472 -1.33499 -1.25898 0
M  V30 6950 H 647.854 -0.917017 -3.85236 0
M  V30 6951 H 649.028 -3.60295 -2.87271 0
M  V30 6952 H 647.343 -3.15482 -2.71772 0
M  V30 6953 H 649.94 -1.68042 -5.07608 0
M  V30 6954 H 650.283 -0.235879 -4.15631 0
M  V30 6955 H 650.816 -1.8182 -3.53817 0
M  V30 6956 H 647.555 -4.58987 -4.67986 0
M  V30 6957 H 647.075 -2.96305 -5.21501 0
M  V30 6958 H 648.754 -3.51693 -5.43066 0
M  V30 6959 N 648.886 1.2938 -0.899927 0
M  V30 6960 C 649.818 2.26737 -0.335139 0
M  V30 6961 C 650.831 1.54316 0.518681 0
M  V30 6962 O 652.02 1.75313 0.335803 0
M  V30 6963 C 649.12 3.34558 0.540774 0
M  V30 6964 C 648.293 4.36455 -0.287372 0
M  V30 6965 C 647.352 5.2361 0.52141 0
M  V30 6966 O 646.378 5.69167 -0.0611735 0
M  V30 6967 N 647.58 5.50985 1.82745 0
M  V30 6968 H 650.345 2.75838 -1.17191 0
M  V30 6969 H 647.906 1.42716 -0.764438 0
M  V30 6970 H 649.898 3.89794 1.08825 0
M  V30 6971 H 648.468 2.85272 1.27823 0
M  V30 6972 H 647.688 3.80875 -1.01626 0
M  V30 6973 H 648.976 5.01573 -0.854518 0
M  V30 6974 H 648.374 5.15781 2.32349 0
M  V30 6975 H 646.931 6.09036 2.32204 0
M  V30 6976 N 650.364 0.662433 1.43002 0
M  V30 6977 C 651.641 0.109096 1.95296 0
M  V30 6978 C 652.021 -1.37313 1.60338 0
M  V30 6979 O 651.369 -2.1032 0.893187 0
M  V30 6980 C 651.579 0.365096 3.47085 0
M  V30 6981 C 652.927 0.274964 4.23709 0
M  V30 6982 O 653.951 0.29816 3.5495 0
M  V30 6983 O 652.81 0.206549 5.4611 0
M  V30 6984 H 649.904 -0.00429724 0.826989 0
M  V30 6985 H 652.45 0.736308 1.52894 0
M  V30 6986 H 651.222 1.39237 3.65689 0
M  V30 6987 H 650.845 -0.294733 3.96506 0
M  V30 6988 N 651.842 -1.52309 0.404946 0
M  V30 6989 C 652.789 -2.26898 -0.422597 0
M  V30 6990 C 653.759 -1.2914 -1.04461 0
M  V30 6991 O 654.944 -1.57996 -1.06967 0
M  V30 6992 C 652.084 -3.09053 -1.53559 0
M  V30 6993 C 651.197 -4.21762 -0.934908 0
M  V30 6994 C 650.332 -4.91283 -2.02025 0
M  V30 6995 C 649.371 -5.95962 -1.39628 0
M  V30 6996 N 648.508 -6.59017 -2.42159 0
M  V30 6997 H 653.348 -2.97188 0.219903 0
M  V30 6998 H 650.885 -1.46607 0.120282 0
M  V30 6999 H 652.843 -3.54987 -2.19181 0
M  V30 7000 H 651.473 -2.40942 -2.14818 0
M  V30 7001 H 650.525 -3.80029 -0.167854 0
M  V30 7002 H 651.837 -4.96864 -0.439073 0
M  V30 7003 H 650.991 -5.40601 -2.75383 0
M  V30 7004 H 649.73 -4.15741 -2.54973 0
M  V30 7005 H 648.735 -5.45968 -0.648023 0
M  V30 7006 H 649.96 -6.73445 -0.874553 0
M  V30 7007 H 647.906 -5.86306 -2.94247 0
M  V30 7008 H 647.823 -7.2978 -1.97376 0
M  V30 7009 H 649.091 -7.12974 -3.15099 0
M  V30 7010 N 653.32 -0.135238 -1.57019 0
M  V30 7011 C 654.568 0.51777 -1.95355 0
M  V30 7012 C 654.889 1.6617 -1.02042 0
M  V30 7013 O 654.159 1.95738 -0.0797343 0
M  V30 7014 H 652.739 0.194264 -0.721298 0
M  V30 7015 H 655.401 -0.207983 -1.93787 0
M  V30 7016 H 654.497 0.901675 -2.98791 0
M  V30 7017 N 654.798 1.5699 0.138552 0
M  V30 7018 C 656.214 1.51844 0.491472 0
M  V30 7019 C 656.414 0.845063 1.82923 0
M  V30 7020 O 655.47 0.419143 2.48997 0
M  V30 7021 C 656.783 2.96615 0.493987 0
M  V30 7022 C 658.331 3.076 0.578913 0
M  V30 7023 C 658.806 4.53893 0.612009 0
M  V30 7024 N 660.297 4.5827 0.673997 0
M  V30 7025 C 661.032 5.68852 0.720729 0
M  V30 7026 N 660.528 6.88982 0.726292 0
M  V30 7027 N 662.321 5.56908 0.762253 0
M  V30 7028 H 654.472 1.99158 -0.738228 0
M  V30 7029 H 656.735 0.908693 -0.270149 0
M  V30 7030 H 656.441 3.49172 -0.420933 0
M  V30 7031 H 656.315 3.53017 1.32887 0
M  V30 7032 H 658.702 2.55057 1.48425 0
M  V30 7033 H 658.783 2.54227 -0.283286 0
M  V30 7034 H 658.427 5.07076 -0.289208 0
M  V30 7035 H 658.357 5.05057 1.49082 0
M  V30 7036 H 660.848 3.71793 0.676654 0
M  V30 7037 H 661.161 7.69014 0.764032 0
M  V30 7038 H 659.506 6.91526 0.69403 0
M  V30 7039 H 662.697 4.61969 0.755135 0
M  V30 7040 H 662.87 6.43102 0.795207 0
M  V30 7041 N 656.276 -0.40816 1.52223 0
M  V30 7042 C 657.523 -1.15502 1.66329 0
M  V30 7043 C 657.851 -1.90474 0.393701 0
M  V30 7044 O 657.106 -1.85507 -0.623356 0
M  V30 7045 C 657.405 -2.17422 2.83659 0
M  V30 7046 C 657.071 -1.5925 4.21841 0
M  V30 7047 C 655.733 -1.4311 4.59427 0
M  V30 7048 C 658.085 -1.16776 5.0795 0
M  V30 7049 C 655.413 -0.830148 5.80797 0
M  V30 7050 C 657.765 -0.580988 6.29926 0
M  V30 7051 C 656.429 -0.406729 6.6626 0
M  V30 7052 H 655.699 -0.422653 0.608642 0
M  V30 7053 H 658.346 -0.442114 1.86327 0
M  V30 7054 H 656.651 -2.94861 2.58001 0
M  V30 7055 H 658.348 -2.75084 2.9177 0
M  V30 7056 H 654.938 -1.72796 3.92224 0
M  V30 7057 H 659.122 -1.28055 4.79495 0
M  V30 7058 H 654.378 -0.68316 6.07571 0
M  V30 7059 H 658.552 -0.243488 6.95974 0
M  V30 7060 H 656.179 0.0610366 7.60175 0
M  V30 7061 N 657.755 -1.42862 -0.66545 0
M  V30 7062 C 658.665 -1.49491 -1.80803 0
M  V30 7063 C 659.681 -0.382914 -1.69734 0
M  V30 7064 O 660.857 -0.635223 -1.9112 0
M  V30 7065 C 657.922 -1.40383 -3.17007 0
M  V30 7066 C 656.983 -2.62152 -3.39963 0
M  V30 7067 C 656.216 -2.53469 -4.69669 0
M  V30 7068 O 656.439 -1.57568 -5.48205 0
M  V30 7069 O 655.373 -3.43763 -4.94075 0
M  V30 7070 H 659.199 -2.45949 -1.78165 0
M  V30 7071 H 656.784 -1.24728 -0.822387 0
M  V30 7072 H 658.666 -1.377 -3.98267 0
M  V30 7073 H 657.341 -0.470546 -3.20262 0
M  V30 7074 H 656.248 -2.70409 -2.58515 0
M  V30 7075 H 657.581 -3.54411 -3.41546 0
M  V30 7076 N 659.233 0.902656 -1.29189 0
M  V30 7077 C 660.163 2.02294 -1.16616 0
M  V30 7078 C 661.144 1.6999 -0.0611175 0
M  V30 7079 O 662.329 1.9271 -0.240072 0
M  V30 7080 C 659.459 3.37018 -0.83882 0
M  V30 7081 C 658.413 3.83522 -1.89986 0
M  V30 7082 C 657.739 5.15337 -1.42589 0
M  V30 7083 C 659.039 4.04169 -3.30824 0
M  V30 7084 H 660.733 2.13071 -2.10336 0
M  V30 7085 H 658.279 1.02378 -1.01266 0
M  V30 7086 H 660.232 4.14895 -0.737584 0
M  V30 7087 H 658.956 3.26325 0.134071 0
M  V30 7088 H 657.615 3.07859 -1.99043 0
M  V30 7089 H 657.263 5.01056 -0.441759 0
M  V30 7090 H 656.963 5.47423 -2.13547 0
M  V30 7091 H 658.487 5.95758 -1.3381 0
M  V30 7092 H 659.901 4.72537 -3.24626 0
M  V30 7093 H 658.298 4.47604 -3.99713 0
M  V30 7094 H 659.368 3.08604 -3.74021 0
M  V30 7095 N 660.711 1.11618 1.11262 0
M  V30 7096 C 661.941 0.88745 1.86569 0
M  V30 7097 C 662.349 -0.56636 1.80524 0
M  V30 7098 O 661.692 -1.40289 1.18594 0
M  V30 7099 C 661.754 1.27313 3.36202 0
M  V30 7100 C 661.418 2.73649 3.66013 0
M  V30 7101 C 662.415 3.71863 3.63337 0
M  V30 7102 C 660.1 3.10342 3.9496 0
M  V30 7103 C 662.094 5.04788 3.89188 0
M  V30 7104 C 659.781 4.43451 4.20469 0
M  V30 7105 C 660.779 5.40484 4.17572 0
M  V30 7106 O 660.467 6.71195 4.42439 0
M  V30 7107 H 660.199 0.317543 0.596777 0
M  V30 7108 H 662.753 1.48768 1.41624 0
M  V30 7109 H 660.983 0.616062 3.81761 0
M  V30 7110 H 662.672 1.01991 3.92877 0
M  V30 7111 H 663.438 3.44861 3.41022 0
M  V30 7112 H 659.317 2.35431 3.9635 0
M  V30 7113 H 662.861 5.80516 3.86842 0
M  V30 7114 H 658.758 4.70187 4.42261 0
M  V30 7115 H 659.526 6.77012 4.59997 0
M  V30 7116 N 662.189 -1.289 0.906776 0
M  V30 7117 C 663.605 -1.47733 0.603902 0
M  V30 7118 C 663.805 -1.82568 -0.852702 0
M  V30 7119 O 662.861 -1.92642 -1.63234 0
M  V30 7120 C 664.174 -2.58522 1.53581 0
M  V30 7121 C 665.722 -2.72394 1.54177 0
M  V30 7122 C 666.197 -3.86318 2.46013 0
M  V30 7123 N 667.688 -3.93661 2.441 0
M  V30 7124 C 668.423 -4.81177 3.11859 0
M  V30 7125 N 667.919 -5.73333 3.88923 0
M  V30 7126 N 669.712 -4.74728 3.00981 0
M  V30 7127 H 661.863 -1.04567 1.84877 0
M  V30 7128 H 664.126 -0.520118 0.792579 0
M  V30 7129 H 663.832 -2.39667 2.57396 0
M  V30 7130 H 663.706 -3.55475 1.26165 0
M  V30 7131 H 666.093 -2.90641 0.511034 0
M  V30 7132 H 666.174 -1.75993 1.85634 0
M  V30 7133 H 665.818 -3.68826 3.49185 0
M  V30 7134 H 665.748 -4.82102 2.11862 0
M  V30 7135 H 668.239 -3.27751 1.88115 0
M  V30 7136 H 668.552 -6.36923 4.37663 0
M  V30 7137 H 666.897 -5.73196 3.93029 0
M  V30 7138 H 670.088 -4.01722 2.40286 0
M  V30 7139 H 670.261 -5.42719 3.54062 0
M  V30 7140 N 663.667 -0.670007 -1.42649 0
M  V30 7141 C 664.63 0.00204659 -2.292 0
M  V30 7142 C 665.63 0.733817 -1.4308 0
M  V30 7143 O 666.82 0.57254 -1.64522 0
M  V30 7144 C 663.952 1.01359 -3.25483 0
M  V30 7145 H 665.145 -0.759696 -2.90118 0
M  V30 7146 H 662.698 -0.432105 -1.50208 0
M  V30 7147 H 663.433 1.80399 -2.69493 0
M  V30 7148 H 663.218 0.492323 -3.88997 0
M  V30 7149 H 664.708 1.4824 -3.90403 0
M  V30 7150 N 665.145 1.52092 -0.413018 0
M  V30 7151 C 666.373 2.06274 0.160881 0
M  V30 7152 C 666.788 1.28273 1.38533 0
M  V30 7153 O 666.145 0.33563 1.79387 0
M  V30 7154 C 666.196 3.57921 0.507443 0
M  V30 7155 O 665.917 4.32971 -0.668388 0
M  V30 7156 C 667.418 4.28533 1.13465 0
M  V30 7157 H 664.638 0.67074 0.0186759 0
M  V30 7158 H 667.182 1.95951 -0.585092 0
M  V30 7159 H 665.337 3.68238 1.20331 0
M  V30 7160 H 665.751 5.23135 -0.378169 0
M  V30 7161 H 667.225 5.35804 1.32732 0
M  V30 7162 H 667.702 3.85258 2.10886 0
M  V30 7163 H 668.308 4.22595 0.478876 0
M  V30 7164 N 666.623 0.143563 1.56945 0
M  V30 7165 C 667.87 -0.508407 1.96014 0
M  V30 7166 C 668.198 -1.65099 1.02824 0
M  V30 7167 O 667.453 -1.95618 0.0567764 0
M  V30 7168 C 667.752 -1.05885 3.41355 0
M  V30 7169 C 667.418 -0.0350809 4.50886 0
M  V30 7170 C 666.08 0.246362 4.80569 0
M  V30 7171 C 668.432 0.661282 5.16988 0
M  V30 7172 C 665.76 1.23003 5.73661 0
M  V30 7173 C 668.112 1.63375 6.11139 0
M  V30 7174 C 666.776 1.92292 6.39203 0
M  V30 7175 H 666.046 -0.186039 0.717266 0
M  V30 7176 H 668.693 0.229667 1.90118 0
M  V30 7177 H 666.998 -1.87419 3.44066 0
M  V30 7178 H 668.695 -1.57183 3.6891 0
M  V30 7179 H 665.285 -0.264622 4.27782 0
M  V30 7180 H 669.469 0.457038 4.94191 0
M  V30 7181 H 664.725 1.46056 5.93698 0
M  V30 7182 H 668.899 2.17887 6.61436 0
M  V30 7183 H 666.526 2.68666 7.11142 0
M  V30 7184 N 668.101 -1.57061 -0.130224 0
M  V30 7185 C 669.331 -1.88159 -0.853217 0
M  V30 7186 C 669.739 -0.731675 -1.7448 0
M  V30 7187 O 669.082 0.307035 -1.81116 0
M  V30 7188 C 669.144 -3.1415 -1.74785 0
M  V30 7189 C 668.808 -4.45202 -1.03173 0
M  V30 7190 C 669.805 -5.18526 -0.377759 0
M  V30 7191 C 667.49 -4.91912 -1.01624 0
M  V30 7192 C 669.484 -6.36775 0.282123 0
M  V30 7193 C 667.171 -6.10082 -0.352555 0
M  V30 7194 C 668.169 -6.82361 0.295483 0
M  V30 7195 O 667.857 -7.98284 0.948606 0
M  V30 7196 H 667.589 -0.627596 -0.251197 0
M  V30 7197 H 670.143 -2.05034 -0.1226 0
M  V30 7198 H 668.373 -2.93328 -2.51983 0
M  V30 7199 H 670.062 -3.31359 -2.34427 0
M  V30 7200 H 670.828 -4.83498 -0.381417 0
M  V30 7201 H 666.707 -4.35566 -1.51007 0
M  V30 7202 H 670.251 -6.93129 0.788525 0
M  V30 7203 H 666.148 -6.44569 -0.346621 0
M  V30 7204 H 666.916 -8.14054 0.851954 0
M  V30 7205 N 669.579 0.400081 -1.52437 0
M  V30 7206 C 670.542 1.4707 -1.75793 0
M  V30 7207 C 671.542 1.48036 -0.627856 0
M  V30 7208 O 672.732 1.49401 -0.895817 0
M  V30 7209 C 669.864 2.86427 -1.84858 0
M  V30 7210 H 671.057 1.27649 -2.71377 0
M  V30 7211 H 668.61 0.631141 -1.42991 0
M  V30 7212 H 669.345 3.11207 -0.912194 0
M  V30 7213 H 669.13 2.87128 -2.6702 0
M  V30 7214 H 670.62 3.64023 -2.04638 0
M  V30 7215 N 671.057 1.43213 0.657864 0
M  V30 7216 C 672.02 1.47687 1.75275 0
M  V30 7217 C 673.02 0.362179 1.56668 0
M  V30 7218 O 674.21 0.623734 1.62651 0
M  V30 7219 C 671.342 1.32497 3.14098 0
M  V30 7220 H 672.535 2.4519 1.7269 0
M  V30 7221 H 670.088 1.2991 0.869087 0
M  V30 7222 H 670.823 0.359831 3.22298 0
M  V30 7223 H 670.608 2.13299 3.29008 0
M  V30 7224 H 672.098 1.38549 3.93946 0
M  V30 7225 N 672.536 -0.895792 1.29666 0
M  V30 7226 C 673.446 -2.03329 1.17024 0
M  V30 7227 C 674.462 -1.73753 0.0925962 0
M  V30 7228 O 675.638 -1.99071 0.305431 0
M  V30 7229 C 672.703 -3.36072 0.851841 0
M  V30 7230 C 671.764 -3.7914 2.01373 0
M  V30 7231 C 670.997 -5.05549 1.71043 0
M  V30 7232 O 671.22 -5.66874 0.633213 0
M  V30 7233 O 670.154 -5.44764 2.5596 0
M  V30 7234 H 673.98 -2.16918 2.12556 0
M  V30 7235 H 671.565 -1.02007 1.09156 0
M  V30 7236 H 673.447 -4.15729 0.689006 0
M  V30 7237 H 672.122 -3.23616 -0.0736634 0
M  V30 7238 H 671.029 -3.00233 2.23183 0
M  V30 7239 H 672.362 -3.96186 2.92058 0
M  V30 7240 N 674.014 -1.12206 -1.10668 0
M  V30 7241 C 675.263 -0.870595 -1.81944 0
M  V30 7242 C 675.576 0.605447 -1.85994 0
M  V30 7243 O 676.782 0.973433 -2.53449 0
M  V30 7244 C 675.238 -1.50783 -3.26791 0
M  V30 7245 C 674.846 -3.01849 -3.31046 0
M  V30 7246 C 676.59 -1.33653 -4.02911 0
M  V30 7247 C 674.497 -3.58518 -4.70339 0
M  V30 7248 H 673.427 -0.322043 -0.681765 0
M  V30 7249 H 676.078 -1.34827 -1.24475 0
M  V30 7250 H 674.46 -0.957825 -3.84242 0
M  V30 7251 H 675.634 -3.63321 -2.83433 0
M  V30 7252 H 673.949 -3.18346 -2.68411 0
M  V30 7253 H 676.546 -1.73416 -5.05797 0
M  V30 7254 H 676.889 -0.279949 -4.15358 0
M  V30 7255 H 677.422 -1.85562 -3.51868 0
M  V30 7256 H 674.161 -4.63925 -4.63091 0
M  V30 7257 H 673.681 -3.01819 -5.18329 0
M  V30 7258 H 675.36 -3.57434 -5.39305 0
M  V30 7259 N 675.492 1.28418 -0.913599 0
M  V30 7260 C 676.425 2.25557 -0.346328 0
M  V30 7261 C 677.403 1.53038 0.549366 0
M  V30 7262 O 678.587 1.81937 0.493055 0
M  V30 7263 C 675.714 3.34915 0.504961 0
M  V30 7264 C 674.76 4.25257 -0.325334 0
M  V30 7265 S 675.593 5.06718 -1.73198 0
M  V30 7266 C 676.749 6.19569 -0.887988 0
M  V30 7267 H 676.982 2.73325 -1.16965 0
M  V30 7268 H 674.515 1.36855 -0.714841 0
M  V30 7269 H 676.473 3.98376 0.990301 0
M  V30 7270 H 675.134 2.85814 1.30267 0
M  V30 7271 H 674.327 5.02947 0.325589 0
M  V30 7272 H 673.929 3.66519 -0.744321 0
M  V30 7273 H 676.221 6.77398 -0.117568 0
M  V30 7274 H 677.164 6.88908 -1.63742 0
M  V30 7275 H 677.572 5.62812 -0.436228 0
M  V30 7276 N 676.97 0.677563 1.42291 0
M  V30 7277 C 678.21 0.204894 2.0337 0
M  V30 7278 C 678.574 -1.16744 1.5243 0
M  V30 7279 O 679.775 -1.73492 2.05314 0
M  V30 7280 C 678.046 0.240742 3.56588 0
M  V30 7281 S 679.605 -0.16052 4.38506 0
M  V30 7282 H 676.423 0.0839932 0.706021 0
M  V30 7283 H 679.025 0.891332 1.73999 0
M  V30 7284 H 677.729 1.24184 3.91161 0
M  V30 7285 H 677.26 -0.465439 3.90637 0
M  V30 7286 H 679.275 -1.39315 4.76241 0
M  V30 7287 N 678.448 -1.51871 0.421078 0
M  V30 7288 C 679.696 -2.01539 -0.150492 0
M  V30 7289 C 680.017 -1.30803 -1.44623 0
M  V30 7290 O 679.287 -0.437568 -1.90951 0
M  V30 7291 H 677.867 -0.744698 -0.0586041 0
M  V30 7292 H 680.529 -1.8668 0.560059 0
M  V30 7293 H 679.625 -3.10264 -0.338068 0
M  V30 7294 N 679.926 -0.151884 -1.56866 0
M  V30 7295 C 680.856 0.781943 -2.20018 0
M  V30 7296 C 681.837 1.25347 -1.14987 0
M  V30 7297 O 683.022 1.31015 -1.43348 0
M  V30 7298 C 680.152 2.01928 -2.82564 0
M  V30 7299 C 679.106 1.68434 -3.93464 0
M  V30 7300 C 678.432 2.99472 -4.42968 0
M  V30 7301 C 679.732 0.927244 -5.14003 0
M  V30 7302 H 681.426 0.255607 -2.98307 0
M  V30 7303 H 678.972 0.121502 -1.43486 0
M  V30 7304 H 680.925 2.67741 -3.25411 0
M  V30 7305 H 679.649 2.56943 -2.01614 0
M  V30 7306 H 678.308 1.04998 -3.51242 0
M  V30 7307 H 677.956 3.52488 -3.58834 0
M  V30 7308 H 677.656 2.77823 -5.17772 0
M  V30 7309 H 679.18 3.66348 -4.88489 0
M  V30 7310 H 680.594 1.48756 -5.53665 0
M  V30 7311 H 678.991 0.810513 -5.94601 0
M  V30 7312 H 680.061 -0.0801163 -4.84834 0
M  V30 7313 N 681.404 1.57128 0.121893 0
M  V30 7314 C 682.336 1.96773 1.17529 0
M  V30 7315 C 683.349 0.866668 1.37814 0
M  V30 7316 O 684.538 1.14497 1.3694 0
M  V30 7317 C 681.638 2.24832 2.53582 0
M  V30 7318 C 680.811 3.56138 2.53939 0
M  V30 7319 C 679.87 3.72443 3.71716 0
M  V30 7320 O 678.896 4.44584 3.55434 0
M  V30 7321 N 680.098 3.10993 4.90167 0
M  V30 7322 H 682.863 2.87743 0.838086 0
M  V30 7323 H 680.424 1.58881 0.311199 0
M  V30 7324 H 682.416 2.32958 3.30927 0
M  V30 7325 H 680.986 1.40002 2.79496 0
M  V30 7326 H 680.206 3.59226 1.62329 0
M  V30 7327 H 681.494 4.42448 2.51231 0
M  V30 7328 H 680.892 2.52345 5.06299 0
M  V30 7329 H 679.449 3.24644 5.65198 0
M  V30 7330 N 682.882 -0.391992 1.52647 0
M  V30 7331 C 684.129 -1.13732 1.67545 0
M  V30 7332 C 684.457 -1.90045 0.413881 0
M  V30 7333 O 683.712 -1.86157 -0.603646 0
M  V30 7334 C 684.011 -2.14401 2.85949 0
M  V30 7335 C 683.677 -1.54767 4.23507 0
M  V30 7336 C 682.339 -1.38229 4.60919 0
M  V30 7337 C 684.691 -1.11382 5.0916 0
M  V30 7338 C 682.019 -0.7685 5.81645 0
M  V30 7339 C 684.371 -0.514143 6.30507 0
M  V30 7340 C 683.035 -0.33604 6.66654 0
M  V30 7341 H 682.305 -0.416174 0.613091 0
M  V30 7342 H 684.952 -0.422327 1.86785 0
M  V30 7343 H 683.257 -2.92108 2.61114 0
M  V30 7344 H 684.954 -2.71974 2.94671 0
M  V30 7345 H 681.544 -1.68626 3.94035 0
M  V30 7346 H 685.728 -1.22962 4.80826 0
M  V30 7347 H 680.984 -0.618681 6.08262 0
M  V30 7348 H 685.158 -0.169657 6.96193 0
M  V30 7349 H 682.785 0.14166 7.60068 0
M  V30 7350 N 684.36 -1.4356 -0.65026 0
M  V30 7351 C 685.29 -1.51758 -1.77459 0
M  V30 7352 C 686.271 -0.372019 -1.65982 0
M  V30 7353 O 687.456 -0.589627 -1.85033 0
M  V30 7354 C 684.586 -1.44302 -3.15902 0
M  V30 7355 C 683.54 -2.57138 -3.42146 0
M  V30 7356 C 682.866 -2.34735 -4.8042 0
M  V30 7357 C 684.166 -3.99373 -3.36598 0
M  V30 7358 H 685.86 -2.45863 -1.70855 0
M  V30 7359 H 683.406 -1.18333 -0.820566 0
M  V30 7360 H 685.359 -1.48641 -3.94314 0
M  V30 7361 H 684.083 -0.467026 -3.23244 0
M  V30 7362 H 682.742 -2.52157 -2.66106 0
M  V30 7363 H 682.39 -1.35372 -4.84441 0
M  V30 7364 H 682.09 -3.10375 -4.9894 0
M  V30 7365 H 683.614 -2.40862 -5.61086 0
M  V30 7366 H 685.028 -4.05826 -4.04942 0
M  V30 7367 H 683.425 -4.75063 -3.66654 0
M  V30 7368 H 684.495 -4.243 -2.34729 0
M  V30 7369 N 685.838 0.888903 -1.30139 0
M  V30 7370 C 686.788 1.9814 -1.12803 0
M  V30 7371 C 687.772 1.60839 -0.0443137 0
M  V30 7372 O 688.964 1.74971 -0.267208 0
M  V30 7373 C 686.093 3.33416 -0.817849 0
M  V30 7374 C 685.179 3.77043 -1.94163 0
M  V30 7375 N 685.57 3.92805 -3.18651 0
M  V30 7376 C 683.868 4.06407 -1.8371 0
M  V30 7377 C 684.569 4.29746 -3.92038 0
M  V30 7378 N 683.545 4.3939 -3.20059 0
M  V30 7379 H 687.347 2.08411 -2.07225 0
M  V30 7380 H 684.861 1.07845 -1.21421 0
M  V30 7381 H 686.858 4.11405 -0.674668 0
M  V30 7382 H 685.518 3.24484 0.118344 0
M  V30 7383 H 686.529 3.78042 -3.53984 0
M  V30 7384 H 683.206 4.05972 -0.974331 0
M  V30 7385 H 684.596 4.49695 -4.99223 0
M  V30 7386 N 687.317 1.12792 1.10072 0
M  V30 7387 C 688.542 0.908838 1.86427 0
M  V30 7388 C 688.967 -0.536793 1.80278 0
M  V30 7389 O 688.325 -1.38033 1.17543 0
M  V30 7390 C 688.373 1.39295 3.3261 0
M  V30 7391 O 687.477 0.573846 4.08388 0
M  V30 7392 H 686.818 0.326234 0.578331 0
M  V30 7393 H 689.348 1.50094 1.39043 0
M  V30 7394 H 689.358 1.39366 3.83459 0
M  V30 7395 H 688.033 2.44555 3.36401 0
M  V30 7396 H 686.61 0.640438 3.67359 0
M  V30 7397 N 688.795 -1.27931 0.920396 0
M  V30 7398 C 689.742 -2.27085 0.412422 0
M  V30 7399 C 690.712 -1.57858 -0.516725 0
M  V30 7400 O 691.897 -1.85717 -0.437475 0
M  V30 7401 C 689.037 -3.43466 -0.335399 0
M  V30 7402 C 688.15 -4.27425 0.627017 0
M  V30 7403 C 687.285 -5.31016 -0.139916 0
M  V30 7404 C 686.324 -6.06641 0.815683 0
M  V30 7405 N 685.461 -7.02052 0.0818439 0
M  V30 7406 H 690.301 -2.69913 1.26298 0
M  V30 7407 H 687.838 -1.32732 0.634076 0
M  V30 7408 H 689.796 -4.09744 -0.785226 0
M  V30 7409 H 688.426 -3.01611 -1.15025 0
M  V30 7410 H 687.478 -3.6113 1.19537 0
M  V30 7411 H 688.79 -4.79969 1.35763 0
M  V30 7412 H 687.944 -6.03208 -0.649998 0
M  V30 7413 H 686.683 -4.79257 -0.903543 0
M  V30 7414 H 685.688 -5.33294 1.33708 0
M  V30 7415 H 686.913 -6.60489 1.57897 0
M  V30 7416 H 684.859 -6.52634 -0.663671 0
M  V30 7417 H 684.776 -7.52249 0.752163 0
M  V30 7418 H 686.044 -7.78432 -0.407825 0
M  V30 7419 N 690.273 -0.685099 -1.4193 0
M  V30 7420 C 691.521 -0.21124 -2.00993 0
M  V30 7421 C 691.842 1.18985 -1.54491 0
M  V30 7422 O 691.112 1.8009 -0.771 0
M  V30 7423 H 689.692 -0.0751059 -0.743215 0
M  V30 7424 H 692.354 -0.883915 -1.73704 0
M  V30 7425 H 691.45 -0.220513 -3.1132 0
M  V30 7426 N 691.751 1.51645 -0.429126 0
M  V30 7427 C 693 2.01203 0.141538 0
M  V30 7428 C 693.313 1.31828 1.44502 0
M  V30 7429 O 694.519 1.7231 2.09813 0
M  V30 7430 C 692.975 3.58624 0.302786 0
M  V30 7431 C 692.583 4.3693 -0.989775 0
M  V30 7432 C 694.327 4.16353 0.827661 0
M  V30 7433 C 692.234 5.86037 -0.794619 0
M  V30 7434 H 691.164 0.751867 0.05667 0
M  V30 7435 H 693.815 1.74822 -0.557633 0
M  V30 7436 H 692.197 3.81417 1.06476 0
M  V30 7437 H 693.371 4.25887 -1.75945 0
M  V30 7438 H 691.686 3.90614 -1.44256 0
M  V30 7439 H 694.283 5.25455 0.990026 0
M  V30 7440 H 694.626 3.74995 1.80787 0
M  V30 7441 H 695.159 3.97606 0.124213 0
M  V30 7442 H 691.898 6.31792 -1.74697 0
M  V30 7443 H 691.418 5.99765 -0.0645968 0
M  V30 7444 H 693.097 6.45471 -0.444591 0
M  V30 7445 N 693.229 0.160201 1.56784 0
M  V30 7446 C 694.478 -0.487619 1.95717 0
M  V30 7447 C 694.791 -1.65136 1.0483 0
M  V30 7448 O 695.997 -2.36468 1.33398 0
M  V30 7449 C 694.453 -0.91888 3.47972 0
M  V30 7450 C 694.061 0.218655 4.47466 0
M  V30 7451 C 695.805 -1.53575 3.95746 0
M  V30 7452 C 693.712 -0.231614 5.90946 0
M  V30 7453 H 692.642 -0.185939 0.730714 0
M  V30 7454 H 695.293 0.246657 1.81835 0
M  V30 7455 H 693.675 -1.70881 3.57234 0
M  V30 7456 H 694.849 0.995825 4.49911 0
M  V30 7457 H 693.164 0.744767 4.09685 0
M  V30 7458 H 695.761 -1.88448 5.00391 0
M  V30 7459 H 696.104 -2.42959 3.38048 0
M  V30 7460 H 696.637 -0.810467 3.89456 0
M  V30 7461 H 693.376 0.62718 6.52493 0
M  V30 7462 H 692.896 -0.974379 5.91833 0
M  V30 7463 H 694.575 -0.67922 6.43425 0
M  V30 7464 N 694.707 -1.5719 -0.113559 0
M  V30 7465 C 695.937 -1.89053 -0.833212 0
M  V30 7466 C 696.345 -0.750139 -1.73694 0
M  V30 7467 O 695.688 0.287808 -1.81431 0
M  V30 7468 C 695.75 -3.15986 -1.71443 0
M  V30 7469 C 695.414 -4.46271 -0.984449 0
M  V30 7470 C 696.411 -5.18897 -0.322741 0
M  V30 7471 C 694.096 -4.92963 -0.964011 0
M  V30 7472 C 696.09 -6.3644 0.349646 0
M  V30 7473 C 693.777 -6.10422 -0.287828 0
M  V30 7474 C 694.775 -6.82009 0.36784 0
M  V30 7475 O 694.463 -7.97233 1.03322 0
M  V30 7476 H 694.195 -0.630225 -0.244526 0
M  V30 7477 H 696.749 -2.05152 -0.100847 0
M  V30 7478 H 694.979 -2.95984 -2.48858 0
M  V30 7479 H 696.668 -3.33826 -2.309 0
M  V30 7480 H 697.434 -4.83875 -0.330114 0
M  V30 7481 H 693.313 -4.37143 -1.46379 0
M  V30 7482 H 696.857 -6.92254 0.861996 0
M  V30 7483 H 692.754 -6.449 -0.278237 0
M  V30 7484 H 693.522 -8.13105 0.938247 0
M  V30 7485 N 696.185 0.383891 -1.52853 0
M  V30 7486 C 697.601 0.724316 -1.42218 0
M  V30 7487 C 697.801 1.93943 -0.546654 0
M  V30 7488 O 696.857 2.5249 -0.0220562 0
M  V30 7489 C 698.17 0.954635 -2.85144 0
M  V30 7490 C 699.718 1.05579 -2.94656 0
M  V30 7491 C 700.193 1.3187 -4.38605 0
M  V30 7492 N 701.684 1.38681 -4.41952 0
M  V30 7493 C 702.419 1.60699 -5.50421 0
M  V30 7494 N 701.915 1.80154 -6.68967 0
M  V30 7495 N 703.708 1.6292 -5.37972 0
M  V30 7496 H 695.859 -0.4156 -2.08294 0
M  V30 7497 H 698.122 -0.123776 -0.939885 0
M  V30 7498 H 697.828 0.133829 -3.51445 0
M  V30 7499 H 697.702 1.86788 -3.27704 0
M  V30 7500 H 700.089 1.86716 -2.2852 0
M  V30 7501 H 700.17 0.120338 -2.55517 0
M  V30 7502 H 699.814 0.512416 -5.05309 0
M  V30 7503 H 699.744 2.26708 -4.75301 0
M  V30 7504 H 702.235 1.25334 -3.56511 0
M  V30 7505 H 702.548 1.96476 -7.47407 0
M  V30 7506 H 700.893 1.77368 -6.71986 0
M  V30 7507 H 704.084 1.47276 -4.44328 0
M  V30 7508 H 704.257 1.79739 -6.22574 0
M  V30 7509 N 697.663 1.43903 0.642637 0
M  V30 7510 C 698.94 1.36556 1.40043 0
M  V30 7511 C 699.32 0.0185588 2.11092 0
M  V30 7512 O 698.668 -0.998438 2.05532 0
M  V30 7513 C 698.878 2.55596 2.37638 0
M  V30 7514 C 700.226 2.99153 3.01318 0
M  V30 7515 O 701.25 2.55719 2.47965 0
M  V30 7516 O 700.109 3.74427 3.98078 0
M  V30 7517 H 697.203 0.540189 0.626198 0
M  V30 7518 H 699.749 1.55971 0.668657 0
M  V30 7519 H 698.521 3.45256 1.84158 0
M  V30 7520 H 698.144 2.38334 3.18249 0
M  V30 7521 N 699.141 -0.881989 1.30609 0
M  V30 7522 C 700.071 -2.00413 1.1982 0
M  V30 7523 C 701.052 -1.69871 0.0881538 0
M  V30 7524 O 702.237 -1.92304 0.2707 0
M  V30 7525 C 699.367 -3.35641 0.89233 0
M  V30 7526 C 698.321 -3.80451 1.96064 0
M  V30 7527 C 697.647 -5.13003 1.5077 0
M  V30 7528 C 698.947 -3.98855 3.37213 0
M  V30 7529 H 700.641 -2.09698 2.13699 0
M  V30 7530 H 698.187 -1.00754 1.02882 0
M  V30 7531 H 700.14 -4.13669 0.803497 0
M  V30 7532 H 698.864 -3.26497 -0.0821381 0
M  V30 7533 H 697.523 -3.04654 2.03916 0
M  V30 7534 H 697.171 -5.0029 0.521417 0
M  V30 7535 H 696.871 -5.43956 2.22229 0
M  V30 7536 H 698.395 -5.93554 1.43271 0
M  V30 7537 H 699.809 -4.67312 3.32103 0
M  V30 7538 H 698.206 -4.41188 4.06784 0
M  V30 7539 H 699.276 -3.02614 3.78883 0
M  V30 7540 N 700.619 -1.13374 -1.09472 0
M  V30 7541 C 701.566 -0.810682 -2.16094 0
M  V30 7542 C 702.536 0.227003 -1.64541 0
M  V30 7543 O 703.721 0.0993538 -1.90541 0
M  V30 7544 C 700.861 -0.282336 -3.43943 0
M  V30 7545 C 699.974 -1.37902 -4.09398 0
M  V30 7546 C 699.109 -0.809066 -5.25002 0
M  V30 7547 C 698.148 -1.88419 -5.82379 0
M  V30 7548 N 697.285 -1.33221 -6.89345 0
M  V30 7549 H 702.125 -1.72397 -2.43071 0
M  V30 7550 H 699.662 -0.860564 -1.19301 0
M  V30 7551 H 701.62 0.0421189 -4.17179 0
M  V30 7552 H 700.25 0.594083 -3.17286 0
M  V30 7553 H 699.302 -1.82008 -3.34032 0
M  V30 7554 H 700.614 -2.19161 -4.48074 0
M  V30 7555 H 699.768 -0.435867 -6.05132 0
M  V30 7556 H 698.507 0.0346058 -4.87688 0
M  V30 7557 H 697.512 -2.26646 -5.00911 0
M  V30 7558 H 698.737 -2.73125 -6.21755 0
M  V30 7559 H 696.683 -0.510535 -6.5401 0
M  V30 7560 H 696.6 -2.08129 -7.26786 0
M  V30 7561 H 697.868 -0.986565 -7.73232 0
M  V30 7562 N 702.098 1.27442 -0.927168 0
M  V30 7563 C 703.028 2.29256 -0.443188 0
M  V30 7564 C 704.009 1.62701 0.49624 0
M  V30 7565 O 705.194 1.90013 0.401105 0
M  V30 7566 C 702.324 3.45955 0.305366 0
M  V30 7567 C 701.278 4.24501 -0.546178 0
M  V30 7568 C 700.604 5.33671 0.331512 0
M  V30 7569 C 701.904 4.89921 -1.81037 0
M  V30 7570 H 703.598 2.69988 -1.29409 0
M  V30 7571 H 701.144 1.29792 -0.623705 0
M  V30 7572 H 703.097 4.1628 0.654885 0
M  V30 7573 H 701.821 3.04138 1.19029 0
M  V30 7574 H 700.48 3.55921 -0.878398 0
M  V30 7575 H 700.128 4.88096 1.21537 0
M  V30 7576 H 699.828 5.87131 -0.234746 0
M  V30 7577 H 701.352 6.0684 0.676614 0
M  V30 7578 H 702.766 5.52536 -1.52895 0
M  V30 7579 H 701.163 5.53436 -2.32009 0
M  V30 7580 H 702.233 4.13652 -2.53021 0
M  V30 7581 N 703.576 0.692616 1.41565 0
M  V30 7582 C 704.853 0.150496 1.9502 0
M  V30 7583 C 705.233 -1.33881 1.63215 0
M  V30 7584 O 704.581 -2.08378 0.937598 0
M  V30 7585 C 704.791 0.438636 3.46233 0
M  V30 7586 C 706.139 0.364777 4.2303 0
M  V30 7587 O 707.163 0.373383 3.54238 0
M  V30 7588 O 706.022 0.32234 5.45549 0
M  V30 7589 H 703.116 0.0132454 0.826894 0
M  V30 7590 H 705.662 0.768574 1.51298 0
M  V30 7591 H 704.434 1.46962 3.62654 0
M  V30 7592 H 704.057 -0.210562 3.97042 0
M  V30 7593 N 705.054 -1.51416 0.437162 0
M  V30 7594 C 706.002 -2.29328 -0.388765 0
M  V30 7595 C 706.996 -1.35171 -1.02104 0
M  V30 7596 O 708.202 -1.52513 -0.956024 0
M  V30 7597 H 704.577 -0.738048 -0.144183 0
M  V30 7598 H 706.548 -2.96995 0.289212 0
M  V30 7599 C 705.297 -3.14741 -1.47761 0
M  V30 7600 H 704.62 -3.8708 -1.00045 0
M  V30 7601 H 706.06 -3.72313 -2.02877 0
M  V30 7602 C 704.519 -2.30105 -2.46076 0
M  V30 7603 O 705.049 -1.96055 -3.50607 0
M  V30 7604 N 703.255 -1.93331 -2.1696 0
M  V30 7605 H 702.802 -2.2122 -1.31983 0
M  V30 7606 H 702.76 -1.36999 -2.82982 0
M  V30 7607 N 706.532 -0.168513 -1.56696 0
M  V30 7608 C 707.778 0.477865 -1.9709 0
M  V30 7609 C 708.111 1.63084 -1.05438 0
M  V30 7610 O 707.386 1.94238 -0.10095 0
M  V30 7611 C 707.669 0.963521 -3.4697 0
M  V30 7612 C 707.522 -0.189443 -4.49401 0
M  V30 7613 C 708.841 1.83813 -3.99876 0
M  V30 7614 H 705.96 0.172229 -0.716593 0
M  V30 7615 H 708.602 -0.254083 -1.88293 0
M  V30 7616 H 706.752 1.58724 -3.54597 0
M  V30 7617 H 708.424 -0.826451 -4.53836 0
M  V30 7618 H 706.667 -0.845366 -4.25483 0
M  V30 7619 H 707.338 0.192446 -5.51664 0
M  V30 7620 H 709.814 1.31235 -3.94863 0
M  V30 7621 H 708.69 2.14697 -5.0517 0
M  V30 7622 H 708.951 2.78289 -3.43523 0
M  V30 7623 N 708.01 1.57248 0.105221 0
M  V30 7624 C 708.94 2.04374 1.12931 0
M  V30 7625 C 709.921 0.93074 1.42377 0
M  V30 7626 O 711.106 1.20136 1.52581 0
M  V30 7627 C 708.236 2.45967 2.45189 0
M  V30 7628 C 707.19 3.60838 2.30174 0
M  V30 7629 C 706.516 3.88374 3.67518 0
M  V30 7630 C 707.816 4.92084 1.75073 0
M  V30 7631 H 709.51 2.9018 0.737287 0
M  V30 7632 H 707.056 1.39601 0.353211 0
M  V30 7633 H 709.009 2.77542 3.17094 0
M  V30 7634 H 707.733 1.57148 2.86308 0
M  V30 7635 H 706.392 3.29493 1.60716 0
M  V30 7636 H 706.04 2.96739 4.06147 0
M  V30 7637 H 705.74 4.65703 3.58321 0
M  V30 7638 H 707.264 4.22415 4.40906 0
M  V30 7639 H 708.678 5.22106 2.36809 0
M  V30 7640 H 707.075 5.73507 1.76662 0
M  V30 7641 H 708.145 4.79684 0.709347 0
M  V30 7642 N 709.488 -0.375779 1.53054 0
M  V30 7643 C 710.418 -1.46598 1.81745 0
M  V30 7644 C 711.399 -1.56337 0.670286 0
M  V30 7645 O 712.584 -1.71071 0.919158 0
M  V30 7646 C 709.714 -2.84058 1.99821 0
M  V30 7647 C 708.668 -2.8915 3.15557 0
M  V30 7648 C 707.994 -4.29187 3.18908 0
M  V30 7649 C 709.294 -2.57595 4.54359 0
M  V30 7650 H 710.988 -1.22837 2.73041 0
M  V30 7651 H 708.534 -0.589485 1.31381 0
M  V30 7652 H 710.487 -3.60342 2.18475 0
M  V30 7653 H 709.211 -3.09184 1.05226 0
M  V30 7654 H 707.87 -2.15316 2.96706 0
M  V30 7655 H 707.518 -4.51374 2.2197 0
M  V30 7656 H 707.218 -4.33512 3.96662 0
M  V30 7657 H 708.742 -5.07359 3.39734 0
M  V30 7658 H 710.156 -3.23595 4.73243 0
M  V30 7659 H 708.553 -2.73252 5.34279 0
M  V30 7660 H 709.623 -1.52882 4.60169 0
M  V30 7661 N 710.966 -1.44241 -0.634997 0
M  V30 7662 C 712.243 -1.37296 -1.39317 0
M  V30 7663 C 712.623 -0.0297532 -2.11079 0
M  V30 7664 O 711.971 0.987524 -2.06059 0
M  V30 7665 C 712.181 -2.56853 -2.36279 0
M  V30 7666 C 713.529 -3.00747 -2.99728 0
M  V30 7667 O 714.553 -2.5703 -2.46605 0
M  V30 7668 O 713.412 -3.76533 -3.96087 0
M  V30 7669 H 710.506 -0.543503 -0.623325 0
M  V30 7670 H 713.052 -1.56324 -0.660376 0
M  V30 7671 H 711.824 -3.46228 -1.82324 0
M  V30 7672 H 711.447 -2.40019 -3.16981 0
M  V30 7673 N 712.444 0.87505 -1.31075 0
M  V30 7674 C 713.86 1.15997 -1.09622 0
M  V30 7675 C 714.06 2.01036 0.136611 0
M  V30 7676 O 713.116 2.38559 0.827397 0
M  V30 7677 C 714.429 1.85702 -2.36506 0
M  V30 7678 C 715.977 1.98425 -2.42067 0
M  V30 7679 C 716.452 2.71544 -3.68819 0
M  V30 7680 N 717.943 2.79084 -3.69684 0
M  V30 7681 C 718.678 3.36259 -4.64454 0
M  V30 7682 N 718.174 3.94406 -5.69575 0
M  V30 7683 N 719.967 3.34169 -4.51982 0
M  V30 7684 H 712.118 0.308258 -2.10151 0
M  V30 7685 H 714.381 0.199145 -0.926847 0
M  V30 7686 H 714.087 1.30663 -3.26527 0
M  V30 7687 H 713.961 2.86017 -2.45915 0
M  V30 7688 H 716.348 2.5263 -1.52518 0
M  V30 7689 H 716.429 0.971682 -2.36626 0
M  V30 7690 H 716.073 2.18008 -4.58732 0
M  V30 7691 H 716.003 3.73198 -3.71525 0
M  V30 7692 H 718.494 2.3781 -2.93691 0
M  V30 7693 H 718.807 4.36129 -6.37974 0
M  V30 7694 H 717.152 3.92797 -5.73355 0
M  V30 7695 H 720.343 2.87977 -3.69035 0
M  V30 7696 H 720.516 3.78431 -5.26017 0
M  V30 7697 N 713.922 1.13953 1.08869 0
M  V30 7698 C 715.199 0.815768 1.77777 0
M  V30 7699 C 715.579 -0.691624 1.99449 0
M  V30 7700 O 714.927 -1.63085 1.60049 0
M  V30 7701 C 715.137 1.60916 3.09689 0
M  V30 7702 C 716.485 1.80549 3.84301 0
M  V30 7703 O 717.509 1.57562 3.19457 0
M  V30 7704 O 716.368 2.18946 5.00724 0
M  V30 7705 H 713.462 0.298445 0.771271 0
M  V30 7706 H 716.008 1.24446 1.15374 0
M  V30 7707 H 714.78 2.6333 2.89435 0
M  V30 7708 H 714.403 1.17578 3.79817 0
M  V30 7709 N 715.4 -1.26948 0.933913 0
M  V30 7710 C 716.648 -1.93704 0.576484 0
M  V30 7711 C 716.969 -1.73702 -0.886145 0
M  V30 7712 O 716.239 -1.08838 -1.62884 0
M  V30 7713 H 714.819 -0.716812 0.210214 0
M  V30 7714 H 717.481 -1.54534 1.18766 0
M  V30 7715 H 716.577 -3.01987 0.788055 0
M  V30 7716 N 716.879 -0.700114 -1.41195 0
M  V30 7717 C 717.829 -0.0144098 -2.27995 0
M  V30 7718 C 718.813 0.748249 -1.42443 0
M  V30 7719 O 720.005 0.622995 -1.65674 0
M  V30 7720 C 717.134 0.917938 -3.308 0
M  V30 7721 C 716.22 0.151286 -4.2383 0
M  V30 7722 N 716.611 -0.85732 -4.98481 0
M  V30 7723 C 714.909 0.386108 -4.44326 0
M  V30 7724 C 715.61 -1.31663 -5.66604 0
M  V30 7725 N 714.586 -0.641689 -5.39799 0
M  V30 7726 H 718.388 -0.787662 -2.83149 0
M  V30 7727 H 715.902 -0.531344 -1.53462 0
M  V30 7728 H 717.899 1.42437 -3.91813 0
M  V30 7729 H 716.559 1.69074 -2.77208 0
M  V30 7730 H 717.57 -1.2377 -5.02893 0
M  V30 7731 H 714.247 1.13644 -4.01735 0
M  V30 7732 H 715.637 -2.15384 -6.36443 0
M  V30 7733 N 718.357 1.51182 -0.445186 0
M  V30 7734 C 719.606 2.01342 0.120189 0
M  V30 7735 C 719.919 1.33353 1.43095 0
M  V30 7736 O 721.125 1.74525 2.07974 0
M  V30 7737 C 719.581 3.58925 0.264732 0
M  V30 7738 C 719.189 4.35855 -1.03606 0
M  V30 7739 C 720.933 4.17208 0.783455 0
M  V30 7740 C 718.84 5.85162 -0.856731 0
M  V30 7741 H 717.77 0.752426 0.0486922 0
M  V30 7742 H 720.421 1.74221 -0.576143 0
M  V30 7743 H 718.803 3.82525 1.02425 0
M  V30 7744 H 719.977 4.23997 -1.80452 0
M  V30 7745 H 718.292 3.89062 -1.48391 0
M  V30 7746 H 720.889 5.26475 0.934239 0
M  V30 7747 H 721.232 3.76892 1.768 0
M  V30 7748 H 721.765 3.97715 0.0820346 0
M  V30 7749 H 718.504 6.29904 -1.81388 0
M  V30 7750 H 718.024 5.99663 -0.128206 0
M  V30 7751 H 719.703 6.44963 -0.513027 0
M  V30 7752 N 719.835 0.176821 1.56605 0
M  V30 7753 C 720.782 -0.751312 2.18229 0
M  V30 7754 C 721.752 -1.22297 1.12395 0
M  V30 7755 O 722.937 -1.29015 1.40569 0
M  V30 7756 C 720.077 -1.97291 2.83143 0
M  V30 7757 C 719.19 -1.54431 4.03454 0
M  V30 7758 C 718.325 -2.72 4.56278 0
M  V30 7759 C 717.364 -2.25657 5.68986 0
M  V30 7760 N 716.501 -3.36338 6.16296 0
M  V30 7761 H 721.341 -0.219033 2.97194 0
M  V30 7762 H 718.878 -0.0963803 1.46784 0
M  V30 7763 H 720.836 -2.68949 3.1894 0
M  V30 7764 H 719.466 -2.4788 2.06773 0
M  V30 7765 H 718.518 -0.724273 3.73441 0
M  V30 7766 H 719.83 -1.16417 4.85024 0
M  V30 7767 H 718.984 -3.51806 4.94285 0
M  V30 7768 H 717.723 -3.13277 3.73777 0
M  V30 7769 H 716.728 -1.44299 5.30526 0
M  V30 7770 H 717.953 -1.85432 6.53293 0
M  V30 7771 H 715.899 -3.7718 5.36723 0
M  V30 7772 H 715.816 -3.02435 6.9287 0
M  V30 7773 H 717.084 -4.16413 6.58954 0
M  V30 7774 N 721.313 -1.57302 -0.09688 0
M  V30 7775 C 722.562 -1.85183 -0.799388 0
M  V30 7776 C 722.875 -0.765818 -1.79985 0
M  V30 7777 O 724.081 -0.931696 -2.55013 0
M  V30 7778 C 722.537 -3.28399 -1.47249 0
M  V30 7779 C 722.145 -4.45066 -0.511888 0
M  V30 7780 C 723.889 -3.65506 -2.15883 0
M  V30 7781 C 721.796 -5.79315 -1.18948 0
M  V30 7782 H 720.726 -0.690752 -0.302287 0
M  V30 7783 H 723.377 -1.83425 -0.0523104 0
M  V30 7784 H 721.759 -3.24692 -2.26697 0
M  V30 7785 H 722.933 -4.60116 0.250962 0
M  V30 7786 H 721.248 -4.16343 0.0686576 0
M  V30 7787 H 723.845 -4.63087 -2.67309 0
M  V30 7788 H 724.188 -2.94041 -2.94696 0
M  V30 7789 H 724.721 -3.71094 -1.43298 0
M  V30 7790 H 721.46 -6.54007 -0.442198 0
M  V30 7791 H 720.98 -5.68111 -1.9238 0
M  V30 7792 H 722.659 -6.23816 -1.71646 0
M  V30 7793 N 722.791 0.367657 -1.53252 0
M  V30 7794 C 723.754 1.43308 -1.78873 0
M  V30 7795 C 724.754 1.46671 -0.659115 0
M  V30 7796 O 725.944 1.47468 -0.927306 0
M  V30 7797 C 723.076 2.82442 -1.90892 0
M  V30 7798 H 724.269 1.21864 -2.74024 0
M  V30 7799 H 721.822 0.600668 -1.44297 0
M  V30 7800 H 722.557 3.09202 -0.978 0
M  V30 7801 H 722.342 2.81399 -2.73051 0
M  V30 7802 H 723.832 3.59601 -2.12314 0
M  V30 7803 N 724.269 1.44576 0.627338 0
M  V30 7804 C 725.546 1.38033 1.38586 0
M  V30 7805 C 725.926 0.0409468 2.1106 0
M  V30 7806 O 725.274 -0.976582 2.0658 0
M  V30 7807 C 725.484 2.58102 2.34913 0
M  V30 7808 C 726.832 3.02332 2.98129 0
M  V30 7809 O 727.856 2.58334 2.45238 0
M  V30 7810 O 726.715 3.78628 3.94085 0
M  V30 7811 H 723.809 0.546801 0.620434 0
M  V30 7812 H 726.355 1.56672 0.652077 0
M  V30 7813 H 725.127 3.4719 1.80485 0
M  V30 7814 H 724.75 2.41696 3.15703 0
M  V30 7815 N 725.747 -0.868086 1.31537 0
M  V30 7816 C 726.994 -1.62127 1.2133 0
M  V30 7817 C 727.322 -1.93158 -0.2281 0
M  V30 7818 O 726.577 -1.5632 -1.1774 0
M  V30 7819 C 726.876 -2.95889 2.0046 0
M  V30 7820 C 726.542 -2.84343 3.49943 0
M  V30 7821 C 725.204 -2.80901 3.90702 0
M  V30 7822 C 727.556 -2.71243 4.45058 0
M  V30 7823 C 724.884 -2.6222 5.24841 0
M  V30 7824 C 727.236 -2.54098 5.79325 0
M  V30 7825 C 725.9 -2.4904 6.19302 0
M  V30 7826 H 725.17 -0.593265 0.443979 0
M  V30 7827 H 727.817 -1.00803 1.62822 0
M  V30 7828 H 726.122 -3.61259 1.51655 0
M  V30 7829 H 727.819 -3.53161 1.89942 0
M  V30 7830 H 724.409 -2.8784 3.17563 0
M  V30 7831 H 728.593 -2.72956 4.14498 0
M  V30 7832 H 723.849 -2.56731 5.54887 0
M  V30 7833 H 728.023 -2.42938 6.52652 0
M  V30 7834 H 725.65 -2.34324 7.23185 0
M  V30 7835 N 727.225 -1.14528 -1.08264 0
M  V30 7836 C 728.473 -0.912599 -1.80322 0
M  V30 7837 C 728.794 0.562256 -1.86718 0
M  V30 7838 O 728.064 1.40869 -1.36135 0
M  V30 7839 H 726.644 -0.334645 -0.667849 0
M  V30 7840 H 729.306 -1.44415 -1.30883 0
M  V30 7841 H 728.402 -1.31384 -2.83098 0
M  V30 7842 N 728.703 1.26451 -0.940633 0
M  V30 7843 C 729.636 2.24771 -0.394094 0
M  V30 7844 C 730.614 1.54169 0.516781 0
M  V30 7845 O 731.798 1.82942 0.454352 0
M  V30 7846 C 728.925 3.3591 0.433807 0
M  V30 7847 C 727.971 4.24472 -0.415464 0
M  V30 7848 S 728.804 5.0293 -1.83907 0
M  V30 7849 C 729.96 6.17546 -1.01921 0
M  V30 7850 H 730.193 2.70782 -1.22737 0
M  V30 7851 H 727.726 1.35308 -0.743709 0
M  V30 7852 H 729.684 4.00387 0.905576 0
M  V30 7853 H 728.345 2.88512 1.24175 0
M  V30 7854 H 727.538 5.03525 0.218833 0
M  V30 7855 H 727.14 3.64857 -0.821897 0
M  V30 7856 H 729.432 6.76996 -0.261227 0
M  V30 7857 H 730.375 6.8528 -1.78318 0
M  V30 7858 H 730.783 5.6176 -0.555511 0
M  V30 7859 N 730.181 0.707592 1.40822 0
M  V30 7860 C 731.421 0.247986 2.0289 0
M  V30 7861 C 731.785 -1.13484 1.54872 0
M  V30 7862 O 732.986 -1.69098 2.08948 0
M  V30 7863 C 731.257 0.316326 3.55997 0
M  V30 7864 S 732.816 -0.0674698 4.38748 0
M  V30 7865 H 729.634 0.09895 0.704081 0
M  V30 7866 H 732.236 0.928039 1.72069 0
M  V30 7867 H 730.94 1.32453 3.88438 0
M  V30 7868 H 730.471 -0.382474 3.91536 0
M  V30 7869 H 732.486 -1.29182 4.79089 0
M  V30 7870 N 731.66 -1.50943 0.453197 0
M  V30 7871 C 732.607 -2.28128 -0.350197 0
M  V30 7872 C 733.577 -1.32398 -1.00299 0
M  V30 7873 O 734.762 -1.61319 -1.01887 0
M  V30 7874 C 731.902 -3.13782 -1.43649 0
M  V30 7875 C 731.015 -4.24523 -0.800255 0
M  V30 7876 C 730.15 -4.97462 -1.86293 0
M  V30 7877 C 729.189 -6.00102 -1.20598 0
M  V30 7878 N 728.326 -6.66387 -2.21071 0
M  V30 7879 H 733.166 -2.96337 0.31434 0
M  V30 7880 H 730.703 -1.46151 0.166863 0
M  V30 7881 H 732.661 -3.6178 -2.07776 0
M  V30 7882 H 731.291 -2.47655 -2.07044 0
M  V30 7883 H 730.343 -3.80371 -0.0468651 0
M  V30 7884 H 731.655 -4.98009 -0.280777 0
M  V30 7885 H 730.809 -5.49088 -2.58044 0
M  V30 7886 H 729.548 -4.23642 -2.41617 0
M  V30 7887 H 728.553 -5.47753 -0.474 0
M  V30 7888 H 729.778 -6.75887 -0.659859 0
M  V30 7889 H 727.724 -5.9537 -2.75446 0
M  V30 7890 H 727.641 -7.3569 -1.74058 0
M  V30 7891 H 728.909 -7.22638 -2.92257 0
M  V30 7892 N 733.138 -0.185124 -1.56509 0
M  V30 7893 C 734.048 0.751908 -2.22224 0
M  V30 7894 C 735.064 1.24244 -1.21817 0
M  V30 7895 O 736.24 1.29169 -1.54523 0
M  V30 7896 C 733.305 1.95837 -2.86092 0
M  V30 7897 C 732.366 1.51337 -4.01741 0
M  V30 7898 C 731.599 2.66233 -4.62554 0
M  V30 7899 O 731.822 3.8346 -4.22273 0
M  V30 7900 O 730.756 2.39517 -5.52191 0
M  V30 7901 H 734.582 0.222304 -3.02885 0
M  V30 7902 H 732.167 0.0437141 -1.49336 0
M  V30 7903 H 734.049 2.66368 -3.26536 0
M  V30 7904 H 732.724 2.47677 -2.08417 0
M  V30 7905 H 731.631 0.777155 -3.65939 0
M  V30 7906 H 732.964 1.04175 -4.81049 0
M  V30 7907 N 734.616 1.57351 0.0885366 0
M  V30 7908 C 735.564 2.03542 1.12576 0
M  V30 7909 C 736.558 0.937668 1.41082 0
M  V30 7910 O 737.764 1.12283 1.40686 0
M  V30 7911 H 734.139 0.648752 0.380296 0
M  V30 7912 H 736.11 2.89833 0.709906 0
M  V30 7913 C 734.859 2.4811 2.43591 0
M  V30 7914 H 734.182 3.32164 2.22502 0
M  V30 7915 H 735.622 2.842 3.14653 0
M  V30 7916 C 734.081 1.35708 3.08359 0
M  V30 7917 O 734.611 0.689852 3.95732 0
M  V30 7918 N 732.817 1.10641 2.68713 0
M  V30 7919 H 732.364 1.6508 1.97753 0
M  V30 7920 H 732.322 0.356355 3.12374 0
M  V30 7921 N 736.094 -0.359525 1.53444 0
M  V30 7922 C 737.343 -1.09886 1.69139 0
M  V30 7923 C 737.656 -1.90285 0.452863 0
M  V30 7924 O 738.862 -2.67033 0.490459 0
M  V30 7925 C 737.318 -2.0028 2.99025 0
M  V30 7926 C 736.926 -1.25164 4.30161 0
M  V30 7927 C 738.67 -2.74168 3.24086 0
M  V30 7928 C 736.577 -2.14494 5.51132 0
M  V30 7929 H 735.507 -0.413936 0.630217 0
M  V30 7930 H 738.158 -0.359434 1.79945 0
M  V30 7931 H 736.54 -2.77978 2.82036 0
M  V30 7932 H 737.714 -0.524867 4.57801 0
M  V30 7933 H 736.029 -0.631116 4.11589 0
M  V30 7934 H 738.626 -3.41243 4.11652 0
M  V30 7935 H 738.969 -3.39868 2.40407 0
M  V30 7936 H 739.502 -2.0355 3.41778 0
M  V30 7937 H 736.241 -1.53362 6.37307 0
M  V30 7938 H 735.761 -2.85004 5.27762 0
M  V30 7939 H 737.44 -2.73914 5.86157 0
M  V30 7940 N 737.572 -1.44907 -0.619662 0
M  V30 7941 C 738.819 -1.48292 -1.37898 0
M  V30 7942 C 739.147 -0.119933 -1.9413 0
M  V30 7943 O 738.402 0.879834 -1.74807 0
M  V30 7944 C 738.701 -2.50002 -2.55409 0
M  V30 7945 C 738.367 -3.95031 -2.17397 0
M  V30 7946 C 737.029 -4.34524 -2.06743 0
M  V30 7947 C 739.381 -4.86287 -1.87548 0
M  V30 7948 C 736.709 -5.63183 -1.64445 0
M  V30 7949 C 739.061 -6.15346 -1.4674 0
M  V30 7950 C 737.725 -6.53781 -1.34636 0
M  V30 7951 H 736.995 -0.542638 -0.504603 0
M  V30 7952 H 739.642 -1.78186 -0.701581 0
M  V30 7953 H 737.947 -2.13634 -3.28433 0
M  V30 7954 H 739.644 -2.49864 -3.13639 0
M  V30 7955 H 736.234 -3.63793 -2.26611 0
M  V30 7956 H 740.418 -4.56522 -1.94682 0
M  V30 7957 H 735.674 -5.91769 -1.53687 0
M  V30 7958 H 739.848 -6.85508 -1.22685 0
M  V30 7959 H 737.475 -7.53375 -1.01634 0
M  V30 7960 N 739.05 0.861098 -1.31996 0
M  V30 7961 C 740.298 1.61162 -1.21947 0
M  V30 7962 C 740.619 1.93751 0.220351 0
M  V30 7963 O 739.889 1.59069 1.14341 0
M  V30 7964 H 738.469 0.597485 -0.448353 0
M  V30 7965 H 741.131 1.03039 -1.65436 0
M  V30 7966 H 740.227 2.55138 -1.79752 0
M  V30 7967 N 740.528 1.15101 1.07655 0
M  V30 7968 C 741.438 0.858869 2.18313 0
M  V30 7969 C 742.454 -0.163641 1.73229 0
M  V30 7970 O 743.63 0.00969541 2.01398 0
M  V30 7971 C 740.695 0.34893 3.4494 0
M  V30 7972 C 739.756 1.43495 4.04608 0
M  V30 7973 C 738.989 0.949253 5.2519 0
M  V30 7974 O 739.212 -0.20636 5.70027 0
M  V30 7975 O 738.146 1.73161 5.76454 0
M  V30 7976 H 741.972 1.78386 2.45788 0
M  V30 7977 H 739.557 0.929876 1.16934 0
M  V30 7978 H 741.439 0.070851 4.2134 0
M  V30 7979 H 740.114 -0.548237 3.19024 0
M  V30 7980 H 739.021 1.7666 3.29761 0
M  V30 7981 H 740.354 2.30692 4.3479 0
M  V30 7982 N 742.006 -1.2595 0.947325 0
M  V30 7983 C 743.231 -1.98083 0.614633 0
M  V30 7984 C 743.656 -1.70013 -0.804815 0
M  V30 7985 O 743.014 -0.95175 -1.54309 0
M  V30 7986 C 743.062 -3.4993 0.870706 0
M  V30 7987 O 742.166 -4.12364 -0.0541451 0
M  V30 7988 H 741.507 -0.621232 0.234451 0
M  V30 7989 H 744.037 -1.60259 1.27193 0
M  V30 7990 H 744.047 -4.00198 0.794051 0
M  V30 7991 H 742.722 -3.69691 1.90529 0
M  V30 7992 H 741.299 -3.72826 0.0740917 0
M  V30 7993 N 743.484 -0.715051 -1.40445 0
M  V30 7994 C 744.9 -0.388555 -1.54798 0
M  V30 7995 C 745.1 1.10271 -1.68649 0
M  V30 7996 O 744.156 1.88875 -1.67578 0
M  V30 7997 C 745.469 -1.15414 -2.77669 0
M  V30 7998 C 747.017 -1.14039 -2.91486 0
M  V30 7999 C 747.492 -1.88812 -4.1727 0
M  V30 8000 N 748.983 -1.85878 -4.24268 0
M  V30 8001 C 749.718 -2.40558 -5.20499 0
M  V30 8002 N 749.214 -3.03791 -6.22642 0
M  V30 8003 N 751.007 -2.30703 -5.12574 0
M  V30 8004 H 743.158 -1.68201 -1.297 0
M  V30 8005 H 745.421 -0.710915 -0.627139 0
M  V30 8006 H 745.127 -2.20853 -2.7371 0
M  V30 8007 H 745.001 -0.745412 -3.69761 0
M  V30 8008 H 747.388 -0.0941996 -2.9495 0
M  V30 8009 H 747.469 -1.58834 -2.00513 0
M  V30 8010 H 747.113 -2.93422 -4.14568 0
M  V30 8011 H 747.043 -1.41438 -5.0725 0
M  V30 8012 H 749.534 -1.39794 -3.51093 0
M  V30 8013 H 749.847 -3.43032 -6.92495 0
M  V30 8014 H 748.192 -3.07875 -6.23087 0
M  V30 8015 H 751.383 -1.80961 -4.31707 0
M  V30 8016 H 751.556 -2.73618 -5.87398 0
M  V30 8017 N 744.962 1.50701 -0.461195 0
M  V30 8018 C 745.925 2.2686 0.326679 0
M  V30 8019 C 746.925 1.31243 0.929085 0
M  V30 8020 O 748.115 1.54754 0.799807 0
M  V30 8021 C 745.247 3.07844 1.46441 0
M  V30 8022 H 746.44 2.97954 -0.341095 0
M  V30 8023 H 743.993 1.54814 -0.214984 0
M  V30 8024 H 744.728 2.41223 2.16753 0
M  V30 8025 H 744.513 3.78101 1.03836 0
M  V30 8026 H 746.003 3.65469 2.02044 0
M  V30 8027 N 746.441 0.193421 1.56409 0
M  V30 8028 C 747.666 -0.454552 2.02358 0
M  V30 8029 C 748.091 -1.54516 1.07268 0
M  V30 8030 O 747.449 -1.81214 0.0558962 0
M  V30 8031 C 747.497 -0.989469 3.46759 0
M  V30 8032 O 746.601 -2.10244 3.54783 0
M  V30 8033 H 745.942 -0.106417 0.655417 0
M  V30 8034 H 748.472 0.303807 2.02332 0
M  V30 8035 H 748.482 -1.30649 3.86516 0
M  V30 8036 H 747.157 -0.191083 4.15461 0
M  V30 8037 H 745.734 -1.79419 3.26899 0
M  V30 8038 N 747.919 -1.57396 -0.0801906 0
M  V30 8039 C 749.147 -1.91055 -0.794075 0
M  V30 8040 C 749.562 -0.788583 -1.71542 0
M  V30 8041 O 748.919 0.238587 -1.80934 0
M  V30 8042 C 748.97 -3.24418 -1.59484 0
M  V30 8043 O 748.691 -4.323 -0.710532 0
M  V30 8044 C 750.192 -3.72037 -2.41046 0
M  V30 8045 H 747.412 -0.63171 -0.226238 0
M  V30 8046 H 749.956 -2.04431 -0.0529685 0
M  V30 8047 H 748.111 -3.12595 -2.2883 0
M  V30 8048 H 748.525 -5.08976 -1.26663 0
M  V30 8049 H 749.999 -4.68006 -2.92702 0
M  V30 8050 H 750.476 -3.00624 -3.2019 0
M  V30 8051 H 751.082 -3.86777 -1.76871 0
M  V30 8052 N 749.397 0.351382 -1.53633 0
M  V30 8053 C 750.644 1.0925 -1.70502 0
M  V30 8054 C 750.972 1.88881 -0.464123 0
M  V30 8055 O 750.227 1.87693 0.554077 0
M  V30 8056 C 750.526 2.06744 -2.91533 0
M  V30 8057 C 750.192 1.43484 -4.27461 0
M  V30 8058 C 748.854 1.2596 -4.64422 0
M  V30 8059 C 751.206 0.978436 -5.11934 0
M  V30 8060 C 748.534 0.614017 -5.83478 0
M  V30 8061 C 750.886 0.346795 -6.31649 0
M  V30 8062 C 749.55 0.15917 -6.6731 0
M  V30 8063 H 748.82 0.399773 -0.623909 0
M  V30 8064 H 751.467 0.372656 -1.87839 0
M  V30 8065 H 749.772 2.85082 -2.68767 0
M  V30 8066 H 751.469 2.64066 -3.01778 0
M  V30 8067 H 748.059 1.5812 -3.98367 0
M  V30 8068 H 752.243 1.1017 -4.83918 0
M  V30 8069 H 747.499 0.457194 -6.09688 0
M  V30 8070 H 751.673 -0.0149864 -6.96398 0
M  V30 8071 H 749.3 -0.343129 -7.59425 0
M  V30 8072 N 750.875 1.45233 0.611969 0
M  V30 8073 C 752.115 1.50558 1.38245 0
M  V30 8074 C 752.479 0.141959 1.91474 0
M  V30 8075 O 753.68 0.0698926 2.68709 0
M  V30 8076 C 751.951 2.55136 2.50281 0
M  V30 8077 S 753.51 2.79652 3.38142 0
M  V30 8078 H 750.328 0.532281 0.471378 0
M  V30 8079 H 752.93 1.82285 0.706578 0
M  V30 8080 H 751.634 3.52888 2.09518 0
M  V30 8081 H 751.165 2.25045 3.22674 0
M  V30 8082 H 753.18 2.12699 4.48301 0
M  V30 8083 N 752.353 -0.854086 1.3245 0
M  V30 8084 C 753.601 -1.60513 1.228 0
M  V30 8085 C 753.922 -1.93865 -0.210073 0
M  V30 8086 O 753.192 -1.59673 -1.13496 0
M  V30 8087 H 751.772 -0.595099 0.451516 0
M  V30 8088 H 754.434 -1.0216 1.6598 0
M  V30 8089 H 753.53 -2.54182 1.81102 0
M  V30 8090 N 753.831 -1.1567 -1.07043 0
M  V30 8091 C 755.059 -0.957471 -1.83412 0
M  V30 8092 C 755.474 0.494271 -1.82215 0
M  V30 8093 O 754.831 1.34288 -1.23584 0
M  V30 8094 C 754.882 -1.46784 -3.30359 0
M  V30 8095 O 754.603 -2.86271 -3.31633 0
M  V30 8096 C 756.104 -1.31054 -4.23485 0
M  V30 8097 H 753.324 -0.33986 -0.578564 0
M  V30 8098 H 755.868 -1.53518 -1.35102 0
M  V30 8099 H 754.023 -0.932586 -3.76007 0
M  V30 8100 H 754.437 -3.0948 -4.23465 0
M  V30 8101 H 755.911 -1.71605 -5.24648 0
M  V30 8102 H 756.388 -0.255107 -4.38458 0
M  V30 8103 H 756.994 -1.83503 -3.83676 0
M  V30 8104 N 755.309 1.25446 -0.953992 0
M  V30 8105 C 756.72 1.75047 -0.649255 0
M  V30 8106 C 757.071 1.77527 0.835385 0
M  V30 8107 O 756.196 1.39569 1.65377 0
M  V30 8108 C 756.791 3.17889 -1.17183 0
M  V30 8109 C 755.35 3.65052 -0.917267 0
M  V30 8110 C 754.497 2.44124 -1.31525 0
M  V30 8111 H 757.448 1.11342 -1.13087 0
M  V30 8112 H 757.469 3.76768 -0.531616 0
M  V30 8113 H 756.981 3.16052 -2.25239 0
M  V30 8114 H 755.082 3.72305 0.148354 0
M  V30 8115 H 755.195 4.53222 -1.55328 0
M  V30 8116 H 753.559 2.43906 -0.733624 0
M  V30 8117 H 754.342 2.44979 -2.405 0
M  V30 8118 N 756.787 0.722489 1.40064 0
M  V30 8119 C 758.064 0.191829 1.94657 0
M  V30 8120 C 758.444 -1.30389 1.66018 0
M  V30 8121 O 757.792 -2.06342 0.981588 0
M  V30 8122 C 758.002 0.511978 3.45224 0
M  V30 8123 C 759.35 0.454426 4.22161 0
M  V30 8124 O 760.374 0.448438 3.53366 0
M  V30 8125 O 759.233 0.437986 5.44742 0
M  V30 8126 H 756.327 0.0307821 0.826427 0
M  V30 8127 H 758.873 0.800493 1.49634 0
M  V30 8128 H 757.645 1.54622 3.59455 0
M  V30 8129 H 757.268 -0.126296 3.97399 0
M  V30 8130 N 758.265 -1.50454 0.469181 0
M  V30 8131 C 759.495 -2.06429 -0.0840913 0
M  V30 8132 C 759.903 -1.3334 -1.34227 0
M  V30 8133 O 759.246 -0.395656 -1.79389 0
M  V30 8134 C 759.308 -3.56797 -0.440049 0
M  V30 8135 C 758.972 -4.51359 0.715838 0
M  V30 8136 C 759.969 -4.94754 1.59732 0
M  V30 8137 C 757.654 -4.94069 0.905621 0
M  V30 8138 C 759.648 -5.79564 2.653 0
M  V30 8139 C 757.335 -5.78662 1.96453 0
M  V30 8140 C 758.333 -6.21311 2.83658 0
M  V30 8141 O 758.021 -7.04218 3.87727 0
M  V30 8142 H 757.753 -0.675994 0.00289751 0
M  V30 8143 H 760.307 -1.94629 0.656417 0
M  V30 8144 H 758.537 -3.66492 -1.23372 0
M  V30 8145 H 760.226 -3.95145 -0.928181 0
M  V30 8146 H 760.992 -4.62428 1.46237 0
M  V30 8147 H 756.871 -4.60394 0.236326 0
M  V30 8148 H 760.415 -6.12774 3.33398 0
M  V30 8149 H 756.312 -6.10401 2.09955 0
M  V30 8150 H 757.08 -7.22464 3.84692 0
M  V30 8151 N 759.743 -0.201713 -1.56304 0
M  V30 8152 C 760.992 0.435557 -1.96941 0
M  V30 8153 C 761.305 1.62299 -1.09172 0
M  V30 8154 O 762.511 2.32849 -1.3962 0
M  V30 8155 C 760.967 0.826298 -3.50286 0
M  V30 8156 C 760.575 -0.337216 -4.46729 0
M  V30 8157 C 762.319 1.43028 -3.99679 0
M  V30 8158 C 760.226 0.0748539 -5.91353 0
M  V30 8159 H 759.156 0.1665 -0.735387 0
M  V30 8160 H 761.807 -0.294781 -1.81117 0
M  V30 8161 H 760.189 1.61349 -3.61639 0
M  V30 8162 H 761.363 -1.11476 -4.47113 0
M  V30 8163 H 759.678 -0.853126 -4.07567 0
M  V30 8164 H 762.275 1.75115 -5.05212 0
M  V30 8165 H 762.618 2.33911 -3.44371 0
M  V30 8166 H 763.151 0.706924 -3.91468 0
M  V30 8167 H 759.89 -0.799957 -6.506 0
M  V30 8168 H 759.41 0.817122 -5.94208 0
M  V30 8169 H 761.089 0.508389 -6.45 0
M  V30 8170 N 761.222 1.57436 0.0718424 0
M  V30 8171 C 762.185 2.02703 1.06977 0
M  V30 8172 C 763.185 0.924062 1.31597 0
M  V30 8173 O 764.375 1.18894 1.27318 0
M  V30 8174 C 761.507 2.40763 2.41342 0
M  V30 8175 H 762.7 2.92098 0.679619 0
M  V30 8176 H 760.253 1.5304 0.317565 0
M  V30 8177 H 760.988 1.54394 2.8519 0
M  V30 8178 H 760.773 3.21249 2.24814 0
M  V30 8179 H 762.263 2.76361 3.13073 0
M  V30 8180 N 762.7 -0.34323 1.53817 0
M  V30 8181 C 764.111 -0.918823 1.62525 0
M  V30 8182 C 764.462 -1.89542 0.506765 0
M  V30 8183 O 763.587 -2.13326 -0.363441 0
M  V30 8184 C 764.182 -1.67326 2.94597 0
M  V30 8185 C 762.741 -2.19786 3.05567 0
M  V30 8186 C 761.888 -1.01708 2.57974 0
M  V30 8187 H 764.839 -0.121358 1.58235 0
M  V30 8188 H 764.86 -2.53615 2.83654 0
M  V30 8189 H 764.372 -0.962223 3.75983 0
M  V30 8190 H 762.473 -2.94065 2.28816 0
M  V30 8191 H 762.586 -2.46135 4.1104 0
M  V30 8192 H 760.95 -1.39058 2.13389 0
M  V30 8193 H 761.733 -0.320671 3.41799 0
M  V30 8194 N 764.178 -1.45556 -0.604258 0
M  V30 8195 C 765.088 -1.57025 -1.74299 0
M  V30 8196 C 766.104 -0.45456 -1.67958 0
M  V30 8197 O 767.28 -0.715711 -1.88254 0
M  V30 8198 C 764.345 -1.53702 -3.10768 0
M  V30 8199 C 763.406 -2.76335 -3.28538 0
M  V30 8200 C 762.639 -2.73161 -4.58496 0
M  V30 8201 O 762.862 -1.80678 -5.41028 0
M  V30 8202 O 761.796 -3.64409 -4.79051 0
M  V30 8203 H 765.622 -2.53284 -1.67573 0
M  V30 8204 H 763.207 -1.28104 -0.768745 0
M  V30 8205 H 765.089 -1.54468 -3.92068 0
M  V30 8206 H 763.764 -0.605957 -3.17978 0
M  V30 8207 H 762.671 -2.8113 -2.46813 0
M  V30 8208 H 764.004 -3.68578 -3.26207 0
M  V30 8209 N 765.656 0.84705 -1.32902 0
M  V30 8210 C 766.905 1.59667 -1.23245 0
M  V30 8211 C 767.218 1.94551 0.202349 0
M  V30 8212 O 768.424 2.68218 0.420847 0
M  V30 8213 C 766.88 2.8795 -2.15901 0
M  V30 8214 C 766.488 2.60461 -3.64505 0
M  V30 8215 C 768.232 3.65968 -2.15098 0
M  V30 8216 C 766.139 3.84791 -4.49099 0
M  V30 8217 H 765.069 0.599167 -0.457728 0
M  V30 8218 H 767.72 0.934662 -1.57912 0
M  V30 8219 H 766.102 3.55648 -1.74157 0
M  V30 8220 H 767.276 2.01026 -4.14639 0
M  V30 8221 H 765.591 1.9576 -3.67515 0
M  V30 8222 H 768.188 4.58241 -2.75534 0
M  V30 8223 H 768.531 4.00275 -1.14392 0
M  V30 8224 H 769.064 3.05184 -2.55162 0
M  V30 8225 H 765.803 3.55621 -5.50649 0
M  V30 8226 H 765.323 4.43594 -4.03713 0
M  V30 8227 H 767.002 4.52454 -4.62487 0
M  V30 8228 N 767.134 1.16236 1.06428 0
M  V30 8229 C 768.064 0.890807 2.1584 0
M  V30 8230 C 769.045 -0.162333 1.69324 0
M  V30 8231 O 770.23 -0.0147191 1.94194 0
M  V30 8232 C 767.36 0.389615 3.45108 0
M  V30 8233 C 766.314 1.38051 4.05125 0
M  V30 8234 C 765.64 0.737773 5.29586 0
M  V30 8235 C 766.94 2.74965 4.44062 0
M  V30 8236 H 768.634 1.80577 2.38814 0
M  V30 8237 H 766.18 0.869657 1.14774 0
M  V30 8238 H 768.133 0.187127 4.20984 0
M  V30 8239 H 766.857 -0.560851 3.21748 0
M  V30 8240 H 765.516 1.56952 3.31303 0
M  V30 8241 H 765.164 -0.219135 5.02522 0
M  V30 8242 H 764.864 1.39914 5.70699 0
M  V30 8243 H 766.388 0.545275 6.0816 0
M  V30 8244 H 767.802 2.59855 5.11027 0
M  V30 8245 H 766.199 3.37563 4.96156 0
M  V30 8246 H 767.269 3.30321 3.54987 0
M  V30 8247 N 768.612 -1.24939 0.960631 0
M  V30 8248 C 769.544 -2.24879 0.442937 0
M  V30 8249 C 770.557 -1.56615 -0.444464 0
M  V30 8250 O 771.746 -1.76715 -0.251776 0
M  V30 8251 C 768.846 -3.36757 -0.380537 0
M  V30 8252 C 768.019 -4.34587 0.495283 0
M  V30 8253 C 767.078 -5.25502 -0.270995 0
M  V30 8254 O 766.104 -5.68227 0.332661 0
M  V30 8255 N 767.306 -5.59077 -1.56249 0
M  V30 8256 H 770.071 -2.69932 1.30218 0
M  V30 8257 H 767.632 -1.38907 0.83166 0
M  V30 8258 H 769.624 -3.94542 -0.90103 0
M  V30 8259 H 768.194 -2.91045 -1.14067 0
M  V30 8260 H 767.414 -3.75593 1.19682 0
M  V30 8261 H 768.702 -4.96925 1.09285 0
M  V30 8262 H 768.1 -5.2628 -2.07476 0
M  V30 8263 H 766.657 -6.19421 -2.02882 0
M  V30 8264 N 770.09 -0.729906 -1.39679 0
M  V30 8265 C 771.338 -0.275077 -2.00219 0
M  V30 8266 C 771.659 1.1401 -1.58199 0
M  V30 8267 O 770.929 1.77546 -0.827904 0
M  V30 8268 H 769.509 -0.0987127 -0.740449 0
M  V30 8269 H 772.171 -0.93873 -1.70804 0
M  V30 8270 H 771.267 -0.319446 -3.10461 0
M  V30 8271 N 771.568 1.50203 -0.477153 0
M  V30 8272 C 772.498 2.31517 0.303646 0
M  V30 8273 C 773.479 1.38696 0.984753 0
M  V30 8274 O 774.664 1.67615 0.980758 0
M  V30 8275 C 771.794 3.18598 1.38249 0
M  V30 8276 C 770.748 4.2002 0.822645 0
M  V30 8277 C 770.074 4.95878 2.00024 0
M  V30 8278 C 771.374 5.22023 -0.170185 0
M  V30 8279 H 773.068 2.97042 -0.375027 0
M  V30 8280 H 770.614 1.42848 -0.181802 0
M  V30 8281 H 772.567 3.74282 1.93625 0
M  V30 8282 H 771.291 2.5097 2.09002 0
M  V30 8283 H 769.95 3.65445 0.290813 0
M  V30 8284 H 769.598 4.24717 2.69489 0
M  V30 8285 H 769.298 5.64487 1.63183 0
M  V30 8286 H 770.822 5.54399 2.55878 0
M  V30 8287 H 772.236 5.72543 0.294606 0
M  V30 8288 H 770.633 5.98386 -0.453181 0
M  V30 8289 H 771.703 4.72396 -1.09408 0
M  V30 8290 N 773.046 0.209999 1.56195 0
M  V30 8291 C 773.993 -0.704854 2.19774 0
M  V30 8292 C 774.963 -1.19886 1.14964 0
M  V30 8293 O 776.148 -1.26005 1.43274 0
M  V30 8294 C 773.288 -1.91241 2.87265 0
M  V30 8295 C 772.401 -1.45838 4.06639 0
M  V30 8296 C 771.536 -2.6226 4.61945 0
M  V30 8297 C 770.575 -2.13537 5.73645 0
M  V30 8298 N 769.712 -3.2319 6.23292 0
M  V30 8299 H 774.552 -0.155944 2.97592 0
M  V30 8300 H 772.089 -0.0652235 1.46955 0
M  V30 8301 H 774.047 -2.62123 3.24573 0
M  V30 8302 H 772.677 -2.43439 2.11985 0
M  V30 8303 H 771.729 -0.644897 3.74894 0
M  V30 8304 H 773.041 -1.06103 4.87384 0
M  V30 8305 H 772.195 -3.41243 5.01636 0
M  V30 8306 H 770.934 -3.05278 3.80338 0
M  V30 8307 H 769.939 -1.33013 5.33468 0
M  V30 8308 H 771.164 -1.71533 6.57079 0
M  V30 8309 H 769.11 -3.65711 5.44602 0
M  V30 8310 H 769.027 -2.8767 6.99129 0
M  V30 8311 H 770.295 -4.02342 6.67639 0
M  V30 8312 N 774.524 -1.57472 -0.0634922 0
M  V30 8313 C 775.754 -1.91608 -0.772645 0
M  V30 8314 C 776.162 -0.805019 -1.71219 0
M  V30 8315 O 775.505 0.229941 -1.82255 0
M  V30 8316 C 775.567 -3.21281 -1.61304 0
M  V30 8317 C 775.231 -4.49177 -0.841973 0
M  V30 8318 C 776.228 -5.19661 -0.157494 0
M  V30 8319 C 773.913 -4.9578 -0.80669 0
M  V30 8320 C 775.907 -6.35006 0.551948 0
M  V30 8321 C 773.594 -6.11028 -0.0934812 0
M  V30 8322 C 774.592 -6.80493 0.58463 0
M  V30 8323 O 774.28 -7.93542 1.28633 0
M  V30 8324 H 774.012 -0.637685 -0.224352 0
M  V30 8325 H 776.566 -2.05369 -0.0355279 0
M  V30 8326 H 774.796 -3.03752 -2.39315 0
M  V30 8327 H 776.485 -3.41003 -2.20162 0
M  V30 8328 H 777.251 -4.84681 -0.176006 0
M  V30 8329 H 773.13 -4.41579 -1.32397 0
M  V30 8330 H 776.674 -6.89161 1.0818 0
M  V30 8331 H 772.571 -6.45459 -0.0729258 0
M  V30 8332 H 773.339 -8.09708 1.19646 0
M  V30 8333 N 776.003 0.335068 -1.53997 0
M  V30 8334 C 777.231 1.09418 -1.756 0
M  V30 8335 C 777.646 1.82083 -0.499138 0
M  V30 8336 O 777.003 1.74646 0.529631 0
M  V30 8337 C 777.054 2.10115 -2.94166 0
M  V30 8338 O 776.775 1.40404 -4.14992 0
M  V30 8339 C 778.276 2.98336 -3.27888 0
M  V30 8340 H 775.496 0.32595 -0.586513 0
M  V30 8341 H 778.04 0.384693 -2.00849 0
M  V30 8342 H 776.195 2.76616 -2.71224 0
M  V30 8343 H 776.609 2.07743 -4.81605 0
M  V30 8344 H 778.083 3.6491 -4.1418 0
M  V30 8345 H 778.56 3.64814 -2.44556 0
M  V30 8346 H 779.166 2.37412 -3.52868 0
M  V30 8347 N 777.481 1.45874 0.596531 0
M  V30 8348 C 778.728 1.50467 1.35521 0
M  V30 8349 C 779.056 0.150802 1.93915 0
M  V30 8350 O 778.311 -0.851913 1.76184 0
M  V30 8351 C 778.61 2.54034 2.51399 0
M  V30 8352 C 778.276 3.9844 2.11085 0
M  V30 8353 C 776.938 4.37758 1.99804 0
M  V30 8354 C 779.29 4.89209 1.79788 0
M  V30 8355 C 776.618 5.65727 1.55465 0
M  V30 8356 C 778.97 6.17602 1.36931 0
M  V30 8357 C 777.634 6.5584 1.24218 0
M  V30 8358 H 776.904 0.550597 0.495907 0
M  V30 8359 H 779.551 1.79279 0.673145 0
M  V30 8360 H 777.856 2.18832 3.24992 0
M  V30 8361 H 779.553 2.54822 3.09624 0
M  V30 8362 H 776.143 3.67353 2.20794 0
M  V30 8363 H 780.327 4.59562 1.87395 0
M  V30 8364 H 775.583 5.94139 1.44253 0
M  V30 8365 H 779.757 6.87373 1.11764 0
M  V30 8366 H 777.384 7.54897 0.896353 0
M  V30 8367 N 778.959 -0.83999 1.33349 0
M  V30 8368 C 780.184 -1.63249 1.27924 0
M  V30 8369 C 780.609 -1.87523 -0.147193 0
M  V30 8370 O 779.967 -1.43853 -1.10345 0
M  V30 8371 C 780.015 -2.96046 2.05886 0
M  V30 8372 O 779.119 -3.87303 1.4167 0
M  V30 8373 H 778.46 -0.49715 0.440157 0
M  V30 8374 H 780.99 -1.04512 1.75893 0
M  V30 8375 H 781 -3.45752 2.16609 0
M  V30 8376 H 779.675 -2.77701 3.09605 0
M  V30 8377 H 778.252 -3.45789 1.39585 0
M  V30 8378 N 780.437 -1.16799 -1.0581 0
M  V30 8379 C 781.683 -0.953935 -1.78963 0
M  V30 8380 C 782.016 0.516638 -1.87202 0
M  V30 8381 O 781.291 1.38338 -1.36721 0
M  V30 8382 C 781.574 -1.58808 -3.23191 0
M  V30 8383 C 781.427 -3.13032 -3.23003 0
M  V30 8384 C 782.746 -1.2868 -4.20867 0
M  V30 8385 H 779.865 -0.347972 -0.64968 0
M  V30 8386 H 782.507 -1.44204 -1.23715 0
M  V30 8387 H 780.657 -1.17303 -3.70368 0
M  V30 8388 H 782.329 -3.63553 -2.83949 0
M  V30 8389 H 780.572 -3.46108 -2.61518 0
M  V30 8390 H 781.243 -3.52527 -4.24769 0
M  V30 8391 H 783.719 -1.6461 -3.82155 0
M  V30 8392 H 782.595 -1.75645 -5.20038 0
M  V30 8393 H 782.856 -0.206491 -4.41618 0
M  V30 8394 N 781.915 1.24427 -0.967243 0
M  V30 8395 C 783.192 1.87831 -0.545776 0
M  V30 8396 C 783.572 1.87126 0.977099 0
M  V30 8397 O 782.92 1.34357 1.84826 0
M  V30 8398 C 783.13 3.29967 -1.13679 0
M  V30 8399 C 784.478 4.06654 -1.22139 0
M  V30 8400 O 785.502 3.39136 -1.08926 0
M  V30 8401 O 784.361 5.27455 -1.43017 0
M  V30 8402 H 781.455 0.806745 -0.181912 0
M  V30 8403 H 784.001 1.32403 -1.06148 0
M  V30 8404 H 782.773 3.24977 -2.17958 0
M  V30 8405 H 782.396 3.92969 -0.605093 0
M  V30 8406 N 783.393 0.737304 1.3929 0
M  V30 8407 C 784.639 0.295581 2.01241 0
M  V30 8408 C 784.994 -1.10561 1.57461 0
M  V30 8409 O 784.287 -1.74346 0.7946 0
M  V30 8410 C 784.481 0.338438 3.55794 0
M  V30 8411 C 784.31 1.74225 4.14579 0
M  V30 8412 C 783.08 2.35502 4.47065 0
M  V30 8413 C 785.278 2.69623 4.37959 0
M  V30 8414 N 783.26 3.68014 4.91365 0
M  V30 8415 C 784.631 3.86873 4.84489 0
M  V30 8416 C 786.686 2.67355 4.2003 0
M  V30 8417 C 785.389 5.02193 5.14971 0
M  V30 8418 C 787.415 3.8182 4.51627 0
M  V30 8419 C 786.777 4.97806 4.98366 0
M  V30 8420 H 782.876 0.154468 0.766592 0
M  V30 8421 H 785.46 0.963768 1.69173 0
M  V30 8422 H 783.631 -0.299406 3.87244 0
M  V30 8423 H 785.363 -0.122053 4.04516 0
M  V30 8424 H 782.118 1.87406 4.34943 0
M  V30 8425 H 782.542 4.36051 5.17869 0
M  V30 8426 H 787.184 1.78876 3.83097 0
M  V30 8427 H 784.902 5.913 5.50809 0
M  V30 8428 H 788.488 3.81366 4.39376 0
M  V30 8429 H 787.368 5.84909 5.22351 0
M  V30 8430 N 784.871 -1.49948 0.485112 0
M  V30 8431 C 786.117 -2.0332 -0.0571625 0
M  V30 8432 C 786.472 -1.35951 -1.36144 0
M  V30 8433 O 785.765 -0.480871 -1.85467 0
M  V30 8434 C 785.959 -3.56282 -0.282434 0
M  V30 8435 C 785.788 -4.38476 0.998455 0
M  V30 8436 C 784.558 -4.81076 1.54576 0
M  V30 8437 C 786.756 -4.78013 1.89758 0
M  V30 8438 N 784.738 -5.47641 2.77421 0
M  V30 8439 C 786.109 -5.44133 2.97186 0
M  V30 8440 C 788.164 -4.59963 1.90627 0
M  V30 8441 C 786.867 -5.94113 4.0549 0
M  V30 8442 C 788.893 -5.10893 2.97897 0
M  V30 8443 C 788.255 -5.77 4.04043 0
M  V30 8444 H 784.354 -0.781758 0.0194642 0
M  V30 8445 H 786.938 -1.833 0.65644 0
M  V30 8446 H 785.109 -3.76219 -0.965083 0
M  V30 8447 H 786.841 -3.96299 -0.820298 0
M  V30 8448 H 783.596 -4.60814 1.09304 0
M  V30 8449 H 784.02 -5.85521 3.39844 0
M  V30 8450 H 788.662 -4.08274 1.09875 0
M  V30 8451 H 786.38 -6.44832 4.8705 0
M  V30 8452 H 789.966 -4.98748 2.9957 0
M  V30 8453 H 788.846 -6.15698 4.85681 0
M  V30 8454 N 786.349 -0.21828 -1.56081 0
M  V30 8455 C 787.574 0.422302 -2.03055 0
M  V30 8456 C 787.999 1.5279 -1.09713 0
M  V30 8457 O 787.357 1.81102 -0.0847187 0
M  V30 8458 C 787.405 0.934177 -3.48289 0
M  V30 8459 O 786.509 2.04574 -3.58083 0
M  V30 8460 H 785.85 0.0959764 -0.657027 0
M  V30 8461 H 788.38 -0.335958 -2.01823 0
M  V30 8462 H 788.39 1.24484 -3.88546 0
M  V30 8463 H 787.065 0.124963 -4.15712 0
M  V30 8464 H 785.642 1.74196 -3.29712 0
M  V30 8465 N 787.827 1.57504 0.0551401 0
M  V30 8466 C 789.074 1.88055 0.751104 0
M  V30 8467 C 789.402 0.812231 1.76729 0
M  V30 8468 O 788.657 -0.189918 1.94776 0
M  V30 8469 C 788.956 3.25311 1.48013 0
M  V30 8470 C 788.622 4.46858 0.602375 0
M  V30 8471 C 787.284 4.79847 0.360536 0
M  V30 8472 C 789.636 5.212 -0.00524047 0
M  V30 8473 C 786.964 5.84582 -0.498127 0
M  V30 8474 C 789.316 6.26844 -0.851453 0
M  V30 8475 C 787.98 6.58324 -1.103 0
M  V30 8476 H 787.25 0.688142 0.274848 0
M  V30 8477 H 789.897 1.91497 0.0114795 0
M  V30 8478 H 788.202 3.17737 2.29239 0
M  V30 8479 H 789.899 3.46189 2.02371 0
M  V30 8480 H 786.489 4.21049 0.801007 0
M  V30 8481 H 790.673 4.96013 0.168682 0
M  V30 8482 H 785.929 6.07361 -0.701594 0
M  V30 8483 H 790.103 6.83603 -1.32893 0
M  V30 8484 H 787.73 7.39304 -1.77011 0
M  V30 8485 N 789.305 -0.326896 1.54172 0
M  V30 8486 C 790.553 -1.06313 1.71878 0
M  V30 8487 C 790.874 -1.88652 0.493498 0
M  V30 8488 O 790.144 -1.89608 -0.492522 0
M  V30 8489 H 788.724 -0.39549 0.633716 0
M  V30 8490 H 791.386 -0.364139 1.91468 0
M  V30 8491 H 790.482 -1.73105 2.59694 0
M  V30 8492 N 790.784 -1.46188 -0.588786 0
M  V30 8493 C 792.03 -1.51407 -1.34921 0
M  V30 8494 C 792.363 -0.162771 -1.93517 0
M  V30 8495 O 791.638 0.825082 -1.76132 0
M  V30 8496 C 791.921 -2.60795 -2.48311 0
M  V30 8497 C 791.774 -4.05435 -1.94789 0
M  V30 8498 C 793.093 -2.66313 -3.50379 0
M  V30 8499 H 790.212 -0.551213 -0.489217 0
M  V30 8500 H 792.854 -1.78095 -0.661993 0
M  V30 8501 H 791.004 -2.3817 -3.06932 0
M  V30 8502 H 792.676 -4.39328 -1.40672 0
M  V30 8503 H 790.919 -4.15202 -1.25659 0
M  V30 8504 H 791.59 -4.77691 -2.76613 0
M  V30 8505 H 794.066 -2.86634 -3.01629 0
M  V30 8506 H 792.942 -3.44681 -4.27184 0
M  V30 8507 H 793.203 -1.72127 -4.07216 0
M  V30 8508 N 792.262 0.832906 -1.33792 0
M  V30 8509 C 793.192 1.95828 -1.27176 0
M  V30 8510 C 794.173 1.69427 -0.15114 0
M  V30 8511 O 795.358 1.91167 -0.341886 0
M  V30 8512 C 792.488 3.32098 -1.01629 0
M  V30 8513 C 791.442 3.72912 -2.10049 0
M  V30 8514 C 790.768 5.07054 -1.69706 0
M  V30 8515 C 792.068 3.86064 -3.51783 0
M  V30 8516 H 793.762 2.01622 -2.21334 0
M  V30 8517 H 791.308 0.96866 -1.0655 0
M  V30 8518 H 793.261 4.10402 -0.956474 0
M  V30 8519 H 791.985 3.26577 -0.0390956 0
M  V30 8520 H 790.644 2.96876 -2.15082 0
M  V30 8521 H 790.292 4.9801 -0.706737 0
M  V30 8522 H 789.992 5.35333 -2.42264 0
M  V30 8523 H 791.516 5.87827 -1.65202 0
M  V30 8524 H 792.93 4.54665 -3.49218 0
M  V30 8525 H 791.327 4.25787 -4.22878 0
M  V30 8526 H 792.397 2.88344 -3.89854 0
M  V30 8527 N 793.74 1.17359 1.05189 0
M  V30 8528 C 794.67 0.91365 2.14883 0
M  V30 8529 C 795.651 -0.144365 1.69486 0
M  V30 8530 O 796.836 0.00587861 1.94199 0
M  V30 8531 C 793.966 0.426196 3.44675 0
M  V30 8532 C 792.92 1.4234 4.03638 0
M  V30 8533 C 792.246 0.793902 5.28773 0
M  V30 8534 C 793.546 2.7966 4.41121 0
M  V30 8535 H 795.24 1.831 2.36885 0
M  V30 8536 H 792.786 0.881781 1.13845 0
M  V30 8537 H 794.739 0.231767 4.20762 0
M  V30 8538 H 793.463 -0.526693 3.22325 0
M  V30 8539 H 792.122 1.60457 3.2962 0
M  V30 8540 H 791.77 -0.165824 5.02727 0
M  V30 8541 H 791.47 1.45959 5.69183 0
M  V30 8542 H 792.994 0.609747 6.07548 0
M  V30 8543 H 794.408 2.6526 5.08242 0
M  V30 8544 H 792.805 3.42807 4.92548 0
M  V30 8545 H 793.875 3.34068 3.51464 0
M  V30 8546 N 795.218 -1.23913 0.973828 0
M  V30 8547 C 796.448 -1.95911 0.655938 0
M  V30 8548 C 796.856 -1.72375 -0.779967 0
M  V30 8549 O 796.199 -1.00807 -1.5357 0
M  V30 8550 C 796.261 -3.49103 0.858324 0
M  V30 8551 C 795.925 -3.96347 2.27504 0
M  V30 8552 C 796.922 -4.05537 3.25324 0
M  V30 8553 C 794.607 -4.29509 2.60437 0
M  V30 8554 C 796.601 -4.47233 4.5416 0
M  V30 8555 C 794.288 -4.70887 3.89498 0
M  V30 8556 C 795.286 -4.79714 4.86172 0
M  V30 8557 O 794.974 -5.20166 6.1293 0
M  V30 8558 H 794.706 -0.630721 0.243244 0
M  V30 8559 H 797.26 -1.58534 1.30599 0
M  V30 8560 H 795.49 -3.86405 0.151097 0
M  V30 8561 H 797.179 -4.02311 0.538592 0
M  V30 8562 H 797.945 -3.80128 3.0121 0
M  V30 8563 H 793.824 -4.21853 1.85906 0
M  V30 8564 H 797.368 -4.54038 5.29618 0
M  V30 8565 H 793.265 -4.95744 4.1341 0
M  V30 8566 H 794.033 -5.38298 6.16586 0
M  V30 8567 N 796.696 -0.74468 -1.38897 0
M  V30 8568 C 797.606 -0.112892 -2.34328 0
M  V30 8569 C 798.622 0.71087 -1.58816 0
M  V30 8570 O 799.798 0.637092 -1.91058 0
M  V30 8571 C 796.863 0.776417 -3.37894 0
M  V30 8572 C 795.924 -0.0606999 -4.29257 0
M  V30 8573 C 795.157 0.786258 -5.27877 0
M  V30 8574 O 795.38 2.02463 -5.33259 0
M  V30 8575 O 794.314 0.209781 -6.01534 0
M  V30 8576 H 798.14 -0.900801 -2.90033 0
M  V30 8577 H 795.725 -0.505462 -1.4059 0
M  V30 8578 H 797.607 1.28496 -4.01331 0
M  V30 8579 H 796.282 1.54297 -2.84559 0
M  V30 8580 H 795.189 -0.614984 -3.69011 0
M  V30 8581 H 796.522 -0.789702 -4.85824 0
M  V30 8582 N 798.174 1.49689 -0.493057 0
M  V30 8583 C 799.107 2.25712 0.336062 0
M  V30 8584 C 800.085 1.29953 0.977294 0
M  V30 8585 O 801.269 1.59225 1.00895 0
M  V30 8586 C 798.396 3.0501 1.47263 0
M  V30 8587 C 797.442 4.15863 0.946575 0
M  V30 8588 S 798.275 5.35272 -0.156323 0
M  V30 8589 C 799.431 6.18123 0.983601 0
M  V30 8590 H 799.664 2.95688 -0.309215 0
M  V30 8591 H 797.197 1.51872 -0.278238 0
M  V30 8592 H 799.155 3.51284 2.12391 0
M  V30 8593 H 797.816 2.34519 2.08949 0
M  V30 8594 H 797.009 4.70834 1.7981 0
M  V30 8595 H 796.611 3.72139 0.372647 0
M  V30 8596 H 798.903 6.50588 1.89056 0
M  V30 8597 H 799.846 7.06521 0.472687 0
M  V30 8598 H 800.254 5.50547 1.24735 0
M  V30 8599 N 799.652 0.226554 1.55963 0
M  V30 8600 C 800.582 -0.676079 2.23498 0
M  V30 8601 C 801.563 -1.19718 1.20837 0
M  V30 8602 O 802.748 -1.24027 1.49436 0
M  V30 8603 C 799.878 -1.88217 2.91876 0
M  V30 8604 C 798.832 -1.4947 4.01052 0
M  V30 8605 C 798.158 -2.77997 4.56751 0
M  V30 8606 C 799.458 -0.680951 5.17842 0
M  V30 8607 H 801.152 -0.112989 2.99187 0
M  V30 8608 H 798.698 -0.0529046 1.43903 0
M  V30 8609 H 800.651 -2.51911 3.37815 0
M  V30 8610 H 799.375 -2.47031 2.13643 0
M  V30 8611 H 798.034 -0.881199 3.55852 0
M  V30 8612 H 797.682 -3.34966 3.75243 0
M  V30 8613 H 797.382 -2.52803 5.30438 0
M  V30 8614 H 798.906 -3.42625 5.05411 0
M  V30 8615 H 800.32 -1.22171 5.60131 0
M  V30 8616 H 798.717 -0.525898 5.97791 0
M  V30 8617 H 799.787 0.311346 4.83899 0
M  V30 8618 N 801.13 -1.57531 -0.0467866 0
M  V30 8619 C 802.379 -1.87632 -0.740069 0
M  V30 8620 C 802.692 -0.822691 -1.77457 0
M  V30 8621 O 803.898 -1.01235 -2.5192 0
M  V30 8622 C 802.354 -3.32917 -1.36727 0
M  V30 8623 C 801.962 -4.46469 -0.370035 0
M  V30 8624 C 803.706 -3.72189 -2.04146 0
M  V30 8625 C 801.613 -5.82806 -1.00457 0
M  V30 8626 H 800.543 -0.70002 -0.280158 0
M  V30 8627 H 803.194 -1.83499 0.00607151 0
M  V30 8628 H 801.576 -3.31739 -2.16252 0
M  V30 8629 H 802.75 -4.59085 0.397217 0
M  V30 8630 H 801.065 -4.15914 0.201079 0
M  V30 8631 H 803.662 -4.71357 -2.52441 0
M  V30 8632 H 804.005 -3.03268 -2.85192 0
M  V30 8633 H 804.538 -3.75465 -1.3142 0
M  V30 8634 H 801.277 -6.55083 -0.233907 0
M  V30 8635 H 800.797 -5.73944 -1.74209 0
M  V30 8636 H 802.476 -6.28961 -1.51713 0
M  V30 8637 N 802.608 0.318715 -1.54344 0
M  V30 8638 C 803.856 1.054 -1.72439 0
M  V30 8639 C 804.177 1.88388 -0.503495 0
M  V30 8640 O 803.447 1.89866 0.48246 0
M  V30 8641 H 802.027 0.392124 -0.635805 0
M  V30 8642 H 804.689 0.35398 -1.91659 0
M  V30 8643 H 803.785 1.71726 -2.60608 0
M  V30 8644 N 804.086 1.46499 0.581025 0
M  V30 8645 C 805.018 1.53225 1.70455 0
M  V30 8646 C 806.031 0.420443 1.57277 0
M  V30 8647 O 807.22 0.688888 1.64671 0
M  V30 8648 C 804.32 1.39803 3.08721 0
M  V30 8649 C 803.493 2.65132 3.47884 0
M  V30 8650 C 802.552 2.45886 4.65217 0
M  V30 8651 O 801.578 3.19615 4.70993 0
M  V30 8652 N 802.78 1.5216 5.60203 0
M  V30 8653 H 805.545 2.50098 1.65139 0
M  V30 8654 H 803.106 1.42576 0.76705 0
M  V30 8655 H 805.098 1.24697 3.8501 0
M  V30 8656 H 803.668 0.51104 3.08394 0
M  V30 8657 H 802.888 2.95169 2.61284 0
M  V30 8658 H 804.176 3.48385 3.70817 0
M  V30 8659 H 803.574 0.913646 5.58273 0
M  V30 8660 H 802.131 1.43017 6.35916 0
M  V30 8661 N 805.565 -0.825799 1.34232 0
M  V30 8662 C 806.79 -1.61883 1.29648 0
M  V30 8663 C 807.215 -1.87669 -0.127295 0
M  V30 8664 O 806.573 -1.45016 -1.08813 0
M  V30 8665 C 806.621 -2.93846 2.09014 0
M  V30 8666 O 805.725 -3.85778 1.4577 0
M  V30 8667 H 805.066 -0.492454 0.445405 0
M  V30 8668 H 807.596 -1.02641 1.76992 0
M  V30 8669 H 807.606 -3.43435 2.20264 0
M  V30 8670 H 806.281 -2.74401 3.12533 0
M  V30 8671 H 804.858 -3.4429 1.43245 0
M  V30 8672 N 807.043 -1.17915 -1.04565 0
M  V30 8673 C 808.454 -0.976383 -1.59134 0
M  V30 8674 C 808.805 0.475267 -1.90357 0
M  V30 8675 O 807.93 1.35172 -1.6899 0
M  V30 8676 C 808.525 -1.76604 -2.89131 0
M  V30 8677 C 807.084 -1.60777 -3.40335 0
M  V30 8678 C 806.231 -1.76369 -2.13985 0
M  V30 8679 H 809.182 -1.32532 -0.872985 0
M  V30 8680 H 809.203 -1.25215 -3.59307 0
M  V30 8681 H 808.715 -2.82252 -2.66375 0
M  V30 8682 H 806.816 -0.576436 -3.68114 0
M  V30 8683 H 806.929 -2.40268 -4.14497 0
M  V30 8684 H 805.293 -1.19268 -2.25049 0
M  V30 8685 H 806.076 -2.83441 -1.9369 0
M  V30 8686 N 808.521 1.23394 -0.980386 0
M  V30 8687 C 809.768 1.91809 -0.649261 0
M  V30 8688 C 810.096 1.765 0.817197 0
M  V30 8689 O 809.351 1.11979 1.60497 0
M  V30 8690 C 809.65 3.43542 -0.985588 0
M  V30 8691 C 809.316 3.79031 -2.44225 0
M  V30 8692 C 807.978 3.88429 -2.84035 0
M  V30 8693 C 810.33 3.96145 -3.38702 0
M  V30 8694 C 807.658 4.12368 -4.17336 0
M  V30 8695 C 810.01 4.21583 -4.71646 0
M  V30 8696 C 808.674 4.29203 -5.11215 0
M  V30 8697 H 807.944 0.70188 -0.237581 0
M  V30 8698 H 810.591 1.4642 -1.23424 0
M  V30 8699 H 808.896 3.90503 -0.318521 0
M  V30 8700 H 810.593 3.94708 -0.707596 0
M  V30 8701 H 807.183 3.7229 -2.12362 0
M  V30 8702 H 811.367 3.88274 -3.09123 0
M  V30 8703 H 806.623 4.1649 -4.47601 0
M  V30 8704 H 810.797 4.33769 -5.4481 0
M  V30 8705 H 808.424 4.47505 -6.14527 0
M  V30 8706 N 809.999 0.752036 1.385 0
M  V30 8707 C 810.949 0.0990189 2.27785 0
M  V30 8708 C 811.933 -0.694867 1.45122 0
M  V30 8709 O 813.125 -0.561077 1.67872 0
M  V30 8710 C 810.254 -0.794531 3.33979 0
M  V30 8711 C 809.34 0.00611984 4.241 0
M  V30 8712 N 809.731 1.04174 4.94956 0
M  V30 8713 C 808.029 -0.220934 4.45452 0
M  V30 8714 C 808.73 1.52601 5.61327 0
M  V30 8715 N 807.706 0.84159 5.37046 0
M  V30 8716 H 811.508 0.892208 2.8003 0
M  V30 8717 H 809.022 0.587934 1.51384 0
M  V30 8718 H 811.019 -1.27797 3.96829 0
M  V30 8719 H 809.679 -1.58669 2.83292 0
M  V30 8720 H 810.69 1.42349 4.97953 0
M  V30 8721 H 807.367 -0.986556 4.05676 0
M  V30 8722 H 808.757 2.38857 6.2801 0
M  V30 8723 N 811.477 -1.49425 0.500989 0
M  V30 8724 C 812.725 -2.02053 -0.0434495 0
M  V30 8725 C 813.046 -1.38285 -1.37486 0
M  V30 8726 O 812.316 -0.538171 -1.88363 0
M  V30 8727 H 810.896 -0.746757 -0.0190469 0
M  V30 8728 H 813.558 -1.83449 0.658227 0
M  V30 8729 H 812.654 -3.11619 -0.173129 0
M  V30 8730 N 812.955 -0.234822 -1.55841 0
M  V30 8731 C 814.232 0.442961 -1.90518 0
M  V30 8732 C 814.612 1.76768 -1.15397 0
M  V30 8733 O 813.96 2.26928 -0.267534 0
M  V30 8734 C 814.17 0.622905 -3.43396 0
M  V30 8735 C 815.518 0.9243 -4.14417 0
M  V30 8736 O 816.542 0.709211 -3.49068 0
M  V30 8737 O 815.401 1.33323 -5.29988 0
M  V30 8738 H 812.495 0.236042 -0.792599 0
M  V30 8739 H 815.041 -0.277992 -1.67408 0
M  V30 8740 H 813.813 -0.310973 -3.90062 0
M  V30 8741 H 813.436 1.39485 -3.7233 0
M  V30 8742 N 814.433 1.57553 0.0384317 0
M  V30 8743 C 815.71 1.79977 0.766002 0
M  V30 8744 C 816.09 0.830625 1.94072 0
M  V30 8745 O 815.438 -0.129243 2.28134 0
M  V30 8746 C 815.648 3.27434 1.20781 0
M  V30 8747 C 816.996 3.92167 1.62758 0
M  V30 8748 O 818.02 3.31527 1.30263 0
M  V30 8749 O 816.879 4.98917 2.23035 0
M  V30 8750 H 813.973 0.739787 0.369654 0
M  V30 8751 H 816.519 1.69693 0.0159312 0
M  V30 8752 H 815.291 3.89558 0.368792 0
M  V30 8753 H 814.914 3.42571 2.01819 0
M  V30 8754 N 815.911 -0.310526 1.54511 0
M  V30 8755 C 816.821 -1.4054 1.87844 0
M  V30 8756 C 817.837 -1.55954 0.771635 0
M  V30 8757 O 819.013 -1.70801 1.06719 0
M  V30 8758 C 816.078 -2.75063 2.11048 0
M  V30 8759 C 815.139 -2.68715 3.348 0
M  V30 8760 C 814.372 -3.96821 3.56887 0
M  V30 8761 O 814.595 -4.95721 2.82165 0
M  V30 8762 O 813.529 -3.99291 4.50389 0
M  V30 8763 H 817.355 -1.15275 2.80972 0
M  V30 8764 H 814.94 -0.505732 1.4058 0
M  V30 8765 H 816.822 -3.54671 2.27566 0
M  V30 8766 H 815.497 -3.00191 1.21108 0
M  V30 8767 H 814.404 -1.87611 3.23655 0
M  V30 8768 H 815.737 -2.4854 4.2484 0
M  V30 8769 N 817.389 -1.46805 -0.573248 0
M  V30 8770 C 818.666 -1.43082 -1.33368 0
M  V30 8771 C 819.046 -0.119252 -2.10763 0
M  V30 8772 O 818.394 0.899239 -2.10062 0
M  V30 8773 C 818.604 -2.66643 -2.25172 0
M  V30 8774 C 819.952 -3.13188 -2.86702 0
M  V30 8775 O 820.976 -2.67258 -2.35482 0
M  V30 8776 O 819.835 -3.92994 -3.79761 0
M  V30 8777 H 816.929 -0.569451 -0.599712 0
M  V30 8778 H 819.475 -1.58984 -0.59348 0
M  V30 8779 H 818.247 -3.53649 -1.67475 0
M  V30 8780 H 817.87 -2.53247 -3.06516 0
M  V30 8781 N 818.867 0.818669 -1.34668 0
M  V30 8782 C 819.777 1.9616 -1.2868 0
M  V30 8783 C 820.793 1.72918 -0.193742 0
M  V30 8784 O 821.969 1.96951 -0.420975 0
M  V30 8785 C 819.034 3.30534 -1.04633 0
M  V30 8786 C 818.095 3.66755 -2.23136 0
M  V30 8787 C 817.328 4.94717 -2.00227 0
M  V30 8788 O 817.551 5.62218 -0.96264 0
M  V30 8789 O 816.485 5.28915 -2.87286 0
M  V30 8790 H 820.311 2.04157 -2.24842 0
M  V30 8791 H 817.896 0.954691 -1.14917 0
M  V30 8792 H 819.778 4.11005 -0.930216 0
M  V30 8793 H 818.453 3.23495 -0.115139 0
M  V30 8794 H 817.36 2.8671 -2.40308 0
M  V30 8795 H 818.693 3.78484 -3.1466 0
M  V30 8796 N 820.346 1.18468 1.03938 0
M  V30 8797 C 821.276 0.936389 2.13902 0
M  V30 8798 C 822.257 -0.126381 1.6963 0
M  V30 8799 O 823.442 0.0264757 1.94182 0
M  V30 8800 C 820.572 0.462729 3.44204 0
M  V30 8801 C 819.526 1.46613 4.02105 0
M  V30 8802 C 818.852 0.84994 5.27902 0
M  V30 8803 C 820.152 2.84323 4.3813 0
M  V30 8804 H 821.846 1.85602 2.3493 0
M  V30 8805 H 819.392 0.893806 1.12903 0
M  V30 8806 H 821.345 0.276382 4.20493 0
M  V30 8807 H 820.069 -0.492477 3.22866 0
M  V30 8808 H 818.728 1.63944 3.27899 0
M  V30 8809 H 818.376 -0.112493 5.02874 0
M  V30 8810 H 818.076 1.51988 5.67603 0
M  V30 8811 H 819.6 0.674152 6.06867 0
M  V30 8812 H 821.014 2.70636 5.054 0
M  V30 8813 H 819.411 3.48012 4.88884 0
M  V30 8814 H 820.481 3.37776 3.47901 0
M  V30 8815 N 821.824 -1.22873 0.986916 0
M  V30 8816 C 823.071 -1.91462 0.659424 0
M  V30 8817 C 823.399 -1.76931 -0.807825 0
M  V30 8818 O 822.654 -1.12829 -1.59901 0
M  V30 8819 C 822.953 -3.43014 1.00379 0
M  V30 8820 C 822.619 -3.77731 2.46232 0
M  V30 8821 C 821.281 -3.86918 2.86091 0
M  V30 8822 C 823.633 -3.94343 3.40798 0
M  V30 8823 C 820.961 -4.10149 4.19518 0
M  V30 8824 C 823.313 -4.19076 4.73875 0
M  V30 8825 C 821.977 -4.26486 5.13484 0
M  V30 8826 H 821.247 -0.700611 0.2413 0
M  V30 8827 H 823.894 -1.45763 1.24199 0
M  V30 8828 H 822.199 -3.90329 0.339226 0
M  V30 8829 H 823.896 -3.94327 0.728518 0
M  V30 8830 H 820.486 -3.71159 2.14334 0
M  V30 8831 H 824.67 -3.86629 3.11178 0
M  V30 8832 H 819.926 -4.1411 4.49803 0
M  V30 8833 H 824.1 -4.30873 5.47102 0
M  V30 8834 H 821.727 -4.4424 6.16891 0
M  V30 8835 N 823.302 -0.75937 -1.38099 0
M  V30 8836 C 824.212 -0.13774 -2.34195 0
M  V30 8837 C 825.228 0.693985 -1.59561 0
M  V30 8838 O 826.404 0.616792 -1.91723 0
M  V30 8839 C 823.469 0.740535 -3.38699 0
M  V30 8840 C 822.53 -0.106225 -4.29169 0
M  V30 8841 C 821.763 0.730225 -5.28681 0
M  V30 8842 O 821.986 1.96796 -5.35376 0
M  V30 8843 O 820.92 0.145969 -6.01723 0
M  V30 8844 H 824.746 -0.931512 -2.89061 0
M  V30 8845 H 822.331 -0.520345 -1.40046 0
M  V30 8846 H 824.213 1.24232 -4.02672 0
M  V30 8847 H 822.888 1.51271 -2.8618 0
M  V30 8848 H 821.795 -0.654088 -3.68337 0
M  V30 8849 H 823.128 -0.841186 -4.84959 0
M  V30 8850 N 824.78 1.49157 -0.508906 0
M  V30 8851 C 826.005 2.07376 0.0315182 0
M  V30 8852 C 826.43 1.36575 1.2934 0
M  V30 8853 O 825.788 0.424963 1.76249 0
M  V30 8854 C 825.836 3.59661 0.260118 0
M  V30 8855 O 824.94 3.90255 1.33322 0
M  V30 8856 H 824.281 0.663334 -0.029739 0
M  V30 8857 H 826.811 1.91857 -0.710791 0
M  V30 8858 H 826.821 4.05056 0.489225 0
M  V30 8859 H 825.496 4.10601 -0.661794 0
M  V30 8860 H 824.073 3.56661 1.08844 0
M  V30 8861 N 826.258 0.243083 1.55714 0
M  V30 8862 C 827.507 -0.383188 1.98027 0
M  V30 8863 C 827.82 -1.59347 1.13436 0
M  V30 8864 O 829.026 -2.29065 1.45745 0
M  V30 8865 C 827.482 -0.733135 3.52354 0
M  V30 8866 C 827.09 0.455539 4.45678 0
M  V30 8867 C 828.834 -1.32381 4.03331 0
M  V30 8868 C 826.741 0.0819591 5.91343 0
M  V30 8869 H 825.671 -0.146944 0.739543 0
M  V30 8870 H 828.322 0.342697 1.80272 0
M  V30 8871 H 826.704 -1.51704 3.65789 0
M  V30 8872 H 827.878 1.23291 4.44 0
M  V30 8873 H 826.193 0.960886 4.05162 0
M  V30 8874 H 828.79 -1.61658 5.09677 0
M  V30 8875 H 829.133 -2.24698 3.50452 0
M  V30 8876 H 829.666 -0.602885 3.93205 0
M  V30 8877 H 826.405 0.972171 6.48251 0
M  V30 8878 H 825.925 -0.659291 5.96166 0
M  V30 8879 H 827.604 -0.3372 6.46121 0
M  V30 8880 N 827.736 -1.57571 -0.0300757 0
M  V30 8881 C 829.152 -1.54869 -0.385703 0
M  V30 8882 C 829.352 -0.969068 -1.76667 0
M  V30 8883 O 828.408 -0.589676 -2.45518 0
M  V30 8884 C 829.721 -2.99313 -0.288482 0
M  V30 8885 C 831.269 -3.10857 -0.365638 0
M  V30 8886 C 831.744 -4.5703 -0.297878 0
M  V30 8887 N 833.235 -4.61825 -0.356703 0
M  V30 8888 C 833.97 -5.72466 -0.327146 0
M  V30 8889 N 833.466 -6.92349 -0.249941 0
M  V30 8890 N 835.259 -5.60836 -0.376801 0
M  V30 8891 H 827.41 -1.936 0.87367 0
M  V30 8892 H 829.673 -0.887924 0.332106 0
M  V30 8893 H 829.379 -3.45443 0.66047 0
M  V30 8894 H 829.253 -3.61332 -1.08253 0
M  V30 8895 H 831.64 -2.64676 -1.30502 0
M  V30 8896 H 831.721 -2.51671 0.457744 0
M  V30 8897 H 831.365 -5.03879 0.637835 0
M  V30 8898 H 831.295 -5.14127 -1.13935 0
M  V30 8899 H 833.786 -3.75571 -0.418926 0
M  V30 8900 H 834.099 -7.7245 -0.23246 0
M  V30 8901 H 832.444 -6.94664 -0.216004 0
M  V30 8902 H 835.635 -4.66073 -0.435101 0
M  V30 8903 H 835.808 -6.47052 -0.350298 0
M  V30 8904 N 829.214 0.302327 -1.54673 0
M  V30 8905 C 830.46 1.03924 -1.74149 0
M  V30 8906 C 830.793 1.86968 -0.525041 0
M  V30 8907 O 830.068 1.88538 0.477868 0
M  V30 8908 C 830.351 1.94633 -3.02969 0
M  V30 8909 C 830.204 1.14778 -4.34909 0
M  V30 8910 C 831.523 2.93826 -3.27649 0
M  V30 8911 H 828.642 0.376405 -0.633631 0
M  V30 8912 H 831.284 0.314007 -1.87387 0
M  V30 8913 H 829.434 2.56471 -2.91813 0
M  V30 8914 H 831.106 0.552363 -4.57981 0
M  V30 8915 H 829.349 0.450462 -4.31455 0
M  V30 8916 H 830.02 1.81495 -5.21309 0
M  V30 8917 H 832.496 2.42117 -3.38406 0
M  V30 8918 H 831.372 3.54462 -4.19104 0
M  V30 8919 H 831.633 3.67416 -2.45882 0
M  V30 8920 N 830.692 1.47107 0.565454 0
M  V30 8921 C 831.969 1.43787 1.32607 0
M  V30 8922 C 832.349 0.130428 2.10697 0
M  V30 8923 O 831.697 -0.888086 2.10536 0
M  V30 8924 C 831.907 2.67833 2.23755 0
M  V30 8925 C 833.255 3.14704 2.85037 0
M  V30 8926 O 834.279 2.68503 2.34061 0
M  V30 8927 O 833.138 3.95002 3.77671 0
M  V30 8928 H 830.232 0.572623 0.596684 0
M  V30 8929 H 832.778 1.59296 0.58504 0
M  V30 8930 H 831.55 3.54532 1.65597 0
M  V30 8931 H 831.173 2.54869 3.05168 0
M  V30 8932 N 832.17 -0.811516 1.35101 0
M  V30 8933 C 833.398 -1.59981 1.31201 0
M  V30 8934 C 833.813 -1.8847 -0.111552 0
M  V30 8935 O 833.17 -1.48414 -1.06205 0
M  V30 8936 C 833.221 -2.934 2.11184 0
M  V30 8937 O 832.942 -2.66148 3.4799 0
M  V30 8938 C 834.443 -3.87776 2.14813 0
M  V30 8939 H 831.663 -0.496921 0.450899 0
M  V30 8940 H 834.207 -1.00886 1.77883 0
M  V30 8941 H 832.362 -3.49022 1.68115 0
M  V30 8942 H 832.776 -3.51301 3.89471 0
M  V30 8943 H 834.25 -4.7852 2.75178 0
M  V30 8944 H 834.727 -4.23997 1.14556 0
M  V30 8945 H 835.333 -3.3809 2.58022 0
M  V30 8946 N 833.648 -1.19017 -1.03309 0
M  V30 8947 C 835.059 -0.993206 -1.5809 0
M  V30 8948 C 835.41 0.45505 -1.9085 0
M  V30 8949 O 834.535 1.33372 -1.70414 0
M  V30 8950 C 835.13 -1.79661 -2.87241 0
M  V30 8951 C 833.689 -1.64377 -3.38611 0
M  V30 8952 C 832.836 -1.78628 -2.12102 0
M  V30 8953 H 835.787 -1.3345 -0.858879 0
M  V30 8954 H 835.808 -1.29019 -3.57958 0
M  V30 8955 H 835.32 -2.85061 -2.63366 0
M  V30 8956 H 833.421 -0.615447 -3.67482 0
M  V30 8957 H 833.534 -2.44651 -4.11926 0
M  V30 8958 H 831.898 -1.21648 -2.23772 0
M  V30 8959 H 832.681 -2.8548 -1.90673 0
M  V30 8960 N 835.127 1.22348 -0.993418 0
M  V30 8961 C 836.077 2.221 -0.515333 0
M  V30 8962 C 837.061 1.55409 0.416762 0
M  V30 8963 O 838.253 1.75317 0.243497 0
M  V30 8964 C 835.382 3.42888 0.168173 0
M  V30 8965 C 834.468 4.16786 -0.784257 0
M  V30 8966 N 834.859 4.67435 -1.93231 0
M  V30 8967 C 833.157 4.41942 -0.600243 0
M  V30 8968 C 833.858 5.23792 -2.53016 0
M  V30 8969 N 832.834 5.12483 -1.8128 0
M  V30 8970 H 836.636 2.58902 -1.39093 0
M  V30 8971 H 834.15 1.38024 -0.855747 0
M  V30 8972 H 836.147 4.13542 0.528069 0
M  V30 8973 H 834.807 3.07598 1.03989 0
M  V30 8974 H 835.818 4.63375 -2.31309 0
M  V30 8975 H 832.495 4.16891 0.225369 0
M  V30 8976 H 833.885 5.73515 -3.50043 0
M  V30 8977 N 836.605 0.766683 1.37694 0
M  V30 8978 C 837.835 0.339446 2.03792 0
M  V30 8979 C 838.243 -1.04153 1.57952 0
M  V30 8980 O 837.586 -1.67521 0.753826 0
M  V30 8981 C 837.648 0.29822 3.58261 0
M  V30 8982 C 837.312 1.62293 4.27212 0
M  V30 8983 C 838.309 2.57447 4.51682 0
M  V30 8984 C 835.994 1.89597 4.65143 0
M  V30 8985 C 837.988 3.78117 5.13134 0
M  V30 8986 C 835.675 3.10538 5.26317 0
M  V30 8987 C 836.673 4.04617 5.50249 0
M  V30 8988 O 836.361 5.23429 6.10145 0
M  V30 8989 H 836.093 0.140952 0.661142 0
M  V30 8990 H 838.647 1.04022 1.77111 0
M  V30 8991 H 836.877 -0.458897 3.83967 0
M  V30 8992 H 838.566 -0.101263 4.05774 0
M  V30 8993 H 839.332 2.37633 4.22795 0
M  V30 8994 H 835.211 1.17199 4.45854 0
M  V30 8995 H 838.755 4.51563 5.3173 0
M  V30 8996 H 834.652 3.3024 5.54628 0
M  V30 8997 H 835.42 5.24187 6.28626 0
M  V30 8998 N 838.083 -1.48885 0.516809 0
M  V30 8999 C 839.494 -1.86557 0.0729921 0
M  V30 9000 C 839.845 -1.42767 -1.34581 0
M  V30 9001 O 838.97 -0.812514 -2.00567 0
M  V30 9002 C 839.565 -3.38567 0.125686 0
M  V30 9003 C 838.124 -3.75481 -0.262867 0
M  V30 9004 C 837.271 -2.72913 0.491281 0
M  V30 9005 H 840.222 -1.40978 0.728767 0
M  V30 9006 H 840.243 -3.74629 -0.665831 0
M  V30 9007 H 839.755 -3.70408 1.15842 0
M  V30 9008 H 837.856 -3.49251 -1.29824 0
M  V30 9009 H 837.969 -4.79052 0.067579 0
M  V30 9010 H 836.333 -2.54627 -0.0608525 0
M  V30 9011 H 837.116 -3.07599 1.5244 0
M  V30 9012 N 839.561 -0.251338 -1.55583 0
M  V30 9013 C 840.977 0.103409 -1.59265 0
M  V30 9014 C 841.177 1.56559 -1.26852 0
M  V30 9015 O 840.233 2.31071 -1.01796 0
M  V30 9016 C 841.546 -0.249781 -2.99661 0
M  V30 9017 C 843.094 -0.194442 -3.12395 0
M  V30 9018 C 843.569 -0.521728 -4.55019 0
M  V30 9019 N 845.06 -0.472393 -4.60785 0
M  V30 9020 C 845.795 -0.698737 -5.69127 0
M  V30 9021 N 845.291 -0.988443 -6.85713 0
M  V30 9022 N 847.084 -0.629143 -5.58568 0
M  V30 9023 H 839.235 -1.20484 -1.74921 0
M  V30 9024 H 841.498 -0.485092 -0.814488 0
M  V30 9025 H 841.204 -1.26577 -3.28133 0
M  V30 9026 H 841.078 0.420973 -3.74844 0
M  V30 9027 H 843.465 0.812229 -2.83702 0
M  V30 9028 H 843.546 -0.899111 -2.39478 0
M  V30 9029 H 843.19 -1.52597 -4.84434 0
M  V30 9030 H 843.12 0.204468 -5.26203 0
M  V30 9031 H 845.611 -0.257386 -3.77022 0
M  V30 9032 H 845.924 -1.14846 -7.64219 0
M  V30 9033 H 844.269 -1.02596 -6.87386 0
M  V30 9034 H 847.46 -0.402826 -4.66364 0
M  V30 9035 H 847.633 -0.808935 -6.42931 0
M  V30 9036 N 841.039 1.57585 0.0217189 0
M  V30 9037 C 842.285 1.90733 0.706582 0
M  V30 9038 C 842.64 0.850732 1.7257 0
M  V30 9039 O 841.933 -0.139715 1.9109 0
M  V30 9040 C 842.127 3.28377 1.41079 0
M  V30 9041 C 841.956 4.47327 0.461395 0
M  V30 9042 C 840.726 5.05237 0.0797404 0
M  V30 9043 C 842.924 5.13626 -0.263302 0
M  V30 9044 N 840.906 6.07702 -0.870139 0
M  V30 9045 C 842.277 6.10722 -1.06859 0
M  V30 9046 C 844.332 4.96809 -0.329461 0
M  V30 9047 C 843.035 6.92813 -1.93397 0
M  V30 9048 C 845.061 5.79468 -1.18199 0
M  V30 9049 C 844.423 6.7614 -1.97519 0
M  V30 9050 H 840.522 0.74666 0.232427 0
M  V30 9051 H 843.106 1.94671 -0.0335228 0
M  V30 9052 H 841.277 3.25354 2.12131 0
M  V30 9053 H 843.009 3.49018 2.04862 0
M  V30 9054 H 839.764 4.71519 0.443498 0
M  V30 9055 H 840.188 6.6361 -1.33981 0
M  V30 9056 H 844.83 4.2194 0.269485 0
M  V30 9057 H 842.548 7.67022 -2.54369 0
M  V30 9058 H 846.134 5.68502 -1.23681 0
M  V30 9059 H 845.014 7.38989 -2.62421 0
M  V30 9060 N 842.517 -0.29412 1.54831 0
M  V30 9061 C 843.766 -1.02614 1.73647 0
M  V30 9062 C 844.079 -1.88193 0.533162 0
M  V30 9063 O 845.285 -2.64713 0.603275 0
M  V30 9064 C 843.741 -1.87417 3.07251 0
M  V30 9065 C 843.349 -1.06806 4.35082 0
M  V30 9066 C 845.093 -2.60176 3.35423 0
M  V30 9067 C 843 -1.90926 5.59733 0
M  V30 9068 H 841.93 -0.386834 0.647206 0
M  V30 9069 H 844.581 -0.282789 1.81308 0
M  V30 9070 H 842.963 -2.65765 2.93572 0
M  V30 9071 H 844.137 -0.330226 4.59615 0
M  V30 9072 H 842.452 -0.455979 4.13896 0
M  V30 9073 H 845.049 -3.23476 4.25755 0
M  V30 9074 H 845.392 -3.29365 2.54606 0
M  V30 9075 H 845.925 -1.88871 3.50103 0
M  V30 9076 H 842.664 -1.26194 6.43238 0
M  V30 9077 H 842.184 -2.62363 5.39375 0
M  V30 9078 H 843.863 -2.48807 5.97247 0
M  V30 9079 N 843.995 -1.47404 -0.557645 0
M  V30 9080 C 845.223 -1.57622 -1.34026 0
M  V30 9081 C 845.638 -0.226256 -1.87439 0
M  V30 9082 O 844.995 0.78043 -1.64971 0
M  V30 9083 C 845.046 -2.60111 -2.51047 0
M  V30 9084 O 844.767 -3.89866 -1.99841 0
M  V30 9085 C 846.268 -2.80508 -3.43264 0
M  V30 9086 H 843.488 -0.532271 -0.40857 0
M  V30 9087 H 846.032 -1.93019 -0.675555 0
M  V30 9088 H 844.187 -2.27648 -3.13457 0
M  V30 9089 H 844.601 -4.45864 -2.76234 0
M  V30 9090 H 846.075 -3.56084 -4.21792 0
M  V30 9091 H 846.552 -1.88314 -3.9678 0
M  V30 9092 H 847.158 -3.14166 -2.86671 0
M  V30 9093 N 845.473 0.80434 -1.35529 0
M  V30 9094 C 846.42 1.91629 -1.28635 0
M  V30 9095 C 847.39 1.65348 -0.157862 0
M  V30 9096 O 848.575 1.87711 -0.341934 0
M  V30 9097 C 845.715 3.28207 -1.0665 0
M  V30 9098 C 844.828 3.66659 -2.28441 0
M  V30 9099 C 843.963 4.92279 -1.99588 0
M  V30 9100 C 843.002 5.23365 -3.1742 0
M  V30 9101 N 842.139 6.40165 -2.88328 0
M  V30 9102 H 846.979 1.96858 -2.23721 0
M  V30 9103 H 844.516 0.962871 -1.11208 0
M  V30 9104 H 846.474 4.06945 -0.919343 0
M  V30 9105 H 845.104 3.22441 -0.152253 0
M  V30 9106 H 844.156 2.83164 -2.54013 0
M  V30 9107 H 845.468 3.8559 -3.1642 0
M  V30 9108 H 844.622 5.78847 -1.81715 0
M  V30 9109 H 843.361 4.75387 -1.08896 0
M  V30 9110 H 842.366 4.35285 -3.35867 0
M  V30 9111 H 843.591 5.42185 -4.08916 0
M  V30 9112 H 841.537 6.24694 -2.00233 0
M  V30 9113 H 841.454 6.59357 -3.69843 0
M  V30 9114 H 842.722 7.29755 -2.74002 0
M  V30 9115 N 846.951 1.19563 1.02676 0
M  V30 9116 C 847.861 0.950691 2.14474 0
M  V30 9117 C 848.877 -0.0900219 1.73767 0
M  V30 9118 O 850.053 0.0951063 2.01175 0
M  V30 9119 C 847.118 0.494917 3.43149 0
M  V30 9120 C 846.179 1.60527 3.98158 0
M  V30 9121 C 845.412 1.17115 5.20692 0
M  V30 9122 O 845.635 0.0355937 5.70389 0
M  V30 9123 O 844.569 1.97454 5.68591 0
M  V30 9124 H 848.395 1.88651 2.38001 0
M  V30 9125 H 845.98 0.978635 1.12885 0
M  V30 9126 H 847.862 0.249492 4.20661 0
M  V30 9127 H 846.537 -0.412434 3.21062 0
M  V30 9128 H 845.444 1.90487 3.21971 0
M  V30 9129 H 846.777 2.48925 4.24614 0
M  V30 9130 N 848.429 -1.21819 0.999893 0
M  V30 9131 C 849.654 -1.95298 0.698094 0
M  V30 9132 C 850.079 -1.73273 -0.731982 0
M  V30 9133 O 849.437 -1.01634 -1.50134 0
M  V30 9134 C 849.485 -3.45922 1.01834 0
M  V30 9135 O 848.589 -4.12223 0.120801 0
M  V30 9136 H 847.93 -0.610729 0.260588 0
M  V30 9137 H 850.46 -1.5472 1.33876 0
M  V30 9138 H 850.47 -3.96471 0.963074 0
M  V30 9139 H 849.145 -3.61278 2.06037 0
M  V30 9140 H 847.722 -3.72177 0.232153 0
M  V30 9141 N 849.908 -0.773975 -1.37286 0
M  V30 9142 C 850.855 -0.159938 -2.30245 0
M  V30 9143 C 851.825 0.687356 -1.51211 0
M  V30 9144 O 853.01 0.639255 -1.79773 0
M  V30 9145 C 850.15 0.711452 -3.37687 0
M  V30 9146 C 849.263 -0.152692 -4.3173 0
M  V30 9147 C 848.398 0.723613 -5.26248 0
M  V30 9148 C 847.437 -0.14293 -6.11933 0
M  V30 9149 N 846.574 0.691479 -6.98687 0
M  V30 9150 H 851.414 -0.958182 -2.82175 0
M  V30 9151 H 848.951 -0.48411 -1.38906 0
M  V30 9152 H 850.909 1.2315 -3.9861 0
M  V30 9153 H 849.539 1.47528 -2.87116 0
M  V30 9154 H 848.591 -0.790574 -3.72094 0
M  V30 9155 H 849.903 -0.821027 -4.91997 0
M  V30 9156 H 849.057 1.31006 -5.92387 0
M  V30 9157 H 847.796 1.42562 -4.66398 0
M  V30 9158 H 846.801 -0.7419 -5.44771 0
M  V30 9159 H 848.026 -0.842305 -6.73856 0
M  V30 9160 H 845.972 1.37806 -6.41362 0
M  V30 9161 H 845.889 0.0804911 -7.55957 0
M  V30 9162 H 847.157 1.26225 -7.69212 0
M  V30 9163 N 851.386 1.48609 -0.524698 0
M  V30 9164 C 852.663 1.95454 0.075465 0
M  V30 9165 C 853.043 1.46682 1.51814 0
M  V30 9166 O 852.391 0.690975 2.17802 0
M  V30 9167 C 852.601 3.48981 -0.0363273 0
M  V30 9168 C 853.949 4.24414 0.125624 0
M  V30 9169 O 854.973 3.5618 0.0377239 0
M  V30 9170 O 853.832 5.45625 0.309104 0
M  V30 9171 H 850.926 0.822902 0.0822256 0
M  V30 9172 H 853.472 1.59153 -0.588921 0
M  V30 9173 H 852.244 3.77185 -1.04149 0
M  V30 9174 H 851.867 3.91963 0.667146 0
M  V30 9175 N 852.864 0.259585 1.55447 0
M  V30 9176 C 854.113 -0.362163 1.98422 0
M  V30 9177 C 854.426 -1.58135 1.1512 0
M  V30 9178 O 855.632 -2.27506 1.48166 0
M  V30 9179 C 854.088 -0.695722 3.53111 0
M  V30 9180 C 853.696 0.502784 4.4517 0
M  V30 9181 C 855.44 -1.28096 4.04712 0
M  V30 9182 C 853.347 0.144674 5.91223 0
M  V30 9183 H 852.277 -0.139092 0.74106 0
M  V30 9184 H 854.928 0.361798 1.79898 0
M  V30 9185 H 853.31 -1.47816 3.67378 0
M  V30 9186 H 854.484 1.27994 4.42667 0
M  V30 9187 H 852.799 1.0038 4.0412 0
M  V30 9188 H 855.396 -1.56243 5.11363 0
M  V30 9189 H 855.739 -2.20969 3.52815 0
M  V30 9190 H 856.272 -0.561146 3.93822 0
M  V30 9191 H 853.011 1.04087 6.47183 0
M  V30 9192 H 852.531 -0.596023 5.96831 0
M  V30 9193 H 854.21 -0.268651 6.46442 0
M  V30 9194 N 854.342 -1.57594 -0.0133615 0
M  V30 9195 C 855.272 -2.10611 -1.00823 0
M  V30 9196 C 856.253 -1.01217 -1.36708 0
M  V30 9197 O 857.438 -1.28827 -1.45318 0
M  V30 9198 C 854.568 -2.59844 -2.30431 0
M  V30 9199 C 853.522 -3.73644 -2.08745 0
M  V30 9200 C 852.848 -4.09141 -3.4425 0
M  V30 9201 C 854.148 -5.01454 -1.46086 0
M  V30 9202 H 855.842 -2.93985 -0.566849 0
M  V30 9203 H 853.388 -1.41423 -0.271219 0
M  V30 9204 H 855.341 -2.95557 -3.00373 0
M  V30 9205 H 854.065 -1.73573 -2.76658 0
M  V30 9206 H 852.724 -3.38303 -1.41232 0
M  V30 9207 H 852.372 -3.19914 -3.88155 0
M  V30 9208 H 852.072 -4.85802 -3.3056 0
M  V30 9209 H 853.596 -4.47402 -4.15528 0
M  V30 9210 H 855.01 -5.35024 -2.05966 0
M  V30 9211 H 853.407 -5.82832 -1.42924 0
M  V30 9212 H 854.477 -4.83003 -0.428471 0
M  V30 9213 N 855.82 0.285905 -1.54985 0
M  V30 9214 C 856.73 1.37534 -1.90057 0
M  V30 9215 C 857.746 1.54707 -0.796348 0
M  V30 9216 O 858.922 1.69082 -1.09423 0
M  V30 9217 C 855.987 2.7167 -2.15398 0
M  V30 9218 C 855.048 2.63354 -3.39033 0
M  V30 9219 C 854.281 3.91093 -3.63155 0
M  V30 9220 O 854.504 4.91169 -2.90015 0
M  V30 9221 O 853.438 3.92075 -4.56685 0
M  V30 9222 H 857.264 1.10791 -2.8277 0
M  V30 9223 H 854.849 0.483303 -1.41367 0
M  V30 9224 H 856.731 3.51006 -2.33179 0
M  V30 9225 H 855.406 2.98226 -1.25868 0
M  V30 9226 H 854.313 1.82438 -3.26599 0
M  V30 9227 H 855.646 2.41749 -4.2874 0
M  V30 9228 N 857.298 1.47698 0.54982 0
M  V30 9229 C 858.245 1.60739 1.65625 0
M  V30 9230 C 859.215 0.450129 1.59884 0
M  V30 9231 O 860.4 0.671123 1.78607 0
M  V30 9232 C 857.54 1.63457 3.03934 0
M  V30 9233 C 856.653 2.90152 3.20056 0
M  V30 9234 C 855.788 2.84157 4.48807 0
M  V30 9235 C 854.827 4.05644 4.58387 0
M  V30 9236 N 853.964 3.97843 5.78503 0
M  V30 9237 H 858.804 2.55234 1.53817 0
M  V30 9238 H 856.341 1.26593 0.749173 0
M  V30 9239 H 858.299 1.63015 3.84034 0
M  V30 9240 H 856.929 0.724689 3.1456 0
M  V30 9241 H 855.981 3.00428 2.33339 0
M  V30 9242 H 857.293 3.80097 3.22998 0
M  V30 9243 H 856.447 2.82006 5.37175 0
M  V30 9244 H 855.186 1.91908 4.48356 0
M  V30 9245 H 854.191 4.08092 3.6843 0
M  V30 9246 H 855.416 4.9903 4.60593 0
M  V30 9247 H 853.362 3.08401 5.78986 0
M  V30 9248 H 853.279 4.81473 5.82855 0
M  V30 9249 H 854.547 3.99719 6.69212 0
M  V30 9250 N 858.776 -0.797141 1.35954 0
M  V30 9251 C 859.706 -1.92387 1.32323 0
M  V30 9252 C 860.687 -1.68967 0.196007 0
M  V30 9253 O 861.872 -1.90193 0.39245 0
M  V30 9254 C 859.002 -3.29286 1.10398 0
M  V30 9255 C 857.956 -3.67212 2.19862 0
M  V30 9256 C 857.282 -5.02377 1.8309 0
M  V30 9257 C 858.582 -3.76602 3.61896 0
M  V30 9258 H 860.276 -1.95683 2.26602 0
M  V30 9259 H 857.822 -0.94007 1.09081 0
M  V30 9260 H 859.775 -4.07721 1.06495 0
M  V30 9261 H 858.499 -3.26358 0.125668 0
M  V30 9262 H 857.158 -2.91069 2.22878 0
M  V30 9263 H 856.806 -4.95961 0.838527 0
M  V30 9264 H 856.506 -5.28722 2.56372 0
M  V30 9265 H 858.03 -5.8324 1.80729 0
M  V30 9266 H 859.444 -4.45246 3.6115 0
M  V30 9267 H 857.841 -4.14425 4.34018 0
M  V30 9268 H 858.911 -2.77906 3.97361 0
M  V30 9269 N 860.254 -1.20106 -1.0204 0
M  V30 9270 C 861.501 -1.00889 -1.75578 0
M  V30 9271 C 861.829 0.459415 -1.88996 0
M  V30 9272 O 861.084 1.35735 -1.40977 0
M  V30 9273 C 861.383 -1.63308 -3.17908 0
M  V30 9274 C 861.049 -3.13091 -3.24476 0
M  V30 9275 C 859.711 -3.53968 -3.25976 0
M  V30 9276 C 862.063 -4.09093 -3.22944 0
M  V30 9277 C 859.391 -4.89381 -3.2361 0
M  V30 9278 C 861.743 -5.44447 -3.22119 0
M  V30 9279 C 860.407 -5.84742 -3.2192 0
M  V30 9280 H 859.677 -0.36918 -0.642485 0
M  V30 9281 H 862.324 -1.49475 -1.19706 0
M  V30 9282 H 860.629 -1.06974 -3.76914 0
M  V30 9283 H 862.326 -1.45958 -3.73493 0
M  V30 9284 H 858.916 -2.80526 -3.24042 0
M  V30 9285 H 863.1 -3.78549 -3.20958 0
M  V30 9286 H 858.356 -5.1987 -3.21785 0
M  V30 9287 H 862.53 -6.18584 -3.19885 0
M  V30 9288 H 860.157 -6.89642 -3.19841 0
M  V30 9289 N 861.732 1.21287 -1.00634 0
M  V30 9290 C 862.642 2.27388 -0.577226 0
M  V30 9291 C 863.658 1.69791 0.380399 0
M  V30 9292 O 864.834 1.99918 0.2439 0
M  V30 9293 C 861.899 3.46588 0.0880532 0
M  V30 9294 C 860.96 4.19453 -0.914222 0
M  V30 9295 C 860.193 5.32962 -0.280596 0
M  V30 9296 O 860.416 5.62895 0.922265 0
M  V30 9297 O 859.35 5.93666 -0.992196 0
M  V30 9298 H 863.176 2.66289 -1.46028 0
M  V30 9299 H 860.761 1.2771 -0.775283 0
M  V30 9300 H 862.643 4.18881 0.460094 0
M  V30 9301 H 861.318 3.09585 0.945461 0
M  V30 9302 H 860.225 3.49376 -1.33744 0
M  V30 9303 H 861.558 4.6037 -1.74126 0
M  V30 9304 N 863.21 0.781244 1.36873 0
M  V30 9305 C 864.626 0.461968 1.52768 0
M  V30 9306 C 864.826 -1.02099 1.73719 0
M  V30 9307 O 863.882 -1.80665 1.76399 0
M  V30 9308 C 865.195 1.2853 2.71846 0
M  V30 9309 C 866.743 1.27817 2.85713 0
M  V30 9310 C 867.218 2.08506 4.07786 0
M  V30 9311 N 868.709 2.05909 4.14917 0
M  V30 9312 C 869.444 2.65118 5.08429 0
M  V30 9313 N 868.94 3.33152 6.07438 0
M  V30 9314 N 870.733 2.54896 5.00983 0
M  V30 9315 H 862.884 1.74198 1.21527 0
M  V30 9316 H 865.147 0.740027 0.592506 0
M  V30 9317 H 864.853 2.3366 2.62861 0
M  V30 9318 H 864.727 0.920981 3.65784 0
M  V30 9319 H 867.114 0.234817 2.94164 0
M  V30 9320 H 867.195 1.68219 1.92707 0
M  V30 9321 H 866.839 3.12867 4.00096 0
M  V30 9322 H 866.769 1.65479 4.99924 0
M  V30 9323 H 869.26 1.56386 3.44023 0
M  V30 9324 H 869.573 3.75681 6.75339 0
M  V30 9325 H 867.918 3.37253 6.07689 0
M  V30 9326 H 871.109 2.01352 4.22581 0
M  V30 9327 H 871.282 3.01332 5.73675 0
M  V30 9328 N 864.689 -1.48329 0.532571 0
M  V30 9329 C 865.599 -2.33445 -0.232546 0
M  V30 9330 C 866.615 -1.46651 -0.93645 0
M  V30 9331 O 867.791 -1.79627 -0.910834 0
M  V30 9332 C 864.856 -3.22824 -1.26434 0
M  V30 9333 C 863.917 -4.25492 -0.570511 0
M  V30 9334 C 863.15 -5.10601 -1.55315 0
M  V30 9335 O 863.373 -4.97733 -2.78599 0
M  V30 9336 O 862.307 -5.91927 -1.09112 0
M  V30 9337 H 866.133 -3.00119 0.464988 0
M  V30 9338 H 863.718 -1.46489 0.293462 0
M  V30 9339 H 865.6 -3.78103 -1.86055 0
M  V30 9340 H 864.275 -2.58807 -1.94424 0
M  V30 9341 H 863.182 -3.74041 0.0662587 0
M  V30 9342 H 864.515 -4.92154 0.0674904 0
M  V30 9343 N 866.167 -0.267825 -1.55308 0
M  V30 9344 C 867.578 0.231344 -1.85261 0
M  V30 9345 C 867.929 1.56006 -1.18982 0
M  V30 9346 O 867.054 2.1111 -0.475554 0
M  V30 9347 C 867.649 0.426537 -3.36104 0
M  V30 9348 C 866.208 0.869945 -3.66209 0
M  V30 9349 C 865.355 -0.0409522 -2.7727 0
M  V30 9350 H 868.306 -0.489821 -1.50952 0
M  V30 9351 H 868.327 1.26616 -3.58816 0
M  V30 9352 H 867.839 -0.540678 -3.84315 0
M  V30 9353 H 865.94 1.84889 -3.23492 0
M  V30 9354 H 866.053 0.712316 -4.73775 0
M  V30 9355 H 864.417 0.474097 -2.50249 0
M  V30 9356 H 865.2 -1.00392 -3.28293 0
M  V30 9357 N 867.645 1.57599 0.00500368 0
M  V30 9358 C 868.873 1.94626 0.702016 0
M  V30 9359 C 869.288 0.86953 1.67585 0
M  V30 9360 O 868.645 -0.15199 1.81866 0
M  V30 9361 C 868.696 3.31658 1.43824 0
M  V30 9362 O 868.417 4.35197 0.503467 0
M  V30 9363 C 869.918 3.83114 2.23021 0
M  V30 9364 H 867.138 0.641785 0.195841 0
M  V30 9365 H 869.682 2.04451 -0.0446287 0
M  V30 9366 H 867.837 3.23156 2.13655 0
M  V30 9367 H 868.251 5.1444 1.02235 0
M  V30 9368 H 869.725 4.81438 2.7004 0
M  V30 9369 H 870.202 3.15559 3.05482 0
M  V30 9370 H 870.808 3.94775 1.58216 0
M  V30 9371 N 869.123 -0.277682 1.55134 0
M  V30 9372 C 870.07 -1.34313 1.87693 0
M  V30 9373 C 871.04 -1.49298 0.727973 0
M  V30 9374 O 872.225 -1.6378 0.978807 0
M  V30 9375 C 869.365 -2.69922 2.15026 0
M  V30 9376 C 868.478 -2.63197 3.42565 0
M  V30 9377 C 867.613 -3.90955 3.59622 0
M  V30 9378 C 866.652 -3.78722 4.8087 0
M  V30 9379 N 865.789 -4.98303 4.94609 0
M  V30 9380 H 870.629 -1.05847 2.78569 0
M  V30 9381 H 868.166 -0.511469 1.37922 0
M  V30 9382 H 870.124 -3.48817 2.28872 0
M  V30 9383 H 868.754 -2.966 1.2739 0
M  V30 9384 H 867.806 -1.76038 3.37216 0
M  V30 9385 H 869.118 -2.50056 4.31594 0
M  V30 9386 H 868.272 -4.78291 3.7326 0
M  V30 9387 H 867.011 -4.06957 2.6877 0
M  V30 9388 H 866.016 -2.89769 4.67241 0
M  V30 9389 H 867.241 -3.64242 5.73153 0
M  V30 9390 H 865.187 -5.14725 4.06687 0
M  V30 9391 H 865.104 -4.87675 5.77676 0
M  V30 9392 H 866.372 -5.87225 5.12628 0
M  V30 9393 N 870.601 -1.47988 -0.541979 0
M  V30 9394 C 872.017 -1.33843 -0.869383 0
M  V30 9395 C 872.217 -0.340374 -1.98604 0
M  V30 9396 O 871.273 0.242696 -2.51331 0
M  V30 9397 C 872.586 -2.73568 -1.24823 0
M  V30 9398 C 874.134 -2.81967 -1.3588 0
M  V30 9399 C 874.609 -4.22368 -1.77114 0
M  V30 9400 N 876.1 -4.24983 -1.84237 0
M  V30 9401 C 876.835 -5.30547 -2.17503 0
M  V30 9402 N 876.331 -6.46401 -2.49275 0
M  V30 9403 N 878.124 -5.17933 -2.18406 0
M  V30 9404 H 870.275 -2.11503 0.195001 0
M  V30 9405 H 872.538 -0.947681 0.0245862 0
M  V30 9406 H 872.244 -3.48107 -0.501435 0
M  V30 9407 H 872.118 -3.06322 -2.20106 0
M  V30 9408 H 874.505 -2.07692 -2.09638 0
M  V30 9409 H 874.586 -2.52848 -0.387478 0
M  V30 9410 H 874.23 -4.97155 -1.0392 0
M  V30 9411 H 874.16 -4.48922 -2.75275 0
M  V30 9412 H 876.651 -3.41411 -1.62009 0
M  V30 9413 H 876.964 -7.22698 -2.73729 0
M  V30 9414 H 875.309 -6.49696 -2.46821 0
M  V30 9415 H 878.5 -4.26445 -1.93034 0
M  V30 9416 H 878.673 -6.00307 -2.44 0
M  V30 9417 N 872.079 0.78992 -1.36375 0
M  V30 9418 C 873.009 1.91683 -1.33341 0
M  V30 9419 C 873.99 1.68861 -0.204965 0
M  V30 9420 O 875.175 1.89982 -0.402531 0
M  V30 9421 C 872.305 3.28696 -1.12143 0
M  V30 9422 C 871.259 3.66041 -2.21806 0
M  V30 9423 C 870.585 5.01399 -1.85751 0
M  V30 9424 C 871.885 3.74677 -3.63888 0
M  V30 9425 H 873.579 1.94478 -2.27637 0
M  V30 9426 H 871.125 0.934271 -1.09578 0
M  V30 9427 H 873.078 4.07151 -1.08656 0
M  V30 9428 H 871.802 3.26287 -0.142974 0
M  V30 9429 H 870.461 2.89883 -2.24418 0
M  V30 9430 H 870.109 4.9551 -0.864817 0
M  V30 9431 H 869.809 5.27355 -2.59173 0
M  V30 9432 H 871.333 5.82274 -1.83819 0
M  V30 9433 H 872.747 4.43324 -3.63506 0
M  V30 9434 H 871.144 4.12118 -4.3621 0
M  V30 9435 H 872.214 2.75795 -3.9883 0
M  V30 9436 N 873.557 1.20646 1.01402 0
M  V30 9437 C 874.805 1.01618 1.74695 0
M  V30 9438 C 875.126 -0.452438 1.89679 0
M  V30 9439 O 874.396 -1.32693 1.44116 0
M  V30 9440 H 872.976 0.373013 0.647202 0
M  V30 9441 H 875.638 1.518 1.22241 0
M  V30 9442 H 874.734 1.47666 2.74957 0
M  V30 9443 N 875.035 -1.20752 1.01276 0
M  V30 9444 C 876.281 -1.90302 0.700924 0
M  V30 9445 C 876.614 -1.78406 -0.767142 0
M  V30 9446 O 875.889 -1.16575 -1.55694 0
M  V30 9447 C 876.172 -3.41831 1.13242 0
M  V30 9448 C 876.025 -3.6268 2.66051 0
M  V30 9449 C 877.344 -4.34486 0.700738 0
M  V30 9450 H 874.463 -0.69107 0.256107 0
M  V30 9451 H 877.105 -1.42227 1.25982 0
M  V30 9452 H 875.255 -3.82906 0.656902 0
M  V30 9453 H 876.927 -3.30882 3.21426 0
M  V30 9454 H 875.17 -3.06281 3.07204 0
M  V30 9455 H 875.841 -4.68882 2.91296 0
M  V30 9456 H 878.317 -4.01036 1.10948 0
M  V30 9457 H 877.193 -5.39136 1.03073 0
M  V30 9458 H 877.454 -4.40307 -0.39778 0
M  V30 9459 N 876.513 -0.788492 -1.36457 0
M  V30 9460 C 877.741 -0.372365 -2.03522 0
M  V30 9461 C 878.156 1.01093 -1.59454 0
M  V30 9462 O 877.513 1.64824 -0.783535 0
M  V30 9463 C 877.564 -0.425435 -3.58988 0
M  V30 9464 O 877.285 -1.75418 -4.01448 0
M  V30 9465 C 878.786 0.000180167 -4.433 0
M  V30 9466 H 876.006 -0.1536 -0.653183 0
M  V30 9467 H 878.55 -1.06708 -1.74452 0
M  V30 9468 H 876.705 0.220856 -3.8677 0
M  V30 9469 H 877.119 -1.70437 -4.96036 0
M  V30 9470 H 878.593 -0.0880919 -5.5193 0
M  V30 9471 H 879.07 1.05269 -4.26398 0
M  V30 9472 H 879.676 -0.618563 -4.20778 0
M  V30 9473 N 877.991 1.48044 -0.54043 0
M  V30 9474 C 879.239 2.02097 -0.0101367 0
M  V30 9475 C 879.56 1.41881 1.33771 0
M  V30 9476 O 878.83 0.587923 1.8687 0
M  V30 9477 H 877.41 0.747 -0.000758716 0
M  V30 9478 H 880.072 1.81639 -0.706634 0
M  V30 9479 H 879.168 3.11969 0.0904474 0
M  V30 9480 N 879.47 0.276058 1.55163 0
M  V30 9481 C 880.418 -0.626978 2.2399 0
M  V30 9482 C 881.412 -1.15708 1.23725 0
M  V30 9483 O 882.618 -1.1106 1.41653 0
M  V30 9484 H 878.993 -0.220742 0.718872 0
M  V30 9485 H 880.964 -0.0236569 2.98391 0
M  V30 9486 C 879.713 -1.79935 2.97521 0
M  V30 9487 H 879.036 -1.40064 3.74463 0
M  V30 9488 H 880.476 -2.40781 3.48999 0
M  V30 9489 C 878.935 -2.68838 2.03046 0
M  V30 9490 O 879.465 -3.69224 1.58229 0
M  V30 9491 N 877.671 -2.36028 1.69527 0
M  V30 9492 H 877.218 -1.54442 2.06169 0
M  V30 9493 H 877.176 -2.95782 1.06586 0
M  V30 9494 N 880.948 -1.576 0.00335426 0
M  V30 9495 C 882.197 -1.89892 -0.680001 0
M  V30 9496 C 882.51 -0.878731 -1.7475 0
M  V30 9497 O 883.716 -1.09199 -2.48572 0
M  V30 9498 C 882.172 -3.37098 -1.26066 0
M  V30 9499 C 881.78 -4.4742 -0.227807 0
M  V30 9500 C 883.524 -3.78495 -1.92202 0
M  V30 9501 C 881.431 -5.85706 -0.81865 0
M  V30 9502 H 880.361 -0.708578 -0.257746 0
M  V30 9503 H 883.012 -1.83387 0.0644472 0
M  V30 9504 H 881.394 -3.38451 -2.05589 0
M  V30 9505 H 882.568 -4.57589 0.54307 0
M  V30 9506 H 880.883 -4.15064 0.333297 0
M  V30 9507 H 883.48 -4.7915 -2.37318 0
M  V30 9508 H 883.823 -3.12187 -2.75399 0
M  V30 9509 H 884.356 -3.79456 -1.19408 0
M  V30 9510 H 881.095 -6.55495 -0.0253787 0
M  V30 9511 H 880.615 -5.79196 -1.55861 0
M  V30 9512 H 882.294 -6.33469 -1.31627 0
M  V30 9513 N 882.426 0.269451 -1.5528 0
M  V30 9514 C 883.373 1.33316 -1.88403 0
M  V30 9515 C 884.343 1.48909 -0.735881 0
M  V30 9516 O 885.528 1.63259 -0.987479 0
M  V30 9517 C 882.668 2.68778 -2.16454 0
M  V30 9518 C 881.781 2.61377 -3.43956 0
M  V30 9519 C 880.916 3.89042 -3.6169 0
M  V30 9520 C 879.955 3.76166 -4.82872 0
M  V30 9521 N 879.092 4.95673 -4.97245 0
M  V30 9522 H 883.932 1.04368 -2.79126 0
M  V30 9523 H 881.469 0.504147 -1.38191 0
M  V30 9524 H 883.427 3.47599 -2.30719 0
M  V30 9525 H 882.057 2.9592 -1.28961 0
M  V30 9526 H 881.109 1.74247 -3.38145 0
M  V30 9527 H 882.421 2.47764 -4.32914 0
M  V30 9528 H 881.575 4.76304 -3.75791 0
M  V30 9529 H 880.314 4.05526 -2.70924 0
M  V30 9530 H 879.319 2.87287 -4.68771 0
M  V30 9531 H 880.544 3.61198 -5.75077 0
M  V30 9532 H 878.49 5.12561 -4.09411 0
M  V30 9533 H 878.407 4.84605 -5.80254 0
M  V30 9534 H 879.675 5.84498 -5.15735 0
M  V30 9535 N 883.904 1.48273 0.534124 0
M  V30 9536 C 885.153 1.55334 1.28663 0
M  V30 9537 C 885.466 0.230345 1.94239 0
M  V30 9538 O 886.672 0.179161 2.70908 0
M  V30 9539 C 885.128 2.73927 2.33435 0
M  V30 9540 C 884.736 4.12852 1.73947 0
M  V30 9541 C 886.48 2.90298 3.09722 0
M  V30 9542 C 884.387 5.22711 2.76636 0
M  V30 9543 H 883.317 0.578262 0.483869 0
M  V30 9544 H 885.968 1.74598 0.564602 0
M  V30 9545 H 884.35 2.48089 3.08655 0
M  V30 9546 H 885.524 4.48691 1.04944 0
M  V30 9547 H 883.839 4.01562 1.10167 0
M  V30 9548 H 886.436 3.69542 3.86449 0
M  V30 9549 H 886.779 1.99598 3.6533 0
M  V30 9550 H 887.312 3.16017 2.41616 0
M  V30 9551 H 884.051 6.15362 2.25852 0
M  V30 9552 H 883.571 4.91364 3.43979 0
M  V30 9553 H 885.25 5.50648 3.39699 0
M  V30 9554 N 885.382 -0.782676 1.36792 0
M  V30 9555 C 886.332 -1.8855 1.28191 0
M  V30 9556 C 887.316 -1.59978 0.171984 0
M  V30 9557 O 888.508 -1.72295 0.405405 0
M  V30 9558 C 885.637 -3.25862 1.08021 0
M  V30 9559 C 884.723 -3.60422 2.2351 0
M  V30 9560 N 885.114 -3.66241 3.48857 0
M  V30 9561 C 883.412 -3.90523 2.15424 0
M  V30 9562 C 884.113 -3.97233 4.24948 0
M  V30 9563 N 883.089 -4.12567 3.53963 0
M  V30 9564 H 886.891 -1.91285 2.23131 0
M  V30 9565 H 884.405 -0.978554 1.29607 0
M  V30 9566 H 886.402 -4.04742 0.999458 0
M  V30 9567 H 885.062 -3.24399 0.139882 0
M  V30 9568 H 886.073 -3.48717 3.82906 0
M  V30 9569 H 882.75 -3.96945 1.29386 0
M  V30 9570 H 884.14 -4.08602 5.33379 0
M  V30 9571 N 886.86 -1.21182 -1.00761 0
M  V30 9572 C 888.271 -1.02652 -1.55947 0
M  V30 9573 C 888.622 0.414466 -1.91772 0
M  V30 9574 O 887.747 1.29727 -1.73204 0
M  V30 9575 C 888.342 -1.85713 -2.83366 0
M  V30 9576 C 886.901 -1.71523 -3.35048 0
M  V30 9577 C 886.048 -1.83087 -2.08265 0
M  V30 9578 H 888.999 -1.35242 -0.830379 0
M  V30 9579 H 889.02 -1.36583 -3.55141 0
M  V30 9580 H 888.532 -2.90584 -2.5726 0
M  V30 9581 H 886.633 -0.693257 -3.66094 0
M  V30 9582 H 886.746 -2.53333 -4.06644 0
M  V30 9583 H 885.11 -1.26367 -2.21141 0
M  V30 9584 H 885.893 -2.8946 -1.84575 0
M  V30 9585 N 888.338 1.20213 -1.01915 0
M  V30 9586 C 889.585 1.89647 -0.709955 0
M  V30 9587 C 889.913 1.7901 0.760631 0
M  V30 9588 O 889.168 1.17028 1.56853 0
M  V30 9589 C 889.467 3.40232 -1.09438 0
M  V30 9590 C 889.133 3.7107 -2.5616 0
M  V30 9591 C 887.795 3.79196 -2.96249 0
M  V30 9592 C 890.147 3.85169 -3.51133 0
M  V30 9593 C 887.475 3.98882 -4.30244 0
M  V30 9594 C 889.827 4.06365 -4.8482 0
M  V30 9595 C 888.491 4.12722 -5.24611 0
M  V30 9596 H 887.761 0.693967 -0.259791 0
M  V30 9597 H 890.408 1.42419 -1.2802 0
M  V30 9598 H 888.713 3.89292 -0.442596 0
M  V30 9599 H 890.41 3.92257 -0.832811 0
M  V30 9600 H 887 3.65346 -2.24099 0
M  V30 9601 H 891.184 3.78243 -3.21319 0
M  V30 9602 H 886.44 4.02039 -4.60624 0
M  V30 9603 H 890.614 4.16216 -5.58334 0
M  V30 9604 H 888.241 4.27728 -6.28453 0
M  V30 9605 N 889.816 0.795718 1.36037 0
M  V30 9606 C 891.063 0.371024 1.99072 0
M  V30 9607 C 891.391 -1.05896 1.63145 0
M  V30 9608 O 890.646 -1.7474 0.881163 0
M  V30 9609 C 890.945 0.489038 3.54038 0
M  V30 9610 C 890.611 1.88075 4.09803 0
M  V30 9611 C 889.273 2.26152 4.24745 0
M  V30 9612 C 891.625 2.79174 4.40126 0
M  V30 9613 C 888.953 3.54718 4.67324 0
M  V30 9614 C 891.305 4.07175 4.8414 0
M  V30 9615 C 889.969 4.45266 4.97287 0
M  V30 9616 H 889.239 0.135767 0.728456 0
M  V30 9617 H 891.886 1.0144 1.62426 0
M  V30 9618 H 890.191 -0.237823 3.91078 0
M  V30 9619 H 891.888 0.141374 4.00751 0
M  V30 9620 H 888.478 1.57488 3.98617 0
M  V30 9621 H 892.662 2.51009 4.28145 0
M  V30 9622 H 887.918 3.84093 4.75691 0
M  V30 9623 H 892.092 4.77875 5.06565 0
M  V30 9624 H 889.719 5.44943 5.30038 0
M  V30 9625 N 891.294 -1.47756 0.548274 0
M  V30 9626 C 892.241 -2.29893 -0.204408 0
M  V30 9627 C 893.211 -1.38509 -0.916761 0
M  V30 9628 O 894.396 -1.67472 -0.91421 0
M  V30 9629 C 891.536 -3.22282 -1.23403 0
M  V30 9630 C 890.649 -4.28753 -0.528654 0
M  V30 9631 C 889.784 -5.08303 -1.54279 0
M  V30 9632 C 888.823 -6.06557 -0.821893 0
M  V30 9633 N 887.96 -6.79098 -1.78243 0
M  V30 9634 H 892.8 -2.93739 0.502163 0
M  V30 9635 H 890.337 -1.44793 0.259471 0
M  V30 9636 H 892.295 -3.74262 -1.84348 0
M  V30 9637 H 890.925 -2.6032 -1.90875 0
M  V30 9638 H 889.977 -3.79899 0.195132 0
M  V30 9639 H 891.289 -4.98787 0.0365066 0
M  V30 9640 H 890.443 -5.64388 -2.22602 0
M  V30 9641 H 889.182 -4.3815 -2.14186 0
M  V30 9642 H 888.187 -5.49659 -0.12469 0
M  V30 9643 H 889.412 -6.78715 -0.228685 0
M  V30 9644 H 887.358 -6.11682 -2.37025 0
M  V30 9645 H 887.275 -7.4527 -1.26919 0
M  V30 9646 H 888.543 -7.39762 -2.45709 0
M  V30 9647 N 892.772 -0.284283 -1.55015 0
M  V30 9648 C 894 0.332948 -2.04203 0
M  V30 9649 C 894.415 1.48783 -1.16229 0
M  V30 9650 O 893.772 1.81567 -0.184323 0
M  V30 9651 C 893.823 0.805207 -3.52418 0
M  V30 9652 O 893.544 -0.303689 -4.37046 0
M  V30 9653 C 895.045 1.48931 -4.17534 0
M  V30 9654 H 892.265 0.0747447 -0.666824 0
M  V30 9655 H 894.809 -0.419048 -2.00161 0
M  V30 9656 H 892.964 1.50727 -3.56876 0
M  V30 9657 H 893.378 0.0609703 -5.24465 0
M  V30 9658 H 894.852 1.77108 -5.22816 0
M  V30 9659 H 895.329 2.42389 -3.66257 0
M  V30 9660 H 895.935 0.830867 -4.17105 0
M  V30 9661 N 894.251 1.57596 -0.0117121 0
M  V30 9662 C 895.5 1.9025 0.669921 0
M  V30 9663 C 895.813 0.887986 1.74282 0
M  V30 9664 O 897.019 1.10516 2.47989 0
M  V30 9665 C 895.475 3.37762 1.24277 0
M  V30 9666 C 895.083 4.47535 0.204076 0
M  V30 9667 C 896.827 3.79509 1.90192 0
M  V30 9668 C 894.734 5.86132 0.787577 0
M  V30 9669 H 893.664 0.709935 0.253984 0
M  V30 9670 H 896.315 1.8335 -0.0741718 0
M  V30 9671 H 894.697 3.39537 2.03791 0
M  V30 9672 H 895.871 4.57294 -0.56733 0
M  V30 9673 H 894.186 4.14881 -0.355305 0
M  V30 9674 H 896.783 4.80402 2.34773 0
M  V30 9675 H 897.126 3.13643 2.7374 0
M  V30 9676 H 897.659 3.80084 1.17394 0
M  V30 9677 H 894.398 6.55499 -0.00938418 0
M  V30 9678 H 893.918 5.80014 1.52787 0
M  V30 9679 H 895.597 6.34158 1.28265 0
M  V30 9680 N 895.729 -0.261212 1.5542 0
M  V30 9681 C 896.677 -1.34298 1.89913 0
M  V30 9682 C 897.671 -1.50547 0.776665 0
M  V30 9683 O 898.877 -1.52191 0.961139 0
M  V30 9684 H 895.252 -0.4494 0.602946 0
M  V30 9685 H 897.223 -1.02464 2.80256 0
M  V30 9686 C 895.972 -2.69423 2.19788 0
M  V30 9687 H 895.295 -2.57715 3.05652 0
M  V30 9688 H 896.735 -3.44026 2.47835 0
M  V30 9689 C 895.194 -3.21423 1.00939 0
M  V30 9690 O 895.724 -4.00921 0.250034 0
M  V30 9691 N 893.93 -2.7926 0.803883 0
M  V30 9692 H 893.477 -2.14724 1.42308 0
M  V30 9693 H 893.435 -3.14398 0.0103257 0
M  V30 9694 N 897.207 -1.48554 -0.526253 0
M  V30 9695 C 898.453 -1.57972 -1.28127 0
M  V30 9696 C 898.808 -0.251973 -1.90743 0
M  V30 9697 O 898.101 0.745524 -1.76501 0
M  V30 9698 C 898.295 -2.65739 -2.38993 0
M  V30 9699 C 898.124 -4.08864 -1.87244 0
M  V30 9700 C 896.894 -4.75959 -1.6968 0
M  V30 9701 C 899.092 -4.94912 -1.39882 0
M  V30 9702 N 897.074 -6.03486 -1.12596 0
M  V30 9703 C 898.445 -6.12714 -0.947696 0
M  V30 9704 C 900.5 -4.81107 -1.2822 0
M  V30 9705 C 899.203 -7.18234 -0.391507 0
M  V30 9706 C 901.229 -5.86752 -0.740001 0
M  V30 9707 C 900.591 -7.03765 -0.298968 0
M  V30 9708 H 896.69 -0.632588 -0.459735 0
M  V30 9709 H 899.274 -1.85452 -0.59294 0
M  V30 9710 H 897.445 -2.40075 -3.05317 0
M  V30 9711 H 899.177 -2.64821 -3.06026 0
M  V30 9712 H 895.932 -4.32351 -1.93312 0
M  V30 9713 H 896.356 -6.71509 -0.860541 0
M  V30 9714 H 900.998 -3.90978 -1.60922 0
M  V30 9715 H 898.716 -8.08083 -0.0521685 0
M  V30 9716 H 902.302 -5.78125 -0.652889 0
M  V30 9717 H 901.182 -7.84117 0.114052 0
M  V30 9718 N 898.685 0.775411 -1.37205 0
M  V30 9719 C 899.913 1.56446 -1.35397 0
M  V30 9720 C 900.328 1.887 0.0615437 0
M  V30 9721 O 899.685 1.51178 1.02233 0
M  V30 9722 C 899.736 2.87697 -2.18889 0
M  V30 9723 O 899.457 2.56828 -3.54924 0
M  V30 9724 C 900.958 3.81944 -2.25019 0
M  V30 9725 H 898.178 0.484792 -0.463916 0
M  V30 9726 H 900.722 0.961346 -1.80495 0
M  V30 9727 H 898.877 3.44442 -1.7731 0
M  V30 9728 H 899.291 3.40851 -3.98649 0
M  V30 9729 H 900.765 4.71055 -2.87769 0
M  V30 9730 H 901.242 4.20811 -1.25757 0
M  V30 9731 H 901.848 3.3113 -2.66895 0
M  V30 9732 N 900.163 1.21714 1.00117 0
M  V30 9733 C 901.093 1.00397 2.10815 0
M  V30 9734 C 902.074 -0.0723502 1.69946 0
M  V30 9735 O 903.259 0.0882398 1.93999 0
M  V30 9736 C 900.389 0.572001 3.42557 0
M  V30 9737 C 899.343 1.59331 3.97237 0
M  V30 9738 C 898.669 1.01746 5.2493 0
M  V30 9739 C 899.969 2.98117 4.28863 0
M  V30 9740 H 901.663 1.92983 2.28906 0
M  V30 9741 H 899.209 0.929273 1.10002 0
M  V30 9742 H 901.162 0.410018 4.19401 0
M  V30 9743 H 899.886 -0.38951 3.24269 0
M  V30 9744 H 898.545 1.74293 3.22518 0
M  V30 9745 H 898.193 0.0475491 5.02978 0
M  V30 9746 H 897.893 1.69969 5.62481 0
M  V30 9747 H 899.417 0.866881 6.04415 0
M  V30 9748 H 900.831 2.86578 4.96534 0
M  V30 9749 H 899.228 3.63389 4.77565 0
M  V30 9750 H 900.298 3.48674 3.36979 0
M  V30 9751 N 901.641 -1.19671 1.02551 0
M  V30 9752 C 902.571 -2.25009 0.623965 0
M  V30 9753 C 903.552 -1.66129 -0.36538 0
M  V30 9754 O 904.737 -1.92599 -0.248842 0
M  V30 9755 C 901.867 -3.47287 -0.0294869 0
M  V30 9756 C 900.821 -4.18818 0.881781 0
M  V30 9757 C 900.147 -5.34618 0.0936189 0
M  V30 9758 C 901.447 -4.73986 2.19396 0
M  V30 9759 H 903.141 -2.58851 1.50454 0
M  V30 9760 H 900.687 -1.24425 0.724872 0
M  V30 9761 H 902.64 -4.20168 -0.322016 0
M  V30 9762 H 901.364 -3.12635 -0.944838 0
M  V30 9763 H 900.023 -3.47815 1.15845 0
M  V30 9764 H 899.671 -4.9621 -0.823661 0
M  V30 9765 H 899.371 -5.83409 0.700568 0
M  V30 9766 H 900.895 -6.10297 -0.192249 0
M  V30 9767 H 902.309 -5.38639 1.96319 0
M  V30 9768 H 900.706 -5.3325 2.75254 0
M  V30 9769 H 901.776 -3.92238 2.85092 0
M  V30 9770 N 903.119 -0.802921 -1.35613 0
M  V30 9771 C 904.029 -0.212177 -2.33639 0
M  V30 9772 C 905.045 0.642871 -1.61689 0
M  V30 9773 O 906.221 0.555485 -1.93588 0
M  V30 9774 C 903.286 0.632406 -3.40883 0
M  V30 9775 C 902.347 -0.242708 -4.28613 0
M  V30 9776 C 901.58 0.56166 -5.30736 0
M  V30 9777 O 901.803 1.79664 -5.41366 0
M  V30 9778 O 900.737 -0.0455387 -6.01883 0
M  V30 9779 H 904.563 -1.023 -2.85952 0
M  V30 9780 H 902.148 -0.564636 -1.38319 0
M  V30 9781 H 904.03 1.11358 -4.0642 0
M  V30 9782 H 902.705 1.42089 -2.90848 0
M  V30 9783 H 901.612 -0.77094 -3.6607 0
M  V30 9784 H 902.945 -0.995046 -4.82037 0
M  V30 9785 N 904.597 1.47463 -0.556102 0
M  V30 9786 C 905.544 2.29998 0.192213 0
M  V30 9787 C 906.514 1.38993 0.909403 0
M  V30 9788 O 907.699 1.67954 0.905316 0
M  V30 9789 C 904.839 3.22932 1.21692 0
M  V30 9790 C 903.952 4.29027 0.505908 0
M  V30 9791 C 903.087 5.09114 1.51581 0
M  V30 9792 C 902.126 6.06984 0.789714 0
M  V30 9793 N 901.263 6.80033 1.74639 0
M  V30 9794 H 906.103 2.93468 -0.517734 0
M  V30 9795 H 903.64 1.44654 -0.267147 0
M  V30 9796 H 905.598 3.75234 1.8236 0
M  V30 9797 H 904.228 2.61329 1.89491 0
M  V30 9798 H 903.28 3.7979 -0.215276 0
M  V30 9799 H 904.592 4.9876 -0.062958 0
M  V30 9800 H 903.746 5.6556 2.19606 0
M  V30 9801 H 902.485 4.3928 2.11859 0
M  V30 9802 H 901.49 5.49717 0.0955382 0
M  V30 9803 H 902.715 6.78827 0.192688 0
M  V30 9804 H 900.661 6.12931 2.33777 0
M  V30 9805 H 900.578 7.45933 1.22965 0
M  V30 9806 H 901.846 7.41054 2.41782 0
M  V30 9807 N 906.075 0.2925 1.54862 0
M  V30 9808 C 907.491 -0.0611461 1.59483 0
M  V30 9809 C 907.691 -1.53141 1.30958 0
M  V30 9810 O 906.747 -2.28291 1.07887 0
M  V30 9811 C 908.06 0.329143 2.98893 0
M  V30 9812 C 909.608 0.2772 3.1177 0
M  V30 9813 C 910.083 0.642185 4.53475 0
M  V30 9814 N 911.574 0.594396 4.5937 0
M  V30 9815 C 912.309 0.849385 5.67074 0
M  V30 9816 N 911.805 1.1699 6.82851 0
M  V30 9817 N 913.598 0.777016 5.56704 0
M  V30 9818 H 905.749 1.25079 1.71665 0
M  V30 9819 H 908.012 0.506516 0.80134 0
M  V30 9820 H 907.718 1.35233 3.24661 0
M  V30 9821 H 907.592 -0.321442 3.75828 0
M  V30 9822 H 909.979 -0.736725 2.85756 0
M  V30 9823 H 910.06 0.962289 2.3701 0
M  V30 9824 H 909.704 1.65388 4.80218 0
M  V30 9825 H 909.634 -0.0648831 5.2656 0
M  V30 9826 H 912.125 0.357256 3.76208 0
M  V30 9827 H 912.438 1.35067 7.60905 0
M  V30 9828 H 910.783 1.20785 6.84424 0
M  V30 9829 H 913.974 0.526333 4.65132 0
M  V30 9830 H 914.147 0.979113 6.4056 0
M  V30 9831 N 907.553 -1.57587 0.0200696 0
M  V30 9832 C 908.969 -1.56018 -0.336237 0
M  V30 9833 C 909.169 -1.02478 -1.73495 0
M  V30 9834 O 908.225 -0.667487 -2.43518 0
M  V30 9835 C 909.538 -3.00079 -0.193112 0
M  V30 9836 C 911.086 -3.11863 -0.266557 0
M  V30 9837 C 911.561 -4.57747 -0.152326 0
M  V30 9838 N 913.052 -4.62726 -0.209596 0
M  V30 9839 C 913.787 -5.73217 -0.144855 0
M  V30 9840 N 913.283 -6.92794 -0.0295487 0
M  V30 9841 N 915.076 -5.61751 -0.198184 0
M  V30 9842 H 907.227 -1.90722 0.93482 0
M  V30 9843 H 909.49 -0.876909 0.360186 0
M  V30 9844 H 909.196 -3.43167 0.770036 0
M  V30 9845 H 909.07 -3.64593 -0.967029 0
M  V30 9846 H 911.457 -2.68693 -1.22016 0
M  V30 9847 H 911.538 -2.50087 0.53758 0
M  V30 9848 H 911.182 -5.01595 0.797817 0
M  V30 9849 H 911.112 -5.17491 -0.97521 0
M  V30 9850 H 913.603 -3.76713 -0.299229 0
M  V30 9851 H 913.916 -7.72799 0.0134071 0
M  V30 9852 H 912.261 -6.95 0.00510737 0
M  V30 9853 H 915.452 -4.67222 -0.286603 0
M  V30 9854 H 915.625 -6.47839 -0.144266 0
M  V30 9855 N 909.032 0.252966 -1.55557 0
M  V30 9856 C 909.962 1.31691 -1.9282 0
M  V30 9857 C 910.943 1.50516 -0.7924 0
M  V30 9858 O 912.128 1.63225 -1.05219 0
M  V30 9859 C 909.258 2.67281 -2.21762 0
M  V30 9860 C 908.212 2.6316 -3.37536 0
M  V30 9861 C 907.538 4.02488 -3.52005 0
M  V30 9862 C 908.838 2.20675 -4.73392 0
M  V30 9863 H 910.532 1.00751 -2.81939 0
M  V30 9864 H 908.078 0.483219 -1.3565 0
M  V30 9865 H 910.031 3.41842 -2.46419 0
M  V30 9866 H 908.755 2.99845 -1.29463 0
M  V30 9867 H 907.414 1.91057 -3.12878 0
M  V30 9868 H 907.062 4.32307 -2.57137 0
M  V30 9869 H 906.762 4.00621 -4.29857 0
M  V30 9870 H 908.286 4.78758 -3.78977 0
M  V30 9871 H 909.7 2.84965 -4.97461 0
M  V30 9872 H 908.097 2.29931 -5.54303 0
M  V30 9873 H 909.167 1.15831 -4.70862 0
M  V30 9874 N 910.51 1.48831 0.518367 0
M  V30 9875 C 911.42 1.6692 1.64848 0
M  V30 9876 C 912.436 0.551711 1.65022 0
M  V30 9877 O 913.612 0.824251 1.83761 0
M  V30 9878 C 910.677 1.71559 3.01278 0
M  V30 9879 C 909.738 2.9502 3.11868 0
M  V30 9880 C 908.971 2.99428 4.4179 0
M  V30 9881 O 909.194 2.11914 5.29574 0
M  V30 9882 O 908.128 3.91719 4.5699 0
M  V30 9883 H 911.954 2.62623 1.52521 0
M  V30 9884 H 909.539 1.32368 0.692749 0
M  V30 9885 H 911.421 1.77064 3.82396 0
M  V30 9886 H 910.096 0.790316 3.13904 0
M  V30 9887 H 909.003 2.95042 2.30003 0
M  V30 9888 H 910.336 3.8697 3.04163 0
M  V30 9889 N 911.988 -0.768124 1.37614 0
M  V30 9890 C 913.399 -1.34462 1.29525 0
M  V30 9891 C 913.75 -1.96121 -0.0555168 0
M  V30 9892 O 912.875 -1.94069 -0.957406 0
M  V30 9893 C 913.47 -2.44475 2.34558 0
M  V30 9894 C 912.029 -2.97883 2.30093 0
M  V30 9895 C 911.176 -1.71131 2.18196 0
M  V30 9896 H 914.127 -0.568103 1.48183 0
M  V30 9897 H 914.148 -3.24047 1.99434 0
M  V30 9898 H 913.66 -1.99568 3.32858 0
M  V30 9899 H 911.761 -3.47156 1.35328 0
M  V30 9900 H 911.874 -3.53251 3.23652 0
M  V30 9901 H 910.238 -1.94197 1.64802 0
M  V30 9902 H 911.021 -1.28323 3.18415 0
M  V30 9903 N 913.466 -1.22244 -0.994698 0
M  V30 9904 C 914.877 -1.043 -1.5485 0
M  V30 9905 C 915.228 0.394102 -1.92201 0
M  V30 9906 O 914.353 1.27883 -1.74571 0
M  V30 9907 C 914.948 -1.88708 -2.8138 0
M  V30 9908 C 913.507 -1.75067 -3.3321 0
M  V30 9909 C 912.654 -1.85286 -2.06312 0
M  V30 9910 H 915.605 -1.36115 -0.815988 0
M  V30 9911 H 915.626 -1.40342 -3.53673 0
M  V30 9912 H 915.138 -2.93296 -2.54164 0
M  V30 9913 H 913.239 -0.732047 -3.65338 0
M  V30 9914 H 913.352 -2.57632 -4.03934 0
M  V30 9915 H 911.716 -1.28706 -2.19788 0
M  V30 9916 H 912.499 -2.91401 -1.81494 0
M  V30 9917 N 914.944 1.19125 -1.03184 0
M  V30 9918 C 916.191 1.88883 -0.730029 0
M  V30 9919 C 916.519 1.79807 0.741602 0
M  V30 9920 O 915.774 1.18686 1.55603 0
M  V30 9921 C 916.073 3.39052 -1.13041 0
M  V30 9922 C 915.739 3.68332 -2.60082 0
M  V30 9923 C 914.401 3.76033 -3.00254 0
M  V30 9924 C 916.753 3.81423 -3.55199 0
M  V30 9925 C 914.081 3.94296 -4.34451 0
M  V30 9926 C 916.433 4.012 -4.89103 0
M  V30 9927 C 915.097 4.07134 -5.28959 0
M  V30 9928 H 914.367 0.691172 -0.267137 0
M  V30 9929 H 917.014 1.41053 -1.29523 0
M  V30 9930 H 915.319 3.88801 -0.48386 0
M  V30 9931 H 917.016 3.91351 -0.874368 0
M  V30 9932 H 913.606 3.62948 -2.27961 0
M  V30 9933 H 917.79 3.74814 -3.25313 0
M  V30 9934 H 913.046 3.97131 -4.64863 0
M  V30 9935 H 917.22 4.10271 -5.62717 0
M  V30 9936 H 914.847 4.21038 -6.32954 0
M  V30 9937 N 916.422 0.810101 1.35185 0
M  V30 9938 C 917.838 0.494269 1.51754 0
M  V30 9939 C 918.038 -0.983907 1.75845 0
M  V30 9940 O 917.094 -1.76882 1.80191 0
M  V30 9941 C 918.407 1.34268 2.69059 0
M  V30 9942 C 919.955 1.33848 2.82938 0
M  V30 9943 C 920.43 2.17109 4.03271 0
M  V30 9944 N 921.921 2.14664 4.10456 0
M  V30 9945 C 922.656 2.75843 5.02691 0
M  V30 9946 N 922.152 3.45962 6.00235 0
M  V30 9947 N 923.945 2.65465 4.95464 0
M  V30 9948 H 916.096 1.76736 1.17805 0
M  V30 9949 H 918.359 0.752429 0.576676 0
M  V30 9950 H 918.065 2.39183 2.57845 0
M  V30 9951 H 917.939 0.998362 3.63748 0
M  V30 9952 H 920.326 0.29716 2.936 0
M  V30 9953 H 920.407 1.72269 1.89095 0
M  V30 9954 H 920.051 3.21283 3.93369 0
M  V30 9955 H 919.981 1.76046 4.96302 0
M  V30 9956 H 922.472 1.63648 3.40628 0
M  V30 9957 H 922.785 3.89922 6.67219 0
M  V30 9958 H 921.13 3.50067 6.00398 0
M  V30 9959 H 924.321 2.1027 4.18215 0
M  V30 9960 H 924.494 3.13433 5.67154 0
M  V30 9961 N 917.9 -1.47166 0.563914 0
M  V30 9962 C 919.311 -1.86231 0.132307 0
M  V30 9963 C 919.662 -1.46976 -1.29971 0
M  V30 9964 O 918.787 -0.875911 -1.97881 0
M  V30 9965 C 919.382 -3.37996 0.233335 0
M  V30 9966 C 917.941 -3.76127 -0.143278 0
M  V30 9967 C 917.088 -2.71212 0.577857 0
M  V30 9968 H 920.039 -1.38588 0.773249 0
M  V30 9969 H 920.06 -3.76558 -0.546309 0
M  V30 9970 H 919.572 -3.66535 1.27568 0
M  V30 9971 H 917.673 -3.53205 -1.18648 0
M  V30 9972 H 917.786 -4.78595 0.219952 0
M  V30 9973 H 916.15 -2.54692 0.020186 0
M  V30 9974 H 916.933 -3.02593 1.62149 0
M  V30 9975 N 919.378 -0.300708 -1.54705 0
M  V30 9976 C 920.325 0.57552 -2.23509 0
M  V30 9977 C 921.295 1.12979 -1.21758 0
M  V30 9978 O 922.48 1.17437 -1.50377 0
M  V30 9979 C 919.62 1.74167 -2.97926 0
M  V30 9980 C 918.733 1.21882 -4.1445 0
M  V30 9981 C 917.868 2.34881 -4.7645 0
M  V30 9982 C 916.907 1.79729 -5.85119 0
M  V30 9983 N 916.044 2.863 -6.41075 0
M  V30 9984 H 920.884 -0.0178257 -2.97995 0
M  V30 9985 H 918.421 -0.0205666 -1.47086 0
M  V30 9986 H 920.379 2.42753 -3.39303 0
M  V30 9987 H 919.009 2.30665 -2.25817 0
M  V30 9988 H 918.061 0.425227 -3.78016 0
M  V30 9989 H 919.373 0.775065 -4.92741 0
M  V30 9990 H 918.527 3.11415 -5.20678 0
M  V30 9991 H 917.266 2.82584 -3.97489 0
M  V30 9992 H 916.271 1.01684 -5.40315 0
M  V30 9993 H 917.496 1.32931 -6.65963 0
M  V30 9994 H 915.442 3.33337 -5.64998 0
M  V30 9995 H 915.359 2.46419 -7.14712 0
M  V30 9996 H 916.627 3.62732 -6.89961 0
M  V30 9997 N 920.856 1.57574 -0.0284266 0
M  V30 9998 C 922.102 1.92056 0.651327 0
M  V30 9999 C 922.435 0.905092 1.71819 0
M  V30 10000 O 921.71 -0.0722703 1.94366 0
M  V30 10001 C 921.993 3.37021 1.26841 0
M  V30 10002 C 921.846 4.49304 0.211157 0
M  V30 10003 C 923.165 3.81936 2.18662 0
M  V30 10004 H 920.284 0.698428 0.235304 0
M  V30 10005 H 922.926 1.89807 -0.0855435 0
M  V30 10006 H 921.076 3.39068 1.89644 0
M  V30 10007 H 922.748 4.5939 -0.419379 0
M  V30 10008 H 920.991 4.31317 -0.463445 0
M  V30 10009 H 921.662 5.47764 0.682518 0
M  V30 10010 H 924.138 3.8162 1.65847 0
M  V30 10011 H 923.014 4.84064 2.58792 0
M  V30 10012 H 923.275 3.174 3.07749 0
M  V30 10013 N 922.334 -0.244713 1.55689 0
M  V30 10014 C 923.281 -1.30301 1.905 0
M  V30 10015 C 924.251 -1.4772 0.759478 0
M  V30 10016 O 925.436 -1.61667 1.01333 0
M  V30 10017 C 922.576 -2.653 2.20703 0
M  V30 10018 C 921.689 -2.55872 3.48071 0
M  V30 10019 C 920.824 -3.83238 3.67834 0
M  V30 10020 C 919.863 -3.68436 4.88796 0
M  V30 10021 N 919 -4.877 5.05068 0
M  V30 10022 H 923.84 -0.999143 2.80751 0
M  V30 10023 H 921.377 -0.482099 1.38976 0
M  V30 10024 H 923.335 -3.43884 2.36219 0
M  V30 10025 H 921.965 -2.93831 1.33653 0
M  V30 10026 H 921.017 -1.68846 3.40874 0
M  V30 10027 H 922.329 -2.40845 4.36801 0
M  V30 10028 H 921.483 -4.70266 3.83321 0
M  V30 10029 H 920.222 -4.01165 2.77341 0
M  V30 10030 H 919.227 -2.79793 4.73282 0
M  V30 10031 H 920.452 -3.52003 5.8075 0
M  V30 10032 H 918.398 -5.05983 4.17513 0
M  V30 10033 H 918.315 -4.75312 5.8789 0
M  V30 10034 H 919.583 -5.76219 5.24969 0
M  V30 10035 N 923.813 -1.49104 -0.510467 0
M  V30 10036 C 925.038 -1.62068 -1.29417 0
M  V30 10037 C 925.463 -0.288432 -1.85875 0
M  V30 10038 O 924.821 0.742667 -1.65391 0
M  V30 10039 C 924.869 -2.68506 -2.40701 0
M  V30 10040 O 923.973 -2.27021 -3.4429 0
M  V30 10041 H 923.314 -0.542778 -0.382476 0
M  V30 10042 H 925.844 -1.95228 -0.612154 0
M  V30 10043 H 925.854 -2.90383 -2.86604 0
M  V30 10044 H 924.529 -3.65216 -1.98973 0
M  V30 10045 H 923.106 -2.15436 -3.04371 0
M  V30 10046 N 925.291 0.760815 -1.38019 0
M  V30 10047 C 926.702 1.33773 -1.30237 0
M  V30 10048 C 927.053 1.96148 0.0451153 0
M  V30 10049 O 926.178 1.94574 0.9471 0
M  V30 10050 C 926.773 2.43227 -2.35851 0
M  V30 10051 C 925.332 2.96659 -2.31669 0
M  V30 10052 C 924.479 1.69972 -2.191 0
M  V30 10053 H 927.43 0.560237 -1.48482 0
M  V30 10054 H 927.451 3.22985 -2.01149 0
M  V30 10055 H 926.963 1.978 -3.33911 0
M  V30 10056 H 925.064 3.46433 -1.37167 0
M  V30 10057 H 925.177 3.51529 -3.25521 0
M  V30 10058 H 923.541 1.9332 -1.65829 0
M  V30 10059 H 924.324 1.26633 -3.19091 0
M  V30 10060 N 926.769 1.22769 0.988202 0
M  V30 10061 C 928.185 0.988665 1.2529 0
M  V30 10062 C 928.385 -0.314938 1.99024 0
M  V30 10063 O 927.441 -1.03637 2.30251 0
M  V30 10064 C 928.754 2.19046 2.06009 0
M  V30 10065 C 930.302 2.23452 2.19176 0
M  V30 10066 C 930.777 3.43196 3.03283 0
M  V30 10067 N 932.268 3.43387 3.10869 0
M  V30 10068 C 933.003 4.32693 3.7625 0
M  V30 10069 N 932.499 5.32224 4.43519 0
M  V30 10070 N 934.292 4.20457 3.73058 0
M  V30 10071 H 926.443 2.06575 0.494014 0
M  V30 10072 H 928.706 0.905452 0.28082 0
M  V30 10073 H 928.412 3.13607 1.59197 0
M  V30 10074 H 928.286 2.19492 3.06763 0
M  V30 10075 H 930.673 1.29436 2.65199 0
M  V30 10076 H 930.754 2.27042 1.17836 0
M  V30 10077 H 930.398 4.37515 2.57959 0
M  V30 10078 H 930.328 3.36847 4.04774 0
M  V30 10079 H 932.819 2.71368 2.62998 0
M  V30 10080 H 933.132 5.9664 4.91163 0
M  V30 10081 H 931.477 5.36133 4.42252 0
M  V30 10082 H 934.668 3.41949 3.19669 0
M  V30 10083 H 934.841 4.90261 4.23731 0
M  V30 10084 N 928.247 -1.18576 1.03814 0
M  V30 10085 C 929.524 -1.8433 0.654358 0
M  V30 10086 C 929.904 -1.92504 -0.866338 0
M  V30 10087 O 929.252 -1.44904 -1.76678 0
M  V30 10088 C 929.462 -3.22778 1.32723 0
M  V30 10089 C 930.81 -3.98841 1.45641 0
M  V30 10090 O 931.834 -3.32209 1.28514 0
M  V30 10091 O 930.693 -5.18219 1.73526 0
M  V30 10092 H 927.787 -0.794766 0.228638 0
M  V30 10093 H 930.333 -1.25989 1.13687 0
M  V30 10094 H 929.105 -3.11717 2.36534 0
M  V30 10095 H 928.728 -3.88772 0.833176 0
M  V30 10096 N 929.725 -0.817259 -1.34754 0
M  V30 10097 C 930.955 -0.414849 -2.02392 0
M  V30 10098 C 931.363 0.982186 -1.61709 0
M  V30 10099 O 930.706 1.64607 -0.815481 0
M  V30 10100 C 930.768 -0.430981 -3.56907 0
M  V30 10101 C 930.432 -1.78037 -4.20894 0
M  V30 10102 C 931.429 -2.74034 -4.41816 0
M  V30 10103 C 929.114 -2.0673 -4.57786 0
M  V30 10104 C 931.108 -3.96901 -4.98747 0
M  V30 10105 C 928.795 -3.29858 -5.14429 0
M  V30 10106 C 929.793 -4.24761 -5.34853 0
M  V30 10107 O 929.481 -5.45714 -5.90298 0
M  V30 10108 H 929.213 -0.165392 -0.655455 0
M  V30 10109 H 931.767 -1.10524 -1.73129 0
M  V30 10110 H 929.997 0.316074 -3.85406 0
M  V30 10111 H 931.686 -0.0494067 -4.0587 0
M  V30 10112 H 932.452 -2.53161 -4.13684 0
M  V30 10113 H 928.331 -1.33666 -4.41197 0
M  V30 10114 H 931.875 -4.70987 -5.14604 0
M  V30 10115 H 927.772 -3.50597 -5.41989 0
M  V30 10116 H 928.54 -5.47157 -6.08738 0
M  V30 10117 N 931.203 1.46865 -0.571711 0
M  V30 10118 C 932.428 2.07323 -0.0564655 0
M  V30 10119 C 932.853 1.41938 1.23431 0
M  V30 10120 O 932.211 0.499334 1.74288 0
M  V30 10121 C 932.259 3.6044 0.107339 0
M  V30 10122 O 931.363 3.95558 1.1665 0
M  V30 10123 H 930.704 0.661475 -0.0578465 0
M  V30 10124 H 933.234 1.88669 -0.791524 0
M  V30 10125 H 933.244 4.06767 0.316987 0
M  V30 10126 H 931.919 4.07425 -0.835348 0
M  V30 10127 H 930.496 3.60957 0.936189 0
M  V30 10128 N 932.681 0.308908 1.54543 0
M  V30 10129 C 933.629 -0.579326 2.2527 0
M  V30 10130 C 934.623 -1.13058 1.26152 0
M  V30 10131 O 935.829 -1.08031 1.43977 0
M  V30 10132 H 932.204 -0.205444 0.723392 0
M  V30 10133 H 934.175 0.0396415 2.98374 0
M  V30 10134 C 932.924 -1.73584 3.01271 0
M  V30 10135 H 932.247 -1.32089 3.77349 0
M  V30 10136 H 933.687 -2.33324 3.54028 0
M  V30 10137 C 932.146 -2.6447 2.08703 0
M  V30 10138 O 932.676 -3.65785 1.66025 0
M  V30 10139 N 930.882 -2.32379 1.74495 0
M  V30 10140 H 930.429 -1.50034 2.09398 0
M  V30 10141 H 930.387 -2.93454 1.12836 0
M  V30 10142 N 934.159 -1.57557 0.0367827 0
M  V30 10143 C 935.406 -1.92114 -0.640185 0
M  V30 10144 C 935.734 -0.913887 -1.71693 0
M  V30 10145 O 934.989 0.0760343 -1.95552 0
M  V30 10146 C 935.288 -3.33387 -1.28794 0
M  V30 10147 C 934.954 -4.4961 -0.340819 0
M  V30 10148 C 933.616 -4.81133 -0.0801574 0
M  V30 10149 C 935.968 -5.20283 0.309106 0
M  V30 10150 C 933.296 -5.80683 0.838107 0
M  V30 10151 C 935.648 -6.20813 1.21547 0
M  V30 10152 C 934.312 -6.50773 1.48495 0
M  V30 10153 H 933.582 -0.702996 -0.23426 0
M  V30 10154 H 936.229 -1.91238 0.100188 0
M  V30 10155 H 934.534 -3.30561 -2.10324 0
M  V30 10156 H 936.231 -3.57399 -1.81843 0
M  V30 10157 H 932.821 -4.25002 -0.554161 0
M  V30 10158 H 937.005 -4.96153 0.120794 0
M  V30 10159 H 932.261 -6.02238 1.05451 0
M  V30 10160 H 936.435 -6.74692 1.72522 0
M  V30 10161 H 934.062 -7.27727 2.19814 0
M  V30 10162 N 935.637 0.236453 -1.55816 0
M  V30 10163 C 936.914 0.986463 -1.68903 0
M  V30 10164 C 937.294 2.02984 -0.579722 0
M  V30 10165 O 936.642 2.24693 0.415389 0
M  V30 10166 C 936.852 1.61038 -3.09625 0
M  V30 10167 C 938.2 2.10829 -3.6856 0
M  V30 10168 O 939.224 1.7096 -3.12492 0
M  V30 10169 O 938.083 2.84064 -4.66873 0
M  V30 10170 H 935.177 0.459837 -0.687371 0
M  V30 10171 H 937.723 0.229412 -1.68142 0
M  V30 10172 H 936.495 0.856232 -3.81817 0
M  V30 10173 H 936.118 2.43336 -3.14441 0
M  V30 10174 N 937.115 1.49373 0.502552 0
M  V30 10175 C 938.047 1.62045 1.62093 0
M  V30 10176 C 939.06 0.503221 1.54827 0
M  V30 10177 O 940.249 0.775208 1.60788 0
M  V30 10178 C 937.349 1.55971 3.00876 0
M  V30 10179 C 936.522 2.832 3.33341 0
M  V30 10180 C 935.581 2.702 4.51529 0
M  V30 10181 O 934.607 3.44132 4.53389 0
M  V30 10182 N 935.809 1.81642 5.5135 0
M  V30 10183 H 938.574 2.58501 1.51649 0
M  V30 10184 H 936.135 1.46442 0.690396 0
M  V30 10185 H 938.127 1.4493 3.77859 0
M  V30 10186 H 936.697 0.673795 3.05252 0
M  V30 10187 H 935.917 3.08604 2.4527 0
M  V30 10188 H 937.205 3.67551 3.51829 0
M  V30 10189 H 936.603 1.20829 5.52645 0
M  V30 10190 H 935.16 1.76524 6.27441 0
M  V30 10191 N 938.594 -0.753485 1.38421 0
M  V30 10192 C 939.504 -1.89797 1.37892 0
M  V30 10193 C 940.52 -1.71797 0.276023 0
M  V30 10194 O 941.696 -1.94718 0.514464 0
M  V30 10195 C 938.761 -3.25166 1.20284 0
M  V30 10196 C 937.822 -3.55691 2.4038 0
M  V30 10197 C 937.055 -4.84601 2.23602 0
M  V30 10198 O 937.278 -5.56985 1.22979 0
M  V30 10199 O 936.212 -5.14605 3.12194 0
M  V30 10200 H 940.038 -1.93197 2.34326 0
M  V30 10201 H 937.623 -0.898775 1.19342 0
M  V30 10202 H 939.505 -4.06099 1.12525 0
M  V30 10203 H 938.18 -3.22577 0.269352 0
M  V30 10204 H 937.087 -2.74919 2.53714 0
M  V30 10205 H 938.42 -3.6304 3.32359 0
M  V30 10206 N 940.072 -1.23292 -0.981677 0
M  V30 10207 C 941.319 -1.06424 -1.72279 0
M  V30 10208 C 941.647 0.399055 -1.90362 0
M  V30 10209 O 940.902 1.31181 -1.45224 0
M  V30 10210 C 941.201 -1.73339 -3.12551 0
M  V30 10211 C 940.867 -3.23256 -3.14351 0
M  V30 10212 C 939.529 -3.64159 -3.14549 0
M  V30 10213 C 941.881 -4.1916 -3.09765 0
M  V30 10214 C 939.209 -4.99428 -3.07877 0
M  V30 10215 C 941.561 -5.54419 -3.04635 0
M  V30 10216 C 940.225 -5.94688 -3.03154 0
M  V30 10217 H 939.495 -0.389434 -0.630415 0
M  V30 10218 H 942.142 -1.53208 -1.1489 0
M  V30 10219 H 940.447 -1.18911 -3.73319 0
M  V30 10220 H 942.144 -1.57767 -3.68661 0
M  V30 10221 H 938.734 -2.90693 -3.14953 0
M  V30 10222 H 942.918 -3.88569 -3.08753 0
M  V30 10223 H 938.174 -5.29844 -3.05083 0
M  V30 10224 H 942.348 -6.28448 -3.00043 0
M  V30 10225 H 939.975 -6.99468 -2.97739 0
M  V30 10226 N 941.55 1.18024 -1.04442 0
M  V30 10227 C 942.48 2.23988 -0.659683 0
M  V30 10228 C 943.461 1.6669 0.338904 0
M  V30 10229 O 944.646 1.92971 0.21817 0
M  V30 10230 C 941.776 3.4729 -0.0257672 0
M  V30 10231 C 940.73 4.17362 -0.948299 0
M  V30 10232 C 940.056 5.34401 -0.17866 0
M  V30 10233 C 941.356 4.70435 -2.26909 0
M  V30 10234 H 943.05 2.56425 -1.54553 0
M  V30 10235 H 940.596 1.23256 -0.744575 0
M  V30 10236 H 942.549 4.20627 0.255131 0
M  V30 10237 H 941.273 3.14098 0.894981 0
M  V30 10238 H 939.932 3.45928 -1.21364 0
M  V30 10239 H 939.58 4.97458 0.744614 0
M  V30 10240 H 939.28 5.8222 -0.793294 0
M  V30 10241 H 940.804 6.10526 0.0951315 0
M  V30 10242 H 942.218 5.35447 -2.04864 0
M  V30 10243 H 940.615 5.28803 -2.83703 0
M  V30 10244 H 941.685 3.87653 -2.91296 0
M  V30 10245 N 943.028 0.824394 1.34319 0
M  V30 10246 C 943.976 0.235628 2.31403 0
M  V30 10247 C 944.97 -0.624443 1.57471 0
M  V30 10248 O 946.176 -0.515618 1.72457 0
M  V30 10249 H 942.551 0.0574537 0.749802 0
M  V30 10250 H 944.522 1.06925 2.78585 0
M  V30 10251 C 943.271 -0.586617 3.42716 0
M  V30 10252 H 942.594 0.0658669 3.99746 0
M  V30 10253 H 944.034 -0.964661 4.1288 0
M  V30 10254 C 942.493 -1.75957 2.87299 0
M  V30 10255 O 943.023 -2.8578 2.82299 0
M  V30 10256 N 941.229 -1.57678 2.44102 0
M  V30 10257 H 940.776 -0.683436 2.48369 0
M  V30 10258 H 940.734 -2.36311 2.07375 0
M  V30 10259 N 944.506 -1.46559 0.579492 0
M  V30 10260 C 945.416 -2.34066 -0.15816 0
M  V30 10261 C 946.432 -1.49556 -0.88932 0
M  V30 10262 O 947.608 -1.82434 -0.853226 0
M  V30 10263 C 944.673 -3.26683 -1.161 0
M  V30 10264 C 943.734 -4.27092 -0.434855 0
M  V30 10265 C 942.967 -5.15283 -1.38992 0
M  V30 10266 O 943.19 -5.06345 -2.62623 0
M  V30 10267 O 942.124 -5.95099 -0.902253 0
M  V30 10268 H 945.95 -2.98488 0.560234 0
M  V30 10269 H 943.535 -1.45482 0.339918 0
M  V30 10270 H 945.417 -3.8383 -1.73932 0
M  V30 10271 H 944.092 -2.64862 -1.86091 0
M  V30 10272 H 942.999 -3.73641 0.185224 0
M  V30 10273 H 944.332 -4.9169 0.224031 0
M  V30 10274 N 945.984 -0.3171 -1.54377 0
M  V30 10275 C 946.931 0.551782 -2.24107 0
M  V30 10276 C 947.901 1.11681 -1.22949 0
M  V30 10277 O 949.086 1.15836 -1.51614 0
M  V30 10278 C 946.226 1.70997 -2.99756 0
M  V30 10279 C 945.339 1.17479 -4.15719 0
M  V30 10280 C 944.474 2.29815 -4.78914 0
M  V30 10281 C 943.513 1.73513 -5.86992 0
M  V30 10282 N 942.65 2.79485 -6.44075 0
M  V30 10283 H 947.49 -0.049431 -2.97959 0
M  V30 10284 H 945.027 -0.0361658 -1.47056 0
M  V30 10285 H 946.985 2.39141 -3.41859 0
M  V30 10286 H 945.615 2.28257 -2.28251 0
M  V30 10287 H 944.667 0.385109 -3.78446 0
M  V30 10288 H 945.979 0.72276 -4.93536 0
M  V30 10289 H 945.133 3.05875 -5.23952 0
M  V30 10290 H 943.872 2.78352 -4.00464 0
M  V30 10291 H 942.877 0.959475 -5.41363 0
M  V30 10292 H 944.102 1.2586 -6.67335 0
M  V30 10293 H 942.048 3.27325 -5.68502 0
M  V30 10294 H 941.965 2.38825 -7.17286 0
M  V30 10295 H 943.233 3.55394 -6.93769 0
M  V30 10296 N 947.462 1.57535 -0.0451378 0
M  V30 10297 C 948.425 2.1008 0.916461 0
M  V30 10298 C 949.425 1.01913 1.2438 0
M  V30 10299 O 950.615 1.2801 1.18148 0
M  V30 10300 C 947.747 2.58001 2.22818 0
M  V30 10301 H 948.94 2.96334 0.461076 0
M  V30 10302 H 946.493 1.54974 0.203169 0
M  V30 10303 H 947.228 1.75123 2.72951 0
M  V30 10304 H 947.013 3.3704 2.00366 0
M  V30 10305 H 948.503 2.98822 2.9171 0
M  V30 10306 N 948.94 -0.228186 1.55939 0
M  V30 10307 C 950.356 -0.577583 1.48782 0
M  V30 10308 C 950.556 -1.87461 0.738972 0
M  V30 10309 O 949.612 -2.50988 0.275929 0
M  V30 10310 C 950.925 -0.662961 2.93301 0
M  V30 10311 C 952.473 -0.754035 3.03782 0
M  V30 10312 C 952.948 -0.870815 4.49645 0
M  V30 10313 N 954.439 -0.935208 4.53661 0
M  V30 10314 C 955.174 -1.04516 5.63794 0
M  V30 10315 N 954.67 -1.11948 6.83696 0
M  V30 10316 N 956.463 -1.07978 5.51631 0
M  V30 10317 H 948.614 0.623018 2.03057 0
M  V30 10318 H 950.877 0.217692 0.922667 0
M  V30 10319 H 950.583 0.220375 3.51009 0
M  V30 10320 H 950.457 -1.52876 3.44831 0
M  V30 10321 H 952.844 -1.62782 2.46143 0
M  V30 10322 H 952.925 0.137301 2.55431 0
M  V30 10323 H 952.569 -0.0015186 5.079 0
M  V30 10324 H 952.499 -1.77747 4.95695 0
M  V30 10325 H 954.99 -0.88836 3.6731 0
M  V30 10326 H 955.303 -1.20297 7.6338 0
M  V30 10327 H 953.648 -1.08873 6.8642 0
M  V30 10328 H 956.839 -1.01833 4.56889 0
M  V30 10329 H 957.012 -1.16202 6.37496 0
M  V30 10330 N 950.418 -1.49637 -0.494624 0
M  V30 10331 C 951.348 -1.69692 -1.60396 0
M  V30 10332 C 952.329 -0.545648 -1.61111 0
M  V30 10333 O 953.514 -0.782202 -1.77751 0
M  V30 10334 C 950.644 -1.76934 -2.9885 0
M  V30 10335 C 949.598 -2.91915 -3.13001 0
M  V30 10336 C 948.924 -2.84276 -4.5287 0
M  V30 10337 C 950.224 -4.32764 -2.92426 0
M  V30 10338 H 951.918 -2.6257 -1.43866 0
M  V30 10339 H 949.464 -1.26355 -0.690679 0
M  V30 10340 H 951.417 -1.8955 -3.76362 0
M  V30 10341 H 950.141 -0.806609 -3.16483 0
M  V30 10342 H 948.8 -2.78911 -2.37916 0
M  V30 10343 H 948.448 -1.85897 -4.67388 0
M  V30 10344 H 948.148 -3.61452 -4.63278 0
M  V30 10345 H 949.672 -2.98909 -5.32434 0
M  V30 10346 H 951.086 -4.46415 -3.59703 0
M  V30 10347 H 949.483 -5.1121 -3.143 0
M  V30 10348 H 950.553 -4.46765 -1.88491 0
M  V30 10349 N 951.896 0.746133 -1.38819 0
M  V30 10350 C 953.121 1.54049 -1.38866 0
M  V30 10351 C 953.546 1.88092 0.0176624 0
M  V30 10352 O 952.904 1.51113 1.00173 0
M  V30 10353 C 952.952 2.8116 -2.25791 0
M  V30 10354 O 952.056 3.76623 -1.68014 0
M  V30 10355 H 951.397 0.465648 -0.473359 0
M  V30 10356 H 953.927 0.921469 -1.82675 0
M  V30 10357 H 953.937 3.30009 -2.39913 0
M  V30 10358 H 952.612 2.55713 -3.27999 0
M  V30 10359 H 951.189 3.35352 -1.63074 0
M  V30 10360 N 953.375 1.23811 0.975125 0
M  V30 10361 C 954.605 1.0986 1.7497 0
M  V30 10362 C 955.013 -0.352366 1.8589 0
M  V30 10363 O 954.356 -1.2553 1.34119 0
M  V30 10364 C 954.418 1.65584 3.19096 0
M  V30 10365 C 954.082 3.14395 3.3167 0
M  V30 10366 C 955.079 4.1163 3.17579 0
M  V30 10367 C 952.764 3.54208 3.56149 0
M  V30 10368 C 954.758 5.46661 3.27781 0
M  V30 10369 C 952.445 4.89382 3.65989 0
M  V30 10370 C 953.443 5.85418 3.51817 0
M  V30 10371 O 953.131 7.18135 3.61299 0
M  V30 10372 H 952.863 0.384854 0.555755 0
M  V30 10373 H 955.417 1.64242 1.23343 0
M  V30 10374 H 953.647 1.05627 3.71994 0
M  V30 10375 H 955.336 1.47032 3.78334 0
M  V30 10376 H 956.102 3.82214 2.98559 0
M  V30 10377 H 951.981 2.79968 3.66249 0
M  V30 10378 H 955.525 6.21601 3.16636 0
M  V30 10379 H 951.422 5.18473 3.84521 0
M  V30 10380 H 952.19 7.25956 3.78061 0
M  V30 10381 N 954.853 -1.17469 1.05066 0
M  V30 10382 C 956.078 -1.92162 0.780298 0
M  V30 10383 C 956.503 -1.76222 -0.657832 0
M  V30 10384 O 955.861 -1.0791 -1.45688 0
M  V30 10385 C 955.909 -3.41292 1.16414 0
M  V30 10386 O 955.013 -4.1134 0.295531 0
M  V30 10387 H 954.354 -0.599127 0.286257 0
M  V30 10388 H 956.884 -1.48903 1.40318 0
M  V30 10389 H 956.894 -3.92029 1.13036 0
M  V30 10390 H 955.569 -3.52214 2.21175 0
M  V30 10391 H 954.146 -3.70857 0.389797 0
M  V30 10392 N 956.331 -0.831506 -1.3388 0
M  V30 10393 C 957.608 -0.345907 -1.92517 0
M  V30 10394 C 957.988 1.16784 -1.75854 0
M  V30 10395 O 957.336 1.97889 -1.14245 0
M  V30 10396 C 957.546 -0.784692 -3.40064 0
M  V30 10397 C 958.894 -0.78846 -4.17215 0
M  V30 10398 O 959.918 -0.727823 -3.48685 0
M  V30 10399 O 958.777 -0.869481 -5.39539 0
M  V30 10400 H 955.871 -0.0963568 -0.821367 0
M  V30 10401 H 958.417 -0.916868 -1.42799 0
M  V30 10402 H 957.189 -1.82697 -3.46031 0
M  V30 10403 H 956.812 -0.189897 -3.97146 0
M  V30 10404 N 957.809 1.4625 -0.587256 0
M  V30 10405 C 958.756 2.30354 0.143384 0
M  V30 10406 C 959.726 1.40891 0.879716 0
M  V30 10407 O 960.911 1.69837 0.869486 0
M  V30 10408 C 958.051 3.25441 1.14815 0
M  V30 10409 C 957.164 4.30004 0.414792 0
M  V30 10410 C 956.299 5.12214 1.40748 0
M  V30 10411 C 955.338 6.08523 0.660786 0
M  V30 10412 N 954.475 6.83585 1.60176 0
M  V30 10413 H 959.315 2.92304 -0.579866 0
M  V30 10414 H 956.852 1.44055 -0.29777 0
M  V30 10415 H 958.81 3.79018 1.7436 0
M  V30 10416 H 957.44 2.6529 1.83906 0
M  V30 10417 H 956.492 3.79248 -0.295787 0
M  V30 10418 H 957.804 4.98515 -0.168738 0
M  V30 10419 H 956.958 5.70091 2.0756 0
M  V30 10420 H 955.697 4.43675 2.02494 0
M  V30 10421 H 954.702 5.49796 -0.0210864 0
M  V30 10422 H 955.927 6.79083 0.0486551 0
M  V30 10423 H 953.873 6.17752 2.20724 0
M  V30 10424 H 953.79 7.48373 1.07115 0
M  V30 10425 H 955.058 7.46016 2.26009 0
M  V30 10426 N 959.287 0.325282 1.54207 0
M  V30 10427 C 960.235 -0.5554 2.25872 0
M  V30 10428 C 961.229 -1.11714 1.27344 0
M  V30 10429 O 962.435 -1.06498 1.45115 0
M  V30 10430 H 958.81 -0.19776 0.725531 0
M  V30 10431 H 960.781 0.0712858 2.98315 0
M  V30 10432 C 959.53 -1.70379 3.03095 0
M  V30 10433 H 958.853 -1.2808 3.78729 0
M  V30 10434 H 960.293 -2.29556 3.56483 0
M  V30 10435 C 958.752 -2.62242 2.11496 0
M  V30 10436 O 959.282 -3.64003 1.69895 0
M  V30 10437 N 957.488 -2.30515 1.7695 0
M  V30 10438 H 957.035 -1.47805 2.10978 0
M  V30 10439 H 956.993 -2.92241 1.15942 0
M  V30 10440 N 960.765 -1.57509 0.0534917 0
M  V30 10441 C 961.695 -2.14698 -0.917999 0
M  V30 10442 C 962.676 -1.06924 -1.32292 0
M  V30 10443 O 963.861 -1.34875 -1.39723 0
M  V30 10444 C 960.991 -2.69383 -2.19203 0
M  V30 10445 C 959.945 -3.82161 -1.9271 0
M  V30 10446 C 959.271 -4.23373 -3.26587 0
M  V30 10447 C 960.571 -5.07199 -1.24686 0
M  V30 10448 H 962.265 -2.96125 -0.44165 0
M  V30 10449 H 959.811 -1.42446 -0.210993 0
M  V30 10450 H 961.764 -3.08031 -2.87567 0
M  V30 10451 H 960.488 -1.85151 -2.69048 0
M  V30 10452 H 959.147 -3.43989 -1.26757 0
M  V30 10453 H 958.795 -3.36089 -3.74237 0
M  V30 10454 H 958.495 -4.99385 -3.09658 0
M  V30 10455 H 960.019 -4.64623 -3.96178 0
M  V30 10456 H 961.433 -5.43279 -1.83088 0
M  V30 10457 H 959.83 -5.88369 -1.18076 0
M  V30 10458 H 960.9 -4.84386 -0.223227 0
M  V30 10459 N 962.243 0.219913 -1.56058 0
M  V30 10460 C 963.492 0.942119 -1.78345 0
M  V30 10461 C 963.805 1.85435 -0.622344 0
M  V30 10462 O 965.011 2.61533 -0.728886 0
M  V30 10463 C 963.467 1.72544 -3.15843 0
M  V30 10464 C 963.075 0.859263 -4.39682 0
M  V30 10465 C 964.819 2.43876 -3.47455 0
M  V30 10466 C 962.726 1.64003 -5.68205 0
M  V30 10467 H 961.656 0.355514 -0.664925 0
M  V30 10468 H 964.307 0.195963 -1.82451 0
M  V30 10469 H 962.689 2.51456 -3.05918 0
M  V30 10470 H 963.863 0.110562 -4.60667 0
M  V30 10471 H 962.178 0.257985 -4.156 0
M  V30 10472 H 964.775 3.02794 -4.40704 0
M  V30 10473 H 965.118 3.16843 -2.7003 0
M  V30 10474 H 965.651 1.71952 -3.58716 0
M  V30 10475 H 962.39 0.953606 -6.48526 0
M  V30 10476 H 961.91 2.3633 -5.51279 0
M  V30 10477 H 963.589 2.20028 -6.08438 0
M  V30 10478 N 963.721 1.49897 0.486681 0
M  V30 10479 C 964.998 1.50614 1.24799 0
M  V30 10480 C 965.378 0.24193 2.09709 0
M  V30 10481 O 964.726 -0.775237 2.14947 0
M  V30 10482 C 964.936 2.79318 2.09243 0
M  V30 10483 C 966.284 3.29371 2.67955 0
M  V30 10484 O 967.308 2.80533 2.19499 0
M  V30 10485 O 966.167 4.14466 3.56202 0
M  V30 10486 H 963.261 0.603447 0.565491 0
M  V30 10487 H 965.807 1.62174 0.499778 0
M  V30 10488 H 964.579 3.62812 1.46572 0
M  V30 10489 H 964.202 2.70687 2.91229 0
M  V30 10490 N 965.199 -0.738761 1.39212 0
M  V30 10491 C 966.424 -1.5331 1.39681 0
M  V30 10492 C 966.849 -1.88098 -0.00768715 0
M  V30 10493 O 966.207 -1.51642 -0.993699 0
M  V30 10494 C 966.255 -2.79958 2.27279 0
M  V30 10495 O 965.359 -3.75727 1.70008 0
M  V30 10496 H 964.7 -0.463131 0.475821 0
M  V30 10497 H 967.23 -0.911768 1.83161 0
M  V30 10498 H 967.24 -3.28732 2.41659 0
M  V30 10499 H 965.915 -2.5397 3.29351 0
M  V30 10500 H 964.492 -3.34483 1.64851 0
M  V30 10501 N 966.677 -1.24326 -0.968545 0
M  V30 10502 C 967.61 -0.978121 -2.06175 0
M  V30 10503 C 968.588 0.0878107 -1.62363 0
M  V30 10504 O 969.772 -0.0489472 -1.88436 0
M  V30 10505 C 966.899 -0.475884 -3.3534 0
M  V30 10506 C 965.945 -1.53023 -3.98103 0
M  V30 10507 S 966.778 -3.11131 -4.35841 0
M  V30 10508 C 967.934 -2.62608 -5.68144 0
M  V30 10509 H 968.167 -1.9038 -2.28348 0
M  V30 10510 H 965.7 -1.07701 -1.10633 0
M  V30 10511 H 967.658 -0.192739 -4.10047 0
M  V30 10512 H 966.319 0.429067 -3.11156 0
M  V30 10513 H 965.512 -1.12922 -4.91187 0
M  V30 10514 H 965.114 -1.76334 -3.29822 0
M  V30 10515 H 967.406 -2.05367 -6.45624 0
M  V30 10516 H 968.349 -3.54277 -6.13101 0
M  V30 10517 H 968.757 -2.03063 -5.26712 0
M  V30 10518 N 968.156 1.1691 -1.05688 0
M  V30 10519 C 969.433 1.83266 -0.683601 0
M  V30 10520 C 969.813 1.93858 0.835602 0
M  V30 10521 O 969.161 1.47696 1.7435 0
M  V30 10522 C 969.371 3.20625 -1.37842 0
M  V30 10523 C 970.719 3.96473 -1.51967 0
M  V30 10524 O 971.743 3.30122 -1.33783 0
M  V30 10525 O 970.602 5.15393 -1.81749 0
M  V30 10526 H 967.696 0.791028 -0.241254 0
M  V30 10527 H 970.242 1.24165 -1.15677 0
M  V30 10528 H 969.014 3.07914 -2.41463 0
M  V30 10529 H 968.637 3.87398 -0.894921 0
M  V30 10530 N 969.634 0.838594 1.33437 0
M  V30 10531 C 970.566 0.229006 2.28053 0
M  V30 10532 C 971.579 -0.590103 1.51729 0
M  V30 10533 O 972.768 -0.417218 1.73556 0
M  V30 10534 C 969.868 -0.696251 3.31671 0
M  V30 10535 C 969.041 0.0834606 4.3732 0
M  V30 10536 C 968.1 -0.765097 5.20608 0
M  V30 10537 O 967.126 -0.2044 5.68833 0
M  V30 10538 N 968.328 -2.08249 5.4186 0
M  V30 10539 H 971.093 1.04196 2.81004 0
M  V30 10540 H 968.654 0.697031 1.46127 0
M  V30 10541 H 970.646 -1.26889 3.84293 0
M  V30 10542 H 969.216 -1.40992 2.78998 0
M  V30 10543 H 968.436 0.837481 3.85201 0
M  V30 10544 H 969.724 0.619613 5.05013 0
M  V30 10545 H 969.122 -2.56156 5.04381 0
M  V30 10546 H 967.679 -2.60362 5.97541 0
M  V30 10547 N 971.112 -1.45937 0.595003 0
M  V30 10548 C 972.337 -2.07207 0.0894416 0
M  V30 10549 C 972.762 -1.43884 -1.21157 0
M  V30 10550 O 972.12 -0.526998 -1.73472 0
M  V30 10551 C 972.168 -3.60565 -0.0499828 0
M  V30 10552 O 971.272 -3.97364 -1.10342 0
M  V30 10553 H 970.613 -0.660471 0.0683627 0
M  V30 10554 H 973.143 -1.87386 0.82144 0
M  V30 10555 H 973.153 -4.0722 -0.252234 0
M  V30 10556 H 971.828 -4.06044 0.90006 0
M  V30 10557 H 970.405 -3.62401 -0.878645 0
M  V30 10558 N 972.59 -0.333456 -1.54032 0
M  V30 10559 C 973.553 0.515392 -2.2333 0
M  V30 10560 C 974.553 1.03566 -1.23007 0
M  V30 10561 O 975.743 0.926514 -1.47517 0
M  V30 10562 C 972.875 1.7169 -2.94508 0
M  V30 10563 H 974.068 -0.0905407 -2.99763 0
M  V30 10564 H 971.621 -0.0846651 -1.56071 0
M  V30 10565 H 972.356 2.3618 -2.22237 0
M  V30 10566 H 972.141 1.35115 -3.68085 0
M  V30 10567 H 973.631 2.31922 -3.47278 0
M  V30 10568 N 974.068 1.57479 -0.061844 0
M  V30 10569 C 975.315 1.93108 0.60954 0
M  V30 10570 C 975.643 0.941086 1.70217 0
M  V30 10571 O 974.898 -0.044914 1.95648 0
M  V30 10572 C 975.197 3.35394 1.23474 0
M  V30 10573 C 974.863 4.50095 0.269247 0
M  V30 10574 C 973.525 4.812 0.00360316 0
M  V30 10575 C 975.877 5.19725 -0.391839 0
M  V30 10576 C 973.205 5.79276 -0.930383 0
M  V30 10577 C 975.557 6.18801 -1.31408 0
M  V30 10578 C 974.221 6.48328 -1.58829 0
M  V30 10579 H 973.491 0.706634 0.223046 0
M  V30 10580 H 976.138 1.91054 -0.1306 0
M  V30 10581 H 974.443 3.33866 2.05039 0
M  V30 10582 H 976.14 3.60247 1.76134 0
M  V30 10583 H 972.73 4.2583 0.486477 0
M  V30 10584 H 976.914 4.95898 -0.199713 0
M  V30 10585 H 972.17 6.00484 -1.15019 0
M  V30 10586 H 976.344 6.71862 -1.83234 0
M  V30 10587 H 973.971 7.24137 -2.31363 0
M  V30 10588 N 975.546 -0.211634 1.56173 0
M  V30 10589 C 976.509 -1.24588 1.92381 0
M  V30 10590 C 977.509 -1.39297 0.803311 0
M  V30 10591 O 978.699 -1.37392 1.07094 0
M  V30 10592 C 975.831 -2.61807 2.18335 0
M  V30 10593 H 977.024 -0.936814 2.84893 0
M  V30 10594 H 974.577 -0.452471 1.49607 0
M  V30 10595 H 975.312 -2.97795 1.28407 0
M  V30 10596 H 975.097 -2.52506 2.99972 0
M  V30 10597 H 976.587 -3.3642 2.4741 0
M  V30 10598 N 977.024 -1.50153 -0.478725 0
M  V30 10599 C 978.272 -1.60443 -1.22892 0
M  V30 10600 C 978.593 -0.303276 -1.92627 0
M  V30 10601 O 977.863 0.678798 -1.83764 0
M  V30 10602 H 976.443 -0.591205 -0.456602 0
M  V30 10603 H 979.105 -1.86893 -0.552905 0
M  V30 10604 H 978.201 -2.41175 -1.98094 0
M  V30 10605 N 978.502 0.731368 -1.39602 0
M  V30 10606 C 979.749 1.491 -1.37024 0
M  V30 10607 C 980.077 1.94473 0.0326423 0
M  V30 10608 O 979.332 1.6737 1.01418 0
M  V30 10609 C 979.631 2.74224 -2.29208 0
M  V30 10610 C 979.297 2.477 -3.7677 0
M  V30 10611 C 977.959 2.40175 -4.16976 0
M  V30 10612 C 980.311 2.25098 -4.70086 0
M  V30 10613 C 977.639 2.08095 -5.48556 0
M  V30 10614 C 979.991 1.94534 -6.01946 0
M  V30 10615 C 978.655 1.85481 -6.41212 0
M  V30 10616 H 977.925 0.545595 -0.501405 0
M  V30 10617 H 980.572 0.839127 -1.72136 0
M  V30 10618 H 978.877 3.44171 -1.87225 0
M  V30 10619 H 980.574 3.32264 -2.24504 0
M  V30 10620 H 977.164 2.54436 -3.44906 0
M  V30 10621 H 981.348 2.29876 -4.39853 0
M  V30 10622 H 976.604 1.99611 -5.77897 0
M  V30 10623 H 980.778 1.76054 -6.73779 0
M  V30 10624 H 978.405 1.60389 -7.43088 0
M  V30 10625 N 979.98 1.24838 0.961938 0
M  V30 10626 C 981.205 1.11967 1.7458 0
M  V30 10627 C 981.63 -0.323287 1.85301 0
M  V30 10628 O 980.988 -1.23412 1.32812 0
M  V30 10629 C 981.036 1.77066 3.14134 0
M  V30 10630 O 980.14 1.04534 3.98932 0
M  V30 10631 H 979.481 0.391338 0.536424 0
M  V30 10632 H 982.011 1.65259 1.20626 0
M  V30 10633 H 982.021 1.83056 3.64629 0
M  V30 10634 H 980.696 2.82052 3.05646 0
M  V30 10635 H 979.273 1.06372 3.57407 0
M  V30 10636 N 981.458 -1.16348 1.06306 0
M  V30 10637 C 982.705 -1.86881 0.779852 0
M  V30 10638 C 983.033 -1.8171 -0.693668 0
M  V30 10639 O 982.288 -1.22769 -1.52401 0
M  V30 10640 C 982.587 -3.35936 1.21991 0
M  V30 10641 C 982.253 -3.61307 2.69756 0
M  V30 10642 C 980.915 -3.6794 3.10119 0
M  V30 10643 C 983.267 -3.71871 3.65187 0
M  V30 10644 C 980.595 -3.82639 4.44752 0
M  V30 10645 C 982.947 -3.88091 4.99568 0
M  V30 10646 C 981.611 -3.92967 5.39568 0
M  V30 10647 H 980.881 -0.683847 0.285368 0
M  V30 10648 H 983.528 -1.37569 1.33218 0
M  V30 10649 H 981.833 -3.87381 0.586774 0
M  V30 10650 H 983.53 -3.88895 0.977821 0
M  V30 10651 H 980.12 -3.56777 2.37504 0
M  V30 10652 H 984.304 -3.66057 3.35136 0
M  V30 10653 H 979.56 -3.84666 4.75228 0
M  V30 10654 H 983.734 -3.95207 5.73397 0
M  V30 10655 H 981.361 -4.04109 6.43895 0
M  V30 10656 N 982.937 -0.845659 -1.3299 0
M  V30 10657 C 984.183 -0.445311 -1.9785 0
M  V30 10658 C 984.516 0.994476 -1.66805 0
M  V30 10659 O 983.791 1.69636 -0.95151 0
M  V30 10660 C 984.074 -0.674371 -3.53729 0
M  V30 10661 C 983.927 -2.16192 -3.94437 0
M  V30 10662 C 985.246 -0.124908 -4.39923 0
M  V30 10663 H 982.365 -0.163269 -0.718688 0
M  V30 10664 H 985.007 -1.06242 -1.5752 0
M  V30 10665 H 983.157 -0.149091 -3.88214 0
M  V30 10666 H 984.829 -2.75259 -3.70176 0
M  V30 10667 H 983.072 -2.64386 -3.43922 0
M  V30 10668 H 983.743 -2.27292 -5.03033 0
M  V30 10669 H 986.219 -0.573986 -4.12122 0
M  V30 10670 H 985.095 -0.314816 -5.47996 0
M  V30 10671 H 985.356 0.971758 -4.31288 0
M  V30 10672 N 984.415 1.45619 -0.602734 0
M  V30 10673 C 985.363 2.32228 0.131484 0
M  V30 10674 C 986.357 1.45681 0.864484 0
M  V30 10675 O 987.563 1.62193 0.7806 0
M  V30 10676 H 983.938 0.7495 0.0612638 0
M  V30 10677 H 985.909 2.91941 -0.617496 0
M  V30 10678 C 984.658 3.29213 1.11866 0
M  V30 10679 H 983.981 3.95801 0.564061 0
M  V30 10680 H 985.421 3.92554 1.60242 0
M  V30 10681 C 983.88 2.56028 2.18978 0
M  V30 10682 O 984.41 2.33806 3.26646 0
M  V30 10683 N 982.616 2.16245 1.94129 0
M  V30 10684 H 982.163 2.34518 1.06579 0
M  V30 10685 H 982.121 1.67601 2.66003 0
M  V30 10686 N 985.893 0.34162 1.53853 0
M  V30 10687 C 987.304 -0.14269 1.86154 0
M  V30 10688 C 987.655 -1.50151 1.2629 0
M  V30 10689 O 986.78 -2.08601 0.575735 0
M  V30 10690 C 987.375 -0.265691 3.37757 0
M  V30 10691 C 985.934 -0.694231 3.69942 0
M  V30 10692 C 985.081 0.173195 2.76759 0
M  V30 10693 H 988.032 0.561284 1.48443 0
M  V30 10694 H 988.053 -1.09352 3.64448 0
M  V30 10695 H 987.565 0.723424 3.81298 0
M  V30 10696 H 985.666 -1.69244 3.31945 0
M  V30 10697 H 985.779 -0.485461 4.76634 0
M  V30 10698 H 984.143 -0.35416 2.52226 0
M  V30 10699 H 984.926 1.15941 3.23129 0
M  V30 10700 N 987.371 -1.57444 0.0701946 0
M  V30 10701 C 988.318 -2.12631 -0.897599 0
M  V30 10702 C 989.288 -1.03841 -1.29639 0
M  V30 10703 O 990.473 -1.31495 -1.38253 0
M  V30 10704 C 987.613 -2.6911 -2.16041 0
M  V30 10705 C 986.726 -3.9205 -1.8144 0
M  V30 10706 C 985.861 -4.36778 -3.02321 0
M  V30 10707 C 984.9 -5.52371 -2.63729 0
M  V30 10708 N 984.037 -5.92065 -3.77364 0
M  V30 10709 H 988.877 -2.95024 -0.420104 0
M  V30 10710 H 986.414 -1.45792 -0.195716 0
M  V30 10711 H 988.372 -2.99963 -2.89962 0
M  V30 10712 H 987.002 -1.89484 -2.61334 0
M  V30 10713 H 986.054 -3.67669 -0.975896 0
M  V30 10714 H 987.366 -4.76011 -1.49046 0
M  V30 10715 H 986.52 -4.69285 -3.84521 0
M  V30 10716 H 985.259 -3.51668 -3.37907 0
M  V30 10717 H 984.264 -5.19517 -1.7995 0
M  V30 10718 H 985.489 -6.39212 -2.29315 0
M  V30 10719 H 983.435 -5.09904 -4.12715 0
M  V30 10720 H 983.352 -6.70762 -3.48733 0
M  V30 10721 H 984.62 -6.29193 -4.60148 0
M  V30 10722 N 988.849 0.203349 -1.56283 0
M  V30 10723 C 990.096 0.92501 -1.80138 0
M  V30 10724 C 990.424 1.83598 -0.64204 0
M  V30 10725 O 989.679 1.92119 0.372658 0
M  V30 10726 C 989.978 1.78016 -3.09912 0
M  V30 10727 C 989.644 1.02088 -4.39191 0
M  V30 10728 C 988.306 0.811208 -4.74313 0
M  V30 10729 C 990.658 0.486037 -5.18929 0
M  V30 10730 C 987.986 0.0550856 -5.86674 0
M  V30 10731 C 990.338 -0.256833 -6.32078 0
M  V30 10732 C 989.002 -0.477594 -6.65789 0
M  V30 10733 H 988.272 0.338485 -0.659173 0
M  V30 10734 H 990.919 0.191923 -1.90536 0
M  V30 10735 H 989.224 2.58167 -2.94715 0
M  V30 10736 H 990.921 2.341 -3.25574 0
M  V30 10737 H 987.511 1.1943 -4.11624 0
M  V30 10738 H 991.695 0.635446 -4.92215 0
M  V30 10739 H 986.951 -0.126006 -6.1127 0
M  V30 10740 H 991.125 -0.678683 -6.93085 0
M  V30 10741 H 988.752 -1.0654 -7.52697 0
M  V30 10742 N 990.327 1.50405 0.470755 0
M  V30 10743 C 991.237 1.7208 1.59454 0
M  V30 10744 C 992.253 0.603932 1.63183 0
M  V30 10745 O 993.429 0.882296 1.81046 0
M  V30 10746 C 990.494 1.81057 2.95667 0
M  V30 10747 C 989.555 3.04792 3.02324 0
M  V30 10748 C 988.788 3.13332 4.3204 0
M  V30 10749 O 989.011 2.28655 5.22564 0
M  V30 10750 O 987.945 4.0606 4.44296 0
M  V30 10751 H 991.771 2.67343 1.44089 0
M  V30 10752 H 989.356 1.34505 0.650286 0
M  V30 10753 H 991.238 1.8914 3.76569 0
M  V30 10754 H 989.913 0.889782 3.11231 0
M  V30 10755 H 988.82 3.0221 2.205 0
M  V30 10756 H 990.153 3.96451 2.91698 0
M  V30 10757 N 991.805 -0.723954 1.39988 0
M  V30 10758 C 992.755 -1.82943 1.36073 0
M  V30 10759 C 993.739 -1.59105 0.239682 0
M  V30 10760 O 994.931 -1.7042 0.478116 0
M  V30 10761 C 992.06 -3.20988 1.21745 0
M  V30 10762 C 991.146 -3.50618 2.38596 0
M  V30 10763 N 991.537 -3.51115 3.64077 0
M  V30 10764 C 989.835 -3.81035 2.31794 0
M  V30 10765 C 990.536 -3.78852 4.41413 0
M  V30 10766 N 989.512 -3.97182 3.71143 0
M  V30 10767 H 993.314 -1.81649 2.31043 0
M  V30 10768 H 990.828 -0.922703 1.33641 0
M  V30 10769 H 992.825 -4.00139 1.17022 0
M  V30 10770 H 991.485 -3.23513 0.277344 0
M  V30 10771 H 992.496 -3.32163 3.97351 0
M  V30 10772 H 989.173 -3.911 1.46105 0
M  V30 10773 H 990.563 -3.85612 5.5023 0
M  V30 10774 N 993.283 -1.25346 -0.955304 0
M  V30 10775 C 994.213 -1.08152 -2.06943 0
M  V30 10776 C 995.194 0.00922598 -1.70097 0
M  V30 10777 O 996.379 -0.160181 -1.93538 0
M  V30 10778 C 993.509 -0.698745 -3.40198 0
M  V30 10779 C 992.463 -1.73965 -3.9105 0
M  V30 10780 C 991.789 -1.21158 -5.20792 0
M  V30 10781 C 993.089 -3.13829 -4.17503 0
M  V30 10782 H 994.783 -2.01345 -2.21586 0
M  V30 10783 H 992.329 -0.969459 -1.06478 0
M  V30 10784 H 994.282 -0.565394 -4.1759 0
M  V30 10785 H 993.006 0.268892 -3.25491 0
M  V30 10786 H 991.665 -1.86143 -3.15827 0
M  V30 10787 H 991.313 -0.234193 -5.02455 0
M  V30 10788 H 991.013 -1.90728 -5.55785 0
M  V30 10789 H 992.537 -1.09061 -6.00781 0
M  V30 10790 H 993.951 -3.04809 -4.85556 0
M  V30 10791 H 992.348 -3.80863 -4.63749 0
M  V30 10792 H 993.418 -3.6094 -3.23806 0
M  V30 10793 N 994.761 1.15782 -1.06922 0
M  V30 10794 C 995.691 2.22538 -0.707045 0
M  V30 10795 C 996.672 1.67371 0.303471 0
M  V30 10796 O 997.857 1.9339 0.177189 0
M  V30 10797 C 994.987 3.47158 -0.0994269 0
M  V30 10798 C 993.941 4.15257 -1.03661 0
M  V30 10799 C 993.267 5.33902 -0.291974 0
M  V30 10800 C 994.567 4.65516 -2.36837 0
M  V30 10801 H 996.261 2.53089 -1.59958 0
M  V30 10802 H 993.807 1.21649 -0.770552 0
M  V30 10803 H 995.76 4.21073 0.165852 0
M  V30 10804 H 994.484 3.15926 0.828155 0
M  V30 10805 H 993.143 3.43276 -1.28674 0
M  V30 10806 H 992.791 4.98926 0.638928 0
M  V30 10807 H 992.491 5.80407 -0.916613 0
M  V30 10808 H 994.015 6.1059 -0.0343915 0
M  V30 10809 H 995.429 5.30981 -2.16175 0
M  V30 10810 H 993.826 5.22666 -2.94856 0
M  V30 10811 H 994.896 3.81387 -2.99453 0
M  V30 10812 N 996.239 0.8527 1.3254 0
M  V30 10813 C 997.149 0.298744 2.3269 0
M  V30 10814 C 998.165 -0.582418 1.63963 0
M  V30 10815 O 999.341 -0.483253 1.95516 0
M  V30 10816 C 996.406 -0.505453 3.42996 0
M  V30 10817 C 995.467 0.401618 4.27417 0
M  V30 10818 C 994.7 -0.364294 5.32455 0
M  V30 10819 O 994.923 -1.59448 5.47661 0
M  V30 10820 O 993.857 0.268892 6.01299 0
M  V30 10821 H 997.683 1.12843 2.81958 0
M  V30 10822 H 995.268 0.615584 1.36128 0
M  V30 10823 H 997.15 -0.961974 4.10273 0
M  V30 10824 H 995.825 -1.31197 2.95921 0
M  V30 10825 H 994.732 0.906274 3.62957 0
M  V30 10826 H 996.065 1.17327 4.78012 0
M  V30 10827 N 997.718 -1.45297 0.610449 0
M  V30 10828 C 998.995 -1.95562 0.0386189 0
M  V30 10829 C 999.375 -1.55284 -1.43004 0
M  V30 10830 O 998.723 -0.816785 -2.13403 0
M  V30 10831 C 998.933 -3.48176 0.239731 0
M  V30 10832 C 1000.28 -4.24425 0.122035 0
M  V30 10833 O 1001.3 -3.55794 0.170003 0
M  V30 10834 O 1000.16 -5.46499 0.00953695 0
M  V30 10835 H 997.258 -0.826296 -0.0341081 0
M  V30 10836 H 999.804 -1.55449 0.68071 0
M  V30 10837 H 998.576 -3.70471 1.25963 0
M  V30 10838 H 998.199 -3.95186 -0.437486 0
M  V30 10839 O 999.235 -0.491964 -1.53824 0
M  V30 10840 H 999.926 0.0280053 -1.9368 0
M  V30 END ATOM
M  V30 BEGIN BOND
M  V30 END BOND
M  V30 END CTAB
M  END
$$$$
