drugbank_target|Q9NRP7 Serine/threonine-protein kinase 36 (DB12010)
 OpenBabel12092121133D

  0  0  0     0  0            999 V3000
M  V30 BEGIN CTAB
M  V30 COUNTS 20329 20544 0 0 0
M  V30 BEGIN ATOM
M  V30 1 H -0.908 1.98254 -0.117106 0
M  V30 2 N 0 1.576 0 0
M  V30 3 C 0.933 2.03868 1.02534 0
M  V30 4 C 1.911 0.928543 1.3348 0
M  V30 5 O 3.095 1.19667 1.45644 0
M  V30 6 C 0.222 2.43627 2.35294 0
M  V30 7 C -0.732 3.65373 2.2001 0
M  V30 8 S 0.101 5.13292 1.52614 0
M  V30 9 C 1.257 5.56322 2.86805 0
M  V30 10 H 1.49 2.90518 0.631377 0
M  V30 11 H -0.977 1.52953 0.210867 0
M  V30 12 H 0.981 2.67203 3.11629 0
M  V30 13 H -0.358 1.57376 2.7183 0
M  V30 14 H -1.165 3.90944 3.18086 0
M  V30 15 H -1.563 3.418 1.51819 0
M  V30 16 H 0.729 5.58782 3.83104 0
M  V30 17 H 1.672 6.56266 2.65933 0
M  V30 18 H 2.08 4.83886 2.90714 0
M  V30 19 N 1.4781 -0.272755 1.55222 0
M  V30 20 C 2.3881 -1.35918 1.91216 0
M  V30 21 C 3.4041 -1.54026 0.809436 0
M  V30 22 O 4.5801 -1.68148 1.10852 0
M  V30 23 C 1.6451 -2.69834 2.17693 0
M  V30 24 C 0.7061 -2.6047 3.41253 0
M  V30 25 C -0.0609 -3.88 3.66458 0
M  V30 26 O 0.1621 -4.88693 2.94169 0
M  V30 27 O -0.9039 -3.88189 4.59992 0
M  V30 28 H 2.9221 -1.0839 2.83699 0
M  V30 29 H 0.5071 -0.471301 1.41771 0
M  V30 30 H 2.3891 -3.49017 2.36147 0
M  V30 31 H 1.0641 -2.97148 1.28392 0
M  V30 32 H -0.0289 -1.79663 3.28134 0
M  V30 33 H 1.3041 -2.38106 4.30774 0
M  V30 34 N 2.9562 -1.48159 -0.537278 0
M  V30 35 C 3.9032 -1.62138 -1.64256 0
M  V30 36 C 4.8732 -0.463668 -1.59497 0
M  V30 37 O 6.0582 -0.686241 -1.78032 0
M  V30 38 C 3.1982 -1.66028 -3.02537 0
M  V30 39 C 2.3112 -2.92855 -3.17585 0
M  V30 40 C 1.4462 -2.87952 -4.46382 0
M  V30 41 C 0.4852 -4.09516 -4.54932 0
M  V30 42 N -0.3778 -4.02733 -5.75109 0
M  V30 43 H 4.4622 -2.56529 -1.51647 0
M  V30 44 H 1.9992 -1.27224 -0.738414 0
M  V30 45 H 3.9572 -1.66265 -3.82638 0
M  V30 46 H 2.5872 -0.751331 -3.13934 0
M  V30 47 H 1.6392 -3.02395 -2.30784 0
M  V30 48 H 2.9512 -3.82822 -3.19764 0
M  V30 49 H 2.1052 -2.8655 -5.34765 0
M  V30 50 H 0.8442 -1.95702 -4.46712 0
M  V30 51 H -0.1508 -4.11201 -3.64957 0
M  V30 52 H 1.0742 -5.02917 -4.56346 0
M  V30 53 H -0.9798 -3.13299 -5.76351 0
M  V30 54 H -1.0628 -4.86397 -5.78752 0
M  V30 55 H 0.2052 -4.05379 -6.65799 0
M  V30 56 N 4.4343 0.785586 -1.36625 0
M  V30 57 C 5.6643 1.5722 -1.34036 0
M  V30 58 C 6.0723 1.89033 0.0795062 0
M  V30 59 O 5.4153 1.50881 1.04789 0
M  V30 60 C 5.4773 2.91759 -2.10041 0
M  V30 61 C 5.1413 2.82654 -3.59104 0
M  V30 62 C 6.1383 2.54634 -4.53274 0
M  V30 63 C 3.8233 3.01111 -4.02042 0
M  V30 64 C 5.8173 2.45177 -5.88359 0
M  V30 65 C 3.5043 2.91276 -5.37216 0
M  V30 66 C 4.5023 2.63348 -6.30188 0
M  V30 67 O 4.1903 2.53514 -7.6288 0
M  V30 68 H 3.9223 0.494177 -0.461265 0
M  V30 69 H 6.4763 0.982632 -1.8037 0
M  V30 70 H 4.7063 3.52781 -1.58375 0
M  V30 71 H 6.3953 3.53059 -2.00261 0
M  V30 72 H 7.1613 2.40073 -4.21414 0
M  V30 73 H 3.0403 3.21854 -3.30047 0
M  V30 74 H 6.5843 2.23299 -6.60896 0
M  V30 75 H 2.4813 3.054 -5.68684 0
M  V30 76 H 3.2493 2.68967 -7.73045 0
M  V30 77 N 5.9124 1.20967 1.01018 0
M  V30 78 C 6.8624 0.93182 2.08089 0
M  V30 79 C 7.8464 -0.110898 1.60517 0
M  V30 80 O 9.0384 0.0973392 1.76732 0
M  V30 81 C 6.1674 0.492719 3.39746 0
M  V30 82 C 5.2534 1.56922 3.94 0
M  V30 83 N 5.6444 2.79312 4.21686 0
M  V30 84 C 3.9424 1.43688 4.2222 0
M  V30 85 C 4.6434 3.48797 4.65527 0
M  V30 86 N 3.6194 2.76224 4.68189 0
M  V30 87 H 7.4214 1.86175 2.27412 0
M  V30 88 H 4.9354 1.10463 1.19045 0
M  V30 89 H 6.9324 0.275044 4.15992 0
M  V30 90 H 5.5924 -0.430509 3.21833 0
M  V30 91 H 6.6034 3.15903 4.10397 0
M  V30 92 H 3.2804 0.578548 4.13472 0
M  V30 93 H 4.6704 4.53561 4.95714 0
M  V30 94 N 7.3905 -1.2043 1.01659 0
M  V30 95 C 8.6365 -1.90079 0.706963 0
M  V30 96 C 8.9695 -1.78648 -0.761474 0
M  V30 97 O 8.2445 -1.17069 -1.55323 0
M  V30 98 C 8.5275 -3.41469 1.14327 0
M  V30 99 C 8.3805 -3.61833 2.67201 0
M  V30 100 C 9.6995 -4.34261 0.714529 0
M  V30 101 H 6.8185 -0.690254 0.2583 0
M  V30 102 H 9.4605 -1.41826 1.26433 0
M  V30 103 H 7.6105 -3.82696 0.669056 0
M  V30 104 H 9.2825 -3.2986 3.22475 0
M  V30 105 H 7.5255 -3.05304 3.08175 0
M  V30 106 H 8.1965 -4.67955 2.92783 0
M  V30 107 H 10.6725 -4.00682 1.12221 0
M  V30 108 H 9.5485 -5.38806 1.04784 0
M  V30 109 H 9.8095 -4.40431 -0.383799 0
M  V30 110 N 8.8686 -0.792821 -1.36206 0
M  V30 111 C 9.7986 -0.207853 -2.32573 0
M  V30 112 C 10.7796 0.659055 -1.56813 0
M  V30 113 O 11.9646 0.592176 -1.84951 0
M  V30 114 C 9.0946 0.655449 -3.41059 0
M  V30 115 C 8.0486 -0.111842 -4.27854 0
M  V30 116 C 7.3746 0.872274 -5.27537 0
M  V30 117 C 8.6746 -1.30299 -5.05786 0
M  V30 118 H 10.3686 -1.01294 -2.81744 0
M  V30 119 H 7.9146 -0.48854 -1.3546 0
M  V30 120 H 9.8676 1.07464 -4.07467 0
M  V30 121 H 8.5916 1.49328 -2.90463 0
M  V30 122 H 7.2506 -0.512053 -3.63006 0
M  V30 123 H 6.8986 1.70523 -4.73214 0
M  V30 124 H 6.5986 0.363291 -5.86476 0
M  V30 125 H 8.1226 1.28996 -5.96818 0
M  V30 126 H 9.5366 -0.959379 -5.65216 0
M  V30 127 H 7.9336 -1.7455 -5.74154 0
M  V30 128 H 9.0036 -2.09663 -4.37229 0
M  V30 129 N 10.3467 1.47872 -0.545128 0
M  V30 130 C 11.2567 2.33633 0.212746 0
M  V30 131 C 12.2727 1.4744 0.923983 0
M  V30 132 O 13.4487 1.80393 0.895572 0
M  V30 133 C 10.5137 3.23884 1.23693 0
M  V30 134 C 9.5747 4.25961 0.534417 0
M  V30 135 C 8.8077 5.11899 1.5098 0
M  V30 136 O 9.0307 5.00077 2.7437 0
M  V30 137 O 7.9647 5.92831 1.0409 0
M  V30 138 H 11.7907 2.99714 -0.490416 0
M  V30 139 H 9.3757 1.46235 -0.305871 0
M  V30 140 H 11.2577 3.79666 1.82843 0
M  V30 141 H 9.9327 2.60446 1.92222 0
M  V30 142 H 8.8397 3.73972 -0.0979679 0
M  V30 143 H 10.1727 4.92079 -0.109213 0
M  V30 144 N 11.8248 0.280983 1.55075 0
M  V30 145 C 12.7578 -0.645439 2.18882 0
M  V30 146 C 13.7358 -1.14786 1.15165 0
M  V30 147 O 14.9198 -1.21975 1.43716 0
M  V30 148 C 12.0468 -1.88088 2.81674 0
M  V30 149 C 11.0928 -1.51343 3.98745 0
M  V30 150 S 11.9258 -0.586548 5.32278 0
M  V30 151 C 13.0818 -1.83024 5.98543 0
M  V30 152 H 13.3148 -0.1033 2.9712 0
M  V30 153 H 10.8478 0.0652099 1.54262 0
M  V30 154 H 12.8058 -2.58997 3.18482 0
M  V30 155 H 11.4668 -2.39417 2.03318 0
M  V30 156 H 10.6598 -2.43289 4.41392 0
M  V30 157 H 10.2618 -0.884477 3.63391 0
M  V30 158 H 12.5538 -2.77342 6.18133 0
M  V30 159 H 13.4968 -1.44668 6.93164 0
M  V30 160 H 13.9048 -1.99785 5.27964 0
M  V30 161 N 13.3029 -1.57598 0.00835791 0
M  V30 162 C 14.5519 -1.90107 -0.673968 0
M  V30 163 C 14.8649 -0.884275 -1.7447 0
M  V30 164 O 16.0709 -1.09987 -2.48224 0
M  V30 165 C 14.5269 -3.37497 -1.24995 0
M  V30 166 C 14.1349 -4.47491 -0.2136 0
M  V30 167 C 15.8789 -3.79104 -1.90999 0
M  V30 168 C 13.7859 -5.85963 -0.80005 0
M  V30 169 H 12.7159 -0.709393 -0.255495 0
M  V30 170 H 15.3669 -1.83365 0.0702693 0
M  V30 171 H 13.7489 -3.39102 -2.04513 0
M  V30 172 H 14.9229 -4.57414 0.557596 0
M  V30 173 H 13.2379 -4.14956 0.346474 0
M  V30 174 H 15.8349 -4.79901 -2.35795 0
M  V30 175 H 16.1779 -3.1306 -2.74407 0
M  V30 176 H 16.7109 -3.79833 -1.18203 0
M  V30 177 H 13.4499 -6.555 -0.00456708 0
M  V30 178 H 12.9699 -5.79687 -1.54021 0
M  V30 179 H 14.6489 -6.33884 -1.29615 0
M  V30 180 N 14.781 0.264519 -1.55364 0
M  V30 181 C 16.029 0.993021 -1.76021 0
M  V30 182 C 16.35 1.86511 -0.569099 0
M  V30 183 O 15.62 1.91438 0.415735 0
M  V30 184 H 14.2 0.369639 -0.649135 0
M  V30 185 H 16.862 0.286707 -1.9278 0
M  V30 186 H 15.958 1.62502 -2.66457 0
M  V30 187 N 16.2591 1.48442 0.529413 0
M  V30 188 C 17.1691 1.6569 1.66084 0
M  V30 189 C 18.1851 0.539432 1.65427 0
M  V30 190 O 19.3611 0.810572 1.84368 0
M  V30 191 C 16.4261 1.69315 3.02545 0
M  V30 192 C 15.4871 2.92694 3.14052 0
M  V30 193 C 14.7201 2.96137 4.44003 0
M  V30 194 O 14.9431 2.07973 5.31134 0
M  V30 195 O 13.8771 3.88312 4.59888 0
M  V30 196 H 17.7031 2.61483 1.54469 0
M  V30 197 H 15.2881 1.3185 0.702567 0
M  V30 198 H 17.1701 1.74217 3.83701 0
M  V30 199 H 15.8451 0.766966 3.14483 0
M  V30 200 H 14.7521 2.93324 2.32189 0
M  V30 201 H 16.0851 3.84699 3.0703 0
M  V30 202 N 17.7372 -0.778329 1.37039 0
M  V30 203 C 18.9852 -1.53361 1.31623 0
M  V30 204 C 19.3062 -1.94739 -0.100831 0
M  V30 205 O 18.5762 -1.65797 -1.04347 0
M  V30 206 H 17.1562 -0.568794 0.484234 0
M  V30 207 H 19.8182 -0.926742 1.71457 0
M  V30 208 H 18.9142 -2.43606 1.95096 0
M  V30 209 N 19.2153 -1.21501 -1.00376 0
M  V30 210 C 20.4403 -1.05977 -1.78279 0
M  V30 211 C 20.8653 0.385994 -1.84097 0
M  V30 212 O 20.2233 1.27849 -1.28547 0
M  V30 213 C 20.2713 -1.66302 -3.19963 0
M  V30 214 O 19.3753 -0.909333 -4.0225 0
M  V30 215 H 18.7163 -0.372906 -0.549397 0
M  V30 216 H 21.2463 -1.6107 -1.26165 0
M  V30 217 H 21.2563 -1.70574 -3.70632 0
M  V30 218 H 19.9313 -2.71515 -3.15043 0
M  V30 219 H 18.5083 -0.941795 -3.60811 0
M  V30 220 N 20.6934 1.19889 -1.02296 0
M  V30 221 C 21.9404 1.8942 -0.715972 0
M  V30 222 C 22.2684 1.79251 0.754944 0
M  V30 223 O 21.5234 1.17526 1.56481 0
M  V30 224 C 21.8224 3.39883 -1.10518 0
M  V30 225 C 21.4884 3.70254 -2.57337 0
M  V30 226 C 20.1504 3.78254 -2.97452 0
M  V30 227 C 22.5024 3.84052 -3.52354 0
M  V30 228 C 19.8304 3.97514 -4.31509 0
M  V30 229 C 22.1824 4.04824 -4.86108 0
M  V30 230 C 20.8464 4.11054 -5.25919 0
M  V30 231 H 20.1164 0.693138 -0.261993 0
M  V30 232 H 22.7634 1.42012 -1.28472 0
M  V30 233 H 21.0684 3.8915 -0.454953 0
M  V30 234 H 22.7654 3.9199 -0.845261 0
M  V30 235 H 19.3554 3.64632 -2.25258 0
M  V30 236 H 23.5394 3.77221 -3.22518 0
M  V30 237 H 18.7954 4.00574 -4.61898 0
M  V30 238 H 22.9694 4.14442 -5.59653 0
M  V30 239 H 20.5964 4.2573 -6.29808 0
M  V30 240 N 22.1715 0.800033 1.35784 0
M  V30 241 C 23.4195 0.376597 1.9856 0
M  V30 242 C 23.7405 -1.05812 1.63795 0
M  V30 243 O 23.0105 -1.73103 0.917171 0
M  V30 244 H 21.5905 0.136261 0.734467 0
M  V30 245 H 24.2525 1.02442 1.65806 0
M  V30 246 H 23.3485 0.477002 3.08433 0
M  V30 247 N 23.6496 -1.47581 0.552962 0
M  V30 248 C 25.0656 -1.5818 0.212424 0
M  V30 249 C 25.2656 -1.55213 -1.28496 0
M  V30 250 O 24.3216 -1.45329 -2.06484 0
M  V30 251 C 25.6346 -2.88865 0.835318 0
M  V30 252 C 27.1826 -3.0244 0.806156 0
M  V30 253 C 27.6576 -4.35819 1.40804 0
M  V30 254 N 29.1486 -4.42444 1.37103 0
M  V30 255 C 29.8836 -5.44202 1.80641 0
M  V30 256 N 29.3796 -6.52795 2.32015 0
M  V30 257 N 31.1726 -5.35222 1.71738 0
M  V30 258 H 23.3236 -1.47753 1.52587 0
M  V30 259 H 25.5866 -0.702941 0.636064 0
M  V30 260 H 25.2926 -2.9676 1.88749 0
M  V30 261 H 25.1666 -3.7579 0.325848 0
M  V30 262 H 27.5536 -2.94144 -0.237317 0
M  V30 263 H 27.6346 -2.17068 1.35334 0
M  V30 264 H 27.2786 -4.44871 2.45056 0
M  V30 265 H 27.2086 -5.19916 0.836338 0
M  V30 266 H 29.6996 -3.6456 0.995202 0
M  V30 267 H 30.0126 -7.26609 2.63171 0
M  V30 268 H 28.3576 -6.53696 2.36023 0
M  V30 269 H 31.5486 -4.49284 1.31382 0
M  V30 270 H 31.7216 -6.14389 2.05987 0
M  V30 271 N 25.1277 -0.289203 -1.54924 0
M  V30 272 C 26.3737 0.323998 -2.00195 0
M  V30 273 C 26.7067 1.54441 -1.17735 0
M  V30 274 O 25.9817 1.92875 -0.250878 0
M  V30 275 C 26.2647 0.692276 -3.53383 0
M  V30 276 C 26.1177 -0.536457 -4.46589 0
M  V30 277 C 27.4367 1.52335 -4.12895 0
M  V30 278 H 24.5557 0.116289 -0.727768 0
M  V30 279 H 27.1977 -0.398954 -1.85764 0
M  V30 280 H 25.3477 1.30822 -3.65811 0
M  V30 281 H 27.0197 -1.17499 -4.46085 0
M  V30 282 H 25.2627 -1.17192 -4.1767 0
M  V30 283 H 25.9337 -0.234806 -5.515 0
M  V30 284 H 28.4097 1.00302 -4.0383 0
M  V30 285 H 27.2857 1.74982 -5.20262 0
M  V30 286 H 27.5467 2.50886 -3.64018 0
M  V30 287 N 26.6058 1.57591 -0.0167156 0
M  V30 288 C 27.8358 1.95292 0.674149 0
M  V30 289 C 28.2438 0.891097 1.66901 0
M  V30 290 O 27.5868 -0.136908 1.83189 0
M  V30 291 C 27.6488 3.29072 1.44747 0
M  V30 292 C 27.3128 4.52879 0.612331 0
M  V30 293 C 28.3098 5.1979 -0.107126 0
M  V30 294 C 25.9948 4.99242 0.553381 0
M  V30 295 C 27.9888 6.31375 -0.874339 0
M  V30 296 C 25.6758 6.10713 -0.217546 0
M  V30 297 C 26.6738 6.76637 -0.930123 0
M  V30 298 O 26.3618 7.85969 -1.68844 0
M  V30 299 H 26.0938 0.648275 0.191615 0
M  V30 300 H 28.6478 2.05284 -0.0690148 0
M  V30 301 H 26.8778 3.15535 2.2355 0
M  V30 302 H 28.5668 3.51764 2.02526 0
M  V30 303 H 29.3328 4.84948 -0.0708392 0
M  V30 304 H 25.2118 4.47744 1.09757 0
M  V30 305 H 28.7558 6.82764 -1.43106 0
M  V30 306 H 24.6528 6.44994 -0.255593 0
M  V30 307 H 25.4208 8.02571 -1.6069 0
M  V30 308 N 28.0839 -0.256276 1.55502 0
M  V30 309 C 29.0309 -1.31714 1.89526 0
M  V30 310 C 30.0009 -1.4828 0.748479 0
M  V30 311 O 31.1859 -1.62416 1.00128 0
M  V30 312 C 28.3259 -2.66933 2.18725 0
M  V30 313 C 27.4389 -2.58452 3.4616 0
M  V30 314 C 26.5739 -3.85961 3.64976 0
M  V30 315 C 25.6129 -3.72059 4.86044 0
M  V30 316 N 24.7499 -4.9144 5.01429 0
M  V30 317 H 29.5899 -1.01998 2.80001 0
M  V30 318 H 27.1269 -0.492413 1.38613 0
M  V30 319 H 29.0849 -3.4563 2.33657 0
M  V30 320 H 27.7149 -2.94816 1.31466 0
M  V30 321 H 26.7669 -1.71374 3.3961 0
M  V30 322 H 28.0789 -2.44085 4.34999 0
M  V30 323 H 27.2329 -4.73101 3.79816 0
M  V30 324 H 25.9719 -4.03215 2.74353 0
M  V30 325 H 24.9769 -2.83302 4.7119 0
M  V30 326 H 26.2019 -3.56309 5.78118 0
M  V30 327 H 24.1479 -5.09072 4.13741 0
M  V30 328 H 24.0649 -4.79668 5.84341 0
M  V30 329 H 25.3329 -5.80104 5.20672 0
M  V30 330 N 29.562 -1.4872 -0.521534 0
M  V30 331 C 30.81 -1.56857 -1.27437 0
M  V30 332 C 31.131 -0.247982 -1.93417 0
M  V30 333 O 30.401 0.731151 -1.81744 0
M  V30 334 H 28.981 -0.577885 -0.473347 0
M  V30 335 H 31.643 -1.85233 -0.606205 0
M  V30 336 H 30.739 -2.35402 -2.0492 0
M  V30 337 N 31.0401 0.771051 -1.3745 0
M  V30 338 C 32.4561 1.07171 -1.18265 0
M  V30 339 C 32.6561 2.01491 -0.019287 0
M  V30 340 O 31.7121 2.44244 0.640408 0
M  V30 341 C 33.0251 1.66854 -2.50161 0
M  V30 342 C 34.5731 1.79109 -2.56689 0
M  V30 343 C 35.0481 2.42205 -3.88717 0
M  V30 344 N 36.5391 2.49655 -3.90162 0
M  V30 345 C 37.2741 2.9933 -4.8907 0
M  V30 346 N 36.7701 3.49172 -5.98374 0
M  V30 347 N 38.5631 2.9821 -4.76474 0
M  V30 348 H 30.7141 0.144796 -2.11906 0
M  V30 349 H 32.9771 0.126863 -0.939473 0
M  V30 350 H 32.6831 1.05017 -3.35655 0
M  V30 351 H 32.5571 2.6614 -2.673 0
M  V30 352 H 34.9441 2.40077 -1.71601 0
M  V30 353 H 35.0251 0.785757 -2.43433 0
M  V30 354 H 34.6691 1.81875 -4.74219 0
M  V30 355 H 34.5991 3.43345 -3.99276 0
M  V30 356 H 37.0901 2.14383 -3.11205 0
M  V30 357 H 37.4031 3.8548 -6.69795 0
M  V30 358 H 35.7481 3.47275 -6.02018 0
M  V30 359 H 38.9391 2.58572 -3.90203 0
M  V30 360 H 39.1121 3.36613 -5.53711 0
M  V30 361 N 32.5182 1.22032 0.997298 0
M  V30 362 C 33.9342 0.979326 1.26021 0
M  V30 363 C 34.1342 -0.32972 1.98784 0
M  V30 364 O 33.1902 -1.05345 2.29475 0
M  V30 365 C 34.5032 2.17509 2.07631 0
M  V30 366 C 36.0512 2.21817 2.2083 0
M  V30 367 C 36.5262 3.40933 3.05825 0
M  V30 368 N 38.0172 3.41067 3.13412 0
M  V30 369 C 38.7522 4.29885 3.79455 0
M  V30 370 N 38.2482 5.28914 4.47462 0
M  V30 371 N 40.0412 4.17673 3.76173 0
M  V30 372 H 32.1922 2.06202 0.509352 0
M  V30 373 H 34.4552 0.90334 0.287541 0
M  V30 374 H 34.1612 3.12415 1.61524 0
M  V30 375 H 34.0352 2.17206 3.08385 0
M  V30 376 H 36.4222 1.27462 2.66153 0
M  V30 377 H 36.5032 2.2616 1.1952 0
M  V30 378 H 36.1472 4.35586 2.61203 0
M  V30 379 H 36.0772 3.33829 4.07266 0
M  V30 380 H 38.5682 2.69406 2.65007 0
M  V30 381 H 38.8812 5.92973 4.95583 0
M  V30 382 H 37.2262 5.32831 4.46224 0
M  V30 383 H 40.4172 3.39564 3.22202 0
M  V30 384 H 40.5902 4.87098 4.27363 0
M  V30 385 N 33.9963 -1.19345 1.0293 0
M  V30 386 C 34.9433 -2.2258 0.610464 0
M  V30 387 C 35.9133 -1.6179 -0.375946 0
M  V30 388 O 37.0983 -1.88844 -0.272511 0
M  V30 389 C 34.2383 -3.45085 -0.0321473 0
M  V30 390 C 33.3513 -4.20258 1.00035 0
M  V30 391 C 32.4863 -5.3019 0.32746 0
M  V30 392 C 31.5253 -5.97121 1.34584 0
M  V30 393 N 30.6623 -6.98615 0.698726 0
M  V30 394 H 35.5023 -2.57764 1.49538 0
M  V30 395 H 33.0393 -1.26644 0.748311 0
M  V30 396 H 34.9973 -4.15061 -0.421966 0
M  V30 397 H 33.6273 -3.10555 -0.88064 0
M  V30 398 H 32.6793 -3.49223 1.50823 0
M  V30 399 H 33.9913 -4.66175 1.77433 0
M  V30 400 H 33.1453 -6.06587 -0.11718 0
M  V30 401 H 31.8843 -4.85345 -0.478713 0
M  V30 402 H 30.8893 -5.19474 1.80074 0
M  V30 403 H 32.1143 -6.4405 2.15352 0
M  V30 404 H 30.0603 -6.55942 -0.0873471 0
M  V30 405 H 29.9773 -7.42724 1.41058 0
M  V30 406 H 31.2453 -7.79004 0.278102 0
M  V30 407 N 35.4744 -0.807222 -1.35358 0
M  V30 408 C 36.7044 -0.399796 -2.02695 0
M  V30 409 C 37.1124 0.994176 -1.60974 0
M  V30 410 O 36.4554 1.65209 -0.803226 0
M  V30 411 C 36.5174 -0.404445 -3.57218 0
M  V30 412 C 36.1814 -1.74904 -4.22206 0
M  V30 413 C 37.1784 -2.70743 -4.4384 0
M  V30 414 C 34.8634 -2.03322 -4.5931 0
M  V30 415 C 36.8574 -3.93183 -5.01683 0
M  V30 416 C 34.5444 -3.26026 -5.16866 0
M  V30 417 C 35.5424 -4.20774 -5.37994 0
M  V30 418 O 35.2304 -5.41312 -5.94337 0
M  V30 419 H 34.9624 -0.160517 -0.656666 0
M  V30 420 H 37.5164 -1.09235 -1.73945 0
M  V30 421 H 35.7464 0.344707 -3.85161 0
M  V30 422 H 37.4354 -0.0192429 -4.05895 0
M  V30 423 H 38.2014 -2.5008 -4.15554 0
M  V30 424 H 34.0804 -1.30384 -4.42178 0
M  V30 425 H 37.6244 -4.6715 -5.1809 0
M  V30 426 H 33.5214 -3.46559 -5.44579 0
M  V30 427 H 34.2894 -5.42618 -6.12787 0
M  V30 428 N 36.9525 1.47285 -0.560781 0
M  V30 429 C 38.1775 2.07359 -0.0410566 0
M  V30 430 C 38.6025 1.41017 1.24483 0
M  V30 431 O 37.9605 0.486368 1.74654 0
M  V30 432 C 38.0085 3.6035 0.134123 0
M  V30 433 O 37.1125 3.94681 1.19587 0
M  V30 434 H 36.4535 0.661887 -0.0529291 0
M  V30 435 H 38.9835 1.89252 -0.777482 0
M  V30 436 H 38.9935 4.0652 0.347207 0
M  V30 437 H 37.6685 4.08034 -0.805047 0
M  V30 438 H 36.2455 3.60251 0.962987 0
M  V30 439 N 38.4306 0.297415 1.54768 0
M  V30 440 C 39.3936 -0.567375 2.22066 0
M  V30 441 C 40.3936 -1.06409 1.20556 0
M  V30 442 O 41.5836 -0.960691 1.45315 0
M  V30 443 C 38.7156 -1.78517 2.90421 0
M  V30 444 H 39.9086 0.0205534 2.99893 0
M  V30 445 H 37.4616 0.0482163 1.56226 0
M  V30 446 H 38.1966 -2.41303 2.16664 0
M  V30 447 H 37.9816 -1.43669 3.64831 0
M  V30 448 H 39.4716 -2.39964 3.41771 0
M  V30 449 N 39.9087 -1.5758 0.0250728 0
M  V30 450 C 40.8407 -2.06869 -0.986796 0
M  V30 451 C 41.8537 -0.991332 -1.29137 0
M  V30 452 O 43.0427 -1.26761 -1.25674 0
M  V30 453 C 40.1427 -2.47486 -2.31525 0
M  V30 454 C 39.3157 -3.78253 -2.19643 0
M  V30 455 C 38.3747 -4.05464 -3.35388 0
M  V30 456 O 37.4007 -4.75774 -3.12454 0
M  V30 457 N 38.6027 -3.55321 -4.59051 0
M  V30 458 H 41.3677 -2.94302 -0.566276 0
M  V30 459 H 38.9287 -1.6109 -0.161776 0
M  V30 460 H 40.9207 -2.62785 -3.07776 0
M  V30 461 H 39.4907 -1.65441 -2.65232 0
M  V30 462 H 38.7107 -3.7279 -1.28144 0
M  V30 463 H 39.9987 -4.63936 -2.08903 0
M  V30 464 H 39.3967 -2.98431 -4.80578 0
M  V30 465 H 37.9537 -3.75905 -5.32483 0
M  V30 466 N 41.3868 0.248026 -1.55636 0
M  V30 467 C 42.6328 0.97767 -1.77678 0
M  V30 468 C 42.9658 1.85016 -0.590135 0
M  V30 469 O 42.2408 1.90095 0.411611 0
M  V30 470 C 42.5238 1.83914 -3.09593 0
M  V30 471 C 42.3768 0.99491 -4.38659 0
M  V30 472 C 43.6958 2.82183 -3.37729 0
M  V30 473 H 40.8148 0.354005 -0.646413 0
M  V30 474 H 43.4568 0.248253 -1.88371 0
M  V30 475 H 41.6068 2.46104 -3.00608 0
M  V30 476 H 43.2788 0.391789 -4.59633 0
M  V30 477 H 41.5218 0.299231 -4.32767 0
M  V30 478 H 42.1928 1.63145 -5.2734 0
M  V30 479 H 44.6688 2.30129 -3.4667 0
M  V30 480 H 43.5448 3.39582 -4.31249 0
M  V30 481 H 43.8058 3.58588 -2.58586 0
M  V30 482 N 42.8649 1.48995 0.513639 0
M  V30 483 C 44.1109 1.58076 1.27042 0
M  V30 484 C 44.4439 0.261026 1.92438 0
M  V30 485 O 43.7189 -0.734393 1.80103 0
M  V30 486 C 44.0019 2.73091 2.34719 0
M  V30 487 C 43.8549 4.14821 1.73907 0
M  V30 488 C 45.1739 2.83796 3.36375 0
M  V30 489 H 42.2929 0.575391 0.460536 0
M  V30 490 H 44.9349 1.81232 0.570516 0
M  V30 491 H 43.0849 2.53479 2.94416 0
M  V30 492 H 44.7569 4.45917 1.18135 0
M  V30 493 H 42.9999 4.21058 1.0437 0
M  V30 494 H 43.6709 4.91147 2.51949 0
M  V30 495 H 46.1469 3.01611 2.86653 0
M  V30 496 H 45.0229 3.65971 4.09093 0
M  V30 497 H 45.2839 1.92624 3.9793 0
M  V30 498 N 44.343 -0.763751 1.37857 0
M  V30 499 C 45.306 -1.85889 1.34081 0
M  V30 500 C 46.306 -1.58949 0.243277 0
M  V30 501 O 47.496 -1.66882 0.499589 0
M  V30 502 C 44.628 -3.23176 1.08489 0
M  V30 503 H 45.821 -1.90648 2.31502 0
M  V30 504 H 43.374 -0.964367 1.23003 0
M  V30 505 H 44.109 -3.24091 0.116318 0
M  V30 506 H 43.894 -3.44124 1.8794 0
M  V30 507 H 45.384 -4.03254 1.08517 0
M  V30 508 N 45.8211 -1.22559 -0.990812 0
M  V30 509 C 46.7511 -1.0218 -2.09956 0
M  V30 510 C 47.7321 0.0579394 -1.70001 0
M  V30 511 O 48.9171 -0.104684 -1.93918 0
M  V30 512 C 46.0471 -0.601023 -3.4206 0
M  V30 513 C 45.0011 -1.62694 -3.95872 0
M  V30 514 C 44.3271 -1.06193 -5.24049 0
M  V30 515 C 45.6271 -3.01743 -4.2632 0
M  V30 516 H 47.3211 -1.94916 -2.27262 0
M  V30 517 H 44.8671 -0.938566 -1.09211 0
M  V30 518 H 46.8201 -0.445561 -4.19038 0
M  V30 519 H 45.5441 0.362005 -3.24588 0
M  V30 520 H 44.2031 -1.77021 -3.21028 0
M  V30 521 H 43.8511 -0.0901903 -5.02919 0
M  V30 522 H 43.5511 -1.74732 -5.61019 0
M  V30 523 H 45.0751 -0.918092 -6.03658 0
M  V30 524 H 46.4891 -2.90777 -4.94087 0
M  V30 525 H 44.8861 -3.67425 -4.74467 0
M  V30 526 H 45.9561 -3.51518 -3.34011 0
M  V30 527 N 47.2992 1.18797 -1.03562 0
M  V30 528 C 48.2462 2.22253 -0.622259 0
M  V30 529 C 49.2162 1.61987 0.36736 0
M  V30 530 O 50.4012 1.88986 0.262492 0
M  V30 531 C 47.5412 3.45097 0.0138462 0
M  V30 532 C 46.6542 4.19722 -1.02263 0
M  V30 533 C 45.7892 5.30009 -0.355573 0
M  V30 534 C 44.8282 5.96399 -1.37749 0
M  V30 535 N 43.9652 6.98234 -0.735766 0
M  V30 536 H 48.8052 2.56968 -1.50903 0
M  V30 537 H 46.3422 1.26245 -0.755017 0
M  V30 538 H 48.3002 4.15279 0.399948 0
M  V30 539 H 46.9302 3.11018 0.864158 0
M  V30 540 H 45.9822 3.48418 -1.52673 0
M  V30 541 H 47.2942 4.65227 -1.79903 0
M  V30 542 H 46.4482 6.0664 0.0850095 0
M  V30 543 H 45.1872 4.85592 0.452967 0
M  V30 544 H 44.1922 5.18512 -1.82826 0
M  V30 545 H 45.4172 6.42899 -2.18764 0
M  V30 546 H 43.3632 6.55979 0.0525597 0
M  V30 547 H 43.2802 7.41965 -1.44995 0
M  V30 548 H 44.5482 7.78845 -0.31941 0
M  V30 549 N 48.7773 0.814389 1.34928 0
M  V30 550 C 50.0243 0.398423 1.98542 0
M  V30 551 C 50.3523 -1.03638 1.64589 0
M  V30 552 O 49.6073 -1.73509 0.90516 0
M  V30 553 C 49.9063 0.537781 3.53331 0
M  V30 554 C 49.5723 1.93704 4.07172 0
M  V30 555 C 48.2343 2.31984 4.21589 0
M  V30 556 C 50.5863 2.85213 4.36237 0
M  V30 557 C 47.9143 3.61125 4.62391 0
M  V30 558 C 50.2663 4.13809 4.78482 0
M  V30 559 C 48.9303 4.52077 4.91104 0
M  V30 560 H 48.2003 0.145793 0.726516 0
M  V30 561 H 50.8473 1.03669 1.61012 0
M  V30 562 H 49.1523 -0.183906 3.91368 0
M  V30 563 H 50.8493 0.196588 4.00518 0
M  V30 564 H 47.4393 1.62966 3.96409 0
M  V30 565 H 51.6233 2.56885 4.24645 0
M  V30 566 H 46.8793 3.90612 4.70353 0
M  V30 567 H 51.0533 4.84811 4.99932 0
M  V30 568 H 48.6803 5.52196 5.22478 0
M  V30 569 N 50.2554 -1.46986 0.568584 0
M  V30 570 C 51.5044 -2.01646 0.0465894 0
M  V30 571 C 51.8174 -1.44721 -1.31587 0
M  V30 572 O 53.0234 -1.91113 -1.92842 0
M  V30 573 C 51.4794 -3.59885 0.032752 0
M  V30 574 C 51.0874 -4.25804 1.39266 0
M  V30 575 C 52.8314 -4.22255 -0.436038 0
M  V30 576 C 50.7384 -5.76081 1.33732 0
M  V30 577 H 49.6684 -0.753876 0.013647 0
M  V30 578 H 52.3194 -1.68864 0.718131 0
M  V30 579 H 50.7014 -3.8968 -0.704669 0
M  V30 580 H 51.8754 -4.07637 2.1487 0
M  V30 581 H 50.1904 -3.7547 1.80032 0
M  V30 582 H 52.7874 -5.32394 -0.49602 0
M  V30 583 H 53.1304 -3.90212 -1.45053 0
M  V30 584 H 53.6634 -3.97033 0.246877 0
M  V30 585 H 50.4024 -6.12761 2.32817 0
M  V30 586 H 49.9224 -5.96553 0.623267 0
M  V30 587 H 51.6014 -6.38518 1.0442 0
M  V30 588 N 51.7335 -0.305618 -1.54608 0
M  V30 589 C 53.1445 0.186098 -1.8577 0
M  V30 590 C 53.4955 1.53058 -1.22751 0
M  V30 591 O 52.6205 2.09888 -0.526893 0
M  V30 592 C 53.2155 0.344449 -3.37044 0
M  V30 593 C 51.7745 0.780384 -3.68221 0
M  V30 594 C 50.9215 -0.108554 -2.77087 0
M  V30 595 H 53.8725 -0.526485 -1.49712 0
M  V30 596 H 53.8935 1.17828 -3.61796 0
M  V30 597 H 53.4055 -0.634235 -3.82883 0
M  V30 598 H 51.5065 1.76945 -3.27904 0
M  V30 599 H 51.6195 0.596572 -4.75371 0
M  V30 600 H 49.9835 0.412931 -2.5133 0
M  V30 601 H 50.7665 -1.08368 -3.25747 0
M  V30 602 N 53.2116 1.57565 -0.0334293 0
M  V30 603 C 54.1586 2.10478 0.946981 0
M  V30 604 C 55.1286 1.00787 1.32027 0
M  V30 605 O 56.3136 1.28232 1.41284 0
M  V30 606 C 53.4536 2.63994 2.22263 0
M  V30 607 C 52.5666 3.87709 1.90541 0
M  V30 608 C 51.7016 4.29604 3.12433 0
M  V30 609 C 50.7406 5.46065 2.76549 0
M  V30 610 N 49.8776 5.83096 3.9108 0
M  V30 611 H 54.7176 2.93963 0.488846 0
M  V30 612 H 52.2546 1.45296 0.22969 0
M  V30 613 H 54.2126 2.93114 2.96884 0
M  V30 614 H 52.8426 1.83333 2.65685 0
M  V30 615 H 51.8946 3.65291 1.06144 0
M  V30 616 H 53.2066 4.72403 1.60116 0
M  V30 617 H 52.3606 4.60182 3.9537 0
M  V30 618 H 51.0996 3.43685 3.46023 0
M  V30 619 H 50.1046 5.15176 1.92026 0
M  V30 620 H 51.3296 6.33685 2.44171 0
M  V30 621 H 49.2756 5.00132 4.24504 0
M  V30 622 H 49.1926 6.6244 3.64293 0
M  V30 623 H 50.4606 6.18282 4.74708 0
M  V30 624 N 54.6897 -0.239769 1.55765 0
M  V30 625 C 55.6197 -1.30052 1.9393 0
M  V30 626 C 56.6007 -1.49839 0.805132 0
M  V30 627 O 57.7857 -1.62328 1.06599 0
M  V30 628 C 54.9157 -2.65391 2.2402 0
M  V30 629 C 53.8697 -2.60289 3.39755 0
M  V30 630 C 53.1957 -3.99489 3.55405 0
M  V30 631 C 54.4957 -2.16654 4.75246 0
M  V30 632 H 56.1897 -0.983573 2.82783 0
M  V30 633 H 53.7357 -0.471701 1.36055 0
M  V30 634 H 55.6887 -3.3974 2.49308 0
M  V30 635 H 54.4127 -2.98736 1.32 0
M  V30 636 H 53.0717 -1.88398 3.14487 0
M  V30 637 H 52.7197 -4.30112 2.60793 0
M  V30 638 H 52.4197 -3.96962 4.33238 0
M  V30 639 H 53.9437 -4.75528 3.83022 0
M  V30 640 H 55.3577 -2.80737 4.99859 0
M  V30 641 H 53.7547 -2.25223 5.56232 0
M  V30 642 H 54.8247 -1.11835 4.71827 0
M  V30 643 N 56.1678 -1.49265 -0.50573 0
M  V30 644 C 57.4158 -1.582 -1.25766 0
M  V30 645 C 57.7368 -0.268482 -1.93143 0
M  V30 646 O 57.0068 0.711833 -1.8251 0
M  V30 647 H 55.5868 -0.582873 -0.467191 0
M  V30 648 H 58.2488 -1.85865 -0.586525 0
M  V30 649 H 57.3448 -2.37563 -2.02412 0
M  V30 650 N 57.6459 0.756429 -1.3826 0
M  V30 651 C 59.0619 1.0591 -1.19395 0
M  V30 652 C 59.2619 2.01459 -0.0406567 0
M  V30 653 O 58.3179 2.44909 0.614467 0
M  V30 654 C 59.6309 1.64191 -2.51916 0
M  V30 655 C 61.1789 1.76376 -2.58574 0
M  V30 656 C 61.6539 2.38069 -3.91264 0
M  V30 657 N 63.1449 2.45503 -3.92788 0
M  V30 658 C 63.8799 2.94126 -4.92217 0
M  V30 659 N 63.3759 3.42805 -6.02043 0
M  V30 660 N 65.1689 2.9314 -4.7961 0
M  V30 661 H 57.3199 0.122313 -2.12048 0
M  V30 662 H 59.5829 0.116892 -0.940766 0
M  V30 663 H 59.2889 1.01451 -3.3675 0
M  V30 664 H 59.1629 2.6329 -2.70108 0
M  V30 665 H 61.5499 2.38244 -1.74137 0
M  V30 666 H 61.6309 0.759894 -2.44252 0
M  V30 667 H 61.2749 1.76835 -4.76121 0
M  V30 668 H 61.2049 3.39091 -4.02895 0
M  V30 669 H 63.6959 2.1107 -3.13461 0
M  V30 670 H 64.0089 3.78354 -6.73846 0
M  V30 671 H 62.3539 3.4087 -6.05667 0
M  V30 672 H 65.5449 2.54419 -3.92923 0
M  V30 673 H 65.7179 3.30721 -5.5725 0
M  V30 674 N 59.124 1.23083 0.984299 0
M  V30 675 C 60.349 1.088 1.76571 0
M  V30 676 C 60.774 -0.356657 1.84688 0
M  V30 677 O 60.132 -1.25788 1.30565 0
M  V30 678 C 60.18 1.71371 3.17277 0
M  V30 679 O 59.284 0.973213 4.00752 0
M  V30 680 H 58.625 0.381599 0.543395 0
M  V30 681 H 61.155 1.63057 1.23587 0
M  V30 682 H 61.165 1.76449 3.67872 0
M  V30 683 H 59.84 2.76493 3.10684 0
M  V30 684 H 58.417 0.999078 3.59267 0
M  V30 685 N 60.6021 -1.18246 1.0419 0
M  V30 686 C 61.5121 -2.25574 0.644476 0
M  V30 687 C 62.5281 -1.70845 -0.329826 0
M  V30 688 O 63.7041 -2.00554 -0.184443 0
M  V30 689 C 60.7691 -3.46697 0.014877 0
M  V30 690 C 59.8301 -4.16554 1.03834 0
M  V30 691 C 59.0631 -5.31894 0.438692 0
M  V30 692 O 59.2861 -5.65385 -0.754752 0
M  V30 693 O 58.2201 -5.90459 1.168 0
M  V30 694 H 62.0461 -2.61836 1.53869 0
M  V30 695 H 59.6311 -1.25352 0.812854 0
M  V30 696 H 61.5131 -4.20062 -0.335538 0
M  V30 697 H 60.1881 -3.12255 -0.853138 0
M  V30 698 H 59.0951 -3.45251 1.44057 0
M  V30 699 H 60.4281 -4.54998 1.87716 0
M  V30 700 N 62.0802 -0.821533 -1.34494 0
M  V30 701 C 63.0272 -0.240397 -2.29545 0
M  V30 702 C 63.9972 0.634031 -1.53523 0
M  V30 703 O 65.1822 0.575966 -1.81899 0
M  V30 704 C 62.3222 0.592869 -3.39969 0
M  V30 705 C 61.4352 -0.30365 -4.30932 0
M  V30 706 C 60.5702 0.539049 -5.28458 0
M  V30 707 C 59.6092 -0.356942 -6.11058 0
M  V30 708 N 58.7462 0.446603 -7.00678 0
M  V30 709 H 63.5862 -1.05632 -2.7865 0
M  V30 710 H 61.1232 -0.532413 -1.37127 0
M  V30 711 H 63.0812 1.09129 -4.02675 0
M  V30 712 H 61.7112 1.37392 -2.92102 0
M  V30 713 H 60.7632 -0.920276 -3.691 0
M  V30 714 H 62.0752 -0.992661 -4.88823 0
M  V30 715 H 61.2292 1.102 -5.96608 0
M  V30 716 H 59.9682 1.26157 -4.71101 0
M  V30 717 H 58.9732 -0.932047 -5.41842 0
M  V30 718 H 60.1982 -1.07755 -6.70497 0
M  V30 719 H 58.1442 1.15282 -6.45791 0
M  V30 720 H 58.0612 -0.184048 -7.55776 0
M  V30 721 H 59.3292 0.992352 -7.73158 0
M  V30 722 N 63.5583 1.46682 -0.576371 0
M  V30 723 C 64.4683 2.34032 0.163141 0
M  V30 724 C 65.4843 1.49367 0.892501 0
M  V30 725 O 66.6603 1.82252 0.857106 0
M  V30 726 C 63.7253 3.26435 1.16795 0
M  V30 727 C 62.7863 4.26998 0.443944 0
M  V30 728 C 62.0193 5.14986 1.40088 0
M  V30 729 O 62.2423 5.05785 2.637 0
M  V30 730 O 61.1763 5.94906 0.914917 0
M  V30 731 H 65.0023 2.98607 -0.55388 0
M  V30 732 H 62.5873 1.45554 -0.336821 0
M  V30 733 H 64.4693 3.83459 1.74748 0
M  V30 734 H 63.1443 2.64465 1.86655 0
M  V30 735 H 62.0513 3.7368 -0.177271 0
M  V30 736 H 63.3843 4.91736 -0.213566 0
M  V30 737 N 65.0364 0.313813 1.54444 0
M  V30 738 C 65.9664 -0.549454 2.26943 0
M  V30 739 C 66.9474 -1.12741 1.27372 0
M  V30 740 O 68.1324 -1.15436 1.56167 0
M  V30 741 C 65.2624 -1.71523 3.01989 0
M  V30 742 C 64.2164 -1.26703 4.08816 0
M  V30 743 C 63.5424 -2.51898 4.71647 0
M  V30 744 C 64.8424 -0.388962 5.2085 0
M  V30 745 H 66.5364 0.0552661 2.99349 0
M  V30 746 H 64.0824 0.0280207 1.43973 0
M  V30 747 H 66.0354 -2.32535 3.51433 0
M  V30 748 H 64.7594 -2.34639 2.27183 0
M  V30 749 H 63.4184 -0.679896 3.6024 0
M  V30 750 H 63.0664 -3.13356 3.93468 0
M  V30 751 H 62.7664 -2.22605 5.43802 0
M  V30 752 H 64.2904 -3.1369 5.23861 0
M  V30 753 H 65.7044 -0.905107 5.6611 0
M  V30 754 H 64.1014 -0.18924 5.99802 0
M  V30 755 H 65.1714 0.582699 4.81386 0
M  V30 756 N 66.5145 -1.57545 0.0417849 0
M  V30 757 C 67.9305 -1.56467 -0.314704 0
M  V30 758 C 68.1305 -1.04859 -1.72066 0
M  V30 759 O 67.1865 -0.700983 -2.42575 0
M  V30 760 C 68.4995 -3.00317 -0.15174 0
M  V30 761 C 70.0475 -3.12201 -0.223553 0
M  V30 762 C 70.5225 -4.57913 -0.0892295 0
M  V30 763 N 72.0135 -4.6297 -0.145808 0
M  V30 764 C 72.7485 -5.73362 -0.0658459 0
M  V30 765 N 72.2445 -6.92769 0.0659282 0
M  V30 766 N 74.0375 -5.6197 -0.12075 0
M  V30 767 H 66.1885 -1.89416 0.961014 0
M  V30 768 H 68.4515 -0.871862 0.372237 0
M  V30 769 H 68.1575 -3.42073 0.817254 0
M  V30 770 H 68.0315 -3.65892 -0.916692 0
M  V30 771 H 70.4185 -2.70349 -1.18301 0
M  V30 772 H 70.4995 -2.49323 0.571994 0
M  V30 773 H 70.1435 -5.00448 0.866867 0
M  V30 774 H 70.0735 -5.18786 -0.903802 0
M  V30 775 H 72.5645 -3.7709 -0.247286 0
M  V30 776 H 72.8775 -7.72707 0.119905 0
M  V30 777 H 71.2225 -6.94927 0.100885 0
M  V30 778 H 74.4135 -4.67572 -0.222187 0
M  V30 779 H 74.5865 -6.47977 -0.0549735 0
M  V30 780 N 67.9926 0.231505 -1.5589 0
M  V30 781 C 68.9406 1.30649 -1.92441 0
M  V30 782 C 69.9346 1.49037 -0.805254 0
M  V30 783 O 71.1406 1.50329 -0.990007 0
M  V30 784 H 67.5156 0.437812 -0.611412 0
M  V30 785 H 69.4866 0.970973 -2.82161 0
M  V30 786 C 68.2356 2.65179 -2.24889 0
M  V30 787 H 67.5586 2.51835 -3.10514 0
M  V30 788 H 68.9986 3.39234 -2.54355 0
M  V30 789 C 67.4576 3.19439 -1.07054 0
M  V30 790 O 67.9876 4.00371 -0.326499 0
M  V30 791 N 66.1936 2.77675 -0.85703 0
M  V30 792 H 65.7406 2.11969 -1.46379 0
M  V30 793 H 65.6986 3.14321 -0.0703223 0
M  V30 794 N 69.4707 1.49531 0.497807 0
M  V30 795 C 70.4007 1.6935 1.60757 0
M  V30 796 C 71.3817 0.542218 1.61227 0
M  V30 797 O 72.5667 0.778417 1.77917 0
M  V30 798 C 69.6967 1.76298 2.99226 0
M  V30 799 C 68.6507 2.91248 3.13622 0
M  V30 800 C 67.9767 2.83312 4.53474 0
M  V30 801 C 69.2767 4.3214 2.93346 0
M  V30 802 H 70.9707 2.62263 1.44425 0
M  V30 803 H 68.5167 1.26208 0.693367 0
M  V30 804 H 70.4697 1.88749 3.76765 0
M  V30 805 H 69.1937 0.799871 3.16654 0
M  V30 806 H 67.8527 2.78404 2.38509 0
M  V30 807 H 67.5007 1.84902 4.67782 0
M  V30 808 H 67.2007 3.60465 4.64046 0
M  V30 809 H 68.7247 2.97775 5.33069 0
M  V30 810 H 70.1387 4.45649 3.60652 0
M  V30 811 H 68.5357 5.1054 3.15387 0
M  V30 812 H 69.6057 4.46363 1.89441 0
M  V30 813 N 70.9488 -0.749086 1.3866 0
M  V30 814 C 71.8808 -1.87273 1.32142 0
M  V30 815 C 72.8938 -1.61127 0.232787 0
M  V30 816 O 74.0828 -1.71623 0.49069 0
M  V30 817 C 71.1828 -3.23005 1.02571 0
M  V30 818 C 70.3558 -3.7662 2.22433 0
M  V30 819 C 69.4148 -4.90879 1.89537 0
M  V30 820 O 68.4408 -5.05276 2.62078 0
M  V30 821 N 69.6428 -5.74198 0.853031 0
M  V30 822 H 72.4078 -1.93373 2.28969 0
M  V30 823 H 69.9688 -0.929216 1.32579 0
M  V30 824 H 71.9608 -3.96992 0.786085 0
M  V30 825 H 70.5308 -3.12262 0.145249 0
M  V30 826 H 69.7508 -2.94147 2.62434 0
M  V30 827 H 71.0388 -4.09173 3.02415 0
M  V30 828 H 70.4368 -5.6514 0.25155 0
M  V30 829 H 68.9938 -6.48313 0.67329 0
M  V30 830 N 72.4269 -1.23603 -0.977757 0
M  V30 831 C 73.8429 -0.999251 -1.24447 0
M  V30 832 C 74.0429 0.298053 -1.99283 0
M  V30 833 O 73.0989 1.01681 -2.31122 0
M  V30 834 C 74.4119 -2.20784 -2.04144 0
M  V30 835 C 75.9599 -2.25303 -2.17273 0
M  V30 836 C 76.4349 -3.45755 -3.00362 0
M  V30 837 N 77.9259 -3.4601 -3.07947 0
M  V30 838 C 78.6609 -4.35868 -3.72568 0
M  V30 839 N 78.1569 -5.35966 -4.38991 0
M  V30 840 N 79.9499 -4.23605 -3.6948 0
M  V30 841 H 72.1009 -2.06986 -0.476483 0
M  V30 842 H 74.3639 -0.907801 -0.273134 0
M  V30 843 H 74.0699 -3.14945 -1.56533 0
M  V30 844 H 73.9439 -2.22085 -3.04891 0
M  V30 845 H 76.3309 -1.3168 -2.64092 0
M  V30 846 H 76.4119 -2.28033 -1.15907 0
M  V30 847 H 76.0559 -4.39687 -2.5424 0
M  V30 848 H 75.9859 -3.40266 -4.01904 0
M  V30 849 H 78.4769 -2.73588 -2.60688 0
M  V30 850 H 78.7899 -6.00783 -4.86086 0
M  V30 851 H 77.1349 -5.39863 -4.37691 0
M  V30 852 H 80.3259 -3.44647 -3.16759 0
M  V30 853 H 80.4989 -4.93836 -4.1956 0
M  V30 854 N 73.905 1.17692 -1.04816 0
M  V30 855 C 74.815 2.25229 -0.65643 0
M  V30 856 C 75.831 1.71018 0.320761 0
M  V30 857 O 77.007 2.00649 0.173805 0
M  V30 858 C 74.072 3.46684 -0.0332629 0
M  V30 859 C 73.133 4.15997 -1.06042 0
M  V30 860 C 72.366 5.31654 -0.466893 0
M  V30 861 O 72.589 5.65777 0.724758 0
M  V30 862 O 71.523 5.89831 -1.1993 0
M  V30 863 H 75.349 2.61016 -1.55255 0
M  V30 864 H 72.934 1.24919 -0.81949 0
M  V30 865 H 74.816 4.20234 0.313256 0
M  V30 866 H 73.491 3.12703 0.836566 0
M  V30 867 H 72.398 3.44482 -1.45886 0
M  V30 868 H 73.731 4.53996 -1.90127 0
M  V30 869 N 75.3831 0.828654 1.34056 0
M  V30 870 C 76.6321 0.415828 1.97367 0
M  V30 871 C 76.9451 -1.02796 1.6641 0
M  V30 872 O 78.1511 -1.54497 2.23255 0
M  V30 873 C 76.6071 0.692601 3.53173 0
M  V30 874 C 76.2151 2.15038 3.93017 0
M  V30 875 C 77.9591 0.346222 4.23086 0
M  V30 876 C 75.8661 2.37174 5.41758 0
M  V30 877 H 74.7961 0.151755 0.738571 0
M  V30 878 H 77.4471 1.01581 1.52819 0
M  V30 879 H 75.8291 0.0223764 3.95994 0
M  V30 880 H 77.0031 2.86024 3.61285 0
M  V30 881 H 75.3181 2.45875 3.36057 0
M  V30 882 H 77.9151 0.48937 5.32456 0
M  V30 883 H 78.2581 -0.709842 4.10204 0
M  V30 884 H 78.7911 0.971258 3.85761 0
M  V30 885 H 75.5301 3.41308 5.59633 0
M  V30 886 H 75.0501 1.70738 5.74986 0
M  V30 887 H 76.7291 2.19818 6.08514 0
M  V30 888 N 76.8612 -1.46375 0.584142 0
M  V30 889 C 77.7712 -2.34115 -0.150728 0
M  V30 890 C 78.7872 -1.49838 -0.884567 0
M  V30 891 O 79.9632 -1.82704 -0.847429 0
M  V30 892 C 77.0282 -3.2705 -1.15062 0
M  V30 893 C 76.0892 -4.27228 -0.421293 0
M  V30 894 C 75.3222 -5.15722 -1.37355 0
M  V30 895 O 75.5452 -5.07176 -2.61014 0
M  V30 896 O 74.4792 -5.95383 -0.883355 0
M  V30 897 H 78.3052 -2.98309 0.569708 0
M  V30 898 H 75.8902 -1.45373 0.344535 0
M  V30 899 H 77.7722 -3.84381 -1.72712 0
M  V30 900 H 76.4472 -2.65451 -1.8525 0
M  V30 901 H 75.3542 -3.7358 0.197085 0
M  V30 902 H 76.6872 -4.91616 0.239641 0
M  V30 903 N 78.3393 -0.321999 -1.54275 0
M  V30 904 C 79.5883 0.281931 -1.9972 0
M  V30 905 C 79.9013 1.53369 -1.21397 0
M  V30 906 O 81.1073 2.21352 -1.57211 0
M  V30 907 C 79.5633 0.5529 -3.55628 0
M  V30 908 C 79.1713 -0.681721 -4.42783 0
M  V30 909 C 80.9153 1.11687 -4.09544 0
M  V30 910 C 78.8223 -0.382742 -5.9016 0
M  V30 911 H 77.7523 0.109124 -0.746062 0
M  V30 912 H 80.4033 -0.43398 -1.78294 0
M  V30 913 H 78.7853 1.32896 -3.73035 0
M  V30 914 H 79.9593 -1.45723 -4.37151 0
M  V30 915 H 78.2743 -1.1658 -3.99748 0
M  V30 916 H 80.8713 1.35515 -5.17242 0
M  V30 917 H 81.2143 2.06575 -3.61431 0
M  V30 918 H 81.7473 0.402032 -3.95763 0
M  V30 919 H 78.4863 -1.30076 -6.42464 0
M  V30 920 H 78.0063 0.355094 -5.98748 0
M  V30 921 H 79.6853 0.00800157 -6.47 0
M  V30 922 N 79.8174 1.5752 -0.0501392 0
M  V30 923 C 80.7504 2.07026 0.959962 0
M  V30 924 C 81.7284 0.970539 1.30458 0
M  V30 925 O 82.9124 1.2424 1.41763 0
M  V30 926 C 80.0394 2.5099 2.27424 0
M  V30 927 C 79.0854 3.72188 2.08275 0
M  V30 928 S 79.9184 5.17888 1.36207 0
M  V30 929 C 81.0744 5.65165 2.6896 0
M  V30 930 H 81.3074 2.9238 0.538631 0
M  V30 931 H 78.8404 1.53547 0.162099 0
M  V30 932 H 80.7984 2.76982 3.02971 0
M  V30 933 H 79.4594 1.65944 2.66686 0
M  V30 934 H 78.6524 4.00866 3.05487 0
M  V30 935 H 78.2544 3.46457 1.40868 0
M  V30 936 H 80.5464 5.70687 3.65133 0
M  V30 937 H 81.4894 6.64394 2.4492 0
M  V30 938 H 81.8974 4.9289 2.75172 0
M  V30 939 N 81.2955 -0.223234 1.56011 0
M  V30 940 C 82.7115 -0.572856 1.48965 0
M  V30 941 C 82.9115 -1.87225 0.74492 0
M  V30 942 O 81.9675 -2.50899 0.283896 0
M  V30 943 C 83.2805 -0.653646 2.9351 0
M  V30 944 C 84.8285 -0.744386 3.0402 0
M  V30 945 C 85.3035 -0.856535 4.49919 0
M  V30 946 N 86.7945 -0.9208 4.53955 0
M  V30 947 C 87.5295 -1.02726 5.64123 0
M  V30 948 N 87.0255 -1.09777 6.84047 0
M  V30 949 N 88.8185 -1.06226 5.51971 0
M  V30 950 H 80.9695 0.629462 2.02858 0
M  V30 951 H 83.2325 0.220621 0.921971 0
M  V30 952 H 82.9385 0.231518 3.50937 0
M  V30 953 H 82.8125 -1.51781 3.45315 0
M  V30 954 H 85.1995 -1.61999 2.46658 0
M  V30 955 H 85.2805 0.14541 2.55386 0
M  V30 956 H 84.9245 0.0146069 5.07898 0
M  V30 957 H 84.8545 -1.76172 4.96257 0
M  V30 958 H 87.3455 -0.876694 3.6759 0
M  V30 959 H 87.6585 -1.17872 7.63758 0
M  V30 960 H 86.0035 -1.06693 6.86762 0
M  V30 961 H 89.1945 -1.00382 4.5721 0
M  V30 962 H 89.3675 -1.14177 6.37862 0
M  V30 963 N 82.7736 -1.49793 -0.48987 0
M  V30 964 C 84.0216 -1.59525 -1.24081 0
M  V30 965 C 84.3426 -0.288953 -1.92847 0
M  V30 966 O 83.6126 0.692436 -1.83254 0
M  V30 967 H 82.1926 -0.587796 -0.460983 0
M  V30 968 H 84.8546 -1.86477 -0.566778 0
M  V30 969 H 83.9506 -2.39696 -1.99881 0
M  V30 970 N 84.2517 0.741722 -1.39055 0
M  V30 971 C 85.1817 1.869 -1.39966 0
M  V30 972 C 86.1627 1.6804 -0.26392 0
M  V30 973 O 87.3477 1.88458 -0.468755 0
M  V30 974 C 84.4777 3.24572 -1.23574 0
M  V30 975 C 83.4317 3.58056 -2.34477 0
M  V30 976 C 82.7577 4.94593 -2.0318 0
M  V30 977 C 84.0577 3.61716 -3.76774 0
M  V30 978 H 85.7517 1.86395 -2.34302 0
M  V30 979 H 83.2977 0.895361 -1.1278 0
M  V30 980 H 85.2507 4.031 -1.22834 0
M  V30 981 H 83.9747 3.25587 -0.257045 0
M  V30 982 H 82.6337 2.81854 -2.34423 0
M  V30 983 H 82.2817 4.92181 -1.03765 0
M  V30 984 H 81.9817 5.17964 -2.77465 0
M  V30 985 H 83.5057 5.75486 -2.04079 0
M  V30 986 H 84.9197 4.30335 -3.78794 0
M  V30 987 H 83.3167 3.96603 -4.50362 0
M  V30 988 H 84.3867 2.61672 -4.08235 0
M  V30 989 N 85.7298 1.2412 0.971189 0
M  V30 990 C 87.1458 1.00584 1.23916 0
M  V30 991 C 87.3458 -0.287481 1.99439 0
M  V30 992 O 86.4018 -1.00454 2.31658 0
M  V30 993 C 87.7148 2.21864 2.0297 0
M  V30 994 C 89.2628 2.26452 2.16076 0
M  V30 995 C 89.7378 3.47343 2.98524 0
M  V30 996 N 91.2288 3.47639 3.06107 0
M  V30 997 C 91.9638 4.37837 3.70251 0
M  V30 998 N 91.4598 5.38286 4.36142 0
M  V30 999 N 93.2528 4.25558 3.67228 0
M  V30 1000 H 85.4038 2.07236 0.465499 0
M  V30 1001 H 87.6668 0.909236 0.268315 0
M  V30 1002 H 87.3728 3.15771 1.54861 0
M  V30 1003 H 87.2468 2.23698 3.03709 0
M  V30 1004 H 89.6338 1.33078 2.6339 0
M  V30 1005 H 89.7148 2.28645 1.14696 0
M  V30 1006 H 89.3588 4.41029 2.51905 0
M  V30 1007 H 89.2888 3.42393 4.00093 0
M  V30 1008 H 91.7798 2.74966 2.59233 0
M  V30 1009 H 92.0928 6.03352 4.82894 0
M  V30 1010 H 90.4378 5.42176 4.34822 0
M  V30 1011 H 93.6288 3.46322 3.14927 0
M  V30 1012 H 93.8018 4.96054 4.16935 0
M  V30 1013 N 87.2079 -1.17134 1.05439 0
M  V30 1014 C 88.1579 -2.1919 0.627675 0
M  V30 1015 C 89.1419 -1.57328 -0.337147 0
M  V30 1016 O 90.3339 -1.76329 -0.153976 0
M  V30 1017 C 87.4629 -3.43299 0.00651435 0
M  V30 1018 C 86.5489 -4.12255 0.995312 0
M  V30 1019 N 86.9399 -4.56997 2.16765 0
M  V30 1020 C 85.2379 -4.38316 0.824336 0
M  V30 1021 C 85.9389 -5.10239 2.7934 0
M  V30 1022 N 84.9149 -5.02595 2.07122 0
M  V30 1023 H 88.7169 -2.5149 1.52086 0
M  V30 1024 H 86.2309 -1.33491 0.924868 0
M  V30 1025 H 88.2279 -4.15693 -0.316965 0
M  V30 1026 H 86.8879 -3.1249 -0.882033 0
M  V30 1027 H 87.8989 -4.51006 2.54587 0
M  V30 1028 H 84.5759 -4.17498 -0.0129526 0
M  V30 1029 H 85.9659 -5.54961 3.78772 0
M  V30 1030 N 88.686 -0.835752 -1.33615 0
M  V30 1031 C 90.097 -0.487099 -1.80234 0
M  V30 1032 C 90.448 0.993627 -1.69179 0
M  V30 1033 O 89.573 1.77403 -1.23924 0
M  V30 1034 C 90.168 -0.877385 -3.27242 0
M  V30 1035 C 88.727 -0.580915 -3.7189 0
M  V30 1036 C 87.874 -1.0874 -2.5509 0
M  V30 1037 H 90.825 -1.02474 -1.2118 0
M  V30 1038 H 90.846 -0.186195 -3.80044 0
M  V30 1039 H 90.358 -1.95512 -3.35256 0
M  V30 1040 H 88.459 0.486881 -3.69405 0
M  V30 1041 H 88.572 -1.13396 -4.65487 0
M  V30 1042 H 86.936 -0.508392 -2.49575 0
M  V30 1043 H 87.719 -2.17184 -2.65868 0
M  V30 1044 N 90.1641 1.46063 -0.591896 0
M  V30 1045 C 91.1121 2.32124 0.148739 0
M  V30 1046 C 92.1061 1.45035 0.875286 0
M  V30 1047 O 93.3121 1.61609 0.792632 0
M  V30 1048 H 89.6871 0.749024 0.066832 0
M  V30 1049 H 91.6581 2.92392 -0.595783 0
M  V30 1050 C 90.4071 3.28373 1.1431 0
M  V30 1051 H 89.7301 3.95371 0.59346 0
M  V30 1052 H 91.1701 3.91352 1.63155 0
M  V30 1053 C 89.6291 2.54393 2.20875 0
M  V30 1054 O 90.1591 2.31373 3.28374 0
M  V30 1055 N 88.3651 2.14797 1.95731 0
M  V30 1056 H 87.9121 2.33719 1.08319 0
M  V30 1057 H 87.8701 1.65619 2.67241 0
M  V30 1058 N 91.6422 0.330177 1.54103 0
M  V30 1059 C 92.8912 -0.271336 1.99867 0
M  V30 1060 C 93.2042 -1.52723 1.22209 0
M  V30 1061 O 94.4102 -2.20515 1.58383 0
M  V30 1062 C 92.8662 -0.534032 3.55916 0
M  V30 1063 C 92.4742 0.705193 4.42415 0
M  V30 1064 C 94.2182 -1.09514 4.1013 0
M  V30 1065 C 92.1252 0.414035 5.89949 0
M  V30 1066 H 91.0552 -0.105166 0.74663 0
M  V30 1067 H 93.7062 0.443429 1.78062 0
M  V30 1068 H 92.0882 -1.30915 3.73734 0
M  V30 1069 H 93.2622 1.4804 4.36372 0
M  V30 1070 H 91.5772 1.18698 3.99124 0
M  V30 1071 H 94.1742 -1.3277 5.17954 0
M  V30 1072 H 94.5172 -2.04656 3.62521 0
M  V30 1073 H 95.0502 -0.381038 3.95971 0
M  V30 1074 H 91.7892 1.33481 6.41766 0
M  V30 1075 H 91.3092 -0.323336 5.98928 0
M  V30 1076 H 92.9882 0.0263105 6.46995 0
M  V30 1077 N 93.1203 -1.57491 0.0584922 0
M  V30 1078 C 94.3663 -1.93264 -0.614558 0
M  V30 1079 C 94.6993 -0.937717 -1.7006 0
M  V30 1080 O 93.9743 0.0351652 -1.94468 0
M  V30 1081 C 94.2573 -3.3938 -1.20386 0
M  V30 1082 C 94.1103 -4.49625 -0.125375 0
M  V30 1083 C 95.4293 -3.86039 -2.11334 0
M  V30 1084 H 92.5483 -0.702791 -0.221933 0
M  V30 1085 H 95.1903 -1.8961 0.12175 0
M  V30 1086 H 93.3403 -3.42626 -1.83139 0
M  V30 1087 H 95.0123 -4.58506 0.506971 0
M  V30 1088 H 93.2553 -4.30354 0.545672 0
M  V30 1089 H 93.9263 -5.48967 -0.577861 0
M  V30 1090 H 96.4023 -3.84716 -1.58534 0
M  V30 1091 H 95.2783 -4.88914 -2.49507 0
M  V30 1092 H 95.5393 -3.23215 -3.01636 0
M  V30 1093 N 94.5984 0.214957 -1.56127 0
M  V30 1094 C 95.5484 1.27006 -1.8935 0
M  V30 1095 C 96.5324 1.41969 -0.757202 0
M  V30 1096 O 97.7244 1.44673 -1.01973 0
M  V30 1097 C 94.8534 2.61911 -2.2194 0
M  V30 1098 C 93.9394 2.50822 -3.41978 0
M  V30 1099 N 94.3304 2.09391 -4.60423 0
M  V30 1100 C 92.6284 2.81765 -3.45723 0
M  V30 1101 C 93.3294 2.09712 -5.42582 0
M  V30 1102 N 92.3054 2.50454 -4.82466 0
M  V30 1103 H 96.1074 0.940734 -2.78437 0
M  V30 1104 H 93.6214 0.423492 -1.56781 0
M  V30 1105 H 95.6184 3.38096 -2.43919 0
M  V30 1106 H 94.2784 2.95684 -1.34169 0
M  V30 1107 H 95.2894 1.80416 -4.85459 0
M  V30 1108 H 91.9664 3.19865 -2.68314 0
M  V30 1109 H 93.3564 1.79748 -6.4741 0
M  V30 1110 N 96.0765 1.50051 0.48192 0
M  V30 1111 C 97.0095 1.62749 1.59963 0
M  V30 1112 C 97.9875 0.475903 1.5548 0
M  V30 1113 O 99.1715 0.693986 1.7526 0
M  V30 1114 C 96.2985 1.60008 2.98522 0
M  V30 1115 C 95.3445 2.80596 3.21198 0
M  V30 1116 S 96.1775 4.42038 3.02262 0
M  V30 1117 C 97.3335 4.41973 4.43182 0
M  V30 1118 H 97.5665 2.57296 1.4895 0
M  V30 1119 H 95.0995 1.39179 0.668477 0
M  V30 1120 H 97.0575 1.59112 3.78409 0
M  V30 1121 H 95.7185 0.667153 3.06933 0
M  V30 1122 H 94.9115 2.74952 4.22395 0
M  V30 1123 H 94.5135 2.79003 2.49065 0
M  V30 1124 H 96.8055 4.14868 5.35622 0
M  V30 1125 H 97.7485 5.43512 4.53873 0
M  V30 1126 H 98.1565 3.71812 4.24755 0
M  V30 1127 N 97.5546 -0.734337 1.39446 0
M  V30 1128 C 98.4846 -1.86155 1.40955 0
M  V30 1129 C 99.4656 -1.67898 0.272827 0
M  V30 1130 O 100.651 -1.88207 0.478743 0
M  V30 1131 C 97.7806 -3.23912 1.25294 0
M  V30 1132 C 96.7346 -3.56808 2.36373 0
M  V30 1133 C 96.0606 -4.93508 2.058 0
M  V30 1134 C 97.3606 -3.59713 3.78687 0
M  V30 1135 H 99.0546 -1.8515 2.35287 0
M  V30 1136 H 96.6006 -0.889367 1.13253 0
M  V30 1137 H 98.5536 -4.02443 1.2497 0
M  V30 1138 H 97.2776 -3.25446 0.274308 0
M  V30 1139 H 95.9366 -2.80606 2.35914 0
M  V30 1140 H 95.5846 -4.91623 1.06374 0
M  V30 1141 H 95.2846 -5.16486 2.80208 0
M  V30 1142 H 96.8086 -5.74396 2.07128 0
M  V30 1143 H 98.2226 -4.2832 3.81071 0
M  V30 1144 H 96.6196 -3.94209 4.52459 0
M  V30 1145 H 97.6896 -2.59504 4.09617 0
M  V30 1146 N 99.0327 -1.24633 -0.964593 0
M  V30 1147 C 100.31 -0.995809 -1.68354 0
M  V30 1148 C 100.69 0.480964 -2.05548 0
M  V30 1149 O 100.038 1.45599 -1.76105 0
M  V30 1150 C 100.248 -1.92177 -2.91323 0
M  V30 1151 C 101.596 -2.19446 -3.63495 0
M  V30 1152 O 102.62 -1.89855 -3.01386 0
M  V30 1153 O 101.479 -2.69714 -4.75307 0
M  V30 1154 H 98.5727 -0.376854 -0.736146 0
M  V30 1155 H 101.119 -1.35745 -1.0184 0
M  V30 1156 H 99.8907 -2.91938 -2.60553 0
M  V30 1157 H 99.5137 -1.56349 -3.65569 0
M  V30 1158 N 100.511 1.16574 -1.06058 0
M  V30 1159 C 101.736 1.91493 -0.796562 0
M  V30 1160 C 102.161 1.76773 0.642868 0
M  V30 1161 O 101.519 1.09142 1.44768 0
M  V30 1162 C 101.567 3.40293 -1.19303 0
M  V30 1163 O 100.671 4.11074 -0.330394 0
M  V30 1164 H 100.012 0.596678 -0.291326 0
M  V30 1165 H 102.542 1.47708 -1.41575 0
M  V30 1166 H 102.552 3.91057 -1.16356 0
M  V30 1167 H 101.227 3.50326 -2.24153 0
M  V30 1168 H 99.8038 3.70513 -0.421225 0
M  V30 1169 N 101.989 0.842826 1.3317 0
M  V30 1170 C 103.236 0.440447 1.97652 0
M  V30 1171 C 103.564 -1.00123 1.6675 0
M  V30 1172 O 102.819 -1.7155 0.941761 0
M  V30 1173 C 103.118 0.612607 3.52111 0
M  V30 1174 C 102.784 2.02297 4.02972 0
M  V30 1175 C 101.446 2.40874 4.16573 0
M  V30 1176 C 103.798 2.94402 4.30089 0
M  V30 1177 C 101.126 3.70852 4.54627 0
M  V30 1178 C 103.478 4.23865 4.69597 0
M  V30 1179 C 102.142 4.62392 4.81404 0
M  V30 1180 H 101.412 0.161171 0.72326 0
M  V30 1181 H 104.059 1.07061 1.58777 0
M  V30 1182 H 102.364 -0.100849 3.9167 0
M  V30 1183 H 104.061 0.2815 4.00011 0
M  V30 1184 H 100.651 1.71338 3.92863 0
M  V30 1185 H 104.835 2.65835 4.19101 0
M  V30 1186 H 100.091 4.00501 4.61962 0
M  V30 1187 H 104.265 4.95306 4.89536 0
M  V30 1188 H 101.892 5.63154 5.10648 0
M  V30 1189 N 103.467 -1.45747 0.599634 0
M  V30 1190 C 104.377 -2.34262 -0.125888 0
M  V30 1191 C 105.393 -1.50768 -0.868625 0
M  V30 1192 O 106.569 -1.83592 -0.828003 0
M  V30 1193 C 103.634 -3.28252 -1.11587 0
M  V30 1194 C 102.695 -4.27651 -0.375956 0
M  V30 1195 C 101.928 -5.1715 -1.31877 0
M  V30 1196 O 102.151 -5.09916 -2.55621 0
M  V30 1197 O 101.085 -5.96286 -0.820157 0
M  V30 1198 H 104.911 -2.97688 0.601315 0
M  V30 1199 H 102.496 -1.44999 0.359934 0
M  V30 1200 H 104.378 -3.86191 -1.68626 0
M  V30 1201 H 103.053 -2.67401 -1.82424 0
M  V30 1202 H 101.96 -3.7335 0.236698 0
M  V30 1203 H 103.293 -4.91334 0.29177 0
M  V30 1204 N 104.945 -0.338344 -1.53925 0
M  V30 1205 C 106.173 0.261298 -2.05243 0
M  V30 1206 C 106.588 1.44625 -1.21363 0
M  V30 1207 O 105.945 1.80811 -0.247736 0
M  V30 1208 C 105.996 0.681412 -3.5502 0
M  V30 1209 O 105.717 -0.456414 -4.35716 0
M  V30 1210 C 107.218 1.34232 -4.22489 0
M  V30 1211 H 104.438 0.0513685 -0.669031 0
M  V30 1212 H 106.982 -0.488822 -1.98572 0
M  V30 1213 H 105.137 1.38148 -3.61931 0
M  V30 1214 H 105.551 -0.122564 -5.24357 0
M  V30 1215 H 107.025 1.58708 -5.28693 0
M  V30 1216 H 107.502 2.29426 -3.74514 0
M  V30 1217 H 108.108 0.684424 -4.19757 0
M  V30 1218 N 106.423 1.57458 -0.0668435 0
M  V30 1219 C 107.7 1.8469 0.644132 0
M  V30 1220 C 108.08 0.958343 1.88093 0
M  V30 1221 O 107.428 0.0233579 2.28488 0
M  V30 1222 C 107.638 3.34767 0.986509 0
M  V30 1223 C 108.986 4.02159 1.36212 0
M  V30 1224 O 110.01 3.39484 1.07839 0
M  V30 1225 O 108.869 5.12694 1.89227 0
M  V30 1226 H 105.963 0.762816 0.319437 0
M  V30 1227 H 108.509 1.6942 -0.0973986 0
M  V30 1228 H 107.281 3.91151 0.107883 0
M  V30 1229 H 106.904 3.55281 1.78497 0
M  V30 1230 N 107.901 -0.206675 1.56239 0
M  V30 1231 C 108.848 -1.25617 1.93621 0
M  V30 1232 C 109.818 -1.45824 0.795274 0
M  V30 1233 O 111.003 -1.59148 1.05245 0
M  V30 1234 C 108.143 -2.59839 2.27107 0
M  V30 1235 C 107.256 -2.47308 3.54207 0
M  V30 1236 C 106.391 -3.74155 3.7707 0
M  V30 1237 C 105.43 -3.56407 4.97635 0
M  V30 1238 N 104.567 -4.75238 5.1681 0
M  V30 1239 H 109.407 -0.930383 2.83104 0
M  V30 1240 H 106.944 -0.448065 1.4011 0
M  V30 1241 H 108.902 -3.38021 2.44535 0
M  V30 1242 H 107.532 -2.90485 1.40778 0
M  V30 1243 H 106.584 -1.60483 3.4489 0
M  V30 1244 H 107.896 -2.30122 4.42544 0
M  V30 1245 H 107.05 -4.60778 3.94675 0
M  V30 1246 H 105.789 -3.94282 2.87042 0
M  V30 1247 H 104.794 -2.68168 4.79964 0
M  V30 1248 H 106.019 -3.37736 5.89161 0
M  V30 1249 H 103.965 -4.95651 4.29728 0
M  V30 1250 H 103.882 -4.60835 5.99306 0
M  V30 1251 H 105.15 -5.63246 5.38864 0
M  V30 1252 N 109.379 -1.50304 -0.473955 0
M  V30 1253 C 110.289 -1.7174 -1.5982 0
M  V30 1254 C 111.305 -0.600457 -1.63311 0
M  V30 1255 O 112.481 -0.878441 -1.81233 0
M  V30 1256 C 109.546 -1.80427 -2.96052 0
M  V30 1257 C 108.607 -3.04148 -3.02972 0
M  V30 1258 C 107.84 -3.12411 -4.32706 0
M  V30 1259 O 108.063 -2.27542 -5.23049 0
M  V30 1260 O 106.997 -4.05113 -4.45159 0
M  V30 1261 H 110.823 -2.67035 -1.44657 0
M  V30 1262 H 108.408 -1.34366 -0.653148 0
M  V30 1263 H 110.29 -1.88338 -3.7697 0
M  V30 1264 H 108.965 -0.883156 -3.11419 0
M  V30 1265 H 107.872 -3.0174 -2.21142 0
M  V30 1266 H 109.205 -3.95829 -2.92541 0
M  V30 1267 N 110.857 0.726932 -1.39834 0
M  V30 1268 C 112.103 1.48884 -1.377 0
M  V30 1269 C 112.436 1.94185 0.0244852 0
M  V30 1270 O 111.711 1.67361 0.990986 0
M  V30 1271 C 111.994 2.72288 -2.3565 0
M  V30 1272 C 111.847 2.32956 -3.84775 0
M  V30 1273 C 113.166 3.74414 -2.31306 0
M  V30 1274 H 110.285 0.540062 -0.5015 0
M  V30 1275 H 112.927 0.830547 -1.70886 0
M  V30 1276 H 111.077 3.28457 -2.07481 0
M  V30 1277 H 112.749 1.82356 -4.23726 0
M  V30 1278 H 110.992 1.65088 -4.01159 0
M  V30 1279 H 111.663 3.21362 -4.4881 0
M  V30 1280 H 114.139 3.27849 -2.56231 0
M  V30 1281 H 113.015 4.58414 -3.01907 0
M  V30 1282 H 113.276 4.21909 -1.32081 0
M  V30 1283 N 112.336 1.25143 0.95797 0
M  V30 1284 C 113.582 1.09855 1.70469 0
M  V30 1285 C 113.915 -0.360187 1.90831 0
M  V30 1286 O 113.19 -1.26568 1.47685 0
M  V30 1287 C 113.473 1.8497 3.08963 0
M  V30 1288 C 113.326 3.38652 2.96032 0
M  V30 1289 C 114.645 1.63016 4.08795 0
M  V30 1290 H 111.764 0.400465 0.618706 0
M  V30 1291 H 114.406 1.53933 1.11376 0
M  V30 1292 H 112.556 1.47505 3.59409 0
M  V30 1293 H 114.228 3.85772 2.52938 0
M  V30 1294 H 112.471 3.66534 2.32025 0
M  V30 1295 H 113.142 3.8642 3.94187 0
M  V30 1296 H 115.618 1.95625 3.67247 0
M  V30 1297 H 114.494 2.18015 5.03747 0
M  V30 1298 H 114.755 0.570692 4.38401 0
M  V30 1299 N 113.814 -1.1601 1.06675 0
M  V30 1300 C 115.06 -1.86909 0.786945 0
M  V30 1301 C 115.393 -1.81717 -0.685018 0
M  V30 1302 O 114.668 -1.23551 -1.50218 0
M  V30 1303 C 114.951 -3.36313 1.28707 0
M  V30 1304 C 114.804 -3.50175 2.82308 0
M  V30 1305 C 116.123 -4.3084 0.898071 0
M  V30 1306 H 113.242 -0.678677 0.287343 0
M  V30 1307 H 115.884 -1.36336 1.32334 0
M  V30 1308 H 114.034 -3.79513 0.830768 0
M  V30 1309 H 115.706 -3.15886 3.36175 0
M  V30 1310 H 113.949 -2.91959 3.20847 0
M  V30 1311 H 114.62 -4.55116 3.12368 0
M  V30 1312 H 117.096 -3.95561 1.29114 0
M  V30 1313 H 115.972 -5.33876 1.27543 0
M  V30 1314 H 116.233 -4.41662 -0.196651 0
M  V30 1315 N 115.292 -0.849877 -1.32721 0
M  V30 1316 C 116.538 -0.451591 -1.97708 0
M  V30 1317 C 116.871 0.989175 -1.6712 0
M  V30 1318 O 116.146 1.69334 -0.956891 0
M  V30 1319 C 116.429 -0.685598 -3.53513 0
M  V30 1320 C 116.282 -2.17444 -3.93749 0
M  V30 1321 C 117.601 -0.138874 -4.39881 0
M  V30 1322 H 114.72 -0.16555 -0.718166 0
M  V30 1323 H 117.362 -1.06742 -1.57182 0
M  V30 1324 H 115.512 -0.161416 -3.88165 0
M  V30 1325 H 117.184 -2.76433 -3.693 0
M  V30 1326 H 115.427 -2.65476 -3.43081 0
M  V30 1327 H 116.098 -2.28888 -5.02309 0
M  V30 1328 H 118.574 -0.587068 -4.11938 0
M  V30 1329 H 117.45 -0.332213 -5.47894 0
M  V30 1330 H 117.711 0.95806 -4.31594 0
M  V30 1331 N 116.77 1.45427 -0.607355 0
M  V30 1332 C 117.998 2.06614 -0.108814 0
M  V30 1333 C 118.413 1.45204 1.2067 0
M  V30 1334 O 117.77 0.566132 1.73497 0
M  V30 1335 C 117.821 3.61481 0.0375347 0
M  V30 1336 O 117.542 4.20598 -1.22593 0
M  V30 1337 C 119.043 4.39652 0.567561 0
M  V30 1338 H 116.263 0.66747 -0.0687351 0
M  V30 1339 H 118.807 1.86675 -0.835022 0
M  V30 1340 H 116.962 3.80762 0.714068 0
M  V30 1341 H 117.376 5.1377 -1.05547 0
M  V30 1342 H 118.85 5.48518 0.61905 0
M  V30 1343 H 119.327 4.09417 1.58978 0
M  V30 1344 H 119.933 4.25234 -0.0749202 0
M  V30 1345 N 118.248 0.346503 1.53744 0
M  V30 1346 C 119.525 -0.304532 1.93215 0
M  V30 1347 C 119.905 -1.67993 1.27834 0
M  V30 1348 O 119.253 -2.24411 0.430352 0
M  V30 1349 C 119.463 -0.373852 3.46992 0
M  V30 1350 C 120.811 -0.62329 4.2 0
M  V30 1351 O 121.835 -0.455847 3.53271 0
M  V30 1352 O 120.694 -0.947879 5.38217 0
M  V30 1353 H 117.788 -0.178318 0.807547 0
M  V30 1354 H 120.334 0.397895 1.64969 0
M  V30 1355 H 119.106 0.591224 3.86808 0
M  V30 1356 H 118.729 -1.12294 3.81413 0
M  V30 1357 N 119.726 -1.57421 0.075193 0
M  V30 1358 C 120.956 -1.97659 -0.601203 0
M  V30 1359 C 121.364 -0.952427 -1.63479 0
M  V30 1360 O 120.707 0.0688241 -1.83571 0
M  V30 1361 C 120.769 -3.34218 -1.32434 0
M  V30 1362 C 120.433 -4.5484 -0.443826 0
M  V30 1363 C 121.43 -5.19034 0.299969 0
M  V30 1364 C 119.115 -5.00952 -0.367709 0
M  V30 1365 C 121.109 -6.27695 1.10807 0
M  V30 1366 C 118.796 -6.09484 0.444058 0
M  V30 1367 C 119.794 -6.72719 1.18061 0
M  V30 1368 O 119.482 -7.79161 1.97898 0
M  V30 1369 H 119.214 -0.65494 -0.167422 0
M  V30 1370 H 121.768 -2.04886 0.145157 0
M  V30 1371 H 119.998 -3.23615 -2.11685 0
M  V30 1372 H 121.687 -3.59038 -1.89331 0
M  V30 1373 H 122.453 -4.84351 0.250776 0
M  V30 1374 H 118.332 -4.51509 -0.930638 0
M  V30 1375 H 121.876 -6.76982 1.68347 0
M  V30 1376 H 117.773 -6.43601 0.494803 0
M  V30 1377 H 118.541 -7.96055 1.90367 0
M  V30 1378 N 121.204 0.198386 -1.56346 0
M  V30 1379 C 122.167 1.22952 -1.93431 0
M  V30 1380 C 123.167 1.38611 -0.815092 0
M  V30 1381 O 124.357 1.36479 -1.08255 0
M  V30 1382 C 121.489 2.59946 -2.20546 0
M  V30 1383 H 122.682 0.912626 -2.85677 0
M  V30 1384 H 120.235 0.43977 -1.49986 0
M  V30 1385 H 120.97 2.96696 -1.30927 0
M  V30 1386 H 120.755 2.49953 -3.02102 0
M  V30 1387 H 122.245 3.3431 -2.50253 0
M  V30 1388 N 122.682 1.50554 0.465978 0
M  V30 1389 C 123.592 1.72585 1.58907 0
M  V30 1390 C 124.608 0.60911 1.6299 0
M  V30 1391 O 125.784 0.88804 1.80765 0
M  V30 1392 C 122.849 1.81995 2.95091 0
M  V30 1393 C 121.91 3.05751 3.01355 0
M  V30 1394 C 121.143 3.14702 4.31043 0
M  V30 1395 O 121.366 2.30313 5.21835 0
M  V30 1396 O 120.3 4.07468 4.43005 0
M  V30 1397 H 124.126 2.67799 1.43239 0
M  V30 1398 H 121.711 1.34711 0.646013 0
M  V30 1399 H 123.593 1.90335 3.75966 0
M  V30 1400 H 122.268 0.899659 3.10947 0
M  V30 1401 H 121.175 3.02908 2.19539 0
M  V30 1402 H 122.508 3.97375 2.90437 0
M  V30 1403 N 124.16 -0.719506 1.40217 0
M  V30 1404 C 125.408 -1.47641 1.3801 0
M  V30 1405 C 125.729 -1.94992 -0.018145 0
M  V30 1406 O 124.999 -1.70073 -0.972207 0
M  V30 1407 H 123.579 -0.547744 0.507923 0
M  V30 1408 H 126.241 -0.853187 1.75233 0
M  V30 1409 H 125.337 -2.35112 2.05253 0
M  V30 1410 N 125.638 -1.25649 -0.95132 0
M  V30 1411 C 126.548 -1.08073 -2.08224 0
M  V30 1412 C 127.564 -0.0169666 -1.73992 0
M  V30 1413 O 128.74 -0.218593 -2.0021 0
M  V30 1414 C 125.805 -0.704922 -3.39458 0
M  V30 1415 C 124.866 -1.84699 -3.87537 0
M  V30 1416 C 124.099 -1.48902 -5.12508 0
M  V30 1417 O 124.322 -0.386156 -5.69091 0
M  V30 1418 O 123.256 -2.32033 -5.55378 0
M  V30 1419 H 127.082 -2.02924 -2.25954 0
M  V30 1420 H 124.667 -1.04618 -1.06656 0
M  V30 1421 H 126.549 -0.507609 -4.18332 0
M  V30 1422 H 125.224 0.214291 -3.2299 0
M  V30 1423 H 124.131 -2.09919 -3.09653 0
M  V30 1424 H 125.464 -2.74557 -4.08509 0
M  V30 1425 N 127.117 1.15442 -1.07289 0
M  V30 1426 C 128.047 2.22312 -0.714107 0
M  V30 1427 C 129.028 1.67467 0.298155 0
M  V30 1428 O 130.213 1.93445 0.171048 0
M  V30 1429 C 127.343 3.47124 -0.110448 0
M  V30 1430 C 126.297 4.14926 -1.04979 0
M  V30 1431 C 125.623 5.33807 -0.308924 0
M  V30 1432 C 126.923 4.64762 -2.38314 0
M  V30 1433 H 128.617 2.5258 -1.6076 0
M  V30 1434 H 126.163 1.21404 -0.77441 0
M  V30 1435 H 128.116 4.21124 0.152482 0
M  V30 1436 H 126.84 3.16187 0.81812 0
M  V30 1437 H 125.499 3.42866 -1.29764 0
M  V30 1438 H 125.147 4.99126 0.623084 0
M  V30 1439 H 124.847 5.80113 -0.935036 0
M  V30 1440 H 126.371 6.10576 -0.0537771 0
M  V30 1441 H 127.785 5.30292 -2.1786 0
M  V30 1442 H 126.182 5.21728 -2.96514 0
M  V30 1443 H 127.252 3.80434 -3.00663 0
M  V30 1444 N 128.595 0.856903 1.32268 0
M  V30 1445 C 129.842 0.461386 1.97174 0
M  V30 1446 C 130.17 -0.983491 1.67803 0
M  V30 1447 O 129.425 -1.70541 0.959903 0
M  V30 1448 C 129.724 0.649919 3.51441 0
M  V30 1449 C 129.39 2.0656 4.00804 0
M  V30 1450 C 128.052 2.45279 4.13995 0
M  V30 1451 C 130.404 2.98947 4.26943 0
M  V30 1452 C 127.732 3.75653 4.50668 0
M  V30 1453 C 130.084 4.28822 4.65075 0
M  V30 1454 C 128.748 4.67472 4.76472 0
M  V30 1455 H 128.018 0.168833 0.72151 0
M  V30 1456 H 130.665 1.08739 1.57633 0
M  V30 1457 H 128.97 -0.0593018 3.91755 0
M  V30 1458 H 130.667 0.32391 3.9969 0
M  V30 1459 H 127.257 1.75495 3.91024 0
M  V30 1460 H 131.441 2.70265 4.16258 0
M  V30 1461 H 126.697 4.05379 4.57688 0
M  V30 1462 H 130.871 5.0047 4.84255 0
M  V30 1463 H 128.498 5.68539 5.04646 0
M  V30 1464 N 130.073 -1.45103 0.615059 0
M  V30 1465 C 131.005 -2.28786 -0.13762 0
M  V30 1466 C 132.018 -1.40376 -0.824525 0
M  V30 1467 O 133.207 -1.64681 -0.688662 0
M  V30 1468 C 130.307 -3.16322 -1.21628 0
M  V30 1469 C 129.48 -4.33054 -0.615039 0
M  V30 1470 C 128.539 -5.01743 -1.58556 0
M  V30 1471 O 127.565 -5.58293 -1.10895 0
M  V30 1472 N 128.767 -5.01714 -2.91998 0
M  V30 1473 H 131.532 -2.94025 0.580483 0
M  V30 1474 H 129.093 -1.55373 0.45507 0
M  V30 1475 H 131.085 -3.59139 -1.86552 0
M  V30 1476 H 129.655 -2.52943 -1.83681 0
M  V30 1477 H 128.875 -3.93627 0.21245 0
M  V30 1478 H 130.163 -5.08431 -0.193704 0
M  V30 1479 H 129.561 -4.57075 -3.33316 0
M  V30 1480 H 128.118 -5.48371 -3.52325 0
M  V30 1481 N 131.551 -0.354651 -1.53558 0
M  V30 1482 C 132.8 0.239504 -2.00273 0
M  V30 1483 C 133.113 1.50759 -1.24623 0
M  V30 1484 O 134.319 2.17968 -1.61871 0
M  V30 1485 C 132.775 0.477341 -3.5672 0
M  V30 1486 C 132.383 -0.775488 -4.41237 0
M  V30 1487 C 134.127 1.02975 -4.11821 0
M  V30 1488 C 132.034 -0.507838 -5.89216 0
M  V30 1489 H 130.964 0.0932743 -0.748208 0
M  V30 1490 H 133.615 -0.471701 -1.77334 0
M  V30 1491 H 131.997 1.24953 -3.7577 0
M  V30 1492 H 133.171 -1.54963 -4.33962 0
M  V30 1493 H 131.486 -1.25033 -3.97185 0
M  V30 1494 H 134.083 1.24513 -5.2 0
M  V30 1495 H 134.426 1.98862 -3.65731 0
M  V30 1496 H 134.959 0.317994 -3.96527 0
M  V30 1497 H 131.698 -1.43674 -6.39561 0
M  V30 1498 H 131.218 0.228011 -5.99366 0
M  V30 1499 H 132.897 -0.129238 -6.46871 0
M  V30 1500 N 133.029 1.57378 -0.0835403 0
M  V30 1501 C 133.959 2.1641 0.87686 0
M  V30 1502 C 134.94 1.09429 1.30228 0
M  V30 1503 O 136.125 1.37516 1.37124 0
M  V30 1504 C 133.255 2.73517 2.14022 0
M  V30 1505 C 132.209 3.85769 1.85381 0
M  V30 1506 C 131.535 4.29529 3.18448 0
M  V30 1507 C 132.835 5.09486 1.14984 0
M  V30 1508 H 134.529 2.96914 0.385059 0
M  V30 1509 H 132.075 1.42823 0.18377 0
M  V30 1510 H 134.028 3.13463 2.81636 0
M  V30 1511 H 132.752 1.90252 2.65465 0
M  V30 1512 H 131.411 3.46345 1.20169 0
M  V30 1513 H 131.059 3.43169 3.67755 0
M  V30 1514 H 130.759 5.05204 3.00071 0
M  V30 1515 H 132.283 4.72099 3.8724 0
M  V30 1516 H 133.697 5.46674 1.72687 0
M  V30 1517 H 132.094 5.90515 1.06826 0
M  V30 1518 H 133.164 4.84724 0.130749 0
M  V30 1519 N 134.507 -0.190092 1.56449 0
M  V30 1520 C 135.417 -1.25591 1.98152 0
M  V30 1521 C 136.433 -1.49519 0.889944 0
M  V30 1522 O 137.609 -1.62036 1.19609 0
M  V30 1523 C 134.674 -2.57916 2.3169 0
M  V30 1524 C 133.735 -2.42015 3.5458 0
M  V30 1525 C 132.968 -3.6803 3.8651 0
M  V30 1526 O 133.191 -4.72413 3.1966 0
M  V30 1527 O 132.125 -3.6326 4.79923 0
M  V30 1528 H 135.951 -0.931988 2.89046 0
M  V30 1529 H 133.536 -0.395488 1.4407 0
M  V30 1530 H 135.418 -3.36008 2.54316 0
M  V30 1531 H 134.093 -2.89925 1.43963 0
M  V30 1532 H 133 -1.62017 3.37196 0
M  V30 1533 H 134.333 -2.14937 4.4279 0
M  V30 1534 N 135.985 -1.50799 -0.457987 0
M  V30 1535 C 137.262 -1.52968 -1.21902 0
M  V30 1536 C 137.642 -0.281906 -2.09209 0
M  V30 1537 O 136.99 0.734076 -2.16388 0
M  V30 1538 C 137.2 -2.8326 -2.03875 0
M  V30 1539 C 138.548 -3.34425 -2.6162 0
M  V30 1540 O 139.572 -2.8467 -2.14106 0
M  V30 1541 O 138.431 -4.21188 -3.48228 0
M  V30 1542 H 135.525 -0.614129 -0.553873 0
M  V30 1543 H 138.071 -1.63098 -0.468739 0
M  V30 1544 H 136.843 -3.65543 -1.39621 0
M  V30 1545 H 136.466 -2.76195 -2.8601 0
M  V30 1546 N 137.463 0.71206 -1.40597 0
M  V30 1547 C 138.74 1.46536 -1.29563 0
M  V30 1548 C 139.12 2.10931 0.0844217 0
M  V30 1549 O 138.468 2.00418 1.0975 0
M  V30 1550 C 138.678 2.49821 -2.43701 0
M  V30 1551 C 140.026 3.15551 -2.841 0
M  V30 1552 O 141.05 2.60142 -2.4332 0
M  V30 1553 O 139.909 4.15867 -3.54566 0
M  V30 1554 H 137.003 0.651801 -0.509004 0
M  V30 1555 H 139.549 0.743935 -1.52524 0
M  V30 1556 H 138.321 2.00778 -3.35863 0
M  V30 1557 H 137.944 3.29495 -2.22528 0
M  V30 1558 N 138.941 1.26152 0.944643 0
M  V30 1559 C 140.189 1.11271 1.6871 0
M  V30 1560 C 140.51 -0.345166 1.91921 0
M  V30 1561 O 139.78 -1.24387 1.51343 0
M  V30 1562 H 138.36 0.408783 0.625224 0
M  V30 1563 H 141.022 1.58427 1.1352 0
M  V30 1564 H 140.118 1.62879 2.66227 0
M  V30 1565 N 140.419 -1.14872 1.07899 0
M  V30 1566 C 141.366 -2.19791 0.704319 0
M  V30 1567 C 142.336 -1.63238 -0.306987 0
M  V30 1568 O 143.521 -1.8983 -0.192171 0
M  V30 1569 C 140.661 -3.44911 0.114244 0
M  V30 1570 C 139.774 -4.15637 1.1777 0
M  V30 1571 C 138.909 -5.28324 0.552037 0
M  V30 1572 C 137.948 -5.90875 1.59789 0
M  V30 1573 N 137.085 -6.95022 0.994404 0
M  V30 1574 H 141.925 -2.5119 1.60336 0
M  V30 1575 H 139.462 -1.23356 0.801352 0
M  V30 1576 H 141.42 -4.16477 -0.245544 0
M  V30 1577 H 140.05 -3.14011 -0.74813 0
M  V30 1578 H 139.102 -3.42512 1.65499 0
M  V30 1579 H 140.414 -4.5823 1.97046 0
M  V30 1580 H 139.568 -6.06538 0.1402 0
M  V30 1581 H 138.307 -4.86939 -0.272431 0
M  V30 1582 H 137.312 -5.11369 2.01945 0
M  V30 1583 H 138.537 -6.34337 2.42474 0
M  V30 1584 H 136.483 -6.55722 0.190939 0
M  V30 1585 H 136.4 -7.36073 1.72432 0
M  V30 1586 H 137.668 -7.77123 0.608253 0
M  V30 1587 N 141.898 -0.863906 -1.31812 0
M  V30 1588 C 142.828 -0.330843 -2.31144 0
M  V30 1589 C 143.809 0.575005 -1.60087 0
M  V30 1590 O 144.994 0.493304 -1.8783 0
M  V30 1591 C 142.124 0.47374 -3.44054 0
M  V30 1592 C 141.078 -0.338481 -4.26659 0
M  V30 1593 C 140.404 0.591412 -5.31419 0
M  V30 1594 C 141.704 -1.56926 -4.98168 0
M  V30 1595 H 143.398 -1.16086 -2.75979 0
M  V30 1596 H 140.944 -0.559657 -1.32679 0
M  V30 1597 H 142.897 0.857143 -4.12591 0
M  V30 1598 H 141.621 1.33721 -2.9797 0
M  V30 1599 H 140.28 -0.703754 -3.59782 0
M  V30 1600 H 139.928 1.45199 -4.81587 0
M  V30 1601 H 139.628 0.0519022 -5.87577 0
M  V30 1602 H 141.152 0.97179 -6.02817 0
M  V30 1603 H 142.566 -1.25764 -5.59336 0
M  V30 1604 H 140.963 -2.04739 -5.64094 0
M  V30 1605 H 142.033 -2.32544 -4.25501 0
M  V30 1606 N 143.376 1.44774 -0.622745 0
M  V30 1607 C 144.787 1.85546 -0.207226 0
M  V30 1608 C 145.138 1.52093 1.23944 0
M  V30 1609 O 144.263 0.95492 1.94191 0
M  V30 1610 C 144.858 3.36781 -0.369313 0
M  V30 1611 C 143.417 3.76399 -0.00836847 0
M  V30 1612 C 142.564 2.68664 -0.686651 0
M  V30 1613 H 145.515 1.3536 -0.828454 0
M  V30 1614 H 145.536 3.78453 0.394162 0
M  V30 1615 H 145.048 3.61098 -1.42231 0
M  V30 1616 H 143.149 3.57698 1.04322 0
M  V30 1617 H 143.262 4.7732 -0.412584 0
M  V30 1618 H 141.626 2.54404 -0.122777 0
M  V30 1619 H 142.409 2.95815 -1.74208 0
M  V30 1620 N 144.854 0.36279 1.53368 0
M  V30 1621 C 145.764 -0.492994 2.29362 0
M  V30 1622 C 146.78 -1.09507 1.35219 0
M  V30 1623 O 147.956 -1.10662 1.68273 0
M  V30 1624 C 145.021 -1.61855 3.066 0
M  V30 1625 C 144.082 -1.04429 4.16405 0
M  V30 1626 C 143.315 -2.11621 4.89951 0
M  V30 1627 O 143.538 -3.32684 4.63333 0
M  V30 1628 O 142.472 -1.74835 5.75948 0
M  V30 1629 H 146.298 0.125331 3.03441 0
M  V30 1630 H 143.883 0.127253 1.48857 0
M  V30 1631 H 145.765 -2.27302 3.54841 0
M  V30 1632 H 144.44 -2.22233 2.3536 0
M  V30 1633 H 143.347 -0.353819 3.72423 0
M  V30 1634 H 144.68 -0.485113 4.89804 0
M  V30 1635 N 146.332 -1.57332 0.0918853 0
M  V30 1636 C 147.609 -1.85691 -0.614668 0
M  V30 1637 C 147.989 -0.988146 -1.86545 0
M  V30 1638 O 147.337 -0.0597055 -2.28422 0
M  V30 1639 C 147.547 -3.36294 -0.933126 0
M  V30 1640 C 148.895 -4.04275 -1.29796 0
M  V30 1641 O 149.919 -3.41157 -1.02424 0
M  V30 1642 O 148.778 -5.1564 -1.81047 0
M  V30 1643 H 145.872 -0.767802 -0.307261 0
M  V30 1644 H 148.418 -1.69244 0.12434 0
M  V30 1645 H 147.19 -3.91273 -0.0456404 0
M  V30 1646 H 146.813 -3.58076 -1.72822 0
M  V30 1647 N 147.81 0.181792 -1.56548 0
M  V30 1648 C 148.742 1.24956 -1.92142 0
M  V30 1649 C 149.755 1.41022 -0.813422 0
M  V30 1650 O 150.944 1.41212 -1.09186 0
M  V30 1651 C 148.044 2.61981 -2.14987 0
M  V30 1652 C 147.217 2.6735 -3.46183 0
M  V30 1653 C 146.276 3.85664 -3.5798 0
M  V30 1654 O 145.302 3.72148 -4.30691 0
M  V30 1655 N 146.504 5.01683 -2.92053 0
M  V30 1656 H 149.269 0.947329 -2.84334 0
M  V30 1657 H 146.83 0.371629 -1.57577 0
M  V30 1658 H 148.822 3.3958 -2.20154 0
M  V30 1659 H 147.392 2.84637 -1.2923 0
M  V30 1660 H 146.612 1.75925 -3.52766 0
M  V30 1661 H 147.9 2.67939 -4.32534 0
M  V30 1662 H 147.298 5.15564 -2.32832 0
M  V30 1663 H 145.855 5.77181 -3.0283 0
M  V30 1664 N 149.288 1.51039 0.449983 0
M  V30 1665 C 150.534 1.63322 1.20223 0
M  V30 1666 C 150.867 0.34241 1.91158 0
M  V30 1667 O 150.142 -0.657344 1.83055 0
M  V30 1668 C 150.425 2.82801 2.22925 0
M  V30 1669 C 150.278 4.21823 1.56157 0
M  V30 1670 C 151.597 2.97807 3.24035 0
M  V30 1671 H 148.716 0.594407 0.435718 0
M  V30 1672 H 151.358 1.83489 0.493136 0
M  V30 1673 H 149.508 2.65738 2.834 0
M  V30 1674 H 151.18 4.50526 0.991162 0
M  V30 1675 H 149.423 4.25105 0.864172 0
M  V30 1676 H 150.094 5.01391 2.30891 0
M  V30 1677 H 152.57 3.13497 2.73603 0
M  V30 1678 H 151.446 3.82992 3.93202 0
M  V30 1679 H 151.707 2.09328 3.89402 0
M  V30 1680 N 150.766 -0.704594 1.40972 0
M  V30 1681 C 151.698 -1.82974 1.38033 0
M  V30 1682 C 152.711 -1.60305 0.283931 0
M  V30 1683 O 153.9 -1.69975 0.545042 0
M  V30 1684 C 151 -3.19578 1.12795 0
M  V30 1685 C 150.173 -3.69352 2.34302 0
M  V30 1686 C 149.232 -4.84601 2.05058 0
M  V30 1687 O 148.258 -4.96682 2.7802 0
M  V30 1688 N 149.46 -5.71194 1.03528 0
M  V30 1689 H 152.225 -1.85991 2.35005 0
M  V30 1690 H 149.786 -0.886567 1.35468 0
M  V30 1691 H 151.778 -3.9429 0.911987 0
M  V30 1692 H 150.348 -3.11642 0.24452 0
M  V30 1693 H 149.568 -2.85649 2.71659 0
M  V30 1694 H 150.856 -3.99345 3.1528 0
M  V30 1695 H 150.254 -5.64054 0.431217 0
M  V30 1696 H 148.811 -6.45843 0.879205 0
M  V30 1697 N 152.244 -1.26651 -0.937939 0
M  V30 1698 C 153.207 -1.08546 -2.01867 0
M  V30 1699 C 154.207 -0.0327327 -1.60767 0
M  V30 1700 O 155.397 -0.276427 -1.71993 0
M  V30 1701 C 152.529 -0.651711 -3.34613 0
M  V30 1702 H 153.722 -2.04502 -2.1936 0
M  V30 1703 H 151.275 -1.09294 -1.11734 0
M  V30 1704 H 152.01 0.309696 -3.22818 0
M  V30 1705 H 151.795 -1.41189 -3.65798 0
M  V30 1706 H 153.285 -0.546973 -4.14002 0
M  V30 1707 N 153.722 1.14298 -1.08507 0
M  V30 1708 C 154.971 1.84708 -0.810305 0
M  V30 1709 C 155.284 1.83903 0.666271 0
M  V30 1710 O 156.49 2.50112 1.05624 0
M  V30 1711 C 154.946 3.31572 -1.39957 0
M  V30 1712 C 154.554 3.40791 -2.90801 0
M  V30 1713 C 156.298 4.07087 -1.20334 0
M  V30 1714 C 154.205 4.81872 -3.4286 0
M  V30 1715 H 153.135 0.691985 -0.299454 0
M  V30 1716 H 155.786 1.28841 -1.30661 0
M  V30 1717 H 154.168 3.87183 -0.830976 0
M  V30 1718 H 155.342 2.95225 -3.53806 0
M  V30 1719 H 153.657 2.78732 -3.0935 0
M  V30 1720 H 156.254 5.11225 -1.56693 0
M  V30 1721 H 156.597 4.16054 -0.143237 0
M  V30 1722 H 157.13 3.57779 -1.73893 0
M  V30 1723 H 153.869 4.78094 -4.48449 0
M  V30 1724 H 153.389 5.27972 -2.84615 0
M  V30 1725 H 155.068 5.50765 -3.39509 0
M  V30 1726 N 155.201 0.870884 1.31352 0
M  V30 1727 C 156.164 0.332243 2.26779 0
M  V30 1728 C 157.164 -0.517302 1.52252 0
M  V30 1729 O 158.354 -0.326477 1.71113 0
M  V30 1730 C 155.486 -0.528066 3.36785 0
M  V30 1731 H 156.679 1.17469 2.75937 0
M  V30 1732 H 154.232 0.64655 1.423 0
M  V30 1733 H 154.967 -1.39167 2.92922 0
M  V30 1734 H 154.752 0.0802582 3.92018 0
M  V30 1735 H 156.242 -0.897179 4.07849 0
M  V30 1736 N 156.679 -1.44442 0.630414 0
M  V30 1737 C 157.642 -2.29107 -0.0652523 0
M  V30 1738 C 158.642 -1.41002 -0.772995 0
M  V30 1739 O 159.832 -1.62881 -0.617692 0
M  V30 1740 C 156.964 -3.22564 -1.10296 0
M  V30 1741 H 158.157 -2.92103 0.679401 0
M  V30 1742 H 155.71 -1.51343 0.390517 0
M  V30 1743 H 156.445 -2.64416 -1.87762 0
M  V30 1744 H 156.23 -3.87491 -0.59941 0
M  V30 1745 H 157.72 -3.86167 -1.5895 0
M  V30 1746 N 158.157 -0.370918 -1.53173 0
M  V30 1747 C 159.089 0.507823 -2.23503 0
M  V30 1748 C 160.102 1.04182 -1.251 0
M  V30 1749 O 161.291 0.947286 -1.5129 0
M  V30 1750 C 158.391 1.71447 -2.92334 0
M  V30 1751 C 157.564 1.31105 -4.17289 0
M  V30 1752 C 156.623 2.38035 -4.69282 0
M  V30 1753 O 155.649 2.00204 -5.32829 0
M  V30 1754 N 156.851 3.69697 -4.47554 0
M  V30 1755 H 159.616 -0.0946382 -2.99551 0
M  V30 1756 H 157.177 -0.196358 -1.60705 0
M  V30 1757 H 159.169 2.42469 -3.24023 0
M  V30 1758 H 157.739 2.22368 -2.19707 0
M  V30 1759 H 156.959 0.430462 -3.91843 0
M  V30 1760 H 158.247 1.0179 -4.98514 0
M  V30 1761 H 157.645 4.03205 -3.9679 0
M  V30 1762 H 156.202 4.36807 -4.8378 0
M  V30 1763 N 159.635 1.57281 -0.100228 0
M  V30 1764 C 160.565 2.17328 0.853857 0
M  V30 1765 C 161.546 1.10804 1.2906 0
M  V30 1766 O 162.731 1.38963 1.35657 0
M  V30 1767 C 159.861 2.75772 2.11109 0
M  V30 1768 C 158.815 3.87713 1.81279 0
M  V30 1769 C 158.141 4.32882 3.13874 0
M  V30 1770 C 159.441 5.10677 1.09574 0
M  V30 1771 H 161.135 2.97305 0.353545 0
M  V30 1772 H 158.681 1.43009 0.168612 0
M  V30 1773 H 160.634 3.16433 2.78296 0
M  V30 1774 H 159.358 1.93057 2.63432 0
M  V30 1775 H 158.017 3.476 1.16489 0
M  V30 1776 H 157.665 3.47051 3.64095 0
M  V30 1777 H 157.365 5.08358 2.94696 0
M  V30 1778 H 158.889 4.7618 3.82211 0
M  V30 1779 H 160.303 5.48474 1.66879 0
M  V30 1780 H 158.7 5.91615 1.00557 0
M  V30 1781 H 159.77 4.84835 0.0793299 0
M  V30 1782 N 161.113 -0.173488 1.56642 0
M  V30 1783 C 162.359 -0.891784 1.8214 0
M  V30 1784 C 162.692 -1.8199 0.677736 0
M  V30 1785 O 161.967 -1.91842 -0.320446 0
M  V30 1786 C 162.25 -1.68933 3.18015 0
M  V30 1787 C 162.103 -0.784487 4.42906 0
M  V30 1788 C 163.422 -2.65748 3.50808 0
M  V30 1789 H 160.541 -0.322761 0.662567 0
M  V30 1790 H 163.183 -0.158095 1.89341 0
M  V30 1791 H 161.333 -2.31482 3.12007 0
M  V30 1792 H 163.005 -0.172046 4.60979 0
M  V30 1793 H 161.248 -0.0924117 4.33702 0
M  V30 1794 H 161.919 -1.37799 5.34524 0
M  V30 1795 H 164.395 -2.13327 3.57255 0
M  V30 1796 H 163.271 -3.18619 4.4696 0
M  V30 1797 H 163.532 -3.45842 2.75401 0
M  V30 1798 N 162.591 -1.51276 -0.441967 0
M  V30 1799 C 163.816 -1.67799 -1.21895 0
M  V30 1800 C 164.241 -0.372864 -1.84367 0
M  V30 1801 O 163.599 0.666501 -1.68604 0
M  V30 1802 C 163.647 -2.79199 -2.28211 0
M  V30 1803 O 162.751 -2.42479 -3.33583 0
M  V30 1804 H 162.092 -0.559649 -0.357336 0
M  V30 1805 H 164.622 -1.97815 -0.522522 0
M  V30 1806 H 164.632 -3.03146 -2.73069 0
M  V30 1807 H 163.307 -3.73906 -1.82118 0
M  V30 1808 H 161.884 -2.29087 -2.94234 0
M  V30 1809 N 164.069 0.697108 -1.41344 0
M  V30 1810 C 165.032 1.79281 -1.42797 0
M  V30 1811 C 166.032 1.57607 -0.318837 0
M  V30 1812 O 167.222 1.64309 -0.578642 0
M  V30 1813 C 164.354 3.17632 -1.23785 0
M  V30 1814 H 165.547 1.79385 -2.40335 0
M  V30 1815 H 163.1 0.904582 -1.27464 0
M  V30 1816 H 163.835 3.23167 -0.270814 0
M  V30 1817 H 163.62 3.34765 -2.04144 0
M  V30 1818 H 165.11 3.97617 -1.27633 0
M  V30 1819 N 165.547 1.27147 0.931209 0
M  V30 1820 C 166.477 1.12081 2.04842 0
M  V30 1821 C 167.458 0.0232364 1.70084 0
M  V30 1822 O 168.643 0.197085 1.93197 0
M  V30 1823 C 165.773 0.76354 3.38803 0
M  V30 1824 C 164.727 1.81396 3.87659 0
M  V30 1825 C 164.053 1.31075 5.18385 0
M  V30 1826 C 165.353 3.21739 4.11438 0
M  V30 1827 H 167.047 2.05537 2.17703 0
M  V30 1828 H 164.593 0.989603 1.04608 0
M  V30 1829 H 166.546 0.644982 4.16435 0
M  V30 1830 H 165.27 -0.206727 3.25945 0
M  V30 1831 H 163.929 1.92136 3.12217 0
M  V30 1832 H 163.577 0.330037 5.01916 0
M  V30 1833 H 163.277 2.013 5.52044 0
M  V30 1834 H 164.801 1.20506 5.98591 0
M  V30 1835 H 166.215 3.14019 4.79651 0
M  V30 1836 H 164.612 3.89644 4.56397 0
M  V30 1837 H 165.682 3.67054 3.16859 0
M  V30 1838 N 167.025 -1.13721 1.09112 0
M  V30 1839 C 168.255 -1.88499 0.845671 0
M  V30 1840 C 168.663 -1.79218 -0.606432 0
M  V30 1841 O 168.006 -1.1544 -1.42896 0
M  V30 1842 C 168.068 -3.38954 1.19793 0
M  V30 1843 C 167.732 -3.72018 2.65428 0
M  V30 1844 C 168.729 -3.7153 3.63677 0
M  V30 1845 C 166.414 -4.01775 3.01467 0
M  V30 1846 C 168.408 -4.00336 4.95994 0
M  V30 1847 C 166.095 -4.30243 4.33975 0
M  V30 1848 C 167.093 -4.29508 5.31048 0
M  V30 1849 O 166.781 -4.5728 6.61173 0
M  V30 1850 H 166.513 -0.603702 0.304171 0
M  V30 1851 H 169.067 -1.44903 1.45576 0
M  V30 1852 H 167.297 -3.83039 0.530871 0
M  V30 1853 H 168.986 -3.95052 0.932146 0
M  V30 1854 H 169.752 -3.4862 3.37179 0
M  V30 1855 H 165.631 -4.01496 2.26544 0
M  V30 1856 H 169.175 -3.99678 5.71755 0
M  V30 1857 H 165.072 -4.52625 4.60219 0
M  V30 1858 H 165.84 -4.74964 6.66597 0
M  V30 1859 N 168.503 -0.877838 -1.30888 0
M  V30 1860 C 169.733 -0.506678 -2.00291 0
M  V30 1861 C 170.141 0.907449 -1.66018 0
M  V30 1862 O 169.484 1.60719 -0.88967 0
M  V30 1863 C 169.546 -0.59323 -3.54572 0
M  V30 1864 C 169.21 -1.97038 -4.12341 0
M  V30 1865 C 170.207 -2.93889 -4.28865 0
M  V30 1866 C 167.892 -2.27383 -4.47886 0
M  V30 1867 C 169.886 -4.19224 -4.80136 0
M  V30 1868 C 167.573 -3.52965 -4.98857 0
M  V30 1869 C 168.571 -4.48701 -5.14934 0
M  V30 1870 O 168.259 -5.72056 -5.64808 0
M  V30 1871 H 167.991 -0.1951 -0.647234 0
M  V30 1872 H 170.545 -1.18301 -1.6791 0
M  V30 1873 H 168.775 0.140057 -3.86446 0
M  V30 1874 H 170.464 -0.234372 -4.05223 0
M  V30 1875 H 171.23 -2.71756 -4.01714 0
M  V30 1876 H 167.109 -1.53639 -4.34645 0
M  V30 1877 H 170.653 -4.93956 -4.92599 0
M  V30 1878 H 166.55 -3.74939 -5.25443 0
M  V30 1879 H 167.318 -5.74337 -5.83163 0
M  V30 1880 N 169.982 1.44106 -0.638065 0
M  V30 1881 C 170.912 2.33448 0.0494287 0
M  V30 1882 C 171.893 1.48606 0.827672 0
M  V30 1883 O 173.078 1.77308 0.792173 0
M  V30 1884 C 170.208 3.31771 1.02691 0
M  V30 1885 C 169.162 4.26485 0.359823 0
M  V30 1886 C 168.488 5.14729 1.44769 0
M  V30 1887 C 169.788 5.17056 -0.738296 0
M  V30 1888 H 171.482 2.91183 -0.696636 0
M  V30 1889 H 169.028 1.40014 -0.336456 0
M  V30 1890 H 170.981 3.93161 1.51666 0
M  V30 1891 H 169.705 2.7226 1.80395 0
M  V30 1892 H 168.364 3.66437 -0.10934 0
M  V30 1893 H 168.012 4.51566 2.21578 0
M  V30 1894 H 167.712 5.78913 1.00668 0
M  V30 1895 H 169.236 5.78991 1.93911 0
M  V30 1896 H 170.65 5.72342 -0.331354 0
M  V30 1897 H 169.047 5.89879 -1.10286 0
M  V30 1898 H 170.117 4.57652 -1.60258 0
M  V30 1899 N 171.46 0.379036 1.52974 0
M  V30 1900 C 172.41 -0.477772 2.22938 0
M  V30 1901 C 173.394 -1.03792 1.22948 0
M  V30 1902 O 174.586 -0.965725 1.48333 0
M  V30 1903 C 171.715 -1.60994 3.03209 0
M  V30 1904 C 170.801 -1.06203 4.10587 0
M  V30 1905 N 171.192 -0.238214 5.05239 0
M  V30 1906 C 169.49 -1.33554 4.25534 0
M  V30 1907 C 170.191 0.0633235 5.81666 0
M  V30 1908 N 169.167 -0.537901 5.40932 0
M  V30 1909 H 172.969 0.158295 2.93473 0
M  V30 1910 H 170.483 0.187778 1.61311 0
M  V30 1911 H 172.48 -2.23607 3.5186 0
M  V30 1912 H 171.14 -2.24893 2.34207 0
M  V30 1913 H 172.151 0.123695 5.17752 0
M  V30 1914 H 168.828 -1.97632 3.6776 0
M  V30 1915 H 170.218 0.730161 6.67921 0
M  V30 1916 N 172.938 -1.57226 0.108567 0
M  V30 1917 C 174.163 -1.99604 -0.563303 0
M  V30 1918 C 174.588 -0.987563 -1.6009 0
M  V30 1919 O 173.946 0.0421687 -1.81251 0
M  V30 1920 C 173.994 -3.40902 -1.17552 0
M  V30 1921 O 173.098 -3.42896 -2.2912 0
M  V30 1922 H 172.439 -0.648704 -0.1417 0
M  V30 1923 H 174.969 -2.03679 0.193961 0
M  V30 1924 H 174.979 -3.78886 -1.51357 0
M  V30 1925 H 173.654 -4.1382 -0.415445 0
M  V30 1926 H 172.231 -3.1672 -1.96832 0
M  V30 1927 N 174.416 0.165178 -1.56732 0
M  V30 1928 C 175.366 1.20917 -1.93295 0
M  V30 1929 C 176.35 1.39488 -0.801985 0
M  V30 1930 O 177.542 1.41356 -1.06525 0
M  V30 1931 C 174.671 2.54718 -2.3016 0
M  V30 1932 C 173.757 2.39815 -3.49785 0
M  V30 1933 N 174.148 1.94637 -4.66851 0
M  V30 1934 C 172.446 2.70623 -3.54513 0
M  V30 1935 C 173.147 1.92344 -5.4898 0
M  V30 1936 N 172.123 2.34978 -4.9019 0
M  V30 1937 H 175.925 0.851675 -2.81289 0
M  V30 1938 H 173.439 0.373399 -1.58049 0
M  V30 1939 H 175.436 3.30165 -2.54552 0
M  V30 1940 H 174.096 2.91265 -1.43508 0
M  V30 1941 H 175.107 1.6488 -4.90953 0
M  V30 1942 H 171.784 3.11167 -2.78354 0
M  V30 1943 H 173.174 1.5906 -6.52801 0
M  V30 1944 N 175.894 1.51508 0.433938 0
M  V30 1945 C 177.31 1.39759 0.770682 0
M  V30 1946 C 177.51 0.482594 1.95636 0
M  V30 1947 O 176.566 -0.0609691 2.52426 0
M  V30 1948 C 177.879 2.81851 1.04787 0
M  V30 1949 C 179.427 2.91025 1.1521 0
M  V30 1950 C 179.902 4.34032 1.46219 0
M  V30 1951 N 181.393 4.37154 1.53136 0
M  V30 1952 C 182.128 5.4484 1.78709 0
M  V30 1953 N 181.624 6.62682 2.02051 0
M  V30 1954 N 183.417 5.32324 1.80519 0
M  V30 1955 H 175.568 2.09548 -0.346892 0
M  V30 1956 H 177.831 0.943446 -0.0928074 0
M  V30 1957 H 177.537 3.50815 0.249304 0
M  V30 1958 H 177.411 3.21386 1.97461 0
M  V30 1959 H 179.798 2.22257 1.94128 0
M  V30 1960 H 179.879 2.54983 0.204281 0
M  V30 1961 H 179.523 5.03351 0.678274 0
M  V30 1962 H 179.453 4.6759 2.42212 0
M  V30 1963 H 181.944 3.52197 1.36987 0
M  V30 1964 H 182.257 7.40543 2.20943 0
M  V30 1965 H 180.602 6.65791 1.99366 0
M  V30 1966 H 183.793 4.39246 1.61805 0
M  V30 1967 H 183.966 6.16328 2.00111 0
M  V30 1968 N 177.372 -0.689602 1.41712 0
M  V30 1969 C 178.621 -1.44534 1.40686 0
M  V30 1970 C 178.934 -1.95588 0.0213352 0
M  V30 1971 O 180.14 -2.71271 -0.111534 0
M  V30 1972 C 178.596 -2.61387 2.47396 0
M  V30 1973 C 178.204 -2.17094 3.91885 0
M  V30 1974 C 179.948 -3.38986 2.55517 0
M  V30 1975 C 177.855 -3.3094 4.90135 0
M  V30 1976 H 176.785 -0.542925 0.52321 0
M  V30 1977 H 179.436 -0.748054 1.6756 0
M  V30 1978 H 177.818 -3.33412 2.13664 0
M  V30 1979 H 178.992 -1.52318 4.34897 0
M  V30 1980 H 177.307 -1.52473 3.8748 0
M  V30 1981 H 179.904 -4.23747 3.26102 0
M  V30 1982 H 180.247 -3.84578 1.59391 0
M  V30 1983 H 180.78 -2.74021 2.8837 0
M  V30 1984 H 177.519 -2.90355 5.87685 0
M  V30 1985 H 177.039 -3.94546 4.51767 0
M  V30 1986 H 178.718 -3.9663 5.11169 0
M  V30 1987 N 178.85 -1.27639 -0.924453 0
M  V30 1988 C 179.78 -1.13166 -2.04244 0
M  V30 1989 C 180.761 -0.032256 -1.70069 0
M  V30 1990 O 181.946 -0.207328 -1.9309 0
M  V30 1991 C 179.076 -0.781496 -3.38393 0
M  V30 1992 C 178.03 -1.83449 -3.86692 0
M  V30 1993 C 177.356 -1.33822 -5.17683 0
M  V30 1994 C 178.656 -3.23917 -4.09726 0
M  V30 1995 H 180.35 -2.06689 -2.1661 0
M  V30 1996 H 177.896 -0.995136 -1.04082 0
M  V30 1997 H 179.849 -0.667057 -4.16087 0
M  V30 1998 H 178.573 0.189439 -3.2605 0
M  V30 1999 H 177.232 -1.93789 -3.11193 0
M  V30 2000 H 176.88 -0.35665 -5.01734 0
M  V30 2001 H 176.58 -2.04224 -5.50968 0
M  V30 2002 H 178.104 -1.23679 -5.97943 0
M  V30 2003 H 179.518 -3.16559 -4.77978 0
M  V30 2004 H 177.915 -3.92059 -4.54324 0
M  V30 2005 H 178.985 -3.68729 -3.14908 0
M  V30 2006 N 180.328 1.1314 -1.09713 0
M  V30 2007 C 181.278 2.16709 -0.708593 0
M  V30 2008 C 182.262 1.58471 0.278523 0
M  V30 2009 O 183.454 1.76779 0.088427 0
M  V30 2010 C 180.583 3.43039 -0.133923 0
M  V30 2011 C 179.669 4.08277 -1.14763 0
M  V30 2012 N 180.06 4.48637 -2.33577 0
M  V30 2013 C 178.358 4.34954 -0.986446 0
M  V30 2014 C 179.059 4.9952 -2.98085 0
M  V30 2015 N 178.035 4.94561 -2.25632 0
M  V30 2016 H 181.837 2.45672 -1.61315 0
M  V30 2017 H 179.351 1.29967 -0.973775 0
M  V30 2018 H 181.348 4.16583 0.162465 0
M  V30 2019 H 180.008 3.15549 0.765447 0
M  V30 2020 H 181.019 4.41246 -2.7115 0
M  V30 2021 H 177.696 4.17258 -0.142008 0
M  V30 2022 H 179.086 5.40521 -3.99108 0
M  V30 2023 N 181.806 0.884767 1.30421 0
M  V30 2024 C 183.222 0.57874 1.48737 0
M  V30 2025 C 183.422 -0.883567 1.81095 0
M  V30 2026 O 182.478 -1.6648 1.89844 0
M  V30 2027 C 183.791 1.49171 2.61091 0
M  V30 2028 C 185.339 1.49532 2.74971 0
M  V30 2029 C 185.814 2.39421 3.90438 0
M  V30 2030 N 187.305 2.37383 3.97748 0
M  V30 2031 C 188.04 3.03647 4.86401 0
M  V30 2032 N 187.536 3.79136 5.79852 0
M  V30 2033 N 189.329 2.9288 4.79768 0
M  V30 2034 H 181.48 1.83075 1.0769 0
M  V30 2035 H 183.743 0.783637 0.533495 0
M  V30 2036 H 183.449 2.53291 2.44001 0
M  V30 2037 H 183.323 1.20113 3.57565 0
M  V30 2038 H 185.71 0.46163 2.91467 0
M  V30 2039 H 185.791 1.8262 1.79119 0
M  V30 2040 H 185.435 3.42874 3.74699 0
M  V30 2041 H 185.365 2.03649 4.85628 0
M  V30 2042 H 187.856 1.82525 3.30897 0
M  V30 2043 H 188.169 4.26789 6.4426 0
M  V30 2044 H 186.514 3.83243 5.79784 0
M  V30 2045 H 189.705 2.33433 4.05742 0
M  V30 2046 H 189.878 3.448 5.4865 0
M  V30 2047 N 183.284 -1.43765 0.645699 0
M  V30 2048 C 184.561 -1.9541 0.0862963 0
M  V30 2049 C 184.941 -1.58725 -1.39175 0
M  V30 2050 O 184.289 -0.868581 -2.11348 0
M  V30 2051 C 184.499 -3.47488 0.324565 0
M  V30 2052 C 185.847 -4.24001 0.225497 0
M  V30 2053 O 186.871 -3.55274 0.256715 0
M  V30 2054 O 185.73 -5.46313 0.142801 0
M  V30 2055 H 182.824 -0.826882 -0.0139483 0
M  V30 2056 H 185.37 -1.53743 0.718415 0
M  V30 2057 H 184.142 -3.67289 1.3496 0
M  V30 2058 H 183.765 -3.96135 -0.340987 0
M  V30 2059 N 184.763 -0.387143 -1.52771 0
M  V30 2060 C 185.696 0.493123 -2.22808 0
M  V30 2061 C 186.674 1.0658 -1.22798 0
M  V30 2062 O 187.858 1.11785 -1.51777 0
M  V30 2063 C 184.985 1.68238 -2.93962 0
M  V30 2064 C 184.031 1.23515 -4.08223 0
M  V30 2065 S 184.864 0.21848 -5.35054 0
M  V30 2066 C 186.02 1.41357 -6.09729 0
M  V30 2067 H 186.253 -0.101625 -2.97126 0
M  V30 2068 H 183.786 -0.171323 -1.53447 0
M  V30 2069 H 185.744 2.36443 -3.35567 0
M  V30 2070 H 184.405 2.24842 -2.19328 0
M  V30 2071 H 183.598 2.12304 -4.57103 0
M  V30 2072 H 183.2 0.632044 -3.68621 0
M  V30 2073 H 185.492 2.34101 -6.3577 0
M  V30 2074 H 186.435 0.965736 -7.01484 0
M  V30 2075 H 186.843 1.6294 -5.40473 0
M  V30 2076 N 186.241 1.57166 -0.116904 0
M  V30 2077 C 187.188 2.15202 0.83408 0
M  V30 2078 C 188.158 1.07644 1.26499 0
M  V30 2079 O 189.343 1.35541 1.34288 0
M  V30 2080 C 186.483 2.75405 2.07957 0
M  V30 2081 C 185.596 3.97264 1.69721 0
M  V30 2082 C 184.731 4.45561 2.89221 0
M  V30 2083 C 183.77 5.59956 2.47215 0
M  V30 2084 N 182.907 6.03006 3.59622 0
M  V30 2085 H 187.747 2.96141 0.332335 0
M  V30 2086 H 185.284 1.46309 0.152349 0
M  V30 2087 H 187.242 3.08439 2.80929 0
M  V30 2088 H 185.872 1.97159 2.55594 0
M  V30 2089 H 184.924 3.70404 0.866316 0
M  V30 2090 H 186.236 4.80226 1.34849 0
M  V30 2091 H 185.39 4.80493 3.7042 0
M  V30 2092 H 184.129 3.61544 3.27318 0
M  V30 2093 H 183.134 5.2463 1.64448 0
M  V30 2094 H 184.359 6.45738 2.10238 0
M  V30 2095 H 182.305 5.21931 3.97396 0
M  V30 2096 H 182.222 6.80819 3.28667 0
M  V30 2097 H 183.49 6.42576 4.41267 0
M  V30 2098 N 187.719 -0.156864 1.56817 0
M  V30 2099 C 189.13 -0.717916 1.72345 0
M  V30 2100 C 189.481 -1.82124 0.729747 0
M  V30 2101 O 188.606 -2.16141 -0.105781 0
M  V30 2102 C 189.201 -1.30904 3.12489 0
M  V30 2103 C 187.76 -1.81676 3.29653 0
M  V30 2104 C 186.907 -0.701349 2.68284 0
M  V30 2105 H 189.858 0.0686989 1.58551 0
M  V30 2106 H 189.879 -2.17882 3.11942 0
M  V30 2107 H 189.391 -0.505796 3.8479 0
M  V30 2108 H 187.492 -2.64598 2.62333 0
M  V30 2109 H 187.605 -1.95226 4.3752 0
M  V30 2110 H 185.969 -1.12548 2.28484 0
M  V30 2111 H 186.752 0.0902846 3.43181 0
M  V30 2112 N 189.197 -1.51736 -0.425897 0
M  V30 2113 C 190.129 -1.70083 -1.53638 0
M  V30 2114 C 191.142 -0.581349 -1.52066 0
M  V30 2115 O 192.331 -0.856017 -1.56635 0
M  V30 2116 C 189.431 -1.71078 -2.9255 0
M  V30 2117 C 188.604 -2.99795 -3.185 0
M  V30 2118 C 187.663 -2.92825 -4.37196 0
M  V30 2119 O 186.689 -3.66756 -4.35291 0
M  V30 2120 N 187.891 -2.0946 -5.41393 0
M  V30 2121 H 190.656 -2.65882 -1.383 0
M  V30 2122 H 188.217 -1.49765 -0.614988 0
M  V30 2123 H 190.209 -1.63969 -3.69995 0
M  V30 2124 H 188.779 -0.828242 -3.01428 0
M  V30 2125 H 187.999 -3.20684 -2.2925 0
M  V30 2126 H 189.287 -3.84977 -3.32671 0
M  V30 2127 H 188.685 -1.48792 -5.45781 0
M  V30 2128 H 187.242 -2.08221 -6.17647 0
M  V30 2129 N 190.675 0.682077 -1.42076 0
M  V30 2130 C 191.623 1.81707 -1.45208 0
M  V30 2131 C 192.617 1.66183 -0.328591 0
M  V30 2132 O 193.823 1.7288 -0.501264 0
M  V30 2133 H 190.198 0.599014 -0.454628 0
M  V30 2134 H 192.169 1.76183 -2.40836 0
M  V30 2135 C 190.918 3.19816 -1.36428 0
M  V30 2136 H 190.241 3.32385 -2.22171 0
M  V30 2137 H 191.681 3.99272 -1.42681 0
M  V30 2138 C 190.14 3.36809 -0.078191 0
M  V30 2139 O 190.67 3.92124 0.87188 0
M  V30 2140 N 188.876 2.906 0.00229266 0
M  V30 2141 H 188.423 2.45772 -0.771616 0
M  V30 2142 H 188.381 3.02347 0.862179 0
M  V30 2143 N 192.153 1.28127 0.917671 0
M  V30 2144 C 193.402 1.14432 1.66097 0
M  V30 2145 C 193.715 -0.307247 1.93172 0
M  V30 2146 O 194.921 -0.565259 2.65551 0
M  V30 2147 C 193.377 2.00015 2.99202 0
M  V30 2148 C 192.985 3.49889 2.79789 0
M  V30 2149 C 194.729 1.94996 3.77064 0
M  V30 2150 C 192.636 4.27636 4.08511 0
M  V30 2151 H 191.566 0.424662 0.62304 0
M  V30 2152 H 194.217 1.52628 1.01868 0
M  V30 2153 H 192.599 1.54672 3.64544 0
M  V30 2154 H 193.773 4.03162 2.23152 0
M  V30 2155 H 192.088 3.56392 2.15345 0
M  V30 2156 H 194.685 2.50354 4.72469 0
M  V30 2157 H 195.028 0.925819 4.05875 0
M  V30 2158 H 195.561 2.38287 3.18534 0
M  V30 2159 H 192.3 5.30615 3.84874 0
M  V30 2160 H 191.82 3.79137 4.64774 0
M  V30 2161 H 193.499 4.37346 4.76799 0
M  V30 2162 N 193.631 -1.12557 1.10312 0
M  V30 2163 C 194.561 -2.20341 0.772798 0
M  V30 2164 C 195.542 -1.68198 -0.25365 0
M  V30 2165 O 196.727 -1.93831 -0.119699 0
M  V30 2166 C 193.857 -3.46709 0.202443 0
M  V30 2167 C 192.811 -4.11996 1.15943 0
M  V30 2168 C 192.137 -5.328 0.450345 0
M  V30 2169 C 193.437 -4.5828 2.50552 0
M  V30 2170 H 195.131 -2.48229 1.674 0
M  V30 2171 H 192.677 -1.19308 0.806326 0
M  V30 2172 H 194.63 -4.2138 -0.0407752 0
M  V30 2173 H 193.354 -3.18245 -0.734001 0
M  V30 2174 H 192.013 -3.39305 1.38808 0
M  V30 2175 H 191.661 -5.00602 -0.490531 0
M  V30 2176 H 191.361 -5.7743 1.08851 0
M  V30 2177 H 192.885 -6.10219 0.215642 0
M  V30 2178 H 194.299 -5.2433 2.31843 0
M  V30 2179 H 192.696 -5.13683 3.10242 0
M  V30 2180 H 193.766 -3.72329 3.10643 0
M  V30 2181 N 195.109 -0.891671 -1.2995 0
M  V30 2182 C 196.039 -0.379797 -2.30391 0
M  V30 2183 C 197.02 0.540919 -1.6127 0
M  V30 2184 O 198.205 0.453352 -1.88834 0
M  V30 2185 C 195.335 0.400654 -3.44981 0
M  V30 2186 C 194.289 -0.428905 -4.25846 0
M  V30 2187 C 193.615 0.478557 -5.32554 0
M  V30 2188 C 194.915 -1.67458 -4.94727 0
M  V30 2189 H 196.609 -1.21914 -2.73454 0
M  V30 2190 H 194.155 -0.587675 -1.31462 0
M  V30 2191 H 196.108 0.769434 -4.14316 0
M  V30 2192 H 194.832 1.27371 -3.0074 0
M  V30 2193 H 193.491 -0.779911 -3.58208 0
M  V30 2194 H 193.139 1.34951 -4.84559 0
M  V30 2195 H 192.839 -0.0727433 -5.87555 0
M  V30 2196 H 194.363 0.843705 -6.04743 0
M  V30 2197 H 195.777 -1.376 -5.56542 0
M  V30 2198 H 194.174 -2.16659 -5.59624 0
M  V30 2199 H 195.244 -2.41518 -4.20473 0
M  V30 2200 N 196.587 1.43421 -0.653314 0
M  V30 2201 C 197.55 2.29182 0.0287951 0
M  V30 2202 C 198.55 1.42213 0.750465 0
M  V30 2203 O 199.74 1.63843 0.591701 0
M  V30 2204 C 196.872 3.24278 1.05151 0
M  V30 2205 H 198.065 2.90985 -0.725786 0
M  V30 2206 H 195.618 1.50702 -0.414545 0
M  V30 2207 H 196.353 2.6737 1.83532 0
M  V30 2208 H 196.138 3.88396 0.537687 0
M  V30 2209 H 197.628 3.88647 1.52786 0
M  V30 2210 N 198.065 0.39524 1.52563 0
M  V30 2211 C 199.012 -0.437036 2.26624 0
M  V30 2212 C 199.982 -1.05281 1.28472 0
M  V30 2213 O 201.167 -1.07971 1.57311 0
M  V30 2214 C 198.307 -1.55524 3.08069 0
M  V30 2215 C 197.42 -0.961745 4.21158 0
M  V30 2216 C 196.555 -2.05149 4.89987 0
M  V30 2217 C 195.594 -1.4342 5.95061 0
M  V30 2218 N 194.731 -2.46351 6.57462 0
M  V30 2219 H 199.571 0.200976 2.97322 0
M  V30 2220 H 197.108 0.110944 1.46681 0
M  V30 2221 H 199.066 -2.21437 3.53584 0
M  V30 2222 H 197.696 -2.16348 2.3957 0
M  V30 2223 H 196.748 -0.192048 3.79915 0
M  V30 2224 H 198.06 -0.470701 4.96574 0
M  V30 2225 H 197.214 -2.78819 5.38837 0
M  V30 2226 H 195.953 -2.57615 4.14109 0
M  V30 2227 H 194.958 -0.682774 5.45544 0
M  V30 2228 H 196.183 -0.917416 6.72875 0
M  V30 2229 H 194.129 -2.97975 5.8442 0
M  V30 2230 H 194.046 -2.02019 7.28508 0
M  V30 2231 H 195.314 -3.19633 7.10954 0
M  V30 2232 N 199.544 -1.57102 0.125237 0
M  V30 2233 C 200.792 -1.95021 -0.530198 0
M  V30 2234 C 201.113 -1.00982 -1.66816 0
M  V30 2235 O 200.383 -0.0672693 -1.95784 0
M  V30 2236 H 198.963 -0.720046 -0.198853 0
M  V30 2237 H 201.625 -1.93916 0.19564 0
M  V30 2238 H 200.721 -2.98211 -0.920681 0
M  V30 2239 N 201.022 0.148545 -1.56898 0
M  V30 2240 C 202.27 0.859717 -1.82902 0
M  V30 2241 C 202.591 1.81775 -0.70588 0
M  V30 2242 O 201.861 1.93994 0.272586 0
M  V30 2243 H 200.441 0.320469 -0.674766 0
M  V30 2244 H 203.103 0.142918 -1.94375 0
M  V30 2245 H 202.199 1.4229 -2.77777 0
M  V30 2246 N 202.5 1.5196 0.417844 0
M  V30 2247 C 203.748 1.65263 1.16329 0
M  V30 2248 C 204.069 0.380634 1.91249 0
M  V30 2249 O 203.339 -0.604214 1.86349 0
M  V30 2250 H 201.919 0.60912 0.432414 0
M  V30 2251 H 204.581 1.88969 0.477162 0
M  V30 2252 H 203.677 2.4896 1.88217 0
M  V30 2253 N 203.978 -0.674533 1.42435 0
M  V30 2254 C 205.227 -1.43034 1.42212 0
M  V30 2255 C 205.54 -1.95555 0.0420788 0
M  V30 2256 O 206.746 -2.71374 -0.0827558 0
M  V30 2257 C 205.202 -2.58748 2.50155 0
M  V30 2258 C 204.81 -2.12925 3.94166 0
M  V30 2259 C 206.554 -3.36257 2.59098 0
M  V30 2260 C 204.461 -3.25723 4.93618 0
M  V30 2261 H 203.391 -0.537345 0.528939 0
M  V30 2262 H 206.042 -0.73024 1.68344 0
M  V30 2263 H 204.424 -3.31128 2.17188 0
M  V30 2264 H 205.598 -1.47697 4.36488 0
M  V30 2265 H 203.913 -1.48354 3.89076 0
M  V30 2266 H 206.51 -4.20264 3.30578 0
M  V30 2267 H 206.853 -3.82866 1.63461 0
M  V30 2268 H 207.386 -2.70947 2.9126 0
M  V30 2269 H 204.125 -2.84105 5.90732 0
M  V30 2270 H 203.645 -3.89732 4.55926 0
M  V30 2271 H 205.324 -3.91186 5.15347 0
M  V30 2272 N 205.456 -1.28612 -0.910864 0
M  V30 2273 C 206.403 -1.12786 -2.01365 0
M  V30 2274 C 207.373 -0.024201 -1.66082 0
M  V30 2275 O 208.558 -0.189667 -1.89855 0
M  V30 2276 C 205.698 -0.798743 -3.35729 0
M  V30 2277 C 204.811 -1.98173 -3.83864 0
M  V30 2278 C 203.946 -1.59298 -5.06752 0
M  V30 2279 C 202.985 -2.74245 -5.47226 0
M  V30 2280 N 202.122 -2.35842 -6.61304 0
M  V30 2281 H 206.962 -2.07142 -2.14234 0
M  V30 2282 H 204.499 -1.03093 -1.0493 0
M  V30 2283 H 206.457 -0.588662 -4.13026 0
M  V30 2284 H 205.087 0.10789 -3.2262 0
M  V30 2285 H 204.139 -2.30386 -3.02699 0
M  V30 2286 H 205.451 -2.84343 -4.09818 0
M  V30 2287 H 204.605 -1.34513 -5.916 0
M  V30 2288 H 203.344 -0.702618 -4.82612 0
M  V30 2289 H 202.349 -2.99725 -4.60918 0
M  V30 2290 H 203.574 -3.63928 -5.73353 0
M  V30 2291 H 201.52 -1.49279 -6.38789 0
M  V30 2292 H 201.437 -3.15546 -6.86998 0
M  V30 2293 H 202.705 -2.14348 -7.4945 0
M  V30 2294 N 206.934 1.1197 -1.10907 0
M  V30 2295 C 207.864 2.19928 -0.784473 0
M  V30 2296 C 208.845 1.6833 0.244726 0
M  V30 2297 O 210.03 1.93892 0.109418 0
M  V30 2298 C 207.16 3.46597 -0.220827 0
M  V30 2299 C 206.114 4.11376 -1.18127 0
M  V30 2300 C 205.44 5.32554 -0.478594 0
M  V30 2301 C 206.74 4.56945 -2.52979 0
M  V30 2302 H 208.434 2.47337 -1.68715 0
M  V30 2303 H 205.98 1.18879 -0.812642 0
M  V30 2304 H 207.933 4.21396 0.0184278 0
M  V30 2305 H 206.657 3.1863 0.717113 0
M  V30 2306 H 205.316 3.38564 -1.40606 0
M  V30 2307 H 204.964 5.00856 0.463976 0
M  V30 2308 H 204.664 5.76844 -1.11912 0
M  V30 2309 H 206.188 6.10096 -0.248 0
M  V30 2310 H 207.602 5.23093 -2.3462 0
M  V30 2311 H 205.999 5.1203 -3.12962 0
M  V30 2312 H 207.069 3.70676 -3.12614 0
M  V30 2313 N 208.412 0.89855 1.29475 0
M  V30 2314 C 209.652 0.530771 1.97388 0
M  V30 2315 C 210.016 -0.905832 1.69289 0
M  V30 2316 O 211.217 -1.38042 2.30646 0
M  V30 2317 C 209.488 0.81369 3.48014 0
M  V30 2318 S 211.047 0.550048 4.35339 0
M  V30 2319 H 207.865 0.196956 0.683176 0
M  V30 2320 H 210.467 1.16074 1.57312 0
M  V30 2321 H 209.171 1.85749 3.65958 0
M  V30 2322 H 208.702 0.171795 3.93025 0
M  V30 2323 H 210.717 -0.605423 4.92493 0
M  V30 2324 N 209.89 -1.43072 0.660911 0
M  V30 2325 C 211.167 -1.95307 0.107017 0
M  V30 2326 C 211.547 -1.60192 -1.37484 0
M  V30 2327 O 210.895 -0.890949 -2.10415 0
M  V30 2328 C 211.105 -3.47124 0.361402 0
M  V30 2329 C 212.453 -4.23738 0.270455 0
M  V30 2330 O 213.477 -3.54981 0.294382 0
M  V30 2331 O 212.336 -5.46131 0.200737 0
M  V30 2332 H 209.43 -0.826984 -0.00517729 0
M  V30 2333 H 211.976 -1.52972 0.734681 0
M  V30 2334 H 210.748 -3.65837 1.38848 0
M  V30 2335 H 210.371 -3.96475 -0.298953 0
M  V30 2336 N 211.368 -0.403325 -1.52352 0
M  V30 2337 C 212.615 0.174347 -2.01748 0
M  V30 2338 C 212.943 1.45636 -1.2892 0
M  V30 2339 O 212.198 1.9193 -0.382258 0
M  V30 2340 C 212.497 0.474665 -3.54234 0
M  V30 2341 C 212.163 -0.717458 -4.45155 0
M  V30 2342 C 210.825 -1.04447 -4.69728 0
M  V30 2343 C 213.177 -1.51432 -4.98716 0
M  V30 2344 C 210.505 -2.16963 -5.45109 0
M  V30 2345 C 212.857 -2.6302 -5.75329 0
M  V30 2346 C 211.521 -2.96213 -5.98175 0
M  V30 2347 H 210.791 0.0637981 -0.738248 0
M  V30 2348 H 213.438 -0.543553 -1.83624 0
M  V30 2349 H 211.743 1.27406 -3.70506 0
M  V30 2350 H 213.44 0.934496 -3.89959 0
M  V30 2351 H 210.03 -0.452596 -4.26204 0
M  V30 2352 H 214.214 -1.27491 -4.79645 0
M  V30 2353 H 209.47 -2.43034 -5.61021 0
M  V30 2354 H 213.644 -3.25158 -6.15829 0
M  V30 2355 H 211.271 -3.83516 -6.56368 0
M  V30 2356 N 212.846 1.57033 -0.133567 0
M  V30 2357 C 214.094 1.953 0.519848 0
M  V30 2358 C 214.415 1.01866 1.66278 0
M  V30 2359 O 213.685 0.0776513 1.95746 0
M  V30 2360 H 212.265 0.721091 0.195032 0
M  V30 2361 H 214.927 1.93809 -0.205921 0
M  V30 2362 H 214.023 2.98695 0.904854 0
M  V30 2363 N 214.325 -0.140222 1.56975 0
M  V30 2364 C 215.572 -0.851687 1.83719 0
M  V30 2365 C 215.9 -1.80862 0.715485 0
M  V30 2366 O 215.155 -1.93464 -0.294956 0
M  V30 2367 C 215.454 -1.65386 3.16832 0
M  V30 2368 C 215.12 -0.843112 4.42947 0
M  V30 2369 C 213.782 -0.619464 4.77196 0
M  V30 2370 C 216.134 -0.276582 5.20466 0
M  V30 2371 C 213.462 0.181312 5.8642 0
M  V30 2372 C 215.814 0.51127 6.30531 0
M  V30 2373 C 214.478 0.745432 6.63325 0
M  V30 2374 H 213.748 -0.311654 0.672274 0
M  V30 2375 H 216.395 -0.115006 1.91154 0
M  V30 2376 H 214.7 -2.46084 3.04877 0
M  V30 2377 H 216.397 -2.20793 3.34741 0
M  V30 2378 H 212.987 -1.0275 4.16101 0
M  V30 2379 H 217.171 -0.436632 4.94376 0
M  V30 2380 H 212.427 0.372165 6.10266 0
M  V30 2381 H 216.601 0.957354 6.89788 0
M  V30 2382 H 214.228 1.36778 7.47794 0
M  V30 2383 N 215.803 -1.52179 -0.40978 0
M  V30 2384 C 216.766 -1.74853 -1.48186 0
M  V30 2385 C 217.766 -0.618417 -1.48433 0
M  V30 2386 O 218.956 -0.886286 -1.49969 0
M  V30 2387 C 216.088 -1.8303 -2.87598 0
M  V30 2388 H 217.281 -2.70559 -1.29374 0
M  V30 2389 H 214.834 -1.42586 -0.640233 0
M  V30 2390 H 215.569 -0.89236 -3.11781 0
M  V30 2391 H 215.354 -2.65187 -2.88822 0
M  V30 2392 H 216.844 -2.02316 -3.65319 0
M  V30 2393 N 217.281 0.66697 -1.42791 0
M  V30 2394 C 218.697 0.981027 -1.25889 0
M  V30 2395 C 218.897 2.00793 -0.168695 0
M  V30 2396 O 217.953 2.48321 0.45747 0
M  V30 2397 C 219.266 1.47838 -2.61848 0
M  V30 2398 C 220.814 1.59575 -2.69267 0
M  V30 2399 C 221.289 2.12704 -4.05612 0
M  V30 2400 N 222.78 2.20026 -4.07606 0
M  V30 2401 C 223.515 2.62227 -5.09926 0
M  V30 2402 N 223.011 3.03824 -6.22626 0
M  V30 2403 N 224.804 2.62045 -4.97281 0
M  V30 2404 H 216.955 -0.0127891 -2.12396 0
M  V30 2405 H 219.218 0.0568258 -0.946295 0
M  V30 2406 H 218.924 0.798299 -3.4252 0
M  V30 2407 H 218.798 2.45579 -2.86305 0
M  V30 2408 H 221.185 2.26687 -1.88936 0
M  V30 2409 H 221.266 0.60302 -2.48591 0
M  V30 2410 H 220.91 1.46198 -4.86404 0
M  V30 2411 H 220.84 3.12782 -4.23645 0
M  V30 2412 H 223.331 1.90708 -3.2625 0
M  V30 2413 H 223.644 3.34734 -6.96544 0
M  V30 2414 H 221.989 3.01662 -6.26119 0
M  V30 2415 H 225.18 2.28916 -4.08308 0
M  V30 2416 H 225.353 2.94613 -5.77154 0
M  V30 2417 N 218.759 1.29093 0.90403 0
M  V30 2418 C 219.722 1.1386 1.98919 0
M  V30 2419 C 220.722 0.0753457 1.60623 0
M  V30 2420 O 221.912 0.321931 1.71199 0
M  V30 2421 C 219.044 0.740198 3.32767 0
M  V30 2422 H 220.237 2.10246 2.13861 0
M  V30 2423 H 217.79 1.12218 1.08797 0
M  V30 2424 H 218.525 -0.223997 3.23525 0
M  V30 2425 H 218.31 1.50838 3.61926 0
M  V30 2426 H 219.8 0.656546 4.12407 0
M  V30 2427 N 220.237 -1.11381 1.11499 0
M  V30 2428 C 221.17 -2.16621 0.71769 0
M  V30 2429 C 222.148 -1.60058 -0.286413 0
M  V30 2430 O 223.332 -1.87613 -0.182689 0
M  V30 2431 C 220.459 -3.38646 0.0607265 0
M  V30 2432 C 219.505 -4.13874 1.03008 0
M  V30 2433 S 220.338 -4.70731 2.55289 0
M  V30 2434 C 221.494 -5.96079 1.90895 0
M  V30 2435 H 221.727 -2.49987 1.60915 0
M  V30 2436 H 219.26 -1.23015 0.933092 0
M  V30 2437 H 221.218 -4.09313 -0.311965 0
M  V30 2438 H 219.879 -3.03537 -0.807702 0
M  V30 2439 H 219.072 -5.01333 0.517853 0
M  V30 2440 H 218.674 -3.4897 1.34522 0
M  V30 2441 H 220.966 -6.65948 1.24577 0
M  V30 2442 H 221.909 -6.51946 2.76354 0
M  V30 2443 H 222.317 -5.47652 1.36885 0
M  V30 2444 N 221.715 -0.905404 -1.28997 0
M  V30 2445 C 222.94 -0.549175 -1.99997 0
M  V30 2446 C 223.365 0.860276 -1.67275 0
M  V30 2447 O 222.723 1.57355 -0.900502 0
M  V30 2448 C 222.771 -0.755185 -3.52604 0
M  V30 2449 O 221.875 0.189692 -4.11964 0
M  V30 2450 H 221.216 -0.213899 -0.628604 0
M  V30 2451 H 223.746 -1.21856 -1.64354 0
M  V30 2452 H 223.756 -0.662045 -4.02593 0
M  V30 2453 H 222.431 -1.78271 -3.75755 0
M  V30 2454 H 221.008 0.0485257 -3.72868 0
M  V30 2455 N 223.193 1.4272 -0.668489 0
M  V30 2456 C 224.421 2.05966 -0.196348 0
M  V30 2457 C 224.836 1.50191 1.14403 0
M  V30 2458 O 224.193 0.639208 1.7094 0
M  V30 2459 C 224.244 3.61314 -0.115815 0
M  V30 2460 O 223.965 4.1502 -1.40322 0
M  V30 2461 C 225.466 4.41663 0.380579 0
M  V30 2462 H 222.686 0.663954 -0.0969829 0
M  V30 2463 H 225.23 1.82966 -0.913446 0
M  V30 2464 H 223.385 3.83448 0.551931 0
M  V30 2465 H 223.799 5.08832 -1.27243 0
M  V30 2466 H 225.273 5.5065 0.385848 0
M  V30 2467 H 225.75 4.15792 1.41471 0
M  V30 2468 H 226.356 4.24534 -0.255209 0
M  V30 2469 N 224.671 0.411399 1.52136 0
M  V30 2470 C 225.619 -0.427633 2.28635 0
M  V30 2471 C 226.613 -1.04383 1.33419 0
M  V30 2472 O 227.819 -0.981772 1.50868 0
M  V30 2473 H 224.194 -0.156689 0.735495 0
M  V30 2474 H 226.165 0.238761 2.97443 0
M  V30 2475 C 224.914 -1.53082 3.12188 0
M  V30 2476 H 224.237 -1.06601 3.85326 0
M  V30 2477 H 225.677 -2.09167 3.68816 0
M  V30 2478 C 224.136 -2.49946 2.25895 0
M  V30 2479 O 224.666 -3.53884 1.90076 0
M  V30 2480 N 222.872 -2.2021 1.8962 0
M  V30 2481 H 222.419 -1.35719 2.18948 0
M  V30 2482 H 222.377 -2.85266 1.32176 0
M  V30 2483 N 226.149 -1.5696 0.141893 0
M  V30 2484 C 227.377 -2.00322 -0.517579 0
M  V30 2485 C 227.792 -1.02193 -1.58752 0
M  V30 2486 O 227.149 -0.0181619 -1.82491 0
M  V30 2487 C 227.2 -3.43618 -1.12289 0
M  V30 2488 O 226.921 -4.37995 -0.0956929 0
M  V30 2489 C 228.422 -4.02231 -1.86347 0
M  V30 2490 H 225.642 -0.657243 -0.135177 0
M  V30 2491 H 228.186 -2.03146 0.234973 0
M  V30 2492 H 226.341 -3.41662 -1.82609 0
M  V30 2493 H 226.755 -5.21729 -0.538469 0
M  V30 2494 H 228.229 -5.04509 -2.23997 0
M  V30 2495 H 228.706 -3.42655 -2.74744 0
M  V30 2496 H 229.312 -4.07802 -1.20737 0
M  V30 2497 N 227.627 0.131896 -1.57047 0
M  V30 2498 C 228.56 1.19236 -1.94571 0
M  V30 2499 C 229.538 1.40782 -0.813576 0
M  V30 2500 O 230.722 1.55148 -1.07058 0
M  V30 2501 C 227.849 2.54858 -2.23081 0
M  V30 2502 C 226.895 2.49817 -3.45679 0
M  V30 2503 S 227.728 1.95036 -4.98719 0
M  V30 2504 C 228.884 3.32357 -5.30367 0
M  V30 2505 H 229.117 0.872297 -2.84215 0
M  V30 2506 H 226.65 0.338134 -1.50652 0
M  V30 2507 H 228.608 3.32898 -2.40185 0
M  V30 2508 H 227.269 2.84047 -1.34074 0
M  V30 2509 H 226.462 3.49688 -3.62952 0
M  V30 2510 H 226.064 1.79892 -3.27895 0
M  V30 2511 H 228.356 4.28525 -5.2476 0
M  V30 2512 H 229.299 3.19923 -6.31708 0
M  V30 2513 H 229.707 3.3019 -4.57859 0
M  V30 2514 N 229.106 1.52395 0.401703 0
M  V30 2515 C 230.352 1.67065 1.14966 0
M  V30 2516 C 230.685 0.403052 1.89971 0
M  V30 2517 O 229.96 -0.598774 1.85054 0
M  V30 2518 C 230.243 2.8975 2.13815 0
M  V30 2519 C 230.096 4.26578 1.42658 0
M  V30 2520 C 231.415 3.07965 3.14397 0
M  V30 2521 H 228.534 0.607968 0.416587 0
M  V30 2522 H 231.176 1.84965 0.434511 0
M  V30 2523 H 229.326 2.74619 2.74803 0
M  V30 2524 H 230.998 4.53451 0.847329 0
M  V30 2525 H 229.241 4.27639 0.72849 0
M  V30 2526 H 229.912 5.08483 2.14823 0
M  V30 2527 H 232.388 3.22043 2.63491 0
M  V30 2528 H 231.264 3.95308 3.80819 0
M  V30 2529 H 231.525 2.21611 3.82545 0
M  V30 2530 N 230.584 -0.659388 1.43143 0
M  V30 2531 C 231.514 -1.78422 1.50625 0
M  V30 2532 C 232.495 -1.66216 0.361443 0
M  V30 2533 O 233.68 -1.85404 0.577834 0
M  V30 2534 C 230.81 -3.16815 1.42287 0
M  V30 2535 C 229.764 -3.43777 2.54954 0
M  V30 2536 C 229.09 -4.81905 2.31671 0
M  V30 2537 C 230.39 -3.39134 3.97222 0
M  V30 2538 H 232.084 -1.72417 2.44771 0
M  V30 2539 H 229.63 -0.828084 1.17808 0
M  V30 2540 H 231.583 -3.95253 1.46127 0
M  V30 2541 H 230.307 -3.23534 0.446435 0
M  V30 2542 H 228.966 -2.67707 2.50457 0
M  V30 2543 H 228.614 -4.85294 1.32284 0
M  V30 2544 H 228.314 -5.00906 3.07192 0
M  V30 2545 H 229.838 -5.62609 2.37284 0
M  V30 2546 H 231.252 -4.07518 4.03239 0
M  V30 2547 H 229.649 -3.69671 4.72719 0
M  V30 2548 H 230.719 -2.37426 4.22797 0
M  V30 2549 N 232.062 -1.29571 -0.897171 0
M  V30 2550 C 233.29 -1.20583 -1.68129 0
M  V30 2551 C 233.705 0.233181 -1.87354 0
M  V30 2552 O 233.062 1.15579 -1.41236 0
M  V30 2553 C 233.113 -1.91772 -3.06441 0
M  V30 2554 O 232.834 -3.30053 -2.88091 0
M  V30 2555 C 234.335 -1.89291 -4.00854 0
M  V30 2556 H 231.555 -0.417826 -0.525036 0
M  V30 2557 H 234.099 -1.70987 -1.12177 0
M  V30 2558 H 232.254 -1.45196 -3.59161 0
M  V30 2559 H 232.668 -3.65942 -3.75748 0
M  V30 2560 H 234.142 -2.43662 -4.95311 0
M  V30 2561 H 234.619 -0.869014 -4.30517 0
M  V30 2562 H 235.225 -2.35622 -3.54066 0
M  V30 2563 N 233.54 1.10788 -1.12088 0
M  V30 2564 C 234.765 1.87002 -0.896949 0
M  V30 2565 C 235.19 1.79933 0.548261 0
M  V30 2566 O 234.548 1.16662 1.38779 0
M  V30 2567 C 234.596 3.3349 -1.37174 0
M  V30 2568 O 233.7 4.08745 -0.547831 0
M  V30 2569 H 233.041 0.580397 -0.322545 0
M  V30 2570 H 235.571 1.39996 -1.49206 0
M  V30 2571 H 235.581 3.84339 -1.36922 0
M  V30 2572 H 234.256 3.37951 -2.42408 0
M  V30 2573 H 232.833 3.6776 -0.617034 0
M  V30 2574 N 235.018 0.912232 1.28515 0
M  V30 2575 C 236.267 0.540504 1.94323 0
M  V30 2576 C 236.58 -0.920044 1.72611 0
M  V30 2577 O 237.786 -1.39986 2.32629 0
M  V30 2578 C 236.242 0.915803 3.48053 0
M  V30 2579 C 235.85 2.39598 3.78546 0
M  V30 2580 C 237.594 0.614588 4.20027 0
M  V30 2581 C 235.501 2.71148 5.25578 0
M  V30 2582 H 234.431 0.198418 0.727424 0
M  V30 2583 H 237.082 1.11094 1.46049 0
M  V30 2584 H 235.464 0.274168 3.9505 0
M  V30 2585 H 236.638 3.08422 3.42364 0
M  V30 2586 H 234.953 2.66749 3.1974 0
M  V30 2587 H 237.55 0.827002 5.28266 0
M  V30 2588 H 237.893 -0.447531 4.13887 0
M  V30 2589 H 238.426 1.21462 3.78803 0
M  V30 2590 H 235.165 3.76207 5.36794 0
M  V30 2591 H 234.685 2.0696 5.62963 0
M  V30 2592 H 236.364 2.58072 5.93302 0
M  V30 2593 N 236.496 -1.42363 0.676048 0
M  V30 2594 C 237.443 -2.308 -0.00150904 0
M  V30 2595 C 238.413 -1.46032 -0.791444 0
M  V30 2596 O 239.598 -1.74861 -0.76344 0
M  V30 2597 C 236.738 -3.31883 -0.945919 0
M  V30 2598 C 235.851 -4.31741 -0.149675 0
M  V30 2599 C 234.986 -5.19898 -1.08995 0
M  V30 2600 C 234.025 -6.11434 -0.285465 0
M  V30 2601 N 233.162 -6.92138 -1.17851 0
M  V30 2602 H 238.002 -2.88187 0.758455 0
M  V30 2603 H 235.539 -1.41952 0.38576 0
M  V30 2604 H 237.497 -3.89019 -1.50731 0
M  V30 2605 H 236.127 -2.76093 -1.6725 0
M  V30 2606 H 235.179 -3.76713 0.528359 0
M  V30 2607 H 236.491 -4.96534 0.474866 0
M  V30 2608 H 235.645 -5.81772 -1.72123 0
M  V30 2609 H 234.384 -4.55284 -1.74837 0
M  V30 2610 H 233.389 -5.48627 0.359018 0
M  V30 2611 H 234.614 -6.78097 0.368883 0
M  V30 2612 H 232.56 -6.30152 -1.82332 0
M  V30 2613 H 232.477 -7.53542 -0.609082 0
M  V30 2614 H 233.745 -7.58499 -1.79722 0
M  V30 2615 N 237.974 -0.419461 -1.51915 0
M  V30 2616 C 239.222 0.152637 -2.01523 0
M  V30 2617 C 239.543 1.44762 -1.30649 0
M  V30 2618 O 238.813 1.90997 -0.435535 0
M  V30 2619 H 237.393 0.0593966 -0.744635 0
M  V30 2620 H 240.055 -0.558073 -1.86739 0
M  V30 2621 H 239.151 0.341369 -3.10227 0
M  V30 2622 N 239.452 1.56882 -0.150215 0
M  V30 2623 C 240.68 2.00593 0.506948 0
M  V30 2624 C 241.095 1.03033 1.58208 0
M  V30 2625 O 240.452 0.0278396 1.82479 0
M  V30 2626 C 240.503 3.44209 1.10465 0
M  V30 2627 O 240.224 4.3804 0.0724636 0
M  V30 2628 C 241.725 4.03214 1.84211 0
M  V30 2629 H 238.945 0.65795 0.13169 0
M  V30 2630 H 241.489 2.03018 -0.245743 0
M  V30 2631 H 239.644 3.42625 1.80795 0
M  V30 2632 H 240.058 5.22007 0.510793 0
M  V30 2633 H 241.532 5.0569 2.21318 0
M  V30 2634 H 242.009 3.44107 2.72923 0
M  V30 2635 H 242.615 4.08437 1.18572 0
M  V30 2636 N 240.93 -0.123565 1.57115 0
M  V30 2637 C 242.341 -0.681198 1.73829 0
M  V30 2638 C 242.692 -1.80535 0.768214 0
M  V30 2639 O 241.817 -2.16317 -0.0599103 0
M  V30 2640 C 242.412 -1.24246 3.15196 0
M  V30 2641 C 240.971 -1.74643 3.33432 0
M  V30 2642 C 240.118 -0.644284 2.69711 0
M  V30 2643 H 243.069 0.102315 1.5837 0
M  V30 2644 H 243.09 -2.11216 3.16493 0
M  V30 2645 H 242.602 -0.424062 3.85776 0
M  V30 2646 H 240.703 -2.58974 2.67886 0
M  V30 2647 H 240.816 -1.85902 4.41562 0
M  V30 2648 H 239.18 -1.07676 2.3082 0
M  V30 2649 H 239.963 0.163058 3.42913 0
M  V30 2650 N 242.408 -1.52605 -0.393616 0
M  V30 2651 C 243.338 -1.80022 -1.48709 0
M  V30 2652 C 244.319 -0.651995 -1.57108 0
M  V30 2653 O 245.504 -0.89913 -1.72132 0
M  V30 2654 C 242.634 -1.96492 -2.86371 0
M  V30 2655 C 241.588 -3.12161 -2.92813 0
M  V30 2656 C 240.914 -3.13877 -4.3288 0
M  V30 2657 C 242.214 -4.51322 -2.6288 0
M  V30 2658 H 243.908 -2.71589 -1.26015 0
M  V30 2659 H 241.454 -1.30684 -0.604778 0
M  V30 2660 H 243.407 -2.14255 -3.62867 0
M  V30 2661 H 242.131 -1.01611 -3.10391 0
M  V30 2662 H 240.79 -2.94173 -2.18764 0
M  V30 2663 H 240.438 -2.16687 -4.53933 0
M  V30 2664 H 240.138 -3.91576 -4.38112 0
M  V30 2665 H 241.662 -3.33789 -5.1129 0
M  V30 2666 H 243.076 -4.69435 -3.29096 0
M  V30 2667 H 241.473 -5.31053 -2.79468 0
M  V30 2668 H 242.543 -4.58353 -1.58242 0
M  V30 2669 N 243.887 0.651787 -1.4349 0
M  V30 2670 C 245.117 1.43728 -1.48411 0
M  V30 2671 C 245.525 1.8893 -0.10103 0
M  V30 2672 O 244.868 1.60182 0.899307 0
M  V30 2673 C 244.93 2.70411 -2.36893 0
M  V30 2674 C 244.594 2.4714 -3.8441 0
M  V30 2675 C 245.591 2.10271 -4.75481 0
M  V30 2676 C 243.276 2.6142 -4.28912 0
M  V30 2677 C 245.27 1.87982 -6.0905 0
M  V30 2678 C 242.957 2.38746 -5.62533 0
M  V30 2679 C 243.955 2.02083 -6.5242 0
M  V30 2680 O 243.643 1.79647 -7.8357 0
M  V30 2681 H 243.375 0.447962 -0.506267 0
M  V30 2682 H 245.929 0.80624 -1.88915 0
M  V30 2683 H 244.159 3.36079 -1.91278 0
M  V30 2684 H 245.848 3.32364 -2.33 0
M  V30 2685 H 246.614 1.98814 -4.42378 0
M  V30 2686 H 242.493 2.88931 -3.59222 0
M  V30 2687 H 246.037 1.5929 -6.7917 0
M  V30 2688 H 241.934 2.49806 -5.95203 0
M  V30 2689 H 242.702 1.9406 -7.95162 0
M  V30 2690 N 245.365 1.30045 0.890287 0
M  V30 2691 C 246.298 1.10301 1.99772 0
M  V30 2692 C 247.276 0.0121631 1.62595 0
M  V30 2693 O 248.46 0.16469 1.87779 0
M  V30 2694 C 245.587 0.681125 3.31781 0
M  V30 2695 C 244.633 1.77206 3.87944 0
M  V30 2696 S 245.466 3.37335 4.15891 0
M  V30 2697 C 246.622 2.97036 5.50927 0
M  V30 2698 H 246.855 2.04057 2.16213 0
M  V30 2699 H 244.388 1.14299 1.03804 0
M  V30 2700 H 246.346 0.444439 4.08087 0
M  V30 2701 H 245.007 -0.236981 3.13205 0
M  V30 2702 H 244.2 1.42903 4.83316 0
M  V30 2703 H 243.802 1.96275 3.18358 0
M  V30 2704 H 246.094 2.44666 6.31779 0
M  V30 2705 H 247.037 3.91296 5.90164 0
M  V30 2706 H 247.445 2.35057 5.13233 0
M  V30 2707 N 246.843 -1.10192 1.12674 0
M  V30 2708 C 248.068 -1.86523 0.906853 0
M  V30 2709 C 248.493 -1.80221 -0.538711 0
M  V30 2710 O 247.851 -1.17396 -1.38158 0
M  V30 2711 C 247.899 -3.32758 1.3894 0
M  V30 2712 O 247.003 -4.08449 0.5695 0
M  V30 2713 H 246.344 -0.578678 0.325619 0
M  V30 2714 H 248.874 -1.39203 1.49946 0
M  V30 2715 H 248.884 -3.83608 1.38958 0
M  V30 2716 H 247.559 -3.36661 2.44197 0
M  V30 2717 H 246.136 -3.67427 0.636528 0
M  V30 2718 N 248.321 -0.919034 -1.28029 0
M  V30 2719 C 249.732 -0.600735 -1.76771 0
M  V30 2720 C 250.083 0.884024 -1.75156 0
M  V30 2721 O 249.208 1.69163 -1.34956 0
M  V30 2722 C 249.803 -1.08372 -3.21 0
M  V30 2723 C 248.362 -0.816248 -3.67443 0
M  V30 2724 C 247.509 -1.24742 -2.47658 0
M  V30 2725 H 250.46 -1.09974 -1.14418 0
M  V30 2726 H 250.481 -0.427512 -3.78091 0
M  V30 2727 H 249.993 -2.16437 -3.22144 0
M  V30 2728 H 248.094 0.250968 -3.71754 0
M  V30 2729 H 248.207 -1.4277 -4.57333 0
M  V30 2730 H 246.571 -0.666083 -2.45836 0
M  V30 2731 H 247.354 -2.33653 -2.51518 0
M  V30 2732 N 249.799 1.42003 -0.683588 0
M  V30 2733 C 250.709 2.34597 -0.0109075 0
M  V30 2734 C 251.725 1.55576 0.779245 0
M  V30 2735 O 252.901 1.88107 0.719555 0
M  V30 2736 C 249.966 3.34199 0.922588 0
M  V30 2737 C 249.027 4.29115 0.125984 0
M  V30 2738 C 248.26 5.23959 1.01502 0
M  V30 2739 O 248.483 5.23952 2.25456 0
M  V30 2740 O 247.417 6.00053 0.47111 0
M  V30 2741 H 251.243 2.93675 -0.773853 0
M  V30 2742 H 248.828 1.42654 -0.443861 0
M  V30 2743 H 250.71 3.95365 1.45823 0
M  V30 2744 H 249.385 2.77582 1.66523 0
M  V30 2745 H 248.292 3.71335 -0.453969 0
M  V30 2746 H 249.625 4.88798 -0.577736 0
M  V30 2747 N 251.277 0.427512 1.51691 0
M  V30 2748 C 252.207 -0.3796 2.30394 0
M  V30 2749 C 253.188 -1.02982 1.35384 0
M  V30 2750 O 254.373 -1.03534 1.643 0
M  V30 2751 C 251.503 -1.48649 3.1388 0
M  V30 2752 C 250.457 -0.960294 4.17088 0
M  V30 2753 C 249.783 -2.16219 4.89033 0
M  V30 2754 C 251.083 -0.00153679 5.223 0
M  V30 2755 H 252.777 0.277164 2.98114 0
M  V30 2756 H 250.323 0.134739 1.43368 0
M  V30 2757 H 252.276 -2.05826 3.67714 0
M  V30 2758 H 251 -2.1714 2.43962 0
M  V30 2759 H 249.659 -0.410806 3.64291 0
M  V30 2760 H 249.307 -2.83307 4.15628 0
M  V30 2761 H 249.007 -1.81654 5.58816 0
M  V30 2762 H 250.531 -2.73968 5.45687 0
M  V30 2763 H 251.945 -0.482687 5.71264 0
M  V30 2764 H 250.342 0.256199 5.99553 0
M  V30 2765 H 251.412 0.938174 4.75738 0
M  V30 2766 N 252.755 -1.56801 0.158532 0
M  V30 2767 C 254.001 -1.96781 -0.490405 0
M  V30 2768 C 254.334 -1.04397 -1.63753 0
M  V30 2769 O 253.609 -0.0885805 -1.94298 0
M  V30 2770 C 253.892 -3.4635 -0.985594 0
M  V30 2771 C 253.745 -4.49512 0.160824 0
M  V30 2772 C 255.064 -3.98697 -1.86355 0
M  V30 2773 H 252.183 -0.715482 -0.176788 0
M  V30 2774 H 254.825 -1.88451 0.242088 0
M  V30 2775 H 252.975 -3.53579 -1.60978 0
M  V30 2776 H 254.647 -4.54353 0.797537 0
M  V30 2777 H 252.89 -4.26013 0.818256 0
M  V30 2778 H 253.561 -5.51531 -0.227569 0
M  V30 2779 H 256.037 -3.94019 -1.33746 0
M  V30 2780 H 254.913 -5.03792 -2.17909 0
M  V30 2781 H 255.174 -3.41744 -2.8047 0
M  V30 2782 N 254.233 0.115231 -1.57178 0
M  V30 2783 C 255.143 1.15994 -2.03918 0
M  V30 2784 C 256.159 1.45103 -0.960268 0
M  V30 2785 O 257.335 1.56144 -1.27204 0
M  V30 2786 C 254.4 2.46568 -2.43732 0
M  V30 2787 C 253.461 2.24822 -3.65723 0
M  V30 2788 C 252.694 3.4917 -4.03629 0
M  V30 2789 O 252.917 4.56623 -3.41835 0
M  V30 2790 O 251.851 3.39949 -4.96708 0
M  V30 2791 H 255.677 0.793019 -2.93164 0
M  V30 2792 H 253.262 0.3263 -1.45793 0
M  V30 2793 H 255.144 3.23492 -2.70057 0
M  V30 2794 H 253.819 2.82726 -1.57631 0
M  V30 2795 H 252.726 1.45744 -3.44542 0
M  V30 2796 H 254.059 1.93566 -4.52541 0
M  V30 2797 N 255.711 1.52812 0.385517 0
M  V30 2798 C 256.621 1.80766 1.49535 0
M  V30 2799 C 257.637 0.694651 1.59532 0
M  V30 2800 O 258.813 0.982611 1.75803 0
M  V30 2801 C 255.878 1.97381 2.85029 0
M  V30 2802 C 254.939 3.21295 2.84724 0
M  V30 2803 C 254.172 3.37108 4.13756 0
M  V30 2804 O 254.395 2.5765 5.08893 0
M  V30 2805 O 253.329 4.30378 4.20783 0
M  V30 2806 H 257.155 2.75015 1.28842 0
M  V30 2807 H 254.74 1.37946 0.573697 0
M  V30 2808 H 256.622 2.09996 3.65349 0
M  V30 2809 H 255.297 1.06322 3.05741 0
M  V30 2810 H 254.204 3.1412 2.03174 0
M  V30 2811 H 255.537 4.12212 2.68965 0
M  V30 2812 N 257.189 -0.644168 1.43834 0
M  V30 2813 C 258.605 -0.960875 1.27434 0
M  V30 2814 C 258.805 -2.00499 0.200618 0
M  V30 2815 O 257.861 -2.49018 -0.417906 0
M  V30 2816 C 259.174 -1.43653 2.64167 0
M  V30 2817 C 260.722 -1.55271 2.71772 0
M  V30 2818 C 261.197 -2.06224 4.08944 0
M  V30 2819 N 262.688 -2.13513 4.11055 0
M  V30 2820 C 263.423 -2.54081 5.14033 0
M  V30 2821 N 262.919 -2.9388 6.27381 0
M  V30 2822 N 264.712 -2.54101 5.01387 0
M  V30 2823 H 256.863 0.0465779 2.12349 0
M  V30 2824 H 259.126 -0.0417638 0.94708 0
M  V30 2825 H 258.832 -0.743706 3.43747 0
M  V30 2826 H 258.706 -2.40993 2.90176 0
M  V30 2827 H 261.093 -2.23653 1.92519 0
M  V30 2828 H 261.174 -0.563395 2.49519 0
M  V30 2829 H 260.818 -1.38441 4.88668 0
M  V30 2830 H 260.748 -3.06003 4.28567 0
M  V30 2831 H 263.239 -1.85493 3.29242 0
M  V30 2832 H 263.552 -3.2361 7.01781 0
M  V30 2833 H 261.897 -2.91663 6.30839 0
M  V30 2834 H 265.088 -2.22391 4.11898 0
M  V30 2835 H 265.261 -2.85394 5.81768 0
M  V30 2836 N 258.668 -1.30515 -0.883378 0
M  V30 2837 C 260.079 -1.17509 -1.45081 0
M  V30 2838 C 260.43 0.223605 -1.94922 0
M  V30 2839 O 259.555 1.12041 -1.85137 0
M  V30 2840 C 260.15 -2.12715 -2.63701 0
M  V30 2841 C 258.709 -2.03682 -3.16529 0
M  V30 2842 C 257.856 -2.02706 -1.89224 0
M  V30 2843 H 260.807 -1.42762 -0.693165 0
M  V30 2844 H 260.828 -1.70891 -3.39965 0
M  V30 2845 H 260.34 -3.14505 -2.27395 0
M  V30 2846 H 258.441 -1.05039 -3.57488 0
M  V30 2847 H 258.554 -2.92146 -3.7972 0
M  V30 2848 H 256.918 -1.4753 -2.07622 0
M  V30 2849 H 257.701 -3.06229 -1.55174 0
M  V30 2850 N 260.146 1.09593 -1.13257 0
M  V30 2851 C 261.376 1.85231 -0.915049 0
M  V30 2852 C 261.784 1.81345 0.539498 0
M  V30 2853 O 261.127 1.20664 1.38513 0
M  V30 2854 C 261.189 3.34275 -1.3229 0
M  V30 2855 C 260.853 3.6191 -2.79052 0
M  V30 2856 C 261.85 3.57777 -3.77216 0
M  V30 2857 C 259.535 3.90309 -3.16171 0
M  V30 2858 C 261.529 3.81652 -5.1051 0
M  V30 2859 C 259.216 4.13839 -4.49644 0
M  V30 2860 C 260.214 4.09502 -5.46623 0
M  V30 2861 O 259.902 4.32426 -6.77689 0
M  V30 2862 H 259.634 0.591997 -0.326367 0
M  V30 2863 H 262.188 1.394 -1.50854 0
M  V30 2864 H 260.418 3.80805 -0.672667 0
M  V30 2865 H 262.107 3.9132 -1.07812 0
M  V30 2866 H 262.873 3.35865 -3.49885 0
M  V30 2867 H 258.752 3.92811 -2.41289 0
M  V30 2868 H 262.296 3.78182 -5.86195 0
M  V30 2869 H 258.193 4.35232 -4.767 0
M  V30 2870 H 258.961 4.49896 -6.83766 0
M  V30 2871 N 261.624 0.925811 1.2754 0
M  V30 2872 C 262.901 0.483726 1.89524 0
M  V30 2873 C 263.281 -1.03809 1.83812 0
M  V30 2874 O 262.629 -1.89143 1.28207 0
M  V30 2875 C 262.839 1.02769 3.33526 0
M  V30 2876 C 264.187 1.08703 4.10449 0
M  V30 2877 O 265.211 0.977175 3.42534 0
M  V30 2878 O 264.07 1.25599 5.31871 0
M  V30 2879 H 261.164 0.15529 0.812289 0
M  V30 2880 H 263.71 1.01738 1.35822 0
M  V30 2881 H 262.482 2.07155 3.31967 0
M  V30 2882 H 262.105 0.475567 3.94746 0
M  V30 2883 N 263.102 -1.41638 0.69111 0
M  V30 2884 C 264.052 -2.28 -0.000107832 0
M  V30 2885 C 265.036 -1.41964 -0.757304 0
M  V30 2886 O 266.228 -1.65274 -0.633532 0
M  V30 2887 C 263.357 -3.30209 -0.938983 0
M  V30 2888 C 262.443 -4.23725 -0.17827 0
M  V30 2889 N 262.834 -4.99017 0.825563 0
M  V30 2890 C 261.132 -4.44071 -0.414392 0
M  V30 2891 C 261.833 -5.67431 1.28052 0
M  V30 2892 N 260.809 -5.40197 0.607304 0
M  V30 2893 H 264.611 -2.83644 0.769617 0
M  V30 2894 H 262.125 -1.53797 0.521562 0
M  V30 2895 H 264.122 -3.90898 -1.44929 0
M  V30 2896 H 262.782 -2.76126 -1.70836 0
M  V30 2897 H 263.793 -5.03671 1.20566 0
M  V30 2898 H 260.47 -4.01004 -1.162 0
M  V30 2899 H 261.86 -6.37801 2.11327 0
M  V30 2900 N 264.58 -0.43555 -1.51462 0
M  V30 2901 C 265.808 0.130242 -2.0649 0
M  V30 2902 C 266.223 1.36614 -1.30315 0
M  V30 2903 O 265.58 1.78869 -0.362223 0
M  V30 2904 C 265.631 0.454253 -3.58635 0
M  V30 2905 O 265.352 -0.73259 -4.31931 0
M  V30 2906 C 266.853 1.07091 -4.3017 0
M  V30 2907 H 264.073 0.00871669 -0.670943 0
M  V30 2908 H 266.617 -0.614117 -1.95061 0
M  V30 2909 H 264.772 1.14851 -3.69984 0
M  V30 2910 H 265.186 -0.455787 -5.22516 0
M  V30 2911 H 266.66 1.24764 -5.37716 0
M  V30 2912 H 267.137 2.05144 -3.88346 0
M  V30 2913 H 267.743 0.416089 -4.2326 0
M  V30 2914 N 266.058 1.56714 -0.166846 0
M  V30 2915 C 267.021 2.16539 0.751232 0
M  V30 2916 C 268.021 1.11228 1.16125 0
M  V30 2917 O 269.211 1.36765 1.07894 0
M  V30 2918 C 266.343 2.74462 2.02196 0
M  V30 2919 H 267.536 2.99013 0.230499 0
M  V30 2920 H 265.089 1.56081 0.0826982 0
M  V30 2921 H 265.824 1.95709 2.58589 0
M  V30 2922 H 265.609 3.51527 1.73698 0
M  V30 2923 H 267.099 3.20489 2.67725 0
M  V30 2924 N 267.536 -0.106894 1.57237 0
M  V30 2925 C 268.813 -0.843526 1.76477 0
M  V30 2926 C 269.193 -1.97499 0.745464 0
M  V30 2927 O 268.541 -2.27357 -0.228306 0
M  V30 2928 C 268.751 -1.34903 3.21873 0
M  V30 2929 C 270.099 -1.79654 3.8472 0
M  V30 2930 O 271.123 -1.44554 3.2555 0
M  V30 2931 O 269.982 -2.44515 4.88748 0
M  V30 2932 H 267.076 -0.401468 0.723016 0
M  V30 2933 H 269.622 -0.0896927 1.69463 0
M  V30 2934 H 268.394 -0.53781 3.87586 0
M  V30 2935 H 268.017 -2.16522 3.33473 0
M  V30 2936 N 269.014 -1.53014 -0.377408 0
M  V30 2937 C 269.944 -1.81589 -1.46791 0
M  V30 2938 C 270.925 -0.668622 -1.56408 0
M  V30 2939 O 272.11 -0.917337 -1.71168 0
M  V30 2940 C 269.24 -1.99519 -2.8427 0
M  V30 2941 C 268.194 -3.15249 -2.89486 0
M  V30 2942 C 267.52 -3.18451 -4.29527 0
M  V30 2943 C 268.82 -4.54084 -2.58079 0
M  V30 2944 H 270.514 -2.7291 -1.23127 0
M  V30 2945 H 268.06 -1.31319 -0.590883 0
M  V30 2946 H 270.013 -2.18092 -3.60575 0
M  V30 2947 H 268.737 -1.04897 -3.09296 0
M  V30 2948 H 267.396 -2.96477 -2.15631 0
M  V30 2949 H 267.044 -2.2149 -4.5161 0
M  V30 2950 H 266.744 -3.962 -4.33934 0
M  V30 2951 H 268.268 -3.39193 -5.07721 0
M  V30 2952 H 269.682 -4.72899 -3.24098 0
M  V30 2953 H 268.079 -5.33987 -2.7382 0
M  V30 2954 H 269.149 -4.60006 -1.53372 0
M  V30 2955 N 270.492 0.636531 -1.44174 0
M  V30 2956 C 271.738 1.39649 -1.47884 0
M  V30 2957 C 272.093 1.92098 -0.107747 0
M  V30 2958 O 271.386 1.70391 0.876208 0
M  V30 2959 C 271.58 2.58309 -2.47005 0
M  V30 2960 C 271.409 2.17476 -3.93617 0
M  V30 2961 C 270.179 2.0501 -4.61843 0
M  V30 2962 C 272.377 1.76722 -4.82984 0
M  V30 2963 N 270.359 1.57683 -5.93304 0
M  V30 2964 C 271.73 1.40601 -6.03847 0
M  V30 2965 C 273.785 1.64054 -4.70096 0
M  V30 2966 C 272.488 0.930787 -7.13252 0
M  V30 2967 C 274.514 1.17937 -5.79521 0
M  V30 2968 C 273.876 0.827625 -6.99521 0
M  V30 2969 H 269.975 0.506027 -0.596205 0
M  V30 2970 H 272.559 0.730791 -1.80465 0
M  V30 2971 H 270.73 3.22514 -2.16423 0
M  V30 2972 H 272.462 3.25083 -2.41045 0
M  V30 2973 H 269.217 2.25294 -4.16581 0
M  V30 2974 H 269.641 1.36334 -6.63131 0
M  V30 2975 H 274.283 1.89882 -3.77762 0
M  V30 2976 H 272.001 0.660012 -8.054 0
M  V30 2977 H 275.587 1.08601 -5.71574 0
M  V30 2978 H 274.467 0.476231 -7.82753 0
M  V30 2979 N 271.97 1.30982 0.876444 0
M  V30 2980 C 273.195 1.23373 1.66715 0
M  V30 2981 C 273.62 -0.19885 1.87046 0
M  V30 2982 O 272.978 -1.1427 1.40756 0
M  V30 2983 C 273.026 1.97644 3.01611 0
M  V30 2984 O 272.13 1.30935 3.91062 0
M  V30 2985 H 271.471 0.426279 0.509099 0
M  V30 2986 H 274.001 1.72944 1.09323 0
M  V30 2987 H 274.011 2.06992 3.51594 0
M  V30 2988 H 272.686 3.01829 2.86133 0
M  V30 2989 H 271.263 1.29996 3.49507 0
M  V30 2990 N 273.449 -1.08991 1.13837 0
M  V30 2991 C 274.695 -1.81526 0.90422 0
M  V30 2992 C 275.028 -1.85706 -0.568066 0
M  V30 2993 O 274.303 -1.32855 -1.42056 0
M  V30 2994 C 274.586 -3.27447 1.49835 0
M  V30 2995 C 274.439 -3.31512 3.04006 0
M  V30 2996 C 275.758 -4.24256 1.17025 0
M  V30 2997 H 272.877 -0.659029 0.329923 0
M  V30 2998 H 275.519 -1.27644 1.40737 0
M  V30 2999 H 273.669 -3.73462 1.07044 0
M  V30 3000 H 275.341 -2.93867 3.55584 0
M  V30 3001 H 273.584 -2.70963 3.38765 0
M  V30 3002 H 274.255 -4.34329 3.40679 0
M  V30 3003 H 276.731 -3.86549 1.54009 0
M  V30 3004 H 275.607 -5.24684 1.61237 0
M  V30 3005 H 275.868 -4.42019 0.0846274 0
M  V30 3006 N 274.927 -0.932562 -1.27047 0
M  V30 3007 C 276.175 -0.574422 -1.93765 0
M  V30 3008 C 276.496 0.887993 -1.73608 0
M  V30 3009 O 275.766 1.62999 -1.08665 0
M  V30 3010 H 274.346 -0.209451 -0.717035 0
M  V30 3011 H 277.008 -1.18601 -1.5466 0
M  V30 3012 H 276.104 -0.784841 -3.02071 0
M  V30 3013 N 276.405 1.4127 -0.698611 0
M  V30 3014 C 277.645 2.03044 -0.235062 0
M  V30 3015 C 278.009 1.54146 1.14468 0
M  V30 3016 O 279.21 2.07867 1.70425 0
M  V30 3017 C 277.481 3.56192 -0.293651 0
M  V30 3018 S 279.04 4.38696 0.0954053 0
M  V30 3019 H 275.858 0.704697 -0.0944648 0
M  V30 3020 H 278.46 1.72656 -0.917064 0
M  V30 3021 H 277.164 3.89274 -1.29977 0
M  V30 3022 H 276.695 3.91285 0.407397 0
M  V30 3023 H 278.71 4.78257 1.3223 0
M  V30 3024 N 277.883 0.443576 1.51229 0
M  V30 3025 C 279.132 -0.122332 2.01329 0
M  V30 3026 C 279.445 -1.43237 1.33201 0
M  V30 3027 O 280.651 -2.0816 1.74304 0
M  V30 3028 C 279.107 -0.268551 3.58897 0
M  V30 3029 C 278.715 1.03142 4.35965 0
M  V30 3030 C 280.459 -0.787894 4.17124 0
M  V30 3031 C 278.366 0.850504 5.85252 0
M  V30 3032 H 277.296 -0.0494929 0.752374 0
M  V30 3033 H 279.947 0.574289 1.74282 0
M  V30 3034 H 278.329 -1.02832 3.82415 0
M  V30 3035 H 279.503 1.80001 4.24189 0
M  V30 3036 H 277.818 1.47977 3.89219 0
M  V30 3037 H 280.415 -0.939841 5.26375 0
M  V30 3038 H 280.758 -1.77201 3.76703 0
M  V30 3039 H 281.291 -0.0862669 3.97706 0
M  V30 3040 H 278.03 1.80718 6.30096 0
M  V30 3041 H 277.55 0.121825 5.99676 0
M  V30 3042 H 279.229 0.506163 6.45017 0
M  V30 3043 N 279.361 -1.56624 0.175154 0
M  V30 3044 C 280.291 -2.21155 -0.749195 0
M  V30 3045 C 281.272 -1.16836 -1.23626 0
M  V30 3046 O 282.457 -1.45277 -1.28873 0
M  V30 3047 C 279.587 -2.8553 -1.97711 0
M  V30 3048 C 278.541 -3.95921 -1.62575 0
M  V30 3049 C 277.867 -4.47365 -2.92864 0
M  V30 3050 C 279.167 -5.15323 -0.850838 0
M  V30 3051 H 280.861 -2.98653 -0.211295 0
M  V30 3052 H 278.407 -1.43651 -0.100188 0
M  V30 3053 H 280.36 -3.2935 -2.62881 0
M  V30 3054 H 279.084 -2.05406 -2.53921 0
M  V30 3055 H 277.743 -3.52762 -0.997719 0
M  V30 3056 H 277.391 -3.64027 -3.47122 0
M  V30 3057 H 277.091 -5.21839 -2.70106 0
M  V30 3058 H 278.615 -4.93873 -3.59056 0
M  V30 3059 H 280.029 -5.55812 -1.40521 0
M  V30 3060 H 278.426 -5.95739 -0.722154 0
M  V30 3061 H 279.496 -4.84661 0.152082 0
M  V30 3062 N 280.839 0.0985539 -1.57292 0
M  V30 3063 C 282.069 0.815135 -1.8984 0
M  V30 3064 C 282.477 1.7297 -0.766679 0
M  V30 3065 O 281.82 1.81698 0.270483 0
M  V30 3066 C 281.882 1.6842 -3.17608 0
M  V30 3067 C 281.546 0.94182 -4.4719 0
M  V30 3068 C 282.543 0.273212 -5.19182 0
M  V30 3069 C 280.228 0.916927 -4.9386 0
M  V30 3070 C 282.222 -0.410361 -6.36078 0
M  V30 3071 C 279.909 0.229567 -6.10669 0
M  V30 3072 C 280.907 -0.432902 -6.81627 0
M  V30 3073 O 280.595 -1.10925 -7.9621 0
M  V30 3074 H 280.327 0.238501 -0.632529 0
M  V30 3075 H 282.881 0.0812659 -2.05239 0
M  V30 3076 H 281.111 2.46022 -2.98345 0
M  V30 3077 H 282.8 2.27704 -3.36015 0
M  V30 3078 H 283.566 0.283927 -4.84168 0
M  V30 3079 H 279.445 1.42201 -4.3852 0
M  V30 3080 H 282.989 -0.928013 -6.914 0
M  V30 3081 H 278.886 0.216686 -6.45136 0
M  V30 3082 H 279.654 -1.01579 -8.12172 0
M  V30 3083 N 282.317 1.53212 0.369288 0
M  V30 3084 C 283.227 1.82342 1.47609 0
M  V30 3085 C 284.243 0.711532 1.58787 0
M  V30 3086 O 285.419 1.0012 1.74751 0
M  V30 3087 C 282.484 2.00393 2.8292 0
M  V30 3088 C 281.545 3.24297 2.81301 0
M  V30 3089 C 280.778 3.41478 4.10157 0
M  V30 3090 O 281.001 2.63033 5.06132 0
M  V30 3091 O 279.935 4.34817 4.16194 0
M  V30 3092 H 283.761 2.76366 1.25918 0
M  V30 3093 H 281.346 1.38547 0.559034 0
M  V30 3094 H 283.228 2.13859 3.63101 0
M  V30 3095 H 281.903 1.09559 3.04596 0
M  V30 3096 H 280.81 3.16257 1.99831 0
M  V30 3097 H 282.143 4.15041 2.64578 0
M  V30 3098 N 283.795 -0.628877 1.44509 0
M  V30 3099 C 284.725 -1.75187 1.54376 0
M  V30 3100 C 285.706 -1.65411 0.396618 0
M  V30 3101 O 286.891 -1.84137 0.617031 0
M  V30 3102 C 284.021 -3.13725 1.48976 0
M  V30 3103 C 282.975 -3.38291 2.62189 0
M  V30 3104 C 282.301 -4.76883 2.41841 0
M  V30 3105 C 283.601 -3.30632 4.04326 0
M  V30 3106 H 285.295 -1.67187 2.48373 0
M  V30 3107 H 282.841 -0.802909 1.19538 0
M  V30 3108 H 284.794 -3.92064 1.54478 0
M  V30 3109 H 283.518 -3.22515 0.514961 0
M  V30 3110 H 282.177 -2.62334 2.56079 0
M  V30 3111 H 281.825 -4.82378 1.42548 0
M  V30 3112 H 281.525 -4.94278 3.17747 0
M  V30 3113 H 283.049 -5.57449 2.49165 0
M  V30 3114 H 284.463 -3.98873 4.11793 0
M  V30 3115 H 282.86 -3.59561 4.80454 0
M  V30 3116 H 283.93 -2.28404 4.27738 0
M  V30 3117 N 285.273 -1.31445 -0.869486 0
M  V30 3118 C 286.236 -1.19094 -1.9583 0
M  V30 3119 C 287.236 -0.117906 -1.60367 0
M  V30 3120 O 288.426 -0.367208 -1.70286 0
M  V30 3121 C 285.558 -0.828165 -3.30688 0
M  V30 3122 H 286.751 -2.15842 -2.08212 0
M  V30 3123 H 284.304 -1.15063 -1.05784 0
M  V30 3124 H 285.039 0.138142 -3.24006 0
M  V30 3125 H 284.824 -1.6038 -3.578 0
M  V30 3126 H 286.314 -0.765658 -4.10521 0
M  V30 3127 N 286.751 1.08385 -1.14413 0
M  V30 3128 C 287.997 1.81044 -0.913834 0
M  V30 3129 C 288.33 1.86004 0.558209 0
M  V30 3130 O 287.605 1.33606 1.4135 0
M  V30 3131 C 287.888 3.26648 -1.51569 0
M  V30 3132 C 287.741 3.29895 -3.0576 0
M  V30 3133 C 289.06 4.23629 -1.19273 0
M  V30 3134 H 286.179 0.65727 -0.333414 0
M  V30 3135 H 288.821 1.26896 -1.41412 0
M  V30 3136 H 286.971 3.72889 -1.09023 0
M  V30 3137 H 288.643 2.91977 -3.57137 0
M  V30 3138 H 286.886 2.69163 -3.40197 0
M  V30 3139 H 287.557 4.32516 -3.42977 0
M  V30 3140 H 290.033 3.85727 -1.56057 0
M  V30 3141 H 288.909 5.23822 -1.64017 0
M  V30 3142 H 289.17 4.41968 -0.108068 0
M  V30 3143 N 288.23 0.939286 1.26551 0
M  V30 3144 C 289.478 0.58469 1.93457 0
M  V30 3145 C 289.799 -0.878774 1.74076 0
M  V30 3146 O 289.069 -1.62421 1.09528 0
M  V30 3147 H 287.649 0.21325 0.715914 0
M  V30 3148 H 290.311 1.1942 1.54029 0
M  V30 3149 H 289.407 0.800849 3.0165 0
M  V30 3150 N 289.708 -1.40897 0.706093 0
M  V30 3151 C 290.936 -2.05373 0.250887 0
M  V30 3152 C 291.351 -1.53172 -1.10381 0
M  V30 3153 O 290.708 -0.684305 -1.69185 0
M  V30 3154 C 290.759 -3.6088 0.211571 0
M  V30 3155 O 290.48 -4.11153 1.51276 0
M  V30 3156 C 291.981 -4.42517 -0.263346 0
M  V30 3157 H 289.201 -0.66115 0.114552 0
M  V30 3158 H 291.745 -1.80479 0.961635 0
M  V30 3159 H 289.9 -3.84777 -0.450073 0
M  V30 3160 H 290.314 -5.05279 1.40689 0
M  V30 3161 H 291.788 -5.51479 -0.239718 0
M  V30 3162 H 292.265 -4.19396 -1.30397 0
M  V30 3163 H 292.871 -4.23708 0.367677 0
M  V30 3164 N 291.186 -0.45159 -1.50991 0
M  V30 3165 C 292.597 0.00818571 -1.86698 0
M  V30 3166 C 292.948 1.40661 -1.3678 0
M  V30 3167 O 292.073 2.0391 -0.724546 0
M  V30 3168 C 292.668 0.0216303 -3.38793 0
M  V30 3169 C 291.227 0.425865 -3.73983 0
M  V30 3170 C 290.374 -0.372163 -2.74791 0
M  V30 3171 H 293.325 -0.666785 -1.44013 0
M  V30 3172 H 293.346 0.828078 -3.7138 0
M  V30 3173 H 292.858 -0.996288 -3.75094 0
M  V30 3174 H 290.959 1.44886 -3.43277 0
M  V30 3175 H 291.072 0.140761 -4.78893 0
M  V30 3176 H 289.436 0.171498 -2.54122 0
M  V30 3177 H 290.219 -1.38922 -3.13935 0
M  V30 3178 N 292.664 1.56529 -0.183458 0
M  V30 3179 C 294.075 1.83739 0.331177 0
M  V30 3180 C 294.426 1.10373 1.62211 0
M  V30 3181 O 293.551 0.36071 2.13373 0
M  V30 3182 C 294.146 3.33306 0.607646 0
M  V30 3183 C 292.705 3.60969 1.06668 0
M  V30 3184 C 291.852 2.77086 0.109029 0
M  V30 3185 H 294.803 1.53379 -0.407484 0
M  V30 3186 H 294.824 3.51444 1.45832 0
M  V30 3187 H 294.336 3.86677 -0.332086 0
M  V30 3188 H 292.437 3.13021 2.0211 0
M  V30 3189 H 292.55 4.69231 0.967447 0
M  V30 3190 H 290.914 2.47319 0.608714 0
M  V30 3191 H 291.697 3.33241 -0.82494 0
M  V30 3192 N 294.142 -0.090211 1.57342 0
M  V30 3193 C 295.389 -0.792807 1.86335 0
M  V30 3194 C 295.717 -1.78494 0.772662 0
M  V30 3195 O 294.972 -1.94305 -0.233258 0
M  V30 3196 C 295.271 -1.55222 3.21933 0
M  V30 3197 C 294.937 -0.701765 4.45406 0
M  V30 3198 C 293.599 -0.467334 4.78925 0
M  V30 3199 C 295.951 -0.11086 5.21082 0
M  V30 3200 C 293.279 0.367785 5.85546 0
M  V30 3201 C 295.631 0.711609 6.28585 0
M  V30 3202 C 294.295 0.956086 6.60617 0
M  V30 3203 H 293.565 -0.290109 0.681849 0
M  V30 3204 H 296.212 -0.0541332 1.91423 0
M  V30 3205 H 294.517 -2.3626 3.12551 0
M  V30 3206 H 296.214 -2.10032 3.41595 0
M  V30 3207 H 292.804 -0.894598 4.1916 0
M  V30 3208 H 296.988 -0.279129 4.95514 0
M  V30 3209 H 292.244 0.566128 6.08773 0
M  V30 3210 H 296.418 1.17632 6.86393 0
M  V30 3211 H 294.045 1.60499 7.43064 0
M  V30 3212 N 295.62 -1.53406 -0.361157 0
M  V30 3213 C 296.85 -1.73465 -1.1222 0
M  V30 3214 C 297.258 -0.465486 -1.83384 0
M  V30 3215 O 296.601 0.571611 -1.7458 0
M  V30 3216 C 296.663 -2.84834 -2.19339 0
M  V30 3217 C 296.327 -4.25038 -1.67903 0
M  V30 3218 C 297.324 -5.07231 -1.14074 0
M  V30 3219 C 295.009 -4.71464 -1.73282 0
M  V30 3220 C 297.003 -6.33942 -0.663068 0
M  V30 3221 C 294.69 -5.98153 -1.25127 0
M  V30 3222 C 295.688 -6.79223 -0.717296 0
M  V30 3223 O 295.376 -8.03533 -0.242865 0
M  V30 3224 H 295.108 -0.583526 -0.341283 0
M  V30 3225 H 297.662 -2.00964 -0.424591 0
M  V30 3226 H 295.892 -2.5282 -2.92607 0
M  V30 3227 H 297.581 -2.9303 -2.80871 0
M  V30 3228 H 298.347 -4.72534 -1.09254 0
M  V30 3229 H 294.226 -4.08432 -2.13786 0
M  V30 3230 H 297.77 -6.97167 -0.245612 0
M  V30 3231 H 293.667 -6.32347 -1.29642 0
M  V30 3232 H 294.435 -8.177 -0.361786 0
M  V30 3233 N 297.098 0.621204 -1.44841 0
M  V30 3234 C 298.061 1.71459 -1.521 0
M  V30 3235 C 299.061 1.55696 -0.401933 0
M  V30 3236 O 300.251 1.61011 -0.664925 0
M  V30 3237 C 297.383 3.10624 -1.40447 0
M  V30 3238 H 298.576 1.66394 -2.49506 0
M  V30 3239 H 296.129 0.835745 -1.3208 0
M  V30 3240 H 296.864 3.21277 -0.441737 0
M  V30 3241 H 296.649 3.23473 -2.21602 0
M  V30 3242 H 298.139 3.90293 -1.4853 0
M  V30 3243 N 298.576 1.31904 0.862503 0
M  V30 3244 C 299.804 1.24998 1.64873 0
M  V30 3245 C 300.219 -0.183425 1.87907 0
M  V30 3246 O 299.576 -1.11794 1.44251 0
M  V30 3247 C 299.627 1.99829 3.01248 0
M  V30 3248 O 299.348 3.37575 2.79239 0
M  V30 3249 C 300.849 1.99852 3.95694 0
M  V30 3250 H 298.069 0.431599 0.513773 0
M  V30 3251 H 300.613 1.73901 1.07604 0
M  V30 3252 H 298.768 1.54668 3.55185 0
M  V30 3253 H 299.182 3.75776 3.65914 0
M  V30 3254 H 300.656 2.56709 4.88676 0
M  V30 3255 H 301.133 0.982852 4.28062 0
M  V30 3256 H 301.739 2.44926 3.47694 0
M  V30 3257 N 300.054 -1.07777 1.14986 0
M  V30 3258 C 301.279 -1.84558 0.946213 0
M  V30 3259 C 301.704 -1.81323 -0.500362 0
M  V30 3260 O 301.062 -1.20301 -1.35637 0
M  V30 3261 C 301.11 -3.29736 1.45968 0
M  V30 3262 O 300.214 -4.07149 0.65601 0
M  V30 3263 H 299.555 -0.571641 0.33782 0
M  V30 3264 H 302.085 -1.35991 1.52865 0
M  V30 3265 H 302.095 -3.80574 1.47063 0
M  V30 3266 H 300.77 -3.31406 2.51283 0
M  V30 3267 H 299.347 -3.65994 0.714322 0
M  V30 3268 N 301.532 -0.945985 -1.26051 0
M  V30 3269 C 302.781 -0.591836 -1.92822 0
M  V30 3270 C 303.094 0.873956 -1.7499 0
M  V30 3271 O 304.3 1.33769 -2.36259 0
M  V30 3272 C 302.756 -1.00776 -3.45503 0
M  V30 3273 C 302.364 -2.4955 -3.7206 0
M  V30 3274 C 304.108 -0.725735 -4.1825 0
M  V30 3275 C 302.015 -2.84988 -5.18205 0
M  V30 3276 H 300.945 -0.217635 -0.721908 0
M  V30 3277 H 303.596 -1.14927 -1.43052 0
M  V30 3278 H 301.978 -0.378812 -3.94184 0
M  V30 3279 H 303.152 -3.1739 -3.34066 0
M  V30 3280 H 301.467 -2.75133 -3.12555 0
M  V30 3281 H 304.064 -0.966771 -5.25887 0
M  V30 3282 H 304.407 0.337639 -4.14929 0
M  V30 3283 H 304.94 -1.31463 -3.7545 0
M  V30 3284 H 301.679 -3.90307 -5.26631 0
M  V30 3285 H 301.199 -2.21813 -5.57278 0
M  V30 3286 H 302.878 -2.73712 -5.86252 0
M  V30 3287 N 303.011 1.40521 -0.713556 0
M  V30 3288 C 304.258 2.00923 -0.25219 0
M  V30 3289 C 304.586 1.56571 1.15395 0
M  V30 3290 O 303.841 0.775874 1.79663 0
M  V30 3291 C 304.14 3.56317 -0.278 0
M  V30 3292 C 303.806 4.20246 -1.63415 0
M  V30 3293 C 302.468 4.37422 -2.00538 0
M  V30 3294 C 304.82 4.55923 -2.52554 0
M  V30 3295 C 302.148 4.87558 -3.2635 0
M  V30 3296 C 304.5 5.07458 -3.77716 0
M  V30 3297 C 303.164 5.22843 -4.14959 0
M  V30 3298 H 302.434 0.735231 -0.0922829 0
M  V30 3299 H 305.081 1.68161 -0.916188 0
M  V30 3300 H 303.386 3.88976 0.469567 0
M  V30 3301 H 305.083 4.00883 0.0967819 0
M  V30 3302 H 301.673 4.07263 -1.33546 0
M  V30 3303 H 305.857 4.42291 -2.25149 0
M  V30 3304 H 301.113 4.97654 -3.55176 0
M  V30 3305 H 305.287 5.34041 -4.4696 0
M  V30 3306 H 302.914 5.61454 -5.12516 0
M  V30 3307 N 304.489 0.459591 1.5075 0
M  V30 3308 C 305.421 -0.37665 2.26084 0
M  V30 3309 C 306.434 -0.967109 1.30961 0
M  V30 3310 O 307.623 -0.857468 1.56556 0
M  V30 3311 C 304.723 -1.54112 3.01832 0
M  V30 3312 C 303.896 -1.06553 4.24223 0
M  V30 3313 C 302.955 -2.1027 4.82362 0
M  V30 3314 O 301.981 -1.68798 5.43595 0
M  V30 3315 N 303.183 -3.42974 4.68347 0
M  V30 3316 H 305.948 0.269124 2.98489 0
M  V30 3317 H 303.509 0.28972 1.59287 0
M  V30 3318 H 305.501 -2.23165 3.37608 0
M  V30 3319 H 304.071 -2.0918 2.32298 0
M  V30 3320 H 303.291 -0.201274 3.93686 0
M  V30 3321 H 304.579 -0.725516 5.03601 0
M  V30 3322 H 303.977 -3.79385 4.19623 0
M  V30 3323 H 302.534 -4.07858 5.08424 0
M  V30 3324 N 305.967 -1.56429 0.191757 0
M  V30 3325 C 306.897 -2.21937 -0.725696 0
M  V30 3326 C 307.878 -1.1814 -1.2238 0
M  V30 3327 O 309.063 -1.46636 -1.27325 0
M  V30 3328 C 306.193 -2.87611 -1.94672 0
M  V30 3329 C 305.147 -3.97623 -1.58366 0
M  V30 3330 C 304.473 -4.50446 -2.88102 0
M  V30 3331 C 305.773 -5.16197 -0.796133 0
M  V30 3332 H 307.467 -2.98861 -0.179606 0
M  V30 3333 H 305.013 -1.43749 -0.0849464 0
M  V30 3334 H 306.966 -3.3212 -2.59373 0
M  V30 3335 H 305.69 -2.08087 -2.51728 0
M  V30 3336 H 304.349 -3.53801 -0.960247 0
M  V30 3337 H 303.997 -3.67688 -3.43241 0
M  V30 3338 H 303.697 -5.24675 -2.64556 0
M  V30 3339 H 305.221 -4.97654 -3.53798 0
M  V30 3340 H 306.635 -5.57271 -1.34618 0
M  V30 3341 H 305.032 -5.96471 -0.658928 0
M  V30 3342 H 306.102 -4.84473 0.203478 0
M  V30 3343 N 307.445 0.0818655 -1.57387 0
M  V30 3344 C 308.691 0.784074 -1.8703 0
M  V30 3345 C 309.024 1.77729 -0.782689 0
M  V30 3346 O 308.299 1.93384 0.208051 0
M  V30 3347 C 308.582 1.50105 -3.27323 0
M  V30 3348 C 308.435 0.524925 -4.46727 0
M  V30 3349 C 309.754 2.44843 -3.65705 0
M  V30 3350 H 306.873 0.283582 -0.680257 0
M  V30 3351 H 309.515 0.0474352 -1.89941 0
M  V30 3352 H 307.665 2.12897 -3.24972 0
M  V30 3353 H 309.337 -0.0970111 -4.61198 0
M  V30 3354 H 307.58 -0.160606 -4.33503 0
M  V30 3355 H 308.251 1.064 -5.41648 0
M  V30 3356 H 310.727 1.92135 -3.69085 0
M  V30 3357 H 309.603 2.92018 -4.64776 0
M  V30 3358 H 309.864 3.29197 -2.95096 0
M  V30 3359 N 308.923 1.53595 0.353017 0
M  V30 3360 C 310.148 1.7462 1.11904 0
M  V30 3361 C 310.573 0.479721 1.8188 0
M  V30 3362 O 309.931 -0.567066 1.72204 0
M  V30 3363 C 309.979 2.92029 2.11545 0
M  V30 3364 O 309.083 2.61516 3.18878 0
M  V30 3365 H 308.424 0.579531 0.324099 0
M  V30 3366 H 310.954 2.00525 0.406301 0
M  V30 3367 H 310.964 3.18551 2.5493 0
M  V30 3368 H 309.639 3.83888 1.60008 0
M  V30 3369 H 308.216 2.45852 2.80377 0
M  V30 3370 N 310.401 -0.613514 1.45168 0
M  V30 3371 C 311.331 -1.7354 1.56225 0
M  V30 3372 C 312.312 -1.64981 0.41414 0
M  V30 3373 O 313.497 -1.83472 0.636526 0
M  V30 3374 C 310.627 -3.12128 1.52295 0
M  V30 3375 C 309.581 -3.35491 2.65762 0
M  V30 3376 C 308.907 -4.74291 2.46885 0
M  V30 3377 C 310.207 -3.26325 4.0781 0
M  V30 3378 H 311.901 -1.64543 2.50132 0
M  V30 3379 H 309.447 -0.790185 1.20383 0
M  V30 3380 H 311.4 -3.90404 1.58628 0
M  V30 3381 H 310.124 -3.2195 0.549139 0
M  V30 3382 H 308.783 -2.59603 2.58847 0
M  V30 3383 H 308.431 -4.80839 1.47657 0
M  V30 3384 H 308.131 -4.9088 3.22972 0
M  V30 3385 H 309.655 -5.54775 2.55063 0
M  V30 3386 H 311.069 -3.94483 4.16 0
M  V30 3387 H 309.466 -3.54445 4.8424 0
M  V30 3388 H 310.536 -2.23855 4.30136 0
M  V30 3389 N 311.879 -1.3236 -0.855495 0
M  V30 3390 C 313.128 -1.22226 -1.60448 0
M  V30 3391 C 313.441 0.214733 -1.94418 0
M  V30 3392 O 314.647 0.437917 -2.67945 0
M  V30 3393 C 313.103 -2.14063 -2.89318 0
M  V30 3394 C 312.711 -3.62839 -2.62777 0
M  V30 3395 C 314.455 -2.12764 -3.67331 0
M  V30 3396 C 312.362 -4.4664 -3.87643 0
M  V30 3397 H 311.292 -0.453904 -0.602069 0
M  V30 3398 H 313.943 -1.57314 -0.944698 0
M  V30 3399 H 312.325 -1.71889 -3.5675 0
M  V30 3400 H 313.499 -4.1335 -2.03662 0
M  V30 3401 H 311.814 -3.66261 -1.98096 0
M  V30 3402 H 314.411 -2.72611 -4.59987 0
M  V30 3403 H 314.754 -1.11841 -4.00995 0
M  V30 3404 H 315.287 -2.53214 -3.06802 0
M  V30 3405 H 312.026 -5.48373 -3.5912 0
M  V30 3406 H 311.546 -4.0088 -4.46156 0
M  V30 3407 H 313.225 -4.59597 -4.55389 0
M  V30 3408 N 313.357 1.07166 -1.15556 0
M  V30 3409 C 314.287 2.16403 -0.877046 0
M  V30 3410 C 315.268 1.69217 0.173111 0
M  V30 3411 O 316.453 1.94181 0.027084 0
M  V30 3412 C 313.583 3.45349 -0.367632 0
M  V30 3413 C 312.537 4.05995 -1.35468 0
M  V30 3414 C 311.863 5.30045 -0.704038 0
M  V30 3415 C 313.163 4.45804 -2.72132 0
M  V30 3416 H 314.857 2.39959 -1.79053 0
M  V30 3417 H 312.403 1.15325 -0.862331 0
M  V30 3418 H 314.356 4.21095 -0.160317 0
M  V30 3419 H 313.08 3.21385 0.581326 0
M  V30 3420 H 311.739 3.32296 -1.54839 0
M  V30 3421 H 311.387 5.02373 0.251128 0
M  V30 3422 H 311.087 5.71579 -1.36277 0
M  V30 3423 H 312.611 6.08495 -0.50654 0
M  V30 3424 H 314.025 5.12671 -2.56595 0
M  V30 3425 H 312.422 4.98296 -3.34397 0
M  V30 3426 H 313.492 3.57083 -3.28054 0
M  V30 3427 N 314.835 0.952656 1.25548 0
M  V30 3428 C 315.782 0.47008 2.25962 0
M  V30 3429 C 316.752 -0.476384 1.59122 0
M  V30 3430 O 317.937 -0.39007 1.8677 0
M  V30 3431 C 315.077 -0.247881 3.44209 0
M  V30 3432 C 314.19 0.735591 4.25691 0
M  V30 3433 C 313.325 -0.0047306 5.312 0
M  V30 3434 C 312.364 0.969805 6.04368 0
M  V30 3435 N 311.501 0.260486 7.01617 0
M  V30 3436 H 316.341 1.33126 2.66611 0
M  V30 3437 H 313.878 0.66765 1.31076 0
M  V30 3438 H 315.836 -0.680695 4.1161 0
M  V30 3439 H 314.466 -1.07312 3.0444 0
M  V30 3440 H 313.518 1.28689 3.57971 0
M  V30 3441 H 314.83 1.47934 4.76358 0
M  V30 3442 H 313.984 -0.496275 6.04667 0
M  V30 3443 H 312.723 -0.781282 4.81401 0
M  V30 3444 H 311.728 1.47237 5.29718 0
M  V30 3445 H 312.953 1.74655 6.56256 0
M  V30 3446 H 310.899 -0.497364 6.54112 0
M  V30 3447 H 310.816 0.943362 7.50091 0
M  V30 3448 H 312.084 -0.209587 7.79218 0
M  V30 3449 N 316.313 -1.40141 0.720998 0
M  V30 3450 C 317.59 -1.94677 0.189757 0
M  V30 3451 C 317.97 -1.65879 -1.30566 0
M  V30 3452 O 317.318 -0.979391 -2.06447 0
M  V30 3453 C 317.528 -3.45279 0.508304 0
M  V30 3454 C 318.876 -4.22209 0.449934 0
M  V30 3455 O 319.9 -3.53413 0.444677 0
M  V30 3456 O 318.759 -5.44788 0.432189 0
M  V30 3457 H 315.853 -0.826459 0.0299026 0
M  V30 3458 H 318.399 -1.49719 0.7989 0
M  V30 3459 H 317.171 -3.59619 1.54239 0
M  V30 3460 H 316.794 -3.97386 -0.130525 0
M  V30 3461 N 317.792 -0.46758 -1.50504 0
M  V30 3462 C 319.203 -0.0116166 -1.86696 0
M  V30 3463 C 319.554 1.39202 -1.38265 0
M  V30 3464 O 318.679 2.0313 -0.746132 0
M  V30 3465 C 319.274 -0.0143044 -3.38797 0
M  V30 3466 C 317.833 0.386175 -3.74414 0
M  V30 3467 C 316.98 -0.401287 -2.74381 0
M  V30 3468 H 319.931 -0.682022 -1.43297 0
M  V30 3469 H 319.952 0.788641 -3.72237 0
M  V30 3470 H 319.464 -1.03602 -3.74016 0
M  V30 3471 H 317.565 1.41237 -3.44794 0
M  V30 3472 H 317.678 0.0899596 -4.79016 0
M  V30 3473 H 316.042 0.144536 -2.5429 0
M  V30 3474 H 316.825 -1.42244 -3.12444 0
M  V30 3475 N 319.27 1.56325 -0.20005 0
M  V30 3476 C 320.516 1.98012 0.438059 0
M  V30 3477 C 320.849 1.08702 1.60927 0
M  V30 3478 O 320.124 0.140064 1.93995 0
M  V30 3479 C 320.407 3.48841 0.893419 0
M  V30 3480 C 320.26 4.48928 -0.279947 0
M  V30 3481 C 321.579 4.03498 1.75719 0
M  V30 3482 H 318.698 0.719918 0.157757 0
M  V30 3483 H 321.34 1.87743 -0.291968 0
M  V30 3484 H 319.49 3.57723 1.51547 0
M  V30 3485 H 321.162 4.52079 -0.91772 0
M  V30 3486 H 319.405 4.23694 -0.930919 0
M  V30 3487 H 320.076 5.5194 0.0812601 0
M  V30 3488 H 322.552 3.97427 1.23253 0
M  V30 3489 H 321.428 5.09393 2.04476 0
M  V30 3490 H 321.689 3.4906 2.71311 0
M  V30 3491 N 320.748 -0.0735177 1.57428 0
M  V30 3492 C 322.164 -0.428264 1.53747 0
M  V30 3493 C 322.364 -1.79272 0.91998 0
M  V30 3494 O 321.42 -2.47051 0.521745 0
M  V30 3495 C 322.733 -0.370914 2.98404 0
M  V30 3496 C 324.281 -0.451224 3.0973 0
M  V30 3497 C 324.756 -0.4238 4.56035 0
M  V30 3498 N 326.247 -0.483925 4.60665 0
M  V30 3499 C 326.982 -0.484891 5.71346 0
M  V30 3500 N 326.478 -0.440775 6.91396 0
M  V30 3501 N 328.271 -0.531319 5.59583 0
M  V30 3502 H 320.422 0.819949 1.95935 0
M  V30 3503 H 322.685 0.307493 0.896745 0
M  V30 3504 H 322.391 0.564956 3.47133 0
M  V30 3505 H 322.265 -1.18176 3.5821 0
M  V30 3506 H 324.652 -1.37752 2.60976 0
M  V30 3507 H 324.733 0.388167 2.52838 0
M  V30 3508 H 324.377 0.498638 5.05446 0
M  V30 3509 H 324.307 -1.2807 5.10789 0
M  V30 3510 H 326.798 -0.522338 3.74273 0
M  V30 3511 H 327.111 -0.44539 7.71515 0
M  V30 3512 H 325.456 -0.40749 6.93804 0
M  V30 3513 H 328.647 -0.563464 4.64696 0
M  V30 3514 H 328.82 -0.528603 6.4584 0
M  V30 3515 N 322.226 -1.5378 -0.344866 0
M  V30 3516 C 323.472 -1.72158 -1.0832 0
M  V30 3517 C 323.827 -0.478218 -1.86362 0
M  V30 3518 O 323.12 0.529152 -1.84148 0
M  V30 3519 C 323.314 -2.92407 -2.05506 0
M  V30 3520 C 323.143 -4.28318 -1.37017 0
M  V30 3521 C 321.913 -4.92832 -1.11558 0
M  V30 3522 C 324.111 -5.08086 -0.797071 0
M  V30 3523 N 322.093 -6.12619 -0.396358 0
M  V30 3524 C 323.464 -6.1965 -0.208336 0
M  V30 3525 C 325.519 -4.92986 -0.697787 0
M  V30 3526 C 324.222 -7.17763 0.470023 0
M  V30 3527 C 326.248 -5.91391 -0.033171 0
M  V30 3528 C 325.61 -7.02292 0.544599 0
M  V30 3529 H 321.709 -0.683017 -0.380805 0
M  V30 3530 H 324.293 -1.91211 -0.366961 0
M  V30 3531 H 322.464 -2.74857 -2.74423 0
M  V30 3532 H 324.196 -2.9951 -2.72169 0
M  V30 3533 H 320.951 -4.52362 -1.40234 0
M  V30 3534 H 321.375 -6.7698 -0.0515119 0
M  V30 3535 H 326.017 -4.07414 -1.13022 0
M  V30 3536 H 323.735 -8.0291 0.914351 0
M  V30 3537 H 327.321 -5.81784 0.0430009 0
M  V30 3538 H 326.201 -7.77129 1.05073 0
M  V30 3539 N 323.704 0.605807 -1.45491 0
M  V30 3540 C 325.115 1.18777 -1.44045 0
M  V30 3541 C 325.466 1.95471 -0.169001 0
M  V30 3542 O 324.591 2.0374 0.729324 0
M  V30 3543 C 325.186 2.16064 -2.60963 0
M  V30 3544 C 323.745 2.69633 -2.62631 0
M  V30 3545 C 322.892 1.45072 -2.36325 0
M  V30 3546 H 325.843 0.395017 -1.53705 0
M  V30 3547 H 325.864 2.9913 -2.35163 0
M  V30 3548 H 325.376 1.60217 -3.53486 0
M  V30 3549 H 323.477 3.29414 -1.74119 0
M  V30 3550 H 323.59 3.13944 -3.61906 0
M  V30 3551 H 321.954 1.74089 -1.85917 0
M  V30 3552 H 322.737 0.910899 -3.30995 0
M  V30 3553 N 325.182 1.32811 0.848464 0
M  V30 3554 C 326.407 1.26882 1.6406 0
M  V30 3555 C 326.832 -0.15913 1.87426 0
M  V30 3556 O 326.19 -1.11258 1.43148 0
M  V30 3557 C 326.238 2.03997 2.97351 0
M  V30 3558 O 325.342 1.39201 3.88197 0
M  V30 3559 H 324.683 0.436982 0.499943 0
M  V30 3560 H 327.213 1.75224 1.0563 0
M  V30 3561 H 327.223 2.14403 3.47124 0
M  V30 3562 H 325.898 3.0783 2.79666 0
M  V30 3563 H 324.475 1.37381 3.46671 0
M  V30 3564 N 326.66 -1.06551 1.16123 0
M  V30 3565 C 327.888 -1.83005 0.965237 0
M  V30 3566 C 328.303 -1.82423 -0.486542 0
M  V30 3567 O 327.66 -1.24152 -1.33763 0
M  V30 3568 C 327.711 -3.29733 1.48183 0
M  V30 3569 O 327.432 -3.30416 2.87674 0
M  V30 3570 C 328.933 -4.22926 1.32848 0
M  V30 3571 H 326.153 -0.577118 0.342309 0
M  V30 3572 H 328.697 -1.3445 1.54089 0
M  V30 3573 H 326.852 -3.75609 0.948517 0
M  V30 3574 H 327.266 -4.22149 3.11272 0
M  V30 3575 H 328.74 -5.23916 1.73827 0
M  V30 3576 H 329.217 -4.38346 0.273692 0
M  V30 3577 H 329.823 -3.82894 1.85127 0
M  V30 3578 N 328.138 -0.959301 -1.25041 0
M  V30 3579 C 329.387 -0.612254 -1.92183 0
M  V30 3580 C 329.7 0.855347 -1.75907 0
M  V30 3581 O 330.906 1.31256 -2.37664 0
M  V30 3582 C 329.362 -1.04435 -3.44414 0
M  V30 3583 C 328.97 -2.53482 -3.69393 0
M  V30 3584 C 330.714 -0.770055 -4.17457 0
M  V30 3585 C 328.621 -2.90468 -5.15153 0
M  V30 3586 H 327.551 -0.225279 -0.719559 0
M  V30 3587 H 330.202 -1.16438 -1.41825 0
M  V30 3588 H 328.584 -0.4206 -3.9376 0
M  V30 3589 H 329.758 -3.20916 -3.30681 0
M  V30 3590 H 328.073 -2.78432 -3.0962 0
M  V30 3591 H 330.67 -1.02249 -5.24832 0
M  V30 3592 H 331.013 0.293611 -4.15263 0
M  V30 3593 H 331.546 -1.35437 -3.74034 0
M  V30 3594 H 328.285 -3.95871 -5.22462 0
M  V30 3595 H 327.805 -2.27711 -5.54894 0
M  V30 3596 H 329.484 -2.79914 -5.83315 0
M  V30 3597 N 329.616 1.39756 -0.72842 0
M  V30 3598 C 330.841 2.05472 -0.282159 0
M  V30 3599 C 331.266 1.54549 1.07221 0
M  V30 3600 O 330.624 0.686372 1.67805 0
M  V30 3601 C 330.672 3.59462 -0.286264 0
M  V30 3602 O 329.776 4.05918 0.728298 0
M  V30 3603 H 329.117 0.651226 -0.129618 0
M  V30 3604 H 331.647 1.78915 -0.992499 0
M  V30 3605 H 331.657 4.07798 -0.128373 0
M  V30 3606 H 330.332 3.95889 -1.27456 0
M  V30 3607 H 328.909 3.69012 0.537081 0
M  V30 3608 N 331.094 0.475555 1.50254 0
M  V30 3609 C 332.505 0.0215174 1.86688 0
M  V30 3610 C 332.856 -1.38467 1.39001 0
M  V30 3611 O 331.981 -2.02732 0.756894 0
M  V30 3612 C 332.576 0.0322715 3.38785 0
M  V30 3613 C 331.135 -0.366314 3.74613 0
M  V30 3614 C 330.282 0.415832 2.74164 0
M  V30 3615 H 333.233 0.689612 1.42934 0
M  V30 3616 H 333.254 -0.76889 3.7265 0
M  V30 3617 H 332.766 1.05584 3.73462 0
M  V30 3618 H 330.867 -1.39406 3.45538 0
M  V30 3619 H 330.98 -0.064555 4.79057 0
M  V30 3620 H 329.344 -0.131048 2.54363 0
M  V30 3621 H 330.127 1.43899 3.11686 0
M  V30 3622 N 332.573 -1.56217 0.208337 0
M  V30 3623 C 333.813 -1.99849 -0.428927 0
M  V30 3624 C 334.177 -1.09262 -1.57879 0
M  V30 3625 O 335.378 -1.42185 -2.28116 0
M  V30 3626 C 333.649 -3.46777 -0.864879 0
M  V30 3627 S 335.208 -4.12434 -1.49811 0
M  V30 3628 H 332.026 -0.697742 -0.136665 0
M  V30 3629 H 334.628 -1.92953 0.314519 0
M  V30 3630 H 333.332 -4.10396 -0.0181326 0
M  V30 3631 H 332.863 -3.57518 -1.64147 0
M  V30 3632 H 334.878 -4.10532 -2.78707 0
M  V30 3633 N 334.051 0.0651679 -1.57465 0
M  V30 3634 C 335.298 0.763063 -1.87573 0
M  V30 3635 C 335.626 1.77242 -0.800961 0
M  V30 3636 O 334.881 1.94651 0.202316 0
M  V30 3637 C 335.18 1.50081 -3.24362 0
M  V30 3638 C 334.846 0.630816 -4.46466 0
M  V30 3639 C 333.508 0.391082 -4.79608 0
M  V30 3640 C 335.86 0.0279465 -5.21193 0
M  V30 3641 C 333.188 -0.460894 -5.84887 0
M  V30 3642 C 335.54 -0.811522 -6.27373 0
M  V30 3643 C 334.204 -1.06106 -6.59013 0
M  V30 3644 H 333.474 0.279224 -0.686378 0
M  V30 3645 H 336.121 0.0236726 -1.91485 0
M  V30 3646 H 334.426 2.31258 -3.16271 0
M  V30 3647 H 336.123 2.04571 -3.44894 0
M  V30 3648 H 332.713 0.8278 -4.2053 0
M  V30 3649 H 336.897 0.200262 -4.95896 0
M  V30 3650 H 332.153 -0.662907 -6.07796 0
M  V30 3651 H 336.327 -1.28537 -6.84435 0
M  V30 3652 H 333.954 -1.723 -7.40417 0
M  V30 3653 N 335.529 1.53961 0.336706 0
M  V30 3654 C 336.476 1.82428 1.41381 0
M  V30 3655 C 337.446 0.670444 1.51968 0
M  V30 3656 O 338.631 0.915565 1.67398 0
M  V30 3657 C 335.771 2.04564 2.77934 0
M  V30 3658 C 334.884 3.32267 2.76084 0
M  V30 3659 C 334.019 3.44434 4.04399 0
M  V30 3660 C 333.058 4.66061 3.96804 0
M  V30 3661 N 332.195 4.75224 5.16823 0
M  V30 3662 H 337.035 2.74324 1.16405 0
M  V30 3663 H 334.572 1.35869 0.563752 0
M  V30 3664 H 336.53 2.15388 3.57301 0
M  V30 3665 H 335.16 1.15974 3.01247 0
M  V30 3666 H 334.212 3.3025 1.88784 0
M  V30 3667 H 335.524 4.21733 2.66351 0
M  V30 3668 H 334.678 3.54728 4.92192 0
M  V30 3669 H 333.417 2.53037 4.16921 0
M  V30 3670 H 332.422 4.55838 3.07396 0
M  V30 3671 H 333.647 5.58829 3.85858 0
M  V30 3672 H 331.593 3.86739 5.29876 0
M  V30 3673 H 331.51 5.58636 5.09374 0
M  V30 3674 H 332.778 4.89835 6.06367 0
M  V30 3675 N 337.007 -0.598083 1.45811 0
M  V30 3676 C 337.955 -1.72932 1.55555 0
M  V30 3677 C 338.949 -1.63984 0.424921 0
M  V30 3678 O 340.155 -1.69663 0.601205 0
M  V30 3679 H 336.53 -0.571489 0.488779 0
M  V30 3680 H 338.501 -1.61842 2.50699 0
M  V30 3681 C 337.25 -3.11318 1.54843 0
M  V30 3682 H 336.573 -3.18867 2.41172 0
M  V30 3683 H 338.013 -3.90274 1.65717 0
M  V30 3684 C 336.472 -3.3578 0.274427 0
M  V30 3685 O 337.002 -3.9654 -0.641778 0
M  V30 3686 N 335.208 -2.90119 0.167139 0
M  V30 3687 H 334.755 -2.40855 0.913596 0
M  V30 3688 H 334.713 -3.0686 -0.684435 0
M  V30 3689 N 338.485 -1.33259 -0.841409 0
M  V30 3690 C 339.732 -1.24572 -1.5965 0
M  V30 3691 C 340.06 0.189137 -1.93578 0
M  V30 3692 O 339.315 1.14566 -1.5866 0
M  V30 3693 C 339.614 -2.06381 -2.9179 0
M  V30 3694 C 339.28 -3.556 -2.77235 0
M  V30 3695 C 337.942 -3.96282 -2.72973 0
M  V30 3696 C 340.294 -4.50433 -2.62221 0
M  V30 3697 C 337.622 -5.30017 -2.51592 0
M  V30 3698 C 339.974 -5.84327 -2.42374 0
M  V30 3699 C 338.638 -6.24194 -2.36512 0
M  V30 3700 H 337.908 -0.455842 -0.5842 0
M  V30 3701 H 340.555 -1.6482 -0.975016 0
M  V30 3702 H 338.86 -1.58903 -3.5813 0
M  V30 3703 H 340.557 -1.97019 -3.49263 0
M  V30 3704 H 337.147 -3.23298 -2.81384 0
M  V30 3705 H 341.331 -4.19914 -2.64549 0
M  V30 3706 H 336.587 -5.59947 -2.45499 0
M  V30 3707 H 340.761 -6.57414 -2.29739 0
M  V30 3708 H 338.388 -7.27759 -2.19706 0
M  V30 3709 N 339.963 1.05934 -1.16686 0
M  V30 3710 C 340.893 2.1546 -0.899949 0
M  V30 3711 C 341.874 1.69391 0.155154 0
M  V30 3712 O 343.059 1.94199 0.00648693 0
M  V30 3713 C 340.189 3.44939 -0.404241 0
M  V30 3714 C 339.143 4.04536 -1.39767 0
M  V30 3715 C 338.469 5.29268 -0.760216 0
M  V30 3716 C 339.769 4.42893 -2.76845 0
M  V30 3717 H 341.463 2.38046 -1.81588 0
M  V30 3718 H 339.009 1.14404 -0.874514 0
M  V30 3719 H 340.962 4.20901 -0.204971 0
M  V30 3720 H 339.686 3.21983 0.547206 0
M  V30 3721 H 338.345 3.30635 -1.58355 0
M  V30 3722 H 337.993 5.02611 0.197831 0
M  V30 3723 H 337.693 5.70101 -1.42332 0
M  V30 3724 H 339.217 6.07924 -0.57105 0
M  V30 3725 H 340.631 5.09921 -2.62019 0
M  V30 3726 H 339.028 4.94721 -3.39663 0
M  V30 3727 H 340.098 3.53584 -3.31823 0
M  V30 3728 N 341.441 0.965919 1.2453 0
M  V30 3729 C 342.373 0.452465 2.2469 0
M  V30 3730 C 343.386 -0.437821 1.56802 0
M  V30 3731 O 344.575 -0.244283 1.76821 0
M  V30 3732 C 341.675 -0.366258 3.36915 0
M  V30 3733 C 340.848 0.513701 4.34373 0
M  V30 3734 C 339.907 -0.248716 5.25612 0
M  V30 3735 O 338.933 0.356745 5.68081 0
M  V30 3736 N 340.135 -1.53877 5.59734 0
M  V30 3737 H 342.9 1.31361 2.69378 0
M  V30 3738 H 340.461 0.837541 1.38553 0
M  V30 3739 H 342.453 -0.884297 3.94921 0
M  V30 3740 H 341.023 -1.12832 2.91526 0
M  V30 3741 H 340.243 1.21273 3.75082 0
M  V30 3742 H 341.531 1.11391 4.96457 0
M  V30 3743 H 340.929 -2.05243 5.27154 0
M  V30 3744 H 339.486 -2.00254 6.20275 0
M  V30 3745 N 342.919 -1.39368 0.735821 0
M  V30 3746 C 344.167 -2.00101 0.283562 0
M  V30 3747 C 344.488 -1.5868 -1.13338 0
M  V30 3748 O 343.758 -0.835423 -1.77193 0
M  V30 3749 H 342.338 -0.740024 0.101851 0
M  V30 3750 H 345 -1.70404 0.945962 0
M  V30 3751 H 344.096 -3.10323 0.332604 0
M  V30 3752 N 344.397 -0.483516 -1.5 0
M  V30 3753 C 345.327 0.293829 -2.31644 0
M  V30 3754 C 346.308 0.978864 -1.39112 0
M  V30 3755 O 347.493 0.973644 -1.68029 0
M  V30 3756 C 344.623 1.36897 -3.19181 0
M  V30 3757 C 343.577 0.804833 -4.20365 0
M  V30 3758 C 342.903 1.9792 -4.96721 0
M  V30 3759 C 344.203 -0.192313 -5.21946 0
M  V30 3760 H 345.897 -0.387616 -2.9688 0
M  V30 3761 H 343.443 -0.187856 -1.42769 0
M  V30 3762 H 345.396 1.92037 -3.751 0
M  V30 3763 H 344.12 2.07936 -2.51853 0
M  V30 3764 H 342.779 0.275319 -3.65565 0
M  V30 3765 H 342.427 2.67686 -4.25856 0
M  V30 3766 H 342.127 1.60789 -5.65173 0
M  V30 3767 H 343.651 2.53526 -5.55479 0
M  V30 3768 H 345.065 0.270333 -5.72662 0
M  V30 3769 H 343.462 -0.478543 -5.98189 0
M  V30 3770 H 344.532 -1.11409 -4.71928 0
M  V30 3771 N 345.875 1.56104 -0.216619 0
M  V30 3772 C 346.805 2.23063 0.690296 0
M  V30 3773 C 347.786 1.20072 1.20485 0
M  V30 3774 O 348.971 1.48643 1.24976 0
M  V30 3775 C 346.101 2.90672 1.90072 0
M  V30 3776 C 345.055 4.00092 1.5202 0
M  V30 3777 C 344.381 4.54972 2.80899 0
M  V30 3778 C 345.681 5.17398 0.71391 0
M  V30 3779 H 347.375 2.99109 0.132038 0
M  V30 3780 H 344.921 1.43866 0.0620664 0
M  V30 3781 H 346.874 3.36204 2.54057 0
M  V30 3782 H 345.598 2.12066 2.48386 0
M  V30 3783 H 344.257 3.55283 0.903839 0
M  V30 3784 H 343.905 3.73102 3.37348 0
M  V30 3785 H 343.605 5.28817 2.56176 0
M  V30 3786 H 345.129 5.0322 3.45836 0
M  V30 3787 H 346.543 5.59342 1.25735 0
M  V30 3788 H 344.94 5.97444 0.563951 0
M  V30 3789 H 346.01 4.84088 -0.280527 0
M  V30 3790 N 347.353 -0.0568162 1.57498 0
M  V30 3791 C 348.581 -0.765626 1.92213 0
M  V30 3792 C 348.996 -1.70353 0.813961 0
M  V30 3793 O 348.353 -1.81268 -0.211701 0
M  V30 3794 C 348.404 -1.5465 3.2675 0
M  V30 3795 O 348.125 -0.646278 4.33307 0
M  V30 3796 C 349.626 -2.35497 3.75574 0
M  V30 3797 H 346.846 -0.216835 0.634999 0
M  V30 3798 H 349.39 -0.0226146 2.04487 0
M  V30 3799 H 347.545 -2.24165 3.15957 0
M  V30 3800 H 347.959 -1.19093 5.108 0
M  V30 3801 H 349.433 -2.85722 4.72299 0
M  V30 3802 H 349.91 -3.15692 3.05344 0
M  V30 3803 H 350.516 -1.7111 3.8936 0
M  V30 3804 N 348.832 -1.54138 -0.328536 0
M  V30 3805 C 349.779 -1.83176 -1.40411 0
M  V30 3806 C 350.749 -0.678494 -1.5161 0
M  V30 3807 O 351.934 -0.92443 -1.6691 0
M  V30 3808 C 349.074 -2.06035 -2.76846 0
M  V30 3809 C 348.187 -3.33727 -2.74318 0
M  V30 3810 C 347.322 -3.46574 -4.02567 0
M  V30 3811 C 346.361 -4.68159 -3.94327 0
M  V30 3812 N 345.498 -4.77959 -5.14296 0
M  V30 3813 H 350.338 -2.74938 -1.14948 0
M  V30 3814 H 347.875 -1.36166 -0.556538 0
M  V30 3815 H 349.833 -2.1728 -3.56153 0
M  V30 3816 H 348.463 -1.1757 -3.00628 0
M  V30 3817 H 347.515 -3.31246 -1.8703 0
M  V30 3818 H 348.827 -4.23139 -2.64111 0
M  V30 3819 H 347.981 -3.57333 -4.90304 0
M  V30 3820 H 346.72 -2.55245 -4.15574 0
M  V30 3821 H 345.725 -4.57461 -3.04974 0
M  V30 3822 H 346.95 -5.60868 -3.82889 0
M  V30 3823 H 344.896 -3.89544 -5.27818 0
M  V30 3824 H 344.813 -5.6133 -5.06404 0
M  V30 3825 H 346.081 -4.93044 -6.03761 0
M  V30 3826 N 350.31 0.590341 -1.46126 0
M  V30 3827 C 351.587 1.35029 -1.41515 0
M  V30 3828 C 351.967 2.10888 -0.0946472 0
M  V30 3829 O 351.315 2.08998 0.923693 0
M  V30 3830 C 351.525 2.28269 -2.63997 0
M  V30 3831 C 352.873 2.90338 -3.09821 0
M  V30 3832 O 353.897 2.38585 -2.64492 0
M  V30 3833 O 352.756 3.84321 -3.88535 0
M  V30 3834 H 349.85 0.606317 -0.562413 0
M  V30 3835 H 352.396 0.611994 -1.58281 0
M  V30 3836 H 351.168 1.71591 -3.51671 0
M  V30 3837 H 350.791 3.0945 -2.49652 0
M  V30 3838 N 351.788 1.33704 0.83433 0
M  V30 3839 C 353.199 1.22813 1.4062 0
M  V30 3840 C 353.55 -0.151107 1.95617 0
M  V30 3841 O 352.675 -1.05092 1.89168 0
M  V30 3842 C 353.27 2.22355 2.55624 0
M  V30 3843 C 351.829 2.1529 3.08751 0
M  V30 3844 C 350.976 2.09589 1.8157 0
M  V30 3845 H 353.927 1.45236 0.639702 0
M  V30 3846 H 353.948 1.83391 3.33389 0
M  V30 3847 H 353.46 3.22728 2.15566 0
M  V30 3848 H 351.561 1.18235 3.53343 0
M  V30 3849 H 351.674 3.06038 3.68616 0
M  V30 3850 H 350.038 1.55134 2.02004 0
M  V30 3851 H 350.821 3.11777 1.43701 0
M  V30 3852 N 353.266 -1.05314 1.17247 0
M  V30 3853 C 354.682 -1.30452 0.919473 0
M  V30 3854 C 354.882 -1.9703 -0.42209 0
M  V30 3855 O 353.938 -2.24311 -1.15935 0
M  V30 3856 C 355.251 -2.17551 2.07586 0
M  V30 3857 C 356.799 -2.30937 2.11275 0
M  V30 3858 C 357.274 -3.21396 3.26296 0
M  V30 3859 N 358.765 -3.28981 3.26076 0
M  V30 3860 C 359.5 -3.99095 4.11716 0
M  V30 3861 N 358.996 -4.71648 5.07465 0
M  V30 3862 N 360.789 -3.95247 3.9967 0
M  V30 3863 H 352.94 -0.604988 2.03602 0
M  V30 3864 H 355.203 -0.329368 0.888944 0
M  V30 3865 H 354.909 -1.75921 3.0454 0
M  V30 3866 H 354.783 -3.18182 2.02584 0
M  V30 3867 H 357.17 -2.71809 1.14907 0
M  V30 3868 H 357.251 -1.2994 2.20339 0
M  V30 3869 H 356.895 -2.81238 4.22927 0
M  V30 3870 H 356.825 -4.22395 3.14467 0
M  V30 3871 H 359.316 -2.77286 2.5675 0
M  V30 3872 H 359.629 -5.22705 5.6921 0
M  V30 3873 H 357.974 -4.70594 5.11435 0
M  V30 3874 H 361.165 -3.37691 3.24164 0
M  V30 3875 H 361.338 -4.4962 4.66632 0
M  V30 3876 N 354.744 -0.972509 -1.24016 0
M  V30 3877 C 355.676 -0.464375 -2.24446 0
M  V30 3878 C 356.689 0.4295 -1.57032 0
M  V30 3879 O 357.878 0.234902 -1.76948 0
M  V30 3880 C 354.978 0.348385 -3.37105 0
M  V30 3881 C 354.151 -0.53673 -4.34094 0
M  V30 3882 C 353.21 0.220838 -5.25736 0
M  V30 3883 O 352.236 -0.386867 -5.67884 0
M  V30 3884 N 353.438 1.50907 -5.60542 0
M  V30 3885 H 356.203 -1.32788 -2.68677 0
M  V30 3886 H 353.764 -0.844877 -1.38107 0
M  V30 3887 H 355.756 0.863341 -3.95384 0
M  V30 3888 H 354.326 1.11285 -2.92121 0
M  V30 3889 H 353.546 -1.23261 -3.74433 0
M  V30 3890 H 354.834 -1.14022 -4.95859 0
M  V30 3891 H 354.232 2.02444 -5.28236 0
M  V30 3892 H 352.789 1.96962 -6.21329 0
M  V30 3893 N 356.222 1.38976 -0.743202 0
M  V30 3894 C 357.638 1.53984 -0.419664 0
M  V30 3895 C 357.838 1.70837 1.0685 0
M  V30 3896 O 356.894 1.7135 1.8546 0
M  V30 3897 C 358.207 2.75287 -1.20985 0
M  V30 3898 C 359.755 2.89129 -1.19889 0
M  V30 3899 C 360.23 4.13381 -1.97181 0
M  V30 3900 N 361.721 4.20437 -1.94389 0
M  V30 3901 C 362.456 5.15547 -2.50996 0
M  V30 3902 N 361.952 6.16395 -3.16274 0
M  V30 3903 N 363.745 5.07822 -2.40984 0
M  V30 3904 H 355.896 1.26285 -1.7078 0
M  V30 3905 H 358.159 0.612689 -0.723406 0
M  V30 3906 H 357.865 2.69204 -2.26323 0
M  V30 3907 H 357.739 3.68184 -0.819759 0
M  V30 3908 H 360.126 2.947 -0.153606 0
M  V30 3909 H 360.207 1.97272 -1.62841 0
M  V30 3910 H 359.851 4.08572 -3.01714 0
M  V30 3911 H 359.781 5.04298 -1.51629 0
M  V30 3912 H 362.272 3.48205 -1.46839 0
M  V30 3913 H 362.585 6.85443 -3.56915 0
M  V30 3914 H 360.93 6.16758 -3.20367 0
M  V30 3915 H 364.121 4.27973 -1.89622 0
M  V30 3916 H 364.294 5.81767 -2.85397 0
M  V30 3917 N 357.7 0.491464 1.49741 0
M  V30 3918 C 358.63 -0.28154 2.31796 0
M  V30 3919 C 359.611 -0.971473 1.3963 0
M  V30 3920 O 360.796 -0.964719 1.68543 0
M  V30 3921 C 357.926 -1.35203 3.19902 0
M  V30 3922 C 356.88 -0.782529 4.20786 0
M  V30 3923 C 356.206 -1.95283 4.97764 0
M  V30 3924 C 357.506 0.21999 5.21837 0
M  V30 3925 H 359.2 0.403355 2.96671 0
M  V30 3926 H 356.746 0.195425 1.42668 0
M  V30 3927 H 358.699 -1.90045 3.76113 0
M  V30 3928 H 357.423 -2.06598 2.52953 0
M  V30 3929 H 356.082 -0.255928 3.65706 0
M  V30 3930 H 355.73 -2.65423 4.2727 0
M  V30 3931 H 355.43 -1.57789 5.66018 0
M  V30 3932 H 356.954 -2.50577 5.56816 0
M  V30 3933 H 358.368 -0.23996 5.72798 0
M  V30 3934 H 356.765 0.51026 5.97927 0
M  V30 3935 H 357.835 1.13911 4.7133 0
M  V30 3936 N 359.178 -1.55987 0.224894 0
M  V30 3937 C 360.403 -2.03232 -0.41369 0
M  V30 3938 C 360.828 -1.10359 -1.52323 0
M  V30 3939 O 360.186 -0.092395 -1.81064 0
M  V30 3940 C 360.234 -3.48682 -0.919405 0
M  V30 3941 O 359.338 -3.58947 -2.03054 0
M  V30 3942 H 358.679 -0.657428 -0.0931903 0
M  V30 3943 H 361.209 -2.01679 0.34451 0
M  V30 3944 H 361.219 -3.8907 -1.22835 0
M  V30 3945 H 359.894 -4.15761 -0.107339 0
M  V30 3946 H 358.471 -3.30448 -1.72796 0
M  V30 3947 N 360.656 0.0484629 -1.57525 0
M  V30 3948 C 361.902 0.738854 -1.89506 0
M  V30 3949 C 362.257 1.73989 -0.821319 0
M  V30 3950 O 361.55 1.90825 0.172129 0
M  V30 3951 C 361.744 1.46632 -3.25935 0
M  V30 3952 C 361.573 0.537254 -4.46479 0
M  V30 3953 C 360.343 0.165484 -5.05029 0
M  V30 3954 C 362.541 -0.176085 -5.13998 0
M  V30 3955 N 360.523 -0.766868 -6.09091 0
M  V30 3956 C 361.894 -0.96478 -6.12448 0
M  V30 3957 C 363.949 -0.24509 -4.97296 0
M  V30 3958 C 362.652 -1.8161 -6.95996 0
M  V30 3959 C 364.678 -1.08347 -5.81391 0
M  V30 3960 C 364.04 -1.86014 -6.79395 0
M  V30 3961 H 360.139 0.245067 -0.742608 0
M  V30 3962 H 362.723 -0.000476161 -1.947 0
M  V30 3963 H 360.894 2.17623 -3.21706 0
M  V30 3964 H 362.626 2.10757 -3.45491 0
M  V30 3965 H 359.381 0.523466 -4.70698 0
M  V30 3966 H 359.805 -1.22698 -6.65788 0
M  V30 3967 H 364.447 0.341063 -4.21422 0
M  V30 3968 H 362.165 -2.41313 -7.71229 0
M  V30 3969 H 365.751 -1.14014 -5.70519 0
M  V30 3970 H 364.631 -2.4984 -7.43337 0
M  V30 3971 N 362.134 1.5431 0.320358 0
M  V30 3972 C 363.545 1.63872 0.894594 0
M  V30 3973 C 363.896 0.534847 1.88769 0
M  V30 3974 O 363.021 -0.331732 2.13842 0
M  V30 3975 C 363.616 2.97049 1.62934 0
M  V30 3976 C 362.175 3.08796 2.15226 0
M  V30 3977 C 361.322 2.59456 0.978671 0
M  V30 3978 H 364.273 1.58398 0.0978544 0
M  V30 3979 H 364.294 2.87388 2.49376 0
M  V30 3980 H 363.806 3.7737 0.906302 0
M  V30 3981 H 361.907 2.33156 2.90636 0
M  V30 3982 H 362.02 4.14649 2.40006 0
M  V30 3983 H 360.384 2.1543 1.35875 0
M  V30 3984 H 361.167 3.42237 0.269895 0
M  V30 3985 N 363.613 -0.582584 1.46437 0
M  V30 3986 C 364.89 -1.34276 1.4223 0
M  V30 3987 C 365.27 -2.10835 0.10583 0
M  V30 3988 O 364.618 -2.09485 -0.912596 0
M  V30 3989 C 364.828 -2.26865 2.65204 0
M  V30 3990 C 366.176 -2.88691 3.11356 0
M  V30 3991 O 367.2 -2.37178 2.65753 0
M  V30 3992 O 366.059 -3.82255 3.90568 0
M  V30 3993 H 363.153 -0.603326 0.565621 0
M  V30 3994 H 365.699 -0.603591 1.58603 0
M  V30 3995 H 364.471 -1.69724 3.52576 0
M  V30 3996 H 364.094 -3.08122 2.5129 0
M  V30 3997 N 365.091 -1.34144 -0.827227 0
M  V30 3998 C 366.021 -1.28005 -1.95287 0
M  V30 3999 C 367.002 -0.158321 -1.69362 0
M  V30 4000 O 368.187 -0.349987 -1.9102 0
M  V30 4001 C 365.317 -1.03036 -3.31664 0
M  V30 4002 C 364.271 -2.11628 -3.72019 0
M  V30 4003 C 363.597 -1.71854 -5.0633 0
M  V30 4004 C 364.897 -3.53417 -3.8457 0
M  V30 4005 H 366.591 -2.22187 -2.00682 0
M  V30 4006 H 364.137 -1.0696 -0.964135 0
M  V30 4007 H 366.09 -0.973863 -4.09993 0
M  V30 4008 H 364.814 -0.0529391 -3.26557 0
M  V30 4009 H 363.473 -2.16339 -2.95961 0
M  V30 4010 H 363.121 -0.727841 -4.97706 0
M  V30 4011 H 362.821 -2.44531 -5.34302 0
M  V30 4012 H 364.345 -1.67692 -5.87122 0
M  V30 4013 H 365.759 -3.51142 -4.5318 0
M  V30 4014 H 364.156 -4.24679 -4.2399 0
M  V30 4015 H 365.226 -3.91072 -2.86689 0
M  V30 4016 N 366.569 1.04691 -1.17803 0
M  V30 4017 C 367.499 2.14494 -0.92275 0
M  V30 4018 C 368.48 1.69546 0.137179 0
M  V30 4019 O 369.665 1.94195 -0.0141108 0
M  V30 4020 C 366.795 3.44491 -0.440803 0
M  V30 4021 C 365.749 4.03031 -1.4405 0
M  V30 4022 C 365.075 5.28432 -0.81631 0
M  V30 4023 C 366.375 4.39932 -2.81527 0
M  V30 4024 H 368.069 2.36107 -1.84103 0
M  V30 4025 H 365.615 1.1347 -0.886599 0
M  V30 4026 H 367.568 4.2066 -0.249602 0
M  V30 4027 H 366.292 3.22546 0.513025 0
M  V30 4028 H 364.951 3.28937 -1.61853 0
M  V30 4029 H 364.599 5.02792 0.144511 0
M  V30 4030 H 364.299 5.68559 -1.48371 0
M  V30 4031 H 365.823 6.07284 -0.635496 0
M  V30 4032 H 367.237 5.07113 -2.67412 0
M  V30 4033 H 365.634 4.9109 -3.44892 0
M  V30 4034 H 366.704 3.50045 -3.35554 0
M  V30 4035 N 368.047 0.979072 1.23499 0
M  V30 4036 C 369.277 0.664237 1.95631 0
M  V30 4037 C 369.685 -0.772653 1.72704 0
M  V30 4038 O 369.028 -1.53141 1.01457 0
M  V30 4039 C 369.09 0.873115 3.48736 0
M  V30 4040 C 368.754 2.29182 3.95379 0
M  V30 4041 C 369.751 3.2704 4.04155 0
M  V30 4042 C 367.436 2.62256 4.28401 0
M  V30 4043 C 369.43 4.56052 4.45304 0
M  V30 4044 C 367.117 3.91491 4.69231 0
M  V30 4045 C 368.115 4.88201 4.77649 0
M  V30 4046 O 367.803 6.15129 5.17563 0
M  V30 4047 H 367.535 0.245915 0.629684 0
M  V30 4048 H 370.089 1.3127 1.57979 0
M  V30 4049 H 368.319 0.167476 3.86337 0
M  V30 4050 H 370.008 0.555642 4.02079 0
M  V30 4051 H 370.774 3.02819 3.78848 0
M  V30 4052 H 366.653 1.87692 4.21061 0
M  V30 4053 H 370.197 5.31538 4.51789 0
M  V30 4054 H 366.094 4.15508 4.93987 0
M  V30 4055 H 366.862 6.18862 5.35679 0
M  V30 4056 N 369.525 -1.3858 0.750561 0
M  V30 4057 C 370.475 -2.27795 0.0965949 0
M  V30 4058 C 371.459 -1.45048 -0.696411 0
M  V30 4059 O 372.651 -1.67812 -0.562863 0
M  V30 4060 C 369.78 -3.33894 -0.798085 0
M  V30 4061 C 368.866 -4.241 0.0016067 0
M  V30 4062 N 369.257 -4.95067 1.03647 0
M  V30 4063 C 367.555 -4.45429 -0.225674 0
M  V30 4064 C 368.256 -5.61489 1.52004 0
M  V30 4065 N 367.232 -5.37135 0.835874 0
M  V30 4066 H 371.034 -2.80125 0.889228 0
M  V30 4067 H 368.548 -1.51446 0.586323 0
M  V30 4068 H 370.545 -3.96693 -1.28219 0
M  V30 4069 H 369.205 -2.83123 -1.5897 0
M  V30 4070 H 370.216 -4.98104 1.41819 0
M  V30 4071 H 366.893 -4.05571 -0.990872 0
M  V30 4072 H 368.283 -6.28264 2.38188 0
M  V30 4073 N 371.003 -0.499398 -1.49478 0
M  V30 4074 C 372.414 -0.051215 -1.8663 0
M  V30 4075 C 372.765 1.36238 -1.41186 0
M  V30 4076 O 371.89 2.01502 -0.789051 0
M  V30 4077 C 372.485 -0.0861651 -3.3869 0
M  V30 4078 C 371.044 0.30667 -3.75149 0
M  V30 4079 C 370.191 -0.459397 -2.73468 0
M  V30 4080 H 373.142 -0.712264 -1.41818 0
M  V30 4081 H 373.163 0.709507 -3.73826 0
M  V30 4082 H 372.675 -1.11512 -3.71735 0
M  V30 4083 H 370.776 1.33892 -3.47712 0
M  V30 4084 H 370.889 -0.0116669 -4.79099 0
M  V30 4085 H 369.253 0.0905645 -2.54539 0
M  V30 4086 H 370.036 -1.4884 -3.09357 0
M  V30 4087 N 372.481 1.55866 -0.233164 0
M  V30 4088 C 373.728 1.98603 0.395374 0
M  V30 4089 C 374.056 1.12105 1.58942 0
M  V30 4090 O 373.311 0.168656 1.94972 0
M  V30 4091 C 373.61 3.46856 0.861724 0
M  V30 4092 C 373.276 4.50348 -0.223066 0
M  V30 4093 C 371.938 4.78371 -0.521038 0
M  V30 4094 C 374.29 5.12355 -0.956124 0
M  V30 4095 C 371.618 5.6568 -1.55638 0
M  V30 4096 C 373.97 6.00786 -1.98089 0
M  V30 4097 C 372.634 6.27148 -2.28565 0
M  V30 4098 H 371.904 0.726739 0.144677 0
M  V30 4099 H 374.551 1.88491 -0.338114 0
M  V30 4100 H 372.856 3.5423 1.67418 0
M  V30 4101 H 374.553 3.77302 1.35809 0
M  V30 4102 H 371.143 4.28596 0.0193234 0
M  V30 4103 H 375.327 4.90765 -0.739166 0
M  V30 4104 H 370.583 5.84365 -1.798 0
M  V30 4105 H 374.757 6.4788 -2.55391 0
M  V30 4106 H 372.384 6.94597 -3.08932 0
M  V30 4107 N 373.959 -0.0401083 1.57549 0
M  V30 4108 C 375.208 -0.732108 1.87944 0
M  V30 4109 C 375.521 -1.77107 0.830206 0
M  V30 4110 O 376.727 -2.51488 1.02302 0
M  V30 4111 C 375.183 -1.35315 3.33494 0
M  V30 4112 C 374.791 -0.351105 4.46622 0
M  V30 4113 C 376.535 -2.02566 3.73051 0
M  V30 4114 C 374.442 -0.979859 5.83226 0
M  V30 4115 H 373.372 -0.277188 0.701201 0
M  V30 4116 H 376.023 0.0138501 1.83495 0
M  V30 4117 H 374.405 -2.14844 3.32653 0
M  V30 4118 H 375.579 0.416674 4.58912 0
M  V30 4119 H 373.894 0.218708 4.15825 0
M  V30 4120 H 376.491 -2.50441 4.72423 0
M  V30 4121 H 376.834 -2.83904 3.04474 0
M  V30 4122 H 377.367 -1.29827 3.76018 0
M  V30 4123 H 374.106 -0.206135 6.55176 0
M  V30 4124 H 373.626 -1.71774 5.74677 0
M  V30 4125 H 375.305 -1.49046 6.29599 0
M  V30 4126 N 375.437 -1.54477 -0.31217 0
M  V30 4127 C 376.4 -1.83923 -1.36766 0
M  V30 4128 C 377.4 -0.711563 -1.44199 0
M  V30 4129 O 378.59 -0.979866 -1.44029 0
M  V30 4130 C 375.722 -2.0095 -2.75376 0
M  V30 4131 H 376.915 -2.78239 -1.11906 0
M  V30 4132 H 374.468 -1.46369 -0.548257 0
M  V30 4133 H 375.203 -1.08883 -3.05475 0
M  V30 4134 H 374.988 -2.83018 -2.71373 0
M  V30 4135 H 376.478 -2.2514 -3.51713 0
M  V30 4136 N 376.915 0.57481 -1.46744 0
M  V30 4137 C 378.163 1.33009 -1.52161 0
M  V30 4138 C 378.484 1.94185 -0.178092 0
M  V30 4139 O 377.754 1.7899 0.796196 0
M  V30 4140 H 376.334 0.493873 -0.560445 0
M  V30 4141 H 378.996 0.672589 -1.82927 0
M  V30 4142 H 378.092 2.13273 -2.27862 0
M  V30 4143 N 378.394 1.34581 0.820102 0
M  V30 4144 C 379.344 1.22943 1.92013 0
M  V30 4145 C 380.328 0.127802 1.60392 0
M  V30 4146 O 381.52 0.357737 1.73347 0
M  V30 4147 C 378.649 0.989938 3.28717 0
M  V30 4148 C 377.735 2.13486 3.66449 0
M  V30 4149 N 378.126 3.38625 3.75722 0
M  V30 4150 C 376.424 2.04573 3.96315 0
M  V30 4151 C 377.125 4.13832 4.08801 0
M  V30 4152 N 376.101 3.42451 4.22171 0
M  V30 4153 H 379.903 2.17771 1.97365 0
M  V30 4154 H 377.417 1.2686 1.01392 0
M  V30 4155 H 379.414 0.887462 4.07345 0
M  V30 4156 H 378.074 0.0503691 3.24661 0
M  V30 4157 H 379.085 3.73143 3.59144 0
M  V30 4158 H 375.762 1.1839 4.00362 0
M  V30 4159 H 377.152 5.21909 4.23156 0
M  V30 4160 N 379.872 -1.04064 1.18357 0
M  V30 4161 C 381.118 -1.77528 0.980397 0
M  V30 4162 C 381.451 -1.87948 -0.48879 0
M  V30 4163 O 380.726 -1.3876 -1.36293 0
M  V30 4164 C 381.009 -3.20797 1.63588 0
M  V30 4165 C 380.862 -3.1832 3.17793 0
M  V30 4166 C 382.181 -4.18911 1.34914 0
M  V30 4167 H 379.3 -0.644443 0.357578 0
M  V30 4168 H 381.942 -1.2156 1.46024 0
M  V30 4169 H 380.092 -3.68586 1.22788 0
M  V30 4170 H 381.764 -2.78521 3.67728 0
M  V30 4171 H 380.007 -2.56351 3.49952 0
M  V30 4172 H 380.678 -4.19489 3.58794 0
M  V30 4173 H 383.154 -3.7967 1.70265 0
M  V30 4174 H 382.03 -5.17374 1.83346 0
M  V30 4175 H 382.291 -4.41262 0.272027 0
M  V30 4176 N 381.35 -0.985608 -1.22978 0
M  V30 4177 C 382.578 -0.675582 -1.95559 0
M  V30 4178 C 382.993 0.758413 -1.72897 0
M  V30 4179 O 382.35 1.51094 -1.02357 0
M  V30 4180 C 382.401 -0.96293 -3.48439 0
M  V30 4181 O 382.122 -2.34057 -3.70336 0
M  V30 4182 C 383.623 -0.669585 -4.38214 0
M  V30 4183 H 380.843 -0.250523 -0.622478 0
M  V30 4184 H 383.387 -1.3184 -1.56328 0
M  V30 4185 H 381.542 -0.366033 -3.85667 0
M  V30 4186 H 381.956 -2.43424 -4.64591 0
M  V30 4187 H 383.43 -0.920967 -5.44263 0
M  V30 4188 H 383.907 0.396383 -4.37408 0
M  V30 4189 H 384.513 -1.2472 -4.06602 0
M  V30 4190 N 382.828 1.3818 -0.7579 0
M  V30 4191 C 384.077 1.99261 -0.312744 0
M  V30 4192 C 384.39 1.60846 1.11301 0
M  V30 4193 O 385.596 2.14929 1.65885 0
M  V30 4194 C 384.052 3.56294 -0.50821 0
M  V30 4195 C 383.66 4.03657 -1.94333 0
M  V30 4196 C 385.404 4.24313 -0.125982 0
M  V30 4197 C 383.311 5.53347 -2.08712 0
M  V30 4198 H 382.241 0.745456 -0.113185 0
M  V30 4199 H 384.892 1.57889 -0.935056 0
M  V30 4200 H 383.274 3.95575 0.183353 0
M  V30 4201 H 384.448 3.75655 -2.66871 0
M  V30 4202 H 382.763 3.48376 -2.28086 0
M  V30 4203 H 385.36 5.34279 -0.212125 0
M  V30 4204 H 385.703 4.05962 0.921964 0
M  V30 4205 H 386.236 3.90285 -0.769563 0
M  V30 4206 H 382.975 5.76607 -3.11777 0
M  V30 4207 H 382.495 5.83078 -1.4064 0
M  V30 4208 H 384.174 6.19111 -1.87912 0
M  V30 4209 N 384.306 0.507319 1.49211 0
M  V30 4210 C 385.555 -0.0368315 2.01666 0
M  V30 4211 C 385.868 -1.37459 1.39156 0
M  V30 4212 O 387.074 -2.00579 1.82976 0
M  V30 4213 C 385.53 -0.116089 3.59713 0
M  V30 4214 C 385.138 1.2154 4.31198 0
M  V30 4215 C 386.882 -0.610268 4.2009 0
M  V30 4216 C 384.789 1.09796 5.81119 0
M  V30 4217 H 383.719 -0.0175376 0.753796 0
M  V30 4218 H 386.37 0.647691 1.71689 0
M  V30 4219 H 384.752 -0.8652 3.86433 0
M  V30 4220 H 385.926 1.9783 4.16173 0
M  V30 4221 H 384.241 1.64352 3.82593 0
M  V30 4222 H 386.838 -0.715742 5.29888 0
M  V30 4223 H 387.181 -1.61064 3.8388 0
M  V30 4224 H 387.714 0.0824916 3.97714 0
M  V30 4225 H 384.453 2.0728 6.21864 0
M  V30 4226 H 383.973 0.376058 5.9862 0
M  V30 4227 H 385.652 0.779281 6.4229 0
M  V30 4228 N 385.784 -1.5574 0.241426 0
M  V30 4229 C 387.012 -2.03208 -0.389134 0
M  V30 4230 C 387.427 -1.12082 -1.51931 0
M  V30 4231 O 386.784 -0.134183 -1.82006 0
M  V30 4232 C 386.835 -3.50064 -0.902087 0
M  V30 4233 O 386.556 -4.37717 0.18305 0
M  V30 4234 C 388.057 -4.13268 -1.60389 0
M  V30 4235 H 385.277 -0.664509 -0.0931053 0
M  V30 4236 H 387.821 -2.0124 0.36369 0
M  V30 4237 H 385.976 -3.52583 -1.60511 0
M  V30 4238 H 386.39 -5.24097 -0.205579 0
M  V30 4239 H 387.864 -5.17733 -1.91458 0
M  V30 4240 H 388.341 -3.59434 -2.52397 0
M  V30 4241 H 388.947 -4.14655 -0.945576 0
M  V30 4242 N 387.262 0.0317525 -1.57568 0
M  V30 4243 C 388.172 1.05021 -2.0978 0
M  V30 4244 C 389.188 1.39809 -1.03583 0
M  V30 4245 O 390.364 1.49182 -1.35302 0
M  V30 4246 C 387.429 2.33301 -2.56459 0
M  V30 4247 C 386.49 2.0512 -3.77127 0
M  V30 4248 C 385.723 3.27283 -4.2157 0
M  V30 4249 O 385.946 4.37861 -3.65559 0
M  V30 4250 O 384.88 3.13141 -5.14029 0
M  V30 4251 H 388.706 0.636505 -2.96955 0
M  V30 4252 H 386.291 0.248559 -1.47318 0
M  V30 4253 H 388.173 3.08722 -2.86825 0
M  V30 4254 H 386.848 2.73973 -1.72397 0
M  V30 4255 H 385.755 1.27276 -3.51784 0
M  V30 4256 H 387.088 1.69305 -4.62165 0
M  V30 4257 N 388.74 1.54641 0.303973 0
M  V30 4258 C 390.151 1.64811 0.877163 0
M  V30 4259 C 390.502 0.554838 1.88191 0
M  V30 4260 O 389.627 -0.309033 2.14182 0
M  V30 4261 C 390.222 2.9876 1.59775 0
M  V30 4262 C 388.781 3.11061 2.11938 0
M  V30 4263 C 387.928 2.60479 0.951097 0
M  V30 4264 H 390.879 1.58493 0.0810486 0
M  V30 4265 H 390.9 2.90017 2.46314 0
M  V30 4266 H 390.412 3.7831 0.866226 0
M  V30 4267 H 388.513 2.36225 2.88146 0
M  V30 4268 H 388.626 4.17171 2.35595 0
M  V30 4269 H 386.99 2.16859 1.33583 0
M  V30 4270 H 387.773 3.42504 0.233581 0
M  V30 4271 N 390.218 -0.567019 1.47046 0
M  V30 4272 C 391.181 -1.65696 1.58359 0
M  V30 4273 C 392.181 -1.54097 0.459441 0
M  V30 4274 O 393.371 -1.58432 0.724225 0
M  V30 4275 C 390.503 -3.05197 1.51879 0
M  V30 4276 H 391.696 -1.57019 2.5551 0
M  V30 4277 H 389.249 -0.786148 1.3509 0
M  V30 4278 H 389.984 -3.19417 0.560673 0
M  V30 4279 H 389.769 -3.15025 2.33455 0
M  V30 4280 H 391.259 -3.84511 1.62913 0
M  V30 4281 N 391.696 -1.35014 -0.812953 0
M  V30 4282 C 392.944 -1.27678 -1.56661 0
M  V30 4283 C 393.265 0.150359 -1.94419 0
M  V30 4284 O 392.535 1.08532 -1.63088 0
M  V30 4285 H 391.115 -0.469602 -0.580933 0
M  V30 4286 H 393.777 -1.69043 -0.970076 0
M  V30 4287 H 392.873 -1.88833 -2.48492 0
M  V30 4288 N 393.175 1.03435 -1.18907 0
M  V30 4289 C 394.586 1.58195 -0.991523 0
M  V30 4290 C 394.937 1.90801 0.457081 0
M  V30 4291 O 394.062 1.70272 1.33553 0
M  V30 4292 C 394.657 2.87432 -1.79355 0
M  V30 4293 C 393.216 3.38785 -1.64017 0
M  V30 4294 C 392.363 2.12292 -1.78402 0
M  V30 4295 H 395.314 0.860299 -1.33359 0
M  V30 4296 H 395.335 3.58096 -1.28638 0
M  V30 4297 H 394.847 2.63669 -2.84781 0
M  V30 4298 H 392.948 3.67547 -0.611536 0
M  V30 4299 H 393.061 4.12186 -2.44212 0
M  V30 4300 H 391.425 2.23901 -1.2141 0
M  V30 4301 H 392.208 1.90977 -2.85277 0
M  V30 4302 N 394.653 0.992116 1.22453 0
M  V30 4303 C 395.93 0.583508 1.86694 0
M  V30 4304 C 396.31 -0.9392 1.89056 0
M  V30 4305 O 395.658 -1.82081 1.38053 0
M  V30 4306 C 395.868 1.20304 3.2761 0
M  V30 4307 C 397.216 1.30308 4.0411 0
M  V30 4308 O 398.24 1.15737 3.36873 0
M  V30 4309 O 397.099 1.53615 5.24466 0
M  V30 4310 H 394.193 0.198129 0.802916 0
M  V30 4311 H 396.739 1.08794 1.30238 0
M  V30 4312 H 395.511 2.24461 3.2052 0
M  V30 4313 H 395.134 0.684144 3.9167 0
M  V30 4314 N 396.131 -1.37776 0.765217 0
M  V30 4315 C 397.061 -2.32945 0.160953 0
M  V30 4316 C 398.042 -1.55454 -0.690516 0
M  V30 4317 O 399.227 -1.83721 -0.629318 0
M  V30 4318 C 396.357 -3.39669 -0.724031 0
M  V30 4319 C 395.311 -4.27992 0.0256173 0
M  V30 4320 C 394.637 -5.25673 -0.978383 0
M  V30 4321 C 395.937 -5.08309 1.20082 0
M  V30 4322 H 397.631 -2.83728 0.955969 0
M  V30 4323 H 395.177 -1.36416 0.461149 0
M  V30 4324 H 397.13 -4.05219 -1.15652 0
M  V30 4325 H 395.854 -2.87396 -1.5515 0
M  V30 4326 H 394.513 -3.63964 0.438812 0
M  V30 4327 H 394.161 -4.69682 -1.80022 0
M  V30 4328 H 393.861 -5.85625 -0.481378 0
M  V30 4329 H 395.385 -5.94098 -1.40995 0
M  V30 4330 H 396.799 -5.67034 0.845307 0
M  V30 4331 H 395.196 -5.77554 1.62947 0
M  V30 4332 H 396.266 -4.41365 2.00811 0
M  V30 4333 N 397.609 -0.515225 -1.4894 0
M  V30 4334 C 398.857 0.0241671 -2.02086 0
M  V30 4335 C 399.178 1.3616 -1.3959 0
M  V30 4336 O 398.448 1.87841 -0.556121 0
M  V30 4337 H 397.028 0.0119203 -0.746905 0
M  V30 4338 H 399.69 -0.675702 -1.82812 0
M  V30 4339 H 398.786 0.143385 -3.1177 0
M  V30 4340 N 399.087 1.5561 -0.249682 0
M  V30 4341 C 400.315 2.03411 0.378352 0
M  V30 4342 C 400.73 1.12886 1.51335 0
M  V30 4343 O 400.087 0.143833 1.81932 0
M  V30 4344 C 400.138 3.50537 0.88351 0
M  V30 4345 O 399.859 4.37614 -0.20626 0
M  V30 4346 C 401.36 4.14113 1.58195 0
M  V30 4347 H 398.58 0.664994 0.08958 0
M  V30 4348 H 401.124 2.01044 -0.374357 0
M  V30 4349 H 399.279 3.5343 1.58639 0
M  V30 4350 H 399.693 5.24199 0.177782 0
M  V30 4351 H 401.167 5.18741 1.8871 0
M  V30 4352 H 401.644 3.60767 2.50487 0
M  V30 4353 H 402.25 4.15151 0.923573 0
M  V30 4354 N 400.565 -0.0233959 1.57583 0
M  V30 4355 C 401.976 -0.56927 1.77809 0
M  V30 4356 C 402.327 -1.75284 0.881472 0
M  V30 4357 O 401.452 -2.1626 0.0777805 0
M  V30 4358 C 402.047 -1.03949 3.22459 0
M  V30 4359 C 400.606 -1.53084 3.43864 0
M  V30 4360 C 399.753 -0.471454 2.73263 0
M  V30 4361 H 402.704 0.202825 1.57399 0
M  V30 4362 H 402.725 -1.90661 3.29285 0
M  V30 4363 H 402.237 -0.177865 3.87692 0
M  V30 4364 H 400.338 -2.41414 2.83814 0
M  V30 4365 H 400.451 -1.57443 4.52491 0
M  V30 4366 H 398.815 -0.927788 2.37201 0
M  V30 4367 H 399.598 0.380808 3.41181 0
M  V30 4368 N 402.043 -1.548 -0.295768 0
M  V30 4369 C 403.29 -1.74329 -1.03032 0
M  V30 4370 C 403.618 -0.531915 -1.87085 0
M  V30 4371 O 402.873 0.486052 -1.89568 0
M  V30 4372 C 403.172 -2.98797 -1.961 0
M  V30 4373 C 402.838 -4.32356 -1.2798 0
M  V30 4374 C 401.5 -4.68661 -1.09135 0
M  V30 4375 C 403.852 -5.15128 -0.793243 0
M  V30 4376 C 401.18 -5.85312 -0.403269 0
M  V30 4377 C 403.532 -6.32488 -0.118854 0
M  V30 4378 C 402.196 -6.6745 0.0815043 0
M  V30 4379 H 401.466 -0.637916 -0.37702 0
M  V30 4380 H 404.113 -1.8906 -0.304696 0
M  V30 4381 H 402.418 -2.78869 -2.75207 0
M  V30 4382 H 404.115 -3.11102 -2.53015 0
M  V30 4383 H 400.705 -4.03808 -1.43655 0
M  V30 4384 H 404.889 -4.87575 -0.92653 0
M  V30 4385 H 400.145 -6.1094 -0.237098 0
M  V30 4386 H 404.319 -6.95892 0.266035 0
M  V30 4387 H 401.946 -7.57695 0.616685 0
M  V30 4388 N 403.521 0.559213 -1.47345 0
M  V30 4389 C 404.749 1.34194 -1.57479 0
M  V30 4390 C 405.164 1.87463 -0.224261 0
M  V30 4391 O 404.521 1.64888 0.782185 0
M  V30 4392 C 404.572 2.51324 -2.59843 0
M  V30 4393 O 404.293 2.00256 -3.89653 0
M  V30 4394 C 405.794 3.43563 -2.80142 0
M  V30 4395 H 403.014 0.409136 -0.531835 0
M  V30 4396 H 405.558 0.677609 -1.92947 0
M  V30 4397 H 403.713 3.13699 -2.27314 0
M  V30 4398 H 404.127 2.76708 -4.4557 0
M  V30 4399 H 405.601 4.2217 -3.55635 0
M  V30 4400 H 406.078 3.9698 -1.87892 0
M  V30 4401 H 406.684 2.87005 -3.1386 0
M  V30 4402 N 404.999 1.35443 0.805782 0
M  V30 4403 C 406.224 1.32037 1.59941 0
M  V30 4404 C 406.649 -0.0994215 1.87837 0
M  V30 4405 O 406.007 -1.06648 1.46615 0
M  V30 4406 C 406.055 2.13354 2.90711 0
M  V30 4407 O 405.159 1.5148 3.83572 0
M  V30 4408 H 404.5 0.452666 0.485787 0
M  V30 4409 H 407.03 1.78496 1.00002 0
M  V30 4410 H 407.04 2.25338 3.40128 0
M  V30 4411 H 405.715 3.16572 2.69732 0
M  V30 4412 H 404.292 1.4834 3.42125 0
M  V30 4413 N 406.477 -1.02803 1.19454 0
M  V30 4414 C 407.893 -1.28473 0.946937 0
M  V30 4415 C 408.093 -1.97881 -0.380202 0
M  V30 4416 O 407.149 -2.26719 -1.11151 0
M  V30 4417 C 408.462 -2.13099 2.12154 0
M  V30 4418 C 410.01 -2.26404 2.16126 0
M  V30 4419 C 410.485 -3.14402 3.33039 0
M  V30 4420 N 411.976 -3.21991 3.32981 0
M  V30 4421 C 412.711 -3.90272 4.20089 0
M  V30 4422 N 412.207 -4.60777 5.17355 0
M  V30 4423 N 414 -3.8668 4.07964 0
M  V30 4424 H 406.151 -0.561665 2.04839 0
M  V30 4425 H 408.414 -0.310438 0.89573 0
M  V30 4426 H 408.12 -1.69422 3.08203 0
M  V30 4427 H 407.994 -3.13813 2.09287 0
M  V30 4428 H 410.381 -2.69311 1.20647 0
M  V30 4429 H 410.462 -1.25237 2.23045 0
M  V30 4430 H 410.106 -2.72204 4.28798 0
M  V30 4431 H 410.036 -4.1563 3.23356 0
M  V30 4432 H 412.527 -2.71778 2.62574 0
M  V30 4433 H 412.84 -5.10513 5.80169 0
M  V30 4434 H 411.185 -4.5964 5.21302 0
M  V30 4435 H 414.376 -3.30739 3.31254 0
M  V30 4436 H 414.549 -4.39621 4.76064 0
M  V30 4437 N 407.956 -0.998596 -1.21925 0
M  V30 4438 C 408.886 -0.573688 -2.26343 0
M  V30 4439 C 409.867 0.402296 -1.65274 0
M  V30 4440 O 411.052 0.291683 -1.91997 0
M  V30 4441 C 408.182 0.106839 -3.47136 0
M  V30 4442 C 407.136 -0.788269 -4.20678 0
M  V30 4443 C 406.462 0.0254927 -5.34694 0
M  V30 4444 C 407.762 -2.08784 -4.78755 0
M  V30 4445 H 409.456 -1.44651 -2.62138 0
M  V30 4446 H 407.002 -0.696975 -1.26009 0
M  V30 4447 H 408.955 0.415531 -4.19346 0
M  V30 4448 H 407.679 1.01424 -3.10452 0
M  V30 4449 H 406.338 -1.08069 -3.50309 0
M  V30 4450 H 405.986 0.933989 -4.94253 0
M  V30 4451 H 405.686 -0.570437 -5.84825 0
M  V30 4452 H 407.21 0.328147 -6.09718 0
M  V30 4453 H 408.624 -1.84272 -5.42878 0
M  V30 4454 H 407.021 -2.63307 -5.39249 0
M  V30 4455 H 408.091 -2.76284 -3.98491 0
M  V30 4456 N 409.434 1.37368 -0.772513 0
M  V30 4457 C 410.845 1.8231 -0.402493 0
M  V30 4458 C 411.196 1.6436 1.07146 0
M  V30 4459 O 410.321 1.15514 1.82991 0
M  V30 4460 C 410.916 3.30979 -0.723776 0
M  V30 4461 C 409.475 3.74195 -0.406802 0
M  V30 4462 C 408.622 2.59885 -0.967218 0
M  V30 4463 H 411.573 1.25829 -0.967099 0
M  V30 4464 H 411.594 3.80499 -0.00870832 0
M  V30 4465 H 411.106 3.44011 -1.7966 0
M  V30 4466 H 409.207 3.66732 0.658673 0
M  V30 4467 H 409.32 4.7027 -0.915588 0
M  V30 4468 H 407.684 2.51674 -0.391416 0
M  V30 4469 H 408.467 2.7571 -2.04546 0
M  V30 4470 N 410.912 0.523116 1.48665 0
M  V30 4471 C 412.323 0.0808997 1.86525 0
M  V30 4472 C 412.674 -1.33975 1.43336 0
M  V30 4473 O 411.799 -2.00221 0.821009 0
M  V30 4474 C 412.394 0.140037 3.3851 0
M  V30 4475 C 410.953 -0.246948 3.75589 0
M  V30 4476 C 410.1 0.502845 2.72703 0
M  V30 4477 H 413.051 0.734736 1.40667 0
M  V30 4478 H 413.072 -0.649945 3.74908 0
M  V30 4479 H 412.584 1.17412 3.69914 0
M  V30 4480 H 410.685 -1.28343 3.49798 0
M  V30 4481 H 410.798 0.0878859 4.79019 0
M  V30 4482 H 409.162 -0.0500581 2.54651 0
M  V30 4483 H 409.945 1.53743 3.0695 0
M  V30 4484 N 412.39 -1.55475 0.257931 0
M  V30 4485 C 413.3 -2.2549 -0.647425 0
M  V30 4486 C 414.316 -1.2748 -1.18427 0
M  V30 4487 O 415.492 -1.6038 -1.2182 0
M  V30 4488 C 412.557 -2.94916 -1.82278 0
M  V30 4489 C 411.618 -4.08363 -1.32432 0
M  V30 4490 C 410.851 -4.74469 -2.44366 0
M  V30 4491 O 411.074 -4.39701 -3.63344 0
M  V30 4492 O 410.008 -5.62763 -2.13497 0
M  V30 4493 H 413.834 -3.03593 -0.0807707 0
M  V30 4494 H 411.419 -1.49377 0.0259962 0
M  V30 4495 H 413.301 -3.38606 -2.50846 0
M  V30 4496 H 411.976 -2.19744 -2.37685 0
M  V30 4497 H 410.883 -3.69166 -0.605605 0
M  V30 4498 H 412.216 -4.85385 -0.816211 0
M  V30 4499 N 413.868 0.0150385 -1.57593 0
M  V30 4500 C 414.798 1.01047 -2.10503 0
M  V30 4501 C 415.779 1.36816 -1.01071 0
M  V30 4502 O 416.964 1.45455 -1.28672 0
M  V30 4503 C 414.094 2.30708 -2.59598 0
M  V30 4504 C 413.048 2.09142 -3.73421 0
M  V30 4505 C 412.374 3.44685 -4.08774 0
M  V30 4506 C 413.674 1.46619 -5.01298 0
M  V30 4507 H 415.368 0.569978 -2.93925 0
M  V30 4508 H 412.914 0.272724 -1.41394 0
M  V30 4509 H 414.867 3.00687 -2.95238 0
M  V30 4510 H 413.591 2.76843 -1.73279 0
M  V30 4511 H 412.25 1.41592 -3.38153 0
M  V30 4512 H 411.898 3.88495 -3.195 0
M  V30 4513 H 411.598 3.31077 -4.8545 0
M  V30 4514 H 413.122 4.16004 -4.4696 0
M  V30 4515 H 414.536 2.06535 -5.34805 0
M  V30 4516 H 412.933 1.43544 -5.82679 0
M  V30 4517 H 414.003 0.433611 -4.82957 0
M  V30 4518 N 415.346 1.54954 0.287554 0
M  V30 4519 C 416.278 1.83224 1.37701 0
M  V30 4520 C 417.291 0.715898 1.46215 0
M  V30 4521 O 418.48 0.993565 1.48292 0
M  V30 4522 C 415.58 1.96723 2.75959 0
M  V30 4523 C 414.753 3.27253 2.90215 0
M  V30 4524 C 413.812 3.30998 4.09056 0
M  V30 4525 O 412.838 4.04457 4.00503 0
M  V30 4526 N 414.04 2.57353 5.20336 0
M  V30 4527 H 416.805 2.77254 1.138 0
M  V30 4528 H 414.366 1.54694 0.477652 0
M  V30 4529 H 416.358 1.96615 3.5373 0
M  V30 4530 H 414.928 1.09626 2.92747 0
M  V30 4531 H 414.148 3.40022 1.99447 0
M  V30 4532 H 415.436 4.13365 2.96659 0
M  V30 4533 H 414.834 1.97327 5.30169 0
M  V30 4534 H 413.391 2.62984 5.96391 0
M  V30 4535 N 416.824 -0.551391 1.4764 0
M  V30 4536 C 418.07 -1.31024 1.54792 0
M  V30 4537 C 418.403 -1.9304 0.211967 0
M  V30 4538 O 417.678 -1.78175 -0.77999 0
M  V30 4539 C 417.961 -2.41593 2.67029 0
M  V30 4540 C 417.814 -1.84408 4.10261 0
M  V30 4541 C 419.133 -3.43488 2.75143 0
M  V30 4542 H 416.252 -0.475031 0.563485 0
M  V30 4543 H 418.894 -0.616454 1.79722 0
M  V30 4544 H 417.044 -3.00772 2.45904 0
M  V30 4545 H 418.716 -1.29445 4.42766 0
M  V30 4546 H 416.959 -1.15051 4.18265 0
M  V30 4547 H 417.63 -2.64367 4.84576 0
M  V30 4548 H 420.106 -2.94236 2.94218 0
M  V30 4549 H 418.982 -4.18274 3.55441 0
M  V30 4550 H 419.243 -4.02703 1.82435 0
M  V30 4551 N 418.302 -1.35869 -0.798587 0
M  V30 4552 C 419.232 -1.32118 -1.92528 0
M  V30 4553 C 420.213 -0.194209 -1.68988 0
M  V30 4554 O 421.398 -0.390426 -1.90235 0
M  V30 4555 C 418.528 -1.10047 -3.29404 0
M  V30 4556 C 417.482 -2.19471 -3.67446 0
M  V30 4557 C 416.808 -1.82555 -5.02571 0
M  V30 4558 C 418.108 -3.61495 -3.76987 0
M  V30 4559 H 419.802 -2.26394 -1.95924 0
M  V30 4560 H 417.348 -1.08981 -0.94123 0
M  V30 4561 H 419.301 -1.06061 -4.07835 0
M  V30 4562 H 418.025 -0.122195 -3.26371 0
M  V30 4563 H 416.684 -2.22568 -2.91306 0
M  V30 4564 H 416.332 -0.833249 -4.9605 0
M  V30 4565 H 416.032 -2.5581 -5.28995 0
M  V30 4566 H 417.556 -1.80108 -5.83432 0
M  V30 4567 H 418.97 -3.60676 -4.4563 0
M  V30 4568 H 417.367 -4.33577 -4.14887 0
M  V30 4569 H 418.437 -3.97065 -2.78329 0
M  V30 4570 N 419.78 1.02168 -1.19998 0
M  V30 4571 C 420.727 2.10601 -0.944228 0
M  V30 4572 C 421.697 1.65639 0.123664 0
M  V30 4573 O 422.882 1.9079 -0.0199941 0
M  V30 4574 C 420.022 3.41504 -0.496865 0
M  V30 4575 C 419.135 3.99973 -1.63234 0
M  V30 4576 C 418.27 5.18915 -1.13579 0
M  V30 4577 C 417.309 5.69456 -2.24468 0
M  V30 4578 N 416.446 6.79665 -1.76068 0
M  V30 4579 H 421.286 2.31814 -1.8726 0
M  V30 4580 H 418.823 1.13686 -0.933483 0
M  V30 4581 H 420.781 4.16626 -0.218843 0
M  V30 4582 H 419.411 3.2038 0.394508 0
M  V30 4583 H 418.463 3.21997 -2.0254 0
M  V30 4584 H 419.775 4.33492 -2.46752 0
M  V30 4585 H 418.929 6.01222 -0.813429 0
M  V30 4586 H 417.668 4.8695 -0.270434 0
M  V30 4587 H 416.673 4.85757 -2.57526 0
M  V30 4588 H 417.898 6.03459 -3.11472 0
M  V30 4589 H 415.844 6.49538 -0.918516 0
M  V30 4590 H 415.761 7.12349 -2.5317 0
M  V30 4591 H 417.029 7.65549 -1.46817 0
M  V30 4592 N 421.258 1.00505 1.21394 0
M  V30 4593 C 422.535 0.603277 1.86064 0
M  V30 4594 C 422.915 -0.919095 1.90042 0
M  V30 4595 O 422.263 -1.80607 1.39977 0
M  V30 4596 C 422.473 1.23772 3.26315 0
M  V30 4597 C 423.821 1.34586 4.02705 0
M  V30 4598 O 424.845 1.19304 3.35626 0
M  V30 4599 O 423.704 1.59169 5.22807 0
M  V30 4600 H 420.798 0.206634 0.800769 0
M  V30 4601 H 423.344 1.1017 1.29076 0
M  V30 4602 H 422.116 2.27848 3.18121 0
M  V30 4603 H 421.739 0.725648 3.90922 0
M  V30 4604 N 422.737 -1.36956 0.779787 0
M  V30 4605 C 423.647 -2.33965 0.172491 0
M  V30 4606 C 424.663 -1.60574 -0.670222 0
M  V30 4607 O 425.839 -1.92617 -0.588263 0
M  V30 4608 C 422.904 -3.39761 -0.690173 0
M  V30 4609 C 421.965 -4.28964 0.169924 0
M  V30 4610 C 421.198 -5.29707 -0.651662 0
M  V30 4611 O 421.421 -5.38238 -1.88827 0
M  V30 4612 O 420.355 -6.01873 -0.0566264 0
M  V30 4613 H 424.181 -2.87647 0.974321 0
M  V30 4614 H 421.766 -1.39258 0.541078 0
M  V30 4615 H 423.648 -4.04471 -1.1824 0
M  V30 4616 H 422.323 -2.88394 -1.47006 0
M  V30 4617 H 421.23 -3.67326 0.708696 0
M  V30 4618 H 422.563 -4.83656 0.913085 0
M  V30 4619 N 424.215 -0.530993 -1.48385 0
M  V30 4620 C 425.147 0.268353 -2.27624 0
M  V30 4621 C 426.16 0.903525 -1.35426 0
M  V30 4622 O 427.349 0.781796 -1.60469 0
M  V30 4623 C 424.449 1.39535 -3.08842 0
M  V30 4624 C 423.622 0.861913 -4.28824 0
M  V30 4625 C 422.681 1.87016 -4.91845 0
M  V30 4626 O 421.707 1.4267 -5.5103 0
M  V30 4627 N 422.909 3.20238 -4.84178 0
M  V30 4628 H 425.674 -0.41123 -2.96865 0
M  V30 4629 H 423.235 -0.365387 -1.57723 0
M  V30 4630 H 425.227 2.06803 -3.47871 0
M  V30 4631 H 423.797 1.97859 -2.42014 0
M  V30 4632 H 423.017 0.0132126 -3.94198 0
M  V30 4633 H 424.305 0.484415 -5.06489 0
M  V30 4634 H 423.703 3.58932 -4.37246 0
M  V30 4635 H 422.26 3.83136 -5.27305 0
M  V30 4636 N 425.693 1.55336 -0.266172 0
M  V30 4637 C 426.656 2.20878 0.612001 0
M  V30 4638 C 427.656 1.18388 1.08816 0
M  V30 4639 O 428.846 1.4335 0.989774 0
M  V30 4640 C 425.978 2.86765 1.84332 0
M  V30 4641 H 427.171 2.99873 0.0398718 0
M  V30 4642 H 424.724 1.56291 -0.0167309 0
M  V30 4643 H 425.459 2.11759 2.45619 0
M  V30 4644 H 425.244 3.61862 1.5099 0
M  V30 4645 H 426.734 3.36867 2.46801 0
M  V30 4646 N 427.171 -0.0066808 1.57599 0
M  V30 4647 C 428.121 -1.0086 2.04478 0
M  V30 4648 C 429.105 -1.30714 0.938231 0
M  V30 4649 O 430.297 -1.29924 1.20203 0
M  V30 4650 C 427.426 -2.30273 2.54615 0
M  V30 4651 C 426.512 -2.03413 3.72134 0
M  V30 4652 N 426.903 -1.46688 4.84062 0
M  V30 4653 C 425.201 -2.33589 3.79937 0
M  V30 4654 C 425.902 -1.36146 5.65543 0
M  V30 4655 N 424.878 -1.84477 5.1134 0
M  V30 4656 H 428.68 -0.564402 2.8843 0
M  V30 4657 H 426.194 -0.212521 1.61003 0
M  V30 4658 H 428.191 -3.02885 2.86472 0
M  V30 4659 H 426.851 -2.75352 1.72079 0
M  V30 4660 H 427.862 -1.14658 5.05049 0
M  V30 4661 H 424.539 -2.81589 3.08243 0
M  V30 4662 H 425.929 -0.925873 6.6549 0
M  V30 4663 N 428.649 -1.55105 -0.279332 0
M  V30 4664 C 430.065 -1.46803 -0.626187 0
M  V30 4665 C 430.265 -0.676939 -1.89789 0
M  V30 4666 O 429.321 -0.19326 -2.51759 0
M  V30 4667 C 430.634 -2.90962 -0.759034 0
M  V30 4668 C 432.182 -3.01138 -0.853504 0
M  V30 4669 C 432.657 -4.46539 -1.01818 0
M  V30 4670 N 434.148 -4.50341 -1.08386 0
M  V30 4671 C 434.883 -5.60053 -1.22996 0
M  V30 4672 N 434.379 -6.79645 -1.34366 0
M  V30 4673 N 436.172 -5.47783 -1.26056 0
M  V30 4674 H 428.323 -2.04996 0.555921 0
M  V30 4675 H 430.586 -0.929325 0.187239 0
M  V30 4676 H 430.292 -3.51544 0.104852 0
M  V30 4677 H 430.166 -3.39619 -1.64131 0
M  V30 4678 H 432.553 -2.40658 -1.70786 0
M  V30 4679 H 432.634 -2.55745 0.0532466 0
M  V30 4680 H 432.278 -5.0762 -0.168504 0
M  V30 4681 H 432.208 -4.89583 -1.93948 0
M  V30 4682 H 434.699 -3.64191 -1.00864 0
M  V30 4683 H 435.012 -7.59012 -1.4533 0
M  V30 4684 H 433.357 -6.82469 -1.31382 0
M  V30 4685 H 436.548 -4.53294 -1.168 0
M  V30 4686 H 436.721 -6.33331 -1.37098 0
M  V30 4687 N 430.127 0.543554 -1.4793 0
M  V30 4688 C 431.057 1.65888 -1.64327 0
M  V30 4689 C 432.038 1.62818 -0.492383 0
M  V30 4690 O 433.223 1.80226 -0.723338 0
M  V30 4691 C 430.353 3.04506 -1.67013 0
M  V30 4692 C 429.307 3.2243 -2.81466 0
M  V30 4693 C 428.633 4.61972 -2.69233 0
M  V30 4694 C 429.933 3.06496 -4.22915 0
M  V30 4695 H 431.627 1.52421 -2.57698 0
M  V30 4696 H 429.173 0.731849 -1.24016 0
M  V30 4697 H 431.126 3.82391 -1.77074 0
M  V30 4698 H 429.85 3.18964 -0.70212 0
M  V30 4699 H 428.509 2.46957 -2.70938 0
M  V30 4700 H 428.157 4.73247 -1.7043 0
M  V30 4701 H 427.857 4.74911 -3.46025 0
M  V30 4702 H 429.381 5.41974 -2.81242 0
M  V30 4703 H 430.795 3.74186 -4.34348 0
M  V30 4704 H 429.192 3.30938 -5.006 0
M  V30 4705 H 430.262 2.03077 -4.40327 0
M  V30 4706 N 431.605 1.3629 0.791371 0
M  V30 4707 C 432.568 1.30309 1.88553 0
M  V30 4708 C 433.568 0.211204 1.59407 0
M  V30 4709 O 434.758 0.465865 1.67855 0
M  V30 4710 C 431.89 1.01956 3.25297 0
M  V30 4711 H 433.083 2.27614 1.95273 0
M  V30 4712 H 430.636 1.21035 0.988953 0
M  V30 4713 H 431.371 0.050998 3.2426 0
M  V30 4714 H 431.156 1.80968 3.4784 0
M  V30 4715 H 432.646 1.0037 4.05359 0
M  V30 4716 N 433.083 -1.0153 1.20538 0
M  V30 4717 C 434.494 -1.56598 1.01657 0
M  V30 4718 C 434.845 -1.91505 -0.426668 0
M  V30 4719 O 433.97 -1.72375 -1.30827 0
M  V30 4720 C 434.565 -2.84542 1.83905 0
M  V30 4721 C 433.124 -3.36133 1.69386 0
M  V30 4722 C 432.271 -2.09427 1.81757 0
M  V30 4723 H 435.222 -0.838974 1.34711 0
M  V30 4724 H 435.243 -3.56004 1.34319 0
M  V30 4725 H 434.755 -2.59105 2.8894 0
M  V30 4726 H 432.856 -3.66528 0.669933 0
M  V30 4727 H 432.969 -4.08248 2.50739 0
M  V30 4728 H 431.333 -2.21941 1.24957 0
M  V30 4729 H 432.116 -1.86414 2.88279 0
M  V30 4730 N 434.561 -1.01147 -1.20859 0
M  V30 4731 C 435.508 -0.577354 -2.23462 0
M  V30 4732 C 436.478 0.399922 -1.61214 0
M  V30 4733 O 437.663 0.300515 -1.88419 0
M  V30 4734 C 434.803 0.083372 -3.44999 0
M  V30 4735 C 433.916 -0.937856 -4.21697 0
M  V30 4736 C 433.051 -0.248717 -5.30617 0
M  V30 4737 C 432.09 -1.25705 -5.99053 0
M  V30 4738 N 431.227 -0.594939 -6.99575 0
M  V30 4739 H 436.067 -1.45695 -2.59956 0
M  V30 4740 H 433.604 -0.729428 -1.27741 0
M  V30 4741 H 435.562 0.483535 -4.14388 0
M  V30 4742 H 434.192 0.926645 -3.09214 0
M  V30 4743 H 433.244 -1.45622 -3.51423 0
M  V30 4744 H 434.556 -1.70493 -4.68757 0
M  V30 4745 H 433.71 0.207215 -6.06346 0
M  V30 4746 H 432.449 0.55071 -4.84581 0
M  V30 4747 H 431.454 -1.72343 -5.2209 0
M  V30 4748 H 432.679 -2.05767 -6.47176 0
M  V30 4749 H 430.625 0.184713 -6.5574 0
M  V30 4750 H 430.542 -1.30017 -7.44736 0
M  V30 4751 H 431.81 -0.162427 -7.79331 0
M  V30 4752 N 436.039 1.36541 -0.78704 0
M  V30 4753 C 437.287 1.98911 -0.357633 0
M  V30 4754 C 437.608 1.62778 1.07371 0
M  V30 4755 O 436.878 0.900612 1.73971 0
M  V30 4756 H 435.458 0.735734 -0.129246 0
M  V30 4757 H 438.12 1.66776 -1.00855 0
M  V30 4758 H 437.216 3.08874 -0.447549 0
M  V30 4759 N 437.518 0.538854 1.48102 0
M  V30 4760 C 438.466 -0.232325 2.31437 0
M  V30 4761 C 439.46 -0.927004 1.41785 0
M  V30 4762 O 440.666 -0.850378 1.58646 0
M  V30 4763 H 437.041 -0.0937916 0.746128 0
M  V30 4764 H 439.012 0.489986 2.9435 0
M  V30 4765 C 437.761 -1.26074 3.24038 0
M  V30 4766 H 437.084 -0.735609 3.92974 0
M  V30 4767 H 438.524 -1.77157 3.85216 0
M  V30 4768 C 436.983 -2.29902 2.46265 0
M  V30 4769 O 437.513 -3.36502 2.19384 0
M  V30 4770 N 435.719 -2.03348 2.07601 0
M  V30 4771 H 435.266 -1.16675 2.29662 0
M  V30 4772 H 435.224 -2.73038 1.55877 0
M  V30 4773 N 438.996 -1.55193 0.274407 0
M  V30 4774 C 439.928 -2.1989 -0.646595 0
M  V30 4775 C 440.941 -1.1834 -1.11801 0
M  V30 4776 O 442.13 -1.4507 -1.04004 0
M  V30 4777 C 439.23 -2.8104 -1.89393 0
M  V30 4778 C 438.403 -4.08274 -1.56943 0
M  V30 4779 C 437.462 -4.53478 -2.66916 0
M  V30 4780 O 436.488 -5.19267 -2.33132 0
M  V30 4781 N 437.69 -4.2356 -3.9696 0
M  V30 4782 H 440.455 -2.99556 -0.0928686 0
M  V30 4783 H 438.016 -1.61618 0.0954783 0
M  V30 4784 H 440.008 -3.08226 -2.62257 0
M  V30 4785 H 438.578 -2.05372 -2.35672 0
M  V30 4786 H 437.798 -3.88384 -0.674655 0
M  V30 4787 H 439.086 -4.91173 -1.32764 0
M  V30 4788 H 438.484 -3.70799 -4.27229 0
M  V30 4789 H 437.041 -4.55518 -4.66205 0
M  V30 4790 N 440.474 -0.00167713 -1.576 0
M  V30 4791 C 441.699 0.69739 -1.95323 0
M  V30 4792 C 442.124 1.6642 -0.876706 0
M  V30 4793 O 441.482 1.80548 0.165007 0
M  V30 4794 C 441.53 1.40403 -3.32144 0
M  V30 4795 O 440.634 2.5185 -3.26566 0
M  V30 4796 H 439.975 0.185373 -0.637599 0
M  V30 4797 H 442.505 -0.0553665 -2.04525 0
M  V30 4798 H 442.515 1.76707 -3.67748 0
M  V30 4799 H 441.19 0.695167 -4.10049 0
M  V30 4800 H 439.767 2.17861 -3.0264 0
M  V30 4801 N 441.952 1.55251 0.271103 0
M  V30 4802 C 443.368 1.47133 0.618393 0
M  V30 4803 C 443.568 0.686994 1.89427 0
M  V30 4804 O 442.624 0.206609 2.51653 0
M  V30 4805 C 443.937 2.91361 0.743593 0
M  V30 4806 C 445.485 3.01587 0.837522 0
M  V30 4807 C 445.96 4.47073 0.994483 0
M  V30 4808 N 447.451 4.50909 1.05996 0
M  V30 4809 C 448.186 5.60698 1.20024 0
M  V30 4810 N 447.682 6.80348 1.30759 0
M  V30 4811 N 449.475 5.48444 1.23149 0
M  V30 4812 H 441.626 2.04698 -0.566784 0
M  V30 4813 H 443.889 0.928319 -0.192165 0
M  V30 4814 H 443.595 3.51483 -0.123493 0
M  V30 4815 H 443.469 3.40484 1.62328 0
M  V30 4816 H 445.856 2.4156 1.69507 0
M  V30 4817 H 445.937 2.55713 -0.0668086 0
M  V30 4818 H 445.581 5.07703 0.141582 0
M  V30 4819 H 445.511 4.90605 1.91349 0
M  V30 4820 H 448.002 3.6472 0.989316 0
M  V30 4821 H 448.315 7.59772 1.41303 0
M  V30 4822 H 446.66 6.83156 1.27761 0
M  V30 4823 H 449.851 4.53907 1.14394 0
M  V30 4824 H 450.024 6.34049 1.33738 0
M  V30 4825 N 443.43 -0.535701 1.48216 0
M  V30 4826 C 444.679 -1.28828 1.55197 0
M  V30 4827 C 444.992 -1.94263 0.228278 0
M  V30 4828 O 446.198 -2.70927 0.176278 0
M  V30 4829 C 444.654 -2.33727 2.73678 0
M  V30 4830 C 444.262 -1.74386 4.12666 0
M  V30 4831 C 446.006 -3.1003 2.89968 0
M  V30 4832 C 443.913 -2.77192 5.22416 0
M  V30 4833 H 442.843 -0.484484 0.577747 0
M  V30 4834 H 445.494 -0.56646 1.74538 0
M  V30 4835 H 443.876 -3.08919 2.4776 0
M  V30 4836 H 445.05 -1.05421 4.48579 0
M  V30 4837 H 443.365 -1.10595 4.01445 0
M  V30 4838 H 445.962 -3.86842 3.6913 0
M  V30 4839 H 446.305 -3.65542 1.9921 0
M  V30 4840 H 446.838 -2.41952 3.15759 0
M  V30 4841 H 443.577 -2.26507 6.15122 0
M  V30 4842 H 443.097 -3.44502 4.90998 0
M  V30 4843 H 444.776 -3.40285 5.50286 0
M  V30 4844 N 444.908 -1.36708 -0.784132 0
M  V30 4845 C 445.838 -1.34153 -1.91116 0
M  V30 4846 C 446.819 -0.212121 -1.68772 0
M  V30 4847 O 448.004 -0.410581 -1.8981 0
M  V30 4848 C 445.134 -1.13535 -3.28218 0
M  V30 4849 C 444.088 -2.23356 -3.65097 0
M  V30 4850 C 443.414 -1.87875 -5.00607 0
M  V30 4851 C 444.714 -3.65473 -3.73131 0
M  V30 4852 H 446.408 -2.28459 -1.93512 0
M  V30 4853 H 443.954 -1.09973 -0.929618 0
M  V30 4854 H 445.907 -1.10381 -4.06687 0
M  V30 4855 H 444.631 -0.156804 -3.26223 0
M  V30 4856 H 443.29 -2.25645 -2.88929 0
M  V30 4857 H 442.938 -0.885814 -4.95139 0
M  V30 4858 H 442.638 -2.61406 -5.26252 0
M  V30 4859 H 444.162 -1.86286 -5.81489 0
M  V30 4860 H 445.576 -3.65382 -4.41779 0
M  V30 4861 H 443.973 -4.37953 -4.10265 0
M  V30 4862 H 445.043 -3.99995 -2.74102 0
M  V30 4863 N 446.386 1.0089 -1.21074 0
M  V30 4864 C 447.614 1.78191 -1.05145 0
M  V30 4865 C 448.029 1.84537 0.398952 0
M  V30 4866 O 447.386 1.30393 1.27687 0
M  V30 4867 C 447.437 3.22288 -1.63746 0
M  V30 4868 O 447.158 3.16315 -3.03111 0
M  V30 4869 C 448.659 4.16106 -1.52875 0
M  V30 4870 H 445.879 0.560129 -0.369454 0
M  V30 4871 H 448.423 1.26945 -1.60328 0
M  V30 4872 H 446.578 3.70655 -1.12664 0
M  V30 4873 H 446.992 4.06817 -3.31059 0
M  V30 4874 H 448.466 5.15026 -1.98626 0
M  V30 4875 H 448.943 4.36541 -0.482521 0
M  V30 4876 H 449.549 3.73625 -2.03185 0
M  V30 4877 N 447.864 1.01787 1.20321 0
M  V30 4878 C 448.796 0.547357 2.22568 0
M  V30 4879 C 449.809 -0.370922 1.58518 0
M  V30 4880 O 450.998 -0.169067 1.77698 0
M  V30 4881 C 448.098 -0.223031 3.38165 0
M  V30 4882 C 447.271 0.697472 4.31803 0
M  V30 4883 C 446.33 -0.025562 5.26194 0
M  V30 4884 O 445.356 0.597367 5.66057 0
M  V30 4885 N 446.558 -1.29999 5.65757 0
M  V30 4886 H 449.323 1.42668 2.63564 0
M  V30 4887 H 446.884 0.895552 1.34876 0
M  V30 4888 H 448.876 -0.716002 3.98316 0
M  V30 4889 H 447.446 -1.00366 2.9605 0
M  V30 4890 H 446.666 1.37073 3.69601 0
M  V30 4891 H 447.954 1.32347 4.91286 0
M  V30 4892 H 447.352 -1.827 5.35385 0
M  V30 4893 H 445.909 -1.73766 6.28211 0
M  V30 4894 N 449.342 -1.36122 0.79427 0
M  V30 4895 C 450.305 -2.28309 0.201889 0
M  V30 4896 C 451.305 -1.49041 -0.603603 0
M  V30 4897 O 452.495 -1.68964 -0.423888 0
M  V30 4898 C 449.627 -3.3321 -0.719978 0
M  V30 4899 H 450.82 -2.82208 1.01481 0
M  V30 4900 H 448.373 -1.45768 0.564037 0
M  V30 4901 H 449.108 -2.84475 -1.55706 0
M  V30 4902 H 448.893 -3.91835 -0.144266 0
M  V30 4903 H 450.383 -4.02044 -1.12916 0
M  V30 4904 N 450.82 -0.546701 -1.47814 0
M  V30 4905 C 452.05 -0.0232519 -2.06587 0
M  V30 4906 C 452.458 1.2712 -1.40133 0
M  V30 4907 O 451.801 1.77091 -0.488305 0
M  V30 4908 C 451.863 0.254117 -3.58601 0
M  V30 4909 C 451.527 -0.949331 -4.47031 0
M  V30 4910 C 452.524 -1.85216 -4.85789 0
M  V30 4911 C 450.209 -1.16104 -4.88697 0
M  V30 4912 C 452.203 -2.95047 -5.65001 0
M  V30 4913 C 449.89 -2.26247 -5.67676 0
M  V30 4914 C 450.888 -3.1555 -6.05737 0
M  V30 4915 O 450.576 -4.23784 -6.83127 0
M  V30 4916 H 450.308 -0.0380082 -0.674931 0
M  V30 4917 H 452.862 -0.756631 -1.90956 0
M  V30 4918 H 451.092 1.04168 -3.72406 0
M  V30 4919 H 452.781 0.72167 -3.99433 0
M  V30 4920 H 453.547 -1.70061 -4.54207 0
M  V30 4921 H 449.426 -0.475159 -4.58545 0
M  V30 4922 H 452.97 -3.64778 -5.94628 0
M  V30 4923 H 448.867 -2.41379 -5.98671 0
M  V30 4924 H 449.635 -4.21701 -7.01506 0
M  V30 4925 N 452.299 1.55045 -0.282633 0
M  V30 4926 C 453.246 2.22822 0.601566 0
M  V30 4927 C 454.216 1.20431 1.14392 0
M  V30 4928 O 455.401 1.48996 1.19184 0
M  V30 4929 C 452.541 2.95873 1.77632 0
M  V30 4930 C 451.654 4.12999 1.26711 0
M  V30 4931 C 450.789 4.73676 2.40426 0
M  V30 4932 C 449.828 5.82981 1.86545 0
M  V30 4933 N 448.965 6.3769 2.93762 0
M  V30 4934 H 453.805 2.97995 0.0169528 0
M  V30 4935 H 451.342 1.471 -0.00339964 0
M  V30 4936 H 453.3 3.36447 2.46697 0
M  V30 4937 H 451.93 2.2311 2.33285 0
M  V30 4938 H 450.982 3.77494 0.469314 0
M  V30 4939 H 452.294 4.91803 0.832518 0
M  V30 4940 H 451.448 5.17008 3.17471 0
M  V30 4941 H 450.187 3.94164 2.87203 0
M  V30 4942 H 449.192 5.39092 1.07983 0
M  V30 4943 H 450.417 6.64366 1.40694 0
M  V30 4944 H 448.363 5.61069 3.39908 0
M  V30 4945 H 448.28 7.11788 2.54744 0
M  V30 4946 H 449.548 6.8568 3.7076 0
M  V30 4947 N 453.777 0.010035 1.57597 0
M  V30 4948 C 455.193 -0.346164 1.55801 0
M  V30 4949 C 455.393 -1.74144 1.01371 0
M  V30 4950 O 454.449 -2.43938 0.651968 0
M  V30 4951 C 455.762 -0.212216 2.9995 0
M  V30 4952 C 457.31 -0.286409 3.11687 0
M  V30 4953 C 457.785 -0.18147 4.5764 0
M  V30 4954 N 459.276 -0.239056 4.62583 0
M  V30 4955 C 460.011 -0.181351 5.73113 0
M  V30 4956 N 459.507 -0.073661 6.92761 0
M  V30 4957 N 461.3 -0.233949 5.61613 0
M  V30 4958 H 453.451 0.922657 1.91313 0
M  V30 4959 H 455.714 0.354595 0.879185 0
M  V30 4960 H 455.42 0.748169 3.4365 0
M  V30 4961 H 455.294 -0.990224 3.6397 0
M  V30 4962 H 457.681 -1.23724 2.67911 0
M  V30 4963 H 457.762 0.521645 2.50425 0
M  V30 4964 H 457.406 0.765863 5.02093 0
M  V30 4965 H 457.336 -1.00814 5.1686 0
M  V30 4966 H 459.827 -0.32321 3.76515 0
M  V30 4967 H 460.14 -0.0358003 7.72792 0
M  V30 4968 H 458.485 -0.0391461 6.94989 0
M  V30 4969 H 461.676 -0.316347 4.6703 0
M  V30 4970 H 461.849 -0.185514 6.47734 0
M  V30 4971 N 455.255 -1.55392 -0.262866 0
M  V30 4972 C 456.188 -1.8391 -1.35101 0
M  V30 4973 C 457.166 -0.692901 -1.47097 0
M  V30 4974 O 458.35 -0.936979 -1.63563 0
M  V30 4975 C 455.477 -2.00969 -2.72634 0
M  V30 4976 C 454.523 -3.23559 -2.7787 0
M  V30 4977 S 455.356 -4.80647 -2.3609 0
M  V30 4978 C 456.512 -5.00692 -3.75578 0
M  V30 4979 H 456.745 -2.75918 -1.1071 0
M  V30 4980 H 454.278 -1.47294 -0.463029 0
M  V30 4981 H 456.236 -2.11482 -3.51832 0
M  V30 4982 H 454.897 -1.09832 -2.94272 0
M  V30 4983 H 454.09 -3.32413 -3.78837 0
M  V30 4984 H 453.692 -3.11689 -2.06702 0
M  V30 4985 H 455.984 -4.87055 -4.70939 0
M  V30 4986 H 456.927 -6.02717 -3.71669 0
M  V30 4987 H 457.335 -4.28619 -3.6735 0
M  V30 4988 N 456.733 0.527833 -1.48498 0
M  V30 4989 C 457.696 1.61439 -1.62696 0
M  V30 4990 C 458.696 1.52824 -0.500136 0
M  V30 4991 O 459.886 1.56456 -0.765976 0
M  V30 4992 C 457.018 3.01063 -1.59918 0
M  V30 4993 H 458.211 1.50189 -2.59583 0
M  V30 4994 H 455.764 0.750055 -1.37127 0
M  V30 4995 H 456.499 3.17818 -0.645163 0
M  V30 4996 H 456.284 3.08725 -2.41726 0
M  V30 4997 H 457.774 3.80057 -1.73051 0
M  V30 4998 N 458.211 1.37122 0.776871 0
M  V30 4999 C 459.121 1.34651 1.9211 0
M  V30 5000 C 460.137 0.246824 1.7224 0
M  V30 5001 O 461.313 0.48134 1.95563 0
M  V30 5002 C 458.378 1.14748 3.2716 0
M  V30 5003 C 457.439 2.34308 3.5972 0
M  V30 5004 C 456.672 2.15345 4.88326 0
M  V30 5005 O 456.895 1.13507 5.58992 0
M  V30 5006 O 455.829 3.03414 5.1983 0
M  V30 5007 H 459.655 2.31013 1.97146 0
M  V30 5008 H 457.24 1.17799 0.918901 0
M  V30 5009 H 459.122 1.05616 4.0795 0
M  V30 5010 H 457.797 0.214562 3.22988 0
M  V30 5011 H 456.704 2.49011 2.79185 0
M  V30 5012 H 458.037 3.26149 3.68629 0
M  V30 5013 N 459.689 -1.00246 1.21608 0
M  V30 5014 C 460.599 -2.12515 0.993709 0
M  V30 5015 C 461.615 -1.73913 -0.0549939 0
M  V30 5016 O 462.791 -2.00943 0.135619 0
M  V30 5017 C 459.856 -3.42083 0.563953 0
M  V30 5018 C 458.917 -3.94843 1.68516 0
M  V30 5019 C 458.15 -5.18226 1.27582 0
M  V30 5020 O 458.373 -5.70201 0.150506 0
M  V30 5021 O 457.307 -5.64497 2.0887 0
M  V30 5022 H 461.133 -2.34152 1.93407 0
M  V30 5023 H 458.718 -1.10891 1.00118 0
M  V30 5024 H 460.6 -4.20073 0.334194 0
M  V30 5025 H 459.275 -3.21828 -0.347665 0
M  V30 5026 H 458.182 -3.18068 1.96935 0
M  V30 5027 H 459.515 -4.19512 2.5743 0
M  V30 5028 N 461.167 -1.02423 -1.1978 0
M  V30 5029 C 462.13 -0.605703 -2.21052 0
M  V30 5030 C 463.13 0.328209 -1.57415 0
M  V30 5031 O 464.32 0.115853 -1.73814 0
M  V30 5032 C 461.452 0.114366 -3.40708 0
M  V30 5033 H 462.645 -1.5017 -2.59594 0
M  V30 5034 H 460.198 -0.814888 -1.33376 0
M  V30 5035 H 460.933 1.02492 -3.07678 0
M  V30 5036 H 460.718 -0.556641 -3.88129 0
M  V30 5037 H 462.208 0.394272 -4.15735 0
M  V30 5038 N 462.645 1.35699 -0.801477 0
M  V30 5039 C 463.578 2.2768 -0.153922 0
M  V30 5040 C 464.556 1.47832 0.67709 0
M  V30 5041 O 465.74 1.77104 0.645474 0
M  V30 5042 C 462.867 3.2943 0.786986 0
M  V30 5043 C 461.913 4.26485 0.0362447 0
M  V30 5044 S 462.746 5.19573 -1.2963 0
M  V30 5045 C 463.902 6.24866 -0.359705 0
M  V30 5046 H 464.135 2.82254 -0.9338 0
M  V30 5047 H 461.668 1.42421 -0.596283 0
M  V30 5048 H 463.626 3.8855 1.32436 0
M  V30 5049 H 462.287 2.73745 1.54021 0
M  V30 5050 H 461.48 4.98378 0.750668 0
M  V30 5051 H 461.082 3.71508 -0.431017 0
M  V30 5052 H 463.374 6.75957 0.456954 0
M  V30 5053 H 464.317 7.00307 -1.04768 0
M  V30 5054 H 464.725 5.64484 0.0423274 0
M  V30 5055 N 464.123 0.554532 1.47522 0
M  V30 5056 C 465.055 -0.232106 2.28022 0
M  V30 5057 C 466.068 -0.881865 1.36847 0
M  V30 5058 O 467.257 -0.756168 1.61692 0
M  V30 5059 C 464.357 -1.34604 3.11022 0
M  V30 5060 C 463.53 -0.793582 4.30141 0
M  V30 5061 C 462.589 -1.79168 4.94758 0
M  V30 5062 O 461.615 -1.33886 5.5323 0
M  V30 5063 N 462.817 -3.12495 4.89211 0
M  V30 5064 H 465.582 0.458407 2.96173 0
M  V30 5065 H 463.143 0.390433 1.57122 0
M  V30 5066 H 465.135 -2.01243 3.51118 0
M  V30 5067 H 463.705 -1.93983 2.45131 0
M  V30 5068 H 462.925 0.0495025 3.94169 0
M  V30 5069 H 464.213 -0.403776 5.07195 0
M  V30 5070 H 463.611 -3.51931 4.42901 0
M  V30 5071 H 462.168 -3.74698 5.33333 0
M  V30 5072 N 465.601 -1.54893 0.290851 0
M  V30 5073 C 466.548 -2.23138 -0.58974 0
M  V30 5074 C 467.518 -1.21036 -1.13752 0
M  V30 5075 O 468.703 -1.49626 -1.18392 0
M  V30 5076 C 465.843 -2.96811 -1.76061 0
M  V30 5077 C 464.956 -4.13665 -1.24519 0
M  V30 5078 C 464.091 -4.74944 -2.3791 0
M  V30 5079 C 463.13 -5.83963 -1.83451 0
M  V30 5080 N 462.267 -6.39239 -2.90376 0
M  V30 5081 H 467.107 -2.98 -0.00114915 0
M  V30 5082 H 464.644 -1.47096 0.0112006 0
M  V30 5083 H 466.602 -3.37751 -2.44909 0
M  V30 5084 H 465.232 -2.24344 -2.32098 0
M  V30 5085 H 464.284 -3.77737 -0.449288 0
M  V30 5086 H 465.596 -4.92238 -0.806424 0
M  V30 5087 H 464.75 -5.18684 -3.14724 0
M  V30 5088 H 463.489 -3.95682 -2.85109 0
M  V30 5089 H 462.494 -5.39657 -1.05122 0
M  V30 5090 H 463.719 -6.65103 -1.37169 0
M  V30 5091 H 461.665 -5.62864 -3.36927 0
M  V30 5092 H 461.582 -7.13129 -2.50965 0
M  V30 5093 H 462.85 -6.87637 -3.67118 0
M  V30 5094 N 467.08 -0.0183926 -1.57589 0
M  V30 5095 C 468.027 0.967022 -2.09565 0
M  V30 5096 C 468.997 1.32983 -0.995225 0
M  V30 5097 O 470.182 1.42501 -1.26878 0
M  V30 5098 C 467.322 2.24772 -2.61861 0
M  V30 5099 C 466.435 1.94232 -3.85873 0
M  V30 5100 C 465.57 3.16518 -4.26603 0
M  V30 5101 C 464.609 2.81748 -5.43401 0
M  V30 5102 N 463.746 3.96626 -5.79338 0
M  V30 5103 H 468.586 0.516874 -2.93483 0
M  V30 5104 H 466.123 0.243544 -1.4507 0
M  V30 5105 H 468.081 2.99667 -2.90268 0
M  V30 5106 H 466.711 2.67423 -1.8079 0
M  V30 5107 H 465.763 1.09625 -3.64262 0
M  V30 5108 H 467.075 1.64616 -4.70853 0
M  V30 5109 H 466.229 3.99743 -4.56389 0
M  V30 5110 H 464.968 3.49286 -3.40368 0
M  V30 5111 H 463.973 1.96933 -5.1332 0
M  V30 5112 H 465.198 2.50207 -6.31327 0
M  V30 5113 H 463.144 4.29257 -4.96059 0
M  V30 5114 H 463.061 3.70598 -6.58933 0
M  V30 5115 H 464.329 4.80586 -6.13724 0
M  V30 5116 N 468.558 1.5553 0.254621 0
M  V30 5117 C 469.508 1.86057 1.31783 0
M  V30 5118 C 470.492 0.720827 1.4385 0
M  V30 5119 O 471.684 0.982586 1.47222 0
M  V30 5120 C 468.813 2.15203 2.67475 0
M  V30 5121 C 467.899 3.35484 2.59444 0
M  V30 5122 N 468.29 4.54945 2.2104 0
M  V30 5123 C 466.588 3.38441 2.90472 0
M  V30 5124 C 467.289 5.3707 2.23453 0
M  V30 5125 N 466.265 4.75936 2.62652 0
M  V30 5126 H 470.067 2.75953 1.01129 0
M  V30 5127 H 467.581 1.55653 0.463255 0
M  V30 5128 H 469.578 2.35235 3.44195 0
M  V30 5129 H 468.238 1.26601 2.99002 0
M  V30 5130 H 469.249 4.8071 1.92712 0
M  V30 5131 H 465.926 2.60087 3.2659 0
M  V30 5132 H 467.316 6.42626 1.96166 0
M  V30 5133 N 470.036 -0.519951 1.48776 0
M  V30 5134 C 470.968 -1.63973 1.60142 0
M  V30 5135 C 471.981 -1.55404 0.485117 0
M  V30 5136 O 473.17 -1.61682 0.756391 0
M  V30 5137 C 470.27 -3.02676 1.52449 0
M  V30 5138 C 469.443 -3.36624 2.79291 0
M  V30 5139 C 468.502 -4.54652 2.64912 0
M  V30 5140 O 467.528 -4.57374 3.38818 0
M  V30 5141 N 468.73 -5.53432 1.75195 0
M  V30 5142 H 471.495 -1.54656 2.56713 0
M  V30 5143 H 469.056 -0.707439 1.45626 0
M  V30 5144 H 471.048 -3.79525 1.4051 0
M  V30 5145 H 469.618 -3.06018 0.638125 0
M  V30 5146 H 468.838 -2.48855 3.0572 0
M  V30 5147 H 470.126 -3.56094 3.6342 0
M  V30 5148 H 469.524 -5.54018 1.14371 0
M  V30 5149 H 468.081 -6.29459 1.69189 0
M  V30 5150 N 471.514 -1.37532 -0.769588 0
M  V30 5151 C 472.462 -1.33561 -1.90432 0
M  V30 5152 C 473.456 -0.224027 -1.67912 0
M  V30 5153 O 474.662 -0.392174 -1.75676 0
M  V30 5154 H 471.037 -0.416279 -0.626271 0
M  V30 5155 H 473.008 -2.29348 -1.90899 0
M  V30 5156 C 471.757 -1.16162 -3.27722 0
M  V30 5157 H 471.08 -2.00951 -3.45628 0
M  V30 5158 H 472.52 -1.17434 -4.07413 0
M  V30 5159 C 470.979 0.132583 -3.36639 0
M  V30 5160 O 471.509 1.11539 -3.85904 0
M  V30 5161 N 469.715 0.184013 -2.90017 0
M  V30 5162 H 469.262 -0.616415 -2.50116 0
M  V30 5163 H 469.22 1.04956 -2.96364 0
M  V30 5164 N 472.992 0.995999 -1.22138 0
M  V30 5165 C 474.22 1.77066 -1.07029 0
M  V30 5166 C 474.635 1.8495 0.379357 0
M  V30 5167 O 473.992 1.3174 1.26297 0
M  V30 5168 C 474.043 3.20533 -1.67155 0
M  V30 5169 O 473.764 3.13082 -3.06449 0
M  V30 5170 C 475.265 4.14461 -1.5728 0
M  V30 5171 H 472.485 0.556179 -0.375374 0
M  V30 5172 H 475.029 1.25238 -1.61666 0
M  V30 5173 H 473.184 3.6944 -1.16589 0
M  V30 5174 H 473.598 4.03283 -3.35355 0
M  V30 5175 H 475.072 5.1289 -2.04078 0
M  V30 5176 H 475.549 4.36005 -0.528795 0
M  V30 5177 H 476.155 3.71449 -2.07136 0
M  V30 5178 N 474.47 1.03057 1.19235 0
M  V30 5179 C 475.718 0.726581 1.88587 0
M  V30 5180 C 476.039 -0.747227 1.80115 0
M  V30 5181 O 475.309 -1.53849 1.21274 0
M  V30 5182 H 473.889 0.265768 0.698124 0
M  V30 5183 H 476.551 1.30516 1.44746 0
M  V30 5184 H 475.647 1.0224 2.94879 0
M  V30 5185 N 475.948 -1.35272 0.808662 0
M  V30 5186 C 477.359 -1.81179 0.450688 0
M  V30 5187 C 477.71 -1.67143 -1.02751 0
M  V30 5188 O 476.835 -1.20325 -1.79864 0
M  V30 5189 C 477.43 -3.28943 0.811275 0
M  V30 5190 C 475.989 -3.72985 0.505871 0
M  V30 5191 C 475.136 -2.57229 1.03578 0
M  V30 5192 H 478.087 -1.2322 1.00012 0
M  V30 5193 H 478.108 -3.80342 0.109588 0
M  V30 5194 H 477.62 -3.39127 1.88718 0
M  V30 5195 H 475.721 -3.68349 -0.561209 0
M  V30 5196 H 475.834 -4.67677 1.03995 0
M  V30 5197 H 474.198 -2.50548 0.458005 0
M  V30 5198 H 474.981 -2.7019 2.11784 0
M  V30 5199 N 477.426 -0.562348 -1.47226 0
M  V30 5200 C 478.389 0.172056 -2.28553 0
M  V30 5201 C 479.389 0.837928 -1.37242 0
M  V30 5202 O 480.579 0.693001 -1.59822 0
M  V30 5203 C 477.711 1.25223 -3.17068 0
M  V30 5204 H 478.904 -0.542401 -2.94954 0
M  V30 5205 H 476.457 -0.319493 -1.53 0
M  V30 5206 H 477.192 1.99892 -2.55369 0
M  V30 5207 H 476.977 0.779515 -3.84273 0
M  V30 5208 H 478.467 1.76791 -3.78332 0
M  V30 5209 N 478.904 1.54736 -0.299062 0
M  V30 5210 C 479.834 2.26409 0.571085 0
M  V30 5211 C 480.815 1.2629 1.13951 0
M  V30 5212 O 482 1.55059 1.16921 0
M  V30 5213 C 479.13 3.00338 1.74396 0
M  V30 5214 C 478.084 4.07588 1.30599 0
M  V30 5215 C 477.41 4.69222 2.56387 0
M  V30 5216 C 478.71 5.20455 0.438645 0
M  V30 5217 H 480.404 2.99388 -0.0266991 0
M  V30 5218 H 477.95 1.43993 -0.0142812 0
M  V30 5219 H 479.903 3.49198 2.35878 0
M  V30 5220 H 478.627 2.24934 2.36796 0
M  V30 5221 H 477.286 3.59575 0.71424 0
M  V30 5222 H 476.934 3.9046 3.17097 0
M  V30 5223 H 476.634 5.41653 2.27784 0
M  V30 5224 H 478.158 5.20844 3.18675 0
M  V30 5225 H 479.572 5.65221 0.959085 0
M  V30 5226 H 477.969 5.99594 0.246466 0
M  V30 5227 H 479.039 4.8192 -0.536738 0
M  V30 5228 N 480.382 0.0267497 1.57577 0
M  V30 5229 C 481.292 -0.971633 2.13533 0
M  V30 5230 C 482.308 -1.35868 1.08701 0
M  V30 5231 O 483.484 -1.44058 1.40746 0
M  V30 5232 C 480.549 -2.23622 2.64941 0
M  V30 5233 C 479.61 -1.90982 3.8448 0
M  V30 5234 C 478.843 -3.11411 4.33427 0
M  V30 5235 O 479.066 -4.23992 3.81558 0
M  V30 5236 O 478 -2.93848 5.25297 0
M  V30 5237 H 481.826 -0.525853 2.99113 0
M  V30 5238 H 479.411 -0.193712 1.48139 0
M  V30 5239 H 481.293 -2.97864 2.98086 0
M  V30 5240 H 479.968 -2.67386 1.82446 0
M  V30 5241 H 478.875 -1.14132 3.56265 0
M  V30 5242 H 480.208 -1.52036 4.6813 0
M  V30 5243 N 481.861 -1.55662 -0.24637 0
M  V30 5244 C 482.793 -1.86811 -1.32794 0
M  V30 5245 C 483.806 -0.754413 -1.44265 0
M  V30 5246 O 484.995 -1.03253 -1.45606 0
M  V30 5247 C 482.095 -2.0397 -2.70646 0
M  V30 5248 C 481.268 -3.34832 -2.81436 0
M  V30 5249 C 480.327 -3.41727 -4.00136 0
M  V30 5250 O 479.353 -4.14934 -3.89639 0
M  V30 5251 N 480.555 -2.71058 -5.1333 0
M  V30 5252 H 483.32 -2.80174 -1.06409 0
M  V30 5253 H 480.881 -1.55906 -0.43647 0
M  V30 5254 H 482.873 -2.05924 -3.48393 0
M  V30 5255 H 481.443 -1.1735 -2.89738 0
M  V30 5256 H 480.663 -3.4519 -1.90361 0
M  V30 5257 H 481.951 -4.21085 -2.85595 0
M  V30 5258 H 481.349 -2.11314 -5.2475 0
M  V30 5259 H 479.906 -2.78704 -5.89209 0
M  V30 5260 N 483.339 0.512053 -1.4905 0
M  V30 5261 C 484.249 1.64139 -1.67617 0
M  V30 5262 C 485.265 1.64786 -0.558701 0
M  V30 5263 O 486.441 1.8341 -0.832034 0
M  V30 5264 C 483.506 3.00548 -1.72835 0
M  V30 5265 C 482.567 3.10615 -2.96339 0
M  V30 5266 C 481.8 4.40517 -3.01298 0
M  V30 5267 O 482.023 5.28671 -2.14157 0
M  V30 5268 O 480.957 4.55325 -3.93653 0
M  V30 5269 H 484.783 1.51407 -2.63267 0
M  V30 5270 H 482.368 0.687131 -1.32661 0
M  V30 5271 H 484.25 3.81641 -1.78683 0
M  V30 5272 H 482.925 3.13566 -0.803616 0
M  V30 5273 H 481.832 2.2875 -2.96014 0
M  V30 5274 H 483.165 3.0252 -3.88256 0
M  V30 5275 N 484.817 1.37938 0.762283 0
M  V30 5276 C 486.094 1.24196 1.51112 0
M  V30 5277 C 486.474 -0.160409 2.1049 0
M  V30 5278 O 485.822 -1.16904 1.96331 0
M  V30 5279 C 486.032 2.34537 2.58445 0
M  V30 5280 C 487.38 2.7254 3.25588 0
M  V30 5281 O 488.404 2.33783 2.68745 0
M  V30 5282 O 487.263 3.39343 4.28379 0
M  V30 5283 H 484.357 0.485175 0.669727 0
M  V30 5284 H 486.903 1.49743 0.798438 0
M  V30 5285 H 485.675 3.28406 2.12756 0
M  V30 5286 H 485.298 2.10505 3.37303 0
M  V30 5287 N 486.295 -0.989507 1.22664 0
M  V30 5288 C 487.242 -2.08024 0.999733 0
M  V30 5289 C 488.212 -1.65909 -0.0797047 0
M  V30 5290 O 489.397 -1.90669 0.0705715 0
M  V30 5291 C 486.537 -3.40067 0.587234 0
M  V30 5292 C 485.65 -3.95505 1.73781 0
M  V30 5293 C 484.785 -5.15722 1.27297 0
M  V30 5294 C 483.824 -5.63305 2.39488 0
M  V30 5295 N 482.961 -6.74758 1.94026 0
M  V30 5296 H 487.801 -2.26768 1.9334 0
M  V30 5297 H 485.338 -1.11171 0.963297 0
M  V30 5298 H 487.296 -4.15899 0.329227 0
M  V30 5299 H 485.926 -3.21314 -0.309426 0
M  V30 5300 H 484.978 -3.16513 2.11006 0
M  V30 5301 H 486.29 -4.26797 2.58158 0
M  V30 5302 H 485.444 -5.98854 0.972546 0
M  V30 5303 H 484.183 -4.86061 0.399445 0
M  V30 5304 H 483.188 -4.78759 2.70315 0
M  V30 5305 H 484.413 -5.94988 3.27362 0
M  V30 5306 H 482.359 -6.46874 1.09041 0
M  V30 5307 H 482.276 -7.05386 2.71968 0
M  V30 5308 H 483.544 -7.61387 1.67062 0
M  V30 5309 N 487.773 -1.03688 -1.18687 0
M  V30 5310 C 489.001 -0.757918 -1.92518 0
M  V30 5311 C 489.416 0.684398 -1.75959 0
M  V30 5312 O 488.773 1.46617 -1.08673 0
M  V30 5313 C 488.824 -1.10985 -3.44042 0
M  V30 5314 O 488.545 -2.49554 -3.60076 0
M  V30 5315 C 490.046 -0.854844 -4.3498 0
M  V30 5316 H 487.266 -0.276699 -0.611293 0
M  V30 5317 H 489.81 -1.38352 -1.50595 0
M  V30 5318 H 487.965 -0.529279 -3.83767 0
M  V30 5319 H 488.379 -2.6291 -4.53849 0
M  V30 5320 H 489.853 -1.15098 -5.39867 0
M  V30 5321 H 490.33 0.210507 -4.38695 0
M  V30 5322 H 490.936 -1.41853 -4.00946 0
M  V30 5323 N 489.251 1.34841 -0.815825 0
M  V30 5324 C 490.476 2.03261 -0.41226 0
M  V30 5325 C 490.901 1.61055 0.971751 0
M  V30 5326 O 490.259 0.7917 1.63101 0
M  V30 5327 C 490.307 3.56914 -0.514289 0
M  V30 5328 O 489.411 4.09728 0.468675 0
M  V30 5329 H 488.752 0.641664 -0.170771 0
M  V30 5330 H 491.282 1.72241 -1.10427 0
M  V30 5331 H 491.292 4.06156 -0.387457 0
M  V30 5332 H 489.967 3.86982 -1.52375 0
M  V30 5333 H 488.544 3.71681 0.301316 0
M  V30 5334 N 490.729 0.570148 1.46925 0
M  V30 5335 C 491.676 -0.170257 2.30171 0
M  V30 5336 C 492.646 -0.896099 1.39855 0
M  V30 5337 O 493.831 -0.889248 1.68811 0
M  V30 5338 C 490.971 -1.18605 3.24079 0
M  V30 5339 C 490.084 -0.464947 4.29491 0
M  V30 5340 C 489.219 -1.46716 5.10537 0
M  V30 5341 C 488.258 -0.731758 6.0771 0
M  V30 5342 N 487.395 -1.68142 6.81669 0
M  V30 5343 H 492.235 0.545713 2.92961 0
M  V30 5344 H 489.772 0.280938 1.44392 0
M  V30 5345 H 491.73 -1.78771 3.76957 0
M  V30 5346 H 490.36 -1.86989 2.63125 0
M  V30 5347 H 489.412 0.251506 3.79568 0
M  V30 5348 H 490.724 0.110548 4.98677 0
M  V30 5349 H 489.878 -2.14199 5.6763 0
M  V30 5350 H 488.617 -2.07658 4.41282 0
M  V30 5351 H 487.622 -0.0430787 5.49783 0
M  V30 5352 H 488.847 -0.127904 6.7898 0
M  V30 5353 H 486.793 -2.27918 6.15134 0
M  V30 5354 H 486.71 -1.15841 7.47072 0
M  V30 5355 H 487.978 -2.347 7.43328 0
M  V30 5356 N 492.207 -1.54576 0.307264 0
M  V30 5357 C 493.453 -2.0056 -0.300612 0
M  V30 5358 C 493.786 -1.1953 -1.53057 0
M  V30 5359 O 493.061 -0.27337 -1.92569 0
M  V30 5360 C 493.344 -3.54167 -0.650987 0
M  V30 5361 C 493.197 -4.45933 0.588539 0
M  V30 5362 C 494.516 -4.14645 -1.47506 0
M  V30 5363 H 491.635 -0.729075 -0.107788 0
M  V30 5364 H 494.277 -1.85286 0.420606 0
M  V30 5365 H 492.427 -3.67313 -1.26544 0
M  V30 5366 H 494.099 -4.44683 1.22697 0
M  V30 5367 H 492.342 -4.16274 1.22058 0
M  V30 5368 H 493.013 -5.51189 0.299153 0
M  V30 5369 H 495.489 -4.04973 -0.955821 0
M  V30 5370 H 494.365 -5.22269 -1.68899 0
M  V30 5371 H 494.626 -3.66921 -2.4662 0
M  V30 5372 N 493.685 -0.035106 -1.57561 0
M  V30 5373 C 494.648 0.929819 -2.09492 0
M  V30 5374 C 495.648 1.25026 -1.01119 0
M  V30 5375 O 496.838 1.18961 -1.27255 0
M  V30 5376 C 493.97 2.24457 -2.56577 0
M  V30 5377 H 495.163 0.479935 -2.96035 0
M  V30 5378 H 492.716 0.213033 -1.54841 0
M  V30 5379 H 493.451 2.74061 -1.73382 0
M  V30 5380 H 493.236 2.02508 -3.35757 0
M  V30 5381 H 494.726 2.93607 -2.96959 0
M  V30 5382 N 495.163 1.55791 0.238111 0
M  V30 5383 C 496.574 1.68383 0.806472 0
M  V30 5384 C 496.925 0.634157 1.85669 0
M  V30 5385 O 496.05 -0.217913 2.153 0
M  V30 5386 C 496.645 3.05268 1.46959 0
M  V30 5387 C 495.204 3.1977 1.98555 0
M  V30 5388 C 494.351 2.64279 0.839763 0
M  V30 5389 H 497.302 1.58694 0.0137535 0
M  V30 5390 H 497.323 3.00203 2.33792 0
M  V30 5391 H 496.835 3.81643 0.704993 0
M  V30 5392 H 494.936 2.48234 2.77868 0
M  V30 5393 H 495.049 4.26788 2.17689 0
M  V30 5394 H 493.413 2.22329 1.24265 0
M  V30 5395 H 494.196 3.43187 0.0881032 0
M  V30 5396 N 496.642 -0.504142 1.49319 0
M  V30 5397 C 497.89 -1.25598 1.58334 0
M  V30 5398 C 498.211 -1.93114 0.270538 0
M  V30 5399 O 497.481 -1.82585 -0.709891 0
M  V30 5400 H 496.061 -0.466571 0.58337 0
M  V30 5401 H 498.723 -0.584547 1.85928 0
M  V30 5402 H 497.819 -2.02159 2.37778 0
M  V30 5403 N 498.12 -1.38341 -0.754957 0
M  V30 5404 C 499.348 -1.37704 -1.54419 0
M  V30 5405 C 499.763 0.0335243 -1.8877 0
M  V30 5406 O 499.12 0.999773 -1.52679 0
M  V30 5407 C 499.171 -2.23136 -2.84416 0
M  V30 5408 O 498.892 -3.58697 -2.51531 0
M  V30 5409 C 500.393 -2.30664 -3.78562 0
M  V30 5410 H 497.613 -0.471061 -0.477852 0
M  V30 5411 H 500.157 -1.81902 -0.934446 0
M  V30 5412 H 498.312 -1.82403 -3.41772 0
M  V30 5413 H 498.726 -4.03665 -3.34896 0
M  V30 5414 H 500.2 -2.9473 -4.66732 0
M  V30 5415 H 500.677 -1.3199 -4.18898 0
M  V30 5416 H 501.283 -2.71781 -3.27131 0
M  V30 5417 N 499.598 0.982988 -1.23187 0
M  V30 5418 C 500.561 2.05649 -1.01198 0
M  V30 5419 C 501.561 1.6078 0.0252464 0
M  V30 5420 O 502.751 1.72878 -0.214243 0
M  V30 5421 C 499.883 3.36744 -0.530656 0
M  V30 5422 H 501.076 2.2659 -1.96461 0
M  V30 5423 H 498.629 1.15602 -1.05195 0
M  V30 5424 H 499.364 3.21492 0.425873 0
M  V30 5425 H 499.149 3.7065 -1.2791 0
M  V30 5426 H 500.639 4.15705 -0.397366 0
M  V30 5427 N 501.076 1.04316 1.18135 0
M  V30 5428 C 502.487 0.775505 1.69832 0
M  V30 5429 C 502.838 -0.703348 1.8316 0
M  V30 5430 O 501.963 -1.54729 1.51287 0
M  V30 5431 C 502.558 1.40112 3.0847 0
M  V30 5432 C 501.117 1.18172 3.57368 0
M  V30 5433 C 500.264 1.49022 2.33854 0
M  V30 5434 H 503.215 1.20925 1.02775 0
M  V30 5435 H 503.236 0.805672 3.71873 0
M  V30 5436 H 502.748 2.47744 2.98738 0
M  V30 5437 H 500.849 0.124258 3.72393 0
M  V30 5438 H 500.962 1.8805 4.40652 0
M  V30 5439 H 499.326 0.909995 2.37889 0
M  V30 5440 H 500.109 2.57768 2.26738 0
M  V30 5441 N 502.554 -1.34406 0.822964 0
M  V30 5442 C 503.484 -2.32052 0.259608 0
M  V30 5443 C 504.465 -1.58243 -0.623961 0
M  V30 5444 O 505.65 -1.86224 -0.55083 0
M  V30 5445 C 502.78 -3.42434 -0.579314 0
M  V30 5446 C 501.734 -4.27499 0.20712 0
M  V30 5447 C 501.06 -5.29349 -0.754547 0
M  V30 5448 C 502.36 -5.02758 1.41533 0
M  V30 5449 H 504.054 -2.79418 1.07545 0
M  V30 5450 H 501.6 -1.34338 0.518593 0
M  V30 5451 H 503.553 -4.0976 -0.983612 0
M  V30 5452 H 502.277 -2.93717 -1.4282 0
M  V30 5453 H 500.936 -3.61776 0.592787 0
M  V30 5454 H 500.584 -4.76895 -1.59939 0
M  V30 5455 H 500.284 -5.8714 -0.232561 0
M  V30 5456 H 501.808 -5.99544 -1.1567 0
M  V30 5457 H 503.222 -5.62938 1.08504 0
M  V30 5458 H 501.619 -5.70123 1.87296 0
M  V30 5459 H 502.689 -4.32451 2.1935 0
M  V30 5460 N 504.032 -0.577932 -1.46621 0
M  V30 5461 C 505.443 -0.150071 -1.86096 0
M  V30 5462 C 505.794 1.28563 -1.48209 0
M  V30 5463 O 504.919 1.97036 -0.894754 0
M  V30 5464 C 505.514 -0.265576 -3.37758 0
M  V30 5465 C 504.073 0.10738 -3.76247 0
M  V30 5466 C 503.22 -0.603711 -2.70649 0
M  V30 5467 H 506.171 -0.786438 -1.37844 0
M  V30 5468 H 506.192 0.510352 -3.77062 0
M  V30 5469 H 505.704 -1.3106 -3.65301 0
M  V30 5470 H 503.805 1.15272 -3.54321 0
M  V30 5471 H 503.918 -0.26561 -4.78363 0
M  V30 5472 H 502.282 -0.0444884 -2.54661 0
M  V30 5473 H 503.065 -1.65029 -3.01032 0
M  V30 5474 N 505.51 1.54411 -0.315457 0
M  V30 5475 C 506.926 1.59556 0.037464 0
M  V30 5476 C 507.126 1.33217 1.5118 0
M  V30 5477 O 506.182 1.11264 2.26664 0
M  V30 5478 C 507.495 2.98372 -0.373477 0
M  V30 5479 C 509.043 3.11324 -0.323452 0
M  V30 5480 C 509.518 4.52472 -0.709433 0
M  V30 5481 N 511.009 4.58437 -0.662524 0
M  V30 5482 C 511.744 5.65751 -0.933474 0
M  V30 5483 N 511.24 6.81039 -1.27114 0
M  V30 5484 N 513.033 5.55489 -0.859573 0
M  V30 5485 H 505.184 1.6979 -1.27614 0
M  V30 5486 H 507.447 0.793732 -0.518356 0
M  V30 5487 H 507.153 3.22618 -1.40037 0
M  V30 5488 H 507.027 3.76264 0.265615 0
M  V30 5489 H 509.414 2.86818 0.694223 0
M  V30 5490 H 509.495 2.35555 -0.997367 0
M  V30 5491 H 509.139 4.7771 -1.72498 0
M  V30 5492 H 509.069 5.26598 -0.0132923 0
M  V30 5493 H 511.56 3.75636 -0.413065 0
M  V30 5494 H 511.873 7.58816 -1.46348 0
M  V30 5495 H 510.218 6.82555 -1.30932 0
M  V30 5496 H 513.409 4.64299 -0.595324 0
M  V30 5497 H 513.582 6.39036 -1.0741 0
M  V30 5498 N 506.988 0.0434614 1.5754 0
M  V30 5499 C 507.918 -0.931651 2.14109 0
M  V30 5500 C 508.899 -1.32971 1.06079 0
M  V30 5501 O 510.084 -1.40579 1.33982 0
M  V30 5502 C 507.214 -2.20914 2.67982 0
M  V30 5503 C 506.168 -1.95139 3.80926 0
M  V30 5504 C 505.494 -3.29276 4.21285 0
M  V30 5505 C 506.794 -1.27913 5.06395 0
M  V30 5506 H 508.488 -0.460497 2.95837 0
M  V30 5507 H 506.034 -0.220058 1.42309 0
M  V30 5508 H 507.987 -2.89522 3.06194 0
M  V30 5509 H 506.711 -2.70221 1.83434 0
M  V30 5510 H 505.37 -1.28945 3.43175 0
M  V30 5511 H 505.018 -3.76369 3.33699 0
M  V30 5512 H 504.718 -3.12831 4.97404 0
M  V30 5513 H 506.242 -3.99129 4.62091 0
M  V30 5514 H 507.656 -1.86544 5.42102 0
M  V30 5515 H 506.053 -1.2182 5.87605 0
M  V30 5516 H 507.123 -0.254066 4.84234 0
M  V30 5517 N 508.466 -1.55915 -0.229846 0
M  V30 5518 C 509.714 -1.7819 -0.953565 0
M  V30 5519 C 510.035 -0.610504 -1.85197 0
M  V30 5520 O 509.305 0.372988 -1.92316 0
M  V30 5521 H 507.885 -0.657208 -0.355087 0
M  V30 5522 H 510.547 -1.9337 -0.243693 0
M  V30 5523 H 509.643 -2.70011 -1.56527 0
M  V30 5524 N 509.944 0.496216 -1.49584 0
M  V30 5525 C 510.907 1.57952 -1.66084 0
M  V30 5526 C 511.907 1.51729 -0.53244 0
M  V30 5527 O 513.097 1.54796 -0.79899 0
M  V30 5528 C 510.229 2.97604 -1.66268 0
M  V30 5529 H 511.422 1.44649 -2.6271 0
M  V30 5530 H 508.975 0.7208 -1.38687 0
M  V30 5531 H 509.71 3.16378 -0.712432 0
M  V30 5532 H 509.495 3.03528 -2.4822 0
M  V30 5533 H 510.985 3.76301 -1.81073 0
M  V30 5534 N 511.423 1.38739 0.74761 0
M  V30 5535 C 512.651 1.38521 1.53686 0
M  V30 5536 C 513.066 -0.0235129 1.88785 0
M  V30 5537 O 512.423 -0.991662 1.53207 0
M  V30 5538 C 512.474 2.24641 2.83229 0
M  V30 5539 O 512.195 3.60026 2.49625 0
M  V30 5540 C 513.696 2.32669 3.77333 0
M  V30 5541 H 510.916 0.473589 0.475347 0
M  V30 5542 H 513.46 1.82395 0.924786 0
M  V30 5543 H 511.615 1.84213 3.40799 0
M  V30 5544 H 512.029 4.05435 3.3275 0
M  V30 5545 H 513.503 2.97201 4.65162 0
M  V30 5546 H 513.98 1.3421 4.18192 0
M  V30 5547 H 514.586 2.73512 3.25685 0
M  V30 5548 N 512.901 -0.976442 1.23707 0
M  V30 5549 C 514.312 -1.53284 1.06587 0
M  V30 5550 C 514.663 -1.92765 -0.365526 0
M  V30 5551 O 513.788 -1.7645 -1.25277 0
M  V30 5552 C 514.383 -2.78548 1.92864 0
M  V30 5553 C 512.942 -3.30574 1.79994 0
M  V30 5554 C 512.089 -2.03538 1.88328 0
M  V30 5555 H 515.04 -0.795692 1.37311 0
M  V30 5556 H 515.061 -3.5155 1.45577 0
M  V30 5557 H 514.573 -2.49782 2.97037 0
M  V30 5558 H 512.674 -3.64211 0.786202 0
M  V30 5559 H 512.787 -4.00065 2.636 0
M  V30 5560 H 511.151 -2.17853 1.31954 0
M  V30 5561 H 511.934 -1.77149 2.94063 0
M  V30 5562 N 514.379 -1.04941 -1.1758 0
M  V30 5563 C 515.311 -0.606174 -2.21039 0
M  V30 5564 C 516.324 0.328763 -1.59446 0
M  V30 5565 O 517.513 0.121895 -1.78083 0
M  V30 5566 C 514.613 0.133294 -3.38638 0
M  V30 5567 C 513.786 -0.811711 -4.29802 0
M  V30 5568 C 512.845 -0.113958 -5.26077 0
M  V30 5569 O 511.871 -0.747237 -5.64274 0
M  V30 5570 N 513.073 1.14953 -5.69004 0
M  V30 5571 H 515.838 -1.49606 -2.59689 0
M  V30 5572 H 513.399 -0.930997 -1.32454 0
M  V30 5573 H 515.391 0.610144 -4.00074 0
M  V30 5574 H 513.961 0.924816 -2.98607 0
M  V30 5575 H 513.181 -1.46824 -3.65837 0
M  V30 5576 H 514.469 -1.45326 -4.87604 0
M  V30 5577 H 513.867 1.68441 -5.40041 0
M  V30 5578 H 512.424 1.57049 -6.32597 0
M  V30 5579 N 515.857 1.33968 -0.830081 0
M  V30 5580 C 516.767 2.33164 -0.259207 0
M  V30 5581 C 517.783 1.62951 0.610164 0
M  V30 5582 O 518.959 1.94668 0.516369 0
M  V30 5583 C 516.024 3.42088 0.563598 0
M  V30 5584 C 515.085 4.28037 -0.329014 0
M  V30 5585 C 514.318 5.3176 0.454616 0
M  V30 5586 O 514.541 5.44876 1.6872 0
M  V30 5587 O 513.475 6.01669 -0.166794 0
M  V30 5588 H 517.301 2.83832 -1.08041 0
M  V30 5589 H 514.886 1.37154 -0.59239 0
M  V30 5590 H 516.768 4.08581 1.03147 0
M  V30 5591 H 515.443 2.93651 1.36201 0
M  V30 5592 H 514.35 3.64443 -0.844538 0
M  V30 5593 H 515.683 4.79934 -1.09196 0
M  V30 5594 N 517.335 0.585699 1.46312 0
M  V30 5595 C 518.56 0.0762461 2.0726 0
M  V30 5596 C 518.985 -1.22071 1.43109 0
M  V30 5597 O 518.343 -1.73804 0.515942 0
M  V30 5598 C 518.391 -0.0729404 3.60526 0
M  V30 5599 O 517.495 -1.1287 3.96654 0
M  V30 5600 H 516.836 0.0641558 0.660893 0
M  V30 5601 H 519.366 0.809492 1.87905 0
M  V30 5602 H 519.376 -0.278158 4.07051 0
M  V30 5603 H 518.051 0.874188 4.06609 0
M  V30 5604 H 516.628 -0.901703 3.61834 0
M  V30 5605 N 518.813 -1.54241 0.323641 0
M  V30 5606 C 520.038 -2.05452 -0.283605 0
M  V30 5607 C 520.463 -1.19823 -1.44997 0
M  V30 5608 O 519.821 -0.207358 -1.8011 0
M  V30 5609 C 519.869 -3.53823 -0.695795 0
M  V30 5610 O 518.973 -3.71134 -1.79815 0
M  V30 5611 H 518.314 -0.662024 -0.0511917 0
M  V30 5612 H 520.844 -1.99079 0.472073 0
M  V30 5613 H 520.854 -3.96094 -0.978434 0
M  V30 5614 H 519.529 -4.15602 0.157287 0
M  V30 5615 H 518.106 -3.40768 -1.51431 0
M  V30 5616 N 520.291 -0.0518155 -1.57515 0
M  V30 5617 C 521.221 0.920283 -2.146 0
M  V30 5618 C 522.202 1.32406 -1.06783 0
M  V30 5619 O 523.387 1.39866 -1.34726 0
M  V30 5620 C 520.517 2.1949 -2.6915 0
M  V30 5621 C 519.471 1.93116 -3.81956 0
M  V30 5622 C 518.797 3.27037 -4.23026 0
M  V30 5623 C 520.097 1.25225 -5.07066 0
M  V30 5624 H 521.791 0.444801 -2.96077 0
M  V30 5625 H 519.337 0.212508 -1.42423 0
M  V30 5626 H 521.29 2.87894 -3.07725 0
M  V30 5627 H 520.014 2.69244 -1.84865 0
M  V30 5628 H 518.673 1.27123 -3.43854 0
M  V30 5629 H 518.321 3.74595 -3.3569 0
M  V30 5630 H 518.021 3.10189 -4.99056 0
M  V30 5631 H 519.545 3.96673 -4.64202 0
M  V30 5632 H 520.959 1.83666 -5.43083 0
M  V30 5633 H 519.356 1.18702 -5.88243 0
M  V30 5634 H 520.426 0.228382 -4.84362 0
M  V30 5635 N 521.769 1.56035 0.221574 0
M  V30 5636 C 522.699 1.95434 1.2778 0
M  V30 5637 C 523.68 0.822564 1.48889 0
M  V30 5638 O 524.865 1.08486 1.61072 0
M  V30 5639 C 521.995 2.27102 2.62759 0
M  V30 5640 C 520.949 3.4277 2.56306 0
M  V30 5641 C 520.275 3.60043 3.95314 0
M  V30 5642 C 521.575 4.77742 2.11093 0
M  V30 5643 H 523.269 2.83912 0.950504 0
M  V30 5644 H 520.815 1.36596 0.455791 0
M  V30 5645 H 522.768 2.53256 3.36807 0
M  V30 5646 H 521.492 1.35478 2.97176 0
M  V30 5647 H 520.151 3.16664 1.84715 0
M  V30 5648 H 519.799 2.65794 4.27039 0
M  V30 5649 H 519.499 4.37841 3.91879 0
M  V30 5650 H 521.023 3.88545 4.71025 0
M  V30 5651 H 522.437 5.03102 2.74885 0
M  V30 5652 H 520.834 5.58823 2.18716 0
M  V30 5653 H 521.904 4.731 1.06321 0
M  V30 5654 N 523.247 -0.488276 1.49845 0
M  V30 5655 C 524.21 -1.57069 1.66919 0
M  V30 5656 C 525.21 -1.51445 0.540479 0
M  V30 5657 O 526.4 -1.5437 0.807188 0
M  V30 5658 C 523.532 -2.96718 1.67844 0
M  V30 5659 H 524.725 -1.43254 2.63474 0
M  V30 5660 H 522.278 -0.713435 1.39068 0
M  V30 5661 H 523.013 -3.15996 0.7292 0
M  V30 5662 H 522.798 -3.02208 2.49826 0
M  V30 5663 H 524.288 -3.75335 1.83066 0
M  V30 5664 N 524.725 -1.39134 -0.740242 0
M  V30 5665 C 525.973 -1.35803 -1.49673 0
M  V30 5666 C 526.294 0.0470897 -1.94943 0
M  V30 5667 O 525.564 0.997347 -1.68611 0
M  V30 5668 H 524.144 -0.499736 -0.555224 0
M  V30 5669 H 526.806 -1.73947 -0.879107 0
M  V30 5670 H 525.902 -2.0174 -2.38133 0
M  V30 5671 N 526.204 0.969867 -1.24223 0
M  V30 5672 C 527.453 1.70687 -1.07466 0
M  V30 5673 C 527.766 1.91736 0.386861 0
M  V30 5674 O 528.972 2.62986 0.674581 0
M  V30 5675 C 527.428 3.07217 -1.87472 0
M  V30 5676 C 527.036 2.94018 -3.3802 0
M  V30 5677 C 528.78 3.84804 -1.79237 0
M  V30 5678 C 526.687 4.25844 -4.10379 0
M  V30 5679 H 525.617 0.640067 -0.398536 0
M  V30 5680 H 528.268 1.08092 -1.48285 0
M  V30 5681 H 526.65 3.70628 -1.39466 0
M  V30 5682 H 527.824 2.39632 -3.9359 0
M  V30 5683 H 526.139 2.29898 -3.47183 0
M  V30 5684 H 528.736 4.82417 -2.30603 0
M  V30 5685 H 529.079 4.09356 -0.757197 0
M  V30 5686 H 529.612 3.28115 -2.24912 0
M  V30 5687 H 526.351 4.06486 -5.14246 0
M  V30 5688 H 525.871 4.80054 -3.59594 0
M  V30 5689 H 527.55 4.94475 -4.17257 0
M  V30 5690 N 527.682 1.05563 1.17022 0
M  V30 5691 C 528.612 0.681026 2.23348 0
M  V30 5692 C 529.593 -0.322983 1.67005 0
M  V30 5693 O 530.778 -0.199746 1.9317 0
M  V30 5694 C 527.908 0.0589053 3.4725 0
M  V30 5695 C 526.862 0.988082 4.16438 0
M  V30 5696 C 526.188 0.229646 5.34207 0
M  V30 5697 C 527.488 2.31388 4.68249 0
M  V30 5698 H 529.182 1.56993 2.54938 0
M  V30 5699 H 526.728 0.756302 1.2254 0
M  V30 5700 H 528.681 -0.214982 4.20851 0
M  V30 5701 H 527.405 -0.864968 3.14938 0
M  V30 5702 H 526.064 1.24659 3.44754 0
M  V30 5703 H 525.712 -0.697111 4.98146 0
M  V30 5704 H 525.412 0.848815 5.81437 0
M  V30 5705 H 526.936 -0.0368694 6.10589 0
M  V30 5706 H 528.35 2.09964 5.33468 0
M  V30 5707 H 526.747 2.88736 5.26072 0
M  V30 5708 H 527.817 2.94982 3.84855 0
M  V30 5709 N 529.16 -1.33526 0.837174 0
M  V30 5710 C 530.123 -2.27551 0.274421 0
M  V30 5711 C 531.123 -1.50886 -0.555881 0
M  V30 5712 O 532.313 -1.70227 -0.369918 0
M  V30 5713 C 529.445 -3.35332 -0.613605 0
M  V30 5714 H 530.638 -2.78837 1.10408 0
M  V30 5715 H 528.191 -1.439 0.610126 0
M  V30 5716 H 528.926 -2.89285 -1.46577 0
M  V30 5717 H 528.711 -3.92095 -0.0195341 0
M  V30 5718 H 530.201 -4.05433 -1.00068 0
M  V30 5719 N 530.638 -0.59345 -1.46 0
M  V30 5720 C 531.863 -0.0872365 -2.07216 0
M  V30 5721 C 532.288 1.2131 -1.43755 0
M  V30 5722 O 531.646 1.73528 -0.525152 0
M  V30 5723 C 531.694 0.0538197 -3.6056 0
M  V30 5724 O 530.798 1.10765 -3.97247 0
M  V30 5725 H 530.139 -0.0676598 -0.660544 0
M  V30 5726 H 532.669 -0.819445 -1.87473 0
M  V30 5727 H 532.679 0.256567 -4.07193 0
M  V30 5728 H 531.354 -0.895739 -4.0614 0
M  V30 5729 H 529.931 0.882501 -3.62307 0
M  V30 5730 N 532.116 1.54067 -0.331816 0
M  V30 5731 C 533.026 2.28322 0.539104 0
M  V30 5732 C 534.042 1.32985 1.1221 0
M  V30 5733 O 535.218 1.6601 1.1403 0
M  V30 5734 C 532.283 3.03277 1.68 0
M  V30 5735 C 531.344 4.14216 1.12798 0
M  V30 5736 C 530.577 4.85588 2.2145 0
M  V30 5737 O 530.8 4.56536 3.41952 0
M  V30 5738 O 529.734 5.72309 1.86404 0
M  V30 5739 H 533.56 3.03632 -0.0641692 0
M  V30 5740 H 531.145 1.49083 -0.0972365 0
M  V30 5741 H 533.027 3.50189 2.34405 0
M  V30 5742 H 531.702 2.30834 2.2693 0
M  V30 5743 H 530.609 3.71635 0.428782 0
M  V30 5744 H 531.942 4.88727 0.583698 0
M  V30 5745 N 533.594 0.0601682 1.57485 0
M  V30 5746 C 534.524 -0.90889 2.15085 0
M  V30 5747 C 535.505 -1.31838 1.07484 0
M  V30 5748 O 536.69 -1.3915 1.35466 0
M  V30 5749 C 533.82 -2.18059 2.7031 0
M  V30 5750 C 532.774 -1.91088 3.82974 0
M  V30 5751 C 532.1 -3.24789 4.24754 0
M  V30 5752 C 533.4 -1.22535 5.07723 0
M  V30 5753 H 535.094 -0.429093 2.96309 0
M  V30 5754 H 532.64 -0.204952 1.42534 0
M  V30 5755 H 534.593 -2.86258 3.09248 0
M  V30 5756 H 533.317 -2.6826 1.8629 0
M  V30 5757 H 531.976 -1.25297 3.44523 0
M  V30 5758 H 531.624 -3.72809 3.37672 0
M  V30 5759 H 531.324 -3.07538 5.00694 0
M  V30 5760 H 532.848 -3.94205 4.66299 0
M  V30 5761 H 534.262 -1.80783 5.4405 0
M  V30 5762 H 532.659 -1.1558 5.88864 0
M  V30 5763 H 533.729 -0.202692 4.84476 0
M  V30 5764 N 535.072 -1.5615 -0.213296 0
M  V30 5765 C 536.019 -1.93086 -1.26437 0
M  V30 5766 C 536.989 -0.789086 -1.4616 0
M  V30 5767 O 538.174 -1.04569 -1.59593 0
M  V30 5768 C 535.314 -2.26003 -2.608 0
M  V30 5769 C 534.427 -3.53156 -2.48807 0
M  V30 5770 C 533.562 -3.7548 -3.7575 0
M  V30 5771 C 532.601 -4.96119 -3.58514 0
M  V30 5772 N 531.738 -5.14791 -4.77425 0
M  V30 5773 H 536.578 -2.82707 -0.942376 0
M  V30 5774 H 534.115 -1.39919 -0.454001 0
M  V30 5775 H 536.073 -2.431 -3.39055 0
M  V30 5776 H 534.703 -1.39546 -2.91079 0
M  V30 5777 H 533.755 -3.44207 -1.61944 0
M  V30 5778 H 535.067 -4.41565 -2.31996 0
M  V30 5779 H 534.221 -3.92718 -4.62447 0
M  V30 5780 H 532.96 -2.85368 -3.95495 0
M  V30 5781 H 531.965 -4.78823 -2.70201 0
M  V30 5782 H 533.19 -5.87724 -3.40231 0
M  V30 5783 H 531.136 -4.27623 -4.97468 0
M  V30 5784 H 531.053 -5.97347 -4.63371 0
M  V30 5785 H 532.321 -5.36471 -5.65525 0
M  V30 5786 N 536.55 0.480323 -1.50102 0
M  V30 5787 C 537.775 1.26126 -1.64642 0
M  V30 5788 C 538.2 1.85257 -0.325823 0
M  V30 5789 O 537.558 1.66854 0.709194 0
M  V30 5790 C 537.606 2.35243 -2.73301 0
M  V30 5791 O 536.71 3.39646 -2.33911 0
M  V30 5792 H 536.051 0.371463 -0.550374 0
M  V30 5793 H 538.581 0.572696 -1.96421 0
M  V30 5794 H 538.591 2.80695 -2.96098 0
M  V30 5795 H 537.266 1.91574 -3.6915 0
M  V30 5796 H 535.843 2.99969 -2.21525 0
M  V30 5797 N 538.028 1.39524 0.732853 0
M  V30 5798 C 539.253 1.40329 1.52717 0
M  V30 5799 C 539.678 0.000286574 1.881 0
M  V30 5800 O 539.036 -0.987262 1.52062 0
M  V30 5801 C 539.084 2.28464 2.78992 0
M  V30 5802 O 538.188 1.716 3.75003 0
M  V30 5803 H 537.529 0.47778 0.461109 0
M  V30 5804 H 540.059 1.83546 0.903996 0
M  V30 5805 H 540.069 2.43051 3.27705 0
M  V30 5806 H 538.744 3.30425 2.52572 0
M  V30 5807 H 537.321 1.66267 3.33781 0
M  V30 5808 N 539.506 -0.963266 1.24736 0
M  V30 5809 C 540.752 -1.71 1.10139 0
M  V30 5810 C 541.107 -1.89089 -0.35541 0
M  V30 5811 O 540.4 -1.44451 -1.25875 0
M  V30 5812 C 540.594 -3.09944 1.7796 0
M  V30 5813 C 540.423 -3.05408 3.30085 0
M  V30 5814 C 539.193 -3.09643 3.99311 0
M  V30 5815 C 541.391 -2.87241 4.26611 0
M  V30 5816 N 539.373 -2.95174 5.3828 0
M  V30 5817 C 540.744 -2.81114 5.52607 0
M  V30 5818 C 542.799 -2.71856 4.17132 0
M  V30 5819 C 541.502 -2.61174 6.70209 0
M  V30 5820 C 543.528 -2.53284 5.34417 0
M  V30 5821 C 542.89 -2.4787 6.59348 0
M  V30 5822 H 538.989 -0.634078 0.457678 0
M  V30 5823 H 541.573 -1.14169 1.57713 0
M  V30 5824 H 539.744 -3.64958 1.32893 0
M  V30 5825 H 541.476 -3.73348 1.56183 0
M  V30 5826 H 538.231 -3.18498 3.50508 0
M  V30 5827 H 538.655 -2.91168 6.11188 0
M  V30 5828 H 543.297 -2.74821 3.21299 0
M  V30 5829 H 541.015 -2.56952 7.6616 0
M  V30 5830 H 544.601 -2.42317 5.28936 0
M  V30 5831 H 543.481 -2.33685 7.48573 0
M  V30 5832 N 540.985 -1.06182 -1.16461 0
M  V30 5833 C 541.948 -0.675723 -2.19013 0
M  V30 5834 C 542.948 0.277963 -1.58379 0
M  V30 5835 O 544.138 0.0604962 -1.74095 0
M  V30 5836 C 541.27 0.00591459 -3.40899 0
M  V30 5837 H 542.463 -1.58353 -2.54685 0
M  V30 5838 H 540.016 -0.856908 -1.30716 0
M  V30 5839 H 540.751 0.92652 -3.10783 0
M  V30 5840 H 540.536 -0.67984 -3.86161 0
M  V30 5841 H 542.026 0.26181 -4.16778 0
M  V30 5842 N 542.463 1.3308 -0.844243 0
M  V30 5843 C 543.41 2.29104 -0.279323 0
M  V30 5844 C 544.38 1.54577 0.607882 0
M  V30 5845 O 545.565 1.8285 0.545009 0
M  V30 5846 C 542.705 3.40927 0.53508 0
M  V30 5847 C 541.818 4.30354 -0.376749 0
M  V30 5848 C 540.953 5.29297 0.449276 0
M  V30 5849 C 539.992 6.10365 -0.460606 0
M  V30 5850 N 539.129 7.01335 0.327612 0
M  V30 5851 H 543.969 2.76817 -1.10346 0
M  V30 5852 H 541.506 1.36203 -0.555611 0
M  V30 5853 H 543.464 4.04469 1.02278 0
M  V30 5854 H 542.094 2.94391 1.32414 0
M  V30 5855 H 541.146 3.67485 -0.982791 0
M  V30 5856 H 542.458 4.87067 -1.07549 0
M  V30 5857 H 541.612 5.98392 1.00058 0
M  V30 5858 H 540.351 4.73174 1.18143 0
M  V30 5859 H 539.356 5.40182 -1.02388 0
M  V30 5860 H 540.581 6.68571 -1.1912 0
M  V30 5861 H 538.527 6.47655 1.04305 0
M  V30 5862 H 538.444 7.55355 -0.3123 0
M  V30 5863 H 539.712 7.74731 0.86098 0
M  V30 5864 N 543.941 0.601185 1.45683 0
M  V30 5865 C 545.166 0.0982245 2.07167 0
M  V30 5866 C 545.591 -1.20546 1.44396 0
M  V30 5867 O 544.949 -1.73247 0.534347 0
M  V30 5868 C 544.997 -0.0346976 3.60583 0
M  V30 5869 O 544.101 -1.08657 3.97828 0
M  V30 5870 H 543.442 0.0711618 0.660176 0
M  V30 5871 H 545.972 0.829376 1.87036 0
M  V30 5872 H 545.982 -0.234969 4.07323 0
M  V30 5873 H 544.657 0.917265 4.05659 0
M  V30 5874 H 543.234 -0.863275 3.6277 0
M  V30 5875 N 545.419 -1.53889 0.339982 0
M  V30 5876 C 546.667 -2.00458 -0.257112 0
M  V30 5877 C 546.988 -1.22953 -1.51353 0
M  V30 5878 O 546.258 -0.335734 -1.93002 0
M  V30 5879 H 544.838 -0.740544 -0.0979965 0
M  V30 5880 H 547.5 -1.89386 0.460317 0
M  V30 5881 H 546.596 -3.08035 -0.502057 0
M  V30 5882 N 546.897 -0.0685191 -1.57451 0
M  V30 5883 C 548.125 0.610462 -1.97689 0
M  V30 5884 C 548.54 1.63346 -0.946758 0
M  V30 5885 O 547.897 1.82377 0.0669868 0
M  V30 5886 C 547.948 1.28196 -3.38006 0
M  V30 5887 O 547.669 0.299906 -4.37072 0
M  V30 5888 C 549.17 2.04907 -3.931 0
M  V30 5889 H 546.39 0.165689 -0.650222 0
M  V30 5890 H 548.934 -0.139953 -2.04021 0
M  V30 5891 H 547.089 1.98348 -3.32771 0
M  V30 5892 H 547.503 0.78126 -5.18649 0
M  V30 5893 H 548.977 2.47287 -4.93511 0
M  V30 5894 H 549.454 2.9043 -3.29465 0
M  V30 5895 H 550.06 1.39629 -4.01726 0
M  V30 5896 N 548.375 1.56261 0.205012 0
M  V30 5897 C 549.623 1.79684 0.925096 0
M  V30 5898 C 549.944 0.63989 1.84202 0
M  V30 5899 O 549.214 -0.342345 1.92885 0
M  V30 5900 H 547.794 0.662774 0.344587 0
M  V30 5901 H 550.456 1.93734 0.212899 0
M  V30 5902 H 549.552 2.72467 1.52211 0
M  V30 5903 N 549.853 -0.472356 1.50355 0
M  V30 5904 C 550.763 -1.59637 1.7191 0
M  V30 5905 C 551.779 -1.63247 0.602195 0
M  V30 5906 O 552.955 -1.81139 0.880369 0
M  V30 5907 C 550.02 -2.9586 1.80742 0
M  V30 5908 C 549.081 -3.02649 3.04471 0
M  V30 5909 C 548.314 -4.32374 3.12872 0
M  V30 5910 O 548.537 -5.22807 2.28099 0
M  V30 5911 O 547.471 -4.44728 4.05587 0
M  V30 5912 H 551.297 -1.44373 2.67189 0
M  V30 5913 H 548.882 -0.651717 1.34436 0
M  V30 5914 H 550.764 -3.7677 1.88739 0
M  V30 5915 H 549.439 -3.11325 0.88647 0
M  V30 5916 H 548.346 -2.20821 3.01975 0
M  V30 5917 H 549.679 -2.92119 3.9614 0
M  V30 5918 N 551.331 -1.39911 -0.725443 0
M  V30 5919 C 552.577 -1.37858 -1.48738 0
M  V30 5920 C 552.91 0.0224187 -1.94187 0
M  V30 5921 O 552.185 0.989204 -1.67466 0
M  V30 5922 C 552.468 -2.3594 -2.72038 0
M  V30 5923 C 552.321 -3.85023 -2.32546 0
M  V30 5924 C 553.64 -2.31704 -3.74167 0
M  V30 5925 H 550.759 -0.502074 -0.539528 0
M  V30 5926 H 553.401 -1.70974 -0.828728 0
M  V30 5927 H 551.551 -2.0783 -3.28236 0
M  V30 5928 H 553.223 -4.2392 -1.81905 0
M  V30 5929 H 551.466 -4.01334 -1.64661 0
M  V30 5930 H 552.137 -4.49152 -3.20884 0
M  V30 5931 H 554.613 -2.5658 -3.27576 0
M  V30 5932 H 553.489 -3.02395 -4.58092 0
M  V30 5933 H 553.75 -1.3253 -4.21768 0
M  V30 5934 N 552.809 0.956637 -1.25245 0
M  V30 5935 C 554.22 1.51569 -1.09012 0
M  V30 5936 C 554.571 1.93322 0.334813 0
M  V30 5937 O 553.696 1.78421 1.22454 0
M  V30 5938 C 554.291 2.75444 -1.97271 0
M  V30 5939 C 552.85 3.27669 -1.8523 0
M  V30 5940 C 551.997 2.00517 -1.91542 0
M  V30 5941 H 554.948 0.773746 -1.3856 0
M  V30 5942 H 554.969 3.4919 -1.51151 0
M  V30 5943 H 554.481 2.45024 -3.00973 0
M  V30 5944 H 552.582 3.62914 -0.844045 0
M  V30 5945 H 552.695 3.9582 -2.69932 0
M  V30 5946 H 551.059 2.15727 -1.35404 0
M  V30 5947 H 551.842 1.72448 -2.96844 0
M  V30 5948 N 554.287 1.06798 1.15896 0
M  V30 5949 C 555.512 0.808739 1.90982 0
M  V30 5950 C 555.937 -0.6316 1.77179 0
M  V30 5951 O 555.295 -1.4407 1.10061 0
M  V30 5952 C 555.343 1.21468 3.39526 0
M  V30 5953 O 554.447 0.356562 4.10856 0
M  V30 5954 H 553.788 0.29512 0.594811 0
M  V30 5955 H 556.318 1.42513 1.46804 0
M  V30 5956 H 556.328 1.18844 3.90308 0
M  V30 5957 H 555.003 2.26379 3.48891 0
M  V30 5958 H 553.58 0.444808 3.70238 0
M  V30 5959 N 555.766 -1.3263 0.851289 0
M  V30 5960 C 556.729 -2.27247 0.298541 0
M  V30 5961 C 557.729 -1.51467 -0.539847 0
M  V30 5962 O 558.919 -1.7061 -0.351843 0
M  V30 5963 C 556.051 -3.35964 -0.578004 0
M  V30 5964 H 557.244 -2.7765 1.13359 0
M  V30 5965 H 554.797 -1.43245 0.625354 0
M  V30 5966 H 555.532 -2.90823 -1.435 0
M  V30 5967 H 555.317 -3.92094 0.0220539 0
M  V30 5968 H 556.807 -4.06472 -0.957626 0
M  V30 5969 N 557.244 -0.608902 -1.45362 0
M  V30 5970 C 558.655 -0.189511 -1.85736 0
M  V30 5971 C 559.006 1.2539 -1.50903 0
M  V30 5972 O 558.131 1.95094 -0.936347 0
M  V30 5973 C 558.726 -0.33716 -3.37118 0
M  V30 5974 C 557.285 0.0275487 -3.7639 0
M  V30 5975 C 556.432 -0.660983 -2.69307 0
M  V30 5976 H 559.383 -0.815499 -1.36144 0
M  V30 5977 H 559.404 0.430257 -3.7806 0
M  V30 5978 H 558.916 -1.38779 -3.62439 0
M  V30 5979 H 557.017 1.0773 -3.56686 0
M  V30 5980 H 557.13 -0.367018 -4.77692 0
M  V30 5981 H 555.494 -0.0984958 -2.54509 0
M  V30 5982 H 556.277 -1.71377 -2.97464 0
M  V30 5983 N 558.722 1.53707 -0.348139 0
M  V30 5984 C 560.138 1.596 0.00361134 0
M  V30 5985 C 560.338 1.36394 1.4832 0
M  V30 5986 O 559.394 1.16046 2.24253 0
M  V30 5987 C 560.707 2.97512 -0.436682 0
M  V30 5988 C 562.255 3.10568 -0.389416 0
M  V30 5989 C 562.73 4.50866 -0.805249 0
M  V30 5990 N 564.221 4.56929 -0.759616 0
M  V30 5991 C 564.956 5.63643 -1.05327 0
M  V30 5992 N 564.452 6.78189 -1.41531 0
M  V30 5993 N 566.245 5.5354 -0.977207 0
M  V30 5994 H 558.396 1.67044 -1.31187 0
M  V30 5995 H 560.659 0.782559 -0.535075 0
M  V30 5996 H 560.365 3.19575 -1.46849 0
M  V30 5997 H 560.239 3.76742 0.185744 0
M  V30 5998 H 562.626 2.88226 0.633228 0
M  V30 5999 H 562.707 2.33387 -1.04711 0
M  V30 6000 H 562.351 4.73943 -1.82593 0
M  V30 6001 H 562.281 5.26452 -0.124989 0
M  V30 6002 H 564.772 3.74675 -0.49265 0
M  V30 6003 H 565.085 7.55541 -1.62411 0
M  V30 6004 H 563.43 6.79624 -1.45381 0
M  V30 6005 H 566.621 4.62932 -0.693675 0
M  V30 6006 H 566.794 6.36614 -1.2094 0
M  V30 6007 N 560.2 0.0768682 1.57412 0
M  V30 6008 C 561.11 -0.903207 2.16516 0
M  V30 6009 C 562.126 -1.32341 1.12968 0
M  V30 6010 O 563.302 -1.39507 1.45258 0
M  V30 6011 C 560.367 -2.1508 2.71922 0
M  V30 6012 C 559.428 -1.78653 3.90361 0
M  V30 6013 C 558.661 -2.97465 4.43114 0
M  V30 6014 O 558.884 -4.11638 3.94854 0
M  V30 6015 O 557.818 -2.76987 5.3438 0
M  V30 6016 H 561.644 -0.430427 3.00634 0
M  V30 6017 H 559.229 -0.146485 1.4868 0
M  V30 6018 H 561.111 -2.8823 3.07411 0
M  V30 6019 H 559.786 -2.61446 1.9086 0
M  V30 6020 H 558.693 -1.0274 3.59716 0
M  V30 6021 H 560.026 -1.37066 4.7273 0
M  V30 6022 N 561.678 -1.56367 -0.196722 0
M  V30 6023 C 562.626 -1.95304 -1.2633 0
M  V30 6024 C 563.62 -0.838252 -1.47206 0
M  V30 6025 O 564.826 -1.02325 -1.48087 0
M  V30 6026 H 561.201 -0.621013 -0.424083 0
M  V30 6027 H 563.172 -2.84254 -0.907879 0
M  V30 6028 C 561.921 -2.3074 -2.60104 0
M  V30 6029 H 561.244 -3.16047 -2.44856 0
M  V30 6030 H 562.684 -2.61849 -3.33484 0
M  V30 6031 C 561.143 -1.14143 -3.16975 0
M  V30 6032 O 561.673 -0.415602 -3.99544 0
M  V30 6033 N 559.879 -0.91867 -2.75697 0
M  V30 6034 H 559.426 -1.51065 -2.08656 0
M  V30 6035 H 559.384 -0.140321 -3.14087 0
M  V30 6036 N 563.156 0.464375 -1.50603 0
M  V30 6037 C 564.572 0.798684 -1.38178 0
M  V30 6038 C 564.772 1.96568 -0.44308 0
M  V30 6039 O 563.828 2.52252 0.111814 0
M  V30 6040 C 565.141 1.10444 -2.79683 0
M  V30 6041 C 566.689 1.2105 -2.88645 0
M  V30 6042 C 567.164 1.54934 -4.30998 0
M  V30 6043 N 568.655 1.61913 -4.3398 0
M  V30 6044 C 569.39 1.8965 -5.41129 0
M  V30 6045 N 568.886 2.15361 -6.58477 0
M  V30 6046 N 570.679 1.91207 -5.28579 0
M  V30 6047 H 562.83 -0.304603 -2.10204 0
M  V30 6048 H 565.093 -0.0737804 -0.945125 0
M  V30 6049 H 564.799 0.319934 -3.50242 0
M  V30 6050 H 564.673 2.03896 -3.17342 0
M  V30 6051 H 567.06 1.98567 -2.18301 0
M  V30 6052 H 567.141 0.255613 -2.5452 0
M  V30 6053 H 566.785 0.779549 -5.01882 0
M  V30 6054 H 566.715 2.51584 -4.62615 0
M  V30 6055 H 569.206 1.44055 -3.49366 0
M  V30 6056 H 569.519 2.35818 -7.35941 0
M  V30 6057 H 567.864 2.1274 -6.6164 0
M  V30 6058 H 571.055 1.70622 -4.35897 0
M  V30 6059 H 571.228 2.12488 -6.12171 0
M  V30 6060 N 564.634 1.40294 0.718013 0
M  V30 6061 C 565.862 1.4175 1.50714 0
M  V30 6062 C 566.277 0.0165366 1.88793 0
M  V30 6063 O 565.634 -0.958942 1.55276 0
M  V30 6064 C 565.685 2.30598 2.784 0
M  V30 6065 O 565.406 3.6524 2.41932 0
M  V30 6066 C 566.907 2.4062 3.72313 0
M  V30 6067 H 564.127 0.483565 0.465194 0
M  V30 6068 H 566.671 1.84316 0.885889 0
M  V30 6069 H 564.826 1.91401 3.36815 0
M  V30 6070 H 565.24 4.12402 3.24076 0
M  V30 6071 H 566.714 3.07001 4.58753 0
M  V30 6072 H 567.191 1.4305 4.15251 0
M  V30 6073 H 567.797 2.80359 3.19811 0
M  V30 6074 N 566.112 -0.949982 1.2575 0
M  V30 6075 C 567.34 -1.72972 1.13527 0
M  V30 6076 C 567.755 -1.8623 -0.310453 0
M  V30 6077 O 567.112 -1.36336 -1.2132 0
M  V30 6078 C 567.163 -3.14108 1.78936 0
M  V30 6079 O 566.884 -3.01493 3.17858 0
M  V30 6080 C 568.385 -4.08338 1.72554 0
M  V30 6081 H 565.605 -0.541864 0.395758 0
M  V30 6082 H 568.149 -1.19151 1.66202 0
M  V30 6083 H 566.304 -3.64858 1.30221 0
M  V30 6084 H 566.718 -3.90559 3.50092 0
M  V30 6085 H 568.192 -5.04963 2.22973 0
M  V30 6086 H 568.669 -4.33742 0.690251 0
M  V30 6087 H 569.275 -3.63506 2.2078 0
M  V30 6088 N 567.59 -1.07411 -1.15328 0
M  V30 6089 C 569.001 -0.820261 -1.67716 0
M  V30 6090 C 569.352 0.654539 -1.8496 0
M  V30 6091 O 568.477 1.50664 -1.55337 0
M  V30 6092 C 569.072 -1.48242 -3.04647 0
M  V30 6093 C 567.631 -1.27606 -3.5411 0
M  V30 6094 C 566.778 -1.5517 -2.29821 0
M  V30 6095 H 569.729 -1.23608 -0.995332 0
M  V30 6096 H 569.75 -0.903984 -3.69606 0
M  V30 6097 H 569.262 -2.55578 -2.92064 0
M  V30 6098 H 567.363 -0.222948 -3.71932 0
M  V30 6099 H 567.476 -1.99667 -4.35511 0
M  V30 6100 H 565.84 -0.972747 -2.35393 0
M  V30 6101 H 566.623 -2.63689 -2.19824 0
M  V30 6102 N 569.068 1.32177 -0.85831 0
M  V30 6103 C 570.345 1.91781 -0.384624 0
M  V30 6104 C 570.725 1.78171 1.13217 0
M  V30 6105 O 570.073 1.18209 1.95548 0
M  V30 6106 C 570.283 3.38414 -0.853047 0
M  V30 6107 C 571.631 4.15542 -0.872359 0
M  V30 6108 O 572.655 3.47148 -0.797926 0
M  V30 6109 O 571.514 5.37678 -0.978009 0
M  V30 6110 H 568.608 0.819259 -0.112886 0
M  V30 6111 H 571.154 1.40923 -0.945453 0
M  V30 6112 H 569.926 3.4228 -1.89632 0
M  V30 6113 H 569.549 3.96683 -0.269874 0
M  V30 6114 N 570.547 0.616602 1.45037 0
M  V30 6115 C 571.787 0.118453 2.04056 0
M  V30 6116 C 572.151 -1.23104 1.47341 0
M  V30 6117 O 573.352 -1.82044 1.97771 0
M  V30 6118 C 571.623 0.0892842 3.57288 0
M  V30 6119 S 573.182 -0.346361 4.37431 0
M  V30 6120 H 570 0.0539728 0.708948 0
M  V30 6121 H 572.602 0.816731 1.77623 0
M  V30 6122 H 571.306 1.07481 3.96076 0
M  V30 6123 H 570.837 -0.630703 3.88311 0
M  V30 6124 H 572.852 -1.59389 4.69904 0
M  V30 6125 N 572.025 -1.5352 0.356285 0
M  V30 6126 C 572.935 -2.29151 -0.502712 0
M  V30 6127 C 573.951 -1.34753 -1.1008 0
M  V30 6128 O 575.127 -1.67803 -1.11374 0
M  V30 6129 C 572.192 -3.05911 -1.63154 0
M  V30 6130 C 571.253 -4.15958 -1.06194 0
M  V30 6131 C 570.486 -4.8905 -2.13696 0
M  V30 6132 O 570.709 -4.61919 -3.34645 0
M  V30 6133 O 569.643 -5.75202 -1.77275 0
M  V30 6134 H 573.469 -3.03492 0.112466 0
M  V30 6135 H 571.054 -1.4891 0.120942 0
M  V30 6136 H 572.936 -3.53874 -2.28804 0
M  V30 6137 H 571.611 -2.34415 -2.23229 0
M  V30 6138 H 570.518 -3.7227 -0.369603 0
M  V30 6139 H 571.851 -4.89593 -0.505872 0
M  V30 6140 N 573.503 -0.0852151 -1.57369 0
M  V30 6141 C 574.919 0.271436 -1.57275 0
M  V30 6142 C 575.119 1.69109 -1.09565 0
M  V30 6143 O 574.175 2.40549 -0.767611 0
M  V30 6144 C 575.488 0.0688638 -3.00621 0
M  V30 6145 C 577.036 0.137373 -3.12698 0
M  V30 6146 C 577.511 -0.0370832 -4.57985 0
M  V30 6147 N 579.002 0.0180794 -4.63196 0
M  V30 6148 C 579.737 -0.0922953 -5.73326 0
M  V30 6149 N 579.233 -0.256948 -6.92323 0
M  V30 6150 N 581.026 -0.0342702 -5.6209 0
M  V30 6151 H 573.177 -1.01288 -1.86693 0
M  V30 6152 H 575.44 -0.396138 -0.861266 0
M  V30 6153 H 575.146 -0.911277 -3.39689 0
M  V30 6154 H 575.02 0.815442 -3.6828 0
M  V30 6155 H 577.407 1.10801 -2.73509 0
M  V30 6156 H 577.488 -0.640532 -2.47651 0
M  V30 6157 H 577.132 -1.00455 -4.97867 0
M  V30 6158 H 577.062 0.760392 -5.21081 0
M  V30 6159 H 579.553 0.143202 -3.77629 0
M  V30 6160 H 579.866 -0.332949 -7.72082 0
M  V30 6161 H 578.211 -0.292487 -6.94384 0
M  V30 6162 H 581.402 0.0931605 -4.68007 0
M  V30 6163 H 581.575 -0.12374 -6.47882 0
M  V30 6164 N 574.981 1.5647 0.188427 0
M  V30 6165 C 575.944 1.9421 1.21718 0
M  V30 6166 C 576.944 0.823901 1.38089 0
M  V30 6167 O 578.134 1.09122 1.35787 0
M  V30 6168 C 575.266 2.22197 2.58537 0
M  V30 6169 H 576.459 2.86252 0.894418 0
M  V30 6170 H 574.012 1.50263 0.430211 0
M  V30 6171 H 574.747 1.32814 2.95856 0
M  V30 6172 H 574.532 3.03688 2.48025 0
M  V30 6173 H 576.022 2.52376 3.3271 0
M  V30 6174 N 576.459 -0.456382 1.50847 0
M  V30 6175 C 577.706 -1.20736 1.62571 0
M  V30 6176 C 578.034 -1.9163 0.332904 0
M  V30 6177 O 577.289 -1.8343 -0.682058 0
M  V30 6178 C 577.588 -2.26336 2.76599 0
M  V30 6179 C 577.254 -1.7259 4.16562 0
M  V30 6180 C 575.916 -1.57654 4.54641 0
M  V30 6181 C 578.268 -1.32877 5.03977 0
M  V30 6182 C 575.596 -1.0145 5.77862 0
M  V30 6183 C 577.948 -0.7811 6.27759 0
M  V30 6184 C 576.612 -0.618488 6.64628 0
M  V30 6185 H 575.882 -0.441803 0.594888 0
M  V30 6186 H 578.529 -0.501169 1.84826 0
M  V30 6187 H 576.834 -3.0292 2.48489 0
M  V30 6188 H 578.531 -2.84227 2.82871 0
M  V30 6189 H 575.121 -1.85187 3.86528 0
M  V30 6190 H 579.305 -1.43245 4.75179 0
M  V30 6191 H 574.561 -0.876109 6.0509 0
M  V30 6192 H 578.735 -0.464783 6.94847 0
M  V30 6193 H 576.362 -0.180838 7.59985 0
M  V30 6194 N 577.937 -1.40673 -0.710563 0
M  V30 6195 C 579.348 -1.34975 -1.28991 0
M  V30 6196 C 579.699 -0.0256272 -1.96183 0
M  V30 6197 O 578.824 0.876339 -1.97862 0
M  V30 6198 C 579.419 -2.44467 -2.34567 0
M  V30 6199 C 577.978 -2.42213 -2.88114 0
M  V30 6200 C 577.125 -2.25085 -1.61963 0
M  V30 6201 H 580.076 -1.50406 -0.506343 0
M  V30 6202 H 580.097 -2.12663 -3.15523 0
M  V30 6203 H 579.609 -3.40825 -1.85634 0
M  V30 6204 H 577.71 -1.49568 -3.41263 0
M  V30 6205 H 577.823 -3.37983 -3.39565 0
M  V30 6206 H 576.187 -1.72691 -1.87216 0
M  V30 6207 H 576.97 -3.23449 -1.15047 0
M  V30 6208 N 579.415 0.9433 -1.26252 0
M  V30 6209 C 580.325 2.07532 -1.09397 0
M  V30 6210 C 581.341 1.73977 -0.0280449 0
M  V30 6211 O 582.517 2.00067 -0.231337 0
M  V30 6212 C 579.582 3.39002 -0.726523 0
M  V30 6213 C 578.643 3.86353 -1.87163 0
M  V30 6214 C 577.876 5.11549 -1.52162 0
M  V30 6215 O 578.099 5.68834 -0.422385 0
M  V30 6216 O 577.033 5.53889 -2.35565 0
M  V30 6217 H 580.859 2.24658 -2.04359 0
M  V30 6218 H 578.444 1.05988 -1.05295 0
M  V30 6219 H 580.326 4.18 -0.534236 0
M  V30 6220 H 579.001 3.2312 0.193721 0
M  V30 6221 H 577.908 3.0831 -2.11886 0
M  V30 6222 H 579.241 4.06752 -2.77152 0
M  V30 6223 N 580.893 1.08022 1.14757 0
M  V30 6224 C 581.803 0.718292 2.23333 0
M  V30 6225 C 582.819 -0.273477 1.71837 0
M  V30 6226 O 583.995 -0.118406 2.01052 0
M  V30 6227 C 581.06 0.128855 3.4646 0
M  V30 6228 C 580.121 1.17473 4.12915 0
M  V30 6229 C 579.354 0.61333 5.30164 0
M  V30 6230 O 579.577 -0.568458 5.6756 0
M  V30 6231 O 578.511 1.3615 5.86299 0
M  V30 6232 H 582.337 1.62394 2.56636 0
M  V30 6233 H 579.922 0.853628 1.22611 0
M  V30 6234 H 581.804 -0.197249 4.20938 0
M  V30 6235 H 580.479 -0.750014 3.14891 0
M  V30 6236 H 579.386 1.5533 3.40328 0
M  V30 6237 H 580.719 2.02574 4.48581 0
M  V30 6238 N 582.371 -1.3172 0.865308 0
M  V30 6239 C 583.787 -1.4958 0.556596 0
M  V30 6240 C 583.987 -1.79763 -0.910353 0
M  V30 6241 O 583.043 -1.87351 -1.6928 0
M  V30 6242 C 584.356 -2.63277 1.45279 0
M  V30 6243 C 585.904 -2.77161 1.45433 0
M  V30 6244 C 586.379 -3.93949 2.33598 0
M  V30 6245 N 587.87 -4.01228 2.31453 0
M  V30 6246 C 588.605 -4.90855 2.96393 0
M  V30 6247 N 588.101 -5.85416 3.70486 0
M  V30 6248 N 589.894 -4.84063 2.85726 0
M  V30 6249 H 582.045 -1.10396 1.81456 0
M  V30 6250 H 584.308 -0.54507 0.775631 0
M  V30 6251 H 584.014 -2.47734 2.49641 0
M  V30 6252 H 583.888 -3.59309 1.14792 0
M  V30 6253 H 586.275 -2.9212 0.41831 0
M  V30 6254 H 586.356 -1.8181 1.79941 0
M  V30 6255 H 586 -3.79748 3.37274 0
M  V30 6256 H 585.93 -4.88598 1.96417 0
M  V30 6257 H 588.421 -3.3357 1.77593 0
M  V30 6258 H 588.734 -6.50525 4.17178 0
M  V30 6259 H 587.079 -5.85409 3.74594 0
M  V30 6260 H 590.27 -4.09163 2.27384 0
M  V30 6261 H 590.443 -5.53708 3.36617 0
M  V30 6262 N 583.85 -0.624285 -1.44708 0
M  V30 6263 C 585.26 -0.2092 -1.85524 0
M  V30 6264 C 585.611 1.23783 -1.52225 0
M  V30 6265 O 584.736 1.94089 -0.956986 0
M  V30 6266 C 585.332 -0.372897 -3.36742 0
M  V30 6267 C 583.891 -0.012374 -3.76398 0
M  V30 6268 C 583.038 -0.68951 -2.68591 0
M  V30 6269 H 585.989 -0.829894 -1.35272 0
M  V30 6270 H 586.01 0.390134 -3.78495 0
M  V30 6271 H 585.522 -1.42615 -3.60947 0
M  V30 6272 H 583.623 1.03941 -3.57809 0
M  V30 6273 H 583.736 -0.417663 -4.77276 0
M  V30 6274 H 582.1 -0.125484 -2.54391 0
M  V30 6275 H 582.883 -1.74522 -2.9563 0
M  V30 6276 N 585.328 1.53329 -0.364422 0
M  V30 6277 C 586.238 2.29414 0.490552 0
M  V30 6278 C 587.254 1.35335 1.09363 0
M  V30 6279 O 588.43 1.68391 1.10483 0
M  V30 6280 C 585.495 3.06772 1.61529 0
M  V30 6281 C 584.556 4.16516 1.03986 0
M  V30 6282 C 583.789 4.90176 2.111 0
M  V30 6283 O 584.012 4.63687 3.32191 0
M  V30 6284 O 582.946 5.76134 1.74222 0
M  V30 6285 H 586.772 3.03428 -0.12856 0
M  V30 6286 H 584.357 1.48843 -0.128837 0
M  V30 6287 H 586.239 3.55082 2.26924 0
M  V30 6288 H 584.914 2.35596 2.21983 0
M  V30 6289 H 583.821 3.7246 0.349856 0
M  V30 6290 H 585.154 4.89855 0.4799 0
M  V30 6291 N 586.806 0.0935595 1.57322 0
M  V30 6292 C 588.052 -0.571355 1.94585 0
M  V30 6293 C 588.385 -1.67929 0.975366 0
M  V30 6294 O 587.66 -1.94498 0.00816206 0
M  V30 6295 C 587.943 -1.12797 3.41978 0
M  V30 6296 C 587.796 -0.0251881 4.49793 0
M  V30 6297 C 589.115 -2.02682 3.90651 0
M  V30 6298 H 586.234 -0.206223 0.70756 0
M  V30 6299 H 588.876 0.163956 1.89291 0
M  V30 6300 H 587.026 -1.75461 3.4662 0
M  V30 6301 H 588.698 0.608979 4.57263 0
M  V30 6302 H 586.941 0.641399 4.29032 0
M  V30 6303 H 587.612 -0.455433 5.50118 0
M  V30 6304 H 590.088 -1.49925 3.88152 0
M  V30 6305 H 588.964 -2.38555 4.94351 0
M  V30 6306 H 589.225 -2.94362 3.29854 0
M  V30 6307 N 588.284 -1.56567 -0.180126 0
M  V30 6308 C 589.214 -1.98753 -1.22553 0
M  V30 6309 C 590.195 -0.86175 -1.46656 0
M  V30 6310 O 591.38 -1.12719 -1.58139 0
M  V30 6311 C 588.51 -2.33988 -2.56645 0
M  V30 6312 C 587.464 -3.49445 -2.47128 0
M  V30 6313 C 586.79 -3.70397 -3.8563 0
M  V30 6314 C 588.09 -4.83171 -1.98352 0
M  V30 6315 H 589.784 -2.86332 -0.874896 0
M  V30 6316 H 587.33 -1.37757 -0.419414 0
M  V30 6317 H 589.283 -2.62097 -3.29974 0
M  V30 6318 H 588.007 -1.43309 -2.93479 0
M  V30 6319 H 586.666 -3.2145 -1.76254 0
M  V30 6320 H 586.314 -2.77023 -4.19842 0
M  V30 6321 H 586.014 -4.48077 -3.80132 0
M  V30 6322 H 587.538 -4.00897 -4.60558 0
M  V30 6323 H 588.952 -5.10213 -2.61449 0
M  V30 6324 H 587.349 -5.64425 -2.03823 0
M  V30 6325 H 588.419 -4.75753 -0.937402 0
M  V30 6326 N 589.762 0.448376 -1.51087 0
M  V30 6327 C 591.01 1.19635 -1.62886 0
M  V30 6328 C 591.331 1.91977 -0.342024 0
M  V30 6329 O 590.601 1.85094 0.641636 0
M  V30 6330 H 589.181 0.444598 -0.600285 0
M  V30 6331 H 591.843 0.515138 -1.87969 0
M  V30 6332 H 590.939 1.93194 -2.45117 0
M  V30 6333 N 591.24 1.41047 0.703093 0
M  V30 6334 C 592.172 1.38228 1.82827 0
M  V30 6335 C 593.185 0.285637 1.60275 0
M  V30 6336 O 594.374 0.54685 1.69917 0
M  V30 6337 C 591.474 1.13136 3.19458 0
M  V30 6338 C 590.647 2.34695 3.69103 0
M  V30 6339 C 589.706 2.05574 4.84382 0
M  V30 6340 O 588.732 2.78549 4.96386 0
M  V30 6341 N 589.934 1.04135 5.71083 0
M  V30 6342 H 592.699 2.35203 1.85741 0
M  V30 6343 H 590.26 1.35562 0.885125 0
M  V30 6344 H 592.252 0.916183 3.94193 0
M  V30 6345 H 590.822 0.247836 3.11616 0
M  V30 6346 H 590.042 2.71963 2.85359 0
M  V30 6347 H 591.33 3.15705 3.99009 0
M  V30 6348 H 590.728 0.43722 5.64008 0
M  V30 6349 H 589.285 0.886078 6.45749 0
M  V30 6350 N 592.718 -0.936591 1.26751 0
M  V30 6351 C 594.134 -1.21095 1.03963 0
M  V30 6352 C 594.334 -2.00156 -0.232372 0
M  V30 6353 O 593.39 -2.3434 -0.940274 0
M  V30 6354 C 594.703 -1.96775 2.27377 0
M  V30 6355 C 596.251 -2.09749 2.32324 0
M  V30 6356 C 596.726 -2.88832 3.55443 0
M  V30 6357 N 598.217 -2.96404 3.55948 0
M  V30 6358 C 598.952 -3.58036 4.47881 0
M  V30 6359 N 598.448 -4.21132 5.50109 0
M  V30 6360 N 600.241 -3.55353 4.35523 0
M  V30 6361 H 592.392 -0.408173 2.08441 0
M  V30 6362 H 594.655 -0.243139 0.91629 0
M  V30 6363 H 594.361 -1.46094 3.19921 0
M  V30 6364 H 594.235 -2.97424 2.31989 0
M  V30 6365 H 596.622 -2.5962 1.40291 0
M  V30 6366 H 596.703 -1.08347 2.31721 0
M  V30 6367 H 596.347 -2.39647 4.47808 0
M  V30 6368 H 596.277 -3.90499 3.53296 0
M  V30 6369 H 598.768 -2.51552 2.82011 0
M  V30 6370 H 599.081 -4.66071 6.16439 0
M  V30 6371 H 597.426 -4.19705 5.53961 0
M  V30 6372 H 600.617 -3.05256 3.54875 0
M  V30 6373 H 600.79 -4.03097 5.07363 0
M  V30 6374 N 594.196 -1.08629 -1.14182 0
M  V30 6375 C 595.421 -0.83902 -1.89671 0
M  V30 6376 C 595.846 0.603332 -1.78161 0
M  V30 6377 O 595.204 1.42301 -1.12339 0
M  V30 6378 C 595.252 -1.26854 -3.37551 0
M  V30 6379 O 594.356 -0.42188 -4.10236 0
M  V30 6380 H 593.697 -0.304545 -0.590041 0
M  V30 6381 H 596.227 -1.4483 -1.44518 0
M  V30 6382 H 596.237 -1.25038 -3.88368 0
M  V30 6383 H 594.912 -2.31901 -3.45246 0
M  V30 6384 H 593.489 -0.503654 -3.69483 0
M  V30 6385 N 595.674 1.31259 -0.872281 0
M  V30 6386 C 596.902 2.00795 -0.498907 0
M  V30 6387 C 597.317 1.65464 0.909238 0
M  V30 6388 O 596.674 0.885073 1.59602 0
M  V30 6389 C 596.725 3.55625 -0.649092 0
M  V30 6390 O 596.446 3.89692 -2.00179 0
M  V30 6391 C 597.947 4.42434 -0.277034 0
M  V30 6392 H 595.167 0.642299 -0.194145 0
M  V30 6393 H 597.711 1.67438 -1.17408 0
M  V30 6394 H 595.866 3.87394 -0.0214402 0
M  V30 6395 H 596.28 4.84407 -2.01122 0
M  V30 6396 H 597.754 5.50299 -0.433064 0
M  V30 6397 H 598.231 4.32146 0.783989 0
M  V30 6398 H 598.837 4.16086 -0.880483 0
M  V30 6399 N 597.152 0.631951 1.44375 0
M  V30 6400 C 598.429 0.067646 1.95483 0
M  V30 6401 C 598.809 -1.40683 1.57389 0
M  V30 6402 O 598.157 -2.12167 0.848375 0
M  V30 6403 C 598.367 0.291392 3.47781 0
M  V30 6404 C 599.715 0.185028 4.24197 0
M  V30 6405 O 600.739 0.222803 3.55503 0
M  V30 6406 O 599.598 0.0906642 5.46425 0
M  V30 6407 H 596.692 -0.0218379 0.826712 0
M  V30 6408 H 599.238 0.703711 1.54421 0
M  V30 6409 H 598.01 1.31449 3.68561 0
M  V30 6410 H 597.633 -0.378772 3.95792 0
M  V30 6411 N 598.631 -1.53133 0.372548 0
M  V30 6412 C 599.877 -2.01654 -0.215277 0
M  V30 6413 C 600.21 -1.25914 -1.47849 0
M  V30 6414 O 599.485 -0.3548 -1.91237 0
M  V30 6415 C 599.768 -3.56609 -0.500187 0
M  V30 6416 C 599.621 -4.43036 0.777145 0
M  V30 6417 C 600.94 -4.20528 -1.29786 0
M  V30 6418 H 598.059 -0.732991 -0.0767686 0
M  V30 6419 H 600.701 -1.83335 0.498814 0
M  V30 6420 H 598.851 -3.7235 -1.10852 0
M  V30 6421 H 600.523 -4.39079 1.41447 0
M  V30 6422 H 598.766 -4.10723 1.39604 0
M  V30 6423 H 599.437 -5.49424 0.532662 0
M  V30 6424 H 601.913 -4.08663 -0.783198 0
M  V30 6425 H 600.789 -5.28962 -1.46596 0
M  V30 6426 H 601.05 -3.77051 -2.30836 0
M  V30 6427 N 600.109 -0.101901 -1.5727 0
M  V30 6428 C 601.355 0.561027 -1.94885 0
M  V30 6429 C 601.688 1.6741 -0.984258 0
M  V30 6430 O 600.963 1.94491 -0.0184767 0
M  V30 6431 C 601.246 1.10982 -3.42571 0
M  V30 6432 C 601.099 0.00133418 -4.498 0
M  V30 6433 C 602.418 2.00608 -3.9172 0
M  V30 6434 H 599.537 0.202467 -0.708644 0
M  V30 6435 H 602.179 -0.173992 -1.89202 0
M  V30 6436 H 600.329 1.73621 -3.47546 0
M  V30 6437 H 602.001 -0.63322 -4.56933 0
M  V30 6438 H 600.244 -0.664143 -4.28686 0
M  V30 6439 H 600.915 0.426253 -5.50352 0
M  V30 6440 H 603.391 1.47864 -3.88941 0
M  V30 6441 H 602.267 2.3593 -4.95609 0
M  V30 6442 H 602.528 2.92608 -3.3141 0
M  V30 6443 N 601.587 1.56661 0.17182 0
M  V30 6444 C 602.864 1.72838 0.915778 0
M  V30 6445 C 603.244 0.66316 2.00413 0
M  V30 6446 O 602.592 -0.322123 2.26218 0
M  V30 6447 C 602.802 3.16019 1.48097 0
M  V30 6448 C 604.15 3.76962 1.95408 0
M  V30 6449 O 605.174 3.19294 1.57892 0
M  V30 6450 O 604.033 4.78219 2.64516 0
M  V30 6451 H 601.127 0.705797 0.431021 0
M  V30 6452 H 603.673 1.68947 0.159689 0
M  V30 6453 H 602.445 3.85031 0.697618 0
M  V30 6454 H 602.068 3.24234 2.30126 0
M  V30 6455 N 603.065 -0.440357 1.51323 0
M  V30 6456 C 603.995 -1.54174 1.75364 0
M  V30 6457 C 604.976 -1.59039 0.603375 0
M  V30 6458 O 606.161 -1.74815 0.845774 0
M  V30 6459 C 603.291 -2.92277 1.87593 0
M  V30 6460 C 602.245 -3.02274 3.03009 0
M  V30 6461 C 601.571 -4.42327 3.00418 0
M  V30 6462 C 602.871 -2.76634 4.43024 0
M  V30 6463 H 604.565 -1.34307 2.67585 0
M  V30 6464 H 602.111 -0.644678 1.28763 0
M  V30 6465 H 604.064 -3.69284 2.02995 0
M  V30 6466 H 602.788 -3.13369 0.920179 0
M  V30 6467 H 601.447 -2.27706 2.87307 0
M  V30 6468 H 601.095 -4.60382 2.02626 0
M  V30 6469 H 600.795 -4.49946 3.77918 0
M  V30 6470 H 602.319 -5.21312 3.17909 0
M  V30 6471 H 603.733 -3.43376 4.59093 0
M  V30 6472 H 602.13 -2.95666 5.22208 0
M  V30 6473 H 603.2 -1.72262 4.5327 0
M  V30 6474 N 604.543 -1.41418 -0.695603 0
M  V30 6475 C 605.453 -1.45622 -1.83933 0
M  V30 6476 C 606.469 -0.346825 -1.70508 0
M  V30 6477 O 607.645 -0.59454 -1.92424 0
M  V30 6478 C 604.71 -1.33627 -3.19914 0
M  V30 6479 C 603.771 -2.54882 -3.45447 0
M  V30 6480 C 603.004 -2.43449 -4.7494 0
M  V30 6481 O 603.227 -1.45905 -5.51424 0
M  V30 6482 O 602.161 -3.33206 -5.01256 0
M  V30 6483 H 605.987 -2.42114 -1.83342 0
M  V30 6484 H 603.572 -1.22956 -0.848658 0
M  V30 6485 H 605.454 -1.29221 -4.01098 0
M  V30 6486 H 604.129 -0.402508 -3.21188 0
M  V30 6487 H 603.036 -2.64865 -2.64192 0
M  V30 6488 H 604.369 -3.47087 -3.48987 0
M  V30 6489 N 606.021 0.929856 -1.27246 0
M  V30 6490 C 606.969 2.05151 -1.09616 0
M  V30 6491 C 607.963 1.69388 -0.0198617 0
M  V30 6492 O 609.169 1.79124 -0.177417 0
M  V30 6493 H 605.544 0.671909 -0.337701 0
M  V30 6494 H 607.515 2.17168 -2.04648 0
M  V30 6495 C 606.264 3.3934 -0.757851 0
M  V30 6496 H 605.587 3.67343 -1.57795 0
M  V30 6497 H 607.027 4.18603 -0.674358 0
M  V30 6498 C 605.486 3.32582 0.537658 0
M  V30 6499 O 606.016 3.69633 1.57271 0
M  V30 6500 N 604.222 2.8568 0.532478 0
M  V30 6501 H 603.769 2.55725 -0.310233 0
M  V30 6502 H 603.727 2.81541 1.39936 0
M  V30 6503 N 607.499 1.09233 1.13605 0
M  V30 6504 C 608.409 0.741939 2.22559 0
M  V30 6505 C 609.425 -0.255236 1.72118 0
M  V30 6506 O 610.601 -0.0970747 2.01166 0
M  V30 6507 C 607.666 0.165595 3.46304 0
M  V30 6508 C 606.727 1.21846 4.11645 0
M  V30 6509 C 605.96 0.669526 5.29484 0
M  V30 6510 O 606.183 -0.508228 5.68131 0
M  V30 6511 O 605.117 1.42361 5.84822 0
M  V30 6512 H 608.943 1.65107 2.54899 0
M  V30 6513 H 606.528 0.866584 1.21699 0
M  V30 6514 H 608.41 -0.152592 4.21124 0
M  V30 6515 H 607.085 -0.716573 3.15669 0
M  V30 6516 H 605.992 1.58931 3.38662 0
M  V30 6517 H 607.325 2.07321 4.46407 0
M  V30 6518 N 608.977 -1.30795 0.87923 0
M  V30 6519 C 609.887 -2.32041 0.345565 0
M  V30 6520 C 610.903 -1.65103 -0.549265 0
M  V30 6521 O 612.079 -1.9645 -0.443763 0
M  V30 6522 C 609.144 -3.43944 -0.436245 0
M  V30 6523 C 608.205 -4.26521 0.48765 0
M  V30 6524 C 607.438 -5.33081 -0.256943 0
M  V30 6525 O 607.661 -5.50762 -1.48381 0
M  V30 6526 O 606.595 -6.00635 0.389985 0
M  V30 6527 H 610.421 -2.79627 1.18501 0
M  V30 6528 H 608.006 -1.3486 0.642885 0
M  V30 6529 H 609.888 -4.12128 -0.879119 0
M  V30 6530 H 608.563 -2.98504 -1.25208 0
M  V30 6531 H 607.47 -3.61057 0.979216 0
M  V30 6532 H 608.803 -4.75551 1.26933 0
M  V30 6533 N 610.455 -0.639598 -1.44038 0
M  V30 6534 C 611.866 -0.228866 -1.85292 0
M  V30 6535 C 612.217 1.22161 -1.53529 0
M  V30 6536 O 611.342 1.93064 -0.977518 0
M  V30 6537 C 611.937 -0.408592 -3.36327 0
M  V30 6538 C 610.496 -0.0522953 -3.76364 0
M  V30 6539 C 609.643 -0.717959 -2.67844 0
M  V30 6540 H 612.594 -0.844194 -1.34384 0
M  V30 6541 H 612.615 0.349968 -3.78887 0
M  V30 6542 H 612.127 -1.46435 -3.59414 0
M  V30 6543 H 610.228 1.0014 -3.58891 0
M  V30 6544 H 610.341 -0.468261 -4.76806 0
M  V30 6545 H 608.705 -0.152459 -2.54243 0
M  V30 6546 H 609.488 -1.77648 -2.93762 0
M  V30 6547 N 611.933 1.52934 -0.380664 0
M  V30 6548 C 613.21 1.93845 0.261417 0
M  V30 6549 C 613.59 1.31544 1.65104 0
M  V30 6550 O 612.938 0.480234 2.23397 0
M  V30 6551 C 613.148 3.47739 0.296466 0
M  V30 6552 C 614.496 4.21284 0.529578 0
M  V30 6553 O 615.52 3.54199 0.377041 0
M  V30 6554 O 614.379 5.40195 0.827753 0
M  V30 6555 H 611.473 0.811318 0.160285 0
M  V30 6556 H 614.019 1.64042 -0.434544 0
M  V30 6557 H 612.791 3.85395 -0.67724 0
M  V30 6558 H 612.414 3.8382 1.0377 0
M  V30 6559 N 613.412 0.11024 1.57214 0
M  V30 6560 C 614.637 -0.561179 1.99664 0
M  V30 6561 C 615.062 -1.59985 0.989266 0
M  V30 6562 O 614.42 -1.81255 -0.0402399 0
M  V30 6563 C 614.468 -1.17189 3.41027 0
M  V30 6564 O 613.572 -2.28755 3.4314 0
M  V30 6565 H 612.913 -0.14101 0.648855 0
M  V30 6566 H 615.443 0.196128 2.03658 0
M  V30 6567 H 615.453 -1.50954 3.79047 0
M  V30 6568 H 614.128 -0.411041 4.13864 0
M  V30 6569 H 612.705 -1.96495 3.16929 0
M  V30 6570 N 614.89 -1.56749 -0.16351 0
M  V30 6571 C 616.167 -1.73321 -0.906599 0
M  V30 6572 C 616.547 -0.673779 -2.00059 0
M  V30 6573 O 615.895 0.310121 -2.26386 0
M  V30 6574 C 616.105 -3.168 -1.46419 0
M  V30 6575 C 617.453 -3.77993 -1.93407 0
M  V30 6576 O 618.477 -3.20127 -1.56196 0
M  V30 6577 O 617.336 -4.79615 -2.61976 0
M  V30 6578 H 614.43 -0.708073 -0.427272 0
M  V30 6579 H 616.976 -1.69029 -0.150727 0
M  V30 6580 H 615.748 -3.85396 -0.677189 0
M  V30 6581 H 615.371 -3.2545 -2.28403 0
M  V30 6582 N 616.368 0.432326 -1.51554 0
M  V30 6583 C 617.316 1.54572 -1.73811 0
M  V30 6584 C 618.31 1.58246 -0.604539 0
M  V30 6585 O 619.516 1.6193 -0.786041 0
M  V30 6586 H 615.891 0.513626 -0.549265 0
M  V30 6587 H 617.862 1.32977 -2.67132 0
M  V30 6588 C 616.611 2.92181 -1.88483 0
M  V30 6589 H 615.934 2.90088 -2.75116 0
M  V30 6590 H 617.374 3.69439 -2.08065 0
M  V30 6591 C 615.833 3.3065 -0.645909 0
M  V30 6592 O 616.363 4.01216 0.197093 0
M  V30 6593 N 614.569 2.86464 -0.488538 0
M  V30 6594 H 614.116 2.29209 -1.17562 0
M  V30 6595 H 614.074 3.12565 0.339156 0
M  V30 6596 N 617.846 1.41785 0.688094 0
M  V30 6597 C 618.756 1.46596 1.83158 0
M  V30 6598 C 619.772 0.355862 1.70322 0
M  V30 6599 O 620.948 0.604737 1.92106 0
M  V30 6600 C 618.013 1.35322 3.192 0
M  V30 6601 C 617.074 2.56711 3.4409 0
M  V30 6602 C 616.307 2.45965 4.73642 0
M  V30 6603 O 616.53 1.48827 5.50642 0
M  V30 6604 O 615.464 3.35859 4.99482 0
M  V30 6605 H 619.29 2.43083 1.82056 0
M  V30 6606 H 616.875 1.23404 0.842126 0
M  V30 6607 H 618.757 1.31347 4.00407 0
M  V30 6608 H 617.432 0.419536 3.2097 0
M  V30 6609 H 616.339 2.66262 2.62784 0
M  V30 6610 H 617.672 3.48933 3.47141 0
M  V30 6611 N 619.324 -0.923095 1.27737 0
M  V30 6612 C 620.57 -1.67409 1.15524 0
M  V30 6613 C 620.925 -1.90124 -0.295072 0
M  V30 6614 O 620.218 -1.48382 -1.21216 0
M  V30 6615 C 620.412 -3.04125 1.8773 0
M  V30 6616 C 620.241 -2.94752 3.39634 0
M  V30 6617 C 619.011 -2.96783 4.0896 0
M  V30 6618 C 621.209 -2.73524 4.35533 0
M  V30 6619 N 619.191 -2.779 5.47398 0
M  V30 6620 C 620.562 -2.63391 5.61271 0
M  V30 6621 C 622.617 -2.58447 4.2557 0
M  V30 6622 C 621.32 -2.3972 6.78179 0
M  V30 6623 C 623.346 -2.36154 5.42204 0
M  V30 6624 C 622.708 -2.26768 6.669 0
M  V30 6625 H 618.807 -0.619196 0.477619 0
M  V30 6626 H 621.391 -1.09094 1.61266 0
M  V30 6627 H 619.562 -3.60545 1.44436 0
M  V30 6628 H 621.294 -3.6819 1.67982 0
M  V30 6629 H 618.049 -3.07186 3.60463 0
M  V30 6630 H 618.473 -2.71576 6.20141 0
M  V30 6631 H 623.115 -2.6446 3.2988 0
M  V30 6632 H 620.833 -2.32447 7.73947 0
M  V30 6633 H 624.419 -2.25367 5.36378 0
M  V30 6634 H 623.299 -2.09751 7.55628 0
M  V30 6635 N 620.802 -1.09834 -1.13024 0
M  V30 6636 C 621.734 -0.699379 -2.18269 0
M  V30 6637 C 622.747 0.260841 -1.60697 0
M  V30 6638 O 623.936 0.0462538 -1.7844 0
M  V30 6639 C 621.036 -0.0104537 -3.38898 0
M  V30 6640 C 620.209 -0.993275 -4.25973 0
M  V30 6641 C 619.268 -0.336982 -5.2512 0
M  V30 6642 O 618.294 -0.985892 -5.60597 0
M  V30 6643 N 619.496 0.90716 -5.73368 0
M  V30 6644 H 622.261 -1.60486 -2.5311 0
M  V30 6645 H 619.822 -0.986337 -1.28386 0
M  V30 6646 H 621.814 0.43991 -4.02302 0
M  V30 6647 H 620.384 0.797335 -3.0226 0
M  V30 6648 H 619.604 -1.62208 -3.5928 0
M  V30 6649 H 620.892 -1.65876 -4.81002 0
M  V30 6650 H 620.29 1.45384 -5.46699 0
M  V30 6651 H 618.847 1.30077 -6.38689 0
M  V30 6652 N 622.28 1.30327 -0.886154 0
M  V30 6653 C 623.23 2.25668 -0.325248 0
M  V30 6654 C 624.214 1.51318 0.546972 0
M  V30 6655 O 625.406 1.72623 0.391203 0
M  V30 6656 C 622.535 3.40229 0.458167 0
M  V30 6657 C 621.621 4.21933 -0.428208 0
M  V30 6658 N 622.012 4.82129 -1.52921 0
M  V30 6659 C 620.31 4.45439 -0.223535 0
M  V30 6660 C 621.011 5.43351 -2.07714 0
M  V30 6661 N 619.987 5.26002 -1.37195 0
M  V30 6662 H 623.789 2.69759 -1.1665 0
M  V30 6663 H 621.303 1.4478 -0.735691 0
M  V30 6664 H 623.3 4.07579 0.876648 0
M  V30 6665 H 621.96 2.97678 1.29684 0
M  V30 6666 H 622.971 4.81312 -1.91205 0
M  V30 6667 H 619.648 4.13481 0.577875 0
M  V30 6668 H 621.038 6.01118 -3.00178 0
M  V30 6669 N 623.758 0.647228 1.43697 0
M  V30 6670 C 624.688 -0.0345631 2.33474 0
M  V30 6671 C 625.669 -0.818193 1.4913 0
M  V30 6672 O 626.854 -0.780867 1.77809 0
M  V30 6673 C 623.984 -1.00576 3.32418 0
M  V30 6674 C 622.938 -0.33266 4.26705 0
M  V30 6675 C 622.264 -1.41489 5.1564 0
M  V30 6676 C 623.564 0.771204 5.16575 0
M  V30 6677 H 625.258 0.715163 2.90733 0
M  V30 6678 H 622.804 0.345364 1.39797 0
M  V30 6679 H 624.757 -1.49159 3.94119 0
M  V30 6680 H 623.481 -1.78657 2.73403 0
M  V30 6681 H 622.14 0.13267 3.6636 0
M  V30 6682 H 621.788 -2.18698 4.52968 0
M  V30 6683 H 621.488 -0.969799 5.79542 0
M  V30 6684 H 623.012 -1.9022 5.80214 0
M  V30 6685 H 624.426 0.36779 5.72119 0
M  V30 6686 H 622.823 1.1404 5.89165 0
M  V30 6687 H 623.893 1.63169 4.56622 0
M  V30 6688 N 625.236 -1.5273 0.388769 0
M  V30 6689 C 626.166 -2.29353 -0.438111 0
M  V30 6690 C 627.147 -1.32719 -1.06394 0
M  V30 6691 O 628.332 -1.61612 -1.07681 0
M  V30 6692 C 625.462 -3.09995 -1.56589 0
M  V30 6693 C 624.416 -4.14509 -1.06613 0
M  V30 6694 C 623.742 -4.83372 -2.28594 0
M  V30 6695 C 625.042 -5.22127 -0.134459 0
M  V30 6696 H 626.736 -2.98723 0.201206 0
M  V30 6697 H 624.282 -1.43665 0.0982089 0
M  V30 6698 H 626.235 -3.62357 -2.15118 0
M  V30 6699 H 624.959 -2.38357 -2.23279 0
M  V30 6700 H 623.618 -3.63128 -0.503383 0
M  V30 6701 H 623.266 -4.08283 -2.93792 0
M  V30 6702 H 622.966 -5.54012 -1.95817 0
M  V30 6703 H 624.49 -5.38538 -2.87766 0
M  V30 6704 H 625.904 -5.69851 -0.627914 0
M  V30 6705 H 624.301 -6.00011 0.103534 0
M  V30 6706 H 625.371 -4.77971 0.816798 0
M  V30 6707 N 626.714 -0.118576 -1.57153 0
M  V30 6708 C 627.624 0.845484 -2.18835 0
M  V30 6709 C 628.64 1.29299 -1.16438 0
M  V30 6710 O 629.816 1.35607 -1.48905 0
M  V30 6711 C 626.881 2.07795 -2.77529 0
M  V30 6712 C 625.942 1.6824 -3.9496 0
M  V30 6713 C 625.175 2.85612 -4.50845 0
M  V30 6714 O 625.398 4.01025 -4.05629 0
M  V30 6715 O 624.332 2.62721 -5.41536 0
M  V30 6716 H 628.158 0.350568 -3.0167 0
M  V30 6717 H 625.743 0.107013 -1.49016 0
M  V30 6718 H 627.625 2.79978 -3.14945 0
M  V30 6719 H 626.3 2.56294 -1.97725 0
M  V30 6720 H 625.207 0.931663 -3.62313 0
M  V30 6721 H 626.54 1.24484 -4.76198 0
M  V30 6722 N 628.193 1.56834 0.155195 0
M  V30 6723 C 629.421 1.87049 0.884326 0
M  V30 6724 C 629.836 0.705839 1.7511 0
M  V30 6725 O 629.193 -0.324641 1.79589 0
M  V30 6726 C 629.244 3.1644 1.74781 0
M  V30 6727 O 628.965 4.28417 0.915978 0
M  V30 6728 C 630.466 3.60113 2.58522 0
M  V30 6729 H 627.686 0.620196 0.25612 0
M  V30 6730 H 630.23 2.03946 0.150445 0
M  V30 6731 H 628.385 3.01321 2.43484 0
M  V30 6732 H 628.799 5.02353 1.50803 0
M  V30 6733 H 630.273 4.53508 3.14698 0
M  V30 6734 H 630.75 2.85005 3.34169 0
M  V30 6735 H 631.356 3.77898 1.95124 0
M  V30 6736 N 629.671 -0.424282 1.51781 0
M  V30 6737 C 630.899 -1.1947 1.68921 0
M  V30 6738 C 631.314 -1.84683 0.39213 0
M  V30 6739 O 630.671 -1.71261 -0.630554 0
M  V30 6740 C 630.722 -2.26909 2.81416 0
M  V30 6741 O 630.443 -1.64361 4.061 0
M  V30 6742 C 631.944 -3.16945 3.09937 0
M  V30 6743 H 629.164 -0.359591 0.566511 0
M  V30 6744 H 631.708 -0.501139 1.98265 0
M  V30 6745 H 629.863 -2.91959 2.54635 0
M  V30 6746 H 630.277 -2.35468 4.68674 0
M  V30 6747 H 631.751 -3.88437 3.922 0
M  V30 6748 H 632.228 -3.78451 2.22871 0
M  V30 6749 H 632.834 -2.57581 3.38426 0
M  V30 6750 N 631.149 -1.42148 -0.680565 0
M  V30 6751 C 632.059 -1.47565 -1.82378 0
M  V30 6752 C 633.075 -0.36489 -1.70131 0
M  V30 6753 O 634.251 -0.614916 -1.91783 0
M  V30 6754 C 631.316 -1.37013 -3.18478 0
M  V30 6755 C 630.377 -2.58532 -3.42724 0
M  V30 6756 C 629.61 -2.48473 -4.72331 0
M  V30 6757 O 629.833 -1.51745 -5.49845 0
M  V30 6758 O 628.767 -3.38503 -4.97694 0
M  V30 6759 H 632.593 -2.44045 -1.80764 0
M  V30 6760 H 630.178 -1.23849 -0.835569 0
M  V30 6761 H 632.06 -1.33468 -3.99705 0
M  V30 6762 H 630.735 -0.436552 -3.20743 0
M  V30 6763 H 629.642 -2.67652 -2.61368 0
M  V30 6764 H 630.975 -3.50769 -3.45286 0
M  V30 6765 N 632.627 0.916307 -1.28225 0
M  V30 6766 C 634.038 1.48024 -1.13779 0
M  V30 6767 C 634.389 1.94289 0.273139 0
M  V30 6768 O 633.514 1.82226 1.16716 0
M  V30 6769 C 634.109 2.69029 -2.05935 0
M  V30 6770 C 632.668 3.2161 -1.95561 0
M  V30 6771 C 631.815 1.94321 -1.97825 0
M  V30 6772 H 634.766 0.729272 -1.40951 0
M  V30 6773 H 634.787 3.44204 -1.62184 0
M  V30 6774 H 634.299 2.35325 -3.08616 0
M  V30 6775 H 632.4 3.60045 -0.959076 0
M  V30 6776 H 632.513 3.87032 -2.82388 0
M  V30 6777 H 630.877 2.1131 -1.42198 0
M  V30 6778 H 631.66 1.62917 -3.0218 0
M  V30 6779 N 634.105 1.10431 1.1244 0
M  V30 6780 C 635.351 0.847972 1.84221 0
M  V30 6781 C 635.684 -0.624903 1.83871 0
M  V30 6782 O 634.959 -1.46074 1.28423 0
M  V30 6783 C 635.242 1.39695 3.319 0
M  V30 6784 C 635.095 2.93668 3.40704 0
M  V30 6785 C 636.414 1.03924 4.27654 0
M  V30 6786 H 633.533 0.309502 0.668863 0
M  V30 6787 H 636.175 1.36745 1.31912 0
M  V30 6788 H 634.325 0.955095 3.76577 0
M  V30 6789 H 635.997 3.46379 3.04662 0
M  V30 6790 H 634.24 3.30272 2.81252 0
M  V30 6791 H 634.911 3.27162 4.446 0
M  V30 6792 H 637.387 1.42049 3.91102 0
M  V30 6793 H 636.263 1.45027 5.29394 0
M  V30 6794 H 636.524 -0.051336 4.4207 0
M  V30 6795 N 635.583 -1.29855 0.893053 0
M  V30 6796 C 636.994 -1.77946 0.564998 0
M  V30 6797 C 637.345 -1.73339 -0.919134 0
M  V30 6798 O 636.47 -1.3152 -1.71847 0
M  V30 6799 C 637.065 -3.23118 1.01883 0
M  V30 6800 C 635.624 -3.69013 0.742051 0
M  V30 6801 C 634.771 -2.50121 1.19727 0
M  V30 6802 H 637.722 -1.16611 1.07646 0
M  V30 6803 H 637.743 -3.78875 0.351249 0
M  V30 6804 H 637.255 -3.26439 2.09903 0
M  V30 6805 H 635.356 -3.71173 -0.325816 0
M  V30 6806 H 635.469 -4.60117 1.33527 0
M  V30 6807 H 633.833 -2.47128 0.616418 0
M  V30 6808 H 634.616 -2.56174 2.28538 0
M  V30 6809 N 637.061 -0.65484 -1.43351 0
M  V30 6810 C 638.31 -0.166215 -2.01014 0
M  V30 6811 C 638.623 1.22764 -1.52278 0
M  V30 6812 O 639.829 1.81156 -2.02224 0
M  V30 6813 C 638.285 -0.246341 -3.59056 0
M  V30 6814 C 637.893 -1.64299 -4.16785 0
M  V30 6815 C 639.637 0.184597 -4.24098 0
M  V30 6816 C 637.544 -1.67695 -5.67126 0
M  V30 6817 H 636.474 -0.0583769 -0.751737 0
M  V30 6818 H 639.125 -0.817111 -1.64303 0
M  V30 6819 H 637.507 0.472092 -3.93176 0
M  V30 6820 H 638.681 -2.3869 -3.94162 0
M  V30 6821 H 636.996 -2.02004 -3.6412 0
M  V30 6822 H 639.593 0.179088 -5.344 0
M  V30 6823 H 639.936 1.21632 -3.98135 0
M  V30 6824 H 640.469 -0.482141 -3.94867 0
M  V30 6825 H 637.208 -2.68783 -5.9786 0
M  V30 6826 H 636.728 -0.976313 -5.91801 0
M  V30 6827 H 638.407 -1.42142 -6.31193 0
M  V30 6828 N 638.539 1.52521 -0.396863 0
M  V30 6829 C 639.471 2.24333 0.469814 0
M  V30 6830 C 640.484 1.2685 1.02043 0
M  V30 6831 O 641.673 1.52876 0.92147 0
M  V30 6832 C 638.773 2.95202 1.66461 0
M  V30 6833 C 637.946 4.19454 1.24003 0
M  V30 6834 C 637.005 4.73255 2.30036 0
M  V30 6835 O 636.031 5.36151 1.91131 0
M  V30 6836 N 637.233 4.53765 3.62047 0
M  V30 6837 H 639.998 2.99347 -0.145468 0
M  V30 6838 H 637.559 1.60348 -0.223606 0
M  V30 6839 H 639.551 3.28092 2.36934 0
M  V30 6840 H 638.121 2.2345 2.18607 0
M  V30 6841 H 637.341 3.92517 0.363892 0
M  V30 6842 H 638.629 5.0017 0.933135 0
M  V30 6843 H 638.027 4.03576 3.96412 0
M  V30 6844 H 636.584 4.91124 4.28533 0
M  V30 6845 N 640.017 0.126909 1.57088 0
M  V30 6846 C 640.947 -0.816847 2.18746 0
M  V30 6847 C 641.928 -1.27161 1.12979 0
M  V30 6848 O 643.113 -1.33279 1.41246 0
M  V30 6849 C 640.243 -2.06398 2.79315 0
M  V30 6850 C 639.197 -1.74673 3.90735 0
M  V30 6851 C 638.523 -3.06482 4.38147 0
M  V30 6852 C 639.823 -1.0089 5.12463 0
M  V30 6853 H 641.517 -0.303032 2.97863 0
M  V30 6854 H 639.063 -0.144314 1.43275 0
M  V30 6855 H 641.016 -2.72885 3.2111 0
M  V30 6856 H 639.74 -2.60118 1.975 0
M  V30 6857 H 638.399 -1.10572 3.49527 0
M  V30 6858 H 638.047 -3.58152 3.5318 0
M  V30 6859 H 637.747 -2.86025 5.13287 0
M  V30 6860 H 639.271 -3.74073 4.82599 0
M  V30 6861 H 640.685 -1.57546 5.51228 0
M  V30 6862 H 639.082 -0.905006 5.93237 0
M  V30 6863 H 640.152 0.00297335 4.849 0
M  V30 6864 N 641.495 -1.56914 -0.146875 0
M  V30 6865 C 642.442 -1.98275 -1.18134 0
M  V30 6866 C 643.412 -0.850367 -1.42681 0
M  V30 6867 O 644.597 -1.11244 -1.55014 0
M  V30 6868 C 641.737 -2.36861 -2.5098 0
M  V30 6869 C 640.85 -3.63391 -2.33605 0
M  V30 6870 C 639.985 -3.91079 -3.59486 0
M  V30 6871 C 639.024 -5.10879 -3.37149 0
M  V30 6872 N 638.161 -5.34577 -4.55161 0
M  V30 6873 H 643.001 -2.8645 -0.821622 0
M  V30 6874 H 640.538 -1.41718 -0.394248 0
M  V30 6875 H 642.496 -2.57262 -3.28439 0
M  V30 6876 H 641.126 -1.51766 -2.84898 0
M  V30 6877 H 640.178 -3.50766 -1.47199 0
M  V30 6878 H 641.49 -4.51007 -2.13059 0
M  V30 6879 H 640.644 -4.11979 -4.45374 0
M  V30 6880 H 639.383 -3.01885 -3.83036 0
M  V30 6881 H 638.388 -4.89853 -2.49649 0
M  V30 6882 H 639.613 -6.01626 -3.14997 0
M  V30 6883 H 637.559 -4.48337 -4.78884 0
M  V30 6884 H 637.476 -6.16463 -4.37618 0
M  V30 6885 H 638.744 -5.59975 -5.42263 0
M  V30 6886 N 642.974 0.416227 -1.52004 0
M  V30 6887 C 643.937 1.48926 -1.74223 0
M  V30 6888 C 644.937 1.48693 -0.612119 0
M  V30 6889 O 646.127 1.50343 -0.879921 0
M  V30 6890 C 643.259 2.88372 -1.81809 0
M  V30 6891 H 644.452 1.3052 -2.70008 0
M  V30 6892 H 642.005 0.646271 -1.42313 0
M  V30 6893 H 642.74 3.12157 -0.879135 0
M  V30 6894 H 642.525 2.89944 -2.6396 0
M  V30 6895 H 644.015 3.66173 -2.00766 0
M  V30 6896 N 644.452 1.42507 0.673017 0
M  V30 6897 C 645.863 1.38347 1.25367 0
M  V30 6898 C 646.214 0.0776327 1.96046 0
M  V30 6899 O 645.339 -0.823571 2.00116 0
M  V30 6900 C 645.934 2.506 2.28002 0
M  V30 6901 C 644.493 2.49767 2.81591 0
M  V30 6902 C 643.64 2.293 1.55938 0
M  V30 6903 H 646.591 1.51695 0.466288 0
M  V30 6904 H 646.612 2.20953 3.09774 0
M  V30 6905 H 646.124 3.45627 1.76532 0
M  V30 6906 H 644.225 1.58563 3.37177 0
M  V30 6907 H 644.338 3.46867 3.30485 0
M  V30 6908 H 642.702 1.77594 1.82572 0
M  V30 6909 H 643.485 3.26385 1.06431 0
M  V30 6910 N 645.93 -0.909495 1.28709 0
M  V30 6911 C 646.86 -2.0291 1.15542 0
M  V30 6912 C 647.841 -1.7002 0.0521017 0
M  V30 6913 O 649.026 -1.92835 0.229849 0
M  V30 6914 C 646.156 -3.37458 0.820935 0
M  V30 6915 C 645.11 -3.84524 1.87949 0
M  V30 6916 C 644.436 -5.16086 1.39854 0
M  V30 6917 C 645.736 -4.05918 3.28676 0
M  V30 6918 H 647.43 -2.14183 2.09203 0
M  V30 6919 H 644.976 -1.02913 1.00722 0
M  V30 6920 H 646.929 -4.1528 0.715571 0
M  V30 6921 H 645.653 -3.26249 -0.151374 0
M  V30 6922 H 644.312 -3.08911 1.97408 0
M  V30 6923 H 643.96 -5.01284 0.41518 0
M  V30 6924 H 643.66 -5.48547 2.1064 0
M  V30 6925 H 645.184 -5.96459 1.30649 0
M  V30 6926 H 646.598 -4.74252 3.22115 0
M  V30 6927 H 644.995 -4.49717 3.97334 0
M  V30 6928 H 646.065 -3.10583 3.72379 0
M  V30 6929 N 647.408 -1.11026 -1.11852 0
M  V30 6930 C 648.636 -0.878818 -1.87308 0
M  V30 6931 C 649.051 0.57111 -1.79955 0
M  V30 6932 O 648.408 1.39409 -1.17777 0
M  V30 6933 C 648.459 -1.3264 -3.36287 0
M  V30 6934 O 648.18 -2.71948 -3.43476 0
M  V30 6935 C 649.681 -1.12974 -4.28663 0
M  V30 6936 H 646.901 -0.315015 -0.592458 0
M  V30 6937 H 649.445 -1.47649 -1.41492 0
M  V30 6938 H 647.6 -0.772269 -3.79625 0
M  V30 6939 H 648.014 -2.91241 -4.3621 0
M  V30 6940 H 649.488 -1.49198 -5.31454 0
M  V30 6941 H 649.965 -0.0689127 -4.39146 0
M  V30 6942 H 650.571 -1.67064 -3.91113 0
M  V30 6943 N 648.886 1.2938 -0.899927 0
M  V30 6944 C 649.816 2.30144 -0.39446 0
M  V30 6945 C 650.797 1.61611 0.530639 0
M  V30 6946 O 651.982 1.89119 0.441319 0
M  V30 6947 C 649.112 3.45229 0.37868 0
M  V30 6948 C 648.066 4.25564 -0.456012 0
M  V30 6949 C 647.392 5.32848 0.444637 0
M  V30 6950 C 648.692 4.93651 -1.70605 0
M  V30 6951 H 650.386 2.72673 -1.23653 0
M  V30 6952 H 647.932 1.31086 -0.596034 0
M  V30 6953 H 649.885 4.14797 0.743037 0
M  V30 6954 H 648.609 3.01545 1.25453 0
M  V30 6955 H 647.268 3.57704 -0.802704 0
M  V30 6956 H 646.916 4.85408 1.31863 0
M  V30 6957 H 646.616 5.87497 -0.110154 0
M  V30 6958 H 648.14 6.05268 0.805182 0
M  V30 6959 H 649.554 5.55655 -1.41141 0
M  V30 6960 H 647.951 5.58233 -2.20217 0
M  V30 6961 H 649.021 4.18926 -2.4419 0
M  V30 6962 N 650.364 0.662433 1.43002 0
M  V30 6963 C 651.294 -0.00979809 2.33498 0
M  V30 6964 C 652.275 -0.802329 1.49989 0
M  V30 6965 O 653.46 -0.761964 1.78627 0
M  V30 6966 C 650.59 -0.970446 3.33466 0
M  V30 6967 C 649.544 -0.287383 4.27034 0
M  V30 6968 C 648.87 -1.36012 5.17112 0
M  V30 6969 C 650.17 0.82595 5.15728 0
M  V30 6970 H 651.864 0.745959 2.89958 0
M  V30 6971 H 649.41 0.360172 1.39423 0
M  V30 6972 H 651.363 -1.44971 3.95679 0
M  V30 6973 H 650.087 -1.75748 2.75282 0
M  V30 6974 H 648.746 0.17152 3.66199 0
M  V30 6975 H 648.394 -2.13882 4.55262 0
M  V30 6976 H 648.094 -0.908276 5.80538 0
M  V30 6977 H 649.618 -1.84056 5.82199 0
M  V30 6978 H 651.032 0.42845 5.71697 0
M  V30 6979 H 649.429 1.20282 5.87922 0
M  V30 6980 H 650.499 1.68003 4.54866 0
M  V30 6981 N 651.842 -1.52309 0.404946 0
M  V30 6982 C 653.082 -2.03677 -0.171779 0
M  V30 6983 C 653.446 -1.28419 -1.42733 0
M  V30 6984 O 654.647 -1.69991 -2.08222 0
M  V30 6985 C 652.918 -3.54951 -0.417701 0
M  V30 6986 S 654.477 -4.28114 -0.962472 0
M  V30 6987 H 651.295 -0.709445 -0.0469912 0
M  V30 6988 H 653.897 -1.874 0.556901 0
M  V30 6989 H 652.601 -4.07306 0.50295 0
M  V30 6990 H 652.132 -3.75462 -1.17437 0
M  V30 6991 H 654.147 -4.42589 -2.24342 0
M  V30 6992 N 653.32 -0.135238 -1.57019 0
M  V30 6993 C 654.268 0.826099 -2.17436 0
M  V30 6994 C 655.262 1.26378 -1.12805 0
M  V30 6995 O 656.468 1.23363 -1.31079 0
M  V30 6996 H 652.843 0.284568 -0.696078 0
M  V30 6997 H 654.814 0.292212 -2.96966 0
M  V30 6998 C 653.563 2.05991 -2.80112 0
M  V30 6999 H 652.886 1.73209 -3.60331 0
M  V30 7000 H 654.326 2.71225 -3.25903 0
M  V30 7001 C 652.785 2.86027 -1.78017 0
M  V30 7002 O 653.315 3.81971 -1.24344 0
M  V30 7003 N 651.521 2.50332 -1.47588 0
M  V30 7004 H 651.068 1.72377 -1.91426 0
M  V30 7005 H 651.026 3.04177 -0.795228 0
M  V30 7006 N 654.798 1.5699 0.138552 0
M  V30 7007 C 656.209 1.73171 0.697754 0
M  V30 7008 C 656.56 0.750952 1.8126 0
M  V30 7009 O 655.685 -0.080549 2.1625 0
M  V30 7010 C 656.28 3.13996 1.27248 0
M  V30 7011 C 654.839 3.3175 1.77816 0
M  V30 7012 C 653.986 2.69084 0.669991 0
M  V30 7013 H 656.937 1.5846 -0.0871979 0
M  V30 7014 H 656.958 3.14463 2.14227 0
M  V30 7015 H 656.47 3.85354 0.460855 0
M  V30 7016 H 654.571 2.65403 2.61519 0
M  V30 7017 H 654.684 4.39768 1.90107 0
M  V30 7018 H 653.048 2.29782 1.09874 0
M  V30 7019 H 653.831 3.43053 -0.130329 0
M  V30 7020 N 656.276 -0.40816 1.52223 0
M  V30 7021 C 657.553 -1.16807 1.56893 0
M  V30 7022 C 657.933 -2.08169 0.350537 0
M  V30 7023 O 657.281 -2.18684 -0.662536 0
M  V30 7024 C 657.491 -1.94451 2.8981 0
M  V30 7025 C 658.839 -2.50484 3.42845 0
M  V30 7026 O 659.863 -2.0463 2.91556 0
M  V30 7027 O 658.722 -3.34192 4.3241 0
M  V30 7028 H 655.816 -0.533382 0.632007 0
M  V30 7029 H 658.362 -0.414862 1.64551 0
M  V30 7030 H 657.134 -1.27527 3.69936 0
M  V30 7031 H 656.757 -2.76775 2.85449 0
M  V30 7032 N 657.755 -1.42862 -0.66545 0
M  V30 7033 C 659.002 -1.4383 -1.42546 0
M  V30 7034 C 659.33 -0.0581114 -1.94413 0
M  V30 7035 O 658.585 0.935002 -1.71919 0
M  V30 7036 C 658.884 -2.4175 -2.63233 0
M  V30 7037 C 658.55 -3.87915 -2.29854 0
M  V30 7038 C 657.212 -4.27726 -2.20463 0
M  V30 7039 C 659.564 -4.80074 -2.02924 0
M  V30 7040 C 656.892 -5.57666 -1.82279 0
M  V30 7041 C 659.244 -6.10366 -1.66242 0
M  V30 7042 C 657.908 -6.49167 -1.55367 0
M  V30 7043 H 657.178 -0.52631 -0.521612 0
M  V30 7044 H 659.825 -1.75863 -0.757914 0
M  V30 7045 H 658.13 -2.03077 -3.35063 0
M  V30 7046 H 659.827 -2.39759 -3.21429 0
M  V30 7047 H 656.417 -3.564 -2.3807 0
M  V30 7048 H 660.601 -4.50097 -2.09108 0
M  V30 7049 H 655.857 -5.8658 -1.72436 0
M  V30 7050 H 660.031 -6.81258 -1.44432 0
M  V30 7051 H 657.658 -7.49761 -1.2555 0
M  V30 7052 N 659.233 0.902656 -1.29189 0
M  V30 7053 C 660.473 1.6672 -1.18254 0
M  V30 7054 C 660.837 1.90199 0.262336 0
M  V30 7055 O 662.038 2.6421 0.494612 0
M  V30 7056 C 660.309 2.98178 -1.9704 0
M  V30 7057 S 661.868 3.89226 -2.02605 0
M  V30 7058 H 658.686 0.572432 -0.421714 0
M  V30 7059 H 661.288 1.07279 -1.63436 0
M  V30 7060 H 659.992 2.788 -3.01163 0
M  V30 7061 H 659.523 3.62661 -1.5245 0
M  V30 7062 H 661.538 4.82913 -1.14059 0
M  V30 7063 N 660.711 1.11618 1.11262 0
M  V30 7064 C 661.643 0.734015 2.17129 0
M  V30 7065 C 662.656 -0.235243 1.61091 0
M  V30 7066 O 663.845 -0.0178597 1.78491 0
M  V30 7067 C 660.945 0.0643682 3.38839 0
M  V30 7068 C 660.118 1.06092 4.24339 0
M  V30 7069 C 659.177 0.420482 5.24517 0
M  V30 7070 O 658.203 1.07495 5.58957 0
M  V30 7071 N 659.405 -0.815828 5.74739 0
M  V30 7072 H 662.17 1.64492 2.50524 0
M  V30 7073 H 659.731 1.00664 1.26801 0
M  V30 7074 H 661.723 -0.375851 4.02951 0
M  V30 7075 H 660.293 -0.749147 3.03491 0
M  V30 7076 H 659.513 1.67903 3.56654 0
M  V30 7077 H 660.801 1.73507 4.78302 0
M  V30 7078 H 660.199 -1.36668 5.48943 0
M  V30 7079 H 658.756 -1.199 6.40677 0
M  V30 7080 N 662.189 -1.289 0.906776 0
M  V30 7081 C 663.605 -1.47733 0.603902 0
M  V30 7082 C 663.805 -1.82568 -0.852702 0
M  V30 7083 O 662.861 -1.92642 -1.63234 0
M  V30 7084 C 664.174 -2.58522 1.53581 0
M  V30 7085 C 665.722 -2.72394 1.54177 0
M  V30 7086 C 666.197 -3.86318 2.46013 0
M  V30 7087 N 667.688 -3.93661 2.441 0
M  V30 7088 C 668.423 -4.81177 3.11859 0
M  V30 7089 N 667.919 -5.73333 3.88923 0
M  V30 7090 N 669.712 -4.74728 3.00981 0
M  V30 7091 H 661.863 -1.04567 1.84877 0
M  V30 7092 H 664.126 -0.520118 0.792579 0
M  V30 7093 H 663.832 -2.39667 2.57396 0
M  V30 7094 H 663.706 -3.55475 1.26165 0
M  V30 7095 H 666.093 -2.90641 0.511034 0
M  V30 7096 H 666.174 -1.75993 1.85634 0
M  V30 7097 H 665.818 -3.68826 3.49185 0
M  V30 7098 H 665.748 -4.82102 2.11862 0
M  V30 7099 H 668.239 -3.27751 1.88115 0
M  V30 7100 H 668.552 -6.36923 4.37663 0
M  V30 7101 H 666.897 -5.73196 3.93029 0
M  V30 7102 H 670.088 -4.01722 2.40286 0
M  V30 7103 H 670.261 -5.42719 3.54062 0
M  V30 7104 N 663.667 -0.670007 -1.42649 0
M  V30 7105 C 664.916 -0.187526 -2.00826 0
M  V30 7106 C 665.229 1.21142 -1.53571 0
M  V30 7107 O 666.435 1.79001 -2.04134 0
M  V30 7108 C 664.891 -0.284409 -3.58774 0
M  V30 7109 C 664.499 -1.6871 -4.15019 0
M  V30 7110 C 666.243 0.139605 -4.2427 0
M  V30 7111 C 664.15 -1.73701 -5.65316 0
M  V30 7112 H 663.08 -0.0663468 -0.751075 0
M  V30 7113 H 665.731 -0.834492 -1.63427 0
M  V30 7114 H 664.113 0.430364 -3.93655 0
M  V30 7115 H 665.287 -2.42857 -3.91608 0
M  V30 7116 H 663.602 -2.05855 -3.61957 0
M  V30 7117 H 666.199 0.122398 -5.3456 0
M  V30 7118 H 666.542 1.17403 -3.99402 0
M  V30 7119 H 667.075 -0.523995 -3.94334 0
M  V30 7120 H 663.814 -2.75109 -5.94975 0
M  V30 7121 H 663.334 -1.03903 -5.90732 0
M  V30 7122 H 665.013 -1.48829 -6.2965 0
M  V30 7123 N 665.145 1.52092 -0.413018 0
M  V30 7124 C 666.077 2.24819 0.445994 0
M  V30 7125 C 667.09 1.27925 1.00692 0
M  V30 7126 O 668.279 1.53845 0.905204 0
M  V30 7127 C 665.379 2.96951 1.6332 0
M  V30 7128 C 664.552 4.20746 1.19548 0
M  V30 7129 C 663.611 4.75668 2.25003 0
M  V30 7130 O 662.637 5.38148 1.85434 0
M  V30 7131 N 663.839 4.57579 3.57214 0
M  V30 7132 H 666.604 2.99176 -0.177209 0
M  V30 7133 H 664.165 1.60102 -0.240601 0
M  V30 7134 H 666.157 3.30586 2.33441 0
M  V30 7135 H 664.727 2.25756 2.16225 0
M  V30 7136 H 663.947 3.92881 0.32224 0
M  V30 7137 H 665.235 5.01132 0.880033 0
M  V30 7138 H 664.633 4.07758 3.92109 0
M  V30 7139 H 663.19 4.95642 4.23299 0
M  V30 7140 N 666.623 0.143563 1.56945 0
M  V30 7141 C 667.848 -0.518701 2.00809 0
M  V30 7142 C 668.273 -1.5785 1.02298 0
M  V30 7143 O 667.631 -1.813 -0.0017839 0
M  V30 7144 C 667.679 -1.09929 3.43436 0
M  V30 7145 O 666.783 -2.21425 3.47915 0
M  V30 7146 H 666.124 -0.127215 0.6517 0
M  V30 7147 H 668.654 0.239283 2.03196 0
M  V30 7148 H 668.664 -1.4288 3.82164 0
M  V30 7149 H 667.339 -0.323162 4.14643 0
M  V30 7150 H 665.916 -1.89728 3.21026 0
M  V30 7151 N 668.101 -1.57061 -0.130224 0
M  V30 7152 C 669.033 -1.96147 -1.18571 0
M  V30 7153 C 670.046 -0.859347 -1.38272 0
M  V30 7154 O 671.235 -1.13769 -1.37545 0
M  V30 7155 C 668.335 -2.23484 -2.54771 0
M  V30 7156 C 667.508 -3.54786 -2.55824 0
M  V30 7157 C 666.567 -3.70467 -3.73686 0
M  V30 7158 O 665.593 -4.42693 -3.57787 0
M  V30 7159 N 666.795 -3.08389 -4.91809 0
M  V30 7160 H 669.56 -2.87295 -0.853333 0
M  V30 7161 H 667.121 -1.58714 -0.319621 0
M  V30 7162 H 669.113 -2.312 -3.32158 0
M  V30 7163 H 667.683 -1.38518 -2.80235 0
M  V30 7164 H 666.903 -3.5836 -1.64232 0
M  V30 7165 H 668.191 -4.4111 -2.53573 0
M  V30 7166 H 667.589 -2.49656 -5.0763 0
M  V30 7167 H 666.146 -3.21642 -5.66912 0
M  V30 7168 N 669.579 0.400081 -1.52437 0
M  V30 7169 C 670.509 1.4947 -1.7939 0
M  V30 7170 C 671.49 1.57383 -0.645329 0
M  V30 7171 O 672.675 1.72511 -0.891826 0
M  V30 7172 C 669.805 2.87201 -1.95276 0
M  V30 7173 C 668.759 2.94134 -3.10917 0
M  V30 7174 C 668.085 4.34207 -3.1204 0
M  V30 7175 C 669.385 2.64791 -4.50203 0
M  V30 7176 H 671.079 1.27165 -2.71052 0
M  V30 7177 H 668.625 0.610312 -1.30427 0
M  V30 7178 H 670.578 3.63772 -2.12715 0
M  V30 7179 H 669.302 3.10819 -1.00294 0
M  V30 7180 H 667.961 2.20009 -2.93243 0
M  V30 7181 H 667.609 4.54848 -2.14761 0
M  V30 7182 H 667.309 4.39768 -3.89715 0
M  V30 7183 H 668.833 5.127 -3.31619 0
M  V30 7184 H 670.247 3.31083 -4.68035 0
M  V30 7185 H 668.644 2.81717 -5.29864 0
M  V30 7186 H 669.714 1.60184 -4.57678 0
M  V30 7187 N 671.057 1.43213 0.657864 0
M  V30 7188 C 672.007 1.44459 1.76396 0
M  V30 7189 C 672.991 0.313641 1.57814 0
M  V30 7190 O 674.183 0.557094 1.68004 0
M  V30 7191 C 671.312 1.36586 3.14959 0
M  V30 7192 C 670.398 2.54692 3.39106 0
M  V30 7193 N 670.789 3.80059 3.33749 0
M  V30 7194 C 669.087 2.49316 3.69807 0
M  V30 7195 C 669.788 4.58606 3.57849 0
M  V30 7196 N 668.764 3.89267 3.79437 0
M  V30 7197 H 672.566 2.39265 1.70673 0
M  V30 7198 H 670.08 1.378 0.859357 0
M  V30 7199 H 672.077 1.35561 3.94245 0
M  V30 7200 H 670.737 0.427956 3.21867 0
M  V30 7201 H 671.748 4.12414 3.13266 0
M  V30 7202 H 668.425 1.6419 3.83859 0
M  V30 7203 H 669.815 5.67619 3.59525 0
M  V30 7204 N 672.536 -0.895792 1.29666 0
M  V30 7205 C 673.446 -2.03329 1.17024 0
M  V30 7206 C 674.462 -1.73753 0.0925962 0
M  V30 7207 O 675.638 -1.99071 0.305431 0
M  V30 7208 C 672.703 -3.36072 0.851841 0
M  V30 7209 C 671.764 -3.7914 2.01373 0
M  V30 7210 C 670.997 -5.05549 1.71043 0
M  V30 7211 O 671.22 -5.66874 0.633213 0
M  V30 7212 O 670.154 -5.44764 2.5596 0
M  V30 7213 H 673.98 -2.16918 2.12556 0
M  V30 7214 H 671.565 -1.02007 1.09156 0
M  V30 7215 H 673.447 -4.15729 0.689006 0
M  V30 7216 H 672.122 -3.23616 -0.0736634 0
M  V30 7217 H 671.029 -3.00233 2.23183 0
M  V30 7218 H 672.362 -3.96186 2.92058 0
M  V30 7219 N 674.014 -1.12206 -1.10668 0
M  V30 7220 C 674.977 -0.790867 -2.15123 0
M  V30 7221 C 675.977 0.193618 -1.5963 0
M  V30 7222 O 677.167 -0.0318728 -1.74171 0
M  V30 7223 C 674.299 -0.174797 -3.40452 0
M  V30 7224 H 675.492 -1.7163 -2.45933 0
M  V30 7225 H 673.045 -0.924993 -1.2599 0
M  V30 7226 H 673.78 0.760478 -3.15257 0
M  V30 7227 H 673.565 -0.88358 -3.82015 0
M  V30 7228 H 675.055 0.0405162 -4.1758 0
M  V30 7229 N 675.492 1.28418 -0.913599 0
M  V30 7230 C 676.74 1.94596 -0.545594 0
M  V30 7231 C 677.061 1.7227 0.913668 0
M  V30 7232 O 676.331 1.06233 1.64595 0
M  V30 7233 H 674.911 0.720065 -0.198783 0
M  V30 7234 H 677.573 1.56404 -1.16292 0
M  V30 7235 H 676.669 3.03202 -0.739911 0
M  V30 7236 N 676.97 0.677563 1.42291 0
M  V30 7237 C 678.218 0.200578 2.01102 0
M  V30 7238 C 678.539 -1.19803 1.53858 0
M  V30 7239 O 677.809 -1.80496 0.761439 0
M  V30 7240 H 676.389 0.0711634 0.743603 0
M  V30 7241 H 679.051 0.874691 1.7417 0
M  V30 7242 H 678.147 0.204 3.11433 0
M  V30 7243 N 678.448 -1.51871 0.421078 0
M  V30 7244 C 679.38 -2.25052 -0.434065 0
M  V30 7245 C 680.393 -1.28458 -1.00013 0
M  V30 7246 O 681.582 -1.54323 -0.897033 0
M  V30 7247 C 678.682 -2.97813 -1.61743 0
M  V30 7248 C 677.855 -4.21374 -1.17315 0
M  V30 7249 C 676.914 -4.76854 -2.22478 0
M  V30 7250 O 675.94 -5.39123 -1.82577 0
M  V30 7251 N 677.142 -4.59467 -3.54782 0
M  V30 7252 H 679.907 -2.99077 0.193073 0
M  V30 7253 H 677.468 -1.59972 0.249088 0
M  V30 7254 H 679.46 -3.3182 -2.31685 0
M  V30 7255 H 678.03 -2.26899 -2.15024 0
M  V30 7256 H 677.25 -3.93046 -0.3014 0
M  V30 7257 H 678.538 -5.01591 -0.853444 0
M  V30 7258 H 677.936 -4.09832 -3.89941 0
M  V30 7259 H 676.493 -4.9788 -4.20665 0
M  V30 7260 N 679.926 -0.151884 -1.56866 0
M  V30 7261 C 681.175 0.497992 -1.95456 0
M  V30 7262 C 681.488 1.6569 -1.03953 0
M  V30 7263 O 682.694 2.37173 -1.32142 0
M  V30 7264 C 681.15 0.93732 -3.4748 0
M  V30 7265 C 680.758 -0.194921 -4.47576 0
M  V30 7266 C 682.502 1.55671 -3.94926 0
M  V30 7267 C 680.409 0.26295 -5.90815 0
M  V30 7268 H 679.339 0.189811 -0.729717 0
M  V30 7269 H 681.99 -0.237011 -1.81963 0
M  V30 7270 H 680.372 1.72773 -3.56322 0
M  V30 7271 H 681.546 -0.971951 -4.50433 0
M  V30 7272 H 679.861 -0.72303 -4.10075 0
M  V30 7273 H 682.458 1.91099 -4.99385 0
M  V30 7274 H 682.801 2.44748 -3.36755 0
M  V30 7275 H 683.334 0.831109 -3.89021 0
M  V30 7276 H 680.073 -0.592568 -6.52816 0
M  V30 7277 H 679.593 1.00575 -5.91308 0
M  V30 7278 H 681.272 0.713333 -6.43056 0
M  V30 7279 N 681.404 1.57128 0.121893 0
M  V30 7280 C 682.334 2.03165 1.15092 0
M  V30 7281 C 683.315 0.915587 1.43356 0
M  V30 7282 O 684.5 1.1851 1.53847 0
M  V30 7283 C 681.63 2.43352 2.47784 0
M  V30 7284 C 680.584 3.58376 2.33989 0
M  V30 7285 C 679.91 3.84454 3.71617 0
M  V30 7286 C 681.21 4.90199 1.80283 0
M  V30 7287 H 682.904 2.89382 0.768023 0
M  V30 7288 H 680.45 1.39218 0.367998 0
M  V30 7289 H 682.403 2.74163 3.20019 0
M  V30 7290 H 681.127 1.54103 2.87958 0
M  V30 7291 H 679.786 3.2777 1.64202 0
M  V30 7292 H 679.434 2.92414 4.09271 0
M  V30 7293 H 679.134 4.61877 3.6324 0
M  V30 7294 H 680.658 4.17714 4.45362 0
M  V30 7295 H 682.072 5.19565 2.42333 0
M  V30 7296 H 680.469 5.71601 1.82735 0
M  V30 7297 H 681.539 4.78904 0.760184 0
M  V30 7298 N 682.882 -0.391992 1.52647 0
M  V30 7299 C 683.829 -1.47866 1.77213 0
M  V30 7300 C 684.799 -1.54286 0.615223 0
M  V30 7301 O 685.984 -1.7059 0.854622 0
M  V30 7302 C 683.124 -2.85129 1.94411 0
M  V30 7303 C 682.237 -2.87883 3.22098 0
M  V30 7304 C 681.372 -4.16553 3.29631 0
M  V30 7305 C 680.411 -4.13348 4.51453 0
M  V30 7306 N 679.548 -5.33619 4.56284 0
M  V30 7307 H 684.388 -1.26219 2.6995 0
M  V30 7308 H 681.925 -0.612367 1.33748 0
M  V30 7309 H 683.883 -3.64833 2.02367 0
M  V30 7310 H 682.513 -3.05232 1.05038 0
M  V30 7311 H 681.565 -2.00567 3.23229 0
M  V30 7312 H 682.877 -2.81382 4.11856 0
M  V30 7313 H 682.031 -5.0466 3.36753 0
M  V30 7314 H 680.77 -4.25773 2.37842 0
M  V30 7315 H 679.775 -3.23629 4.44459 0
M  V30 7316 H 681 -4.05754 5.44555 0
M  V30 7317 H 678.946 -5.43474 3.67385 0
M  V30 7318 H 678.863 -5.29182 5.3991 0
M  V30 7319 H 680.131 -6.23632 4.67657 0
M  V30 7320 N 684.36 -1.4356 -0.65026 0
M  V30 7321 C 685.608 -1.45046 -1.40734 0
M  V30 7322 C 685.929 -0.0769822 -1.94848 0
M  V30 7323 O 685.199 0.888098 -1.74613 0
M  V30 7324 H 683.779 -0.534034 -0.522318 0
M  V30 7325 H 686.441 -1.79186 -0.766703 0
M  V30 7326 H 685.537 -2.16476 -2.24822 0
M  V30 7327 N 685.838 0.888903 -1.30139 0
M  V30 7328 C 687.087 1.63507 -1.18103 0
M  V30 7329 C 687.4 1.93808 0.264141 0
M  V30 7330 O 688.606 2.66744 0.505966 0
M  V30 7331 C 687.062 2.94673 -2.0663 0
M  V30 7332 C 686.67 2.71926 -3.56034 0
M  V30 7333 C 688.414 3.72626 -2.03346 0
M  V30 7334 C 686.321 3.98884 -4.3663 0
M  V30 7335 H 685.251 0.613426 -0.438435 0
M  V30 7336 H 687.902 0.984427 -1.54859 0
M  V30 7337 H 686.284 3.61009 -1.62754 0
M  V30 7338 H 687.458 2.14116 -4.08033 0
M  V30 7339 H 685.773 2.07353 -3.61101 0
M  V30 7340 H 688.37 4.66775 -2.60816 0
M  V30 7341 H 688.713 4.03712 -1.016 0
M  V30 7342 H 689.246 3.13147 -2.45324 0
M  V30 7343 H 685.985 3.72959 -5.39056 0
M  V30 7344 H 685.505 4.56214 -3.89396 0
M  V30 7345 H 687.184 4.66938 -4.47859 0
M  V30 7346 N 687.317 1.12792 1.10072 0
M  V30 7347 C 688.247 0.821688 2.18565 0
M  V30 7348 C 689.228 -0.21612 1.68721 0
M  V30 7349 O 690.413 -0.0764932 1.94049 0
M  V30 7350 C 687.543 0.279624 3.46172 0
M  V30 7351 C 686.497 1.25092 4.09312 0
M  V30 7352 C 685.823 0.568916 5.31665 0
M  V30 7353 C 687.123 2.60699 4.52585 0
M  V30 7354 H 688.817 1.72888 2.44438 0
M  V30 7355 H 686.363 0.832702 1.17482 0
M  V30 7356 H 688.316 0.053099 4.21367 0
M  V30 7357 H 687.04 -0.662929 3.19801 0
M  V30 7358 H 685.699 1.46332 3.36129 0
M  V30 7359 H 685.347 -0.378898 5.01571 0
M  V30 7360 H 685.047 1.21687 5.74862 0
M  V30 7361 H 686.571 0.351517 6.09587 0
M  V30 7362 H 687.985 2.43465 5.19035 0
M  V30 7363 H 686.382 3.21608 5.06644 0
M  V30 7364 H 687.452 3.1886 3.65317 0
M  V30 7365 N 688.795 -1.27931 0.920396 0
M  V30 7366 C 689.705 -2.30824 0.419212 0
M  V30 7367 C 690.721 -1.66767 -0.496461 0
M  V30 7368 O 691.897 -1.97763 -0.38104 0
M  V30 7369 C 688.962 -3.45158 -0.326601 0
M  V30 7370 C 688.023 -4.24754 0.623098 0
M  V30 7371 C 687.256 -5.33629 -0.0872172 0
M  V30 7372 O 687.479 -5.55204 -1.30784 0
M  V30 7373 O 686.413 -5.99091 0.580875 0
M  V30 7374 H 690.239 -2.75716 1.27337 0
M  V30 7375 H 687.824 -1.32747 0.685465 0
M  V30 7376 H 689.706 -4.14716 -0.747559 0
M  V30 7377 H 688.381 -3.02336 -1.15648 0
M  V30 7378 H 687.288 -3.57759 1.09359 0
M  V30 7379 H 688.621 -4.71272 1.41998 0
M  V30 7380 N 690.273 -0.685099 -1.4193 0
M  V30 7381 C 691.521 -0.21124 -2.00993 0
M  V30 7382 C 691.842 1.18985 -1.54491 0
M  V30 7383 O 691.112 1.8009 -0.771 0
M  V30 7384 H 689.692 -0.0751059 -0.743215 0
M  V30 7385 H 692.354 -0.883915 -1.73704 0
M  V30 7386 H 691.45 -0.220513 -3.1132 0
M  V30 7387 N 691.751 1.51645 -0.429126 0
M  V30 7388 C 692.714 2.26116 0.374726 0
M  V30 7389 C 693.714 1.29242 0.956714 0
M  V30 7390 O 694.904 1.53022 0.832452 0
M  V30 7391 C 692.036 3.04669 1.52937 0
M  V30 7392 H 693.229 2.9861 -0.277818 0
M  V30 7393 H 690.782 1.55236 -0.182097 0
M  V30 7394 H 691.517 2.36571 2.21821 0
M  V30 7395 H 691.302 3.75814 1.11833 0
M  V30 7396 H 692.792 3.61102 2.09751 0
M  V30 7397 N 693.229 0.160201 1.56784 0
M  V30 7398 C 694.454 -0.497373 2.01348 0
M  V30 7399 C 694.879 -1.56757 1.03966 0
M  V30 7400 O 694.237 -1.81292 0.0174455 0
M  V30 7401 C 694.285 -1.0628 3.44582 0
M  V30 7402 O 693.389 -2.17723 3.50244 0
M  V30 7403 H 692.73 -0.120295 0.653012 0
M  V30 7404 H 695.26 0.260821 2.02931 0
M  V30 7405 H 695.27 -1.38819 3.83658 0
M  V30 7406 H 693.945 -0.279166 4.14962 0
M  V30 7407 H 692.522 -1.86313 3.2302 0
M  V30 7408 N 694.707 -1.5719 -0.113559 0
M  V30 7409 C 695.657 -1.97166 -1.14497 0
M  V30 7410 C 696.641 -0.847413 -1.36776 0
M  V30 7411 O 697.833 -1.11114 -1.37777 0
M  V30 7412 C 694.962 -2.38411 -2.47013 0
M  V30 7413 C 694.048 -3.5748 -2.28185 0
M  V30 7414 N 694.439 -4.72998 -1.79182 0
M  V30 7415 C 692.737 -3.63218 -2.58821 0
M  V30 7416 C 693.438 -5.55007 -1.74191 0
M  V30 7417 N 692.414 -4.9765 -2.18735 0
M  V30 7418 H 696.216 -2.83937 -0.758733 0
M  V30 7419 H 693.73 -1.59191 -0.321234 0
M  V30 7420 H 695.727 -2.65269 -3.21618 0
M  V30 7421 H 694.387 -1.53007 -2.8639 0
M  V30 7422 H 695.398 -4.96109 -1.48649 0
M  V30 7423 H 692.075 -2.88434 -3.01847 0
M  V30 7424 H 693.465 -6.57678 -1.37512 0
M  V30 7425 N 696.185 0.383891 -1.52853 0
M  V30 7426 C 697.434 1.12563 -1.67369 0
M  V30 7427 C 697.747 1.90982 -0.422533 0
M  V30 7428 O 698.953 2.6778 -0.447914 0
M  V30 7429 C 697.409 2.05011 -2.95801 0
M  V30 7430 C 697.017 1.31991 -4.28115 0
M  V30 7431 C 698.761 2.79289 -3.19684 0
M  V30 7432 C 696.668 2.23235 -5.4765 0
M  V30 7433 H 695.598 0.42391 -0.623552 0
M  V30 7434 H 698.249 0.388016 -1.79351 0
M  V30 7435 H 696.631 2.82429 -2.77578 0
M  V30 7436 H 697.805 0.597633 -4.56908 0
M  V30 7437 H 696.12 0.696517 -4.10533 0
M  V30 7438 H 698.717 3.47749 -4.06171 0
M  V30 7439 H 699.06 3.43649 -2.3497 0
M  V30 7440 H 699.593 2.08962 -3.38496 0
M  V30 7441 H 696.332 1.63482 -6.34786 0
M  V30 7442 H 695.852 2.93364 -5.23161 0
M  V30 7443 H 697.531 2.83205 -5.81725 0
M  V30 7444 N 697.663 1.43903 0.642637 0
M  V30 7445 C 698.593 1.52697 1.76652 0
M  V30 7446 C 699.574 0.380816 1.65782 0
M  V30 7447 O 700.759 0.599432 1.84717 0
M  V30 7448 C 697.889 1.45975 3.15133 0
M  V30 7449 C 696.843 2.58949 3.40778 0
M  V30 7450 C 696.169 2.37279 4.79169 0
M  V30 7451 C 697.469 4.01153 3.34475 0
M  V30 7452 H 699.163 2.46766 1.69549 0
M  V30 7453 H 696.709 1.18767 0.814279 0
M  V30 7454 H 698.662 1.5073 3.93521 0
M  V30 7455 H 697.386 0.484162 3.22991 0
M  V30 7456 H 696.045 2.53564 2.64765 0
M  V30 7457 H 695.693 1.37939 4.83717 0
M  V30 7458 H 695.393 3.13016 4.97287 0
M  V30 7459 H 696.917 2.43834 5.59801 0
M  V30 7460 H 698.331 4.07968 4.02784 0
M  V30 7461 H 696.728 4.77001 3.64129 0
M  V30 7462 H 697.798 4.25539 2.32475 0
M  V30 7463 N 699.141 -0.881989 1.30609 0
M  V30 7464 C 700.552 -1.44956 1.17664 0
M  V30 7465 C 700.903 -1.94945 -0.221531 0
M  V30 7466 O 700.028 -1.85257 -1.11844 0
M  V30 7467 C 700.623 -2.63474 2.12995 0
M  V30 7468 C 699.182 -3.16312 2.04019 0
M  V30 7469 C 698.329 -1.89008 2.02907 0
M  V30 7470 H 701.28 -0.691645 1.42835 0
M  V30 7471 H 701.301 -3.39783 1.71253 0
M  V30 7472 H 700.813 -2.2706 3.14746 0
M  V30 7473 H 698.914 -3.57376 1.0542 0
M  V30 7474 H 699.027 -3.79409 2.9255 0
M  V30 7475 H 697.391 -2.07465 1.47751 0
M  V30 7476 H 698.174 -1.54848 3.06394 0
M  V30 7477 N 700.619 -1.13374 -1.09472 0
M  V30 7478 C 701.582 -0.813639 -2.14272 0
M  V30 7479 C 702.582 0.176677 -1.59826 0
M  V30 7480 O 703.772 -0.0503441 -1.74127 0
M  V30 7481 C 700.904 -0.210897 -3.40247 0
M  V30 7482 H 702.097 -1.74229 -2.44099 0
M  V30 7483 H 699.65 -0.938304 -1.25002 0
M  V30 7484 H 700.385 0.726998 -3.16046 0
M  V30 7485 H 700.17 -0.924048 -3.81056 0
M  V30 7486 H 701.66 -0.00377603 -4.176 0
M  V30 7487 N 702.098 1.27442 -0.927168 0
M  V30 7488 C 703.345 1.94391 -0.567324 0
M  V30 7489 C 703.673 1.72875 0.891321 0
M  V30 7490 O 702.928 1.05071 1.65102 0
M  V30 7491 C 703.227 3.47413 -0.838994 0
M  V30 7492 C 702.893 3.89049 -2.2793 0
M  V30 7493 C 701.555 4.00127 -2.67305 0
M  V30 7494 C 703.907 4.10154 -3.21595 0
M  V30 7495 C 701.235 4.29697 -3.99471 0
M  V30 7496 C 703.587 4.41208 -4.53341 0
M  V30 7497 C 702.251 4.50499 -4.92551 0
M  V30 7498 H 701.521 0.711325 -0.207598 0
M  V30 7499 H 704.168 1.51523 -1.17103 0
M  V30 7500 H 702.473 3.91503 -0.152609 0
M  V30 7501 H 704.17 3.97354 -0.53955 0
M  V30 7502 H 700.76 3.80962 -1.96381 0
M  V30 7503 H 704.944 4.01036 -2.92377 0
M  V30 7504 H 700.2 4.35099 -4.29533 0
M  V30 7505 H 704.374 4.56486 -5.25922 0
M  V30 7506 H 702.001 4.73167 -5.94994 0
M  V30 7507 N 703.576 0.692616 1.41565 0
M  V30 7508 C 704.992 0.363878 1.55397 0
M  V30 7509 C 705.192 -1.1294 1.66874 0
M  V30 7510 O 704.248 -1.91517 1.64552 0
M  V30 7511 C 705.561 1.10982 2.7947 0
M  V30 7512 C 707.109 1.09387 2.93263 0
M  V30 7513 C 707.584 1.8215 4.20221 0
M  V30 7514 N 709.075 1.79105 4.27172 0
M  V30 7515 C 709.81 2.32247 5.2426 0
M  V30 7516 N 709.306 2.93847 6.27396 0
M  V30 7517 N 711.099 2.22519 5.1618 0
M  V30 7518 H 703.25 1.66116 1.3236 0
M  V30 7519 H 705.513 0.700848 0.63837 0
M  V30 7520 H 705.219 2.1647 2.77188 0
M  V30 7521 H 705.093 0.686492 3.709 0
M  V30 7522 H 707.48 0.0472638 2.95062 0
M  V30 7523 H 707.561 1.55623 2.03015 0
M  V30 7524 H 707.205 2.86789 4.19183 0
M  V30 7525 H 707.135 1.33351 5.09436 0
M  V30 7526 H 709.626 1.34191 3.53272 0
M  V30 7527 H 709.939 3.31972 6.97864 0
M  V30 7528 H 708.284 2.97924 6.27906 0
M  V30 7529 H 711.475 1.7407 4.34531 0
M  V30 7530 H 711.648 2.64239 5.91677 0
M  V30 7531 N 705.054 -1.51416 0.437162 0
M  V30 7532 C 706.3 -2.02386 -0.129555 0
M  V30 7533 C 706.633 -1.32071 -1.42376 0
M  V30 7534 O 705.908 -0.43559 -1.8956 0
M  V30 7535 C 706.191 -3.5841 -0.348487 0
M  V30 7536 C 706.044 -4.39341 0.964352 0
M  V30 7537 C 707.363 -4.25654 -1.11834 0
M  V30 7538 H 704.482 -0.735587 -0.0456109 0
M  V30 7539 H 707.124 -1.81055 0.576124 0
M  V30 7540 H 705.274 -3.76716 -0.949592 0
M  V30 7541 H 706.946 -4.32685 1.59942 0
M  V30 7542 H 705.189 -4.04432 1.56898 0
M  V30 7543 H 705.86 -5.4667 0.765212 0
M  V30 7544 H 708.336 -4.11617 -0.609165 0
M  V30 7545 H 707.212 -5.34704 -1.24029 0
M  V30 7546 H 707.473 -3.86502 -2.14636 0
M  V30 7547 N 706.532 -0.168513 -1.56696 0
M  V30 7548 C 707.462 0.758563 -2.20835 0
M  V30 7549 C 708.443 1.24121 -1.1631 0
M  V30 7550 O 709.628 1.29487 -1.4473 0
M  V30 7551 C 706.758 1.9892 -2.8469 0
M  V30 7552 C 705.712 1.64252 -3.95228 0
M  V30 7553 C 705.038 2.94757 -4.46119 0
M  V30 7554 C 706.338 0.872675 -5.14958 0
M  V30 7555 H 708.032 0.223953 -2.98561 0
M  V30 7556 H 705.578 0.106277 -1.43607 0
M  V30 7557 H 707.531 2.64275 -3.28233 0
M  V30 7558 H 706.255 2.5479 -2.04327 0
M  V30 7559 H 704.914 1.01266 -3.52336 0
M  V30 7560 H 704.562 3.48662 -3.62552 0
M  V30 7561 H 704.262 2.72316 -5.2069 0
M  V30 7562 H 705.786 3.61147 -4.92347 0
M  V30 7563 H 707.2 1.42875 -5.55211 0
M  V30 7564 H 705.597 0.747402 -5.95428 0
M  V30 7565 H 706.667 -0.131535 -4.84722 0
M  V30 7566 N 708.01 1.57248 0.105221 0
M  V30 7567 C 709.235 1.90143 0.828264 0
M  V30 7568 C 709.66 0.761811 1.71983 0
M  V30 7569 O 709.018 -0.287086 1.79013 0
M  V30 7570 C 709.066 3.21856 1.62608 0
M  V30 7571 O 708.17 3.08732 2.7342 0
M  V30 7572 H 707.511 0.623558 0.228192 0
M  V30 7573 H 710.041 2.0443 0.0834826 0
M  V30 7574 H 710.051 3.54916 2.01243 0
M  V30 7575 H 708.726 4.0439 0.971687 0
M  V30 7576 H 707.303 2.87167 2.37886 0
M  V30 7577 N 709.488 -0.375779 1.53054 0
M  V30 7578 C 710.713 -1.14484 1.7294 0
M  V30 7579 C 711.138 -1.82572 0.452668 0
M  V30 7580 O 710.496 -1.71343 -0.592567 0
M  V30 7581 C 710.544 -2.15857 2.88857 0
M  V30 7582 O 709.648 -3.22725 2.56753 0
M  V30 7583 H 708.989 -0.332666 0.574656 0
M  V30 7584 H 711.519 -0.436025 1.999 0
M  V30 7585 H 711.529 -2.59631 3.14731 0
M  V30 7586 H 710.204 -1.65689 3.81471 0
M  V30 7587 H 708.781 -2.83996 2.41663 0
M  V30 7588 N 710.966 -1.44241 -0.634997 0
M  V30 7589 C 711.896 -1.53632 -1.7584 0
M  V30 7590 C 712.877 -0.389603 -1.65578 0
M  V30 7591 O 714.062 -0.609219 -1.84397 0
M  V30 7592 C 711.192 -1.47644 -3.14354 0
M  V30 7593 C 710.146 -2.60752 -3.394 0
M  V30 7594 C 709.472 -2.39817 -4.77904 0
M  V30 7595 C 710.772 -4.02921 -3.32343 0
M  V30 7596 H 712.466 -2.47662 -1.68238 0
M  V30 7597 H 710.012 -1.19197 -0.807969 0
M  V30 7598 H 711.965 -1.52815 -3.92716 0
M  V30 7599 H 710.689 -0.501284 -3.2273 0
M  V30 7600 H 709.348 -2.54965 -2.63417 0
M  V30 7601 H 708.996 -1.40502 -4.82978 0
M  V30 7602 H 708.696 -3.15649 -4.9562 0
M  V30 7603 H 710.22 -2.46799 -5.585 0
M  V30 7604 H 711.634 -4.10098 -4.00615 0
M  V30 7605 H 710.031 -4.78925 -3.61595 0
M  V30 7606 H 711.101 -4.26766 -2.30215 0
M  V30 7607 N 712.444 0.87505 -1.31075 0
M  V30 7608 C 713.374 1.99775 -1.20881 0
M  V30 7609 C 714.355 1.69822 -0.0971612 0
M  V30 7610 O 715.54 1.92158 -0.280895 0
M  V30 7611 C 712.67 3.35163 -0.910118 0
M  V30 7612 C 711.624 3.79406 -1.98078 0
M  V30 7613 C 710.95 5.12197 -1.53488 0
M  V30 7614 C 712.25 3.97061 -3.39323 0
M  V30 7615 H 713.944 2.08562 -2.14808 0
M  V30 7616 H 711.49 1.00207 -1.03415 0
M  V30 7617 H 713.443 4.13237 -0.825423 0
M  V30 7618 H 712.167 3.26536 0.064822 0
M  V30 7619 H 710.826 3.03568 -2.05528 0
M  V30 7620 H 710.474 5.00007 -0.547941 0
M  V30 7621 H 710.174 5.4277 -2.2511 0
M  V30 7622 H 711.698 5.92785 -1.46417 0
M  V30 7623 H 713.112 4.65545 -3.34576 0
M  V30 7624 H 711.509 4.39025 -4.09118 0
M  V30 7625 H 712.579 3.00601 -3.80483 0
M  V30 7626 N 713.922 1.13953 1.08869 0
M  V30 7627 C 715.147 0.928559 1.85452 0
M  V30 7628 C 715.572 -0.517642 1.80837 0
M  V30 7629 O 714.93 -1.36779 1.19001 0
M  V30 7630 C 714.978 1.42814 3.31114 0
M  V30 7631 O 714.082 0.617129 4.07756 0
M  V30 7632 H 713.423 0.33235 0.574839 0
M  V30 7633 H 715.953 1.5156 1.37443 0
M  V30 7634 H 715.963 1.43425 3.8196 0
M  V30 7635 H 714.638 2.48109 3.33788 0
M  V30 7636 H 713.215 0.679365 3.66659 0
M  V30 7637 N 715.4 -1.26948 0.933913 0
M  V30 7638 C 716.625 -1.98724 0.593589 0
M  V30 7639 C 717.05 -1.6915 -0.822801 0
M  V30 7640 O 716.408 -0.93533 -1.5531 0
M  V30 7641 C 716.456 -3.50834 0.833542 0
M  V30 7642 O 715.56 -4.12284 -0.0978788 0
M  V30 7643 H 714.901 -0.623683 0.227849 0
M  V30 7644 H 717.431 -1.61599 1.25486 0
M  V30 7645 H 717.441 -4.01018 0.75156 0
M  V30 7646 H 716.116 -3.71691 1.86597 0
M  V30 7647 H 714.693 -3.72884 0.0345443 0
M  V30 7648 N 716.879 -0.700114 -1.41195 0
M  V30 7649 C 718.119 -0.237223 -2.03019 0
M  V30 7650 C 718.483 1.14304 -1.54268 0
M  V30 7651 O 719.684 1.70204 -2.08048 0
M  V30 7652 C 717.955 -0.297442 -3.5616 0
M  V30 7653 S 719.514 0.0907367 -4.38706 0
M  V30 7654 H 716.332 -0.0952147 -0.704596 0
M  V30 7655 H 718.934 -0.918901 -1.72559 0
M  V30 7656 H 717.638 -1.30391 -3.89135 0
M  V30 7657 H 717.169 0.403233 -3.91328 0
M  V30 7658 H 719.184 1.31721 -4.78397 0
M  V30 7659 N 718.357 1.51182 -0.445186 0
M  V30 7660 C 719.582 2.07056 0.119445 0
M  V30 7661 C 720.007 1.30966 1.35016 0
M  V30 7662 O 719.365 0.349827 1.77893 0
M  V30 7663 C 719.413 3.58234 0.412428 0
M  V30 7664 O 718.517 3.84249 1.49754 0
M  V30 7665 H 717.858 0.663998 -0.00157797 0
M  V30 7666 H 720.388 1.94699 -0.628779 0
M  V30 7667 H 720.398 4.02617 0.660583 0
M  V30 7668 H 719.073 4.13038 -0.487049 0
M  V30 7669 H 717.65 3.51724 1.23873 0
M  V30 7670 N 719.835 0.176821 1.56605 0
M  V30 7671 C 721.112 -0.513365 1.88743 0
M  V30 7672 C 721.492 -1.80929 1.08757 0
M  V30 7673 O 720.84 -2.27765 0.183127 0
M  V30 7674 C 721.05 -0.749925 3.40848 0
M  V30 7675 C 722.398 -1.07747 4.10701 0
M  V30 7676 O 723.422 -0.838277 3.46196 0
M  V30 7677 O 722.281 -1.52901 5.24675 0
M  V30 7678 H 719.375 -0.265296 0.783292 0
M  V30 7679 H 721.921 0.215669 1.68324 0
M  V30 7680 H 720.693 0.16599 3.90948 0
M  V30 7681 H 720.316 -1.53208 3.66897 0
M  V30 7682 N 721.313 -1.57302 -0.09688 0
M  V30 7683 C 722.538 -1.9058 -0.818169 0
M  V30 7684 C 722.963 -0.770921 -1.71576 0
M  V30 7685 O 722.321 0.277588 -1.79162 0
M  V30 7686 C 722.369 -3.22714 -1.60898 0
M  V30 7687 O 721.473 -3.10178 -2.71779 0
M  V30 7688 H 720.814 -0.624759 -0.224882 0
M  V30 7689 H 723.344 -2.04471 -0.07264 0
M  V30 7690 H 723.354 -3.55978 -1.99358 0
M  V30 7691 H 722.029 -4.04899 -0.950227 0
M  V30 7692 H 720.606 -2.88424 -2.3636 0
M  V30 7693 N 722.791 0.367657 -1.53252 0
M  V30 7694 C 724.037 1.11216 -1.69584 0
M  V30 7695 C 724.37 1.89026 -0.445269 0
M  V30 7696 O 723.645 1.86342 0.557404 0
M  V30 7697 C 723.928 2.07308 -2.94441 0
M  V30 7698 C 723.781 1.3312 -4.2965 0
M  V30 7699 C 725.1 3.07459 -3.14892 0
M  V30 7700 H 722.219 0.40294 -0.617096 0
M  V30 7701 H 724.861 0.393201 -1.85887 0
M  V30 7702 H 723.011 2.68617 -2.80673 0
M  V30 7703 H 724.683 0.746111 -4.55226 0
M  V30 7704 H 722.926 0.633051 -4.29156 0
M  V30 7705 H 723.597 2.03443 -5.13142 0
M  V30 7706 H 726.073 2.56252 -3.27832 0
M  V30 7707 H 724.949 3.71919 -4.03693 0
M  V30 7708 H 725.21 3.77514 -2.30077 0
M  V30 7709 N 724.269 1.44576 0.627338 0
M  V30 7710 C 725.232 1.51372 1.72102 0
M  V30 7711 C 726.232 0.395329 1.55865 0
M  V30 7712 O 727.422 0.658094 1.61291 0
M  V30 7713 C 724.554 1.39129 3.11217 0
M  V30 7714 H 725.747 2.48798 1.6745 0
M  V30 7715 H 723.3 1.31724 0.841336 0
M  V30 7716 H 724.035 0.428114 3.21462 0
M  V30 7717 H 723.82 2.20229 3.24409 0
M  V30 7718 H 725.31 1.46874 3.90919 0
M  V30 7719 N 725.747 -0.868086 1.31537 0
M  V30 7720 C 726.677 -1.99131 1.21939 0
M  V30 7721 C 727.658 -1.69768 0.106166 0
M  V30 7722 O 728.843 -1.92006 0.291081 0
M  V30 7723 C 725.973 -3.34676 0.927879 0
M  V30 7724 C 724.927 -3.7835 2.00088 0
M  V30 7725 C 724.253 -5.11375 1.56203 0
M  V30 7726 C 725.553 -3.95256 3.41424 0
M  V30 7727 H 727.247 -2.07419 2.15911 0
M  V30 7728 H 724.793 -0.996569 1.03945 0
M  V30 7729 H 726.746 -4.12793 0.847327 0
M  V30 7730 H 725.47 -3.26565 -0.0475042 0
M  V30 7731 H 724.129 -3.02474 2.07135 0
M  V30 7732 H 723.777 -4.99709 0.57445 0
M  V30 7733 H 723.477 -5.41568 2.27985 0
M  V30 7734 H 725.001 -5.92001 1.49558 0
M  V30 7735 H 726.415 -4.63764 3.3704 0
M  V30 7736 H 724.812 -4.36849 4.1144 0
M  V30 7737 H 725.882 -2.98579 3.82072 0
M  V30 7738 N 727.225 -1.14528 -1.08264 0
M  V30 7739 C 728.455 -0.936604 -1.8415 0
M  V30 7740 C 728.863 0.518298 -1.81962 0
M  V30 7741 O 728.206 1.37096 -1.22272 0
M  V30 7742 C 728.268 -1.36182 -3.32708 0
M  V30 7743 C 727.932 -2.83257 -3.58629 0
M  V30 7744 C 728.929 -3.81366 -3.5335 0
M  V30 7745 C 726.614 -3.20704 -3.86593 0
M  V30 7746 C 728.608 -5.14929 -3.75668 0
M  V30 7747 C 726.295 -4.54443 -4.08564 0
M  V30 7748 C 727.293 -5.51365 -4.03095 0
M  V30 7749 O 726.981 -6.8269 -4.24488 0
M  V30 7750 H 726.713 -0.333254 -0.588148 0
M  V30 7751 H 729.267 -1.5247 -1.3763 0
M  V30 7752 H 727.497 -0.717063 -3.79994 0
M  V30 7753 H 729.186 -1.12372 -3.90035 0
M  V30 7754 H 729.952 -3.53781 -3.31759 0
M  V30 7755 H 725.831 -2.45857 -3.89969 0
M  V30 7756 H 729.375 -5.90568 -3.71315 0
M  V30 7757 H 725.272 -4.81747 -4.29639 0
M  V30 7758 H 726.04 -6.8897 -4.41886 0
M  V30 7759 N 728.703 1.26451 -0.940633 0
M  V30 7760 C 729.928 1.98407 -0.60412 0
M  V30 7761 C 730.353 1.69584 0.81382 0
M  V30 7762 O 729.711 0.943553 1.54812 0
M  V30 7763 C 729.759 3.50387 -0.852136 0
M  V30 7764 O 728.863 4.1233 0.076013 0
M  V30 7765 H 728.204 0.622466 -0.231153 0
M  V30 7766 H 730.734 1.60932 -1.26342 0
M  V30 7767 H 730.744 4.00614 -0.772816 0
M  V30 7768 H 729.419 3.70696 -1.88566 0
M  V30 7769 H 727.996 3.7286 -0.0543187 0
M  V30 7770 N 730.181 0.707592 1.40822 0
M  V30 7771 C 731.428 0.243671 2.01029 0
M  V30 7772 C 731.756 -1.16057 1.5608 0
M  V30 7773 O 731.011 -1.7999 0.768251 0
M  V30 7774 C 731.31 0.262892 3.56432 0
M  V30 7775 C 730.976 1.61632 4.20935 0
M  V30 7776 C 729.638 1.98682 4.38268 0
M  V30 7777 C 731.99 2.50619 4.5699 0
M  V30 7778 C 729.318 3.2428 4.88937 0
M  V30 7779 C 731.67 3.75562 5.09054 0
M  V30 7780 C 730.334 4.12739 5.24598 0
M  V30 7781 H 729.604 0.0891654 0.735616 0
M  V30 7782 H 732.251 0.909051 1.68548 0
M  V30 7783 H 730.556 -0.486052 3.88773 0
M  V30 7784 H 732.253 -0.113775 4.00839 0
M  V30 7785 H 728.843 1.31818 4.07826 0
M  V30 7786 H 733.027 2.23272 4.43242 0
M  V30 7787 H 728.283 3.53064 4.99155 0
M  V30 7788 H 732.457 4.44692 5.35931 0
M  V30 7789 H 730.084 5.10132 5.63622 0
M  V30 7790 N 731.66 -1.50943 0.453197 0
M  V30 7791 C 732.9 -2.0412 -0.106894 0
M  V30 7792 C 733.264 -1.32895 -1.38575 0
M  V30 7793 O 734.465 -1.76529 -2.02709 0
M  V30 7794 C 732.736 -3.561 -0.304565 0
M  V30 7795 S 734.295 -4.3096 -0.825784 0
M  V30 7796 H 731.113 -0.710581 -0.0243969 0
M  V30 7797 H 733.715 -1.85534 0.616239 0
M  V30 7798 H 732.419 -4.055 0.632277 0
M  V30 7799 H 731.95 -3.79009 -1.05433 0
M  V30 7800 H 733.965 -4.49503 -2.10147 0
M  V30 7801 N 733.138 -0.185124 -1.56509 0
M  V30 7802 C 734.554 0.170865 -1.58683 0
M  V30 7803 C 734.754 1.61799 -1.20098 0
M  V30 7804 O 733.81 2.35181 -0.919038 0
M  V30 7805 C 735.123 -0.122459 -3.00451 0
M  V30 7806 C 736.671 -0.0617699 -3.12939 0
M  V30 7807 C 737.146 -0.328269 -4.56822 0
M  V30 7808 N 738.637 -0.276533 -4.62374 0
M  V30 7809 C 739.372 -0.456722 -5.71578 0
M  V30 7810 N 738.868 -0.69672 -6.89288 0
M  V30 7811 N 740.661 -0.391669 -5.60734 0
M  V30 7812 H 732.812 -1.12956 -1.79874 0
M  V30 7813 H 735.075 -0.45011 -0.834329 0
M  V30 7814 H 734.781 -1.12546 -3.33206 0
M  V30 7815 H 734.655 0.579578 -3.72721 0
M  V30 7816 H 737.042 0.931826 -2.80002 0
M  V30 7817 H 737.123 -0.796732 -2.43076 0
M  V30 7818 H 736.767 -1.31914 -4.9047 0
M  V30 7819 H 736.697 0.427465 -5.24862 0
M  V30 7820 H 739.188 -0.0972458 -3.77775 0
M  V30 7821 H 739.501 -0.823291 -7.68402 0
M  V30 7822 H 737.846 -0.733497 -6.91119 0
M  V30 7823 H 741.037 -0.204663 -4.67652 0
M  V30 7824 H 741.21 -0.535518 -6.45783 0
M  V30 7825 N 734.616 1.57351 0.0885366 0
M  V30 7826 C 735.526 2.05858 1.12516 0
M  V30 7827 C 736.542 0.984758 1.43452 0
M  V30 7828 O 737.718 1.29836 1.53963 0
M  V30 7829 C 734.783 2.47882 2.42395 0
M  V30 7830 C 733.844 3.69487 2.18582 0
M  V30 7831 C 733.077 4.09497 3.42268 0
M  V30 7832 O 733.3 3.49536 4.50755 0
M  V30 7833 O 732.234 5.02406 3.31469 0
M  V30 7834 H 736.06 2.94467 0.743146 0
M  V30 7835 H 733.645 1.46326 0.301507 0
M  V30 7836 H 735.527 2.75509 3.18862 0
M  V30 7837 H 734.202 1.62408 2.8001 0
M  V30 7838 H 733.109 3.46967 1.39875 0
M  V30 7839 H 734.442 4.55761 1.85857 0
M  V30 7840 N 736.094 -0.359525 1.53444 0
M  V30 7841 C 737.057 -1.42357 1.7963 0
M  V30 7842 C 738.057 -1.46319 0.666884 0
M  V30 7843 O 739.247 -1.46974 0.935113 0
M  V30 7844 C 736.379 -2.81425 1.92387 0
M  V30 7845 H 737.572 -1.20409 2.74666 0
M  V30 7846 H 735.125 -0.593007 1.44614 0
M  V30 7847 H 735.86 -3.08679 0.994384 0
M  V30 7848 H 735.645 -2.79947 2.74539 0
M  V30 7849 H 737.135 -3.5847 2.14218 0
M  V30 7850 N 737.572 -1.44907 -0.619662 0
M  V30 7851 C 738.82 -1.47999 -1.37625 0
M  V30 7852 C 739.141 -0.118295 -1.94641 0
M  V30 7853 O 738.411 0.85086 -1.76457 0
M  V30 7854 H 736.991 -0.544993 -0.510873 0
M  V30 7855 H 739.653 -1.80772 -0.728522 0
M  V30 7856 H 738.749 -2.21196 -2.20179 0
M  V30 7857 N 739.05 0.861098 -1.31996 0
M  V30 7858 C 739.98 1.98482 -1.22993 0
M  V30 7859 C 740.961 1.6971 -0.115168 0
M  V30 7860 O 742.146 1.91849 -0.30126 0
M  V30 7861 C 739.276 3.34179 -0.945615 0
M  V30 7862 C 738.23 3.77284 -2.02091 0
M  V30 7863 C 737.556 5.1054 -1.58912 0
M  V30 7864 C 738.856 3.93439 -3.43515 0
M  V30 7865 H 740.55 2.06271 -2.17008 0
M  V30 7866 H 738.096 0.991043 -1.04472 0
M  V30 7867 H 740.049 4.12338 -0.869206 0
M  V30 7868 H 738.773 3.26586 0.0301849 0
M  V30 7869 H 737.432 3.01371 -2.08737 0
M  V30 7870 H 737.08 4.99397 -0.600942 0
M  V30 7871 H 736.78 5.40352 -2.30854 0
M  V30 7872 H 738.304 5.91199 -1.52696 0
M  V30 7873 H 739.718 4.6197 -3.39495 0
M  V30 7874 H 738.115 4.34661 -4.13751 0
M  V30 7875 H 739.185 2.96548 -3.8365 0
M  V30 7876 N 740.528 1.15101 1.07655 0
M  V30 7877 C 741.939 0.933848 1.61667 0
M  V30 7878 C 742.29 -0.525569 1.8903 0
M  V30 7879 O 741.415 -1.39605 1.65346 0
M  V30 7880 C 742.01 1.68876 2.93711 0
M  V30 7881 C 740.569 1.51697 3.44478 0
M  V30 7882 C 739.716 1.70633 2.18586 0
M  V30 7883 H 742.667 1.30171 0.907816 0
M  V30 7884 H 742.688 1.15645 3.625 0
M  V30 7885 H 742.2 2.7509 2.73764 0
M  V30 7886 H 740.301 0.478635 3.69513 0
M  V30 7887 H 740.414 2.29194 4.20722 0
M  V30 7888 H 738.778 1.13259 2.28132 0
M  V30 7889 H 739.561 2.78206 2.01137 0
M  V30 7890 N 742.006 -1.2595 0.947325 0
M  V30 7891 C 743.254 -1.93081 0.596996 0
M  V30 7892 C 743.575 -1.74632 -0.867672 0
M  V30 7893 O 742.845 -1.1056 -1.6172 0
M  V30 7894 H 741.425 -0.714542 0.217805 0
M  V30 7895 H 744.087 -1.53265 1.20398 0
M  V30 7896 H 743.183 -3.01134 0.82004 0
M  V30 7897 N 743.484 -0.715051 -1.40445 0
M  V30 7898 C 744.414 -0.0768699 -2.33373 0
M  V30 7899 C 745.395 0.746109 -1.52863 0
M  V30 7900 O 746.58 0.695142 -1.81332 0
M  V30 7901 C 743.71 0.846014 -3.36838 0
M  V30 7902 C 742.664 0.128694 -4.27806 0
M  V30 7903 C 741.99 1.16726 -5.21804 0
M  V30 7904 C 743.29 -1.01679 -5.12307 0
M  V30 7905 H 744.984 -0.853061 -2.8699 0
M  V30 7906 H 742.53 -0.41167 -1.3799 0
M  V30 7907 H 744.483 1.30185 -4.00786 0
M  V30 7908 H 743.207 1.6541 -2.81615 0
M  V30 7909 H 741.866 -0.307314 -3.6531 0
M  V30 7910 H 741.514 1.96838 -4.62887 0
M  V30 7911 H 741.214 0.692188 -5.83509 0
M  V30 7912 H 742.738 1.62321 -5.88629 0
M  V30 7913 H 744.152 -0.640337 -5.69713 0
M  V30 7914 H 742.549 -1.4202 -5.83053 0
M  V30 7915 H 743.619 -1.84769 -4.48317 0
M  V30 7916 N 744.962 1.50701 -0.461195 0
M  V30 7917 C 745.892 2.31182 0.328184 0
M  V30 7918 C 746.873 1.37644 0.999408 0
M  V30 7919 O 748.058 1.66565 0.99848 0
M  V30 7920 C 745.188 3.17113 1.41621 0
M  V30 7921 C 744.142 4.19124 0.867148 0
M  V30 7922 C 743.468 4.93728 2.05272 0
M  V30 7923 C 744.768 5.22174 -0.114808 0
M  V30 7924 H 746.462 2.97423 -0.343501 0
M  V30 7925 H 744.008 1.43033 -0.166641 0
M  V30 7926 H 745.961 3.72208 1.97584 0
M  V30 7927 H 744.685 2.48739 2.11652 0
M  V30 7928 H 743.344 3.65116 0.329557 0
M  V30 7929 H 742.992 4.21835 2.73978 0
M  V30 7930 H 742.692 5.62724 1.69161 0
M  V30 7931 H 744.216 5.51654 2.61744 0
M  V30 7932 H 745.63 5.72198 0.355316 0
M  V30 7933 H 744.027 5.98833 -0.389689 0
M  V30 7934 H 745.097 4.7353 -1.04391 0
M  V30 7935 N 746.441 0.193421 1.56409 0
M  V30 7936 C 747.371 -0.723334 2.22014 0
M  V30 7937 C 748.352 -1.22254 1.1827 0
M  V30 7938 O 749.537 -1.27168 1.46771 0
M  V30 7939 C 746.667 -1.94366 2.87818 0
M  V30 7940 C 745.621 -1.57943 3.97791 0
M  V30 7941 C 744.947 -2.87623 4.50752 0
M  V30 7942 C 746.247 -0.790639 5.16281 0
M  V30 7943 H 747.941 -0.176426 2.9888 0
M  V30 7944 H 745.487 -0.0834166 1.43758 0
M  V30 7945 H 747.44 -2.5902 3.32396 0
M  V30 7946 H 746.164 -2.51507 2.08355 0
M  V30 7947 H 744.823 -0.956482 3.53903 0
M  V30 7948 H 744.471 -3.4285 3.68053 0
M  V30 7949 H 744.171 -2.63998 5.24956 0
M  V30 7950 H 745.695 -3.53268 4.9803 0
M  V30 7951 H 747.109 -1.34024 5.57414 0
M  V30 7952 H 745.506 -0.65258 5.96541 0
M  V30 7953 H 746.576 0.208633 4.84451 0
M  V30 7954 N 747.919 -1.57396 -0.0801906 0
M  V30 7955 C 749.144 -1.91437 -0.797909 0
M  V30 7956 C 749.569 -0.789075 -1.70749 0
M  V30 7957 O 748.927 0.25857 -1.79447 0
M  V30 7958 C 748.975 -3.24402 -1.57467 0
M  V30 7959 O 748.079 -3.13043 -2.68473 0
M  V30 7960 H 747.42 -0.627109 -0.218243 0
M  V30 7961 H 749.95 -2.04537 -0.050949 0
M  V30 7962 H 749.96 -3.58072 -1.95571 0
M  V30 7963 H 748.635 -4.05884 -0.907229 0
M  V30 7964 H 747.212 -2.90915 -2.33287 0
M  V30 7965 N 749.397 0.351382 -1.53633 0
M  V30 7966 C 750.327 1.43688 -1.84055 0
M  V30 7967 C 751.308 1.55251 -0.695073 0
M  V30 7968 O 752.493 1.69587 -0.946257 0
M  V30 7969 C 749.623 2.80843 -2.04315 0
M  V30 7970 C 748.577 2.84094 -3.20117 0
M  V30 7971 C 747.903 4.2406 -3.25696 0
M  V30 7972 C 749.203 2.50334 -4.58399 0
M  V30 7973 H 750.897 1.18478 -2.74961 0
M  V30 7974 H 748.443 0.568509 -1.32303 0
M  V30 7975 H 750.396 3.56821 -2.2418 0
M  V30 7976 H 749.12 3.07471 -1.10132 0
M  V30 7977 H 747.779 2.10568 -3.00094 0
M  V30 7978 H 747.427 4.47785 -2.29123 0
M  V30 7979 H 747.127 4.27147 -4.03509 0
M  V30 7980 H 748.651 5.0189 -3.47762 0
M  V30 7981 H 750.065 3.16025 -4.78332 0
M  V30 7982 H 748.462 2.64717 -5.38558 0
M  V30 7983 H 749.532 1.45542 -4.62543 0
M  V30 7984 N 750.875 1.45233 0.611969 0
M  V30 7985 C 751.805 1.5641 1.73373 0
M  V30 7986 C 752.786 0.415896 1.64937 0
M  V30 7987 O 753.971 0.638478 1.83404 0
M  V30 7988 C 751.101 1.52627 3.11965 0
M  V30 7989 C 750.055 2.66119 3.35208 0
M  V30 7990 C 749.381 2.4739 4.74028 0
M  V30 7991 C 750.681 4.08157 3.25891 0
M  V30 7992 H 752.375 2.50307 1.64277 0
M  V30 7993 H 749.921 1.20467 0.788904 0
M  V30 7994 H 751.874 1.59043 3.90235 0
M  V30 7995 H 750.598 0.552564 3.21892 0
M  V30 7996 H 749.257 2.59123 2.59327 0
M  V30 7997 H 748.905 1.48168 4.80682 0
M  V30 7998 H 748.605 3.23494 4.90536 0
M  V30 7999 H 750.129 2.55653 5.54503 0
M  V30 8000 H 751.543 4.1642 3.9404 0
M  V30 8001 H 749.94 4.84617 3.5393 0
M  V30 8002 H 751.01 4.30374 2.23397 0
M  V30 8003 N 752.353 -0.854086 1.3245 0
M  V30 8004 C 753.769 -1.14238 1.11453 0
M  V30 8005 C 753.969 -2.01228 -0.10461 0
M  V30 8006 O 753.025 -2.39845 -0.789339 0
M  V30 8007 C 754.338 -1.81916 2.39431 0
M  V30 8008 C 755.886 -1.94549 2.45193 0
M  V30 8009 C 756.361 -2.65642 3.73093 0
M  V30 8010 N 757.852 -2.73167 3.74078 0
M  V30 8011 C 758.587 -3.28828 4.69744 0
M  V30 8012 N 758.083 -3.85295 5.75778 0
M  V30 8013 N 759.876 -3.26936 4.57241 0
M  V30 8014 H 752.027 -0.274786 2.10615 0
M  V30 8015 H 754.29 -0.184375 0.929898 0
M  V30 8016 H 753.996 -1.25452 3.28565 0
M  V30 8017 H 753.87 -2.82068 2.50434 0
M  V30 8018 H 756.257 -2.50172 1.56518 0
M  V30 8019 H 756.338 -0.933914 2.38142 0
M  V30 8020 H 755.982 -2.10683 4.62142 0
M  V30 8021 H 755.912 -3.6724 3.77415 0
M  V30 8022 H 758.403 -2.33108 2.97438 0
M  V30 8023 H 758.716 -4.25925 6.44832 0
M  V30 8024 H 757.061 -3.83625 5.79531 0
M  V30 8025 H 760.252 -2.8207 3.7357 0
M  V30 8026 H 760.425 -3.70014 5.31971 0
M  V30 8027 N 753.831 -1.1567 -1.07043 0
M  V30 8028 C 754.781 -0.824733 -2.12561 0
M  V30 8029 C 755.765 0.19243 -1.59745 0
M  V30 8030 O 756.957 -0.00728759 -1.76998 0
M  V30 8031 C 754.086 -0.31921 -3.41813 0
M  V30 8032 C 753.172 -1.36671 -4.01475 0
M  V30 8033 N 753.563 -2.57493 -4.35351 0
M  V30 8034 C 751.861 -1.22018 -4.28984 0
M  V30 8035 C 752.562 -3.24658 -4.82672 0
M  V30 8036 N 751.538 -2.52043 -4.81638 0
M  V30 8037 H 755.34 -1.74363 -2.3659 0
M  V30 8038 H 752.854 -1.04262 -1.24511 0
M  V30 8039 H 754.851 -0.0630216 -4.16852 0
M  V30 8040 H 753.511 0.593708 -3.19226 0
M  V30 8041 H 754.522 -2.94612 -4.25939 0
M  V30 8042 H 751.199 -0.367414 -4.1588 0
M  V30 8043 H 752.589 -4.2775 -5.1815 0
M  V30 8044 N 755.309 1.25446 -0.953992 0
M  V30 8045 C 756.534 1.97755 -0.625129 0
M  V30 8046 C 756.959 1.70437 0.795787 0
M  V30 8047 O 756.317 0.95992 1.53803 0
M  V30 8048 C 756.365 3.49463 -0.889251 0
M  V30 8049 O 755.469 4.12387 0.0322757 0
M  V30 8050 H 754.81 0.61998 -0.237742 0
M  V30 8051 H 757.34 1.59582 -1.28041 0
M  V30 8052 H 757.35 3.99772 -0.815263 0
M  V30 8053 H 756.025 3.68676 -1.92487 0
M  V30 8054 H 754.602 3.72782 -0.0938625 0
M  V30 8055 N 756.787 0.722489 1.40064 0
M  V30 8056 C 757.719 0.0349057 2.29173 0
M  V30 8057 C 758.732 -0.716571 1.46182 0
M  V30 8058 O 759.921 -0.562806 1.69395 0
M  V30 8059 C 757.021 -0.974839 3.24577 0
M  V30 8060 C 756.194 -0.287471 4.36454 0
M  V30 8061 C 755.253 -1.20356 5.12251 0
M  V30 8062 O 754.279 -0.685753 5.65054 0
M  V30 8063 N 755.481 -2.53422 5.22262 0
M  V30 8064 H 758.246 0.800058 2.88824 0
M  V30 8065 H 755.807 0.57068 1.51509 0
M  V30 8066 H 757.799 -1.59002 3.72157 0
M  V30 8067 H 756.369 -1.6413 2.66046 0
M  V30 8068 H 755.589 0.508008 3.90913 0
M  V30 8069 H 756.877 0.189382 5.08447 0
M  V30 8070 H 756.275 -2.97981 4.80857 0
M  V30 8071 H 754.832 -3.10067 5.73325 0
M  V30 8072 N 758.265 -1.50454 0.469181 0
M  V30 8073 C 759.175 -2.32248 -0.331349 0
M  V30 8074 C 760.191 -1.42548 -0.997807 0
M  V30 8075 O 761.367 -1.75602 -0.9862 0
M  V30 8076 C 758.432 -3.17171 -1.40012 0
M  V30 8077 C 757.493 -4.2269 -0.750463 0
M  V30 8078 C 756.726 -5.03554 -1.76831 0
M  V30 8079 O 756.949 -4.85469 -2.99459 0
M  V30 8080 O 755.883 -5.86767 -1.3412 0
M  V30 8081 H 759.709 -3.01821 0.337279 0
M  V30 8082 H 757.294 -1.47602 0.231066 0
M  V30 8083 H 759.176 -3.69871 -2.01924 0
M  V30 8084 H 757.851 -2.50328 -2.05226 0
M  V30 8085 H 756.758 -3.73986 -0.0924446 0
M  V30 8086 H 758.091 -4.91997 -0.14131 0
M  V30 8087 N 759.743 -0.201713 -1.56304 0
M  V30 8088 C 760.968 0.443815 -2.02596 0
M  V30 8089 C 761.393 1.53945 -1.08086 0
M  V30 8090 O 760.751 1.81182 -0.0655056 0
M  V30 8091 C 760.799 0.971066 -3.47279 0
M  V30 8092 O 759.903 2.0836 -3.55893 0
M  V30 8093 H 759.244 0.10294 -0.655972 0
M  V30 8094 H 761.774 -0.314533 -2.02168 0
M  V30 8095 H 761.784 1.28598 -3.87204 0
M  V30 8096 H 760.459 0.169048 -4.15556 0
M  V30 8097 H 759.036 1.77683 -3.27846 0
M  V30 8098 N 761.222 1.57436 0.0718424 0
M  V30 8099 C 762.17 2.04725 1.10411 0
M  V30 8100 C 763.164 0.952579 1.4008 0
M  V30 8101 O 764.37 1.13769 1.39487 0
M  V30 8102 H 760.745 0.652749 0.373393 0
M  V30 8103 H 762.716 2.90569 0.679126 0
M  V30 8104 C 761.465 2.5068 2.40946 0
M  V30 8105 H 760.788 3.34505 2.18967 0
M  V30 8106 H 762.228 2.87521 3.11621 0
M  V30 8107 C 760.687 1.38971 3.06902 0
M  V30 8108 O 761.217 0.731786 3.94978 0
M  V30 8109 N 759.423 1.13485 2.67525 0
M  V30 8110 H 758.97 1.67168 1.95991 0
M  V30 8111 H 758.928 0.389467 3.11978 0
M  V30 8112 N 762.7 -0.34323 1.53817 0
M  V30 8113 C 763.925 -1.1079 1.75329 0
M  V30 8114 C 764.35 -1.81571 0.491293 0
M  V30 8115 O 763.708 -1.72561 -0.556089 0
M  V30 8116 C 763.756 -2.09681 2.9337 0
M  V30 8117 O 762.86 -3.17207 2.63541 0
M  V30 8118 H 762.201 -0.320402 0.581583 0
M  V30 8119 H 764.731 -0.393525 2.0078 0
M  V30 8120 H 764.741 -2.52897 3.20168 0
M  V30 8121 H 763.416 -1.5756 3.84899 0
M  V30 8122 H 761.993 -2.78806 2.47632 0
M  V30 8123 N 764.178 -1.45556 -0.604258 0
M  V30 8124 C 765.108 -1.57327 -1.72541 0
M  V30 8125 C 766.089 -0.424637 -1.64714 0
M  V30 8126 O 767.274 -0.648196 -1.83063 0
M  V30 8127 C 764.404 -1.54279 -3.11152 0
M  V30 8128 C 763.358 -2.67893 -3.33792 0
M  V30 8129 C 762.684 -2.499 -4.72709 0
M  V30 8130 C 763.984 -4.0988 -3.23722 0
M  V30 8131 H 765.678 -2.51175 -1.62947 0
M  V30 8132 H 763.224 -1.20884 -0.782504 0
M  V30 8133 H 765.177 -1.6111 -3.89386 0
M  V30 8134 H 763.901 -0.569627 -3.21594 0
M  V30 8135 H 762.56 -2.60495 -2.57949 0
M  V30 8136 H 762.208 -1.50715 -4.79889 0
M  V30 8137 H 761.908 -3.26091 -4.88813 0
M  V30 8138 H 763.432 -2.5859 -5.5314 0
M  V30 8139 H 764.846 -4.18503 -3.91826 0
M  V30 8140 H 763.243 -4.86487 -3.51355 0
M  V30 8141 H 764.313 -4.31553 -2.21111 0
M  V30 8142 N 765.656 0.84705 -1.32902 0
M  V30 8143 C 766.588 1.96308 -1.18304 0
M  V30 8144 C 767.601 1.62386 -0.116082 0
M  V30 8145 O 768.79 1.74713 -0.365751 0
M  V30 8146 C 765.89 3.29556 -0.790305 0
M  V30 8147 C 765.063 3.91668 -1.94717 0
M  V30 8148 C 764.122 5.0326 -1.53674 0
M  V30 8149 O 763.148 5.22847 -2.24989 0
M  V30 8150 N 764.35 5.78852 -0.437075 0
M  V30 8151 H 767.115 2.09369 -2.14441 0
M  V30 8152 H 764.676 1.02233 -1.25539 0
M  V30 8153 H 766.668 4.01624 -0.49799 0
M  V30 8154 H 765.238 3.12497 0.0801286 0
M  V30 8155 H 764.458 3.12292 -2.40557 0
M  V30 8156 H 765.746 4.299 -2.72146 0
M  V30 8157 H 765.144 5.65484 0.156316 0
M  V30 8158 H 763.701 6.51479 -0.204399 0
M  V30 8159 N 767.134 1.16236 1.06428 0
M  V30 8160 C 768.066 0.825446 2.1382 0
M  V30 8161 C 769.079 -0.166707 1.61944 0
M  V30 8162 O 770.268 0.0578606 1.78406 0
M  V30 8163 C 767.368 0.208023 3.38261 0
M  V30 8164 C 766.541 1.23994 4.19457 0
M  V30 8165 C 765.6 0.642569 5.22262 0
M  V30 8166 O 764.626 1.31106 5.53895 0
M  V30 8167 N 765.828 -0.571327 5.77682 0
M  V30 8168 H 768.593 1.7497 2.43322 0
M  V30 8169 H 766.154 1.05951 1.22417 0
M  V30 8170 H 768.146 -0.204608 4.04182 0
M  V30 8171 H 766.716 -0.619752 3.06395 0
M  V30 8172 H 765.936 1.82879 3.49212 0
M  V30 8173 H 767.224 1.93638 4.70512 0
M  V30 8174 H 766.622 -1.13263 5.54245 0
M  V30 8175 H 765.179 -0.926187 6.45186 0
M  V30 8176 N 768.612 -1.24939 0.960631 0
M  V30 8177 C 769.544 -2.24879 0.442937 0
M  V30 8178 C 770.557 -1.56615 -0.444464 0
M  V30 8179 O 771.746 -1.76715 -0.251776 0
M  V30 8180 C 768.846 -3.36757 -0.380537 0
M  V30 8181 C 768.019 -4.34587 0.495283 0
M  V30 8182 C 767.078 -5.25502 -0.270995 0
M  V30 8183 O 766.104 -5.68227 0.332661 0
M  V30 8184 N 767.306 -5.59077 -1.56249 0
M  V30 8185 H 770.071 -2.69932 1.30218 0
M  V30 8186 H 767.632 -1.38907 0.83166 0
M  V30 8187 H 769.624 -3.94542 -0.90103 0
M  V30 8188 H 768.194 -2.91045 -1.14067 0
M  V30 8189 H 767.414 -3.75593 1.19682 0
M  V30 8190 H 768.702 -4.96925 1.09285 0
M  V30 8191 H 768.1 -5.2628 -2.07476 0
M  V30 8192 H 766.657 -6.19421 -2.02882 0
M  V30 8193 N 770.09 -0.729906 -1.39679 0
M  V30 8194 C 771.315 -0.284345 -2.05442 0
M  V30 8195 C 771.74 1.07056 -1.54663 0
M  V30 8196 O 771.098 1.67732 -0.688157 0
M  V30 8197 C 771.146 -0.290089 -3.59431 0
M  V30 8198 O 770.25 0.723978 -4.05995 0
M  V30 8199 H 769.591 -0.130311 -0.651088 0
M  V30 8200 H 772.121 -0.994403 -1.78809 0
M  V30 8201 H 772.131 -0.132712 -4.07784 0
M  V30 8202 H 770.806 -1.27877 -3.95753 0
M  V30 8203 H 769.383 0.533154 -3.69069 0
M  V30 8204 N 771.568 1.50203 -0.477153 0
M  V30 8205 C 772.814 2.03286 0.0679442 0
M  V30 8206 C 773.169 1.35227 1.36863 0
M  V30 8207 O 772.462 0.471029 1.8572 0
M  V30 8208 C 772.656 3.56127 0.301325 0
M  V30 8209 C 772.485 4.38999 -0.975188 0
M  V30 8210 C 771.255 4.81889 -1.52022 0
M  V30 8211 C 773.453 4.79013 -1.8722 0
M  V30 8212 N 771.435 5.49105 -2.74513 0
M  V30 8213 C 772.806 5.45701 -2.94296 0
M  V30 8214 C 774.861 4.60967 -1.88185 0
M  V30 8215 C 773.564 5.96255 -4.02333 0
M  V30 8216 C 775.59 5.12466 -2.95183 0
M  V30 8217 C 774.952 5.79134 -4.00977 0
M  V30 8218 H 771.051 0.78185 -0.015318 0
M  V30 8219 H 773.635 1.83646 -0.64671 0
M  V30 8220 H 771.806 3.75702 0.985021 0
M  V30 8221 H 773.538 3.95859 0.841304 0
M  V30 8222 H 770.293 4.61387 -1.06858 0
M  V30 8223 H 770.717 5.87315 -3.36734 0
M  V30 8224 H 775.359 4.0885 -1.07708 0
M  V30 8225 H 773.077 6.47406 -4.83623 0
M  V30 8226 H 776.663 5.00329 -2.96921 0
M  V30 8227 H 775.543 6.18265 -4.82409 0
M  V30 8228 N 773.046 0.209999 1.56195 0
M  V30 8229 C 774.276 -0.429373 2.02089 0
M  V30 8230 C 774.684 -1.54703 1.0892 0
M  V30 8231 O 774.027 -1.83485 0.0889535 0
M  V30 8232 C 774.089 -1.03266 3.44349 0
M  V30 8233 C 773.753 -0.0518873 4.56971 0
M  V30 8234 C 774.75 0.744249 5.14545 0
M  V30 8235 C 772.435 0.0635185 5.0226 0
M  V30 8236 C 774.429 1.64261 6.15871 0
M  V30 8237 C 772.116 0.965423 6.03426 0
M  V30 8238 C 773.114 1.75352 6.60106 0
M  V30 8239 O 772.802 2.64029 7.59305 0
M  V30 8240 H 772.534 -0.110604 0.66689 0
M  V30 8241 H 775.088 0.320436 2.02885 0
M  V30 8242 H 773.318 -1.83134 3.40586 0
M  V30 8243 H 775.007 -1.57823 3.73961 0
M  V30 8244 H 775.773 0.665476 4.80413 0
M  V30 8245 H 771.652 -0.539762 4.57829 0
M  V30 8246 H 775.196 2.25819 6.60039 0
M  V30 8247 H 771.093 1.04526 6.36981 0
M  V30 8248 H 771.861 2.57974 7.76783 0
M  V30 8249 N 774.524 -1.57472 -0.0634922 0
M  V30 8250 C 775.772 -1.87283 -0.759563 0
M  V30 8251 C 776.093 -0.803135 -1.77693 0
M  V30 8252 O 775.363 0.167293 -1.95184 0
M  V30 8253 H 773.943 -0.691106 -0.283516 0
M  V30 8254 H 776.605 -1.94864 -0.0376091 0
M  V30 8255 H 775.701 -2.85064 -1.27062 0
M  V30 8256 N 776.003 0.335068 -1.53997 0
M  V30 8257 C 777.231 1.09418 -1.756 0
M  V30 8258 C 777.646 1.82083 -0.499138 0
M  V30 8259 O 777.003 1.74646 0.529631 0
M  V30 8260 C 777.054 2.10115 -2.94166 0
M  V30 8261 O 776.775 1.40404 -4.14992 0
M  V30 8262 C 778.276 2.98336 -3.27888 0
M  V30 8263 H 775.496 0.32595 -0.586513 0
M  V30 8264 H 778.04 0.384693 -2.00849 0
M  V30 8265 H 776.195 2.76616 -2.71224 0
M  V30 8266 H 776.609 2.07743 -4.81605 0
M  V30 8267 H 778.083 3.6491 -4.1418 0
M  V30 8268 H 778.56 3.64814 -2.44556 0
M  V30 8269 H 779.166 2.37412 -3.52868 0
M  V30 8270 N 777.481 1.45874 0.596531 0
M  V30 8271 C 778.728 1.50467 1.35521 0
M  V30 8272 C 779.056 0.150802 1.93915 0
M  V30 8273 O 778.311 -0.851913 1.76184 0
M  V30 8274 C 778.61 2.54034 2.51399 0
M  V30 8275 C 778.276 3.9844 2.11085 0
M  V30 8276 C 776.938 4.37758 1.99804 0
M  V30 8277 C 779.29 4.89209 1.79788 0
M  V30 8278 C 776.618 5.65727 1.55465 0
M  V30 8279 C 778.97 6.17602 1.36931 0
M  V30 8280 C 777.634 6.5584 1.24218 0
M  V30 8281 H 776.904 0.550597 0.495907 0
M  V30 8282 H 779.551 1.79279 0.673145 0
M  V30 8283 H 777.856 2.18832 3.24992 0
M  V30 8284 H 779.553 2.54822 3.09624 0
M  V30 8285 H 776.143 3.67353 2.20794 0
M  V30 8286 H 780.327 4.59562 1.87395 0
M  V30 8287 H 775.583 5.94139 1.44253 0
M  V30 8288 H 779.757 6.87373 1.11764 0
M  V30 8289 H 777.384 7.54897 0.896353 0
M  V30 8290 N 778.959 -0.83999 1.33349 0
M  V30 8291 C 779.889 -1.965 1.26135 0
M  V30 8292 C 780.87 -1.69505 0.142152 0
M  V30 8293 O 782.055 -1.91346 0.331743 0
M  V30 8294 C 779.185 -3.32632 0.99866 0
M  V30 8295 C 778.139 -3.74021 2.08068 0
M  V30 8296 C 777.465 -5.07947 1.67014 0
M  V30 8297 C 778.765 -3.87925 3.49731 0
M  V30 8298 H 780.459 -2.02793 2.20262 0
M  V30 8299 H 778.005 -0.974297 1.06035 0
M  V30 8300 H 779.958 -4.10903 0.934696 0
M  V30 8301 H 778.682 -3.26593 0.0217759 0
M  V30 8302 H 777.341 -2.98012 2.13505 0
M  V30 8303 H 776.989 -4.98378 0.680316 0
M  V30 8304 H 776.689 -5.36611 2.39422 0
M  V30 8305 H 778.213 -5.88695 1.62082 0
M  V30 8306 H 779.627 -4.5651 3.46802 0
M  V30 8307 H 778.024 -4.28023 4.20614 0
M  V30 8308 H 779.094 -2.90407 3.88319 0
M  V30 8309 N 780.437 -1.16799 -1.0581 0
M  V30 8310 C 781.369 -0.836774 -2.13379 0
M  V30 8311 C 782.382 0.158116 -1.6203 0
M  V30 8312 O 783.571 -0.0673211 -1.78373 0
M  V30 8313 C 780.671 -0.225959 -3.38146 0
M  V30 8314 C 779.844 -1.26217 -4.18794 0
M  V30 8315 C 778.903 -0.670257 -5.21914 0
M  V30 8316 O 777.929 -1.34042 -5.53192 0
M  V30 8317 N 779.131 0.540683 -5.77977 0
M  V30 8318 H 781.896 -1.76257 -2.42391 0
M  V30 8319 H 779.457 -1.06599 -1.21853 0
M  V30 8320 H 781.449 0.18317 -4.04285 0
M  V30 8321 H 780.019 0.603494 -3.06719 0
M  V30 8322 H 779.239 -1.84729 -3.48237 0
M  V30 8323 H 780.527 -1.9613 -4.69479 0
M  V30 8324 H 779.925 1.10322 -5.54838 0
M  V30 8325 H 778.482 0.891958 -6.45668 0
M  V30 8326 N 781.915 1.24427 -0.967243 0
M  V30 8327 C 783.192 1.87831 -0.545776 0
M  V30 8328 C 783.572 1.87126 0.977099 0
M  V30 8329 O 782.92 1.34357 1.84826 0
M  V30 8330 C 783.13 3.29967 -1.13679 0
M  V30 8331 C 784.478 4.06654 -1.22139 0
M  V30 8332 O 785.502 3.39136 -1.08926 0
M  V30 8333 O 784.361 5.27455 -1.43017 0
M  V30 8334 H 781.455 0.806745 -0.181912 0
M  V30 8335 H 784.001 1.32403 -1.06148 0
M  V30 8336 H 782.773 3.24977 -2.17958 0
M  V30 8337 H 782.396 3.92969 -0.605093 0
M  V30 8338 N 783.393 0.737304 1.3929 0
M  V30 8339 C 784.323 0.113988 2.33222 0
M  V30 8340 C 785.304 -0.721695 1.54031 0
M  V30 8341 O 786.489 -0.666206 1.82415 0
M  V30 8342 C 783.619 -0.792319 3.38141 0
M  V30 8343 C 782.573 -0.0606178 4.27957 0
M  V30 8344 C 781.899 -1.08409 5.23595 0
M  V30 8345 C 783.199 1.09817 5.10625 0
M  V30 8346 H 784.893 0.898611 2.85596 0
M  V30 8347 H 782.439 0.433571 1.37318 0
M  V30 8348 H 784.392 -1.23793 4.02807 0
M  V30 8349 H 783.116 -1.60908 2.84211 0
M  V30 8350 H 781.775 0.365393 3.64775 0
M  V30 8351 H 781.423 -1.89449 4.6596 0
M  V30 8352 H 781.123 -0.599269 5.84536 0
M  V30 8353 H 782.647 -1.52936 5.91137 0
M  V30 8354 H 784.061 0.730892 5.68622 0
M  V30 8355 H 782.458 1.51278 5.80719 0
M  V30 8356 H 783.528 1.91878 4.45321 0
M  V30 8357 N 784.871 -1.49948 0.485112 0
M  V30 8358 C 785.804 -2.25531 -0.348027 0
M  V30 8359 C 786.782 -1.29433 -0.984172 0
M  V30 8360 O 787.966 -1.58687 -1.01738 0
M  V30 8361 C 785.093 -3.04225 -1.48878 0
M  V30 8362 C 784.139 -4.15355 -0.968616 0
M  V30 8363 S 784.972 -5.35347 0.127934 0
M  V30 8364 C 786.128 -6.17593 -1.01637 0
M  V30 8365 H 786.361 -2.95847 0.293529 0
M  V30 8366 H 783.894 -1.52018 0.27018 0
M  V30 8367 H 785.852 -3.50153 -2.14251 0
M  V30 8368 H 784.513 -2.33407 -2.1019 0
M  V30 8369 H 783.706 -4.69873 -1.82305 0
M  V30 8370 H 783.308 -3.71936 -0.392377 0
M  V30 8371 H 785.6 -6.49576 -1.92503 0
M  V30 8372 H 786.543 -7.0626 -0.510149 0
M  V30 8373 H 786.951 -5.49877 -1.27653 0
M  V30 8374 N 786.349 -0.21828 -1.56081 0
M  V30 8375 C 787.312 0.679633 -2.18892 0
M  V30 8376 C 788.312 1.12405 -1.14986 0
M  V30 8377 O 789.502 1.03339 -1.40238 0
M  V30 8378 C 786.634 1.93063 -2.80962 0
M  V30 8379 H 787.827 0.132066 -2.99609 0
M  V30 8380 H 785.38 0.0313374 -1.56269 0
M  V30 8381 H 786.115 2.52015 -2.04106 0
M  V30 8382 H 785.9 1.62046 -3.57048 0
M  V30 8383 H 787.39 2.57043 -3.29118 0
M  V30 8384 N 787.827 1.57504 0.0551401 0
M  V30 8385 C 789.073 1.88334 0.752216 0
M  V30 8386 C 789.406 0.812742 1.76375 0
M  V30 8387 O 788.681 -0.175198 1.93709 0
M  V30 8388 C 788.964 3.29824 1.44528 0
M  V30 8389 C 788.817 4.47553 0.449026 0
M  V30 8390 C 790.136 3.69808 2.38601 0
M  V30 8391 H 787.255 0.684973 0.271995 0
M  V30 8392 H 789.897 1.89994 0.0151895 0
M  V30 8393 H 788.047 3.28539 2.07351 0
M  V30 8394 H 789.719 4.60967 -0.175277 0
M  V30 8395 H 787.962 4.33168 -0.234162 0
M  V30 8396 H 788.633 5.43376 0.971917 0
M  V30 8397 H 791.109 3.72293 1.85842 0
M  V30 8398 H 789.985 4.69665 2.84088 0
M  V30 8399 H 790.246 3.00641 3.24141 0
M  V30 8400 N 789.305 -0.326896 1.54172 0
M  V30 8401 C 790.554 -1.06274 1.71431 0
M  V30 8402 C 790.867 -1.89282 0.493123 0
M  V30 8403 O 792.073 -2.65933 0.54699 0
M  V30 8404 C 790.529 -1.93892 3.03206 0
M  V30 8405 C 790.137 -1.16011 4.32719 0
M  V30 8406 C 791.881 -2.67232 3.29829 0
M  V30 8407 C 789.788 -2.02755 5.55558 0
M  V30 8408 H 788.718 -0.400475 0.638855 0
M  V30 8409 H 791.369 -0.321184 1.80667 0
M  V30 8410 H 789.751 -2.71933 2.87869 0
M  V30 8411 H 790.925 -0.427643 4.58811 0
M  V30 8412 H 789.24 -0.54367 4.12836 0
M  V30 8413 H 791.837 -3.32434 4.18798 0
M  V30 8414 H 792.18 -3.34692 2.47562 0
M  V30 8415 H 792.713 -1.96255 3.46018 0
M  V30 8416 H 789.452 -1.3981 6.40417 0
M  V30 8417 H 788.972 -2.73745 5.33689 0
M  V30 8418 H 790.651 -2.61419 5.91835 0
M  V30 8419 N 790.784 -1.46188 -0.588786 0
M  V30 8420 C 791.716 -1.52319 -1.71265 0
M  V30 8421 C 792.729 -0.412096 -1.57498 0
M  V30 8422 O 793.918 -0.680146 -1.65034 0
M  V30 8423 C 791.018 -1.38164 -3.09458 0
M  V30 8424 C 790.191 -2.63284 -3.49286 0
M  V30 8425 C 789.25 -2.43415 -4.66514 0
M  V30 8426 O 788.276 -3.17113 -4.72682 0
M  V30 8427 N 789.478 -1.49187 -5.61002 0
M  V30 8428 H 792.243 -2.49219 -1.66463 0
M  V30 8429 H 789.804 -1.42167 -0.774601 0
M  V30 8430 H 791.796 -1.22653 -3.85666 0
M  V30 8431 H 790.366 -0.494678 -3.08661 0
M  V30 8432 H 789.586 -2.93779 -2.62845 0
M  V30 8433 H 790.874 -3.46413 -3.7266 0
M  V30 8434 H 790.272 -0.884027 -5.5875 0
M  V30 8435 H 788.829 -1.39642 -6.36666 0
M  V30 8436 N 792.262 0.832906 -1.33792 0
M  V30 8437 C 793.225 1.92471 -1.24449 0
M  V30 8438 C 794.225 1.59981 -0.162085 0
M  V30 8439 O 795.415 1.69208 -0.414029 0
M  V30 8440 C 792.547 3.28278 -0.919044 0
M  V30 8441 H 793.74 2.0218 -2.21502 0
M  V30 8442 H 791.293 1.0257 -1.17936 0
M  V30 8443 H 792.028 3.24263 0.048738 0
M  V30 8444 H 791.813 3.53241 -1.70187 0
M  V30 8445 H 793.303 4.08253 -0.878576 0
M  V30 8446 N 793.74 1.17359 1.05189 0
M  V30 8447 C 794.97 0.985099 1.81602 0
M  V30 8448 C 795.378 -0.469872 1.83273 0
M  V30 8449 O 794.721 -1.33806 1.25864 0
M  V30 8450 C 794.783 1.44956 3.2898 0
M  V30 8451 C 794.447 2.92666 3.50993 0
M  V30 8452 C 795.444 3.906 3.43115 0
M  V30 8453 C 793.129 3.30841 3.77954 0
M  V30 8454 C 795.123 5.24709 3.61883 0
M  V30 8455 C 792.81 4.65116 3.96371 0
M  V30 8456 C 793.808 5.61859 3.88335 0
M  V30 8457 O 793.496 6.93704 4.06238 0
M  V30 8458 H 793.228 0.348731 0.579105 0
M  V30 8459 H 795.782 1.56066 1.33539 0
M  V30 8460 H 794.012 0.817559 3.77959 0
M  V30 8461 H 795.701 1.22674 3.86919 0
M  V30 8462 H 796.467 3.62453 3.22262 0
M  V30 8463 H 792.346 2.5611 3.83313 0
M  V30 8464 H 795.89 6.00205 3.55527 0
M  V30 8465 H 791.787 4.92969 4.16715 0
M  V30 8466 H 792.555 7.00443 4.23463 0
M  V30 8467 N 795.218 -1.23913 0.973828 0
M  V30 8468 C 796.465 -1.92151 0.639079 0
M  V30 8469 C 796.793 -1.76064 -0.826545 0
M  V30 8470 O 796.048 -1.11126 -1.61088 0
M  V30 8471 C 796.347 -3.4406 0.967356 0
M  V30 8472 C 796.013 -3.80321 2.42212 0
M  V30 8473 C 794.675 -3.8993 2.81971 0
M  V30 8474 C 797.027 -3.97935 3.36596 0
M  V30 8475 C 794.355 -4.14575 4.15144 0
M  V30 8476 C 796.707 -4.24079 4.69404 0
M  V30 8477 C 795.371 -4.31908 5.08932 0
M  V30 8478 H 794.641 -0.70313 0.233856 0
M  V30 8479 H 797.288 -1.47072 1.22646 0
M  V30 8480 H 795.593 -3.90667 0.297807 0
M  V30 8481 H 797.29 -3.95077 0.686654 0
M  V30 8482 H 793.88 -3.73411 2.10385 0
M  V30 8483 H 798.064 -3.89908 3.07059 0
M  V30 8484 H 793.32 -4.18858 4.45385 0
M  V30 8485 H 797.494 -4.36652 5.42502 0
M  V30 8486 H 795.121 -4.50758 6.12145 0
M  V30 8487 N 796.696 -0.74468 -1.38897 0
M  V30 8488 C 797.659 -0.11945 -2.28889 0
M  V30 8489 C 798.659 0.656942 -1.46768 0
M  V30 8490 O 799.849 0.484525 -1.67326 0
M  V30 8491 C 796.981 0.839635 -3.30398 0
M  V30 8492 H 798.174 -0.912414 -2.85683 0
M  V30 8493 H 795.727 -0.511119 -1.47707 0
M  V30 8494 H 796.462 1.6586 -2.78677 0
M  V30 8495 H 796.247 0.285432 -3.9106 0
M  V30 8496 H 797.737 1.27337 -3.97712 0
M  V30 8497 N 798.174 1.49689 -0.493057 0
M  V30 8498 C 799.414 2.04332 0.0527374 0
M  V30 8499 C 799.778 1.36522 1.35003 0
M  V30 8500 O 800.979 1.81842 1.97957 0
M  V30 8501 C 799.25 3.56782 0.210044 0
M  V30 8502 S 800.809 4.32998 0.711232 0
M  V30 8503 H 797.627 0.710978 0.00554853 0
M  V30 8504 H 800.229 1.83835 -0.665213 0
M  V30 8505 H 798.933 4.03681 -0.739566 0
M  V30 8506 H 798.464 3.81671 0.953468 0
M  V30 8507 H 800.479 4.54916 1.98156 0
M  V30 8508 N 799.652 0.226554 1.55963 0
M  V30 8509 C 800.88 -0.408507 2.02827 0
M  V30 8510 C 801.295 -1.52994 1.10627 0
M  V30 8511 O 800.652 -1.82126 0.116809 0
M  V30 8512 C 800.703 -0.93545 3.49187 0
M  V30 8513 O 800.424 0.141273 4.37872 0
M  V30 8514 C 801.925 -1.64325 4.11719 0
M  V30 8515 H 799.145 -0.099442 0.66359 0
M  V30 8516 H 801.689 0.344471 2.01578 0
M  V30 8517 H 799.844 -1.63868 3.51036 0
M  V30 8518 H 800.258 -0.25558 5.23877 0
M  V30 8519 H 801.732 -1.9639 5.15883 0
M  V30 8520 H 802.209 -2.55815 3.57009 0
M  V30 8521 H 802.815 -0.9851 4.13734 0
M  V30 8522 N 801.13 -1.57531 -0.0467866 0
M  V30 8523 C 802.377 -1.88451 -0.74112 0
M  V30 8524 C 802.705 -0.821592 -1.76296 0
M  V30 8525 O 801.96 0.179585 -1.94874 0
M  V30 8526 C 802.259 -3.26091 -1.46285 0
M  V30 8527 C 801.925 -4.47171 -0.578669 0
M  V30 8528 C 800.587 -4.80032 -0.335083 0
M  V30 8529 C 802.939 -5.2119 0.0328809 0
M  V30 8530 C 800.267 -5.84309 0.529121 0
M  V30 8531 C 802.619 -6.26383 0.884684 0
M  V30 8532 C 801.283 -6.57729 1.1379 0
M  V30 8533 H 800.553 -0.68959 -0.271195 0
M  V30 8534 H 803.2 -1.915 -0.00132378 0
M  V30 8535 H 801.505 -3.18948 -2.27551 0
M  V30 8536 H 803.202 -3.47258 -2.00532 0
M  V30 8537 H 799.792 -4.21467 -0.778666 0
M  V30 8538 H 803.976 -4.96096 -0.142375 0
M  V30 8539 H 799.232 -6.06981 0.733794 0
M  V30 8540 H 803.406 -6.82888 1.36516 0
M  V30 8541 H 801.033 -7.38355 1.80929 0
M  V30 8542 N 802.608 0.318715 -1.54344 0
M  V30 8543 C 803.556 1.41254 -1.84798 0
M  V30 8544 C 804.55 1.53325 -0.720256 0
M  V30 8545 O 805.756 1.55653 -0.903992 0
M  V30 8546 H 802.131 0.471468 -0.585851 0
M  V30 8547 H 804.102 1.12795 -2.7626 0
M  V30 8548 C 802.851 2.77395 -2.09637 0
M  V30 8549 H 802.174 2.68881 -2.95876 0
M  V30 8550 H 803.614 3.52987 -2.34896 0
M  V30 8551 C 802.073 3.24948 -0.889398 0
M  V30 8552 O 802.603 4.01573 -0.101063 0
M  V30 8553 N 800.809 2.82051 -0.699684 0
M  V30 8554 H 800.356 2.19858 -1.3424 0
M  V30 8555 H 800.314 3.1422 0.106368 0
M  V30 8556 N 804.086 1.46499 0.581025 0
M  V30 8557 C 805.016 1.60052 1.70017 0
M  V30 8558 C 805.997 0.450788 1.64018 0
M  V30 8559 O 807.182 0.677237 1.82009 0
M  V30 8560 C 804.312 1.5921 3.08658 0
M  V30 8561 C 803.266 2.73169 3.29488 0
M  V30 8562 C 802.592 2.57389 4.68674 0
M  V30 8563 C 803.892 4.14978 3.1716 0
M  V30 8564 H 805.586 2.53735 1.5893 0
M  V30 8565 H 803.132 1.22113 0.763173 0
M  V30 8566 H 805.085 1.67285 3.86773 0
M  V30 8567 H 803.809 0.620718 3.20647 0
M  V30 8568 H 802.468 2.64566 2.53773 0
M  V30 8569 H 802.116 1.58331 4.77431 0
M  V30 8570 H 801.816 3.33826 4.83564 0
M  V30 8571 H 803.34 2.67358 5.48956 0
M  V30 8572 H 804.754 4.24684 3.85119 0
M  V30 8573 H 803.151 4.92016 3.4357 0
M  V30 8574 H 804.221 4.35016 2.14218 0
M  V30 8575 N 805.565 -0.825799 1.34232 0
M  V30 8576 C 806.475 -1.9684 1.27638 0
M  V30 8577 C 807.491 -1.73018 0.184569 0
M  V30 8578 O 808.667 -1.97172 0.410525 0
M  V30 8579 C 805.732 -3.31084 1.02879 0
M  V30 8580 C 804.793 -3.67933 2.21188 0
M  V30 8581 C 804.026 -4.95772 1.976 0
M  V30 8582 O 804.249 -5.62721 0.93281 0
M  V30 8583 O 803.183 -5.30431 2.84477 0
M  V30 8584 H 807.009 -2.05346 2.23756 0
M  V30 8585 H 804.594 -0.960772 1.1441 0
M  V30 8586 H 806.476 -4.11492 0.908406 0
M  V30 8587 H 805.151 -3.23552 0.0979821 0
M  V30 8588 H 804.058 -2.87981 2.38784 0
M  V30 8589 H 805.391 -3.80147 3.12648 0
M  V30 8590 N 807.043 -1.17915 -1.04565 0
M  V30 8591 C 808.459 -0.927761 -1.29864 0
M  V30 8592 C 808.659 0.409536 -1.97294 0
M  V30 8593 O 807.715 1.14505 -2.25044 0
M  V30 8594 C 809.028 -2.08967 -2.16225 0
M  V30 8595 C 810.576 -2.12741 -2.29587 0
M  V30 8596 C 811.051 -3.28335 -3.19312 0
M  V30 8597 N 812.542 -3.28164 -3.26898 0
M  V30 8598 C 813.277 -4.14249 -3.96466 0
M  V30 8599 N 812.773 -5.10457 -4.68407 0
M  V30 8600 N 814.566 -4.02179 -3.92694 0
M  V30 8601 H 806.717 -2.03983 -0.592011 0
M  V30 8602 H 808.98 -0.891023 -0.323701 0
M  V30 8603 H 808.686 -3.05654 -1.73979 0
M  V30 8604 H 808.56 -2.04606 -3.16885 0
M  V30 8605 H 810.947 -1.16636 -2.71072 0
M  V30 8606 H 811.028 -2.21162 -1.28535 0
M  V30 8607 H 810.672 -4.2471 -2.78539 0
M  V30 8608 H 810.602 -3.17151 -4.20384 0
M  V30 8609 H 813.093 -2.58511 -2.75646 0
M  V30 8610 H 813.406 -5.72526 -5.1907 0
M  V30 8611 H 811.751 -5.14422 -4.67328 0
M  V30 8612 H 814.942 -3.26308 -3.3562 0
M  V30 8613 H 815.115 -4.69486 -4.4664 0
M  V30 8614 N 808.521 1.23394 -0.980386 0
M  V30 8615 C 809.746 1.96384 -0.666935 0
M  V30 8616 C 810.171 1.72087 0.759456 0
M  V30 8617 O 809.529 0.992328 1.51732 0
M  V30 8618 C 809.577 3.47499 -0.963177 0
M  V30 8619 O 808.681 4.12363 -0.0552051 0
M  V30 8620 H 808.022 0.614797 -0.250839 0
M  V30 8621 H 810.552 1.56831 -1.31398 0
M  V30 8622 H 810.562 3.97953 -0.899877 0
M  V30 8623 H 809.237 3.6451 -2.00264 0
M  V30 8624 H 807.814 3.72499 -0.172914 0
M  V30 8625 N 809.999 0.752036 1.385 0
M  V30 8626 C 810.931 0.0835089 2.29048 0
M  V30 8627 C 811.944 -0.685402 1.47669 0
M  V30 8628 O 813.133 -0.526748 1.70551 0
M  V30 8629 C 810.233 -0.905772 3.26572 0
M  V30 8630 C 809.406 -0.194828 4.36966 0
M  V30 8631 C 808.465 -1.09464 5.14688 0
M  V30 8632 O 807.491 -0.565743 5.66381 0
M  V30 8633 N 808.693 -2.42287 5.2752 0
M  V30 8634 H 811.458 0.861142 2.87062 0
M  V30 8635 H 809.019 0.602689 1.50264 0
M  V30 8636 H 811.011 -1.51072 3.75446 0
M  V30 8637 H 809.581 -1.58449 2.69467 0
M  V30 8638 H 808.801 0.590812 3.89747 0
M  V30 8639 H 810.089 0.297189 5.07931 0
M  V30 8640 H 809.487 -2.87715 4.8707 0
M  V30 8641 H 808.044 -2.97836 5.79773 0
M  V30 8642 N 811.477 -1.49425 0.500989 0
M  V30 8643 C 812.705 -2.06861 -0.0403443 0
M  V30 8644 C 813.12 -1.36132 -1.30819 0
M  V30 8645 O 812.477 -0.439647 -1.77125 0
M  V30 8646 C 812.528 -3.6027 -0.297902 0
M  V30 8647 O 812.249 -4.28338 0.919686 0
M  V30 8648 C 813.75 -4.34419 -0.882876 0
M  V30 8649 H 810.97 -0.670688 0.0204619 0
M  V30 8650 H 813.514 -1.92207 0.698342 0
M  V30 8651 H 811.669 -3.74627 -0.98657 0
M  V30 8652 H 812.083 -5.2004 0.682528 0
M  V30 8653 H 813.557 -5.42631 -1.01268 0
M  V30 8654 H 814.034 -3.96898 -1.88066 0
M  V30 8655 H 814.64 -4.24669 -0.231677 0
M  V30 8656 N 812.955 -0.234822 -1.55841 0
M  V30 8657 C 814.18 0.400741 -2.03492 0
M  V30 8658 C 814.605 1.51618 -1.11327 0
M  V30 8659 O 813.963 1.81002 -0.103922 0
M  V30 8660 C 814.011 0.897184 -3.49261 0
M  V30 8661 O 813.115 2.00764 -3.60233 0
M  V30 8662 H 812.456 0.0890023 -0.658008 0
M  V30 8663 H 814.986 -0.357345 -2.01455 0
M  V30 8664 H 814.996 1.20356 -3.89844 0
M  V30 8665 H 813.671 0.0808639 -4.15821 0
M  V30 8666 H 812.248 1.70689 -3.31541 0
M  V30 8667 N 814.433 1.57553 0.0384317 0
M  V30 8668 C 815.71 1.79977 0.766002 0
M  V30 8669 C 816.09 0.830625 1.94072 0
M  V30 8670 O 815.438 -0.129243 2.28134 0
M  V30 8671 C 815.648 3.27434 1.20781 0
M  V30 8672 C 816.996 3.92167 1.62758 0
M  V30 8673 O 818.02 3.31527 1.30263 0
M  V30 8674 O 816.879 4.98917 2.23035 0
M  V30 8675 H 813.973 0.739787 0.369654 0
M  V30 8676 H 816.519 1.69693 0.0159312 0
M  V30 8677 H 815.291 3.89558 0.368792 0
M  V30 8678 H 814.914 3.42571 2.01819 0
M  V30 8679 N 815.911 -0.310526 1.54511 0
M  V30 8680 C 817.136 -1.07046 1.7764 0
M  V30 8681 C 817.561 -1.80488 0.529696 0
M  V30 8682 O 816.919 -1.73702 -0.519361 0
M  V30 8683 C 816.967 -2.03411 2.97752 0
M  V30 8684 O 816.071 -3.11545 2.7021 0
M  V30 8685 H 815.412 -0.307994 0.588248 0
M  V30 8686 H 817.942 -0.350848 2.01569 0
M  V30 8687 H 817.952 -2.46048 3.2546 0
M  V30 8688 H 816.627 -1.49361 3.88155 0
M  V30 8689 H 815.204 -2.7349 2.53491 0
M  V30 8690 N 817.389 -1.46805 -0.573248 0
M  V30 8691 C 818.319 -1.60951 -1.69165 0
M  V30 8692 C 819.3 -0.45948 -1.63777 0
M  V30 8693 O 820.485 -0.68688 -1.81647 0
M  V30 8694 C 817.615 -1.60844 -3.07809 0
M  V30 8695 C 816.569 -2.74913 -3.28035 0
M  V30 8696 C 815.895 -2.59871 -4.67302 0
M  V30 8697 C 817.195 -4.16654 -3.14955 0
M  V30 8698 H 818.889 -2.54574 -1.57582 0
M  V30 8699 H 816.435 -1.22516 -0.756686 0
M  V30 8700 H 818.388 -1.69334 -3.85881 0
M  V30 8701 H 817.112 -0.637714 -3.20314 0
M  V30 8702 H 815.771 -2.65908 -2.52366 0
M  V30 8703 H 815.419 -1.60861 -4.76585 0
M  V30 8704 H 815.119 -3.36386 -4.81786 0
M  V30 8705 H 816.643 -2.70265 -5.4753 0
M  V30 8706 H 818.057 -4.26721 -3.82861 0
M  V30 8707 H 816.454 -4.93831 -3.40956 0
M  V30 8708 H 817.524 -4.36146 -2.11908 0
M  V30 8709 N 818.867 0.818669 -1.34668 0
M  V30 8710 C 819.799 1.93754 -1.22442 0
M  V30 8711 C 820.812 1.62103 -0.150501 0
M  V30 8712 O 822.001 1.73898 -0.402728 0
M  V30 8713 C 819.101 3.27806 -0.860031 0
M  V30 8714 C 818.274 3.8745 -2.02981 0
M  V30 8715 C 817.333 4.99887 -1.64314 0
M  V30 8716 O 816.359 5.17957 -2.36029 0
M  V30 8717 N 817.561 5.77795 -0.55976 0
M  V30 8718 H 820.326 2.04773 -2.18833 0
M  V30 8719 H 817.887 0.995472 -1.27679 0
M  V30 8720 H 819.879 4.00478 -0.583068 0
M  V30 8721 H 818.449 3.12597 0.0138253 0
M  V30 8722 H 817.669 3.07119 -2.47127 0
M  V30 8723 H 818.957 4.2403 -2.81204 0
M  V30 8724 H 818.355 5.65688 0.0363329 0
M  V30 8725 H 816.912 6.50899 -0.342541 0
M  V30 8726 N 820.346 1.18468 1.03938 0
M  V30 8727 C 821.592 0.982286 1.77423 0
M  V30 8728 C 821.925 -0.48679 1.88 0
M  V30 8729 O 821.2 -1.36146 1.38905 0
M  V30 8730 C 821.483 1.63929 3.20623 0
M  V30 8731 C 821.336 3.18132 3.17982 0
M  V30 8732 C 822.655 1.3536 4.18767 0
M  V30 8733 H 819.774 0.358264 0.644062 0
M  V30 8734 H 822.416 1.46154 1.21405 0
M  V30 8735 H 820.566 1.2318 3.68455 0
M  V30 8736 H 822.238 3.68024 2.78129 0
M  V30 8737 H 820.481 3.50225 2.55978 0
M  V30 8738 H 821.152 3.5924 4.19107 0
M  V30 8739 H 823.628 1.70669 3.79488 0
M  V30 8740 H 822.504 1.83896 5.17178 0
M  V30 8741 H 822.765 0.276722 4.41233 0
M  V30 8742 N 821.824 -1.22873 0.986916 0
M  V30 8743 C 823.071 -1.91462 0.659424 0
M  V30 8744 C 823.399 -1.76931 -0.807825 0
M  V30 8745 O 822.654 -1.12829 -1.59901 0
M  V30 8746 C 822.953 -3.43014 1.00379 0
M  V30 8747 C 822.619 -3.77731 2.46232 0
M  V30 8748 C 821.281 -3.86918 2.86091 0
M  V30 8749 C 823.633 -3.94343 3.40798 0
M  V30 8750 C 820.961 -4.10149 4.19518 0
M  V30 8751 C 823.313 -4.19076 4.73875 0
M  V30 8752 C 821.977 -4.26486 5.13484 0
M  V30 8753 H 821.247 -0.700611 0.2413 0
M  V30 8754 H 823.894 -1.45763 1.24199 0
M  V30 8755 H 822.199 -3.90329 0.339226 0
M  V30 8756 H 823.896 -3.94327 0.728518 0
M  V30 8757 H 820.486 -3.71159 2.14334 0
M  V30 8758 H 824.67 -3.86629 3.11178 0
M  V30 8759 H 819.926 -4.1411 4.49803 0
M  V30 8760 H 824.1 -4.30873 5.47102 0
M  V30 8761 H 821.727 -4.4424 6.16891 0
M  V30 8762 N 823.302 -0.75937 -1.38099 0
M  V30 8763 C 824.234 -0.0956547 -2.29 0
M  V30 8764 C 825.247 0.677561 -1.4803 0
M  V30 8765 O 826.436 0.517696 -1.70828 0
M  V30 8766 C 823.536 0.88844 -3.27047 0
M  V30 8767 C 822.709 0.171652 -4.37063 0
M  V30 8768 C 821.768 1.06733 -5.15262 0
M  V30 8769 O 820.794 0.535698 -5.66674 0
M  V30 8770 N 821.996 2.39486 -5.28797 0
M  V30 8771 H 824.761 -0.876354 -2.86601 0
M  V30 8772 H 822.322 -0.61065 -1.49942 0
M  V30 8773 H 824.314 1.49079 -3.76241 0
M  V30 8774 H 822.884 1.57018 -2.70304 0
M  V30 8775 H 822.104 -0.611473 -3.89429 0
M  V30 8776 H 823.392 -0.324121 -5.07767 0
M  V30 8777 H 822.79 2.85127 -4.88589 0
M  V30 8778 H 821.347 2.94758 -5.81344 0
M  V30 8779 N 824.78 1.49157 -0.508906 0
M  V30 8780 C 825.69 2.33045 0.269656 0
M  V30 8781 C 826.706 1.45143 0.959662 0
M  V30 8782 O 827.882 1.78155 0.939295 0
M  V30 8783 C 824.947 3.20772 1.31554 0
M  V30 8784 C 824.008 4.24531 0.638131 0
M  V30 8785 C 823.241 5.08065 1.63418 0
M  V30 8786 O 823.464 4.93238 2.86483 0
M  V30 8787 O 822.398 5.90117 1.18516 0
M  V30 8788 H 826.224 3.00821 -0.417183 0
M  V30 8789 H 823.809 1.46938 -0.270119 0
M  V30 8790 H 825.691 3.75095 1.92047 0
M  V30 8791 H 824.366 2.55681 1.98516 0
M  V30 8792 H 823.273 3.74099 -0.00674357 0
M  V30 8793 H 824.606 4.92199 0.0108155 0
M  V30 8794 N 826.258 0.243083 1.55714 0
M  V30 8795 C 827.221 -0.644723 2.19945 0
M  V30 8796 C 828.221 -1.10562 1.16759 0
M  V30 8797 O 829.411 -1.01095 1.41865 0
M  V30 8798 C 826.543 -1.88569 2.83997 0
M  V30 8799 H 827.736 -0.0843839 2.99781 0
M  V30 8800 H 825.289 -0.00647246 1.56299 0
M  V30 8801 H 826.024 -2.48736 2.08089 0
M  V30 8802 H 825.809 -1.56345 3.59581 0
M  V30 8803 H 827.299 -2.51774 3.33166 0
M  V30 8804 N 827.736 -1.57571 -0.0300757 0
M  V30 8805 C 828.699 -2.05468 -1.01565 0
M  V30 8806 C 829.699 -0.958628 -1.29101 0
M  V30 8807 O 830.889 -1.22228 -1.24121 0
M  V30 8808 C 828.021 -2.47077 -2.34874 0
M  V30 8809 H 829.214 -2.93797 -0.601936 0
M  V30 8810 H 826.767 -1.53828 -0.276878 0
M  V30 8811 H 827.502 -1.61901 -2.80996 0
M  V30 8812 H 827.287 -3.27097 -2.16218 0
M  V30 8813 H 828.777 -2.84564 -3.05635 0
M  V30 8814 N 829.214 0.302327 -1.54673 0
M  V30 8815 C 830.162 1.39286 -1.86285 0
M  V30 8816 C 831.156 1.52553 -0.736478 0
M  V30 8817 O 832.362 1.54686 -0.92045 0
M  V30 8818 H 828.737 0.465228 -0.590819 0
M  V30 8819 H 830.708 1.09859 -2.77441 0
M  V30 8820 C 829.457 2.75155 -2.12567 0
M  V30 8821 H 828.78 2.65728 -2.98712 0
M  V30 8822 H 830.22 3.50476 -2.38627 0
M  V30 8823 C 828.679 3.23987 -0.923813 0
M  V30 8824 O 829.209 4.01443 -0.143649 0
M  V30 8825 N 827.415 2.81293 -0.72956 0
M  V30 8826 H 826.962 2.18421 -1.36565 0
M  V30 8827 H 826.92 3.14315 0.0730351 0
M  V30 8828 N 830.692 1.47107 0.565454 0
M  V30 8829 C 831.622 1.61846 1.68309 0
M  V30 8830 C 832.603 0.468159 1.63531 0
M  V30 8831 O 833.788 0.696504 1.8128 0
M  V30 8832 C 830.918 1.62474 3.06952 0
M  V30 8833 C 829.872 2.76649 3.26572 0
M  V30 8834 C 829.198 2.62345 4.65917 0
M  V30 8835 C 830.498 4.18319 3.12741 0
M  V30 8836 H 832.192 2.55407 1.5623 0
M  V30 8837 H 829.738 1.22916 0.750179 0
M  V30 8838 H 831.691 1.71378 3.84977 0
M  V30 8839 H 830.415 0.654692 3.19971 0
M  V30 8840 H 829.074 2.67242 2.50952 0
M  V30 8841 H 828.722 1.63386 4.75725 0
M  V30 8842 H 828.422 3.38936 4.79996 0
M  V30 8843 H 829.946 2.73165 5.46089 0
M  V30 8844 H 831.36 4.28745 3.80593 0
M  V30 8845 H 829.757 4.95632 3.38333 0
M  V30 8846 H 830.827 4.37263 2.09592 0
M  V30 8847 N 832.17 -0.811516 1.35101 0
M  V30 8848 C 833.417 -1.56835 1.28098 0
M  V30 8849 C 833.745 -1.93951 -0.14597 0
M  V30 8850 O 833 -1.61173 -1.11004 0
M  V30 8851 C 833.299 -2.87121 2.1283 0
M  V30 8852 C 832.965 -2.69245 3.61688 0
M  V30 8853 C 831.627 -2.64078 4.02264 0
M  V30 8854 C 833.979 -2.52122 4.56162 0
M  V30 8855 C 831.307 -2.39724 5.3549 0
M  V30 8856 C 833.659 -2.29298 5.89581 0
M  V30 8857 C 832.323 -2.2255 6.29307 0
M  V30 8858 H 831.593 -0.5739 0.468742 0
M  V30 8859 H 834.24 -0.93806 1.66951 0
M  V30 8860 H 832.545 -3.54502 1.66841 0
M  V30 8861 H 834.242 -3.44788 2.0475 0
M  V30 8862 H 830.832 -2.74112 3.29485 0
M  V30 8863 H 835.016 -2.5513 4.25702 0
M  V30 8864 H 830.272 -2.32965 5.65276 0
M  V30 8865 H 834.446 -2.15038 6.62368 0
M  V30 8866 H 832.073 -2.0344 7.32473 0
M  V30 8867 N 833.648 -1.19017 -1.03309 0
M  V30 8868 C 834.578 -0.94772 -2.13402 0
M  V30 8869 C 835.559 0.117383 -1.69694 0
M  V30 8870 O 836.744 -0.0367733 -1.94165 0
M  V30 8871 C 833.874 -0.480977 -3.43953 0
M  V30 8872 C 832.828 -1.48743 -4.01322 0
M  V30 8873 C 832.154 -0.877924 -5.27443 0
M  V30 8874 C 833.454 -2.86642 -4.36616 0
M  V30 8875 H 835.148 -1.86846 -2.33942 0
M  V30 8876 H 832.694 -0.899781 -1.12427 0
M  V30 8877 H 834.647 -0.298677 -4.2034 0
M  V30 8878 H 833.371 0.475348 -3.23122 0
M  V30 8879 H 832.03 -1.65681 -3.27025 0
M  V30 8880 H 831.678 0.0858232 -5.02927 0
M  V30 8881 H 831.378 -1.54996 -5.66789 0
M  V30 8882 H 832.902 -0.706326 -6.06501 0
M  V30 8883 H 834.316 -2.73312 -5.03958 0
M  V30 8884 H 832.713 -3.50599 -4.87032 0
M  V30 8885 H 833.783 -3.39617 -3.46105 0
M  V30 8886 N 835.127 1.22348 -0.993418 0
M  V30 8887 C 836.404 1.86632 -0.585495 0
M  V30 8888 C 836.784 1.89156 0.937187 0
M  V30 8889 O 836.132 1.38247 1.81934 0
M  V30 8890 C 836.342 3.27481 -1.20652 0
M  V30 8891 C 837.69 4.03971 -1.30738 0
M  V30 8892 O 838.714 3.3675 -1.16096 0
M  V30 8893 O 837.573 5.24302 -1.54173 0
M  V30 8894 H 834.667 0.802704 -0.198984 0
M  V30 8895 H 837.213 1.30122 -1.08933 0
M  V30 8896 H 835.985 3.20281 -2.24802 0
M  V30 8897 H 835.608 3.91597 -0.688312 0
M  V30 8898 N 836.605 0.766683 1.37694 0
M  V30 8899 C 837.535 0.163432 2.32927 0
M  V30 8900 C 838.516 -0.688861 1.55527 0
M  V30 8901 O 839.701 -0.627363 1.83787 0
M  V30 8902 C 836.831 -0.720416 3.39746 0
M  V30 8903 C 835.785 0.0301718 4.27989 0
M  V30 8904 C 835.111 -0.972788 5.25776 0
M  V30 8905 C 836.411 1.20623 5.0818 0
M  V30 8906 H 838.105 0.958988 2.83626 0
M  V30 8907 H 835.651 0.462601 1.36367 0
M  V30 8908 H 837.604 -1.15221 4.05342 0
M  V30 8909 H 836.328 -1.54844 2.8756 0
M  V30 8910 H 834.987 0.442685 3.63917 0
M  V30 8911 H 834.635 -1.79522 4.69873 0
M  V30 8912 H 834.335 -0.475145 5.85676 0
M  V30 8913 H 835.859 -1.40362 5.94248 0
M  V30 8914 H 837.273 0.851341 5.66944 0
M  V30 8915 H 835.67 1.63561 5.7738 0
M  V30 8916 H 836.74 2.01281 4.41151 0
M  V30 8917 N 838.083 -1.48885 0.516809 0
M  V30 8918 C 839.013 -2.32241 -0.242157 0
M  V30 8919 C 839.994 -1.41258 -0.947633 0
M  V30 8920 O 841.179 -1.70156 -0.935973 0
M  V30 8921 C 838.309 -3.22151 -1.29754 0
M  V30 8922 C 837.263 -4.22053 -0.710995 0
M  V30 8923 C 836.589 -5.01007 -1.86806 0
M  V30 8924 C 837.889 -5.21388 0.30853 0
M  V30 8925 H 839.583 -2.95943 0.453651 0
M  V30 8926 H 837.129 -1.42316 0.219612 0
M  V30 8927 H 839.082 -3.79284 -1.83634 0
M  V30 8928 H 837.806 -2.56423 -2.02274 0
M  V30 8929 H 836.465 -3.66087 -0.193819 0
M  V30 8930 H 836.113 -4.31713 -2.58133 0
M  V30 8931 H 835.813 -5.68615 -1.48159 0
M  V30 8932 H 837.337 -5.60989 -2.4109 0
M  V30 8933 H 838.751 -5.73122 -0.142703 0
M  V30 8934 H 837.148 -5.96975 0.611673 0
M  V30 8935 H 838.218 -4.69329 1.21894 0
M  V30 8936 N 839.561 -0.251338 -1.55583 0
M  V30 8937 C 840.809 0.371434 -1.98657 0
M  V30 8938 C 841.13 1.58143 -1.14087 0
M  V30 8939 O 840.4 1.94607 -0.224708 0
M  V30 8940 H 838.98 0.140225 -0.733721 0
M  V30 8941 H 841.642 -0.351157 -1.9171 0
M  V30 8942 H 840.738 0.677554 -3.04657 0
M  V30 8943 N 841.039 1.57585 0.0217189 0
M  V30 8944 C 841.986 2.07036 1.02004 0
M  V30 8945 C 842.956 0.96106 1.35473 0
M  V30 8946 O 844.141 1.23211 1.45684 0
M  V30 8947 C 841.281 2.56056 2.31364 0
M  V30 8948 C 840.394 3.80805 2.03989 0
M  V30 8949 C 839.529 4.18409 3.27272 0
M  V30 8950 C 838.568 5.36055 2.95486 0
M  V30 8951 N 837.705 5.69056 4.11242 0
M  V30 8952 H 842.545 2.92073 0.591396 0
M  V30 8953 H 840.082 1.44403 0.280384 0
M  V30 8954 H 842.04 2.82548 3.06957 0
M  V30 8955 H 840.67 1.73925 2.71937 0
M  V30 8956 H 839.722 3.61354 1.1886 0
M  V30 8957 H 841.034 4.66512 1.76546 0
M  V30 8958 H 840.188 4.46068 4.11228 0
M  V30 8959 H 838.927 3.31369 3.57835 0
M  V30 8960 H 837.932 5.08142 2.09933 0
M  V30 8961 H 839.157 6.24755 2.66193 0
M  V30 8962 H 837.103 4.84974 4.41742 0
M  V30 8963 H 837.02 6.49288 3.87247 0
M  V30 8964 H 838.288 6.01295 4.96049 0
M  V30 8965 N 842.517 -0.29412 1.54831 0
M  V30 8966 C 843.447 -1.36757 1.89261 0
M  V30 8967 C 844.428 -1.52564 0.752214 0
M  V30 8968 O 845.613 -1.65958 1.00855 0
M  V30 8969 C 842.743 -2.73066 2.14597 0
M  V30 8970 C 841.697 -2.72017 3.3044 0
M  V30 8971 C 841.023 -4.11679 3.4121 0
M  V30 8972 C 842.323 -2.33149 4.67375 0
M  V30 8973 H 844.017 -1.08191 2.79169 0
M  V30 8974 H 841.563 -0.519014 1.34321 0
M  V30 8975 H 843.516 -3.48255 2.37269 0
M  V30 8976 H 842.24 -3.03172 1.21467 0
M  V30 8977 H 840.899 -1.99285 3.07703 0
M  V30 8978 H 840.547 -4.38973 2.45584 0
M  V30 8979 H 840.247 -4.11877 4.19084 0
M  V30 8980 H 841.771 -4.88637 3.6615 0
M  V30 8981 H 843.185 -2.98054 4.89731 0
M  V30 8982 H 841.582 -2.44546 5.48012 0
M  V30 8983 H 842.652 -1.28275 4.67626 0
M  V30 8984 N 843.995 -1.47404 -0.557645 0
M  V30 8985 C 844.925 -1.62736 -1.67449 0
M  V30 8986 C 845.906 -0.476824 -1.6328 0
M  V30 8987 O 847.091 -0.706108 -1.80908 0
M  V30 8988 C 844.221 -1.641 -3.06086 0
M  V30 8989 C 843.175 -2.78377 -3.25101 0
M  V30 8990 C 842.501 -2.64812 -4.6452 0
M  V30 8991 C 843.801 -4.19971 -3.10518 0
M  V30 8992 H 845.495 -2.56232 -1.54873 0
M  V30 8993 H 843.041 -1.23312 -0.743649 0
M  V30 8994 H 844.994 -1.73417 -3.84063 0
M  V30 8995 H 843.718 -0.671652 -3.19619 0
M  V30 8996 H 842.377 -2.6857 -2.49531 0
M  V30 8997 H 842.025 -1.65906 -4.74852 0
M  V30 8998 H 841.725 -3.41477 -4.78191 0
M  V30 8999 H 843.249 -2.76057 -5.44633 0
M  V30 9000 H 844.663 -4.30757 -3.78313 0
M  V30 9001 H 843.06 -4.97419 -3.35699 0
M  V30 9002 H 844.13 -4.38369 -2.0727 0
M  V30 9003 N 845.473 0.80434 -1.35529 0
M  V30 9004 C 846.436 1.89788 -1.28503 0
M  V30 9005 C 847.436 1.59601 -0.195983 0
M  V30 9006 O 848.626 1.68292 -0.449827 0
M  V30 9007 C 845.758 3.26255 -0.98847 0
M  V30 9008 H 846.951 1.97436 -2.25741 0
M  V30 9009 H 844.504 1.00046 -1.20086 0
M  V30 9010 H 845.239 3.24294 -0.0200541 0
M  V30 9011 H 845.024 3.49551 -1.77641 0
M  V30 9012 H 846.514 4.06298 -0.964975 0
M  V30 9013 N 846.951 1.19563 1.02676 0
M  V30 9014 C 847.883 0.893054 2.11086 0
M  V30 9015 C 848.896 -0.115101 1.62393 0
M  V30 9016 O 850.085 0.11459 1.78132 0
M  V30 9017 C 847.185 0.315533 3.37428 0
M  V30 9018 C 846.358 1.37276 4.153 0
M  V30 9019 C 845.417 0.808398 5.19953 0
M  V30 9020 O 844.443 1.48661 5.49444 0
M  V30 9021 N 845.645 -0.387253 5.79207 0
M  V30 9022 H 848.41 1.82622 2.37633 0
M  V30 9023 H 845.971 1.09792 1.18984 0
M  V30 9024 H 847.963 -0.0759166 4.04629 0
M  V30 9025 H 846.533 -0.521961 3.08211 0
M  V30 9026 H 845.753 1.93897 3.43217 0
M  V30 9027 H 847.041 2.08509 4.64114 0
M  V30 9028 H 846.439 -0.955725 5.57568 0
M  V30 9029 H 844.996 -0.720457 6.47806 0
M  V30 9030 N 848.429 -1.21819 0.999893 0
M  V30 9031 C 849.84 -1.72517 0.713775 0
M  V30 9032 C 850.191 -1.80505 -0.768922 0
M  V30 9033 O 849.316 -1.45611 -1.60083 0
M  V30 9034 C 849.911 -3.13321 1.28901 0
M  V30 9035 C 848.47 -3.61396 1.05212 0
M  V30 9036 C 847.617 -2.39074 1.40494 0
M  V30 9037 H 850.568 -1.07068 1.17141 0
M  V30 9038 H 850.589 -3.74535 0.671084 0
M  V30 9039 H 850.101 -3.07475 2.36814 0
M  V30 9040 H 848.202 -3.72599 -0.0100732 0
M  V30 9041 H 848.315 -4.47145 1.72042 0
M  V30 9042 H 846.679 -2.41015 0.823642 0
M  V30 9043 H 847.462 -2.35884 2.49427 0
M  V30 9044 N 849.908 -0.773975 -1.37286 0
M  V30 9045 C 851.185 -0.263942 -1.93811 0
M  V30 9046 C 851.565 1.24138 -1.70743 0
M  V30 9047 O 850.913 2.02557 -1.05749 0
M  V30 9048 C 851.123 -0.639753 -3.43086 0
M  V30 9049 C 852.471 -0.610796 -4.20184 0
M  V30 9050 O 853.495 -0.579278 -3.51458 0
M  V30 9051 O 852.354 -0.639862 -5.42741 0
M  V30 9052 H 849.448 -0.0614331 -0.824715 0
M  V30 9053 H 851.994 -0.855477 -1.46559 0
M  V30 9054 H 850.766 -1.67856 -3.53469 0
M  V30 9055 H 850.389 -0.0212827 -3.97594 0
M  V30 9056 N 851.386 1.48609 -0.524698 0
M  V30 9057 C 852.663 1.95454 0.075465 0
M  V30 9058 C 853.043 1.46682 1.51814 0
M  V30 9059 O 852.391 0.690975 2.17802 0
M  V30 9060 C 852.601 3.48981 -0.0363273 0
M  V30 9061 C 853.949 4.24414 0.125624 0
M  V30 9062 O 854.973 3.5618 0.0377239 0
M  V30 9063 O 853.832 5.45625 0.309104 0
M  V30 9064 H 850.926 0.822902 0.0822256 0
M  V30 9065 H 853.472 1.59153 -0.588921 0
M  V30 9066 H 852.244 3.77185 -1.04149 0
M  V30 9067 H 851.867 3.91963 0.667146 0
M  V30 9068 N 852.864 0.259585 1.55447 0
M  V30 9069 C 854.089 -0.368317 2.04103 0
M  V30 9070 C 854.514 -1.49827 1.13725 0
M  V30 9071 O 853.872 -1.80814 0.132705 0
M  V30 9072 C 853.92 -0.841506 3.50644 0
M  V30 9073 O 853.024 -1.95008 3.63381 0
M  V30 9074 H 852.365 -0.0785227 0.659341 0
M  V30 9075 H 854.895 0.389349 2.00861 0
M  V30 9076 H 854.905 -1.14138 3.9171 0
M  V30 9077 H 853.58 -0.0147001 4.15897 0
M  V30 9078 H 852.157 -1.65393 3.34215 0
M  V30 9079 N 854.342 -1.57594 -0.0133615 0
M  V30 9080 C 855.252 -2.10991 -1.02566 0
M  V30 9081 C 856.268 -1.05208 -1.3859 0
M  V30 9082 O 857.444 -1.37034 -1.47593 0
M  V30 9083 C 854.509 -2.59165 -2.30292 0
M  V30 9084 C 853.57 -3.79495 -2.00704 0
M  V30 9085 C 852.803 -4.25361 -3.22341 0
M  V30 9086 O 853.026 -3.70645 -4.33565 0
M  V30 9087 O 851.96 -5.17649 -3.07121 0
M  V30 9088 H 855.786 -2.97678 -0.601806 0
M  V30 9089 H 853.371 -1.47598 -0.23135 0
M  V30 9090 H 855.253 -2.90409 -3.05354 0
M  V30 9091 H 853.928 -1.75582 -2.71942 0
M  V30 9092 H 852.835 -3.53245 -1.23161 0
M  V30 9093 H 854.168 -4.64109 -1.639 0
M  V30 9094 N 855.82 0.285905 -1.54985 0
M  V30 9095 C 856.752 1.37505 -1.83371 0
M  V30 9096 C 857.765 1.46138 -0.717454 0
M  V30 9097 O 858.954 1.48186 -0.995142 0
M  V30 9098 C 856.054 2.7575 -1.97016 0
M  V30 9099 C 855.227 2.89866 -3.27561 0
M  V30 9100 C 854.286 4.08704 -3.31433 0
M  V30 9101 O 853.312 4.00073 -4.04883 0
M  V30 9102 N 854.514 5.20062 -2.57907 0
M  V30 9103 H 857.279 1.13505 -2.77375 0
M  V30 9104 H 854.84 0.476006 -1.54744 0
M  V30 9105 H 856.832 3.5352 -1.96991 0
M  V30 9106 H 855.402 2.9263 -1.09938 0
M  V30 9107 H 854.622 1.99085 -3.40234 0
M  V30 9108 H 855.91 2.96219 -4.13681 0
M  V30 9109 H 855.308 5.29958 -1.97891 0
M  V30 9110 H 853.865 5.96111 -2.63619 0
M  V30 9111 N 857.298 1.47698 0.54982 0
M  V30 9112 C 858.526 1.5833 1.33188 0
M  V30 9113 C 858.941 0.236193 1.87317 0
M  V30 9114 O 858.298 -0.77167 1.65383 0
M  V30 9115 C 858.349 2.61438 2.49664 0
M  V30 9116 O 858.07 3.9092 1.97771 0
M  V30 9117 C 859.571 2.82324 3.41772 0
M  V30 9118 H 856.791 0.53443 0.405741 0
M  V30 9119 H 859.335 1.93375 0.665309 0
M  V30 9120 H 857.49 2.29307 3.12245 0
M  V30 9121 H 857.904 4.47323 2.73866 0
M  V30 9122 H 859.378 3.58316 4.19897 0
M  V30 9123 H 859.855 1.90416 3.95776 0
M  V30 9124 H 860.461 3.15682 2.85 0
M  V30 9125 N 858.776 -0.797141 1.35954 0
M  V30 9126 C 859.706 -1.92387 1.32323 0
M  V30 9127 C 860.687 -1.68967 0.196007 0
M  V30 9128 O 861.872 -1.90193 0.39245 0
M  V30 9129 C 859.002 -3.29286 1.10398 0
M  V30 9130 C 857.956 -3.67212 2.19862 0
M  V30 9131 C 857.282 -5.02377 1.8309 0
M  V30 9132 C 858.582 -3.76602 3.61896 0
M  V30 9133 H 860.276 -1.95683 2.26602 0
M  V30 9134 H 857.822 -0.94007 1.09081 0
M  V30 9135 H 859.775 -4.07721 1.06495 0
M  V30 9136 H 858.499 -3.26358 0.125668 0
M  V30 9137 H 857.158 -2.91069 2.22878 0
M  V30 9138 H 856.806 -4.95961 0.838527 0
M  V30 9139 H 856.506 -5.28722 2.56372 0
M  V30 9140 H 858.03 -5.8324 1.80729 0
M  V30 9141 H 859.444 -4.45246 3.6115 0
M  V30 9142 H 857.841 -4.14425 4.34018 0
M  V30 9143 H 858.911 -2.77906 3.97361 0
M  V30 9144 N 860.254 -1.20106 -1.0204 0
M  V30 9145 C 861.67 -0.955099 -1.27867 0
M  V30 9146 C 861.87 0.367595 -1.98119 0
M  V30 9147 O 860.926 1.09705 -2.27423 0
M  V30 9148 C 862.239 -2.13507 -2.11744 0
M  V30 9149 C 863.787 -2.17563 -2.25023 0
M  V30 9150 C 864.262 -3.35035 -3.12275 0
M  V30 9151 N 865.753 -3.35024 -3.19864 0
M  V30 9152 C 866.488 -4.22566 -3.8759 0
M  V30 9153 N 865.984 -5.20278 -4.57474 0
M  V30 9154 N 867.777 -4.10418 -3.84075 0
M  V30 9155 H 859.928 -2.05193 -0.54861 0
M  V30 9156 H 862.191 -0.897689 -0.304728 0
M  V30 9157 H 861.897 -3.09275 -1.67456 0
M  V30 9158 H 861.771 -2.11281 -3.12474 0
M  V30 9159 H 864.158 -1.22359 -2.68537 0
M  V30 9160 H 864.239 -2.23838 -1.23815 0
M  V30 9161 H 863.883 -4.30522 -2.69468 0
M  V30 9162 H 863.813 -3.25996 -4.13563 0
M  V30 9163 H 866.304 -2.64299 -2.701 0
M  V30 9164 H 866.617 -5.83408 -5.06809 0
M  V30 9165 H 864.962 -5.24219 -4.56311 0
M  V30 9166 H 868.153 -3.33353 -3.28623 0
M  V30 9167 H 868.326 -4.78854 -4.36581 0
M  V30 9168 N 861.732 1.21287 -1.00634 0
M  V30 9169 C 863.148 1.42467 -0.719389 0
M  V30 9170 C 863.348 1.88767 0.704927 0
M  V30 9171 O 862.404 2.05004 1.47409 0
M  V30 9172 C 863.717 2.455 -1.73639 0
M  V30 9173 C 865.265 2.59281 -1.75335 0
M  V30 9174 C 865.74 3.65547 -2.75934 0
M  V30 9175 N 867.231 3.73019 -2.74611 0
M  V30 9176 C 867.966 4.54873 -3.4911 0
M  V30 9177 N 867.462 5.40614 -4.33253 0
M  V30 9178 N 869.255 4.49309 -3.37754 0
M  V30 9179 H 861.406 0.895454 -1.92602 0
M  V30 9180 H 863.669 0.455491 -0.831404 0
M  V30 9181 H 863.375 2.18455 -2.75627 0
M  V30 9182 H 863.249 3.44325 -1.54014 0
M  V30 9183 H 865.636 2.85661 -0.740377 0
M  V30 9184 H 865.717 1.60685 -1.99032 0
M  V30 9185 H 865.361 3.39911 -3.77389 0
M  V30 9186 H 865.291 4.63741 -2.49503 0
M  V30 9187 H 867.782 3.11766 -2.13565 0
M  V30 9188 H 868.095 6.0013 -4.86892 0
M  V30 9189 H 866.44 5.40151 -4.37335 0
M  V30 9190 H 869.631 3.81357 -2.71449 0
M  V30 9191 H 869.804 5.12867 -3.9607 0
M  V30 9192 N 863.21 0.781244 1.36873 0
M  V30 9193 C 864.487 0.274217 1.93668 0
M  V30 9194 C 864.867 -1.2323 1.71399 0
M  V30 9195 O 864.215 -2.01993 1.06822 0
M  V30 9196 C 864.425 0.657939 3.42742 0
M  V30 9197 C 865.773 0.63307 4.19854 0
M  V30 9198 O 866.797 0.597909 3.51146 0
M  V30 9199 O 865.656 0.668636 5.42394 0
M  V30 9200 H 862.75 0.0658059 0.824378 0
M  V30 9201 H 865.296 0.863238 1.46104 0
M  V30 9202 H 864.068 1.69728 3.52573 0
M  V30 9203 H 863.691 0.0423678 3.97577 0
M  V30 9204 N 864.689 -1.48329 0.532571 0
M  V30 9205 C 865.914 -2.074 0.00147755 0
M  V30 9206 C 866.339 -1.38615 -1.27151 0
M  V30 9207 O 865.697 -0.452949 -1.75551 0
M  V30 9208 C 865.745 -3.60029 -0.202866 0
M  V30 9209 O 864.849 -3.92327 -1.27097 0
M  V30 9210 H 864.19 -0.662777 0.0402883 0
M  V30 9211 H 866.72 -1.90701 0.741224 0
M  V30 9212 H 866.73 -4.05783 -0.424722 0
M  V30 9213 H 865.405 -4.09496 0.727033 0
M  V30 9214 H 863.982 -3.58348 -1.03156 0
M  V30 9215 N 866.167 -0.267825 -1.55308 0
M  V30 9216 C 867.097 0.616585 -2.25212 0
M  V30 9217 C 868.078 1.16472 -1.23969 0
M  V30 9218 O 869.263 1.20021 -1.52672 0
M  V30 9219 C 866.393 1.80412 -2.96764 0
M  V30 9220 C 865.347 1.38784 -4.04874 0
M  V30 9221 C 864.673 2.65789 -4.63961 0
M  V30 9222 C 865.973 0.543415 -5.19465 0
M  V30 9223 H 867.667 0.0336257 -2.99381 0
M  V30 9224 H 865.213 0.0147328 -1.43992 0
M  V30 9225 H 867.166 2.42866 -3.44375 0
M  V30 9226 H 865.89 2.4128 -2.20118 0
M  V30 9227 H 864.549 0.786541 -3.58063 0
M  V30 9228 H 864.197 3.24899 -3.83992 0
M  V30 9229 H 863.897 2.38651 -5.36954 0
M  V30 9230 H 865.421 3.29104 -5.14318 0
M  V30 9231 H 866.835 1.07277 -5.63174 0
M  V30 9232 H 865.232 0.367219 -5.98975 0
M  V30 9233 H 866.302 -0.439534 -4.82904 0
M  V30 9234 N 867.645 1.57599 0.00500368 0
M  V30 9235 C 868.578 2.03541 1.03181 0
M  V30 9236 C 869.556 0.924301 1.33774 0
M  V30 9237 O 870.74 1.19204 1.46023 0
M  V30 9238 C 867.867 2.42879 2.36067 0
M  V30 9239 C 866.913 3.64673 2.21169 0
M  V30 9240 S 867.746 5.12805 1.54243 0
M  V30 9241 C 868.902 5.55408 2.88569 0
M  V30 9242 H 869.135 2.90316 0.640598 0
M  V30 9243 H 866.668 1.52886 0.215722 0
M  V30 9244 H 868.626 2.66212 3.12476 0
M  V30 9245 H 867.287 1.56512 2.72329 0
M  V30 9246 H 866.48 3.89932 3.19326 0
M  V30 9247 H 866.082 3.41316 1.52904 0
M  V30 9248 H 868.374 5.57563 3.84876 0
M  V30 9249 H 869.317 6.55418 2.68016 0
M  V30 9250 H 869.725 4.82961 2.92249 0
M  V30 9251 N 869.123 -0.277682 1.55134 0
M  V30 9252 C 870.363 -1.01761 1.77269 0
M  V30 9253 C 870.727 -1.83668 0.559465 0
M  V30 9254 O 871.928 -2.60597 0.658972 0
M  V30 9255 C 870.199 -1.88062 3.0392 0
M  V30 9256 S 871.758 -2.68383 3.47154 0
M  V30 9257 H 868.576 -0.342816 0.622895 0
M  V30 9258 H 871.178 -0.288514 1.93359 0
M  V30 9259 H 869.882 -1.26805 3.90319 0
M  V30 9260 H 869.413 -2.65299 2.90482 0
M  V30 9261 H 871.428 -3.90567 3.06059 0
M  V30 9262 N 870.601 -1.47988 -0.541979 0
M  V30 9263 C 871.848 -1.55393 -1.29843 0
M  V30 9264 C 872.176 -0.222668 -1.93221 0
M  V30 9265 O 871.431 0.785936 -1.79225 0
M  V30 9266 C 871.73 -2.63189 -2.41798 0
M  V30 9267 C 871.396 -4.05999 -1.96151 0
M  V30 9268 C 870.058 -4.44872 -1.83419 0
M  V30 9269 C 872.41 -4.95545 -1.61507 0
M  V30 9270 C 869.738 -5.71108 -1.34361 0
M  V30 9271 C 872.09 -6.22259 -1.13915 0
M  V30 9272 C 870.754 -6.59998 -0.997911 0
M  V30 9273 H 870.024 -0.568623 -0.47513 0
M  V30 9274 H 872.671 -1.81654 -0.606142 0
M  V30 9275 H 870.976 -2.30743 -3.16647 0
M  V30 9276 H 872.673 -2.66138 -2.99953 0
M  V30 9277 H 869.263 -3.75294 -2.07008 0
M  V30 9278 H 873.447 -4.662 -1.70209 0
M  V30 9279 H 868.703 -5.99083 -1.22103 0
M  V30 9280 H 872.877 -6.91048 -0.861755 0
M  V30 9281 H 870.504 -7.57704 -0.615561 0
M  V30 9282 N 872.079 0.78992 -1.36375 0
M  V30 9283 C 873.307 1.57873 -1.3373 0
M  V30 9284 C 873.722 1.88624 0.0815544 0
M  V30 9285 O 873.079 1.50085 1.03831 0
M  V30 9286 C 873.13 2.90003 -2.15825 0
M  V30 9287 O 872.851 2.60578 -3.5218 0
M  V30 9288 C 874.352 3.84309 -2.20955 0
M  V30 9289 H 871.572 0.489685 -0.458748 0
M  V30 9290 H 874.116 0.980436 -1.79465 0
M  V30 9291 H 872.271 3.46303 -1.73646 0
M  V30 9292 H 872.685 3.4506 -3.95011 0
M  V30 9293 H 874.159 4.74081 -2.82756 0
M  V30 9294 H 874.636 4.22121 -1.21287 0
M  V30 9295 H 875.242 3.33942 -2.63368 0
M  V30 9296 N 873.557 1.20646 1.01402 0
M  V30 9297 C 874.803 1.0197 1.753 0
M  V30 9298 C 875.136 -0.446803 1.8899 0
M  V30 9299 O 874.411 -1.33169 1.41762 0
M  V30 9300 C 874.694 1.70693 3.17074 0
M  V30 9301 C 874.547 3.24805 3.11162 0
M  V30 9302 C 875.866 1.44212 4.15802 0
M  V30 9303 H 872.985 0.371844 0.636318 0
M  V30 9304 H 875.627 1.48696 1.18277 0
M  V30 9305 H 873.777 1.30968 3.65759 0
M  V30 9306 H 875.449 3.73841 2.70261 0
M  V30 9307 H 873.692 3.55576 2.48492 0
M  V30 9308 H 874.363 3.68049 4.11393 0
M  V30 9309 H 876.839 1.7868 3.75783 0
M  V30 9310 H 875.715 1.94825 5.13161 0
M  V30 9311 H 875.976 0.370252 4.40547 0
M  V30 9312 N 875.035 -1.20752 1.01276 0
M  V30 9313 C 875.965 -2.25658 0.600064 0
M  V30 9314 C 876.946 -1.65733 -0.38298 0
M  V30 9315 O 878.131 -1.92324 -0.269256 0
M  V30 9316 C 875.261 -3.47237 -0.0663197 0
M  V30 9317 C 874.215 -4.1973 0.83731 0
M  V30 9318 C 873.541 -5.34687 0.0369102 0
M  V30 9319 C 874.841 -4.76286 2.14357 0
M  V30 9320 H 876.535 -2.60432 1.477 0
M  V30 9321 H 874.081 -1.25187 0.711634 0
M  V30 9322 H 876.034 -4.19803 -0.366563 0
M  V30 9323 H 874.758 -3.11615 -0.977944 0
M  V30 9324 H 873.417 -3.49024 1.1215 0
M  V30 9325 H 873.065 -4.95309 -0.876244 0
M  V30 9326 H 872.765 -5.84119 0.63865 0
M  V30 9327 H 874.289 -6.10059 -0.256968 0
M  V30 9328 H 875.703 -5.40691 1.90595 0
M  V30 9329 H 874.1 -5.36139 2.69583 0
M  V30 9330 H 875.17 -3.9524 2.80916 0
M  V30 9331 N 876.513 -0.788492 -1.36457 0
M  V30 9332 C 877.753 -0.365855 -2.01099 0
M  V30 9333 C 878.117 1.04262 -1.61225 0
M  V30 9334 O 879.318 1.56628 -2.18451 0
M  V30 9335 C 877.589 -0.523344 -3.53548 0
M  V30 9336 S 879.148 -0.188448 -4.38395 0
M  V30 9337 H 875.966 -0.139832 -0.697114 0
M  V30 9338 H 878.568 -1.02678 -1.66365 0
M  V30 9339 H 877.272 -1.54874 -3.80055 0
M  V30 9340 H 876.803 0.153547 -3.931 0
M  V30 9341 H 878.818 1.0103 -4.85806 0
M  V30 9342 N 877.991 1.48044 -0.54043 0
M  V30 9343 C 878.901 2.33565 0.220163 0
M  V30 9344 C 879.917 1.47146 0.928659 0
M  V30 9345 O 881.093 1.80107 0.901295 0
M  V30 9346 C 878.158 3.2349 1.2472 0
M  V30 9347 C 877.219 4.25789 0.547938 0
M  V30 9348 C 876.452 5.11417 1.52605 0
M  V30 9349 O 876.675 4.99204 2.75956 0
M  V30 9350 O 875.609 5.92498 1.05972 0
M  V30 9351 H 879.435 2.99868 -0.480898 0
M  V30 9352 H 877.02 1.46332 -0.301226 0
M  V30 9353 H 878.902 3.79084 1.84047 0
M  V30 9354 H 877.577 2.59835 1.93048 0
M  V30 9355 H 876.484 3.74001 -0.0860941 0
M  V30 9356 H 877.817 4.92111 -0.0935896 0
M  V30 9357 N 879.47 0.276058 1.55163 0
M  V30 9358 C 880.433 -0.597924 2.21263 0
M  V30 9359 C 881.433 -1.0806 1.19078 0
M  V30 9360 O 882.623 -0.980626 1.43977 0
M  V30 9361 C 879.755 -1.82503 2.87933 0
M  V30 9362 H 880.948 -0.0207769 2.99893 0
M  V30 9363 H 878.501 0.0266823 1.56277 0
M  V30 9364 H 879.236 -2.44266 2.13318 0
M  V30 9365 H 879.021 -1.48683 3.62816 0
M  V30 9366 H 880.511 -2.44651 3.38431 0
M  V30 9367 N 880.948 -1.576 0.00335426 0
M  V30 9368 C 881.881 -2.04085 -1.021 0
M  V30 9369 C 882.859 -0.931382 -1.33282 0
M  V30 9370 O 884.043 -1.19976 -1.45389 0
M  V30 9371 C 881.17 -2.44128 -2.34775 0
M  V30 9372 C 880.216 -3.65841 -2.19232 0
M  V30 9373 S 881.049 -5.13616 -1.51521 0
M  V30 9374 C 882.205 -5.56931 -2.8562 0
M  V30 9375 H 882.438 -2.90652 -0.625192 0
M  V30 9376 H 879.971 -1.52998 -0.207611 0
M  V30 9377 H 881.929 -2.67866 -3.1106 0
M  V30 9378 H 880.59 -1.57954 -2.71495 0
M  V30 9379 H 879.783 -3.9162 -3.17253 0
M  V30 9380 H 879.385 -3.42122 -1.51091 0
M  V30 9381 H 881.677 -5.59596 -3.81914 0
M  V30 9382 H 882.62 -6.5683 -2.64536 0
M  V30 9383 H 883.028 -4.84504 -2.89683 0
M  V30 9384 N 882.426 0.269451 -1.5528 0
M  V30 9385 C 883.703 1.02207 -1.66773 0
M  V30 9386 C 884.083 2.04168 -0.536536 0
M  V30 9387 O 883.431 2.23761 0.462956 0
M  V30 9388 C 883.641 1.67569 -3.0614 0
M  V30 9389 C 884.989 2.18599 -3.64005 0
M  V30 9390 O 886.013 1.7755 -3.08795 0
M  V30 9391 O 884.872 2.93903 -4.60742 0
M  V30 9392 H 881.966 0.474314 -0.677462 0
M  V30 9393 H 884.512 0.265026 -1.67618 0
M  V30 9394 H 883.284 0.937029 -3.79915 0
M  V30 9395 H 882.907 2.49951 -3.09209 0
M  V30 9396 N 883.904 1.48273 0.534124 0
M  V30 9397 C 885.152 1.55771 1.28762 0
M  V30 9398 C 885.473 0.231575 1.9362 0
M  V30 9399 O 884.743 -0.746533 1.81118 0
M  V30 9400 H 883.323 0.573851 0.47823 0
M  V30 9401 H 885.985 1.84712 0.621888 0
M  V30 9402 H 885.081 2.33657 2.06908 0
M  V30 9403 N 885.382 -0.782676 1.36792 0
M  V30 9404 C 886.33 -1.91698 1.31737 0
M  V30 9405 C 887.324 -1.68118 0.207994 0
M  V30 9406 O 888.53 -1.76042 0.375393 0
M  V30 9407 H 884.905 -0.630215 0.410284 0
M  V30 9408 H 886.876 -1.93078 2.27516 0
M  V30 9409 C 885.625 -3.28816 1.13029 0
M  V30 9410 H 884.948 -3.4753 1.97643 0
M  V30 9411 H 886.388 -4.08515 1.13541 0
M  V30 9412 C 884.847 -3.36497 -0.1647 0
M  V30 9413 O 885.377 -3.84822 -1.15216 0
M  V30 9414 N 883.583 -2.89828 -0.211678 0
M  V30 9415 H 883.13 -2.50693 0.59252 0
M  V30 9416 H 883.088 -2.95349 -1.07779 0
M  V30 9417 N 886.86 -1.21182 -1.00761 0
M  V30 9418 C 888.085 -1.05411 -1.78615 0
M  V30 9419 C 888.51 0.391837 -1.83973 0
M  V30 9420 O 887.868 1.28256 -1.28141 0
M  V30 9421 C 887.916 -1.65285 -3.20489 0
M  V30 9422 O 887.02 -0.896558 -4.02536 0
M  V30 9423 H 886.361 -0.37116 -0.550578 0
M  V30 9424 H 888.891 -1.60669 -1.26676 0
M  V30 9425 H 888.901 -1.69397 -3.71172 0
M  V30 9426 H 887.576 -2.70514 -3.15904 0
M  V30 9427 H 886.153 -0.930335 -3.61108 0
M  V30 9428 N 888.338 1.20213 -1.01915 0
M  V30 9429 C 889.754 1.41696 -0.734459 0
M  V30 9430 C 889.954 1.89504 0.684867 0
M  V30 9431 O 889.01 2.06556 1.45227 0
M  V30 9432 C 890.323 2.43644 -1.76233 0
M  V30 9433 C 891.871 2.57406 -1.78076 0
M  V30 9434 C 892.346 3.626 -2.79796 0
M  V30 9435 N 893.837 3.70086 -2.78551 0
M  V30 9436 C 894.572 4.51145 -3.53915 0
M  V30 9437 N 894.068 5.35988 -4.38963 0
M  V30 9438 N 895.861 4.45702 -3.425 0
M  V30 9439 H 888.012 0.874976 -1.93541 0
M  V30 9440 H 890.275 0.446647 -0.836188 0
M  V30 9441 H 889.981 2.15519 -2.77929 0
M  V30 9442 H 889.855 3.42672 -1.57657 0
M  V30 9443 H 892.242 2.8486 -0.770634 0
M  V30 9444 H 892.323 1.58565 -2.00725 0
M  V30 9445 H 891.967 3.35889 -3.80973 0
M  V30 9446 H 891.897 4.61069 -2.54407 0
M  V30 9447 H 894.388 3.09484 -2.1686 0
M  V30 9448 H 894.701 5.94932 -4.9323 0
M  V30 9449 H 893.046 5.35482 -4.4304 0
M  V30 9450 H 896.237 3.78456 -2.75478 0
M  V30 9451 H 896.41 5.08637 -4.01487 0
M  V30 9452 N 889.816 0.795718 1.36037 0
M  V30 9453 C 890.779 0.204318 2.28287 0
M  V30 9454 C 891.779 -0.602017 1.49105 0
M  V30 9455 O 892.969 -0.422089 1.69009 0
M  V30 9456 C 890.101 -0.716431 3.33287 0
M  V30 9457 H 891.294 1.01781 2.821 0
M  V30 9458 H 888.847 0.565588 1.45708 0
M  V30 9459 H 889.582 -1.55403 2.84641 0
M  V30 9460 H 889.367 -0.140096 3.9185 0
M  V30 9461 H 890.857 -1.12488 4.02164 0
M  V30 9462 N 891.294 -1.47756 0.548274 0
M  V30 9463 C 892.543 -2.01691 0.0187961 0
M  V30 9464 C 892.856 -1.42894 -1.33569 0
M  V30 9465 O 894.062 -1.88438 -1.95457 0
M  V30 9466 C 892.518 -3.59896 -0.016847 0
M  V30 9467 C 892.126 -4.27683 1.33385 0
M  V30 9468 C 893.87 -4.21614 -0.494188 0
M  V30 9469 C 891.777 -5.7787 1.2578 0
M  V30 9470 H 890.707 -0.753993 0.00325648 0
M  V30 9471 H 893.358 -1.69838 0.694792 0
M  V30 9472 H 891.74 -3.88672 -0.758304 0
M  V30 9473 H 892.914 -4.10559 2.09232 0
M  V30 9474 H 891.229 -3.77915 1.7484 0
M  V30 9475 H 893.826 -5.3166 -0.569342 0
M  V30 9476 H 894.169 -3.88176 -1.50417 0
M  V30 9477 H 894.702 -3.97336 0.192138 0
M  V30 9478 H 891.441 -6.15912 2.2435 0
M  V30 9479 H 890.961 -5.97355 0.540997 0
M  V30 9480 H 892.64 -6.39897 0.956109 0
M  V30 9481 N 892.772 -0.284283 -1.55015 0
M  V30 9482 C 893.997 0.335799 -2.04664 0
M  V30 9483 C 894.422 1.47999 -1.16094 0
M  V30 9484 O 893.78 1.8058 -0.161454 0
M  V30 9485 C 893.828 0.785615 -3.51938 0
M  V30 9486 O 892.932 1.89202 -3.66437 0
M  V30 9487 H 892.273 0.0680233 -0.660506 0
M  V30 9488 H 894.803 -0.421255 -2.00216 0
M  V30 9489 H 894.813 1.07892 -3.93476 0
M  V30 9490 H 893.488 -0.0514675 -4.15868 0
M  V30 9491 H 892.065 1.60055 -3.36804 0
M  V30 9492 N 894.251 1.57596 -0.0117121 0
M  V30 9493 C 895.198 2.09153 0.975897 0
M  V30 9494 C 896.168 0.989579 1.33404 0
M  V30 9495 O 897.353 1.26273 1.43038 0
M  V30 9496 C 894.493 2.60906 2.2588 0
M  V30 9497 C 893.606 3.85046 1.95866 0
M  V30 9498 C 892.741 4.25257 3.18323 0
M  V30 9499 C 891.78 5.42202 2.84049 0
M  V30 9500 N 890.917 5.77651 3.99079 0
M  V30 9501 H 895.757 2.93261 0.52931 0
M  V30 9502 H 893.294 1.44965 0.249691 0
M  V30 9503 H 895.252 2.88995 3.00895 0
M  V30 9504 H 893.882 1.79654 2.68187 0
M  V30 9505 H 892.934 3.63794 1.11168 0
M  V30 9506 H 894.246 4.70151 1.66611 0
M  V30 9507 H 893.4 4.5469 4.01674 0
M  V30 9508 H 892.139 3.38884 3.50726 0
M  V30 9509 H 891.144 5.1248 1.99107 0
M  V30 9510 H 892.369 6.3026 2.52881 0
M  V30 9511 H 890.315 4.94235 4.31356 0
M  V30 9512 H 890.232 6.57356 3.73388 0
M  V30 9513 H 891.5 6.11681 4.83183 0
M  V30 9514 N 895.729 -0.261212 1.5542 0
M  V30 9515 C 896.692 -1.30645 1.8832 0
M  V30 9516 C 897.692 -1.41782 0.758588 0
M  V30 9517 O 898.882 -1.40729 1.02669 0
M  V30 9518 C 896.014 -2.6862 2.09895 0
M  V30 9519 H 897.207 -1.02698 2.81768 0
M  V30 9520 H 894.76 -0.499838 1.48092 0
M  V30 9521 H 895.495 -3.0173 1.18868 0
M  V30 9522 H 895.28 -2.61921 2.91787 0
M  V30 9523 H 896.77 -3.44121 2.36581 0
M  V30 9524 N 897.207 -1.48554 -0.526253 0
M  V30 9525 C 898.454 -1.56761 -1.28188 0
M  V30 9526 C 898.782 -0.24315 -1.92974 0
M  V30 9527 O 898.037 0.766883 -1.80048 0
M  V30 9528 C 898.336 -2.65739 -2.38993 0
M  V30 9529 C 898.002 -4.08057 -1.91834 0
M  V30 9530 C 896.664 -4.46792 -1.78691 0
M  V30 9531 C 899.016 -4.9723 -1.56242 0
M  V30 9532 C 896.344 -5.72501 -1.28296 0
M  V30 9533 C 898.696 -6.23432 -1.07309 0
M  V30 9534 C 897.36 -6.6102 -0.927853 0
M  V30 9535 H 896.63 -0.573631 -0.469072 0
M  V30 9536 H 899.277 -1.82287 -0.586842 0
M  V30 9537 H 897.582 -2.34088 -3.14181 0
M  V30 9538 H 899.279 -2.69304 -2.97113 0
M  V30 9539 H 895.869 -3.77469 -2.03016 0
M  V30 9540 H 900.053 -4.67979 -1.65255 0
M  V30 9541 H 895.309 -6.00345 -1.15742 0
M  V30 9542 H 899.483 -6.91923 -0.788412 0
M  V30 9543 H 897.11 -7.58314 -0.535162 0
M  V30 9544 N 898.685 0.775411 -1.37205 0
M  V30 9545 C 899.915 1.56219 -1.352 0
M  V30 9546 C 900.323 1.89087 0.065456 0
M  V30 9547 O 899.666 1.51655 1.03665 0
M  V30 9548 C 899.728 2.9019 -2.12203 0
M  V30 9549 C 899.392 2.79978 -3.61195 0
M  V30 9550 C 900.389 2.51258 -4.55154 0
M  V30 9551 C 898.074 2.98115 -4.04268 0
M  V30 9552 C 900.068 2.40798 -5.90165 0
M  V30 9553 C 897.755 2.87276 -5.39366 0
M  V30 9554 C 898.753 2.58657 -6.32128 0
M  V30 9555 O 898.441 2.47838 -7.64743 0
M  V30 9556 H 898.173 0.490735 -0.464925 0
M  V30 9557 H 900.727 0.969201 -1.81096 0
M  V30 9558 H 898.957 3.51594 -1.60992 0
M  V30 9559 H 900.646 3.51561 -2.02879 0
M  V30 9560 H 901.412 2.36935 -4.23186 0
M  V30 9561 H 897.291 3.19392 -3.3243 0
M  V30 9562 H 900.835 2.18381 -6.62537 0
M  V30 9563 H 896.732 3.01166 -5.70937 0
M  V30 9564 H 897.5 2.63215 -7.75023 0
M  V30 9565 N 900.163 1.21714 1.00117 0
M  V30 9566 C 901.388 1.06357 1.78054 0
M  V30 9567 C 901.813 -0.382075 1.84179 0
M  V30 9568 O 901.171 -1.27575 1.28819 0
M  V30 9569 C 901.219 1.66982 3.19608 0
M  V30 9570 O 900.323 0.917892 4.02055 0
M  V30 9571 H 899.664 0.374074 0.548602 0
M  V30 9572 H 902.194 1.61338 1.25822 0
M  V30 9573 H 902.204 1.71363 3.70268 0
M  V30 9574 H 900.879 2.72185 3.14465 0
M  V30 9575 H 899.456 0.949473 3.6061 0
M  V30 9576 N 901.641 -1.19671 1.02551 0
M  V30 9577 C 902.866 -1.93774 0.739363 0
M  V30 9578 C 903.291 -1.74787 -0.695064 0
M  V30 9579 O 902.649 -1.04796 -1.47944 0
M  V30 9580 C 902.697 -3.43684 1.09149 0
M  V30 9581 O 901.801 -4.11874 0.208213 0
M  V30 9582 H 901.142 -0.605064 0.273484 0
M  V30 9583 H 903.672 -1.51846 1.37128 0
M  V30 9584 H 903.682 -3.94339 1.04695 0
M  V30 9585 H 902.357 -3.56826 2.13654 0
M  V30 9586 H 900.934 -3.716 0.311045 0
M  V30 9587 N 903.119 -0.802921 -1.35613 0
M  V30 9588 C 904.049 -0.225131 -2.32412 0
M  V30 9589 C 905.03 0.647383 -1.57299 0
M  V30 9590 O 906.215 0.578414 -1.85386 0
M  V30 9591 C 903.345 0.630085 -3.41537 0
M  V30 9592 C 902.299 -0.143635 -4.27759 0
M  V30 9593 C 901.625 0.833046 -5.28171 0
M  V30 9594 C 902.925 -1.34054 -5.04804 0
M  V30 9595 H 904.619 -1.03385 -2.80984 0
M  V30 9596 H 902.165 -0.498593 -1.35093 0
M  V30 9597 H 904.118 1.04433 -4.08254 0
M  V30 9598 H 902.842 1.47165 -2.91565 0
M  V30 9599 H 901.501 -0.539015 -3.62616 0
M  V30 9600 H 901.149 1.67001 -4.74468 0
M  V30 9601 H 900.849 0.319697 -5.8673 0
M  V30 9602 H 902.373 1.24558 -5.97761 0
M  V30 9603 H 903.787 -1.00136 -5.64487 0
M  V30 9604 H 902.184 -1.78812 -5.72841 0
M  V30 9605 H 903.254 -2.12906 -4.35659 0
M  V30 9606 N 904.597 1.47463 -0.556102 0
M  V30 9607 C 905.527 2.32801 0.180497 0
M  V30 9608 C 906.508 1.43721 0.909848 0
M  V30 9609 O 907.693 1.72578 0.89053 0
M  V30 9610 C 904.823 3.25478 1.21167 0
M  V30 9611 C 903.777 4.2379 0.598846 0
M  V30 9612 C 903.103 5.05783 1.73457 0
M  V30 9613 C 904.403 5.20387 -0.446659 0
M  V30 9614 H 906.097 2.94636 -0.531956 0
M  V30 9615 H 903.643 1.41683 -0.257267 0
M  V30 9616 H 905.596 3.8402 1.73513 0
M  V30 9617 H 904.32 2.61695 1.95405 0
M  V30 9618 H 902.979 3.66472 0.0966897 0
M  V30 9619 H 902.627 4.38405 2.46596 0
M  V30 9620 H 902.327 5.72343 1.33031 0
M  V30 9621 H 903.851 5.67183 2.26131 0
M  V30 9622 H 905.265 5.73299 -0.00930019 0
M  V30 9623 H 903.662 5.95143 -0.769735 0
M  V30 9624 H 904.732 4.65932 -1.34295 0
M  V30 9625 N 906.075 0.2925 1.54862 0
M  V30 9626 C 907.303 -0.322113 2.04377 0
M  V30 9627 C 907.718 -1.48164 1.17016 0
M  V30 9628 O 907.075 -1.81466 0.19395 0
M  V30 9629 C 907.126 -0.786506 3.5284 0
M  V30 9630 O 906.847 0.326863 4.36879 0
M  V30 9631 C 908.348 -1.46715 4.18318 0
M  V30 9632 H 905.568 -0.0712074 0.667211 0
M  V30 9633 H 908.112 0.429657 1.99935 0
M  V30 9634 H 906.267 -1.48832 3.5767 0
M  V30 9635 H 906.681 -0.0331558 5.2449 0
M  V30 9636 H 908.155 -1.74333 5.23748 0
M  V30 9637 H 908.632 -2.40443 3.67538 0
M  V30 9638 H 909.238 -0.808735 4.1754 0
M  V30 9639 N 907.553 -1.57587 0.0200696 0
M  V30 9640 C 908.781 -1.95718 -0.670964 0
M  V30 9641 C 909.196 -0.896081 -1.6618 0
M  V30 9642 O 908.553 0.123037 -1.82085 0
M  V30 9643 C 908.604 -3.33904 -1.38529 0
M  V30 9644 O 908.325 -4.35943 -0.434167 0
M  V30 9645 C 909.826 -3.86614 -2.16898 0
M  V30 9646 H 907.046 -0.644819 -0.185606 0
M  V30 9647 H 909.59 -2.04354 0.0771495 0
M  V30 9648 H 907.745 -3.26515 -2.08487 0
M  V30 9649 H 908.159 -5.16001 -0.940378 0
M  V30 9650 H 909.633 -4.85673 -2.62346 0
M  V30 9651 H 910.11 -3.20379 -3.00423 0
M  V30 9652 H 910.716 -3.97243 -1.51916 0
M  V30 9653 N 909.032 0.252966 -1.55557 0
M  V30 9654 C 909.964 1.33585 -1.86246 0
M  V30 9655 C 910.977 1.44584 -0.748291 0
M  V30 9656 O 912.166 1.46042 -1.02635 0
M  V30 9657 C 909.266 2.71509 -2.02821 0
M  V30 9658 C 908.439 2.82853 -3.33636 0
M  V30 9659 C 907.498 4.01581 -3.40028 0
M  V30 9660 O 906.524 3.91394 -4.13278 0
M  V30 9661 N 907.726 5.14474 -2.6888 0
M  V30 9662 H 910.491 1.07596 -2.7972 0
M  V30 9663 H 908.052 0.443075 -1.55719 0
M  V30 9664 H 910.044 3.49262 -2.04445 0
M  V30 9665 H 908.614 2.90232 -1.1612 0
M  V30 9666 H 907.834 1.91823 -3.4438 0
M  V30 9667 H 909.122 2.87378 -4.19871 0
M  V30 9668 H 908.52 5.25641 -2.09087 0
M  V30 9669 H 907.077 5.90385 -2.76204 0
M  V30 9670 N 910.51 1.48831 0.518367 0
M  V30 9671 C 911.442 1.60317 1.63802 0
M  V30 9672 C 912.455 0.486771 1.55352 0
M  V30 9673 O 913.644 0.758111 1.61601 0
M  V30 9674 C 910.744 1.52771 3.02513 0
M  V30 9675 C 909.917 2.79649 3.36326 0
M  V30 9676 C 908.976 2.65396 4.54369 0
M  V30 9677 O 908.002 3.39304 4.57013 0
M  V30 9678 N 909.204 1.75784 5.53245 0
M  V30 9679 H 911.969 2.56878 1.54383 0
M  V30 9680 H 909.53 1.45701 0.705889 0
M  V30 9681 H 911.522 1.40914 3.79375 0
M  V30 9682 H 910.092 0.641381 3.05949 0
M  V30 9683 H 909.312 3.05985 2.48529 0
M  V30 9684 H 910.6 3.63799 3.55707 0
M  V30 9685 H 909.998 1.14961 5.53896 0
M  V30 9686 H 908.555 1.69859 6.29278 0
M  V30 9687 N 911.988 -0.768124 1.37614 0
M  V30 9688 C 913.234 -1.52907 1.33219 0
M  V30 9689 C 913.567 -1.94026 -0.0821218 0
M  V30 9690 O 912.842 -1.64345 -1.04023 0
M  V30 9691 C 913.125 -2.79164 2.27463 0
M  V30 9692 C 912.978 -2.44276 3.7769 0
M  V30 9693 C 914.297 -3.81115 2.20089 0
M  V30 9694 H 911.416 -0.554712 0.485246 0
M  V30 9695 H 914.058 -0.880911 1.68345 0
M  V30 9696 H 912.208 -3.34472 1.97639 0
M  V30 9697 H 913.88 -1.94855 4.18126 0
M  V30 9698 H 912.123 -1.76925 3.96081 0
M  V30 9699 H 912.794 -3.34544 4.39072 0
M  V30 9700 H 915.27 -3.35311 2.46386 0
M  V30 9701 H 914.146 -4.67174 2.88166 0
M  V30 9702 H 914.407 -4.25644 1.19498 0
M  V30 9703 N 913.466 -1.22244 -0.994698 0
M  V30 9704 C 914.712 -1.04746 -1.73655 0
M  V30 9705 C 915.045 0.41668 -1.89677 0
M  V30 9706 O 914.32 1.30897 -1.43862 0
M  V30 9707 C 914.603 -1.75716 -3.14318 0
M  V30 9708 C 914.456 -3.29714 -3.05955 0
M  V30 9709 C 915.775 -1.50809 -4.13455 0
M  V30 9710 H 912.894 -0.381921 -0.630322 0
M  V30 9711 H 915.536 -1.50559 -1.15897 0
M  V30 9712 H 913.686 -1.3677 -3.63629 0
M  V30 9713 H 915.358 -3.78093 -2.64279 0
M  V30 9714 H 913.601 -3.59484 -2.42804 0
M  V30 9715 H 914.272 -3.74547 -4.05485 0
M  V30 9716 H 916.748 -1.84636 -3.72892 0
M  V30 9717 H 915.624 -2.02964 -5.09997 0
M  V30 9718 H 915.885 -0.440292 -4.39902 0
M  V30 9719 N 914.944 1.19125 -1.03184 0
M  V30 9720 C 915.874 2.24675 -0.635889 0
M  V30 9721 C 916.855 1.66321 0.356565 0
M  V30 9722 O 918.04 1.92728 0.238625 0
M  V30 9723 C 915.17 3.47298 0.011069 0
M  V30 9724 C 914.124 4.18345 -0.903979 0
M  V30 9725 C 913.45 5.34561 -0.12197 0
M  V30 9726 C 914.75 4.72816 -2.21907 0
M  V30 9727 H 916.444 2.5805 -1.51825 0
M  V30 9728 H 913.99 1.24039 -0.73146 0
M  V30 9729 H 915.943 4.20333 0.299729 0
M  V30 9730 H 914.667 3.13131 0.928245 0
M  V30 9731 H 913.326 3.47196 -1.17688 0
M  V30 9732 H 912.974 4.9664 0.797334 0
M  V30 9733 H 912.674 5.83029 -0.731498 0
M  V30 9734 H 914.198 6.10391 0.159881 0
M  V30 9735 H 915.612 5.3759 -1.99173 0
M  V30 9736 H 914.009 5.31782 -2.78078 0
M  V30 9737 H 915.079 3.9072 -2.87168 0
M  V30 9738 N 916.422 0.810101 1.35185 0
M  V30 9739 C 917.699 0.315235 1.93043 0
M  V30 9740 C 918.079 -1.19567 1.73974 0
M  V30 9741 O 917.427 -1.99682 1.11083 0
M  V30 9742 C 917.637 0.730492 3.41269 0
M  V30 9743 C 918.985 0.721985 4.18417 0
M  V30 9744 O 920.009 0.672258 3.49799 0
M  V30 9745 O 918.868 0.783535 5.40854 0
M  V30 9746 H 915.962 0.0832774 0.822796 0
M  V30 9747 H 918.508 0.894034 1.4424 0
M  V30 9748 H 917.28 1.77169 3.48894 0
M  V30 9749 H 916.903 0.12669 3.97398 0
M  V30 9750 N 917.9 -1.47166 0.563914 0
M  V30 9751 C 919.148 -2.02056 0.0422873 0
M  V30 9752 C 919.469 -1.43992 -1.31497 0
M  V30 9753 O 918.739 -0.617578 -1.85911 0
M  V30 9754 H 917.319 -0.746893 0.0126427 0
M  V30 9755 H 919.981 -1.80492 0.735441 0
M  V30 9756 H 919.077 -3.12073 -0.0408044 0
M  V30 9757 N 919.378 -0.300708 -1.54705 0
M  V30 9758 C 920.308 0.568675 -2.26469 0
M  V30 9759 C 921.289 1.13817 -1.26411 0
M  V30 9760 O 922.474 1.16756 -1.55183 0
M  V30 9761 C 919.604 1.74077 -3.00524 0
M  V30 9762 C 918.558 1.30165 -4.07727 0
M  V30 9763 C 917.884 2.55888 -4.69495 0
M  V30 9764 C 919.184 0.433106 -5.20501 0
M  V30 9765 H 920.878 -0.0298851 -2.99385 0
M  V30 9766 H 918.424 -0.0158135 -1.43991 0
M  V30 9767 H 920.377 2.35506 -3.49449 0
M  V30 9768 H 919.101 2.36556 -2.25186 0
M  V30 9769 H 917.76 0.710414 -3.59651 0
M  V30 9770 H 917.408 3.16681 -3.90797 0
M  V30 9771 H 917.108 2.27207 -5.41895 0
M  V30 9772 H 918.632 3.18121 -5.21183 0
M  V30 9773 H 920.046 0.95307 -5.65322 0
M  V30 9774 H 918.443 0.240085 -5.9962 0
M  V30 9775 H 919.513 -0.541866 -4.81863 0
M  V30 9776 N 920.856 1.57574 -0.0284266 0
M  V30 9777 C 921.786 2.1321 0.952039 0
M  V30 9778 C 922.767 1.04806 1.33977 0
M  V30 9779 O 923.952 1.32635 1.41851 0
M  V30 9780 C 921.082 2.65862 2.23461 0
M  V30 9781 C 920.036 3.79047 1.98765 0
M  V30 9782 C 919.362 4.18124 3.33281 0
M  V30 9783 C 920.662 5.05151 1.32739 0
M  V30 9784 H 922.356 2.95385 0.488705 0
M  V30 9785 H 919.902 1.42092 0.233628 0
M  V30 9786 H 921.855 3.03417 2.92431 0
M  V30 9787 H 920.579 1.80848 2.71959 0
M  V30 9788 H 919.238 3.41929 1.32213 0
M  V30 9789 H 918.886 3.30092 3.79537 0
M  V30 9790 H 918.586 4.94396 3.17563 0
M  V30 9791 H 920.11 4.58262 4.0352 0
M  V30 9792 H 921.524 5.40297 1.91708 0
M  V30 9793 H 919.921 5.86416 1.27421 0
M  V30 9794 H 920.991 4.83969 0.300261 0
M  V30 9795 N 922.334 -0.244713 1.55689 0
M  V30 9796 C 923.284 -1.30596 1.86892 0
M  V30 9797 C 924.268 -1.43388 0.729972 0
M  V30 9798 O 925.46 -1.46593 0.99194 0
M  V30 9799 C 922.589 -2.66099 2.16902 0
M  V30 9800 C 921.675 -2.57302 3.37129 0
M  V30 9801 N 922.066 -2.18139 4.56343 0
M  V30 9802 C 920.364 -2.88311 3.40283 0
M  V30 9803 C 921.065 -2.20028 5.38482 0
M  V30 9804 N 920.041 -2.59616 4.77599 0
M  V30 9805 H 923.843 -0.993699 2.76591 0
M  V30 9806 H 921.357 -0.453334 1.55944 0
M  V30 9807 H 923.354 -3.4269 2.37422 0
M  V30 9808 H 922.014 -2.9819 1.28502 0
M  V30 9809 H 923.025 -1.89647 4.81928 0
M  V30 9810 H 919.702 -3.24928 2.62161 0
M  V30 9811 H 921.092 -1.9207 6.43862 0
M  V30 9812 N 923.813 -1.49104 -0.510467 0
M  V30 9813 C 925.061 -1.578 -1.26268 0
M  V30 9814 C 925.382 -0.262349 -1.93227 0
M  V30 9815 O 924.652 0.717624 -1.82283 0
M  V30 9816 H 923.232 -0.581387 -0.46904 0
M  V30 9817 H 925.894 -1.85678 -0.592423 0
M  V30 9818 H 924.99 -2.36919 -2.03165 0
M  V30 9819 N 925.291 0.760815 -1.38019 0
M  V30 9820 C 926.221 1.88811 -1.37377 0
M  V30 9821 C 927.202 1.68388 -0.240737 0
M  V30 9822 O 928.387 1.89086 -0.442739 0
M  V30 9823 C 925.517 3.26244 -1.1909 0
M  V30 9824 C 924.471 3.61254 -2.29521 0
M  V30 9825 C 923.797 4.97346 -1.96345 0
M  V30 9826 C 925.097 3.66874 -3.71753 0
M  V30 9827 H 926.791 1.89606 -2.31711 0
M  V30 9828 H 924.337 0.910818 -1.11535 0
M  V30 9829 H 926.29 4.04755 -1.17267 0
M  V30 9830 H 925.014 3.2591 -0.212152 0
M  V30 9831 H 923.673 2.85057 -2.30517 0
M  V30 9832 H 923.321 4.93564 -0.969728 0
M  V30 9833 H 923.021 5.21739 -2.703 0
M  V30 9834 H 924.545 5.78244 -1.96129 0
M  V30 9835 H 925.959 4.35514 -3.72828 0
M  V30 9836 H 924.356 4.02772 -4.44853 0
M  V30 9837 H 925.426 2.67273 -4.0459 0
M  V30 9838 N 926.769 1.22769 0.988202 0
M  V30 9839 C 927.997 1.08155 1.76381 0
M  V30 9840 C 928.412 -0.367573 1.85187 0
M  V30 9841 O 927.769 -1.25455 1.32541 0
M  V30 9842 C 927.82 1.69193 3.19462 0
M  V30 9843 O 927.541 3.08437 3.11125 0
M  V30 9844 C 929.042 1.59915 4.13451 0
M  V30 9845 H 926.262 0.378908 0.553778 0
M  V30 9846 H 928.806 1.6246 1.24206 0
M  V30 9847 H 926.961 1.18939 3.6869 0
M  V30 9848 H 927.375 3.37916 4.0114 0
M  V30 9849 H 928.849 2.07339 5.1158 0
M  V30 9850 H 929.326 0.556546 4.3566 0
M  V30 9851 H 929.932 2.09497 3.70123 0
M  V30 9852 N 928.247 -1.18576 1.03814 0
M  V30 9853 C 929.493 -1.88773 0.741132 0
M  V30 9854 C 929.826 -1.79993 -0.729127 0
M  V30 9855 O 929.101 -1.19851 -1.53186 0
M  V30 9856 C 929.384 -3.39352 1.20468 0
M  V30 9857 C 929.237 -3.56955 2.73684 0
M  V30 9858 C 930.556 -4.32901 0.792741 0
M  V30 9859 H 927.675 -0.685482 0.270708 0
M  V30 9860 H 930.317 -1.39523 1.2897 0
M  V30 9861 H 928.467 -3.81427 0.737974 0
M  V30 9862 H 930.139 -3.2399 3.28372 0
M  V30 9863 H 928.382 -2.99696 3.13632 0
M  V30 9864 H 929.053 -4.62598 3.01176 0
M  V30 9865 H 931.529 -3.98592 1.1943 0
M  V30 9866 H 930.405 -5.36828 1.14486 0
M  V30 9867 H 930.666 -4.41052 -0.304295 0
M  V30 9868 N 929.725 -0.817259 -1.34754 0
M  V30 9869 C 931.136 -0.462215 -1.80888 0
M  V30 9870 C 931.487 1.01685 -1.67794 0
M  V30 9871 O 930.612 1.79094 -1.21468 0
M  V30 9872 C 931.207 -0.832204 -3.2842 0
M  V30 9873 C 929.766 -0.52961 -3.72655 0
M  V30 9874 C 928.913 -1.05214 -2.56564 0
M  V30 9875 H 931.864 -1.00795 -1.22581 0
M  V30 9876 H 931.885 -0.133804 -3.80265 0
M  V30 9877 H 931.397 -1.90873 -3.37919 0
M  V30 9878 H 929.498 0.537743 -3.68699 0
M  V30 9879 H 929.611 -1.06971 -4.67005 0
M  V30 9880 H 927.975 -0.473949 -2.50251 0
M  V30 9881 H 928.758 -2.135 -2.68836 0
M  V30 9882 N 931.203 1.46865 -0.571711 0
M  V30 9883 C 932.135 2.28277 0.205479 0
M  V30 9884 C 933.148 1.37866 0.865835 0
M  V30 9885 O 934.337 1.62564 0.737247 0
M  V30 9886 C 931.437 3.12572 1.30965 0
M  V30 9887 C 930.61 4.31038 0.743328 0
M  V30 9888 C 929.669 4.96815 1.73382 0
M  V30 9889 O 928.695 5.54755 1.2742 0
M  V30 9890 N 929.897 4.92825 3.06764 0
M  V30 9891 H 932.662 2.95618 -0.49294 0
M  V30 9892 H 930.223 1.56655 -0.408744 0
M  V30 9893 H 932.215 3.53442 1.97131 0
M  V30 9894 H 930.785 2.47378 1.91109 0
M  V30 9895 H 930.005 3.94084 -0.0955004 0
M  V30 9896 H 931.293 5.07632 0.344556 0
M  V30 9897 H 930.691 4.46978 3.46738 0
M  V30 9898 H 929.248 5.3767 3.68449 0
M  V30 9899 N 932.681 0.308908 1.54543 0
M  V30 9900 C 933.611 -0.556657 2.26768 0
M  V30 9901 C 934.592 -1.13145 1.27013 0
M  V30 9902 O 935.777 -1.15931 1.558 0
M  V30 9903 C 932.907 -1.72481 3.01443 0
M  V30 9904 C 931.861 -1.28001 4.08411 0
M  V30 9905 C 931.187 -2.53395 4.70845 0
M  V30 9906 C 932.487 -0.405497 5.20724 0
M  V30 9907 H 934.181 0.0457618 2.99365 0
M  V30 9908 H 931.727 0.0234495 1.43981 0
M  V30 9909 H 933.68 -2.3365 3.50693 0
M  V30 9910 H 932.404 -2.35359 2.26437 0
M  V30 9911 H 931.063 -0.69133 3.60022 0
M  V30 9912 H 930.711 -3.14604 3.92471 0
M  V30 9913 H 930.411 -2.2433 5.43093 0
M  V30 9914 H 931.935 -3.15352 5.22863 0
M  V30 9915 H 933.349 -0.923076 5.6582 0
M  V30 9916 H 931.746 -0.208282 5.99738 0
M  V30 9917 H 932.816 0.567412 4.81569 0
M  V30 9918 N 934.159 -1.57557 0.0367827 0
M  V30 9919 C 935.57 -1.79853 -0.500971 0
M  V30 9920 C 935.921 -0.947749 -1.71791 0
M  V30 9921 O 935.046 -0.160287 -2.15806 0
M  V30 9922 C 935.641 -3.26193 -0.915626 0
M  V30 9923 C 934.2 -3.49457 -1.39845 0
M  V30 9924 C 933.347 -2.74864 -0.366784 0
M  V30 9925 H 936.298 -1.56509 0.262768 0
M  V30 9926 H 936.319 -3.36324 -1.7795 0
M  V30 9927 H 935.831 -3.88089 -0.0297227 0
M  V30 9928 H 933.932 -2.92823 -2.30402 0
M  V30 9929 H 934.045 -4.58172 -1.40054 0
M  V30 9930 H 932.409 -2.4057 -0.836554 0
M  V30 9931 H 933.192 -3.39479 0.510785 0
M  V30 9932 N 935.637 0.236453 -1.55816 0
M  V30 9933 C 936.883 0.964439 -1.784 0
M  V30 9934 C 937.216 1.84573 -0.603868 0
M  V30 9935 O 936.491 1.90395 0.397473 0
M  V30 9936 C 936.774 1.81608 -3.10951 0
M  V30 9937 C 936.627 0.962283 -4.39386 0
M  V30 9938 C 937.946 2.79665 -3.39817 0
M  V30 9939 H 935.065 0.349192 -0.649026 0
M  V30 9940 H 937.707 0.234247 -1.8855 0
M  V30 9941 H 935.857 2.43864 -3.02428 0
M  V30 9942 H 937.529 0.35762 -4.59912 0
M  V30 9943 H 935.772 0.267062 -4.32977 0
M  V30 9944 H 936.443 1.59222 -5.28538 0
M  V30 9945 H 938.919 2.27546 -3.4837 0
M  V30 9946 H 937.795 3.36367 -4.33761 0
M  V30 9947 H 938.056 3.56657 -2.61244 0
M  V30 9948 N 937.115 1.49373 0.502552 0
M  V30 9949 C 938.065 1.62321 1.60112 0
M  V30 9950 C 939.049 0.47895 1.53606 0
M  V30 9951 O 940.241 0.731824 1.61162 0
M  V30 9952 C 937.37 1.69162 2.98729 0
M  V30 9953 C 936.456 2.89161 3.10237 0
M  V30 9954 N 936.847 4.13256 2.91638 0
M  V30 9955 C 935.145 2.87065 3.41335 0
M  V30 9956 C 935.846 4.93913 3.07287 0
M  V30 9957 N 934.822 4.27249 3.36094 0
M  V30 9958 H 938.624 2.55989 1.44384 0
M  V30 9959 H 936.138 1.46123 0.708644 0
M  V30 9960 H 938.135 1.76536 3.77678 0
M  V30 9961 H 936.795 0.766301 3.15528 0
M  V30 9962 H 937.806 4.4326 2.67844 0
M  V30 9963 H 934.483 2.03905 3.6432 0
M  V30 9964 H 935.873 6.02491 2.97413 0
M  V30 9965 N 938.594 -0.753485 1.38421 0
M  V30 9966 C 939.822 -1.54272 1.37868 0
M  V30 9967 C 940.237 -1.88774 -0.0315155 0
M  V30 9968 O 939.594 -1.52785 -0.998148 0
M  V30 9969 C 939.645 -2.84179 2.23438 0
M  V30 9970 O 939.366 -2.51149 3.58965 0
M  V30 9971 C 940.867 -3.78316 2.31067 0
M  V30 9972 H 938.087 -0.47735 0.47157 0
M  V30 9973 H 940.631 -0.932509 1.82001 0
M  V30 9974 H 938.786 -3.41577 1.82767 0
M  V30 9975 H 939.2 -3.34466 4.04021 0
M  V30 9976 H 940.674 -4.66418 2.95226 0
M  V30 9977 H 941.151 -4.18757 1.32436 0
M  V30 9978 H 941.757 -3.26842 2.72129 0
M  V30 9979 N 940.072 -1.23292 -0.981677 0
M  V30 9980 C 941.483 -1.05936 -1.53735 0
M  V30 9981 C 941.834 0.373695 -1.92608 0
M  V30 9982 O 940.959 1.26024 -1.75917 0
M  V30 9983 C 941.554 -1.91682 -2.79363 0
M  V30 9984 C 940.113 -1.78591 -3.31334 0
M  V30 9985 C 939.26 -1.87463 -2.04335 0
M  V30 9986 H 942.211 -1.36973 -0.801505 0
M  V30 9987 H 942.232 -1.44085 -3.52164 0
M  V30 9988 H 941.744 -2.95975 -2.51039 0
M  V30 9989 H 939.845 -0.770755 -3.64541 0
M  V30 9990 H 939.958 -2.61902 -4.01179 0
M  V30 9991 H 938.322 -1.3103 -2.18411 0
M  V30 9992 H 939.105 -2.9331 -1.78394 0
M  V30 9993 N 941.55 1.18024 -1.04442 0
M  V30 9994 C 942.482 2.21294 -0.596799 0
M  V30 9995 C 943.495 1.59305 0.33552 0
M  V30 9996 O 944.684 1.7803 0.129443 0
M  V30 9997 C 941.784 3.38578 0.147648 0
M  V30 9998 C 940.957 4.30143 -0.793484 0
M  V30 9999 C 940.016 5.2612 -0.0916561 0
M  V30 10000 O 939.042 5.64586 -0.72331 0
M  V30 10001 N 940.244 5.68512 1.17364 0
M  V30 10002 H 943.009 2.6032 -1.48504 0
M  V30 10003 H 940.57 1.32847 -0.925374 0
M  V30 10004 H 942.562 3.99812 0.627098 0
M  V30 10005 H 941.132 2.98212 0.937466 0
M  V30 10006 H 940.352 3.66456 -1.45272 0
M  V30 10007 H 941.64 4.88216 -1.43258 0
M  V30 10008 H 941.038 5.39322 1.70729 0
M  V30 10009 H 939.595 6.31925 1.5973 0
M  V30 10010 N 943.028 0.824394 1.34319 0
M  V30 10011 C 944.276 0.41235 1.97849 0
M  V30 10012 C 944.597 -1.02841 1.65677 0
M  V30 10013 O 943.867 -1.71421 0.948245 0
M  V30 10014 H 942.447 0.149486 0.73189 0
M  V30 10015 H 945.109 1.05416 1.63931 0
M  V30 10016 H 944.205 0.532557 3.07523 0
M  V30 10017 N 944.506 -1.46559 0.579492 0
M  V30 10018 C 945.469 -2.28739 -0.145371 0
M  V30 10019 C 946.469 -1.38211 -0.821854 0
M  V30 10020 O 947.659 -1.6062 -0.674302 0
M  V30 10021 C 944.791 -3.18507 -1.21515 0
M  V30 10022 H 945.984 -2.94301 0.576786 0
M  V30 10023 H 943.537 -1.52616 0.337327 0
M  V30 10024 H 944.272 -2.57685 -1.96899 0
M  V30 10025 H 944.057 -3.85157 -0.734616 0
M  V30 10026 H 945.547 -3.80369 -1.72363 0
M  V30 10027 N 945.984 -0.3171 -1.54377 0
M  V30 10028 C 947.395 0.172287 -1.85903 0
M  V30 10029 C 947.746 1.52141 -1.23885 0
M  V30 10030 O 946.871 2.0949 -0.542476 0
M  V30 10031 C 947.466 0.319392 -3.37291 0
M  V30 10032 C 946.025 0.752998 -3.68791 0
M  V30 10033 C 945.172 -0.129143 -2.76999 0
M  V30 10034 H 948.123 -0.537597 -1.49317 0
M  V30 10035 H 948.144 1.15137 -3.62662 0
M  V30 10036 H 947.656 -0.662671 -3.82401 0
M  V30 10037 H 945.757 1.74504 -3.2921 0
M  V30 10038 H 945.87 0.561228 -4.75801 0
M  V30 10039 H 944.234 0.394242 -2.5163 0
M  V30 10040 H 945.017 -1.10785 -3.24933 0
M  V30 10041 N 947.462 1.57535 -0.0451378 0
M  V30 10042 C 948.394 2.08109 0.960372 0
M  V30 10043 C 949.407 1.0077 1.27864 0
M  V30 10044 O 950.596 1.28351 1.24049 0
M  V30 10045 C 947.696 2.50414 2.28355 0
M  V30 10046 C 946.869 3.8102 2.14808 0
M  V30 10047 C 945.928 4.09702 3.30198 0
M  V30 10048 O 944.954 4.79715 3.0637 0
M  V30 10049 N 946.156 3.61138 4.54489 0
M  V30 10050 H 948.921 2.94999 0.528752 0
M  V30 10051 H 946.482 1.61283 0.141248 0
M  V30 10052 H 948.474 2.66683 3.04405 0
M  V30 10053 H 947.044 1.68805 2.63104 0
M  V30 10054 H 946.264 3.74392 1.23387 0
M  V30 10055 H 947.552 4.66559 2.02978 0
M  V30 10056 H 946.95 3.04527 4.76739 0
M  V30 10057 H 945.507 3.82656 5.27653 0
M  V30 10058 N 948.94 -0.228186 1.55939 0
M  V30 10059 C 950.186 -0.954964 1.78909 0
M  V30 10060 C 950.519 -1.8425 0.613648 0
M  V30 10061 O 949.794 -1.90604 -0.38737 0
M  V30 10062 C 950.077 -1.79957 3.1191 0
M  V30 10063 C 949.93 -0.938968 4.3989 0
M  V30 10064 C 951.249 -2.77859 3.41295 0
M  V30 10065 H 948.368 -0.345745 0.650868 0
M  V30 10066 H 951.01 -0.224244 1.88672 0
M  V30 10067 H 949.16 -2.42256 3.03717 0
M  V30 10068 H 950.832 -0.333225 4.60095 0
M  V30 10069 H 949.075 -0.244096 4.33113 0
M  V30 10070 H 949.746 -1.56416 5.29375 0
M  V30 10071 H 952.222 -2.25695 3.49572 0
M  V30 10072 H 951.098 -3.34062 4.35538 0
M  V30 10073 H 951.359 -3.55266 2.63132 0
M  V30 10074 N 950.418 -1.49637 -0.494624 0
M  V30 10075 C 951.643 -1.63431 -1.27691 0
M  V30 10076 C 952.068 -0.30813 -1.85559 0
M  V30 10077 O 951.426 0.725083 -1.66169 0
M  V30 10078 C 951.474 -2.71043 -2.3784 0
M  V30 10079 O 950.578 -2.3066 -3.41862 0
M  V30 10080 H 949.919 -0.546804 -0.376698 0
M  V30 10081 H 952.449 -1.95866 -0.591413 0
M  V30 10082 H 952.459 -2.93406 -2.83508 0
M  V30 10083 H 951.134 -3.67306 -1.95088 0
M  V30 10084 H 949.711 -2.18652 -3.02069 0
M  V30 10085 N 951.896 0.746133 -1.38819 0
M  V30 10086 C 952.828 1.86991 -1.3254 0
M  V30 10087 C 953.841 1.61077 -0.236216 0
M  V30 10088 O 955.03 1.71518 -0.494341 0
M  V30 10089 C 952.13 3.22786 -1.03258 0
M  V30 10090 C 951.303 3.76145 -2.23234 0
M  V30 10091 C 950.362 4.90474 -1.90581 0
M  V30 10092 O 949.388 5.04717 -2.63153 0
M  V30 10093 N 950.59 5.74015 -0.86525 0
M  V30 10094 H 953.355 1.92885 -2.2938 0
M  V30 10095 H 950.916 0.926392 -1.32776 0
M  V30 10096 H 952.908 3.96824 -0.794533 0
M  V30 10097 H 951.478 3.12231 -0.151895 0
M  V30 10098 H 950.698 2.93587 -2.63059 0
M  V30 10099 H 951.986 4.08528 -3.03285 0
M  V30 10100 H 951.384 5.65086 -0.263577 0
M  V30 10101 H 949.941 6.48168 -0.687087 0
M  V30 10102 N 953.375 1.23811 0.975125 0
M  V30 10103 C 954.786 1.0675 1.53171 0
M  V30 10104 C 955.137 -0.363475 1.92804 0
M  V30 10105 O 954.262 -1.25089 1.76583 0
M  V30 10106 C 954.857 1.93161 2.78342 0
M  V30 10107 C 953.416 1.80346 3.30382 0
M  V30 10108 C 952.563 1.88544 2.03338 0
M  V30 10109 H 955.514 1.37396 0.79423 0
M  V30 10110 H 955.535 1.45951 3.51395 0
M  V30 10111 H 955.047 2.97302 2.49465 0
M  V30 10112 H 953.148 0.790077 3.64127 0
M  V30 10113 H 953.261 2.64026 3.99784 0
M  V30 10114 H 951.625 1.32186 2.17713 0
M  V30 10115 H 952.408 2.94252 1.76836 0
M  V30 10116 N 954.853 -1.17469 1.05066 0
M  V30 10117 C 955.783 -2.23635 0.671552 0
M  V30 10118 C 956.764 -1.66867 -0.33006 0
M  V30 10119 O 957.949 -1.93084 -0.207933 0
M  V30 10120 C 955.079 -3.47272 0.0441845 0
M  V30 10121 C 954.033 -4.16854 0.97042 0
M  V30 10122 C 953.359 -5.34299 0.206998 0
M  V30 10123 C 954.659 -4.69225 2.29401 0
M  V30 10124 H 956.353 -2.55602 1.55911 0
M  V30 10125 H 953.899 -1.2286 0.751101 0
M  V30 10126 H 955.852 -4.20756 -0.23282 0
M  V30 10127 H 954.576 -3.14568 -0.878311 0
M  V30 10128 H 953.235 -3.4528 1.23197 0
M  V30 10129 H 952.883 -4.97846 -0.718222 0
M  V30 10130 H 952.583 -5.81792 0.82416 0
M  V30 10131 H 954.107 -6.10568 -0.0627525 0
M  V30 10132 H 955.521 -5.34353 2.077 0
M  V30 10133 H 953.918 -5.27291 2.86503 0
M  V30 10134 H 954.988 -3.86102 2.93348 0
M  V30 10135 N 956.331 -0.831506 -1.3388 0
M  V30 10136 C 957.747 -0.518349 -1.50948 0
M  V30 10137 C 957.947 0.955807 -1.77388 0
M  V30 10138 O 957.003 1.73993 -1.82983 0
M  V30 10139 C 958.316 -1.38531 -2.66889 0
M  V30 10140 C 959.864 -1.38332 -2.80772 0
M  V30 10141 C 960.339 -2.23497 -3.99766 0
M  V30 10142 N 961.83 -2.21167 -4.06988 0
M  V30 10143 C 962.565 -2.83805 -4.98239 0
M  V30 10144 N 962.061 -3.55468 -5.94655 0
M  V30 10145 N 963.854 -2.73314 -4.91178 0
M  V30 10146 H 956.005 -1.78588 -1.14978 0
M  V30 10147 H 958.268 -0.761508 -0.564633 0
M  V30 10148 H 957.974 -2.43255 -2.54007 0
M  V30 10149 H 957.848 -1.05611 -3.62114 0
M  V30 10150 H 960.235 -0.343832 -2.9309 0
M  V30 10151 H 960.316 -1.75256 -1.86331 0
M  V30 10152 H 959.96 -3.27501 -3.88208 0
M  V30 10153 H 959.89 -1.83919 -4.93438 0
M  V30 10154 H 962.381 -1.69046 -3.37982 0
M  V30 10155 H 962.694 -4.00487 -6.60931 0
M  V30 10156 H 961.039 -3.59575 -5.94753 0
M  V30 10157 H 964.23 -2.16897 -4.14817 0
M  V30 10158 H 964.403 -3.22416 -5.62096 0
M  V30 10159 N 957.809 1.4625 -0.587256 0
M  V30 10160 C 958.719 2.34147 0.145744 0
M  V30 10161 C 959.735 1.50026 0.881376 0
M  V30 10162 O 960.911 1.82884 0.843539 0
M  V30 10163 C 957.976 3.27294 1.14366 0
M  V30 10164 C 957.037 4.27317 0.412199 0
M  V30 10165 C 956.27 5.16013 1.36257 0
M  V30 10166 O 956.493 5.0773 2.59934 0
M  V30 10167 O 955.427 5.95569 0.870681 0
M  V30 10168 H 959.253 2.98187 -0.576055 0
M  V30 10169 H 956.838 1.45299 -0.347628 0
M  V30 10170 H 958.72 3.84747 1.71894 0
M  V30 10171 H 957.395 2.65845 1.84684 0
M  V30 10172 H 956.302 3.73538 -0.205036 0
M  V30 10173 H 957.635 4.91564 -0.250104 0
M  V30 10174 N 959.287 0.325282 1.54207 0
M  V30 10175 C 960.219 -0.57395 2.21897 0
M  V30 10176 C 961.232 -1.0785 1.21952 0
M  V30 10177 O 962.421 -0.991782 1.48411 0
M  V30 10178 C 959.521 -1.8005 2.87115 0
M  V30 10179 C 958.694 -1.43435 4.13213 0
M  V30 10180 C 957.753 -2.51862 4.62009 0
M  V30 10181 O 956.779 -2.15934 5.26651 0
M  V30 10182 N 957.981 -3.8282 4.36382 0
M  V30 10183 H 960.746 0.00566918 2.99699 0
M  V30 10184 H 958.307 0.148563 1.61217 0
M  V30 10185 H 960.299 -2.51981 3.16682 0
M  V30 10186 H 958.869 -2.28792 2.13009 0
M  V30 10187 H 958.089 -0.546598 3.90392 0
M  V30 10188 H 959.377 -1.16544 4.95273 0
M  V30 10189 H 958.775 -4.14807 3.84645 0
M  V30 10190 H 957.332 -4.50976 4.70599 0
M  V30 10191 N 960.765 -1.57509 0.0534917 0
M  V30 10192 C 961.99 -1.97511 -0.632794 0
M  V30 10193 C 962.415 -0.930947 -1.63447 0
M  V30 10194 O 961.773 0.105558 -1.80992 0
M  V30 10195 C 961.821 -3.3658 -1.29407 0
M  V30 10196 O 960.925 -3.3467 -2.40977 0
M  V30 10197 H 960.266 -0.643349 -0.16431 0
M  V30 10198 H 962.796 -2.04232 0.12258 0
M  V30 10199 H 962.806 -3.73359 -1.64521 0
M  V30 10200 H 961.481 -4.12113 -0.559976 0
M  V30 10201 H 960.058 -3.09639 -2.07793 0
M  V30 10202 N 962.243 0.219913 -1.56058 0
M  V30 10203 C 963.153 1.29349 -1.95719 0
M  V30 10204 C 964.169 1.5119 -0.861248 0
M  V30 10205 O 965.345 1.64289 -1.16495 0
M  V30 10206 C 962.41 2.6229 -2.26726 0
M  V30 10207 C 961.471 2.48738 -3.49897 0
M  V30 10208 C 960.704 3.75339 -3.79416 0
M  V30 10209 O 960.927 4.78427 -3.10586 0
M  V30 10210 O 959.861 3.72352 -4.72903 0
M  V30 10211 H 963.687 0.986979 -2.87215 0
M  V30 10212 H 961.272 0.42291 -1.43289 0
M  V30 10213 H 963.154 3.408 -2.47857 0
M  V30 10214 H 961.829 2.92619 -1.38404 0
M  V30 10215 H 960.736 1.68422 -3.34043 0
M  V30 10216 H 962.069 2.23347 -4.38608 0
M  V30 10217 N 963.721 1.49897 0.486681 0
M  V30 10218 C 964.998 1.50614 1.24799 0
M  V30 10219 C 965.378 0.24193 2.09709 0
M  V30 10220 O 964.726 -0.775237 2.14947 0
M  V30 10221 C 964.936 2.79318 2.09243 0
M  V30 10222 C 966.284 3.29371 2.67955 0
M  V30 10223 O 967.308 2.80533 2.19499 0
M  V30 10224 O 966.167 4.14466 3.56202 0
M  V30 10225 H 963.261 0.603447 0.565491 0
M  V30 10226 H 965.807 1.62174 0.499778 0
M  V30 10227 H 964.579 3.62812 1.46572 0
M  V30 10228 H 964.202 2.70687 2.91229 0
M  V30 10229 N 965.199 -0.738761 1.39212 0
M  V30 10230 C 966.448 -1.49368 1.35543 0
M  V30 10231 C 966.761 -1.95543 -0.0471091 0
M  V30 10232 O 967.967 -2.70714 -0.206376 0
M  V30 10233 C 966.423 -2.69882 2.381 0
M  V30 10234 C 966.031 -2.30672 3.8405 0
M  V30 10235 C 967.775 -3.47718 2.435 0
M  V30 10236 C 965.682 -3.47886 4.78256 0
M  V30 10237 H 964.612 -0.560898 0.503894 0
M  V30 10238 H 967.263 -0.806221 1.6484 0
M  V30 10239 H 965.645 -3.40684 2.01867 0
M  V30 10240 H 966.819 -1.67441 4.29302 0
M  V30 10241 H 965.134 -1.65936 3.81909 0
M  V30 10242 H 967.731 -4.34897 3.11077 0
M  V30 10243 H 968.074 -3.89919 1.45838 0
M  V30 10244 H 968.607 -2.83942 2.78606 0
M  V30 10245 H 965.346 -3.10739 5.77167 0
M  V30 10246 H 964.866 -4.10111 4.37686 0
M  V30 10247 H 966.545 -4.14271 4.96979 0
M  V30 10248 N 966.677 -1.24326 -0.968545 0
M  V30 10249 C 968.088 -1.07561 -1.52603 0
M  V30 10250 C 968.439 0.353245 -1.92994 0
M  V30 10251 O 967.564 1.24151 -1.77244 0
M  V30 10252 C 968.159 -1.94634 -2.77314 0
M  V30 10253 C 966.718 -1.82095 -3.29421 0
M  V30 10254 C 965.865 -1.8962 -2.02335 0
M  V30 10255 H 968.816 -1.37815 -0.786932 0
M  V30 10256 H 968.837 -1.47812 -3.50616 0
M  V30 10257 H 968.349 -2.98621 -2.47885 0
M  V30 10258 H 966.45 -0.809376 -3.63703 0
M  V30 10259 H 966.563 -2.66142 -3.98378 0
M  V30 10260 H 964.927 -1.33339 -2.17009 0
M  V30 10261 H 965.71 -2.95185 -1.75273 0
M  V30 10262 N 968.156 1.1691 -1.05688 0
M  V30 10263 C 969.404 1.86922 -0.768409 0
M  V30 10264 C 969.725 1.81735 0.706921 0
M  V30 10265 O 968.995 1.24671 1.51109 0
M  V30 10266 H 967.575 0.69203 -0.281253 0
M  V30 10267 H 970.237 1.41803 -1.33708 0
M  V30 10268 H 969.333 2.92528 -1.08783 0
M  V30 10269 N 969.634 0.838594 1.33437 0
M  V30 10270 C 970.597 0.276843 2.27522 0
M  V30 10271 C 971.597 -0.554275 1.50945 0
M  V30 10272 O 972.787 -0.368107 1.70266 0
M  V30 10273 C 969.919 -0.610036 3.35397 0
M  V30 10274 H 971.112 1.10705 2.78719 0
M  V30 10275 H 968.665 0.611657 1.43835 0
M  V30 10276 H 969.4 -1.46269 2.89441 0
M  V30 10277 H 969.185 -0.0153615 3.92097 0
M  V30 10278 H 970.675 -0.996368 4.05539 0
M  V30 10279 N 971.112 -1.45937 0.595003 0
M  V30 10280 C 972.361 -2.01529 0.0829531 0
M  V30 10281 C 972.674 -1.47071 -1.28955 0
M  V30 10282 O 973.88 -1.94561 -1.89363 0
M  V30 10283 C 972.336 -3.59767 0.0976597 0
M  V30 10284 C 971.944 -4.23223 1.46924 0
M  V30 10285 C 973.688 -4.22972 -0.359805 0
M  V30 10286 C 971.595 -5.73576 1.44101 0
M  V30 10287 H 970.525 -0.753508 0.0272425 0
M  V30 10288 H 973.176 -1.67541 0.748473 0
M  V30 10289 H 971.558 -3.90888 -0.634268 0
M  V30 10290 H 972.732 -4.03695 2.22187 0
M  V30 10291 H 971.047 -3.72161 1.86775 0
M  V30 10292 H 973.644 -5.33202 -0.39991 0
M  V30 10293 H 973.987 -3.92765 -1.37991 0
M  V30 10294 H 974.52 -3.96523 0.31845 0
M  V30 10295 H 971.259 -6.08462 2.43831 0
M  V30 10296 H 970.779 -5.95332 0.730767 0
M  V30 10297 H 972.458 -6.36531 1.1592 0
M  V30 10298 N 972.59 -0.333456 -1.54032 0
M  V30 10299 C 973.815 0.270517 -2.05628 0
M  V30 10300 C 974.24 1.44231 -1.20744 0
M  V30 10301 O 973.598 1.79975 -0.218822 0
M  V30 10302 C 973.646 0.673251 -3.54259 0
M  V30 10303 O 972.75 1.77448 -3.72271 0
M  V30 10304 H 972.091 0.0469753 -0.662336 0
M  V30 10305 H 974.621 -0.484739 -1.98775 0
M  V30 10306 H 974.631 0.953194 -3.96709 0
M  V30 10307 H 973.306 -0.183747 -4.15494 0
M  V30 10308 H 971.883 1.49259 -3.41725 0
M  V30 10309 N 974.068 1.57479 -0.061844 0
M  V30 10310 C 975.293 1.97843 0.622311 0
M  V30 10311 C 975.718 0.939602 1.62951 0
M  V30 10312 O 975.076 -0.095958 1.81046 0
M  V30 10313 C 975.124 3.37262 1.2762 0
M  V30 10314 O 974.228 3.35943 2.39199 0
M  V30 10315 H 973.569 0.644212 0.160896 0
M  V30 10316 H 976.099 2.04165 -0.133409 0
M  V30 10317 H 976.109 3.74226 1.62539 0
M  V30 10318 H 974.784 4.12404 0.538112 0
M  V30 10319 H 973.361 3.10737 2.06148 0
M  V30 10320 N 975.546 -0.211634 1.56173 0
M  V30 10321 C 976.509 -1.24588 1.92381 0
M  V30 10322 C 977.509 -1.39297 0.803311 0
M  V30 10323 O 978.699 -1.37392 1.07094 0
M  V30 10324 C 975.831 -2.61807 2.18335 0
M  V30 10325 H 977.024 -0.936814 2.84893 0
M  V30 10326 H 974.577 -0.452471 1.49607 0
M  V30 10327 H 975.312 -2.97795 1.28407 0
M  V30 10328 H 975.097 -2.52506 2.99972 0
M  V30 10329 H 976.587 -3.3642 2.4741 0
M  V30 10330 N 977.024 -1.50153 -0.478725 0
M  V30 10331 C 977.954 -1.71384 -1.58587 0
M  V30 10332 C 978.935 -0.562705 -1.60523 0
M  V30 10333 O 980.12 -0.80101 -1.76911 0
M  V30 10334 C 977.25 -1.80094 -2.96957 0
M  V30 10335 C 976.204 -2.95218 -3.09888 0
M  V30 10336 C 975.53 -2.89063 -4.49829 0
M  V30 10337 C 976.83 -4.35841 -2.8782 0
M  V30 10338 H 978.524 -2.64081 -1.41073 0
M  V30 10339 H 976.07 -1.27081 -0.677239 0
M  V30 10340 H 978.023 -1.93531 -3.74331 0
M  V30 10341 H 976.747 -0.840131 -3.1561 0
M  V30 10342 H 975.406 -2.81419 -2.34944 0
M  V30 10343 H 975.054 -1.90844 -4.6539 0
M  V30 10344 H 974.754 -3.66345 -4.59418 0
M  V30 10345 H 976.278 -3.04539 -5.29234 0
M  V30 10346 H 977.692 -4.50205 -3.54948 0
M  V30 10347 H 976.089 -5.14515 -3.0886 0
M  V30 10348 H 977.159 -4.48739 -1.83742 0
M  V30 10349 N 978.502 0.731368 -1.39602 0
M  V30 10350 C 979.465 1.8271 -1.38383 0
M  V30 10351 C 980.465 1.58338 -0.280309 0
M  V30 10352 O 981.655 1.65671 -0.538402 0
M  V30 10353 C 978.787 3.20556 -1.16002 0
M  V30 10354 H 979.98 1.85193 -2.35889 0
M  V30 10355 H 977.533 0.935396 -1.2522 0
M  V30 10356 H 978.268 3.23732 -0.191927 0
M  V30 10357 H 978.053 3.39643 -1.9592 0
M  V30 10358 H 979.543 4.00612 -1.17899 0
M  V30 10359 N 979.98 1.24838 0.961938 0
M  V30 10360 C 980.943 1.04674 2.03902 0
M  V30 10361 C 981.943 0.00204674 1.608 0
M  V30 10362 O 983.133 0.243555 1.72489 0
M  V30 10363 C 980.265 0.587736 3.35795 0
M  V30 10364 H 981.458 2.00278 2.23223 0
M  V30 10365 H 979.011 1.07142 1.138 0
M  V30 10366 H 979.746 -0.371244 3.22168 0
M  V30 10367 H 979.531 1.34182 3.68426 0
M  V30 10368 H 981.021 0.467867 4.14971 0
M  V30 10369 N 981.458 -1.16348 1.06306 0
M  V30 10370 C 982.707 -1.8622 0.774909 0
M  V30 10371 C 983.02 -1.82598 -0.701245 0
M  V30 10372 O 984.226 -2.48051 -1.10377 0
M  V30 10373 C 982.682 -3.34182 1.33604 0
M  V30 10374 C 982.29 -3.46279 2.84245 0
M  V30 10375 C 984.034 -4.09309 1.12544 0
M  V30 10376 C 981.941 -4.88327 3.33602 0
M  V30 10377 H 980.871 -0.697574 0.286194 0
M  V30 10378 H 983.522 -1.31311 1.28179 0
M  V30 10379 H 981.904 -3.88698 0.756937 0
M  V30 10380 H 983.078 -3.01923 3.48108 0
M  V30 10381 H 981.393 -2.84585 3.03974 0
M  V30 10382 H 983.99 -5.14123 1.46909 0
M  V30 10383 H 984.333 -4.16251 0.0638129 0
M  V30 10384 H 984.866 -3.61032 1.67034 0
M  V30 10385 H 981.605 -4.86565 4.39244 0
M  V30 10386 H 981.125 -5.33307 2.74487 0
M  V30 10387 H 982.804 -5.57144 3.28937 0
M  V30 10388 N 982.937 -0.845659 -1.3299 0
M  V30 10389 C 984.177 -0.450819 -1.99366 0
M  V30 10390 C 984.541 0.973297 -1.65502 0
M  V30 10391 O 985.742 1.47222 -2.24898 0
M  V30 10392 C 984.013 -0.672825 -3.5101 0
M  V30 10393 S 985.572 -0.374216 -4.37201 0
M  V30 10394 H 982.39 -0.169273 -0.690556 0
M  V30 10395 H 984.992 -1.09642 -1.61861 0
M  V30 10396 H 983.696 -1.70855 -3.73145 0
M  V30 10397 H 983.227 -0.0133185 -3.93398 0
M  V30 10398 H 985.242 0.803342 -4.89654 0
M  V30 10399 N 984.415 1.45619 -0.602734 0
M  V30 10400 C 985.643 2.06647 -0.102253 0
M  V30 10401 C 986.058 1.4482 1.21131 0
M  V30 10402 O 985.415 0.560621 1.73676 0
M  V30 10403 C 985.466 3.61467 0.0490113 0
M  V30 10404 O 985.187 4.20985 -1.21257 0
M  V30 10405 C 986.688 4.39469 0.581517 0
M  V30 10406 H 983.908 0.667685 -0.0666155 0
M  V30 10407 H 986.452 1.86939 -0.829091 0
M  V30 10408 H 984.607 3.80534 0.726153 0
M  V30 10409 H 985.021 5.14103 -1.03915 0
M  V30 10410 H 986.495 5.48318 0.636462 0
M  V30 10411 H 986.972 4.0891 1.60277 0
M  V30 10412 H 987.578 4.25256 -0.061419 0
M  V30 10413 N 985.893 0.34162 1.53853 0
M  V30 10414 C 986.856 -0.503541 2.236 0
M  V30 10415 C 987.856 -1.02912 1.23554 0
M  V30 10416 O 989.046 -0.918678 1.48007 0
M  V30 10417 C 986.178 -1.70126 2.95415 0
M  V30 10418 H 987.371 0.106437 2.99711 0
M  V30 10419 H 984.924 0.0929408 1.56023 0
M  V30 10420 H 985.659 -2.34999 2.23486 0
M  V30 10421 H 985.444 -1.33161 3.68796 0
M  V30 10422 H 986.934 -2.30077 3.48503 0
M  V30 10423 N 987.371 -1.57444 0.0701946 0
M  V30 10424 C 988.782 -1.80875 -0.462709 0
M  V30 10425 C 989.133 -0.983975 -1.69742 0
M  V30 10426 O 988.258 -0.206027 -2.15417 0
M  V30 10427 C 988.853 -3.28062 -0.84623 0
M  V30 10428 C 987.412 -3.52345 -1.32401 0
M  V30 10429 C 986.559 -2.7558 -0.308399 0
M  V30 10430 H 989.51 -1.55917 0.295907 0
M  V30 10431 H 989.531 -3.40023 -1.70776 0
M  V30 10432 H 989.043 -3.88064 0.0526033 0
M  V30 10433 H 987.144 -2.97645 -2.24139 0
M  V30 10434 H 987.257 -4.6104 -1.30304 0
M  V30 10435 H 985.621 -2.4229 -0.785337 0
M  V30 10436 H 986.404 -3.38319 0.582679 0
M  V30 10437 N 988.849 0.203349 -1.56283 0
M  V30 10438 C 990.095 0.926381 -1.80405 0
M  V30 10439 C 990.428 1.8325 -0.642883 0
M  V30 10440 O 989.703 1.91196 0.356998 0
M  V30 10441 C 989.986 1.74972 -3.14733 0
M  V30 10442 C 989.839 0.868866 -4.41328 0
M  V30 10443 C 991.158 2.72394 -3.45672 0
M  V30 10444 H 988.277 0.335346 -0.656286 0
M  V30 10445 H 990.919 0.1942 -1.89005 0
M  V30 10446 H 989.069 2.37394 -3.07533 0
M  V30 10447 H 990.741 0.259986 -4.60567 0
M  V30 10448 H 988.984 0.175161 -4.33446 0
M  V30 10449 H 989.655 1.47975 -5.31796 0
M  V30 10450 H 992.131 2.20105 -3.53119 0
M  V30 10451 H 991.007 3.27091 -4.40798 0
M  V30 10452 H 991.268 3.51035 -2.6875 0
M  V30 10453 N 990.327 1.50405 0.470755 0
M  V30 10454 C 991.575 1.61092 1.2204 0
M  V30 10455 C 991.896 0.313487 1.92464 0
M  V30 10456 O 991.166 -0.669043 1.84121 0
M  V30 10457 H 989.746 0.593618 0.45346 0
M  V30 10458 H 992.408 1.87184 0.542985 0
M  V30 10459 H 991.504 2.42222 1.96812 0
M  V30 10460 N 991.805 -0.723954 1.39988 0
M  V30 10461 C 992.735 -1.85103 1.42335 0
M  V30 10462 C 993.716 -1.6769 0.285297 0
M  V30 10463 O 994.901 -1.87846 0.492716 0
M  V30 10464 C 992.031 -3.22972 1.27697 0
M  V30 10465 C 990.985 -3.55041 2.39018 0
M  V30 10466 C 990.311 -4.91965 2.09462 0
M  V30 10467 C 991.611 -3.56889 3.8135 0
M  V30 10468 H 993.305 -1.83396 2.36656 0
M  V30 10469 H 990.851 -0.880926 1.13911 0
M  V30 10470 H 992.804 -4.01503 1.27958 0
M  V30 10471 H 991.528 -3.25233 0.298487 0
M  V30 10472 H 990.187 -2.78845 2.37993 0
M  V30 10473 H 989.835 -4.90819 1.10025 0
M  V30 10474 H 989.535 -5.14389 2.84038 0
M  V30 10475 H 991.059 -5.7284 2.11391 0
M  V30 10476 H 992.473 -4.25476 3.84243 0
M  V30 10477 H 990.87 -3.90836 4.55376 0
M  V30 10478 H 991.94 -2.56452 4.11534 0
M  V30 10479 N 993.283 -1.25346 -0.955304 0
M  V30 10480 C 994.694 -1.09173 -1.51453 0
M  V30 10481 C 995.045 0.332755 -1.93358 0
M  V30 10482 O 994.17 1.22264 -1.78551 0
M  V30 10483 C 994.765 -1.97564 -2.75234 0
M  V30 10484 C 993.324 -1.85579 -3.27471 0
M  V30 10485 C 992.471 -1.91755 -2.00313 0
M  V30 10486 H 995.422 -1.38642 -0.772271 0
M  V30 10487 H 995.443 -1.51523 -3.49029 0
M  V30 10488 H 994.955 -3.01233 -2.44704 0
M  V30 10489 H 993.056 -0.847906 -3.62824 0
M  V30 10490 H 993.169 -2.70353 -3.95533 0
M  V30 10491 H 991.533 -1.35633 -2.15582 0
M  V30 10492 H 992.316 -2.97028 -1.72132 0
M  V30 10493 N 994.761 1.15782 -1.06922 0
M  V30 10494 C 996.038 1.8253 -0.703 0
M  V30 10495 C 996.418 1.94733 0.814994 0
M  V30 10496 O 995.766 1.49537 1.72774 0
M  V30 10497 C 995.976 3.19145 -1.41234 0
M  V30 10498 C 997.324 3.94839 -1.56164 0
M  V30 10499 O 998.348 3.28685 -1.37277 0
M  V30 10500 O 997.207 5.13436 -1.87205 0
M  V30 10501 H 994.301 0.788425 -0.24963 0
M  V30 10502 H 996.847 1.22931 -1.16988 0
M  V30 10503 H 995.619 3.05336 -2.44715 0
M  V30 10504 H 995.242 3.86427 -0.935959 0
M  V30 10505 N 996.239 0.8527 1.3254 0
M  V30 10506 C 997.479 0.461385 1.99125 0
M  V30 10507 C 997.843 -0.964507 1.66016 0
M  V30 10508 O 999.044 -1.46027 2.25676 0
M  V30 10509 C 997.315 0.69143 3.50648 0
M  V30 10510 S 998.874 0.397397 4.36997 0
M  V30 10511 H 995.692 0.172933 0.689649 0
M  V30 10512 H 998.294 1.10499 1.61277 0
M  V30 10513 H 996.998 1.72831 3.72233 0
M  V30 10514 H 996.529 0.0341812 3.93385 0
M  V30 10515 H 998.544 -0.777363 4.90073 0
M  V30 10516 N 997.718 -1.45297 0.610449 0
M  V30 10517 C 998.964 -2.03073 0.115358 0
M  V30 10518 C 999.319 -1.47 -1.24132 0
M  V30 10519 O 998.612 -0.636326 -1.80725 0
M  V30 10520 C 998.806 -3.57394 0.0205329 0
M  V30 10521 C 998.635 -4.28436 1.36647 0
M  V30 10522 C 997.405 -4.66245 1.94791 0
M  V30 10523 C 999.603 -4.60211 2.29587 0
M  V30 10524 N 997.585 -5.22159 3.22835 0
M  V30 10525 C 998.956 -5.16989 3.42232 0
M  V30 10526 C 1001.01 -4.42152 2.28923 0
M  V30 10527 C 999.714 -5.5761 4.54382 0
M  V30 10528 C 1001.74 -4.83808 3.40123 0
M  V30 10529 C 1001.1 -5.40681 4.5149 0
M  V30 10530 H 997.201 -0.777296 0.0856485 0
M  V30 10531 H 999.785 -1.77077 0.809426 0
M  V30 10532 H 997.956 -3.83045 -0.642763 0
M  V30 10533 H 999.688 -4.01826 -0.481481 0
M  V30 10534 H 996.443 -4.49893 1.47965 0
M  V30 10535 H 996.867 -5.54613 3.88245 0
M  V30 10536 H 1001.51 -3.97493 1.44081 0
M  V30 10537 H 999.227 -6.01234 5.39947 0
M  V30 10538 H 1002.81 -4.71565 3.40761 0
M  V30 10539 H 1001.69 -5.72321 5.36114 0
M  V30 10540 N 999.196 -0.349774 -1.5367 0
M  V30 10541 C 1000.47 0.300419 -1.93279 0
M  V30 10542 C 1000.85 1.67721 -1.28191 0
M  V30 10543 O 1000.2 2.24319 -0.435127 0
M  V30 10544 C 1000.41 0.366466 -3.47071 0
M  V30 10545 C 1001.76 0.614349 -4.20132 0
M  V30 10546 O 1002.78 0.448327 -3.53367 0
M  V30 10547 O 1001.64 0.936421 -5.38417 0
M  V30 10548 H 998.736 0.176599 -0.807924 0
M  V30 10549 H 1001.28 -0.401405 -1.64884 0
M  V30 10550 H 1000.05 -0.599455 -3.86681 0
M  V30 10551 H 999.677 1.11482 -3.81651 0
M  V30 10552 N 1000.67 1.57404 -0.0785433 0
M  V30 10553 C 1001.64 2.11977 0.871693 0
M  V30 10554 C 1002.64 1.04529 1.2219 0
M  V30 10555 O 1003.83 1.30488 1.15406 0
M  V30 10556 C 1000.96 2.6267 2.17296 0
M  V30 10557 H 1002.15 2.97246 0.398115 0
M  V30 10558 H 999.705 1.5537 0.170251 0
M  V30 10559 H 1000.44 1.80873 2.69175 0
M  V30 10560 H 1000.22 3.41214 1.93171 0
M  V30 10561 H 1001.71 3.04943 2.85306 0
M  V30 10562 N 1002.15 -0.195058 1.56388 0
M  V30 10563 C 1003.1 -1.24175 1.94549 0
M  V30 10564 C 1004.07 -1.45229 0.806089 0
M  V30 10565 O 1005.25 -1.58362 1.06425 0
M  V30 10566 C 1002.39 -2.58145 2.29031 0
M  V30 10567 C 1001.51 -2.44669 3.56035 0
M  V30 10568 C 1000.64 -3.71342 3.7984 0
M  V30 10569 C 999.681 -3.52699 5.0027 0
M  V30 10570 N 998.818 -4.71385 5.20328 0
M  V30 10571 H 1003.66 -0.909319 2.83788 0
M  V30 10572 H 1001.19 -0.437641 1.40439 0
M  V30 10573 H 1003.15 -3.36195 2.4704 0
M  V30 10574 H 1001.78 -2.8943 1.42933 0
M  V30 10575 H 1000.83 -1.57916 3.46073 0
M  V30 10576 H 1002.15 -2.26827 4.44242 0
M  V30 10577 H 1001.3 -4.57832 3.98088 0
M  V30 10578 H 1000.04 -3.92138 2.89964 0
M  V30 10579 H 999.045 -2.64594 4.81944 0
M  V30 10580 H 1000.27 -3.33349 5.91655 0
M  V30 10581 H 998.216 -4.92444 4.33399 0
M  V30 10582 H 998.133 -4.56368 6.02714 0
M  V30 10583 H 999.401 -5.59226 5.43035 0
M  V30 10584 N 1003.63 -1.50653 -0.462772 0
M  V30 10585 C 1004.54 -1.72923 -1.58539 0
M  V30 10586 C 1005.56 -0.612577 -1.6286 0
M  V30 10587 O 1006.73 -0.891885 -1.80575 0
M  V30 10588 C 1003.8 -1.82623 -2.94703 0
M  V30 10589 C 1002.86 -3.06392 -3.00704 0
M  V30 10590 C 1002.09 -3.15618 -4.30373 0
M  V30 10591 O 1002.31 -2.31423 -5.21344 0
M  V30 10592 O 1001.25 -4.0841 -4.42136 0
M  V30 10593 H 1005.07 -2.68103 -1.42669 0
M  V30 10594 H 1002.66 -1.34848 -0.643144 0
M  V30 10595 H 1004.54 -1.91134 -3.7556 0
M  V30 10596 H 1003.22 -0.906275 -3.10754 0
M  V30 10597 H 1002.12 -3.03375 -2.18894 0
M  V30 10598 H 1003.46 -3.97992 -2.89591 0
M  V30 10599 N 1005.11 0.71652 -1.4037 0
M  V30 10600 C 1006.04 1.84138 -1.36477 0
M  V30 10601 C 1007.05 1.6054 -0.27033 0
M  V30 10602 O 1008.24 1.70431 -0.530612 0
M  V30 10603 C 1005.34 3.20523 -1.10082 0
M  V30 10604 C 1004.52 3.71326 -2.31162 0
M  V30 10605 C 1003.57 4.86322 -2.00942 0
M  V30 10606 O 1002.6 4.99022 -2.73799 0
M  V30 10607 N 1003.8 5.72051 -0.986812 0
M  V30 10608 H 1006.57 1.87977 -2.3342 0
M  V30 10609 H 1004.13 0.89802 -1.34712 0
M  V30 10610 H 1006.12 3.95049 -0.878526 0
M  V30 10611 H 1004.69 3.11838 -0.21809 0
M  V30 10612 H 1003.91 2.87941 -2.69227 0
M  V30 10613 H 1005.2 4.02003 -3.11883 0
M  V30 10614 H 1004.6 5.64399 -0.383381 0
M  V30 10615 H 1003.15 6.46565 -0.824419 0
M  V30 10616 N 1006.59 1.25851 0.948643 0
M  V30 10617 C 1007.83 1.11119 1.69648 0
M  V30 10618 C 1008.17 -0.345995 1.91093 0
M  V30 10619 O 1007.44 -1.25467 1.48621 0
M  V30 10620 C 1007.72 1.87261 3.0758 0
M  V30 10621 C 1007.58 3.40842 2.93507 0
M  V30 10622 C 1008.9 1.6605 4.07573 0
M  V30 10623 H 1006.01 0.405052 0.615713 0
M  V30 10624 H 1008.66 1.54756 1.10229 0
M  V30 10625 H 1006.81 1.50172 3.58303 0
M  V30 10626 H 1008.48 3.87641 2.50064 0
M  V30 10627 H 1006.72 3.68248 2.29294 0
M  V30 10628 H 1007.39 3.89339 3.91305 0
M  V30 10629 H 1009.87 1.98348 3.65783 0
M  V30 10630 H 1008.74 2.21753 5.02113 0
M  V30 10631 H 1009.01 0.603256 4.37965 0
M  V30 10632 N 1008.06 -1.15214 1.07534 0
M  V30 10633 C 1009.3 -1.87708 0.809009 0
M  V30 10634 C 1009.67 -1.80552 -0.653066 0
M  V30 10635 O 1010.87 -2.48095 -1.03452 0
M  V30 10636 C 1009.14 -3.32703 1.30552 0
M  V30 10637 S 1010.7 -4.2291 1.17015 0
M  V30 10638 H 1007.52 -0.647767 0.293118 0
M  V30 10639 H 1010.12 -1.38992 1.37482 0
M  V30 10640 H 1008.82 -3.35456 2.36427 0
M  V30 10641 H 1008.35 -3.86473 0.734995 0
M  V30 10642 H 1010.37 -4.96081 0.108836 0
M  V30 10643 N 1009.54 -0.859717 -1.32086 0
M  V30 10644 C 1010.79 -0.475565 -1.97762 0
M  V30 10645 C 1011.14 0.959348 -1.66776 0
M  V30 10646 O 1010.44 1.66484 -0.948343 0
M  V30 10647 C 1010.63 -0.657397 -3.51302 0
M  V30 10648 C 1010.46 -2.10843 -3.97209 0
M  V30 10649 C 1009.23 -2.74796 -4.24046 0
M  V30 10650 C 1011.43 -3.07959 -4.11905 0
M  V30 10651 N 1009.41 -4.10758 -4.56236 0
M  V30 10652 C 1010.78 -4.28922 -4.4769 0
M  V30 10653 C 1012.84 -3.04086 -3.94254 0
M  V30 10654 C 1011.54 -5.46518 -4.67665 0
M  V30 10655 C 1013.56 -4.20931 -4.15416 0
M  V30 10656 C 1012.93 -5.40654 -4.51522 0
M  V30 10657 H 1009.03 -0.222859 -0.749572 0
M  V30 10658 H 1011.61 -1.11217 -1.59809 0
M  V30 10659 H 1009.78 -0.0504597 -3.88367 0
M  V30 10660 H 1011.51 -0.242642 -4.03972 0
M  V30 10661 H 1008.27 -2.25805 -4.16304 0
M  V30 10662 H 1008.69 -4.80905 -4.76507 0
M  V30 10663 H 1013.33 -2.12641 -3.65436 0
M  V30 10664 H 1011.05 -6.3849 -4.95335 0
M  V30 10665 H 1014.64 -4.19376 -4.03255 0
M  V30 10666 H 1013.52 -6.29563 -4.67568 0
M  V30 10667 N 1011.02 1.44971 -0.618145 0
M  V30 10668 C 1011.97 2.27704 0.116119 0
M  V30 10669 C 1012.95 1.37927 0.828558 0
M  V30 10670 O 1014.15 1.61836 0.716806 0
M  V30 10671 C 1011.28 3.25004 1.10578 0
M  V30 10672 C 1010.36 4.22269 0.39364 0
M  V30 10673 N 1010.75 5.02571 -0.570581 0
M  V30 10674 C 1009.05 4.41387 0.639809 0
M  V30 10675 C 1009.75 5.73211 -0.990144 0
M  V30 10676 N 1008.73 5.42587 -0.331653 0
M  V30 10677 H 1012.53 2.87193 -0.624295 0
M  V30 10678 H 1010.04 1.56252 -0.442631 0
M  V30 10679 H 1012.04 3.83017 1.64631 0
M  V30 10680 H 1010.7 2.67075 1.84664 0
M  V30 10681 H 1011.71 5.09153 -0.947814 0
M  V30 10682 H 1008.39 3.94572 1.36453 0
M  V30 10683 H 1009.78 6.47728 -1.78601 0
M  V30 10684 N 1012.5 0.357919 1.53482 0
M  V30 10685 C 1013.43 -0.484231 2.28424 0
M  V30 10686 C 1014.41 -1.09046 1.30548 0
M  V30 10687 O 1015.59 -1.10916 1.59409 0
M  V30 10688 C 1012.72 -1.62803 3.06778 0
M  V30 10689 C 1011.68 -1.14943 4.12277 0
M  V30 10690 C 1011 -2.38287 4.78669 0
M  V30 10691 C 1012.3 -0.239627 5.2175 0
M  V30 10692 H 1014 0.140979 2.99068 0
M  V30 10693 H 1011.54 0.069244 1.43833 0
M  V30 10694 H 1013.5 -2.22374 3.57949 0
M  V30 10695 H 1012.22 -2.28036 2.3381 0
M  V30 10696 H 1010.88 -0.576442 3.6204 0
M  V30 10697 H 1010.53 -3.01959 4.02281 0
M  V30 10698 H 1010.23 -2.06939 5.49955 0
M  V30 10699 H 1011.75 -2.98558 5.32631 0
M  V30 10700 H 1013.17 -0.742597 5.6847 0
M  V30 10701 H 1011.56 -0.0173747 6.00097 0
M  V30 10702 H 1012.63 0.720333 4.7952 0
M  V30 10703 N 1013.98 -1.5736 0.0868897 0
M  V30 10704 C 1014.94 -2.12436 -0.860439 0
M  V30 10705 C 1015.94 -1.05175 -1.21634 0
M  V30 10706 O 1017.13 -1.31098 -1.14713 0
M  V30 10707 C 1014.26 -2.63818 -2.159 0
M  V30 10708 H 1015.45 -2.97453 -0.382346 0
M  V30 10709 H 1013.01 -1.55458 -0.162009 0
M  V30 10710 H 1013.74 -1.82298 -2.68212 0
M  V30 10711 H 1013.53 -3.42234 -1.91359 0
M  V30 10712 H 1015.02 -3.06452 -2.83685 0
M  V30 10713 N 1015.45 0.186762 -1.56489 0
M  V30 10714 C 1016.4 1.25084 -1.96104 0
M  V30 10715 C 1017.4 1.4667 -0.847609 0
M  V30 10716 O 1018.6 1.47432 -1.03266 0
M  V30 10717 H 1014.98 0.420121 -0.623701 0
M  V30 10718 H 1016.95 0.889761 -2.84826 0
M  V30 10719 C 1015.7 2.5863 -2.32392 0
M  V30 10720 H 1015.02 2.42838 -3.176 0
M  V30 10721 H 1016.46 3.3181 -2.63967 0
M  V30 10722 C 1014.92 3.16241 -1.16159 0
M  V30 10723 O 1015.45 3.99272 -0.441034 0
M  V30 10724 N 1013.66 2.75106 -0.936206 0
M  V30 10725 H 1013.2 2.0769 -1.5239 0
M  V30 10726 H 1013.16 3.13991 -0.160317 0
M  V30 10727 N 1016.93 1.50896 0.454776 0
M  V30 10728 C 1017.86 1.6712 1.56855 0
M  V30 10729 C 1018.88 0.552223 1.53148 0
M  V30 10730 O 1020.07 0.825969 1.5824 0
M  V30 10731 C 1017.17 1.65464 2.95762 0
M  V30 10732 C 1016.34 2.93662 3.24163 0
M  V30 10733 C 1015.4 2.84428 4.42704 0
M  V30 10734 O 1014.42 3.58382 4.42211 0
M  V30 10735 N 1015.63 1.9909 5.45292 0
M  V30 10736 H 1018.39 2.63194 1.43349 0
M  V30 10737 H 1015.95 1.48564 0.643457 0
M  V30 10738 H 1017.94 1.56878 3.73057 0
M  V30 10739 H 1016.51 0.770568 3.02954 0
M  V30 10740 H 1015.73 3.16251 2.35328 0
M  V30 10741 H 1017.02 3.78558 3.39957 0
M  V30 10742 H 1016.42 1.3835 5.48521 0
M  V30 10743 H 1014.98 1.96396 6.21508 0
M  V30 10744 N 1018.41 -0.709066 1.40748 0
M  V30 10745 C 1019.34 -1.83583 1.4429 0
M  V30 10746 C 1020.32 -1.67378 0.303067 0
M  V30 10747 O 1021.51 -1.87312 0.512612 0
M  V30 10748 C 1018.64 -3.21599 1.31116 0
M  V30 10749 C 1017.59 -3.52486 2.4277 0
M  V30 10750 C 1016.92 -4.89716 2.14668 0
M  V30 10751 C 1018.22 -3.52824 3.85113 0
M  V30 10752 H 1019.91 -1.80876 2.38588 0
M  V30 10753 H 1017.46 -0.868795 1.14839 0
M  V30 10754 H 1019.41 -4.00123 1.32209 0
M  V30 10755 H 1018.13 -3.24898 0.332965 0
M  V30 10756 H 1016.79 -2.76305 2.40937 0
M  V30 10757 H 1016.44 -4.89625 1.15224 0
M  V30 10758 H 1016.14 -5.11347 2.89478 0
M  V30 10759 H 1017.66 -5.70566 2.17455 0
M  V30 10760 H 1019.08 -4.21377 3.88734 0
M  V30 10761 H 1017.48 -3.85984 4.59496 0
M  V30 10762 H 1018.55 -2.52073 4.14231 0
M  V30 10763 N 1019.89 -1.26353 -0.941956 0
M  V30 10764 C 1021.12 -1.14626 -1.72245 0
M  V30 10765 C 1021.53 0.298588 -1.86424 0
M  V30 10766 O 1020.89 1.2045 -1.37106 0
M  V30 10767 C 1020.94 -1.80933 -3.12963 0
M  V30 10768 O 1020.66 -3.19771 -2.99463 0
M  V30 10769 C 1022.16 -1.7515 -4.07231 0
M  V30 10770 H 1019.38 -0.3992 -0.539333 0
M  V30 10771 H 1021.93 -1.66958 -1.1809 0
M  V30 10772 H 1020.08 -1.32541 -3.64021 0
M  V30 10773 H 1020.5 -3.52571 -3.88322 0
M  V30 10774 H 1021.97 -2.26183 -5.03533 0
M  V30 10775 H 1022.45 -0.717855 -4.33294 0
M  V30 10776 H 1023.05 -2.2309 -3.62093 0
M  V30 10777 N 1021.37 1.14642 -1.08144 0
M  V30 10778 C 1022.28 2.23257 -0.720668 0
M  V30 10779 C 1023.29 1.71866 0.271648 0
M  V30 10780 O 1024.47 2.01064 0.116266 0
M  V30 10781 C 1021.53 3.46447 -0.132542 0
M  V30 10782 C 1020.6 4.12789 -1.17913 0
M  V30 10783 C 1019.83 5.30099 -0.618971 0
M  V30 10784 O 1020.05 5.6762 0.562418 0
M  V30 10785 O 1018.99 5.86154 -1.36774 0
M  V30 10786 H 1022.81 2.56463 -1.62667 0
M  V30 10787 H 1020.4 1.22521 -0.854932 0
M  V30 10788 H 1022.28 4.20959 0.19277 0
M  V30 10789 H 1020.95 3.14971 0.746662 0
M  V30 10790 H 1019.86 3.40163 -1.55693 0
M  V30 10791 H 1021.19 4.48365 -2.03051 0
M  V30 10792 N 1022.85 0.866709 1.31628 0
M  V30 10793 C 1024.12 0.396828 1.91532 0
M  V30 10794 C 1024.5 -1.12081 1.78889 0
M  V30 10795 O 1023.85 -1.94791 1.19452 0
M  V30 10796 C 1024.06 0.874578 3.37864 0
M  V30 10797 C 1025.41 0.8988 4.14978 0
M  V30 10798 O 1026.43 0.820014 3.46633 0
M  V30 10799 O 1025.29 1.01223 5.37044 0
M  V30 10800 H 1022.39 0.1181 0.818524 0
M  V30 10801 H 1024.93 0.954407 1.40318 0
M  V30 10802 H 1023.7 1.91807 3.41066 0
M  V30 10803 H 1023.33 0.295126 3.96503 0
M  V30 10804 N 1024.32 -1.44642 0.625825 0
M  V30 10805 C 1025.55 -2.06971 0.133373 0
M  V30 10806 C 1025.97 -1.46421 -1.18078 0
M  V30 10807 O 1025.33 -0.563676 -1.72315 0
M  V30 10808 C 1025.38 -3.6059 0.0265097 0
M  V30 10809 O 1024.48 -3.99615 -1.01889 0
M  V30 10810 H 1023.82 -0.658873 0.0823568 0
M  V30 10811 H 1026.35 -1.85601 0.861002 0
M  V30 10812 H 1026.36 -4.07663 -0.1658 0
M  V30 10813 H 1025.04 -4.04043 0.985986 0
M  V30 10814 H 1023.62 -3.64183 -0.801577 0
M  V30 10815 N 1025.8 -0.366053 -1.5329 0
M  V30 10816 C 1027.03 0.226839 -2.06156 0
M  V30 10817 C 1027.45 1.41637 -1.23776 0
M  V30 10818 O 1026.81 1.7947 -0.256948 0
M  V30 10819 C 1026.86 0.597956 -3.55608 0
M  V30 10820 O 1025.96 1.69512 -3.75951 0
M  V30 10821 H 1025.3 0.0329156 -0.663184 0
M  V30 10822 H 1027.83 -0.526793 -1.97702 0
M  V30 10823 H 1027.84 0.868831 -3.98642 0
M  V30 10824 H 1026.52 -0.271838 -4.15011 0
M  V30 10825 H 1025.09 1.41976 -3.44815 0
M  V30 10826 N 1027.28 1.57312 -0.0952337 0
M  V30 10827 C 1028.21 2.11059 0.893678 0
M  V30 10828 C 1029.22 1.04787 1.24594 0
M  V30 10829 O 1030.41 1.32233 1.19903 0
M  V30 10830 C 1027.51 2.57552 2.20272 0
M  V30 10831 C 1026.69 3.87661 2.02578 0
M  V30 10832 C 1025.75 4.2 3.16996 0
M  V30 10833 O 1024.77 4.89219 2.90953 0
M  V30 10834 N 1025.97 3.75414 4.42769 0
M  V30 10835 H 1028.74 2.96532 0.434632 0
M  V30 10836 H 1026.3 1.6165 0.0898661 0
M  V30 10837 H 1028.29 2.76232 2.95766 0
M  V30 10838 H 1026.86 1.7709 2.576 0
M  V30 10839 H 1026.08 3.78128 1.11413 0
M  V30 10840 H 1027.37 4.7278 1.88032 0
M  V30 10841 H 1026.77 3.1954 4.66809 0
M  V30 10842 H 1025.32 3.99249 5.15212 0
M  V30 10843 N 1028.76 -0.17846 1.56586 0
M  V30 10844 C 1029.69 -1.22342 1.98884 0
M  V30 10845 C 1030.67 -1.46564 0.86331 0
M  V30 10846 O 1031.85 -1.58019 1.12887 0
M  V30 10847 C 1028.98 -2.56396 2.34261 0
M  V30 10848 C 1027.94 -2.46756 3.49708 0
M  V30 10849 C 1027.26 -3.85235 3.70807 0
M  V30 10850 C 1028.56 -1.97838 4.83381 0
M  V30 10851 H 1030.26 -0.871848 2.86425 0
M  V30 10852 H 1027.8 -0.417948 1.37801 0
M  V30 10853 H 1029.76 -3.29695 2.62448 0
M  V30 10854 H 1028.48 -2.93327 1.43621 0
M  V30 10855 H 1027.14 -1.75912 3.21637 0
M  V30 10856 H 1026.79 -4.19547 2.7747 0
M  V30 10857 H 1026.49 -3.79655 4.48481 0
M  V30 10858 H 1028.01 -4.60131 4.01387 0
M  V30 10859 H 1029.43 -2.60906 5.10491 0
M  V30 10860 H 1027.82 -2.03223 5.64642 0
M  V30 10861 H 1028.89 -0.932339 4.75852 0
M  V30 10862 N 1030.24 -1.51135 -0.446768 0
M  V30 10863 C 1031.65 -1.39101 -0.782504 0
M  V30 10864 C 1031.85 -0.46599 -1.96038 0
M  V30 10865 O 1030.91 0.0823679 -2.52366 0
M  V30 10866 C 1032.22 -2.80953 -1.07173 0
M  V30 10867 C 1033.77 -2.90038 -1.17673 0
M  V30 10868 C 1034.24 -4.32777 -1.49894 0
M  V30 10869 N 1035.73 -4.3584 -1.56837 0
M  V30 10870 C 1036.47 -5.43305 -1.83322 0
M  V30 10871 N 1035.97 -6.60945 -2.07662 0
M  V30 10872 N 1037.76 -5.30775 -1.85026 0
M  V30 10873 H 1029.91 -2.09835 0.329114 0
M  V30 10874 H 1032.17 -0.944199 0.0848054 0
M  V30 10875 H 1031.88 -3.50591 -0.279037 0
M  V30 10876 H 1031.75 -3.197 -2.00179 0
M  V30 10877 H 1034.14 -2.20603 -1.96005 0
M  V30 10878 H 1034.22 -2.54801 -0.225892 0
M  V30 10879 H 1033.86 -5.02757 -0.720924 0
M  V30 10880 H 1033.79 -4.6552 -2.46168 0
M  V30 10881 H 1036.29 -3.51023 -1.39968 0
M  V30 10882 H 1036.6 -7.38643 -2.27214 0
M  V30 10883 H 1034.94 -6.64077 -2.05003 0
M  V30 10884 H 1038.13 -4.37858 -1.65523 0
M  V30 10885 H 1038.31 -6.14609 -2.05329 0
M  V30 10886 N 1031.71 0.701592 -1.41122 0
M  V30 10887 C 1033.12 1.28129 -1.35793 0
M  V30 10888 C 1033.48 1.96163 -0.0381185 0
M  V30 10889 O 1032.6 1.98416 0.863723 0
M  V30 10890 C 1033.2 2.33005 -2.45955 0
M  V30 10891 C 1031.75 2.86566 -2.44043 0
M  V30 10892 C 1030.9 1.60526 -2.26112 0
M  V30 10893 H 1033.85 0.496756 -1.50725 0
M  V30 10894 H 1033.87 3.14163 -2.14667 0
M  V30 10895 H 1033.39 1.8346 -3.42 0
M  V30 10896 H 1031.49 3.40304 -1.51737 0
M  V30 10897 H 1031.6 3.37406 -3.40138 0
M  V30 10898 H 1029.96 1.86113 -1.7388 0
M  V30 10899 H 1030.75 1.12985 -3.24175 0
M  V30 10900 N 1033.19 1.2685 0.935242 0
M  V30 10901 C 1034.42 1.15645 1.72165 0
M  V30 10902 C 1034.84 -0.283909 1.85945 0
M  V30 10903 O 1034.2 -1.20567 1.354 0
M  V30 10904 C 1034.25 1.83689 3.10307 0
M  V30 10905 O 1033.35 1.12972 3.96625 0
M  V30 10906 H 1032.69 0.402629 0.528002 0
M  V30 10907 H 1035.22 1.67781 1.17093 0
M  V30 10908 H 1035.23 1.90749 3.60664 0
M  V30 10909 H 1033.91 2.88472 2.99595 0
M  V30 10910 H 1032.48 1.13929 3.5507 0
M  V30 10911 N 1034.67 -1.14067 1.0875 0
M  V30 10912 C 1035.6 -2.21385 0.74236 0
M  V30 10913 C 1036.58 -1.67833 -0.276805 0
M  V30 10914 O 1037.77 -1.93647 -0.1464 0
M  V30 10915 C 1034.9 -3.46956 0.154644 0
M  V30 10916 C 1033.85 -4.13555 1.10255 0
M  V30 10917 C 1033.18 -5.3337 0.376877 0
M  V30 10918 C 1034.48 -4.6169 2.44213 0
M  V30 10919 H 1036.17 -2.50512 1.63964 0
M  V30 10920 H 1033.72 -1.20408 0.789807 0
M  V30 10921 H 1035.67 -4.21284 -0.0988419 0
M  V30 10922 H 1034.39 -3.17203 -0.777789 0
M  V30 10923 H 1033.05 -3.41186 1.34119 0
M  V30 10924 H 1032.7 -4.99879 -0.559472 0
M  V30 10925 H 1032.4 -5.78875 1.00884 0
M  V30 10926 H 1033.92 -6.10458 0.131527 0
M  V30 10927 H 1035.34 -5.27475 2.24595 0
M  V30 10928 H 1033.74 -5.17909 3.03134 0
M  V30 10929 H 1034.81 -3.76574 3.05483 0
M  V30 10930 N 1036.15 -0.873678 -1.31166 0
M  V30 10931 C 1037.4 -0.482577 -1.95842 0
M  V30 10932 C 1037.71 0.970881 -1.69804 0
M  V30 10933 O 1038.92 1.4683 -2.28371 0
M  V30 10934 C 1037.37 -0.812074 -3.50619 0
M  V30 10935 C 1036.98 -2.28254 -3.85492 0
M  V30 10936 C 1038.72 -0.489624 -4.21667 0
M  V30 10937 C 1036.63 -2.55426 -5.33396 0
M  V30 10938 H 1035.56 -0.176736 -0.732994 0
M  V30 10939 H 1038.21 -1.06709 -1.49283 0
M  V30 10940 H 1036.59 -0.156769 -3.9569 0
M  V30 10941 H 1037.77 -2.98122 -3.51369 0
M  V30 10942 H 1036.08 -2.5714 -3.27518 0
M  V30 10943 H 1038.68 -0.669811 -5.30488 0
M  V30 10944 H 1039.02 0.570204 -4.12376 0
M  V30 10945 H 1039.56 -1.10163 -3.82242 0
M  V30 10946 H 1036.3 -3.60106 -5.47726 0
M  V30 10947 H 1035.82 -1.90156 -5.68859 0
M  V30 10948 H 1037.49 -2.40345 -6.00702 0
M  V30 10949 N 1037.63 1.44308 -0.633487 0
M  V30 10950 C 1038.85 2.06897 -0.144347 0
M  V30 10951 C 1039.28 1.47045 1.173 0
M  V30 10952 O 1038.63 0.572806 1.72013 0
M  V30 10953 C 1038.68 3.60571 -0.0456324 0
M  V30 10954 O 1037.79 4.0015 0.997682 0
M  V30 10955 H 1037.13 0.658427 -0.0858499 0
M  V30 10956 H 1039.66 1.85142 -0.870833 0
M  V30 10957 H 1039.67 4.07745 0.144178 0
M  V30 10958 H 1038.34 4.03515 -1.0074 0
M  V30 10959 H 1036.92 3.64603 0.782252 0
M  V30 10960 N 1039.1 0.374177 1.53094 0
M  V30 10961 C 1040.35 -0.212396 2.00981 0
M  V30 10962 C 1040.67 -1.48576 1.26293 0
M  V30 10963 O 1039.94 -1.92206 0.378642 0
M  V30 10964 H 1038.52 -0.0814763 0.742543 0
M  V30 10965 H 1041.19 0.502389 1.88314 0
M  V30 10966 H 1040.28 -0.433316 3.09077 0
M  V30 10967 N 1040.58 -1.57259 0.103575 0
M  V30 10968 C 1041.51 -2.17509 -0.84923 0
M  V30 10969 C 1042.49 -1.11079 -1.28824 0
M  V30 10970 O 1043.68 -1.39252 -1.35361 0
M  V30 10971 C 1040.81 -2.76221 -2.10522 0
M  V30 10972 C 1039.76 -3.88098 -1.80454 0
M  V30 10973 C 1039.09 -4.33549 -3.12952 0
M  V30 10974 C 1040.39 -5.10909 -1.08486 0
M  V30 10975 H 1042.08 -2.9738 -0.347217 0
M  V30 10976 H 1039.63 -1.43045 -0.165568 0
M  V30 10977 H 1041.58 -3.17024 -2.77621 0
M  V30 10978 H 1040.31 -1.93617 -2.63021 0
M  V30 10979 H 1038.96 -3.47847 -1.15749 0
M  V30 10980 H 1038.61 -3.47825 -3.63355 0
M  V30 10981 H 1038.31 -5.08984 -2.93614 0
M  V30 10982 H 1039.84 -4.76992 -3.81196 0
M  V30 10983 H 1041.25 -5.48828 -1.65711 0
M  V30 10984 H 1039.65 -5.91828 -0.992973 0
M  V30 10985 H 1040.72 -4.84851 -0.0690108 0
M  V30 10986 N 1042.06 0.170153 -1.56679 0
M  V30 10987 C 1042.99 1.23525 -1.93066 0
M  V30 10988 C 1044.01 1.40414 -0.823879 0
M  V30 10989 O 1045.19 1.40396 -1.10232 0
M  V30 10990 C 1042.29 2.60376 -2.16928 0
M  V30 10991 C 1041.47 2.6477 -3.4816 0
M  V30 10992 C 1040.53 3.82993 -3.60837 0
M  V30 10993 O 1039.55 3.68937 -4.33444 0
M  V30 10994 N 1040.75 4.99498 -2.95773 0
M  V30 10995 H 1043.52 0.926172 -2.8503 0
M  V30 10996 H 1041.08 0.359909 -1.57849 0
M  V30 10997 H 1043.07 3.37934 -2.22672 0
M  V30 10998 H 1041.64 2.83669 -1.31342 0
M  V30 10999 H 1040.86 1.73298 -3.54064 0
M  V30 11000 H 1042.15 2.64717 -4.34514 0
M  V30 11001 H 1041.55 5.13819 -2.36657 0
M  V30 11002 H 1040.11 5.74914 -3.07111 0
M  V30 11003 N 1043.54 1.5137 0.438746 0
M  V30 11004 C 1044.49 1.68966 1.53083 0
M  V30 11005 C 1045.47 0.543669 1.51437 0
M  V30 11006 O 1046.66 0.799519 1.57914 0
M  V30 11007 C 1043.79 1.8168 2.91286 0
M  V30 11008 C 1042.88 3.02059 2.97693 0
M  V30 11009 N 1043.27 4.25254 2.73848 0
M  V30 11010 C 1041.57 3.01284 3.28852 0
M  V30 11011 C 1042.27 5.06501 2.86062 0
M  V30 11012 N 1041.25 4.41119 3.17671 0
M  V30 11013 H 1045.05 2.61883 1.33397 0
M  V30 11014 H 1042.56 1.48997 0.64603 0
M  V30 11015 H 1044.56 1.92396 3.6985 0
M  V30 11016 H 1043.22 0.899438 3.11994 0
M  V30 11017 H 1044.23 4.54222 2.48803 0
M  V30 11018 H 1040.91 2.19174 3.55344 0
M  V30 11019 H 1042.3 6.14563 2.71592 0
M  V30 11020 N 1045.02 -0.694098 1.41492 0
M  V30 11021 C 1046.43 -1.27407 1.36471 0
M  V30 11022 C 1046.78 -1.9614 0.0485209 0
M  V30 11023 O 1045.9 -1.98871 -0.853188 0
M  V30 11024 C 1046.5 -2.31698 2.47188 0
M  V30 11025 C 1045.06 -2.85268 2.45559 0
M  V30 11026 C 1044.2 -1.59325 2.2696 0
M  V30 11027 H 1047.16 -0.488756 1.50986 0
M  V30 11028 H 1047.18 -3.1302 2.1633 0
M  V30 11029 H 1046.69 -1.81644 3.42968 0
M  V30 11030 H 1044.79 -3.39494 1.5354 0
M  V30 11031 H 1044.9 -3.35598 3.41922 0
M  V30 11032 H 1043.27 -1.85188 1.74864 0
M  V30 11033 H 1044.05 -1.11265 3.24769 0
M  V30 11034 N 1046.49 -1.27344 -0.928501 0
M  V30 11035 C 1047.74 -1.13019 -1.67061 0
M  V30 11036 C 1048.06 0.323614 -1.92904 0
M  V30 11037 O 1049.26 0.587752 -2.65062 0
M  V30 11038 C 1047.72 -1.97471 -3.00887 0
M  V30 11039 C 1047.33 -3.47504 -2.82746 0
M  V30 11040 C 1049.07 -1.91792 -3.78703 0
M  V30 11041 C 1046.98 -4.24158 -4.12122 0
M  V30 11042 H 1045.91 -0.419364 -0.626618 0
M  V30 11043 H 1048.56 -1.51759 -1.03158 0
M  V30 11044 H 1046.94 -1.51576 -3.65843 0
M  V30 11045 H 1048.11 -4.01256 -2.26562 0
M  V30 11046 H 1046.43 -3.54554 -2.18359 0
M  V30 11047 H 1049.03 -2.46339 -4.74575 0
M  V30 11048 H 1049.37 -0.891375 -4.06645 0
M  V30 11049 H 1049.9 -2.35578 -3.20543 0
M  V30 11050 H 1046.64 -5.27333 -3.89359 0
M  V30 11051 H 1046.16 -3.75183 -4.67972 0
M  V30 11052 H 1047.84 -4.33288 -4.80489 0
M  V30 11053 N 1047.97 1.13488 -1.09353 0
M  V30 11054 C 1048.9 2.20988 -0.75409 0
M  V30 11055 C 1049.88 1.67977 0.267901 0
M  V30 11056 O 1051.07 1.93722 0.136128 0
M  V30 11057 C 1048.2 3.46869 -0.173042 0
M  V30 11058 C 1047.15 4.12965 -1.12446 0
M  V30 11059 C 1046.48 5.33163 -0.405157 0
M  V30 11060 C 1047.78 4.60388 -2.46658 0
M  V30 11061 H 1049.47 2.49639 -1.6529 0
M  V30 11062 H 1047.02 1.19987 -0.796182 0
M  V30 11063 H 1048.97 4.21331 0.0764988 0
M  V30 11064 H 1047.7 3.17611 0.760956 0
M  V30 11065 H 1046.35 3.40469 -1.35927 0
M  V30 11066 H 1046 5.00169 0.532955 0
M  V30 11067 H 1045.7 5.78332 -1.03952 0
M  V30 11068 H 1047.23 6.1038 -0.163899 0
M  V30 11069 H 1048.64 5.26276 -2.27389 0
M  V30 11070 H 1047.04 5.16294 -3.05876 0
M  V30 11071 H 1048.11 3.74949 -3.07476 0
M  V30 11072 N 1049.45 0.880621 1.30701 0
M  V30 11073 C 1050.69 0.503519 1.98101 0
M  V30 11074 C 1051.06 -0.929075 1.68024 0
M  V30 11075 O 1052.26 -1.41208 2.28722 0
M  V30 11076 C 1050.53 0.765652 3.49102 0
M  V30 11077 S 1052.09 0.490001 4.36056 0
M  V30 11078 H 1048.9 0.187522 0.685825 0
M  V30 11079 H 1051.51 1.13895 1.58897 0
M  V30 11080 H 1050.21 1.80688 3.68484 0
M  V30 11081 H 1049.74 0.117616 3.93224 0
M  V30 11082 H 1051.76 -0.673236 4.91612 0
M  V30 11083 N 1050.93 -1.4397 0.641131 0
M  V30 11084 C 1051.86 -2.33458 -0.04446 0
M  V30 11085 C 1052.84 -1.48781 -0.824507 0
M  V30 11086 O 1054.03 -1.77477 -0.788397 0
M  V30 11087 C 1051.16 -3.31989 -1.01984 0
M  V30 11088 C 1050.11 -4.2656 -0.350745 0
M  V30 11089 C 1049.44 -5.15036 -1.43673 0
M  V30 11090 C 1050.74 -5.16897 0.749299 0
M  V30 11091 H 1052.43 -2.91034 0.702832 0
M  V30 11092 H 1049.98 -1.39942 0.339435 0
M  V30 11093 H 1051.93 -3.93483 -1.50828 0
M  V30 11094 H 1050.65 -2.72643 -1.79815 0
M  V30 11095 H 1049.31 -3.66413 0.117139 0
M  V30 11096 H 1048.96 -4.52037 -2.20617 0
M  V30 11097 H 1048.66 -5.79125 -0.994358 0
M  V30 11098 H 1050.18 -5.79403 -1.92678 0
M  V30 11099 H 1051.6 -5.7227 0.343534 0
M  V30 11100 H 1049.99 -5.89643 1.11541 0
M  V30 11101 H 1051.06 -4.5731 1.61232 0
M  V30 11102 N 1052.41 -0.382291 -1.52893 0
M  V30 11103 C 1053.36 0.473026 -2.23039 0
M  V30 11104 C 1054.34 1.0353 -1.23168 0
M  V30 11105 O 1055.53 0.962566 -1.48538 0
M  V30 11106 C 1052.66 1.60349 -3.03551 0
M  V30 11107 C 1051.75 1.05329 -4.10812 0
M  V30 11108 N 1052.14 0.22746 -5.05288 0
M  V30 11109 C 1050.44 1.32648 -4.25818 0
M  V30 11110 C 1051.14 -0.0757032 -5.81651 0
M  V30 11111 N 1050.11 0.526387 -5.41045 0
M  V30 11112 H 1053.92 -0.164541 -2.93439 0
M  V30 11113 H 1051.43 -0.191211 -1.6127 0
M  V30 11114 H 1053.43 2.22858 -3.52335 0
M  V30 11115 H 1052.09 2.24394 -2.34685 0
M  V30 11116 H 1053.1 -0.134714 -5.17725 0
M  V30 11117 H 1049.78 1.96849 -3.6818 0
M  V30 11118 H 1051.17 -0.744375 -6.67764 0
M  V30 11119 N 1053.89 1.57202 -0.111913 0
M  V30 11120 C 1054.82 2.17957 0.837683 0
M  V30 11121 C 1055.8 1.1176 1.28233 0
M  V30 11122 O 1056.98 1.39967 1.34621 0
M  V30 11123 C 1054.11 2.77333 2.09054 0
M  V30 11124 C 1053.07 3.8905 1.78393 0
M  V30 11125 C 1052.39 4.35203 3.10649 0
M  V30 11126 C 1053.69 5.11477 1.05775 0
M  V30 11127 H 1055.39 2.9756 0.331441 0
M  V30 11128 H 1052.93 1.43131 0.157979 0
M  V30 11129 H 1054.88 3.18492 2.75936 0
M  V30 11130 H 1053.61 1.95009 2.6199 0
M  V30 11131 H 1052.27 3.48456 1.13903 0
M  V30 11132 H 1051.92 3.49747 3.61506 0
M  V30 11133 H 1051.62 5.10534 2.9091 0
M  V30 11134 H 1053.14 4.79007 3.78661 0
M  V30 11135 H 1054.55 5.497 1.62798 0
M  V30 11136 H 1052.95 5.92346 0.961573 0
M  V30 11137 H 1054.02 4.84881 0.043297 0
M  V30 11138 N 1055.36 -0.161842 1.56767 0
M  V30 11139 C 1056.29 -1.20226 2.0017 0
M  V30 11140 C 1057.27 -1.4564 0.878807 0
M  V30 11141 O 1058.46 -1.56813 1.14557 0
M  V30 11142 C 1055.59 -2.53897 2.36968 0
M  V30 11143 C 1054.54 -2.43033 3.52305 0
M  V30 11144 C 1053.87 -3.81281 3.74872 0
M  V30 11145 C 1055.17 -1.927 4.85453 0
M  V30 11146 H 1056.86 -0.84142 2.87333 0
M  V30 11147 H 1054.41 -0.403309 1.38237 0
M  V30 11148 H 1056.36 -3.26893 2.6593 0
M  V30 11149 H 1055.09 -2.91787 1.46724 0
M  V30 11150 H 1053.75 -1.7249 3.23485 0
M  V30 11151 H 1053.39 -4.1658 2.81904 0
M  V30 11152 H 1053.09 -3.74877 4.52483 0
M  V30 11153 H 1054.62 -4.55848 4.06245 0
M  V30 11154 H 1056.03 -2.55477 5.13229 0
M  V30 11155 H 1054.43 -1.97222 5.66766 0
M  V30 11156 H 1055.5 -0.881816 4.76814 0
M  V30 11157 N 1056.84 -1.516 -0.430713 0
M  V30 11158 C 1057.79 -1.73392 -1.52328 0
M  V30 11159 C 1058.76 -0.575758 -1.55802 0
M  V30 11160 O 1059.94 -0.810931 -1.72709 0
M  V30 11161 C 1057.08 -1.87092 -2.89984 0
M  V30 11162 C 1056.2 -3.14668 -2.95987 0
M  V30 11163 C 1055.33 -3.18923 -4.24807 0
M  V30 11164 C 1054.37 -4.40787 -4.24703 0
M  V30 11165 N 1053.51 -4.42556 -5.45059 0
M  V30 11166 H 1058.35 -2.6665 -1.33048 0
M  V30 11167 H 1055.88 -1.32146 -0.646207 0
M  V30 11168 H 1057.84 -1.93017 -3.69865 0
M  V30 11169 H 1056.47 -0.972363 -3.07807 0
M  V30 11170 H 1055.52 -3.1802 -2.08728 0
M  V30 11171 H 1056.84 -4.04562 -2.91772 0
M  V30 11172 H 1055.99 -3.23801 -5.13067 0
M  V30 11173 H 1054.73 -2.2693 -4.31688 0
M  V30 11174 H 1053.73 -4.36079 -3.34836 0
M  V30 11175 H 1054.96 -5.34053 -4.19481 0
M  V30 11176 H 1052.91 -3.53435 -5.52648 0
M  V30 11177 H 1052.82 -5.26267 -5.42751 0
M  V30 11178 H 1054.09 -4.51634 -6.35332 0
M  V30 11179 N 1058.32 0.686584 -1.41858 0
M  V30 11180 C 1059.57 1.44879 -1.41908 0
M  V30 11181 C 1059.9 1.94175 -0.0311408 0
M  V30 11182 O 1059.17 1.70131 0.942646 0
M  V30 11183 C 1059.46 2.65428 -2.43352 0
M  V30 11184 C 1059.31 2.2184 -3.91289 0
M  V30 11185 C 1060.63 3.67635 -2.41934 0
M  V30 11186 H 1057.75 0.525477 -0.516762 0
M  V30 11187 H 1060.39 0.781263 -1.73194 0
M  V30 11188 H 1058.54 3.2238 -2.16803 0
M  V30 11189 H 1060.21 1.70146 -4.28775 0
M  V30 11190 H 1058.45 1.53531 -4.05722 0
M  V30 11191 H 1059.13 3.08376 -4.5783 0
M  V30 11192 H 1061.6 3.20376 -2.65516 0
M  V30 11193 H 1060.48 4.49579 -3.14913 0
M  V30 11194 H 1060.74 4.17953 -1.44111 0
M  V30 11195 N 1059.8 1.27835 0.921735 0
M  V30 11196 C 1060.73 1.136 2.04003 0
M  V30 11197 C 1061.71 0.0358756 1.70062 0
M  V30 11198 O 1062.89 0.211438 1.93046 0
M  V30 11199 C 1060.02 0.788697 3.38226 0
M  V30 11200 C 1058.98 1.84272 3.863 0
M  V30 11201 C 1058.3 1.34923 5.17397 0
M  V30 11202 C 1059.6 3.24788 4.09035 0
M  V30 11203 H 1061.3 2.07149 2.1617 0
M  V30 11204 H 1058.84 0.997349 1.0387 0
M  V30 11205 H 1060.8 0.675911 4.15944 0
M  V30 11206 H 1059.52 -0.182499 3.2609 0
M  V30 11207 H 1058.18 1.94451 3.1078 0
M  V30 11208 H 1057.83 0.367328 5.01657 0
M  V30 11209 H 1057.53 2.05397 5.50532 0
M  V30 11210 H 1059.05 1.24951 5.97678 0
M  V30 11211 H 1060.47 3.17575 4.77304 0
M  V30 11212 H 1058.86 3.93025 4.53488 0
M  V30 11213 H 1059.93 3.69398 3.14122 0
M  V30 11214 N 1061.28 -1.12907 1.09954 0
M  V30 11215 C 1062.51 -1.87866 0.859656 0
M  V30 11216 C 1062.91 -1.79664 -0.593096 0
M  V30 11217 O 1062.26 -1.16499 -1.42034 0
M  V30 11218 C 1062.32 -3.38055 1.22308 0
M  V30 11219 C 1061.98 -3.70035 2.68185 0
M  V30 11220 C 1062.98 -3.68817 3.66428 0
M  V30 11221 C 1060.66 -3.99523 3.04444 0
M  V30 11222 C 1062.66 -3.96639 4.98955 0
M  V30 11223 C 1060.35 -4.27006 4.37161 0
M  V30 11224 C 1061.34 -4.25549 5.34225 0
M  V30 11225 O 1061.03 -4.52354 6.64553 0
M  V30 11226 H 1060.76 -0.601425 0.308649 0
M  V30 11227 H 1063.32 -1.43817 1.46649 0
M  V30 11228 H 1061.55 -3.82634 0.559322 0
M  V30 11229 H 1063.24 -3.94348 0.961479 0
M  V30 11230 H 1064 -3.46104 3.3976 0
M  V30 11231 H 1059.88 -3.99801 2.29521 0
M  V30 11232 H 1063.43 -3.95418 5.74709 0
M  V30 11233 H 1059.32 -4.49192 4.6357 0
M  V30 11234 H 1060.09 -4.69997 6.70108 0
M  V30 11235 N 1062.75 -0.88754 -1.30232 0
M  V30 11236 C 1063.98 -0.521562 -2.00735 0
M  V30 11237 C 1064.4 0.883247 -1.66073 0
M  V30 11238 O 1063.76 1.58581 -0.878731 0
M  V30 11239 C 1063.81 -0.706521 -3.53611 0
M  V30 11240 O 1062.91 0.246447 -4.11663 0
M  V30 11241 H 1062.25 -0.205216 -0.631492 0
M  V30 11242 H 1064.78 -1.19579 -1.66018 0
M  V30 11243 H 1064.79 -0.606501 -4.03467 0
M  V30 11244 H 1063.47 -1.73076 -3.78177 0
M  V30 11245 H 1062.05 0.0999062 -3.72766 0
M  V30 11246 N 1064.23 1.43628 -0.648757 0
M  V30 11247 C 1065.47 2.03742 -0.163878 0
M  V30 11248 C 1065.84 1.50047 1.19791 0
M  V30 11249 O 1067.04 2.01777 1.77594 0
M  V30 11250 C 1065.31 3.57001 -0.168849 0
M  V30 11251 S 1066.87 4.38094 0.248835 0
M  V30 11252 H 1063.69 0.70757 -0.0697515 0
M  V30 11253 H 1066.29 1.75759 -0.856094 0
M  V30 11254 H 1064.99 3.93583 -1.16277 0
M  V30 11255 H 1064.52 3.8962 0.544048 0
M  V30 11256 H 1066.54 4.73338 1.48882 0
M  V30 11257 N 1065.71 0.390394 1.52688 0
M  V30 11258 C 1066.95 -0.191207 2.03504 0
M  V30 11259 C 1067.31 -1.43952 1.27051 0
M  V30 11260 O 1068.52 -2.09835 1.67996 0
M  V30 11261 C 1066.79 -0.451552 3.54536 0
M  V30 11262 S 1068.35 -1.00328 4.27176 0
M  V30 11263 H 1065.16 -0.0537587 0.708965 0
M  V30 11264 H 1067.77 0.538993 1.87923 0
M  V30 11265 H 1066.47 0.464061 4.07768 0
M  V30 11266 H 1066 -1.21015 3.74325 0
M  V30 11267 H 1068.02 -2.28555 4.40428 0
M  V30 11268 N 1067.19 -1.57141 0.120249 0
M  V30 11269 C 1068.12 -2.18398 -0.826112 0
M  V30 11270 C 1069.1 -1.12439 -1.27638 0
M  V30 11271 O 1070.28 -1.40679 -1.33877 0
M  V30 11272 C 1067.41 -2.78438 -2.0758 0
M  V30 11273 C 1066.37 -3.89991 -1.76327 0
M  V30 11274 C 1065.69 -4.36844 -3.08336 0
M  V30 11275 C 1066.99 -5.12031 -1.03062 0
M  V30 11276 H 1068.69 -2.97731 -0.315656 0
M  V30 11277 H 1066.23 -1.43213 -0.150387 0
M  V30 11278 H 1068.19 -3.19951 -2.74243 0
M  V30 11279 H 1066.91 -1.96396 -2.60953 0
M  V30 11280 H 1065.57 -3.49055 -1.12053 0
M  V30 11281 H 1065.22 -3.51659 -3.59646 0
M  V30 11282 H 1064.92 -5.1207 -2.88199 0
M  V30 11283 H 1066.44 -4.81009 -3.76116 0
M  V30 11284 H 1067.86 -5.50555 -1.59881 0
M  V30 11285 H 1066.25 -5.92848 -0.930146 0
M  V30 11286 H 1067.32 -4.84897 -0.017582 0
M  V30 11287 N 1068.67 0.153526 -1.5685 0
M  V30 11288 C 1069.91 0.868517 -1.83261 0
M  V30 11289 C 1070.25 1.81112 -0.700857 0
M  V30 11290 O 1069.52 1.92235 0.295989 0
M  V30 11291 C 1069.8 1.6487 -3.2014 0
M  V30 11292 C 1069.66 0.728021 -4.43869 0
M  V30 11293 C 1070.98 2.61259 -3.54163 0
M  V30 11294 H 1068.09 0.314297 -0.666623 0
M  V30 11295 H 1070.74 0.133971 -1.89527 0
M  V30 11296 H 1068.89 2.2749 -3.1493 0
M  V30 11297 H 1070.56 0.113328 -4.61161 0
M  V30 11298 H 1068.8 0.0371744 -4.33784 0
M  V30 11299 H 1069.47 1.30981 -5.36235 0
M  V30 11300 H 1071.95 2.0876 -3.59942 0
M  V30 11301 H 1070.82 3.12902 -4.50981 0
M  V30 11302 H 1071.09 3.42307 -2.79782 0
M  V30 11303 N 1070.14 1.51827 0.422667 0
M  V30 11304 C 1071.37 1.69337 1.19748 0
M  V30 11305 C 1071.79 0.396312 1.83878 0
M  V30 11306 O 1071.15 -0.644976 1.6944 0
M  V30 11307 C 1071.2 2.82082 2.24637 0
M  V30 11308 O 1070.3 2.46708 3.30468 0
M  V30 11309 H 1069.65 0.564154 0.35018 0
M  V30 11310 H 1072.18 1.98465 0.497289 0
M  V30 11311 H 1072.19 3.06599 2.69186 0
M  V30 11312 H 1070.86 3.76195 1.77341 0
M  V30 11313 H 1069.44 2.32815 2.91293 0
M  V30 11314 N 1071.62 -0.679052 1.4222 0
M  V30 11315 C 1072.53 -1.82221 1.47759 0
M  V30 11316 C 1073.55 -1.70092 0.3667 0
M  V30 11317 O 1074.72 -1.91718 0.616957 0
M  V30 11318 C 1071.79 -3.18332 1.37351 0
M  V30 11319 C 1070.85 -3.42449 2.58896 0
M  V30 11320 C 1070.08 -4.72067 2.48976 0
M  V30 11321 O 1070.31 -5.49683 1.5233 0
M  V30 11322 O 1069.24 -4.97333 3.39033 0
M  V30 11323 H 1073.07 -1.80504 2.44238 0
M  V30 11324 H 1070.65 -0.834251 1.23938 0
M  V30 11325 H 1072.53 -3.99563 1.33893 0
M  V30 11326 H 1071.21 -3.20696 0.439965 0
M  V30 11327 H 1070.12 -2.61083 2.6793 0
M  V30 11328 H 1071.45 -3.44912 3.51136 0
M  V30 11329 N 1073.1 -1.28322 -0.914942 0
M  V30 11330 C 1074.35 -1.15179 -1.66067 0
M  V30 11331 C 1074.67 0.300279 -1.92674 0
M  V30 11332 O 1073.94 1.20821 -1.54205 0
M  V30 11333 H 1072.52 -0.423264 -0.615513 0
M  V30 11334 H 1075.18 -1.61034 -1.09791 0
M  V30 11335 H 1074.28 -1.69048 -2.62353 0
M  V30 11336 N 1074.58 1.12322 -1.10551 0
M  V30 11337 C 1075.51 2.20176 -0.777486 0
M  V30 11338 C 1076.49 1.68252 0.250069 0
M  V30 11339 O 1077.67 1.93856 0.115574 0
M  V30 11340 C 1074.8 3.46666 -0.209822 0
M  V30 11341 C 1073.76 4.11749 -1.1682 0
M  V30 11342 C 1073.08 5.32703 -0.461684 0
M  V30 11343 C 1074.38 4.57746 -2.51527 0
M  V30 11344 H 1076.08 2.47872 -1.67928 0
M  V30 11345 H 1073.62 1.19136 -0.808863 0
M  V30 11346 H 1075.58 4.21388 0.0318068 0
M  V30 11347 H 1074.3 3.18401 0.727226 0
M  V30 11348 H 1072.96 3.39009 -1.3953 0
M  V30 11349 H 1072.61 5.00706 0.479875 0
M  V30 11350 H 1072.31 5.77197 -1.1008 0
M  V30 11351 H 1073.83 6.10172 -0.228629 0
M  V30 11352 H 1075.25 5.23835 -2.32958 0
M  V30 11353 H 1073.64 5.13021 -3.11335 0
M  V30 11354 H 1074.71 3.71667 -3.11435 0
M  V30 11355 N 1076.06 0.894434 1.2976 0
M  V30 11356 C 1077.3 0.524501 1.97556 0
M  V30 11357 C 1077.66 -0.911202 1.69 0
M  V30 11358 O 1078.86 -1.38774 2.30207 0
M  V30 11359 C 1077.13 0.802636 3.48271 0
M  V30 11360 S 1078.69 0.536223 4.35511 0
M  V30 11361 H 1075.51 0.194786 0.683798 0
M  V30 11362 H 1078.11 1.15574 1.5768 0
M  V30 11363 H 1076.82 1.84586 3.66546 0
M  V30 11364 H 1076.35 0.159316 3.93077 0
M  V30 11365 H 1078.36 -0.621056 4.92298 0
M  V30 11366 N 1077.53 -1.43282 0.656365 0
M  V30 11367 C 1078.95 -1.56272 0.324213 0
M  V30 11368 C 1079.15 -1.63946 -1.1715 0
M  V30 11369 O 1078.21 -1.59625 -1.95643 0
M  V30 11370 C 1079.52 -2.82204 1.03833 0
M  V30 11371 C 1081.07 -2.95952 1.01889 0
M  V30 11372 C 1081.54 -4.2472 1.71397 0
M  V30 11373 N 1083.03 -4.31591 1.68176 0
M  V30 11374 C 1083.77 -5.30001 2.1883 0
M  V30 11375 N 1083.26 -6.34671 2.77785 0
M  V30 11376 N 1085.06 -5.21676 2.09311 0
M  V30 11377 H 1077.21 -1.36544 1.62694 0
M  V30 11378 H 1079.47 -0.655999 0.684375 0
M  V30 11379 H 1079.18 -2.82608 2.09346 0
M  V30 11380 H 1079.05 -3.72527 0.591878 0
M  V30 11381 H 1081.44 -2.95087 -0.0278431 0
M  V30 11382 H 1081.52 -2.0691 1.50406 0
M  V30 11383 H 1081.16 -4.26346 2.76028 0
M  V30 11384 H 1081.09 -5.12665 1.20342 0
M  V30 11385 H 1083.58 -3.56573 1.25157 0
M  V30 11386 H 1083.9 -7.06087 3.14104 0
M  V30 11387 H 1082.24 -6.35285 2.81847 0
M  V30 11388 H 1085.43 -4.3882 1.62955 0
M  V30 11389 H 1085.61 -5.9821 2.49095 0
M  V30 11390 N 1079.01 -0.398486 -1.52479 0
M  V30 11391 C 1079.94 0.423498 -2.29627 0
M  V30 11392 C 1080.92 1.05547 -1.33394 0
M  V30 11393 O 1082.11 1.0665 -1.62294 0
M  V30 11394 C 1079.24 1.54612 -3.10986 0
M  V30 11395 C 1078.19 1.03971 -4.15179 0
M  V30 11396 C 1077.52 2.25512 -4.84818 0
M  V30 11397 C 1078.82 0.10121 -5.22202 0
M  V30 11398 H 1080.51 -0.220222 -2.98589 0
M  V30 11399 H 1078.06 -0.107355 -1.43599 0
M  V30 11400 H 1080.01 2.12806 -3.63719 0
M  V30 11401 H 1078.74 2.21756 -2.39774 0
M  V30 11402 H 1077.4 0.480251 -3.63441 0
M  V30 11403 H 1077.04 2.91187 -4.10145 0
M  V30 11404 H 1076.74 1.92285 -5.55248 0
M  V30 11405 H 1078.27 2.84331 -5.40359 0
M  V30 11406 H 1079.68 0.591617 -5.70239 0
M  V30 11407 H 1078.08 -0.141737 -5.99933 0
M  V30 11408 H 1079.15 -0.847216 -4.77441 0
M  V30 11409 N 1080.49 1.57075 -0.12858 0
M  V30 11410 C 1081.42 2.18833 0.814519 0
M  V30 11411 C 1082.4 1.13114 1.2704 0
M  V30 11412 O 1083.59 1.41387 1.33129 0
M  V30 11413 C 1080.72 2.79535 2.06101 0
M  V30 11414 C 1079.67 3.9092 1.74257 0
M  V30 11415 C 1079 4.38473 3.06015 0
M  V30 11416 C 1080.3 5.1257 1.00345 0
M  V30 11417 H 1081.99 2.97895 0.299862 0
M  V30 11418 H 1079.54 1.4329 0.14279 0
M  V30 11419 H 1081.49 3.21401 2.72543 0
M  V30 11420 H 1080.21 1.97777 2.59907 0
M  V30 11421 H 1078.87 3.49645 1.102 0
M  V30 11422 H 1078.52 3.53561 3.57776 0
M  V30 11423 H 1078.22 5.13591 2.85479 0
M  V30 11424 H 1079.75 4.82997 3.7356 0
M  V30 11425 H 1081.16 5.51395 1.56959 0
M  V30 11426 H 1079.56 5.93333 0.898693 0
M  V30 11427 H 1080.63 4.84899 -0.0081335 0
M  V30 11428 N 1081.97 -0.145205 1.5693 0
M  V30 11429 C 1083.22 -0.855822 1.83085 0
M  V30 11430 C 1083.54 -1.81625 0.709747 0
M  V30 11431 O 1082.81 -1.94052 -0.268456 0
M  V30 11432 H 1081.39 -0.319032 0.675446 0
M  V30 11433 H 1084.05 -0.138781 1.94405 0
M  V30 11434 H 1083.15 -1.41698 2.78079 0
M  V30 11435 N 1083.45 -1.52049 -0.414609 0
M  V30 11436 C 1084.38 -1.7122 -1.52369 0
M  V30 11437 C 1085.39 -0.592634 -1.5163 0
M  V30 11438 O 1086.58 -0.867634 -1.55995 0
M  V30 11439 C 1083.68 -1.73247 -2.91271 0
M  V30 11440 C 1082.85 -3.02153 -3.16263 0
M  V30 11441 C 1081.91 -2.96066 -4.35007 0
M  V30 11442 O 1080.94 -3.69981 -4.32554 0
M  V30 11443 N 1082.14 -2.13478 -5.39822 0
M  V30 11444 H 1084.91 -2.66902 -1.3632 0
M  V30 11445 H 1082.47 -1.50218 -0.603842 0
M  V30 11446 H 1084.46 -1.66714 -3.68766 0
M  V30 11447 H 1083.03 -0.85062 -3.00804 0
M  V30 11448 H 1082.25 -3.22379 -2.2686 0
M  V30 11449 H 1083.54 -3.87439 -3.29801 0
M  V30 11450 H 1082.94 -1.52844 -5.44661 0
M  V30 11451 H 1081.49 -2.12805 -6.16082 0
M  V30 11452 N 1084.93 0.6715 -1.42579 0
M  V30 11453 C 1085.84 1.81435 -1.48723 0
M  V30 11454 C 1086.85 1.69895 -0.375716 0
M  V30 11455 O 1088.03 1.91388 -0.627115 0
M  V30 11456 C 1085.09 3.17599 -1.39038 0
M  V30 11457 C 1084.15 3.41071 -2.60709 0
M  V30 11458 C 1083.39 4.7074 -2.51476 0
M  V30 11459 O 1083.61 5.48868 -1.55243 0
M  V30 11460 O 1082.54 4.95528 -3.41666 0
M  V30 11461 H 1086.37 1.79206 -2.45191 0
M  V30 11462 H 1083.95 0.827666 -1.24379 0
M  V30 11463 H 1085.84 3.98847 -1.3601 0
M  V30 11464 H 1084.51 3.20458 -0.456966 0
M  V30 11465 H 1083.42 2.59659 -2.69311 0
M  V30 11466 H 1084.75 3.43045 -3.5296 0
M  V30 11467 N 1086.4 1.28806 0.908124 0
M  V30 11468 C 1087.81 1.14719 1.47297 0
M  V30 11469 C 1088.17 -0.260763 1.94459 0
M  V30 11470 O 1087.29 -1.15553 1.82966 0
M  V30 11471 C 1087.89 2.07643 2.67712 0
M  V30 11472 C 1086.44 1.97605 3.20358 0
M  V30 11473 C 1085.59 1.99058 1.93058 0
M  V30 11474 H 1088.54 1.41413 0.720283 0
M  V30 11475 H 1088.56 1.64372 3.43165 0
M  V30 11476 H 1088.08 3.10108 2.33355 0
M  V30 11477 H 1086.18 0.981982 3.59427 0
M  V30 11478 H 1086.29 2.84846 3.85226 0
M  V30 11479 H 1084.65 1.43541 2.104 0
M  V30 11480 H 1085.44 3.03212 1.60989 0
M  V30 11481 N 1087.88 -1.11734 1.11145 0
M  V30 11482 C 1088.81 -2.1976 0.789152 0
M  V30 11483 C 1089.79 -1.68382 -0.241143 0
M  V30 11484 O 1090.98 -1.93914 -0.105292 0
M  V30 11485 C 1088.11 -3.46549 0.228204 0
M  V30 11486 C 1087.06 -4.11123 1.19002 0
M  V30 11487 C 1086.39 -5.32451 0.489928 0
M  V30 11488 C 1087.69 -4.56406 2.53951 0
M  V30 11489 H 1089.38 -2.46978 1.69241 0
M  V30 11490 H 1086.93 -1.18705 0.81517 0
M  V30 11491 H 1088.88 -4.21399 -0.00945908 0
M  V30 11492 H 1087.6 -3.18782 -0.71033 0
M  V30 11493 H 1086.26 -3.38264 1.41326 0
M  V30 11494 H 1085.91 -5.00953 -0.453315 0
M  V30 11495 H 1085.61 -5.76605 1.1314 0
M  V30 11496 H 1087.14 -6.10042 0.260984 0
M  V30 11497 H 1088.55 -5.22592 2.35733 0
M  V30 11498 H 1086.95 -5.11363 3.14051 0
M  V30 11499 H 1088.02 -3.7001 3.13402 0
M  V30 11500 N 1089.36 -0.901303 -1.29284 0
M  V30 11501 C 1090.32 -0.385081 -2.25942 0
M  V30 11502 C 1091.32 0.481626 -1.53418 0
M  V30 11503 O 1092.51 0.286451 -1.71829 0
M  V30 11504 C 1089.64 0.449319 -3.37926 0
M  V30 11505 H 1090.84 -1.23877 -2.7312 0
M  V30 11506 H 1088.39 -0.679586 -1.40753 0
M  V30 11507 H 1089.13 1.32292 -2.9609 0
M  V30 11508 H 1088.91 -0.171731 -3.91724 0
M  V30 11509 H 1090.4 0.801746 -4.09831 0
M  V30 11510 N 1090.84 1.42931 -0.663954 0
M  V30 11511 C 1091.77 2.33499 0.00731327 0
M  V30 11512 C 1092.75 1.50074 0.800733 0
M  V30 11513 O 1093.93 1.78708 0.760062 0
M  V30 11514 C 1091.06 3.33569 0.966897 0
M  V30 11515 C 1090.02 4.27064 0.282839 0
M  V30 11516 C 1089.34 5.17257 1.35461 0
M  V30 11517 C 1090.64 5.1564 -0.831438 0
M  V30 11518 H 1092.34 2.89879 -0.749044 0
M  V30 11519 H 1089.88 1.39385 -0.361656 0
M  V30 11520 H 1091.84 3.95833 1.44549 0
M  V30 11521 H 1090.56 2.75469 1.75455 0
M  V30 11522 H 1089.22 3.6618 -0.175417 0
M  V30 11523 H 1088.87 4.5549 2.13397 0
M  V30 11524 H 1088.57 5.80634 0.902098 0
M  V30 11525 H 1090.09 5.82395 1.83436 0
M  V30 11526 H 1091.51 5.71651 -0.434534 0
M  V30 11527 H 1089.9 5.87794 -1.20908 0
M  V30 11528 H 1090.97 4.54687 -1.68487 0
M  V30 11529 N 1092.32 0.406567 1.52266 0
M  V30 11530 C 1093.23 -0.4271 2.30679 0
M  V30 11531 C 1094.24 -1.0559 1.383 0
M  V30 11532 O 1095.42 -1.05797 1.71374 0
M  V30 11533 C 1092.48 -1.53008 3.1111 0
M  V30 11534 C 1091.54 -0.924604 4.19225 0
M  V30 11535 C 1090.78 -1.97502 4.95811 0
M  V30 11536 O 1091 -3.19277 4.72671 0
M  V30 11537 O 1089.93 -1.58268 5.80719 0
M  V30 11538 H 1093.76 0.212187 3.02958 0
M  V30 11539 H 1091.34 0.169835 1.48432 0
M  V30 11540 H 1093.23 -2.17046 3.61205 0
M  V30 11541 H 1091.9 -2.15401 2.41628 0
M  V30 11542 H 1090.81 -0.247009 3.73284 0
M  V30 11543 H 1092.14 -0.34463 4.90992 0
M  V30 11544 N 1093.79 -1.57004 0.136909 0
M  V30 11545 C 1095.02 -2.00587 -0.527209 0
M  V30 11546 C 1095.44 -1.01628 -1.58283 0
M  V30 11547 O 1094.8 0.00946934 -1.81298 0
M  V30 11548 C 1094.85 -3.42967 -1.11384 0
M  V30 11549 O 1093.95 -3.46973 -2.22898 0
M  V30 11550 H 1093.3 -0.651155 -0.129976 0
M  V30 11551 H 1095.83 -2.03296 0.230667 0
M  V30 11552 H 1095.84 -3.81555 -1.44499 0
M  V30 11553 H 1094.51 -4.14502 -0.340736 0
M  V30 11554 H 1093.09 -3.20219 -1.91087 0
M  V30 11555 N 1095.27 0.136881 -1.57004 0
M  V30 11556 C 1096.2 1.17026 -2.02057 0
M  V30 11557 C 1097.18 1.44223 -0.901866 0
M  V30 11558 O 1098.37 1.54971 -1.17037 0
M  V30 11559 C 1095.5 2.50095 -2.40977 0
M  V30 11560 C 1094.45 2.37398 -3.56127 0
M  V30 11561 C 1093.78 3.75268 -3.80891 0
M  V30 11562 C 1095.08 1.84952 -4.88457 0
M  V30 11563 H 1096.77 0.795601 -2.88636 0
M  V30 11564 H 1094.32 0.381266 -1.38861 0
M  V30 11565 H 1096.27 3.22621 -2.71097 0
M  V30 11566 H 1095 2.89416 -1.51348 0
M  V30 11567 H 1093.65 1.67322 -3.26188 0
M  V30 11568 H 1093.3 4.12043 -2.88496 0
M  V30 11569 H 1093 3.67631 -4.5839 0
M  V30 11570 H 1094.53 4.49327 -4.13446 0
M  V30 11571 H 1095.94 2.4728 -5.17229 0
M  V30 11572 H 1094.34 1.88181 -5.69832 0
M  V30 11573 H 1095.41 0.805848 -4.78157 0
M  V30 11574 N 1096.75 1.52266 0.40654 0
M  V30 11575 C 1098 1.66452 1.15325 0
M  V30 11576 C 1098.33 0.395728 1.90432 0
M  V30 11577 O 1097.58 -0.621382 1.85573 0
M  V30 11578 C 1097.88 2.8389 2.1712 0
M  V30 11579 C 1097.55 4.22011 1.58801 0
M  V30 11580 C 1096.21 4.59579 1.42621 0
M  V30 11581 C 1098.56 5.08074 1.16236 0
M  V30 11582 C 1095.89 5.80885 0.823967 0
M  V30 11583 C 1098.24 6.29988 0.574284 0
M  V30 11584 C 1096.9 6.66303 0.399638 0
M  V30 11585 H 1096.17 0.609092 0.422005 0
M  V30 11586 H 1098.82 1.86374 0.440131 0
M  V30 11587 H 1097.13 2.58314 2.94586 0
M  V30 11588 H 1098.82 2.92063 2.74774 0
M  V30 11589 H 1095.41 3.92408 1.72378 0
M  V30 11590 H 1099.6 4.79631 1.27544 0
M  V30 11591 H 1094.85 6.07644 0.676694 0
M  V30 11592 H 1099.03 6.96 0.236081 0
M  V30 11593 H 1096.65 7.60169 -0.0691262 0
M  V30 11594 N 1098.23 -0.663929 1.42933 0
M  V30 11595 C 1099.16 -1.78876 1.41699 0
M  V30 11596 C 1100.14 -1.60174 0.27981 0
M  V30 11597 O 1101.32 -1.82502 0.471735 0
M  V30 11598 C 1098.45 -3.1603 1.2183 0
M  V30 11599 C 1097.5 -3.53457 2.38685 0
M  V30 11600 S 1098.33 -3.54648 4.01229 0
M  V30 11601 C 1099.49 -4.94477 3.83723 0
M  V30 11602 H 1099.72 -1.7965 2.36882 0
M  V30 11603 H 1097.25 -0.835596 1.29835 0
M  V30 11604 H 1099.21 -3.95193 1.11054 0
M  V30 11605 H 1097.87 -3.1283 0.282139 0
M  V30 11606 H 1097.06 -4.53178 2.20559 0
M  V30 11607 H 1096.67 -2.81681 2.46032 0
M  V30 11608 H 1098.96 -5.82851 3.45386 0
M  V30 11609 H 1099.9 -5.17652 4.83158 0
M  V30 11610 H 1100.31 -4.67507 3.16382 0
M  V30 11611 N 1099.71 -1.29285 -0.901281 0
M  V30 11612 C 1100.64 -1.16832 -2.0217 0
M  V30 11613 C 1101.62 -0.0629265 -1.69984 0
M  V30 11614 O 1102.8 -0.242123 -1.92685 0
M  V30 11615 C 1099.93 -0.842406 -3.36929 0
M  V30 11616 C 1098.89 -1.90394 -3.8332 0
M  V30 11617 C 1098.21 -1.43138 -5.15185 0
M  V30 11618 C 1099.51 -3.31254 -4.03817 0
M  V30 11619 H 1101.21 -2.10562 -2.12847 0
M  V30 11620 H 1098.75 -1.01375 -1.0227 0
M  V30 11621 H 1100.71 -0.741999 -4.14816 0
M  V30 11622 H 1099.43 0.130598 -3.26339 0
M  V30 11623 H 1098.09 -1.99371 -3.07647 0
M  V30 11624 H 1097.74 -0.447091 -5.01009 0
M  V30 11625 H 1097.44 -2.14129 -5.47195 0
M  V30 11626 H 1098.96 -1.34444 -5.95615 0
M  V30 11627 H 1100.37 -3.25129 -4.72191 0
M  V30 11628 H 1098.77 -4.00189 -4.47178 0
M  V30 11629 H 1099.84 -3.74349 -3.08206 0
M  V30 11630 N 1101.18 1.11143 -1.11736 0
M  V30 11631 C 1102.43 1.82311 -0.862875 0
M  V30 11632 C 1102.75 1.85735 0.613326 0
M  V30 11633 O 1103.95 2.53034 0.984168 0
M  V30 11634 C 1102.41 3.27427 -1.49396 0
M  V30 11635 C 1102.02 3.32323 -3.00443 0
M  V30 11636 C 1103.76 4.03474 -1.31944 0
M  V30 11637 C 1101.67 4.71855 -3.56521 0
M  V30 11638 H 1100.6 0.683124 -0.31915 0
M  V30 11639 H 1103.25 1.25045 -1.34298 0
M  V30 11640 H 1101.63 3.84644 -0.941528 0
M  V30 11641 H 1102.8 2.84971 -3.62117 0
M  V30 11642 H 1101.12 2.69758 -3.17206 0
M  V30 11643 H 1103.72 5.06528 -1.71271 0
M  V30 11644 H 1104.06 4.15473 -0.262339 0
M  V30 11645 H 1104.59 3.52652 -1.84069 0
M  V30 11646 H 1101.33 4.65054 -4.61958 0
M  V30 11647 H 1100.85 5.19604 -2.99619 0
M  V30 11648 H 1102.53 5.40816 -3.55144 0
M  V30 11649 N 1102.66 0.908147 1.28804 0
M  V30 11650 C 1103.59 0.34957 2.26519 0
M  V30 11651 C 1104.61 -0.508845 1.54643 0
M  V30 11652 O 1105.8 -0.324633 1.75523 0
M  V30 11653 C 1102.9 -0.519461 3.34895 0
M  V30 11654 C 1102.07 0.315157 4.36263 0
M  V30 11655 C 1101.13 -0.488059 5.23932 0
M  V30 11656 O 1100.15 0.0974133 5.69117 0
M  V30 11657 N 1101.36 -1.79233 5.52137 0
M  V30 11658 H 1104.12 1.18945 2.75086 0
M  V30 11659 H 1101.68 0.77351 1.42227 0
M  V30 11660 H 1103.67 -1.0634 3.90479 0
M  V30 11661 H 1102.24 -1.26004 2.8608 0
M  V30 11662 H 1101.46 1.04049 3.8022 0
M  V30 11663 H 1102.75 0.886438 5.01019 0
M  V30 11664 H 1102.15 -2.2906 5.1725 0
M  V30 11665 H 1100.71 -2.28322 6.10502 0
M  V30 11666 N 1104.14 -1.42577 0.671525 0
M  V30 11667 C 1105.39 -2.01185 0.192051 0
M  V30 11668 C 1105.71 -1.53349 -1.20454 0
M  V30 11669 O 1104.98 -0.753781 -1.80817 0
M  V30 11670 H 1103.56 -0.743898 0.0680106 0
M  V30 11671 H 1106.22 -1.74539 0.8673 0
M  V30 11672 H 1105.32 -3.11516 0.190796 0
M  V30 11673 N 1105.62 -0.414636 -1.52048 0
M  V30 11674 C 1106.57 0.408141 -2.27163 0
M  V30 11675 C 1107.54 1.03636 -1.29803 0
M  V30 11676 O 1108.72 1.05959 -1.58674 0
M  V30 11677 C 1105.86 1.51588 -3.10024 0
M  V30 11678 C 1104.97 0.908034 -4.22349 0
M  V30 11679 C 1104.11 1.98893 -4.9256 0
M  V30 11680 C 1103.15 1.35831 -5.96839 0
M  V30 11681 N 1102.28 2.37958 -6.60545 0
M  V30 11682 H 1107.12 -0.238822 -2.97041 0
M  V30 11683 H 1104.66 -0.129614 -1.46528 0
M  V30 11684 H 1106.62 2.16916 -3.56375 0
M  V30 11685 H 1105.25 2.13279 -2.42305 0
M  V30 11686 H 1104.3 0.143652 -3.80129 0
M  V30 11687 H 1105.61 0.407426 -4.97133 0
M  V30 11688 H 1104.77 2.71935 -5.42343 0
M  V30 11689 H 1103.51 2.5232 -4.17356 0
M  V30 11690 H 1102.51 0.613246 -5.46369 0
M  V30 11691 H 1103.74 0.831655 -6.73988 0
M  V30 11692 H 1101.68 2.90508 -5.88167 0
M  V30 11693 H 1101.6 1.92725 -7.31022 0
M  V30 11694 H 1102.87 3.10553 -7.14966 0
M  V30 11695 N 1107.1 1.56929 -0.145233 0
M  V30 11696 C 1108.34 1.96358 0.50707 0
M  V30 11697 C 1108.68 1.03005 1.64632 0
M  V30 11698 O 1107.95 0.0721045 1.94366 0
M  V30 11699 C 1108.23 3.45502 1.01492 0
M  V30 11700 C 1108.09 4.49633 -0.122708 0
M  V30 11701 C 1109.41 3.97103 1.89729 0
M  V30 11702 H 1106.52 0.713958 0.182848 0
M  V30 11703 H 1109.17 1.8865 -0.226102 0
M  V30 11704 H 1107.32 3.52202 1.6397 0
M  V30 11705 H 1108.99 4.55013 -0.758988 0
M  V30 11706 H 1107.23 4.26691 -0.782109 0
M  V30 11707 H 1107.9 5.51318 0.27432 0
M  V30 11708 H 1110.38 3.92871 1.37082 0
M  V30 11709 H 1109.25 5.01927 2.22173 0
M  V30 11710 H 1109.52 3.39354 2.83357 0
M  V30 11711 N 1108.58 -0.128553 1.57075 0
M  V30 11712 C 1109.52 -1.15812 1.9964 0
M  V30 11713 C 1110.49 -1.41679 0.86696 0
M  V30 11714 O 1111.68 -1.53705 1.13046 0
M  V30 11715 C 1108.82 -2.48198 2.39774 0
M  V30 11716 C 1107.93 -2.29348 3.66092 0
M  V30 11717 C 1107.07 -3.54898 3.95248 0
M  V30 11718 C 1106.1 -3.31164 5.14779 0
M  V30 11719 N 1105.24 -4.48891 5.39853 0
M  V30 11720 H 1110.08 -0.788136 2.87389 0
M  V30 11721 H 1107.62 -0.377682 1.42169 0
M  V30 11722 H 1109.58 -3.25414 2.61077 0
M  V30 11723 H 1108.21 -2.83108 1.5508 0
M  V30 11724 H 1107.26 -1.43095 3.5246 0
M  V30 11725 H 1108.57 -2.07781 4.53463 0
M  V30 11726 H 1107.72 -4.40536 4.17148 0
M  V30 11727 H 1106.46 -3.79487 3.06335 0
M  V30 11728 H 1105.47 -2.43915 4.92733 0
M  V30 11729 H 1106.69 -3.07954 6.05261 0
M  V30 11730 H 1104.64 -4.73619 4.53895 0
M  V30 11731 H 1104.56 -4.30394 6.21528 0
M  V30 11732 H 1105.82 -5.35691 5.66265 0
M  V30 11733 N 1110.05 -1.5248 -0.398459 0
M  V30 11734 C 1111.3 -1.67309 -1.1461 0
M  V30 11735 C 1111.63 -0.407095 -1.89885 0
M  V30 11736 O 1110.91 0.594834 -1.85181 0
M  V30 11737 C 1111.19 -2.90204 -2.13198 0
M  V30 11738 C 1111.04 -4.26881 -1.4175 0
M  V30 11739 C 1112.36 -3.08634 -3.13741 0
M  V30 11740 H 1109.48 -0.608853 -0.415292 0
M  V30 11741 H 1112.12 -1.85057 -0.430573 0
M  V30 11742 H 1110.27 -2.75204 -2.74218 0
M  V30 11743 H 1111.95 -4.53631 -0.837676 0
M  V30 11744 H 1110.19 -4.27793 -0.719387 0
M  V30 11745 H 1110.86 -5.08939 -2.1374 0
M  V30 11746 H 1113.34 -3.22603 -2.62805 0
M  V30 11747 H 1112.21 -3.96117 -3.79977 0
M  V30 11748 H 1112.47 -2.22425 -3.82073 0
M  V30 11749 N 1111.53 0.65634 -1.43283 0
M  V30 11750 C 1112.78 1.41837 -1.44949 0
M  V30 11751 C 1113.11 1.94065 -0.0723212 0
M  V30 11752 O 1112.39 1.72092 0.906346 0
M  V30 11753 C 1112.67 2.60206 -2.48927 0
M  V30 11754 C 1112.52 2.1349 -3.95907 0
M  V30 11755 C 1113.84 3.62421 -2.49678 0
M  V30 11756 H 1110.96 0.514398 -0.527792 0
M  V30 11757 H 1113.6 0.74435 -1.74813 0
M  V30 11758 H 1111.75 3.17708 -2.23592 0
M  V30 11759 H 1113.42 1.61012 -4.32288 0
M  V30 11760 H 1111.67 1.4489 -4.08888 0
M  V30 11761 H 1112.34 2.98596 -4.64268 0
M  V30 11762 H 1114.81 3.14671 -2.72252 0
M  V30 11763 H 1113.69 4.42798 -3.24378 0
M  V30 11764 H 1113.95 4.14802 -1.52944 0
M  V30 11765 N 1113.01 1.29761 0.894412 0
M  V30 11766 C 1114.29 1.08711 1.62608 0
M  V30 11767 C 1114.67 -0.366907 2.07887 0
M  V30 11768 O 1114.01 -1.35669 1.83865 0
M  V30 11769 C 1114.22 2.07947 2.80284 0
M  V30 11770 C 1115.57 2.39153 3.50843 0
M  V30 11771 O 1116.6 2.06183 2.9046 0
M  V30 11772 O 1115.46 2.95509 4.59713 0
M  V30 11773 H 1112.55 0.416866 0.714249 0
M  V30 11774 H 1115.1 1.41153 0.942015 0
M  V30 11775 H 1113.87 3.05859 2.44061 0
M  V30 11776 H 1113.49 1.76266 3.56393 0
M  V30 11777 N 1114.49 -1.10549 1.12324 0
M  V30 11778 C 1115.73 -1.82941 0.889043 0
M  V30 11779 C 1116.09 -1.83483 -0.578935 0
M  V30 11780 O 1115.38 -1.28365 -1.42243 0
M  V30 11781 C 1115.58 -3.28997 1.39626 0
M  V30 11782 C 1115.4 -3.42683 2.91202 0
M  V30 11783 C 1114.17 -3.55164 3.59426 0
M  V30 11784 C 1116.37 -3.36187 3.89208 0
M  V30 11785 N 1114.35 -3.57414 4.99128 0
M  V30 11786 C 1115.73 -3.45168 5.15033 0
M  V30 11787 C 1117.78 -3.19778 3.81637 0
M  V30 11788 C 1116.48 -3.39431 6.34176 0
M  V30 11789 C 1118.51 -3.15362 5.003 0
M  V30 11790 C 1117.87 -3.24924 6.24983 0
M  V30 11791 H 1113.97 -0.684249 0.378585 0
M  V30 11792 H 1116.55 -1.32206 1.42932 0
M  V30 11793 H 1114.73 -3.78228 0.883051 0
M  V30 11794 H 1116.46 -3.89343 1.10425 0
M  V30 11795 H 1113.21 -3.5812 3.09914 0
M  V30 11796 H 1113.64 -3.62153 5.71991 0
M  V30 11797 H 1118.28 -3.11264 2.86137 0
M  V30 11798 H 1116 -3.46711 7.29943 0
M  V30 11799 H 1119.58 -3.03819 4.96171 0
M  V30 11800 H 1118.46 -3.21508 7.15264 0
M  V30 11801 N 1115.97 -0.914965 -1.28321 0
M  V30 11802 C 1116.88 -0.409424 -2.31 0
M  V30 11803 C 1117.89 0.503526 -1.66555 0
M  V30 11804 O 1119.07 0.38942 -1.97599 0
M  V30 11805 C 1116.13 0.34123 -3.45017 0
M  V30 11806 C 1115.19 -0.605087 -4.25014 0
M  V30 11807 C 1114.43 0.109837 -5.33587 0
M  V30 11808 O 1114.65 1.33136 -5.54645 0
M  V30 11809 O 1113.58 -0.555474 -5.99331 0
M  V30 11810 H 1117.41 -1.26167 -2.76253 0
M  V30 11811 H 1114.99 -0.679831 -1.33036 0
M  V30 11812 H 1116.88 0.765132 -4.14396 0
M  V30 11813 H 1115.55 1.16929 -3.01843 0
M  V30 11814 H 1114.46 -1.07841 -3.58219 0
M  V30 11815 H 1115.79 -1.39999 -4.7187 0
M  V30 11816 N 1117.44 1.42219 -0.679077 0
M  V30 11817 C 1118.35 2.346 -0.00345919 0
M  V30 11818 C 1119.37 1.55327 0.784181 0
M  V30 11819 O 1120.55 1.87878 0.725524 0
M  V30 11820 C 1117.61 3.33905 0.933194 0
M  V30 11821 C 1116.67 4.29073 0.139607 0
M  V30 11822 C 1115.9 5.23634 1.03165 0
M  V30 11823 O 1116.13 5.23234 2.27119 0
M  V30 11824 O 1115.06 5.99901 0.490159 0
M  V30 11825 H 1118.89 2.9392 -0.764525 0
M  V30 11826 H 1116.47 1.42794 -0.439329 0
M  V30 11827 H 1118.35 3.949 1.47077 0
M  V30 11828 H 1117.03 2.77052 1.67404 0
M  V30 11829 H 1115.94 3.71478 -0.442177 0
M  V30 11830 H 1117.27 4.88979 -0.562214 0
M  V30 11831 N 1118.92 0.422693 1.51826 0
M  V30 11832 C 1120.15 -0.15017 2.06856 0
M  V30 11833 C 1120.57 -1.36946 1.28948 0
M  V30 11834 O 1119.93 -1.78393 0.32338 0
M  V30 11835 C 1119.98 -0.465563 3.57582 0
M  V30 11836 O 1119.08 -1.55442 3.81984 0
M  V30 11837 H 1118.42 -0.00827931 0.663948 0
M  V30 11838 H 1120.95 0.599806 1.95611 0
M  V30 11839 H 1120.96 -0.720279 4.01592 0
M  V30 11840 H 1119.64 0.425679 4.13716 0
M  V30 11841 H 1118.21 -1.29081 3.49846 0
M  V30 11842 N 1120.4 -1.5685 0.153553 0
M  V30 11843 C 1121.63 -2.00701 -0.502678 0
M  V30 11844 C 1122.04 -1.0337 -1.57988 0
M  V30 11845 O 1121.4 -0.0317233 -1.82472 0
M  V30 11846 C 1121.45 -3.44443 -1.09732 0
M  V30 11847 O 1121.17 -4.38054 -0.0631405 0
M  V30 11848 C 1122.67 -4.03605 -1.83352 0
M  V30 11849 H 1119.89 -0.658229 -0.130289 0
M  V30 11850 H 1122.44 -2.02965 0.250063 0
M  V30 11851 H 1120.59 -3.43009 -1.80065 0
M  V30 11852 H 1121.01 -5.22114 -0.499681 0
M  V30 11853 H 1122.48 -5.0616 -2.20241 0
M  V30 11854 H 1122.96 -3.44687 -2.7219 0
M  V30 11855 H 1123.56 -4.08688 -1.17703 0
M  V30 11856 N 1121.88 0.120221 -1.57141 0
M  V30 11857 C 1122.79 1.16641 -2.03549 0
M  V30 11858 C 1123.8 1.45407 -0.955656 0
M  V30 11859 O 1124.98 1.56547 -1.26708 0
M  V30 11860 C 1122.04 2.4734 -2.42948 0
M  V30 11861 C 1121.11 2.25982 -3.65008 0
M  V30 11862 C 1120.34 3.50449 -4.02518 0
M  V30 11863 O 1120.56 4.57706 -3.40384 0
M  V30 11864 O 1119.5 3.41524 -4.95626 0
M  V30 11865 H 1123.32 0.802323 -2.9291 0
M  V30 11866 H 1120.91 0.330927 -1.45689 0
M  V30 11867 H 1122.79 3.24348 -2.69029 0
M  V30 11868 H 1121.46 2.83225 -1.56733 0
M  V30 11869 H 1120.37 1.46837 -3.44078 0
M  V30 11870 H 1121.7 1.95002 -4.51924 0
M  V30 11871 N 1123.36 1.52689 0.390367 0
M  V30 11872 C 1124.6 1.67914 1.13722 0
M  V30 11873 C 1124.94 0.417159 1.89667 0
M  V30 11874 O 1124.21 -0.585005 1.85494 0
M  V30 11875 C 1124.49 2.91331 2.11656 0
M  V30 11876 C 1124.35 4.27626 1.39484 0
M  V30 11877 C 1125.67 3.10293 3.12099 0
M  V30 11878 H 1122.78 0.611047 0.412057 0
M  V30 11879 H 1125.43 1.85283 0.420753 0
M  V30 11880 H 1123.58 2.76654 2.72754 0
M  V30 11881 H 1125.25 4.54068 0.813607 0
M  V30 11882 H 1123.49 4.28169 0.69669 0
M  V30 11883 H 1124.16 5.10066 2.11038 0
M  V30 11884 H 1126.64 3.23992 2.6109 0
M  V30 11885 H 1125.51 3.98127 3.7787 0
M  V30 11886 H 1125.78 2.24448 3.80888 0
M  V30 11887 N 1124.83 -0.648732 1.43629 0
M  V30 11888 C 1126.06 -1.4362 1.48932 0
M  V30 11889 C 1126.48 -1.88487 0.108599 0
M  V30 11890 O 1125.83 -1.59768 -0.882066 0
M  V30 11891 C 1125.89 -2.66822 2.43903 0
M  V30 11892 O 1125.61 -2.2383 3.76606 0
M  V30 11893 C 1127.11 -3.60134 2.58493 0
M  V30 11894 H 1124.33 -0.441055 0.505679 0
M  V30 11895 H 1126.87 -0.794936 1.88417 0
M  V30 11896 H 1125.03 -3.27079 2.07601 0
M  V30 11897 H 1125.44 -3.03575 4.27718 0
M  V30 11898 H 1126.91 -4.43234 3.29011 0
M  V30 11899 H 1127.39 -4.07779 1.63134 0
M  V30 11900 H 1128 -3.05756 2.95624 0
M  V30 11901 N 1126.31 -1.30234 -0.887518 0
M  V30 11902 C 1127.24 -1.18969 -2.00919 0
M  V30 11903 C 1128.22 -0.080952 -1.69907 0
M  V30 11904 O 1129.41 -0.262546 -1.92417 0
M  V30 11905 C 1126.54 -0.878094 -3.36016 0
M  V30 11906 C 1125.49 -1.94449 -3.81279 0
M  V30 11907 C 1124.82 -1.48594 -5.13638 0
M  V30 11908 C 1126.12 -3.35519 -4.00281 0
M  V30 11909 H 1127.81 -2.12808 -2.10602 0
M  V30 11910 H 1125.36 -1.02454 -1.01189 0
M  V30 11911 H 1127.31 -0.785954 -4.14006 0
M  V30 11912 H 1126.04 0.0959779 -3.26459 0
M  V30 11913 H 1124.69 -2.02622 -3.05516 0
M  V30 11914 H 1124.34 -0.500204 -5.00507 0
M  V30 11915 H 1124.04 -2.19921 -5.44893 0
M  V30 11916 H 1125.57 -1.40754 -5.94156 0
M  V30 11917 H 1126.98 -3.30119 -4.68716 0
M  V30 11918 H 1125.38 -4.0491 -4.42909 0
M  V30 11919 H 1126.45 -3.77597 -3.04218 0
M  V30 11920 N 1127.79 1.09952 -1.12909 0
M  V30 11921 C 1129.02 1.8552 -0.909163 0
M  V30 11922 C 1129.43 1.81173 0.545253 0
M  V30 11923 O 1128.77 1.20223 1.38896 0
M  V30 11924 C 1128.83 3.34693 -1.31228 0
M  V30 11925 C 1128.5 3.62794 -2.77902 0
M  V30 11926 C 1129.49 3.58973 -3.76078 0
M  V30 11927 C 1127.18 3.91311 -3.1493 0
M  V30 11928 C 1129.17 3.83271 -5.09296 0
M  V30 11929 C 1126.86 4.15265 -4.48328 0
M  V30 11930 C 1127.86 4.11236 -5.4532 0
M  V30 11931 O 1127.55 4.34576 -6.76313 0
M  V30 11932 H 1127.28 0.59303 -0.324486 0
M  V30 11933 H 1129.83 1.39878 -1.5041 0
M  V30 11934 H 1128.06 3.81016 -0.660573 0
M  V30 11935 H 1129.75 3.9166 -1.06569 0
M  V30 11936 H 1130.52 3.36974 -3.48817 0
M  V30 11937 H 1126.4 3.93575 -2.40041 0
M  V30 11938 H 1129.94 3.80041 -5.84991 0
M  V30 11939 H 1125.84 4.36743 -4.75316 0
M  V30 11940 H 1126.61 4.52065 -6.82334 0
M  V30 11941 N 1129.27 0.921757 1.27833 0
M  V30 11942 C 1130.52 0.559078 1.94629 0
M  V30 11943 C 1130.84 -0.898641 1.72495 0
M  V30 11944 O 1130.1 -1.65546 1.0437 0
M  V30 11945 C 1130.4 0.824259 3.47765 0
M  V30 11946 C 1130.06 2.26278 3.90011 0
M  V30 11947 C 1128.73 2.65607 4.01256 0
M  V30 11948 C 1131.08 3.19853 4.11513 0
M  V30 11949 C 1128.41 3.97646 4.31387 0
M  V30 11950 C 1130.76 4.51467 4.43126 0
M  V30 11951 C 1129.42 4.90637 4.52583 0
M  V30 11952 H 1128.69 0.204581 0.712199 0
M  V30 11953 H 1131.34 1.1646 1.52018 0
M  V30 11954 H 1129.64 0.136011 3.91564 0
M  V30 11955 H 1131.34 0.522701 3.97579 0
M  V30 11956 H 1127.93 1.94765 3.81791 0
M  V30 11957 H 1132.11 2.90674 4.02271 0
M  V30 11958 H 1127.37 4.27685 4.36916 0
M  V30 11959 H 1131.54 5.23982 4.58711 0
M  V30 11960 H 1129.17 5.92982 4.75685 0
M  V30 11961 N 1130.75 -1.41857 0.686609 0
M  V30 11962 C 1131.68 -2.33481 0.0298353 0
M  V30 11963 C 1132.66 -1.51329 -0.776756 0
M  V30 11964 O 1133.84 -1.79895 -0.731535 0
M  V30 11965 C 1130.97 -3.35065 -0.913707 0
M  V30 11966 C 1129.93 -4.2746 -0.214861 0
M  V30 11967 C 1129.25 -5.19346 -1.27215 0
M  V30 11968 C 1130.55 -5.14252 0.913367 0
M  V30 11969 H 1132.25 -2.8865 0.795067 0
M  V30 11970 H 1129.79 -1.38792 0.383785 0
M  V30 11971 H 1131.75 -3.98082 -1.38234 0
M  V30 11972 H 1130.47 -2.78226 -1.7105 0
M  V30 11973 H 1129.13 -3.65855 0.233651 0
M  V30 11974 H 1128.78 -4.58827 -2.06124 0
M  V30 11975 H 1128.48 -5.81996 -0.80961 0
M  V30 11976 H 1130 -5.85239 -1.74147 0
M  V30 11977 H 1131.41 -5.70887 0.525424 0
M  V30 11978 H 1129.81 -5.85796 1.30244 0
M  V30 11979 H 1130.88 -4.51949 1.75699 0
M  V30 11980 N 1132.22 -0.430739 -1.51599 0
M  V30 11981 C 1133.45 0.139197 -2.06932 0
M  V30 11982 C 1133.87 1.3626 -1.29672 0
M  V30 11983 O 1133.23 1.78219 -0.332836 0
M  V30 11984 C 1133.28 0.446593 -3.57824 0
M  V30 11985 O 1132.38 1.53414 -3.82803 0
M  V30 11986 H 1131.73 0.00475812 -0.663983 0
M  V30 11987 H 1134.26 -0.610171 -1.9529 0
M  V30 11988 H 1134.27 0.698972 -4.01968 0
M  V30 11989 H 1132.94 -0.447613 -4.13484 0
M  V30 11990 H 1131.52 1.27224 -3.50526 0
M  V30 11991 N 1133.7 1.56767 -0.161869 0
M  V30 11992 C 1134.63 2.20511 0.767918 0
M  V30 11993 C 1135.61 1.15783 1.24612 0
M  V30 11994 O 1136.8 1.44179 1.301 0
M  V30 11995 C 1133.93 2.83844 2.00125 0
M  V30 11996 C 1132.88 3.94528 1.65926 0
M  V30 11997 C 1132.21 4.44866 2.96646 0
M  V30 11998 C 1133.51 5.14583 0.894497 0
M  V30 11999 H 1135.2 2.98464 0.236607 0
M  V30 12000 H 1132.75 1.43561 0.112363 0
M  V30 12001 H 1134.7 3.27109 2.65664 0
M  V30 12002 H 1133.43 2.03246 2.55654 0
M  V30 12003 H 1132.08 3.51904 1.02759 0
M  V30 12004 H 1131.73 3.61071 3.50196 0
M  V30 12005 H 1131.43 5.19531 2.74521 0
M  V30 12006 H 1132.96 4.90812 3.6323 0
M  V30 12007 H 1134.37 5.54601 1.45228 0
M  V30 12008 H 1132.77 5.95105 0.772636 0
M  V30 12009 H 1133.84 4.84773 -0.110986 0
M  V30 12010 N 1135.18 -0.111886 1.57202 0
M  V30 12011 C 1136.11 -1.13796 2.03894 0
M  V30 12012 C 1137.09 -1.4277 0.924696 0
M  V30 12013 O 1138.28 -1.53089 1.19488 0
M  V30 12014 C 1135.41 -2.46229 2.44925 0
M  V30 12015 C 1134.36 -2.31702 3.59859 0
M  V30 12016 C 1133.69 -3.69161 3.86813 0
M  V30 12017 C 1134.99 -1.77158 4.91337 0
M  V30 12018 H 1136.68 -0.749581 2.89865 0
M  V30 12019 H 1134.23 -0.359126 1.3945 0
M  V30 12020 H 1136.18 -3.18267 2.76195 0
M  V30 12021 H 1134.9 -2.86971 1.55933 0
M  V30 12022 H 1133.56 -1.62112 3.28809 0
M  V30 12023 H 1133.21 -4.07401 2.95015 0
M  V30 12024 H 1132.91 -3.60292 4.6418 0
M  V30 12025 H 1134.43 -4.42693 4.20542 0
M  V30 12026 H 1135.85 -2.3902 5.21097 0
M  V30 12027 H 1134.25 -1.79091 5.72753 0
M  V30 12028 H 1135.32 -0.729675 4.79379 0
M  V30 12029 N 1136.66 -1.52894 -0.382264 0
M  V30 12030 C 1137.9 -1.68515 -1.12829 0
M  V30 12031 C 1138.24 -0.427211 -1.89443 0
M  V30 12032 O 1137.51 0.57516 -1.85801 0
M  V30 12033 C 1137.8 -2.92449 -2.10108 0
M  V30 12034 C 1137.65 -4.2836 -1.37214 0
M  V30 12035 C 1138.97 -3.11944 -3.1045 0
M  V30 12036 H 1136.09 -0.613223 -0.408811 0
M  V30 12037 H 1138.73 -1.85503 -0.410921 0
M  V30 12038 H 1136.88 -2.78097 -2.71283 0
M  V30 12039 H 1138.55 -4.54493 -0.789516 0
M  V30 12040 H 1136.79 -4.28532 -0.673973 0
M  V30 12041 H 1137.46 -5.11178 -2.0833 0
M  V30 12042 H 1139.94 -3.25372 -2.59369 0
M  V30 12043 H 1138.82 -4.00125 -3.75754 0
M  V30 12044 H 1139.08 -2.26465 -3.79692 0
M  V30 12045 N 1138.14 0.641106 -1.43971 0
M  V30 12046 C 1139.38 1.40084 -1.46228 0
M  V30 12047 C 1139.71 1.94287 -0.0911011 0
M  V30 12048 O 1138.97 1.73481 0.905688 0
M  V30 12049 C 1139.27 2.59092 -2.46183 0
M  V30 12050 C 1138.93 2.23237 -3.9176 0
M  V30 12051 C 1137.59 2.13171 -4.31407 0
M  V30 12052 C 1139.95 1.94746 -4.83449 0
M  V30 12053 C 1137.27 1.72788 -5.60679 0
M  V30 12054 C 1139.63 1.55858 -6.13099 0
M  V30 12055 C 1138.29 1.44326 -6.5171 0
M  V30 12056 H 1137.56 0.512603 -0.535088 0
M  V30 12057 H 1140.21 0.727956 -1.77124 0
M  V30 12058 H 1138.51 3.31568 -2.08734 0
M  V30 12059 H 1140.21 3.17313 -2.4518 0
M  V30 12060 H 1136.8 2.31986 -3.60389 0
M  V30 12061 H 1140.98 2.01438 -4.53582 0
M  V30 12062 H 1136.24 1.62455 -5.89422 0
M  V30 12063 H 1140.41 1.32848 -6.83611 0
M  V30 12064 H 1138.04 1.12806 -7.51784 0
M  V30 12065 N 1139.62 1.30703 0.880598 0
M  V30 12066 C 1141.03 1.09129 1.1646 0
M  V30 12067 C 1141.23 -0.145131 2.00977 0
M  V30 12068 O 1140.29 -0.837502 2.38206 0
M  V30 12069 C 1141.6 2.35717 1.86703 0
M  V30 12070 C 1143.15 2.41224 1.9945 0
M  V30 12071 C 1143.62 3.67665 2.73105 0
M  V30 12072 N 1145.11 3.68498 2.80648 0
M  V30 12073 C 1145.85 4.63024 3.38225 0
M  V30 12074 N 1145.35 5.67898 3.96817 0
M  V30 12075 N 1147.14 4.50561 3.36082 0
M  V30 12076 H 1139.29 2.10019 0.317164 0
M  V30 12077 H 1141.55 0.925994 0.203072 0
M  V30 12078 H 1141.26 3.2597 1.32046 0
M  V30 12079 H 1141.13 2.447 2.87057 0
M  V30 12080 H 1143.52 1.51446 2.53275 0
M  V30 12081 H 1143.6 2.36212 0.981704 0
M  V30 12082 H 1143.24 4.57803 2.19951 0
M  V30 12083 H 1143.17 3.69939 3.7477 0
M  V30 12084 H 1145.67 2.92681 2.39053 0
M  V30 12085 H 1145.98 6.3612 4.3883 0
M  V30 12086 H 1144.32 5.71685 3.95223 0
M  V30 12087 H 1147.51 3.67811 2.89539 0
M  V30 12088 H 1147.69 5.24408 3.80657 0
M  V30 12089 N 1141.09 -1.09351 1.1349 0
M  V30 12090 C 1142.02 -2.18037 0.835588 0
M  V30 12091 C 1143 -1.68856 -0.205373 0
M  V30 12092 O 1144.19 -1.94094 -0.0641357 0
M  V30 12093 C 1141.32 -3.45987 0.301661 0
M  V30 12094 C 1140.27 -4.08507 1.27696 0
M  V30 12095 C 1139.6 -5.31292 0.602758 0
M  V30 12096 C 1140.9 -4.50916 2.63575 0
M  V30 12097 H 1142.59 -2.43332 1.74441 0
M  V30 12098 H 1140.14 -1.1695 0.840166 0
M  V30 12099 H 1142.09 -4.21324 0.079928 0
M  V30 12100 H 1140.82 -3.20217 -0.642552 0
M  V30 12101 H 1139.48 -3.3519 1.4847 0
M  V30 12102 H 1139.12 -5.01802 -0.346953 0
M  V30 12103 H 1138.82 -5.74075 1.25345 0
M  V30 12104 H 1140.35 -6.09351 0.390325 0
M  V30 12105 H 1141.76 -5.17474 2.46765 0
M  V30 12106 H 1140.16 -5.04586 3.24827 0
M  V30 12107 H 1141.23 -3.63279 3.2118 0
M  V30 12108 N 1142.57 -0.928524 -1.27343 0
M  V30 12109 C 1143.5 -0.385563 -2.25934 0
M  V30 12110 C 1144.52 0.484178 -1.55433 0
M  V30 12111 O 1145.71 0.296668 -1.76017 0
M  V30 12112 C 1142.81 0.466116 -3.35679 0
M  V30 12113 C 1141.98 -0.384523 -4.35707 0
M  V30 12114 C 1141.04 0.404644 -5.24642 0
M  V30 12115 O 1140.06 -0.187943 -5.6889 0
M  V30 12116 N 1141.27 1.70426 -5.54919 0
M  V30 12117 H 1144.03 -1.23306 -2.73159 0
M  V30 12118 H 1141.59 -0.796039 -1.40978 0
M  V30 12119 H 1143.58 1.00115 -3.92121 0
M  V30 12120 H 1142.15 1.21437 -2.88048 0
M  V30 12121 H 1141.37 -1.10085 -3.78517 0
M  V30 12122 H 1142.66 -0.966033 -4.99545 0
M  V30 12123 H 1142.06 2.20802 -5.20829 0
M  V30 12124 H 1140.62 2.1858 -6.14057 0
M  V30 12125 N 1144.05 1.41491 -0.694123 0
M  V30 12126 C 1145 2.32594 -0.0164704 0
M  V30 12127 C 1145.99 1.50884 0.770086 0
M  V30 12128 O 1147.2 1.66829 0.675871 0
M  V30 12129 H 1143.57 0.751879 0.0134743 0
M  V30 12130 H 1145.54 2.87423 -0.80191 0
M  V30 12131 C 1144.29 3.35661 0.90703 0
M  V30 12132 H 1143.62 3.98587 0.311205 0
M  V30 12133 H 1145.06 4.0195 1.34952 0
M  V30 12134 C 1143.51 2.69436 2.02253 0
M  V30 12135 O 1144.04 2.54107 3.11115 0
M  V30 12136 N 1142.25 2.28154 1.79984 0
M  V30 12137 H 1141.8 2.40821 0.914492 0
M  V30 12138 H 1141.76 1.84178 2.54805 0
M  V30 12139 N 1145.53 0.438773 1.51369 0
M  V30 12140 C 1146.46 -0.362467 2.3067 0
M  V30 12141 C 1147.44 -1.01973 1.36145 0
M  V30 12142 O 1148.62 -1.0231 1.65065 0
M  V30 12143 C 1145.75 -1.46313 3.14976 0
M  V30 12144 C 1144.71 -0.929272 4.1779 0
M  V30 12145 C 1144.03 -2.12579 4.90627 0
M  V30 12146 C 1145.33 0.0372782 5.22287 0
M  V30 12147 H 1147.03 0.29931 2.979 0
M  V30 12148 H 1144.57 0.14539 1.43264 0
M  V30 12149 H 1146.53 -2.03088 3.69233 0
M  V30 12150 H 1145.25 -2.15321 2.45569 0
M  V30 12151 H 1143.91 -0.383722 3.64586 0
M  V30 12152 H 1143.56 -2.8021 4.17722 0
M  V30 12153 H 1143.26 -1.77496 5.60151 0
M  V30 12154 H 1144.78 -2.69905 5.47708 0
M  V30 12155 H 1146.2 -0.44022 5.71607 0
M  V30 12156 H 1144.59 0.300748 5.99346 0
M  V30 12157 H 1145.66 0.973503 4.75027 0
M  V30 12158 N 1147.01 -1.56678 0.170181 0
M  V30 12159 C 1148.42 -1.83452 -0.346742 0
M  V30 12160 C 1148.77 -1.08993 -1.63141 0
M  V30 12161 O 1147.89 -0.342607 -2.13671 0
M  V30 12162 C 1148.49 -3.32779 -0.635882 0
M  V30 12163 C 1147.05 -3.60052 -1.09725 0
M  V30 12164 C 1146.19 -2.76983 -0.132516 0
M  V30 12165 H 1149.14 -1.53719 0.394465 0
M  V30 12166 H 1149.17 -3.50195 -1.48806 0
M  V30 12167 H 1148.68 -3.86944 0.299291 0
M  V30 12168 H 1146.78 -3.11297 -2.04756 0
M  V30 12169 H 1146.89 -4.68393 -1.00719 0
M  V30 12170 H 1145.26 -2.46794 -0.62966 0
M  V30 12171 H 1146.04 -3.33929 0.796658 0
M  V30 12172 N 1148.48 0.103547 -1.57259 0
M  V30 12173 C 1149.72 0.814289 -1.8748 0
M  V30 12174 C 1150.09 1.76312 -0.760126 0
M  V30 12175 O 1151.29 2.51659 -0.944514 0
M  V30 12176 C 1149.56 1.53119 -3.22938 0
M  V30 12177 S 1151.12 2.28138 -3.74831 0
M  V30 12178 H 1147.94 0.271464 -0.657136 0
M  V30 12179 H 1150.54 0.07183 -1.95368 0
M  V30 12180 H 1149.24 0.826397 -4.01994 0
M  V30 12181 H 1148.77 2.31372 -3.18167 0
M  V30 12182 H 1150.79 3.54132 -3.4757 0
M  V30 12183 N 1149.96 1.53094 0.37415 0
M  V30 12184 C 1151.21 1.68527 1.11548 0
M  V30 12185 C 1151.53 0.435253 1.9008 0
M  V30 12186 O 1150.8 -0.550594 1.88003 0
M  V30 12187 H 1149.38 0.621255 0.41479 0
M  V30 12188 H 1152.04 1.90258 0.422844 0
M  V30 12189 H 1151.14 2.54248 1.81009 0
M  V30 12190 N 1151.44 -0.633461 1.44309 0
M  V30 12191 C 1152.37 -1.7583 1.45462 0
M  V30 12192 C 1153.35 -1.59545 0.313723 0
M  V30 12193 O 1154.53 -1.8146 0.51034 0
M  V30 12194 C 1151.66 -3.13375 1.28506 0
M  V30 12195 C 1150.71 -3.48315 2.46128 0
M  V30 12196 S 1151.54 -3.46058 4.08662 0
M  V30 12197 C 1152.7 -4.86226 3.94125 0
M  V30 12198 H 1152.93 -1.74585 2.4064 0
M  V30 12199 H 1150.46 -0.807868 1.31578 0
M  V30 12200 H 1152.42 -3.92748 1.19411 0
M  V30 12201 H 1151.08 -3.12161 0.348432 0
M  V30 12202 H 1150.27 -4.48397 2.30122 0
M  V30 12203 H 1149.88 -2.76399 2.51951 0
M  V30 12204 H 1152.17 -5.75393 3.57671 0
M  V30 12205 H 1153.11 -5.07287 4.9403 0
M  V30 12206 H 1153.52 -4.60691 3.26227 0
M  V30 12207 N 1152.92 -1.31168 -0.873655 0
M  V30 12208 C 1153.83 -1.20458 -2.01313 0
M  V30 12209 C 1154.84 -0.122074 -1.73571 0
M  V30 12210 O 1156.02 -0.339176 -1.98523 0
M  V30 12211 C 1153.09 -0.90876 -3.34578 0
M  V30 12212 C 1152.15 -2.07779 -3.75668 0
M  V30 12213 C 1151.38 -1.79599 -5.02573 0
M  V30 12214 O 1151.6 -0.729338 -5.65718 0
M  V30 12215 O 1150.54 -2.65169 -5.40341 0
M  V30 12216 H 1154.36 -2.16207 -2.13279 0
M  V30 12217 H 1151.95 -1.10871 -1.00139 0
M  V30 12218 H 1153.83 -0.759469 -4.145 0
M  V30 12219 H 1152.5 0.0187249 -3.23695 0
M  V30 12220 H 1151.41 -2.28247 -2.96402 0
M  V30 12221 H 1152.74 -2.9874 -3.91172 0
M  V30 12222 N 1154.4 1.08748 -1.14068 0
M  V30 12223 C 1155.34 2.15573 -0.824425 0
M  V30 12224 C 1156.31 1.64683 0.216522 0
M  V30 12225 O 1157.5 1.90601 0.0872193 0
M  V30 12226 C 1154.64 3.43756 -0.30423 0
M  V30 12227 C 1153.75 4.08512 -1.40506 0
M  V30 12228 C 1152.89 5.24477 -0.842479 0
M  V30 12229 C 1151.93 5.81167 -1.92123 0
M  V30 12230 N 1151.06 6.88483 -1.37608 0
M  V30 12231 H 1155.9 2.41968 -1.73941 0
M  V30 12232 H 1153.44 1.18751 -0.868143 0
M  V30 12233 H 1155.4 4.17197 0.0155546 0
M  V30 12234 H 1154.03 3.17658 0.573868 0
M  V30 12235 H 1153.08 3.32866 -1.84131 0
M  V30 12236 H 1154.39 4.46669 -2.2201 0
M  V30 12237 H 1153.55 6.04842 -0.474389 0
M  V30 12238 H 1152.28 4.877 0.00355212 0
M  V30 12239 H 1151.29 4.99458 -2.29831 0
M  V30 12240 H 1152.51 6.20003 -2.77079 0
M  V30 12241 H 1150.46 6.53672 -0.552168 0
M  V30 12242 H 1150.38 7.25446 -2.12752 0
M  V30 12243 H 1151.65 7.72588 -1.03578 0
M  V30 12244 N 1155.87 0.935264 1.26849 0
M  V30 12245 C 1156.8 0.457776 2.28969 0
M  V30 12246 C 1157.79 -0.48587 1.63013 0
M  V30 12247 O 1158.97 -0.388998 1.90264 0
M  V30 12248 C 1156.1 -0.283332 3.46142 0
M  V30 12249 C 1155.05 0.573196 4.24144 0
M  V30 12250 C 1154.38 -0.297525 5.33872 0
M  V30 12251 C 1155.68 1.84153 4.88759 0
M  V30 12252 H 1157.37 1.31125 2.69159 0
M  V30 12253 H 1154.92 0.631956 1.29392 0
M  V30 12254 H 1156.87 -0.628366 4.16689 0
M  V30 12255 H 1155.6 -1.1709 3.04889 0
M  V30 12256 H 1154.26 0.901043 3.55354 0
M  V30 12257 H 1153.9 -1.18427 4.8886 0
M  V30 12258 H 1153.6 0.272126 5.8697 0
M  V30 12259 H 1155.13 -0.637961 6.07258 0
M  V30 12260 H 1156.54 1.5641 5.51551 0
M  V30 12261 H 1154.94 2.35528 5.51948 0
M  V30 12262 H 1156.01 2.5565 4.12033 0
M  V30 12263 N 1157.35 -1.41121 0.701616 0
M  V30 12264 C 1158.6 -2.00733 0.234682 0
M  V30 12265 C 1158.92 -1.55869 -1.17174 0
M  V30 12266 O 1158.19 -0.791965 -1.79178 0
M  V30 12267 H 1156.77 -0.742288 0.0837745 0
M  V30 12268 H 1159.43 -1.7266 0.904127 0
M  V30 12269 H 1158.53 -3.11041 0.256831 0
M  V30 12270 N 1158.83 -0.446794 -1.51134 0
M  V30 12271 C 1160.06 0.117242 -2.07068 0
M  V30 12272 C 1160.48 1.34877 -1.3111 0
M  V30 12273 O 1159.84 1.77856 -0.35172 0
M  V30 12274 C 1159.89 0.408616 -3.58277 0
M  V30 12275 O 1158.99 1.49345 -3.84408 0
M  V30 12276 H 1158.33 -0.00228458 -0.663996 0
M  V30 12277 H 1160.86 -0.63085 -1.94632 0
M  V30 12278 H 1160.87 0.656298 -4.02687 0
M  V30 12279 H 1159.55 -0.491444 -4.12986 0
M  V30 12280 H 1158.12 1.23499 -3.51856 0
M  V30 12281 N 1160.31 1.56586 -0.178487 0
M  V30 12282 C 1161.59 1.88798 0.511356 0
M  V30 12283 C 1161.97 1.08949 1.80813 0
M  V30 12284 O 1161.31 0.185551 2.27745 0
M  V30 12285 C 1161.52 3.40927 0.746298 0
M  V30 12286 C 1162.87 4.10816 1.0731 0
M  V30 12287 O 1163.9 3.46285 0.834592 0
M  V30 12288 O 1162.75 5.24837 1.52343 0
M  V30 12289 H 1159.85 0.783574 0.264463 0
M  V30 12290 H 1162.39 1.68301 -0.21746 0
M  V30 12291 H 1161.17 3.9093 -0.17015 0
M  V30 12292 H 1160.79 3.67059 1.52817 0
M  V30 12293 N 1161.79 -0.095206 1.57312 0
M  V30 12294 C 1163.03 -0.799903 1.86358 0
M  V30 12295 C 1163.37 -1.78386 0.767593 0
M  V30 12296 O 1162.64 -1.93201 -0.224439 0
M  V30 12297 C 1162.92 -1.52875 3.26039 0
M  V30 12298 C 1162.78 -0.562781 4.46265 0
M  V30 12299 C 1164.1 -2.47935 3.63616 0
M  V30 12300 H 1161.21 -0.289339 0.677829 0
M  V30 12301 H 1163.86 -0.0635369 1.89894 0
M  V30 12302 H 1162.01 -2.15645 3.23156 0
M  V30 12303 H 1163.68 0.0579068 4.61264 0
M  V30 12304 H 1161.92 0.123847 4.33623 0
M  V30 12305 H 1162.59 -1.10989 5.40727 0
M  V30 12306 H 1165.07 -1.95257 3.67442 0
M  V30 12307 H 1163.94 -2.95948 4.62283 0
M  V30 12308 H 1164.21 -3.31687 2.92294 0
M  V30 12309 N 1163.26 -1.53291 -0.366026 0
M  V30 12310 C 1164.23 -1.79025 -1.43117 0
M  V30 12311 C 1165.23 -0.660676 -1.46601 0
M  V30 12312 O 1166.42 -0.928875 -1.47369 0
M  V30 12313 C 1163.55 -1.91192 -2.82238 0
M  V30 12314 H 1164.74 -2.74154 -1.21572 0
M  V30 12315 H 1162.3 -1.44361 -0.599132 0
M  V30 12316 H 1163.03 -0.98129 -3.09097 0
M  V30 12317 H 1162.82 -2.7335 -2.81109 0
M  V30 12318 H 1164.31 -2.12696 -3.59375 0
M  V30 12319 N 1164.74 0.6258 -1.44643 0
M  V30 12320 C 1165.97 1.41233 -1.51198 0
M  V30 12321 C 1166.39 1.88291 -0.138572 0
M  V30 12322 O 1165.74 1.61151 0.856537 0
M  V30 12323 C 1165.79 2.62908 -2.48117 0
M  V30 12324 O 1165.51 2.1781 -3.80119 0
M  V30 12325 C 1167.02 3.55976 -2.6419 0
M  V30 12326 H 1164.24 0.432954 -0.512632 0
M  V30 12327 H 1166.78 0.76486 -1.89658 0
M  V30 12328 H 1164.93 3.23735 -2.12778 0
M  V30 12329 H 1165.35 2.96732 -4.32493 0
M  V30 12330 H 1166.82 4.37943 -3.3602 0
M  V30 12331 H 1167.3 4.05133 -1.696 0
M  V30 12332 H 1167.91 3.01014 -3.00451 0
M  V30 12333 N 1166.22 1.31629 0.866686 0
M  V30 12334 C 1167.15 1.22151 1.99001 0
M  V30 12335 C 1168.13 0.107972 1.69757 0
M  V30 12336 O 1169.32 0.293125 1.91975 0
M  V30 12337 C 1166.45 0.93144 3.34577 0
M  V30 12338 C 1165.4 2.0049 3.78137 0
M  V30 12339 C 1164.73 1.56747 5.11209 0
M  V30 12340 C 1166.03 3.41844 3.94892 0
M  V30 12341 H 1167.72 2.16132 2.0719 0
M  V30 12342 H 1165.27 1.04051 0.995463 0
M  V30 12343 H 1167.22 0.851719 4.12703 0
M  V30 12344 H 1165.94 -0.0440289 3.2657 0
M  V30 12345 H 1164.6 2.07457 3.02253 0
M  V30 12346 H 1164.25 0.579767 4.99648 0
M  V30 12347 H 1163.95 2.28562 5.41326 0
M  V30 12348 H 1165.47 1.50188 5.91841 0
M  V30 12349 H 1166.89 3.37534 4.63405 0
M  V30 12350 H 1165.29 4.11905 4.36411 0
M  V30 12351 H 1166.36 3.82389 2.98172 0
M  V30 12352 N 1167.7 -1.08142 1.14644 0
M  V30 12353 C 1168.95 -1.80582 0.916327 0
M  V30 12354 C 1169.27 -1.86355 -0.556969 0
M  V30 12355 O 1168.53 -1.33736 -1.42875 0
M  V30 12356 C 1168.83 -3.25962 1.46573 0
M  V30 12357 C 1168.49 -3.40302 2.95814 0
M  V30 12358 C 1167.16 -3.43922 3.36557 0
M  V30 12359 C 1169.51 -3.43758 3.91765 0
M  V30 12360 C 1166.84 -3.48594 4.7191 0
M  V30 12361 C 1169.19 -3.49965 5.26979 0
M  V30 12362 C 1167.85 -3.5186 5.67231 0
M  V30 12363 H 1167.12 -0.660795 0.335308 0
M  V30 12364 H 1169.77 -1.27309 1.43055 0
M  V30 12365 H 1168.07 -3.81961 0.872507 0
M  V30 12366 H 1169.77 -3.80571 1.2636 0
M  V30 12367 H 1166.36 -3.38176 2.63315 0
M  V30 12368 H 1170.55 -3.40189 3.61366 0
M  V30 12369 H 1165.8 -3.48355 5.02453 0
M  V30 12370 H 1169.98 -3.51585 6.01133 0
M  V30 12371 H 1167.6 -3.55233 6.72097 0
M  V30 12372 N 1169.18 -0.941978 -1.26351 0
M  V30 12373 C 1170.41 -0.606748 -1.97803 0
M  V30 12374 C 1170.82 0.818441 -1.70138 0
M  V30 12375 O 1170.18 1.54583 -0.970076 0
M  V30 12376 C 1170.23 -0.840431 -3.51595 0
M  V30 12377 O 1169.95 -2.20957 -3.78299 0
M  V30 12378 C 1171.45 -0.515855 -4.40288 0
M  V30 12379 H 1168.67 -0.228591 -0.630862 0
M  V30 12380 H 1171.21 -1.2629 -1.60845 0
M  V30 12381 H 1169.37 -0.230875 -3.86711 0
M  V30 12382 H 1169.78 -2.2702 -4.72824 0
M  V30 12383 H 1171.26 -0.72998 -5.47152 0
M  V30 12384 H 1171.73 0.549178 -4.35753 0
M  V30 12385 H 1172.34 -1.10417 -4.10717 0
M  V30 12386 N 1170.66 1.40747 -0.709091 0
M  V30 12387 C 1171.61 2.27982 -0.0289269 0
M  V30 12388 C 1172.59 1.42917 0.739164 0
M  V30 12389 O 1173.78 1.66067 0.612433 0
M  V30 12390 C 1170.91 3.31378 0.896856 0
M  V30 12391 C 1170 4.23918 0.124296 0
M  V30 12392 N 1170.39 4.97925 -0.889043 0
M  V30 12393 C 1168.69 4.44562 0.357808 0
M  V30 12394 C 1169.39 5.65754 -1.35268 0
M  V30 12395 N 1168.36 5.3938 -0.676047 0
M  V30 12396 H 1172.16 2.82641 -0.805676 0
M  V30 12397 H 1169.68 1.5312 -0.541105 0
M  V30 12398 H 1171.68 3.92712 1.39939 0
M  V30 12399 H 1170.34 2.78279 1.67305 0
M  V30 12400 H 1171.35 5.02095 -1.2697 0
M  V30 12401 H 1168.02 4.02451 1.11084 0
M  V30 12402 H 1169.41 6.35058 -2.19432 0
M  V30 12403 N 1172.13 0.454803 1.50895 0
M  V30 12404 C 1173.36 -0.106259 2.07128 0
M  V30 12405 C 1173.78 -1.3418 1.31823 0
M  V30 12406 O 1173.14 -1.77667 0.361147 0
M  V30 12407 C 1173.19 -0.389609 3.58489 0
M  V30 12408 O 1172.29 -1.47305 3.85195 0
M  V30 12409 H 1171.63 0.00580588 0.663975 0
M  V30 12410 H 1174.16 0.641163 1.94294 0
M  V30 12411 H 1174.17 -0.634934 4.03029 0
M  V30 12412 H 1172.85 0.513338 4.1272 0
M  V30 12413 H 1171.43 -1.21631 3.52506 0
M  V30 12414 N 1173.61 -1.56489 0.186789 0
M  V30 12415 C 1174.56 -2.15311 -0.750024 0
M  V30 12416 C 1175.55 -1.09156 -1.18211 0
M  V30 12417 O 1176.74 -1.3524 -1.14189 0
M  V30 12418 C 1173.87 -2.80952 -1.97284 0
M  V30 12419 C 1172.95 -3.94286 -1.56204 0
M  V30 12420 N 1173.34 -4.98406 -0.861705 0
M  V30 12421 C 1171.64 -4.05733 -1.85194 0
M  V30 12422 C 1172.34 -5.77977 -0.657078 0
M  V30 12423 N 1171.32 -5.30116 -1.20326 0
M  V30 12424 H 1175.12 -2.93176 -0.206148 0
M  V30 12425 H 1172.63 -1.62395 -0.0133163 0
M  V30 12426 H 1174.63 -3.21479 -2.65437 0
M  V30 12427 H 1173.29 -2.04572 -2.52152 0
M  V30 12428 H 1174.3 -5.15302 -0.518067 0
M  V30 12429 H 1170.98 -3.40472 -2.4163 0
M  V30 12430 H 1172.37 -6.71822 -0.102123 0
M  V30 12431 N 1175.09 0.086862 -1.5736 0
M  V30 12432 C 1176.34 0.790008 -1.8678 0
M  V30 12433 C 1176.67 1.77977 -0.777042 0
M  V30 12434 O 1175.94 1.93317 0.21419 0
M  V30 12435 C 1176.23 1.51143 -3.26845 0
M  V30 12436 C 1176.08 0.539106 -4.46558 0
M  V30 12437 C 1177.4 2.46003 -3.64926 0
M  V30 12438 H 1174.52 0.285741 -0.679354 0
M  V30 12439 H 1177.16 0.0534655 -1.89925 0
M  V30 12440 H 1175.31 2.13928 -3.24295 0
M  V30 12441 H 1176.98 -0.0823679 -4.61226 0
M  V30 12442 H 1175.22 -0.146842 -4.33551 0
M  V30 12443 H 1175.9 1.0812 -5.41308 0
M  V30 12444 H 1178.37 1.93306 -3.68473 0
M  V30 12445 H 1177.25 2.93493 -4.63846 0
M  V30 12446 H 1177.51 3.30133 -2.94049 0
M  V30 12447 N 1176.57 1.53483 0.357892 0
M  V30 12448 C 1177.81 1.70289 1.10134 0
M  V30 12449 C 1178.15 0.457296 1.88739 0
M  V30 12450 O 1177.42 -0.545527 1.86693 0
M  V30 12451 C 1177.7 2.95755 2.05429 0
M  V30 12452 C 1177.56 4.30489 1.30382 0
M  V30 12453 C 1178.88 3.16844 3.05447 0
M  V30 12454 H 1176 0.61965 0.399003 0
M  V30 12455 H 1178.64 1.86133 0.381357 0
M  V30 12456 H 1176.79 2.82377 2.66825 0
M  V30 12457 H 1178.46 4.55692 0.71711 0
M  V30 12458 H 1176.7 4.2955 0.605712 0
M  V30 12459 H 1177.37 5.14427 2.00171 0
M  V30 12460 H 1179.85 3.29458 2.54159 0
M  V30 12461 H 1178.73 4.06053 3.69341 0
M  V30 12462 H 1178.99 2.32476 3.76041 0
M  V30 12463 N 1178.05 -0.61812 1.44973 0
M  V30 12464 C 1179.27 -1.40921 1.52171 0
M  V30 12465 C 1179.7 -1.87487 0.151755 0
M  V30 12466 O 1179.05 -1.59518 -0.861606 0
M  V30 12467 C 1179.1 -2.59689 2.50188 0
M  V30 12468 O 1178.21 -3.59967 2.0124 0
M  V30 12469 H 1177.55 -0.421138 0.51336 0
M  V30 12470 H 1180.08 -0.753258 1.90229 0
M  V30 12471 H 1180.09 -3.07069 2.6865 0
M  V30 12472 H 1178.76 -2.25144 3.4969 0
M  V30 12473 H 1177.34 -3.19308 1.92605 0
M  V30 12474 N 1179.52 -1.32087 -0.859693 0
M  V30 12475 C 1180.45 -1.23204 -1.98351 0
M  V30 12476 C 1181.43 -0.116974 -1.69697 0
M  V30 12477 O 1182.62 -0.303301 -1.91817 0
M  V30 12478 C 1179.75 -0.949171 -3.34078 0
M  V30 12479 C 1178.7 -2.02493 -3.77069 0
M  V30 12480 C 1178.03 -1.59455 -5.1037 0
M  V30 12481 C 1179.33 -3.43934 -3.93074 0
M  V30 12482 H 1181.02 -2.17227 -2.0604 0
M  V30 12483 H 1178.57 -1.04577 -0.989931 0
M  V30 12484 H 1180.52 -0.873594 -4.12245 0
M  V30 12485 H 1179.25 0.0267095 -3.26589 0
M  V30 12486 H 1177.91 -2.09057 -3.01149 0
M  V30 12487 H 1177.55 -0.606256 -4.99333 0
M  V30 12488 H 1177.25 -2.31429 -5.40106 0
M  V30 12489 H 1178.78 -1.53325 -5.91036 0
M  V30 12490 H 1180.19 -3.39986 -4.61608 0
M  V30 12491 H 1178.59 -4.14214 -4.3422 0
M  V30 12492 H 1179.66 -3.83965 -2.9614 0
M  V30 12493 N 1181 1.07532 -1.15215 0
M  V30 12494 C 1182.25 1.8036 -0.927263 0
M  V30 12495 C 1182.58 1.86414 0.544371 0
M  V30 12496 O 1181.86 1.34653 1.40353 0
M  V30 12497 C 1182.14 3.25512 -1.53992 0
M  V30 12498 C 1181.99 3.27614 -3.08203 0
M  V30 12499 C 1183.31 4.22731 -1.22418 0
M  V30 12500 H 1180.43 0.654775 -0.338289 0
M  V30 12501 H 1183.07 1.25842 -1.42351 0
M  V30 12502 H 1181.22 3.72068 -1.11791 0
M  V30 12503 H 1182.89 2.89315 -3.59297 0
M  V30 12504 H 1181.14 2.66627 -3.42188 0
M  V30 12505 H 1181.81 4.29956 -3.46182 0
M  V30 12506 H 1184.28 3.84557 -1.58919 0
M  V30 12507 H 1183.16 5.22589 -1.67906 0
M  V30 12508 H 1183.42 4.41875 -0.14091 0
M  V30 12509 N 1182.48 0.948665 1.2585 0
M  V30 12510 C 1183.71 0.616741 1.98018 0
M  V30 12511 C 1184.13 -0.803005 1.70098 0
M  V30 12512 O 1183.49 -1.54208 0.953392 0
M  V30 12513 C 1183.54 0.874429 3.49837 0
M  V30 12514 O 1182.64 -0.0497568 4.1237 0
M  V30 12515 H 1181.98 0.235112 0.620982 0
M  V30 12516 H 1184.51 1.27364 1.60124 0
M  V30 12517 H 1184.52 0.798309 4.00114 0
M  V30 12518 H 1183.2 1.90922 3.69488 0
M  V30 12519 H 1181.77 0.0780591 3.72818 0
M  V30 12520 N 1183.96 -1.40369 0.716545 0
M  V30 12521 C 1184.92 -2.29083 0.0733105 0
M  V30 12522 C 1185.92 -1.45415 -0.686378 0
M  V30 12523 O 1187.11 -1.66316 -0.518139 0
M  V30 12524 C 1184.24 -3.28639 -0.906032 0
M  V30 12525 H 1185.44 -2.87464 0.85467 0
M  V30 12526 H 1182.99 -1.48706 0.481256 0
M  V30 12527 H 1183.72 -2.75279 -1.71441 0
M  V30 12528 H 1183.51 -3.90405 -0.364163 0
M  V30 12529 H 1185 -3.95066 -1.35324 0
M  V30 12530 N 1185.44 -0.462799 -1.50652 0
M  V30 12531 C 1186.4 0.324264 -2.26895 0
M  V30 12532 C 1187.4 0.927687 -1.31342 0
M  V30 12533 O 1188.59 0.798159 -1.54839 0
M  V30 12534 C 1185.72 1.46113 -3.08 0
M  V30 12535 H 1186.91 -0.344266 -2.97917 0
M  V30 12536 H 1184.47 -0.216631 -1.54791 0
M  V30 12537 H 1185.2 2.16496 -2.41454 0
M  V30 12538 H 1184.99 1.03433 -3.78212 0
M  V30 12539 H 1186.48 2.01655 -3.65684 0
M  V30 12540 N 1186.91 1.56388 -0.195085 0
M  V30 12541 C 1187.88 2.17859 0.712053 0
M  V30 12542 C 1188.88 1.13304 1.141 0
M  V30 12543 O 1190.07 1.38689 1.05409 0
M  V30 12544 C 1187.2 2.78065 1.97213 0
M  V30 12545 H 1188.39 2.9938 0.176529 0
M  V30 12546 H 1185.95 1.56205 0.0545322 0
M  V30 12547 H 1186.68 2.00342 2.55017 0
M  V30 12548 H 1186.47 3.54603 1.67329 0
M  V30 12549 H 1187.96 3.25266 2.619 0
M  V30 12550 N 1188.39 -0.0785156 1.57404 0
M  V30 12551 C 1189.63 -0.784359 1.88752 0
M  V30 12552 C 1190 -1.75081 0.788079 0
M  V30 12553 O 1191.2 -2.50125 0.984431 0
M  V30 12554 C 1189.47 -1.47962 3.25334 0
M  V30 12555 S 1191.03 -2.22146 3.78413 0
M  V30 12556 H 1187.85 -0.260976 0.661372 0
M  V30 12557 H 1190.45 -0.0407396 1.95458 0
M  V30 12558 H 1189.15 -0.762338 4.03257 0
M  V30 12559 H 1188.68 -2.26281 3.21808 0
M  V30 12560 H 1190.7 -3.48558 3.5316 0
M  V30 12561 N 1189.87 -1.5367 -0.349747 0
M  V30 12562 C 1190.8 -1.84208 -1.43492 0
M  V30 12563 C 1191.78 -0.696725 -1.55177 0
M  V30 12564 O 1192.97 -0.948061 -1.69486 0
M  V30 12565 C 1190.1 -2.04613 -2.80625 0
M  V30 12566 C 1189.05 -3.20419 -2.83753 0
M  V30 12567 C 1188.38 -3.26147 -4.23713 0
M  V30 12568 C 1189.68 -4.58666 -2.49846 0
M  V30 12569 H 1191.37 -2.75087 -1.18185 0
M  V30 12570 H 1188.92 -1.32363 -0.567101 0
M  V30 12571 H 1190.87 -2.2456 -3.56582 0
M  V30 12572 H 1189.59 -1.10459 -3.07354 0
M  V30 12573 H 1188.25 -3.00318 -2.10249 0
M  V30 12574 H 1187.9 -2.29599 -4.47541 0
M  V30 12575 H 1187.6 -4.03963 -4.26717 0
M  V30 12576 H 1189.12 -3.48296 -5.0152 0
M  V30 12577 H 1190.54 -4.78668 -3.15516 0
M  V30 12578 H 1188.94 -5.3884 -2.64144 0
M  V30 12579 H 1190.01 -4.62697 -1.4505 0
M  V30 12580 N 1191.35 0.610423 -1.45298 0
M  V30 12581 C 1192.28 1.73207 -1.56594 0
M  V30 12582 C 1193.26 1.64893 -0.417651 0
M  V30 12583 O 1194.44 1.83336 -0.64043 0
M  V30 12584 C 1191.57 3.11803 -1.52959 0
M  V30 12585 C 1190.53 3.34925 -2.66475 0
M  V30 12586 C 1189.85 4.73764 -2.47894 0
M  V30 12587 C 1191.15 3.25456 -4.08504 0
M  V30 12588 H 1192.85 1.6401 -2.50482 0
M  V30 12589 H 1190.39 0.787621 -1.20551 0
M  V30 12590 H 1192.35 3.90065 -1.59458 0
M  V30 12591 H 1191.07 3.21833 -0.55599 0
M  V30 12592 H 1189.73 2.59051 -2.59399 0
M  V30 12593 H 1189.38 4.80524 -1.4868 0
M  V30 12594 H 1189.08 4.90191 -3.24016 0
M  V30 12595 H 1190.6 5.54231 -2.56243 0
M  V30 12596 H 1192.02 3.93597 -4.16839 0
M  V30 12597 H 1190.41 3.53414 -4.84994 0
M  V30 12598 H 1191.48 2.22939 -4.30612 0
M  V30 12599 N 1192.83 1.32541 0.852676 0
M  V30 12600 C 1194.07 1.22971 1.60383 0
M  V30 12601 C 1194.4 -0.208009 1.93887 0
M  V30 12602 O 1193.67 -1.13326 1.59794 0
M  V30 12603 H 1192.25 0.452149 0.594618 0
M  V30 12604 H 1194.91 1.66089 1.01983 0
M  V30 12605 H 1194 1.81373 2.53989 0
M  V30 12606 N 1194.3 -1.0692 1.15784 0
M  V30 12607 C 1195.24 -2.14168 0.816375 0
M  V30 12608 C 1196.25 -1.61872 -0.17357 0
M  V30 12609 O 1197.44 -1.78429 0.0502973 0
M  V30 12610 C 1194.54 -3.38346 0.193682 0
M  V30 12611 C 1193.71 -4.19979 1.22215 0
M  V30 12612 C 1192.77 -5.2253 0.620424 0
M  V30 12613 O 1191.8 -5.54446 1.28757 0
M  V30 12614 N 1193 -5.77434 -0.595811 0
M  V30 12615 H 1195.76 -2.44062 1.73937 0
M  V30 12616 H 1193.32 -1.22865 1.05431 0
M  V30 12617 H 1195.32 -4.04092 -0.22174 0
M  V30 12618 H 1193.89 -3.06129 -0.632735 0
M  V30 12619 H 1193.11 -3.49984 1.81397 0
M  V30 12620 H 1194.39 -4.71329 1.91641 0
M  V30 12621 H 1193.79 -5.5376 -1.15611 0
M  V30 12622 H 1192.35 -6.44788 -0.953529 0
M  V30 12623 N 1195.78 -0.955326 -1.25345 0
M  V30 12624 C 1196.71 -0.494145 -2.28211 0
M  V30 12625 C 1197.69 0.459875 -1.63766 0
M  V30 12626 O 1198.88 0.358679 -1.90859 0
M  V30 12627 C 1196.01 0.228228 -3.46549 0
M  V30 12628 C 1194.96 -0.640601 -4.23179 0
M  V30 12629 C 1194.29 0.212553 -5.34277 0
M  V30 12630 C 1195.59 -1.91906 -4.85767 0
M  V30 12631 H 1197.28 -1.35391 -2.67039 0
M  V30 12632 H 1194.83 -0.652462 -1.2837 0
M  V30 12633 H 1196.78 0.561995 -4.17636 0
M  V30 12634 H 1195.51 1.12224 -3.06714 0
M  V30 12635 H 1194.16 -0.957462 -3.53876 0
M  V30 12636 H 1193.81 1.10634 -4.90682 0
M  V30 12637 H 1193.51 -0.365473 -5.86462 0
M  V30 12638 H 1195.04 0.541271 -6.08196 0
M  V30 12639 H 1196.45 -1.65165 -5.48993 0
M  V30 12640 H 1194.85 -2.44279 -5.48131 0
M  V30 12641 H 1195.92 -2.62173 -4.07914 0
M  V30 12642 N 1197.26 1.39987 -0.723979 0
M  V30 12643 C 1198.51 2.00334 -0.266587 0
M  V30 12644 C 1198.83 1.57714 1.14679 0
M  V30 12645 O 1198.1 0.82037 1.77895 0
M  V30 12646 H 1196.68 0.740861 -0.095573 0
M  V30 12647 H 1199.34 1.712 -0.931481 0
M  V30 12648 H 1198.44 3.10594 -0.306282 0
M  V30 12649 N 1198.74 0.470782 1.50404 0
M  V30 12650 C 1199.67 -0.359838 2.26358 0
M  V30 12651 C 1200.68 -0.95735 1.31676 0
M  V30 12652 O 1201.87 -0.84581 1.57189 0
M  V30 12653 C 1198.97 -1.51864 3.02969 0
M  V30 12654 C 1198.15 -1.03397 4.25003 0
M  V30 12655 C 1197.21 -2.06679 4.83911 0
M  V30 12656 O 1196.23 -1.64754 5.44835 0
M  V30 12657 N 1197.43 -3.39484 4.70883 0
M  V30 12658 H 1200.2 0.291299 2.98281 0
M  V30 12659 H 1197.76 0.301549 1.59067 0
M  V30 12660 H 1199.75 -2.2065 3.39258 0
M  V30 12661 H 1198.32 -2.07448 2.33846 0
M  V30 12662 H 1197.54 -0.172012 3.93825 0
M  V30 12663 H 1198.83 -0.68807 5.04126 0
M  V30 12664 H 1198.23 -3.76256 4.22431 0
M  V30 12665 H 1196.78 -4.04068 5.11441 0
M  V30 12666 N 1200.22 -1.56282 0.203376 0
M  V30 12667 C 1201.15 -2.16714 -0.74616 0
M  V30 12668 C 1202.16 -1.13121 -1.17079 0
M  V30 12669 O 1203.35 -1.40179 -1.10509 0
M  V30 12670 C 1200.45 -2.72115 -2.02007 0
M  V30 12671 C 1199.62 -4.00695 -1.75391 0
M  V30 12672 C 1198.68 -4.40839 -2.8731 0
M  V30 12673 O 1197.71 -5.081 -2.56561 0
M  V30 12674 N 1198.91 -4.05024 -4.15856 0
M  V30 12675 H 1201.68 -2.98821 -0.229326 0
M  V30 12676 H 1199.24 -1.61885 0.0217049 0
M  V30 12677 H 1201.23 -2.95951 -2.76035 0
M  V30 12678 H 1199.8 -1.94415 -2.44789 0
M  V30 12679 H 1199.02 -3.84905 -0.851 0
M  V30 12680 H 1200.31 -4.8461 -1.55017 0
M  V30 12681 H 1199.71 -3.50938 -4.43688 0
M  V30 12682 H 1198.26 -4.33792 -4.86485 0
M  V30 12683 N 1201.7 0.070167 -1.57444 0
M  V30 12684 C 1202.94 0.767495 -1.8696 0
M  V30 12685 C 1203.26 1.78032 -0.795595 0
M  V30 12686 O 1202.53 1.95112 0.175566 0
M  V30 12687 H 1201.11 0.286443 -0.689898 0
M  V30 12688 H 1203.78 0.0458692 -1.94846 0
M  V30 12689 H 1202.87 1.28269 -2.84523 0
M  V30 12690 N 1203.17 1.53854 0.341593 0
M  V30 12691 C 1204.42 1.71447 1.08322 0
M  V30 12692 C 1204.75 0.477289 1.88243 0
M  V30 12693 O 1204.03 -0.525695 1.87261 0
M  V30 12694 C 1204.31 2.97917 2.02281 0
M  V30 12695 C 1204.16 4.31847 1.25809 0
M  V30 12696 C 1205.48 3.20065 3.0207 0
M  V30 12697 H 1202.6 0.623847 0.392408 0
M  V30 12698 H 1205.24 1.86527 0.361594 0
M  V30 12699 H 1203.39 2.85191 2.63815 0
M  V30 12700 H 1205.07 4.56427 0.668737 0
M  V30 12701 H 1203.31 4.30169 0.560119 0
M  V30 12702 H 1203.98 5.16522 1.94704 0
M  V30 12703 H 1206.46 3.32135 2.50651 0
M  V30 12704 H 1205.33 4.09947 3.65013 0
M  V30 12705 H 1205.59 2.36452 3.73554 0
M  V30 12706 N 1204.65 -0.602709 1.4562 0
M  V30 12707 C 1205.88 -1.3881 1.53426 0
M  V30 12708 C 1206.29 -1.88046 0.16851 0
M  V30 12709 O 1205.65 -1.62493 -0.830791 0
M  V30 12710 C 1205.7 -2.58927 2.52268 0
M  V30 12711 O 1205.42 -2.11735 3.83536 0
M  V30 12712 C 1206.92 -3.51728 2.69819 0
M  V30 12713 H 1204.14 -0.424744 0.519455 0
M  V30 12714 H 1206.69 -0.73459 1.90851 0
M  V30 12715 H 1204.84 -3.20309 2.17902 0
M  V30 12716 H 1205.26 -2.89814 4.37159 0
M  V30 12717 H 1206.73 -4.32542 3.42945 0
M  V30 12718 H 1207.21 -4.02383 1.76024 0
M  V30 12719 H 1207.81 -2.96196 3.05202 0
M  V30 12720 N 1206.13 -1.32992 -0.845635 0
M  V30 12721 C 1207.38 -1.24065 -1.60044 0
M  V30 12722 C 1207.7 0.195282 -1.93517 0
M  V30 12723 O 1206.96 1.1507 -1.58296 0
M  V30 12724 C 1207.26 -2.05454 -2.92444 0
M  V30 12725 C 1206.92 -3.54718 -2.78362 0
M  V30 12726 C 1205.59 -3.95413 -2.74229 0
M  V30 12727 C 1207.94 -4.49598 -2.63649 0
M  V30 12728 C 1205.27 -5.29216 -2.53274 0
M  V30 12729 C 1207.62 -5.83554 -2.44228 0
M  V30 12730 C 1206.28 -6.2344 -2.38493 0
M  V30 12731 H 1205.55 -0.453985 -0.585644 0
M  V30 12732 H 1208.2 -1.6451 -0.980244 0
M  V30 12733 H 1206.5 -1.57765 -3.58633 0
M  V30 12734 H 1208.2 -1.95909 -3.49887 0
M  V30 12735 H 1204.79 -3.22403 -2.82409 0
M  V30 12736 H 1208.98 -4.19072 -2.65881 0
M  V30 12737 H 1204.23 -5.59164 -2.47275 0
M  V30 12738 H 1208.41 -6.56681 -2.31825 0
M  V30 12739 H 1206.03 -7.27058 -2.22015 0
M  V30 12740 N 1207.61 1.06304 -1.1635 0
M  V30 12741 C 1208.88 1.75916 -0.855166 0
M  V30 12742 C 1209.26 2.0094 0.647024 0
M  V30 12743 O 1208.61 1.63642 1.59479 0
M  V30 12744 C 1208.82 3.06028 -1.67774 0
M  V30 12745 C 1210.17 3.80184 -1.89065 0
M  V30 12746 O 1211.19 3.15868 -1.64639 0
M  V30 12747 O 1210.05 4.95723 -2.30045 0
M  V30 12748 H 1207.15 0.764432 -0.315551 0
M  V30 12749 H 1209.69 1.12574 -1.26985 0
M  V30 12750 H 1208.47 2.83498 -2.69712 0
M  V30 12751 H 1208.09 3.77104 -1.26009 0
M  V30 12752 N 1209.09 0.96196 1.24836 0
M  V30 12753 C 1210.02 0.506241 2.27946 0
M  V30 12754 C 1211 -0.451183 1.64007 0
M  V30 12755 O 1212.18 -0.348552 1.91046 0
M  V30 12756 C 1209.31 -0.209846 3.46665 0
M  V30 12757 C 1208.27 0.663035 4.22833 0
M  V30 12758 C 1207.59 -0.184216 5.34383 0
M  V30 12759 C 1208.89 1.94479 4.84742 0
M  V30 12760 H 1210.59 1.36805 2.66317 0
M  V30 12761 H 1208.13 0.65926 1.28023 0
M  V30 12762 H 1210.08 -0.539838 4.17928 0
M  V30 12763 H 1208.81 -1.10596 3.07305 0
M  V30 12764 H 1207.47 0.976216 3.53363 0
M  V30 12765 H 1207.12 -1.08031 4.91262 0
M  V30 12766 H 1206.82 0.39657 5.8626 0
M  V30 12767 H 1208.34 -0.509009 6.08475 0
M  V30 12768 H 1209.75 1.68074 5.48109 0
M  V30 12769 H 1208.15 2.47183 5.46828 0
M  V30 12770 H 1209.22 2.64332 4.06517 0
M  V30 12771 N 1210.56 -1.39601 0.731392 0
M  V30 12772 C 1211.5 -2.29147 0.0494974 0
M  V30 12773 C 1212.51 -1.46635 -0.707248 0
M  V30 12774 O 1213.7 -1.6975 -0.552008 0
M  V30 12775 C 1210.8 -3.25191 -0.954152 0
M  V30 12776 C 1209.97 -4.36629 -0.259674 0
M  V30 12777 C 1209.03 -5.13007 -1.17092 0
M  V30 12778 O 1208.06 -5.65479 -0.64976 0
M  V30 12779 N 1209.26 -5.23865 -2.50092 0
M  V30 12780 H 1212.02 -2.88308 0.818433 0
M  V30 12781 H 1209.58 -1.51142 0.580316 0
M  V30 12782 H 1211.58 -3.73161 -1.56629 0
M  V30 12783 H 1210.15 -2.67085 -1.62432 0
M  V30 12784 H 1209.37 -3.90582 0.532888 0
M  V30 12785 H 1210.65 -5.08317 0.221753 0
M  V30 12786 H 1210.05 -4.82745 -2.94913 0
M  V30 12787 H 1208.61 -5.75288 -3.0641 0
M  V30 12788 N 1212.04 -0.478751 -1.50152 0
M  V30 12789 C 1213.45 -0.0254907 -1.86683 0
M  V30 12790 C 1213.8 1.38171 -1.39295 0
M  V30 12791 O 1212.93 2.0257 -0.761207 0
M  V30 12792 C 1213.52 -0.0394819 -3.38777 0
M  V30 12793 C 1212.08 0.35834 -3.7469 0
M  V30 12794 C 1211.23 -0.421667 -2.74075 0
M  V30 12795 H 1214.18 -0.692653 -1.42787 0
M  V30 12796 H 1214.2 0.760957 -3.72813 0
M  V30 12797 H 1213.71 -1.06378 -3.73236 0
M  V30 12798 H 1211.82 1.38671 -3.45834 0
M  V30 12799 H 1211.93 0.0543589 -4.79069 0
M  V30 12800 H 1210.29 0.125634 -2.5439 0
M  V30 12801 H 1211.08 -1.44562 -3.11379 0
M  V30 12802 N 1213.52 1.56172 -0.211661 0
M  V30 12803 C 1214.45 2.15791 0.74225 0
M  V30 12804 C 1215.43 1.0994 1.198 0
M  V30 12805 O 1216.62 1.38143 1.28253 0
M  V30 12806 C 1213.74 2.73021 2.00443 0
M  V30 12807 C 1212.79 3.91611 1.68946 0
M  V30 12808 S 1213.62 5.29139 0.822949 0
M  V30 12809 C 1214.78 5.898 2.09491 0
M  V30 12810 H 1215.01 2.96366 0.235482 0
M  V30 12811 H 1212.54 1.544 0.0035357 0
M  V30 12812 H 1214.5 3.06635 2.7292 0
M  V30 12813 H 1213.16 1.92457 2.48232 0
M  V30 12814 H 1212.36 4.30122 2.62699 0
M  V30 12815 H 1211.96 3.59093 1.04539 0
M  V30 12816 H 1214.25 6.05172 3.04587 0
M  V30 12817 H 1215.19 6.86036 1.75386 0
M  V30 12818 H 1215.6 5.18546 2.23093 0
M  V30 12819 N 1215 -0.0618163 1.57479 0
M  V30 12820 C 1215.91 -1.09006 2.07738 0
M  V30 12821 C 1216.92 -1.4176 1.00896 0
M  V30 12822 O 1218.1 -1.51737 1.32431 0
M  V30 12823 C 1215.17 -2.38153 2.5196 0
M  V30 12824 C 1214.23 -2.12279 3.73143 0
M  V30 12825 C 1213.46 -3.35269 4.15248 0
M  V30 12826 O 1213.68 -4.44758 3.57137 0
M  V30 12827 O 1212.62 -3.22894 5.0796 0
M  V30 12828 H 1216.44 -0.693059 2.95686 0
M  V30 12829 H 1214.03 -0.276628 1.46817 0
M  V30 12830 H 1215.91 -3.14139 2.80882 0
M  V30 12831 H 1214.58 -2.77213 1.67137 0
M  V30 12832 H 1213.49 -1.33966 3.49291 0
M  V30 12833 H 1214.82 -1.78094 4.5885 0
M  V30 12834 N 1216.48 -1.54033 -0.333429 0
M  V30 12835 C 1217.72 -1.72958 -1.07038 0
M  V30 12836 C 1218.08 -0.492055 -1.86002 0
M  V30 12837 O 1217.37 0.515453 -1.84536 0
M  V30 12838 C 1217.56 -2.93926 -2.03328 0
M  V30 12839 C 1217.39 -4.29324 -1.33831 0
M  V30 12840 C 1216.16 -4.93647 -1.07892 0
M  V30 12841 C 1218.36 -5.08664 -0.75929 0
M  V30 12842 N 1216.34 -6.12897 -0.35082 0
M  V30 12843 C 1217.71 -6.19788 -0.162281 0
M  V30 12844 C 1219.77 -4.93491 -0.661131 0
M  V30 12845 C 1218.47 -7.17394 0.523351 0
M  V30 12846 C 1220.5 -5.91399 0.0107794 0
M  V30 12847 C 1219.86 -7.01867 0.596775 0
M  V30 12848 H 1215.96 -0.685828 -0.375718 0
M  V30 12849 H 1218.54 -1.91478 -0.35274 0
M  V30 12850 H 1216.71 -2.76889 -2.72373 0
M  V30 12851 H 1218.45 -3.01524 -2.69936 0
M  V30 12852 H 1215.2 -4.53392 -1.36868 0
M  V30 12853 H 1215.63 -6.77 -0.00120039 0
M  V30 12854 H 1220.27 -4.08242 -1.09991 0
M  V30 12855 H 1217.99 -8.02209 0.973994 0
M  V30 12856 H 1221.57 -5.81736 0.0862353 0
M  V30 12857 H 1220.45 -7.76327 1.10845 0
M  V30 12858 N 1217.95 0.594978 -1.45938 0
M  V30 12859 C 1218.89 1.71911 -1.50072 0
M  V30 12860 C 1219.87 1.58657 -0.355913 0
M  V30 12861 O 1221.05 1.80043 -0.558272 0
M  V30 12862 C 1218.18 3.09858 -1.3677 0
M  V30 12863 C 1217.22 3.41667 -2.55277 0
M  V30 12864 S 1218.06 3.35101 -4.17693 0
M  V30 12865 C 1219.21 4.75606 -4.06878 0
M  V30 12866 H 1219.44 1.68143 -2.45184 0
M  V30 12867 H 1216.98 0.772698 -1.33674 0
M  V30 12868 H 1218.94 3.89444 -1.29782 0
M  V30 12869 H 1217.6 3.11128 -0.431073 0
M  V30 12870 H 1216.79 4.42138 -2.41929 0
M  V30 12871 H 1216.39 2.69622 -2.59191 0
M  V30 12872 H 1218.68 5.65708 -3.72801 0
M  V30 12873 H 1219.63 4.9401 -5.07306 0
M  V30 12874 H 1220.03 4.5188 -3.38327 0
M  V30 12875 N 1219.43 1.33438 0.838571 0
M  V30 12876 C 1220.4 1.23632 1.92997 0
M  V30 12877 C 1221.4 0.155302 1.60048 0
M  V30 12878 O 1222.59 0.406852 1.69382 0
M  V30 12879 C 1219.72 0.90512 3.28665 0
M  V30 12880 H 1220.91 2.20643 2.03117 0
M  V30 12881 H 1218.46 1.17501 1.03069 0
M  V30 12882 H 1219.2 -0.0624833 3.2424 0
M  V30 12883 H 1218.98 1.68688 3.53959 0
M  V30 12884 H 1220.47 0.861262 4.08622 0
M  V30 12885 N 1220.91 -1.05686 1.16912 0
M  V30 12886 C 1221.87 -2.11481 0.883647 0
M  V30 12887 C 1222.87 -1.60321 -0.124034 0
M  V30 12888 O 1224.06 -1.73868 0.107566 0
M  V30 12889 C 1221.2 -3.3937 0.322649 0
M  V30 12890 H 1222.39 -2.38239 1.8216 0
M  V30 12891 H 1219.94 -1.2185 0.978895 0
M  V30 12892 H 1220.68 -3.18266 -0.622695 0
M  V30 12893 H 1220.46 -3.77812 1.04883 0
M  V30 12894 H 1221.95 -4.17362 0.141072 0
M  V30 12895 N 1222.39 -0.968567 -1.24324 0
M  V30 12896 C 1223.35 -0.504307 -2.23583 0
M  V30 12897 C 1224.35 0.399626 -1.55755 0
M  V30 12898 O 1225.54 0.194966 -1.73106 0
M  V30 12899 C 1222.67 0.26956 -3.39833 0
M  V30 12900 H 1223.87 -1.3818 -2.6617 0
M  V30 12901 H 1221.42 -0.753241 -1.36952 0
M  V30 12902 H 1222.15 1.16411 -3.02686 0
M  V30 12903 H 1221.94 -0.379133 -3.90263 0
M  V30 12904 H 1223.43 0.583376 -4.13505 0
M  V30 12905 N 1223.87 1.39211 -0.738786 0
M  V30 12906 C 1225.09 2.04732 -0.298751 0
M  V30 12907 C 1225.51 1.55706 1.06776 0
M  V30 12908 O 1224.87 0.723605 1.67542 0
M  V30 12909 C 1224.92 3.60288 -0.29574 0
M  V30 12910 O 1224.64 4.07511 -1.60831 0
M  V30 12911 C 1226.14 4.43011 0.159994 0
M  V30 12912 H 1223.36 0.658296 -0.129952 0
M  V30 12913 H 1225.9 1.78186 -1.0035 0
M  V30 12914 H 1224.06 3.85722 0.360146 0
M  V30 12915 H 1224.47 5.01858 -1.52443 0
M  V30 12916 H 1225.95 5.51889 0.110941 0
M  V30 12917 H 1226.42 4.22325 1.20573 0
M  V30 12918 H 1227.03 4.22734 -0.466467 0
M  V30 12919 N 1225.34 0.486708 1.49896 0
M  V30 12920 C 1226.29 -0.318255 2.25768 0
M  V30 12921 C 1227.28 -0.94799 1.30008 0
M  V30 12922 O 1228.47 -0.857954 1.54816 0
M  V30 12923 C 1225.6 -1.39057 3.13876 0
M  V30 12924 C 1224.69 -0.767787 4.17092 0
M  V30 12925 N 1225.08 0.121163 5.05655 0
M  V30 12926 C 1223.37 -1.02999 4.33944 0
M  V30 12927 C 1224.08 0.47621 5.79747 0
M  V30 12928 N 1223.05 -0.152422 5.43386 0
M  V30 12929 H 1226.85 0.366294 2.91608 0
M  V30 12930 H 1224.37 0.301852 1.5957 0
M  V30 12931 H 1226.36 -1.98056 3.6685 0
M  V30 12932 H 1225.02 -2.07694 2.49586 0
M  V30 12933 H 1226.04 0.491043 5.15567 0
M  V30 12934 H 1222.71 -1.71018 3.80866 0
M  V30 12935 H 1224.1 1.20262 6.6105 0
M  V30 12936 N 1226.82 -1.56058 0.219941 0
M  V30 12937 C 1227.79 -2.18964 -0.677303 0
M  V30 12938 C 1228.79 -1.15105 -1.12283 0
M  V30 12939 O 1229.98 -1.40348 -1.03189 0
M  V30 12940 C 1227.11 -2.81167 -1.92764 0
M  V30 12941 H 1228.3 -2.99623 -0.128877 0
M  V30 12942 H 1225.85 -1.56272 -0.0296744 0
M  V30 12943 H 1226.59 -2.04374 -2.51797 0
M  V30 12944 H 1226.37 -3.5722 -1.61666 0
M  V30 12945 H 1227.86 -3.29391 -2.56693 0
M  V30 12946 N 1228.3 0.053464 -1.57509 0
M  V30 12947 C 1229.23 1.06151 -2.07977 0
M  V30 12948 C 1230.21 1.3924 -0.977047 0
M  V30 12949 O 1231.4 1.48549 -1.25087 0
M  V30 12950 C 1228.53 2.36969 -2.53895 0
M  V30 12951 C 1227.48 2.18186 -3.6821 0
M  V30 12952 C 1226.81 3.54551 -4.00247 0
M  V30 12953 C 1228.11 1.588 -4.97574 0
M  V30 12954 H 1229.8 0.641483 -2.92447 0
M  V30 12955 H 1227.35 0.307122 -1.40687 0
M  V30 12956 H 1229.3 3.07797 -2.87817 0
M  V30 12957 H 1228.02 2.80986 -1.66476 0
M  V30 12958 H 1226.68 1.49796 -3.34599 0
M  V30 12959 H 1226.33 3.96171 -3.09932 0
M  V30 12960 H 1226.03 3.42816 -4.77232 0
M  V30 12961 H 1227.56 4.2678 -4.36682 0
M  V30 12962 H 1228.97 2.19515 -5.29609 0
M  V30 12963 H 1227.37 1.57711 -5.79006 0
M  V30 12964 H 1228.44 0.551254 -4.81756 0
M  V30 12965 N 1229.78 1.54207 0.325255 0
M  V30 12966 C 1231 1.7661 1.08736 0
M  V30 12967 C 1231.43 0.512449 1.80985 0
M  V30 12968 O 1230.79 -0.535913 1.73198 0
M  V30 12969 C 1230.84 2.95797 2.06243 0
M  V30 12970 O 1229.94 2.67225 3.14109 0
M  V30 12971 H 1229.28 0.585282 0.313593 0
M  V30 12972 H 1231.81 2.01225 0.370066 0
M  V30 12973 H 1231.82 3.23097 2.49143 0
M  V30 12974 H 1230.5 3.86712 1.53058 0
M  V30 12975 H 1229.07 2.50869 2.75897 0
M  V30 12976 N 1231.26 -0.58723 1.46251 0
M  V30 12977 C 1232.22 -1.67863 1.5606 0
M  V30 12978 C 1233.22 -1.54715 0.438162 0
M  V30 12979 O 1234.41 -1.59415 0.702323 0
M  V30 12980 C 1231.54 -3.07262 1.47659 0
M  V30 12981 H 1232.74 -1.60525 2.53321 0
M  V30 12982 H 1230.29 -0.804691 1.33994 0
M  V30 12983 H 1231.02 -3.20159 0.5166 0
M  V30 12984 H 1230.81 -3.18213 2.29092 0
M  V30 12985 H 1232.3 -3.8672 1.57599 0
M  V30 12986 N 1232.74 -1.33881 -0.831482 0
M  V30 12987 C 1234.15 -1.23112 -1.40358 0
M  V30 12988 C 1234.5 0.146944 -1.95649 0
M  V30 12989 O 1233.62 1.04689 -1.89391 0
M  V30 12990 C 1234.22 -2.22899 -2.5515 0
M  V30 12991 C 1232.78 -2.15946 -3.08292 0
M  V30 12992 C 1231.92 -2.09975 -1.81124 0
M  V30 12993 H 1234.87 -1.45372 -0.63661 0
M  V30 12994 H 1234.9 -1.841 -3.32997 0
M  V30 12995 H 1234.41 -3.23186 -2.14878 0
M  V30 12996 H 1232.51 -1.18987 -3.53091 0
M  V30 12997 H 1232.62 -3.06822 -3.67964 0
M  V30 12998 H 1230.99 -1.55564 -2.01673 0
M  V30 12999 H 1231.77 -3.12082 -1.43037 0
M  V30 13000 N 1234.21 1.05064 -1.1747 0
M  V30 13001 C 1235.18 2.1101 -0.89485 0
M  V30 13002 C 1236.18 1.60384 0.11553 0
M  V30 13003 O 1237.37 1.73808 -0.116785 0
M  V30 13004 C 1234.5 3.39194 -0.340642 0
M  V30 13005 H 1235.69 2.37269 -1.83421 0
M  V30 13006 H 1233.24 1.21329 -0.985343 0
M  V30 13007 H 1233.98 3.18591 0.605808 0
M  V30 13008 H 1233.76 3.77251 -1.06885 0
M  V30 13009 H 1235.25 4.17281 -0.163204 0
M  V30 13010 N 1235.69 0.975146 1.23809 0
M  V30 13011 C 1236.6 0.51917 2.28783 0
M  V30 13012 C 1237.62 -0.423487 1.68768 0
M  V30 13013 O 1238.79 -0.294699 1.99232 0
M  V30 13014 C 1235.86 -0.176229 3.46252 0
M  V30 13015 C 1234.92 0.807177 4.21643 0
M  V30 13016 C 1234.15 0.144869 5.33503 0
M  V30 13017 O 1234.38 -1.06522 5.60365 0
M  V30 13018 O 1233.31 0.84079 5.95999 0
M  V30 13019 H 1237.14 1.39204 2.69919 0
M  V30 13020 H 1234.72 0.74253 1.29641 0
M  V30 13021 H 1236.6 -0.566547 4.17574 0
M  V30 13022 H 1235.28 -1.02394 3.07078 0
M  V30 13023 H 1234.18 1.2481 3.52666 0
M  V30 13024 H 1235.52 1.62354 4.64653 0
M  V30 13025 N 1237.17 -1.38817 0.746158 0
M  V30 13026 C 1238.42 -2.00577 0.299458 0
M  V30 13027 C 1238.75 -1.59087 -1.11378 0
M  V30 13028 O 1238.02 -0.824932 -1.7614 0
M  V30 13029 C 1238.31 -3.57713 0.413932 0
M  V30 13030 C 1238.16 -4.09189 1.86774 0
M  V30 13031 C 1239.48 -4.39659 -0.197082 0
M  V30 13032 H 1236.6 -0.728702 0.110285 0
M  V30 13033 H 1239.24 -1.64866 0.944408 0
M  V30 13034 H 1237.39 -3.88265 -0.135155 0
M  V30 13035 H 1239.06 -3.89311 2.47456 0
M  V30 13036 H 1237.3 -3.62333 2.38532 0
M  V30 13037 H 1237.98 -5.18305 1.89904 0
M  V30 13038 H 1240.45 -4.15216 0.271121 0
M  V30 13039 H 1239.33 -5.48832 -0.0867011 0
M  V30 13040 H 1239.59 -4.23028 -1.2845 0
M  V30 13041 N 1238.65 -0.49465 -1.49636 0
M  V30 13042 C 1240.06 -0.150217 -1.58892 0
M  V30 13043 C 1240.26 1.34485 -1.50053 0
M  V30 13044 O 1239.32 2.12026 -1.37118 0
M  V30 13045 C 1240.63 -0.721372 -2.91919 0
M  V30 13046 C 1242.18 -0.686908 -3.0537 0
M  V30 13047 C 1242.66 -1.23601 -4.41006 0
M  V30 13048 N 1244.15 -1.19644 -4.47481 0
M  V30 13049 C 1244.88 -1.59157 -5.50869 0
M  V30 13050 N 1244.38 -2.06232 -6.61393 0
M  V30 13051 N 1246.17 -1.50612 -5.41546 0
M  V30 13052 H 1238.32 -1.46675 -1.53624 0
M  V30 13053 H 1240.58 -0.608003 -0.727349 0
M  V30 13054 H 1240.29 -1.76964 -3.03935 0
M  V30 13055 H 1240.16 -0.178199 -3.76779 0
M  V30 13056 H 1242.55 0.352508 -2.92987 0
M  V30 13057 H 1242.63 -1.26716 -2.22209 0
M  V30 13058 H 1242.28 -2.27418 -4.5414 0
M  V30 13059 H 1242.21 -0.631765 -5.22797 0
M  V30 13060 H 1244.7 -0.851443 -3.68183 0
M  V30 13061 H 1245.01 -2.34469 -7.36372 0
M  V30 13062 H 1243.36 -2.10202 -6.6245 0
M  V30 13063 H 1246.55 -1.13659 -4.54092 0
M  V30 13064 H 1246.72 -1.8173 -6.21995 0
M  V30 13065 N 1240.13 1.55939 -0.228214 0
M  V30 13066 C 1241.06 2.2357 0.6737 0
M  V30 13067 C 1242.04 1.20964 1.1959 0
M  V30 13068 O 1243.22 1.49568 1.23867 0
M  V30 13069 C 1240.35 2.92076 1.87906 0
M  V30 13070 C 1239.31 4.01211 1.49043 0
M  V30 13071 C 1238.63 4.57047 2.77511 0
M  V30 13072 C 1239.93 5.17914 0.67544 0
M  V30 13073 H 1241.63 2.99199 0.109806 0
M  V30 13074 H 1239.17 1.43908 0.0513732 0
M  V30 13075 H 1241.12 3.38083 2.51551 0
M  V30 13076 H 1239.85 2.13906 2.46803 0
M  V30 13077 H 1238.51 3.55945 0.877411 0
M  V30 13078 H 1238.16 3.75599 3.34566 0
M  V30 13079 H 1237.86 5.30707 2.52239 0
M  V30 13080 H 1239.38 5.05776 3.42087 0
M  V30 13081 H 1240.79 5.60261 1.21575 0
M  V30 13082 H 1239.19 5.97847 0.519536 0
M  V30 13083 H 1240.26 4.83866 -0.316495 0
M  V30 13084 N 1241.6 -0.0451101 1.57535 0
M  V30 13085 C 1242.83 -0.75132 1.92777 0
M  V30 13086 C 1243.25 -1.69743 0.826599 0
M  V30 13087 O 1242.6 -1.8142 -0.198224 0
M  V30 13088 C 1242.66 -1.52218 3.2789 0
M  V30 13089 O 1242.38 -0.614059 4.33775 0
M  V30 13090 C 1243.88 -2.32699 3.77314 0
M  V30 13091 H 1241.1 -0.21211 0.636593 0
M  V30 13092 H 1243.64 -0.0074174 2.04499 0
M  V30 13093 H 1241.8 -2.2181 3.17614 0
M  V30 13094 H 1242.21 -1.15294 5.11671 0
M  V30 13095 H 1243.68 -2.82205 4.7441 0
M  V30 13096 H 1244.16 -3.13414 3.07682 0
M  V30 13097 H 1244.77 -1.68212 3.90621 0
M  V30 13098 N 1243.08 -1.54377 -0.317073 0
M  V30 13099 C 1244.49 -1.64062 -0.891105 0
M  V30 13100 C 1244.84 -0.538863 -1.88655 0
M  V30 13101 O 1243.97 0.32718 -2.13912 0
M  V30 13102 C 1244.56 -2.97395 -1.62302 0
M  V30 13103 C 1243.12 -3.09253 -2.14568 0
M  V30 13104 C 1242.27 -2.59664 -0.973146 0
M  V30 13105 H 1245.22 -1.58418 -0.0944829 0
M  V30 13106 H 1245.24 -2.87918 -2.48764 0
M  V30 13107 H 1244.75 -3.77562 -0.898268 0
M  V30 13108 H 1242.86 -2.33774 -2.90139 0
M  V30 13109 H 1242.97 -4.15159 -2.39123 0
M  V30 13110 H 1241.33 -2.15719 -1.35416 0
M  V30 13111 H 1242.12 -3.42294 -0.262611 0
M  V30 13112 N 1244.56 0.579466 -1.4656 0
M  V30 13113 C 1245.97 1.1616 -1.46164 0
M  V30 13114 C 1246.32 1.95134 -0.20423 0
M  V30 13115 O 1245.45 2.05022 0.692457 0
M  V30 13116 C 1246.04 2.11322 -2.64818 0
M  V30 13117 C 1244.6 2.64852 -2.67452 0
M  V30 13118 C 1243.75 1.40786 -2.38903 0
M  V30 13119 H 1246.7 0.367229 -1.54393 0
M  V30 13120 H 1246.72 2.94839 -2.4052 0
M  V30 13121 H 1246.23 1.53815 -3.56318 0
M  V30 13122 H 1244.33 3.26219 -1.80032 0
M  V30 13123 H 1244.45 3.07366 -3.67509 0
M  V30 13124 H 1242.81 1.70707 -1.89027 0
M  V30 13125 H 1243.59 0.851049 -3.32584 0
M  V30 13126 N 1246.04 1.3432 0.824371 0
M  V30 13127 C 1247.29 1.26345 1.57738 0
M  V30 13128 C 1247.61 -0.166836 1.94285 0
M  V30 13129 O 1246.88 -1.09911 1.62162 0
M  V30 13130 H 1245.46 0.46466 0.584893 0
M  V30 13131 H 1248.12 1.68214 0.984373 0
M  V30 13132 H 1247.22 1.8672 2.50084 0
M  V30 13133 N 1247.52 -1.0444 1.18026 0
M  V30 13134 C 1248.74 -1.81772 0.998684 0
M  V30 13135 C 1249.17 -1.82682 -0.448225 0
M  V30 13136 O 1248.52 -1.24136 -1.32136 0
M  V30 13137 C 1248.57 -3.2542 1.55352 0
M  V30 13138 O 1247.68 -4.05103 0.772351 0
M  V30 13139 H 1247.02 -0.561731 0.354054 0
M  V30 13140 H 1249.55 -1.31557 1.56697 0
M  V30 13141 H 1249.56 -3.76206 1.57903 0
M  V30 13142 H 1248.23 -3.24073 2.60672 0
M  V30 13143 H 1246.81 -3.63798 0.818852 0
M  V30 13144 N 1248.99 -0.981699 -1.2329 0
M  V30 13145 C 1250.23 -0.659348 -1.93473 0
M  V30 13146 C 1250.6 0.792616 -1.74876 0
M  V30 13147 O 1251.8 1.22586 -2.3922 0
M  V30 13148 C 1250.07 -1.04065 -3.41914 0
M  V30 13149 S 1251.63 -0.834964 -4.30783 0
M  V30 13150 H 1248.45 -0.241428 -0.668755 0
M  V30 13151 H 1251.05 -1.26161 -1.49344 0
M  V30 13152 H 1249.75 -2.09398 -3.5296 0
M  V30 13153 H 1249.28 -0.429721 -3.91046 0
M  V30 13154 H 1251.3 0.280447 -4.95407 0
M  V30 13155 N 1250.47 1.3842 -0.753509 0
M  V30 13156 C 1251.72 1.99723 -0.309021 0
M  V30 13157 C 1252.04 1.60111 1.11308 0
M  V30 13158 O 1251.31 0.85792 1.76115 0
M  V30 13159 H 1249.89 0.738667 -0.111266 0
M  V30 13160 H 1252.55 1.69186 -0.967586 0
M  V30 13161 H 1251.65 3.09874 -0.372095 0
M  V30 13162 N 1251.95 0.502579 1.49372 0
M  V30 13163 C 1253.2 -0.041381 2.02458 0
M  V30 13164 C 1253.53 -1.36848 1.38213 0
M  V30 13165 O 1252.78 -1.89003 0.507568 0
M  V30 13166 C 1253.08 -0.240835 3.56588 0
M  V30 13167 C 1252.75 1.00846 4.39478 0
M  V30 13168 C 1251.41 1.35091 4.61848 0
M  V30 13169 C 1253.76 1.8388 4.87686 0
M  V30 13170 C 1251.09 2.52318 5.29672 0
M  V30 13171 C 1253.44 3.00262 5.56799 0
M  V30 13172 C 1252.1 3.34885 5.77415 0
M  V30 13173 H 1251.37 -0.0151424 0.740845 0
M  V30 13174 H 1254.02 0.663056 1.79655 0
M  V30 13175 H 1252.33 -1.02781 3.78078 0
M  V30 13176 H 1254.02 -0.676194 3.95258 0
M  V30 13177 H 1250.61 0.731719 4.22308 0
M  V30 13178 H 1254.8 1.58738 4.7023 0
M  V30 13179 H 1250.05 2.79379 5.43836 0
M  V30 13180 H 1254.23 3.64927 5.93128 0
M  V30 13181 H 1251.85 4.25824 6.29744 0
M  V30 13182 N 1253.43 -1.55816 0.23648 0
M  V30 13183 C 1254.66 -2.02789 -0.39501 0
M  V30 13184 C 1255.07 -1.1153 -1.52832 0
M  V30 13185 O 1254.41 -0.120084 -1.83307 0
M  V30 13186 C 1254.47 -3.46052 -0.974066 0
M  V30 13187 C 1254.14 -4.56993 0.0256825 0
M  V30 13188 C 1255.13 -5.13208 0.831477 0
M  V30 13189 C 1252.82 -5.0208 0.148759 0
M  V30 13190 C 1254.81 -6.12994 1.74691 0
M  V30 13191 C 1252.5 -6.017 1.0677 0
M  V30 13192 C 1253.5 -6.57035 1.86531 0
M  V30 13193 O 1253.18 -7.54714 2.76878 0
M  V30 13194 H 1252.92 -0.668672 -0.0992687 0
M  V30 13195 H 1255.47 -2.02312 0.354826 0
M  V30 13196 H 1253.7 -3.43645 -1.77327 0
M  V30 13197 H 1255.39 -3.76586 -1.51453 0
M  V30 13198 H 1256.16 -4.79214 0.746922 0
M  V30 13199 H 1252.03 -4.58679 -0.461976 0
M  V30 13200 H 1255.58 -6.56111 2.36989 0
M  V30 13201 H 1251.48 -6.35115 1.15322 0
M  V30 13202 H 1252.24 -7.72292 2.71122 0
M  V30 13203 N 1254.91 0.036755 -1.57557 0
M  V30 13204 C 1256.18 0.764087 -1.80059 0
M  V30 13205 C 1256.56 1.93983 -0.83269 0
M  V30 13206 O 1255.91 2.28148 0.126815 0
M  V30 13207 C 1256.12 1.20433 -3.27562 0
M  V30 13208 C 1257.47 1.6234 -3.9234 0
M  V30 13209 O 1258.49 1.29911 -3.31665 0
M  V30 13210 O 1257.35 2.22504 -4.99154 0
M  V30 13211 H 1254.45 0.368866 -0.74018 0
M  V30 13212 H 1256.99 0.0141254 -1.69694 0
M  V30 13213 H 1255.76 0.364646 -3.89597 0
M  V30 13214 H 1255.39 2.01454 -3.42786 0
M  V30 13215 N 1256.39 1.54543 0.308881 0
M  V30 13216 C 1257.63 1.73107 1.043 0
M  V30 13217 C 1257.95 0.515481 1.88063 0
M  V30 13218 O 1257.22 -0.47036 1.90169 0
M  V30 13219 H 1255.8 0.638289 0.388068 0
M  V30 13220 H 1258.47 1.9188 0.341769 0
M  V30 13221 H 1257.56 2.61697 1.70063 0
M  V30 13222 N 1257.86 -0.571685 1.46866 0
M  V30 13223 C 1258.79 -1.68994 1.61131 0
M  V30 13224 C 1259.77 -1.63728 0.461222 0
M  V30 13225 O 1260.96 -1.81574 0.688813 0
M  V30 13226 C 1258.09 -3.07638 1.61172 0
M  V30 13227 C 1257.04 -3.27742 2.75262 0
M  V30 13228 C 1256.37 -4.67025 2.60368 0
M  V30 13229 C 1257.67 -3.14511 4.16989 0
M  V30 13230 H 1259.36 -1.57311 2.54742 0
M  V30 13231 H 1256.91 -0.755382 1.22597 0
M  V30 13232 H 1258.86 -3.857 1.69744 0
M  V30 13233 H 1257.59 -3.20245 0.641122 0
M  V30 13234 H 1256.25 -2.52083 2.66176 0
M  V30 13235 H 1255.89 -4.76413 1.61368 0
M  V30 13236 H 1255.59 -4.81428 3.36899 0
M  V30 13237 H 1257.12 -5.47242 2.70848 0
M  V30 13238 H 1258.53 -3.82407 4.27128 0
M  V30 13239 H 1256.93 -3.40431 4.94193 0
M  V30 13240 H 1258 -2.11443 4.36371 0
M  V30 13241 N 1259.34 -1.34755 -0.817236 0
M  V30 13242 C 1260.27 -1.29452 -1.94331 0
M  V30 13243 C 1261.25 -0.170902 -1.69239 0
M  V30 13244 O 1262.44 -0.364173 -1.90755 0
M  V30 13245 C 1259.57 -1.05497 -3.30889 0
M  V30 13246 C 1258.52 -2.14386 -3.70436 0
M  V30 13247 C 1257.85 -1.75612 -5.05039 0
M  V30 13248 C 1259.15 -3.56265 -3.81933 0
M  V30 13249 H 1260.84 -2.23672 -1.99025 0
M  V30 13250 H 1258.39 -1.07674 -0.956159 0
M  V30 13251 H 1260.34 -1.0043 -4.09257 0
M  V30 13252 H 1259.06 -0.0772059 -3.26509 0
M  V30 13253 H 1257.72 -2.18532 -2.94345 0
M  V30 13254 H 1257.37 -0.764809 -4.97152 0
M  V30 13255 H 1257.07 -2.48495 -5.3247 0
M  V30 13256 H 1258.6 -1.72051 -5.85859 0
M  V30 13257 H 1260.01 -3.545 -4.50558 0
M  V30 13258 H 1258.41 -4.27818 -4.20822 0
M  V30 13259 H 1259.48 -3.93192 -2.83775 0
M  V30 13260 N 1260.82 1.03812 -1.18578 0
M  V30 13261 C 1262.07 1.76455 -0.977071 0
M  V30 13262 C 1262.38 1.8926 0.493964 0
M  V30 13263 O 1263.59 2.58781 0.821256 0
M  V30 13264 C 1262.04 3.17264 -1.69917 0
M  V30 13265 C 1261.65 3.12543 -3.20969 0
M  V30 13266 C 1263.4 3.94266 -1.57337 0
M  V30 13267 C 1261.3 4.48226 -3.85807 0
M  V30 13268 H 1260.23 0.661445 -0.361949 0
M  V30 13269 H 1262.88 1.16252 -1.41978 0
M  V30 13270 H 1261.27 3.77878 -1.18424 0
M  V30 13271 H 1262.44 2.61364 -3.79507 0
M  V30 13272 H 1260.75 2.49039 -3.33719 0
M  V30 13273 H 1263.35 4.9461 -2.03137 0
M  V30 13274 H 1263.69 4.12963 -0.526033 0
M  V30 13275 H 1264.23 3.40232 -2.06124 0
M  V30 13276 H 1260.97 4.34734 -4.90599 0
M  V30 13277 H 1260.49 4.99497 -3.32058 0
M  V30 13278 H 1262.17 5.17135 -3.88819 0
M  V30 13279 N 1262.3 0.988223 1.22768 0
M  V30 13280 C 1263.23 0.554478 2.26821 0
M  V30 13281 C 1264.21 -0.416293 1.64927 0
M  V30 13282 O 1265.39 -0.30795 1.91743 0
M  V30 13283 C 1262.52 -0.136266 3.47033 0
M  V30 13284 C 1261.48 0.752575 4.21332 0
M  V30 13285 C 1260.8 -0.0708236 5.34653 0
M  V30 13286 C 1262.1 2.04717 4.80508 0
M  V30 13287 H 1263.8 1.42423 2.63355 0
M  V30 13288 H 1261.34 0.686267 1.26595 0
M  V30 13289 H 1263.3 -0.451068 4.18979 0
M  V30 13290 H 1262.02 -1.04053 3.09581 0
M  V30 13291 H 1260.68 1.05095 3.51213 0
M  V30 13292 H 1260.33 -0.975859 4.93443 0
M  V30 13293 H 1260.03 0.520835 5.85287 0
M  V30 13294 H 1261.55 -0.379828 6.09417 0
M  V30 13295 H 1262.97 1.79663 5.44421 0
M  V30 13296 H 1261.36 2.58726 5.41462 0
M  V30 13297 H 1262.43 2.72896 4.00819 0
M  V30 13298 N 1263.78 -1.38018 0.760839 0
M  V30 13299 C 1264.71 -2.32995 0.153557 0
M  V30 13300 C 1265.69 -1.55234 -0.695448 0
M  V30 13301 O 1266.87 -1.8352 -0.635148 0
M  V30 13302 C 1264 -3.39437 -0.734811 0
M  V30 13303 C 1262.96 -4.27998 0.0120287 0
M  V30 13304 C 1262.28 -5.25359 -0.995067 0
M  V30 13305 C 1263.58 -5.08687 1.18468 0
M  V30 13306 H 1265.28 -2.8403 0.946956 0
M  V30 13307 H 1262.82 -1.36562 0.456816 0
M  V30 13308 H 1264.77 -4.0485 -1.16938 0
M  V30 13309 H 1263.5 -2.86901 -1.56061 0
M  V30 13310 H 1262.16 -3.64102 0.427254 0
M  V30 13311 H 1261.81 -4.69108 -1.81512 0
M  V30 13312 H 1261.51 -5.85469 -0.499969 0
M  V30 13313 H 1263.03 -5.93648 -1.4288 0
M  V30 13314 H 1264.44 -5.67299 0.8273 0
M  V30 13315 H 1262.84 -5.78068 1.61112 0
M  V30 13316 H 1263.91 -4.42 1.99409 0
M  V30 13317 N 1265.25 -0.510493 -1.49103 0
M  V30 13318 C 1266.18 0.251999 -2.32136 0
M  V30 13319 C 1267.16 0.953613 -1.40855 0
M  V30 13320 O 1268.35 0.943178 -1.69758 0
M  V30 13321 C 1265.48 1.31118 -3.21598 0
M  V30 13322 C 1264.43 0.72888 -4.21748 0
M  V30 13323 C 1263.76 1.88928 -5.0021 0
M  V30 13324 C 1265.06 -0.286425 -5.21514 0
M  V30 13325 H 1266.75 -0.441102 -2.96133 0
M  V30 13326 H 1264.3 -0.213577 -1.42407 0
M  V30 13327 H 1266.25 1.8524 -3.78503 0
M  V30 13328 H 1264.98 2.0336 -2.55563 0
M  V30 13329 H 1263.64 0.209336 -3.66002 0
M  V30 13330 H 1263.28 2.59961 -4.30615 0
M  V30 13331 H 1262.98 1.50568 -5.67981 0
M  V30 13332 H 1264.51 2.43465 -5.59962 0
M  V30 13333 H 1265.92 0.166997 -5.73057 0
M  V30 13334 H 1264.32 -0.586361 -5.97228 0
M  V30 13335 H 1265.39 -1.19904 -4.69842 0
M  V30 13336 N 1266.73 1.55688 -0.24474 0
M  V30 13337 C 1267.66 2.18616 0.68844 0
M  V30 13338 C 1268.68 1.16185 1.14039 0
M  V30 13339 O 1269.87 1.43059 1.06754 0
M  V30 13340 C 1266.97 2.77375 1.94721 0
M  V30 13341 C 1266.14 4.05204 1.64706 0
M  V30 13342 C 1265.2 4.48302 2.75521 0
M  V30 13343 O 1264.22 5.14723 2.42999 0
M  V30 13344 N 1265.43 4.15907 4.04971 0
M  V30 13345 H 1268.19 2.99324 0.150018 0
M  V30 13346 H 1265.75 1.61771 -0.0646183 0
M  V30 13347 H 1267.74 3.03165 2.68091 0
M  V30 13348 H 1266.31 2.00837 2.39548 0
M  V30 13349 H 1265.53 3.87026 0.74865 0
M  V30 13350 H 1266.82 4.8855 1.42114 0
M  V30 13351 H 1266.22 3.62579 4.34227 0
M  V30 13352 H 1264.78 4.46538 4.74813 0
M  V30 13353 N 1268.21 -0.0283989 1.57574 0
M  V30 13354 C 1269.14 -1.02828 2.09639 0
M  V30 13355 C 1270.12 -1.37668 0.999076 0
M  V30 13356 O 1271.31 -1.4654 1.27435 0
M  V30 13357 C 1268.44 -2.329 2.57633 0
M  V30 13358 C 1267.39 -2.12301 3.71635 0
M  V30 13359 C 1266.72 -3.48138 4.05837 0
M  V30 13360 C 1268.02 -1.50864 5.00037 0
M  V30 13361 H 1269.71 -0.594876 2.93431 0
M  V30 13362 H 1267.26 -0.284701 1.41158 0
M  V30 13363 H 1269.21 -3.03179 2.92678 0
M  V30 13364 H 1267.93 -2.78302 1.70926 0
M  V30 13365 H 1266.59 -1.44454 3.3694 0
M  V30 13366 H 1266.24 -3.9119 3.16195 0
M  V30 13367 H 1265.94 -3.3518 4.82626 0
M  V30 13368 H 1267.46 -4.19779 4.43417 0
M  V30 13369 H 1268.88 -2.11062 5.33035 0
M  V30 13370 H 1267.27 -1.48479 5.81441 0
M  V30 13371 H 1268.34 -0.474541 4.82572 0
M  V30 13372 N 1269.69 -1.54705 -0.300681 0
M  V30 13373 C 1270.62 -1.88679 -1.37559 0
M  V30 13374 C 1271.6 -0.74574 -1.52881 0
M  V30 13375 O 1272.78 -1.0015 -1.66384 0
M  V30 13376 C 1269.91 -2.13438 -2.73974 0
M  V30 13377 C 1268.87 -3.29284 -2.73415 0
M  V30 13378 C 1268.19 -3.39462 -4.13122 0
M  V30 13379 C 1269.49 -4.66382 -2.35128 0
M  V30 13380 H 1271.19 -2.78707 -1.09373 0
M  V30 13381 H 1268.73 -1.341 -0.524704 0
M  V30 13382 H 1270.69 -2.35791 -3.49257 0
M  V30 13383 H 1269.41 -1.20181 -3.03684 0
M  V30 13384 H 1268.07 -3.06855 -2.00588 0
M  V30 13385 H 1267.72 -2.43721 -4.4001 0
M  V30 13386 H 1267.42 -4.17334 -4.1365 0
M  V30 13387 H 1268.94 -3.64075 -4.90185 0
M  V30 13388 H 1270.36 -4.88463 -3.00128 0
M  V30 13389 H 1268.75 -5.4697 -2.46867 0
M  V30 13390 H 1269.82 -4.67078 -1.30256 0
M  V30 13391 N 1271.17 0.563888 -1.47167 0
M  V30 13392 C 1272.39 1.34693 -1.57052 0
M  V30 13393 C 1272.81 1.87534 -0.218308 0
M  V30 13394 O 1272.17 1.64639 0.787416 0
M  V30 13395 C 1272.22 2.52148 -2.59044 0
M  V30 13396 O 1271.94 2.01492 -3.89015 0
M  V30 13397 C 1273.44 3.4445 -2.7905 0
M  V30 13398 H 1270.66 0.410822 -0.530534 0
M  V30 13399 H 1273.2 0.683731 -1.92731 0
M  V30 13400 H 1271.36 3.14419 -2.26317 0
M  V30 13401 H 1271.77 2.78122 -4.44689 0
M  V30 13402 H 1273.25 4.23297 -3.54293 0
M  V30 13403 H 1273.72 3.97575 -1.86631 0
M  V30 13404 H 1274.33 2.88 -3.12948 0
M  V30 13405 N 1272.64 1.35187 0.810078 0
M  V30 13406 C 1273.55 1.29926 1.95337 0
M  V30 13407 C 1274.57 0.204748 1.72791 0
M  V30 13408 O 1275.75 0.433507 1.96679 0
M  V30 13409 C 1272.81 1.06736 3.29861 0
M  V30 13410 C 1271.87 2.25466 3.65326 0
M  V30 13411 C 1271.11 2.03373 4.93432 0
M  V30 13412 O 1271.33 0.998419 5.61594 0
M  V30 13413 O 1270.26 2.90648 5.27075 0
M  V30 13414 H 1274.09 2.26137 2.02721 0
M  V30 13415 H 1271.67 1.15523 0.947354 0
M  V30 13416 H 1273.56 0.956367 4.10404 0
M  V30 13417 H 1272.23 0.135735 3.23415 0
M  V30 13418 H 1271.14 2.42129 2.85175 0
M  V30 13419 H 1272.47 3.17063 3.76473 0
M  V30 13420 N 1274.12 -1.03182 1.19127 0
M  V30 13421 C 1275.05 -2.11462 0.884098 0
M  V30 13422 C 1276.07 -1.62342 -0.121984 0
M  V30 13423 O 1277.26 -1.78179 0.107038 0
M  V30 13424 C 1274.36 -3.37559 0.301227 0
M  V30 13425 C 1273.53 -4.15878 1.35514 0
M  V30 13426 C 1272.59 -5.20291 0.786349 0
M  V30 13427 O 1271.61 -5.50069 1.46331 0
M  V30 13428 N 1272.82 -5.79038 -0.411803 0
M  V30 13429 H 1275.58 -2.38405 1.81613 0
M  V30 13430 H 1273.14 -1.19449 1.09287 0
M  V30 13431 H 1275.13 -4.04593 -0.0930685 0
M  V30 13432 H 1273.7 -3.07987 -0.535022 0
M  V30 13433 H 1272.92 -3.44036 1.9244 0
M  V30 13434 H 1274.21 -4.64993 2.06539 0
M  V30 13435 H 1273.61 -5.57158 -0.979353 0
M  V30 13436 H 1272.17 -6.47495 -0.747912 0
M  V30 13437 N 1275.6 -0.99472 -1.22242 0
M  V30 13438 C 1276.85 -0.670275 -1.90661 0
M  V30 13439 C 1277.17 0.800369 -1.77818 0
M  V30 13440 O 1276.44 1.57381 -1.16653 0
M  V30 13441 H 1275.02 -0.244925 -0.705706 0
M  V30 13442 H 1277.68 -1.26162 -1.48557 0
M  V30 13443 H 1276.78 -0.934408 -2.97784 0
M  V30 13444 N 1277.08 1.37613 -0.768148 0
M  V30 13445 C 1278.03 2.30311 -0.150176 0
M  V30 13446 C 1279 1.50918 0.69376 0
M  V30 13447 O 1280.18 1.795 0.64687 0
M  V30 13448 C 1277.32 3.37382 0.72576 0
M  V30 13449 C 1276.43 4.31791 -0.13439 0
M  V30 13450 C 1275.57 5.25937 0.745915 0
M  V30 13451 C 1274.61 6.11988 -0.116988 0
M  V30 13452 N 1273.74 6.98387 0.721091 0
M  V30 13453 H 1278.58 2.82579 -0.946212 0
M  V30 13454 H 1276.12 1.3911 -0.478217 0
M  V30 13455 H 1278.08 3.98084 1.24839 0
M  V30 13456 H 1276.71 2.86488 1.48743 0
M  V30 13457 H 1275.76 3.72426 -0.774793 0
M  V30 13458 H 1277.07 4.9234 -0.800163 0
M  V30 13459 H 1276.23 5.91826 1.33516 0
M  V30 13460 H 1274.97 4.6579 1.44538 0
M  V30 13461 H 1273.97 5.45081 -0.7188 0
M  V30 13462 H 1275.2 6.74207 -0.813732 0
M  V30 13463 H 1273.14 6.40772 1.40524 0
M  V30 13464 H 1273.06 7.55916 0.112536 0
M  V30 13465 H 1274.33 7.6867 1.29485 0
M  V30 13466 N 1278.56 0.518393 1.4883 0
M  V30 13467 C 1279.52 -0.23983 2.27942 0
M  V30 13468 C 1280.52 -0.878302 1.34694 0
M  V30 13469 O 1281.71 -0.740142 1.57694 0
M  V30 13470 C 1278.84 -1.34581 3.1321 0
M  V30 13471 H 1280.03 0.454599 2.96434 0
M  V30 13472 H 1277.59 0.273932 1.53881 0
M  V30 13473 H 1278.32 -2.07385 2.49323 0
M  V30 13474 H 1278.11 -0.893251 3.8179 0
M  V30 13475 H 1279.6 -1.87944 3.72917 0
M  V30 13476 N 1280.03 -1.55556 0.252993 0
M  V30 13477 C 1281.26 -2.03945 -0.376965 0
M  V30 13478 C 1281.68 -1.13089 -1.50308 0
M  V30 13479 O 1281.04 -0.125039 -1.80868 0
M  V30 13480 C 1281.09 -3.50284 -0.856363 0
M  V30 13481 O 1280.19 -3.62551 -1.96546 0
M  V30 13482 H 1279.54 -0.659002 -0.081317 0
M  V30 13483 H 1282.07 -2.01024 0.380831 0
M  V30 13484 H 1282.08 -3.91222 -1.15798 0
M  V30 13485 H 1280.75 -4.15887 -0.0323302 0
M  V30 13486 H 1279.33 -3.33511 -1.66808 0
M  V30 13487 N 1281.51 0.0200419 -1.57587 0
M  V30 13488 C 1282.44 1.01715 -2.10181 0
M  V30 13489 C 1283.42 1.37136 -1.00636 0
M  V30 13490 O 1284.61 1.45862 -1.2821 0
M  V30 13491 C 1281.74 2.31531 -2.58865 0
M  V30 13492 C 1280.69 2.10327 -3.72755 0
M  V30 13493 C 1280.02 3.45981 -4.07678 0
M  V30 13494 C 1281.32 1.4821 -5.0083 0
M  V30 13495 H 1283.01 0.579307 -2.93742 0
M  V30 13496 H 1280.56 0.277211 -1.41307 0
M  V30 13497 H 1282.51 3.01623 -2.94281 0
M  V30 13498 H 1281.24 2.77392 -1.72399 0
M  V30 13499 H 1279.89 1.42665 -3.37701 0
M  V30 13500 H 1279.54 3.89508 -3.18265 0
M  V30 13501 H 1279.24 3.32616 -4.84397 0
M  V30 13502 H 1280.77 4.17421 -4.45637 0
M  V30 13503 H 1282.18 2.08232 -5.34146 0
M  V30 13504 H 1280.58 1.45393 -5.82221 0
M  V30 13505 H 1281.65 0.448942 -4.82817 0
M  V30 13506 N 1282.99 1.54862 0.292472 0
M  V30 13507 C 1284.24 1.73756 1.02429 0
M  V30 13508 C 1284.55 0.535164 1.88137 0
M  V30 13509 O 1285.76 0.606092 2.64648 0
M  V30 13510 C 1284.21 3.0745 1.8709 0
M  V30 13511 C 1283.82 4.35195 1.06343 0
M  V30 13512 C 1285.57 3.357 2.59819 0
M  V30 13513 C 1283.47 5.59936 1.9033 0
M  V30 13514 H 1282.4 0.647617 0.386145 0
M  V30 13515 H 1285.05 1.81338 0.28086 0
M  V30 13516 H 1283.44 2.93855 2.65453 0
M  V30 13517 H 1284.61 4.5965 0.325335 0
M  V30 13518 H 1282.93 4.13944 0.451574 0
M  V30 13519 H 1285.52 4.26099 3.23023 0
M  V30 13520 H 1285.87 2.54956 3.29094 0
M  V30 13521 H 1286.4 3.50304 1.88499 0
M  V30 13522 H 1283.14 6.43372 1.25509 0
M  V30 13523 H 1282.66 5.39654 2.61789 0
M  V30 13524 H 1284.34 5.97512 2.48171 0
M  V30 13525 N 1284.47 -0.556076 1.47464 0
M  V30 13526 C 1285.88 -0.882115 1.33007 0
M  V30 13527 C 1286.08 -1.9892 0.321407 0
M  V30 13528 O 1285.14 -2.51088 -0.266668 0
M  V30 13529 C 1286.45 -1.27428 2.72365 0
M  V30 13530 C 1288 -1.38564 2.80658 0
M  V30 13531 C 1288.48 -1.81136 4.20659 0
M  V30 13532 N 1289.97 -1.88284 4.23206 0
M  V30 13533 C 1290.7 -2.22555 5.28447 0
M  V30 13534 N 1290.2 -2.55432 6.43993 0
M  V30 13535 N 1291.99 -2.23339 5.15826 0
M  V30 13536 H 1284.14 0.17481 2.11679 0
M  V30 13537 H 1286.41 0.0155421 0.947873 0
M  V30 13538 H 1286.11 -0.53463 3.47613 0
M  V30 13539 H 1285.99 -2.23019 3.04208 0
M  V30 13540 H 1288.37 -2.1161 2.05682 0
M  V30 13541 H 1288.45 -0.411588 2.52467 0
M  V30 13542 H 1288.1 -1.08659 4.96141 0
M  V30 13543 H 1288.03 -2.79546 4.46275 0
M  V30 13544 H 1290.52 -1.65259 3.3985 0
M  V30 13545 H 1290.83 -2.80612 7.20053 0
M  V30 13546 H 1289.18 -2.5301 6.47311 0
M  V30 13547 H 1292.37 -1.97094 4.24584 0
M  V30 13548 H 1292.54 -2.49717 5.97951 0
M  V30 13549 N 1285.95 -1.35615 -0.802897 0
M  V30 13550 C 1287.22 -1.19655 -1.54732 0
M  V30 13551 C 1287.6 0.222827 -2.09921 0
M  V30 13552 O 1286.95 1.2268 -1.92774 0
M  V30 13553 C 1287.16 -2.26761 -2.65293 0
M  V30 13554 C 1288.51 -2.62754 -3.33535 0
M  V30 13555 O 1289.53 -2.25702 -2.75567 0
M  V30 13556 O 1288.39 -3.26476 -4.38264 0
M  V30 13557 H 1285.49 -0.465079 -0.683835 0
M  V30 13558 H 1288.03 -1.47307 -0.84254 0
M  V30 13559 H 1286.81 -3.21946 -2.22411 0
M  V30 13560 H 1286.43 -2.00399 -3.43404 0
M  V30 13561 N 1287.43 1.02549 -1.19673 0
M  V30 13562 C 1288.36 2.10513 -0.880879 0
M  V30 13563 C 1289.34 1.61776 0.163455 0
M  V30 13564 O 1290.52 1.8846 0.0390085 0
M  V30 13565 C 1287.65 3.37195 -0.318936 0
M  V30 13566 C 1286.69 4.04808 -1.34286 0
M  V30 13567 S 1287.53 4.49881 -2.90461 0
M  V30 13568 C 1288.68 5.79776 -2.35819 0
M  V30 13569 H 1288.92 2.3698 -1.7952 0
M  V30 13570 H 1286.45 1.15537 -1.02423 0
M  V30 13571 H 1288.41 4.105 -0.00124931 0
M  V30 13572 H 1287.07 3.08815 0.573749 0
M  V30 13573 H 1286.26 4.9592 -0.898859 0
M  V30 13574 H 1285.86 3.37688 -1.60756 0
M  V30 13575 H 1288.15 6.54501 -1.75026 0
M  V30 13576 H 1289.1 6.2896 -3.25292 0
M  V30 13577 H 1289.51 5.35611 -1.78272 0
M  V30 13578 N 1288.9 1.00119 1.21713 0
M  V30 13579 C 1290.13 0.700172 1.95224 0
M  V30 13580 C 1290.55 -0.730138 1.73351 0
M  V30 13581 O 1289.91 -1.50026 1.01794 0
M  V30 13582 C 1289.96 1.02202 3.45814 0
M  V30 13583 O 1289.06 0.125188 4.1221 0
M  V30 13584 H 1288.4 0.261238 0.610451 0
M  V30 13585 H 1290.93 1.34041 1.54578 0
M  V30 13586 H 1290.94 0.967293 3.96368 0
M  V30 13587 H 1289.62 2.06422 3.61058 0
M  V30 13588 H 1288.2 0.236114 3.72152 0
M  V30 13589 N 1290.38 -1.37203 0.775435 0
M  V30 13590 C 1291.61 -2.04396 0.351737 0
M  V30 13591 C 1292.03 -1.58099 -1.01913 0
M  V30 13592 O 1291.39 -0.742932 -1.65379 0
M  V30 13593 C 1291.44 -3.58283 0.408105 0
M  V30 13594 O 1290.54 -4.08156 -0.590104 0
M  V30 13595 H 1289.88 -0.646451 0.151647 0
M  V30 13596 H 1292.41 -1.75443 1.05265 0
M  V30 13597 H 1292.42 -4.07127 0.266711 0
M  V30 13598 H 1291.1 -3.91335 1.40819 0
M  V30 13599 H 1289.67 -3.70622 -0.411524 0
M  V30 13600 N 1291.86 -0.526279 -1.48553 0
M  V30 13601 C 1293.08 0.00731432 -2.07399 0
M  V30 13602 C 1293.51 1.27737 -1.38075 0
M  V30 13603 O 1292.87 1.75741 -0.445503 0
M  V30 13604 C 1292.92 0.218126 -3.5994 0
M  V30 13605 O 1292.02 1.28759 -3.91784 0
M  V30 13606 H 1291.36 -0.0374784 -0.662941 0
M  V30 13607 H 1293.89 -0.733133 -1.91014 0
M  V30 13608 H 1293.9 0.44192 -4.056 0
M  V30 13609 H 1292.58 -0.709668 -4.09801 0
M  V30 13610 H 1291.15 1.04674 -3.57907 0
M  V30 13611 N 1293.34 1.5542 -0.261239 0
M  V30 13612 C 1294.25 2.25627 0.642625 0
M  V30 13613 C 1295.26 1.27732 1.18155 0
M  V30 13614 O 1296.44 1.60639 1.21479 0
M  V30 13615 C 1293.5 2.95303 1.8165 0
M  V30 13616 C 1292.57 4.08644 1.31563 0
M  V30 13617 C 1291.8 4.74988 2.43355 0
M  V30 13618 O 1292.02 4.40474 3.62407 0
M  V30 13619 O 1290.96 5.63217 2.12299 0
M  V30 13620 H 1294.78 3.03609 0.0743091 0
M  V30 13621 H 1292.37 1.49372 -0.0291754 0
M  V30 13622 H 1294.25 3.3914 2.50125 0
M  V30 13623 H 1292.92 2.2025 2.37217 0
M  V30 13624 H 1291.83 3.69294 0.597746 0
M  V30 13625 H 1293.16 4.85558 0.805878 0
M  V30 13626 N 1294.82 -0.0116844 1.57596 0
M  V30 13627 C 1295.75 -1.04043 2.03102 0
M  V30 13628 C 1296.73 -1.34164 0.918622 0
M  V30 13629 O 1297.91 -1.46527 1.18584 0
M  V30 13630 C 1295.04 -2.37094 2.41876 0
M  V30 13631 C 1294.08 -2.22713 3.63732 0
M  V30 13632 S 1294.92 -1.56416 5.12147 0
M  V30 13633 C 1296.07 -2.90921 5.5418 0
M  V30 13634 H 1296.31 -0.652899 2.90042 0
M  V30 13635 H 1293.84 -0.222201 1.52793 0
M  V30 13636 H 1295.8 -3.13602 2.64885 0
M  V30 13637 H 1294.46 -2.7299 1.55356 0
M  V30 13638 H 1293.65 -3.20976 3.88575 0
M  V30 13639 H 1293.25 -1.54349 3.40665 0
M  V30 13640 H 1295.54 -3.87237 5.55926 0
M  V30 13641 H 1296.49 -2.70792 6.54276 0
M  V30 13642 H 1296.9 -2.94293 4.81717 0
M  V30 13643 N 1296.29 -1.55015 -0.284256 0
M  V30 13644 C 1297.54 -1.76276 -1.01481 0
M  V30 13645 C 1297.89 -0.550981 -1.84342 0
M  V30 13646 O 1297.19 0.456483 -1.86083 0
M  V30 13647 C 1297.38 -3.00246 -1.93874 0
M  V30 13648 C 1297.21 -4.33365 -1.20104 0
M  V30 13649 C 1295.98 -4.9683 -0.921324 0
M  V30 13650 C 1298.18 -5.10822 -0.597078 0
M  V30 13651 N 1296.16 -6.13703 -0.155654 0
M  V30 13652 C 1297.53 -6.1999 0.0349821 0
M  V30 13653 C 1299.59 -4.95345 -0.503796 0
M  V30 13654 C 1298.29 -7.15365 0.751319 0
M  V30 13655 C 1300.32 -5.91065 0.198923 0
M  V30 13656 C 1299.68 -6.99614 0.819767 0
M  V30 13657 H 1295.78 -0.697434 -0.353709 0
M  V30 13658 H 1298.36 -1.92503 -0.291645 0
M  V30 13659 H 1296.53 -2.85414 -2.63426 0
M  V30 13660 H 1298.26 -3.09959 -2.60206 0
M  V30 13661 H 1295.02 -4.57517 -1.22375 0
M  V30 13662 H 1295.44 -6.76661 0.214183 0
M  V30 13663 H 1300.08 -4.11535 -0.969477 0
M  V30 13664 H 1297.8 -7.98704 1.22872 0
M  V30 13665 H 1301.39 -5.81167 0.271267 0
M  V30 13666 H 1300.27 -7.72407 1.35487 0
M  V30 13667 N 1297.77 0.548248 -1.47757 0
M  V30 13668 C 1299 1.3302 -1.58472 0
M  V30 13669 C 1299.41 1.87292 -0.238186 0
M  V30 13670 O 1298.77 1.65465 0.76991 0
M  V30 13671 C 1298.82 2.49386 -2.61704 0
M  V30 13672 O 1298.54 1.97355 -3.9113 0
M  V30 13673 C 1300.04 3.41471 -2.82688 0
M  V30 13674 H 1297.26 0.405172 -0.534861 0
M  V30 13675 H 1299.81 0.663251 -1.93446 0
M  V30 13676 H 1297.96 3.12001 -2.29639 0
M  V30 13677 H 1298.38 2.7339 -4.47614 0
M  V30 13678 H 1299.85 4.19516 -3.58762 0
M  V30 13679 H 1300.33 3.95573 -1.90837 0
M  V30 13680 H 1300.93 2.84664 -3.15985 0
M  V30 13681 N 1299.25 1.36039 0.795694 0
M  V30 13682 C 1300.5 1.30112 1.5556 0
M  V30 13683 C 1300.83 -0.121197 1.93821 0
M  V30 13684 O 1300.1 -1.07313 1.62216 0
M  V30 13685 C 1300.39 2.21792 2.8369 0
M  V30 13686 C 1300.24 3.72691 2.51836 0
M  V30 13687 C 1301.56 2.12365 3.85472 0
M  V30 13688 H 1298.68 0.473971 0.564376 0
M  V30 13689 H 1301.32 1.66536 0.91465 0
M  V30 13690 H 1299.47 1.9086 3.38386 0
M  V30 13691 H 1301.14 4.14115 2.0324 0
M  V30 13692 H 1299.38 3.92436 1.84869 0
M  V30 13693 H 1300.06 4.32242 3.43323 0
M  V30 13694 H 1302.53 2.3958 3.40207 0
M  V30 13695 H 1301.41 2.78695 4.72885 0
M  V30 13696 H 1301.67 1.10898 4.27965 0
M  V30 13697 N 1300.73 -1.01913 1.20215 0
M  V30 13698 C 1301.66 -2.12282 0.97256 0
M  V30 13699 C 1302.64 -1.6982 -0.0975709 0
M  V30 13700 O 1303.82 -1.94109 0.0594307 0
M  V30 13701 C 1300.95 -3.43369 0.521085 0
M  V30 13702 C 1299.91 -3.99559 1.53417 0
M  V30 13703 C 1299.23 -5.26383 0.93942 0
M  V30 13704 C 1300.53 -4.33241 2.91718 0
M  V30 13705 H 1302.23 -2.31746 1.89563 0
M  V30 13706 H 1299.77 -1.1137 0.912841 0
M  V30 13707 H 1301.73 -4.19963 0.347713 0
M  V30 13708 H 1300.45 -3.23655 -0.437605 0
M  V30 13709 H 1299.11 -3.25069 1.69486 0
M  V30 13710 H 1298.76 -5.02993 -0.0271236 0
M  V30 13711 H 1298.46 -5.64942 1.616 0
M  V30 13712 H 1299.98 -6.05635 0.777059 0
M  V30 13713 H 1301.4 -5.00734 2.79175 0
M  V30 13714 H 1299.79 -4.82907 3.56259 0
M  V30 13715 H 1300.86 -3.42118 3.43633 0
M  V30 13716 N 1302.21 -1.00763 -1.2118 0
M  V30 13717 C 1303.45 -0.702542 -1.90882 0
M  V30 13718 C 1303.81 0.758686 -1.7681 0
M  V30 13719 O 1303.1 1.54313 -1.1357 0
M  V30 13720 C 1303.29 -1.06187 -3.41261 0
M  V30 13721 C 1303.12 -2.55648 -3.69965 0
M  V30 13722 C 1301.89 -3.2229 -3.89175 0
M  V30 13723 C 1304.09 -3.53814 -3.73256 0
M  V30 13724 N 1302.07 -4.61075 -4.05319 0
M  V30 13725 C 1303.44 -4.7812 -3.94716 0
M  V30 13726 C 1305.5 -3.47913 -3.56175 0
M  V30 13727 C 1304.2 -5.97242 -4.00867 0
M  V30 13728 C 1306.23 -4.66427 -3.63593 0
M  V30 13729 C 1305.59 -5.89539 -3.85517 0
M  V30 13730 H 1301.69 -0.3086 -0.718533 0
M  V30 13731 H 1304.27 -1.29063 -1.45776 0
M  V30 13732 H 1302.44 -0.502205 -3.8514 0
M  V30 13733 H 1304.18 -0.711246 -3.98401 0
M  V30 13734 H 1300.93 -2.7273 -3.87189 0
M  V30 13735 H 1301.36 -5.33105 -4.17287 0
M  V30 13736 H 1306 -2.53735 -3.38199 0
M  V30 13737 H 1303.72 -6.9181 -4.17642 0
M  V30 13738 H 1307.3 -4.63467 -3.51695 0
M  V30 13739 H 1306.18 -6.79711 -3.91104 0
M  V30 13740 N 1303.68 1.3679 -0.7827 0
M  V30 13741 C 1304.63 2.27508 -0.149734 0
M  V30 13742 C 1305.62 1.46634 0.662368 0
M  V30 13743 O 1306.81 1.6908 0.523544 0
M  V30 13744 C 1303.94 3.35666 0.719939 0
M  V30 13745 C 1303.03 4.23981 -0.100588 0
M  V30 13746 N 1303.42 4.92513 -1.15173 0
M  V30 13747 C 1301.71 4.45834 0.121653 0
M  V30 13748 C 1302.42 5.57788 -1.65067 0
M  V30 13749 N 1301.39 5.35038 -0.96101 0
M  V30 13750 H 1305.19 2.77973 -0.954365 0
M  V30 13751 H 1302.71 1.50037 -0.62151 0
M  V30 13752 H 1304.7 3.99578 1.18926 0
M  V30 13753 H 1303.36 2.86756 1.52319 0
M  V30 13754 H 1304.38 4.94658 -1.53406 0
M  V30 13755 H 1301.05 4.07773 0.895945 0
M  V30 13756 H 1302.44 6.22534 -2.52787 0
M  V30 13757 N 1305.16 0.53415 1.48272 0
M  V30 13758 C 1306.58 0.192291 1.58437 0
M  V30 13759 C 1306.78 -1.3046 1.53566 0
M  V30 13760 O 1305.83 -2.08316 1.42692 0
M  V30 13761 C 1307.15 0.798515 2.89904 0
M  V30 13762 C 1308.7 0.76763 3.03441 0
M  V30 13763 C 1309.17 1.3525 4.37574 0
M  V30 13764 N 1310.66 1.31466 4.44152 0
M  V30 13765 C 1311.4 1.73706 5.46456 0
M  V30 13766 N 1310.89 2.23695 6.55692 0
M  V30 13767 N 1312.69 1.64918 5.37363 0
M  V30 13768 H 1304.84 1.50696 1.49681 0
M  V30 13769 H 1307.1 0.627073 0.710973 0
M  V30 13770 H 1306.81 1.8496 2.99136 0
M  V30 13771 H 1306.68 0.278033 3.76174 0
M  V30 13772 H 1309.07 -0.274704 2.93819 0
M  V30 13773 H 1309.15 1.32562 2.18771 0
M  V30 13774 H 1308.79 2.39379 4.47951 0
M  V30 13775 H 1308.72 0.770153 5.20938 0
M  V30 13776 H 1311.21 0.948761 3.65796 0
M  V30 13777 H 1311.53 2.5391 7.29897 0
M  V30 13778 H 1309.87 2.27691 6.56644 0
M  V30 13779 H 1313.06 1.25658 4.50919 0
M  V30 13780 H 1313.23 1.98157 6.16958 0
M  V30 13781 N 1306.64 -1.55279 0.269478 0
M  V30 13782 C 1307.89 -1.99471 -0.348913 0
M  V30 13783 C 1308.22 -1.15784 -1.56283 0
M  V30 13784 O 1307.47 -0.214115 -1.94525 0
M  V30 13785 C 1307.77 -3.48773 -0.780535 0
M  V30 13786 C 1307.44 -4.49705 0.328113 0
M  V30 13787 C 1306.1 -4.77024 0.632544 0
M  V30 13788 C 1308.45 -5.09984 1.07544 0
M  V30 13789 C 1305.78 -5.61893 1.68798 0
M  V30 13790 C 1308.13 -5.95999 2.12057 0
M  V30 13791 C 1306.79 -6.21642 2.4314 0
M  V30 13792 H 1306.06 -0.729918 -0.127676 0
M  V30 13793 H 1308.71 -1.87651 0.382015 0
M  V30 13794 H 1307.02 -3.5804 -1.59105 0
M  V30 13795 H 1308.71 -3.80369 -1.26966 0
M  V30 13796 H 1305.3 -4.28524 0.0807131 0
M  V30 13797 H 1309.49 -4.88906 0.853506 0
M  V30 13798 H 1304.74 -5.80009 1.93389 0
M  V30 13799 H 1308.92 -6.41743 2.70442 0
M  V30 13800 H 1306.54 -6.87198 3.25059 0
M  V30 13801 N 1308.12 0.00332656 -1.576 0
M  V30 13802 C 1309.34 0.703587 -1.95101 0
M  V30 13803 C 1309.77 1.66697 -0.871418 0
M  V30 13804 O 1309.13 1.80494 0.170739 0
M  V30 13805 C 1309.17 1.41457 -3.31696 0
M  V30 13806 O 1308.28 2.52885 -3.25765 0
M  V30 13807 H 1307.62 0.187396 -0.637008 0
M  V30 13808 H 1310.15 -0.0488727 -2.04542 0
M  V30 13809 H 1310.16 1.77874 -3.67185 0
M  V30 13810 H 1308.83 0.708182 -4.09826 0
M  V30 13811 H 1307.41 2.18821 -3.01947 0
M  V30 13812 N 1309.6 1.55164 0.276031 0
M  V30 13813 C 1310.53 1.82758 1.36656 0
M  V30 13814 C 1311.51 0.680405 1.4768 0
M  V30 13815 O 1312.69 0.923078 1.64352 0
M  V30 13816 C 1309.82 1.98651 2.74328 0
M  V30 13817 C 1308.86 3.21192 2.80603 0
M  V30 13818 S 1309.7 4.78628 2.40156 0
M  V30 13819 C 1310.85 4.9749 3.79809 0
M  V30 13820 H 1311.09 2.74969 1.13045 0
M  V30 13821 H 1308.62 1.46896 0.4755 0
M  V30 13822 H 1310.58 2.08492 3.53612 0
M  V30 13823 H 1309.24 1.07333 2.95192 0
M  V30 13824 H 1308.43 3.29189 3.81642 0
M  V30 13825 H 1308.03 3.09926 2.09337 0
M  V30 13826 H 1310.33 4.83045 4.75051 0
M  V30 13827 H 1311.27 5.99544 3.76765 0
M  V30 13828 H 1311.68 4.25489 3.70971 0
M  V30 13829 N 1311.07 -0.540404 1.48045 0
M  V30 13830 C 1312.32 -1.2987 1.55762 0
M  V30 13831 C 1312.65 -1.92877 0.226307 0
M  V30 13832 O 1311.93 -1.7875 -0.766727 0
M  V30 13833 C 1312.21 -2.39602 2.68817 0
M  V30 13834 C 1312.06 -1.81354 4.1162 0
M  V30 13835 C 1313.38 -3.41434 2.77688 0
M  V30 13836 H 1310.5 -0.47083 0.566999 0
M  V30 13837 H 1313.14 -0.603081 1.80175 0
M  V30 13838 H 1311.29 -2.98936 2.48132 0
M  V30 13839 H 1312.97 -1.26151 4.43716 0
M  V30 13840 H 1311.21 -1.1194 4.19108 0
M  V30 13841 H 1311.88 -2.60758 4.86528 0
M  V30 13842 H 1314.36 -2.92042 2.96396 0
M  V30 13843 H 1313.23 -4.15621 3.5854 0
M  V30 13844 H 1313.49 -4.01336 1.85422 0
M  V30 13845 N 1312.55 -1.36459 -0.788468 0
M  V30 13846 C 1313.48 -1.33545 -1.91541 0
M  V30 13847 C 1314.46 -0.206762 -1.68839 0
M  V30 13848 O 1315.65 -0.404553 -1.89939 0
M  V30 13849 C 1312.78 -1.12492 -3.28577 0
M  V30 13850 C 1311.73 -2.22196 -3.65805 0
M  V30 13851 C 1311.06 -1.86285 -5.01201 0
M  V30 13852 C 1312.36 -3.64286 -3.7429 0
M  V30 13853 H 1314.05 -2.27844 -1.94236 0
M  V30 13854 H 1311.6 -1.09677 -0.933105 0
M  V30 13855 H 1313.55 -1.09089 -4.07035 0
M  V30 13856 H 1312.28 -0.146446 -3.26272 0
M  V30 13857 H 1310.93 -2.24727 -2.89644 0
M  V30 13858 H 1310.58 -0.87009 -4.95417 0
M  V30 13859 H 1310.28 -2.59734 -5.27079 0
M  V30 13860 H 1311.81 -1.84439 -5.82078 0
M  V30 13861 H 1313.22 -3.63977 -4.42937 0
M  V30 13862 H 1311.62 -4.36648 -4.11653 0
M  V30 13863 H 1312.69 -3.99123 -2.75371 0
M  V30 13864 N 1314.03 1.01274 -1.20754 0
M  V30 13865 C 1315.45 1.27256 -0.963221 0
M  V30 13866 C 1315.65 1.98349 0.354972 0
M  V30 13867 O 1314.7 2.28116 1.08255 0
M  V30 13868 C 1316.02 2.1038 -2.14851 0
M  V30 13869 C 1317.56 2.23633 -2.18991 0
M  V30 13870 C 1318.04 3.10136 -3.37016 0
M  V30 13871 N 1319.53 3.17724 -3.37054 0
M  V30 13872 C 1320.26 3.84891 -4.25025 0
M  V30 13873 N 1319.76 4.54152 -5.23181 0
M  V30 13874 N 1321.55 3.81454 -4.12855 0
M  V30 13875 H 1313.7 0.535534 -2.05538 0
M  V30 13876 H 1315.97 0.299006 -0.899611 0
M  V30 13877 H 1315.67 1.65484 -3.10335 0
M  V30 13878 H 1315.55 3.11122 -2.13267 0
M  V30 13879 H 1317.93 2.67753 -1.24067 0
M  V30 13880 H 1318.02 1.22387 -2.24622 0
M  V30 13881 H 1317.66 2.66721 -4.32229 0
M  V30 13882 H 1317.59 4.11478 -3.28623 0
M  V30 13883 H 1320.08 2.68412 -2.66014 0
M  V30 13884 H 1320.39 5.03084 -5.86623 0
M  V30 13885 H 1318.74 4.52964 -5.27113 0
M  V30 13886 H 1321.93 3.26494 -3.35439 0
M  V30 13887 H 1322.1 4.33523 -4.81624 0
M  V30 13888 N 1315.51 1.01404 1.20644 0
M  V30 13889 C 1316.44 0.602465 2.25594 0
M  V30 13890 C 1317.42 -0.381216 1.65773 0
M  V30 13891 O 1318.61 -0.267209 1.92353 0
M  V30 13892 C 1315.74 -0.0626245 3.47244 0
M  V30 13893 C 1314.69 0.841776 4.1964 0
M  V30 13894 C 1314.02 0.0426002 5.34683 0
M  V30 13895 C 1315.32 2.14864 4.76058 0
M  V30 13896 H 1317.01 1.47977 2.60275 0
M  V30 13897 H 1314.56 0.712966 1.25111 0
M  V30 13898 H 1316.51 -0.362095 4.19841 0
M  V30 13899 H 1315.23 -0.974627 3.11719 0
M  V30 13900 H 1313.89 1.12521 3.48905 0
M  V30 13901 H 1313.54 -0.870973 4.95402 0
M  V30 13902 H 1313.24 0.644866 5.84051 0
M  V30 13903 H 1314.76 -0.250476 6.10086 0
M  V30 13904 H 1316.18 1.9117 5.40488 0
M  V30 13905 H 1314.57 2.70153 5.35852 0
M  V30 13906 H 1315.64 2.81336 3.9494 0
M  V30 13907 N 1316.99 -1.36373 0.789944 0
M  V30 13908 C 1318.4 -1.81783 0.425677 0
M  V30 13909 C 1318.75 -1.65711 -1.05045 0
M  V30 13910 O 1317.87 -1.17835 -1.81505 0
M  V30 13911 C 1318.47 -3.3003 0.765866 0
M  V30 13912 C 1317.03 -3.73647 0.454421 0
M  V30 13913 C 1316.18 -2.58632 1.00023 0
M  V30 13914 H 1319.13 -1.24587 0.983044 0
M  V30 13915 H 1319.15 -3.80457 0.0571624 0
M  V30 13916 H 1318.66 -3.41696 1.84026 0
M  V30 13917 H 1316.76 -3.67541 -0.611918 0
M  V30 13918 H 1316.87 -4.69066 0.975401 0
M  V30 13919 H 1315.24 -2.51156 0.423434 0
M  V30 13920 H 1316.02 -2.73083 2.0804 0
M  V30 13921 N 1318.47 -0.542005 -1.47987 0
M  V30 13922 C 1319.38 0.217677 -2.33588 0
M  V30 13923 C 1320.39 0.927093 -1.47245 0
M  V30 13924 O 1321.57 0.899378 -1.80203 0
M  V30 13925 C 1318.63 1.24376 -3.23622 0
M  V30 13926 C 1317.69 0.543407 -4.25847 0
M  V30 13927 C 1316.93 1.5206 -5.11579 0
M  V30 13928 O 1317.15 2.75425 -4.99497 0
M  V30 13929 O 1316.08 1.05341 -5.9261 0
M  V30 13930 H 1319.91 -0.484089 -2.99817 0
M  V30 13931 H 1317.49 -0.302783 -1.463 0
M  V30 13932 H 1319.38 1.83644 -3.7928 0
M  V30 13933 H 1318.05 1.92772 -2.6004 0
M  V30 13934 H 1316.96 -0.090074 -3.73992 0
M  V30 13935 H 1318.29 -0.0988264 -4.92101 0
M  V30 13936 N 1319.94 1.55134 -0.277709 0
M  V30 13937 C 1320.85 2.26296 0.618658 0
M  V30 13938 C 1321.87 1.28978 1.16794 0
M  V30 13939 O 1323.05 1.61918 1.19768 0
M  V30 13940 C 1320.11 2.97214 1.78508 0
M  V30 13941 C 1319.17 4.10016 1.27221 0
M  V30 13942 C 1318.4 4.77543 2.38304 0
M  V30 13943 O 1318.63 4.44293 3.57715 0
M  V30 13944 O 1317.56 5.65437 2.06313 0
M  V30 13945 H 1321.39 3.03671 0.0421031 0
M  V30 13946 H 1318.97 1.49332 -0.0450166 0
M  V30 13947 H 1320.85 3.41773 2.46513 0
M  V30 13948 H 1319.53 2.22753 2.34867 0
M  V30 13949 H 1318.44 3.69907 0.558544 0
M  V30 13950 H 1319.77 4.86385 0.754333 0
M  V30 13951 N 1321.42 0.00503138 1.57599 0
M  V30 13952 C 1322.38 -0.969628 2.0768 0
M  V30 13953 C 1323.38 -1.26933 0.987148 0
M  V30 13954 O 1324.57 -1.21368 1.24962 0
M  V30 13955 C 1321.71 -2.29312 2.52247 0
M  V30 13956 H 1322.9 -0.536342 2.95065 0
M  V30 13957 H 1320.45 -0.242543 1.54407 0
M  V30 13958 H 1321.19 -2.7732 1.6812 0
M  V30 13959 H 1320.97 -2.08878 3.31832 0
M  V30 13960 H 1322.46 -2.99221 2.91302 0
M  V30 13961 N 1322.9 -1.55308 -0.267798 0
M  V30 13962 C 1324.12 -1.80524 -1.02107 0
M  V30 13963 C 1324.55 -0.579268 -1.78958 0
M  V30 13964 O 1323.91 0.471262 -1.75068 0
M  V30 13965 C 1323.96 -3.03248 -1.95123 0
M  V30 13966 O 1323.06 -2.78699 -3.03975 0
M  V30 13967 H 1322.4 -0.596518 -0.291655 0
M  V30 13968 H 1324.93 -2.0246 -0.295128 0
M  V30 13969 H 1324.94 -3.32121 -2.3698 0
M  V30 13970 H 1323.62 -3.92126 -1.386 0
M  V30 13971 H 1322.19 -2.60936 -2.66396 0
M  V30 13972 N 1324.38 0.532545 -1.4833 0
M  V30 13973 C 1325.34 1.61955 -1.62183 0
M  V30 13974 C 1326.34 1.52982 -0.495281 0
M  V30 13975 O 1327.53 1.56698 -0.761005 0
M  V30 13976 C 1324.66 3.0157 -1.58961 0
M  V30 13977 H 1325.86 1.51013 -2.59105 0
M  V30 13978 H 1323.41 0.754405 -1.36888 0
M  V30 13979 H 1324.14 3.18021 -0.635069 0
M  V30 13980 H 1323.93 3.09491 -2.40744 0
M  V30 13981 H 1325.42 3.80604 -1.71843 0
M  V30 13982 N 1325.86 1.36875 0.78122 0
M  V30 13983 C 1326.79 1.27738 1.90304 0
M  V30 13984 C 1327.8 0.195147 1.61626 0
M  V30 13985 O 1328.99 0.450531 1.72721 0
M  V30 13986 C 1326.09 0.950103 3.25309 0
M  V30 13987 C 1325.26 2.13589 3.81705 0
M  V30 13988 C 1324.32 1.78037 4.95166 0
M  V30 13989 O 1323.35 2.50223 5.11251 0
M  V30 13990 N 1324.55 0.718886 5.76031 0
M  V30 13991 H 1327.31 2.24397 1.98661 0
M  V30 13992 H 1324.88 1.30376 0.959883 0
M  V30 13993 H 1326.87 0.693286 3.98717 0
M  V30 13994 H 1325.44 0.0723849 3.12516 0
M  V30 13995 H 1324.66 2.55502 3.00187 0
M  V30 13996 H 1325.95 2.9279 4.16114 0
M  V30 13997 H 1325.34 0.119681 5.65573 0
M  V30 13998 H 1323.9 0.521909 6.49707 0
M  V30 13999 N 1327.33 -1.00632 1.21289 0
M  V30 14000 C 1328.24 -2.12829 0.986957 0
M  V30 14001 C 1329.26 -1.73895 -0.0605152 0
M  V30 14002 O 1330.44 -2.00985 0.129238 0
M  V30 14003 C 1327.5 -3.4226 0.553089 0
M  V30 14004 C 1326.56 -3.95376 1.67262 0
M  V30 14005 C 1325.79 -5.18629 1.25936 0
M  V30 14006 O 1326.02 -5.70246 0.132402 0
M  V30 14007 O 1324.95 -5.65157 2.07077 0
M  V30 14008 H 1328.78 -2.34765 1.92663 0
M  V30 14009 H 1326.36 -1.11208 0.997654 0
M  V30 14010 H 1328.24 -4.20177 0.320856 0
M  V30 14011 H 1326.92 -3.21716 -0.357881 0
M  V30 14012 H 1325.83 -3.18692 1.95924 0
M  V30 14013 H 1327.16 -4.20328 2.56097 0
M  V30 14014 N 1328.81 -1.02043 -1.20104 0
M  V30 14015 C 1330.06 -0.710566 -1.89197 0
M  V30 14016 C 1330.38 0.762471 -1.79475 0
M  V30 14017 O 1329.65 1.54871 -1.19965 0
M  V30 14018 H 1328.23 -0.259839 -0.700352 0
M  V30 14019 H 1330.89 -1.29285 -1.45848 0
M  V30 14020 H 1329.99 -0.997363 -2.95735 0
M  V30 14021 N 1330.29 1.35952 -0.797165 0
M  V30 14022 C 1331.2 2.33726 -0.202271 0
M  V30 14023 C 1332.22 1.61415 0.649719 0
M  V30 14024 O 1333.39 1.93351 0.563686 0
M  V30 14025 C 1330.46 3.40612 0.64685 0
M  V30 14026 C 1329.52 4.28712 -0.224536 0
M  V30 14027 C 1328.75 5.30493 0.584153 0
M  V30 14028 O 1328.97 5.40599 1.81957 0
M  V30 14029 O 1327.91 6.01897 -0.0200239 0
M  V30 14030 H 1331.73 2.86383 -1.01087 0
M  V30 14031 H 1329.32 1.38557 -0.558768 0
M  V30 14032 H 1331.2 4.05944 1.1308 0
M  V30 14033 H 1329.88 2.90243 1.43321 0
M  V30 14034 H 1328.78 3.66394 -0.755415 0
M  V30 14035 H 1330.12 4.82454 -0.974603 0
M  V30 14036 N 1331.77 0.549846 1.47697 0
M  V30 14037 C 1332.7 -0.190364 2.32723 0
M  V30 14038 C 1333.68 -0.915933 1.43334 0
M  V30 14039 O 1334.86 -0.897838 1.72199 0
M  V30 14040 C 1331.99 -1.22545 3.24961 0
M  V30 14041 C 1330.95 -0.616805 4.23532 0
M  V30 14042 C 1330.27 -1.75599 5.05044 0
M  V30 14043 C 1331.57 0.424595 5.20571 0
M  V30 14044 H 1333.27 0.519461 2.94859 0
M  V30 14045 H 1330.81 0.251259 1.41791 0
M  V30 14046 H 1332.77 -1.75139 3.83281 0
M  V30 14047 H 1331.49 -1.96512 2.60865 0
M  V30 14048 H 1330.15 -0.112224 3.66428 0
M  V30 14049 H 1329.8 -2.48453 4.37356 0
M  V30 14050 H 1329.5 -1.35456 5.71774 0
M  V30 14051 H 1331.02 -2.28533 5.6622 0
M  V30 14052 H 1332.44 -0.0150025 5.73298 0
M  V30 14053 H 1330.83 0.7445 5.95464 0
M  V30 14054 H 1331.9 1.32318 4.66497 0
M  V30 14055 N 1333.25 -1.54984 0.285932 0
M  V30 14056 C 1334.47 -2.04699 -0.333621 0
M  V30 14057 C 1334.9 -1.16252 -1.47875 0
M  V30 14058 O 1334.25 -0.163376 -1.80562 0
M  V30 14059 C 1334.3 -3.52022 -0.78187 0
M  V30 14060 O 1333.41 -3.66639 -1.88812 0
M  V30 14061 H 1332.75 -0.660579 -0.0673203 0
M  V30 14062 H 1335.28 -2.00171 0.423386 0
M  V30 14063 H 1335.29 -3.93591 -1.07473 0
M  V30 14064 H 1333.96 -4.15862 0.055893 0
M  V30 14065 H 1332.54 -3.36974 -1.59696 0
M  V30 14066 N 1334.72 -0.0133892 -1.57594 0
M  V30 14067 C 1335.65 0.972341 -2.12292 0
M  V30 14068 C 1336.64 1.34971 -1.03522 0
M  V30 14069 O 1337.82 1.4311 -1.31275 0
M  V30 14070 C 1334.95 2.25988 -2.63717 0
M  V30 14071 C 1333.9 2.02373 -3.77133 0
M  V30 14072 C 1333.23 3.37256 -4.14925 0
M  V30 14073 C 1334.53 1.37553 -5.03861 0
M  V30 14074 H 1336.22 0.516869 -2.94905 0
M  V30 14075 H 1333.77 0.247176 -1.41863 0
M  V30 14076 H 1335.72 2.95313 -3.00613 0
M  V30 14077 H 1334.45 2.73672 -1.78244 0
M  V30 14078 H 1333.11 1.3547 -3.40651 0
M  V30 14079 H 1332.75 3.82669 -3.26456 0
M  V30 14080 H 1332.45 3.22267 -4.91343 0
M  V30 14081 H 1333.98 4.07875 -4.5439 0
M  V30 14082 H 1335.39 1.96855 -5.38443 0
M  V30 14083 H 1333.79 1.33011 -5.85174 0
M  V30 14084 H 1334.86 0.346429 -4.83661 0
M  V30 14085 N 1336.2 1.55448 0.259558 0
M  V30 14086 C 1337.43 1.81063 1.01148 0
M  V30 14087 C 1337.85 0.58875 1.78649 0
M  V30 14088 O 1337.21 -0.461971 1.75315 0
M  V30 14089 C 1337.26 3.04279 1.93512 0
M  V30 14090 O 1336.36 2.80307 3.02493 0
M  V30 14091 H 1335.7 0.598056 0.288487 0
M  V30 14092 H 1338.23 2.02614 0.284387 0
M  V30 14093 H 1338.24 3.33373 2.35215 0
M  V30 14094 H 1336.92 3.92856 1.36518 0
M  V30 14095 H 1335.5 2.62345 2.65008 0
M  V30 14096 N 1337.68 -0.524672 1.4861 0
M  V30 14097 C 1338.91 -1.30958 1.60825 0
M  V30 14098 C 1339.33 -1.86142 0.270682 0
M  V30 14099 O 1338.69 -1.64675 -0.758415 0
M  V30 14100 C 1338.74 -2.43252 2.66197 0
M  V30 14101 O 1337.84 -3.4644 2.23725 0
M  V30 14102 H 1337.18 -0.387638 0.539104 0
M  V30 14103 H 1339.71 -0.630755 1.94635 0
M  V30 14104 H 1339.72 -2.89362 2.87635 0
M  V30 14105 H 1338.4 -2.02449 3.63301 0
M  V30 14106 H 1336.97 -3.06413 2.12522 0
M  V30 14107 N 1339.16 -1.37287 -0.77395 0
M  V30 14108 C 1340.57 -1.28954 -1.3501 0
M  V30 14109 C 1340.92 0.0638301 -1.96096 0
M  V30 14110 O 1340.05 0.965624 -1.93661 0
M  V30 14111 C 1340.64 -2.3352 -2.45467 0
M  V30 14112 C 1339.2 -2.28828 -2.98856 0
M  V30 14113 C 1338.35 -2.17468 -1.72055 0
M  V30 14114 H 1341.3 -1.47941 -0.57438 0
M  V30 14115 H 1341.32 -1.98058 -3.24889 0
M  V30 14116 H 1340.83 -3.32009 -2.00977 0
M  V30 14117 H 1338.93 -1.33855 -3.47726 0
M  V30 14118 H 1339.04 -3.22152 -3.54619 0
M  V30 14119 H 1337.41 -1.63977 -1.94894 0
M  V30 14120 H 1338.19 -3.17868 -1.29672 0
M  V30 14121 N 1340.64 0.999871 -1.21821 0
M  V30 14122 C 1342.05 1.5529 -1.03642 0
M  V30 14123 C 1342.4 1.92032 0.402246 0
M  V30 14124 O 1341.52 1.74027 1.28622 0
M  V30 14125 C 1342.12 2.82177 -1.87514 0
M  V30 14126 C 1340.68 3.33949 -1.73653 0
M  V30 14127 C 1339.82 2.07095 -1.84409 0
M  V30 14128 H 1342.78 0.821751 -1.35768 0
M  V30 14129 H 1342.8 3.54264 -1.38842 0
M  V30 14130 H 1342.31 2.55405 -2.92216 0
M  V30 14131 H 1340.41 3.65645 -0.716554 0
M  V30 14132 H 1340.52 4.05022 -2.55918 0
M  V30 14133 H 1338.89 2.20332 -1.27773 0
M  V30 14134 H 1339.67 1.82728 -2.90629 0
M  V30 14135 N 1342.11 1.02678 1.19562 0
M  V30 14136 C 1343.34 0.741424 1.93695 0
M  V30 14137 C 1343.76 -0.693203 1.74861 0
M  V30 14138 O 1343.12 -1.47833 1.04953 0
M  V30 14139 C 1343.17 1.09514 3.43568 0
M  V30 14140 O 1342.27 0.212596 4.11852 0
M  V30 14141 H 1341.62 0.274128 0.604773 0
M  V30 14142 H 1344.15 1.37289 1.517 0
M  V30 14143 H 1344.16 1.05115 3.94227 0
M  V30 14144 H 1342.83 2.14034 3.56598 0
M  V30 14145 H 1341.41 0.315 3.71567 0
M  V30 14146 N 1343.59 -1.35528 0.804364 0
M  V30 14147 C 1345 -1.81321 0.444933 0
M  V30 14148 C 1345.35 -1.66816 -1.03281 0
M  V30 14149 O 1344.48 -1.19753 -1.80245 0
M  V30 14150 C 1345.07 -3.29199 0.800827 0
M  V30 14151 C 1343.63 -3.73144 0.494026 0
M  V30 14152 C 1342.78 -2.57557 1.02761 0
M  V30 14153 H 1345.73 -1.23537 0.996203 0
M  V30 14154 H 1345.75 -3.80375 0.0975117 0
M  V30 14155 H 1345.26 -3.39725 1.8764 0
M  V30 14156 H 1343.37 -3.68169 -0.572901 0
M  V30 14157 H 1343.48 -4.68005 1.0251 0
M  V30 14158 H 1341.84 -2.50692 0.450048 0
M  V30 14159 H 1342.63 -2.70861 2.10925 0
M  V30 14160 N 1345.07 -0.557671 -1.47404 0
M  V30 14161 C 1345.98 0.19289 -2.33806 0
M  V30 14162 C 1347 0.911424 -1.4822 0
M  V30 14163 O 1348.17 0.880214 -1.81147 0
M  V30 14164 C 1345.24 1.20937 -3.24923 0
M  V30 14165 C 1344.3 0.498209 -4.26399 0
M  V30 14166 C 1343.53 1.46626 -5.13163 0
M  V30 14167 O 1343.76 2.70111 -5.0239 0
M  V30 14168 O 1342.69 0.990497 -5.93694 0
M  V30 14169 H 1346.52 -0.515861 -2.99287 0
M  V30 14170 H 1344.1 -0.318283 -1.4597 0
M  V30 14171 H 1345.98 1.7961 -3.81206 0
M  V30 14172 H 1344.66 1.90003 -2.6207 0
M  V30 14173 H 1343.56 -0.129736 -3.73875 0
M  V30 14174 H 1344.9 -0.151015 -4.91968 0
M  V30 14175 N 1346.55 1.54831 -0.294147 0
M  V30 14176 C 1347.96 1.85627 0.199866 0
M  V30 14177 C 1348.31 1.21613 1.53964 0
M  V30 14178 O 1347.44 0.511317 2.10272 0
M  V30 14179 C 1348.03 3.3678 0.369428 0
M  V30 14180 C 1346.59 3.67633 0.807663 0
M  V30 14181 C 1345.74 2.7716 -0.0880078 0
M  V30 14182 H 1348.69 1.50099 -0.515371 0
M  V30 14183 H 1348.71 3.60913 1.20508 0
M  V30 14184 H 1348.22 3.83342 -0.605831 0
M  V30 14185 H 1346.32 3.26583 1.79372 0
M  V30 14186 H 1346.44 4.74916 0.631799 0
M  V30 14187 H 1344.8 2.51017 0.431553 0
M  V30 14188 H 1345.58 3.26542 -1.0595 0
M  V30 14189 N 1348.03 0.0217466 1.57585 0
M  V30 14190 C 1349.3 -0.696733 1.8277 0
M  V30 14191 C 1349.68 -1.90759 0.904112 0
M  V30 14192 O 1349.03 -2.28461 -0.0420522 0
M  V30 14193 C 1349.24 -1.08193 3.31806 0
M  V30 14194 C 1350.59 -1.47667 3.98095 0
M  V30 14195 O 1351.61 -1.17511 3.36258 0
M  V30 14196 O 1350.47 -2.03825 5.07068 0
M  V30 14197 H 1347.57 -0.341141 0.75336 0
M  V30 14198 H 1350.11 0.0488652 1.6963 0
M  V30 14199 H 1348.89 -0.219799 3.90682 0
M  V30 14200 H 1348.51 -1.88593 3.50026 0
M  V30 14201 N 1349.51 -1.55583 -0.251311 0
M  V30 14202 C 1350.75 -1.78389 -0.977194 0
M  V30 14203 C 1351.11 -0.589958 -1.83132 0
M  V30 14204 O 1350.4 0.416909 -1.87009 0
M  V30 14205 C 1350.59 -3.04291 -1.87461 0
M  V30 14206 C 1350.42 -4.35815 -1.10885 0
M  V30 14207 C 1349.19 -4.98672 -0.815731 0
M  V30 14208 C 1351.39 -5.11974 -0.488591 0
M  V30 14209 N 1349.37 -6.13895 -0.0254438 0
M  V30 14210 C 1350.74 -6.19776 0.166483 0
M  V30 14211 C 1352.8 -4.96302 -0.398613 0
M  V30 14212 C 1351.5 -7.13611 0.90289 0
M  V30 14213 C 1353.53 -5.9051 0.324252 0
M  V30 14214 C 1352.89 -6.97717 0.96798 0
M  V30 14215 H 1348.99 -0.70478 -0.338836 0
M  V30 14216 H 1351.57 -1.93079 -0.250746 0
M  V30 14217 H 1349.74 -2.90937 -2.57313 0
M  V30 14218 H 1351.48 -3.15409 -2.53573 0
M  V30 14219 H 1348.23 -4.60009 -1.12642 0
M  V30 14220 H 1348.65 -6.76055 0.357664 0
M  V30 14221 H 1353.3 -4.13499 -0.881967 0
M  V30 14222 H 1351.01 -7.95918 1.39786 0
M  V30 14223 H 1354.6 -5.80461 0.39448 0
M  V30 14224 H 1353.48 -7.6936 1.5184 0
M  V30 14225 N 1350.98 0.516783 -1.48886 0
M  V30 14226 C 1352.21 1.29628 -1.61258 0
M  V30 14227 C 1352.63 1.86744 -0.27786 0
M  V30 14228 O 1351.98 1.67061 0.734639 0
M  V30 14229 C 1352.03 2.43779 -2.66935 0
M  V30 14230 O 1351.76 1.89014 -3.95228 0
M  V30 14231 C 1353.26 3.35398 -2.89867 0
M  V30 14232 H 1350.48 0.393736 -0.543335 0
M  V30 14233 H 1353.02 0.622069 -1.94809 0
M  V30 14234 H 1351.18 3.0706 -2.36206 0
M  V30 14235 H 1351.59 2.63833 -4.53312 0
M  V30 14236 H 1353.06 4.11812 -3.6758 0
M  V30 14237 H 1353.54 3.91436 -1.99185 0
M  V30 14238 H 1354.15 2.77898 -3.21952 0
M  V30 14239 N 1352.46 1.37696 0.766659 0
M  V30 14240 C 1353.39 1.36576 1.89392 0
M  V30 14241 C 1354.37 0.233597 1.68488 0
M  V30 14242 O 1355.56 0.434719 1.89272 0
M  V30 14243 C 1352.69 1.17705 3.26746 0
M  V30 14244 C 1351.64 2.27987 3.62224 0
M  V30 14245 C 1350.97 1.94235 4.98174 0
M  V30 14246 C 1352.27 3.70195 3.68447 0
M  V30 14247 H 1353.96 2.30905 1.90587 0
M  V30 14248 H 1351.51 1.11148 0.915538 0
M  V30 14249 H 1353.46 1.15551 4.05248 0
M  V30 14250 H 1352.18 0.198334 3.25997 0
M  V30 14251 H 1350.84 2.29306 2.86032 0
M  V30 14252 H 1350.49 0.948796 4.93971 0
M  V30 14253 H 1350.19 2.68086 5.2288 0
M  V30 14254 H 1351.72 1.93676 5.7907 0
M  V30 14255 H 1353.13 3.70978 4.37091 0
M  V30 14256 H 1351.53 4.43142 4.04654 0
M  V30 14257 H 1352.6 4.03453 2.68986 0
M  V30 14258 N 1353.94 -0.993397 1.22349 0
M  V30 14259 C 1355.19 -1.72707 1.04189 0
M  V30 14260 C 1355.5 -1.90963 -0.423381 0
M  V30 14261 O 1356.71 -2.61651 -0.724645 0
M  V30 14262 C 1355.16 -3.10739 1.81575 0
M  V30 14263 C 1354.77 -3.00415 3.32347 0
M  V30 14264 C 1356.52 -3.88155 1.71861 0
M  V30 14265 C 1354.42 -4.33598 4.02177 0
M  V30 14266 H 1353.35 -0.647556 0.386248 0
M  V30 14267 H 1356 -1.10902 1.46195 0
M  V30 14268 H 1354.39 -3.73222 1.32367 0
M  V30 14269 H 1355.56 -2.47099 3.88946 0
M  V30 14270 H 1353.87 -2.36482 3.42732 0
M  V30 14271 H 1356.47 -4.8673 2.21354 0
M  V30 14272 H 1356.81 -4.10726 0.678939 0
M  V30 14273 H 1357.35 -3.32347 2.18609 0
M  V30 14274 H 1354.09 -4.16226 5.06395 0
M  V30 14275 H 1353.61 -4.86829 3.50367 0
M  V30 14276 H 1355.29 -5.02348 4.07744 0
M  V30 14277 N 1355.42 -1.03311 -1.19015 0
M  V30 14278 C 1356.64 -0.751686 -1.93299 0
M  V30 14279 C 1357.07 0.68392 -1.75226 0
M  V30 14280 O 1356.43 1.47274 -1.05736 0
M  V30 14281 C 1356.47 -1.11335 -3.42982 0
M  V30 14282 O 1355.58 -0.234434 -4.11733 0
M  V30 14283 H 1354.92 -0.277331 -0.60331 0
M  V30 14284 H 1357.45 -1.38092 -1.5097 0
M  V30 14285 H 1357.46 -1.07204 -3.93664 0
M  V30 14286 H 1356.13 -2.15922 -3.55458 0
M  V30 14287 H 1354.71 -0.3347 -3.71395 0
M  V30 14288 N 1356.9 1.35099 -0.81154 0
M  V30 14289 C 1358.31 1.81082 -0.454543 0
M  V30 14290 C 1358.66 1.67361 1.02395 0
M  V30 14291 O 1357.78 1.20707 1.79607 0
M  V30 14292 C 1358.38 3.2877 -0.818274 0
M  V30 14293 C 1356.94 3.72877 -0.513808 0
M  V30 14294 C 1356.08 2.57008 -1.04125 0
M  V30 14295 H 1359.03 1.23007 -1.00274 0
M  V30 14296 H 1359.06 3.80318 -0.117683 0
M  V30 14297 H 1358.57 3.38725 -1.89439 0
M  V30 14298 H 1356.67 3.68468 0.553368 0
M  V30 14299 H 1356.78 4.67455 -1.0499 0
M  V30 14300 H 1355.15 2.5045 -0.463337 0
M  V30 14301 H 1355.93 2.69738 -2.12358 0
M  V30 14302 N 1358.37 0.56548 1.47106 0
M  V30 14303 C 1359.31 -0.215154 2.28188 0
M  V30 14304 C 1360.32 -0.871671 1.37498 0
M  V30 14305 O 1361.51 -0.744131 1.6225 0
M  V30 14306 C 1358.61 -1.32289 3.12014 0
M  V30 14307 C 1357.78 -0.761594 4.30719 0
M  V30 14308 C 1356.84 -1.75486 4.96076 0
M  V30 14309 O 1355.87 -1.29771 5.5421 0
M  V30 14310 N 1357.07 -3.0885 4.9152 0
M  V30 14311 H 1359.83 0.480405 2.95825 0
M  V30 14312 H 1357.39 0.402099 1.56827 0
M  V30 14313 H 1359.39 -1.98628 3.52603 0
M  V30 14314 H 1357.96 -1.92156 2.46566 0
M  V30 14315 H 1357.18 0.078794 3.94121 0
M  V30 14316 H 1358.46 -0.366072 5.07481 0
M  V30 14317 H 1357.86 -3.4863 4.45504 0
M  V30 14318 H 1356.42 -3.70725 5.36103 0
M  V30 14319 N 1359.85 -1.54672 0.302354 0
M  V30 14320 C 1361.1 -1.99771 -0.305919 0
M  V30 14321 C 1361.42 -1.19225 -1.54306 0
M  V30 14322 O 1360.69 -0.288569 -1.93763 0
M  V30 14323 H 1359.27 -0.737934 -0.116026 0
M  V30 14324 H 1361.93 -1.90452 0.413997 0
M  V30 14325 H 1361.03 -3.06719 -0.577024 0
M  V30 14326 N 1361.33 -0.0301034 -1.57571 0
M  V30 14327 C 1362.26 0.986212 -2.05789 0
M  V30 14328 C 1363.24 1.31682 -0.95387 0
M  V30 14329 O 1364.43 1.43332 -1.22427 0
M  V30 14330 C 1361.55 2.30598 -2.48077 0
M  V30 14331 C 1360.6 2.12991 -3.69509 0
M  V30 14332 S 1361.43 1.42782 -5.16114 0
M  V30 14333 C 1362.59 2.76126 -5.61699 0
M  V30 14334 H 1362.82 0.575769 -2.91671 0
M  V30 14335 H 1360.35 0.181613 -1.53328 0
M  V30 14336 H 1362.31 3.06469 -2.73107 0
M  V30 14337 H 1360.97 2.68775 -1.62539 0
M  V30 14338 H 1360.17 3.1056 -3.96949 0
M  V30 14339 H 1359.77 1.45263 -3.44637 0
M  V30 14340 H 1362.06 3.72361 -5.65998 0
M  V30 14341 H 1363 2.53349 -6.61226 0
M  V30 14342 H 1363.41 2.81418 -4.89351 0
M  V30 14343 N 1362.81 1.55714 0.243056 0
M  V30 14344 C 1363.77 1.89832 1.28438 0
M  V30 14345 C 1364.77 0.775083 1.40887 0
M  V30 14346 O 1365.96 1.04304 1.39521 0
M  V30 14347 C 1363.09 2.13016 2.66153 0
M  V30 14348 H 1364.29 2.82947 0.994022 0
M  V30 14349 H 1361.84 1.48665 0.482521 0
M  V30 14350 H 1362.57 1.22381 3.00322 0
M  V30 14351 H 1362.36 2.94824 2.58498 0
M  V30 14352 H 1363.85 2.40581 3.41336 0
M  V30 14353 N 1364.29 -0.50888 1.49158 0
M  V30 14354 C 1365.25 -1.59354 1.64739 0
M  V30 14355 C 1366.25 -1.52175 0.519557 0
M  V30 14356 O 1367.44 -1.55468 0.785838 0
M  V30 14357 C 1364.57 -2.99002 1.63739 0
M  V30 14358 H 1365.76 -1.46871 2.61474 0
M  V30 14359 H 1363.32 -0.732532 1.38071 0
M  V30 14360 H 1364.05 -3.1697 0.685583 0
M  V30 14361 H 1363.84 -3.05622 2.45637 0
M  V30 14362 H 1365.33 -3.77822 1.77877 0
M  V30 14363 N 1365.76 -1.381 -0.759346 0
M  V30 14364 C 1366.69 -1.37578 -1.88665 0
M  V30 14365 C 1367.68 -0.242529 -1.68362 0
M  V30 14366 O 1368.86 -0.444751 -1.89039 0
M  V30 14367 C 1365.99 -1.19437 -3.26117 0
M  V30 14368 C 1364.94 -2.29905 -3.61009 0
M  V30 14369 C 1364.27 -1.96874 -4.97136 0
M  V30 14370 C 1365.57 -3.72143 -3.66479 0
M  V30 14371 H 1367.26 -2.31912 -1.89359 0
M  V30 14372 H 1364.81 -1.11632 -0.909631 0
M  V30 14373 H 1366.76 -1.17698 -4.0463 0
M  V30 14374 H 1365.49 -0.21562 -3.25887 0
M  V30 14375 H 1364.15 -2.3082 -2.84812 0
M  V30 14376 H 1363.79 -0.974979 -4.9346 0
M  V30 14377 H 1363.49 -2.70855 -5.21451 0
M  V30 14378 H 1365.02 -1.96744 -5.78035 0
M  V30 14379 H 1366.43 -3.73291 -4.35117 0
M  V30 14380 H 1364.83 -4.45282 -4.02299 0
M  V30 14381 H 1365.9 -4.04874 -2.66843 0
M  V30 14382 N 1367.24 0.986894 -1.22875 0
M  V30 14383 C 1368.17 2.09628 -1.0285 0
M  V30 14384 C 1369.15 1.70019 0.0525118 0
M  V30 14385 O 1370.34 1.93883 -0.110874 0
M  V30 14386 C 1367.47 3.41866 -0.61194 0
M  V30 14387 C 1366.42 3.95351 -1.63956 0
M  V30 14388 C 1365.75 5.23707 -1.07865 0
M  V30 14389 C 1367.05 4.25354 -3.03102 0
M  V30 14390 H 1368.74 2.26639 -1.95641 0
M  V30 14391 H 1366.29 1.0891 -0.942048 0
M  V30 14392 H 1368.24 4.18893 -0.458936 0
M  V30 14393 H 1366.97 3.24701 0.35164 0
M  V30 14394 H 1365.62 3.20462 -1.78045 0
M  V30 14395 H 1365.27 5.02888 -0.106246 0
M  V30 14396 H 1364.97 5.60459 -1.76522 0
M  V30 14397 H 1366.5 6.03362 -0.937359 0
M  V30 14398 H 1367.91 4.93156 -2.92353 0
M  V30 14399 H 1366.31 4.73292 -3.68938 0
M  V30 14400 H 1367.38 3.32887 -3.52583 0
M  V30 14401 N 1368.72 1.0394 1.18466 0
M  V30 14402 C 1369.95 0.761926 1.92897 0
M  V30 14403 C 1370.37 -0.674618 1.75586 0
M  V30 14404 O 1369.73 -1.46711 1.06515 0
M  V30 14405 C 1369.78 1.13152 3.42387 0
M  V30 14406 O 1368.88 0.256266 4.11603 0
M  V30 14407 H 1368.22 0.280527 0.601831 0
M  V30 14408 H 1370.75 1.3889 1.50235 0
M  V30 14409 H 1370.76 1.0929 3.9309 0
M  V30 14410 H 1369.44 2.17804 3.54308 0
M  V30 14411 H 1368.01 0.354392 3.71212 0
M  V30 14412 N 1370.2 -1.34667 0.818693 0
M  V30 14413 C 1371.13 -2.32134 0.252239 0
M  V30 14414 C 1372.11 -1.58044 -0.628982 0
M  V30 14415 O 1373.29 -1.86049 -0.55674 0
M  V30 14416 C 1370.42 -3.42249 -0.590183 0
M  V30 14417 C 1369.38 -4.27562 0.193547 0
M  V30 14418 C 1368.7 -5.29107 -0.771349 0
M  V30 14419 C 1370 -5.03205 1.39936 0
M  V30 14420 H 1371.7 -2.79758 1.06657 0
M  V30 14421 H 1369.24 -1.34502 0.514325 0
M  V30 14422 H 1371.2 -4.09445 -0.996616 0
M  V30 14423 H 1369.92 -2.93262 -1.43752 0
M  V30 14424 H 1368.58 -3.61962 0.581297 0
M  V30 14425 H 1368.23 -4.76384 -1.61453 0
M  V30 14426 H 1367.93 -5.87063 -0.251201 0
M  V30 14427 H 1369.45 -5.99174 -1.17573 0
M  V30 14428 H 1370.87 -5.6328 1.06717 0
M  V30 14429 H 1369.26 -5.70715 1.85485 0
M  V30 14430 H 1370.33 -4.33145 2.17976 0
M  V30 14431 N 1371.68 -0.573274 -1.46804 0
M  V30 14432 C 1372.64 0.155066 -2.28675 0
M  V30 14433 C 1373.64 0.827706 -1.37861 0
M  V30 14434 O 1374.83 0.681105 -1.60333 0
M  V30 14435 C 1371.96 1.22864 -3.1799 0
M  V30 14436 H 1373.15 -0.564305 -2.94543 0
M  V30 14437 H 1370.71 -0.330855 -1.52758 0
M  V30 14438 H 1371.44 1.97989 -2.56848 0
M  V30 14439 H 1371.23 0.750936 -3.84842 0
M  V30 14440 H 1372.72 1.73974 -3.79635 0
M  V30 14441 N 1373.15 1.5451 -0.310553 0
M  V30 14442 C 1374.09 2.20075 0.603513 0
M  V30 14443 C 1375.07 1.17336 1.12566 0
M  V30 14444 O 1376.25 1.4602 1.19208 0
M  V30 14445 C 1373.38 2.85216 1.82674 0
M  V30 14446 C 1372.42 4.01563 1.43699 0
M  V30 14447 S 1373.26 5.33301 0.48477 0
M  V30 14448 C 1374.41 6.01929 1.71557 0
M  V30 14449 H 1374.64 2.97264 0.0465278 0
M  V30 14450 H 1372.18 1.5411 -0.0946638 0
M  V30 14451 H 1374.14 3.23371 2.52867 0
M  V30 14452 H 1372.8 2.07855 2.3549 0
M  V30 14453 H 1371.99 4.45958 2.34813 0
M  V30 14454 H 1371.59 3.65014 0.814904 0
M  V30 14455 H 1373.88 6.23317 2.65484 0
M  V30 14456 H 1374.83 6.95801 1.31401 0
M  V30 14457 H 1375.23 5.31684 1.89663 0
M  V30 14458 N 1374.63 0.0384594 1.57553 0
M  V30 14459 C 1375.6 -0.925358 2.0969 0
M  V30 14460 C 1376.6 -1.24811 1.01385 0
M  V30 14461 O 1377.79 -1.1869 1.27508 0
M  V30 14462 C 1374.92 -2.2391 2.57055 0
M  V30 14463 H 1376.11 -0.473633 2.96136 0
M  V30 14464 H 1373.66 -0.209736 1.54886 0
M  V30 14465 H 1374.4 -2.73691 1.73964 0
M  V30 14466 H 1374.18 -2.01793 3.36188 0
M  V30 14467 H 1375.67 -2.92974 2.97583 0
M  V30 14468 N 1376.11 -1.55841 -0.234795 0
M  V30 14469 C 1377.34 -1.82307 -0.978355 0
M  V30 14470 C 1377.75 -0.615825 -1.78474 0
M  V30 14471 O 1377.11 0.4156 -1.77705 0
M  V30 14472 C 1377.16 -3.07136 -1.90655 0
M  V30 14473 O 1376.88 -4.23202 -1.13278 0
M  V30 14474 C 1378.38 -3.46492 -2.76511 0
M  V30 14475 H 1375.6 -0.606361 -0.287345 0
M  V30 14476 H 1378.15 -2.02916 -0.254023 0
M  V30 14477 H 1376.3 -2.88542 -2.58501 0
M  V30 14478 H 1376.72 -4.94029 -1.76168 0
M  V30 14479 H 1378.19 -4.36908 -3.37366 0
M  V30 14480 H 1378.67 -2.67633 -3.48238 0
M  V30 14481 H 1379.27 -3.6748 -2.14099 0
M  V30 14482 N 1377.59 0.500963 -1.49426 0
M  V30 14483 C 1378.84 1.25509 -1.58915 0
M  V30 14484 C 1379.16 1.92534 -0.275868 0
M  V30 14485 O 1378.42 1.81324 0.736212 0
M  V30 14486 C 1378.72 2.34448 -2.69757 0
M  V30 14487 C 1378.38 1.8488 -4.11254 0
M  V30 14488 C 1377.05 1.71081 -4.49761 0
M  V30 14489 C 1379.4 1.4778 -4.9981 0
M  V30 14490 C 1376.73 1.18561 -5.74596 0
M  V30 14491 C 1379.08 0.967118 -6.25164 0
M  V30 14492 C 1377.74 0.815523 -6.62499 0
M  V30 14493 H 1377.01 0.459268 -0.58151 0
M  V30 14494 H 1379.66 0.555817 -1.83256 0
M  V30 14495 H 1377.96 3.10163 -2.39387 0
M  V30 14496 H 1379.66 2.925 -2.74308 0
M  V30 14497 H 1376.25 1.9658 -3.8086 0
M  V30 14498 H 1380.44 1.57288 -4.70717 0
M  V30 14499 H 1375.69 1.05536 -6.02223 0
M  V30 14500 H 1379.87 0.670857 -6.93161 0
M  V30 14501 H 1377.49 0.406375 -7.59113 0
M  V30 14502 N 1379.07 1.38501 0.752011 0
M  V30 14503 C 1380.3 1.38032 1.54125 0
M  V30 14504 C 1380.71 -0.0295066 1.88777 0
M  V30 14505 O 1380.07 -0.996522 1.52891 0
M  V30 14506 C 1380.12 2.23741 2.83941 0
M  V30 14507 O 1379.84 3.59232 2.50767 0
M  V30 14508 C 1381.34 2.31469 3.7807 0
M  V30 14509 H 1378.56 0.472077 0.476848 0
M  V30 14510 H 1381.1 1.82101 0.930572 0
M  V30 14511 H 1379.26 1.8313 3.41383 0
M  V30 14512 H 1379.67 4.04376 3.34036 0
M  V30 14513 H 1381.15 2.95722 4.66103 0
M  V30 14514 H 1381.62 1.32882 4.18616 0
M  V30 14515 H 1382.23 2.72477 3.26552 0
M  V30 14516 N 1380.55 -0.980364 1.23396 0
M  V30 14517 C 1381.48 -2.07522 0.972991 0
M  V30 14518 C 1382.49 -1.62714 -0.0530191 0
M  V30 14519 O 1383.68 -1.77564 0.182513 0
M  V30 14520 C 1380.78 -3.35977 0.444126 0
M  V30 14521 C 1379.95 -4.09756 1.53031 0
M  V30 14522 C 1379.01 -5.16488 1.00631 0
M  V30 14523 O 1378.04 -5.43368 1.69529 0
M  V30 14524 N 1379.24 -5.80263 -0.165842 0
M  V30 14525 H 1382 -2.30487 1.91561 0
M  V30 14526 H 1379.57 -1.14706 1.14255 0
M  V30 14527 H 1381.56 -4.04624 0.078617 0
M  V30 14528 H 1380.13 -3.0998 -0.403912 0
M  V30 14529 H 1379.35 -3.35564 2.06858 0
M  V30 14530 H 1380.64 -4.55815 2.26076 0
M  V30 14531 H 1380.03 -5.60811 -0.742162 0
M  V30 14532 H 1378.59 -6.50084 -0.472614 0
M  V30 14533 N 1382.02 -1.04567 -1.17913 0
M  V30 14534 C 1382.93 -0.651674 -2.25367 0
M  V30 14535 C 1383.95 0.32437 -1.7095 0
M  V30 14536 O 1385.13 0.178039 -2.00612 0
M  V30 14537 C 1382.19 -0.0259452 -3.4669 0
M  V30 14538 C 1381.25 -1.05163 -4.1622 0
M  V30 14539 C 1380.48 -0.45567 -5.31751 0
M  V30 14540 O 1380.71 0.736698 -5.65623 0
M  V30 14541 O 1379.64 -1.18684 -5.90083 0
M  V30 14542 H 1383.47 -1.54704 -2.61344 0
M  V30 14543 H 1381.05 -0.816852 -1.25092 0
M  V30 14544 H 1382.93 0.322126 -4.20167 0
M  V30 14545 H 1381.61 0.843165 -3.12526 0
M  V30 14546 H 1380.52 -1.45159 -3.44789 0
M  V30 14547 H 1381.85 -1.89168 -4.54397 0
M  V30 14548 N 1383.5 1.34231 -0.825823 0
M  V30 14549 C 1384.91 1.8059 -0.473724 0
M  V30 14550 C 1385.26 1.68438 1.00614 0
M  V30 14551 O 1384.39 1.22606 1.78317 0
M  V30 14552 C 1384.98 3.27884 -0.853099 0
M  V30 14553 C 1383.54 3.72311 -0.553327 0
M  V30 14554 C 1382.69 2.55889 -1.06845 0
M  V30 14555 H 1385.64 1.21937 -1.01573 0
M  V30 14556 H 1385.66 3.80172 -0.158014 0
M  V30 14557 H 1385.17 3.36696 -1.93021 0
M  V30 14558 H 1383.27 3.69034 0.514256 0
M  V30 14559 H 1383.39 4.66315 -1.09942 0
M  V30 14560 H 1381.75 2.49945 -0.489874 0
M  V30 14561 H 1382.53 2.67471 -2.15207 0
M  V30 14562 N 1384.98 0.581051 1.46498 0
M  V30 14563 C 1385.91 -0.19094 2.28403 0
M  V30 14564 C 1386.92 -0.857039 1.38415 0
M  V30 14565 O 1388.11 -0.726881 1.6303 0
M  V30 14566 C 1385.21 -1.28972 3.134 0
M  V30 14567 C 1384.39 -0.715867 4.31502 0
M  V30 14568 C 1383.45 -1.70215 4.97909 0
M  V30 14569 O 1382.47 -1.23885 5.55555 0
M  V30 14570 N 1383.67 -3.0362 4.94768 0
M  V30 14571 H 1386.44 0.511754 2.95298 0
M  V30 14572 H 1384 0.41871 1.56392 0
M  V30 14573 H 1385.99 -1.94877 3.5469 0
M  V30 14574 H 1384.56 -1.8953 2.4859 0
M  V30 14575 H 1383.78 0.120591 3.94016 0
M  V30 14576 H 1385.07 -0.312226 5.07841 0
M  V30 14577 H 1384.47 -3.43885 4.49177 0
M  V30 14578 H 1383.02 -3.65018 5.40005 0
M  V30 14579 N 1386.46 -1.54343 0.318742 0
M  V30 14580 C 1387.39 -2.27118 -0.542206 0
M  V30 14581 C 1388.37 -1.27731 -1.12334 0
M  V30 14582 O 1389.55 -1.56535 -1.14937 0
M  V30 14583 C 1386.68 -3.02535 -1.70558 0
M  V30 14584 C 1385.64 -4.09218 -1.25398 0
M  V30 14585 C 1384.96 -4.72449 -2.50391 0
M  V30 14586 C 1386.26 -5.20971 -0.372332 0
M  V30 14587 H 1387.96 -2.9933 0.0648226 0
M  V30 14588 H 1385.5 -1.43963 0.0326168 0
M  V30 14589 H 1387.46 -3.52174 -2.31412 0
M  V30 14590 H 1386.18 -2.27931 -2.33912 0
M  V30 14591 H 1384.84 -3.60455 -0.668392 0
M  V30 14592 H 1384.49 -3.94466 -3.12099 0
M  V30 14593 H 1384.19 -5.4451 -2.20868 0
M  V30 14594 H 1385.71 -5.2486 -3.12016 0
M  V30 14595 H 1387.13 -5.66396 -0.887029 0
M  V30 14596 H 1385.52 -5.99859 -0.17009 0
M  V30 14597 H 1386.59 -4.81198 0.598064 0
M  V30 14598 N 1387.94 -0.0468143 -1.5753 0
M  V30 14599 C 1389.18 0.631887 -1.94388 0
M  V30 14600 C 1389.54 1.68265 -0.924715 0
M  V30 14601 O 1390.74 2.41511 -1.18008 0
M  V30 14602 C 1389.01 1.21642 -3.36063 0
M  V30 14603 S 1390.57 1.91373 -3.94869 0
M  V30 14604 H 1387.39 0.207594 -0.680019 0
M  V30 14605 H 1389.99 -0.11471 -1.95163 0
M  V30 14606 H 1388.69 0.439479 -4.0804 0
M  V30 14607 H 1388.23 1.99993 -3.38772 0
M  V30 14608 H 1390.24 3.19392 -3.79741 0
M  V30 14609 N 1389.41 1.55964 0.226527 0
M  V30 14610 C 1390.34 1.95028 1.284 0
M  V30 14611 C 1391.33 0.817833 1.49149 0
M  V30 14612 O 1392.51 1.07975 1.61416 0
M  V30 14613 C 1389.64 2.26266 2.63478 0
M  V30 14614 C 1388.59 3.41954 2.57393 0
M  V30 14615 C 1387.92 3.58786 3.96456 0
M  V30 14616 C 1389.22 4.77069 2.12608 0
M  V30 14617 H 1390.91 2.83608 0.959513 0
M  V30 14618 H 1388.46 1.36451 0.460125 0
M  V30 14619 H 1390.41 2.52186 3.3761 0
M  V30 14620 H 1389.14 1.34533 2.97604 0
M  V30 14621 H 1387.8 3.16076 1.85719 0
M  V30 14622 H 1387.44 2.64437 4.27881 0
M  V30 14623 H 1387.14 4.36595 3.93267 0
M  V30 14624 H 1388.67 3.87048 4.72256 0
M  V30 14625 H 1390.08 5.02226 2.76481 0
M  V30 14626 H 1388.48 5.58126 2.2049 0
M  V30 14627 H 1389.55 4.7276 1.07823 0
M  V30 14628 N 1390.89 -0.493031 1.4969 0
M  V30 14629 C 1392.12 -1.27517 1.63567 0
M  V30 14630 C 1392.54 -1.85526 0.310105 0
M  V30 14631 O 1391.9 -1.66246 -0.723314 0
M  V30 14632 C 1391.95 -2.37551 2.71296 0
M  V30 14633 O 1391.05 -3.41617 2.31023 0
M  V30 14634 H 1390.39 -0.376116 0.547205 0
M  V30 14635 H 1392.92 -0.589328 1.95929 0
M  V30 14636 H 1392.93 -2.83196 2.93708 0
M  V30 14637 H 1391.61 -1.94697 3.67513 0
M  V30 14638 H 1390.19 -3.01836 2.18974 0
M  V30 14639 N 1392.37 -1.38898 -0.744656 0
M  V30 14640 C 1393.61 -1.37019 -1.51675 0
M  V30 14641 C 1393.97 0.0371033 -1.91964 0
M  V30 14642 O 1395.18 0.180835 -2.68191 0
M  V30 14643 C 1393.45 -2.30701 -2.72969 0
M  V30 14644 S 1395.01 -2.46922 -3.62733 0
M  V30 14645 H 1391.82 -0.486035 -0.518933 0
M  V30 14646 H 1394.43 -1.74906 -0.873384 0
M  V30 14647 H 1393.13 -3.31827 -2.41494 0
M  V30 14648 H 1392.66 -1.93994 -3.42242 0
M  V30 14649 H 1394.68 -1.69994 -4.66172 0
M  V30 14650 N 1393.85 0.973806 -1.23914 0
M  V30 14651 C 1394.78 2.08526 -1.05068 0
M  V30 14652 C 1395.76 1.70065 0.0344761 0
M  V30 14653 O 1396.94 1.93755 -0.131432 0
M  V30 14654 C 1394.07 3.41198 -0.648165 0
M  V30 14655 C 1393.03 3.9359 -1.6814 0
M  V30 14656 C 1392.35 5.22534 -1.13414 0
M  V30 14657 C 1393.65 4.22116 -3.07597 0
M  V30 14658 H 1395.35 2.24551 -1.98034 0
M  V30 14659 H 1392.89 1.07905 -0.953546 0
M  V30 14660 H 1394.85 4.18383 -0.50334 0
M  V30 14661 H 1393.57 3.25056 0.317182 0
M  V30 14662 H 1392.23 3.18555 -1.81434 0
M  V30 14663 H 1391.88 5.02747 -0.159578 0
M  V30 14664 H 1391.58 5.58555 -1.82456 0
M  V30 14665 H 1393.1 6.02334 -1.0013 0
M  V30 14666 H 1394.52 4.90027 -2.97567 0
M  V30 14667 H 1392.91 4.69352 -3.73937 0
M  V30 14668 H 1393.98 3.29128 -3.56094 0
M  V30 14669 N 1395.33 1.05191 1.17357 0
M  V30 14670 C 1396.55 0.782343 1.92079 0
M  V30 14671 C 1396.98 -0.655957 1.76292 0
M  V30 14672 O 1396.33 -1.45573 1.08065 0
M  V30 14673 C 1396.38 1.16777 3.41168 0
M  V30 14674 O 1395.49 0.299908 4.11308 0
M  V30 14675 H 1394.83 0.286894 0.598822 0
M  V30 14676 H 1397.36 1.40476 1.48754 0
M  V30 14677 H 1397.37 1.13454 3.91909 0
M  V30 14678 H 1396.04 2.2155 3.51978 0
M  V30 14679 H 1394.62 0.393744 3.70815 0
M  V30 14680 N 1396.8 -1.33791 0.83293 0
M  V30 14681 C 1397.74 -2.28148 0.219336 0
M  V30 14682 C 1398.75 -1.51477 -0.596529 0
M  V30 14683 O 1399.94 -1.73377 -0.424571 0
M  V30 14684 C 1397.04 -3.31373 -0.710305 0
M  V30 14685 C 1396.21 -4.37352 0.0649215 0
M  V30 14686 C 1395.27 -5.20279 -0.78716 0
M  V30 14687 O 1394.3 -5.68741 -0.228511 0
M  V30 14688 N 1395.5 -5.40973 -2.10544 0
M  V30 14689 H 1398.26 -2.81443 1.03004 0
M  V30 14690 H 1395.82 -1.46421 0.690831 0
M  V30 14691 H 1397.82 -3.83752 -1.28517 0
M  V30 14692 H 1396.39 -2.78398 -1.42173 0
M  V30 14693 H 1395.61 -3.85553 0.821144 0
M  V30 14694 H 1396.89 -5.05271 0.598199 0
M  V30 14695 H 1396.29 -5.03291 -2.58292 0
M  V30 14696 H 1394.85 -5.96432 -2.62893 0
M  V30 14697 N 1398.28 -0.588812 -1.46187 0
M  V30 14698 C 1399.23 0.161973 -2.27424 0
M  V30 14699 C 1400.22 0.856178 -1.36229 0
M  V30 14700 O 1401.41 0.749266 -1.60359 0
M  V30 14701 C 1398.54 1.17104 -3.2271 0
M  V30 14702 C 1397.62 0.478637 -4.2139 0
M  V30 14703 N 1398.01 -0.46921 -5.03619 0
M  V30 14704 C 1396.31 0.728608 -4.40008 0
M  V30 14705 C 1397.01 -0.874455 -5.7509 0
M  V30 14706 N 1395.99 -0.222267 -5.43145 0
M  V30 14707 H 1399.79 -0.566306 -2.88392 0
M  V30 14708 H 1397.31 -0.41106 -1.57112 0
M  V30 14709 H 1399.3 1.72314 -3.79623 0
M  V30 14710 H 1397.96 1.90008 -2.63301 0
M  V30 14711 H 1398.97 -0.84504 -5.10959 0
M  V30 14712 H 1395.65 1.44375 -3.91742 0
M  V30 14713 H 1397.04 -1.65514 -6.51195 0
M  V30 14714 N 1399.76 1.54172 -0.326923 0
M  V30 14715 C 1401.01 2.00233 0.274098 0
M  V30 14716 C 1401.33 1.21665 1.5239 0
M  V30 14717 O 1400.6 0.319359 1.93279 0
M  V30 14718 H 1399.18 0.739687 0.104271 0
M  V30 14719 H 1401.84 1.8977 -0.444244 0
M  V30 14720 H 1400.94 3.07599 0.528154 0
M  V30 14721 N 1401.24 0.0551678 1.57503 0
M  V30 14722 C 1402.46 -0.630692 1.97578 0
M  V30 14723 C 1402.89 -1.63348 0.932686 0
M  V30 14724 O 1402.25 -1.81004 -0.103632 0
M  V30 14725 C 1402.29 -1.29049 3.36718 0
M  V30 14726 O 1401.4 -2.40621 3.34926 0
M  V30 14727 H 1400.74 -0.163625 0.643524 0
M  V30 14728 H 1403.27 0.124753 2.04219 0
M  V30 14729 H 1403.28 -1.64124 3.73534 0
M  V30 14730 H 1401.95 -0.55559 4.12172 0
M  V30 14731 H 1400.53 -2.07463 3.0986 0
M  V30 14732 N 1402.72 -1.56081 -0.218252 0
M  V30 14733 C 1403.97 -1.78445 -0.94022 0
M  V30 14734 C 1404.28 -0.624317 -1.85369 0
M  V30 14735 O 1405.48 -0.731669 -2.61455 0
M  V30 14736 C 1403.94 -3.16026 -1.72208 0
M  V30 14737 C 1403.55 -4.39774 -0.854584 0
M  V30 14738 C 1405.29 -3.47714 -2.43506 0
M  V30 14739 C 1403.2 -5.68379 -1.63398 0
M  V30 14740 H 1402.13 -0.665303 -0.354806 0
M  V30 14741 H 1404.78 -1.82471 -0.194021 0
M  V30 14742 H 1403.16 -3.06185 -2.5113 0
M  V30 14743 H 1404.34 -4.60679 -0.105659 0
M  V30 14744 H 1402.65 -4.15627 -0.253562 0
M  V30 14745 H 1405.25 -4.41026 -3.02325 0
M  V30 14746 H 1405.59 -2.70367 -3.16555 0
M  V30 14747 H 1406.12 -3.58899 -1.71571 0
M  V30 14748 H 1402.86 -6.48628 -0.946704 0
M  V30 14749 H 1402.38 -5.5153 -2.35743 0
M  V30 14750 H 1404.06 -6.08672 -2.1938 0
M  V30 14751 N 1404.2 0.485086 -1.49949 0
M  V30 14752 C 1405.13 1.59312 -1.7071 0
M  V30 14753 C 1406.11 1.6076 -0.555896 0
M  V30 14754 O 1407.29 1.77249 -0.793504 0
M  V30 14755 C 1404.42 2.97718 -1.78834 0
M  V30 14756 C 1403.38 3.11136 -2.93902 0
M  V30 14757 C 1402.7 4.51051 -2.87154 0
M  V30 14758 C 1404 2.89665 -4.34617 0
M  V30 14759 H 1405.7 1.42192 -2.6348 0
M  V30 14760 H 1403.24 0.68262 -1.26792 0
M  V30 14761 H 1405.19 3.75148 -1.91943 0
M  V30 14762 H 1403.92 3.15963 -0.826744 0
M  V30 14763 H 1402.58 2.36135 -2.80421 0
M  V30 14764 H 1402.23 4.66195 -1.88869 0
M  V30 14765 H 1401.93 4.60967 -3.64394 0
M  V30 14766 H 1403.45 5.3052 -3.02293 0
M  V30 14767 H 1404.86 3.56853 -4.48697 0
M  V30 14768 H 1403.26 3.11039 -5.13201 0
M  V30 14769 H 1404.33 1.85642 -4.47956 0
M  V30 14770 N 1405.67 1.39291 0.737279 0
M  V30 14771 C 1406.61 1.32216 1.85995 0
M  V30 14772 C 1407.58 0.19623 1.61412 0
M  V30 14773 O 1408.77 0.376297 1.84706 0
M  V30 14774 C 1405.9 1.0525 3.21932 0
M  V30 14775 C 1404.94 2.20002 3.65378 0
M  V30 14776 S 1405.77 3.82265 3.75011 0
M  V30 14777 C 1406.93 3.57519 5.13742 0
M  V30 14778 H 1407.16 2.27231 1.91712 0
M  V30 14779 H 1404.7 1.25319 0.901911 0
M  V30 14780 H 1406.65 0.903753 4.00428 0
M  V30 14781 H 1405.32 0.119258 3.13874 0
M  V30 14782 H 1404.51 1.9672 4.64023 0
M  V30 14783 H 1404.11 2.31068 2.94081 0
M  V30 14784 H 1406.4 3.14643 6.00005 0
M  V30 14785 H 1407.35 4.55616 5.42051 0
M  V30 14786 H 1407.75 2.9167 4.8331 0
M  V30 14787 N 1407.15 -0.967221 1.24429 0
M  V30 14788 C 1408.38 -1.75053 1.11226 0
M  V30 14789 C 1408.8 -1.85162 -0.331139 0
M  V30 14790 O 1408.16 -1.32288 -1.23974 0
M  V30 14791 C 1408.21 -3.14882 1.75733 0
M  V30 14792 O 1407.31 -3.99371 1.02842 0
M  V30 14793 H 1406.65 -0.538078 0.389061 0
M  V30 14794 H 1409.18 -1.21325 1.64746 0
M  V30 14795 H 1409.19 -3.65402 1.81509 0
M  V30 14796 H 1407.87 -3.06839 2.80754 0
M  V30 14797 H 1406.44 -3.57854 1.04856 0
M  V30 14798 N 1408.63 -1.05812 -1.16797 0
M  V30 14799 C 1409.88 -0.767008 -1.86547 0
M  V30 14800 C 1410.19 0.708979 -1.82299 0
M  V30 14801 O 1411.4 1.11428 -2.4758 0
M  V30 14802 C 1409.85 -1.32186 -3.34746 0
M  V30 14803 C 1409.46 -2.82774 -3.4748 0
M  V30 14804 C 1411.21 -1.10808 -4.09783 0
M  V30 14805 C 1409.11 -3.31529 -4.89737 0
M  V30 14806 H 1408.04 -0.283235 -0.698781 0
M  V30 14807 H 1410.69 -1.27621 -1.31853 0
M  V30 14808 H 1409.08 -0.740453 -3.89016 0
M  V30 14809 H 1410.25 -3.46825 -3.03396 0
M  V30 14810 H 1408.56 -3.02765 -2.85871 0
M  V30 14811 H 1411.16 -1.44728 -5.14741 0
M  V30 14812 H 1411.5 -0.046167 -4.16274 0
M  V30 14813 H 1412.04 -1.65502 -3.61737 0
M  V30 14814 H 1408.78 -4.37177 -4.88422 0
M  V30 14815 H 1408.3 -2.72224 -5.34466 0
M  V30 14816 H 1409.98 -3.26572 -5.58534 0
M  V30 14817 N 1410.11 1.33347 -0.840014 0
M  V30 14818 C 1411.04 2.31703 -0.289138 0
M  V30 14819 C 1412.02 1.59024 0.603759 0
M  V30 14820 O 1413.2 1.86911 0.527071 0
M  V30 14821 C 1410.33 3.43144 0.53566 0
M  V30 14822 C 1409.29 4.272 -0.261544 0
M  V30 14823 C 1408.61 5.30267 0.687075 0
M  V30 14824 C 1409.91 5.00915 -1.47924 0
M  V30 14825 H 1411.61 2.78026 -1.11094 0
M  V30 14826 H 1409.15 1.33666 -0.535658 0
M  V30 14827 H 1411.11 4.10979 0.931351 0
M  V30 14828 H 1409.83 2.95512 1.39069 0
M  V30 14829 H 1408.49 3.60991 -0.638809 0
M  V30 14830 H 1408.14 4.78893 1.53853 0
M  V30 14831 H 1407.84 5.87388 0.157773 0
M  V30 14832 H 1409.36 6.00968 1.08026 0
M  V30 14833 H 1410.78 5.61511 -1.15664 0
M  V30 14834 H 1409.17 5.67692 -1.94541 0
M  V30 14835 H 1410.24 4.29622 -2.24839 0
M  V30 14836 N 1411.59 0.596556 1.45873 0
M  V30 14837 C 1412.53 -0.128713 2.30441 0
M  V30 14838 C 1413.5 -0.870727 1.41448 0
M  V30 14839 O 1414.69 -0.858654 1.70387 0
M  V30 14840 C 1411.83 -1.1274 3.26165 0
M  V30 14841 C 1410.94 -0.387403 4.30259 0
M  V30 14842 C 1410.08 -1.37484 5.131 0
M  V30 14843 C 1409.11 -0.622025 6.08931 0
M  V30 14844 N 1408.25 -1.5582 6.84591 0
M  V30 14845 H 1413.09 0.598466 2.91929 0
M  V30 14846 H 1410.63 0.306936 1.43862 0
M  V30 14847 H 1412.59 -1.71943 3.8012 0
M  V30 14848 H 1411.22 -1.82213 2.66455 0
M  V30 14849 H 1410.27 0.319929 3.79052 0
M  V30 14850 H 1411.58 0.200477 4.98397 0
M  V30 14851 H 1410.73 -2.03926 5.71401 0
M  V30 14852 H 1409.47 -1.99665 4.44955 0
M  V30 14853 H 1408.48 0.0560936 5.49771 0
M  V30 14854 H 1409.7 -0.00541426 6.791 0
M  V30 14855 H 1407.65 -2.16786 6.19145 0
M  V30 14856 H 1407.57 -1.02347 7.4904 0
M  V30 14857 H 1408.83 -2.21254 7.4744 0
M  V30 14858 N 1413.06 -1.53996 0.335095 0
M  V30 14859 C 1414.01 -2.21479 -0.541388 0
M  V30 14860 C 1415 -1.19926 -1.07268 0
M  V30 14861 O 1416.19 -1.45508 -1.00779 0
M  V30 14862 C 1413.32 -2.98477 -1.69607 0
M  V30 14863 C 1412.4 -4.07379 -1.17912 0
M  V30 14864 N 1412.8 -5.0435 -0.382732 0
M  V30 14865 C 1411.09 -4.21537 -1.45679 0
M  V30 14866 C 1411.79 -5.81608 -0.103194 0
M  V30 14867 N 1410.77 -5.39171 -0.692513 0
M  V30 14868 H 1414.57 -2.93806 0.0742285 0
M  V30 14869 H 1412.09 -1.61782 0.141529 0
M  V30 14870 H 1414.08 -3.45316 -2.33587 0
M  V30 14871 H 1412.74 -2.27674 -2.31505 0
M  V30 14872 H 1413.75 -5.17894 -0.0245533 0
M  V30 14873 H 1410.43 -3.61953 -2.08078 0
M  V30 14874 H 1411.82 -6.69737 0.538682 0
M  V30 14875 N 1414.54 -0.0635198 -1.57472 0
M  V30 14876 C 1415.47 0.90431 -2.15278 0
M  V30 14877 C 1416.45 1.31609 -1.07764 0
M  V30 14878 O 1417.64 1.38861 -1.35762 0
M  V30 14879 C 1414.77 2.17483 -2.70774 0
M  V30 14880 C 1413.72 1.90272 -3.8338 0
M  V30 14881 C 1413.05 3.23885 -4.25444 0
M  V30 14882 C 1414.35 1.21454 -5.07983 0
M  V30 14883 H 1416.04 0.422786 -2.964 0
M  V30 14884 H 1413.59 0.201918 -1.42577 0
M  V30 14885 H 1415.54 2.856 -3.09856 0
M  V30 14886 H 1414.26 2.67863 -1.86861 0
M  V30 14887 H 1412.92 1.24564 -3.44789 0
M  V30 14888 H 1412.57 3.72089 -3.38465 0
M  V30 14889 H 1412.27 3.06472 -5.01347 0
M  V30 14890 H 1413.8 3.93212 -4.67137 0
M  V30 14891 H 1415.21 1.79625 -5.44433 0
M  V30 14892 H 1413.61 1.14327 -5.89109 0
M  V30 14893 H 1414.68 0.19238 -4.84518 0
M  V30 14894 N 1416.02 1.56195 0.209972 0
M  V30 14895 C 1416.95 1.96378 1.26324 0
M  V30 14896 C 1417.93 0.833606 1.48273 0
M  V30 14897 O 1419.12 1.0968 1.60262 0
M  V30 14898 C 1416.25 2.29048 2.61064 0
M  V30 14899 C 1415.2 3.44665 2.53752 0
M  V30 14900 C 1414.53 3.6297 3.92628 0
M  V30 14901 C 1415.83 4.79297 2.07536 0
M  V30 14902 H 1417.52 2.8461 0.929379 0
M  V30 14903 H 1415.07 1.36931 0.445627 0
M  V30 14904 H 1417.02 2.55752 3.34916 0
M  V30 14905 H 1415.74 1.37682 2.96161 0
M  V30 14906 H 1414.4 3.18028 1.82356 0
M  V30 14907 H 1414.05 2.68961 4.25052 0
M  V30 14908 H 1413.75 4.40741 3.88614 0
M  V30 14909 H 1415.27 3.92035 4.68125 0
M  V30 14910 H 1416.69 5.05131 2.71138 0
M  V30 14911 H 1415.08 5.60433 2.14557 0
M  V30 14912 H 1416.15 4.73877 1.02802 0
M  V30 14913 N 1417.5 -0.477127 1.50204 0
M  V30 14914 C 1418.74 -1.23956 1.62525 0
M  V30 14915 C 1419.1 -1.89385 0.315789 0
M  V30 14916 O 1420.3 -2.66955 0.314378 0
M  V30 14917 C 1418.57 -2.25999 2.76874 0
M  V30 14918 S 1420.13 -3.11262 3.09292 0
M  V30 14919 H 1416.95 -0.420931 0.573008 0
M  V30 14920 H 1419.55 -0.537592 1.87963 0
M  V30 14921 H 1418.26 -1.76501 3.70507 0
M  V30 14922 H 1417.79 -3.00832 2.53503 0
M  V30 14923 H 1419.8 -4.27061 2.52652 0
M  V30 14924 N 1418.98 -1.3968 -0.729882 0
M  V30 14925 C 1420.39 -1.33184 -1.30839 0
M  V30 14926 C 1420.74 0.00141129 -1.962 0
M  V30 14927 O 1419.86 0.903523 -1.96635 0
M  V30 14928 C 1420.46 -2.41211 -2.37913 0
M  V30 14929 C 1419.02 -2.3822 -2.91424 0
M  V30 14930 C 1418.16 -2.22832 -1.65049 0
M  V30 14931 H 1421.12 -1.49694 -0.527023 0
M  V30 14932 H 1421.14 -2.08294 -3.18424 0
M  V30 14933 H 1420.65 -3.38234 -1.90313 0
M  V30 14934 H 1418.75 -1.4485 -3.43292 0
M  V30 14935 H 1418.86 -3.33271 -3.44191 0
M  V30 14936 H 1417.23 -1.70095 -1.89578 0
M  V30 14937 H 1418.01 -3.21832 -1.19494 0
M  V30 14938 N 1420.45 0.960609 -1.2494 0
M  V30 14939 C 1421.68 1.7446 -1.12153 0
M  V30 14940 C 1422.1 1.85335 0.321315 0
M  V30 14941 O 1421.46 1.32944 1.23271 0
M  V30 14942 C 1421.51 3.13945 -1.774 0
M  V30 14943 O 1420.61 3.9882 -1.04958 0
M  V30 14944 H 1419.96 0.536007 -0.391909 0
M  V30 14945 H 1422.49 1.2045 -1.65388 0
M  V30 14946 H 1422.5 3.64434 -1.83444 0
M  V30 14947 H 1421.17 3.05346 -2.82377 0
M  V30 14948 H 1419.75 3.57293 -1.06752 0
M  V30 14949 N 1421.93 1.0643 1.16234 0
M  V30 14950 C 1423.18 0.78184 1.86798 0
M  V30 14951 C 1423.51 -0.691734 1.81784 0
M  V30 14952 O 1422.76 -1.52271 1.22931 0
M  V30 14953 C 1423.06 1.22348 3.35806 0
M  V30 14954 C 1422.73 2.7014 3.61019 0
M  V30 14955 C 1421.39 3.1051 3.6761 0
M  V30 14956 C 1423.74 3.65582 3.71482 0
M  V30 14957 C 1421.07 4.45159 3.82165 0
M  V30 14958 C 1423.42 4.99981 3.87559 0
M  V30 14959 C 1422.09 5.39986 3.92392 0
M  V30 14960 H 1421.36 0.286096 0.683542 0
M  V30 14961 H 1424 1.33364 1.37427 0
M  V30 14962 H 1422.31 0.590896 3.87319 0
M  V30 14963 H 1424 0.981959 3.88791 0
M  V30 14964 H 1420.59 2.37884 3.56524 0
M  V30 14965 H 1424.78 3.35525 3.657 0
M  V30 14966 H 1420.03 4.75637 3.8416 0
M  V30 14967 H 1424.21 5.73817 3.94597 0
M  V30 14968 H 1421.84 6.44324 4.03423 0
M  V30 14969 N 1423.41 -1.329 0.847073 0
M  V30 14970 C 1424.34 -2.31546 0.301422 0
M  V30 14971 C 1425.32 -1.59342 -0.595317 0
M  V30 14972 O 1426.51 -1.87188 -0.517151 0
M  V30 14973 C 1423.64 -3.43423 -0.517454 0
M  V30 14974 C 1422.59 -4.27055 0.284195 0
M  V30 14975 C 1421.92 -5.30624 -0.658944 0
M  V30 14976 C 1423.22 -5.00123 1.50578 0
M  V30 14977 H 1424.91 -2.77433 1.12567 0
M  V30 14978 H 1422.46 -1.3338 0.542739 0
M  V30 14979 H 1424.41 -4.11467 -0.909543 0
M  V30 14980 H 1423.13 -2.96246 -1.37499 0
M  V30 14981 H 1421.79 -3.60648 0.657944 0
M  V30 14982 H 1421.44 -4.79702 -1.51311 0
M  V30 14983 H 1421.14 -5.87464 -0.12662 0
M  V30 14984 H 1422.66 -6.01533 -1.04837 0
M  V30 14985 H 1424.08 -5.6089 1.18641 0
M  V30 14986 H 1422.48 -5.66652 1.97549 0
M  V30 14987 H 1423.55 -4.28424 2.27115 0
M  V30 14988 N 1424.89 -0.604284 -1.45555 0
M  V30 14989 C 1425.84 0.129013 -2.32242 0
M  V30 14990 C 1426.83 0.862933 -1.45773 0
M  V30 14991 O 1428.04 0.778874 -1.62276 0
M  V30 14992 H 1424.41 0.0604661 -0.749565 0
M  V30 14993 H 1426.38 -0.620603 -2.91875 0
M  V30 14994 C 1425.13 1.11516 -3.29332 0
M  V30 14995 H 1424.45 0.559849 -3.95861 0
M  V30 14996 H 1425.89 1.59824 -3.92724 0
M  V30 14997 C 1424.35 2.18706 -2.5626 0
M  V30 14998 O 1424.88 3.26397 -2.34154 0
M  V30 14999 N 1423.09 1.93899 -2.16452 0
M  V30 15000 H 1422.64 1.0633 -2.34631 0
M  V30 15001 H 1422.59 2.65824 -1.67884 0
M  V30 15002 N 1426.37 1.53816 -0.343257 0
M  V30 15003 C 1427.3 2.22552 0.548015 0
M  V30 15004 C 1428.31 1.23202 1.06419 0
M  V30 15005 O 1429.5 1.49559 0.974394 0
M  V30 15006 C 1426.6 2.89197 1.76687 0
M  V30 15007 C 1425.77 4.14859 1.38603 0
M  V30 15008 C 1424.83 4.64917 2.46453 0
M  V30 15009 O 1423.86 5.29135 2.09773 0
M  V30 15010 N 1425.06 4.4082 3.77701 0
M  V30 15011 H 1427.83 2.99672 -0.040645 0
M  V30 15012 H 1425.39 1.61033 -0.167368 0
M  V30 15013 H 1427.38 3.19601 2.48268 0
M  V30 15014 H 1425.95 2.15664 2.26291 0
M  V30 15015 H 1425.17 3.91003 0.501001 0
M  V30 15016 H 1426.46 4.96599 1.10756 0
M  V30 15017 H 1425.85 3.8946 4.1029 0
M  V30 15018 H 1424.41 4.7583 4.45453 0
M  V30 15019 N 1427.84 0.0718701 1.57436 0
M  V30 15020 C 1428.77 -0.89288 2.15754 0
M  V30 15021 C 1429.76 -1.31036 1.0846 0
M  V30 15022 O 1430.94 -1.38139 1.36496 0
M  V30 15023 C 1428.07 -2.16044 2.71923 0
M  V30 15024 C 1427.02 -1.88236 3.84384 0
M  V30 15025 C 1426.35 -3.21624 4.27156 0
M  V30 15026 C 1427.65 -1.18758 5.0862 0
M  V30 15027 H 1429.34 -0.407061 2.9662 0
M  V30 15028 H 1426.89 -0.194354 1.42682 0
M  V30 15029 H 1428.84 -2.83952 3.11366 0
M  V30 15030 H 1427.57 -2.66868 1.88279 0
M  V30 15031 H 1426.23 -1.22734 3.45445 0
M  V30 15032 H 1425.87 -3.70289 3.40433 0
M  V30 15033 H 1425.57 -3.03809 5.02965 0
M  V30 15034 H 1427.1 -3.90729 4.69215 0
M  V30 15035 H 1428.51 -1.76735 5.45378 0
M  V30 15036 H 1426.91 -1.11201 5.89707 0
M  V30 15037 H 1427.98 -0.166682 4.84613 0
M  V30 15038 N 1429.32 -1.56304 -0.201686 0
M  V30 15039 C 1430.74 -1.49741 -0.552247 0
M  V30 15040 C 1430.94 -0.770683 -1.86179 0
M  V30 15041 O 1429.99 -0.318489 -2.50483 0
M  V30 15042 C 1431.31 -2.94384 -0.613083 0
M  V30 15043 C 1432.86 -3.05018 -0.702365 0
M  V30 15044 C 1433.33 -4.51058 -0.794371 0
M  V30 15045 N 1434.82 -4.55183 -0.858072 0
M  V30 15046 C 1435.56 -5.65487 -0.949317 0
M  V30 15047 N 1435.05 -6.85497 -1.00327 0
M  V30 15048 N 1436.85 -5.53385 -0.985995 0
M  V30 15049 H 1429 -2.01971 0.657394 0
M  V30 15050 H 1431.26 -0.918839 0.233322 0
M  V30 15051 H 1430.97 -3.50584 0.279921 0
M  V30 15052 H 1430.84 -3.47376 -1.47002 0
M  V30 15053 H 1433.23 -2.4887 -1.5858 0
M  V30 15054 H 1433.31 -2.55161 0.180636 0
M  V30 15055 H 1432.95 -5.07829 0.0846883 0
M  V30 15056 H 1432.88 -4.98641 -1.69308 0
M  V30 15057 H 1435.37 -3.68765 -0.825888 0
M  V30 15058 H 1435.69 -7.65312 -1.07322 0
M  V30 15059 H 1434.03 -6.88169 -0.972061 0
M  V30 15060 H 1437.22 -4.58552 -0.940635 0
M  V30 15061 H 1437.39 -6.39376 -1.05365 0
M  V30 15062 N 1430.8 0.469154 -1.50455 0
M  V30 15063 C 1431.73 1.58443 -1.65615 0
M  V30 15064 C 1432.75 1.53668 -0.537584 0
M  V30 15065 O 1433.93 1.59021 -0.810832 0
M  V30 15066 C 1431.03 2.97327 -1.62634 0
M  V30 15067 C 1430.21 3.2695 -2.90555 0
M  V30 15068 C 1429.27 4.45398 -2.80191 0
M  V30 15069 O 1428.29 4.45611 -3.54146 0
M  V30 15070 N 1429.49 5.47167 -1.93878 0
M  V30 15071 H 1432.26 1.45854 -2.61814 0
M  V30 15072 H 1429.82 0.657604 -1.47943 0
M  V30 15073 H 1431.81 3.74537 -1.53311 0
M  V30 15074 H 1430.38 3.03675 -0.741624 0
M  V30 15075 H 1429.6 2.38335 -3.13991 0
M  V30 15076 H 1430.89 3.43554 -3.75297 0
M  V30 15077 H 1430.29 5.49817 -1.33109 0
M  V30 15078 H 1428.85 6.23353 -1.90457 0
M  V30 15079 N 1432.28 1.40065 0.722464 0
M  V30 15080 C 1433.24 1.39544 1.81825 0
M  V30 15081 C 1434.24 0.290385 1.58156 0
M  V30 15082 O 1435.43 0.54894 1.65325 0
M  V30 15083 C 1432.56 1.18041 3.19811 0
M  V30 15084 H 1433.76 2.37063 1.83687 0
M  V30 15085 H 1431.31 1.25813 0.927404 0
M  V30 15086 H 1432.04 0.212536 3.23603 0
M  V30 15087 H 1431.83 1.98079 3.38389 0
M  V30 15088 H 1433.32 1.20447 3.99853 0
M  V30 15089 N 1433.76 -0.95397 1.25448 0
M  V30 15090 C 1435.17 -1.51337 1.09335 0
M  V30 15091 C 1435.52 -1.93393 -0.330698 0
M  V30 15092 O 1434.64 -1.78681 -1.22074 0
M  V30 15093 C 1435.24 -2.75024 1.97857 0
M  V30 15094 C 1433.8 -3.27274 1.85927 0
M  V30 15095 C 1432.95 -2.00108 1.91969 0
M  V30 15096 H 1435.9 -0.770795 1.38724 0
M  V30 15097 H 1435.92 -3.48867 1.51894 0
M  V30 15098 H 1435.43 -2.44383 3.01494 0
M  V30 15099 H 1433.53 -3.62734 0.851767 0
M  V30 15100 H 1433.64 -3.95245 2.70773 0
M  V30 15101 H 1432.01 -2.15438 1.35862 0
M  V30 15102 H 1432.79 -1.71816 2.97211 0
M  V30 15103 N 1435.24 -1.07045 -1.15668 0
M  V30 15104 C 1436.19 -0.65786 -2.18303 0
M  V30 15105 C 1437.17 0.315405 -1.57778 0
M  V30 15106 O 1438.36 0.129631 -1.76525 0
M  V30 15107 C 1435.49 -0.0538843 -3.43258 0
M  V30 15108 C 1434.58 -1.0521 -4.10843 0
M  V30 15109 N 1434.97 -2.23051 -4.53963 0
M  V30 15110 C 1433.27 -0.884739 -4.37137 0
M  V30 15111 C 1433.97 -2.86354 -5.06336 0
M  V30 15112 N 1432.94 -2.14037 -4.99689 0
M  V30 15113 H 1436.74 -1.55542 -2.49367 0
M  V30 15114 H 1434.26 -0.9432 -1.32202 0
M  V30 15115 H 1436.26 0.259575 -4.16091 0
M  V30 15116 H 1434.92 0.83883 -3.13678 0
M  V30 15117 H 1435.93 -2.60786 -4.4745 0
M  V30 15118 H 1432.6 -0.0446575 -4.17476 0
M  V30 15119 H 1433.99 -3.86393 -5.49682 0
M  V30 15120 N 1436.71 1.32449 -0.85411 0
M  V30 15121 C 1437.96 1.96881 -0.45632 0
M  V30 15122 C 1438.28 1.67926 0.991248 0
M  V30 15123 O 1437.55 0.986195 1.69266 0
M  V30 15124 H 1436.13 0.728378 -0.165752 0
M  V30 15125 H 1438.79 1.61542 -1.09042 0
M  V30 15126 H 1437.89 3.0626 -0.600927 0
M  V30 15127 N 1438.19 0.611994 1.45232 0
M  V30 15128 C 1439.42 0.113618 2.07089 0
M  V30 15129 C 1439.84 -1.1947 1.45288 0
M  V30 15130 O 1439.2 -1.72845 0.547207 0
M  V30 15131 C 1439.25 -0.00789978 3.60599 0
M  V30 15132 O 1438.35 -1.05697 3.98625 0
M  V30 15133 H 1437.69 0.076066 0.659629 0
M  V30 15134 H 1440.22 0.843253 1.86415 0
M  V30 15135 H 1440.23 -0.204692 4.07486 0
M  V30 15136 H 1438.91 0.947386 4.04966 0
M  V30 15137 H 1437.48 -0.836291 3.63401 0
M  V30 15138 N 1439.67 -1.53632 0.351409 0
M  V30 15139 C 1440.58 -2.2899 -0.509985 0
M  V30 15140 C 1441.6 -1.34403 -1.10507 0
M  V30 15141 O 1442.77 -1.67448 -1.11906 0
M  V30 15142 C 1439.84 -3.05392 -1.64124 0
M  V30 15143 C 1438.9 -4.15619 -1.07514 0
M  V30 15144 C 1438.13 -4.88369 -2.15248 0
M  V30 15145 O 1438.35 -4.60854 -3.3611 0
M  V30 15146 O 1437.29 -5.74636 -1.79101 0
M  V30 15147 H 1441.11 -3.03526 0.10283 0
M  V30 15148 H 1438.7 -1.48947 0.116214 0
M  V30 15149 H 1440.58 -3.53146 -2.29926 0
M  V30 15150 H 1439.26 -2.33705 -2.23972 0
M  V30 15151 H 1438.16 -3.7215 -0.381421 0
M  V30 15152 H 1439.5 -4.8943 -0.521413 0
M  V30 15153 N 1441.15 -0.0802183 -1.57396 0
M  V30 15154 C 1442.39 0.586962 -1.93807 0
M  V30 15155 C 1442.72 1.69107 -0.960887 0
M  V30 15156 O 1441.98 1.95688 0.0220779 0
M  V30 15157 C 1442.28 1.19551 -3.36812 0
M  V30 15158 C 1441.94 0.216701 -4.50379 0
M  V30 15159 C 1440.6 -0.0525552 -4.81171 0
M  V30 15160 C 1442.96 -0.452467 -5.19232 0
M  V30 15161 C 1440.28 -0.997923 -5.78151 0
M  V30 15162 C 1442.64 -1.38621 -6.17225 0
M  V30 15163 C 1441.3 -1.66385 -6.4643 0
M  V30 15164 H 1440.57 0.214785 -0.709189 0
M  V30 15165 H 1443.22 -0.152888 -1.90889 0
M  V30 15166 H 1441.52 2.01129 -3.36236 0
M  V30 15167 H 1443.22 1.71918 -3.62278 0
M  V30 15168 H 1439.81 0.436747 -4.26369 0
M  V30 15169 H 1443.99 -0.257573 -4.95631 0
M  V30 15170 H 1439.25 -1.22019 -5.991 0
M  V30 15171 H 1443.42 -1.91063 -6.69677 0
M  V30 15172 H 1441.05 -2.39799 -7.21388 0
M  V30 15173 N 1442.63 1.56409 0.193394 0
M  V30 15174 C 1443.56 1.97707 1.24234 0
M  V30 15175 C 1444.54 0.849286 1.47381 0
M  V30 15176 O 1445.72 1.11374 1.59089 0
M  V30 15177 C 1442.85 2.31804 2.5862 0
M  V30 15178 C 1441.81 3.47337 2.50082 0
M  V30 15179 C 1441.13 3.67114 3.88756 0
M  V30 15180 C 1442.43 4.81472 2.02441 0
M  V30 15181 H 1444.13 2.8558 0.89914 0
M  V30 15182 H 1441.67 1.37396 0.431078 0
M  V30 15183 H 1443.62 2.5929 3.32185 0
M  V30 15184 H 1442.35 1.40816 2.94684 0
M  V30 15185 H 1441.01 3.19944 1.78973 0
M  V30 15186 H 1440.66 2.73454 4.22175 0
M  V30 15187 H 1440.36 4.44838 3.83918 0
M  V30 15188 H 1441.88 3.96978 4.6394 0
M  V30 15189 H 1443.29 5.07978 2.65766 0
M  V30 15190 H 1441.69 5.62677 2.08601 0
M  V30 15191 H 1442.76 4.74941 0.977704 0
M  V30 15192 N 1444.1 -0.461169 1.50702 0
M  V30 15193 C 1445.51 -1.04177 1.54932 0
M  V30 15194 C 1445.87 -1.92894 0.358648 0
M  V30 15195 O 1444.99 -2.09876 -0.527346 0
M  V30 15196 C 1445.59 -1.8961 2.80773 0
M  V30 15197 C 1444.14 -2.42761 2.87652 0
M  V30 15198 C 1443.29 -1.21356 2.49335 0
M  V30 15199 H 1446.24 -0.243379 1.56823 0
M  V30 15200 H 1446.26 -2.74794 2.63189 0
M  V30 15201 H 1445.78 -1.25014 3.67414 0
M  V30 15202 H 1443.88 -3.10881 2.05386 0
M  V30 15203 H 1443.99 -2.77189 3.90772 0
M  V30 15204 H 1442.35 -1.55146 2.01995 0
M  V30 15205 H 1443.14 -0.584069 3.38295 0
M  V30 15206 N 1445.58 -1.40446 -0.715026 0
M  V30 15207 C 1446.83 -1.3896 -1.47709 0
M  V30 15208 C 1447.16 0.00798698 -1.94198 0
M  V30 15209 O 1446.44 0.976732 -1.68197 0
M  V30 15210 C 1446.72 -2.37955 -2.70277 0
M  V30 15211 C 1446.57 -3.8674 -2.29678 0
M  V30 15212 C 1447.89 -2.34478 -3.72435 0
M  V30 15213 H 1445.01 -0.50607 -0.535782 0
M  V30 15214 H 1447.65 -1.71585 -0.815999 0
M  V30 15215 H 1445.8 -2.10264 -3.26682 0
M  V30 15216 H 1447.47 -4.2526 -1.7875 0
M  V30 15217 H 1445.72 -4.02547 -1.61674 0
M  V30 15218 H 1446.39 -4.51524 -3.17538 0
M  V30 15219 H 1448.86 -2.59007 -3.2566 0
M  V30 15220 H 1447.74 -3.05791 -4.55832 0
M  V30 15221 H 1448 -1.35661 -4.20771 0
M  V30 15222 N 1447.06 0.947303 -1.25952 0
M  V30 15223 C 1448.31 1.6953 -1.11299 0
M  V30 15224 C 1448.64 1.9113 0.343961 0
M  V30 15225 O 1447.91 1.48755 1.25309 0
M  V30 15226 C 1448.2 3.0738 -1.87588 0
M  V30 15227 C 1448.05 2.93145 -3.41154 0
M  V30 15228 C 1449.37 4.07396 -1.66483 0
M  V30 15229 H 1446.49 0.615281 -0.405707 0
M  V30 15230 H 1449.13 1.10064 -1.54874 0
M  V30 15231 H 1447.28 3.58143 -1.50553 0
M  V30 15232 H 1448.95 2.49651 -3.87907 0
M  V30 15233 H 1447.19 2.28902 -3.68492 0
M  V30 15234 H 1447.87 3.9089 -3.89755 0
M  V30 15235 H 1450.34 3.65572 -1.98738 0
M  V30 15236 H 1449.22 5.01876 -2.22287 0
M  V30 15237 H 1449.48 4.379 -0.607916 0
M  V30 15238 N 1448.54 1.07657 1.15099 0
M  V30 15239 C 1449.78 0.802796 1.86234 0
M  V30 15240 C 1450.12 -0.669555 1.82293 0
M  V30 15241 O 1449.39 -1.49162 1.24823 0
M  V30 15242 C 1449.68 1.3156 3.35208 0
M  V30 15243 C 1449.53 2.85272 3.47764 0
M  V30 15244 C 1450.85 0.934641 4.30061 0
M  V30 15245 H 1447.97 0.293099 0.676212 0
M  V30 15246 H 1450.61 1.33488 1.35207 0
M  V30 15247 H 1448.76 0.86298 3.78794 0
M  V30 15248 H 1450.43 3.38847 3.13018 0
M  V30 15249 H 1448.67 3.23316 2.89222 0
M  V30 15250 H 1449.34 3.16223 4.52446 0
M  V30 15251 H 1451.82 1.3247 3.9445 0
M  V30 15252 H 1450.7 1.32074 5.32774 0
M  V30 15253 H 1450.96 -0.159122 4.41814 0
M  V30 15254 N 1450.02 -1.31994 0.861122 0
M  V30 15255 C 1450.95 -2.31214 0.325963 0
M  V30 15256 C 1451.93 -1.59965 -0.578383 0
M  V30 15257 O 1453.11 -1.87726 -0.497268 0
M  V30 15258 C 1450.24 -3.43953 -0.481001 0
M  V30 15259 C 1449.2 -4.2673 0.329474 0
M  V30 15260 C 1448.52 -5.31293 -0.602627 0
M  V30 15261 C 1449.82 -4.98498 1.55874 0
M  V30 15262 H 1451.52 -2.76223 1.15503 0
M  V30 15263 H 1449.06 -1.32797 0.556856 0
M  V30 15264 H 1451.02 -4.12409 -0.86585 0
M  V30 15265 H 1449.74 -2.97687 -1.3435 0
M  V30 15266 H 1448.4 -3.59929 0.696159 0
M  V30 15267 H 1448.05 -4.8128 -1.46215 0
M  V30 15268 H 1447.75 -5.87565 -0.0643044 0
M  V30 15269 H 1449.27 -6.02611 -0.984512 0
M  V30 15270 H 1450.68 -5.596 1.24583 0
M  V30 15271 H 1449.08 -5.64525 2.03548 0
M  V30 15272 H 1450.15 -4.25991 2.31646 0
M  V30 15273 N 1451.49 -0.619688 -1.44906 0
M  V30 15274 C 1452.72 -0.124598 -2.07025 0
M  V30 15275 C 1453.14 1.18698 -1.45919 0
M  V30 15276 O 1452.5 1.72552 -0.556366 0
M  V30 15277 C 1452.55 -0.0112238 -3.60598 0
M  V30 15278 O 1451.65 1.03582 -3.9918 0
M  V30 15279 H 1451 -0.0795631 -0.659216 0
M  V30 15280 H 1453.53 -0.853127 -1.85965 0
M  V30 15281 H 1453.54 0.183079 -4.07589 0
M  V30 15282 H 1452.21 -0.968849 -4.04458 0
M  V30 15283 H 1450.79 0.817008 -3.6384 0
M  V30 15284 N 1452.97 1.53444 -0.359552 0
M  V30 15285 C 1454.22 2.01464 0.232366 0
M  V30 15286 C 1454.55 1.24656 1.48911 0
M  V30 15287 O 1453.83 0.338574 1.9153 0
M  V30 15288 C 1454.11 3.56172 0.530403 0
M  V30 15289 C 1453.96 4.43678 -0.739556 0
M  V30 15290 C 1455.28 4.19412 1.33347 0
M  V30 15291 H 1452.4 0.732314 0.0829802 0
M  V30 15292 H 1455.04 1.83752 -0.483253 0
M  V30 15293 H 1453.19 3.71396 1.14004 0
M  V30 15294 H 1454.86 4.40263 -1.37719 0
M  V30 15295 H 1453.11 4.11892 -1.36117 0
M  V30 15296 H 1453.78 5.49856 -0.486062 0
M  V30 15297 H 1456.25 4.07984 0.817816 0
M  V30 15298 H 1455.13 5.277 1.51075 0
M  V30 15299 H 1455.39 3.7508 2.34024 0
M  V30 15300 N 1454.45 0.0885642 1.57351 0
M  V30 15301 C 1455.69 -0.580127 1.95995 0
M  V30 15302 C 1456.05 -1.65754 0.969003 0
M  V30 15303 O 1457.26 -2.38297 1.2437 0
M  V30 15304 C 1455.53 -1.12689 3.3917 0
M  V30 15305 S 1457.09 -1.80836 3.99805 0
M  V30 15306 H 1453.9 -0.189492 0.685284 0
M  V30 15307 H 1456.51 0.166414 1.9479 0
M  V30 15308 H 1455.21 -0.331139 4.09062 0
M  V30 15309 H 1454.74 -1.90941 3.43955 0
M  V30 15310 H 1456.76 -3.09211 3.88076 0
M  V30 15311 N 1455.93 -1.56509 -0.185096 0
M  V30 15312 C 1456.86 -1.91878 -1.25361 0
M  V30 15313 C 1457.87 -0.810443 -1.41194 0
M  V30 15314 O 1459.06 -1.08887 -1.41442 0
M  V30 15315 C 1456.16 -2.14433 -2.62434 0
M  V30 15316 C 1455.34 -3.45618 -2.6808 0
M  V30 15317 C 1454.39 -3.57165 -3.86419 0
M  V30 15318 O 1453.42 -4.29904 -3.73056 0
M  V30 15319 N 1454.62 -2.90993 -5.02298 0
M  V30 15320 H 1457.39 -2.84133 -0.953328 0
M  V30 15321 H 1454.95 -1.57498 -0.374955 0
M  V30 15322 H 1456.94 -2.19437 -3.40044 0
M  V30 15323 H 1455.51 -1.28629 -2.84909 0
M  V30 15324 H 1454.73 -3.52394 -1.76669 0
M  V30 15325 H 1456.02 -4.31968 -2.68851 0
M  V30 15326 H 1455.42 -2.31743 -5.16054 0
M  V30 15327 H 1453.97 -3.01611 -5.77819 0
M  V30 15328 N 1457.41 0.45317 -1.50944 0
M  V30 15329 C 1458.34 1.55655 -1.74051 0
M  V30 15330 C 1459.32 1.59545 -0.58987 0
M  V30 15331 O 1460.5 1.75526 -0.830922 0
M  V30 15332 C 1457.63 2.93857 -1.85109 0
M  V30 15333 C 1456.59 3.04832 -3.00435 0
M  V30 15334 C 1455.91 4.44858 -2.96657 0
M  V30 15335 C 1457.21 2.80381 -4.40663 0
M  V30 15336 H 1458.91 1.36571 -2.66437 0
M  V30 15337 H 1456.45 0.655572 -1.28212 0
M  V30 15338 H 1458.41 3.70992 -1.99857 0
M  V30 15339 H 1457.13 3.14138 -0.893579 0
M  V30 15340 H 1455.79 2.30134 -2.85366 0
M  V30 15341 H 1455.44 4.62083 -1.98716 0
M  V30 15342 H 1455.14 4.53134 -3.7409 0
M  V30 15343 H 1456.66 5.23989 -3.13478 0
M  V30 15344 H 1458.07 3.47255 -4.56165 0
M  V30 15345 H 1456.47 3.00083 -5.19683 0
M  V30 15346 H 1457.54 1.76099 -4.51793 0
M  V30 15347 N 1458.88 1.40823 0.707568 0
M  V30 15348 C 1459.81 1.44485 1.83429 0
M  V30 15349 C 1460.8 0.304848 1.67346 0
M  V30 15350 O 1461.98 0.514605 1.87258 0
M  V30 15351 C 1459.11 1.31458 3.21459 0
M  V30 15352 C 1458.06 2.43145 3.52228 0
M  V30 15353 C 1457.39 2.15189 4.89487 0
M  V30 15354 C 1458.69 3.85489 3.52414 0
M  V30 15355 H 1460.38 2.38781 1.80622 0
M  V30 15356 H 1457.93 1.14931 0.867572 0
M  V30 15357 H 1459.88 1.32635 3.99983 0
M  V30 15358 H 1458.61 0.336422 3.24863 0
M  V30 15359 H 1457.27 2.41231 2.76049 0
M  V30 15360 H 1456.91 1.15745 4.89502 0
M  V30 15361 H 1456.61 2.90022 5.11039 0
M  V30 15362 H 1458.14 2.18062 5.70334 0
M  V30 15363 H 1459.55 3.89183 4.20963 0
M  V30 15364 H 1457.95 4.59906 3.85495 0
M  V30 15365 H 1459.02 4.14499 2.51632 0
M  V30 15366 N 1460.36 -0.94061 1.26453 0
M  V30 15367 C 1461.6 -1.70157 1.13252 0
M  V30 15368 C 1461.97 -1.89337 -0.318684 0
M  V30 15369 O 1463.17 -2.62625 -0.57283 0
M  V30 15370 C 1461.44 -3.03896 1.88101 0
M  V30 15371 S 1463 -3.95069 1.9096 0
M  V30 15372 H 1459.82 -0.584699 0.404534 0
M  V30 15373 H 1462.42 -1.12084 1.6018 0
M  V30 15374 H 1461.12 -2.87617 2.92753 0
M  V30 15375 H 1460.65 -3.67026 1.41616 0
M  V30 15376 H 1462.67 -4.86086 0.996721 0
M  V30 15377 N 1461.84 -1.08266 -1.14527 0
M  V30 15378 C 1463.09 -0.811459 -1.85531 0
M  V30 15379 C 1463.42 0.662726 -1.82861 0
M  V30 15380 O 1462.67 1.50296 -1.25338 0
M  V30 15381 C 1462.97 -1.27675 -3.33817 0
M  V30 15382 C 1462.64 -2.7585 -3.56676 0
M  V30 15383 C 1461.3 -3.16319 -3.62623 0
M  V30 15384 C 1463.65 -3.71446 -3.65619 0
M  V30 15385 C 1460.98 -4.51183 -3.75035 0
M  V30 15386 C 1463.33 -5.06083 -3.79556 0
M  V30 15387 C 1461.99 -5.4616 -3.83752 0
M  V30 15388 H 1461.26 -0.296934 -0.678904 0
M  V30 15389 H 1463.91 -1.35533 -1.35288 0
M  V30 15390 H 1462.22 -0.65244 -3.86329 0
M  V30 15391 H 1463.91 -1.04369 -3.8718 0
M  V30 15392 H 1460.5 -2.43526 -3.52694 0
M  V30 15393 H 1464.69 -3.41301 -3.60316 0
M  V30 15394 H 1459.94 -4.81689 -3.76545 0
M  V30 15395 H 1464.12 -5.80022 -3.85418 0
M  V30 15396 H 1461.74 -6.50661 -3.93121 0
M  V30 15397 N 1463.32 1.31536 -0.86811 0
M  V30 15398 C 1464.73 1.78991 -0.530937 0
M  V30 15399 C 1465.08 1.71553 0.952046 0
M  V30 15400 O 1464.21 1.28216 1.74326 0
M  V30 15401 C 1464.8 3.25004 -0.956981 0
M  V30 15402 C 1463.36 3.70362 -0.671495 0
M  V30 15403 C 1462.51 2.52361 -1.14932 0
M  V30 15404 H 1465.46 1.18644 -1.05401 0
M  V30 15405 H 1465.48 3.79477 -0.278883 0
M  V30 15406 H 1464.99 3.30385 -2.03635 0
M  V30 15407 H 1463.09 3.70483 0.39659 0
M  V30 15408 H 1463.21 4.62581 -1.24722 0
M  V30 15409 H 1461.57 2.4826 -0.569144 0
M  V30 15410 H 1462.35 2.60489 -2.23608 0
M  V30 15411 N 1464.8 0.627364 1.44575 0
M  V30 15412 C 1466.04 0.130352 2.0208 0
M  V30 15413 C 1466.37 -1.24642 1.49314 0
M  V30 15414 O 1465.63 -1.84022 0.665923 0
M  V30 15415 C 1465.93 0.0622409 3.57346 0
M  V30 15416 C 1465.59 1.37729 4.2935 0
M  V30 15417 C 1464.25 1.73747 4.48737 0
M  V30 15418 C 1466.61 2.2455 4.70347 0
M  V30 15419 C 1463.93 2.96301 5.06382 0
M  V30 15420 C 1466.29 3.46371 5.29349 0
M  V30 15421 C 1464.95 3.82616 5.46956 0
M  V30 15422 H 1464.22 0.0476991 0.739463 0
M  V30 15423 H 1466.87 0.812928 1.73389 0
M  V30 15424 H 1465.17 -0.70369 3.85429 0
M  V30 15425 H 1466.87 -0.338778 3.99566 0
M  V30 15426 H 1463.46 1.08699 4.14587 0
M  V30 15427 H 1467.64 1.98019 4.55085 0
M  V30 15428 H 1462.9 3.24465 5.18201 0
M  V30 15429 H 1467.07 4.13882 5.60067 0
M  V30 15430 H 1464.7 4.77663 5.9139 0
M  V30 15431 N 1466.28 -1.53251 0.367684 0
M  V30 15432 C 1467.24 -2.24423 -0.465516 0
M  V30 15433 C 1468.24 -1.25283 -1.00801 0
M  V30 15434 O 1469.43 -1.49545 -0.893424 0
M  V30 15435 C 1466.56 -2.9826 -1.65087 0
M  V30 15436 H 1467.75 -2.99487 0.157292 0
M  V30 15437 H 1465.31 -1.55843 0.119409 0
M  V30 15438 H 1466.04 -2.27443 -2.31171 0
M  V30 15439 H 1465.83 -3.71003 -1.26882 0
M  V30 15440 H 1467.32 -3.52358 -2.24128 0
M  V30 15441 N 1467.75 -0.0969077 -1.57302 0
M  V30 15442 C 1468.68 0.858443 -2.17147 0
M  V30 15443 C 1469.66 1.29294 -1.10531 0
M  V30 15444 O 1470.85 1.3595 -1.38676 0
M  V30 15445 C 1467.98 2.11691 -2.75326 0
M  V30 15446 C 1466.93 1.82097 -3.8733 0
M  V30 15447 C 1466.26 3.14787 -4.32219 0
M  V30 15448 C 1467.56 1.10651 -5.10444 0
M  V30 15449 H 1469.25 0.35982 -2.9723 0
M  V30 15450 H 1466.8 0.17163 -1.42974 0
M  V30 15451 H 1468.75 2.78963 -3.15844 0
M  V30 15452 H 1467.48 2.63839 -1.925 0
M  V30 15453 H 1466.14 1.17222 -3.47354 0
M  V30 15454 H 1465.78 3.64826 -3.46281 0
M  V30 15455 H 1465.48 2.95769 -5.07735 0
M  V30 15456 H 1467.01 3.83215 -4.75372 0
M  V30 15457 H 1468.42 1.68036 -5.48121 0
M  V30 15458 H 1466.82 1.01805 -5.91401 0
M  V30 15459 H 1467.89 0.0895634 -4.84817 0
M  V30 15460 N 1469.23 1.56605 0.176793 0
M  V30 15461 C 1470.51 1.72546 0.921261 0
M  V30 15462 C 1470.89 0.656794 2.00623 0
M  V30 15463 O 1470.24 -0.329303 2.26115 0
M  V30 15464 C 1470.45 3.15548 1.491 0
M  V30 15465 C 1471.79 3.7634 1.96604 0
M  V30 15466 O 1472.82 3.18791 1.58905 0
M  V30 15467 O 1471.68 4.77377 2.66033 0
M  V30 15468 H 1468.77 0.704425 0.43326 0
M  V30 15469 H 1471.32 1.68895 0.165052 0
M  V30 15470 H 1470.09 3.84808 0.709839 0
M  V30 15471 H 1469.71 3.23502 2.31154 0
M  V30 15472 N 1470.71 -0.445159 1.51182 0
M  V30 15473 C 1471.64 -1.55943 1.66604 0
M  V30 15474 C 1472.62 -1.54272 0.513703 0
M  V30 15475 O 1473.8 -1.73514 0.736548 0
M  V30 15476 C 1470.93 -2.94528 1.67245 0
M  V30 15477 C 1469.98 -3.14255 2.88351 0
M  V30 15478 S 1470.81 -2.91385 4.49283 0
M  V30 15479 C 1471.97 -4.32265 4.52656 0
M  V30 15480 H 1472.2 -1.42627 2.60854 0
M  V30 15481 H 1469.73 -0.634314 1.40769 0
M  V30 15482 H 1471.69 -3.74414 1.68299 0
M  V30 15483 H 1470.35 -3.05214 0.741856 0
M  V30 15484 H 1469.54 -4.1556 2.85177 0
M  V30 15485 H 1469.15 -2.42182 2.84998 0
M  V30 15486 H 1471.44 -5.25338 4.27816 0
M  V30 15487 H 1472.38 -4.40474 5.54426 0
M  V30 15488 H 1472.79 -4.15555 3.82066 0
M  V30 15489 N 1472.19 -1.41197 -0.700089 0
M  V30 15490 C 1473.46 -1.30803 -1.4543 0
M  V30 15491 C 1473.84 0.0664987 -2.10995 0
M  V30 15492 O 1473.19 1.08043 -2.01343 0
M  V30 15493 C 1473.4 -2.45815 -2.47742 0
M  V30 15494 C 1474.75 -2.86771 -3.13126 0
M  V30 15495 O 1475.77 -2.45521 -2.58065 0
M  V30 15496 O 1474.63 -3.58086 -4.1284 0
M  V30 15497 H 1471.73 -0.514523 -0.647453 0
M  V30 15498 H 1474.27 -1.53151 -0.73095 0
M  V30 15499 H 1473.05 -3.37557 -1.97917 0
M  V30 15500 H 1472.67 -2.25319 -3.27593 0
M  V30 15501 N 1473.67 0.933891 -1.2695 0
M  V30 15502 C 1474.63 2.0152 -1.0919 0
M  V30 15503 C 1475.63 1.60755 -0.037865 0
M  V30 15504 O 1476.82 1.71904 -0.281917 0
M  V30 15505 C 1473.95 3.34403 -0.66239 0
M  V30 15506 H 1475.14 2.18706 -2.05201 0
M  V30 15507 H 1472.7 1.11385 -1.0965 0
M  V30 15508 H 1473.43 3.22915 0.299388 0
M  V30 15509 H 1473.22 3.65345 -1.42356 0
M  V30 15510 H 1474.71 4.13826 -0.560187 0
M  V30 15511 N 1475.14 1.08871 1.13951 0
M  V30 15512 C 1476.42 0.73388 1.81311 0
M  V30 15513 C 1476.8 -0.781824 1.96089 0
M  V30 15514 O 1476.15 -1.70211 1.52448 0
M  V30 15515 C 1476.36 1.46631 3.16702 0
M  V30 15516 C 1477.71 1.62843 3.92132 0
M  V30 15517 O 1478.73 1.42836 3.26307 0
M  V30 15518 O 1477.59 1.95893 5.10185 0
M  V30 15519 H 1474.68 0.262976 0.784074 0
M  V30 15520 H 1477.23 1.19057 1.20927 0
M  V30 15521 H 1476 2.49863 3.01138 0
M  V30 15522 H 1475.62 1.00141 3.84782 0
M  V30 15523 N 1476.62 -1.31073 0.875073 0
M  V30 15524 C 1477.55 -2.30855 0.350468 0
M  V30 15525 C 1478.53 -1.60569 -0.561384 0
M  V30 15526 O 1479.72 -1.88242 -0.477329 0
M  V30 15527 C 1476.85 -3.44444 -0.444493 0
M  V30 15528 C 1475.8 -4.26357 0.374716 0
M  V30 15529 C 1475.13 -5.31903 -0.546243 0
M  V30 15530 C 1476.43 -4.96817 1.61153 0
M  V30 15531 H 1478.12 -2.74983 1.18427 0
M  V30 15532 H 1475.67 -1.32199 0.570909 0
M  V30 15533 H 1477.62 -4.13304 -0.82206 0
M  V30 15534 H 1476.34 -2.99096 -1.31185 0
M  V30 15535 H 1475 -3.59171 0.734295 0
M  V30 15536 H 1474.65 -4.82803 -1.41102 0
M  V30 15537 H 1474.35 -5.876 -0.00198173 0
M  V30 15538 H 1475.88 -6.03621 -0.920542 0
M  V30 15539 H 1477.29 -5.58247 1.30511 0
M  V30 15540 H 1475.69 -5.62334 2.09524 0
M  V30 15541 H 1476.76 -4.2351 2.36151 0
M  V30 15542 N 1478.1 -0.635022 -1.4424 0
M  V30 15543 C 1479.03 0.0543561 -2.33437 0
M  V30 15544 C 1480.01 0.830807 -1.48431 0
M  V30 15545 O 1481.2 0.795913 -1.77141 0
M  V30 15546 C 1478.33 1.03391 -3.31553 0
M  V30 15547 C 1477.28 0.368824 -4.26408 0
M  V30 15548 C 1476.61 1.45855 -5.14422 0
M  V30 15549 C 1477.91 -0.727381 -5.1721 0
M  V30 15550 H 1479.6 -0.690489 -2.91329 0
M  V30 15551 H 1477.15 -0.3335 -1.40085 0
M  V30 15552 H 1479.1 1.52495 -3.9284 0
M  V30 15553 H 1477.82 1.80969 -2.71878 0
M  V30 15554 H 1476.48 -0.101605 -3.66459 0
M  V30 15555 H 1476.13 2.22531 -4.51098 0
M  V30 15556 H 1475.83 1.0189 -5.78699 0
M  V30 15557 H 1477.35 1.95132 -5.78581 0
M  V30 15558 H 1478.77 -0.319272 -5.7241 0
M  V30 15559 H 1477.17 -1.09041 -5.9011 0
M  V30 15560 H 1478.24 -1.59292 -4.57989 0
M  V30 15561 N 1479.58 1.53054 -0.375806 0
M  V30 15562 C 1480.83 2.00584 0.211847 0
M  V30 15563 C 1481.14 1.26692 1.49025 0
M  V30 15564 O 1482.35 1.64863 2.15713 0
M  V30 15565 C 1480.8 3.57345 0.428074 0
M  V30 15566 C 1480.41 4.40125 -0.836299 0
M  V30 15567 C 1482.15 4.13203 0.972825 0
M  V30 15568 C 1480.06 5.88459 -0.589093 0
M  V30 15569 H 1478.99 0.749424 0.0829412 0
M  V30 15570 H 1481.64 1.76666 -0.496126 0
M  V30 15571 H 1480.02 3.77458 1.19756 0
M  V30 15572 H 1481.2 4.31782 -1.60936 0
M  V30 15573 H 1479.51 3.95422 -1.30501 0
M  V30 15574 H 1482.11 5.21669 1.17326 0
M  V30 15575 H 1482.45 3.68441 1.93797 0
M  V30 15576 H 1482.99 3.96928 0.263249 0
M  V30 15577 H 1479.73 6.37517 -1.52485 0
M  V30 15578 H 1479.25 5.99624 0.145285 0
M  V30 15579 H 1480.92 6.46631 -0.218485 0
M  V30 15580 N 1481.06 0.105248 1.57248 0
M  V30 15581 C 1482.3 -0.554956 1.94331 0
M  V30 15582 C 1482.63 -1.68087 0.988528 0
M  V30 15583 O 1481.9 -1.95854 0.042366 0
M  V30 15584 H 1480.48 -0.207994 0.717459 0
M  V30 15585 H 1483.14 0.170964 1.94149 0
M  V30 15586 H 1482.23 -0.95853 2.97016 0
M  V30 15587 N 1482.53 -1.56697 -0.168486 0
M  V30 15588 C 1483.78 -1.82424 -0.885965 0
M  V30 15589 C 1484.11 -0.683543 -1.81773 0
M  V30 15590 O 1483.39 0.314319 -1.91943 0
M  V30 15591 C 1483.67 -3.18553 -1.67917 0
M  V30 15592 C 1483.52 -4.43154 -0.770343 0
M  V30 15593 C 1484.84 -3.51654 -2.64627 0
M  V30 15594 H 1481.96 -0.663594 -0.320644 0
M  V30 15595 H 1484.6 -1.89391 -0.15205 0
M  V30 15596 H 1482.75 -3.12745 -2.30484 0
M  V30 15597 H 1484.43 -4.61032 -0.157328 0
M  V30 15598 H 1482.67 -4.33729 -0.0785653 0
M  V30 15599 H 1483.34 -5.34961 -1.36092 0
M  V30 15600 H 1485.82 -3.57934 -2.12185 0
M  V30 15601 H 1484.69 -4.47975 -3.17191 0
M  V30 15602 H 1484.95 -2.76503 -3.44961 0
M  V30 15603 N 1484.01 0.437135 -1.51416 0
M  V30 15604 C 1484.94 1.538 -1.75692 0
M  V30 15605 C 1485.92 1.5891 -0.606759 0
M  V30 15606 O 1487.11 1.74635 -0.849492 0
M  V30 15607 C 1484.24 2.91877 -1.88215 0
M  V30 15608 C 1483.19 3.01628 -3.03652 0
M  V30 15609 C 1482.52 4.41687 -3.01358 0
M  V30 15610 C 1483.82 2.75691 -4.43612 0
M  V30 15611 H 1485.51 1.33737 -2.67871 0
M  V30 15612 H 1483.06 0.641936 -1.289 0
M  V30 15613 H 1485.01 3.68851 -2.03781 0
M  V30 15614 H 1483.74 3.13173 -0.926847 0
M  V30 15615 H 1482.39 2.27094 -2.87791 0
M  V30 15616 H 1482.04 4.5995 -2.03605 0
M  V30 15617 H 1481.74 4.49141 -3.78875 0
M  V30 15618 H 1483.27 5.20634 -3.19018 0
M  V30 15619 H 1484.68 3.42398 -4.59822 0
M  V30 15620 H 1483.08 2.94554 -5.22836 0
M  V30 15621 H 1484.15 1.71297 -4.53636 0
M  V30 15622 N 1485.49 1.41566 0.692592 0
M  V30 15623 C 1486.45 1.43369 1.78824 0
M  V30 15624 C 1487.45 0.323867 1.57505 0
M  V30 15625 O 1488.64 0.583885 1.64123 0
M  V30 15626 C 1485.78 1.24798 3.17235 0
M  V30 15627 H 1486.97 2.40906 1.78617 0
M  V30 15628 H 1484.52 1.27752 0.900508 0
M  V30 15629 H 1485.26 0.281129 3.23079 0
M  V30 15630 H 1485.04 2.05212 3.34111 0
M  V30 15631 H 1486.53 1.28902 3.97208 0
M  V30 15632 N 1486.97 -0.927146 1.27443 0
M  V30 15633 C 1488.25 -1.65322 1.04538 0
M  V30 15634 C 1488.63 -2.06886 -0.419694 0
M  V30 15635 O 1487.97 -1.80352 -1.40304 0
M  V30 15636 C 1488.18 -2.85486 2.00746 0
M  V30 15637 C 1489.53 -3.56816 2.30147 0
M  V30 15638 O 1490.56 -2.95613 1.98724 0
M  V30 15639 O 1489.41 -4.67085 2.83714 0
M  V30 15640 H 1486.51 -0.724627 0.398554 0
M  V30 15641 H 1489.05 -0.977633 1.3871 0
M  V30 15642 H 1487.83 -2.51766 2.99549 0
M  V30 15643 H 1487.45 -3.60763 1.67139 0
M  V30 15644 N 1488.45 -1.09474 -1.13372 0
M  V30 15645 C 1489.38 -0.756441 -2.20908 0
M  V30 15646 C 1490.36 0.266113 -1.68006 0
M  V30 15647 O 1491.54 0.134067 -1.93737 0
M  V30 15648 C 1488.67 -0.176733 -3.4685 0
M  V30 15649 C 1487.63 -1.12886 -4.12845 0
M  V30 15650 C 1486.95 -0.410831 -5.33119 0
M  V30 15651 C 1488.25 -2.47148 -4.60125 0
M  V30 15652 H 1489.95 -1.65555 -2.49463 0
M  V30 15653 H 1487.49 -0.797458 -1.19902 0
M  V30 15654 H 1489.45 0.0720151 -4.21338 0
M  V30 15655 H 1488.17 0.757576 -3.17692 0
M  V30 15656 H 1486.83 -1.36289 -3.40325 0
M  V30 15657 H 1486.48 0.527632 -5.00225 0
M  V30 15658 H 1486.18 -1.04567 -5.78221 0
M  V30 15659 H 1487.7 -0.170394 -6.10362 0
M  V30 15660 H 1489.11 -2.27949 -5.26034 0
M  V30 15661 H 1487.51 -3.06425 -5.15969 0
M  V30 15662 H 1488.58 -3.07874 -3.74622 0
M  V30 15663 N 1489.92 1.30607 -0.882012 0
M  V30 15664 C 1491.34 1.48859 -0.575599 0
M  V30 15665 C 1491.54 1.80908 0.887388 0
M  V30 15666 O 1490.6 1.89492 1.6688 0
M  V30 15667 C 1491.91 2.61405 -1.48619 0
M  V30 15668 C 1493.46 2.75286 -1.48951 0
M  V30 15669 C 1493.93 3.90942 -2.38596 0
M  V30 15670 N 1495.42 3.98248 -2.36543 0
M  V30 15671 C 1496.16 4.87041 -3.0262 0
M  V30 15672 N 1495.65 5.80651 -3.77911 0
M  V30 15673 N 1497.45 4.80385 -2.91867 0
M  V30 15674 H 1489.6 1.08076 -1.82848 0
M  V30 15675 H 1491.86 0.535148 -0.782509 0
M  V30 15676 H 1491.57 2.44535 -2.52775 0
M  V30 15677 H 1491.44 3.57818 -1.19358 0
M  V30 15678 H 1493.83 2.91564 -0.455477 0
M  V30 15679 H 1493.91 1.79504 -1.82242 0
M  V30 15680 H 1493.55 3.75422 -3.42083 0
M  V30 15681 H 1493.48 4.86057 -2.02623 0
M  V30 15682 H 1495.97 3.31282 -1.81827 0
M  V30 15683 H 1496.29 6.45159 -4.25428 0
M  V30 15684 H 1494.63 5.80592 -3.82019 0
M  V30 15685 H 1497.82 4.06234 -2.32576 0
M  V30 15686 H 1498 5.49377 -3.43641 0
M  V30 15687 N 1491.4 0.642663 1.43901 0
M  V30 15688 C 1492.68 0.0821715 1.95427 0
M  V30 15689 C 1493.06 -1.3951 1.58431 0
M  V30 15690 O 1492.41 -2.11531 0.864118 0
M  V30 15691 C 1492.62 0.317229 3.47555 0
M  V30 15692 C 1493.97 0.216547 4.24047 0
M  V30 15693 O 1494.99 0.249216 3.55327 0
M  V30 15694 O 1493.85 0.131269 5.46342 0
M  V30 15695 H 1490.94 -0.0156936 0.826851 0
M  V30 15696 H 1493.49 0.715168 1.53894 0
M  V30 15697 H 1492.26 1.34184 3.67574 0
M  V30 15698 H 1491.88 -0.349348 3.96062 0
M  V30 15699 N 1492.88 -1.52852 0.383918 0
M  V30 15700 C 1494.11 -2.06406 -0.202764 0
M  V30 15701 C 1494.53 -1.25421 -1.40183 0
M  V30 15702 O 1493.89 -0.277876 -1.79158 0
M  V30 15703 C 1493.94 -3.56281 -0.556414 0
M  V30 15704 O 1493.04 -3.77904 -1.65113 0
M  V30 15705 H 1492.38 -0.663523 -0.0251737 0
M  V30 15706 H 1494.91 -1.97074 0.54983 0
M  V30 15707 H 1494.92 -3.99629 -0.822249 0
M  V30 15708 H 1493.6 -4.14665 0.320253 0
M  V30 15709 H 1492.17 -3.46448 -1.37943 0
M  V30 15710 N 1494.36 -0.113586 -1.5719 0
M  V30 15711 C 1495.27 0.852428 -2.18565 0
M  V30 15712 C 1496.29 1.29668 -1.16026 0
M  V30 15713 O 1497.46 1.36079 -1.48474 0
M  V30 15714 C 1494.53 2.08675 -2.76867 0
M  V30 15715 C 1493.59 1.69493 -3.94424 0
M  V30 15716 C 1492.82 2.87042 -4.49936 0
M  V30 15717 O 1493.04 4.02311 -4.04354 0
M  V30 15718 O 1491.98 2.64439 -5.40699 0
M  V30 15719 H 1495.8 0.360144 -3.01557 0
M  V30 15720 H 1493.39 0.111744 -1.48982 0
M  V30 15721 H 1495.27 2.80976 -3.14054 0
M  V30 15722 H 1493.95 2.5692 -1.9691 0
M  V30 15723 H 1492.85 0.943161 -3.62016 0
M  V30 15724 H 1494.19 1.25995 -4.758 0
M  V30 15725 N 1495.84 1.56784 0.160173 0
M  V30 15726 C 1497.08 1.82891 0.876278 0
M  V30 15727 C 1497.42 0.693173 1.81408 0
M  V30 15728 O 1496.69 -0.304136 1.92107 0
M  V30 15729 C 1496.97 3.19439 1.66226 0
M  V30 15730 C 1496.83 4.43557 0.746831 0
M  V30 15731 C 1498.15 3.53053 2.62758 0
M  V30 15732 H 1495.27 0.665285 0.31712 0
M  V30 15733 H 1497.91 1.89469 0.142004 0
M  V30 15734 H 1496.06 3.13962 2.28823 0
M  V30 15735 H 1497.73 4.61109 0.132876 0
M  V30 15736 H 1495.97 4.33764 0.0555625 0
M  V30 15737 H 1496.64 5.35675 1.33253 0
M  V30 15738 H 1499.12 3.59054 2.10284 0
M  V30 15739 H 1498 4.4965 3.14811 0
M  V30 15740 H 1498.26 2.78329 3.4349 0
M  V30 15741 N 1497.32 -0.429099 1.51646 0
M  V30 15742 C 1498.28 -1.50398 1.72954 0
M  V30 15743 C 1499.28 -1.49207 0.599491 0
M  V30 15744 O 1500.47 -1.51084 0.867143 0
M  V30 15745 C 1497.6 -2.89903 1.79358 0
M  V30 15746 H 1498.79 -1.32805 2.68892 0
M  V30 15747 H 1496.35 -0.658313 1.4176 0
M  V30 15748 H 1497.08 -3.12891 0.852639 0
M  V30 15749 H 1496.87 -2.92171 2.61492 0
M  V30 15750 H 1498.36 -3.67862 1.97654 0
M  V30 15751 N 1498.79 -1.41931 -0.685074 0
M  V30 15752 C 1499.76 -1.44315 -1.78061 0
M  V30 15753 C 1500.76 -0.332215 -1.57331 0
M  V30 15754 O 1501.95 -0.59258 -1.63811 0
M  V30 15755 C 1499.08 -1.26479 -3.16569 0
M  V30 15756 H 1500.27 -2.4185 -1.77337 0
M  V30 15757 H 1497.82 -1.28228 -0.893721 0
M  V30 15758 H 1498.56 -0.298259 -3.22926 0
M  V30 15759 H 1498.34 -2.06981 -3.33018 0
M  V30 15760 H 1499.83 -1.31006 -3.96519 0
M  V30 15761 N 1500.27 0.920374 -1.27933 0
M  V30 15762 C 1501.22 2.00832 -1.07937 0
M  V30 15763 C 1502.21 1.60899 -0.005079 0
M  V30 15764 O 1503.4 1.75571 -0.224461 0
M  V30 15765 C 1500.53 3.35311 -0.736301 0
M  V30 15766 C 1499.61 3.81666 -1.8491 0
M  V30 15767 N 1500 4.00458 -3.08977 0
M  V30 15768 C 1498.3 4.10766 -1.73745 0
M  V30 15769 C 1499 4.39178 -3.81441 0
M  V30 15770 N 1497.98 4.47064 -3.09249 0
M  V30 15771 H 1501.78 2.13402 -2.02081 0
M  V30 15772 H 1499.29 1.10774 -1.18755 0
M  V30 15773 H 1501.29 4.12928 -0.574144 0
M  V30 15774 H 1499.95 3.24099 0.197437 0
M  V30 15775 H 1500.96 3.86562 -3.4466 0
M  V30 15776 H 1497.64 4.08227 -0.875042 0
M  V30 15777 H 1499.03 4.61736 -4.88109 0
M  V30 15778 N 1501.75 1.10074 1.1279 0
M  V30 15779 C 1502.68 0.768146 2.20503 0
M  V30 15780 C 1503.66 -0.257199 1.68144 0
M  V30 15781 O 1504.85 -0.12379 1.93805 0
M  V30 15782 C 1501.98 0.195125 3.46751 0
M  V30 15783 C 1500.93 1.15074 4.1224 0
M  V30 15784 C 1500.26 0.439098 5.32894 0
M  V30 15785 C 1501.56 2.49584 4.58808 0
M  V30 15786 H 1503.25 1.66876 2.48581 0
M  V30 15787 H 1500.8 0.803806 1.19478 0
M  V30 15788 H 1502.75 -0.0496695 4.21371 0
M  V30 15789 H 1501.47 -0.740717 3.1809 0
M  V30 15790 H 1500.13 1.38092 3.39597 0
M  V30 15791 H 1499.78 -0.501096 5.00498 0
M  V30 15792 H 1499.48 1.07632 5.77658 0
M  V30 15793 H 1501 0.202761 6.10263 0
M  V30 15794 H 1502.42 2.30736 5.24818 0
M  V30 15795 H 1500.81 3.09157 5.14336 0
M  V30 15796 H 1501.88 3.09857 3.72984 0
M  V30 15797 N 1503.23 -1.30138 0.888926 0
M  V30 15798 C 1504.16 -2.3047 0.374934 0
M  V30 15799 C 1505.14 -1.61156 -0.544322 0
M  V30 15800 O 1506.32 -1.88738 -0.457337 0
M  V30 15801 C 1503.45 -3.44896 -0.407935 0
M  V30 15802 C 1502.41 -4.25935 0.419916 0
M  V30 15803 C 1501.73 -5.32452 -0.489797 0
M  V30 15804 C 1503.03 -4.9508 1.66413 0
M  V30 15805 H 1504.73 -2.73711 1.21337 0
M  V30 15806 H 1502.27 -1.31586 0.584899 0
M  V30 15807 H 1504.23 -4.14153 -0.778177 0
M  V30 15808 H 1502.95 -3.0047 -1.28005 0
M  V30 15809 H 1501.61 -3.58372 0.772348 0
M  V30 15810 H 1501.26 -4.84273 -1.35974 0
M  V30 15811 H 1500.96 -5.87569 0.0603412 0
M  V30 15812 H 1502.48 -6.04563 -0.856468 0
M  V30 15813 H 1503.9 -5.56831 1.36425 0
M  V30 15814 H 1502.29 -5.6008 2.15477 0
M  V30 15815 H 1503.36 -4.20981 2.4063 0
M  V30 15816 N 1504.71 -0.650285 -1.43559 0
M  V30 15817 C 1505.64 0.0817484 -2.29054 0
M  V30 15818 C 1506.65 0.790023 -1.42346 0
M  V30 15819 O 1507.84 0.648269 -1.66312 0
M  V30 15820 C 1504.94 1.13873 -3.19196 0
M  V30 15821 C 1504.11 0.509177 -4.34426 0
M  V30 15822 C 1503.17 1.46265 -5.05463 0
M  V30 15823 O 1502.2 0.972378 -5.60833 0
M  V30 15824 N 1503.4 2.79668 -5.08691 0
M  V30 15825 H 1506.16 -0.652062 -2.92521 0
M  V30 15826 H 1503.73 -0.49285 -1.54216 0
M  V30 15827 H 1505.72 1.77732 -3.63584 0
M  V30 15828 H 1504.29 1.77454 -2.5735 0
M  V30 15829 H 1503.51 -0.308444 -3.92991 0
M  V30 15830 H 1504.8 0.0695732 -5.08752 0
M  V30 15831 H 1504.19 3.22062 -4.65072 0
M  V30 15832 H 1502.75 3.38838 -5.56805 0
M  V30 15833 N 1506.18 1.52647 -0.392018 0
M  V30 15834 C 1507.43 2.01912 0.18958 0
M  V30 15835 C 1507.76 1.27786 1.46234 0
M  V30 15836 O 1507.04 0.379124 1.90769 0
M  V30 15837 C 1507.32 3.57217 0.454734 0
M  V30 15838 C 1507.17 4.4201 -0.833501 0
M  V30 15839 C 1508.49 4.22146 1.24421 0
M  V30 15840 H 1505.61 0.733909 0.0674281 0
M  V30 15841 H 1508.25 1.82685 -0.52212 0
M  V30 15842 H 1506.4 3.73731 1.06101 0
M  V30 15843 H 1508.08 4.37242 -1.47027 0
M  V30 15844 H 1506.32 4.08912 -1.44823 0
M  V30 15845 H 1506.99 5.48701 -0.602585 0
M  V30 15846 H 1509.47 4.09627 0.731093 0
M  V30 15847 H 1508.34 5.30786 1.39848 0
M  V30 15848 H 1508.6 3.7996 2.26016 0
M  V30 15849 N 1507.66 0.121921 1.57128 0
M  V30 15850 C 1508.9 -0.538423 1.97181 0
M  V30 15851 C 1509.27 -1.63661 1.00394 0
M  V30 15852 O 1510.47 -2.35606 1.29396 0
M  V30 15853 C 1508.74 -1.05469 3.41484 0
M  V30 15854 S 1510.3 -1.72315 4.0355 0
M  V30 15855 H 1507.12 -0.174913 0.689149 0
M  V30 15856 H 1509.72 0.207694 1.94394 0
M  V30 15857 H 1508.42 -0.244297 4.09672 0
M  V30 15858 H 1507.95 -1.83602 3.47928 0
M  V30 15859 H 1509.97 -3.0091 3.94547 0
M  V30 15860 N 1509.14 -1.56867 -0.151857 0
M  V30 15861 C 1510.38 -1.84887 -0.871555 0
M  V30 15862 C 1510.74 -0.705549 -1.78567 0
M  V30 15863 O 1511.95 -0.86668 -2.54445 0
M  V30 15864 C 1510.22 -3.18077 -1.62978 0
M  V30 15865 S 1511.78 -3.67639 -2.39557 0
M  V30 15866 H 1508.59 -0.648478 -0.291543 0
M  V30 15867 H 1511.2 -1.95055 -0.131873 0
M  V30 15868 H 1509.9 -3.99262 -0.949621 0
M  V30 15869 H 1509.43 -3.10902 -2.41046 0
M  V30 15870 H 1511.45 -3.36516 -3.64653 0
M  V30 15871 N 1510.62 0.421051 -1.51871 0
M  V30 15872 C 1511.85 1.18938 -1.6893 0
M  V30 15873 C 1512.26 1.85069 -0.393198 0
M  V30 15874 O 1511.6 1.72204 0.639648 0
M  V30 15875 C 1511.66 2.30343 -2.76012 0
M  V30 15876 C 1511.33 1.84446 -4.18125 0
M  V30 15877 C 1512.32 1.33882 -5.02366 0
M  V30 15878 C 1510.01 1.91642 -4.64305 0
M  V30 15879 C 1512 0.911212 -6.30853 0
M  V30 15880 C 1509.69 1.48492 -5.92784 0
M  V30 15881 C 1510.69 0.98316 -6.75887 0
M  V30 15882 O 1510.37 0.557853 -8.01962 0
M  V30 15883 H 1510.11 0.363908 -0.56969 0
M  V30 15884 H 1512.66 0.503089 -1.99144 0
M  V30 15885 H 1510.89 3.02298 -2.41148 0
M  V30 15886 H 1512.58 2.92148 -2.81787 0
M  V30 15887 H 1513.35 1.27704 -4.67885 0
M  V30 15888 H 1509.22 2.29641 -3.99732 0
M  V30 15889 H 1512.77 0.518877 -6.95668 0
M  V30 15890 H 1508.67 1.54345 -6.26776 0
M  V30 15891 H 1509.43 0.682238 -8.15652 0
M  V30 15892 N 1512.1 1.42293 0.677538 0
M  V30 15893 C 1513.05 1.42014 1.78371 0
M  V30 15894 C 1514.03 0.291863 1.58231 0
M  V30 15895 O 1515.22 0.533888 1.68756 0
M  V30 15896 C 1512.35 1.32233 3.16811 0
M  V30 15897 C 1511.44 2.49995 3.42584 0
M  V30 15898 N 1511.83 3.75424 3.38955 0
M  V30 15899 C 1510.13 2.44196 3.73208 0
M  V30 15900 C 1510.83 4.53631 3.64135 0
M  V30 15901 N 1509.8 3.84001 3.84765 0
M  V30 15902 H 1513.61 2.3689 1.73954 0
M  V30 15903 H 1511.12 1.36603 0.878266 0
M  V30 15904 H 1513.12 1.30115 3.96075 0
M  V30 15905 H 1511.78 0.383559 3.22427 0
M  V30 15906 H 1512.79 4.08057 3.18919 0
M  V30 15907 H 1509.46 1.58884 3.86085 0
M  V30 15908 H 1510.85 5.6261 3.67314 0
M  V30 15909 N 1513.57 -0.913576 1.28419 0
M  V30 15910 C 1514.5 -2.03275 1.14897 0
M  V30 15911 C 1515.49 -1.70036 0.0467034 0
M  V30 15912 O 1516.67 -1.92907 0.223725 0
M  V30 15913 C 1513.8 -3.37717 0.810217 0
M  V30 15914 C 1512.75 -3.85119 1.86728 0
M  V30 15915 C 1512.08 -5.16527 1.38215 0
M  V30 15916 C 1513.38 -4.06959 3.27386 0
M  V30 15917 H 1515.07 -2.14847 2.08522 0
M  V30 15918 H 1512.62 -1.03233 1.00394 0
M  V30 15919 H 1514.57 -4.15505 0.702382 0
M  V30 15920 H 1513.3 -3.26199 -0.161732 0
M  V30 15921 H 1511.96 -3.09536 1.96426 0
M  V30 15922 H 1511.6 -5.01413 0.399263 0
M  V30 15923 H 1511.3 -5.49213 2.08898 0
M  V30 15924 H 1512.83 -5.96871 1.28754 0
M  V30 15925 H 1514.24 -4.75272 3.20608 0
M  V30 15926 H 1512.64 -4.50977 3.95904 0
M  V30 15927 H 1513.71 -3.11764 3.71391 0
M  V30 15928 N 1515.05 -1.1067 -1.12204 0
M  V30 15929 C 1516.46 -0.867959 -1.65298 0
M  V30 15930 C 1516.81 0.601297 -1.86759 0
M  V30 15931 O 1515.94 1.46153 -1.59588 0
M  V30 15932 C 1516.53 -1.56906 -3.00276 0
M  V30 15933 C 1515.09 -1.37696 -3.5031 0
M  V30 15934 C 1514.24 -1.61688 -2.25282 0
M  V30 15935 H 1517.19 -1.26408 -0.959521 0
M  V30 15936 H 1517.21 -1.00947 -3.66865 0
M  V30 15937 H 1516.72 -2.63838 -2.84625 0
M  V30 15938 H 1514.83 -0.329381 -3.71141 0
M  V30 15939 H 1514.94 -2.12058 -4.29614 0
M  V30 15940 H 1513.3 -1.03977 -2.3251 0
M  V30 15941 H 1514.09 -2.69877 -2.12182 0
M  V30 15942 N 1516.53 1.29665 -0.895815 0
M  V30 15943 C 1517.46 2.30268 -0.387151 0
M  V30 15944 C 1518.44 1.61442 0.535768 0
M  V30 15945 O 1519.63 1.88978 0.447321 0
M  V30 15946 C 1516.76 3.45107 0.389639 0
M  V30 15947 C 1515.71 4.25706 -0.442498 0
M  V30 15948 C 1515.04 5.32704 0.461552 0
M  V30 15949 C 1516.34 4.9419 -1.69036 0
M  V30 15950 H 1518.03 2.73064 -1.22786 0
M  V30 15951 H 1515.58 1.31274 -0.591869 0
M  V30 15952 H 1517.53 4.14559 0.756203 0
M  V30 15953 H 1516.25 3.01145 1.2641 0
M  V30 15954 H 1514.91 3.57957 -0.791343 0
M  V30 15955 H 1514.56 4.84987 1.33403 0
M  V30 15956 H 1514.26 5.87529 -0.0915006 0
M  V30 15957 H 1515.78 6.05009 0.824395 0
M  V30 15958 H 1517.2 5.561 -1.39376 0
M  V30 15959 H 1515.6 5.5893 -2.18444 0
M  V30 15960 H 1516.67 4.19699 -2.42859 0
M  V30 15961 N 1518.01 0.657889 1.43212 0
M  V30 15962 C 1518.94 -0.0807001 2.28057 0
M  V30 15963 C 1519.92 -0.825321 1.40097 0
M  V30 15964 O 1521.1 -0.823932 1.69539 0
M  V30 15965 C 1518.23 -1.12112 3.19607 0
M  V30 15966 C 1517.28 -0.474017 4.23858 0
M  V30 15967 S 1518.11 0.75589 5.30138 0
M  V30 15968 C 1519.27 -0.28388 6.25256 0
M  V30 15969 H 1519.5 0.639012 2.90351 0
M  V30 15970 H 1517.03 0.446876 1.47792 0
M  V30 15971 H 1518.99 -1.71637 3.72895 0
M  V30 15972 H 1517.65 -1.81318 2.56481 0
M  V30 15973 H 1516.84 -1.25849 4.88035 0
M  V30 15974 H 1516.45 0.0472307 3.7397 0
M  V30 15975 H 1518.74 -1.14869 6.67691 0
M  V30 15976 H 1519.68 0.322986 7.07363 0
M  V30 15977 H 1520.09 -0.621781 5.61065 0
M  V30 15978 N 1519.49 -1.52437 0.400108 0
M  V30 15979 C 1520.42 -2.24433 -0.465038 0
M  V30 15980 C 1521.43 -1.27067 -1.01773 0
M  V30 15981 O 1522.62 -1.53072 -0.918215 0
M  V30 15982 C 1519.72 -2.95555 -1.65832 0
M  V30 15983 C 1518.89 -4.19717 -1.2311 0
M  V30 15984 C 1517.95 -4.73743 -2.29028 0
M  V30 15985 O 1516.98 -5.36556 -1.8999 0
M  V30 15986 N 1518.18 -4.54534 -3.6108 0
M  V30 15987 H 1520.95 -2.99315 0.151839 0
M  V30 15988 H 1518.51 -1.603 0.227019 0
M  V30 15989 H 1520.5 -3.28595 -2.36235 0
M  V30 15990 H 1519.07 -2.23915 -2.18131 0
M  V30 15991 H 1518.29 -3.92593 -0.355537 0
M  V30 15992 H 1519.58 -5.00367 -0.922487 0
M  V30 15993 H 1518.97 -4.04419 -3.95552 0
M  V30 15994 H 1517.53 -4.92035 -4.27486 0
M  V30 15995 N 1520.96 -0.130252 -1.57061 0
M  V30 15996 C 1522.21 0.525784 -1.95866 0
M  V30 15997 C 1522.54 1.65607 -1.01429 0
M  V30 15998 O 1521.82 1.94426 -0.0535544 0
M  V30 15999 C 1522.1 1.04784 -3.44517 0
M  V30 16000 C 1521.95 -0.0797972 -4.49729 0
M  V30 16001 C 1523.27 1.9351 -3.95275 0
M  V30 16002 H 1520.39 0.189652 -0.71218 0
M  V30 16003 H 1523.03 -0.208091 -1.88857 0
M  V30 16004 H 1521.18 1.67324 -3.50621 0
M  V30 16005 H 1522.86 -0.715535 -4.55717 0
M  V30 16006 H 1521.1 -0.741358 -4.27418 0
M  V30 16007 H 1521.77 0.326915 -5.51031 0
M  V30 16008 H 1524.25 1.40825 -3.91545 0
M  V30 16009 H 1523.12 2.26952 -4.99784 0
M  V30 16010 H 1523.38 2.86583 -3.36634 0
M  V30 16011 N 1522.44 1.56945 0.143535 0
M  V30 16012 C 1523.35 2.01795 1.1965 0
M  V30 16013 C 1524.37 0.933965 1.4681 0
M  V30 16014 O 1525.55 1.2437 1.58411 0
M  V30 16015 C 1522.61 2.39249 2.5092 0
M  V30 16016 C 1521.67 3.61613 2.31376 0
M  V30 16017 C 1520.9 3.97271 3.56386 0
M  V30 16018 O 1521.13 3.33552 4.62709 0
M  V30 16019 O 1520.06 4.90501 3.48844 0
M  V30 16020 H 1523.89 2.91687 0.845718 0
M  V30 16021 H 1521.47 1.45182 0.352518 0
M  V30 16022 H 1523.35 2.64184 3.28306 0
M  V30 16023 H 1522.03 1.52511 2.85521 0
M  V30 16024 H 1520.94 3.4186 1.51929 0
M  V30 16025 H 1522.27 4.48979 2.01689 0
M  V30 16026 N 1523.92 -0.412991 1.52093 0
M  V30 16027 C 1524.85 -1.50986 1.78117 0
M  V30 16028 C 1525.83 -1.57925 0.631963 0
M  V30 16029 O 1527.02 -1.73261 0.877168 0
M  V30 16030 C 1524.15 -2.88846 1.92835 0
M  V30 16031 C 1523.1 -2.96759 3.08412 0
M  V30 16032 C 1522.43 -4.36837 3.08347 0
M  V30 16033 C 1523.73 -2.68599 4.47942 0
M  V30 16034 H 1525.42 -1.29459 2.69964 0
M  V30 16035 H 1522.97 -0.621348 1.29905 0
M  V30 16036 H 1524.92 -3.65563 2.09623 0
M  V30 16037 H 1523.64 -3.11658 0.976553 0
M  V30 16038 H 1522.3 -2.22487 2.91368 0
M  V30 16039 H 1521.95 -4.56652 2.10897 0
M  V30 16040 H 1521.65 -4.43056 3.85973 0
M  V30 16041 H 1523.18 -5.15493 3.2726 0
M  V30 16042 H 1524.59 -3.35039 4.65212 0
M  V30 16043 H 1522.99 -2.86199 5.27456 0
M  V30 16044 H 1524.06 -1.64058 4.56304 0
M  V30 16045 N 1525.4 -1.4265 -0.669982 0
M  V30 16046 C 1526.81 -1.38614 -1.25072 0
M  V30 16047 C 1527.16 -0.0818051 -1.96029 0
M  V30 16048 O 1526.29 0.81931 -2.0029 0
M  V30 16049 C 1526.88 -2.51085 -2.27469 0
M  V30 16050 C 1525.44 -2.50366 -2.81059 0
M  V30 16051 C 1524.59 -2.29632 -1.5545 0
M  V30 16052 H 1527.54 -1.51794 -0.463058 0
M  V30 16053 H 1527.56 -2.21612 -3.09303 0
M  V30 16054 H 1527.07 -3.46002 -1.75796 0
M  V30 16055 H 1525.17 -1.5928 -3.36839 0
M  V30 16056 H 1525.29 -3.47569 -3.29746 0
M  V30 16057 H 1523.65 -1.77982 -1.82193 0
M  V30 16058 H 1524.43 -3.26611 -1.05736 0
M  V30 16059 N 1526.88 0.906753 -1.28902 0
M  V30 16060 C 1528.13 1.65119 -1.15839 0
M  V30 16061 C 1528.44 1.93426 0.290825 0
M  V30 16062 O 1529.65 2.66021 0.542678 0
M  V30 16063 C 1528.1 2.97492 -2.0255 0
M  V30 16064 C 1527.71 2.76807 -3.52253 0
M  V30 16065 C 1529.45 3.75393 -1.98192 0
M  V30 16066 C 1527.36 4.04863 -4.31091 0
M  V30 16067 H 1526.29 0.619409 -0.429939 0
M  V30 16068 H 1528.94 1.00567 -1.53488 0
M  V30 16069 H 1527.32 3.63217 -1.57763 0
M  V30 16070 H 1528.5 2.19719 -4.05044 0
M  V30 16071 H 1526.81 2.1231 -3.58209 0
M  V30 16072 H 1529.41 4.70325 -2.54358 0
M  V30 16073 H 1529.75 4.05074 -0.960267 0
M  V30 16074 H 1530.29 3.16498 -2.40985 0
M  V30 16075 H 1527.02 3.80353 -5.33865 0
M  V30 16076 H 1526.54 4.61537 -3.83072 0
M  V30 16077 H 1528.22 4.73066 -4.41381 0
M  V30 16078 N 1528.36 1.11264 1.11616 0
M  V30 16079 C 1529.58 0.88306 1.87661 0
M  V30 16080 C 1530.01 -0.561586 1.79521 0
M  V30 16081 O 1529.36 -1.3964 1.1563 0
M  V30 16082 C 1529.41 1.34698 3.34498 0
M  V30 16083 O 1528.52 0.517512 4.0914 0
M  V30 16084 H 1527.86 0.318233 0.582772 0
M  V30 16085 H 1530.39 1.48164 1.41098 0
M  V30 16086 H 1530.4 1.34068 3.85344 0
M  V30 16087 H 1529.07 2.39896 3.39739 0
M  V30 16088 H 1527.65 0.589751 3.68207 0
M  V30 16089 N 1529.83 -1.29188 0.902679 0
M  V30 16090 C 1530.76 -2.3006 0.399357 0
M  V30 16091 C 1531.74 -1.61724 -0.527199 0
M  V30 16092 O 1532.93 -1.89213 -0.437293 0
M  V30 16093 C 1530.06 -3.45309 -0.371331 0
M  V30 16094 C 1529.01 -4.25466 0.465068 0
M  V30 16095 C 1528.34 -5.32941 -0.433295 0
M  V30 16096 C 1529.64 -4.93287 1.71655 0
M  V30 16097 H 1531.33 -2.72409 1.24233 0
M  V30 16098 H 1528.88 -1.30958 0.598822 0
M  V30 16099 H 1530.83 -4.14955 -0.734207 0
M  V30 16100 H 1529.56 -3.01811 -1.24811 0
M  V30 16101 H 1528.22 -3.57532 0.810315 0
M  V30 16102 H 1527.86 -4.85688 -1.3083 0
M  V30 16103 H 1527.56 -5.87472 0.122657 0
M  V30 16104 H 1529.09 -6.05438 -0.792298 0
M  V30 16105 H 1530.5 -5.55353 1.42323 0
M  V30 16106 H 1528.9 -5.57763 2.21405 0
M  V30 16107 H 1529.97 -4.18406 2.45081 0
M  V30 16108 N 1531.31 -0.665475 -1.42861 0
M  V30 16109 C 1532.24 0.00482845 -2.335 0
M  V30 16110 C 1533.22 0.799135 -1.50159 0
M  V30 16111 O 1534.41 0.75816 -1.78789 0
M  V30 16112 C 1531.54 0.963347 -3.33672 0
M  V30 16113 C 1530.49 0.278294 -4.27094 0
M  V30 16114 C 1529.82 1.34911 -5.174 0
M  V30 16115 C 1531.12 -0.836925 -5.15551 0
M  V30 16116 H 1532.81 -0.752129 -2.89799 0
M  V30 16117 H 1530.36 -0.363139 -1.39346 0
M  V30 16118 H 1532.31 1.44128 -3.95986 0
M  V30 16119 H 1531.03 1.75161 -2.75656 0
M  V30 16120 H 1529.69 -0.179314 -3.66161 0
M  V30 16121 H 1529.34 2.12912 -4.55716 0
M  V30 16122 H 1529.04 0.895919 -5.8073 0
M  V30 16123 H 1530.57 1.82816 -5.8259 0
M  V30 16124 H 1531.98 -0.440617 -5.71604 0
M  V30 16125 H 1530.38 -1.21533 -5.87665 0
M  V30 16126 H 1531.45 -1.6897 -4.54507 0
M  V30 16127 N 1532.79 1.52222 -0.408187 0
M  V30 16128 C 1534.02 2.06221 0.16743 0
M  V30 16129 C 1534.43 1.27832 1.3894 0
M  V30 16130 O 1533.79 0.329933 1.79493 0
M  V30 16131 C 1533.84 3.57758 0.518804 0
M  V30 16132 O 1533.56 4.33181 -0.654639 0
M  V30 16133 C 1535.06 4.28171 1.14825 0
M  V30 16134 H 1532.28 0.670677 0.0208054 0
M  V30 16135 H 1534.83 1.96136 -0.578868 0
M  V30 16136 H 1532.98 3.67854 1.215 0
M  V30 16137 H 1533.4 5.23252 -0.361558 0
M  V30 16138 H 1534.87 5.3538 1.34433 0
M  V30 16139 H 1535.35 3.84586 2.12108 0
M  V30 16140 H 1535.95 4.22441 0.492291 0
M  V30 16141 N 1534.27 0.138579 1.5699 0
M  V30 16142 C 1535.68 -0.217898 1.58106 0
M  V30 16143 C 1535.88 -1.65293 1.15241 0
M  V30 16144 O 1534.94 -2.37805 0.848815 0
M  V30 16145 C 1536.25 0.033211 3.00682 0
M  V30 16146 C 1537.8 -0.0311593 3.12984 0
M  V30 16147 C 1538.28 0.192508 4.57595 0
M  V30 16148 N 1539.77 0.139147 4.62991 0
M  V30 16149 C 1540.5 0.286837 5.72682 0
M  V30 16150 N 1540 0.491784 6.91052 0
M  V30 16151 N 1541.79 0.225032 5.61649 0
M  V30 16152 H 1533.94 1.07567 1.83148 0
M  V30 16153 H 1536.2 0.425143 0.847324 0
M  V30 16154 H 1535.91 1.02605 3.364 0
M  V30 16155 H 1535.78 -0.689972 3.70836 0
M  V30 16156 H 1538.17 -1.01454 2.77112 0
M  V30 16157 H 1538.25 0.724219 2.45334 0
M  V30 16158 H 1537.9 1.17295 4.9417 0
M  V30 16159 H 1537.83 -0.583092 5.23362 0
M  V30 16160 H 1540.32 -0.0149467 3.77897 0
M  V30 16161 H 1540.63 0.594813 7.70508 0
M  V30 16162 H 1538.98 0.528002 6.92991 0
M  V30 16163 H 1542.17 0.0657415 4.68054 0
M  V30 16164 H 1542.34 0.343569 6.47089 0
M  V30 16165 N 1535.75 -1.57019 -0.13521 0
M  V30 16166 C 1536.68 -2.02182 -1.16811 0
M  V30 16167 C 1537.66 -0.9034 -1.44127 0
M  V30 16168 O 1538.84 -1.17202 -1.54846 0
M  V30 16169 C 1535.97 -2.41243 -2.49838 0
M  V30 16170 C 1534.93 -3.56379 -2.37018 0
M  V30 16171 C 1534.25 -3.8129 -3.74863 0
M  V30 16172 C 1535.55 -4.88653 -1.84432 0
M  V30 16173 H 1537.25 -2.8872 -0.792529 0
M  V30 16174 H 1534.79 -1.38901 -0.379788 0
M  V30 16175 H 1536.74 -2.7144 -3.22332 0
M  V30 16176 H 1535.47 -1.51656 -2.89254 0
M  V30 16177 H 1534.13 -3.26366 -1.66975 0
M  V30 16178 H 1533.78 -2.88934 -4.11735 0
M  V30 16179 H 1533.48 -4.58781 -3.67143 0
M  V30 16180 H 1535 -4.13924 -4.48887 0
M  V30 16181 H 1536.41 -5.17492 -2.46729 0
M  V30 16182 H 1534.81 -5.70032 -1.87574 0
M  V30 16183 H 1535.88 -4.78242 -0.800759 0
M  V30 16184 N 1537.22 0.404919 -1.52309 0
M  V30 16185 C 1538.19 1.47627 -1.75325 0
M  V30 16186 C 1539.19 1.48234 -0.623153 0
M  V30 16187 O 1540.38 1.49685 -0.891069 0
M  V30 16188 C 1537.51 2.87013 -1.83947 0
M  V30 16189 H 1538.7 1.2851 -2.70971 0
M  V30 16190 H 1536.26 0.635677 -1.42789 0
M  V30 16191 H 1536.99 3.11495 -0.902309 0
M  V30 16192 H 1536.78 2.87974 -2.66108 0
M  V30 16193 H 1538.27 3.64671 -2.03481 0
M  V30 16194 N 1538.7 1.43003 0.662408 0
M  V30 16195 C 1539.63 1.50248 1.78739 0
M  V30 16196 C 1540.61 0.357934 1.66291 0
M  V30 16197 O 1541.8 0.573919 1.85526 0
M  V30 16198 C 1538.93 1.41618 3.17114 0
M  V30 16199 C 1537.88 2.54228 3.44314 0
M  V30 16200 C 1537.21 2.30653 4.82393 0
M  V30 16201 C 1538.51 3.96505 3.39972 0
M  V30 16202 H 1540.2 2.44406 1.72934 0
M  V30 16203 H 1537.75 1.17633 0.830569 0
M  V30 16204 H 1539.7 1.45293 3.9556 0
M  V30 16205 H 1538.43 0.439605 3.23628 0
M  V30 16206 H 1537.08 2.49891 2.68235 0
M  V30 16207 H 1536.73 1.3126 4.85572 0
M  V30 16208 H 1536.43 3.06134 5.01554 0
M  V30 16209 H 1537.96 2.36096 5.63108 0
M  V30 16210 H 1539.37 4.02378 4.08368 0
M  V30 16211 H 1537.77 4.71937 3.70668 0
M  V30 16212 H 1538.84 4.22295 2.38318 0
M  V30 16213 N 1540.18 -0.899904 1.29381 0
M  V30 16214 C 1541.11 -2.00584 1.08817 0
M  V30 16215 C 1542.09 -1.626 0.000108013 0
M  V30 16216 O 1543.28 -1.87896 0.150764 0
M  V30 16217 C 1540.4 -3.32276 0.656508 0
M  V30 16218 C 1539.45 -3.89247 1.74325 0
M  V30 16219 S 1540.28 -4.18381 3.34242 0
M  V30 16220 C 1541.44 -5.53114 2.92943 0
M  V30 16221 H 1541.67 -2.1772 2.02448 0
M  V30 16222 H 1539.2 -1.04648 1.13526 0
M  V30 16223 H 1541.16 -4.08405 0.414172 0
M  V30 16224 H 1539.82 -3.1302 -0.260196 0
M  V30 16225 H 1539.02 -4.84363 1.39315 0
M  V30 16226 H 1538.62 -3.19805 1.9391 0
M  V30 16227 H 1540.91 -6.33576 2.39976 0
M  V30 16228 H 1541.85 -5.93048 3.8691 0
M  V30 16229 H 1542.26 -5.14962 2.31245 0
M  V30 16230 N 1541.66 -1.11854 -1.11024 0
M  V30 16231 C 1542.94 -0.781693 -1.79301 0
M  V30 16232 C 1543.32 0.72956 -1.98092 0
M  V30 16233 O 1542.66 1.66109 -1.56908 0
M  V30 16234 C 1542.87 -1.54976 -3.12703 0
M  V30 16235 C 1544.22 -1.73183 -3.87676 0
M  V30 16236 O 1545.25 -1.51437 -3.22406 0
M  V30 16237 O 1544.1 -2.0935 -5.04812 0
M  V30 16238 H 1541.2 -0.283672 -0.776826 0
M  V30 16239 H 1543.74 -1.22222 -1.17728 0
M  V30 16240 H 1542.52 -2.57759 -2.94408 0
M  V30 16241 H 1542.14 -1.10308 -3.81992 0
M  V30 16242 N 1543.14 1.28707 -0.909517 0
M  V30 16243 C 1544.55 1.77212 -0.587613 0
M  V30 16244 C 1544.9 1.74495 0.896986 0
M  V30 16245 O 1544.02 1.33698 1.70158 0
M  V30 16246 C 1544.62 3.21794 -1.05989 0
M  V30 16247 C 1543.18 3.68038 -0.788983 0
M  V30 16248 C 1542.32 2.48576 -1.22903 0
M  V30 16249 H 1545.28 1.1523 -1.09122 0
M  V30 16250 H 1545.3 3.78397 -0.399469 0
M  V30 16251 H 1544.81 3.23739 -2.14043 0
M  V30 16252 H 1542.91 3.71558 0.278523 0
M  V30 16253 H 1543.02 4.58379 -1.39376 0
M  V30 16254 H 1541.39 2.46323 -0.647838 0
M  V30 16255 H 1542.17 2.53243 -2.31782 0
M  V30 16256 N 1544.61 0.673042 1.42506 0
M  V30 16257 C 1545.84 0.202922 2.05902 0
M  V30 16258 C 1546.26 -1.13923 1.50556 0
M  V30 16259 O 1545.61 -1.70735 0.644662 0
M  V30 16260 C 1545.67 0.12735 3.61276 0
M  V30 16261 O 1545.39 1.41646 4.1457 0
M  V30 16262 C 1546.89 -0.366477 4.41783 0
M  V30 16263 H 1544.11 0.0991021 0.663641 0
M  V30 16264 H 1546.65 0.919282 1.82673 0
M  V30 16265 H 1544.81 -0.539687 3.83622 0
M  V30 16266 H 1545.22 1.28866 5.08423 0
M  V30 16267 H 1546.69 -0.368267 5.5077 0
M  V30 16268 H 1547.17 -1.40142 4.16241 0
M  V30 16269 H 1547.78 0.268761 4.2445 0
M  V30 16270 N 1546.09 -1.52004 0.416254 0
M  V30 16271 C 1547.32 -2.0679 -0.158937 0
M  V30 16272 C 1547.74 -1.28366 -1.37491 0
M  V30 16273 O 1547.1 -0.315815 -1.78528 0
M  V30 16274 C 1547.15 -3.57381 -0.480717 0
M  V30 16275 O 1546.25 -3.81321 -1.5706 0
M  V30 16276 H 1545.59 -0.663907 -0.0110938 0
M  V30 16277 H 1548.12 -1.95863 0.591509 0
M  V30 16278 H 1548.13 -4.01283 -0.737297 0
M  V30 16279 H 1546.81 -4.13893 0.408137 0
M  V30 16280 H 1545.39 -3.49296 -1.30563 0
M  V30 16281 N 1547.57 -0.146903 -1.56914 0
M  V30 16282 C 1548.5 0.788924 -2.19769 0
M  V30 16283 C 1549.48 1.25712 -1.14589 0
M  V30 16284 O 1550.67 1.3147 -1.42931 0
M  V30 16285 C 1547.8 2.02824 -2.81921 0
M  V30 16286 C 1546.75 1.69683 -3.92927 0
M  V30 16287 C 1546.08 3.00877 -4.42015 0
M  V30 16288 C 1547.38 0.943559 -5.13706 0
M  V30 16289 H 1549.07 0.265076 -2.98224 0
M  V30 16290 H 1546.62 0.126057 -1.43447 0
M  V30 16291 H 1548.57 2.68773 -3.2456 0
M  V30 16292 H 1547.29 2.57581 -2.00797 0
M  V30 16293 H 1545.95 1.06112 -3.50907 0
M  V30 16294 H 1545.6 3.53625 -3.57713 0
M  V30 16295 H 1545.3 2.79466 -5.16888 0
M  V30 16296 H 1546.82 3.67897 -4.87323 0
M  V30 16297 H 1548.24 1.50513 -5.5319 0
M  V30 16298 H 1546.64 0.829387 -5.94341 0
M  V30 16299 H 1547.71 -0.0647228 -4.84857 0
M  V30 16300 N 1549.05 1.57088 0.126881 0
M  V30 16301 C 1550 2.00736 1.17506 0
M  V30 16302 C 1550.99 0.902986 1.43327 0
M  V30 16303 O 1552.2 1.08819 1.43382 0
M  V30 16304 H 1548.57 0.639285 0.396003 0
M  V30 16305 H 1550.54 2.88015 0.780373 0
M  V30 16306 C 1549.29 2.42096 2.49569 0
M  V30 16307 H 1548.61 3.26639 2.30536 0
M  V30 16308 H 1550.05 2.76442 3.2149 0
M  V30 16309 C 1548.51 1.28148 3.11576 0
M  V30 16310 O 1549.04 0.593145 3.97297 0
M  V30 16311 N 1547.25 1.04055 2.71332 0
M  V30 16312 H 1546.8 1.60208 2.0172 0
M  V30 16313 H 1546.75 0.280075 3.1315 0
M  V30 16314 N 1550.53 -0.396836 1.52522 0
M  V30 16315 C 1551.46 -1.50361 1.72986 0
M  V30 16316 C 1552.47 -1.50928 0.610289 0
M  V30 16317 O 1553.66 -1.54972 0.88578 0
M  V30 16318 C 1550.76 -2.89229 1.76635 0
M  V30 16319 C 1549.93 -3.12715 3.05824 0
M  V30 16320 C 1548.99 -4.31523 3.01122 0
M  V30 16321 O 1548.02 -4.28207 3.75004 0
M  V30 16322 N 1549.22 -5.37294 2.19763 0
M  V30 16323 H 1551.99 -1.33196 2.68475 0
M  V30 16324 H 1549.55 -0.586269 1.50912 0
M  V30 16325 H 1551.54 -3.66796 1.71006 0
M  V30 16326 H 1550.11 -2.99791 0.885667 0
M  V30 16327 H 1549.33 -2.23083 3.25004 0
M  V30 16328 H 1550.62 -3.25257 3.91261 0
M  V30 16329 H 1550.01 -5.4284 1.5919 0
M  V30 16330 H 1548.57 -6.13557 2.19981 0
M  V30 16331 N 1552.01 -1.43353 -0.654814 0
M  V30 16332 C 1553.25 -1.44885 -1.41473 0
M  V30 16333 C 1553.58 -0.0725577 -1.94365 0
M  V30 16334 O 1552.84 0.9222 -1.72609 0
M  V30 16335 C 1553.13 -2.437 -2.61429 0
M  V30 16336 C 1552.8 -3.89612 -2.26965 0
M  V30 16337 C 1551.46 -4.29353 -2.17278 0
M  V30 16338 C 1553.81 -4.81569 -1.99351 0
M  V30 16339 C 1551.14 -5.59005 -1.7813 0
M  V30 16340 C 1553.49 -6.11584 -1.61702 0
M  V30 16341 C 1552.16 -6.50303 -1.50539 0
M  V30 16342 H 1551.43 -0.530172 -0.517686 0
M  V30 16343 H 1554.08 -1.76422 -0.744824 0
M  V30 16344 H 1552.38 -2.05561 -3.33544 0
M  V30 16345 H 1554.08 -2.42141 -3.19638 0
M  V30 16346 H 1550.67 -3.58159 -2.35414 0
M  V30 16347 H 1554.85 -4.51639 -2.05757 0
M  V30 16348 H 1550.11 -5.87845 -1.68072 0
M  V30 16349 H 1554.28 -6.82312 -1.39365 0
M  V30 16350 H 1551.91 -7.50673 -1.19975 0
M  V30 16351 N 1553.48 0.89303 -1.29857 0
M  V30 16352 C 1554.73 1.64657 -1.18389 0
M  V30 16353 C 1555.06 1.92417 0.262587 0
M  V30 16354 O 1554.34 1.53936 1.18887 0
M  V30 16355 C 1554.62 2.99148 -2.00456 0
M  V30 16356 C 1554.47 2.78411 -3.53281 0
M  V30 16357 C 1555.79 3.99968 -1.83613 0
M  V30 16358 H 1552.91 0.59752 -0.431438 0
M  V30 16359 H 1555.55 1.03397 -1.59402 0
M  V30 16360 H 1553.7 3.51435 -1.65607 0
M  V30 16361 H 1555.38 2.32974 -3.98147 0
M  V30 16362 H 1553.62 2.13067 -3.77869 0
M  V30 16363 H 1554.29 3.74008 -4.05983 0
M  V30 16364 H 1556.77 3.56813 -2.14064 0
M  V30 16365 H 1555.64 4.91997 -2.43373 0
M  V30 16366 H 1555.9 4.34928 -0.793098 0
M  V30 16367 N 1554.96 1.12442 1.10429 0
M  V30 16368 C 1555.91 0.787578 2.18861 0
M  V30 16369 C 1556.9 -0.225602 1.67891 0
M  V30 16370 O 1558.11 -0.0838029 1.79805 0
M  V30 16371 H 1554.48 0.236858 0.713724 0
M  V30 16372 H 1556.46 1.71048 2.4451 0
M  V30 16373 C 1555.2 0.25854 3.46737 0
M  V30 16374 H 1554.53 1.02945 3.86319 0
M  V30 16375 H 1555.97 0.0611642 4.23956 0
M  V30 16376 C 1554.43 -1.01353 3.21293 0
M  V30 16377 O 1554.96 -2.09132 3.42967 0
M  V30 16378 N 1553.16 -0.940498 2.7496 0
M  V30 16379 H 1552.71 -0.0632962 2.57522 0
M  V30 16380 H 1552.67 -1.79226 2.58313 0
M  V30 16381 N 1556.44 -1.28223 0.91633 0
M  V30 16382 C 1557.67 -1.98986 0.566772 0
M  V30 16383 C 1558.08 -1.68455 -0.852553 0
M  V30 16384 O 1557.44 -0.938734 -1.56506 0
M  V30 16385 C 1557.49 -3.53217 0.769423 0
M  V30 16386 O 1557.21 -3.82674 2.1329 0
M  V30 16387 C 1558.71 -4.41238 0.427043 0
M  V30 16388 H 1555.93 -0.63534 0.215834 0
M  V30 16389 H 1558.48 -1.63357 1.23024 0
M  V30 16390 H 1556.63 -3.87098 0.152915 0
M  V30 16391 H 1557.05 -4.77302 2.17448 0
M  V30 16392 H 1558.52 -5.48512 0.619594 0
M  V30 16393 H 1559 -4.34558 -0.63686 0
M  V30 16394 H 1559.6 -4.12858 1.0212 0
M  V30 16395 N 1557.92 -0.68059 -1.42147 0
M  V30 16396 C 1559.16 -0.205567 -2.01755 0
M  V30 16397 C 1559.5 1.18677 -1.53718 0
M  V30 16398 O 1558.77 1.79796 -0.741867 0
M  V30 16399 C 1559.05 -0.246615 -3.59255 0
M  V30 16400 C 1558.91 -1.67483 -4.17456 0
M  V30 16401 C 1560.23 0.40196 -4.38261 0
M  V30 16402 H 1557.35 -0.0761717 -0.733053 0
M  V30 16403 H 1559.99 -0.866473 -1.69092 0
M  V30 16404 H 1558.14 0.316127 -3.87212 0
M  V30 16405 H 1559.81 -2.29026 -4.00431 0
M  V30 16406 H 1558.05 -2.2137 -3.73065 0
M  V30 16407 H 1558.72 -1.65519 -5.266 0
M  V30 16408 H 1561.2 -0.077135 -4.16028 0
M  V30 16409 H 1560.08 0.342627 -5.4783 0
M  V30 16410 H 1560.34 1.48044 -4.16576 0
M  V30 16411 N 1559.4 1.51781 -0.424309 0
M  V30 16412 C 1560.62 2.06871 0.147968 0
M  V30 16413 C 1561.05 1.29093 1.36808 0
M  V30 16414 O 1560.4 0.325279 1.78358 0
M  V30 16415 C 1560.45 3.57631 0.461757 0
M  V30 16416 O 1559.56 3.82149 1.55035 0
M  V30 16417 H 1558.9 0.663957 0.00757275 0
M  V30 16418 H 1561.43 1.95547 -0.601888 0
M  V30 16419 H 1561.44 4.01668 0.716005 0
M  V30 16420 H 1560.11 4.1367 -0.430081 0
M  V30 16421 H 1558.69 3.49984 1.28709 0
M  V30 16422 N 1560.87 0.155222 1.56834 0
M  V30 16423 C 1561.84 -0.767266 2.15976 0
M  V30 16424 C 1562.84 -1.16946 1.10364 0
M  V30 16425 O 1564.03 -1.08905 1.35961 0
M  V30 16426 C 1561.16 -2.04226 2.72956 0
M  V30 16427 H 1562.35 -0.252662 2.98834 0
M  V30 16428 H 1559.9 -0.0942677 1.56015 0
M  V30 16429 H 1560.64 -2.60033 1.93787 0
M  V30 16430 H 1560.42 -1.76299 3.5023 0
M  V30 16431 H 1561.91 -2.70093 3.18495 0
M  V30 16432 N 1562.35 -1.57153 -0.118549 0
M  V30 16433 C 1563.58 -1.89434 -0.844355 0
M  V30 16434 C 1564 -0.747203 -1.72622 0
M  V30 16435 O 1563.36 0.302252 -1.78763 0
M  V30 16436 C 1563.41 -3.20466 -1.65331 0
M  V30 16437 O 1562.51 -3.06403 -2.76027 0
M  V30 16438 H 1561.85 -0.621601 -0.23347 0
M  V30 16439 H 1564.38 -2.04351 -0.100811 0
M  V30 16440 H 1564.39 -3.53197 -2.04245 0
M  V30 16441 H 1563.07 -4.03551 -1.00594 0
M  V30 16442 H 1561.64 -2.85139 -2.40312 0
M  V30 16443 N 1563.83 0.388742 -1.5273 0
M  V30 16444 C 1565.24 0.966667 -1.59726 0
M  V30 16445 C 1565.59 1.90963 -0.450272 0
M  V30 16446 O 1564.72 2.12153 0.426611 0
M  V30 16447 C 1565.31 1.75998 -2.895 0
M  V30 16448 C 1563.87 2.28761 -2.98907 0
M  V30 16449 C 1563.02 1.09322 -2.54841 0
M  V30 16450 H 1565.97 0.16828 -1.57805 0
M  V30 16451 H 1565.99 2.61924 -2.76 0
M  V30 16452 H 1565.5 1.07342 -3.7296 0
M  V30 16453 H 1563.6 3.00728 -2.19985 0
M  V30 16454 H 1563.72 2.58229 -4.03552 0
M  V30 16455 H 1562.08 1.45332 -2.09167 0
M  V30 16456 H 1562.86 0.421999 -3.40696 0
M  V30 16457 N 1565.31 1.43698 0.647203 0
M  V30 16458 C 1566.72 1.27231 0.963563 0
M  V30 16459 C 1566.92 0.196385 2.00541 0
M  V30 16460 O 1565.98 -0.423162 2.48929 0
M  V30 16461 C 1567.29 2.63863 1.44211 0
M  V30 16462 C 1568.84 2.71444 1.55844 0
M  V30 16463 C 1569.32 4.08508 2.07087 0
M  V30 16464 N 1570.81 4.10603 2.14381 0
M  V30 16465 C 1571.54 5.13496 2.55166 0
M  V30 16466 N 1571.04 6.26759 2.95203 0
M  V30 16467 N 1572.83 5.0085 2.55158 0
M  V30 16468 H 1564.98 2.12358 -0.0420956 0
M  V30 16469 H 1567.24 0.946989 0.0437628 0
M  V30 16470 H 1566.95 3.43589 0.75096 0
M  V30 16471 H 1566.82 2.89666 2.41605 0
M  V30 16472 H 1569.21 1.92046 2.24058 0
M  V30 16473 H 1569.29 2.49399 0.56866 0
M  V30 16474 H 1568.94 4.88375 1.39472 0
M  V30 16475 H 1568.87 4.2792 3.06907 0
M  V30 16476 H 1571.36 3.2885 1.86188 0
M  V30 16477 H 1571.67 7.01096 3.25091 0
M  V30 16478 H 1570.02 6.30222 2.92993 0
M  V30 16479 H 1573.21 4.11428 2.2326 0
M  V30 16480 H 1573.38 5.81165 2.86621 0
M  V30 16481 N 1566.79 -0.886131 1.30328 0
M  V30 16482 C 1568.01 -1.67099 1.22007 0
M  V30 16483 C 1568.43 -1.87546 -0.217255 0
M  V30 16484 O 1567.79 -1.42213 -1.14375 0
M  V30 16485 C 1567.84 -3.048 1.94368 0
M  V30 16486 O 1567.56 -2.85277 3.32489 0
M  V30 16487 C 1569.06 -3.99231 1.9269 0
M  V30 16488 H 1566.28 -0.521467 0.422271 0
M  V30 16489 H 1568.82 -1.1072 1.71934 0
M  V30 16490 H 1566.98 -3.57915 1.48242 0
M  V30 16491 H 1567.39 -3.72626 3.69121 0
M  V30 16492 H 1568.87 -4.93223 2.47861 0
M  V30 16493 H 1569.34 -4.29763 0.905558 0
M  V30 16494 H 1569.95 -3.52051 2.38621 0
M  V30 16495 N 1568.26 -1.13026 -1.09832 0
M  V30 16496 C 1569.51 -0.884093 -1.81292 0
M  V30 16497 C 1569.83 0.591608 -1.86439 0
M  V30 16498 O 1571.03 0.954571 -2.54166 0
M  V30 16499 C 1569.49 -1.53207 -3.25662 0
M  V30 16500 C 1569.1 -3.043 -3.28794 0
M  V30 16501 C 1570.84 -1.36644 -4.01906 0
M  V30 16502 C 1568.75 -3.62003 -4.67662 0
M  V30 16503 H 1567.68 -0.327101 -0.679353 0
M  V30 16504 H 1570.33 -1.35748 -1.2347 0
M  V30 16505 H 1568.71 -0.986353 -3.83519 0
M  V30 16506 H 1569.88 -3.65418 -2.80725 0
M  V30 16507 H 1568.2 -3.20332 -2.66038 0
M  V30 16508 H 1570.8 -1.7717 -5.04495 0
M  V30 16509 H 1571.14 -0.310809 -4.15138 0
M  V30 16510 H 1571.67 -1.88172 -3.5048 0
M  V30 16511 H 1568.41 -4.67354 -4.59631 0
M  V30 16512 H 1567.93 -3.05663 -5.16072 0
M  V30 16513 H 1569.61 -3.61432 -5.36634 0
M  V30 16514 N 1569.74 1.27735 -0.923117 0
M  V30 16515 C 1570.99 1.94858 -0.56198 0
M  V30 16516 C 1571.32 1.72414 0.893698 0
M  V30 16517 O 1570.6 1.05054 1.63689 0
M  V30 16518 C 1570.88 3.49102 -0.883173 0
M  V30 16519 C 1570.73 3.80908 -2.39227 0
M  V30 16520 C 1572.05 4.38405 -0.385848 0
M  V30 16521 H 1569.17 0.707728 -0.205646 0
M  V30 16522 H 1571.81 1.50935 -1.15406 0
M  V30 16523 H 1569.96 3.86644 -0.379292 0
M  V30 16524 H 1571.63 3.53182 -2.96749 0
M  V30 16525 H 1569.88 3.2762 -2.84337 0
M  V30 16526 H 1570.55 4.88653 -2.56754 0
M  V30 16527 H 1573.02 4.07988 -0.817631 0
M  V30 16528 H 1571.9 5.45161 -0.63958 0
M  V30 16529 H 1572.16 4.36296 0.714009 0
M  V30 16530 N 1571.22 0.688118 1.41784 0
M  V30 16531 C 1572.45 0.223231 2.06195 0
M  V30 16532 C 1572.87 -1.11601 1.51416 0
M  V30 16533 O 1572.23 -1.69701 0.638059 0
M  V30 16534 C 1572.28 0.183257 3.60134 0
M  V30 16535 O 1571.38 -0.844186 4.03667 0
M  V30 16536 H 1570.72 0.110925 0.654669 0
M  V30 16537 H 1573.25 0.940882 1.81683 0
M  V30 16538 H 1573.26 0.0115951 4.07998 0
M  V30 16539 H 1571.94 1.16072 3.99375 0
M  V30 16540 H 1570.51 -0.642484 3.67323 0
M  V30 16541 N 1572.7 -1.51554 0.432352 0
M  V30 16542 C 1573.95 -2.02044 -0.135779 0
M  V30 16543 C 1574.27 -1.31679 -1.43147 0
M  V30 16544 O 1573.53 -0.418849 -1.91165 0
M  V30 16545 C 1573.83 -3.55076 -0.406915 0
M  V30 16546 C 1573.49 -4.43704 0.802356 0
M  V30 16547 C 1572.16 -4.67647 1.134 0
M  V30 16548 C 1574.51 -4.95733 1.6093 0
M  V30 16549 C 1571.84 -5.40865 2.27335 0
M  V30 16550 C 1574.19 -5.702 2.73961 0
M  V30 16551 C 1572.85 -5.92408 3.07585 0
M  V30 16552 H 1572.12 -0.739332 -0.0496851 0
M  V30 16553 H 1574.77 -1.82552 0.578528 0
M  V30 16554 H 1573.07 -3.72872 -1.20306 0
M  V30 16555 H 1574.77 -3.91673 -0.859839 0
M  V30 16556 H 1571.36 -4.25261 0.533923 0
M  V30 16557 H 1575.54 -4.77123 1.3663 0
M  V30 16558 H 1570.8 -5.56276 2.53706 0
M  V30 16559 H 1574.97 -6.09506 3.36861 0
M  V30 16560 H 1572.6 -6.48923 3.95984 0
M  V30 16561 N 1574.18 -0.163538 -1.56749 0
M  V30 16562 C 1575.11 0.765571 -2.20593 0
M  V30 16563 C 1576.09 1.24489 -1.15916 0
M  V30 16564 O 1577.27 1.29946 -1.44318 0
M  V30 16565 C 1574.4 1.99823 -2.84057 0
M  V30 16566 C 1573.36 1.65506 -3.94705 0
M  V30 16567 C 1572.68 2.96172 -4.45181 0
M  V30 16568 C 1573.98 0.88902 -5.14678 0
M  V30 16569 H 1575.68 0.233431 -2.98489 0
M  V30 16570 H 1573.22 0.110836 -1.43573 0
M  V30 16571 H 1575.18 2.65316 -3.27392 0
M  V30 16572 H 1573.9 2.55437 -2.03517 0
M  V30 16573 H 1572.56 1.02384 -3.52013 0
M  V30 16574 H 1572.21 3.49811 -3.61443 0
M  V30 16575 H 1571.91 2.73968 -5.19823 0
M  V30 16576 H 1573.43 3.62708 -4.91198 0
M  V30 16577 H 1574.84 1.44637 -5.54755 0
M  V30 16578 H 1573.24 0.766302 -5.95187 0
M  V30 16579 H 1574.31 -0.116145 -4.84761 0
M  V30 16580 N 1575.65 1.57214 0.110213 0
M  V30 16581 C 1576.88 1.8988 0.834297 0
M  V30 16582 C 1577.3 0.756347 1.72224 0
M  V30 16583 O 1576.66 -0.292768 1.78921 0
M  V30 16584 C 1576.71 3.21338 1.63629 0
M  V30 16585 O 1575.81 3.07862 2.74399 0
M  V30 16586 H 1575.16 0.62283 0.23017 0
M  V30 16587 H 1577.69 2.04402 0.0899726 0
M  V30 16588 H 1577.7 3.54275 2.02369 0
M  V30 16589 H 1576.37 4.04079 0.984521 0
M  V30 16590 H 1574.95 2.8641 2.38797 0
M  V30 16591 N 1577.13 -0.380637 1.52934 0
M  V30 16592 C 1578.38 -1.1265 1.68635 0
M  V30 16593 C 1578.71 -1.89397 0.429227 0
M  V30 16594 O 1577.99 -1.85863 -0.573182 0
M  V30 16595 C 1578.27 -2.09797 2.92673 0
M  V30 16596 C 1578.12 -1.36758 4.28506 0
M  V30 16597 C 1579.44 -3.10117 3.12274 0
M  V30 16598 H 1576.56 -0.408158 0.613658 0
M  V30 16599 H 1579.2 -0.408947 1.85547 0
M  V30 16600 H 1577.35 -2.70987 2.78385 0
M  V30 16601 H 1579.02 -0.784679 4.54577 0
M  V30 16602 H 1577.27 -0.669413 4.28604 0
M  V30 16603 H 1577.94 -2.07786 5.11399 0
M  V30 16604 H 1580.41 -2.59022 3.25648 0
M  V30 16605 H 1579.29 -3.75328 4.00525 0
M  V30 16606 H 1579.55 -3.79451 2.26868 0
M  V30 16607 N 1578.61 -1.44039 -0.639573 0
M  V30 16608 C 1579.57 -1.49907 -1.7338 0
M  V30 16609 C 1580.57 -0.382101 -1.56194 0
M  V30 16610 O 1581.76 -0.644396 -1.61843 0
M  V30 16611 C 1578.9 -1.36486 -3.12385 0
M  V30 16612 H 1580.09 -2.4737 -1.69553 0
M  V30 16613 H 1577.64 -1.31006 -0.852474 0
M  V30 16614 H 1578.38 -0.400845 -3.21813 0
M  V30 16615 H 1578.16 -2.17471 -3.26265 0
M  V30 16616 H 1579.65 -1.43555 -3.9215 0
M  V30 16617 N 1580.09 0.879207 -1.30796 0
M  V30 16618 C 1581.02 2.00158 -1.20246 0
M  V30 16619 C 1582 1.69852 -0.091769 0
M  V30 16620 O 1583.18 1.92246 -0.274792 0
M  V30 16621 C 1580.31 3.3545 -0.899472 0
M  V30 16622 C 1579.27 3.80033 -1.96873 0
M  V30 16623 C 1578.59 5.12681 -1.51861 0
M  V30 16624 C 1579.89 3.98136 -3.38061 0
M  V30 16625 H 1581.59 2.09242 -2.14145 0
M  V30 16626 H 1579.13 1.00535 -1.03096 0
M  V30 16627 H 1581.09 4.13497 -0.812299 0
M  V30 16628 H 1579.81 3.26513 0.075189 0
M  V30 16629 H 1578.47 3.04219 -2.04564 0
M  V30 16630 H 1578.12 5.00178 -0.532063 0
M  V30 16631 H 1577.82 5.43482 -2.23386 0
M  V30 16632 H 1579.34 5.93247 -1.44534 0
M  V30 16633 H 1580.76 4.66604 -3.33096 0
M  V30 16634 H 1579.15 4.40321 -4.07722 0
M  V30 16635 H 1580.22 3.01807 -3.79526 0
M  V30 16636 N 1581.57 1.13606 1.09231 0
M  V30 16637 C 1582.5 0.837908 2.17948 0
M  V30 16638 C 1583.48 -0.203575 1.68877 0
M  V30 16639 O 1584.66 -0.0620702 1.94101 0
M  V30 16640 C 1581.79 0.305342 3.45955 0
M  V30 16641 C 1580.75 1.2813 4.08371 0
M  V30 16642 C 1580.07 0.608412 5.31227 0
M  V30 16643 C 1581.37 2.64055 4.50636 0
M  V30 16644 H 1583.07 1.747 2.43147 0
M  V30 16645 H 1580.61 0.84141 1.1686 0
M  V30 16646 H 1582.57 0.0844116 4.21315 0
M  V30 16647 H 1581.29 -0.639144 3.20285 0
M  V30 16648 H 1579.95 1.48826 3.35032 0
M  V30 16649 H 1579.6 -0.341613 5.01839 0
M  V30 16650 H 1579.3 1.25956 5.73942 0
M  V30 16651 H 1580.82 0.396809 6.09309 0
M  V30 16652 H 1582.24 2.47316 5.17212 0
M  V30 16653 H 1580.63 3.25364 5.0424 0
M  V30 16654 H 1581.7 3.21566 3.62937 0
M  V30 16655 N 1583.05 -1.27244 0.929878 0
M  V30 16656 C 1584.27 -1.98912 0.587277 0
M  V30 16657 C 1584.7 -1.68888 -0.828168 0
M  V30 16658 O 1584.05 -0.930394 -1.55606 0
M  V30 16659 C 1584.1 -3.51097 0.822399 0
M  V30 16660 O 1583.21 -4.12251 -0.110968 0
M  V30 16661 H 1582.55 -0.624404 0.225867 0
M  V30 16662 H 1585.08 -1.61997 1.24973 0
M  V30 16663 H 1585.09 -4.01255 0.738824 0
M  V30 16664 H 1583.76 -3.72282 1.85416 0
M  V30 16665 H 1582.34 -3.72893 0.0227053 0
M  V30 16666 N 1584.52 -0.695628 -1.41417 0
M  V30 16667 C 1585.8 -0.154646 -1.94988 0
M  V30 16668 C 1586.18 1.33534 -1.63499 0
M  V30 16669 O 1585.53 2.08178 -0.942031 0
M  V30 16670 C 1585.74 -0.446004 -3.46138 0
M  V30 16671 C 1587.09 -0.37378 -4.22952 0
M  V30 16672 O 1588.11 -0.380921 -3.54157 0
M  V30 16673 O 1586.97 -0.33395 -5.45479 0
M  V30 16674 H 1584.06 -0.0150053 -0.826864 0
M  V30 16675 H 1586.61 -0.771792 -1.51134 0
M  V30 16676 H 1585.38 -1.47734 -3.6234 0
M  V30 16677 H 1585 0.202111 -3.97086 0
M  V30 16678 N 1586 1.51322 -0.440383 0
M  V30 16679 C 1586.93 2.25587 0.40537 0
M  V30 16680 C 1587.95 1.29721 0.983686 0
M  V30 16681 O 1589.14 1.55453 0.877308 0
M  V30 16682 C 1586.24 2.99848 1.57938 0
M  V30 16683 C 1585.41 4.22834 1.11939 0
M  V30 16684 C 1584.47 4.79649 2.16387 0
M  V30 16685 O 1583.49 5.41405 1.75697 0
M  V30 16686 N 1584.7 4.63948 3.48902 0
M  V30 16687 H 1587.46 2.98807 -0.231143 0
M  V30 16688 H 1585.02 1.59642 -0.26944 0
M  V30 16689 H 1587.01 3.34743 2.2744 0
M  V30 16690 H 1585.58 2.29619 2.12117 0
M  V30 16691 H 1584.8 3.93398 0.251323 0
M  V30 16692 H 1586.09 5.02637 0.7895 0
M  V30 16693 H 1585.49 4.14764 3.84691 0
M  V30 16694 H 1584.05 5.03196 4.14291 0
M  V30 16695 N 1587.48 0.171848 1.5666 0
M  V30 16696 C 1588.89 -0.34479 1.83489 0
M  V30 16697 C 1589.24 -1.63025 1.09167 0
M  V30 16698 O 1588.37 -2.13634 0.34488 0
M  V30 16699 C 1588.96 -0.63234 3.32847 0
M  V30 16700 C 1587.52 -1.09342 3.60169 0
M  V30 16701 C 1586.67 -0.129569 2.76997 0
M  V30 16702 H 1589.62 0.396101 1.53677 0
M  V30 16703 H 1589.64 -1.48434 3.50354 0
M  V30 16704 H 1589.15 0.303409 3.86912 0
M  V30 16705 H 1587.25 -2.04425 3.11514 0
M  V30 16706 H 1587.37 -1.00221 4.685 0
M  V30 16707 H 1585.73 -0.627033 2.46861 0
M  V30 16708 H 1586.51 0.800211 3.33844 0
M  V30 16709 N 1588.96 -1.5727 -0.101874 0
M  V30 16710 C 1589.89 -2.04614 -1.12496 0
M  V30 16711 C 1590.87 -0.933768 -1.42179 0
M  V30 16712 O 1592.05 -1.2046 -1.52325 0
M  V30 16713 C 1589.18 -2.46488 -2.44665 0
M  V30 16714 C 1588.14 -3.61327 -2.29406 0
M  V30 16715 C 1587.46 -3.89155 -3.66691 0
M  V30 16716 C 1588.76 -4.92455 -1.74026 0
M  V30 16717 H 1590.46 -2.90336 -0.731109 0
M  V30 16718 H 1588 -1.39676 -0.350239 0
M  V30 16719 H 1589.96 -2.78216 -3.16502 0
M  V30 16720 H 1588.68 -1.57757 -2.85972 0
M  V30 16721 H 1587.34 -3.29835 -1.60015 0
M  V30 16722 H 1586.99 -2.97603 -4.05514 0
M  V30 16723 H 1586.69 -4.66465 -3.57329 0
M  V30 16724 H 1588.21 -4.23352 -4.40006 0
M  V30 16725 H 1589.63 -5.22609 -2.35697 0
M  V30 16726 H 1588.02 -5.73882 -1.75441 0
M  V30 16727 H 1589.09 -4.79833 -0.699136 0
M  V30 16728 N 1590.44 0.372521 -1.53134 0
M  V30 16729 C 1591.37 1.4621 -1.82057 0
M  V30 16730 C 1592.35 1.56194 -0.673612 0
M  V30 16731 O 1593.53 1.70875 -0.922797 0
M  V30 16732 C 1590.66 2.83632 -2.00425 0
M  V30 16733 C 1589.62 2.88478 -3.16171 0
M  V30 16734 C 1588.94 4.28508 -3.19821 0
M  V30 16735 C 1590.24 2.56628 -4.54906 0
M  V30 16736 H 1591.94 1.22256 -2.73302 0
M  V30 16737 H 1589.48 0.586688 -1.31507 0
M  V30 16738 H 1591.43 3.59876 -2.19242 0
M  V30 16739 H 1590.16 3.0896 -1.05884 0
M  V30 16740 H 1588.82 2.14684 -2.97164 0
M  V30 16741 H 1588.47 4.509 -2.2293 0
M  V30 16742 H 1588.17 4.32667 -3.97584 0
M  V30 16743 H 1589.69 5.06635 -3.40813 0
M  V30 16744 H 1591.1 3.22587 -4.73931 0
M  V30 16745 H 1589.5 2.72114 -5.34859 0
M  V30 16746 H 1590.57 1.51902 -4.60493 0
M  V30 16747 N 1591.91 1.44376 0.631925 0
M  V30 16748 C 1593.14 1.50598 1.41873 0
M  V30 16749 C 1593.56 0.130589 1.88348 0
M  V30 16750 O 1592.91 -0.86336 1.60787 0
M  V30 16751 C 1592.96 2.47 2.63957 0
M  V30 16752 O 1592.69 3.79192 2.1942 0
M  V30 16753 C 1594.19 2.62678 3.57092 0
M  V30 16754 H 1591.41 0.510792 0.435124 0
M  V30 16755 H 1593.95 1.89332 0.772893 0
M  V30 16756 H 1592.11 2.11404 3.24634 0
M  V30 16757 H 1592.52 4.31231 2.98563 0
M  V30 16758 H 1593.99 3.34161 4.39364 0
M  V30 16759 H 1594.47 1.67881 4.05848 0
M  V30 16760 H 1595.08 2.99172 3.02285 0
M  V30 16761 N 1593.39 -0.872258 1.31261 0
M  V30 16762 C 1594.62 -1.6632 1.23905 0
M  V30 16763 C 1595.04 -1.87109 -0.192878 0
M  V30 16764 O 1594.4 -1.4112 -1.1382 0
M  V30 16765 C 1594.45 -3.00979 1.98606 0
M  V30 16766 O 1593.55 -3.90642 1.32183 0
M  V30 16767 H 1592.89 -0.507736 0.427902 0
M  V30 16768 H 1595.42 -1.0877 1.73292 0
M  V30 16769 H 1595.43 -3.50931 2.08113 0
M  V30 16770 H 1594.11 -2.85168 3.02741 0
M  V30 16771 H 1592.68 -3.4909 1.31112 0
M  V30 16772 N 1594.87 -1.14184 -1.08627 0
M  V30 16773 C 1596.15 -0.81955 -1.77603 0
M  V30 16774 C 1596.53 0.687377 -1.99595 0
M  V30 16775 O 1595.87 1.62744 -1.60396 0
M  V30 16776 C 1596.08 -1.61574 -3.09346 0
M  V30 16777 C 1597.43 -1.81367 -3.83916 0
M  V30 16778 O 1598.46 -1.58241 -3.19121 0
M  V30 16779 O 1597.32 -2.20011 -5.00257 0
M  V30 16780 H 1594.41 -0.300086 -0.770635 0
M  V30 16781 H 1596.96 -1.24691 -1.15109 0
M  V30 16782 H 1595.73 -2.63946 -2.88874 0
M  V30 16783 H 1595.35 -1.18386 -3.79566 0
M  V30 16784 N 1596.35 1.26749 -0.936613 0
M  V30 16785 C 1597.28 2.2892 -0.460213 0
M  V30 16786 C 1598.26 1.63065 0.484135 0
M  V30 16787 O 1599.44 1.90305 0.386973 0
M  V30 16788 C 1596.57 3.46172 0.279648 0
M  V30 16789 C 1595.53 4.24083 -0.57771 0
M  V30 16790 C 1594.85 5.33903 0.291843 0
M  V30 16791 C 1596.15 4.88562 -1.84673 0
M  V30 16792 H 1597.85 2.69019 -1.31412 0
M  V30 16793 H 1595.39 1.29325 -0.633333 0
M  V30 16794 H 1597.35 4.16755 0.623931 0
M  V30 16795 H 1596.07 3.05014 1.16765 0
M  V30 16796 H 1594.73 3.55258 -0.904824 0
M  V30 16797 H 1594.38 4.88986 1.17906 0
M  V30 16798 H 1594.08 5.8694 -0.278372 0
M  V30 16799 H 1595.6 6.07326 0.631498 0
M  V30 16800 H 1597.02 5.51384 -1.56997 0
M  V30 16801 H 1595.41 5.51697 -2.36115 0
M  V30 16802 H 1596.48 4.11761 -2.56088 0
M  V30 16803 N 1597.83 0.703118 1.41046 0
M  V30 16804 C 1598.76 0.0570815 2.3343 0
M  V30 16805 C 1599.74 -0.759042 1.52225 0
M  V30 16806 O 1600.92 -0.710491 1.80736 0
M  V30 16807 C 1598.05 -0.874541 3.36109 0
M  V30 16808 C 1597.01 -0.16496 4.27682 0
M  V30 16809 C 1596.33 -1.21145 5.20795 0
M  V30 16810 C 1597.63 0.97332 5.13151 0
M  V30 16811 H 1599.33 0.828699 2.87703 0
M  V30 16812 H 1596.87 0.399956 1.38334 0
M  V30 16813 H 1598.83 -1.33579 3.99668 0
M  V30 16814 H 1597.55 -1.67791 2.80203 0
M  V30 16815 H 1596.21 0.276332 3.65557 0
M  V30 16816 H 1595.86 -2.00755 4.61201 0
M  V30 16817 H 1595.56 -0.741633 5.82901 0
M  V30 16818 H 1597.08 -1.67305 5.87232 0
M  V30 16819 H 1598.49 0.592013 5.70235 0
M  V30 16820 H 1596.89 1.37071 5.84236 0
M  V30 16821 H 1597.96 1.80961 4.49868 0
M  V30 16822 N 1599.3 -1.51086 0.448402 0
M  V30 16823 C 1600.53 -2.07081 -0.115038 0
M  V30 16824 C 1600.95 -1.31253 -1.34737 0
M  V30 16825 O 1600.31 -0.353613 -1.77818 0
M  V30 16826 C 1600.36 -3.58321 -0.404803 0
M  V30 16827 O 1599.46 -3.84567 -1.48936 0
M  V30 16828 H 1598.81 -0.663993 0.00299118 0
M  V30 16829 H 1601.34 -1.94564 0.632921 0
M  V30 16830 H 1601.35 -4.02756 -0.652013 0
M  V30 16831 H 1600.02 -4.12934 0.495838 0
M  V30 16832 H 1598.6 -3.51987 -1.23124 0
M  V30 16833 N 1600.78 -0.180154 -1.56567 0
M  V30 16834 C 1601.71 0.742131 -2.21393 0
M  V30 16835 C 1602.69 1.23253 -1.1723 0
M  V30 16836 O 1603.88 1.28408 -1.45688 0
M  V30 16837 C 1601.01 1.96799 -2.8616 0
M  V30 16838 C 1599.96 1.6131 -3.96438 0
M  V30 16839 C 1599.29 2.91434 -4.48297 0
M  V30 16840 C 1600.59 0.834382 -5.15592 0
M  V30 16841 H 1602.28 0.201759 -2.98719 0
M  V30 16842 H 1599.83 0.0956016 -1.43682 0
M  V30 16843 H 1601.78 2.61828 -3.30188 0
M  V30 16844 H 1600.51 2.53264 -2.06215 0
M  V30 16845 H 1599.16 0.986451 -3.53079 0
M  V30 16846 H 1598.81 3.45958 -3.65133 0
M  V30 16847 H 1598.51 2.68439 -5.22699 0
M  V30 16848 H 1600.04 3.57478 -4.95017 0
M  V30 16849 H 1601.45 1.38745 -5.56258 0
M  V30 16850 H 1599.85 0.703132 -5.95966 0
M  V30 16851 H 1600.92 -0.167554 -4.8461 0
M  V30 16852 N 1602.26 1.57322 0.0935319 0
M  V30 16853 C 1603.19 2.05208 1.11409 0
M  V30 16854 C 1604.17 0.941295 1.41681 0
M  V30 16855 O 1605.36 1.21266 1.51684 0
M  V30 16856 C 1602.49 2.47782 2.43354 0
M  V30 16857 C 1601.44 3.62538 2.27486 0
M  V30 16858 C 1600.77 3.91095 3.64622 0
M  V30 16859 C 1602.07 4.93371 1.71412 0
M  V30 16860 H 1603.76 2.9072 0.715702 0
M  V30 16861 H 1601.31 1.3986 0.342827 0
M  V30 16862 H 1603.26 2.79891 3.15022 0
M  V30 16863 H 1601.98 1.59272 2.85132 0
M  V30 16864 H 1600.64 3.30679 1.58263 0
M  V30 16865 H 1600.29 2.99749 4.0393 0
M  V30 16866 H 1599.99 4.68353 3.5485 0
M  V30 16867 H 1601.51 4.25679 4.37755 0
M  V30 16868 H 1602.93 5.23851 2.32922 0
M  V30 16869 H 1601.33 5.74804 1.72395 0
M  V30 16870 H 1602.4 4.80197 0.67368 0
M  V30 16871 N 1603.74 -0.364395 1.53329 0
M  V30 16872 C 1604.7 -1.42927 1.79178 0
M  V30 16873 C 1605.7 -1.4653 0.662235 0
M  V30 16874 O 1606.89 -1.4727 0.930442 0
M  V30 16875 C 1604.02 -2.82035 1.91492 0
M  V30 16876 H 1605.22 -1.21281 2.74283 0
M  V30 16877 H 1602.77 -0.597596 1.44425 0
M  V30 16878 H 1603.5 -3.08993 0.984579 0
M  V30 16879 H 1603.29 -2.80818 2.73649 0
M  V30 16880 H 1604.78 -3.59148 2.13078 0
M  V30 16881 N 1605.22 -1.44709 -0.62426 0
M  V30 16882 C 1606.17 -1.48536 -1.72977 0
M  V30 16883 C 1607.15 -0.350388 -1.57039 0
M  V30 16884 O 1608.34 -0.596153 -1.66658 0
M  V30 16885 C 1605.47 -1.439 -3.11685 0
M  V30 16886 C 1604.56 -2.62537 -3.33069 0
M  V30 16887 N 1604.95 -3.87745 -3.24788 0
M  V30 16888 C 1603.25 -2.57879 -3.63888 0
M  V30 16889 C 1603.95 -4.66833 -3.47048 0
M  V30 16890 N 1602.92 -3.98016 -3.70248 0
M  V30 16891 H 1606.73 -2.43183 -1.65042 0
M  V30 16892 H 1604.24 -1.39768 -0.826962 0
M  V30 16893 H 1606.24 -1.44725 -3.90973 0
M  V30 16894 H 1604.9 -0.502961 -3.20781 0
M  V30 16895 H 1605.91 -4.19613 -3.03555 0
M  V30 16896 H 1602.58 -1.73104 -3.79923 0
M  V30 16897 H 1603.97 -5.75855 -3.4618 0
M  V30 16898 N 1606.69 0.865285 -1.31722 0
M  V30 16899 C 1607.92 1.65137 -1.24649 0
M  V30 16900 C 1608.34 1.87868 0.187391 0
M  V30 16901 O 1607.69 1.44015 1.12098 0
M  V30 16902 C 1607.75 3.0167 -1.99193 0
M  V30 16903 O 1607.47 2.79951 -3.36985 0
M  V30 16904 C 1608.97 3.96115 -1.99017 0
M  V30 16905 H 1606.19 0.514683 -0.430514 0
M  V30 16906 H 1608.73 1.07971 -1.73674 0
M  V30 16907 H 1606.89 3.55511 -1.53918 0
M  V30 16908 H 1607.3 3.66706 -3.75002 0
M  V30 16909 H 1608.77 4.89217 -2.55677 0
M  V30 16910 H 1609.25 4.28268 -0.973815 0
M  V30 16911 H 1609.86 3.4821 -2.44192 0
M  V30 16912 N 1608.17 1.14759 1.0802 0
M  V30 16913 C 1609.14 0.840859 2.13219 0
M  V30 16914 C 1610.14 -0.156309 1.60038 0
M  V30 16915 O 1611.33 0.0725143 1.74049 0
M  V30 16916 C 1608.46 0.254208 3.39951 0
M  V30 16917 H 1609.65 1.77323 2.4186 0
M  V30 16918 H 1607.2 0.954146 1.23797 0
M  V30 16919 H 1607.94 -0.686692 3.16946 0
M  V30 16920 H 1607.72 0.972499 3.79848 0
M  V30 16921 H 1609.21 0.0569551 4.17561 0
M  V30 16922 N 1609.65 -1.26251 0.943322 0
M  V30 16923 C 1611.07 -1.45943 0.645966 0
M  V30 16924 C 1611.27 -1.84936 -0.800064 0
M  V30 16925 O 1610.32 -1.97238 -1.57649 0
M  V30 16926 C 1611.64 -2.54017 1.60922 0
M  V30 16927 C 1613.18 -2.67866 1.61916 0
M  V30 16928 C 1613.66 -3.79113 2.56977 0
M  V30 16929 N 1615.15 -3.86509 2.55275 0
M  V30 16930 C 1615.88 -4.72048 3.25513 0
M  V30 16931 N 1615.38 -5.61959 4.05184 0
M  V30 16932 N 1617.17 -4.65913 3.14454 0
M  V30 16933 H 1609.32 -0.992295 1.87796 0
M  V30 16934 H 1611.59 -0.497204 0.80715 0
M  V30 16935 H 1611.29 -2.32197 2.64155 0
M  V30 16936 H 1611.17 -3.51715 1.36294 0
M  V30 16937 H 1613.55 -2.89059 0.594067 0
M  V30 16938 H 1613.64 -1.70604 1.90598 0
M  V30 16939 H 1613.28 -3.58673 3.59605 0
M  V30 16940 H 1613.21 -4.75836 2.25583 0
M  V30 16941 H 1615.7 -3.22229 1.97425 0
M  V30 16942 H 1616.01 -6.24127 4.55725 0
M  V30 16943 H 1614.36 -5.61704 4.09285 0
M  V30 16944 H 1617.55 -3.94675 2.51693 0
M  V30 16945 H 1617.72 -5.32356 3.69461 0
M  V30 16946 N 1611.13 -0.710588 -1.40671 0
M  V30 16947 C 1612.38 -0.248316 -2.01274 0
M  V30 16948 C 1612.71 1.1539 -1.56201 0
M  V30 16949 O 1611.98 1.78182 -0.779838 0
M  V30 16950 C 1612.27 -0.322762 -3.58651 0
M  V30 16951 C 1612.12 -1.763 -4.1381 0
M  V30 16952 C 1613.44 0.308908 -4.39015 0
M  V30 16953 H 1610.56 -0.0917037 -0.731272 0
M  V30 16954 H 1613.2 -0.902145 -1.67216 0
M  V30 16955 H 1611.35 0.233923 -3.87795 0
M  V30 16956 H 1613.02 -2.37468 -3.95483 0
M  V30 16957 H 1611.26 -2.29233 -3.68286 0
M  V30 16958 H 1611.94 -1.76652 -5.22971 0
M  V30 16959 H 1614.41 -0.165363 -4.15771 0
M  V30 16960 H 1613.29 0.226347 -5.48433 0
M  V30 16961 H 1613.55 1.39174 -4.19622 0
M  V30 16962 N 1612.61 1.50847 -0.456408 0
M  V30 16963 C 1613.54 2.31077 0.335523 0
M  V30 16964 C 1614.52 1.37326 1.00377 0
M  V30 16965 O 1615.7 1.66247 1.00376 0
M  V30 16966 C 1612.83 3.16662 1.42627 0
M  V30 16967 C 1611.79 4.18846 0.88045 0
M  V30 16968 C 1611.11 4.93074 2.06838 0
M  V30 16969 C 1612.41 5.22208 -0.0982288 0
M  V30 16970 H 1614.11 2.97531 -0.334056 0
M  V30 16971 H 1611.65 1.43085 -0.162099 0
M  V30 16972 H 1613.61 3.71578 1.98765 0
M  V30 16973 H 1612.33 2.48066 2.12441 0
M  V30 16974 H 1610.99 3.65009 0.341147 0
M  V30 16975 H 1610.64 4.20963 2.75316 0
M  V30 16976 H 1610.34 5.62184 1.70947 0
M  V30 16977 H 1611.86 5.5082 2.63494 0
M  V30 16978 H 1613.28 5.72082 0.373481 0
M  V30 16979 H 1611.67 5.98954 -0.370674 0
M  V30 16980 H 1612.74 4.73859 -1.02887 0
M  V30 16981 N 1614.09 0.188454 1.56469 0
M  V30 16982 C 1615.31 -0.460975 2.02212 0
M  V30 16983 C 1615.74 -1.54856 1.06777 0
M  V30 16984 O 1615.09 -1.81231 0.0501425 0
M  V30 16985 C 1615.14 -1.00047 3.46443 0
M  V30 16986 O 1614.25 -2.1137 3.54114 0
M  V30 16987 H 1613.59 -0.108497 0.655076 0
M  V30 16988 H 1616.12 0.297381 2.02427 0
M  V30 16989 H 1616.13 -1.31876 3.86099 0
M  V30 16990 H 1614.8 -0.204273 4.15398 0
M  V30 16991 H 1613.38 -1.80456 3.26328 0
M  V30 16992 N 1615.56 -1.5737 -0.0851874 0
M  V30 16993 C 1616.97 -1.7544 -0.638575 0
M  V30 16994 C 1617.33 -0.812041 -1.78607 0
M  V30 16995 O 1616.45 0.00710428 -2.16399 0
M  V30 16996 C 1617.05 -3.18134 -1.16517 0
M  V30 16997 C 1615.6 -3.37594 -1.66454 0
M  V30 16998 C 1614.75 -2.71203 -0.578274 0
M  V30 16999 H 1617.7 -1.58073 0.140931 0
M  V30 17000 H 1617.72 -3.21553 -2.0343 0
M  V30 17001 H 1617.24 -3.86696 -0.329794 0
M  V30 17002 H 1615.34 -2.74126 -2.5236 0
M  V30 17003 H 1615.45 -4.45968 -1.75071 0
M  V30 17004 H 1613.81 -2.33379 -1.02011 0
M  V30 17005 H 1614.6 -3.42413 0.246691 0
M  V30 17006 N 1617.04 0.356258 -1.53521 0
M  V30 17007 C 1618.27 1.12273 -1.74383 0
M  V30 17008 C 1618.69 1.81981 -0.475881 0
M  V30 17009 O 1618.05 1.72083 0.570699 0
M  V30 17010 C 1618.1 2.12161 -2.91582 0
M  V30 17011 O 1617.2 3.1943 -2.60842 0
M  V30 17012 H 1616.54 0.325321 -0.578845 0
M  V30 17013 H 1619.07 0.410533 -2.00439 0
M  V30 17014 H 1619.08 2.55602 -3.18012 0
M  V30 17015 H 1617.76 1.60818 -3.8355 0
M  V30 17016 H 1616.33 2.80895 -2.4526 0
M  V30 17017 N 1618.52 1.45038 0.616577 0
M  V30 17018 C 1619.47 1.49451 1.72187 0
M  V30 17019 C 1620.45 0.358711 1.5685 0
M  V30 17020 O 1621.65 0.604983 1.6634 0
M  V30 17021 C 1618.77 1.45551 3.10918 0
M  V30 17022 C 1617.86 2.643 3.31672 0
M  V30 17023 N 1618.25 3.89462 3.22727 0
M  V30 17024 C 1616.55 2.59805 3.62515 0
M  V30 17025 C 1617.25 4.68667 3.44567 0
M  V30 17026 N 1616.23 3.99974 3.68132 0
M  V30 17027 H 1620.03 2.44055 1.6375 0
M  V30 17028 H 1617.54 1.40205 0.819538 0
M  V30 17029 H 1619.54 1.46797 3.902 0
M  V30 17030 H 1618.2 0.519966 3.2051 0
M  V30 17031 H 1619.21 4.21217 3.01325 0
M  V30 17032 H 1615.89 1.75117 3.78999 0
M  V30 17033 H 1617.28 5.77683 3.43121 0
M  V30 17034 N 1620 -0.858287 1.32179 0
M  V30 17035 C 1620.93 -1.98219 1.23415 0
M  V30 17036 C 1621.91 -1.69685 0.118779 0
M  V30 17037 O 1623.09 -1.91785 0.305342 0
M  V30 17038 C 1620.22 -3.33977 0.952725 0
M  V30 17039 C 1619.18 -3.76853 2.02894 0
M  V30 17040 C 1618.5 -5.10201 1.59999 0
M  V30 17041 C 1619.8 -3.92707 3.44352 0
M  V30 17042 H 1621.5 -2.05809 2.17446 0
M  V30 17043 H 1619.04 -0.988817 1.04682 0
M  V30 17044 H 1621 -4.12152 0.87798 0
M  V30 17045 H 1619.72 -3.26592 -0.023234 0
M  V30 17046 H 1618.38 -3.00926 2.09378 0
M  V30 17047 H 1618.03 -4.99268 0.61157 0
M  V30 17048 H 1617.73 -5.39859 2.32004 0
M  V30 17049 H 1619.25 -5.90873 1.53954 0
M  V30 17050 H 1620.67 -4.61246 3.40477 0
M  V30 17051 H 1619.06 -4.33779 4.14675 0
M  V30 17052 H 1620.13 -2.95731 3.8428 0
M  V30 17053 N 1621.48 -1.1533 -1.07409 0
M  V30 17054 C 1622.7 -0.952101 -1.84255 0
M  V30 17055 C 1623.13 0.494571 -1.81482 0
M  V30 17056 O 1622.48 1.35253 -1.20733 0
M  V30 17057 C 1622.53 -1.47019 -3.29268 0
M  V30 17058 O 1621.64 -0.669005 -4.06937 0
M  V30 17059 H 1620.98 -0.339643 -0.57056 0
M  V30 17060 H 1623.51 -1.53298 -1.35502 0
M  V30 17061 H 1623.52 -1.48278 -3.80102 0
M  V30 17062 H 1622.19 -2.5234 -3.30602 0
M  V30 17063 H 1620.77 -0.726003 -3.65764 0
M  V30 17064 N 1622.95 1.25748 -0.950004 0
M  V30 17065 C 1624.2 1.93336 -0.602294 0
M  V30 17066 C 1624.53 1.74454 0.859994 0
M  V30 17067 O 1623.78 1.08032 1.6318 0
M  V30 17068 C 1624.08 3.45843 -0.901521 0
M  V30 17069 C 1623.75 3.84874 -2.3491 0
M  V30 17070 C 1622.41 3.9524 -2.74479 0
M  V30 17071 C 1624.76 4.04286 -3.28941 0
M  V30 17072 C 1622.09 4.22422 -4.07157 0
M  V30 17073 C 1624.44 4.32959 -4.61225 0
M  V30 17074 C 1623.11 4.41541 -5.00597 0
M  V30 17075 H 1622.38 0.707465 -0.220395 0
M  V30 17076 H 1625.02 1.49386 -1.19817 0
M  V30 17077 H 1623.33 3.91164 -0.2232 0
M  V30 17078 H 1625.03 3.96316 -0.611134 0
M  V30 17079 H 1621.62 3.77358 -2.03221 0
M  V30 17080 H 1625.8 3.95697 -2.99563 0
M  V30 17081 H 1621.06 4.27281 -4.37311 0
M  V30 17082 H 1625.23 4.46925 -5.3407 0
M  V30 17083 H 1622.86 4.62358 -6.03431 0
M  V30 17084 N 1624.43 0.718038 1.40292 0
M  V30 17085 C 1625.68 0.255581 2.00074 0
M  V30 17086 C 1625.99 -1.15859 1.57594 0
M  V30 17087 O 1627.2 -1.71969 2.10092 0
M  V30 17088 C 1625.66 0.406019 3.57602 0
M  V30 17089 C 1625.26 1.82699 4.09054 0
M  V30 17090 C 1627.01 0.00447854 4.245 0
M  V30 17091 C 1624.91 1.92788 5.59094 0
M  V30 17092 H 1623.84 0.0918012 0.748391 0
M  V30 17093 H 1626.5 0.88948 1.60501 0
M  V30 17094 H 1624.88 -0.296504 3.94888 0
M  V30 17095 H 1626.05 2.56009 3.8314 0
M  V30 17096 H 1624.37 2.18021 3.54761 0
M  V30 17097 H 1626.96 0.05911 5.34667 0
M  V30 17098 H 1627.31 -1.03779 4.03157 0
M  V30 17099 H 1627.84 0.657535 3.92328 0
M  V30 17100 H 1624.58 2.95145 5.85295 0
M  V30 17101 H 1624.1 1.23893 5.86865 0
M  V30 17102 H 1625.78 1.70114 6.24236 0
M  V30 17103 N 1625.91 -1.50602 0.464402 0
M  V30 17104 C 1626.84 -2.26203 -0.36943 0
M  V30 17105 C 1627.86 -1.31269 -0.962924 0
M  V30 17106 O 1629.04 -1.56829 -0.852465 0
M  V30 17107 C 1626.14 -3.02323 -1.53147 0
M  V30 17108 C 1625.32 -4.24561 -1.05198 0
M  V30 17109 C 1624.38 -4.83031 -2.08729 0
M  V30 17110 O 1623.4 -5.44131 -1.67062 0
M  V30 17111 N 1624.6 -4.6944 -3.41477 0
M  V30 17112 H 1627.37 -2.98402 0.278652 0
M  V30 17113 H 1624.93 -1.59193 0.294803 0
M  V30 17114 H 1626.92 -3.38319 -2.22086 0
M  V30 17115 H 1625.49 -2.32965 -2.08438 0
M  V30 17116 H 1624.71 -3.93748 -0.188705 0
M  V30 17117 H 1626 -5.0383 -0.709434 0
M  V30 17118 H 1625.4 -4.20832 -3.78044 0
M  V30 17119 H 1623.96 -5.09724 -4.06233 0
M  V30 17120 N 1627.39 -0.19675 -1.56367 0
M  V30 17121 C 1628.3 0.735372 -2.22777 0
M  V30 17122 C 1629.31 1.23336 -1.22737 0
M  V30 17123 O 1630.49 1.28017 -1.55479 0
M  V30 17124 C 1627.56 1.93706 -2.8754 0
M  V30 17125 C 1626.62 1.48348 -4.02854 0
M  V30 17126 C 1625.85 2.62788 -4.64519 0
M  V30 17127 O 1626.07 3.80311 -4.25111 0
M  V30 17128 O 1625.01 2.35406 -5.53956 0
M  V30 17129 H 1628.83 0.199788 -3.03042 0
M  V30 17130 H 1626.42 0.0326149 -1.49364 0
M  V30 17131 H 1628.3 2.63934 -3.28507 0
M  V30 17132 H 1626.97 2.46121 -2.10252 0
M  V30 17133 H 1625.88 0.749939 -3.66506 0
M  V30 17134 H 1627.21 1.00597 -4.8181 0
M  V30 17135 N 1628.87 1.57413 0.0768405 0
M  V30 17136 C 1629.8 2.06378 1.09226 0
M  V30 17137 C 1630.78 0.956269 1.40675 0
M  V30 17138 O 1631.96 1.22868 1.5039 0
M  V30 17139 C 1629.09 2.50349 2.40712 0
M  V30 17140 C 1628.05 3.64931 2.23628 0
M  V30 17141 C 1627.37 3.9494 3.60453 0
M  V30 17142 C 1628.67 4.95162 1.66169 0
M  V30 17143 H 1630.37 2.91463 0.684827 0
M  V30 17144 H 1627.91 1.40215 0.327974 0
M  V30 17145 H 1629.87 2.83216 3.12036 0
M  V30 17146 H 1628.59 1.62287 2.83426 0
M  V30 17147 H 1627.25 3.32339 1.54747 0
M  V30 17148 H 1626.9 3.04016 4.00728 0
M  V30 17149 H 1626.6 4.72091 3.49863 0
M  V30 17150 H 1628.12 4.30299 4.33215 0
M  V30 17151 H 1629.53 5.26292 2.27353 0
M  V30 17152 H 1627.93 5.76601 1.66289 0
M  V30 17153 H 1629 4.80885 0.62271 0
M  V30 17154 N 1630.34 -0.348112 1.53707 0
M  V30 17155 C 1631.27 -1.43296 1.8436 0
M  V30 17156 C 1632.26 -1.55102 0.698376 0
M  V30 17157 O 1633.44 -1.69385 0.949864 0
M  V30 17158 C 1630.57 -2.80407 2.04912 0
M  V30 17159 C 1629.52 -2.83412 3.20721 0
M  V30 17160 C 1628.85 -4.23365 3.26597 0
M  V30 17161 C 1630.15 -2.49358 4.58931 0
M  V30 17162 H 1631.84 -1.17892 2.75212 0
M  V30 17163 H 1629.39 -0.565692 1.32423 0
M  V30 17164 H 1631.34 -3.56343 2.24939 0
M  V30 17165 H 1630.07 -3.07236 1.10786 0
M  V30 17166 H 1628.73 -2.09929 3.00542 0
M  V30 17167 H 1628.37 -4.47297 2.30076 0
M  V30 17168 H 1628.07 -4.26287 4.04417 0
M  V30 17169 H 1629.6 -5.01149 3.4883 0
M  V30 17170 H 1631.01 -3.15006 4.79003 0
M  V30 17171 H 1629.41 -2.6357 5.3912 0
M  V30 17172 H 1630.48 -1.44557 4.62851 0
M  V30 17173 N 1631.82 -1.45363 -0.608876 0
M  V30 17174 C 1632.79 -1.53551 -1.70161 0
M  V30 17175 C 1633.79 -0.415146 -1.55349 0
M  V30 17176 O 1634.98 -0.67858 -1.6044 0
M  V30 17177 C 1632.11 -1.43081 -3.0942 0
M  V30 17178 H 1633.3 -2.5091 -1.64268 0
M  V30 17179 H 1630.85 -1.32785 -0.824493 0
M  V30 17180 H 1631.59 -0.469016 -3.20891 0
M  V30 17181 H 1631.37 -2.24343 -3.21579 0
M  V30 17182 H 1632.86 -1.51841 -3.89017 0
M  V30 17183 N 1633.3 0.851265 -1.32632 0
M  V30 17184 C 1634.55 1.60252 -1.23141 0
M  V30 17185 C 1634.87 1.93909 0.205946 0
M  V30 17186 O 1634.14 1.59914 1.13156 0
M  V30 17187 H 1632.72 0.594137 -0.452781 0
M  V30 17188 H 1635.38 1.01806 -1.66197 0
M  V30 17189 H 1634.48 2.53796 -1.81643 0
M  V30 17190 N 1634.78 1.15898 1.06796 0
M  V30 17191 C 1636 0.961859 1.83747 0
M  V30 17192 C 1636.43 -0.48494 1.81741 0
M  V30 17193 O 1635.79 -1.3461 1.21449 0
M  V30 17194 C 1635.83 1.48764 3.28484 0
M  V30 17195 O 1634.94 0.690576 4.06577 0
M  V30 17196 H 1634.28 0.342664 0.568751 0
M  V30 17197 H 1636.81 1.54015 1.34687 0
M  V30 17198 H 1636.82 1.50291 3.79311 0
M  V30 17199 H 1635.49 2.54089 3.29259 0
M  V30 17200 H 1634.07 0.74539 3.65374 0
M  V30 17201 N 1636.26 -1.25243 0.956659 0
M  V30 17202 C 1637.53 -1.88287 0.529832 0
M  V30 17203 C 1637.91 -1.8629 -0.992929 0
M  V30 17204 O 1637.26 -1.32785 -1.85958 0
M  V30 17205 C 1637.47 -3.30919 1.10877 0
M  V30 17206 C 1638.82 -4.07674 1.18687 0
M  V30 17207 O 1639.84 -3.40048 1.06047 0
M  V30 17208 O 1638.7 -5.28648 1.38541 0
M  V30 17209 H 1635.8 -0.808258 0.175066 0
M  V30 17210 H 1638.34 -1.33298 1.05022 0
M  V30 17211 H 1637.11 -3.26813 2.15195 0
M  V30 17212 H 1636.74 -3.93468 0.571755 0
M  V30 17213 N 1637.73 -0.725468 -1.3991 0
M  V30 17214 C 1638.64 -0.0805887 -2.34462 0
M  V30 17215 C 1639.66 0.732689 -1.57822 0
M  V30 17216 O 1640.84 0.663362 -1.90162 0
M  V30 17217 C 1637.9 0.822908 -3.36792 0
M  V30 17218 C 1636.96 -0.00153812 -4.293 0
M  V30 17219 C 1636.2 0.85893 -5.26743 0
M  V30 17220 O 1636.42 2.09793 -5.30418 0
M  V30 17221 O 1635.35 0.292659 -6.01188 0
M  V30 17222 H 1639.18 -0.860746 -2.91247 0
M  V30 17223 H 1636.76 -0.48604 -1.41273 0
M  V30 17224 H 1638.65 1.34014 -3.99522 0
M  V30 17225 H 1637.32 1.58204 -2.82406 0
M  V30 17226 H 1636.23 -0.564072 -3.69823 0
M  V30 17227 H 1637.56 -0.722675 -4.86866 0
M  V30 17228 N 1639.21 1.50354 -0.472382 0
M  V30 17229 C 1640.44 2.07238 0.0820787 0
M  V30 17230 C 1640.86 1.3338 1.32632 0
M  V30 17231 O 1640.22 0.381857 1.77233 0
M  V30 17232 C 1640.27 3.58919 0.347746 0
M  V30 17233 O 1639.37 3.86888 1.42799 0
M  V30 17234 H 1638.71 0.663862 -0.0135544 0
M  V30 17235 H 1641.24 1.93533 -0.663795 0
M  V30 17236 H 1641.25 4.03743 0.587855 0
M  V30 17237 H 1639.93 4.12093 -0.56147 0
M  V30 17238 H 1638.51 3.53901 1.17509 0
M  V30 17239 N 1640.69 0.205039 1.56261 0
M  V30 17240 C 1641.92 -0.435787 2.01952 0
M  V30 17241 C 1642.33 -1.55048 1.08428 0
M  V30 17242 O 1641.67 -1.83512 0.0831276 0
M  V30 17243 C 1641.73 -1.04359 3.4402 0
M  V30 17244 C 1641.4 -0.0663955 4.56952 0
M  V30 17245 C 1642.4 0.727909 5.14779 0
M  V30 17246 C 1640.08 0.0475718 5.02277 0
M  V30 17247 C 1642.07 1.62305 6.16389 0
M  V30 17248 C 1639.76 0.94626 6.03729 0
M  V30 17249 C 1640.76 1.73256 6.6066 0
M  V30 17250 O 1640.45 2.61617 7.60139 0
M  V30 17251 H 1640.18 -0.112721 0.666536 0
M  V30 17252 H 1642.73 0.313993 2.02986 0
M  V30 17253 H 1640.96 -1.84215 3.40003 0
M  V30 17254 H 1642.65 -1.5901 3.73458 0
M  V30 17255 H 1643.42 0.65022 4.80622 0
M  V30 17256 H 1639.3 -0.554295 4.57656 0
M  V30 17257 H 1642.84 2.23722 6.60753 0
M  V30 17258 H 1638.74 1.02503 6.3731 0
M  V30 17259 H 1639.51 2.55507 7.77598 0
M  V30 17260 N 1642.17 -1.57451 -0.0684915 0
M  V30 17261 C 1643.59 -1.53883 -0.423354 0
M  V30 17262 C 1643.79 -0.925698 -1.78978 0
M  V30 17263 O 1642.84 -0.529629 -2.46883 0
M  V30 17264 C 1644.15 -2.98521 -0.361386 0
M  V30 17265 C 1645.7 -3.09873 -0.441334 0
M  V30 17266 C 1646.18 -4.56168 -0.409239 0
M  V30 17267 N 1647.67 -4.60817 -0.469216 0
M  V30 17268 C 1648.4 -5.71498 -0.466648 0
M  V30 17269 N 1647.9 -6.91534 -0.4187 0
M  V30 17270 N 1649.69 -5.5975 -0.513452 0
M  V30 17271 H 1641.84 -1.95672 0.8262 0
M  V30 17272 H 1644.11 -0.895759 0.310354 0
M  V30 17273 H 1643.81 -3.46951 0.576035 0
M  V30 17274 H 1643.69 -3.58585 -1.17032 0
M  V30 17275 H 1646.07 -2.61414 -1.36918 0
M  V30 17276 H 1646.15 -2.52712 0.396237 0
M  V30 17277 H 1645.8 -5.05285 0.514772 0
M  V30 17278 H 1645.73 -5.11195 -1.26439 0
M  V30 17279 H 1648.22 -3.74438 -0.510387 0
M  V30 17280 H 1648.53 -7.71654 -0.420757 0
M  V30 17281 H 1646.88 -6.93931 -0.385338 0
M  V30 17282 H 1650.07 -4.64874 -0.548626 0
M  V30 17283 H 1650.24 -6.46006 -0.507982 0
M  V30 17284 N 1643.65 0.339955 -1.5389 0
M  V30 17285 C 1645.06 0.915362 -1.62721 0
M  V30 17286 C 1645.41 1.89434 -0.510798 0
M  V30 17287 O 1644.53 2.13403 0.3589 0
M  V30 17288 C 1645.13 1.66699 -2.94953 0
M  V30 17289 C 1643.69 2.19135 -3.06034 0
M  V30 17290 C 1642.84 1.01159 -2.5819 0
M  V30 17291 H 1645.79 0.11799 -1.58261 0
M  V30 17292 H 1645.81 2.53011 -2.84193 0
M  V30 17293 H 1645.32 0.954219 -3.76186 0
M  V30 17294 H 1643.42 2.93577 -2.29441 0
M  V30 17295 H 1643.53 2.4526 -4.11563 0
M  V30 17296 H 1641.9 1.38604 -2.13685 0
M  V30 17297 H 1642.68 0.313396 -3.41867 0
M  V30 17298 N 1645.13 1.45684 0.601159 0
M  V30 17299 C 1646.06 1.57694 1.72206 0
M  V30 17300 C 1647.04 0.428141 1.64624 0
M  V30 17301 O 1648.22 0.65209 1.82925 0
M  V30 17302 C 1645.35 1.54941 3.10822 0
M  V30 17303 C 1644.31 2.68603 3.33222 0
M  V30 17304 C 1643.63 2.50906 4.72176 0
M  V30 17305 C 1644.93 4.10568 3.22849 0
M  V30 17306 H 1646.63 2.51521 1.62412 0
M  V30 17307 H 1644.17 1.2105 0.779929 0
M  V30 17308 H 1646.12 1.61939 3.89042 0
M  V30 17309 H 1644.85 0.576471 3.21472 0
M  V30 17310 H 1643.51 2.61043 2.57394 0
M  V30 17311 H 1643.16 1.51736 4.79568 0
M  V30 17312 H 1642.86 3.27131 4.88118 0
M  V30 17313 H 1644.38 2.59767 5.52588 0
M  V30 17314 H 1645.79 4.19336 3.90935 0
M  V30 17315 H 1644.19 4.87234 3.50318 0
M  V30 17316 H 1645.26 4.32022 2.20192 0
M  V30 17317 N 1646.6 -0.84422 1.33082 0
M  V30 17318 C 1648.02 -1.13406 1.12299 0
M  V30 17319 C 1648.22 -2.013 -0.0896529 0
M  V30 17320 O 1647.28 -2.40425 -0.771493 0
M  V30 17321 C 1648.59 -1.80132 2.40776 0
M  V30 17322 C 1650.14 -1.92721 2.46632 0
M  V30 17323 C 1650.61 -2.62863 3.75056 0
M  V30 17324 N 1652.1 -2.70379 3.76097 0
M  V30 17325 C 1652.84 -3.25328 4.72175 0
M  V30 17326 N 1652.33 -3.81005 5.78625 0
M  V30 17327 N 1654.13 -3.23529 4.59658 0
M  V30 17328 H 1646.28 -0.259126 2.10813 0
M  V30 17329 H 1648.54 -0.177459 0.931242 0
M  V30 17330 H 1648.25 -1.23007 3.29488 0
M  V30 17331 H 1648.12 -2.802 2.52523 0
M  V30 17332 H 1650.51 -2.49002 1.58373 0
M  V30 17333 H 1650.59 -0.916191 2.3883 0
M  V30 17334 H 1650.23 -2.07242 4.63695 0
M  V30 17335 H 1650.16 -3.64425 3.80134 0
M  V30 17336 H 1652.65 -2.30891 2.99162 0
M  V30 17337 H 1652.97 -4.21121 6.47979 0
M  V30 17338 H 1651.31 -3.79308 5.82366 0
M  V30 17339 H 1654.5 -2.79286 3.75656 0
M  V30 17340 H 1654.68 -3.66051 5.34706 0
M  V30 17341 N 1648.08 -1.16463 -1.0618 0
M  V30 17342 C 1649.31 -0.97159 -1.83235 0
M  V30 17343 C 1649.73 0.475295 -1.81996 0
M  V30 17344 O 1649.09 1.33964 -1.22161 0
M  V30 17345 C 1649.14 -1.50504 -3.2769 0
M  V30 17346 O 1648.24 -0.712128 -4.06205 0
M  V30 17347 H 1647.58 -0.345676 -0.566925 0
M  V30 17348 H 1650.11 -1.54727 -1.33868 0
M  V30 17349 H 1650.12 -1.52301 -3.78508 0
M  V30 17350 H 1648.8 -2.55832 -3.27907 0
M  V30 17351 H 1647.37 -0.764756 -3.64974 0
M  V30 17352 N 1649.56 1.24734 -0.963288 0
M  V30 17353 C 1650.49 2.27892 -0.508667 0
M  V30 17354 C 1651.47 1.64055 0.449438 0
M  V30 17355 O 1652.66 1.91083 0.346519 0
M  V30 17356 C 1649.79 3.46688 0.206157 0
M  V30 17357 C 1648.74 4.22762 -0.667534 0
M  V30 17358 C 1648.07 5.34402 0.178529 0
M  V30 17359 C 1649.37 4.84535 -1.94995 0
M  V30 17360 H 1651.06 2.66171 -1.37088 0
M  V30 17361 H 1648.61 1.27952 -0.660622 0
M  V30 17362 H 1650.56 4.17985 0.535391 0
M  V30 17363 H 1649.28 3.07422 1.10269 0
M  V30 17364 H 1647.94 3.53259 -0.979976 0
M  V30 17365 H 1647.59 4.91377 1.07508 0
M  V30 17366 H 1647.29 5.86218 -0.402808 0
M  V30 17367 H 1648.81 6.08529 0.502533 0
M  V30 17368 H 1650.23 5.4793 -1.68658 0
M  V30 17369 H 1648.62 5.46564 -2.47765 0
M  V30 17370 H 1649.69 4.06236 -2.64765 0
M  V30 17371 N 1651.04 0.732878 1.39523 0
M  V30 17372 C 1651.97 0.106583 2.33257 0
M  V30 17373 C 1652.95 -0.726582 1.53801 0
M  V30 17374 O 1654.13 -0.671994 1.82203 0
M  V30 17375 C 1651.26 -0.803051 3.37888 0
M  V30 17376 C 1650.22 -0.0742048 4.27936 0
M  V30 17377 C 1649.54 -1.10071 5.23248 0
M  V30 17378 C 1650.84 1.08195 5.10971 0
M  V30 17379 H 1652.54 0.889539 2.8588 0
M  V30 17380 H 1650.08 0.429209 1.37455 0
M  V30 17381 H 1652.04 -1.25071 4.02412 0
M  V30 17382 H 1650.76 -1.6181 2.83699 0
M  V30 17383 H 1649.42 0.35381 3.64889 0
M  V30 17384 H 1649.07 -1.90927 4.65356 0
M  V30 17385 H 1648.77 -0.617825 5.84343 0
M  V30 17386 H 1650.29 -1.54812 5.90649 0
M  V30 17387 H 1651.71 0.712835 5.68851 0
M  V30 17388 H 1650.1 1.49433 5.81197 0
M  V30 17389 H 1651.17 1.90463 4.45928 0
M  V30 17390 N 1652.52 -1.50101 0.480349 0
M  V30 17391 C 1653.76 -2.01974 -0.0712904 0
M  V30 17392 C 1654.08 -1.36377 -1.39378 0
M  V30 17393 O 1653.35 -0.512162 -1.89087 0
M  V30 17394 H 1651.93 -0.746424 -0.0293362 0
M  V30 17395 H 1654.6 -1.84338 0.632883 0
M  V30 17396 H 1653.69 -3.11351 -0.216057 0
M  V30 17397 N 1653.99 -0.213323 -1.5615 0
M  V30 17398 C 1654.94 0.713371 -2.16553 0
M  V30 17399 C 1655.93 1.16341 -1.11147 0
M  V30 17400 O 1657.12 1.11877 -1.37159 0
M  V30 17401 C 1654.25 1.92487 -2.8426 0
M  V30 17402 C 1653.33 1.49489 -3.9688 0
M  V30 17403 N 1653.73 0.776985 -4.99797 0
M  V30 17404 C 1652.02 1.78281 -4.08818 0
M  V30 17405 C 1652.72 0.558882 -5.79009 0
M  V30 17406 N 1651.7 1.11311 -5.32082 0
M  V30 17407 H 1655.5 0.156357 -2.93484 0
M  V30 17408 H 1653.02 -0.0142491 -1.62394 0
M  V30 17409 H 1655.01 2.59942 -3.25938 0
M  V30 17410 H 1653.67 2.48643 -2.08822 0
M  V30 17411 H 1654.68 0.430529 -5.16107 0
M  V30 17412 H 1651.36 2.35816 -3.44524 0
M  V30 17413 H 1652.75 -0.0119209 -6.71899 0
M  V30 17414 N 1655.47 1.57485 0.0601405 0
M  V30 17415 C 1656.88 1.76433 0.610583 0
M  V30 17416 C 1657.23 0.840353 1.77292 0
M  V30 17417 O 1656.36 0.0273238 2.16383 0
M  V30 17418 C 1656.95 3.19947 1.11441 0
M  V30 17419 C 1655.51 3.402 1.61062 0
M  V30 17420 C 1654.66 2.72089 0.535055 0
M  V30 17421 H 1657.61 1.57829 -0.166062 0
M  V30 17422 H 1657.63 3.24749 1.98288 0
M  V30 17423 H 1657.14 3.87172 0.268233 0
M  V30 17424 H 1655.25 2.78106 2.47967 0
M  V30 17425 H 1655.36 4.48696 1.67954 0
M  V30 17426 H 1653.72 2.34972 0.982855 0
M  V30 17427 H 1654.51 3.41977 -0.301135 0
M  V30 17428 N 1656.95 -0.331789 1.54068 0
M  V30 17429 C 1657.86 -1.43116 1.8589 0
M  V30 17430 C 1658.88 -1.57003 0.75007 0
M  V30 17431 O 1660.05 -1.72256 1.04355 0
M  V30 17432 C 1657.12 -2.77945 2.07238 0
M  V30 17433 C 1656.18 -2.73303 3.31065 0
M  V30 17434 C 1655.41 -4.01702 3.51385 0
M  V30 17435 O 1655.63 -4.99562 2.75306 0
M  V30 17436 O 1654.57 -4.0546 4.44844 0
M  V30 17437 H 1658.39 -1.19137 2.79357 0
M  V30 17438 H 1655.98 -0.525057 1.3987 0
M  V30 17439 H 1657.86 -3.57774 2.22656 0
M  V30 17440 H 1656.54 -3.01831 1.16959 0
M  V30 17441 H 1655.44 -1.92054 3.21039 0
M  V30 17442 H 1656.78 -2.54371 4.21374 0
M  V30 17443 N 1658.43 -1.46001 -0.593424 0
M  V30 17444 C 1659.38 -1.56106 -1.72434 0
M  V30 17445 C 1660.37 -0.430155 -1.63848 0
M  V30 17446 O 1661.58 -0.606618 -1.6947 0
M  V30 17447 H 1657.95 -0.490601 -0.569925 0
M  V30 17448 H 1659.92 -2.51214 -1.6104 0
M  V30 17449 C 1658.67 -1.55836 -3.10822 0
M  V30 17450 H 1657.99 -2.42189 -3.18095 0
M  V30 17451 H 1659.43 -1.66962 -3.89743 0
M  V30 17452 C 1657.89 -0.285146 -3.35691 0
M  V30 17453 O 1658.42 0.629115 -3.96743 0
M  V30 17454 N 1656.63 -0.176401 -2.90064 0
M  V30 17455 H 1656.18 -0.921281 -2.40562 0
M  V30 17456 H 1656.13 0.674636 -3.07077 0
M  V30 17457 N 1659.91 0.83715 -1.33527 0
M  V30 17458 C 1661.13 1.62976 -1.28271 0
M  V30 17459 C 1661.56 1.87554 0.143201 0
M  V30 17460 O 1660.91 1.44088 1.10038 0
M  V30 17461 C 1660.96 2.95607 -2.06516 0
M  V30 17462 O 1660.07 3.87 -1.42494 0
M  V30 17463 H 1659.41 0.496212 -0.441214 0
M  V30 17464 H 1661.94 1.04137 -1.76115 0
M  V30 17465 H 1661.95 3.4529 -2.17344 0
M  V30 17466 H 1660.62 2.77041 -3.10195 0
M  V30 17467 H 1659.2 3.45492 -1.40321 0
M  V30 17468 N 1661.38 1.17024 1.05561 0
M  V30 17469 C 1662.63 0.957742 1.7876 0
M  V30 17470 C 1662.96 -0.512652 1.87311 0
M  V30 17471 O 1662.24 -1.38047 1.37016 0
M  V30 17472 C 1662.52 1.59495 3.22852 0
M  V30 17473 C 1662.37 3.13719 3.22336 0
M  V30 17474 C 1663.69 1.29576 4.20593 0
M  V30 17475 H 1660.81 0.349354 0.648938 0
M  V30 17476 H 1663.45 1.44467 1.23408 0
M  V30 17477 H 1661.6 1.18091 3.70117 0
M  V30 17478 H 1663.28 3.64156 2.83175 0
M  V30 17479 H 1661.52 3.46664 2.60781 0
M  V30 17480 H 1662.19 3.5343 4.24018 0
M  V30 17481 H 1664.67 1.65423 3.81804 0
M  V30 17482 H 1663.54 1.76751 5.19663 0
M  V30 17483 H 1663.8 0.21589 4.41573 0
M  V30 17484 N 1662.86 -1.24221 0.969889 0
M  V30 17485 C 1664.28 -1.4454 0.676778 0
M  V30 17486 C 1664.48 -1.86591 -0.760656 0
M  V30 17487 O 1663.53 -2.00538 -1.5343 0
M  V30 17488 C 1664.85 -2.50546 1.66274 0
M  V30 17489 C 1666.4 -2.64372 1.67561 0
M  V30 17490 C 1666.87 -3.73577 2.6496 0
M  V30 17491 N 1668.36 -3.81007 2.63416 0
M  V30 17492 C 1669.1 -4.65037 3.35452 0
M  V30 17493 N 1668.59 -5.53238 4.17013 0
M  V30 17494 N 1670.39 -4.59138 3.24266 0
M  V30 17495 H 1662.54 -0.952237 1.89858 0
M  V30 17496 H 1664.8 -0.479972 0.817515 0
M  V30 17497 H 1664.51 -2.26541 2.6902 0
M  V30 17498 H 1664.38 -3.48745 1.43724 0
M  V30 17499 H 1666.77 -2.87733 0.655247 0
M  V30 17500 H 1666.85 -1.66523 1.94174 0
M  V30 17501 H 1666.49 -3.50965 3.67132 0
M  V30 17502 H 1666.42 -4.70944 2.35626 0
M  V30 17503 H 1668.91 -3.17969 2.04216 0
M  V30 17504 H 1669.23 -6.1432 4.68861 0
M  V30 17505 H 1667.57 -5.52896 4.21107 0
M  V30 17506 H 1670.76 -3.89247 2.60008 0
M  V30 17507 H 1670.93 -5.24399 3.8067 0
M  V30 17508 N 1664.34 -0.740267 -1.39132 0
M  V30 17509 C 1665.3 -0.112183 -2.28925 0
M  V30 17510 C 1666.3 0.661598 -1.46559 0
M  V30 17511 O 1667.49 0.489835 -1.67171 0
M  V30 17512 C 1664.63 0.850121 -3.3013 0
M  V30 17513 H 1665.82 -0.903339 -2.85972 0
M  V30 17514 H 1663.37 -0.506427 -1.47868 0
M  V30 17515 H 1664.11 1.66744 -2.78149 0
M  V30 17516 H 1663.89 0.297847 -3.90967 0
M  V30 17517 H 1665.38 1.28599 -3.97306 0
M  V30 17518 N 1665.82 1.49844 -0.488302 0
M  V30 17519 C 1666.77 2.25802 0.315853 0
M  V30 17520 C 1667.75 1.30108 0.946606 0
M  V30 17521 O 1668.94 1.54908 0.856306 0
M  V30 17522 C 1666.07 3.14024 1.38723 0
M  V30 17523 C 1665.16 4.17174 0.763348 0
M  V30 17524 N 1665.55 5.05642 -0.126544 0
M  V30 17525 C 1663.85 4.34053 1.02537 0
M  V30 17526 C 1664.55 5.79696 -0.482379 0
M  V30 17527 N 1663.53 5.43402 0.146639 0
M  V30 17528 H 1667.33 2.91569 -0.369397 0
M  V30 17529 H 1664.84 1.59538 -0.30355 0
M  V30 17530 H 1666.84 3.67061 1.97666 0
M  V30 17531 H 1665.5 2.49807 2.07429 0
M  V30 17532 H 1666.51 5.15514 -0.49653 0
M  V30 17533 H 1663.19 3.81048 1.70613 0
M  V30 17534 H 1664.58 6.60921 -1.20965 0
M  V30 17535 N 1667.3 0.221601 1.56034 0
M  V30 17536 C 1668.52 -0.414945 2.02696 0
M  V30 17537 C 1668.94 -1.53344 1.10141 0
M  V30 17538 O 1668.3 -1.82162 0.111026 0
M  V30 17539 C 1668.35 -0.946532 3.48888 0
M  V30 17540 O 1668.07 0.12737 4.37915 0
M  V30 17541 C 1669.57 -1.65631 4.11195 0
M  V30 17542 H 1666.79 -0.101548 0.663271 0
M  V30 17543 H 1669.33 0.338069 2.01686 0
M  V30 17544 H 1667.49 -1.64982 3.50514 0
M  V30 17545 H 1667.9 -0.272211 5.23793 0
M  V30 17546 H 1669.38 -1.98027 5.15257 0
M  V30 17547 H 1669.85 -2.56947 3.56195 0
M  V30 17548 H 1670.46 -0.998231 4.13419 0
M  V30 17549 N 1668.77 -1.57515 -0.0517878 0
M  V30 17550 C 1670 -1.92177 -0.758384 0
M  V30 17551 C 1670.41 -0.817721 -1.70616 0
M  V30 17552 O 1669.76 0.216391 -1.82421 0
M  V30 17553 C 1669.82 -3.22471 -1.58912 0
M  V30 17554 C 1669.48 -4.4979 -0.808569 0
M  V30 17555 C 1670.48 -5.19764 -0.118871 0
M  V30 17556 C 1668.16 -4.96366 -0.769824 0
M  V30 17557 C 1670.16 -6.34578 0.599123 0
M  V30 17558 C 1667.84 -6.11081 -0.0480698 0
M  V30 17559 C 1668.84 -6.8004 0.635185 0
M  V30 17560 O 1668.53 -7.92564 1.34527 0
M  V30 17561 H 1668.26 -0.639335 -0.219607 0
M  V30 17562 H 1670.82 -2.0539 -0.0202648 0
M  V30 17563 H 1669.05 -3.05522 -2.37051 0
M  V30 17564 H 1670.74 -3.4263 -2.17622 0
M  V30 17565 H 1671.5 -4.84798 -0.139982 0
M  V30 17566 H 1667.38 -4.42551 -1.29112 0
M  V30 17567 H 1670.92 -6.88338 1.13298 0
M  V30 17568 H 1666.82 -6.45495 -0.0249563 0
M  V30 17569 H 1667.59 -8.08797 1.2566 0
M  V30 17570 N 1670.25 0.323614 -1.54242 0
M  V30 17571 C 1671.67 0.66795 -1.4495 0
M  V30 17572 C 1671.87 1.91649 -0.622338 0
M  V30 17573 O 1670.93 2.52209 -0.121119 0
M  V30 17574 C 1672.24 0.842006 -2.88671 0
M  V30 17575 C 1673.79 0.93935 -2.98572 0
M  V30 17576 C 1674.26 1.14557 -4.43442 0
M  V30 17577 N 1675.75 1.21231 -4.47054 0
M  V30 17578 C 1676.49 1.38976 -5.56303 0
M  V30 17579 N 1675.98 1.53764 -6.75521 0
M  V30 17580 N 1677.78 1.41684 -5.4395 0
M  V30 17581 H 1669.93 -0.497017 -2.06503 0
M  V30 17582 H 1672.19 -0.160563 -0.934304 0
M  V30 17583 H 1671.9 -0.00418568 -3.517 0
M  V30 17584 H 1671.77 1.73785 -3.34782 0
M  V30 17585 H 1674.16 1.77605 -2.35671 0
M  V30 17586 H 1674.24 0.0199775 -2.55792 0
M  V30 17587 H 1673.88 0.313732 -5.0693 0
M  V30 17588 H 1673.81 2.07882 -4.83831 0
M  V30 17589 H 1676.3 1.11247 -3.61154 0
M  V30 17590 H 1676.62 1.66996 -7.54541 0
M  V30 17591 H 1674.96 1.50862 -6.78429 0
M  V30 17592 H 1678.15 1.29726 -4.49765 0
M  V30 17593 H 1678.33 1.5517 -6.29147 0
M  V30 17594 N 1671.73 1.46313 0.585673 0
M  V30 17595 C 1672.66 1.59511 1.70524 0
M  V30 17596 C 1673.64 0.445578 1.6416 0
M  V30 17597 O 1674.83 0.671455 1.82223 0
M  V30 17598 C 1671.96 1.58229 3.09162 0
M  V30 17599 C 1670.91 2.72122 3.30354 0
M  V30 17600 C 1670.24 2.559 4.69489 0
M  V30 17601 C 1671.54 4.13969 3.18476 0
M  V30 17602 H 1673.23 2.53229 1.59735 0
M  V30 17603 H 1670.78 1.2187 0.767046 0
M  V30 17604 H 1672.73 1.66056 3.87303 0
M  V30 17605 H 1671.45 0.610535 3.20843 0
M  V30 17606 H 1670.11 2.63759 2.54611 0
M  V30 17607 H 1669.76 1.56814 4.77931 0
M  V30 17608 H 1669.46 3.32289 4.84621 0
M  V30 17609 H 1670.99 2.65613 5.49802 0
M  V30 17610 H 1672.4 4.23459 3.86465 0
M  V30 17611 H 1670.8 4.90922 3.45131 0
M  V30 17612 H 1671.87 4.34334 2.15598 0
M  V30 17613 N 1673.21 -0.830057 1.33969 0
M  V30 17614 C 1674.14 -1.95557 1.27592 0
M  V30 17615 C 1675.12 -1.69395 0.154745 0
M  V30 17616 O 1676.31 -1.91094 0.345954 0
M  V30 17617 C 1673.44 -3.31881 1.02335 0
M  V30 17618 C 1672.39 -3.72464 2.10842 0
M  V30 17619 C 1671.72 -5.06692 1.70785 0
M  V30 17620 C 1673.02 -3.85315 3.52604 0
M  V30 17621 H 1674.71 -2.0115 2.21763 0
M  V30 17622 H 1672.26 -0.96639 1.06756 0
M  V30 17623 H 1674.21 -4.10197 0.965206 0
M  V30 17624 H 1672.93 -3.26568 0.0460462 0
M  V30 17625 H 1671.59 -2.96417 2.15714 0
M  V30 17626 H 1671.24 -4.97859 0.717334 0
M  V30 17627 H 1670.94 -5.34817 2.43403 0
M  V30 17628 H 1672.46 -5.87474 1.66452 0
M  V30 17629 H 1673.88 -4.5392 3.50185 0
M  V30 17630 H 1672.27 -4.24886 4.23783 0
M  V30 17631 H 1673.34 -2.87514 3.90466 0
M  V30 17632 N 1674.69 -1.17582 -1.04939 0
M  V30 17633 C 1675.94 -0.96387 -1.77634 0
M  V30 17634 C 1676.26 0.508548 -1.88252 0
M  V30 17635 O 1675.53 1.36913 -1.40113 0
M  V30 17636 H 1674.11 -0.353636 -0.65799 0
M  V30 17637 H 1676.77 -1.48104 -1.26693 0
M  V30 17638 H 1675.86 -1.39438 -2.79219 0
M  V30 17639 N 1676.17 1.23705 -0.976463 0
M  V30 17640 C 1677.12 2.22789 -0.484676 0
M  V30 17641 C 1678.1 1.5482 0.43814 0
M  V30 17642 O 1679.29 1.74965 0.267635 0
M  V30 17643 C 1676.42 3.42624 0.21541 0
M  V30 17644 C 1675.51 4.17827 -0.726745 0
M  V30 17645 N 1675.9 4.70053 -1.86771 0
M  V30 17646 C 1674.2 4.42728 -0.539282 0
M  V30 17647 C 1674.9 5.27229 -2.45773 0
M  V30 17648 N 1673.87 5.14932 -1.742 0
M  V30 17649 H 1677.67 2.60795 -1.35511 0
M  V30 17650 H 1675.19 1.39191 -0.836644 0
M  V30 17651 H 1677.19 4.12775 0.585009 0
M  V30 17652 H 1675.85 3.06135 1.08218 0
M  V30 17653 H 1676.86 4.66519 -2.24901 0
M  V30 17654 H 1673.53 4.16541 0.282799 0
M  V30 17655 H 1674.92 5.78284 -3.42106 0
M  V30 17656 N 1677.64 0.747635 1.38738 0
M  V30 17657 C 1678.57 0.131317 2.3313 0
M  V30 17658 C 1679.55 -0.710229 1.54563 0
M  V30 17659 O 1680.74 -0.652631 1.82905 0
M  V30 17660 C 1677.87 -0.767168 3.38721 0
M  V30 17661 C 1676.82 -0.0288124 4.2799 0
M  V30 17662 C 1676.15 -1.04515 5.24386 0
M  V30 17663 C 1677.45 1.13608 5.09795 0
M  V30 17664 H 1679.14 0.91981 2.84921 0
M  V30 17665 H 1676.69 0.443764 1.36992 0
M  V30 17666 H 1678.64 -1.20796 4.03716 0
M  V30 17667 H 1677.37 -1.58792 2.85399 0
M  V30 17668 H 1676.03 0.392491 3.64493 0
M  V30 17669 H 1675.67 -1.8598 4.67355 0
M  V30 17670 H 1675.37 -0.555813 5.84965 0
M  V30 17671 H 1676.9 -1.48538 5.92257 0
M  V30 17672 H 1678.31 0.773129 5.68063 0
M  V30 17673 H 1676.71 1.55589 5.79579 0
M  V30 17674 H 1677.78 1.95182 4.43883 0
M  V30 17675 N 1679.12 -1.49583 0.496242 0
M  V30 17676 C 1680.05 -2.31885 -0.274139 0
M  V30 17677 C 1681.03 -1.39939 -0.96701 0
M  V30 17678 O 1682.22 -1.6885 -0.959333 0
M  V30 17679 C 1679.35 -3.20332 -1.34181 0
M  V30 17680 C 1678.3 -4.21033 -0.769091 0
M  V30 17681 C 1677.63 -4.98385 -1.93693 0
M  V30 17682 C 1678.93 -5.21764 0.236648 0
M  V30 17683 H 1680.62 -2.9654 0.412824 0
M  V30 17684 H 1678.17 -1.42605 0.199979 0
M  V30 17685 H 1680.12 -3.76718 -1.88843 0
M  V30 17686 H 1678.84 -2.53611 -2.05789 0
M  V30 17687 H 1677.5 -3.65785 -0.244252 0
M  V30 17688 H 1677.15 -4.28115 -2.64058 0
M  V30 17689 H 1676.85 -5.66519 -1.55981 0
M  V30 17690 H 1678.38 -5.57613 -2.48798 0
M  V30 17691 H 1679.79 -5.72871 -0.221672 0
M  V30 17692 H 1678.19 -5.97761 0.529346 0
M  V30 17693 H 1679.26 -4.70964 1.15415 0
M  V30 17694 N 1680.6 -0.229873 -1.55915 0
M  V30 17695 C 1681.53 0.70927 -2.1795 0
M  V30 17696 C 1682.54 1.15142 -1.15092 0
M  V30 17697 O 1683.73 1.08114 -1.42034 0
M  V30 17698 C 1680.83 1.97359 -2.75504 0
M  V30 17699 C 1680.01 1.68565 -4.03614 0
M  V30 17700 C 1679.07 2.79786 -4.45652 0
M  V30 17701 O 1678.09 2.479 -5.12381 0
M  V30 17702 N 1679.29 4.08921 -4.12024 0
M  V30 17703 H 1682.06 0.178573 -2.99168 0
M  V30 17704 H 1679.62 -0.0491789 -1.61825 0
M  V30 17705 H 1681.61 2.70972 -3.00593 0
M  V30 17706 H 1680.18 2.41454 -1.98542 0
M  V30 17707 H 1679.4 0.785547 -3.86294 0
M  V30 17708 H 1680.69 1.46769 -4.87172 0
M  V30 17709 H 1680.09 4.37667 -3.58419 0
M  V30 17710 H 1678.64 4.79052 -4.41987 0
M  V30 17711 N 1682.08 1.5754 0.0434337 0
M  V30 17712 C 1683.03 2.0207 1.05602 0
M  V30 17713 C 1684.01 0.907491 1.32866 0
M  V30 17714 O 1685.2 1.17141 1.32692 0
M  V30 17715 C 1682.33 2.49176 2.36149 0
M  V30 17716 C 1681.42 3.67289 2.12037 0
M  V30 17717 N 1681.81 4.8051 1.57937 0
M  V30 17718 C 1680.11 3.74386 2.42387 0
M  V30 17719 C 1680.81 5.62214 1.49298 0
M  V30 17720 N 1679.78 5.06899 1.96353 0
M  V30 17721 H 1683.59 2.87035 0.631515 0
M  V30 17722 H 1681.1 1.60464 0.250012 0
M  V30 17723 H 1683.1 2.79331 3.09483 0
M  V30 17724 H 1681.76 1.65611 2.79291 0
M  V30 17725 H 1682.77 5.02237 1.26405 0
M  V30 17726 H 1679.45 3.01592 2.88701 0
M  V30 17727 H 1680.84 6.6315 1.08082 0
M  V30 17728 N 1683.56 -0.31543 1.54411 0
M  V30 17729 C 1684.78 -1.0761 1.77299 0
M  V30 17730 C 1685.21 -1.80655 0.523963 0
M  V30 17731 O 1684.56 -1.73536 -0.524874 0
M  V30 17732 C 1684.61 -2.04355 2.97105 0
M  V30 17733 O 1683.72 -3.12401 2.69219 0
M  V30 17734 H 1683.06 -0.30986 0.587267 0
M  V30 17735 H 1685.59 -0.357246 2.01457 0
M  V30 17736 H 1685.6 -2.47081 3.24677 0
M  V30 17737 H 1684.27 -1.50592 3.87679 0
M  V30 17738 H 1682.85 -2.74294 2.52621 0
M  V30 17739 N 1685.03 -1.46622 -0.577906 0
M  V30 17740 C 1685.97 -1.52068 -1.70148 0
M  V30 17741 C 1686.95 -0.374405 -1.58231 0
M  V30 17742 O 1688.13 -0.579245 -1.79379 0
M  V30 17743 C 1685.26 -1.40377 -3.0824 0
M  V30 17744 C 1684.3 -2.59247 -3.38664 0
M  V30 17745 S 1685.14 -4.21576 -3.30203 0
M  V30 17746 C 1686.29 -4.12401 -4.70825 0
M  V30 17747 H 1686.52 -2.4713 -1.6527 0
M  V30 17748 H 1684.06 -1.34567 -0.757045 0
M  V30 17749 H 1686.02 -1.34318 -3.87903 0
M  V30 17750 H 1684.68 -0.467354 -3.10604 0
M  V30 17751 H 1683.87 -2.47073 -4.39285 0
M  V30 17752 H 1683.47 -2.6232 -2.66579 0
M  V30 17753 H 1685.76 -3.79378 -5.61319 0
M  V30 17754 H 1686.71 -5.13037 -4.88056 0
M  V30 17755 H 1687.11 -3.43578 -4.479 0
M  V30 17756 N 1686.51 0.822941 -1.34408 0
M  V30 17757 C 1687.48 1.91541 -1.25876 0
M  V30 17758 C 1688.48 1.59856 -0.17397 0
M  V30 17759 O 1689.67 1.68896 -0.426592 0
M  V30 17760 C 1686.8 3.27586 -0.943415 0
M  V30 17761 H 1687.99 2.00529 -2.22998 0
M  V30 17762 H 1685.54 1.01691 -1.18695 0
M  V30 17763 H 1686.28 3.24291 0.0246389 0
M  V30 17764 H 1686.06 3.51966 -1.72807 0
M  V30 17765 H 1687.55 4.07589 -0.908891 0
M  V30 17766 N 1687.99 1.18137 1.04314 0
M  V30 17767 C 1688.92 0.929593 2.14198 0
M  V30 17768 C 1689.9 -0.131766 1.69589 0
M  V30 17769 O 1691.09 0.0203104 1.94189 0
M  V30 17770 C 1688.22 0.451799 3.44349 0
M  V30 17771 C 1687.17 1.45336 4.02569 0
M  V30 17772 C 1686.5 0.833176 5.28169 0
M  V30 17773 C 1687.8 2.8293 4.39031 0
M  V30 17774 H 1689.49 1.84856 2.35518 0
M  V30 17775 H 1687.04 0.890217 1.13186 0
M  V30 17776 H 1688.99 0.26303 4.20578 0
M  V30 17777 H 1687.71 -0.502725 3.22708 0
M  V30 17778 H 1686.37 1.62902 3.28418 0
M  V30 17779 H 1686.02 -0.128459 5.02836 0
M  V30 17780 H 1685.72 1.50185 5.68083 0
M  V30 17781 H 1687.24 0.654881 6.07078 0
M  V30 17782 H 1688.66 2.6903 5.06257 0
M  V30 17783 H 1687.06 3.46458 4.89987 0
M  V30 17784 H 1688.13 3.3667 3.48972 0
M  V30 17785 N 1689.47 -1.23186 0.98301 0
M  V30 17786 C 1690.88 -1.43814 0.69207 0
M  V30 17787 C 1691.08 -1.87387 -0.740823 0
M  V30 17788 O 1690.14 -2.02154 -1.51295 0
M  V30 17789 C 1691.45 -2.48769 1.68922 0
M  V30 17790 C 1693 -2.62579 1.70356 0
M  V30 17791 C 1693.48 -3.70746 2.68908 0
M  V30 17792 N 1694.97 -3.78192 2.67442 0
M  V30 17793 C 1695.7 -4.61453 3.40366 0
M  V30 17794 N 1695.2 -5.48784 4.22857 0
M  V30 17795 N 1696.99 -4.55673 3.29118 0
M  V30 17796 H 1689.14 -0.932046 1.90858 0
M  V30 17797 H 1691.41 -0.471274 0.82256 0
M  V30 17798 H 1691.11 -2.23675 2.71408 0
M  V30 17799 H 1690.99 -3.47201 1.47415 0
M  V30 17800 H 1693.37 -2.87022 0.685728 0
M  V30 17801 H 1693.45 -1.64454 1.9593 0
M  V30 17802 H 1693.1 -3.47051 3.70834 0
M  V30 17803 H 1693.03 -4.68418 2.40607 0
M  V30 17804 H 1695.52 -3.15785 2.07577 0
M  V30 17805 H 1695.83 -6.09312 4.75351 0
M  V30 17806 H 1694.18 -5.48398 4.26948 0
M  V30 17807 H 1697.37 -3.86468 2.64122 0
M  V30 17808 H 1697.54 -5.20332 3.8621 0
M  V30 17809 N 1690.95 -0.754982 -1.38339 0
M  V30 17810 C 1692.19 -0.311146 -1.9969 0
M  V30 17811 C 1692.52 1.11138 -1.60229 0
M  V30 17812 O 1691.79 1.76024 -0.859794 0
M  V30 17813 H 1690.37 -0.112052 -0.738548 0
M  V30 17814 H 1693.03 -0.969386 -1.69083 0
M  V30 17815 H 1692.12 -0.375392 -3.09834 0
M  V30 17816 N 1692.42 1.49318 -0.504168 0
M  V30 17817 C 1693.39 2.27703 0.26157 0
M  V30 17818 C 1694.39 1.3385 0.891114 0
M  V30 17819 O 1695.58 1.56981 0.755156 0
M  V30 17820 C 1692.71 3.11912 1.37564 0
M  V30 17821 H 1693.9 2.96855 -0.426292 0
M  V30 17822 H 1691.46 1.54135 -0.259236 0
M  V30 17823 H 1692.19 2.47332 2.09755 0
M  V30 17824 H 1691.98 3.8092 0.929641 0
M  V30 17825 H 1693.47 3.71106 1.91494 0
M  V30 17826 N 1693.9 0.238138 1.5579 0
M  V30 17827 C 1694.83 -0.659451 2.23994 0
M  V30 17828 C 1695.81 -1.18817 1.21723 0
M  V30 17829 O 1697 -1.22913 1.50353 0
M  V30 17830 C 1694.13 -1.86043 2.93267 0
M  V30 17831 C 1693.08 -1.46485 4.02152 0
M  V30 17832 C 1692.41 -2.74595 4.58805 0
M  V30 17833 C 1693.71 -0.642448 5.18334 0
M  V30 17834 H 1695.4 -0.0907522 2.99262 0
M  V30 17835 H 1692.95 -0.042209 1.43938 0
M  V30 17836 H 1694.9 -2.49393 3.39678 0
M  V30 17837 H 1693.63 -2.45436 2.15473 0
M  V30 17838 H 1692.28 -0.854729 3.56497 0
M  V30 17839 H 1691.93 -3.32168 3.77721 0
M  V30 17840 H 1691.63 -2.48854 5.32302 0
M  V30 17841 H 1693.16 -3.38859 5.07944 0
M  V30 17842 H 1694.57 -1.18005 5.61024 0
M  V30 17843 H 1692.97 -0.481458 5.98166 0
M  V30 17844 H 1694.04 0.347298 4.83655 0
M  V30 17845 N 1695.38 -1.57561 -0.0350783 0
M  V30 17846 C 1696.31 -2.02953 -1.06502 0
M  V30 17847 C 1697.33 -0.941331 -1.32826 0
M  V30 17848 O 1698.51 -1.21873 -1.30419 0
M  V30 17849 C 1695.61 -2.38471 -2.40801 0
M  V30 17850 C 1694.79 -3.69596 -2.33917 0
M  V30 17851 C 1693.85 -3.9237 -3.50616 0
M  V30 17852 O 1692.87 -4.63504 -3.30382 0
M  V30 17853 N 1694.07 -3.37544 -4.72275 0
M  V30 17854 H 1696.84 -2.91926 -0.678169 0
M  V30 17855 H 1694.4 -1.60355 -0.22313 0
M  V30 17856 H 1696.39 -2.50849 -3.1758 0
M  V30 17857 H 1694.96 -1.55199 -2.71352 0
M  V30 17858 H 1694.18 -3.67629 -1.42277 0
M  V30 17859 H 1695.47 -4.55627 -2.26455 0
M  V30 17860 H 1694.87 -2.79875 -4.91616 0
M  V30 17861 H 1693.43 -3.55312 -5.4644 0
M  V30 17862 N 1696.86 0.307236 -1.54576 0
M  V30 17863 C 1698.08 1.06668 -1.77867 0
M  V30 17864 C 1698.51 1.80375 -0.533536 0
M  V30 17865 O 1697.87 1.73812 0.515663 0
M  V30 17866 C 1697.91 2.02777 -2.98184 0
M  V30 17867 O 1697.02 3.10969 -2.70872 0
M  V30 17868 H 1696.36 0.306741 -0.588902 0
M  V30 17869 H 1698.89 0.346557 -2.01644 0
M  V30 17870 H 1698.9 2.45355 -3.25983 0
M  V30 17871 H 1697.57 1.48534 -3.88472 0
M  V30 17872 H 1696.15 2.7295 -2.54072 0
M  V30 17873 N 1698.34 1.46926 0.570122 0
M  V30 17874 C 1699.27 1.54487 1.69311 0
M  V30 17875 C 1700.28 0.432119 1.5696 0
M  V30 17876 O 1701.47 0.701107 1.64155 0
M  V30 17877 C 1698.57 1.42093 3.07673 0
M  V30 17878 C 1697.74 2.6771 3.45905 0
M  V30 17879 C 1696.8 2.49336 4.63377 0
M  V30 17880 O 1695.83 3.23107 4.68605 0
M  V30 17881 N 1697.03 1.56319 5.59057 0
M  V30 17882 H 1699.8 2.51319 1.63276 0
M  V30 17883 H 1697.36 1.43142 0.756434 0
M  V30 17884 H 1699.35 1.27554 3.84073 0
M  V30 17885 H 1697.92 0.533945 3.08006 0
M  V30 17886 H 1697.14 2.97102 2.59083 0
M  V30 17887 H 1698.43 3.51131 3.68218 0
M  V30 17888 H 1697.82 0.955109 5.57579 0
M  V30 17889 H 1696.38 1.47738 6.34836 0
M  V30 17890 N 1699.82 -0.815801 1.34842 0
M  V30 17891 C 1701.04 -1.60915 1.30848 0
M  V30 17892 C 1701.47 -1.87758 -0.113345 0
M  V30 17893 O 1700.82 -1.4582 -1.07732 0
M  V30 17894 C 1700.87 -2.92284 2.11192 0
M  V30 17895 O 1699.98 -3.84685 1.48632 0
M  V30 17896 H 1699.32 -0.48913 0.449052 0
M  V30 17897 H 1701.85 -1.01322 1.7775 0
M  V30 17898 H 1701.86 -3.41789 2.2281 0
M  V30 17899 H 1700.53 -2.72071 3.14563 0
M  V30 17900 H 1699.11 -3.43215 1.458 0
M  V30 17901 N 1701.29 -1.18689 -1.03686 0
M  V30 17902 C 1702.54 -0.982656 -1.76602 0
M  V30 17903 C 1702.86 0.488553 -1.88781 0
M  V30 17904 O 1702.13 1.35419 -1.41558 0
M  V30 17905 H 1700.71 -0.360595 -0.654202 0
M  V30 17906 H 1703.37 -1.49439 -1.25115 0
M  V30 17907 H 1702.47 -1.42392 -2.77725 0
M  V30 17908 N 1702.77 1.22662 -0.989529 0
M  V30 17909 C 1703.7 2.26762 -0.556891 0
M  V30 17910 C 1704.68 1.64971 0.414538 0
M  V30 17911 O 1705.87 1.91775 0.305909 0
M  V30 17912 C 1703 3.47047 0.132573 0
M  V30 17913 C 1701.95 4.21251 -0.757058 0
M  V30 17914 C 1701.28 5.3466 0.065134 0
M  V30 17915 C 1702.58 4.8029 -2.05229 0
M  V30 17916 H 1704.27 2.63204 -1.42703 0
M  V30 17917 H 1701.82 1.26522 -0.687614 0
M  V30 17918 H 1703.77 4.19027 0.446609 0
M  V30 17919 H 1702.49 3.09692 1.03723 0
M  V30 17920 H 1701.15 3.51101 -1.05469 0
M  V30 17921 H 1700.8 4.93547 0.970607 0
M  V30 17922 H 1700.5 5.85231 -0.527063 0
M  V30 17923 H 1702.03 6.09458 0.373342 0
M  V30 17924 H 1703.44 5.44229 -1.80242 0
M  V30 17925 H 1701.84 5.41186 -2.59302 0
M  V30 17926 H 1702.91 4.00529 -2.73322 0
M  V30 17927 N 1704.25 0.762308 1.37937 0
M  V30 17928 C 1705.18 0.156036 2.32978 0
M  V30 17929 C 1706.16 -0.693795 1.55308 0
M  V30 17930 O 1707.35 -0.633195 1.83587 0
M  V30 17931 C 1704.48 -0.731199 3.39515 0
M  V30 17932 C 1703.43 0.0165834 4.27997 0
M  V30 17933 C 1702.76 -0.989476 5.25465 0
M  V30 17934 C 1704.06 1.19009 5.08561 0
M  V30 17935 H 1705.75 0.949978 2.83929 0
M  V30 17936 H 1703.3 0.458269 1.36513 0
M  V30 17937 H 1705.25 -1.16507 4.04974 0
M  V30 17938 H 1703.97 -1.55756 2.87067 0
M  V30 17939 H 1702.63 0.431128 3.64056 0
M  V30 17940 H 1702.28 -1.81013 4.69301 0
M  V30 17941 H 1701.98 -0.493738 5.85522 0
M  V30 17942 H 1703.5 -1.42248 5.93799 0
M  V30 17943 H 1704.92 0.833336 5.67211 0
M  V30 17944 H 1703.31 1.61727 5.77896 0
M  V30 17945 H 1704.38 1.99879 4.41788 0
M  V30 17946 N 1705.73 -1.49049 0.51208 0
M  V30 17947 C 1706.95 -2.07382 -0.0271044 0
M  V30 17948 C 1707.38 -1.3685 -1.29049 0
M  V30 17949 O 1706.74 -0.428713 -1.76158 0
M  V30 17950 C 1706.78 -3.59715 -0.252462 0
M  V30 17951 O 1705.89 -3.90538 -1.32491 0
M  V30 17952 H 1705.23 -0.663269 0.0311507 0
M  V30 17953 H 1707.76 -1.91705 0.714873 0
M  V30 17954 H 1707.77 -4.05159 -0.480603 0
M  V30 17955 H 1706.44 -4.10459 0.670531 0
M  V30 17956 H 1705.02 -3.56892 -1.08085 0
M  V30 17957 N 1707.21 -0.246397 -1.55662 0
M  V30 17958 C 1708.14 0.647563 -2.24341 0
M  V30 17959 C 1709.12 1.1817 -1.22352 0
M  V30 17960 O 1710.3 1.22114 -1.51003 0
M  V30 17961 C 1707.43 1.84485 -2.94249 0
M  V30 17962 C 1706.39 1.4435 -4.02923 0
M  V30 17963 C 1705.71 2.72158 -4.60255 0
M  V30 17964 C 1707.01 0.614951 -5.18667 0
M  V30 17965 H 1708.71 0.0748803 -2.99306 0
M  V30 17966 H 1706.25 0.034575 -1.43958 0
M  V30 17967 H 1708.2 2.47588 -3.40995 0
M  V30 17968 H 1706.93 2.4429 -2.16772 0
M  V30 17969 H 1705.59 0.835811 -3.56945 0
M  V30 17970 H 1705.24 3.3016 -3.79478 0
M  V30 17971 H 1704.94 2.46028 -5.33614 0
M  V30 17972 H 1706.46 3.36161 -5.09734 0
M  V30 17973 H 1707.87 1.15028 -5.61642 0
M  V30 17974 H 1706.27 0.449729 -5.98412 0
M  V30 17975 H 1707.34 -0.372943 -4.83464 0
M  V30 17976 N 1708.68 1.57577 0.026722 0
M  V30 17977 C 1709.61 2.09748 1.02605 0
M  V30 17978 C 1710.59 1.00054 1.37562 0
M  V30 17979 O 1711.78 1.2759 1.46405 0
M  V30 17980 C 1708.91 2.57881 2.32626 0
M  V30 17981 C 1707.86 3.7186 2.11905 0
M  V30 17982 C 1707.19 4.06208 3.47706 0
M  V30 17983 C 1708.49 5.00198 1.50332 0
M  V30 17984 H 1710.18 2.93494 0.591753 0
M  V30 17985 H 1707.73 1.41188 0.283199 0
M  V30 17986 H 1709.68 2.93 3.02868 0
M  V30 17987 H 1708.41 1.71222 2.7812 0
M  V30 17988 H 1707.07 3.37094 1.44096 0
M  V30 17989 H 1706.71 3.16611 3.90853 0
M  V30 17990 H 1706.41 4.82982 3.34667 0
M  V30 17991 H 1707.94 4.43863 4.19306 0
M  V30 17992 H 1709.35 5.33259 2.10494 0
M  V30 17993 H 1707.75 5.81599 1.4786 0
M  V30 17994 H 1708.82 4.82623 0.469405 0
M  V30 17995 N 1710.16 -0.299034 1.54737 0
M  V30 17996 C 1711.09 -1.37358 1.88826 0
M  V30 17997 C 1712.07 -1.52802 0.747367 0
M  V30 17998 O 1713.26 -1.66277 1.00327 0
M  V30 17999 C 1710.39 -2.73746 2.13729 0
M  V30 18000 C 1709.34 -2.73065 3.29575 0
M  V30 18001 C 1708.67 -4.12761 3.39901 0
M  V30 18002 C 1709.97 -2.34631 4.66632 0
M  V30 18003 H 1711.66 -1.09077 2.78824 0
M  V30 18004 H 1709.21 -0.523276 1.34156 0
M  V30 18005 H 1711.16 -3.49006 2.36162 0
M  V30 18006 H 1709.88 -3.03556 1.20504 0
M  V30 18007 H 1708.54 -2.00261 3.07068 0
M  V30 18008 H 1708.19 -4.39751 2.44189 0
M  V30 18009 H 1707.89 -4.13205 4.17774 0
M  V30 18010 H 1709.42 -4.89797 3.64597 0
M  V30 18011 H 1710.83 -2.99608 4.88782 0
M  V30 18012 H 1709.23 -2.46285 5.47233 0
M  V30 18013 H 1710.3 -1.29759 4.67216 0
M  V30 18014 N 1711.64 -1.47227 -0.562322 0
M  V30 18015 C 1712.57 -1.62204 -1.67965 0
M  V30 18016 C 1713.55 -0.471638 -1.63431 0
M  V30 18017 O 1714.74 -0.70036 -1.81131 0
M  V30 18018 C 1711.87 -1.63127 -3.06605 0
M  V30 18019 C 1710.82 -2.77343 -3.25983 0
M  V30 18020 C 1710.15 -2.63336 -4.65358 0
M  V30 18021 C 1711.45 -4.18983 -3.1185 0
M  V30 18022 H 1713.14 -2.55739 -1.55686 0
M  V30 18023 H 1710.69 -1.23075 -0.747561 0
M  V30 18024 H 1712.64 -1.72197 -3.84612 0
M  V30 18025 H 1711.36 -0.661501 -3.19831 0
M  V30 18026 H 1710.02 -2.67776 -2.50383 0
M  V30 18027 H 1709.67 -1.64398 -4.75376 0
M  V30 18028 H 1709.37 -3.39957 -4.79273 0
M  V30 18029 H 1710.89 -2.74327 -5.45506 0
M  V30 18030 H 1712.31 -4.29554 -3.79679 0
M  V30 18031 H 1710.7 -4.96351 -3.37277 0
M  V30 18032 H 1711.77 -4.37709 -2.08661 0
M  V30 18033 N 1713.12 0.808639 -1.35273 0
M  V30 18034 C 1714.37 1.56253 -1.28177 0
M  V30 18035 C 1714.69 1.94466 0.144151 0
M  V30 18036 O 1713.96 1.63433 1.08011 0
M  V30 18037 H 1712.54 0.579431 -0.471454 0
M  V30 18038 H 1715.2 0.964675 -1.69352 0
M  V30 18039 H 1714.29 2.47888 -1.89625 0
M  V30 18040 N 1714.6 1.19237 1.03055 0
M  V30 18041 C 1715.53 0.95226 2.132 0
M  V30 18042 C 1716.51 -0.113771 1.69719 0
M  V30 18043 O 1717.69 0.0409057 1.94157 0
M  V30 18044 C 1714.82 0.488296 3.4385 0
M  V30 18045 C 1713.78 1.49597 4.01005 0
M  V30 18046 C 1713.1 0.889148 5.27255 0
M  V30 18047 C 1714.4 2.87571 4.36005 0
M  V30 18048 H 1716.1 1.87343 2.33544 0
M  V30 18049 H 1713.64 0.902172 1.12236 0
M  V30 18050 H 1715.6 0.307623 4.20276 0
M  V30 18051 H 1714.32 -0.468469 3.23223 0
M  V30 18052 H 1712.98 1.66376 3.26672 0
M  V30 18053 H 1712.63 -0.0751191 5.02944 0
M  V30 18054 H 1712.33 1.56202 5.66458 0
M  V30 18055 H 1713.85 0.719233 6.06349 0
M  V30 18056 H 1715.26 2.74384 5.03375 0
M  V30 18057 H 1713.66 3.51635 4.86285 0
M  V30 18058 H 1714.73 3.40353 3.45381 0
M  V30 18059 N 1716.07 -1.22136 0.99602 0
M  V30 18060 C 1717.32 -1.9059 0.672303 0
M  V30 18061 C 1717.64 -1.77903 -0.798476 0
M  V30 18062 O 1716.91 -1.1682 -1.57257 0
M  V30 18063 H 1715.49 -0.705445 0.245676 0
M  V30 18064 H 1718.16 -1.48423 1.2632 0
M  V30 18065 H 1717.25 -2.97684 0.937577 0
M  V30 18066 N 1717.55 -0.769612 -1.37531 0
M  V30 18067 C 1718.83 -0.257788 -1.93894 0
M  V30 18068 C 1719.21 1.24679 -1.70348 0
M  V30 18069 O 1718.56 2.02892 -1.05106 0
M  V30 18070 C 1718.77 -0.628857 -3.43288 0
M  V30 18071 C 1720.12 -0.597452 -4.20376 0
M  V30 18072 O 1721.14 -0.568117 -3.5164 0
M  V30 18073 O 1720 -0.622627 -5.42942 0
M  V30 18074 H 1717.09 -0.0588144 -0.824906 0
M  V30 18075 H 1719.64 -0.85082 -1.4683 0
M  V30 18076 H 1718.41 -1.66733 -3.54 0
M  V30 18077 H 1718.03 -0.00865929 -3.97599 0
M  V30 18078 N 1719.03 1.48775 -0.519977 0
M  V30 18079 C 1719.98 2.29461 0.248242 0
M  V30 18080 C 1720.95 1.36734 0.943027 0
M  V30 18081 O 1722.13 1.65697 0.946003 0
M  V30 18082 C 1719.27 3.19868 1.29531 0
M  V30 18083 C 1718.39 4.27666 0.610379 0
M  V30 18084 C 1717.52 5.05266 1.63951 0
M  V30 18085 C 1716.56 6.04878 0.937496 0
M  V30 18086 N 1715.7 6.75573 1.91171 0
M  V30 18087 H 1720.54 2.94643 -0.446016 0
M  V30 18088 H 1718.07 1.45262 -0.231792 0
M  V30 18089 H 1720.03 3.70675 1.91456 0
M  V30 18090 H 1718.66 2.5663 1.95808 0
M  V30 18091 H 1717.71 3.80202 -0.122598 0
M  V30 18092 H 1719.03 4.98765 0.0586864 0
M  V30 18093 H 1718.18 5.60037 2.33332 0
M  V30 18094 H 1716.92 4.33983 2.22509 0
M  V30 18095 H 1715.92 5.49321 0.229562 0
M  V30 18096 H 1717.15 6.78155 0.358166 0
M  V30 18097 H 1715.09 6.07048 2.48655 0
M  V30 18098 H 1715.01 7.42712 1.41118 0
M  V30 18099 H 1716.28 7.34938 2.59781 0
M  V30 18100 N 1720.51 0.254649 1.55529 0
M  V30 18101 C 1721.79 -0.418663 1.91067 0
M  V30 18102 C 1722.17 -1.75284 1.17638 0
M  V30 18103 O 1721.51 -2.26569 0.296411 0
M  V30 18104 C 1721.72 -0.579125 3.44162 0
M  V30 18105 C 1723.07 -0.871451 4.15561 0
M  V30 18106 O 1724.1 -0.664702 3.49943 0
M  V30 18107 O 1722.95 -1.26563 5.31643 0
M  V30 18108 H 1720.05 -0.22593 0.795541 0
M  V30 18109 H 1722.59 0.299288 1.6704 0
M  V30 18110 H 1721.37 0.36062 3.89635 0
M  V30 18111 H 1720.99 -1.34732 3.74076 0
M  V30 18112 N 1721.99 -1.57589 -0.0183649 0
M  V30 18113 C 1723.4 -1.7799 -0.563591 0
M  V30 18114 C 1723.75 -0.887064 -1.75002 0
M  V30 18115 O 1722.87 -0.0846843 -2.16234 0
M  V30 18116 C 1723.47 -3.2279 -1.02919 0
M  V30 18117 C 1722.03 -3.44351 -1.51986 0
M  V30 18118 C 1721.17 -2.73412 -0.462727 0
M  V30 18119 H 1724.13 -1.57333 0.207849 0
M  V30 18120 H 1724.15 -3.29892 -1.89609 0
M  V30 18121 H 1723.66 -3.87747 -0.165487 0
M  V30 18122 H 1721.76 -2.84583 -2.40506 0
M  V30 18123 H 1721.87 -4.52992 -1.55998 0
M  V30 18124 H 1720.24 -2.37496 -0.920211 0
M  V30 18125 H 1721.02 -3.41058 0.391698 0
M  V30 18126 N 1723.46 0.290824 -1.54893 0
M  V30 18127 C 1724.71 1.02627 -1.74916 0
M  V30 18128 C 1725.04 1.86572 -0.538921 0
M  V30 18129 O 1724.32 1.88888 0.463844 0
M  V30 18130 C 1724.6 1.92376 -3.04407 0
M  V30 18131 C 1724.45 1.11542 -4.3575 0
M  V30 18132 C 1725.77 2.91383 -3.29824 0
M  V30 18133 H 1722.89 0.371685 -0.636411 0
M  V30 18134 H 1725.53 0.300072 -1.87615 0
M  V30 18135 H 1723.68 2.54295 -2.93711 0
M  V30 18136 H 1725.36 0.518312 -4.58379 0
M  V30 18137 H 1723.6 0.418386 -4.31778 0
M  V30 18138 H 1724.27 1.77616 -5.22644 0
M  V30 18139 H 1726.75 2.39595 -3.40196 0
M  V30 18140 H 1725.62 3.51338 -4.21726 0
M  V30 18141 H 1725.88 3.65579 -2.48606 0
M  V30 18142 N 1724.94 1.47523 0.554506 0
M  V30 18143 C 1726.19 1.54515 1.3135 0
M  V30 18144 C 1726.52 0.207892 1.93084 0
M  V30 18145 O 1725.8 -0.783749 1.7801 0
M  V30 18146 C 1726.08 2.66519 2.42156 0
M  V30 18147 C 1725.93 4.0987 1.85274 0
M  V30 18148 C 1727.25 2.74418 3.44068 0
M  V30 18149 H 1724.37 0.562481 0.476219 0
M  V30 18150 H 1727.01 1.79591 0.620246 0
M  V30 18151 H 1725.16 2.45268 3.0129 0
M  V30 18152 H 1726.83 4.42492 1.3038 0
M  V30 18153 H 1725.08 4.18021 1.15934 0
M  V30 18154 H 1725.75 4.84017 2.65389 0
M  V30 18155 H 1728.22 2.93596 2.94857 0
M  V30 18156 H 1727.1 3.54557 4.19023 0
M  V30 18157 H 1727.36 1.81584 4.03088 0
M  V30 18158 N 1726.42 -0.801453 1.357 0
M  V30 18159 C 1727.84 -1.09776 1.1585 0
M  V30 18160 C 1728.04 -2.01484 -0.0255653 0
M  V30 18161 O 1727.09 -2.42758 -0.694613 0
M  V30 18162 C 1728.41 -1.72381 2.46385 0
M  V30 18163 C 1729.95 -1.84777 2.52639 0
M  V30 18164 C 1730.43 -2.50797 3.83229 0
M  V30 18165 N 1731.92 -2.58277 3.84509 0
M  V30 18166 C 1732.65 -3.10141 4.82286 0
M  V30 18167 N 1732.15 -3.62404 5.90454 0
M  V30 18168 N 1733.94 -3.08742 4.69718 0
M  V30 18169 H 1726.09 -0.191926 2.11531 0
M  V30 18170 H 1728.36 -0.147742 0.936417 0
M  V30 18171 H 1728.06 -1.12462 3.33234 0
M  V30 18172 H 1727.94 -2.72024 2.6131 0
M  V30 18173 H 1730.32 -2.43837 1.66215 0
M  V30 18174 H 1730.41 -0.839745 2.41624 0
M  V30 18175 H 1730.05 -1.92385 4.70053 0
M  V30 18176 H 1729.98 -3.52147 3.91535 0
M  V30 18177 H 1732.47 -2.21257 3.06356 0
M  V30 18178 H 1732.78 -4.00293 6.61049 0
M  V30 18179 H 1731.13 -3.60588 5.94139 0
M  V30 18180 H 1734.32 -2.67193 3.84351 0
M  V30 18181 H 1734.49 -3.48854 5.46081 0
M  V30 18182 N 1727.9 -1.19782 -1.02421 0
M  V30 18183 C 1729.14 -1.0145 -1.77446 0
M  V30 18184 C 1729.5 0.44637 -1.86739 0
M  V30 18185 O 1730.7 0.749639 -2.58135 0
M  V30 18186 C 1728.97 -1.67055 -3.15955 0
M  V30 18187 S 1730.53 -1.63725 -4.07111 0
M  V30 18188 H 1727.35 -0.363945 -0.610791 0
M  V30 18189 H 1729.95 -1.52209 -1.2269 0
M  V30 18190 H 1728.66 -2.72571 -3.06811 0
M  V30 18191 H 1728.19 -1.16396 -3.75787 0
M  V30 18192 H 1730.2 -0.664732 -4.91727 0
M  V30 18193 N 1729.38 1.21606 -1.00248 0
M  V30 18194 C 1730.6 1.95149 -0.702249 0
M  V30 18195 C 1731.03 1.73429 0.728293 0
M  V30 18196 O 1730.39 1.01953 1.49917 0
M  V30 18197 C 1730.43 3.45705 -1.0257 0
M  V30 18198 O 1729.54 4.12196 -0.129575 0
M  V30 18199 H 1728.88 0.610173 -0.261888 0
M  V30 18200 H 1731.41 1.54435 -1.34205 0
M  V30 18201 H 1731.42 3.96265 -0.97151 0
M  V30 18202 H 1730.09 3.60838 -2.06806 0
M  V30 18203 H 1728.67 3.72126 -0.240074 0
M  V30 18204 N 1730.86 0.776895 1.37121 0
M  V30 18205 C 1731.82 0.172839 2.28547 0
M  V30 18206 C 1732.82 -0.622508 1.48262 0
M  V30 18207 O 1734.01 -0.44534 1.68411 0
M  V30 18208 C 1731.14 -0.762294 3.32268 0
M  V30 18209 H 1732.33 0.978842 2.83476 0
M  V30 18210 H 1729.89 0.545454 1.46474 0
M  V30 18211 H 1730.62 -1.59311 2.82472 0
M  V30 18212 H 1730.41 -0.194084 3.91619 0
M  V30 18213 H 1731.9 -1.1802 4.00576 0
M  V30 18214 N 1732.33 -1.48497 0.527859 0
M  V30 18215 C 1733.56 -2.07399 -0.00510725 0
M  V30 18216 C 1733.98 -1.38211 -1.2759 0
M  V30 18217 O 1733.34 -0.447373 -1.75694 0
M  V30 18218 C 1733.39 -3.59963 -0.214295 0
M  V30 18219 O 1732.49 -3.91921 -1.28342 0
M  V30 18220 H 1731.83 -0.662901 0.0381838 0
M  V30 18221 H 1734.36 -1.90936 0.735166 0
M  V30 18222 H 1734.37 -4.05646 -0.437604 0
M  V30 18223 H 1733.05 -4.09725 0.714028 0
M  V30 18224 H 1731.63 -3.58019 -1.04293 0
M  V30 18225 N 1733.81 -0.262893 -1.55392 0
M  V30 18226 C 1735.06 0.357366 -1.99322 0
M  V30 18227 C 1735.39 1.56772 -1.15121 0
M  V30 18228 O 1734.64 1.94614 -0.205867 0
M  V30 18229 C 1734.94 0.795313 -3.48439 0
M  V30 18230 C 1734.61 -0.309047 -4.4984 0
M  V30 18231 C 1733.27 -0.612317 -4.77288 0
M  V30 18232 C 1735.62 -1.05382 -5.10435 0
M  V30 18233 C 1732.95 -1.66415 -5.62604 0
M  V30 18234 C 1735.3 -2.09528 -5.96892 0
M  V30 18235 C 1733.96 -2.40503 -6.22667 0
M  V30 18236 H 1733.23 0.13077 -0.72937 0
M  V30 18237 H 1735.88 -0.374057 -1.87811 0
M  V30 18238 H 1734.19 1.60621 -3.57363 0
M  V30 18239 H 1735.88 1.28577 -3.79828 0
M  V30 18240 H 1732.47 -0.0625469 -4.28554 0
M  V30 18241 H 1736.66 -0.832773 -4.89263 0
M  V30 18242 H 1731.91 -1.90929 -5.80824 0
M  V30 18243 H 1736.09 -2.67719 -6.42884 0
M  V30 18244 H 1733.71 -3.22143 -6.88569 0
M  V30 18245 N 1735.29 1.57597 0.0100073 0
M  V30 18246 C 1736.25 2.06745 0.989401 0
M  V30 18247 C 1737.25 0.97499 1.27869 0
M  V30 18248 O 1738.44 1.23798 1.22555 0
M  V30 18249 C 1735.57 2.50048 2.31709 0
M  V30 18250 H 1736.77 2.9454 0.564473 0
M  V30 18251 H 1734.32 1.54168 0.257266 0
M  V30 18252 H 1735.06 1.65466 2.78911 0
M  V30 18253 H 1734.84 3.29823 2.12035 0
M  V30 18254 H 1736.33 2.88433 3.01987 0
M  V30 18255 N 1736.77 -0.282606 1.55045 0
M  V30 18256 C 1738.01 -1.01698 1.75458 0
M  V30 18257 C 1738.35 -1.86284 0.548808 0
M  V30 18258 O 1737.62 -1.89131 -0.45382 0
M  V30 18259 C 1737.9 -1.90759 3.05423 0
M  V30 18260 C 1737.76 -1.0923 4.36336 0
M  V30 18261 C 1739.08 -2.8963 3.31364 0
M  V30 18262 H 1736.2 -0.368305 0.638373 0
M  V30 18263 H 1738.84 -0.290118 1.87772 0
M  V30 18264 H 1736.99 -2.52734 2.95055 0
M  V30 18265 H 1738.66 -0.493996 4.58647 0
M  V30 18266 H 1736.9 -0.395481 4.31994 0
M  V30 18267 H 1737.57 -1.74842 5.23578 0
M  V30 18268 H 1740.05 -2.37788 3.41462 0
M  V30 18269 H 1738.93 -3.49096 4.23584 0
M  V30 18270 H 1739.19 -3.64255 2.50541 0
M  V30 18271 N 1738.25 -1.47815 -0.546675 0
M  V30 18272 C 1739.49 -1.54674 -1.30078 0
M  V30 18273 C 1739.81 -0.215151 -1.93809 0
M  V30 18274 O 1739.08 0.761862 -1.80478 0
M  V30 18275 H 1737.66 -0.569776 -0.483078 0
M  V30 18276 H 1740.33 -1.84178 -0.637525 0
M  V30 18277 H 1739.42 -2.31894 -2.08882 0
M  V30 18278 N 1739.72 0.794246 -1.36123 0
M  V30 18279 C 1740.67 1.92808 -1.30108 0
M  V30 18280 C 1741.67 1.68289 -0.193734 0
M  V30 18281 O 1742.87 1.76354 -0.360454 0
M  V30 18282 H 1739.25 0.633671 -0.404926 0
M  V30 18283 H 1741.22 1.95 -2.2587 0
M  V30 18284 C 1739.97 3.29762 -1.10238 0
M  V30 18285 H 1739.29 3.49193 -1.9469 0
M  V30 18286 H 1740.73 4.09463 -1.10073 0
M  V30 18287 C 1739.19 3.36345 0.193222 0
M  V30 18288 O 1739.72 3.83832 1.18474 0
M  V30 18289 N 1737.92 2.89638 0.236243 0
M  V30 18290 H 1737.47 2.51186 -0.571245 0
M  V30 18291 H 1737.43 2.94424 1.1028 0
M  V30 18292 N 1741.2 1.20323 1.01785 0
M  V30 18293 C 1742.16 0.9527 2.08462 0
M  V30 18294 C 1743.16 -0.0712564 1.60642 0
M  V30 18295 O 1744.35 0.164672 1.7342 0
M  V30 18296 C 1741.49 0.434052 3.38125 0
M  V30 18297 H 1742.68 1.89895 2.32121 0
M  V30 18298 H 1740.23 1.01843 1.18565 0
M  V30 18299 H 1740.97 -0.51772 3.20141 0
M  V30 18300 H 1740.75 1.17248 3.74159 0
M  V30 18301 H 1742.24 0.278215 4.16672 0
M  V30 18302 N 1742.68 -1.21073 1.00892 0
M  V30 18303 C 1743.64 -2.21804 0.577543 0
M  V30 18304 C 1744.64 -1.56985 -0.348201 0
M  V30 18305 O 1745.83 -1.73653 -0.137947 0
M  V30 18306 C 1742.96 -3.40535 -0.157685 0
M  V30 18307 H 1744.16 -2.61483 1.46856 0
M  V30 18308 H 1741.71 -1.34402 0.79786 0
M  V30 18309 H 1742.45 -3.0635 -1.06397 0
M  V30 18310 H 1742.23 -3.88805 0.507238 0
M  V30 18311 H 1743.72 -4.152 -0.447109 0
M  V30 18312 N 1744.16 -0.784156 -1.36707 0
M  V30 18313 C 1745.39 -0.365371 -2.03344 0
M  V30 18314 C 1745.8 1.02133 -1.59266 0
M  V30 18315 O 1745.14 1.66547 -0.775098 0
M  V30 18316 C 1745.2 -0.343819 -3.57852 0
M  V30 18317 C 1744.87 -1.6772 -4.25111 0
M  V30 18318 C 1745.86 -2.63179 -4.48367 0
M  V30 18319 C 1743.55 -1.95505 -4.62691 0
M  V30 18320 C 1745.54 -3.84621 -5.08277 0
M  V30 18321 C 1743.23 -3.17215 -5.2232 0
M  V30 18322 C 1744.23 -4.11592 -5.45052 0
M  V30 18323 O 1743.91 -5.31157 -6.0343 0
M  V30 18324 H 1743.65 -0.14936 -0.659293 0
M  V30 18325 H 1746.2 -1.06269 -1.75772 0
M  V30 18326 H 1744.43 0.409964 -3.84521 0
M  V30 18327 H 1746.12 0.0495818 -4.0587 0
M  V30 18328 H 1746.89 -2.42998 -4.19735 0
M  V30 18329 H 1742.76 -1.22867 -4.44325 0
M  V30 18330 H 1746.31 -4.58298 -5.25936 0
M  V30 18331 H 1742.21 -3.37276 -5.50377 0
M  V30 18332 H 1742.97 -5.32149 -6.219 0
M  V30 18333 N 1745.64 1.48215 -0.535727 0
M  V30 18334 C 1746.57 2.27708 0.261085 0
M  V30 18335 C 1747.58 1.35714 0.899197 0
M  V30 18336 O 1748.77 1.60717 0.776669 0
M  V30 18337 C 1745.87 3.09285 1.38549 0
M  V30 18338 C 1745.04 4.29097 0.848218 0
M  V30 18339 C 1744.1 4.92439 1.85445 0
M  V30 18340 O 1743.13 5.51483 1.4091 0
M  V30 18341 N 1744.33 4.85197 3.18691 0
M  V30 18342 H 1747.1 2.96732 -0.420706 0
M  V30 18343 H 1744.66 1.57606 -0.370421 0
M  V30 18344 H 1746.65 3.4853 2.05691 0
M  V30 18345 H 1745.22 2.42644 1.97085 0
M  V30 18346 H 1744.44 3.942 0.000627744 0
M  V30 18347 H 1745.73 5.06641 0.468243 0
M  V30 18348 H 1745.12 4.3839 3.57535 0
M  V30 18349 H 1743.68 5.28525 3.81451 0
M  V30 18350 N 1747.11 0.27113 1.5525 0
M  V30 18351 C 1748.08 -0.604946 2.21072 0
M  V30 18352 C 1749.08 -1.08438 1.18735 0
M  V30 18353 O 1750.27 -0.985192 1.43665 0
M  V30 18354 C 1747.4 -1.83416 2.87353 0
M  V30 18355 H 1748.59 -0.0302981 2.99885 0
M  V30 18356 H 1746.15 0.0217204 1.56285 0
M  V30 18357 H 1746.88 -2.44942 2.12542 0
M  V30 18358 H 1746.67 -1.49834 3.62343 0
M  V30 18359 H 1748.16 -2.45724 3.37653 0
M  V30 18360 N 1748.59 -1.576 -0.00164943 0
M  V30 18361 C 1749.84 -1.9012 -0.685486 0
M  V30 18362 C 1750.16 -0.872245 -1.74404 0
M  V30 18363 O 1749.43 0.090572 -1.95691 0
M  V30 18364 H 1748.01 -0.701699 -0.256177 0
M  V30 18365 H 1750.67 -1.94861 0.0388866 0
M  V30 18366 H 1749.77 -2.89831 -1.15778 0
M  V30 18367 N 1750.07 0.274379 -1.55193 0
M  V30 18368 C 1751.48 0.845522 -1.66457 0
M  V30 18369 C 1751.83 1.87097 -0.590684 0
M  V30 18370 O 1750.96 2.14733 0.268065 0
M  V30 18371 C 1751.55 1.54039 -3.01757 0
M  V30 18372 C 1750.11 2.05958 -3.15053 0
M  V30 18373 C 1749.26 0.901169 -2.62248 0
M  V30 18374 H 1752.21 0.0507599 -1.58619 0
M  V30 18375 H 1752.23 2.40729 -2.94669 0
M  V30 18376 H 1751.74 0.793807 -3.79895 0
M  V30 18377 H 1749.84 2.83582 -2.41686 0
M  V30 18378 H 1749.96 2.27584 -4.21595 0
M  V30 18379 H 1748.32 1.29416 -2.19371 0
M  V30 18380 H 1749.1 0.168116 -3.42888 0
M  V30 18381 N 1751.55 1.48103 0.538828 0
M  V30 18382 C 1752.48 1.64856 1.65363 0
M  V30 18383 C 1753.46 0.497579 1.6266 0
M  V30 18384 O 1754.64 0.729088 1.79994 0
M  V30 18385 C 1751.77 1.67984 3.03971 0
M  V30 18386 C 1750.73 2.82494 3.21529 0
M  V30 18387 C 1750.05 2.70706 4.6111 0
M  V30 18388 C 1751.35 4.23892 3.05145 0
M  V30 18389 H 1753.05 2.58183 1.51598 0
M  V30 18390 H 1750.59 1.24249 0.727886 0
M  V30 18391 H 1752.55 1.78294 3.81824 0
M  V30 18392 H 1751.27 0.712299 3.18738 0
M  V30 18393 H 1749.93 2.71725 2.46091 0
M  V30 18394 H 1749.58 1.7194 4.727 0
M  V30 18395 H 1749.28 3.47539 4.73804 0
M  V30 18396 H 1750.8 2.82971 5.41073 0
M  V30 18397 H 1752.22 4.3554 3.72797 0
M  V30 18398 H 1750.61 5.01654 3.29338 0
M  V30 18399 H 1751.68 4.40973 2.01671 0
M  V30 18400 N 1753.03 -0.787016 1.36542 0
M  V30 18401 C 1754.27 -1.54194 1.30647 0
M  V30 18402 C 1754.6 -1.94671 -0.113195 0
M  V30 18403 O 1753.87 -1.65131 -1.05397 0
M  V30 18404 H 1752.45 -0.571857 0.480613 0
M  V30 18405 H 1755.11 -0.93761 1.70865 0
M  V30 18406 H 1754.2 -2.4484 1.93545 0
M  V30 18407 N 1754.5 -1.20861 -1.01145 0
M  V30 18408 C 1755.92 -1.02156 -1.56272 0
M  V30 18409 C 1756.27 0.420552 -1.9164 0
M  V30 18410 O 1755.39 1.30277 -1.72792 0
M  V30 18411 C 1755.99 -1.84812 -2.83954 0
M  V30 18412 C 1754.55 -1.70458 -3.35591 0
M  V30 18413 C 1753.69 -1.82425 -2.08846 0
M  V30 18414 H 1756.64 -1.34978 -0.834669 0
M  V30 18415 H 1756.66 -1.35455 -3.55573 0
M  V30 18416 H 1756.18 -2.89765 -2.58181 0
M  V30 18417 H 1754.28 -0.681631 -3.66312 0
M  V30 18418 H 1754.39 -2.52041 -4.07446 0
M  V30 18419 H 1752.75 -1.25665 -2.21541 0
M  V30 18420 H 1753.54 -2.88872 -1.85493 0
M  V30 18421 N 1755.98 1.20536 -1.01532 0
M  V30 18422 C 1756.95 2.21495 -0.589298 0
M  V30 18423 C 1757.95 1.57167 0.339871 0
M  V30 18424 O 1759.14 1.73724 0.128736 0
M  V30 18425 C 1756.27 3.40614 0.139623 0
M  V30 18426 H 1757.46 2.607 -1.48241 0
M  V30 18427 H 1755.01 1.33977 -0.804977 0
M  V30 18428 H 1755.75 3.0691 1.04771 0
M  V30 18429 H 1755.53 3.88531 -0.52785 0
M  V30 18430 H 1757.02 4.15431 0.425083 0
M  V30 18431 N 1757.46 0.791395 1.36289 0
M  V30 18432 C 1758.39 0.205419 2.32595 0
M  V30 18433 C 1759.37 -0.660696 1.56744 0
M  V30 18434 O 1760.56 -0.594111 1.84889 0
M  V30 18435 C 1757.69 -0.659018 3.4099 0
M  V30 18436 C 1756.64 0.107364 4.27865 0
M  V30 18437 C 1755.97 -0.877795 5.27446 0
M  V30 18438 C 1757.27 1.29769 5.05922 0
M  V30 18439 H 1758.96 1.00999 2.8185 0
M  V30 18440 H 1756.51 0.487122 1.35511 0
M  V30 18441 H 1758.46 -1.07891 4.07354 0
M  V30 18442 H 1757.18 -1.49632 2.90307 0
M  V30 18443 H 1755.84 0.508253 3.6306 0
M  V30 18444 H 1755.49 -1.71018 4.73035 0
M  V30 18445 H 1755.19 -0.369429 5.86438 0
M  V30 18446 H 1756.71 -1.29621 5.96683 0
M  V30 18447 H 1758.13 0.953463 5.65316 0
M  V30 18448 H 1756.53 1.73949 5.74336 0
M  V30 18449 H 1757.6 2.09205 4.37449 0
M  V30 18450 N 1758.94 -1.47929 0.54358 0
M  V30 18451 C 1759.9 -2.28316 -0.201107 0
M  V30 18452 C 1760.9 -1.36165 -0.855313 0
M  V30 18453 O 1762.09 -1.58928 -0.71327 0
M  V30 18454 C 1759.22 -3.1545 -1.29245 0
M  V30 18455 H 1760.42 -2.9562 0.504848 0
M  V30 18456 H 1757.97 -1.53394 0.300011 0
M  V30 18457 H 1758.71 -2.52807 -2.03124 0
M  V30 18458 H 1758.49 -3.83251 -0.82832 0
M  V30 18459 H 1759.98 -3.76053 -1.81587 0
M  V30 18460 N 1760.42 -0.27936 -1.55104 0
M  V30 18461 C 1761.38 0.593214 -2.2139 0
M  V30 18462 C 1762.38 1.07807 -1.19308 0
M  V30 18463 O 1763.57 0.97756 -1.44185 0
M  V30 18464 C 1760.7 1.81889 -2.88321 0
M  V30 18465 H 1761.9 0.0143941 -2.99897 0
M  V30 18466 H 1759.45 -0.0300083 -1.56271 0
M  V30 18467 H 1760.18 2.43811 -2.13838 0
M  V30 18468 H 1759.97 1.4791 -3.63132 0
M  V30 18469 H 1761.46 2.4393 -3.38951 0
M  V30 18470 N 1761.9 1.57599 -0.0067085 0
M  V30 18471 C 1762.86 2.07783 0.967417 0
M  V30 18472 C 1763.86 0.988498 1.26828 0
M  V30 18473 O 1765.05 1.25091 1.21235 0
M  V30 18474 C 1762.18 2.52491 2.29044 0
M  V30 18475 H 1763.37 2.95122 0.533201 0
M  V30 18476 H 1760.93 1.54432 0.2409 0
M  V30 18477 H 1761.66 1.68415 2.77141 0
M  V30 18478 H 1761.45 3.32054 2.08525 0
M  V30 18479 H 1762.94 2.9162 2.98911 0
M  V30 18480 N 1763.37 -0.266145 1.55336 0
M  V30 18481 C 1764.62 -0.998308 1.76527 0
M  V30 18482 C 1764.95 -1.85691 0.568535 0
M  V30 18483 O 1764.23 -1.89602 -0.433735 0
M  V30 18484 C 1764.51 -1.87509 3.07429 0
M  V30 18485 C 1764.36 -1.04596 4.3747 0
M  V30 18486 C 1765.68 -2.86099 3.34418 0
M  V30 18487 H 1762.8 -0.361514 0.642244 0
M  V30 18488 H 1765.44 -0.270186 1.88069 0
M  V30 18489 H 1763.59 -2.49591 2.97719 0
M  V30 18490 H 1765.27 -0.445323 4.59145 0
M  V30 18491 H 1763.51 -0.349641 4.32389 0
M  V30 18492 H 1764.18 -1.69279 5.25403 0
M  V30 18493 H 1766.66 -2.34153 3.43965 0
M  V30 18494 H 1765.53 -3.44584 4.27262 0
M  V30 18495 H 1765.79 -3.61577 2.5439 0
M  V30 18496 N 1764.85 -1.48386 -0.530967 0
M  V30 18497 C 1766.26 -1.49904 -1.11291 0
M  V30 18498 C 1766.61 -0.268276 -1.94357 0
M  V30 18499 O 1765.74 0.624676 -2.07188 0
M  V30 18500 C 1766.33 -2.71622 -2.02501 0
M  V30 18501 C 1764.89 -2.76015 -2.55916 0
M  V30 18502 C 1764.04 -2.43403 -1.32855 0
M  V30 18503 H 1766.99 -1.55517 -0.316269 0
M  V30 18504 H 1767.01 -2.50084 -2.86772 0
M  V30 18505 H 1766.52 -3.61182 -1.42017 0
M  V30 18506 H 1764.62 -1.9066 -3.20124 0
M  V30 18507 H 1764.74 -3.77416 -2.95116 0
M  V30 18508 H 1763.1 -1.94537 -1.644 0
M  V30 18509 H 1763.88 -3.35202 -0.741242 0
M  V30 18510 N 1766.33 0.779763 -1.36958 0
M  V30 18511 C 1767.55 1.57389 -1.35068 0
M  V30 18512 C 1767.98 1.87993 0.0635244 0
M  V30 18513 O 1767.34 1.48625 1.03828 0
M  V30 18514 C 1767.39 2.86582 -2.18868 0
M  V30 18515 O 1766.49 3.80609 -1.58779 0
M  V30 18516 H 1765.83 0.477052 -0.461863 0
M  V30 18517 H 1768.36 0.965741 -1.80373 0
M  V30 18518 H 1768.37 3.35761 -2.31794 0
M  V30 18519 H 1767.05 2.63635 -3.21666 0
M  V30 18520 H 1765.62 3.39229 -1.54848 0
M  V30 18521 N 1767.81 1.21396 1.00503 0
M  V30 18522 C 1768.74 0.916483 2.08988 0
M  V30 18523 C 1769.72 -0.135972 1.6203 0
M  V30 18524 O 1770.9 -0.00701537 1.88499 0
M  V30 18525 C 1768.03 0.376122 3.36605 0
M  V30 18526 C 1767.08 1.41137 4.0247 0
M  V30 18527 S 1767.91 2.98055 4.44886 0
M  V30 18528 C 1769.06 2.45626 5.7569 0
M  V30 18529 H 1769.3 1.83517 2.33899 0
M  V30 18530 H 1766.83 1.0437 1.13782 0
M  V30 18531 H 1768.79 0.0709239 4.10439 0
M  V30 18532 H 1767.45 -0.52125 3.09745 0
M  V30 18533 H 1766.64 0.982903 4.94323 0
M  V30 18534 H 1766.24 1.66465 3.34911 0
M  V30 18535 H 1768.54 1.8611 6.51436 0
M  V30 18536 H 1769.48 3.3592 6.23348 0
M  V30 18537 H 1769.89 1.87337 5.32508 0
M  V30 18538 N 1769.29 -1.19996 1.0217 0
M  V30 18539 C 1770.51 -1.93466 0.733374 0
M  V30 18540 C 1770.93 -1.75074 -0.70672 0
M  V30 18541 O 1770.29 -1.068 -1.47987 0
M  V30 18542 C 1770.34 -3.45425 1.06601 0
M  V30 18543 O 1770.06 -3.6322 2.44954 0
M  V30 18544 C 1771.56 -4.36032 0.799458 0
M  V30 18545 H 1768.78 -0.614762 0.268903 0
M  V30 18546 H 1771.32 -1.52343 1.36426 0
M  V30 18547 H 1769.48 -3.84409 0.480432 0
M  V30 18548 H 1769.89 -4.57155 2.57117 0
M  V30 18549 H 1771.37 -5.41287 1.08223 0
M  V30 18550 H 1771.84 -4.38392 -0.266279 0
M  V30 18551 H 1772.45 -4.02718 1.36743 0
M  V30 18552 N 1770.76 -0.798611 -1.35867 0
M  V30 18553 C 1771.7 -0.161203 -2.28632 0
M  V30 18554 C 1772.71 0.634886 -1.4991 0
M  V30 18555 O 1773.9 0.468557 -1.72241 0
M  V30 18556 C 1771 0.794407 -3.29458 0
M  V30 18557 C 1770.17 0.0464031 -4.37375 0
M  V30 18558 C 1769.23 0.919313 -5.18107 0
M  V30 18559 O 1768.26 0.373179 -5.67975 0
M  V30 18560 N 1769.46 2.24243 -5.35439 0
M  V30 18561 H 1772.22 -0.958079 -2.83973 0
M  V30 18562 H 1769.78 -0.653344 -1.48132 0
M  V30 18563 H 1771.78 1.38242 -3.80357 0
M  V30 18564 H 1770.35 1.49212 -2.7469 0
M  V30 18565 H 1769.57 -0.722757 -3.87518 0
M  V30 18566 H 1770.85 -0.469417 -5.0663 0
M  V30 18567 H 1770.25 2.71017 -4.96554 0
M  V30 18568 H 1768.81 2.77986 -5.89548 0
M  V30 18569 N 1772.24 1.47639 -0.551417 0
M  V30 18570 C 1773.17 2.32743 0.187887 0
M  V30 18571 C 1774.15 1.43432 0.914407 0
M  V30 18572 O 1775.34 1.72295 0.896005 0
M  V30 18573 C 1772.47 3.25092 1.22199 0
M  V30 18574 C 1771.42 4.23598 0.612298 0
M  V30 18575 C 1770.75 5.0523 1.75062 0
M  V30 18576 C 1772.05 5.20526 -0.430135 0
M  V30 18577 H 1773.74 2.94804 -0.522598 0
M  V30 18578 H 1771.29 1.41764 -0.252768 0
M  V30 18579 H 1773.24 3.83467 1.74731 0
M  V30 18580 H 1771.96 2.61074 1.96235 0
M  V30 18581 H 1770.62 3.6644 0.108324 0
M  V30 18582 H 1770.27 4.3762 2.47987 0
M  V30 18583 H 1769.97 5.71918 1.34848 0
M  V30 18584 H 1771.5 5.66463 2.27931 0
M  V30 18585 H 1772.91 5.73299 0.00890168 0
M  V30 18586 H 1771.31 5.95384 -0.750836 0
M  V30 18587 H 1772.38 4.66356 -1.32815 0
M  V30 18588 N 1773.72 0.287581 1.54954 0
M  V30 18589 C 1774.65 -0.587855 2.25979 0
M  V30 18590 C 1775.63 -1.14884 1.25442 0
M  V30 18591 O 1776.82 -1.18067 1.54188 0
M  V30 18592 C 1773.95 -1.76618 2.99037 0
M  V30 18593 C 1772.9 -1.33617 4.06609 0
M  V30 18594 C 1772.23 -2.59859 4.67309 0
M  V30 18595 C 1773.53 -0.477219 5.20115 0
M  V30 18596 H 1775.22 0.00450183 2.994 0
M  V30 18597 H 1772.77 0.00360521 1.44 0
M  V30 18598 H 1774.72 -2.38461 3.4744 0
M  V30 18599 H 1773.44 -2.38457 2.23172 0
M  V30 18600 H 1772.1 -0.74088 3.59036 0
M  V30 18601 H 1771.75 -3.19983 3.88098 0
M  V30 18602 H 1771.45 -2.31793 5.3995 0
M  V30 18603 H 1772.97 -3.22528 5.18467 0
M  V30 18604 H 1774.39 -1.00096 5.64494 0
M  V30 18605 H 1772.79 -0.290913 5.99394 0
M  V30 18606 H 1773.86 0.500993 4.82305 0
M  V30 18607 N 1775.2 -1.57593 0.0150662 0
M  V30 18608 C 1776.45 -1.90836 -0.665282 0
M  V30 18609 C 1776.77 -0.890693 -1.73469 0
M  V30 18610 O 1776.04 0.0698113 -1.95776 0
M  V30 18611 H 1774.62 -0.704377 -0.24872 0
M  V30 18612 H 1777.28 -1.94809 0.0595521 0
M  V30 18613 H 1776.38 -2.91043 -1.12697 0
M  V30 18614 N 1776.68 0.257904 -1.55475 0
M  V30 18615 C 1777.95 1.00965 -1.67528 0
M  V30 18616 C 1778.33 2.03763 -0.551694 0
M  V30 18617 O 1777.68 2.24099 0.446314 0
M  V30 18618 C 1777.89 1.65289 -3.07377 0
M  V30 18619 C 1779.24 2.15888 -3.65619 0
M  V30 18620 O 1780.26 1.7525 -3.10106 0
M  V30 18621 O 1779.12 2.90471 -4.62913 0
M  V30 18622 H 1776.22 0.469266 -0.680969 0
M  V30 18623 H 1778.76 0.252562 -1.6781 0
M  V30 18624 H 1777.53 0.908769 -3.80601 0
M  V30 18625 H 1777.16 2.47646 -3.11058 0
M  V30 18626 N 1778.15 1.48666 0.52309 0
M  V30 18627 C 1779.57 1.50492 1.10495 0
M  V30 18628 C 1779.92 0.278579 1.94212 0
M  V30 18629 O 1779.04 -0.613679 2.07516 0
M  V30 18630 C 1779.64 2.72692 2.01058 0
M  V30 18631 C 1778.2 2.77368 2.54448 0
M  V30 18632 C 1777.34 2.44104 1.31562 0
M  V30 18633 H 1780.29 1.55682 0.308017 0
M  V30 18634 H 1780.31 2.51601 2.85442 0
M  V30 18635 H 1779.83 3.61931 1.401 0
M  V30 18636 H 1777.93 1.92356 3.19108 0
M  V30 18637 H 1778.04 3.78976 2.93111 0
M  V30 18638 H 1776.4 1.95407 1.63366 0
M  V30 18639 H 1777.19 3.35591 0.723455 0
M  V30 18640 N 1779.63 -0.772489 1.37369 0
M  V30 18641 C 1780.56 -1.89487 1.28948 0
M  V30 18642 C 1781.58 -1.61499 0.205434 0
M  V30 18643 O 1782.77 -1.7243 0.461519 0
M  V30 18644 C 1779.87 -3.24698 0.970798 0
M  V30 18645 C 1779.04 -3.80337 2.16015 0
M  V30 18646 C 1778.1 -4.94022 1.81187 0
M  V30 18647 O 1777.12 -5.09647 2.53473 0
M  V30 18648 N 1778.33 -5.75562 0.755549 0
M  V30 18649 H 1781.09 -1.97228 2.25658 0
M  V30 18650 H 1778.65 -0.951562 1.30984 0
M  V30 18651 H 1780.64 -3.98268 0.71866 0
M  V30 18652 H 1779.21 -3.12464 0.0922825 0
M  V30 18653 H 1778.43 -2.98554 2.57409 0
M  V30 18654 H 1779.72 -4.14242 2.95434 0
M  V30 18655 H 1779.12 -5.65486 0.155691 0
M  V30 18656 H 1777.68 -6.49362 0.563268 0
M  V30 18657 N 1781.11 -1.21927 -0.998575 0
M  V30 18658 C 1782.07 -0.985744 -2.0692 0
M  V30 18659 C 1783.07 0.0456907 -1.60735 0
M  V30 18660 O 1784.26 -0.192241 -1.73136 0
M  V30 18661 C 1781.4 -0.48779 -3.37392 0
M  V30 18662 H 1782.59 -1.93563 -2.2907 0
M  V30 18663 H 1780.14 -1.03716 -1.1693 0
M  V30 18664 H 1780.88 0.466723 -3.20924 0
M  V30 18665 H 1780.66 -1.23186 -3.72247 0
M  V30 18666 H 1782.15 -0.344469 -4.16177 0
M  V30 18667 N 1782.59 1.19452 -1.02805 0
M  V30 18668 C 1783.84 1.8874 -0.722599 0
M  V30 18669 C 1784.16 1.79957 0.751028 0
M  V30 18670 O 1783.43 1.20949 1.54104 0
M  V30 18671 H 1782.01 0.698683 -0.264294 0
M  V30 18672 H 1784.67 1.45021 -1.30211 0
M  V30 18673 H 1783.77 2.95094 -1.01617 0
M  V30 18674 N 1784.07 0.805805 1.35442 0
M  V30 18675 C 1785.32 0.382303 1.98044 0
M  V30 18676 C 1785.63 -1.05602 1.64644 0
M  V30 18677 O 1786.83 -1.5826 2.20604 0
M  V30 18678 C 1785.29 0.632619 3.54296 0
M  V30 18679 C 1784.9 2.08344 3.96607 0
M  V30 18680 C 1786.64 0.274435 4.23612 0
M  V30 18681 C 1784.55 2.27954 5.45702 0
M  V30 18682 H 1783.48 0.13921 0.741037 0
M  V30 18683 H 1786.13 0.989752 1.54519 0
M  V30 18684 H 1784.51 -0.0447699 3.95975 0
M  V30 18685 H 1785.69 2.79857 3.66083 0
M  V30 18686 H 1784 2.40142 3.40178 0
M  V30 18687 H 1786.6 0.399019 5.33209 0
M  V30 18688 H 1786.94 -0.779292 4.08941 0
M  V30 18689 H 1787.47 0.90571 3.87352 0
M  V30 18690 H 1784.21 3.3177 5.6534 0
M  V30 18691 H 1783.73 1.60965 5.77798 0
M  V30 18692 H 1785.41 2.09469 6.12153 0
M  V30 18693 N 1785.54 -1.47344 0.559239 0
M  V30 18694 C 1786.96 -1.58088 0.219155 0
M  V30 18695 C 1787.16 -1.55758 -1.27834 0
M  V30 18696 O 1786.22 -1.46207 -2.05864 0
M  V30 18697 C 1787.53 -2.88507 0.847606 0
M  V30 18698 C 1789.08 -3.02094 0.819022 0
M  V30 18699 C 1789.55 -4.35216 1.42658 0
M  V30 18700 N 1791.04 -4.41857 1.38986 0
M  V30 18701 C 1791.78 -5.43429 1.82956 0
M  V30 18702 N 1791.27 -6.51801 2.34792 0
M  V30 18703 N 1793.07 -5.34486 1.74015 0
M  V30 18704 H 1785.22 -1.47102 1.53215 0
M  V30 18705 H 1787.48 -0.700228 0.63905 0
M  V30 18706 H 1787.19 -2.95954 1.90011 0
M  V30 18707 H 1787.06 -3.75648 0.341841 0
M  V30 18708 H 1789.45 -2.94243 -0.224794 0
M  V30 18709 H 1789.53 -2.1649 1.36257 0
M  V30 18710 H 1789.17 -4.43824 2.46947 0
M  V30 18711 H 1789.1 -5.19556 0.858462 0
M  V30 18712 H 1791.59 -3.64133 1.01071 0
M  V30 18713 H 1791.91 -7.25482 2.66262 0
M  V30 18714 H 1790.25 -6.52685 2.38804 0
M  V30 18715 H 1793.44 -4.48721 1.33294 0
M  V30 18716 H 1793.62 -6.13506 2.086 0
M  V30 18717 N 1787.02 -0.295795 -1.54799 0
M  V30 18718 C 1788.44 0.0577516 -1.59495 0
M  V30 18719 C 1788.64 1.52862 -1.31284 0
M  V30 18720 O 1787.69 2.28061 -1.08372 0
M  V30 18721 C 1789.01 -0.335503 -2.98822 0
M  V30 18722 C 1790.56 -0.283835 -3.1171 0
M  V30 18723 C 1791.03 -0.651835 -4.53338 0
M  V30 18724 N 1792.52 -0.604171 -4.59243 0
M  V30 18725 C 1793.26 -0.861453 -5.66892 0
M  V30 18726 N 1792.75 -1.18443 -6.826 0
M  V30 18727 N 1794.55 -0.788863 -5.56537 0
M  V30 18728 H 1786.7 -1.25444 -1.71399 0
M  V30 18729 H 1788.96 -0.50822 -0.80026 0
M  V30 18730 H 1788.67 -1.35923 -3.24373 0
M  V30 18731 H 1788.54 0.313443 -3.75895 0
M  V30 18732 H 1790.93 0.730641 -2.85912 0
M  V30 18733 H 1791.01 -0.967331 -2.36804 0
M  V30 18734 H 1790.65 -1.66409 -4.79865 0
M  V30 18735 H 1790.58 0.053676 -5.26573 0
M  V30 18736 H 1793.07 -0.365262 -3.76131 0
M  V30 18737 H 1793.39 -1.36686 -7.60616 0
M  V30 18738 H 1791.73 -1.22242 -6.84165 0
M  V30 18739 H 1794.92 -0.536231 -4.65018 0
M  V30 18740 H 1795.09 -0.992744 -6.4035 0
M  V30 18741 N 1788.5 1.57583 -0.0234236 0
M  V30 18742 C 1789.45 2.11023 0.978379 0
M  V30 18743 C 1790.44 1.03548 1.34067 0
M  V30 18744 O 1791.65 1.2199 1.32357 0
M  V30 18745 H 1788.02 0.674119 0.333267 0
M  V30 18746 H 1790 2.94142 0.502301 0
M  V30 18747 C 1788.74 2.64782 2.25358 0
M  V30 18748 H 1788.07 3.47125 1.98353 0
M  V30 18749 H 1789.51 3.05826 2.93678 0
M  V30 18750 C 1787.97 1.57262 2.97943 0
M  V30 18751 O 1788.5 0.969124 3.89834 0
M  V30 18752 N 1786.7 1.29443 2.60178 0
M  V30 18753 H 1786.25 1.78706 1.85532 0
M  V30 18754 H 1786.21 0.577276 3.09055 0
M  V30 18755 N 1789.98 -0.249655 1.5561 0
M  V30 18756 C 1791.23 -0.979529 1.77576 0
M  V30 18757 C 1791.56 -1.85078 0.588198 0
M  V30 18758 O 1790.83 -1.90052 -0.4136 0
M  V30 18759 C 1791.12 -1.84238 3.094 0
M  V30 18760 C 1790.97 -0.9995 4.38554 0
M  V30 18761 C 1792.29 -2.82536 3.37433 0
M  V30 18762 H 1789.41 -0.354681 0.646042 0
M  V30 18763 H 1792.05 -0.250224 1.88345 0
M  V30 18764 H 1790.2 -2.46419 3.0035 0
M  V30 18765 H 1791.87 -0.396599 4.59592 0
M  V30 18766 H 1790.11 -0.30376 4.32735 0
M  V30 18767 H 1790.79 -1.63697 5.27169 0
M  V30 18768 H 1793.26 -2.30491 3.46429 0
M  V30 18769 H 1792.14 -3.40033 4.30893 0
M  V30 18770 H 1792.4 -3.58859 2.58211 0
M  V30 18771 N 1791.46 -1.48941 -0.515198 0
M  V30 18772 C 1792.42 -1.64062 -1.60051 0
M  V30 18773 C 1793.42 -0.513101 -1.52394 0
M  V30 18774 O 1794.61 -0.77924 -1.558 0
M  V30 18775 C 1791.74 -1.6247 -2.99694 0
M  V30 18776 H 1792.94 -2.60849 -1.47978 0
M  V30 18777 H 1790.49 -1.37759 -0.738378 0
M  V30 18778 H 1791.22 -0.672141 -3.17258 0
M  V30 18779 H 1791.01 -2.4434 -3.0666 0
M  V30 18780 H 1792.5 -1.76273 -3.78573 0
M  V30 18781 N 1792.94 0.765193 -1.37777 0
M  V30 18782 C 1794.16 1.55948 -1.3673 0
M  V30 18783 C 1794.59 1.8805 0.0435817 0
M  V30 18784 O 1793.94 1.49718 1.02246 0
M  V30 18785 C 1793.99 2.84245 -2.21895 0
M  V30 18786 O 1793.1 3.78903 -1.62807 0
M  V30 18787 H 1792.44 0.472127 -0.466897 0
M  V30 18788 H 1794.97 0.946556 -1.81388 0
M  V30 18789 H 1794.98 3.33284 -2.35342 0
M  V30 18790 H 1793.65 2.60209 -3.24444 0
M  V30 18791 H 1792.23 3.37568 -1.58437 0
M  V30 18792 N 1794.41 1.22455 0.992094 0
M  V30 18793 C 1795.38 0.996703 2.06394 0
M  V30 18794 C 1796.38 -0.0371659 1.60757 0
M  V30 18795 O 1797.57 0.20142 1.73032 0
M  V30 18796 C 1794.7 0.505675 3.37129 0
M  V30 18797 H 1795.89 1.94776 2.28041 0
M  V30 18798 H 1793.44 1.04335 1.16378 0
M  V30 18799 H 1794.18 -0.449697 3.21167 0
M  V30 18800 H 1793.96 1.25158 3.71588 0
M  V30 18801 H 1795.45 0.366535 4.15988 0
M  V30 18802 N 1795.89 -1.18905 1.03437 0
M  V30 18803 C 1796.82 -2.24539 0.640669 0
M  V30 18804 C 1797.8 -1.66396 -0.353024 0
M  V30 18805 O 1798.99 -1.92779 -0.234522 0
M  V30 18806 C 1796.12 -3.473 -0.00367731 0
M  V30 18807 C 1795.07 -4.18151 0.912881 0
M  V30 18808 C 1794.4 -5.34534 0.133347 0
M  V30 18809 C 1795.7 -4.72342 2.22913 0
M  V30 18810 H 1797.39 -2.57726 1.52374 0
M  V30 18811 H 1794.94 -1.23883 0.734098 0
M  V30 18812 H 1796.89 -4.20396 -0.290783 0
M  V30 18813 H 1795.61 -3.13328 -0.921578 0
M  V30 18814 H 1794.27 -3.46945 1.18427 0
M  V30 18815 H 1793.92 -4.96809 -0.786762 0
M  V30 18816 H 1793.62 -5.82872 0.743905 0
M  V30 18817 H 1795.15 -6.10423 -0.146889 0
M  V30 18818 H 1796.56 -5.37165 2.00317 0
M  V30 18819 H 1794.96 -5.31189 2.79209 0
M  V30 18820 H 1796.03 -3.90108 2.87999 0
M  V30 18821 N 1797.37 -0.812977 -1.35013 0
M  V30 18822 C 1798.62 -0.395562 -1.98191 0
M  V30 18823 C 1798.94 1.04242 -1.64799 0
M  V30 18824 O 1798.21 1.72219 -0.933678 0
M  V30 18825 H 1796.79 -0.143276 -0.733131 0
M  V30 18826 H 1799.45 -1.04023 -1.64819 0
M  V30 18827 H 1798.55 -0.506466 -3.07963 0
M  V30 18828 N 1798.85 1.47045 -0.567045 0
M  V30 18829 C 1799.8 2.31838 0.188075 0
M  V30 18830 C 1800.79 1.4353 0.899752 0
M  V30 18831 O 1802 1.60241 0.81992 0
M  V30 18832 H 1798.37 0.747783 0.0795226 0
M  V30 18833 H 1800.34 2.9336 -0.546121 0
M  V30 18834 C 1799.09 3.26387 1.19861 0
M  V30 18835 H 1798.41 3.94308 0.660412 0
M  V30 18836 H 1799.85 3.8853 1.69767 0
M  V30 18837 C 1798.31 2.50612 2.25157 0
M  V30 18838 O 1798.84 2.25771 3.3225 0
M  V30 18839 N 1797.05 2.11447 1.99345 0
M  V30 18840 H 1796.6 2.31849 1.12267 0
M  V30 18841 H 1796.55 1.61064 2.7001 0
M  V30 18842 N 1800.33 0.304 1.5464 0
M  V30 18843 C 1801.26 -0.563854 2.2659 0
M  V30 18844 C 1802.24 -1.13547 1.26653 0
M  V30 18845 O 1803.42 -1.16425 1.55431 0
M  V30 18846 C 1800.55 -1.73437 3.00894 0
M  V30 18847 C 1799.51 -1.29297 4.08003 0
M  V30 18848 C 1798.83 -2.54888 4.70038 0
M  V30 18849 C 1800.13 -0.422027 5.20592 0
M  V30 18850 H 1801.83 0.0362569 2.99378 0
M  V30 18851 H 1799.37 0.0188781 1.43988 0
M  V30 18852 H 1801.32 -2.34762 3.4995 0
M  V30 18853 H 1800.05 -2.36076 2.25689 0
M  V30 18854 H 1798.71 -0.702757 3.59801 0
M  V30 18855 H 1798.36 -3.15848 3.9147 0
M  V30 18856 H 1798.06 -2.26054 5.42378 0
M  V30 18857 H 1799.58 -3.17011 5.21859 0
M  V30 18858 H 1800.99 -0.941036 5.65524 0
M  V30 18859 H 1799.39 -0.227323 5.99669 0
M  V30 18860 H 1800.46 0.55212 4.81746 0
M  V30 18861 N 1801.8 -1.57568 0.0317802 0
M  V30 18862 C 1803.05 -1.91531 -0.645004 0
M  V30 18863 C 1803.37 -0.909042 -1.72515 0
M  V30 18864 O 1802.64 0.0490427 -1.95839 0
M  V30 18865 H 1801.22 -0.706976 -0.241236 0
M  V30 18866 H 1803.88 -1.94735 0.0802108 0
M  V30 18867 H 1802.98 -2.92221 -1.09604 0
M  V30 18868 N 1803.28 0.241399 -1.5574 0
M  V30 18869 C 1804.69 0.810024 -1.68213 0
M  V30 18870 C 1805.04 1.85802 -0.630237 0
M  V30 18871 O 1804.17 2.15254 0.222457 0
M  V30 18872 C 1804.76 1.47603 -3.04957 0
M  V30 18873 C 1803.32 1.99229 -3.1935 0
M  V30 18874 C 1802.47 0.845339 -2.64101 0
M  V30 18875 H 1805.42 0.0171031 -1.58691 0
M  V30 18876 H 1805.44 2.34425 -2.99709 0
M  V30 18877 H 1804.95 0.713047 -3.81493 0
M  V30 18878 H 1803.06 2.78391 -2.47647 0
M  V30 18879 H 1803.17 2.1859 -4.26328 0
M  V30 18880 H 1801.53 1.24734 -2.22067 0
M  V30 18881 H 1802.32 0.0953468 -3.43168 0
M  V30 18882 N 1804.76 1.49212 0.507292 0
M  V30 18883 C 1805.67 1.68141 1.63603 0
M  V30 18884 C 1806.69 0.563959 1.64607 0
M  V30 18885 O 1807.86 0.837885 1.83143 0
M  V30 18886 C 1804.93 1.73793 2.99995 0
M  V30 18887 C 1803.99 2.9733 3.09667 0
M  V30 18888 C 1803.22 3.02703 4.39553 0
M  V30 18889 O 1803.44 2.15844 5.27985 0
M  V30 18890 O 1802.38 3.95105 4.54066 0
M  V30 18891 H 1806.2 2.63749 1.50565 0
M  V30 18892 H 1803.79 1.32879 0.682893 0
M  V30 18893 H 1805.67 1.79901 3.81069 0
M  V30 18894 H 1804.35 0.813622 3.13308 0
M  V30 18895 H 1803.25 2.96743 2.27804 0
M  V30 18896 H 1804.59 3.8922 3.01278 0
M  V30 18897 N 1806.24 -0.757876 1.38181 0
M  V30 18898 C 1807.49 -1.51388 1.33888 0
M  V30 18899 C 1807.81 -1.94867 -0.0718767 0
M  V30 18900 O 1807.08 -1.67329 -1.01871 0
M  V30 18901 H 1805.66 -0.561534 0.492634 0
M  V30 18902 H 1808.32 -0.901156 1.72815 0
M  V30 18903 H 1807.42 -2.4068 1.98695 0
M  V30 18904 N 1807.72 -1.22979 -0.985586 0
M  V30 18905 C 1808.65 -1.03073 -2.09519 0
M  V30 18906 C 1809.63 0.0507025 -1.70024 0
M  V30 18907 O 1810.81 -0.112938 -1.93871 0
M  V30 18908 C 1807.94 -0.615578 -3.41801 0
M  V30 18909 C 1806.9 -1.64377 -3.95176 0
M  V30 18910 C 1806.22 -1.08422 -5.23592 0
M  V30 18911 C 1807.52 -3.03555 -4.25032 0
M  V30 18912 H 1809.22 -1.95882 -2.2643 0
M  V30 18913 H 1806.76 -0.943206 -1.0881 0
M  V30 18914 H 1808.72 -0.463394 -4.18844 0
M  V30 18915 H 1807.44 0.348185 -3.24739 0
M  V30 18916 H 1806.1 -1.78386 -3.20272 0
M  V30 18917 H 1805.75 -0.111597 -5.02876 0
M  V30 18918 H 1805.45 -1.77118 -5.6027 0
M  V30 18919 H 1806.97 -0.94378 -6.03262 0
M  V30 18920 H 1808.38 -2.92878 -4.92844 0
M  V30 18921 H 1806.78 -3.69441 -4.72899 0
M  V30 18922 H 1807.85 -3.52937 -3.32511 0
M  V30 18923 N 1809.19 1.18355 -1.04066 0
M  V30 18924 C 1810.44 1.87963 -0.742576 0
M  V30 18925 C 1810.76 1.80744 0.731899 0
M  V30 18926 O 1810.03 1.22576 1.52813 0
M  V30 18927 H 1808.61 0.69584 -0.271689 0
M  V30 18928 H 1811.28 1.43632 -1.31741 0
M  V30 18929 H 1810.37 2.93999 -1.04741 0
M  V30 18930 N 1810.67 0.820125 1.3458 0
M  V30 18931 C 1811.58 0.241913 2.33349 0
M  V30 18932 C 1812.6 -0.622228 1.62494 0
M  V30 18933 O 1813.77 -0.530787 1.9428 0
M  V30 18934 C 1810.84 -0.588944 3.41661 0
M  V30 18935 C 1809.9 0.29727 4.2827 0
M  V30 18936 C 1809.13 -0.494028 5.31409 0
M  V30 18937 O 1809.36 -1.72755 5.4361 0
M  V30 18938 O 1808.29 0.122182 6.01776 0
M  V30 18939 H 1812.12 1.05934 2.84626 0
M  V30 18940 H 1809.7 0.582205 1.37589 0
M  V30 18941 H 1811.58 -1.06174 4.07805 0
M  V30 18942 H 1810.26 -1.38374 2.92633 0
M  V30 18943 H 1809.17 0.817495 3.65059 0
M  V30 18944 H 1810.5 1.05635 4.80731 0
M  V30 18945 N 1812.15 -1.46743 0.574835 0
M  V30 18946 C 1813.06 -2.34015 -0.16559 0
M  V30 18947 C 1814.08 -1.49273 -0.894064 0
M  V30 18948 O 1815.25 -1.82162 -0.859013 0
M  V30 18949 C 1812.32 -3.26313 -1.17136 0
M  V30 18950 C 1811.38 -4.26952 -0.448413 0
M  V30 18951 C 1810.61 -5.1484 -1.40627 0
M  V30 18952 O 1810.83 -5.05508 -2.6423 0
M  V30 18953 O 1809.77 -5.9481 -0.921143 0
M  V30 18954 H 1813.59 -2.98664 0.550754 0
M  V30 18955 H 1811.18 -1.45589 0.335297 0
M  V30 18956 H 1813.06 -3.83276 -1.75149 0
M  V30 18957 H 1811.74 -2.64269 -1.86931 0
M  V30 18958 H 1810.64 -3.73698 0.17336 0
M  V30 18959 H 1811.98 -4.91759 0.208419 0
M  V30 18960 N 1813.63 -0.312197 -1.54477 0
M  V30 18961 C 1814.56 0.551829 -2.26886 0
M  V30 18962 C 1815.54 1.12874 -1.27254 0
M  V30 18963 O 1816.72 1.15599 -1.56046 0
M  V30 18964 C 1813.85 1.71839 -3.01809 0
M  V30 18965 C 1812.81 1.27131 -4.08683 0
M  V30 18966 C 1812.13 2.52392 -4.71384 0
M  V30 18967 C 1813.43 0.394413 -5.20809 0
M  V30 18968 H 1815.13 -0.0521331 -2.99355 0
M  V30 18969 H 1812.67 -0.0265138 -1.43976 0
M  V30 18970 H 1814.63 2.32903 -3.5119 0
M  V30 18971 H 1813.35 2.34876 -2.26938 0
M  V30 18972 H 1812.01 0.683666 -3.60169 0
M  V30 18973 H 1811.66 3.13768 -3.93139 0
M  V30 18974 H 1811.36 2.23174 -5.43569 0
M  V30 18975 H 1812.88 3.14239 -5.23533 0
M  V30 18976 H 1814.3 0.911031 -5.66015 0
M  V30 18977 H 1812.69 0.195517 -5.99781 0
M  V30 18978 H 1813.76 -0.577661 -4.81447 0
M  V30 18979 N 1815.11 1.57549 -0.040136 0
M  V30 18980 C 1816.04 2.13912 0.936168 0
M  V30 18981 C 1817.02 1.05798 1.33194 0
M  V30 18982 O 1818.2 1.33685 1.40861 0
M  V30 18983 C 1815.33 2.67515 2.21479 0
M  V30 18984 C 1814.29 3.80513 1.95943 0
M  V30 18985 C 1813.61 4.20589 3.30165 0
M  V30 18986 C 1814.91 5.06124 1.28981 0
M  V30 18987 H 1816.61 2.9574 0.46674 0
M  V30 18988 H 1814.15 1.42262 0.223062 0
M  V30 18989 H 1816.11 3.05582 2.90168 0
M  V30 18990 H 1814.83 1.82864 2.70608 0
M  V30 18991 H 1813.49 3.42902 1.29669 0
M  V30 18992 H 1813.14 3.32904 3.77073 0
M  V30 18993 H 1812.84 4.96742 3.13881 0
M  V30 18994 H 1814.36 4.61248 4.00103 0
M  V30 18995 H 1815.77 5.41707 1.87687 0
M  V30 18996 H 1814.17 5.87347 1.2306 0
M  V30 18997 H 1815.24 4.84179 0.264286 0
M  V30 18998 N 1816.58 -0.233136 1.55866 0
M  V30 18999 C 1817.52 -1.31202 1.87932 0
M  V30 19000 C 1818.53 -1.43619 0.766642 0
M  V30 19001 O 1819.72 -1.44723 1.04487 0
M  V30 19002 C 1816.82 -2.68904 2.06262 0
M  V30 19003 C 1815.99 -2.78581 3.37211 0
M  V30 19004 C 1815.05 -3.97219 3.45114 0
M  V30 19005 O 1814.08 -3.861 4.18229 0
M  V30 19006 N 1815.28 -5.11009 2.7541 0
M  V30 19007 H 1818.04 -1.04025 2.81067 0
M  V30 19008 H 1815.6 -0.423209 1.56271 0
M  V30 19009 H 1817.6 -3.46631 2.08876 0
M  V30 19010 H 1816.17 -2.8873 1.19807 0
M  V30 19011 H 1815.39 -1.87422 3.46795 0
M  V30 19012 H 1816.67 -2.82008 4.23496 0
M  V30 19013 H 1816.07 -5.22936 2.15764 0
M  V30 19014 H 1814.63 -5.8682 2.837 0
M  V30 19015 N 1818.06 -1.49479 -0.499372 0
M  V30 19016 C 1819.3 -1.60667 -1.26355 0
M  V30 19017 C 1819.67 -0.28764 -1.89833 0
M  V30 19018 O 1820.87 -0.274714 -2.67393 0
M  V30 19019 C 1819.14 -2.73489 -2.30084 0
M  V30 19020 S 1820.7 -3.04637 -3.15819 0
M  V30 19021 H 1817.52 -0.566696 -0.429391 0
M  V30 19022 H 1820.12 -1.87145 -0.565436 0
M  V30 19023 H 1818.82 -3.67846 -1.81982 0
M  V30 19024 H 1818.35 -2.49009 -3.04562 0
M  V30 19025 H 1820.37 -2.46284 -4.30765 0
M  V30 19026 N 1819.54 0.750537 -1.38581 0
M  V30 19027 C 1820.45 1.89503 -1.38296 0
M  V30 19028 C 1821.47 1.71738 -0.279678 0
M  V30 19029 O 1822.64 1.94608 -0.518607 0
M  V30 19030 C 1819.71 3.24909 -1.20976 0
M  V30 19031 C 1818.77 3.55178 -2.41136 0
M  V30 19032 C 1818 4.84124 -2.24633 0
M  V30 19033 O 1818.23 5.56722 -1.24164 0
M  V30 19034 O 1817.16 5.1394 -3.13288 0
M  V30 19035 H 1820.99 1.92698 -2.34737 0
M  V30 19036 H 1818.57 0.896233 -1.19533 0
M  V30 19037 H 1820.45 4.05858 -1.13389 0
M  V30 19038 H 1819.13 3.22519 -0.276217 0
M  V30 19039 H 1818.03 2.74378 -2.54298 0
M  V30 19040 H 1819.37 3.62332 -3.33131 0
M  V30 19041 N 1821.02 1.235 0.979051 0
M  V30 19042 C 1822.27 1.06949 1.72307 0
M  V30 19043 C 1822.6 -0.392491 1.90192 0
M  V30 19044 O 1821.87 -1.29054 1.45518 0
M  V30 19045 C 1822.16 1.79705 3.12055 0
M  V30 19046 C 1822.01 3.33583 3.01732 0
M  V30 19047 C 1823.33 1.56062 4.11501 0
M  V30 19048 H 1820.45 0.389917 0.625407 0
M  V30 19049 H 1823.09 1.52022 1.1397 0
M  V30 19050 H 1821.24 1.4139 3.61858 0
M  V30 19051 H 1822.91 3.81428 2.59443 0
M  V30 19052 H 1821.15 3.62547 2.38206 0
M  V30 19053 H 1821.83 3.79681 4.00683 0
M  V30 19054 H 1824.3 1.8937 3.70511 0
M  V30 19055 H 1823.18 2.09442 5.07371 0
M  V30 19056 H 1823.44 0.496276 4.39306 0
M  V30 19057 N 1822.5 -1.17802 1.04693 0
M  V30 19058 C 1823.91 -1.69583 0.780923 0
M  V30 19059 C 1824.26 -1.83383 -0.697497 0
M  V30 19060 O 1823.38 -1.51781 -1.54245 0
M  V30 19061 C 1823.98 -3.08021 1.41097 0
M  V30 19062 C 1822.54 -3.56989 1.19313 0
M  V30 19063 C 1821.69 -2.33377 1.49768 0
M  V30 19064 H 1824.64 -1.02389 1.21253 0
M  V30 19065 H 1824.66 -3.71613 0.817539 0
M  V30 19066 H 1824.17 -2.97945 2.48697 0
M  V30 19067 H 1822.27 -3.72351 0.136146 0
M  V30 19068 H 1822.38 -4.40049 1.89456 0
M  V30 19069 H 1820.75 -2.37597 0.917585 0
M  V30 19070 H 1821.53 -2.25914 2.58491 0
M  V30 19071 N 1823.98 -0.827251 -1.34143 0
M  V30 19072 C 1824.91 -0.209663 -2.28239 0
M  V30 19073 C 1825.92 0.602945 -1.51223 0
M  V30 19074 O 1827.11 0.431917 -1.73196 0
M  V30 19075 C 1824.21 0.724345 -3.31069 0
M  V30 19076 C 1823.38 -0.0463812 -4.37375 0
M  V30 19077 C 1822.44 0.809208 -5.19941 0
M  V30 19078 O 1821.47 0.252619 -5.68639 0
M  V30 19079 N 1822.67 2.12835 -5.40075 0
M  V30 19080 H 1825.43 -1.0181 -2.81877 0
M  V30 19081 H 1823 -0.684618 -1.46713 0
M  V30 19082 H 1824.99 1.30143 -3.83204 0
M  V30 19083 H 1823.56 1.43352 -2.77793 0
M  V30 19084 H 1822.78 -0.804793 -3.85897 0
M  V30 19085 H 1824.07 -0.576775 -5.0552 0
M  V30 19086 H 1823.46 2.60423 -5.02191 0
M  V30 19087 H 1822.02 2.65419 -5.95312 0
M  V30 19088 N 1825.45 1.46436 -0.582609 0
M  V30 19089 C 1826.87 1.5772 -0.244278 0
M  V30 19090 C 1827.07 1.57772 1.2534 0
M  V30 19091 O 1826.13 1.49463 2.03512 0
M  V30 19092 C 1827.44 2.87122 -0.893398 0
M  V30 19093 C 1828.99 3.00753 -0.866979 0
M  V30 19094 C 1829.46 4.32891 -1.49564 0
M  V30 19095 N 1830.95 4.3959 -1.45998 0
M  V30 19096 C 1831.69 5.40449 -1.91578 0
M  V30 19097 N 1831.18 6.47983 -2.45132 0
M  V30 19098 N 1832.98 5.3165 -1.82496 0
M  V30 19099 H 1825.13 1.44646 -1.55536 0
M  V30 19100 H 1827.39 0.689972 -0.650109 0
M  V30 19101 H 1827.1 2.92894 -1.94695 0
M  V30 19102 H 1826.97 3.75056 -0.40156 0
M  V30 19103 H 1829.36 2.94563 0.177954 0
M  V30 19104 H 1829.44 2.14295 -1.39684 0
M  V30 19105 H 1829.08 4.39839 -2.53977 0
M  V30 19106 H 1829.01 5.18124 -0.94101 0
M  V30 19107 H 1831.5 3.62479 -1.06851 0
M  V30 19108 H 1831.82 7.21154 -2.7777 0
M  V30 19109 H 1830.16 6.48803 -2.49157 0
M  V30 19110 H 1833.35 4.46543 -1.40416 0
M  V30 19111 H 1833.53 6.1011 -2.18334 0
M  V30 19112 N 1826.93 0.320385 1.54309 0
M  V30 19113 C 1827.86 -0.539789 2.27175 0
M  V30 19114 C 1828.84 -1.12198 1.2785 0
M  V30 19115 O 1830.03 -1.1477 1.56657 0
M  V30 19116 C 1827.16 -1.70236 3.02716 0
M  V30 19117 C 1826.11 -1.24962 4.09351 0
M  V30 19118 C 1825.44 -2.49888 4.72715 0
M  V30 19119 C 1826.74 -0.366788 5.21011 0
M  V30 19120 H 1828.43 0.0680079 2.99323 0
M  V30 19121 H 1825.98 0.0341488 1.4396 0
M  V30 19122 H 1827.93 -2.31037 3.5242 0
M  V30 19123 H 1826.65 -2.33669 2.2818 0
M  V30 19124 H 1825.31 -0.664556 3.60526 0
M  V30 19125 H 1824.96 -3.11679 3.94798 0
M  V30 19126 H 1824.66 -2.20288 5.44745 0
M  V30 19127 H 1826.19 -3.11458 5.25192 0
M  V30 19128 H 1827.6 -0.881001 5.6649 0
M  V30 19129 H 1826 -0.163707 5.99877 0
M  V30 19130 H 1827.07 0.603185 4.81134 0
M  V30 19131 N 1828.41 -1.57525 0.0484906 0
M  V30 19132 C 1829.34 -2.14405 -0.924811 0
M  V30 19133 C 1830.32 -1.06503 -1.32631 0
M  V30 19134 O 1831.51 -1.3443 -1.4015 0
M  V30 19135 C 1828.64 -2.68686 -2.20057 0
M  V30 19136 C 1827.59 -3.81547 -1.93922 0
M  V30 19137 C 1826.92 -4.22334 -3.27929 0
M  V30 19138 C 1828.22 -5.06801 -1.26295 0
M  V30 19139 H 1829.91 -2.95983 -0.45105 0
M  V30 19140 H 1827.46 -1.42378 -0.215514 0
M  V30 19141 H 1829.41 -3.07117 -2.88543 0
M  V30 19142 H 1828.13 -1.84296 -2.69634 0
M  V30 19143 H 1826.79 -3.43585 -1.27848 0
M  V30 19144 H 1826.44 -3.34899 -3.75302 0
M  V30 19145 H 1826.14 -4.984 -3.11242 0
M  V30 19146 H 1827.66 -4.63363 -3.97652 0
M  V30 19147 H 1829.08 -5.42695 -1.84812 0
M  V30 19148 H 1827.47 -5.87991 -1.19943 0
M  V30 19149 H 1828.54 -4.84313 -0.238605 0
M  V30 19150 N 1829.89 0.224867 -1.55988 0
M  V30 19151 C 1830.8 1.2997 -1.95307 0
M  V30 19152 C 1831.81 1.51463 -0.856444 0
M  V30 19153 O 1832.99 1.64658 -1.15973 0
M  V30 19154 C 1830.05 2.63009 -2.25892 0
M  V30 19155 C 1829.12 2.49847 -3.49106 0
M  V30 19156 C 1828.35 3.76541 -3.78223 0
M  V30 19157 O 1828.57 4.7941 -3.09066 0
M  V30 19158 O 1827.51 3.73852 -4.71718 0
M  V30 19159 H 1831.33 0.996093 -2.869 0
M  V30 19160 H 1828.92 0.427457 -1.43154 0
M  V30 19161 H 1830.8 3.41586 -2.46774 0
M  V30 19162 H 1829.47 2.93057 -1.37474 0
M  V30 19163 H 1828.38 1.69482 -3.33507 0
M  V30 19164 H 1829.71 2.24739 -4.37896 0
M  V30 19165 N 1831.37 1.49742 0.491438 0
M  V30 19166 C 1832.3 1.6173 1.60993 0
M  V30 19167 C 1833.28 0.466021 1.55779 0
M  V30 19168 O 1834.46 0.682843 1.75697 0
M  V30 19169 C 1831.59 1.58109 2.99532 0
M  V30 19170 C 1830.63 2.78551 3.22973 0
M  V30 19171 S 1831.47 4.4011 3.05063 0
M  V30 19172 C 1832.62 4.3915 4.4598 0
M  V30 19173 H 1832.86 2.56345 1.50581 0
M  V30 19174 H 1830.39 1.38752 0.677301 0
M  V30 19175 H 1832.35 1.56706 3.79412 0
M  V30 19176 H 1831.01 0.64765 3.0735 0
M  V30 19177 H 1830.2 2.72264 4.24133 0
M  V30 19178 H 1829.8 2.77416 2.50831 0
M  V30 19179 H 1832.09 4.11459 5.38245 0
M  V30 19180 H 1833.04 5.40619 4.57315 0
M  V30 19181 H 1833.45 3.69107 4.27107 0
M  V30 19182 N 1832.84 -0.743177 1.38977 0
M  V30 19183 C 1833.81 -1.83876 1.36829 0
M  V30 19184 C 1834.81 -1.5857 0.266875 0
M  V30 19185 O 1836 -1.66121 0.524337 0
M  V30 19186 C 1833.13 -3.21528 1.1328 0
M  V30 19187 H 1834.32 -1.87186 2.3431 0
M  V30 19188 H 1831.88 -0.945979 1.24422 0
M  V30 19189 H 1832.61 -3.23883 0.164474 0
M  V30 19190 H 1832.4 -3.41292 1.93034 0
M  V30 19191 H 1833.89 -4.01597 1.14498 0
M  V30 19192 N 1834.32 -1.24018 -0.972487 0
M  V30 19193 C 1835.56 -1.08885 -1.72984 0
M  V30 19194 C 1835.93 0.366766 -1.88464 0
M  V30 19195 O 1837.13 0.639481 -2.61083 0
M  V30 19196 C 1835.4 -1.80306 -3.08585 0
M  V30 19197 S 1836.96 -1.80844 -3.99801 0
M  V30 19198 H 1833.78 -0.389523 -0.594805 0
M  V30 19199 H 1836.38 -1.57275 -1.16124 0
M  V30 19200 H 1835.08 -2.85339 -2.94975 0
M  V30 19201 H 1834.61 -1.3223 -3.70512 0
M  V30 19202 H 1836.63 -0.872692 -4.88465 0
M  V30 19203 N 1835.8 1.17245 -1.05316 0
M  V30 19204 C 1837.05 1.87165 -0.762471 0
M  V30 19205 C 1837.37 1.8151 0.712687 0
M  V30 19206 O 1836.64 1.2419 1.51504 0
M  V30 19207 H 1835.22 0.69292 -0.279054 0
M  V30 19208 H 1837.88 1.42227 -1.33257 0
M  V30 19209 H 1836.98 2.92872 -1.07854 0
M  V30 19210 N 1837.28 0.834353 1.33702 0
M  V30 19211 C 1838.56 0.350003 1.92443 0
M  V30 19212 C 1838.94 -1.1641 1.76102 0
M  V30 19213 O 1838.28 -1.97646 1.14666 0
M  V30 19214 C 1838.49 0.791928 3.39896 0
M  V30 19215 C 1839.84 0.797338 4.17046 0
M  V30 19216 O 1840.87 0.735242 3.48529 0
M  V30 19217 O 1839.72 0.880963 5.39353 0
M  V30 19218 H 1836.82 0.0981048 0.82116 0
M  V30 19219 H 1839.36 0.919905 1.42604 0
M  V30 19220 H 1838.14 1.83433 3.45641 0
M  V30 19221 H 1837.76 0.198349 3.97105 0
M  V30 19222 N 1838.76 -1.46125 0.590367 0
M  V30 19223 C 1840.17 -1.85962 0.165876 0
M  V30 19224 C 1840.52 -1.49296 -1.27299 0
M  V30 19225 O 1839.64 -0.911461 -1.96269 0
M  V30 19226 C 1840.24 -3.3752 0.294262 0
M  V30 19227 C 1838.8 -3.76324 -0.0754118 0
M  V30 19228 C 1837.94 -2.70126 0.626682 0
M  V30 19229 H 1840.9 -1.3717 0.79812 0
M  V30 19230 H 1840.92 -3.77482 -0.4783 0
M  V30 19231 H 1840.43 -3.64175 1.34159 0
M  V30 19232 H 1838.53 -3.55287 -1.12258 0
M  V30 19233 H 1838.64 -4.7812 0.306241 0
M  V30 19234 H 1837.01 -2.54614 0.0661219 0
M  V30 19235 H 1837.79 -2.99619 1.6758 0
M  V30 19236 N 1840.23 -0.328564 -1.54137 0
M  V30 19237 C 1841.17 0.569226 -2.22019 0
M  V30 19238 C 1842.18 1.0759 -1.22181 0
M  V30 19239 O 1843.37 0.988621 -1.48622 0
M  V30 19240 C 1840.47 1.79439 -2.87498 0
M  V30 19241 C 1839.64 1.42555 -4.13517 0
M  V30 19242 C 1838.7 2.50878 -4.62544 0
M  V30 19243 O 1837.73 2.14812 -5.27109 0
M  V30 19244 N 1838.93 3.8189 -4.37196 0
M  V30 19245 H 1841.69 -0.0120478 -2.99698 0
M  V30 19246 H 1839.25 -0.151994 -1.61185 0
M  V30 19247 H 1841.25 2.51307 -3.17218 0
M  V30 19248 H 1839.82 2.28339 -2.13495 0
M  V30 19249 H 1839.04 0.538288 -3.90507 0
M  V30 19250 H 1840.32 1.1549 -4.9552 0
M  V30 19251 H 1839.72 4.13987 -3.85527 0
M  V30 19252 H 1838.28 4.49974 -4.71558 0
M  V30 19253 N 1841.71 1.57497 -0.0568439 0
M  V30 19254 C 1843.12 1.80477 0.478027 0
M  V30 19255 C 1843.47 0.969549 1.7057 0
M  V30 19256 O 1842.6 0.187756 2.15584 0
M  V30 19257 C 1843.19 3.27332 0.874013 0
M  V30 19258 C 1841.75 3.5121 1.35383 0
M  V30 19259 C 1840.9 2.75308 0.331752 0
M  V30 19260 H 1843.85 1.56162 -0.282678 0
M  V30 19261 H 1843.87 3.38563 1.73653 0
M  V30 19262 H 1843.38 3.88095 -0.019701 0
M  V30 19263 H 1841.49 2.95734 2.26655 0
M  V30 19264 H 1841.6 4.59919 1.34208 0
M  V30 19265 H 1839.96 2.41616 0.805851 0
M  V30 19266 H 1840.75 3.38801 -0.553975 0
M  V30 19267 N 1843.19 -0.216591 1.56105 0
M  V30 19268 C 1844.14 -1.28803 1.93681 0
M  V30 19269 C 1845.13 -1.4826 0.819464 0
M  V30 19270 O 1846.34 -1.49376 1.00433 0
M  V30 19271 H 1842.71 -0.431947 0.61557 0
M  V30 19272 H 1844.68 -0.943954 2.83076 0
M  V30 19273 C 1843.43 -2.63017 2.27414 0
M  V30 19274 H 1842.76 -2.48855 3.12908 0
M  V30 19275 H 1844.2 -3.36787 2.57587 0
M  V30 19276 C 1842.66 -3.18401 1.10103 0
M  V30 19277 O 1843.19 -4.00041 0.364758 0
M  V30 19278 N 1841.39 -2.76843 0.883536 0
M  V30 19279 H 1840.94 -2.1056 1.48399 0
M  V30 19280 H 1840.9 -3.1424 0.100368 0
M  V30 19281 N 1844.67 -1.5 -0.48349 0
M  V30 19282 C 1845.91 -1.60606 -1.23829 0
M  V30 19283 C 1846.25 -0.299778 -1.91872 0
M  V30 19284 O 1845.52 0.697925 -1.81547 0
M  V30 19285 C 1845.81 -2.77769 -2.29165 0
M  V30 19286 C 1845.66 -4.18243 -1.65507 0
M  V30 19287 C 1846.98 -2.90521 -3.30584 0
M  V30 19288 H 1844.1 -0.584561 -0.44884 0
M  V30 19289 H 1846.74 -1.82346 -0.533855 0
M  V30 19290 H 1844.89 -2.59364 -2.89245 0
M  V30 19291 H 1846.56 -4.48208 -1.09119 0
M  V30 19292 H 1844.8 -4.23077 -0.958577 0
M  V30 19293 H 1845.47 -4.96128 -2.41994 0
M  V30 19294 H 1847.95 -3.0733 -2.80513 0
M  V30 19295 H 1846.83 -3.74146 -4.0163 0
M  V30 19296 H 1847.09 -2.00609 -3.93965 0
M  V30 19297 N 1846.15 0.735796 -1.39369 0
M  V30 19298 C 1847.09 1.8498 -1.38025 0
M  V30 19299 C 1848.06 1.64356 -0.24007 0
M  V30 19300 O 1849.25 1.85774 -0.435058 0
M  V30 19301 C 1846.39 3.22484 -1.22874 0
M  V30 19302 C 1845.5 3.54819 -2.4643 0
M  V30 19303 C 1844.64 4.8172 -2.23873 0
M  V30 19304 C 1843.68 5.06895 -3.43108 0
M  V30 19305 N 1842.81 6.25 -3.19874 0
M  V30 19306 H 1847.65 1.85463 -2.33254 0
M  V30 19307 H 1845.19 0.906252 -1.15868 0
M  V30 19308 H 1847.15 4.01857 -1.12101 0
M  V30 19309 H 1845.78 3.21281 -0.312759 0
M  V30 19310 H 1844.83 2.70153 -2.67809 0
M  V30 19311 H 1846.14 3.69342 -3.35244 0
M  V30 19312 H 1845.3 5.69072 -2.10338 0
M  V30 19313 H 1844.03 4.69369 -1.32453 0
M  V30 19314 H 1843.04 4.18006 -3.57143 0
M  V30 19315 H 1844.26 5.21132 -4.35429 0
M  V30 19316 H 1842.21 6.13939 -2.31117 0
M  V30 19317 H 1842.13 6.40106 -4.02244 0
M  V30 19318 H 1843.4 7.15193 -3.10031 0
M  V30 19319 N 1847.63 1.24532 0.965897 0
M  V30 19320 C 1848.54 1.0564 2.09469 0
M  V30 19321 C 1849.55 -0.00330962 1.74 0
M  V30 19322 O 1850.73 0.195248 2.00451 0
M  V30 19323 C 1847.79 0.665318 3.40256 0
M  V30 19324 C 1846.85 1.80171 3.89663 0
M  V30 19325 C 1846.09 1.42919 5.14208 0
M  V30 19326 O 1846.31 0.319815 5.69503 0
M  V30 19327 O 1845.24 2.25546 5.58044 0
M  V30 19328 H 1849.07 2.00277 2.28304 0
M  V30 19329 H 1846.65 1.03368 1.07868 0
M  V30 19330 H 1848.54 0.458827 4.18895 0
M  V30 19331 H 1847.21 -0.251914 3.22718 0
M  V30 19332 H 1846.12 2.06296 3.12078 0
M  V30 19333 H 1847.45 2.69778 4.11681 0
M  V30 19334 N 1849.1 -1.16685 1.05936 0
M  V30 19335 C 1850.07 -2.19155 0.671098 0
M  V30 19336 C 1851.07 -1.5832 -0.281305 0
M  V30 19337 O 1852.26 -1.74082 -0.0641708 0
M  V30 19338 C 1849.39 -3.40897 -0.0131101 0
M  V30 19339 H 1850.58 -2.55019 1.57815 0
M  V30 19340 H 1848.13 -1.30897 0.854147 0
M  V30 19341 H 1848.87 -3.10587 -0.933077 0
M  V30 19342 H 1848.65 -3.86304 0.671687 0
M  V30 19343 H 1850.14 -4.16722 -0.270606 0
M  V30 19344 N 1850.58 -0.841432 -1.33258 0
M  V30 19345 C 1851.54 -0.281685 -2.27462 0
M  V30 19346 C 1852.54 0.551062 -1.51063 0
M  V30 19347 O 1853.73 0.364482 -1.70344 0
M  V30 19348 C 1850.87 0.602896 -3.35526 0
M  V30 19349 H 1852.06 -1.11298 -2.78483 0
M  V30 19350 H 1849.61 -0.614717 -1.43704 0
M  V30 19351 H 1850.35 1.45652 -2.89751 0
M  V30 19352 H 1850.13 0.00701634 -3.92099 0
M  V30 19353 H 1851.62 0.987735 -4.05751 0
M  V30 19354 N 1852.06 1.4581 -0.598108 0
M  V30 19355 C 1852.99 2.33223 0.113747 0
M  V30 19356 C 1853.97 1.46268 0.868312 0
M  V30 19357 O 1855.16 1.75058 0.840737 0
M  V30 19358 C 1852.29 3.28815 1.11795 0
M  V30 19359 C 1851.24 4.25331 0.477223 0
M  V30 19360 C 1850.57 5.10544 1.589 0
M  V30 19361 C 1851.87 5.18894 -0.595518 0
M  V30 19362 H 1853.56 2.92992 -0.616123 0
M  V30 19363 H 1851.11 1.40888 -0.297741 0
M  V30 19364 H 1853.06 3.88832 1.62443 0
M  V30 19365 H 1851.78 2.67185 1.87829 0
M  V30 19366 H 1850.44 3.66599 -0.00831044 0
M  V30 19367 H 1850.09 4.45288 2.33939 0
M  V30 19368 H 1849.79 5.75918 1.16584 0
M  V30 19369 H 1851.31 5.73427 2.09794 0
M  V30 19370 H 1852.73 5.73037 -0.173494 0
M  V30 19371 H 1851.12 5.92694 -0.939873 0
M  V30 19372 H 1852.19 4.61895 -1.47584 0
M  V30 19373 N 1853.54 0.336733 1.53961 0
M  V30 19374 C 1854.79 -0.262826 1.9998 0
M  V30 19375 C 1855.1 -1.52201 1.22858 0
M  V30 19376 O 1856.31 -2.19839 1.5932 0
M  V30 19377 C 1854.76 -0.518877 3.5614 0
M  V30 19378 C 1854.37 0.724019 4.42111 0
M  V30 19379 C 1856.11 -1.07767 4.10593 0
M  V30 19380 C 1854.02 0.439143 5.89767 0
M  V30 19381 H 1852.95 -0.101987 0.747071 0
M  V30 19382 H 1855.6 0.451004 1.77871 0
M  V30 19383 H 1853.98 -1.29323 3.74288 0
M  V30 19384 H 1855.16 1.49896 4.35738 0
M  V30 19385 H 1853.47 1.20396 3.98615 0
M  V30 19386 H 1856.07 -1.30564 5.18514 0
M  V30 19387 H 1856.41 -2.03111 3.63389 0
M  V30 19388 H 1856.95 -0.36418 3.96129 0
M  V30 19389 H 1853.68 1.36212 6.41192 0
M  V30 19390 H 1853.2 -0.297839 5.9906 0
M  V30 19391 H 1854.88 0.0538506 6.46978 0
M  V30 19392 N 1855.02 -1.57465 0.0651956 0
M  V30 19393 C 1855.98 -2.1123 -0.889634 0
M  V30 19394 C 1856.98 -1.03489 -1.23072 0
M  V30 19395 O 1858.17 -1.29505 -1.16508 0
M  V30 19396 C 1855.3 -2.60818 -2.19515 0
M  V30 19397 H 1856.49 -2.96898 -0.423301 0
M  V30 19398 H 1854.05 -1.5522 -0.183417 0
M  V30 19399 H 1854.78 -1.78585 -2.70699 0
M  V30 19400 H 1854.57 -3.39564 -1.96057 0
M  V30 19401 H 1856.06 -3.02513 -2.87881 0
M  V30 19402 N 1856.49 0.20831 -1.56217 0
M  V30 19403 C 1857.42 1.26115 -1.96513 0
M  V30 19404 C 1858.4 1.48185 -0.835183 0
M  V30 19405 O 1859.59 1.60145 -1.09851 0
M  V30 19406 C 1856.72 2.6082 -2.29326 0
M  V30 19407 C 1855.67 2.53385 -3.44935 0
M  V30 19408 C 1855 3.92241 -3.63388 0
M  V30 19409 C 1856.3 2.07026 -4.79518 0
M  V30 19410 H 1857.99 0.92635 -2.84709 0
M  V30 19411 H 1855.54 0.444169 -1.36979 0
M  V30 19412 H 1857.49 3.34644 -2.56109 0
M  V30 19413 H 1856.22 2.96014 -1.37997 0
M  V30 19414 H 1854.88 1.82018 -3.18222 0
M  V30 19415 H 1854.52 4.24766 -2.69413 0
M  V30 19416 H 1854.22 3.88145 -4.41154 0
M  V30 19417 H 1855.75 4.67707 -3.92533 0
M  V30 19418 H 1857.16 2.70601 -5.05419 0
M  V30 19419 H 1855.56 2.13961 -5.60661 0
M  V30 19420 H 1856.63 1.02298 -4.73986 0
M  V30 19421 N 1857.97 1.50255 0.475528 0
M  V30 19422 C 1859.39 1.37582 0.808907 0
M  V30 19423 C 1859.59 0.428494 1.96891 0
M  V30 19424 O 1858.64 -0.130513 2.52162 0
M  V30 19425 C 1859.96 2.78856 1.12515 0
M  V30 19426 C 1861.5 2.8774 1.23186 0
M  V30 19427 C 1861.98 4.29838 1.58126 0
M  V30 19428 N 1863.47 4.32767 1.65126 0
M  V30 19429 C 1864.21 5.39708 1.93656 0
M  V30 19430 N 1863.7 6.56862 2.20237 0
M  V30 19431 N 1865.49 5.27147 1.95121 0
M  V30 19432 H 1857.65 2.10425 -0.28901 0
M  V30 19433 H 1859.91 0.945646 -0.0667713 0
M  V30 19434 H 1859.61 3.49995 0.345892 0
M  V30 19435 H 1859.49 3.15822 2.06244 0
M  V30 19436 H 1861.88 2.16823 2.0018 0
M  V30 19437 H 1861.96 2.54323 0.274475 0
M  V30 19438 H 1861.6 5.0129 0.816737 0
M  V30 19439 H 1861.53 4.60737 2.55007 0
M  V30 19440 H 1864.02 3.48288 1.46642 0
M  V30 19441 H 1864.33 7.34173 2.41268 0
M  V30 19442 H 1862.68 6.60044 2.17639 0
M  V30 19443 H 1865.87 4.3462 1.73849 0
M  V30 19444 H 1866.04 6.10578 2.17021 0
M  V30 19445 N 1859.45 -0.728395 1.39758 0
M  V30 19446 C 1860.67 -1.52268 1.40816 0
M  V30 19447 C 1861.1 -1.88099 0.00629167 0
M  V30 19448 O 1860.46 -1.52376 -0.982402 0
M  V30 19449 C 1860.51 -2.78262 2.29353 0
M  V30 19450 O 1859.61 -3.74453 1.72796 0
M  V30 19451 H 1858.95 -0.459582 0.47925 0
M  V30 19452 H 1861.48 -0.898132 1.83833 0
M  V30 19453 H 1861.49 -3.26927 2.44096 0
M  V30 19454 H 1860.17 -2.51515 3.31229 0
M  V30 19455 H 1858.74 -3.33248 1.67332 0
M  V30 19456 N 1860.93 -1.25042 -0.959279 0
M  V30 19457 C 1861.86 -1.07494 -2.07285 0
M  V30 19458 C 1862.84 0.0146264 -1.70094 0
M  V30 19459 O 1864.02 -0.154035 -1.93588 0
M  V30 19460 C 1861.15 -0.68794 -3.40418 0
M  V30 19461 C 1860.11 -1.72722 -3.91601 0
M  V30 19462 C 1859.43 -1.19504 -5.21175 0
M  V30 19463 C 1860.73 -3.12502 -4.18497 0
M  V30 19464 H 1862.43 -2.00641 -2.22224 0
M  V30 19465 H 1859.97 -0.966074 -1.06785 0
M  V30 19466 H 1861.93 -0.552133 -4.17767 0
M  V30 19467 H 1860.65 0.279224 -3.25404 0
M  V30 19468 H 1859.31 -1.85139 -3.16416 0
M  V30 19469 H 1858.96 -0.218239 -5.02526 0
M  V30 19470 H 1858.66 -1.88962 -5.56387 0
M  V30 19471 H 1860.18 -1.07153 -6.01124 0
M  V30 19472 H 1861.6 -3.03266 -4.86521 0
M  V30 19473 H 1859.99 -3.79389 -4.64956 0
M  V30 19474 H 1861.06 -3.5991 -3.2495 0
M  V30 19475 N 1862.41 1.16121 -1.06553 0
M  V30 19476 C 1863.34 2.20181 -0.636617 0
M  V30 19477 C 1864.35 1.59884 0.306731 0
M  V30 19478 O 1865.54 1.78235 0.0973101 0
M  V30 19479 C 1862.64 3.38789 0.0865541 0
M  V30 19480 C 1861.81 4.28641 -0.870941 0
M  V30 19481 C 1860.87 5.25869 -0.186538 0
M  V30 19482 O 1859.9 5.63189 -0.825028 0
M  V30 19483 N 1861.1 5.70536 1.0709 0
M  V30 19484 H 1863.87 2.576 -1.53175 0
M  V30 19485 H 1861.43 1.31157 -0.949185 0
M  V30 19486 H 1863.42 4.00878 0.554881 0
M  V30 19487 H 1861.99 2.99854 0.883524 0
M  V30 19488 H 1861.21 3.63776 -1.51858 0
M  V30 19489 H 1862.5 4.85552 -1.5204 0
M  V30 19490 H 1861.89 5.42314 1.60973 0
M  V30 19491 H 1860.45 6.34704 1.48305 0
M  V30 19492 N 1863.88 0.848487 1.3281 0
M  V30 19493 C 1864.82 0.245947 2.27877 0
M  V30 19494 C 1865.83 -0.578811 1.52163 0
M  V30 19495 O 1867.02 -0.404308 1.73861 0
M  V30 19496 C 1864.12 -0.671584 3.32179 0
M  V30 19497 C 1863.29 0.115958 4.37246 0
M  V30 19498 C 1862.35 -0.726387 5.21162 0
M  V30 19499 O 1861.38 -0.162121 5.68969 0
M  V30 19500 N 1862.58 -2.04216 5.43393 0
M  V30 19501 H 1865.34 1.06281 2.80222 0
M  V30 19502 H 1862.9 0.707872 1.45605 0
M  V30 19503 H 1864.9 -1.2403 3.85225 0
M  V30 19504 H 1863.47 -1.38914 2.80039 0
M  V30 19505 H 1862.69 0.866084 3.84568 0
M  V30 19506 H 1863.97 0.657126 5.04539 0
M  V30 19507 H 1863.37 -2.52401 5.06271 0
M  V30 19508 H 1861.93 -2.55914 5.99459 0
M  V30 19509 N 1865.36 -1.4549 0.605832 0
M  V30 19510 C 1866.27 -2.34313 -0.115915 0
M  V30 19511 C 1867.29 -1.51136 -0.862199 0
M  V30 19512 O 1868.46 -1.83943 -0.820181 0
M  V30 19513 C 1865.53 -3.28724 -1.10188 0
M  V30 19514 C 1864.59 -4.27807 -0.357749 0
M  V30 19515 C 1863.82 -5.17707 -1.29675 0
M  V30 19516 O 1864.05 -5.10999 -2.53448 0
M  V30 19517 O 1862.98 -5.9663 -0.794767 0
M  V30 19518 H 1866.81 -2.97429 0.613981 0
M  V30 19519 H 1864.39 -1.44845 0.366103 0
M  V30 19520 H 1866.27 -3.86905 -1.6698 0
M  V30 19521 H 1864.95 -2.68175 -1.81284 0
M  V30 19522 H 1863.86 -3.73246 0.252588 0
M  V30 19523 H 1865.19 -4.91206 0.312682 0
M  V30 19524 N 1866.84 -0.344893 -1.5378 0
M  V30 19525 C 1868.25 0.138727 -1.86184 0
M  V30 19526 C 1868.6 1.49882 -1.26609 0
M  V30 19527 O 1867.73 2.08478 -0.580174 0
M  V30 19528 C 1868.32 0.258502 -3.37812 0
M  V30 19529 C 1866.88 0.686356 -3.70089 0
M  V30 19530 C 1866.03 -0.179085 -2.76721 0
M  V30 19531 H 1868.98 -0.564442 -1.48323 0
M  V30 19532 H 1869 1.08576 -3.6468 0
M  V30 19533 H 1868.51 -0.731538 -3.81143 0
M  V30 19534 H 1866.61 1.68537 -3.32304 0
M  V30 19535 H 1866.73 0.475315 -4.76736 0
M  V30 19536 H 1865.09 0.348791 -2.523 0
M  V30 19537 H 1865.87 -1.16628 -3.22882 0
M  V30 19538 N 1868.32 1.57428 -0.0735454 0
M  V30 19539 C 1869.57 1.93174 0.593996 0
M  V30 19540 C 1869.89 0.954462 1.70044 0
M  V30 19541 O 1869.16 0.00289765 1.959 0
M  V30 19542 H 1867.74 0.713123 0.222407 0
M  V30 19543 H 1870.4 1.94454 -0.131813 0
M  V30 19544 H 1869.5 2.95025 1.01818 0
M  V30 19545 N 1869.8 -0.200022 1.56326 0
M  V30 19546 C 1871.05 -0.919331 1.7953 0
M  V30 19547 C 1871.36 -1.84628 0.645908 0
M  V30 19548 O 1872.56 -2.60584 0.762132 0
M  V30 19549 C 1871.02 -1.68508 3.18014 0
M  V30 19550 C 1870.63 -0.803202 4.40741 0
M  V30 19551 C 1872.37 -2.39432 3.50532 0
M  V30 19552 C 1870.28 -1.56753 5.70248 0
M  V30 19553 H 1869.21 -0.347018 0.669399 0
M  V30 19554 H 1871.86 -0.172713 1.82685 0
M  V30 19555 H 1870.24 -2.4754 3.09095 0
M  V30 19556 H 1871.42 -0.0518889 4.60771 0
M  V30 19557 H 1869.73 -0.205039 4.15895 0
M  V30 19558 H 1872.33 -2.97158 4.44524 0
M  V30 19559 H 1872.67 -3.13378 2.74043 0
M  V30 19560 H 1873.2 -1.6737 3.60877 0
M  V30 19561 H 1869.94 -0.870942 6.49688 0
M  V30 19562 H 1869.46 -2.29291 5.54243 0
M  V30 19563 H 1871.14 -2.12262 6.11191 0
M  V30 19564 N 1871.27 -1.50505 -0.467553 0
M  V30 19565 C 1872.22 -1.66014 -1.5628 0
M  V30 19566 C 1873.21 -0.51467 -1.52447 0
M  V30 19567 O 1874.4 -0.769238 -1.59411 0
M  V30 19568 C 1871.53 -1.76088 -2.947 0
M  V30 19569 C 1870.62 -2.96323 -3.03404 0
M  V30 19570 N 1871.01 -4.19951 -2.81913 0
M  V30 19571 C 1869.3 -2.94954 -3.34542 0
M  V30 19572 C 1870.01 -5.0095 -2.95676 0
M  V30 19573 N 1868.98 -4.34977 -3.26031 0
M  V30 19574 H 1872.78 -2.59289 -1.3837 0
M  V30 19575 H 1870.3 -1.47737 -0.674347 0
M  V30 19576 H 1872.29 -1.85303 -3.73455 0
M  V30 19577 H 1870.95 -0.839734 -3.13654 0
M  V30 19578 H 1871.97 -4.49391 -2.57426 0
M  V30 19579 H 1868.64 -2.12353 -3.59462 0
M  V30 19580 H 1870.03 -6.09268 -2.8327 0
M  V30 19581 N 1872.75 0.720973 -1.40142 0
M  V30 19582 C 1873.68 1.8457 -1.35891 0
M  V30 19583 C 1874.7 1.60625 -0.265232 0
M  V30 19584 O 1875.89 1.70599 -0.525198 0
M  V30 19585 C 1872.99 3.20871 -1.09064 0
M  V30 19586 C 1872.16 3.72058 -2.29982 0
M  V30 19587 C 1871.22 4.86957 -1.99397 0
M  V30 19588 O 1870.24 4.99888 -2.72213 0
M  V30 19589 N 1871.45 5.72361 -0.968645 0
M  V30 19590 H 1874.21 1.88717 -2.32822 0
M  V30 19591 H 1871.77 0.902293 -1.34426 0
M  V30 19592 H 1873.76 3.95326 -0.865979 0
M  V30 19593 H 1872.33 3.11906 -0.208188 0
M  V30 19594 H 1871.55 2.88795 -2.68312 0
M  V30 19595 H 1872.84 4.02991 -3.10605 0
M  V30 19596 H 1872.24 5.64518 -0.36546 0
M  V30 19597 H 1870.8 6.46824 -0.803886 0
M  V30 19598 N 1874.23 1.25549 0.952634 0
M  V30 19599 C 1875.48 1.1058 1.7 0
M  V30 19600 C 1875.81 -0.35206 1.90982 0
M  V30 19601 O 1875.08 -1.25938 1.48222 0
M  V30 19602 C 1875.37 1.86283 3.08173 0
M  V30 19603 C 1875.22 3.39909 2.94588 0
M  V30 19604 C 1876.54 1.64755 4.08098 0
M  V30 19605 H 1873.66 0.403095 0.616996 0
M  V30 19606 H 1876.3 1.54406 1.1072 0
M  V30 19607 H 1874.45 1.49033 3.58778 0
M  V30 19608 H 1876.12 3.86845 2.51294 0
M  V30 19609 H 1874.37 3.67518 2.30462 0
M  V30 19610 H 1875.04 3.88094 3.92539 0
M  V30 19611 H 1877.51 1.97186 3.66411 0
M  V30 19612 H 1876.39 2.20157 5.02814 0
M  V30 19613 H 1876.65 0.589348 4.38154 0
M  V30 19614 N 1875.71 -1.15554 1.07168 0
M  V30 19615 C 1876.64 -2.22387 0.71178 0
M  V30 19616 C 1877.62 -1.67435 -0.299908 0
M  V30 19617 O 1878.8 -1.93427 -0.173073 0
M  V30 19618 C 1875.93 -3.47136 0.106815 0
M  V30 19619 C 1874.89 -4.15035 1.04545 0
M  V30 19620 C 1874.21 -5.33839 0.303337 0
M  V30 19621 C 1875.51 -4.65011 2.37827 0
M  V30 19622 H 1877.21 -2.52748 1.60496 0
M  V30 19623 H 1874.75 -1.21485 0.773139 0
M  V30 19624 H 1876.71 -4.21108 -0.15689 0
M  V30 19625 H 1875.43 -3.16101 -0.821429 0
M  V30 19626 H 1874.09 -3.43001 1.29405 0
M  V30 19627 H 1873.74 -4.9906 -0.628308 0
M  V30 19628 H 1873.44 -5.8021 0.928964 0
M  V30 19629 H 1874.96 -6.10582 0.0473869 0
M  V30 19630 H 1876.38 -5.3052 2.17305 0
M  V30 19631 H 1874.77 -5.22038 2.95967 0
M  V30 19632 H 1875.84 -3.80748 3.00264 0
M  V30 19633 N 1877.19 -0.855519 -1.32358 0
M  V30 19634 C 1878.43 -0.460002 -1.97514 0
M  V30 19635 C 1878.77 0.982052 -1.67539 0
M  V30 19636 O 1878.04 1.68925 -0.964091 0
M  V30 19637 C 1878.32 -0.70064 -3.53218 0
M  V30 19638 C 1878.18 -2.19118 -3.9282 0
M  V30 19639 C 1879.5 -0.157597 -4.39818 0
M  V30 19640 H 1876.62 -0.168606 -0.717455 0
M  V30 19641 H 1879.26 -1.0741 -1.56726 0
M  V30 19642 H 1877.41 -0.177937 -3.88092 0
M  V30 19643 H 1879.08 -2.78002 -3.6812 0
M  V30 19644 H 1877.32 -2.66934 -3.41948 0
M  V30 19645 H 1877.99 -2.31024 -5.0133 0
M  V30 19646 H 1880.47 -0.604597 -4.11684 0
M  V30 19647 H 1879.35 -0.355532 -5.47747 0
M  V30 19648 H 1879.61 0.939679 -4.31998 0
M  V30 19649 N 1878.67 1.45167 -0.61354 0
M  V30 19650 C 1879.89 2.07076 -0.115821 0
M  V30 19651 C 1880.32 1.45415 1.19315 0
M  V30 19652 O 1879.67 0.549046 1.72786 0
M  V30 19653 C 1879.72 3.606 0.00406239 0
M  V30 19654 O 1878.83 3.98737 1.05273 0
M  V30 19655 H 1878.17 0.659547 -0.0767679 0
M  V30 19656 H 1880.7 1.86325 -0.845236 0
M  V30 19657 H 1880.71 4.07508 0.200356 0
M  V30 19658 H 1879.38 4.04865 -0.951695 0
M  V30 19659 H 1877.96 3.6349 0.832424 0
M  V30 19660 N 1880.14 0.353044 1.53595 0
M  V30 19661 C 1881.07 -0.491481 2.28269 0
M  V30 19662 C 1882.05 -1.0946 1.30201 0
M  V30 19663 O 1883.24 -1.11421 1.59056 0
M  V30 19664 C 1880.37 -1.63776 3.06259 0
M  V30 19665 C 1879.32 -1.16251 4.1191 0
M  V30 19666 C 1878.65 -2.39805 4.7791 0
M  V30 19667 C 1879.95 -0.256191 5.21671 0
M  V30 19668 H 1881.64 0.131483 2.99111 0
M  V30 19669 H 1879.19 0.0646771 1.43855 0
M  V30 19670 H 1881.14 -2.2351 3.57241 0
M  V30 19671 H 1879.87 -2.28777 2.33085 0
M  V30 19672 H 1878.53 -0.587934 3.61855 0
M  V30 19673 H 1878.17 -3.03234 4.0132 0
M  V30 19674 H 1877.87 -2.08684 5.49295 0
M  V30 19675 H 1879.4 -3.00248 5.3168 0
M  V30 19676 H 1880.81 -0.760642 5.68232 0
M  V30 19677 H 1879.21 -0.0364273 6.00089 0
M  V30 19678 H 1880.28 0.705105 4.79746 0
M  V30 19679 N 1881.62 -1.57387 0.0818932 0
M  V30 19680 C 1882.87 -1.93486 -0.583744 0
M  V30 19681 C 1883.19 -0.963466 -1.69536 0
M  V30 19682 O 1882.46 -0.0132866 -1.95895 0
M  V30 19683 H 1881.04 -0.714292 -0.218622 0
M  V30 19684 H 1883.7 -1.94381 0.142124 0
M  V30 19685 H 1882.8 -2.9556 -1.00252 0
M  V30 19686 N 1883.1 0.191729 -1.56429 0
M  V30 19687 C 1884.06 1.22128 -1.93952 0
M  V30 19688 C 1885.06 1.38262 -0.820984 0
M  V30 19689 O 1886.25 1.36017 -1.08835 0
M  V30 19690 C 1883.38 2.59005 -2.21651 0
M  V30 19691 H 1884.58 0.900458 -2.86063 0
M  V30 19692 H 1882.13 0.433382 -1.50172 0
M  V30 19693 H 1882.87 2.96136 -1.32189 0
M  V30 19694 H 1882.65 2.48665 -3.03164 0
M  V30 19695 H 1884.14 3.33242 -2.51674 0
M  V30 19696 N 1884.58 1.50751 0.459565 0
M  V30 19697 C 1885.8 1.66367 1.23842 0
M  V30 19698 C 1886.23 0.351355 1.84789 0
M  V30 19699 O 1885.59 -0.686103 1.67816 0
M  V30 19700 C 1885.63 2.76521 2.31449 0
M  V30 19701 O 1884.74 2.38576 3.36386 0
M  V30 19702 H 1884.08 0.555447 0.363833 0
M  V30 19703 H 1886.61 1.97193 0.545538 0
M  V30 19704 H 1886.62 2.99943 2.76583 0
M  V30 19705 H 1885.29 3.71759 1.86462 0
M  V30 19706 H 1883.87 2.25643 2.96883 0
M  V30 19707 N 1886.06 -0.713531 1.40522 0
M  V30 19708 C 1886.97 -1.8577 1.43272 0
M  V30 19709 C 1887.98 -1.70936 0.325113 0
M  V30 19710 O 1889.16 -1.93165 0.570022 0
M  V30 19711 C 1886.22 -3.21587 1.29548 0
M  V30 19712 C 1885.28 -3.4866 2.50469 0
M  V30 19713 C 1884.52 -4.77998 2.3739 0
M  V30 19714 O 1884.74 -5.53234 1.38881 0
M  V30 19715 O 1883.67 -5.05453 3.26804 0
M  V30 19716 H 1887.5 -1.86406 2.39763 0
M  V30 19717 H 1885.08 -0.864226 1.21867 0
M  V30 19718 H 1886.97 -4.02709 1.2411 0
M  V30 19719 H 1885.64 -3.21674 0.36163 0
M  V30 19720 H 1884.55 -2.67539 2.61483 0
M  V30 19721 H 1885.88 -3.53372 3.42621 0
M  V30 19722 N 1887.53 -1.26053 -0.945962 0
M  V30 19723 C 1888.48 -1.07194 -2.04397 0
M  V30 19724 C 1889.45 0.0215796 -1.66086 0
M  V30 19725 O 1890.64 -0.137272 -1.90306 0
M  V30 19726 C 1887.78 -0.705915 -3.37803 0
M  V30 19727 C 1886.89 -1.87519 -3.89179 0
M  V30 19728 C 1886.02 -1.45272 -5.1095 0
M  V30 19729 C 1885.06 -2.59059 -5.54576 0
M  V30 19730 N 1884.2 -2.17527 -6.67552 0
M  V30 19731 H 1889.04 -2.01159 -2.19861 0
M  V30 19732 H 1886.58 -1.00162 -1.07731 0
M  V30 19733 H 1888.53 -0.474611 -4.14492 0
M  V30 19734 H 1887.16 0.196761 -3.222 0
M  V30 19735 H 1886.22 -2.21956 -3.08933 0
M  V30 19736 H 1887.53 -2.7294 -4.17499 0
M  V30 19737 H 1886.68 -1.18158 -5.95083 0
M  V30 19738 H 1885.42 -0.569345 -4.84365 0
M  V30 19739 H 1884.43 -2.86908 -4.69003 0
M  V30 19740 H 1885.65 -3.47989 -5.83164 0
M  V30 19741 H 1883.6 -1.31618 -6.42661 0
M  V30 19742 H 1883.51 -2.96493 -6.95433 0
M  V30 19743 H 1884.78 -1.93612 -7.55073 0
M  V30 19744 N 1889.01 1.14984 -1.07779 0
M  V30 19745 C 1889.94 2.22006 -0.723564 0
M  V30 19746 C 1890.92 1.67592 0.291024 0
M  V30 19747 O 1892.11 1.93516 0.162812 0
M  V30 19748 C 1889.24 3.47074 -0.125223 0
M  V30 19749 C 1888.19 4.14475 -1.06745 0
M  V30 19750 C 1887.52 5.33671 -0.331643 0
M  V30 19751 C 1888.82 4.63744 -2.4029 0
M  V30 19752 H 1890.51 2.51893 -1.61834 0
M  V30 19753 H 1888.06 1.21073 -0.779571 0
M  V30 19754 H 1890.01 4.21185 0.134555 0
M  V30 19755 H 1888.73 3.16533 0.804654 0
M  V30 19756 H 1887.39 3.4231 -1.31222 0
M  V30 19757 H 1887.04 4.99387 0.601833 0
M  V30 19758 H 1886.74 5.7971 -0.959721 0
M  V30 19759 H 1888.27 6.10548 -0.0797668 0
M  V30 19760 H 1889.68 5.2936 -2.20115 0
M  V30 19761 H 1888.08 5.20461 -2.98732 0
M  V30 19762 H 1889.15 3.79151 -3.02279 0
M  V30 19763 N 1890.49 0.862526 1.31902 0
M  V30 19764 C 1891.71 0.483159 2.01694 0
M  V30 19765 C 1892.14 -0.914778 1.64358 0
M  V30 19766 O 1891.5 -1.60229 0.848308 0
M  V30 19767 C 1891.55 0.638911 3.54895 0
M  V30 19768 O 1890.65 -0.324962 4.11118 0
M  V30 19769 H 1889.99 0.193128 0.635293 0
M  V30 19770 H 1892.52 1.16389 1.6827 0
M  V30 19771 H 1892.53 0.529394 4.04551 0
M  V30 19772 H 1891.21 1.65828 3.81411 0
M  V30 19773 H 1889.78 -0.171025 3.72508 0
M  V30 19774 N 1891.97 -1.4484 0.62123 0
M  V30 19775 C 1892.9 -2.33374 -0.0766286 0
M  V30 19776 C 1893.88 -1.47631 -0.844932 0
M  V30 19777 O 1895.06 -1.76373 -0.81278 0
M  V30 19778 C 1892.19 -3.30552 -1.0655 0
M  V30 19779 C 1891.15 -4.26037 -0.409496 0
M  V30 19780 C 1890.47 -5.13007 -1.50757 0
M  V30 19781 C 1891.77 -5.17881 0.677994 0
M  V30 19782 H 1893.47 -2.91975 0.662658 0
M  V30 19783 H 1891.01 -1.40397 0.320117 0
M  V30 19784 H 1892.97 -3.91367 -1.56237 0
M  V30 19785 H 1891.69 -2.70139 -1.83555 0
M  V30 19786 H 1890.35 -3.66539 0.0666321 0
M  V30 19787 H 1890 -4.48954 -2.26825 0
M  V30 19788 H 1889.7 -5.777 -1.07407 0
M  V30 19789 H 1891.22 -5.76692 -2.00645 0
M  V30 19790 H 1892.64 -5.72689 0.264637 0
M  V30 19791 H 1891.03 -5.91124 1.03405 0
M  V30 19792 H 1892.1 -4.59488 1.54914 0
M  V30 19793 N 1893.45 -0.361184 -1.53405 0
M  V30 19794 C 1894.38 0.479368 -2.28526 0
M  V30 19795 C 1895.36 1.08768 -1.3078 0
M  V30 19796 O 1896.54 1.10576 -1.59645 0
M  V30 19797 C 1893.67 1.6215 -3.07123 0
M  V30 19798 C 1892.63 1.14065 -4.12521 0
M  V30 19799 C 1891.95 2.37267 -4.79175 0
M  V30 19800 C 1893.25 0.228522 -5.218 0
M  V30 19801 H 1894.95 -0.147344 -2.99037 0
M  V30 19802 H 1892.49 -0.0723051 -1.43818 0
M  V30 19803 H 1894.45 2.21612 -3.58422 0
M  V30 19804 H 1893.17 2.27538 -2.34295 0
M  V30 19805 H 1891.83 0.568735 -3.62162 0
M  V30 19806 H 1891.48 3.01102 -4.02923 0
M  V30 19807 H 1891.18 2.05768 -5.50394 0
M  V30 19808 H 1892.7 2.97424 -5.33265 0
M  V30 19809 H 1894.11 0.730497 -5.68627 0
M  V30 19810 H 1892.51 0.00460259 -6.001 0
M  V30 19811 H 1893.58 -0.730537 -4.79365 0
M  V30 19812 N 1894.92 1.57341 -0.0902386 0
M  V30 19813 C 1896.15 1.98934 0.586524 0
M  V30 19814 C 1896.57 0.968841 1.6123 0
M  V30 19815 O 1895.93 -0.0632868 1.8119 0
M  V30 19816 C 1895.98 3.39509 1.21516 0
M  V30 19817 O 1895.08 3.40203 2.331 0
M  V30 19818 H 1894.43 0.647009 0.14925 0
M  V30 19819 H 1896.96 2.03891 -0.170213 0
M  V30 19820 H 1896.97 3.77097 1.55762 0
M  V30 19821 H 1895.64 4.13308 0.463639 0
M  V30 19822 H 1894.22 3.14405 2.0051 0
M  V30 19823 N 1896.4 -0.183431 1.56529 0
M  V30 19824 C 1897.33 -1.22973 1.98494 0
M  V30 19825 C 1898.31 -1.46837 0.858653 0
M  V30 19826 O 1899.5 -1.58377 1.12385 0
M  V30 19827 C 1896.63 -2.57138 2.33446 0
M  V30 19828 C 1895.58 -2.47865 3.48922 0
M  V30 19829 C 1894.91 -3.8641 3.69582 0
M  V30 19830 C 1896.21 -1.99371 4.82751 0
M  V30 19831 H 1897.9 -0.880938 2.86147 0
M  V30 19832 H 1895.45 -0.422321 1.37668 0
M  V30 19833 H 1897.4 -3.30527 2.614 0
M  V30 19834 H 1896.13 -2.93781 1.42689 0
M  V30 19835 H 1894.78 -1.76932 3.21077 0
M  V30 19836 H 1894.43 -4.20426 2.76136 0
M  V30 19837 H 1894.13 -3.81077 4.47274 0
M  V30 19838 H 1895.66 -4.61403 3.99924 0
M  V30 19839 H 1897.07 -2.62526 5.0966 0
M  V30 19840 H 1895.47 -2.05014 5.63994 0
M  V30 19841 H 1896.54 -0.947442 4.75554 0
M  V30 19842 N 1897.88 -1.50992 -0.451564 0
M  V30 19843 C 1899.13 -1.62633 -1.19978 0
M  V30 19844 C 1899.45 -0.337971 -1.92049 0
M  V30 19845 O 1898.72 0.645542 -1.84958 0
M  V30 19846 H 1897.3 -0.599345 -0.445864 0
M  V30 19847 H 1899.96 -1.8786 -0.519104 0
M  V30 19848 H 1899.06 -2.44709 -1.93711 0
M  V30 19849 N 1899.36 0.706069 -1.40899 0
M  V30 19850 C 1900.31 1.84143 -1.42106 0
M  V30 19851 C 1901.3 1.66716 -0.300367 0
M  V30 19852 O 1902.51 1.73705 -0.471879 0
M  V30 19853 H 1898.88 0.606636 -0.444406 0
M  V30 19854 H 1900.85 1.80241 -2.37815 0
M  V30 19855 C 1899.6 3.22084 -1.30986 0
M  V30 19856 H 1898.92 3.36105 -2.16503 0
M  V30 19857 H 1900.36 4.01634 -1.35891 0
M  V30 19858 C 1898.82 3.36893 -0.0210718 0
M  V30 19859 O 1899.35 3.90589 0.938242 0
M  V30 19860 N 1897.56 2.90554 0.0515652 0
M  V30 19861 H 1897.11 2.47045 -0.729833 0
M  V30 19862 H 1897.06 3.00842 0.91332 0
M  V30 19863 N 1900.84 1.26553 0.939264 0
M  V30 19864 C 1901.77 1.04069 2.04211 0
M  V30 19865 C 1902.78 0.000506291 1.628 0
M  V30 19866 O 1903.97 0.240794 1.76868 0
M  V30 19867 C 1901.07 0.554348 3.34335 0
M  V30 19868 C 1900.24 1.6642 4.04503 0
M  V30 19869 C 1899.3 1.17558 5.129 0
M  V30 19870 O 1898.33 1.87303 5.375 0
M  V30 19871 N 1899.53 0.0250252 5.80495 0
M  V30 19872 H 1902.3 1.99036 2.24065 0
M  V30 19873 H 1899.86 1.17964 1.10888 0
M  V30 19874 H 1901.85 0.211606 4.04146 0
M  V30 19875 H 1900.42 -0.301779 3.1114 0
M  V30 19876 H 1899.64 2.17779 3.28582 0
M  V30 19877 H 1900.93 2.4094 4.48136 0
M  V30 19878 H 1900.32 -0.557378 5.62947 0
M  V30 19879 H 1898.88 -0.258625 6.51287 0
M  V30 19880 N 1902.31 -1.14411 1.08387 0
M  V30 19881 C 1903.54 -1.89848 0.835015 0
M  V30 19882 C 1903.96 -1.78034 -0.607091 0
M  V30 19883 O 1903.32 -1.12039 -1.42538 0
M  V30 19884 C 1903.37 -3.37818 1.26141 0
M  V30 19885 O 1902.47 -4.10325 0.41322 0
M  V30 19886 H 1901.82 -0.590682 0.303299 0
M  V30 19887 H 1904.35 -1.44823 1.44525 0
M  V30 19888 H 1904.36 -3.88631 1.24218 0
M  V30 19889 H 1903.03 -3.45735 2.31172 0
M  V30 19890 H 1901.61 -3.69589 0.495854 0
M  V30 19891 N 1903.79 -0.869509 -1.31443 0
M  V30 19892 C 1904.72 -0.340679 -2.31001 0
M  V30 19893 C 1905.7 0.568186 -1.6033 0
M  V30 19894 O 1906.89 0.485305 -1.88038 0
M  V30 19895 C 1904.02 0.45909 -3.44252 0
M  V30 19896 C 1902.97 -0.356639 -4.26512 0
M  V30 19897 C 1902.3 0.568786 -5.31666 0
M  V30 19898 C 1903.6 -1.59045 -4.97496 0
M  V30 19899 H 1905.29 -1.1726 -2.75482 0
M  V30 19900 H 1902.84 -0.5653 -1.3244 0
M  V30 19901 H 1904.79 0.839573 -4.12952 0
M  V30 19902 H 1903.52 1.32451 -2.98537 0
M  V30 19903 H 1902.17 -0.719063 -3.59479 0
M  V30 19904 H 1901.82 1.43148 -4.82201 0
M  V30 19905 H 1901.52 0.0268906 -5.87594 0
M  V30 19906 H 1903.05 0.946122 -6.03225 0
M  V30 19907 H 1904.46 -1.28144 -5.58795 0
M  V30 19908 H 1902.86 -2.07139 -5.63217 0
M  V30 19909 H 1903.93 -2.34354 -4.24507 0
M  V30 19910 N 1905.27 1.44508 -0.628902 0
M  V30 19911 C 1906.68 1.85457 -0.215122 0
M  V30 19912 C 1907.03 1.52619 1.23296 0
M  V30 19913 O 1906.16 0.963178 1.93783 0
M  V30 19914 C 1906.75 3.36621 -0.383645 0
M  V30 19915 C 1905.31 3.76392 -0.0243904 0
M  V30 19916 C 1904.46 2.68369 -0.698081 0
M  V30 19917 H 1907.41 1.35006 -0.834208 0
M  V30 19918 H 1907.43 3.78617 0.378049 0
M  V30 19919 H 1906.94 3.6049 -1.43767 0
M  V30 19920 H 1905.04 3.58139 1.02798 0
M  V30 19921 H 1905.16 4.7714 -0.432898 0
M  V30 19922 H 1903.52 2.54349 -0.133605 0
M  V30 19923 H 1904.3 2.95071 -1.75465 0
M  V30 19924 N 1906.75 0.369315 1.53212 0
M  V30 19925 C 1907.7 -0.491919 2.2263 0
M  V30 19926 C 1908.68 -1.0457 1.22286 0
M  V30 19927 O 1909.88 -0.975125 1.47717 0
M  V30 19928 C 1907 -1.62916 3.02181 0
M  V30 19929 C 1906.09 -1.08808 4.09904 0
M  V30 19930 N 1906.48 -0.270291 5.05077 0
M  V30 19931 C 1904.78 -1.36253 4.24678 0
M  V30 19932 C 1905.48 0.0263875 5.81694 0
M  V30 19933 N 1904.46 -0.572239 5.4058 0
M  V30 19934 H 1908.26 0.139657 2.93568 0
M  V30 19935 H 1905.77 0.177531 1.61427 0
M  V30 19936 H 1907.77 -2.25837 3.50433 0
M  V30 19937 H 1906.43 -2.26376 2.32774 0
M  V30 19938 H 1907.44 0.0908158 5.1782 0
M  V30 19939 H 1904.12 -1.99964 3.66498 0
M  V30 19940 H 1905.51 0.687735 6.68371 0
M  V30 19941 N 1908.23 -1.57291 0.0985816 0
M  V30 19942 C 1909.45 -1.99242 -0.575966 0
M  V30 19943 C 1909.88 -0.977378 -1.60714 0
M  V30 19944 O 1909.24 0.053677 -1.81221 0
M  V30 19945 C 1909.28 -3.40148 -1.19714 0
M  V30 19946 O 1908.39 -3.41434 -2.31293 0
M  V30 19947 H 1907.73 -0.647791 -0.145816 0
M  V30 19948 H 1910.26 -2.03798 0.181023 0
M  V30 19949 H 1910.27 -3.77918 -1.5376 0
M  V30 19950 H 1908.94 -4.13548 -0.441714 0
M  V30 19951 H 1907.52 -3.15464 -1.98839 0
M  V30 19952 N 1909.71 0.175127 -1.56624 0
M  V30 19953 C 1910.93 0.912099 -1.86267 0
M  V30 19954 C 1911.36 1.75204 -0.684485 0
M  V30 19955 O 1910.71 1.77557 0.366501 0
M  V30 19956 C 1910.76 1.76776 -3.14297 0
M  V30 19957 O 1909.87 2.86894 -2.96253 0
M  V30 19958 H 1909.21 0.255728 -0.61278 0
M  V30 19959 H 1911.74 0.174416 -2.03855 0
M  V30 19960 H 1911.75 2.16845 -3.45604 0
M  V30 19961 H 1910.42 1.15077 -3.99663 0
M  V30 19962 H 1909 2.50435 -2.76291 0
M  V30 19963 N 1911.18 1.5123 0.44355 0
M  V30 19964 C 1912.59 1.56137 1.02362 0
M  V30 19965 C 1912.95 0.381135 1.92462 0
M  V30 19966 O 1912.07 -0.502817 2.10477 0
M  V30 19967 C 1912.67 2.82967 1.8632 0
M  V30 19968 C 1911.22 2.90466 2.39388 0
M  V30 19969 C 1910.37 2.50735 1.18438 0
M  V30 19970 H 1913.32 1.57096 0.22506 0
M  V30 19971 H 1913.34 2.66378 2.71704 0
M  V30 19972 H 1912.86 3.68848 1.20717 0
M  V30 19973 H 1910.96 2.09 3.08463 0
M  V30 19974 H 1911.07 3.9398 2.7261 0
M  V30 19975 H 1909.43 2.03792 1.52778 0
M  V30 19976 H 1910.22 3.38954 0.544549 0
M  V30 19977 N 1912.66 -0.698586 1.41271 0
M  V30 19978 C 1914.08 -1.0088 1.23674 0
M  V30 19979 C 1914.28 -2.01118 0.123961 0
M  V30 19980 O 1913.33 -2.47242 -0.512628 0
M  V30 19981 C 1914.65 -1.53629 2.58493 0
M  V30 19982 C 1916.19 -1.65528 2.65649 0
M  V30 19983 C 1916.67 -2.21679 4.00777 0
M  V30 19984 N 1918.16 -2.29044 4.02608 0
M  V30 19985 C 1918.9 -2.73512 5.03963 0
M  V30 19986 N 1918.39 -3.17607 6.15709 0
M  V30 19987 N 1920.18 -2.73049 4.91326 0
M  V30 19988 H 1912.34 -0.0344888 2.12372 0
M  V30 19989 H 1914.6 -0.0778742 0.944796 0
M  V30 19990 H 1914.3 -0.874339 3.40658 0
M  V30 19991 H 1914.18 -2.51891 2.80768 0
M  V30 19992 H 1916.57 -2.30836 1.83844 0
M  V30 19993 H 1916.65 -0.658201 2.47187 0
M  V30 19994 H 1916.29 -1.56988 4.83029 0
M  V30 19995 H 1916.22 -3.22134 4.16578 0
M  V30 19996 H 1918.71 -1.97922 3.21924 0
M  V30 19997 H 1919.02 -3.50155 6.88921 0
M  V30 19998 H 1917.37 -3.15523 6.1925 0
M  V30 19999 H 1920.56 -2.37947 4.03112 0
M  V30 20000 H 1920.73 -3.07386 5.70454 0
M  V30 20001 N 1914.14 -1.27049 -0.93254 0
M  V30 20002 C 1915.55 -1.11887 -1.49459 0
M  V30 20003 C 1915.9 0.297825 -1.93926 0
M  V30 20004 O 1915.03 1.19024 -1.80727 0
M  V30 20005 C 1915.62 -2.02497 -2.71626 0
M  V30 20006 C 1914.18 -1.91455 -3.24071 0
M  V30 20007 C 1913.33 -1.95337 -1.96821 0
M  V30 20008 H 1916.28 -1.40013 -0.747138 0
M  V30 20009 H 1916.3 -1.57794 -3.46239 0
M  V30 20010 H 1915.81 -3.05598 -2.39231 0
M  V30 20011 H 1913.91 -0.913212 -3.61236 0
M  V30 20012 H 1914.03 -2.77443 -3.90592 0
M  V30 20013 H 1912.39 -1.395 -2.13101 0
M  V30 20014 H 1913.17 -3.00084 -1.66746 0
M  V30 20015 N 1915.62 1.13835 -1.08993 0
M  V30 20016 C 1916.58 2.17299 -0.728968 0
M  V30 20017 C 1917.58 1.5901 0.23923 0
M  V30 20018 O 1918.77 1.74191 0.0179935 0
M  V30 20019 C 1915.9 3.40812 -0.0772774 0
M  V30 20020 H 1917.1 2.50745 -1.64521 0
M  V30 20021 H 1914.65 1.28586 -0.888552 0
M  V30 20022 H 1915.38 3.12952 0.850403 0
M  V30 20023 H 1915.17 3.84387 -0.773873 0
M  V30 20024 H 1916.66 4.17293 0.160024 0
M  V30 20025 N 1917.1 0.876467 1.3098 0
M  V30 20026 C 1918.32 0.504524 2.0117 0
M  V30 20027 C 1918.75 -0.897295 1.65319 0
M  V30 20028 O 1918.1 -1.59321 0.865255 0
M  V30 20029 C 1918.15 0.676516 3.54197 0
M  V30 20030 O 1917.26 -0.28134 4.11439 0
M  V30 20031 H 1916.6 0.199855 0.633209 0
M  V30 20032 H 1919.13 1.18167 1.67026 0
M  V30 20033 H 1919.14 0.572273 4.03967 0
M  V30 20034 H 1917.81 1.69864 3.7963 0
M  V30 20035 H 1916.39 -0.131506 3.72668 0
M  V30 20036 N 1918.57 -1.44173 0.636557 0
M  V30 20037 C 1919.54 -2.29133 -0.0554994 0
M  V30 20038 C 1920.54 -1.41329 -0.766986 0
M  V30 20039 O 1921.73 -1.63142 -0.610753 0
M  V30 20040 C 1918.86 -3.23031 -1.08922 0
M  V30 20041 H 1920.05 -2.91811 0.691829 0
M  V30 20042 H 1917.6 -1.51175 0.396956 0
M  V30 20043 H 1918.34 -2.65213 -1.86635 0
M  V30 20044 H 1918.12 -3.87743 -0.58291 0
M  V30 20045 H 1919.61 -3.8684 -1.57304 0
M  V30 20046 N 1920.05 -0.377435 -1.53014 0
M  V30 20047 C 1921 0.463415 -2.261 0
M  V30 20048 C 1921.97 1.06771 -1.27237 0
M  V30 20049 O 1923.15 1.09797 -1.56043 0
M  V30 20050 C 1920.29 1.59103 -3.06236 0
M  V30 20051 C 1919.41 1.01076 -4.20009 0
M  V30 20052 C 1918.54 2.10845 -4.87563 0
M  V30 20053 C 1917.58 1.50345 -5.93349 0
M  V30 20054 N 1916.72 2.53995 -6.54546 0
M  V30 20055 H 1921.56 -0.166315 -2.97536 0
M  V30 20056 H 1919.09 -0.0938442 -1.468 0
M  V30 20057 H 1921.05 2.25542 -3.5098 0
M  V30 20058 H 1919.68 2.19125 -2.37032 0
M  V30 20059 H 1918.73 0.236306 -3.79665 0
M  V30 20060 H 1920.05 0.528534 -4.95992 0
M  V30 20061 H 1919.2 2.85079 -5.35551 0
M  V30 20062 H 1917.94 2.62423 -4.11079 0
M  V30 20063 H 1916.94 0.746299 -5.44711 0
M  V30 20064 H 1918.17 0.995763 -6.7176 0
M  V30 20065 H 1916.12 3.04765 -5.80908 0
M  V30 20066 H 1916.03 2.10494 -7.26105 0
M  V30 20067 H 1917.3 3.27896 -7.07181 0
M  V30 20068 N 1921.53 1.57237 -0.106922 0
M  V30 20069 C 1922.48 2.11215 0.858607 0
M  V30 20070 C 1923.46 1.03 1.23612 0
M  V30 20071 O 1924.66 1.29255 1.20922 0
M  V30 20072 C 1921.79 2.7055 2.11324 0
M  V30 20073 C 1920.87 3.85827 1.76064 0
M  V30 20074 N 1921.26 4.93376 1.11419 0
M  V30 20075 C 1919.56 3.95784 2.05599 0
M  V30 20076 C 1920.26 5.73885 0.950315 0
M  V30 20077 N 1919.24 5.23306 1.47144 0
M  V30 20078 H 1923.04 2.91747 0.355056 0
M  V30 20079 H 1920.55 1.62116 0.0959292 0
M  V30 20080 H 1922.55 3.07557 2.8145 0
M  V30 20081 H 1921.21 1.91477 2.62234 0
M  V30 20082 H 1922.22 5.11999 0.779594 0
M  V30 20083 H 1918.9 3.27736 2.58641 0
M  V30 20084 H 1920.29 6.70433 0.44383 0
M  V30 20085 N 1923.01 -0.166818 1.56715 0
M  V30 20086 C 1924.25 -0.889157 1.84047 0
M  V30 20087 C 1924.61 -1.79232 0.688478 0
M  V30 20088 O 1925.81 -2.5526 0.842361 0
M  V30 20089 C 1924.08 -1.66005 3.16508 0
M  V30 20090 S 1925.64 -2.43054 3.65336 0
M  V30 20091 H 1922.46 -0.297718 0.645666 0
M  V30 20092 H 1925.06 -0.150479 1.9492 0
M  V30 20093 H 1923.77 -0.987677 3.98338 0
M  V30 20094 H 1923.3 -2.44002 3.08588 0
M  V30 20095 H 1925.31 -3.67847 3.33021 0
M  V30 20096 N 1924.49 -1.51463 -0.435524 0
M  V30 20097 C 1925.9 -1.39679 -0.772145 0
M  V30 20098 C 1926.1 -0.480546 -1.95686 0
M  V30 20099 O 1925.16 0.063611 -2.5242 0
M  V30 20100 C 1926.47 -2.81742 -1.05082 0
M  V30 20101 C 1928.02 -2.90905 -1.15514 0
M  V30 20102 C 1928.49 -4.33879 -1.46674 0
M  V30 20103 N 1929.99 -4.36993 -1.53594 0
M  V30 20104 C 1930.72 -5.44653 -1.79279 0
M  V30 20105 N 1930.22 -6.6247 -2.02744 0
M  V30 20106 N 1932.01 -5.32135 -1.81076 0
M  V30 20107 H 1924.16 -2.09584 0.344699 0
M  V30 20108 H 1926.42 -0.943543 0.0918199 0
M  V30 20109 H 1926.13 -3.50789 -0.252975 0
M  V30 20110 H 1926 -3.21179 -1.97798 0
M  V30 20111 H 1928.39 -2.22054 -1.94361 0
M  V30 20112 H 1928.47 -2.54961 -0.20695 0
M  V30 20113 H 1928.12 -5.03279 -0.683541 0
M  V30 20114 H 1928.05 -4.67337 -2.42702 0
M  V30 20115 H 1930.54 -3.52054 -1.37356 0
M  V30 20116 H 1930.85 -7.40311 -2.21718 0
M  V30 20117 H 1929.19 -6.65582 -2.00063 0
M  V30 20118 H 1932.39 -4.39076 -1.62264 0
M  V30 20119 H 1932.56 -6.16118 -2.00756 0
M  V30 20120 N 1925.96 0.691085 -1.4164 0
M  V30 20121 C 1926.91 1.80495 -1.43841 0
M  V30 20122 C 1927.88 1.63509 -0.292237 0
M  V30 20123 O 1929.07 1.84296 -0.493941 0
M  V30 20124 C 1926.21 3.18412 -1.33072 0
M  V30 20125 C 1925.32 3.46799 -2.57594 0
M  V30 20126 C 1924.45 4.74354 -2.39085 0
M  V30 20127 C 1923.49 4.95723 -3.59061 0
M  V30 20128 N 1922.63 6.14507 -3.39596 0
M  V30 20129 H 1927.47 1.77949 -2.39036 0
M  V30 20130 H 1925.01 0.86893 -1.18693 0
M  V30 20131 H 1926.97 3.98087 -1.24829 0
M  V30 20132 H 1925.6 3.20124 -0.414814 0
M  V30 20133 H 1924.65 2.61496 -2.76268 0
M  V30 20134 H 1925.96 3.58489 -3.46824 0
M  V30 20135 H 1925.11 5.62092 -2.28336 0
M  V30 20136 H 1923.85 4.64918 -1.47319 0
M  V30 20137 H 1922.86 4.06432 -3.70261 0
M  V30 20138 H 1924.08 5.07015 -4.51788 0
M  V30 20139 H 1922.03 6.06275 -2.50532 0
M  V30 20140 H 1921.95 6.26985 -4.22405 0
M  V30 20141 H 1923.21 7.04968 -3.32627 0
M  V30 20142 N 1927.44 1.27542 0.925789 0
M  V30 20143 C 1928.37 1.12952 2.04363 0
M  V30 20144 C 1929.35 0.0304761 1.70073 0
M  V30 20145 O 1930.54 0.205307 1.93112 0
M  V30 20146 C 1927.67 0.777954 3.38475 0
M  V30 20147 C 1926.62 1.83044 3.86883 0
M  V30 20148 C 1925.95 1.3328 5.17823 0
M  V30 20149 C 1927.25 3.23488 4.10065 0
M  V30 20150 H 1928.94 2.06462 2.16827 0
M  V30 20151 H 1926.49 0.994046 1.04186 0
M  V30 20152 H 1928.44 0.662702 4.16156 0
M  V30 20153 H 1927.17 -0.192851 3.2603 0
M  V30 20154 H 1925.82 1.93463 3.11396 0
M  V30 20155 H 1925.47 0.351399 5.01771 0
M  V30 20156 H 1925.17 2.03648 5.51182 0
M  V30 20157 H 1926.7 1.23053 5.98072 0
M  V30 20158 H 1928.11 3.16058 4.7831 0
M  V30 20159 H 1926.51 3.91583 4.54734 0
M  V30 20160 H 1927.58 3.68399 3.15293 0
M  V30 20161 N 1928.92 -1.13255 1.09595 0
M  V30 20162 C 1930.17 -1.83925 0.827926 0
M  V30 20163 C 1930.48 -1.84531 -0.64866 0
M  V30 20164 O 1931.69 -2.5111 -1.03228 0
M  V30 20165 C 1930.14 -3.30219 1.43121 0
M  V30 20166 C 1929.75 -3.37996 2.94046 0
M  V30 20167 C 1931.5 -4.05918 1.24221 0
M  V30 20168 C 1929.4 -4.78572 3.47451 0
M  V30 20169 H 1928.33 -0.689091 0.306056 0
M  V30 20170 H 1930.98 -1.27586 1.31887 0
M  V30 20171 H 1929.37 -3.86371 0.867952 0
M  V30 20172 H 1930.54 -2.91829 3.56612 0
M  V30 20173 H 1928.86 -2.75762 3.12 0
M  V30 20174 H 1931.45 -5.09704 1.61573 0
M  V30 20175 H 1931.8 -4.15898 0.183004 0
M  V30 20176 H 1932.33 -3.561 1.77306 0
M  V30 20177 H 1929.07 -4.73785 4.52999 0
M  V30 20178 H 1928.59 -5.25227 2.89649 0
M  V30 20179 H 1930.27 -5.47495 3.44759 0
M  V30 20180 N 1930.4 -0.883401 -1.30514 0
M  V30 20181 C 1931.35 -0.320484 -2.25736 0
M  V30 20182 C 1932.33 0.550165 -1.51202 0
M  V30 20183 O 1933.52 0.394846 -1.7254 0
M  V30 20184 C 1930.65 0.465347 -3.40131 0
M  V30 20185 C 1929.74 -0.419301 -4.22022 0
M  V30 20186 N 1930.13 -1.51903 -4.82451 0
M  V30 20187 C 1928.43 -0.214132 -4.45486 0
M  V30 20188 C 1929.13 -2.06567 -5.43788 0
M  V30 20189 N 1928.11 -1.36084 -5.26291 0
M  V30 20190 H 1931.91 -1.1608 -2.70005 0
M  V30 20191 H 1929.42 -0.732634 -1.44935 0
M  V30 20192 H 1931.42 0.885249 -4.07393 0
M  V30 20193 H 1930.08 1.30312 -2.97403 0
M  V30 20194 H 1931.09 -1.90189 -4.81714 0
M  V30 20195 H 1927.77 0.586602 -4.13358 0
M  V30 20196 H 1929.16 -2.98909 -6.0175 0
M  V30 20197 N 1931.88 1.43833 -0.644194 0
M  V30 20198 C 1932.81 2.33467 0.0394911 0
M  V30 20199 C 1933.79 1.48957 0.821339 0
M  V30 20200 O 1934.97 1.77644 0.784618 0
M  V30 20201 C 1932.1 3.32205 1.01277 0
M  V30 20202 C 1931.06 4.26634 0.341666 0
M  V30 20203 C 1930.38 5.15341 1.42577 0
M  V30 20204 C 1931.68 5.16737 -0.760299 0
M  V30 20205 H 1933.38 2.90883 -0.709025 0
M  V30 20206 H 1930.92 1.3987 -0.342413 0
M  V30 20207 H 1932.88 3.93803 1.49991 0
M  V30 20208 H 1931.6 2.73025 1.79234 0
M  V30 20209 H 1930.26 3.66387 -0.124937 0
M  V30 20210 H 1929.91 4.52505 2.19654 0
M  V30 20211 H 1929.61 5.79336 0.98203 0
M  V30 20212 H 1931.13 5.79811 1.91444 0
M  V30 20213 H 1932.54 5.72195 -0.355713 0
M  V30 20214 H 1930.94 5.89404 -1.12796 0
M  V30 20215 H 1932.01 4.56966 -1.62204 0
M  V30 20216 N 1933.35 0.385544 1.52811 0
M  V30 20217 C 1934.28 -0.442951 2.2926 0
M  V30 20218 C 1935.27 -1.06674 1.32494 0
M  V30 20219 O 1936.45 -1.08022 1.61384 0
M  V30 20220 C 1933.58 -1.57243 3.09664 0
M  V30 20221 C 1932.53 -1.07488 4.14283 0
M  V30 20222 C 1931.86 -2.29614 4.82889 0
M  V30 20223 C 1933.16 -0.145479 5.22097 0
M  V30 20224 H 1934.85 0.1949 2.98765 0
M  V30 20225 H 1932.4 0.0951762 1.43685 0
M  V30 20226 H 1934.35 -2.15882 3.61902 0
M  V30 20227 H 1933.08 -2.23781 2.37885 0
M  V30 20228 H 1931.74 -0.511047 3.6302 0
M  V30 20229 H 1931.38 -2.94653 4.07662 0
M  V30 20230 H 1931.08 -1.96985 5.53598 0
M  V30 20231 H 1932.61 -2.88902 5.37929 0
M  V30 20232 H 1934.02 -0.639941 5.69717 0
M  V30 20233 H 1932.42 0.0908687 6.00031 0
M  V30 20234 H 1933.49 0.806707 4.78142 0
M  V30 20235 N 1934.83 -1.57178 0.115259 0
M  V30 20236 C 1936.25 -1.57765 -0.241345 0
M  V30 20237 C 1936.45 -1.12775 -1.66985 0
M  V30 20238 O 1935.5 -0.813419 -2.39039 0
M  V30 20239 C 1936.82 -3.00698 -0.0114291 0
M  V30 20240 C 1938.37 -3.12904 -0.0776187 0
M  V30 20241 C 1938.84 -4.57831 0.124557 0
M  V30 20242 N 1940.33 -4.63146 0.0703998 0
M  V30 20243 C 1941.07 -5.73045 0.20179 0
M  V30 20244 N 1940.56 -6.91706 0.389143 0
M  V30 20245 N 1942.36 -5.61922 0.141629 0
M  V30 20246 H 1934.51 -1.84725 1.04836 0
M  V30 20247 H 1936.77 -0.853542 0.412517 0
M  V30 20248 H 1936.48 -3.37886 0.975995 0
M  V30 20249 H 1936.35 -3.69771 -0.744947 0
M  V30 20250 H 1938.74 -2.75575 -1.05556 0
M  V30 20251 H 1938.82 -2.46382 0.687719 0
M  V30 20252 H 1938.46 -4.95857 1.09946 0
M  V30 20253 H 1938.39 -5.22439 -0.660721 0
M  V30 20254 H 1940.88 -3.77833 -0.0710442 0
M  V30 20255 H 1941.2 -7.71306 0.480365 0
M  V30 20256 H 1939.54 -6.93699 0.425069 0
M  V30 20257 H 1942.73 -4.681 -0.00374873 0
M  V30 20258 H 1942.9 -6.47527 0.24747 0
M  V30 20259 N 1936.31 0.158505 -1.56801 0
M  V30 20260 C 1937.72 0.71972 -1.7227 0
M  V30 20261 C 1938.07 1.822 -0.72784 0
M  V30 20262 O 1937.2 2.1613 0.108043 0
M  V30 20263 C 1937.79 1.31231 -3.12352 0
M  V30 20264 C 1936.35 1.82021 -3.29462 0
M  V30 20265 C 1935.5 0.704157 -2.68211 0
M  V30 20266 H 1938.45 -0.0670395 -1.58558 0
M  V30 20267 H 1938.47 2.18208 -3.11714 0
M  V30 20268 H 1937.98 0.509823 -3.84737 0
M  V30 20269 H 1936.08 2.64873 -2.62056 0
M  V30 20270 H 1936.2 1.95684 -4.37315 0
M  V30 20271 H 1934.56 1.12787 -2.28366 0
M  V30 20272 H 1935.34 -0.0866929 -3.43191 0
M  V30 20273 N 1937.79 1.51692 0.427485 0
M  V30 20274 C 1938.75 1.73114 1.50214 0
M  V30 20275 C 1939.75 0.601079 1.49143 0
M  V30 20276 O 1940.94 0.86875 1.50991 0
M  V30 20277 C 1938.07 1.79666 2.89712 0
M  V30 20278 H 1939.27 2.69033 1.32518 0
M  V30 20279 H 1936.82 1.4183 0.656804 0
M  V30 20280 H 1937.56 0.855968 3.128 0
M  V30 20281 H 1937.34 2.61803 2.91893 0
M  V30 20282 H 1938.83 1.98045 3.67652 0
M  V30 20283 N 1939.27 -0.683564 1.42004 0
M  V30 20284 C 1940.22 -1.78971 1.41257 0
M  V30 20285 C 1941.2 -1.58353 0.285152 0
M  V30 20286 O 1942.39 -1.68981 0.52673 0
M  V30 20287 C 1939.52 -3.17369 1.30888 0
M  V30 20288 C 1938.61 -3.4364 2.4854 0
M  V30 20289 N 1939 -3.40543 3.73984 0
M  V30 20290 C 1937.3 -3.7424 2.42612 0
M  V30 20291 C 1938 -3.66055 4.52083 0
M  V30 20292 N 1936.97 -3.8639 3.82366 0
M  V30 20293 H 1940.78 -1.74957 2.36151 0
M  V30 20294 H 1938.29 -0.884049 1.36229 0
M  V30 20295 H 1940.29 -3.96623 1.28435 0
M  V30 20296 H 1938.95 -3.22586 0.369887 0
M  V30 20297 H 1939.96 -3.20646 4.06702 0
M  V30 20298 H 1936.64 -3.86755 1.57246 0
M  V30 20299 H 1938.03 -3.69695 5.61048 0
M  V30 20300 N 1940.75 -1.28031 -0.919012 0
M  V30 20301 C 1941.97 -1.17828 -1.70679 0
M  V30 20302 C 1942.4 0.260207 -1.86292 0
M  V30 20303 O 1941.75 1.18833 -1.36925 0
M  V30 20304 C 1941.8 -1.87626 -3.07943 0
M  V30 20305 O 1940.91 -1.18014 -3.95154 0
M  V30 20306 H 1940.25 -0.40932 -0.522832 0
M  V30 20307 H 1942.78 -1.69258 -1.14947 0
M  V30 20308 H 1942.79 -1.95327 -3.58206 0
M  V30 20309 H 1941.46 -2.92263 -2.95897 0
M  V30 20310 H 1940.04 -1.18441 -3.5359 0
M  V30 20311 N 1942.22 1.12672 -1.10194 0
M  V30 20312 C 1943.16 2.17442 -0.692399 0
M  V30 20313 C 1944.13 1.59713 0.305045 0
M  V30 20314 O 1945.32 1.87387 0.204539 0
M  V30 20315 C 1942.45 3.38693 -0.0212605 0
M  V30 20316 C 1941.49 4.15046 -0.981778 0
M  V30 20317 S 1942.32 4.73674 -2.49786 0
M  V30 20318 C 1943.48 5.98263 -1.83936 0
M  V30 20319 H 1943.71 2.51845 -1.57991 0
M  V30 20320 H 1941.25 1.24094 -0.918694 0
M  V30 20321 H 1943.2 4.08922 0.359641 0
M  V30 20322 H 1941.87 3.02576 0.843018 0
M  V30 20323 H 1941.06 5.01902 -0.459398 0
M  V30 20324 H 1940.66 3.50513 -1.30447 0
M  V30 20325 H 1942.95 6.67354 -1.16809 0
M  V30 20326 H 1943.9 6.55123 -2.68738 0
M  V30 20327 H 1944.3 5.4921 -1.30494 0
M  V30 20328 O 1943.74 1.02311 1.24959 0
M  V30 20329 H 1944.43 0.686113 1.81141 0
M  V30 END ATOM
M  V30 BEGIN BOND
M  V30 END BOND
M  V30 END CTAB
M  END
$$$$
