drugbank_target|P17658 Potassium voltage-gated channel subfamily A member 6 (DB00228; DB01069; DB01110)
 OpenBabel12092120583D

  0  0  0     0  0            999 V3000
M  V30 BEGIN CTAB
M  V30 COUNTS 8200 8303 0 0 0
M  V30 BEGIN ATOM
M  V30 1 H -0.908 1.98254 -0.117106 0
M  V30 2 N 0 1.576 0 0
M  V30 3 C 0.933 2.03868 1.02534 0
M  V30 4 C 1.911 0.928543 1.3348 0
M  V30 5 O 3.095 1.19667 1.45644 0
M  V30 6 C 0.222 2.43627 2.35294 0
M  V30 7 C -0.732 3.65373 2.2001 0
M  V30 8 S 0.101 5.13292 1.52614 0
M  V30 9 C 1.257 5.56322 2.86805 0
M  V30 10 H 1.49 2.90518 0.631377 0
M  V30 11 H -0.977 1.52953 0.210867 0
M  V30 12 H 0.981 2.67203 3.11629 0
M  V30 13 H -0.358 1.57376 2.7183 0
M  V30 14 H -1.165 3.90944 3.18086 0
M  V30 15 H -1.563 3.418 1.51819 0
M  V30 16 H 0.729 5.58782 3.83104 0
M  V30 17 H 1.672 6.56266 2.65933 0
M  V30 18 H 2.08 4.83886 2.90714 0
M  V30 19 N 1.4781 -0.272755 1.55222 0
M  V30 20 C 2.8941 -0.619959 1.47067 0
M  V30 21 C 3.0941 -1.895 0.684978 0
M  V30 22 O 2.1501 -2.51675 0.203931 0
M  V30 23 C 3.4631 -0.746693 2.91282 0
M  V30 24 C 5.0111 -0.840731 3.01497 0
M  V30 25 C 5.4861 -0.99924 4.46967 0
M  V30 26 N 6.9771 -1.06476 4.50796 0
M  V30 27 C 7.7121 -1.20621 5.6057 0
M  V30 28 N 7.2081 -1.31483 6.80209 0
M  V30 29 N 9.0011 -1.23733 5.48312 0
M  V30 30 H 1.1521 0.564606 2.04758 0
M  V30 31 H 3.4151 0.191177 0.928523 0
M  V30 32 H 3.1211 0.119753 3.51496 0
M  V30 33 H 2.9951 -1.6269 3.40311 0
M  V30 34 H 5.3821 -1.69764 2.41379 0
M  V30 35 H 5.4631 0.0640874 2.5572 0
M  V30 36 H 5.1071 -0.146984 5.07687 0
M  V30 37 H 5.0371 -1.91871 4.90401 0
M  V30 38 H 7.5281 -0.993196 3.64615 0
M  V30 39 H 7.8411 -1.42111 7.59621 0
M  V30 40 H 6.1861 -1.28487 6.8302 0
M  V30 41 H 9.3771 -1.14877 4.53785 0
M  V30 42 H 9.5501 -1.34412 6.33906 0
M  V30 43 N 2.9562 -1.48159 -0.537278 0
M  V30 44 C 4.1812 -1.59707 -1.32319 0
M  V30 45 C 4.6062 -0.254859 -1.86365 0
M  V30 46 O 3.9642 0.772378 -1.64024 0
M  V30 47 C 4.0122 -2.6412 -2.45505 0
M  V30 48 O 3.1162 -2.20774 -3.48328 0
M  V30 49 H 2.4572 -0.535791 -0.392204 0
M  V30 50 H 4.9872 -1.94092 -0.647268 0
M  V30 51 H 4.9972 -2.85166 -2.91795 0
M  V30 52 H 3.6722 -3.61567 -2.05528 0
M  V30 53 H 2.2492 -2.09911 -3.08207 0
M  V30 54 N 4.4343 0.785586 -1.36625 0
M  V30 55 C 5.3443 1.92964 -1.33425 0
M  V30 56 C 6.3603 1.72394 -0.235851 0
M  V30 57 O 7.5363 1.95866 -0.468878 0
M  V30 58 C 4.6013 3.27884 -1.12662 0
M  V30 59 C 3.6623 3.61204 -2.32013 0
M  V30 60 C 2.8953 4.89687 -2.12231 0
M  V30 61 O 3.1183 5.59704 -1.09945 0
M  V30 62 O 2.0523 5.21752 -3.00098 0
M  V30 63 H 5.8783 1.98613 -2.29753 0
M  V30 64 H 3.4633 0.926384 -1.17211 0
M  V30 65 H 5.3453 4.08614 -1.03016 0
M  V30 66 H 4.0203 3.23118 -0.193991 0
M  V30 67 H 2.9273 2.80765 -2.47228 0
M  V30 68 H 4.2603 3.70698 -3.23796 0
M  V30 69 N 5.9124 1.20967 1.01018 0
M  V30 70 C 6.8594 0.964281 2.09691 0
M  V30 71 C 7.8294 -0.107853 1.65749 0
M  V30 72 O 9.0144 0.0381987 1.90762 0
M  V30 73 C 6.1544 0.52943 3.41015 0
M  V30 74 C 5.2674 1.67043 3.98398 0
M  V30 75 C 4.4024 1.18525 5.17808 0
M  V30 76 C 3.4414 2.29892 5.67288 0
M  V30 77 N 2.5784 1.82546 6.77954 0
M  V30 78 H 7.4184 1.89463 2.30017 0
M  V30 79 H 4.9554 0.944289 1.1279 0
M  V30 80 H 6.9134 0.258588 4.16398 0
M  V30 81 H 5.5434 -0.363919 3.20742 0
M  V30 82 H 4.5954 2.05603 3.20049 0
M  V30 83 H 5.9074 2.50877 4.31117 0
M  V30 84 H 5.0614 0.870762 6.00419 0
M  V30 85 H 3.8004 0.316887 4.86669 0
M  V30 86 H 2.8054 2.6215 4.83278 0
M  V30 87 H 4.0304 3.17216 6.00459 0
M  V30 88 H 1.9764 0.980454 6.48632 0
M  V30 89 H 1.8934 2.59956 7.09901 0
M  V30 90 H 3.1614 1.54115 7.64113 0
M  V30 91 N 7.3905 -1.2043 1.01659 0
M  V30 92 C 8.6155 -1.94318 0.724942 0
M  V30 93 C 9.0405 -1.74266 -0.708034 0
M  V30 94 O 8.3985 -1.03694 -1.48719 0
M  V30 95 C 8.4465 -3.44486 1.06591 0
M  V30 96 O 7.5505 -4.12017 0.177599 0
M  V30 97 H 6.8915 -0.60708 0.26898 0
M  V30 98 H 9.4215 -1.52861 1.35995 0
M  V30 99 H 9.4315 -3.95106 1.01762 0
M  V30 100 H 8.1065 -3.58404 2.10997 0
M  V30 101 H 6.6835 -3.71821 0.283421 0
M  V30 102 N 8.8686 -0.792821 -1.36206 0
M  V30 103 C 9.7986 -0.207853 -2.32573 0
M  V30 104 C 10.7796 0.659055 -1.56813 0
M  V30 105 O 11.9646 0.592176 -1.84951 0
M  V30 106 C 9.0946 0.655449 -3.41059 0
M  V30 107 C 8.0486 -0.111842 -4.27854 0
M  V30 108 C 7.3746 0.872274 -5.27537 0
M  V30 109 C 8.6746 -1.30299 -5.05786 0
M  V30 110 H 10.3686 -1.01294 -2.81744 0
M  V30 111 H 7.9146 -0.48854 -1.3546 0
M  V30 112 H 9.8676 1.07464 -4.07467 0
M  V30 113 H 8.5916 1.49328 -2.90463 0
M  V30 114 H 7.2506 -0.512053 -3.63006 0
M  V30 115 H 6.8986 1.70523 -4.73214 0
M  V30 116 H 6.5986 0.363291 -5.86476 0
M  V30 117 H 8.1226 1.28996 -5.96818 0
M  V30 118 H 9.5366 -0.959379 -5.65216 0
M  V30 119 H 7.9336 -1.7455 -5.74154 0
M  V30 120 H 9.0036 -2.09663 -4.37229 0
M  V30 121 N 10.3467 1.47872 -0.545128 0
M  V30 122 C 11.5747 2.06889 -0.021084 0
M  V30 123 C 11.9897 1.39955 1.2672 0
M  V30 124 O 11.3467 0.492036 1.75742 0
M  V30 125 C 11.3977 3.60996 0.190817 0
M  V30 126 O 11.1187 4.25419 -1.04644 0
M  V30 127 C 12.6197 4.36849 0.753521 0
M  V30 128 H 9.8397 0.669785 -0.0403635 0
M  V30 129 H 12.3837 1.90049 -0.755095 0
M  V30 130 H 10.5387 3.77391 0.87492 0
M  V30 131 H 10.9527 5.17785 -0.836611 0
M  V30 132 H 12.4267 5.45399 0.851139 0
M  V30 133 H 12.9037 4.02306 1.762 0
M  V30 134 H 13.5097 4.25169 0.105503 0
M  V30 135 N 11.8248 0.280983 1.55075 0
M  V30 136 C 12.7548 -0.597469 2.25727 0
M  V30 137 C 13.7358 -1.15417 1.24952 0
M  V30 138 O 14.9208 -1.18722 1.53684 0
M  V30 139 C 12.0508 -1.7789 2.98283 0
M  V30 140 C 11.0048 -1.35347 4.06036 0
M  V30 141 C 10.3308 -2.61846 4.66198 0
M  V30 142 C 11.6308 -0.499354 5.19907 0
M  V30 143 H 13.3248 -0.00824265 2.99399 0
M  V30 144 H 10.8708 -0.0025244 1.44 0
M  V30 145 H 12.8238 -2.39937 3.46422 0
M  V30 146 H 11.5478 -2.39405 2.22155 0
M  V30 147 H 10.2068 -0.756156 3.58717 0
M  V30 148 H 9.8548 -3.21632 3.86732 0
M  V30 149 H 9.5548 -2.3409 5.38958 0
M  V30 150 H 11.0788 -3.24732 5.1709 0
M  V30 151 H 12.4928 -1.02498 5.64063 0
M  V30 152 H 10.8898 -0.316424 5.99265 0
M  V30 153 H 11.9598 0.480459 4.82514 0
M  V30 154 N 13.3029 -1.57598 0.00835791 0
M  V30 155 C 14.2659 -2.07884 -0.965242 0
M  V30 156 C 15.2659 -0.989825 -1.26725 0
M  V30 157 O 16.4559 -1.25218 -1.21104 0
M  V30 158 C 13.5879 -2.52731 -2.28779 0
M  V30 159 H 14.7809 -2.95178 -0.530112 0
M  V30 160 H 12.3339 -1.54458 -0.239283 0
M  V30 161 H 13.0689 -1.68705 -2.76964 0
M  V30 162 H 12.8539 -3.32272 -2.08177 0
M  V30 163 H 14.3439 -2.91933 -2.98605 0
M  V30 164 N 14.781 0.264519 -1.55364 0
M  V30 165 C 15.744 1.31046 -1.88042 0
M  V30 166 C 16.744 1.41943 -0.755569 0
M  V30 167 O 17.934 1.40947 -1.02369 0
M  V30 168 C 15.066 2.69067 -2.09323 0
M  V30 169 H 16.259 1.03297 -2.81549 0
M  V30 170 H 13.812 0.502989 -1.47986 0
M  V30 171 H 14.547 3.01982 -1.18226 0
M  V30 172 H 14.332 2.62542 -2.91229 0
M  V30 173 H 15.822 3.44623 -2.35848 0
M  V30 174 N 16.2591 1.48442 0.529413 0
M  V30 175 C 17.6701 1.5002 1.11134 0
M  V30 176 C 18.0211 0.27031 1.94329 0
M  V30 177 O 17.1461 -0.622507 2.07253 0
M  V30 178 C 17.7411 2.71834 2.02217 0
M  V30 179 C 16.3001 2.76283 2.55627 0
M  V30 180 C 15.4471 2.43542 1.326 0
M  V30 181 H 18.3981 1.5555 0.314641 0
M  V30 182 H 18.4191 2.50384 2.8651 0
M  V30 183 H 17.9311 3.61331 1.41639 0
M  V30 184 H 16.0321 1.90995 3.19924 0
M  V30 185 H 16.1451 3.77725 2.94721 0
M  V30 186 H 14.5091 1.94709 1.64196 0
M  V30 187 H 15.2921 3.3528 0.737734 0
M  V30 188 N 17.7372 -0.778329 1.37039 0
M  V30 189 C 18.9852 -1.53361 1.31623 0
M  V30 190 C 19.3062 -1.94739 -0.100831 0
M  V30 191 O 18.5762 -1.65797 -1.04347 0
M  V30 192 H 17.1562 -0.568794 0.484234 0
M  V30 193 H 19.8182 -0.926742 1.71457 0
M  V30 194 H 18.9142 -2.43606 1.95096 0
M  V30 195 N 19.2153 -1.21501 -1.00376 0
M  V30 196 C 20.1253 -0.991447 -2.12621 0
M  V30 197 C 21.1413 0.0568446 -1.73907 0
M  V30 198 O 22.3173 -0.13348 -2.00957 0
M  V30 199 C 19.3823 -0.560312 -3.42142 0
M  V30 200 C 18.4433 -1.68096 -3.95022 0
M  V30 201 C 17.6763 -1.2703 -5.18362 0
M  V30 202 O 17.8993 -0.144438 -5.70217 0
M  V30 203 O 16.8333 -2.08269 -5.64719 0
M  V30 204 H 20.6593 -1.93158 -2.34358 0
M  V30 205 H 18.2443 -0.999999 -1.10997 0
M  V30 206 H 20.1263 -0.329724 -4.20108 0
M  V30 207 H 18.8013 0.351089 -3.2179 0
M  V30 208 H 17.7083 -1.96597 -3.18278 0
M  V30 209 H 19.0413 -2.56983 -4.19786 0
M  V30 210 N 20.6934 1.19889 -1.02296 0
M  V30 211 C 21.9394 1.89701 -0.717033 0
M  V30 212 C 22.2724 1.7905 0.751989 0
M  V30 213 O 21.5474 1.17891 1.547 0
M  V30 214 C 21.8304 3.40858 -1.16136 0
M  V30 215 C 21.6834 3.60411 -2.69117 0
M  V30 216 C 23.0024 4.33876 -0.737549 0
M  V30 217 H 20.1214 0.688874 -0.261957 0
M  V30 218 H 22.7634 1.41154 -1.27183 0
M  V30 219 H 20.9134 3.82335 -0.689342 0
M  V30 220 H 22.5854 3.28145 -3.2422 0
M  V30 221 H 20.8284 3.03665 -3.0979 0
M  V30 222 H 21.4994 4.66396 -2.95261 0
M  V30 223 H 23.9754 4.00081 -1.14344 0
M  V30 224 H 22.8514 5.38242 -1.0764 0
M  V30 225 H 23.1124 4.40628 0.360436 0
M  V30 226 N 22.1715 0.800033 1.35784 0
M  V30 227 C 23.5875 0.482977 1.52117 0
M  V30 228 C 23.7875 -0.996948 1.75109 0
M  V30 229 O 22.8435 -1.78216 1.78872 0
M  V30 230 C 24.1565 1.32264 2.70049 0
M  V30 231 C 25.7045 1.31742 2.83924 0
M  V30 232 C 26.1795 2.14106 4.04874 0
M  V30 233 N 27.6705 2.11607 4.12039 0
M  V30 234 C 28.4055 2.72099 5.04727 0
M  V30 235 N 27.9015 3.41492 6.02789 0
M  V30 236 N 29.6945 2.61776 4.97423 0
M  V30 237 H 21.8455 1.75856 1.19115 0
M  V30 238 H 24.1085 0.748122 0.582252 0
M  V30 239 H 23.8145 2.37261 2.59616 0
M  V30 240 H 23.6885 0.971303 3.6448 0
M  V30 241 H 26.0755 0.275333 2.93813 0
M  V30 242 H 26.1565 1.70859 1.9037 0
M  V30 243 H 25.8005 3.18351 3.95746 0
M  V30 244 H 25.7305 1.72353 4.97596 0
M  V30 245 H 28.2215 1.61112 3.41835 0
M  V30 246 H 28.5345 3.84953 6.70098 0
M  V30 247 H 26.8795 3.45596 6.02983 0
M  V30 248 H 30.0705 2.07157 4.19766 0
M  V30 249 H 30.2435 3.0921 5.69468 0
M  V30 250 N 23.6496 -1.47581 0.552962 0
M  V30 251 C 24.8976 -2.02082 0.0272703 0
M  V30 252 C 25.2186 -1.4301 -1.32563 0
M  V30 253 O 24.4886 -0.603745 -1.86365 0
M  V30 254 H 23.0686 -0.746966 0.00709182 0
M  V30 255 H 25.7306 -1.81033 0.722008 0
M  V30 256 H 24.8266 -3.12034 -0.0639951 0
M  V30 257 N 25.1277 -0.289203 -1.54924 0
M  V30 258 C 26.5387 0.205791 -1.85562 0
M  V30 259 C 26.8897 1.54351 -1.2112 0
M  V30 260 O 26.0147 2.10435 -0.504601 0
M  V30 261 C 26.6097 0.380177 -3.3666 0
M  V30 262 C 25.1687 0.819395 -3.67373 0
M  V30 263 C 24.3157 -0.079159 -2.77187 0
M  V30 264 H 27.2667 -0.510577 -1.50262 0
M  V30 265 H 27.2877 1.21659 -3.60526 0
M  V30 266 H 26.7997 -0.593589 -3.83534 0
M  V30 267 H 24.9007 1.80413 -3.26009 0
M  V30 268 H 25.0137 0.646957 -4.74712 0
M  V30 269 H 23.3777 0.439565 -2.50878 0
M  V30 270 H 24.1607 -1.04906 -3.26878 0
M  V30 271 N 26.6058 1.57591 -0.0167156 0
M  V30 272 C 27.5158 2.1291 0.98521 0
M  V30 273 C 28.5318 1.07834 1.36557 0
M  V30 274 O 29.7078 1.39826 1.44951 0
M  V30 275 C 26.7728 2.63512 2.25305 0
M  V30 276 C 25.8338 3.83256 1.93426 0
M  V30 277 C 25.0668 4.31435 3.14165 0
M  V30 278 O 25.2898 3.78851 4.26413 0
M  V30 279 O 24.2238 5.23416 2.97186 0
M  V30 280 H 28.0498 2.98772 0.544888 0
M  V30 281 H 25.6348 1.48012 0.203141 0
M  V30 282 H 27.5168 2.96183 2.99756 0
M  V30 283 H 26.1918 1.8074 2.68542 0
M  V30 284 H 25.0988 3.55531 1.16398 0
M  V30 285 H 26.4318 4.67153 1.55013 0
M  V30 286 N 28.0839 -0.256276 1.55502 0
M  V30 287 C 29.3319 -0.983672 1.76545 0
M  V30 288 C 29.6529 -1.86206 0.578982 0
M  V30 289 O 28.9229 -1.91656 -0.405577 0
M  V30 290 H 27.5029 -0.366191 0.651086 0
M  V30 291 H 30.1649 -0.276479 1.92929 0
M  V30 292 H 29.2609 -1.61087 2.67315 0
M  V30 293 N 29.562 -1.4872 -0.521534 0
M  V30 294 C 30.472 -1.66569 -1.65203 0
M  V30 295 C 31.488 -0.548197 -1.65139 0
M  V30 296 O 32.664 -0.820339 -1.83936 0
M  V30 297 C 29.729 -1.70917 -3.01642 0
M  V30 298 C 28.79 -2.94356 -3.12495 0
M  V30 299 C 28.023 -2.98487 -4.42426 0
M  V30 300 O 28.246 -2.10786 -5.30024 0
M  V30 301 O 27.18 -3.90746 -4.57822 0
M  V30 302 H 31.006 -2.62298 -1.5308 0
M  V30 303 H 28.591 -1.3222 -0.695565 0
M  V30 304 H 30.473 -1.7625 -3.82771 0
M  V30 305 H 29.148 -0.783633 -3.14071 0
M  V30 306 H 28.055 -2.94552 -2.3063 0
M  V30 307 H 29.388 -3.86322 -3.04986 0
M  V30 308 N 31.0401 0.771051 -1.3745 0
M  V30 309 C 31.9721 1.89352 -1.29146 0
M  V30 310 C 32.9851 1.61477 -0.207124 0
M  V30 311 O 34.1741 1.72382 -0.463324 0
M  V30 312 C 31.2741 3.24596 -0.974195 0
M  V30 313 C 30.4471 3.80111 -2.16413 0
M  V30 314 C 29.5061 4.93832 -1.81703 0
M  V30 315 O 28.5321 5.09382 -2.54006 0
M  V30 316 N 29.7341 5.75483 -0.761573 0
M  V30 317 H 32.4991 1.96991 -2.25864 0
M  V30 318 H 30.0601 0.950191 -1.31084 0
M  V30 319 H 32.0521 3.98193 -0.722828 0
M  V30 320 H 30.6221 3.12454 -0.0955527 0
M  V30 321 H 29.8421 2.98284 -2.57721 0
M  V30 322 H 31.1301 4.13932 -2.95867 0
M  V30 323 H 30.5281 5.65469 -0.161609 0
M  V30 324 H 29.0851 6.49302 -0.570064 0
M  V30 325 N 32.5182 1.22032 0.997298 0
M  V30 326 C 33.4502 0.944263 2.08845 0
M  V30 327 C 34.4632 -0.0754663 1.62625 0
M  V30 328 O 35.6522 0.157994 1.77799 0
M  V30 329 C 32.7522 0.397723 3.36558 0
M  V30 330 C 31.9252 1.47362 4.11829 0
M  V30 331 C 30.9842 0.934951 5.17827 0
M  V30 332 O 30.0102 1.62016 5.45655 0
M  V30 333 N 31.2122 -0.245895 5.79979 0
M  V30 334 H 33.9772 1.88363 2.33109 0
M  V30 335 H 31.5382 1.12661 1.16272 0
M  V30 336 H 33.5302 0.0227771 4.04694 0
M  V30 337 H 32.1002 -0.446646 3.09393 0
M  V30 338 H 31.3202 2.02208 3.38386 0
M  V30 339 H 32.6082 2.19764 4.58891 0
M  V30 340 H 32.0062 -0.819475 5.59733 0
M  V30 341 H 30.5632 -0.562272 6.4937 0
M  V30 342 N 33.9963 -1.19345 1.0293 0
M  V30 343 C 35.2733 -1.84811 0.640642 0
M  V30 344 C 35.6533 -1.91855 -0.88062 0
M  V30 345 O 35.0013 -1.43587 -1.7775 0
M  V30 346 C 35.2113 -3.23755 1.30321 0
M  V30 347 C 36.5593 -3.99912 1.42673 0
M  V30 348 O 37.5833 -3.33155 1.26041 0
M  V30 349 O 36.4423 -5.19494 1.6967 0
M  V30 350 H 33.5363 -0.796443 0.222726 0
M  V30 351 H 36.0823 -1.26831 1.12748 0
M  V30 352 H 34.8543 -3.13466 2.34211 0
M  V30 353 H 34.4773 -3.89381 0.804261 0
M  V30 354 N 35.4744 -0.807222 -1.35358 0
M  V30 355 C 36.4374 -0.223665 -2.28106 0
M  V30 356 C 37.4374 0.589354 -1.4961 0
M  V30 357 O 38.6274 0.407745 -1.69361 0
M  V30 358 C 35.7594 0.688149 -3.33882 0
M  V30 359 H 36.9524 -1.04169 -2.81227 0
M  V30 360 H 34.5054 -0.577921 -1.45223 0
M  V30 361 H 35.2404 1.52984 -2.85948 0
M  V30 362 H 35.0254 0.10687 -3.91954 0
M  V30 363 H 36.5154 1.09075 -4.03104 0
M  V30 364 N 36.9525 1.47285 -0.560781 0
M  V30 365 C 38.2005 2.02064 -0.0379868 0
M  V30 366 C 38.5215 1.43711 1.31803 0
M  V30 367 O 37.7915 0.61362 1.86042 0
M  V30 368 H 36.3715 0.746918 -0.0110531 0
M  V30 369 H 39.0335 1.80648 -0.731598 0
M  V30 370 H 38.1295 3.12064 0.0474463 0
M  V30 371 N 38.4306 0.297415 1.54768 0
M  V30 372 C 39.7076 -0.365847 1.92148 0
M  V30 373 C 40.0876 -1.71975 1.22424 0
M  V30 374 O 39.4356 -2.25666 0.358739 0
M  V30 375 C 39.6456 -0.484056 3.45627 0
M  V30 376 C 40.9936 -0.756594 4.17805 0
M  V30 377 O 42.0176 -0.568007 3.51642 0
M  V30 378 O 40.8766 -1.11863 5.34929 0
M  V30 379 H 37.9706 -0.203919 0.801465 0
M  V30 380 H 40.5166 0.34521 1.66152 0
M  V30 381 H 39.2886 0.467865 3.88493 0
M  V30 382 H 38.9116 -1.24372 3.77647 0
M  V30 383 N 39.9087 -1.5758 0.0250728 0
M  V30 384 C 41.1557 -1.91633 -0.654444 0
M  V30 385 C 41.4837 -0.901103 -1.72367 0
M  V30 386 O 40.7387 0.0905647 -1.9549 0
M  V30 387 C 41.0377 -3.32421 -1.31268 0
M  V30 388 C 40.7037 -4.49344 -0.374223 0
M  V30 389 C 39.3657 -4.8106 -0.115911 0
M  V30 390 C 41.7177 -5.20498 0.270432 0
M  V30 391 C 39.0457 -5.8129 0.79493 0
M  V30 392 C 41.3977 -6.21699 1.1693 0
M  V30 393 C 40.0617 -6.51859 1.43655 0
M  V30 394 H 39.3317 -0.701236 -0.239478 0
M  V30 395 H 41.9787 -1.91307 0.0859734 0
M  V30 396 H 40.2837 -3.28989 -2.12775 0
M  V30 397 H 41.9807 -3.56038 -1.84494 0
M  V30 398 H 38.5707 -4.24579 -0.58573 0
M  V30 399 H 42.7547 -4.96229 0.0839194 0
M  V30 400 H 38.0107 -6.03005 1.00973 0
M  V30 401 H 42.1847 -6.75955 1.67504 0
M  V30 402 H 39.8117 -7.2934 2.144 0
M  V30 403 N 41.3868 0.248026 -1.55636 0
M  V30 404 C 42.7978 0.817177 -1.67866 0
M  V30 405 C 43.1488 1.86069 -0.622322 0
M  V30 406 O 42.2738 2.15157 0.231618 0
M  V30 407 C 42.8688 1.489 -3.04326 0
M  V30 408 C 41.4278 2.00587 -3.185 0
M  V30 409 C 40.5748 0.856573 -2.63739 0
M  V30 410 H 43.5258 0.0238579 -1.58682 0
M  V30 411 H 43.5468 2.35698 -2.98708 0
M  V30 412 H 43.0588 0.729279 -3.81186 0
M  V30 413 H 41.1598 2.79443 -2.4646 0
M  V30 414 H 41.2728 2.20402 -4.25393 0
M  V30 415 H 39.6368 1.25678 -2.21534 0
M  V30 416 H 40.4198 0.109953 -3.43124 0
M  V30 417 N 42.8649 1.48995 0.513639 0
M  V30 418 C 43.7749 1.67443 1.64317 0
M  V30 419 C 44.7909 0.556947 1.64846 0
M  V30 420 O 45.9669 0.830082 1.83498 0
M  V30 421 C 43.0319 1.72515 3.00732 0
M  V30 422 C 42.0929 2.96009 3.1093 0
M  V30 423 C 41.3259 3.00829 4.40837 0
M  V30 424 O 41.5489 2.13594 5.28898 0
M  V30 425 O 40.4829 3.93168 4.55744 0
M  V30 426 H 44.3089 2.63106 1.51687 0
M  V30 427 H 41.8939 1.32588 0.688543 0
M  V30 428 H 43.7759 1.78277 3.81831 0
M  V30 429 H 42.4509 0.800278 3.13651 0
M  V30 430 H 41.3579 2.9577 2.29065 0
M  V30 431 H 42.6909 3.87934 3.02933 0
M  V30 432 N 44.343 -0.763751 1.37857 0
M  V30 433 C 45.306 -1.85889 1.34081 0
M  V30 434 C 46.306 -1.58949 0.243277 0
M  V30 435 O 47.496 -1.66882 0.499589 0
M  V30 436 C 44.628 -3.23176 1.08489 0
M  V30 437 H 45.821 -1.90648 2.31502 0
M  V30 438 H 43.374 -0.964367 1.23003 0
M  V30 439 H 44.109 -3.24091 0.116318 0
M  V30 440 H 43.894 -3.44124 1.8794 0
M  V30 441 H 45.384 -4.03254 1.08517 0
M  V30 442 N 45.8211 -1.22559 -0.990812 0
M  V30 443 C 47.0691 -1.04933 -1.72724 0
M  V30 444 C 47.3901 0.416158 -1.90508 0
M  V30 445 O 46.6601 1.29918 -1.46622 0
M  V30 446 H 45.2401 -0.385296 -0.639965 0
M  V30 447 H 47.9021 -1.54105 -1.19322 0
M  V30 448 H 46.9981 -1.52886 -2.72089 0
M  V30 449 N 47.2992 1.18797 -1.03562 0
M  V30 450 C 48.5472 1.88278 -0.734569 0
M  V30 451 C 48.8682 1.8043 0.739586 0
M  V30 452 O 48.1382 1.21925 1.53333 0
M  V30 453 H 46.7182 0.696991 -0.268725 0
M  V30 454 H 49.3802 1.44192 -1.31129 0
M  V30 455 H 48.4762 2.94443 -1.03489 0
M  V30 456 N 48.7773 0.814389 1.34928 0
M  V30 457 C 50.0253 0.397636 1.9815 0
M  V30 458 C 50.3463 -1.04069 1.64908 0
M  V30 459 O 49.6163 -1.72121 0.93548 0
M  V30 460 H 48.1963 0.144043 0.732981 0
M  V30 461 H 50.8583 1.04195 1.6471 0
M  V30 462 H 49.9543 0.509688 3.0791 0
M  V30 463 N 50.2554 -1.46986 0.568584 0
M  V30 464 C 51.5034 -2.02041 0.0487022 0
M  V30 465 C 51.8244 -1.44408 -1.31039 0
M  V30 466 O 51.0944 -0.623477 -1.85714 0
M  V30 467 H 49.6744 -0.746849 0.015014 0
M  V30 468 H 52.3364 -1.80257 0.741168 0
M  V30 469 H 51.4324 -3.12085 -0.0308961 0
M  V30 470 N 51.7335 -0.305618 -1.54608 0
M  V30 471 C 52.9815 0.301701 -1.99835 0
M  V30 472 C 53.3025 1.54054 -1.19551 0
M  V30 473 O 52.5725 1.93702 -0.292658 0
M  V30 474 H 51.1525 0.114468 -0.738178 0
M  V30 475 H 53.8145 -0.418016 -1.90364 0
M  V30 476 H 52.9105 0.570548 -3.06841 0
M  V30 477 N 53.2116 1.57565 -0.0334293 0
M  V30 478 C 54.4516 1.93844 0.648379 0
M  V30 479 C 54.8156 0.910387 1.69044 0
M  V30 480 O 56.0166 1.15952 2.42505 0
M  V30 481 C 54.2876 3.35017 1.24492 0
M  V30 482 S 55.8466 3.93229 1.94721 0
M  V30 483 H 52.6646 0.678231 0.213364 0
M  V30 484 H 55.2666 1.95254 -0.0981253 0
M  V30 485 H 53.9706 4.07652 0.474128 0
M  V30 486 H 53.5016 3.37061 2.02864 0
M  V30 487 H 55.5166 3.77014 3.22606 0
M  V30 488 N 54.6897 -0.239769 1.55765 0
M  V30 489 C 55.9297 -0.974076 1.79697 0
M  V30 490 C 56.2937 -1.82249 0.604088 0
M  V30 491 O 57.4947 -2.58913 0.722324 0
M  V30 492 C 55.7657 -1.80595 3.08416 0
M  V30 493 S 57.3247 -2.59838 3.53596 0
M  V30 494 H 54.1427 -0.327524 0.63107 0
M  V30 495 H 56.7447 -0.241277 1.94005 0
M  V30 496 H 55.4487 -1.17249 3.93295 0
M  V30 497 H 54.9797 -2.58137 2.96865 0
M  V30 498 H 56.9947 -3.82987 3.15492 0
M  V30 499 N 56.1678 -1.49265 -0.50573 0
M  V30 500 C 57.3928 -1.62478 -1.28902 0
M  V30 501 C 57.8178 -0.294332 -1.85783 0
M  V30 502 O 57.1758 0.737412 -1.65626 0
M  V30 503 C 57.2238 -2.69268 -2.39848 0
M  V30 504 O 56.3278 -2.28113 -3.43567 0
M  V30 505 H 55.6688 -0.54399 -0.380751 0
M  V30 506 H 58.1988 -1.95421 -0.605952 0
M  V30 507 H 58.2088 -2.91291 -2.85681 0
M  V30 508 H 56.8838 -3.65846 -1.97812 0
M  V30 509 H 55.4608 -2.16401 -3.03685 0
M  V30 510 N 57.6459 0.756429 -1.3826 0
M  V30 511 C 58.8709 1.55077 -1.37717 0
M  V30 512 C 59.2959 1.88073 0.03164 0
M  V30 513 O 58.6539 1.50364 1.01293 0
M  V30 514 C 58.7019 2.8283 -2.23695 0
M  V30 515 O 57.8059 3.77862 -1.6521 0
M  V30 516 H 57.1469 0.469152 -0.469885 0
M  V30 517 H 59.6769 0.935019 -1.81985 0
M  V30 518 H 59.6869 3.31783 -2.37453 0
M  V30 519 H 58.3619 2.58144 -3.2609 0
M  V30 520 H 56.9389 3.36555 -1.60578 0
M  V30 521 N 59.124 1.23083 0.984299 0
M  V30 522 C 60.034 1.02515 2.11016 0
M  V30 523 C 61.05 -0.0291702 1.73976 0
M  V30 524 O 62.226 0.165434 2.00719 0
M  V30 525 C 59.291 0.614673 3.41208 0
M  V30 526 C 58.352 1.74359 3.92297 0
M  V30 527 C 57.585 1.35261 5.16275 0
M  V30 528 O 57.808 0.235136 5.69915 0
M  V30 529 O 56.742 2.17227 5.61334 0
M  V30 530 H 60.568 1.96862 2.31255 0
M  V30 531 H 58.153 1.01753 1.09392 0
M  V30 532 H 60.035 0.396518 4.1953 0
M  V30 533 H 58.71 -0.299851 3.22308 0
M  V30 534 H 57.617 2.01635 3.1511 0
M  V30 535 H 58.95 2.63629 4.15645 0
M  V30 536 N 60.6021 -1.18246 1.0419 0
M  V30 537 C 62.0181 -1.40269 0.761366 0
M  V30 538 C 62.2181 -1.90777 -0.648578 0
M  V30 539 O 61.2741 -2.0929 -1.41258 0
M  V30 540 C 62.5871 -2.40237 1.8085 0
M  V30 541 C 64.1351 -2.53961 1.82955 0
M  V30 542 C 64.6101 -3.57194 2.86664 0
M  V30 543 N 66.1011 -3.64702 2.85563 0
M  V30 544 C 66.8361 -4.44309 3.6246 0
M  V30 545 N 66.3321 -5.27514 4.49111 0
M  V30 546 N 68.1251 -4.39084 3.50944 0
M  V30 547 H 60.2761 -0.837882 1.95175 0
M  V30 548 H 62.5391 -0.430608 0.84456 0
M  V30 549 H 62.2451 -2.10176 2.81991 0
M  V30 550 H 62.1191 -3.39601 1.64168 0
M  V30 551 H 64.5061 -2.83338 0.824855 0
M  V30 552 H 64.5871 -1.54706 2.03715 0
M  V30 553 H 64.2311 -3.28558 3.87314 0
M  V30 554 H 64.1611 -4.5613 2.6316 0
M  V30 555 H 66.6521 -3.05289 2.22727 0
M  V30 556 H 66.9651 -5.85411 5.04493 0
M  V30 557 H 65.3101 -5.2693 4.53178 0
M  V30 558 H 68.5011 -3.7313 2.82651 0
M  V30 559 H 68.6741 -5.00883 4.11121 0
M  V30 560 N 62.0802 -0.821533 -1.34494 0
M  V30 561 C 63.0102 -0.257138 -2.3208 0
M  V30 562 C 63.9912 0.625645 -1.58176 0
M  V30 563 O 65.1762 0.552811 -1.86166 0
M  V30 564 C 62.3062 0.582958 -3.42372 0
M  V30 565 C 61.2602 -0.202571 -4.2752 0
M  V30 566 C 60.5862 0.760179 -5.29269 0
M  V30 567 C 61.8862 -1.40998 -5.02908 0
M  V30 568 H 63.5802 -1.07247 -2.79532 0
M  V30 569 H 61.1262 -0.517163 -1.34393 0
M  V30 570 H 63.0792 0.987972 -4.09655 0
M  V30 571 H 61.8032 1.43133 -2.93565 0
M  V30 572 H 60.4622 -0.588936 -3.61838 0
M  V30 573 H 60.1102 1.60447 -4.76724 0
M  V30 574 H 59.8102 0.238809 -5.87115 0
M  V30 575 H 61.3342 1.16308 -5.9942 0
M  V30 576 H 62.7482 -1.07905 -5.63054 0
M  V30 577 H 61.1452 -1.86689 -5.70322 0
M  V30 578 H 62.2152 -2.1889 -4.32684 0
M  V30 579 N 63.5583 1.46682 -0.576371 0
M  V30 580 C 64.8043 2.02712 -0.0596221 0
M  V30 581 C 65.1373 1.44765 1.29448 0
M  V30 582 O 64.4123 0.610355 1.84675 0
M  V30 583 C 64.6953 3.60098 0.0129503 0
M  V30 584 C 64.5483 4.28441 -1.3696 0
M  V30 585 C 65.8673 4.34224 0.71678 0
M  V30 586 H 62.9863 0.736637 -0.0231407 0
M  V30 587 H 65.6283 1.74898 -0.742351 0
M  V30 588 H 63.7783 3.83926 0.594378 0
M  V30 589 H 65.4503 4.15896 -1.9957 0
M  V30 590 H 63.6933 3.8805 -1.93907 0
M  V30 591 H 64.3643 5.3716 -1.27135 0
M  V30 592 H 66.8403 4.15503 0.222908 0
M  V30 593 H 65.7163 5.43936 0.73657 0
M  V30 594 H 65.9773 4.04823 1.77682 0
M  V30 595 N 65.0364 0.313813 1.54444 0
M  V30 596 C 66.2854 -0.292519 1.99568 0
M  V30 597 C 66.5984 -1.54011 1.20582 0
M  V30 598 O 67.8044 -2.22183 1.56035 0
M  V30 599 C 66.2604 -0.571752 3.55329 0
M  V30 600 C 65.8684 0.658229 4.43138 0
M  V30 601 C 67.6124 -1.13857 4.08946 0
M  V30 602 C 65.5194 0.351439 5.90355 0
M  V30 603 H 64.4494 -0.113079 0.745472 0
M  V30 604 H 67.1004 0.424518 1.78522 0
M  V30 605 H 65.4824 -1.34872 3.72325 0
M  V30 606 H 66.6564 1.43403 4.37918 0
M  V30 607 H 64.9714 1.14458 4.0036 0
M  V30 608 H 67.5684 -1.38257 5.16516 0
M  V30 609 H 67.9114 -2.08489 3.6033 0
M  V30 610 H 68.4444 -0.423015 3.95544 0
M  V30 611 H 65.1834 1.26667 6.43145 0
M  V30 612 H 64.7034 -0.386842 5.98551 0
M  V30 613 H 66.3824 -0.0423134 6.46986 0
M  V30 614 N 66.5145 -1.57545 0.0417849 0
M  V30 615 C 67.4625 -2.12148 -0.953723 0
M  V30 616 C 68.4565 -1.05104 -1.32852 0
M  V30 617 O 69.6625 -1.23524 -1.30927 0
M  V30 618 H 66.0375 -0.677957 -0.325389 0
M  V30 619 H 68.0085 -2.94707 -0.467991 0
M  V30 620 C 66.7575 -2.6739 -2.22257 0
M  V30 621 H 66.0805 -3.49413 -1.94295 0
M  V30 622 H 67.5205 -3.09227 -2.90094 0
M  V30 623 C 65.9795 -1.60723 -2.96091 0
M  V30 624 O 66.5095 -1.01449 -3.88679 0
M  V30 625 N 64.7155 -1.32466 -2.58652 0
M  V30 626 H 64.2625 -1.80856 -1.83437 0
M  V30 627 H 64.2205 -0.61325 -3.08361 0
M  V30 628 N 67.9926 0.231505 -1.5589 0
M  V30 629 C 69.2416 0.955346 -1.7764 0
M  V30 630 C 69.5546 1.85893 -0.608546 0
M  V30 631 O 70.7606 2.62067 -0.70943 0
M  V30 632 C 69.2166 1.74886 -3.14552 0
M  V30 633 C 68.8246 0.891915 -4.39032 0
M  V30 634 C 70.5686 2.46452 -3.45633 0
M  V30 635 C 68.4756 1.68221 -5.66971 0
M  V30 636 H 67.4056 0.360446 -0.662265 0
M  V30 637 H 70.0566 0.209516 -1.823 0
M  V30 638 H 68.4386 2.53723 -3.04041 0
M  V30 639 H 69.6126 0.144793 -4.60572 0
M  V30 640 H 67.9276 0.288863 -4.15397 0
M  V30 641 H 70.5246 3.06061 -4.38441 0
M  V30 642 H 70.8676 3.18841 -2.67668 0
M  V30 643 H 71.4006 1.74613 -3.57428 0
M  V30 644 H 68.1396 1.00178 -6.478 0
M  V30 645 H 67.6596 2.4042 -5.49507 0
M  V30 646 H 69.3386 2.24544 -6.06786 0
M  V30 647 N 69.4707 1.49531 0.497807 0
M  V30 648 C 70.6957 1.63159 1.28039 0
M  V30 649 C 71.1207 0.30418 1.85624 0
M  V30 650 O 70.4787 -0.728618 1.66015 0
M  V30 651 C 70.5267 2.70537 2.38416 0
M  V30 652 O 69.6307 2.29931 3.42353 0
M  V30 653 H 68.9717 0.546001 0.377861 0
M  V30 654 H 71.5017 1.9574 0.59558 0
M  V30 655 H 71.5117 2.92802 2.84132 0
M  V30 656 H 70.1867 3.6689 1.95869 0
M  V30 657 H 68.7637 2.18009 3.02533 0
M  V30 658 N 70.9488 -0.749086 1.3866 0
M  V30 659 C 72.1968 -1.50535 1.34847 0
M  V30 660 C 72.5178 -1.94909 -0.0595016 0
M  V30 661 O 71.7878 -1.67973 -1.00806 0
M  V30 662 H 70.3678 -0.558395 0.49619 0
M  V30 663 H 73.0298 -0.890165 1.73384 0
M  V30 664 H 72.1258 -2.39413 2.00219 0
M  V30 665 N 72.4269 -1.23603 -0.977757 0
M  V30 666 C 73.3569 -1.04401 -2.0886 0
M  V30 667 C 74.3379 0.0399052 -1.70053 0
M  V30 668 O 75.5229 -0.125246 -1.93796 0
M  V30 669 C 72.6529 -0.637269 -3.41403 0
M  V30 670 C 71.6069 -1.66883 -3.94124 0
M  V30 671 C 70.9329 -1.11745 -5.22893 0
M  V30 672 C 72.2329 -3.06247 -4.23096 0
M  V30 673 H 73.9269 -1.97316 -2.25182 0
M  V30 674 H 71.4729 -0.950096 -1.08209 0
M  V30 675 H 73.4259 -0.48998 -4.18542 0
M  V30 676 H 72.1499 0.327557 -3.24953 0
M  V30 677 H 70.8089 -1.80416 -3.19133 0
M  V30 678 H 70.4569 -0.143527 -5.02795 0
M  V30 679 H 70.1569 -1.80672 -5.59134 0
M  V30 680 H 71.6809 -0.982067 -6.02651 0
M  V30 681 H 73.0949 -2.96001 -4.90975 0
M  V30 682 H 71.4919 -3.72436 -4.70544 0
M  V30 683 H 72.5619 -3.55041 -3.30263 0
M  V30 684 N 73.905 1.17692 -1.04816 0
M  V30 685 C 75.321 1.39863 -0.768794 0
M  V30 686 C 75.521 1.91118 0.638451 0
M  V30 687 O 74.577 2.10036 1.40146 0
M  V30 688 C 75.89 2.39274 -1.82122 0
M  V30 689 C 77.438 2.52987 -1.843 0
M  V30 690 C 77.913 3.55669 -2.88555 0
M  V30 691 N 79.404 3.63183 -2.87493 0
M  V30 692 C 80.139 4.42381 -3.64811 0
M  V30 693 N 79.635 5.25125 -4.51903 0
M  V30 694 N 81.428 4.37217 -3.53267 0
M  V30 695 H 73.579 0.82752 -1.95617 0
M  V30 696 H 75.842 0.426123 -0.846831 0
M  V30 697 H 75.548 2.08678 -2.83102 0
M  V30 698 H 75.422 3.38725 -1.65967 0
M  V30 699 H 77.809 2.82896 -0.839869 0
M  V30 700 H 77.89 1.53623 -2.04532 0
M  V30 701 H 77.534 3.26499 -3.89051 0
M  V30 702 H 77.464 4.54728 -2.65575 0
M  V30 703 H 79.955 3.04103 -2.24343 0
M  V30 704 H 80.268 5.82728 -5.07591 0
M  V30 705 H 78.613 5.24519 -4.55966 0
M  V30 706 H 81.804 3.71626 -2.84625 0
M  V30 707 H 81.977 4.98696 -4.13771 0
M  V30 708 N 75.3831 0.828654 1.34056 0
M  V30 709 C 76.6301 0.419458 1.98108 0
M  V30 710 C 76.9581 -1.01886 1.65679 0
M  V30 711 O 76.2131 -1.72539 0.923512 0
M  V30 712 C 76.5121 0.575226 3.52741 0
M  V30 713 C 76.1781 1.98012 4.05095 0
M  V30 714 C 74.8401 2.36442 4.19104 0
M  V30 715 C 77.1921 2.89824 4.33188 0
M  V30 716 C 74.5201 3.66009 4.58535 0
M  V30 717 C 76.8721 4.1886 4.74066 0
M  V30 718 C 75.5361 4.5726 4.86281 0
M  V30 719 H 74.8061 0.153491 0.724929 0
M  V30 720 H 77.4531 1.05371 1.59904 0
M  V30 721 H 75.7581 -0.142385 3.91541 0
M  V30 722 H 77.4551 0.239057 4.00287 0
M  V30 723 H 74.0451 1.67162 3.94658 0
M  V30 724 H 78.2291 2.61375 4.21897 0
M  V30 725 H 73.4851 3.95579 4.66184 0
M  V30 726 H 77.6591 4.90086 4.94761 0
M  V30 727 H 75.2861 5.57707 5.16592 0
M  V30 728 N 76.8612 -1.46375 0.584142 0
M  V30 729 C 77.7712 -2.34115 -0.150728 0
M  V30 730 C 78.7872 -1.49838 -0.884567 0
M  V30 731 O 79.9632 -1.82704 -0.847429 0
M  V30 732 C 77.0282 -3.2705 -1.15062 0
M  V30 733 C 76.0892 -4.27228 -0.421293 0
M  V30 734 C 75.3222 -5.15722 -1.37355 0
M  V30 735 O 75.5452 -5.07176 -2.61014 0
M  V30 736 O 74.4792 -5.95383 -0.883355 0
M  V30 737 H 78.3052 -2.98309 0.569708 0
M  V30 738 H 75.8902 -1.45373 0.344535 0
M  V30 739 H 77.7722 -3.84381 -1.72712 0
M  V30 740 H 76.4472 -2.65451 -1.8525 0
M  V30 741 H 75.3542 -3.7358 0.197085 0
M  V30 742 H 76.6872 -4.91616 0.239641 0
M  V30 743 N 78.3393 -0.321999 -1.54275 0
M  V30 744 C 79.5673 0.283052 -2.04955 0
M  V30 745 C 79.9823 1.45904 -1.19823 0
M  V30 746 O 79.3393 1.81063 -0.228545 0
M  V30 747 C 79.3903 0.719028 -3.54277 0
M  V30 748 O 79.1113 -0.410175 -4.36176 0
M  V30 749 C 80.6123 1.38705 -4.21041 0
M  V30 750 H 77.8323 0.0584616 -0.668448 0
M  V30 751 H 80.3763 -0.467734 -1.99079 0
M  V30 752 H 78.5313 1.41979 -3.60445 0
M  V30 753 H 78.9453 -0.0669416 -5.24457 0
M  V30 754 H 80.4193 1.64306 -5.2698 0
M  V30 755 H 80.8963 2.33385 -3.72059 0
M  V30 756 H 81.5023 0.728906 -4.19007 0
M  V30 757 N 79.8174 1.5752 -0.0501392 0
M  V30 758 C 80.7494 2.08413 0.95376 0
M  V30 759 C 81.7624 1.01175 1.27544 0
M  V30 760 O 82.9514 1.28744 1.23641 0
M  V30 761 C 80.0514 2.51138 2.27559 0
M  V30 762 C 79.2244 3.817 2.13598 0
M  V30 763 C 78.2834 4.10749 3.28895 0
M  V30 764 O 77.3094 4.80685 3.04845 0
M  V30 765 N 78.5114 3.62579 4.5334 0
M  V30 766 H 81.2764 2.95165 0.519383 0
M  V30 767 H 78.8374 1.61327 0.136127 0
M  V30 768 H 80.8294 2.67648 3.03557 0
M  V30 769 H 79.3994 1.6964 2.62567 0
M  V30 770 H 78.6194 3.74782 1.22197 0
M  V30 771 H 79.9074 4.67201 2.01496 0
M  V30 772 H 79.3054 3.06039 4.75769 0
M  V30 773 H 77.8624 3.84329 5.26436 0
M  V30 774 N 81.2955 -0.223234 1.56011 0
M  V30 775 C 82.2255 -1.27988 1.95298 0
M  V30 776 C 83.2065 -1.48976 0.820979 0
M  V30 777 O 84.3915 -1.61188 1.08315 0
M  V30 778 C 81.5215 -2.63 2.26822 0
M  V30 779 C 80.4755 -2.56671 3.42497 0
M  V30 780 C 79.8015 -3.95697 3.59622 0
M  V30 781 C 81.1015 -2.11601 4.77517 0
M  V30 782 H 82.7955 -0.953525 2.8381 0
M  V30 783 H 80.3415 -0.457244 1.36548 0
M  V30 784 H 82.2945 -3.37077 2.52898 0
M  V30 785 H 81.0185 -2.9732 1.35161 0
M  V30 786 H 79.6775 -1.85051 3.16467 0
M  V30 787 H 79.3255 -4.27322 2.6534 0
M  V30 788 H 79.0255 -3.92345 4.37424 0
M  V30 789 H 80.5495 -4.71438 3.88044 0
M  V30 790 H 81.9635 -2.7542 5.02809 0
M  V30 791 H 80.3605 -2.19311 5.5859 0
M  V30 792 H 81.4305 -1.06824 4.72987 0
M  V30 793 N 82.7736 -1.49793 -0.48987 0
M  V30 794 C 84.1896 -1.36803 -0.822022 0
M  V30 795 C 84.3896 -0.409652 -1.97292 0
M  V30 796 O 83.4456 0.154614 -2.52026 0
M  V30 797 C 84.7586 -2.77768 -1.15175 0
M  V30 798 C 86.3066 -2.86549 -1.25931 0
M  V30 799 C 86.7816 -4.28306 -1.62228 0
M  V30 800 N 88.2726 -4.31169 -1.69256 0
M  V30 801 C 89.0076 -5.37832 -1.98807 0
M  V30 802 N 88.5036 -6.54726 -2.26507 0
M  V30 803 N 90.2966 -5.25258 -2.00152 0
M  V30 804 H 82.4476 -2.10691 0.268881 0
M  V30 805 H 84.7106 -0.946241 0.057728 0
M  V30 806 H 84.4166 -3.49648 -0.379335 0
M  V30 807 H 84.2906 -3.13836 -2.09253 0
M  V30 808 H 86.6776 -2.14899 -2.02243 0
M  V30 809 H 86.7586 -2.54049 -0.298776 0
M  V30 810 H 86.4026 -5.00486 -0.864622 0
M  V30 811 H 86.3326 -4.58279 -2.594 0
M  V30 812 H 88.8236 -3.4687 -1.49965 0
M  V30 813 H 89.1366 -7.31833 -2.48276 0
M  V30 814 H 87.4816 -6.57933 -2.23939 0
M  V30 815 H 90.6726 -4.32938 -1.77996 0
M  V30 816 H 90.8456 -6.08476 -2.22848 0
M  V30 817 N 84.2517 0.741722 -1.39055 0
M  V30 818 C 85.4797 1.53098 -1.39171 0
M  V30 819 C 85.8947 1.88794 0.0155099 0
M  V30 820 O 85.2517 1.53626 0.985159 0
M  V30 821 C 85.3027 2.82274 -2.2584 0
M  V30 822 O 85.0237 2.48097 -3.61081 0
M  V30 823 C 86.5247 3.76343 -2.34266 0
M  V30 824 H 83.7447 0.473335 -0.4756 0
M  V30 825 H 86.2887 0.917045 -1.82785 0
M  V30 826 H 84.4437 3.40015 -1.85656 0
M  V30 827 H 84.8577 3.31029 -4.06842 0
M  V30 828 H 86.3317 4.63898 -2.9917 0
M  V30 829 H 86.8087 4.17619 -1.35982 0
M  V30 830 H 87.4147 3.24523 -2.74891 0
M  V30 831 N 85.7298 1.2412 0.971189 0
M  V30 832 C 86.6598 1.05508 2.08304 0
M  V30 833 C 87.6408 -0.0308864 1.70072 0
M  V30 834 O 88.8258 0.135521 1.93727 0
M  V30 835 C 85.9558 0.655365 3.4106 0
M  V30 836 C 84.9098 1.68971 3.93234 0
M  V30 837 C 84.2358 1.14516 5.22293 0
M  V30 838 C 85.5358 3.08487 4.21465 0
M  V30 839 H 87.2298 1.98507 2.24132 0
M  V30 840 H 84.7758 0.955821 1.07704 0
M  V30 841 H 86.7288 0.51217 4.18276 0
M  V30 842 H 85.4528 -0.31032 3.25122 0
M  V30 843 H 84.1118 1.82106 3.18171 0
M  V30 844 H 83.7598 0.170189 5.02712 0
M  V30 845 H 83.4598 1.83635 5.58168 0
M  V30 846 H 84.9838 1.01401 6.02121 0
M  V30 847 H 86.3978 2.98601 4.89398 0
M  V30 848 H 84.7948 3.74926 4.68562 0
M  V30 849 H 85.8648 3.56787 3.28376 0
M  V30 850 N 87.2079 -1.17134 1.05439 0
M  V30 851 C 88.4329 -1.91913 0.786396 0
M  V30 852 C 88.8579 -1.7643 -0.652234 0
M  V30 853 O 88.2159 -1.08372 -1.45345 0
M  V30 854 C 88.2639 -3.40921 1.17497 0
M  V30 855 O 87.3679 -4.11244 0.308589 0
M  V30 856 H 86.7089 -0.598215 0.288158 0
M  V30 857 H 89.2389 -1.48457 1.4079 0
M  V30 858 H 89.2489 -3.91668 1.14281 0
M  V30 859 H 87.9239 -3.5151 2.22292 0
M  V30 860 H 86.5009 -3.70731 0.40157 0
M  V30 861 N 88.686 -0.835752 -1.33615 0
M  V30 862 C 89.616 -0.281739 -2.31794 0
M  V30 863 C 90.597 0.608833 -1.58831 0
M  V30 864 O 91.782 0.533035 -1.86741 0
M  V30 865 C 88.912 0.546612 -3.42971 0
M  V30 866 C 87.866 -0.247904 -4.27281 0
M  V30 867 C 87.192 0.704001 -5.30045 0
M  V30 868 C 88.492 -1.46324 -5.01385 0
M  V30 869 H 90.186 -1.10206 -2.78379 0
M  V30 870 H 87.732 -0.531388 -1.33837 0
M  V30 871 H 89.685 0.944467 -4.1068 0
M  V30 872 H 88.409 1.40011 -2.95067 0
M  V30 873 H 87.068 -0.627281 -3.61194 0
M  V30 874 H 86.716 1.55381 -4.78399 0
M  V30 875 H 86.416 0.176524 -5.87335 0
M  V30 876 H 87.94 1.09944 -6.0062 0
M  V30 877 H 89.354 -1.13871 -5.61877 0
M  V30 878 H 87.751 -1.92728 -5.6831 0
M  V30 879 H 88.821 -2.23467 -4.30338 0
M  V30 880 N 90.1641 1.46063 -0.591896 0
M  V30 881 C 91.4111 2.02338 -0.0809991 0
M  V30 882 C 91.7391 1.46228 1.28249 0
M  V30 883 O 90.9941 0.620818 1.85592 0
M  V30 884 C 91.2931 3.57391 0.0249813 0
M  V30 885 C 90.9591 4.32583 -1.27211 0
M  V30 886 C 89.6211 4.52844 -1.62745 0
M  V30 887 C 91.9731 4.75687 -2.13005 0
M  V30 888 C 89.3011 5.13462 -2.83855 0
M  V30 889 C 91.6531 5.37644 -3.3335 0
M  V30 890 C 90.3171 5.5613 -3.69155 0
M  V30 891 H 89.5871 0.740407 -0.0296397 0
M  V30 892 H 92.2341 1.75321 -0.770374 0
M  V30 893 H 90.5391 3.83597 0.797537 0
M  V30 894 H 92.2361 3.98621 0.436184 0
M  V30 895 H 88.8261 4.17116 -0.985499 0
M  V30 896 H 93.0101 4.59782 -1.86855 0
M  V30 897 H 88.2661 5.25965 -3.11722 0
M  V30 898 H 92.4401 5.7 -4.00092 0
M  V30 899 H 90.0671 6.0287 -4.63089 0
M  V30 900 N 91.6422 0.330177 1.54103 0
M  V30 901 C 93.0532 -0.15652 1.86043 0
M  V30 902 C 93.4042 -1.51086 1.2517 0
M  V30 903 O 92.5292 -2.09023 0.560217 0
M  V30 904 C 93.1242 -0.290784 3.3755 0
M  V30 905 C 91.6832 -0.721705 3.69416 0
M  V30 906 C 90.8302 0.152622 2.7688 0
M  V30 907 H 93.7812 0.550237 1.48856 0
M  V30 908 H 93.8022 -1.12058 3.63625 0
M  V30 909 H 93.3142 0.695068 3.81825 0
M  V30 910 H 91.4152 -1.71706 3.30678 0
M  V30 911 H 91.5282 -0.520869 4.7626 0
M  V30 912 H 89.8922 -0.372894 2.51956 0
M  V30 913 H 90.6752 1.13536 3.23982 0
M  V30 914 N 93.1203 -1.57491 0.0584922 0
M  V30 915 C 94.3973 -1.84346 -0.653918 0
M  V30 916 C 94.7773 -0.948355 -1.88599 0
M  V30 917 O 94.1253 -0.0112403 -2.28497 0
M  V30 918 C 94.3353 -3.34239 -1.00425 0
M  V30 919 C 95.6833 -4.01431 -1.38342 0
M  V30 920 O 96.7073 -3.38907 -1.09637 0
M  V30 921 O 95.5663 -5.11683 -1.91943 0
M  V30 922 H 92.6603 -0.761112 -0.323478 0
M  V30 923 H 95.2063 -1.6947 0.0884125 0
M  V30 924 H 93.9783 -3.91089 -0.128625 0
M  V30 925 H 93.6013 -3.54329 -1.80378 0
M  V30 926 N 94.5984 0.214957 -1.56127 0
M  V30 927 C 95.8264 0.955092 -1.83536 0
M  V30 928 C 96.2414 1.77677 -0.638472 0
M  V30 929 O 95.5984 1.78219 0.392968 0
M  V30 930 C 95.6494 1.86734 -3.09536 0
M  V30 931 O 95.3704 1.07887 -4.24608 0
M  V30 932 C 96.8714 2.72082 -3.4998 0
M  V30 933 H 94.0914 0.279611 -0.609966 0
M  V30 934 H 96.6354 0.228197 -2.03223 0
M  V30 935 H 94.7904 2.5481 -2.91806 0
M  V30 936 H 95.2044 1.69872 -4.9623 0
M  V30 937 H 96.6784 3.31782 -4.41163 0
M  V30 938 H 97.1554 3.44806 -2.7204 0
M  V30 939 H 97.7614 2.09409 -3.70173 0
M  V30 940 N 96.0765 1.50051 0.48192 0
M  V30 941 C 97.0065 1.71046 1.58951 0
M  V30 942 C 97.9875 0.559288 1.60642 0
M  V30 943 O 99.1725 0.797243 1.77081 0
M  V30 944 C 96.3025 1.79462 2.97339 0
M  V30 945 C 95.2565 2.94558 3.10515 0
M  V30 946 C 94.5825 2.88105 4.50444 0
M  V30 947 C 95.8825 4.35227 2.88747 0
M  V30 948 H 97.5765 2.6378 1.41635 0
M  V30 949 H 95.1225 1.26936 0.679942 0
M  V30 950 H 97.0755 1.92734 3.74742 0
M  V30 951 H 95.7995 0.833412 3.15788 0
M  V30 952 H 94.4585 2.80918 2.35543 0
M  V30 953 H 94.1065 1.89853 4.65795 0
M  V30 954 H 93.8065 3.65366 4.60197 0
M  V30 955 H 95.3305 3.03412 5.29881 0
M  V30 956 H 96.7445 4.49449 3.55905 0
M  V30 957 H 95.1415 5.13856 3.09955 0
M  V30 958 H 96.2115 4.48347 1.84696 0
M  V30 959 N 97.5546 -0.734337 1.39446 0
M  V30 960 C 98.4846 -1.86155 1.40955 0
M  V30 961 C 99.4656 -1.67898 0.272827 0
M  V30 962 O 100.651 -1.88207 0.478743 0
M  V30 963 C 97.7806 -3.23912 1.25294 0
M  V30 964 C 96.7346 -3.56808 2.36373 0
M  V30 965 C 96.0606 -4.93508 2.058 0
M  V30 966 C 97.3606 -3.59713 3.78687 0
M  V30 967 H 99.0546 -1.8515 2.35287 0
M  V30 968 H 96.6006 -0.889367 1.13253 0
M  V30 969 H 98.5536 -4.02443 1.2497 0
M  V30 970 H 97.2776 -3.25446 0.274308 0
M  V30 971 H 95.9366 -2.80606 2.35914 0
M  V30 972 H 95.5846 -4.91623 1.06374 0
M  V30 973 H 95.2846 -5.16486 2.80208 0
M  V30 974 H 96.8086 -5.74396 2.07128 0
M  V30 975 H 98.2226 -4.2832 3.81071 0
M  V30 976 H 96.6196 -3.94209 4.52459 0
M  V30 977 H 97.6896 -2.59504 4.09617 0
M  V30 978 N 99.0327 -1.24633 -0.964593 0
M  V30 979 C 100.281 -1.08573 -1.70459 0
M  V30 980 C 100.602 0.375655 -1.91347 0
M  V30 981 O 99.8717 1.26779 -1.49345 0
M  V30 982 H 98.4517 -0.398784 -0.631649 0
M  V30 983 H 101.114 -1.56601 -1.16026 0
M  V30 984 H 100.21 -1.58623 -2.68785 0
M  V30 985 N 100.511 1.16574 -1.06058 0
M  V30 986 C 101.788 1.83048 -0.689416 0
M  V30 987 C 102.168 1.94122 0.829443 0
M  V30 988 O 101.516 1.48249 1.7388 0
M  V30 989 C 101.726 3.20186 -1.38859 0
M  V30 990 C 103.074 3.95989 -1.53226 0
M  V30 991 O 104.098 3.29696 -1.3483 0
M  V30 992 O 102.957 5.14813 -1.83384 0
M  V30 993 H 100.051 0.790258 -0.243764 0
M  V30 994 H 102.597 1.23797 -1.16071 0
M  V30 995 H 101.369 3.07146 -2.4244 0
M  V30 996 H 100.992 3.87112 -0.907216 0
M  V30 997 N 101.989 0.842826 1.3317 0
M  V30 998 C 103.4 0.496651 1.79973 0
M  V30 999 C 103.751 -0.984641 1.69703 0
M  V30 1000 O 102.876 -1.76743 1.24863 0
M  V30 1001 C 103.471 0.894727 3.26772 0
M  V30 1002 C 102.03 0.600629 3.71577 0
M  V30 1003 C 101.177 1.10091 2.5451 0
M  V30 1004 H 104.128 1.03116 1.20635 0
M  V30 1005 H 104.149 0.206347 3.7994 0
M  V30 1006 H 103.661 1.97287 3.34215 0
M  V30 1007 H 101.762 -0.467284 3.69658 0
M  V30 1008 H 101.875 1.15863 4.64879 0
M  V30 1009 H 100.239 0.52162 2.49301 0
M  V30 1010 H 101.022 2.18591 2.64713 0
M  V30 1011 N 103.467 -1.45747 0.599634 0
M  V30 1012 C 104.715 -2.01893 0.0915472 0
M  V30 1013 C 105.036 -1.47155 -1.27946 0
M  V30 1014 O 104.306 -0.66273 -1.84349 0
M  V30 1015 H 102.886 -0.746363 0.0308524 0
M  V30 1016 H 105.548 -1.78645 0.779237 0
M  V30 1017 H 104.644 -3.1208 0.0353086 0
M  V30 1018 N 104.945 -0.338344 -1.53925 0
M  V30 1019 C 106.361 0.0137736 -1.59594 0
M  V30 1020 C 106.561 1.49186 -1.35447 0
M  V30 1021 O 105.617 2.24987 -1.14616 0
M  V30 1022 C 106.93 -0.41773 -2.97784 0
M  V30 1023 C 108.478 -0.369633 -3.1081 0
M  V30 1024 C 108.953 -0.776524 -4.51369 0
M  V30 1025 N 110.444 -0.730506 -4.57403 0
M  V30 1026 C 111.179 -1.01736 -5.64303 0
M  V30 1027 N 110.675 -1.3721 -6.79077 0
M  V30 1028 N 112.468 -0.941942 -5.54151 0
M  V30 1029 H 104.619 -1.3012 -1.67876 0
M  V30 1030 H 106.882 -0.530082 -0.78595 0
M  V30 1031 H 106.588 -1.44811 -3.20504 0
M  V30 1032 H 106.462 0.209729 -3.76616 0
M  V30 1033 H 108.849 0.651568 -2.87817 0
M  V30 1034 H 108.93 -1.03223 -2.34049 0
M  V30 1035 H 108.574 -1.79571 -4.75096 0
M  V30 1036 H 108.504 -0.0914649 -5.26521 0
M  V30 1037 H 110.995 -0.468783 -3.74981 0
M  V30 1038 H 111.308 -1.57597 -7.5656 0
M  V30 1039 H 109.653 -1.4105 -6.80536 0
M  V30 1040 H 112.844 -0.664184 -4.63364 0
M  V30 1041 H 113.017 -1.16884 -6.37371 0
M  V30 1042 N 106.423 1.57458 -0.0668435 0
M  V30 1043 C 107.839 1.56947 0.289772 0
M  V30 1044 C 108.039 1.07584 1.70376 0
M  V30 1045 O 107.095 0.739486 2.41429 0
M  V30 1046 C 108.408 3.0052 0.103943 0
M  V30 1047 C 109.956 3.12517 0.173857 0
M  V30 1048 C 110.431 4.57997 0.0163682 0
M  V30 1049 N 111.922 4.63144 0.0721352 0
M  V30 1050 C 112.657 5.73394 -0.0253794 0
M  V30 1051 N 112.153 6.92576 -0.176133 0
M  V30 1052 N 113.946 5.62091 0.0313305 0
M  V30 1053 H 106.097 1.87863 -0.991027 0
M  V30 1054 H 108.36 0.86583 -0.38606 0
M  V30 1055 H 108.066 3.40729 -0.871572 0
M  V30 1056 H 107.94 3.67304 0.858366 0
M  V30 1057 H 110.327 2.72197 1.13985 0
M  V30 1058 H 110.408 2.48381 -0.611586 0
M  V30 1059 H 110.052 4.99005 -0.946374 0
M  V30 1060 H 109.982 5.20158 0.821153 0
M  V30 1061 H 112.473 3.77436 0.187263 0
M  V30 1062 H 112.786 7.72418 -0.242821 0
M  V30 1063 H 111.131 6.94678 -0.211429 0
M  V30 1064 H 114.322 4.67867 0.147773 0
M  V30 1065 H 114.495 6.47982 -0.048121 0
M  V30 1066 N 107.901 -0.206675 1.56239 0
M  V30 1067 C 109.147 -0.930218 1.80208 0
M  V30 1068 C 109.48 -1.83387 0.638981 0
M  V30 1069 O 108.755 -1.91119 -0.361066 0
M  V30 1070 C 109.038 -1.75641 3.1436 0
M  V30 1071 C 108.891 -0.878257 4.41142 0
M  V30 1072 C 110.21 -2.73129 3.45092 0
M  V30 1073 H 107.329 -0.336742 0.655571 0
M  V30 1074 H 109.971 -0.198222 1.88963 0
M  V30 1075 H 108.121 -2.38048 3.07027 0
M  V30 1076 H 109.793 -0.269787 4.6051 0
M  V30 1077 H 108.036 -0.184385 4.33408 0
M  V30 1078 H 108.707 -1.49106 5.3148 0
M  V30 1079 H 111.183 -2.20856 3.52649 0
M  V30 1080 H 110.059 -3.28028 4.40101 0
M  V30 1081 H 110.32 -3.51606 2.68003 0
M  V30 1082 N 109.379 -1.50304 -0.473955 0
M  V30 1083 C 110.795 -1.37667 -0.807466 0
M  V30 1084 C 110.995 -0.430555 -1.96846 0
M  V30 1085 O 110.051 0.127874 -2.52176 0
M  V30 1086 C 111.364 -2.78974 -1.12223 0
M  V30 1087 C 112.912 -2.87868 -1.22885 0
M  V30 1088 C 113.387 -4.30003 -1.57676 0
M  V30 1089 N 114.878 -4.3294 -1.64673 0
M  V30 1090 C 115.613 -5.3991 -1.93091 0
M  V30 1091 N 115.109 -6.57092 -2.1955 0
M  V30 1092 N 116.902 -5.27351 -1.94569 0
M  V30 1093 H 109.053 -2.10394 0.291212 0
M  V30 1094 H 111.316 -0.945575 0.0677609 0
M  V30 1095 H 111.022 -3.50031 -0.342229 0
M  V30 1096 H 110.896 -3.16038 -2.05913 0
M  V30 1097 H 113.283 -2.17032 -1.99953 0
M  V30 1098 H 113.364 -2.54352 -0.271814 0
M  V30 1099 H 113.008 -5.01375 -0.81149 0
M  V30 1100 H 112.938 -4.61004 -2.54525 0
M  V30 1101 H 115.429 -3.48441 -1.46277 0
M  V30 1102 H 115.742 -7.34425 -2.405 0
M  V30 1103 H 114.087 -6.60272 -2.16948 0
M  V30 1104 H 117.278 -4.34801 -1.73394 0
M  V30 1105 H 117.451 -6.10805 -2.16381 0
M  V30 1106 N 110.857 0.726932 -1.39834 0
M  V30 1107 C 112.104 1.48664 -1.37496 0
M  V30 1108 C 112.432 1.94482 0.0264678 0
M  V30 1109 O 111.687 1.67692 1.00886 0
M  V30 1110 C 111.986 2.73495 -2.30077 0
M  V30 1111 C 111.652 2.46502 -3.77555 0
M  V30 1112 C 110.314 2.3885 -4.17737 0
M  V30 1113 C 112.666 2.23604 -4.70798 0
M  V30 1114 C 109.994 2.06352 -5.49214 0
M  V30 1115 C 112.346 1.92622 -6.02561 0
M  V30 1116 C 111.01 1.83444 -6.41798 0
M  V30 1117 H 110.28 0.544001 -0.503135 0
M  V30 1118 H 112.927 0.833657 -1.72402 0
M  V30 1119 H 111.232 3.43575 -1.88317 0
M  V30 1120 H 112.929 3.31549 -2.25558 0
M  V30 1121 H 109.519 2.5334 -3.45712 0
M  V30 1122 H 113.703 2.28479 -4.40581 0
M  V30 1123 H 108.959 1.97776 -5.78528 0
M  V30 1124 H 113.133 1.73914 -6.74334 0
M  V30 1125 H 110.76 1.58029 -7.43593 0
M  V30 1126 N 112.336 1.25143 0.95797 0
M  V30 1127 C 113.583 1.09692 1.70217 0
M  V30 1128 C 113.911 -0.362654 1.91089 0
M  V30 1129 O 113.166 -1.28386 1.47701 0
M  V30 1130 C 113.465 1.79272 3.09187 0
M  V30 1131 C 113.131 3.29196 3.08125 0
M  V30 1132 C 111.793 3.70096 3.07543 0
M  V30 1133 C 114.145 4.24995 3.0171 0
M  V30 1134 C 111.473 5.05213 2.9829 0
M  V30 1135 C 113.825 5.60132 2.93999 0
M  V30 1136 C 112.489 6.00365 2.9175 0
M  V30 1137 H 111.759 0.401393 0.622868 0
M  V30 1138 H 114.406 1.55372 1.11945 0
M  V30 1139 H 112.711 1.26014 3.70982 0
M  V30 1140 H 114.408 1.64773 3.65583 0
M  V30 1141 H 110.998 2.96651 3.09348 0
M  V30 1142 H 115.182 3.9439 3.01281 0
M  V30 1143 H 110.438 5.35569 2.94916 0
M  V30 1144 H 114.612 6.3406 2.87996 0
M  V30 1145 H 112.239 7.05023 2.84336 0
M  V30 1146 N 113.814 -1.1601 1.06675 0
M  V30 1147 C 115.091 -1.82679 0.699114 0
M  V30 1148 C 115.471 -1.94559 -0.819137 0
M  V30 1149 O 114.819 -1.49169 -1.73092 0
M  V30 1150 C 115.029 -3.19445 1.40555 0
M  V30 1151 C 116.377 -3.95171 1.55323 0
M  V30 1152 O 117.401 -3.28976 1.36577 0
M  V30 1153 O 116.26 -5.13833 1.86112 0
M  V30 1154 H 113.354 -0.788954 0.247951 0
M  V30 1155 H 115.9 -1.23179 1.16726 0
M  V30 1156 H 114.672 -3.05856 2.44065 0
M  V30 1157 H 114.295 -3.86625 0.927733 0
M  V30 1158 N 115.292 -0.849877 -1.32721 0
M  V30 1159 C 116.703 -0.506188 -1.79707 0
M  V30 1160 C 117.054 0.975627 -1.70223 0
M  V30 1161 O 116.179 1.76078 -1.25799 0
M  V30 1162 C 116.774 -0.912044 -3.26293 0
M  V30 1163 C 115.333 -0.620326 -3.71253 0
M  V30 1164 C 114.48 -1.11439 -2.53922 0
M  V30 1165 H 117.431 -1.03754 -1.20087 0
M  V30 1166 H 117.452 -0.226493 -3.79825 0
M  V30 1167 H 116.964 -1.99057 -3.33164 0
M  V30 1168 H 115.065 0.447674 -3.69901 0
M  V30 1169 H 115.178 -1.18327 -4.64258 0
M  V30 1170 H 113.542 -0.534834 -2.49021 0
M  V30 1171 H 114.325 -2.19992 -2.6355 0
M  V30 1172 N 116.77 1.45427 -0.607355 0
M  V30 1173 C 117.7 2.3329 0.0989352 0
M  V30 1174 C 118.681 1.46816 0.859007 0
M  V30 1175 O 119.866 1.75588 0.829604 0
M  V30 1176 C 116.996 3.29518 1.09705 0
M  V30 1177 C 115.95 4.25626 0.450206 0
M  V30 1178 C 115.276 5.11542 1.55655 0
M  V30 1179 C 116.576 5.18505 -0.628455 0
M  V30 1180 H 118.27 2.92595 -0.634716 0
M  V30 1181 H 115.816 1.40696 -0.306681 0
M  V30 1182 H 117.769 3.89855 1.59971 0
M  V30 1183 H 116.493 2.68372 1.86129 0
M  V30 1184 H 115.152 3.66586 -0.0315886 0
M  V30 1185 H 114.8 4.46765 2.31107 0
M  V30 1186 H 114.5 5.76647 1.12925 0
M  V30 1187 H 116.024 5.74748 2.06148 0
M  V30 1188 H 117.438 5.72916 -0.209877 0
M  V30 1189 H 115.835 5.92085 -0.977489 0
M  V30 1190 H 116.905 4.60948 -1.50514 0
M  V30 1191 N 118.248 0.346503 1.53744 0
M  V30 1192 C 119.664 -0.00530975 1.59599 0
M  V30 1193 C 119.864 -1.48465 1.36236 0
M  V30 1194 O 118.92 -2.24376 1.15808 0
M  V30 1195 C 120.233 0.433516 2.97559 0
M  V30 1196 C 121.781 0.386111 3.10609 0
M  V30 1197 C 122.256 0.800451 4.50951 0
M  V30 1198 N 123.747 0.754753 4.5701 0
M  V30 1199 C 124.482 1.04727 5.63755 0
M  V30 1200 N 123.978 1.4081 6.7834 0
M  V30 1201 N 125.771 0.971316 5.53644 0
M  V30 1202 H 117.922 1.31009 1.67184 0
M  V30 1203 H 120.185 0.534242 0.783128 0
M  V30 1204 H 119.891 1.46509 3.19731 0
M  V30 1205 H 119.765 -0.189753 3.76722 0
M  V30 1206 H 122.152 -0.636295 2.88158 0
M  V30 1207 H 122.233 1.04462 2.33498 0
M  V30 1208 H 121.877 1.82088 4.74137 0
M  V30 1209 H 121.807 0.119386 5.26465 0
M  V30 1210 H 124.298 0.488662 3.74727 0
M  V30 1211 H 124.611 1.61607 7.55714 0
M  V30 1212 H 122.956 1.44657 6.79779 0
M  V30 1213 H 126.147 0.688748 4.63005 0
M  V30 1214 H 126.32 1.20263 6.36742 0
M  V30 1215 N 119.726 -1.57421 0.075193 0
M  V30 1216 C 120.674 -2.14124 -0.908508 0
M  V30 1217 C 121.668 -1.07898 -1.30592 0
M  V30 1218 O 122.874 -1.26273 -1.28277 0
M  V30 1219 H 119.249 -0.684707 -0.310935 0
M  V30 1220 H 121.22 -2.95634 -0.405374 0
M  V30 1221 C 119.969 -2.72044 -2.16535 0
M  V30 1222 H 119.292 -3.53456 -1.86839 0
M  V30 1223 H 120.732 -3.15311 -2.83469 0
M  V30 1224 C 119.191 -1.66968 -2.92615 0
M  V30 1225 O 119.721 -1.0967 -3.86439 0
M  V30 1226 N 117.927 -1.37923 -2.55784 0
M  V30 1227 H 117.474 -1.84706 -1.79559 0
M  V30 1228 H 117.432 -0.67852 -3.06991 0
M  V30 1229 N 121.204 0.198386 -1.56346 0
M  V30 1230 C 122.114 1.2664 -1.97483 0
M  V30 1231 C 123.13 1.49989 -0.882002 0
M  V30 1232 O 124.306 1.62668 -1.18748 0
M  V30 1233 C 121.371 2.59141 -2.30319 0
M  V30 1234 C 120.432 2.43892 -3.53292 0
M  V30 1235 C 119.665 3.70074 -3.84553 0
M  V30 1236 O 119.888 4.74101 -3.1715 0
M  V30 1237 O 118.822 3.658 -4.7799 0
M  V30 1238 H 122.648 0.947304 -2.88548 0
M  V30 1239 H 120.233 0.403123 -1.43859 0
M  V30 1240 H 122.115 3.37352 -2.5253 0
M  V30 1241 H 120.79 2.90684 -1.42423 0
M  V30 1242 H 119.697 1.63803 -3.36332 0
M  V30 1243 H 121.03 2.17282 -4.41644 0
M  V30 1244 N 122.682 1.50554 0.465978 0
M  V30 1245 C 123.912 1.65323 1.23903 0
M  V30 1246 C 124.32 0.338051 1.86155 0
M  V30 1247 O 123.663 -0.690518 1.70228 0
M  V30 1248 C 123.725 2.69048 2.3844 0
M  V30 1249 C 123.389 4.12462 1.96784 0
M  V30 1250 C 124.386 4.98168 1.48745 0
M  V30 1251 C 122.071 4.58407 2.05349 0
M  V30 1252 C 124.065 6.27868 1.0982 0
M  V30 1253 C 121.752 5.88112 1.66035 0
M  V30 1254 C 122.75 6.72668 1.18349 0
M  V30 1255 O 122.438 7.99951 0.795825 0
M  V30 1256 H 122.17 0.558629 0.38067 0
M  V30 1257 H 124.724 1.97561 0.562022 0
M  V30 1258 H 122.954 2.32062 3.09328 0
M  V30 1259 H 124.643 2.72985 3.0039 0
M  V30 1260 H 125.409 4.63885 1.41546 0
M  V30 1261 H 121.288 3.92735 2.41414 0
M  V30 1262 H 124.832 6.93819 0.725293 0
M  V30 1263 H 120.729 6.21914 1.72895 0
M  V30 1264 H 121.497 8.13265 0.924222 0
M  V30 1265 N 124.16 -0.719506 1.40217 0
M  V30 1266 C 125.407 -1.47933 1.38283 0
M  V30 1267 C 125.735 -1.94493 -0.0161536 0
M  V30 1268 O 124.99 -1.68224 -0.999956 0
M  V30 1269 C 125.289 -2.72271 2.31524 0
M  V30 1270 C 124.955 -2.44496 3.78857 0
M  V30 1271 C 123.617 -2.36631 4.18998 0
M  V30 1272 C 125.969 -2.21104 4.71977 0
M  V30 1273 C 123.297 -2.03437 5.503 0
M  V30 1274 C 125.649 -1.89423 6.03574 0
M  V30 1275 C 124.313 -1.80038 6.42762 0
M  V30 1276 H 123.583 -0.541325 0.506012 0
M  V30 1277 H 126.23 -0.824502 1.72842 0
M  V30 1278 H 124.535 -3.42572 1.90137 0
M  V30 1279 H 126.232 -3.30348 2.27313 0
M  V30 1280 H 122.822 -2.51503 3.47051 0
M  V30 1281 H 127.006 -2.26139 4.41786 0
M  V30 1282 H 122.262 -1.94705 5.79569 0
M  V30 1283 H 126.436 -1.70336 6.75247 0
M  V30 1284 H 124.063 -1.54083 7.44421 0
M  V30 1285 N 125.638 -1.25649 -0.95132 0
M  V30 1286 C 126.885 -1.10594 -1.69633 0
M  V30 1287 C 127.213 0.352515 -1.91279 0
M  V30 1288 O 126.468 1.27601 -1.4838 0
M  V30 1289 C 126.767 -1.80909 -3.08231 0
M  V30 1290 C 126.433 -3.30825 -3.06375 0
M  V30 1291 C 125.095 -3.71722 -3.05576 0
M  V30 1292 C 127.447 -4.26589 -2.99452 0
M  V30 1293 C 124.775 -5.06788 -2.95606 0
M  V30 1294 C 127.127 -5.61683 -2.91024 0
M  V30 1295 C 125.791 -6.01904 -2.88562 0
M  V30 1296 H 125.061 -0.404691 -0.620731 0
M  V30 1297 H 127.708 -1.55964 -1.11119 0
M  V30 1298 H 126.013 -1.27979 -3.70309 0
M  V30 1299 H 127.71 -1.6671 -3.64704 0
M  V30 1300 H 124.3 -2.98287 -3.07771 0
M  V30 1301 H 128.484 -3.95982 -2.99185 0
M  V30 1302 H 123.74 -5.37126 -2.92071 0
M  V30 1303 H 127.914 -6.35578 -2.84629 0
M  V30 1304 H 125.541 -7.06521 -2.80593 0
M  V30 1305 N 127.117 1.15442 -1.07289 0
M  V30 1306 C 128.394 1.82306 -0.708792 0
M  V30 1307 C 128.774 1.94991 0.808807 0
M  V30 1308 O 128.122 1.50085 1.72298 0
M  V30 1309 C 128.332 3.18695 -1.42247 0
M  V30 1310 C 129.68 3.94341 -1.57417 0
M  V30 1311 O 130.704 3.28247 -1.38319 0
M  V30 1312 O 129.563 5.12839 -1.88834 0
M  V30 1313 H 126.657 0.787628 -0.252132 0
M  V30 1314 H 129.203 1.22559 -1.17377 0
M  V30 1315 H 127.975 3.04557 -2.45684 0
M  V30 1316 H 127.598 3.86128 -0.948223 0
M  V30 1317 N 128.595 0.856903 1.32268 0
M  V30 1318 C 130.011 0.547061 1.49931 0
M  V30 1319 C 130.211 -0.921781 1.7918 0
M  V30 1320 O 129.267 -1.70469 1.8627 0
M  V30 1321 C 130.58 1.43599 2.64196 0
M  V30 1322 C 132.128 1.43665 2.78081 0
M  V30 1323 C 132.603 2.31085 3.95428 0
M  V30 1324 N 134.094 2.28893 4.02694 0
M  V30 1325 C 134.829 2.93262 4.92732 0
M  V30 1326 N 134.325 3.66751 5.87763 0
M  V30 1327 N 136.118 2.82638 4.85873 0
M  V30 1328 H 128.269 1.8075 1.11549 0
M  V30 1329 H 130.532 0.772144 0.549997 0
M  V30 1330 H 130.238 2.48058 2.49319 0
M  V30 1331 H 130.112 1.12502 3.60032 0
M  V30 1332 H 132.499 0.399701 2.92381 0
M  V30 1333 H 132.58 1.7878 1.82952 0
M  V30 1334 H 132.224 3.34849 3.81888 0
M  V30 1335 H 132.154 1.93302 4.89839 0
M  V30 1336 H 134.645 1.75466 3.34694 0
M  V30 1337 H 134.958 4.13027 6.53168 0
M  V30 1338 H 133.303 3.70859 5.87783 0
M  V30 1339 H 136.494 2.24774 4.10602 0
M  V30 1340 H 136.667 3.33084 5.55841 0
M  V30 1341 N 130.073 -1.45103 0.615059 0
M  V30 1342 C 131.021 -2.32331 -0.111791 0
M  V30 1343 C 132.015 -1.46409 -0.852102 0
M  V30 1344 O 133.221 -1.62849 -0.766821 0
M  V30 1345 H 129.596 -0.749993 -0.0549072 0
M  V30 1346 H 131.567 -2.91407 0.642225 0
M  V30 1347 C 130.316 -3.3015 -1.09071 0
M  V30 1348 H 129.639 -3.96265 -0.530485 0
M  V30 1349 H 131.079 -3.93898 -1.56908 0
M  V30 1350 C 129.538 -2.57875 -2.168 0
M  V30 1351 O 130.068 -2.36567 -3.24652 0
M  V30 1352 N 128.274 -2.17884 -1.92289 0
M  V30 1353 H 127.821 -2.35413 -1.04587 0
M  V30 1354 H 127.779 -1.6985 -2.64572 0
M  V30 1355 N 131.551 -0.354651 -1.53558 0
M  V30 1356 C 132.967 -0.00315426 -1.596 0
M  V30 1357 C 133.167 1.47741 -1.37021 0
M  V30 1358 O 132.223 2.23759 -1.16996 0
M  V30 1359 C 133.536 -0.44929 -2.97325 0
M  V30 1360 C 135.084 -0.402578 -3.104 0
M  V30 1361 C 135.559 -0.824355 -4.5052 0
M  V30 1362 N 137.05 -0.778979 -4.56603 0
M  V30 1363 C 137.785 -1.07715 -5.63192 0
M  V30 1364 N 137.281 -1.44405 -6.77583 0
M  V30 1365 N 139.074 -1.00066 -5.53121 0
M  V30 1366 H 131.225 -1.31893 -1.66487 0
M  V30 1367 H 133.488 -0.538388 -0.780284 0
M  V30 1368 H 133.194 -1.48202 -3.1895 0
M  V30 1369 H 133.068 0.169772 -3.76818 0
M  V30 1370 H 135.455 0.621004 -2.88492 0
M  V30 1371 H 135.536 -1.05699 -2.32941 0
M  V30 1372 H 135.18 -1.846 -4.73165 0
M  V30 1373 H 135.11 -0.147304 -5.26394 0
M  V30 1374 H 137.601 -0.508528 -3.74463 0
M  V30 1375 H 137.914 -1.65612 -7.54846 0
M  V30 1376 H 136.259 -1.4826 -6.79002 0
M  V30 1377 H 139.45 -0.713293 -4.62633 0
M  V30 1378 H 139.623 -1.23638 -6.36096 0
M  V30 1379 N 133.029 1.57378 -0.0835403 0
M  V30 1380 C 134.44 1.81261 0.447358 0
M  V30 1381 C 134.791 0.998331 1.68902 0
M  V30 1382 O 133.916 0.224282 2.15235 0
M  V30 1383 C 134.511 3.28767 0.818386 0
M  V30 1384 C 133.07 3.53455 1.29409 0
M  V30 1385 C 132.217 2.75831 0.285024 0
M  V30 1386 H 135.168 1.5566 -0.309115 0
M  V30 1387 H 135.189 3.41459 1.67887 0
M  V30 1388 H 134.701 3.88006 -0.0855019 0
M  V30 1389 H 132.802 2.99534 2.21608 0
M  V30 1390 H 132.915 4.62128 1.2639 0
M  V30 1391 H 131.279 2.42947 0.764767 0
M  V30 1392 H 132.062 3.37813 -0.611341 0
M  V30 1393 N 134.507 -0.190092 1.56449 0
M  V30 1394 C 135.732 -0.929864 1.85387 0
M  V30 1395 C 136.157 -1.7585 0.667704 0
M  V30 1396 O 135.515 -1.77198 -0.383459 0
M  V30 1397 C 135.563 -1.79773 3.12593 0
M  V30 1398 O 134.667 -2.89713 2.93496 0
M  V30 1399 H 134.008 -0.261574 0.610307 0
M  V30 1400 H 136.538 -0.193896 2.03679 0
M  V30 1401 H 136.548 -2.20139 3.43515 0
M  V30 1402 H 135.223 -1.18892 3.98544 0
M  V30 1403 H 133.8 -2.53065 2.73884 0
M  V30 1404 N 135.985 -1.50799 -0.457987 0
M  V30 1405 C 137.232 -1.62442 -1.20908 0
M  V30 1406 C 137.56 -0.330865 -1.91665 0
M  V30 1407 O 136.815 0.68401 -1.83357 0
M  V30 1408 C 137.114 -2.76358 -2.2663 0
M  V30 1409 C 136.78 -4.16378 -1.73033 0
M  V30 1410 C 135.442 -4.54473 -1.58138 0
M  V30 1411 C 137.794 -5.03836 -1.33413 0
M  V30 1412 C 135.122 -5.77754 -1.02065 0
M  V30 1413 C 137.474 -6.27676 -0.78778 0
M  V30 1414 C 136.138 -6.64562 -0.625561 0
M  V30 1415 H 135.408 -0.594417 -0.442435 0
M  V30 1416 H 138.055 -1.84772 -0.503136 0
M  V30 1417 H 136.36 -2.48167 -3.03184 0
M  V30 1418 H 138.057 -2.82568 -2.84528 0
M  V30 1419 H 134.647 -3.86331 -1.85598 0
M  V30 1420 H 138.831 -4.75026 -1.4375 0
M  V30 1421 H 134.087 -6.04997 -0.882547 0
M  V30 1422 H 138.261 -6.94797 -0.472177 0
M  V30 1423 H 135.888 -7.59965 -0.188926 0
M  V30 1424 N 137.463 0.71206 -1.40597 0
M  V30 1425 C 138.74 1.46536 -1.29563 0
M  V30 1426 C 139.12 2.10931 0.0844217 0
M  V30 1427 O 138.468 2.00418 1.0975 0
M  V30 1428 C 138.678 2.49821 -2.43701 0
M  V30 1429 C 140.026 3.15551 -2.841 0
M  V30 1430 O 141.05 2.60142 -2.4332 0
M  V30 1431 O 139.909 4.15867 -3.54566 0
M  V30 1432 H 137.003 0.651801 -0.509004 0
M  V30 1433 H 139.549 0.743935 -1.52524 0
M  V30 1434 H 138.321 2.00778 -3.35863 0
M  V30 1435 H 137.944 3.29495 -2.22528 0
M  V30 1436 N 138.941 1.26152 0.944643 0
M  V30 1437 C 139.904 1.07474 2.0244 0
M  V30 1438 C 140.904 0.0242064 1.60782 0
M  V30 1439 O 142.094 0.267302 1.72137 0
M  V30 1440 C 139.226 0.633956 3.34953 0
M  V30 1441 H 140.419 2.03336 2.20442 0
M  V30 1442 H 137.972 1.087 1.12312 0
M  V30 1443 H 138.707 -0.326811 3.22649 0
M  V30 1444 H 138.492 1.39247 3.66542 0
M  V30 1445 H 139.982 0.52501 4.14287 0
M  V30 1446 N 140.419 -1.14872 1.07899 0
M  V30 1447 C 141.668 -1.85135 0.800499 0
M  V30 1448 C 141.981 -1.83547 -0.676014 0
M  V30 1449 O 143.187 -2.49548 -1.06948 0
M  V30 1450 C 141.643 -3.3231 1.38197 0
M  V30 1451 C 141.251 -3.42329 2.8899 0
M  V30 1452 C 142.995 -4.0772 1.18174 0
M  V30 1453 C 140.902 -4.83684 3.403 0
M  V30 1454 H 139.832 -0.693563 0.29578 0
M  V30 1455 H 142.483 -1.29532 1.29976 0
M  V30 1456 H 140.865 -3.87618 0.810431 0
M  V30 1457 H 142.039 -2.97097 3.52236 0
M  V30 1458 H 140.354 -2.80369 3.07867 0
M  V30 1459 H 142.951 -5.12049 1.5398 0
M  V30 1460 H 143.294 -4.16124 0.12117 0
M  V30 1461 H 143.827 -3.58696 1.71994 0
M  V30 1462 H 140.566 -4.80465 4.45907 0
M  V30 1463 H 140.086 -5.29474 2.81811 0
M  V30 1464 H 141.765 -5.52558 3.36584 0
M  V30 1465 N 141.898 -0.863906 -1.31812 0
M  V30 1466 C 142.828 -0.330843 -2.31144 0
M  V30 1467 C 143.809 0.575005 -1.60087 0
M  V30 1468 O 144.994 0.493304 -1.8783 0
M  V30 1469 C 142.124 0.47374 -3.44054 0
M  V30 1470 C 141.078 -0.338481 -4.26659 0
M  V30 1471 C 140.404 0.591412 -5.31419 0
M  V30 1472 C 141.704 -1.56926 -4.98168 0
M  V30 1473 H 143.398 -1.16086 -2.75979 0
M  V30 1474 H 140.944 -0.559657 -1.32679 0
M  V30 1475 H 142.897 0.857143 -4.12591 0
M  V30 1476 H 141.621 1.33721 -2.9797 0
M  V30 1477 H 140.28 -0.703754 -3.59782 0
M  V30 1478 H 139.928 1.45199 -4.81587 0
M  V30 1479 H 139.628 0.0519022 -5.87577 0
M  V30 1480 H 141.152 0.97179 -6.02817 0
M  V30 1481 H 142.566 -1.25764 -5.59336 0
M  V30 1482 H 140.963 -2.04739 -5.64094 0
M  V30 1483 H 142.033 -2.32544 -4.25501 0
M  V30 1484 N 143.376 1.44774 -0.622745 0
M  V30 1485 C 144.606 2.06187 -0.130532 0
M  V30 1486 C 145.014 1.46547 1.19669 0
M  V30 1487 O 144.357 0.579636 1.74316 0
M  V30 1488 C 144.419 3.59437 0.0674983 0
M  V30 1489 C 144.083 4.41496 -1.18026 0
M  V30 1490 C 145.08 4.75512 -2.102 0
M  V30 1491 C 142.765 4.82007 -1.41333 0
M  V30 1492 C 144.759 5.48912 -3.23998 0
M  V30 1493 C 142.446 5.55157 -2.55429 0
M  V30 1494 C 143.444 5.88528 -3.46589 0
M  V30 1495 O 143.132 6.60191 -4.58697 0
M  V30 1496 H 142.864 0.672045 -0.0730162 0
M  V30 1497 H 145.418 1.86768 -0.854802 0
M  V30 1498 H 143.648 3.77314 0.846825 0
M  V30 1499 H 145.337 4.02642 0.513209 0
M  V30 1500 H 146.103 4.4476 -1.93425 0
M  V30 1501 H 141.982 4.55457 -0.712709 0
M  V30 1502 H 145.526 5.74877 -3.95174 0
M  V30 1503 H 141.423 5.85324 -2.72151 0
M  V30 1504 H 142.191 6.78654 -4.57571 0
M  V30 1505 N 144.854 0.36279 1.53368 0
M  V30 1506 C 146.084 -0.228281 2.05335 0
M  V30 1507 C 146.492 -1.43226 1.23625 0
M  V30 1508 O 145.835 -1.81717 0.269206 0
M  V30 1509 C 145.897 -0.688549 3.52845 0
M  V30 1510 C 145.561 0.398362 4.5526 0
M  V30 1511 C 146.558 1.24732 5.04716 0
M  V30 1512 C 144.243 0.557805 4.99193 0
M  V30 1513 C 146.237 2.2411 5.96702 0
M  V30 1514 C 143.924 1.55495 5.90986 0
M  V30 1515 C 144.922 2.39503 6.39631 0
M  V30 1516 O 144.61 3.37517 7.29615 0
M  V30 1517 H 144.342 -0.044395 0.674541 0
M  V30 1518 H 146.896 0.518668 1.98744 0
M  V30 1519 H 145.126 -1.48706 3.56964 0
M  V30 1520 H 146.815 -1.20231 3.87685 0
M  V30 1521 H 147.581 1.13532 4.71525 0
M  V30 1522 H 143.46 -0.0862959 4.60919 0
M  V30 1523 H 147.004 2.89718 6.34594 0
M  V30 1524 H 142.901 1.66744 6.23592 0
M  V30 1525 H 143.669 3.33213 7.47604 0
M  V30 1526 N 146.332 -1.57332 0.0918853 0
M  V30 1527 C 147.562 -1.98286 -0.580205 0
M  V30 1528 C 147.97 -0.969713 -1.6246 0
M  V30 1529 O 147.313 0.0493501 -1.83634 0
M  V30 1530 C 147.375 -3.35603 -1.28882 0
M  V30 1531 C 147.039 -4.55285 -0.395559 0
M  V30 1532 C 148.036 -5.18687 0.355002 0
M  V30 1533 C 145.721 -5.01314 -0.314556 0
M  V30 1534 C 147.715 -6.26484 1.17458 0
M  V30 1535 C 145.402 -6.08979 0.508677 0
M  V30 1536 C 146.4 -6.71429 1.2519 0
M  V30 1537 O 146.088 -7.77018 2.06151 0
M  V30 1538 H 145.82 -0.656678 -0.160466 0
M  V30 1539 H 148.374 -2.04721 0.16688 0
M  V30 1540 H 146.604 -3.25842 -2.08241 0
M  V30 1541 H 148.293 -3.61026 -1.85512 0
M  V30 1542 H 149.059 -4.84058 0.302134 0
M  V30 1543 H 144.938 -4.5247 -0.882697 0
M  V30 1544 H 148.482 -6.75159 1.75518 0
M  V30 1545 H 144.379 -6.4304 0.563037 0
M  V30 1546 H 145.147 -7.93991 1.98799 0
M  V30 1547 N 147.81 0.181792 -1.56548 0
M  V30 1548 C 148.742 1.24956 -1.92142 0
M  V30 1549 C 149.755 1.41022 -0.813422 0
M  V30 1550 O 150.944 1.41212 -1.09186 0
M  V30 1551 C 148.044 2.61981 -2.14987 0
M  V30 1552 C 147.217 2.6735 -3.46183 0
M  V30 1553 C 146.276 3.85664 -3.5798 0
M  V30 1554 O 145.302 3.72148 -4.30691 0
M  V30 1555 N 146.504 5.01683 -2.92053 0
M  V30 1556 H 149.269 0.947329 -2.84334 0
M  V30 1557 H 146.83 0.371629 -1.57577 0
M  V30 1558 H 148.822 3.3958 -2.20154 0
M  V30 1559 H 147.392 2.84637 -1.2923 0
M  V30 1560 H 146.612 1.75925 -3.52766 0
M  V30 1561 H 147.9 2.67939 -4.32534 0
M  V30 1562 H 147.298 5.15564 -2.32832 0
M  V30 1563 H 145.855 5.77181 -3.0283 0
M  V30 1564 N 149.288 1.51039 0.449983 0
M  V30 1565 C 150.513 1.6715 1.22783 0
M  V30 1566 C 150.938 0.363081 1.84563 0
M  V30 1567 O 150.296 -0.675433 1.68249 0
M  V30 1568 C 150.344 2.77985 2.29689 0
M  V30 1569 O 149.448 2.40707 3.34864 0
M  V30 1570 H 148.789 0.557746 0.360299 0
M  V30 1571 H 151.319 1.97535 0.533005 0
M  V30 1572 H 151.329 3.01693 2.74673 0
M  V30 1573 H 150.004 3.72935 1.84098 0
M  V30 1574 H 148.581 2.27523 2.95445 0
M  V30 1575 N 150.766 -0.704594 1.40972 0
M  V30 1576 C 152.014 -1.46169 1.39568 0
M  V30 1577 C 152.335 -1.95 0.00253745 0
M  V30 1578 O 151.605 -1.71095 -0.954114 0
M  V30 1579 H 150.185 -0.542326 0.513704 0
M  V30 1580 H 152.847 -0.834553 1.76128 0
M  V30 1581 H 151.943 -2.32922 2.07735 0
M  V30 1582 N 152.244 -1.26651 -0.937939 0
M  V30 1583 C 153.492 -1.12165 -1.68118 0
M  V30 1584 C 153.813 0.334983 -1.92101 0
M  V30 1585 O 153.083 1.23583 -1.52 0
M  V30 1586 H 151.663 -0.412093 -0.623048 0
M  V30 1587 H 154.325 -1.59027 -1.12678 0
M  V30 1588 H 153.421 -1.64289 -2.6536 0
M  V30 1589 N 153.722 1.14298 -1.08507 0
M  V30 1590 C 155.138 1.37347 -0.812901 0
M  V30 1591 C 155.338 1.93052 0.577325 0
M  V30 1592 O 154.394 2.14389 1.33393 0
M  V30 1593 C 155.707 2.33359 -1.89642 0
M  V30 1594 C 157.255 2.46996 -1.92255 0
M  V30 1595 C 157.73 3.46309 -2.99724 0
M  V30 1596 N 159.221 3.53853 -2.98902 0
M  V30 1597 C 159.956 4.3055 -3.787 0
M  V30 1598 N 159.452 5.10482 -4.6838 0
M  V30 1599 N 161.245 4.25757 -3.66998 0
M  V30 1600 H 153.396 0.764867 -1.9815 0
M  V30 1601 H 155.659 0.398966 -0.859959 0
M  V30 1602 H 155.365 1.99565 -2.89597 0
M  V30 1603 H 155.239 3.33274 -1.76659 0
M  V30 1604 H 157.626 2.80081 -0.929445 0
M  V30 1605 H 157.707 1.47039 -2.09316 0
M  V30 1606 H 157.351 3.13957 -3.99241 0
M  V30 1607 H 157.281 4.46049 -2.79907 0
M  V30 1608 H 159.772 2.96812 -2.33904 0
M  V30 1609 H 160.085 5.66284 -5.25873 0
M  V30 1610 H 158.43 5.09747 -4.72422 0
M  V30 1611 H 161.621 3.62383 -2.96304 0
M  V30 1612 H 161.794 4.85279 -4.29427 0
M  V30 1613 N 155.201 0.870884 1.31352 0
M  V30 1614 C 156.131 0.343096 2.30966 0
M  V30 1615 C 157.112 -0.566507 1.60389 0
M  V30 1616 O 158.297 -0.483336 1.88089 0
M  V30 1617 C 155.427 -0.455487 3.443 0
M  V30 1618 C 154.381 0.361103 4.26474 0
M  V30 1619 C 153.707 -0.563221 5.31725 0
M  V30 1620 C 155.007 1.59566 4.97329 0
M  V30 1621 H 156.701 1.17548 2.75359 0
M  V30 1622 H 154.247 0.566686 1.32381 0
M  V30 1623 H 156.2 -0.83525 4.13039 0
M  V30 1624 H 154.924 -1.32139 2.98675 0
M  V30 1625 H 153.583 0.722825 3.59403 0
M  V30 1626 H 153.231 -1.42643 4.82351 0
M  V30 1627 H 152.931 -0.0207409 5.87596 0
M  V30 1628 H 154.455 -0.939808 6.03324 0
M  V30 1629 H 155.869 1.28728 5.58661 0
M  V30 1630 H 154.266 2.07728 5.63 0
M  V30 1631 H 155.336 2.34798 4.24262 0
M  V30 1632 N 156.679 -1.44442 0.630414 0
M  V30 1633 C 158.095 -1.56832 0.295973 0
M  V30 1634 C 158.295 -1.61806 -1.20088 0
M  V30 1635 O 157.351 -1.5607 -1.9849 0
M  V30 1636 C 158.664 -2.84031 0.987264 0
M  V30 1637 C 160.212 -2.97742 0.96534 0
M  V30 1638 C 160.687 -4.27743 1.63708 0
M  V30 1639 N 162.178 -4.34555 1.60364 0
M  V30 1640 C 162.913 -5.33862 2.09234 0
M  V30 1641 N 162.409 -6.39578 2.66292 0
M  V30 1642 N 164.202 -5.25366 1.99867 0
M  V30 1643 H 156.353 -1.39457 1.60205 0
M  V30 1644 H 158.616 -0.668237 0.672431 0
M  V30 1645 H 158.322 -2.86338 2.04215 0
M  V30 1646 H 158.196 -3.73534 0.524588 0
M  V30 1647 H 160.583 -2.94989 -0.0810639 0
M  V30 1648 H 160.664 -2.09589 1.4665 0
M  V30 1649 H 160.308 -4.31255 2.68293 0
M  V30 1650 H 160.238 -5.14752 1.11076 0
M  V30 1651 H 162.729 -3.58772 1.18705 0
M  V30 1652 H 163.042 -7.11637 3.01317 0
M  V30 1653 H 161.387 -6.40265 2.70343 0
M  V30 1654 H 164.578 -4.41688 1.55013 0
M  V30 1655 H 164.751 -6.02606 2.38265 0
M  V30 1656 N 158.157 -0.370918 -1.53173 0
M  V30 1657 C 159.573 -0.0200818 -1.59587 0
M  V30 1658 C 159.773 1.46279 -1.38581 0
M  V30 1659 O 158.829 2.22506 -1.19363 0
M  V30 1660 C 160.142 -0.4808 -2.96831 0
M  V30 1661 C 161.69 -0.435477 -3.09956 0
M  V30 1662 C 162.165 -0.872092 -4.4962 0
M  V30 1663 N 163.656 -0.827364 -4.55751 0
M  V30 1664 C 164.391 -1.13683 -5.62018 0
M  V30 1665 N 163.887 -1.51584 -6.76014 0
M  V30 1666 N 165.68 -1.05927 -5.52029 0
M  V30 1667 H 157.831 -1.33652 -1.65079 0
M  V30 1668 H 160.094 -0.546634 -0.774529 0
M  V30 1669 H 159.8 -1.51577 -3.1736 0
M  V30 1670 H 159.674 0.129796 -3.76977 0
M  V30 1671 H 162.061 0.590371 -2.89134 0
M  V30 1672 H 162.142 -1.08164 -2.31806 0
M  V30 1673 H 161.786 -1.89608 -4.71181 0
M  V30 1674 H 161.716 -0.203127 -5.26208 0
M  V30 1675 H 164.207 -0.548216 -3.73902 0
M  V30 1676 H 164.52 -1.73609 -7.53047 0
M  V30 1677 H 162.865 -1.55454 -6.77391 0
M  V30 1678 H 166.056 -0.762321 -4.61851 0
M  V30 1679 H 166.229 -1.30378 -6.34749 0
M  V30 1680 N 159.635 1.57281 -0.100228 0
M  V30 1681 C 161.046 1.81725 0.428107 0
M  V30 1682 C 161.397 1.01619 1.67833 0
M  V30 1683 O 160.522 0.247098 2.14985 0
M  V30 1684 C 161.117 3.29617 0.78347 0
M  V30 1685 C 159.676 3.54808 1.25653 0
M  V30 1686 C 158.823 2.76118 0.255752 0
M  V30 1687 H 161.774 1.55324 -0.325608 0
M  V30 1688 H 161.795 3.4322 1.64256 0
M  V30 1689 H 161.307 3.87893 -0.12665 0
M  V30 1690 H 159.408 3.01868 2.18418 0
M  V30 1691 H 159.521 4.63443 1.21482 0
M  V30 1692 H 157.885 2.43745 0.738956 0
M  V30 1693 H 158.668 3.37145 -0.647136 0
M  V30 1694 N 161.113 -0.173488 1.56642 0
M  V30 1695 C 162.359 -0.891784 1.8214 0
M  V30 1696 C 162.692 -1.8199 0.677736 0
M  V30 1697 O 161.967 -1.91842 -0.320446 0
M  V30 1698 C 162.25 -1.68933 3.18015 0
M  V30 1699 C 162.103 -0.784487 4.42906 0
M  V30 1700 C 163.422 -2.65748 3.50808 0
M  V30 1701 H 160.541 -0.322761 0.662567 0
M  V30 1702 H 163.183 -0.158095 1.89341 0
M  V30 1703 H 161.333 -2.31482 3.12007 0
M  V30 1704 H 163.005 -0.172046 4.60979 0
M  V30 1705 H 161.248 -0.0924117 4.33702 0
M  V30 1706 H 161.919 -1.37799 5.34524 0
M  V30 1707 H 164.395 -2.13327 3.57255 0
M  V30 1708 H 163.271 -3.18619 4.4696 0
M  V30 1709 H 163.532 -3.45842 2.75401 0
M  V30 1710 N 162.591 -1.51276 -0.441967 0
M  V30 1711 C 163.539 -1.72823 -1.55676 0
M  V30 1712 C 164.533 -0.59445 -1.58627 0
M  V30 1713 O 165.739 -0.775715 -1.62427 0
M  V30 1714 H 162.114 -0.545983 -0.517113 0
M  V30 1715 H 164.085 -2.6628 -1.34675 0
M  V30 1716 C 162.834 -1.86619 -2.93375 0
M  V30 1717 H 162.157 -2.73264 -2.91834 0
M  V30 1718 H 163.597 -2.05709 -3.70756 0
M  V30 1719 C 162.056 -0.624842 -3.31055 0
M  V30 1720 O 162.586 0.222636 -4.01083 0
M  V30 1721 N 160.792 -0.470288 -2.86769 0
M  V30 1722 H 160.339 -1.161 -2.29953 0
M  V30 1723 H 160.297 0.359051 -3.12343 0
M  V30 1724 N 164.069 0.697108 -1.41344 0
M  V30 1725 C 165.315 1.4593 -1.40827 0
M  V30 1726 C 165.648 1.94193 -0.0167098 0
M  V30 1727 O 164.923 1.69425 0.955263 0
M  V30 1728 C 165.206 2.67229 -2.41373 0
M  V30 1729 C 165.059 2.24741 -3.8963 0
M  V30 1730 C 166.378 3.69423 -2.39196 0
M  V30 1731 H 163.497 0.529303 -0.512842 0
M  V30 1732 H 166.139 0.794112 -1.72609 0
M  V30 1733 H 164.289 3.23982 -2.14401 0
M  V30 1734 H 165.961 1.73327 -4.27499 0
M  V30 1735 H 164.204 1.56542 -4.0457 0
M  V30 1736 H 164.875 3.1177 -4.55525 0
M  V30 1737 H 167.351 3.2234 -2.63128 0
M  V30 1738 H 166.227 4.51907 -3.11563 0
M  V30 1739 H 166.488 4.19012 -1.41001 0
M  V30 1740 N 165.547 1.27147 0.931209 0
M  V30 1741 C 166.958 1.12044 1.49342 0
M  V30 1742 C 167.309 -0.295795 1.93957 0
M  V30 1743 O 166.434 -1.18835 1.80852 0
M  V30 1744 C 167.029 2.02781 2.71414 0
M  V30 1745 C 165.588 1.91794 3.2387 0
M  V30 1746 C 164.735 1.95543 1.96617 0
M  V30 1747 H 167.686 1.40091 0.745672 0
M  V30 1748 H 167.707 1.58156 3.46074 0
M  V30 1749 H 167.219 3.05848 2.38911 0
M  V30 1750 H 165.32 0.916992 3.6114 0
M  V30 1751 H 165.433 2.77852 3.90302 0
M  V30 1752 H 163.797 1.39722 2.12955 0
M  V30 1753 H 164.58 3.00259 1.66432 0
M  V30 1754 N 167.025 -1.13721 1.09112 0
M  V30 1755 C 167.955 -2.21148 0.749385 0
M  V30 1756 C 168.936 -1.6792 -0.271475 0
M  V30 1757 O 170.121 -1.93693 -0.140251 0
M  V30 1758 C 167.251 -3.46905 0.165659 0
M  V30 1759 C 166.205 -4.13203 1.11567 0
M  V30 1760 C 165.531 -5.33248 0.393809 0
M  V30 1761 C 166.831 -4.60912 2.45678 0
M  V30 1762 H 168.525 -2.4999 1.64758 0
M  V30 1763 H 166.071 -1.20156 0.793626 0
M  V30 1764 H 168.024 -4.21313 -0.085466 0
M  V30 1765 H 166.748 -3.17449 -0.767714 0
M  V30 1766 H 165.407 -3.40758 1.35202 0
M  V30 1767 H 165.055 -5.00054 -0.543599 0
M  V30 1768 H 164.755 -5.78552 1.02721 0
M  V30 1769 H 166.279 -6.10413 0.150908 0
M  V30 1770 H 167.693 -5.26759 2.26269 0
M  V30 1771 H 166.09 -5.16944 3.04776 0
M  V30 1772 H 167.16 -3.75603 3.06677 0
M  V30 1773 N 168.503 -0.877838 -1.30888 0
M  V30 1774 C 169.78 -0.413052 -1.91189 0
M  V30 1775 C 170.16 1.1056 -1.79832 0
M  V30 1776 O 169.508 1.93771 -1.21099 0
M  V30 1777 C 169.718 -0.903191 -3.3711 0
M  V30 1778 C 171.066 -0.93395 -4.14201 0
M  V30 1779 O 172.09 -0.849373 -3.45925 0
M  V30 1780 O 170.949 -1.05772 -5.36167 0
M  V30 1781 H 168.043 -0.125035 -0.817493 0
M  V30 1782 H 170.589 -0.966269 -1.39504 0
M  V30 1783 H 169.361 -1.94692 -3.39427 0
M  V30 1784 H 168.984 -0.328732 -3.96239 0
M  V30 1785 N 169.982 1.44106 -0.638065 0
M  V30 1786 C 171.231 2.01194 -0.142744 0
M  V30 1787 C 171.544 1.50835 1.24532 0
M  V30 1788 O 172.75 2.00096 1.83504 0
M  V30 1789 C 171.206 3.59319 -0.20442 0
M  V30 1790 C 170.814 4.18674 -1.59423 0
M  V30 1791 C 172.558 4.23854 0.234079 0
M  V30 1792 C 170.465 5.69045 -1.61065 0
M  V30 1793 H 169.395 0.752367 -0.0495998 0
M  V30 1794 H 172.046 1.65246 -0.797881 0
M  V30 1795 H 170.428 3.92598 0.517946 0
M  V30 1796 H 171.602 3.96921 -2.34074 0
M  V30 1797 H 169.917 3.66453 -1.97741 0
M  V30 1798 H 172.514 5.34155 0.241443 0
M  V30 1799 H 172.857 3.96688 1.2627 0
M  V30 1800 H 173.39 3.95403 -0.436025 0
M  V30 1801 H 170.129 6.00956 -2.61787 0
M  V30 1802 H 169.649 5.929 -0.90718 0
M  V30 1803 H 171.328 6.32809 -1.34766 0
M  V30 1804 N 171.46 0.379036 1.52974 0
M  V30 1805 C 172.707 -0.206421 2.01445 0
M  V30 1806 C 173.035 -1.47668 1.26587 0
M  V30 1807 O 172.29 -1.92514 0.351675 0
M  V30 1808 C 172.589 -0.53096 3.53434 0
M  V30 1809 C 172.255 0.646546 4.46241 0
M  V30 1810 C 170.917 0.969604 4.7133 0
M  V30 1811 C 173.269 1.43479 5.01062 0
M  V30 1812 C 170.597 2.08263 5.48492 0
M  V30 1813 C 172.949 2.53834 5.7944 0
M  V30 1814 C 171.613 2.86659 6.02812 0
M  V30 1815 H 170.883 -0.0755349 0.73714 0
M  V30 1816 H 173.53 0.514271 1.84465 0
M  V30 1817 H 171.835 -1.33285 3.68432 0
M  V30 1818 H 173.532 -0.996417 3.88423 0
M  V30 1819 H 170.122 0.384734 4.2687 0
M  V30 1820 H 174.306 1.19844 4.81613 0
M  V30 1821 H 169.562 2.34078 5.64816 0
M  V30 1822 H 173.736 3.15319 6.20924 0
M  V30 1823 H 171.363 3.73026 6.62387 0
M  V30 1824 N 172.938 -1.57226 0.108567 0
M  V30 1825 C 173.868 -2.17778 -0.84232 0
M  V30 1826 C 174.849 -1.11487 -1.2847 0
M  V30 1827 O 176.034 -1.39681 -1.34918 0
M  V30 1828 C 173.164 -2.76888 -2.09644 0
M  V30 1829 C 172.118 -3.88669 -1.79221 0
M  V30 1830 C 171.444 -4.34541 -3.11574 0
M  V30 1831 C 172.744 -5.11251 -1.06864 0
M  V30 1832 H 174.438 -2.97489 -0.337774 0
M  V30 1833 H 171.984 -1.43097 -0.161025 0
M  V30 1834 H 173.937 -3.17904 -2.76614 0
M  V30 1835 H 172.661 -1.94451 -2.62405 0
M  V30 1836 H 171.32 -3.48213 -1.14644 0
M  V30 1837 H 170.968 -3.48977 -3.62249 0
M  V30 1838 H 170.668 -5.09914 -2.91996 0
M  V30 1839 H 172.192 -4.782 -3.7968 0
M  V30 1840 H 173.606 -5.49352 -1.63968 0
M  V30 1841 H 172.003 -5.9214 -0.974178 0
M  V30 1842 H 173.073 -4.8487 -0.0536168 0
M  V30 1843 N 174.416 0.165178 -1.56732 0
M  V30 1844 C 175.326 1.22423 -2.00125 0
M  V30 1845 C 176.342 1.48084 -0.913619 0
M  V30 1846 O 177.518 1.60112 -1.22172 0
M  V30 1847 C 174.583 2.54197 -2.35764 0
M  V30 1848 C 173.644 2.36343 -3.58386 0
M  V30 1849 C 172.877 3.61834 -3.92316 0
M  V30 1850 O 173.1 4.67267 -3.27135 0
M  V30 1851 O 172.034 3.55579 -4.85641 0
M  V30 1852 H 175.86 0.885886 -2.90492 0
M  V30 1853 H 173.445 0.372518 -1.44681 0
M  V30 1854 H 175.327 3.3192 -2.59629 0
M  V30 1855 H 174.002 2.87598 -1.48557 0
M  V30 1856 H 172.909 1.56632 -3.39731 0
M  V30 1857 H 174.242 2.07865 -4.46154 0
M  V30 1858 N 175.894 1.51508 0.433938 0
M  V30 1859 C 176.804 1.75917 1.5521 0
M  V30 1860 C 177.82 0.643545 1.61662 0
M  V30 1861 O 178.996 0.926183 1.7884 0
M  V30 1862 C 176.061 1.88213 2.91164 0
M  V30 1863 C 175.122 3.12074 2.94802 0
M  V30 1864 C 174.355 3.23774 4.24271 0
M  V30 1865 O 174.578 2.4133 5.16833 0
M  V30 1866 O 173.512 4.16774 4.34262 0
M  V30 1867 H 177.338 2.70777 1.37527 0
M  V30 1868 H 174.923 1.36051 0.617293 0
M  V30 1869 H 176.805 1.98267 3.71845 0
M  V30 1870 H 175.48 0.965413 3.08968 0
M  V30 1871 H 174.387 3.07497 2.13065 0
M  V30 1872 H 175.72 4.03446 2.81943 0
M  V30 1873 N 177.372 -0.689602 1.41712 0
M  V30 1874 C 178.621 -1.44534 1.40686 0
M  V30 1875 C 178.934 -1.95588 0.0213352 0
M  V30 1876 O 180.14 -2.71271 -0.111534 0
M  V30 1877 C 178.596 -2.61387 2.47396 0
M  V30 1878 C 178.204 -2.17094 3.91885 0
M  V30 1879 C 179.948 -3.38986 2.55517 0
M  V30 1880 C 177.855 -3.3094 4.90135 0
M  V30 1881 H 176.785 -0.542925 0.52321 0
M  V30 1882 H 179.436 -0.748054 1.6756 0
M  V30 1883 H 177.818 -3.33412 2.13664 0
M  V30 1884 H 178.992 -1.52318 4.34897 0
M  V30 1885 H 177.307 -1.52473 3.8748 0
M  V30 1886 H 179.904 -4.23747 3.26102 0
M  V30 1887 H 180.247 -3.84578 1.59391 0
M  V30 1888 H 180.78 -2.74021 2.8837 0
M  V30 1889 H 177.519 -2.90355 5.87685 0
M  V30 1890 H 177.039 -3.94546 4.51767 0
M  V30 1891 H 178.718 -3.9663 5.11169 0
M  V30 1892 N 178.85 -1.27639 -0.924453 0
M  V30 1893 C 180.266 -1.05113 -1.20097 0
M  V30 1894 C 180.466 0.213262 -2.00368 0
M  V30 1895 O 179.522 0.91787 -2.35226 0
M  V30 1896 C 180.835 -2.29244 -1.94596 0
M  V30 1897 C 182.383 -2.34315 -2.07522 0
M  V30 1898 C 182.858 -3.58183 -2.85427 0
M  V30 1899 N 184.349 -3.5876 -2.92994 0
M  V30 1900 C 185.084 -4.51277 -3.53746 0
M  V30 1901 N 184.58 -5.54102 -4.15863 0
M  V30 1902 N 186.373 -4.38894 -3.51181 0
M  V30 1903 H 178.524 -2.08821 -0.388264 0
M  V30 1904 H 180.787 -0.918568 -0.234385 0
M  V30 1905 H 180.493 -3.21301 -1.43034 0
M  V30 1906 H 180.367 -2.34816 -2.95197 0
M  V30 1907 H 182.754 -1.42762 -2.58269 0
M  V30 1908 H 182.835 -2.32744 -1.06131 0
M  V30 1909 H 182.479 -4.50074 -2.35363 0
M  V30 1910 H 182.409 -3.57006 -3.8711 0
M  V30 1911 H 184.9 -2.84398 -2.4885 0
M  V30 1912 H 185.213 -6.20859 -4.60168 0
M  V30 1913 H 183.558 -5.57941 -4.144 0
M  V30 1914 H 186.749 -3.57772 -3.01856 0
M  V30 1915 H 186.922 -5.11186 -3.98237 0
M  V30 1916 N 180.328 1.1314 -1.09713 0
M  V30 1917 C 181.575 1.84484 -0.834987 0
M  V30 1918 C 181.903 1.83689 0.639418 0
M  V30 1919 O 181.158 1.2724 1.4869 0
M  V30 1920 C 181.457 3.32167 -1.3191 0
M  V30 1921 C 181.123 3.53139 -2.80363 0
M  V30 1922 C 179.785 3.58571 -3.20905 0
M  V30 1923 C 182.137 3.60866 -3.76065 0
M  V30 1924 C 179.465 3.69267 -4.55916 0
M  V30 1925 C 181.817 3.73089 -5.10869 0
M  V30 1926 C 180.481 3.76775 -5.50996 0
M  V30 1927 H 179.751 0.675073 -0.305544 0
M  V30 1928 H 182.398 1.33554 -1.37243 0
M  V30 1929 H 180.703 3.85469 -0.701517 0
M  V30 1930 H 182.4 3.85821 -1.09284 0
M  V30 1931 H 178.99 3.49569 -2.47991 0
M  V30 1932 H 183.174 3.55946 -3.45855 0
M  V30 1933 H 178.43 3.70388 -4.86438 0
M  V30 1934 H 182.604 3.78011 -5.84877 0
M  V30 1935 H 180.231 3.84815 -6.55608 0
M  V30 1936 N 181.806 0.884767 1.30421 0
M  V30 1937 C 183.036 0.517293 2.00019 0
M  V30 1938 C 183.444 -0.898632 1.66497 0
M  V30 1939 O 182.787 -1.60245 0.898181 0
M  V30 1940 C 182.849 0.612025 3.54252 0
M  V30 1941 C 182.513 1.99222 4.1129 0
M  V30 1942 C 183.51 2.9616 4.273 0
M  V30 1943 C 181.195 2.29755 4.46674 0
M  V30 1944 C 183.189 4.21764 4.77906 0
M  V30 1945 C 180.876 3.55606 4.96979 0
M  V30 1946 C 181.874 4.51425 5.12547 0
M  V30 1947 O 181.562 5.75043 5.61766 0
M  V30 1948 H 181.294 0.198529 0.64619 0
M  V30 1949 H 183.848 1.1919 1.67281 0
M  V30 1950 H 182.078 -0.119561 3.86515 0
M  V30 1951 H 183.767 0.255859 4.05093 0
M  V30 1952 H 184.533 2.73882 4.00267 0
M  V30 1953 H 180.412 1.55942 4.33824 0
M  V30 1954 H 183.956 4.96561 4.89972 0
M  V30 1955 H 179.853 3.7772 5.23448 0
M  V30 1956 H 180.621 5.77422 5.80109 0
M  V30 1957 N 183.284 -1.43765 0.645699 0
M  V30 1958 C 184.216 -2.29027 -0.0890605 0
M  V30 1959 C 185.229 -1.42093 -0.794563 0
M  V30 1960 O 186.418 -1.66104 -0.653575 0
M  V30 1961 C 183.518 -3.18831 -1.14891 0
M  V30 1962 C 182.691 -4.34261 -0.523043 0
M  V30 1963 C 181.75 -5.04994 -1.47878 0
M  V30 1964 O 180.776 -5.6052 -0.990277 0
M  V30 1965 N 181.978 -5.07795 -2.81291 0
M  V30 1966 H 184.743 -2.92727 0.64272 0
M  V30 1967 H 182.304 -1.54373 0.487924 0
M  V30 1968 H 184.296 -3.63015 -1.78892 0
M  V30 1969 H 182.866 -2.56782 -1.78275 0
M  V30 1970 H 182.086 -3.93088 0.295896 0
M  V30 1971 H 183.374 -5.08728 -0.0858147 0
M  V30 1972 H 182.772 -4.64042 -3.23546 0
M  V30 1973 H 181.329 -5.55721 -3.40614 0
M  V30 1974 N 184.763 -0.387143 -1.52771 0
M  V30 1975 C 185.693 0.440551 -2.29306 0
M  V30 1976 C 186.674 1.06535 -1.32606 0
M  V30 1977 O 187.859 1.07853 -1.61497 0
M  V30 1978 C 184.989 1.56919 -3.09829 0
M  V30 1979 C 183.943 1.07054 -4.14395 0
M  V30 1980 C 183.269 2.29109 -4.83129 0
M  V30 1981 C 184.569 0.140015 -5.22112 0
M  V30 1982 H 186.263 -0.198026 -2.98744 0
M  V30 1983 H 183.809 -0.09668 -1.43675 0
M  V30 1984 H 185.762 2.15503 -3.62128 0
M  V30 1985 H 184.486 2.23532 -2.3812 0
M  V30 1986 H 183.145 0.507247 -3.63074 0
M  V30 1987 H 182.793 2.94227 -4.0797 0
M  V30 1988 H 182.493 1.96406 -5.53804 0
M  V30 1989 H 184.017 2.88339 -5.38231 0
M  V30 1990 H 185.431 0.633978 -5.69784 0
M  V30 1991 H 183.828 -0.0971485 -6.00021 0
M  V30 1992 H 184.898 -0.811711 -4.78058 0
M  V30 1993 N 186.241 1.57166 -0.116904 0
M  V30 1994 C 187.489 1.94737 0.540533 0
M  V30 1995 C 187.81 1.00096 1.67349 0
M  V30 1996 O 187.08 0.0568854 1.95817 0
M  V30 1997 H 185.66 0.718981 0.202669 0
M  V30 1998 H 188.322 1.94017 -0.185353 0
M  V30 1999 H 187.418 2.97719 0.936483 0
M  V30 2000 N 187.719 -0.156864 1.56817 0
M  V30 2001 C 188.996 -0.899244 1.73704 0
M  V30 2002 C 189.376 -1.99771 0.682254 0
M  V30 2003 O 188.724 -2.26515 -0.300522 0
M  V30 2004 C 188.934 -1.45075 3.17418 0
M  V30 2005 C 190.282 -1.91802 3.7881 0
M  V30 2006 O 191.306 -1.54838 3.20786 0
M  V30 2007 O 190.165 -2.5994 4.80722 0
M  V30 2008 H 187.259 -0.424267 0.709878 0
M  V30 2009 H 189.805 -0.143561 1.69092 0
M  V30 2010 H 188.577 -0.660846 3.85679 0
M  V30 2011 H 188.2 -2.27021 3.26416 0
M  V30 2012 N 189.197 -1.51736 -0.425897 0
M  V30 2013 C 190.107 -1.76738 -1.54275 0
M  V30 2014 C 191.123 -0.65211 -1.61318 0
M  V30 2015 O 192.299 -0.935654 -1.78346 0
M  V30 2016 C 189.364 -1.89755 -2.90162 0
M  V30 2017 C 188.425 -3.13633 -2.93143 0
M  V30 2018 C 187.658 -3.2602 -4.22548 0
M  V30 2019 O 187.881 -2.44067 -5.15546 0
M  V30 2020 O 186.815 -4.19071 -4.32046 0
M  V30 2021 H 190.641 -2.71502 -1.36089 0
M  V30 2022 H 188.226 -1.36376 -0.610069 0
M  V30 2023 H 190.108 -2.00236 -3.70788 0
M  V30 2024 H 188.783 -0.981785 -3.08452 0
M  V30 2025 H 187.69 -3.08622 -2.11431 0
M  V30 2026 H 189.023 -4.04936 -2.798 0
M  V30 2027 N 190.675 0.682077 -1.42076 0
M  V30 2028 C 191.638 1.77756 -1.44691 0
M  V30 2029 C 192.638 1.5726 -0.335535 0
M  V30 2030 O 193.828 1.63686 -0.596037 0
M  V30 2031 C 190.96 3.16301 -1.27146 0
M  V30 2032 H 192.153 1.76826 -2.42224 0
M  V30 2033 H 189.706 0.891012 -1.28416 0
M  V30 2034 H 190.441 3.22862 -0.305075 0
M  V30 2035 H 190.226 3.32581 -2.07683 0
M  V30 2036 H 191.716 3.96241 -1.31843 0
M  V30 2037 N 192.153 1.28127 0.917671 0
M  V30 2038 C 193.083 1.14248 2.03641 0
M  V30 2039 C 194.064 0.0412748 1.7005 0
M  V30 2040 O 195.249 0.217566 1.92977 0
M  V30 2041 C 192.379 0.799431 3.37974 0
M  V30 2042 C 191.333 1.85497 3.85713 0
M  V30 2043 C 190.659 1.36565 5.16966 0
M  V30 2044 C 191.959 3.26085 4.08002 0
M  V30 2045 H 193.653 2.07835 2.15511 0
M  V30 2046 H 191.199 1.00064 1.03553 0
M  V30 2047 H 193.152 0.689114 4.15727 0
M  V30 2048 H 191.876 -0.172145 3.26146 0
M  V30 2049 H 190.535 1.95437 3.10161 0
M  V30 2050 H 190.183 0.383253 5.01538 0
M  V30 2051 H 189.883 2.07143 5.49878 0
M  V30 2052 H 191.407 1.26848 5.97279 0
M  V30 2053 H 192.821 3.19089 4.76293 0
M  V30 2054 H 191.218 3.94462 4.52238 0
M  V30 2055 H 192.288 3.70394 3.12948 0
M  V30 2056 N 193.631 -1.12557 1.10312 0
M  V30 2057 C 194.594 -2.16434 0.75424 0
M  V30 2058 C 195.594 -1.59278 -0.220685 0
M  V30 2059 O 196.784 -1.742 0.00230591 0
M  V30 2060 C 193.916 -3.40699 0.116987 0
M  V30 2061 H 195.109 -2.48811 1.67431 0
M  V30 2062 H 192.662 -1.27542 0.903475 0
M  V30 2063 H 193.397 -3.13921 -0.813877 0
M  V30 2064 H 193.182 -3.83459 0.818613 0
M  V30 2065 H 194.672 -4.17451 -0.111387 0
M  V30 2066 N 195.109 -0.891671 -1.2995 0
M  V30 2067 C 196.072 -0.36828 -2.26222 0
M  V30 2068 C 197.072 0.493014 -1.53056 0
M  V30 2069 O 198.262 0.299213 -1.71611 0
M  V30 2070 C 195.394 0.47442 -3.37583 0
M  V30 2071 H 196.587 -1.21844 -2.74033 0
M  V30 2072 H 194.14 -0.669107 -1.41254 0
M  V30 2073 H 194.875 1.34489 -2.95099 0
M  V30 2074 H 194.66 -0.142615 -3.91841 0
M  V30 2075 H 196.15 0.83218 -4.09224 0
M  V30 2076 N 196.587 1.43421 -0.653314 0
M  V30 2077 C 197.834 2.01812 -0.166745 0
M  V30 2078 C 198.162 1.51535 1.21931 0
M  V30 2079 O 197.417 0.698975 1.82792 0
M  V30 2080 C 197.716 3.57176 -0.126623 0
M  V30 2081 C 197.382 4.26798 -1.45444 0
M  V30 2082 C 196.044 4.45534 -1.81805 0
M  V30 2083 C 198.396 4.66225 -2.32989 0
M  V30 2084 C 195.724 5.00961 -3.05377 0
M  V30 2085 C 198.076 5.23021 -3.55853 0
M  V30 2086 C 196.74 5.39973 -3.9241 0
M  V30 2087 H 196.01 0.738484 -0.0610162 0
M  V30 2088 H 198.657 1.71896 -0.84404 0
M  V30 2089 H 196.962 3.86634 0.634123 0
M  V30 2090 H 198.659 4.00112 0.266723 0
M  V30 2091 H 195.249 4.12561 -1.16153 0
M  V30 2092 H 199.433 4.51443 -2.06187 0
M  V30 2093 H 194.689 5.12271 -3.3375 0
M  V30 2094 H 198.863 5.52518 -4.23907 0
M  V30 2095 H 196.49 5.82687 -4.88242 0
M  V30 2096 N 198.065 0.39524 1.52563 0
M  V30 2097 C 199.481 0.0454682 1.59535 0
M  V30 2098 C 199.681 -1.44056 1.4089 0
M  V30 2099 O 198.737 -2.20579 1.22888 0
M  V30 2100 C 200.05 0.527963 2.96029 0
M  V30 2101 C 201.598 0.484733 3.09224 0
M  V30 2102 C 202.073 0.943512 4.48176 0
M  V30 2103 N 203.564 0.899765 4.54377 0
M  V30 2104 C 204.299 1.22609 5.60138 0
M  V30 2105 N 203.795 1.62319 6.73516 0
M  V30 2106 N 205.588 1.14696 5.50274 0
M  V30 2107 H 197.739 1.36261 1.62931 0
M  V30 2108 H 200.002 0.558887 0.765735 0
M  V30 2109 H 199.708 1.56607 3.14908 0
M  V30 2110 H 199.582 -0.0698056 3.77135 0
M  V30 2111 H 201.969 -0.544298 2.90037 0
M  V30 2112 H 202.05 1.11838 2.30056 0
M  V30 2113 H 201.694 1.9708 4.68104 0
M  V30 2114 H 201.624 0.286817 5.25818 0
M  V30 2115 H 204.115 0.607632 3.72983 0
M  V30 2116 H 204.428 1.85567 7.5019 0
M  V30 2117 H 202.773 1.66211 6.74833 0
M  V30 2118 H 205.964 0.835701 4.6058 0
M  V30 2119 H 206.137 1.40459 6.32594 0
M  V30 2120 N 199.544 -1.57102 0.125237 0
M  V30 2121 C 200.454 -2.19191 -0.8362 0
M  V30 2122 C 201.47 -1.16985 -1.28805 0
M  V30 2123 O 202.646 -1.49479 -1.34974 0
M  V30 2124 C 199.711 -2.78407 -2.06617 0
M  V30 2125 C 198.772 -3.9567 -1.66565 0
M  V30 2126 C 198.005 -4.52052 -2.83698 0
M  V30 2127 O 198.228 -4.07326 -3.99302 0
M  V30 2128 O 197.162 -5.42645 -2.60423 0
M  V30 2129 H 200.988 -3.01816 -0.337776 0
M  V30 2130 H 198.573 -1.4906 -0.100695 0
M  V30 2131 H 200.455 -3.16129 -2.7864 0
M  V30 2132 H 199.13 -1.9881 -2.55453 0
M  V30 2133 H 198.037 -3.62705 -0.916296 0
M  V30 2134 H 199.37 -4.76722 -1.22464 0
M  V30 2135 N 201.022 0.148545 -1.56898 0
M  V30 2136 C 202.299 0.890019 -1.74178 0
M  V30 2137 C 202.679 1.99407 -0.692839 0
M  V30 2138 O 202.027 2.26671 0.288505 0
M  V30 2139 C 202.237 1.43389 -3.18183 0
M  V30 2140 C 203.585 1.89791 -3.79822 0
M  V30 2141 O 204.609 1.53134 -3.21603 0
M  V30 2142 O 203.468 2.57387 -4.82093 0
M  V30 2143 H 200.562 0.420496 -0.712118 0
M  V30 2144 H 203.108 0.134591 -1.69165 0
M  V30 2145 H 201.88 0.640383 -3.86024 0
M  V30 2146 H 201.503 2.25287 -3.27615 0
M  V30 2147 N 202.5 1.5196 0.417844 0
M  V30 2148 C 203.41 1.77554 1.53336 0
M  V30 2149 C 204.426 0.660655 1.6097 0
M  V30 2150 O 205.602 0.945099 1.77848 0
M  V30 2151 C 202.667 1.91291 2.89152 0
M  V30 2152 C 201.728 3.15183 2.91475 0
M  V30 2153 C 200.961 3.28256 4.20813 0
M  V30 2154 O 201.184 2.46798 5.14244 0
M  V30 2155 O 200.118 4.21356 4.29817 0
M  V30 2156 H 203.944 2.7222 1.34647 0
M  V30 2157 H 201.529 1.36698 0.602828 0
M  V30 2158 H 203.411 2.02199 3.69721 0
M  V30 2159 H 202.086 0.998129 3.07927 0
M  V30 2160 H 200.993 3.09739 2.09791 0
M  V30 2161 H 202.326 4.06414 2.77648 0
M  V30 2162 N 203.978 -0.674533 1.42435 0
M  V30 2163 C 205.226 -1.43175 1.42637 0
M  V30 2164 C 205.547 -1.94951 0.0438992 0
M  V30 2165 O 204.817 -1.7308 -0.917607 0
M  V30 2166 H 203.397 -0.531307 0.525092 0
M  V30 2167 H 206.059 -0.797006 1.77859 0
M  V30 2168 H 205.155 -2.28463 2.12629 0
M  V30 2169 N 205.456 -1.28612 -0.910864 0
M  V30 2170 C 206.696 -1.1719 -1.67469 0
M  V30 2171 C 207.06 0.274441 -1.90028 0
M  V30 2172 O 208.261 0.511425 -2.6389 0
M  V30 2173 C 206.532 -1.95137 -2.99427 0
M  V30 2174 S 208.091 -2.00122 -3.90508 0
M  V30 2175 H 204.909 -0.41806 -0.575106 0
M  V30 2176 H 207.511 -1.6275 -1.08317 0
M  V30 2177 H 206.215 -2.99381 -2.80712 0
M  V30 2178 H 205.746 -1.50137 -3.63624 0
M  V30 2179 H 207.761 -1.10981 -4.8363 0
M  V30 2180 N 206.934 1.1197 -1.10907 0
M  V30 2181 C 207.864 2.19928 -0.784473 0
M  V30 2182 C 208.845 1.6833 0.244726 0
M  V30 2183 O 210.03 1.93892 0.109418 0
M  V30 2184 C 207.16 3.46597 -0.220827 0
M  V30 2185 C 206.114 4.11376 -1.18127 0
M  V30 2186 C 205.44 5.32554 -0.478594 0
M  V30 2187 C 206.74 4.56945 -2.52979 0
M  V30 2188 H 208.434 2.47337 -1.68715 0
M  V30 2189 H 205.98 1.18879 -0.812642 0
M  V30 2190 H 207.933 4.21396 0.0184278 0
M  V30 2191 H 206.657 3.1863 0.717113 0
M  V30 2192 H 205.316 3.38564 -1.40606 0
M  V30 2193 H 204.964 5.00856 0.463976 0
M  V30 2194 H 204.664 5.76844 -1.11912 0
M  V30 2195 H 206.188 6.10096 -0.248 0
M  V30 2196 H 207.602 5.23093 -2.3462 0
M  V30 2197 H 205.999 5.1203 -3.12962 0
M  V30 2198 H 207.069 3.70676 -3.12614 0
M  V30 2199 N 208.412 0.89855 1.29475 0
M  V30 2200 C 209.823 0.572537 1.77705 0
M  V30 2201 C 210.174 -0.911778 1.73727 0
M  V30 2202 O 209.299 -1.71288 1.32247 0
M  V30 2203 C 209.894 1.03252 3.22683 0
M  V30 2204 C 208.453 0.757687 3.68695 0
M  V30 2205 C 207.6 1.20787 2.49612 0
M  V30 2206 H 210.551 1.08139 1.16153 0
M  V30 2207 H 210.572 0.367307 3.78723 0
M  V30 2208 H 210.084 2.11285 3.25546 0
M  V30 2209 H 208.185 -0.310079 3.71308 0
M  V30 2210 H 208.298 1.35476 4.59547 0
M  V30 2211 H 206.662 0.626888 2.46865 0
M  V30 2212 H 207.445 2.29622 2.55203 0
M  V30 2213 N 209.89 -1.43072 0.660911 0
M  V30 2214 C 210.8 -2.34585 -0.0264163 0
M  V30 2215 C 211.816 -1.54316 -0.803898 0
M  V30 2216 O 212.992 -1.86939 -0.749391 0
M  V30 2217 C 210.057 -3.32689 -0.975639 0
M  V30 2218 C 209.118 -4.2886 -0.194236 0
M  V30 2219 C 208.351 -5.22278 -1.09825 0
M  V30 2220 O 208.574 -5.20299 -2.33763 0
M  V30 2221 O 207.508 -5.99228 -0.566513 0
M  V30 2222 H 211.334 -2.94869 0.727034 0
M  V30 2223 H 208.919 -1.43342 0.42111 0
M  V30 2224 H 210.801 -3.92995 -1.52094 0
M  V30 2225 H 209.476 -2.74898 -1.70918 0
M  V30 2226 H 208.383 -3.72011 0.394835 0
M  V30 2227 H 209.716 -4.89655 0.499899 0
M  V30 2228 N 211.368 -0.403325 -1.52352 0
M  V30 2229 C 212.616 0.174003 -2.0135 0
M  V30 2230 C 212.937 1.46139 -1.29106 0
M  V30 2231 O 212.207 1.91448 -0.415253 0
M  V30 2232 H 210.787 0.0672911 -0.743963 0
M  V30 2233 H 213.449 -0.538235 -1.87321 0
M  V30 2234 H 212.545 0.374254 -3.09848 0
M  V30 2235 N 212.846 1.57033 -0.133567 0
M  V30 2236 C 214.094 1.953 0.519848 0
M  V30 2237 C 214.415 1.01866 1.66278 0
M  V30 2238 O 213.685 0.0776513 1.95746 0
M  V30 2239 H 212.265 0.721091 0.195032 0
M  V30 2240 H 214.927 1.93809 -0.205921 0
M  V30 2241 H 214.023 2.98695 0.904854 0
M  V30 2242 N 214.325 -0.140222 1.56975 0
M  V30 2243 C 215.235 -1.19223 2.02047 0
M  V30 2244 C 216.251 -1.46612 0.937062 0
M  V30 2245 O 217.427 -1.58148 1.24704 0
M  V30 2246 C 214.492 -2.50414 2.39778 0
M  V30 2247 C 213.553 -2.30612 3.621 0
M  V30 2248 C 212.786 -3.55547 3.98023 0
M  V30 2249 O 213.009 -4.62004 3.34528 0
M  V30 2250 O 211.943 -3.47808 4.91237 0
M  V30 2251 H 215.769 -0.839559 2.91865 0
M  V30 2252 H 213.354 -0.349453 1.45256 0
M  V30 2253 H 215.236 -3.27747 2.64877 0
M  V30 2254 H 213.911 -2.85198 1.53114 0
M  V30 2255 H 212.818 -1.51207 3.4218 0
M  V30 2256 H 214.151 -2.00741 4.49404 0
M  V30 2257 N 215.803 -1.52179 -0.40978 0
M  V30 2258 C 217.08 -1.56769 -1.16974 0
M  V30 2259 C 217.46 -0.348322 -2.08206 0
M  V30 2260 O 216.808 0.664862 -2.18613 0
M  V30 2261 C 217.018 -2.89603 -1.9476 0
M  V30 2262 C 218.366 -3.42579 -2.50849 0
M  V30 2263 O 219.39 -2.91338 -2.04941 0
M  V30 2264 O 218.249 -4.32054 -3.34652 0
M  V30 2265 H 215.343 -0.631439 -0.534054 0
M  V30 2266 H 217.889 -1.64507 -0.416613 0
M  V30 2267 H 216.661 -3.698 -1.27921 0
M  V30 2268 H 216.284 -2.85155 -2.77079 0
M  V30 2269 N 217.281 0.66697 -1.42791 0
M  V30 2270 C 218.191 1.80962 -1.49299 0
M  V30 2271 C 219.207 1.69775 -0.381108 0
M  V30 2272 O 220.383 1.91188 -0.633188 0
M  V30 2273 C 217.448 3.17156 -1.40045 0
M  V30 2274 C 216.509 3.40242 -2.6179 0
M  V30 2275 C 215.742 4.69939 -2.52969 0
M  V30 2276 O 215.965 5.48372 -1.56985 0
M  V30 2277 O 214.899 4.94441 -3.43237 0
M  V30 2278 H 218.725 1.78427 -2.45759 0
M  V30 2279 H 216.31 0.823713 -1.24641 0
M  V30 2280 H 218.192 3.98413 -1.37276 0
M  V30 2281 H 216.867 3.20312 -0.467138 0
M  V30 2282 H 215.774 2.58802 -2.70134 0
M  V30 2283 H 217.107 3.41923 -3.54047 0
M  V30 2284 N 218.759 1.29093 0.90403 0
M  V30 2285 C 219.706 1.13853 2.00764 0
M  V30 2286 C 220.676 0.0330084 1.66067 0
M  V30 2287 O 221.861 0.199733 1.89752 0
M  V30 2288 C 219.001 0.816537 3.35301 0
M  V30 2289 C 218.114 2.00206 3.82807 0
M  V30 2290 C 217.249 1.61983 5.059 0
M  V30 2291 C 216.288 2.77143 5.45764 0
M  V30 2292 N 215.425 2.39346 6.60044 0
M  V30 2293 H 220.265 2.08276 2.13132 0
M  V30 2294 H 217.802 1.03648 1.04381 0
M  V30 2295 H 219.76 0.610557 4.12708 0
M  V30 2296 H 218.39 -0.090779 3.22672 0
M  V30 2297 H 217.442 2.31988 3.01473 0
M  V30 2298 H 218.754 2.86512 4.08304 0
M  V30 2299 H 217.908 1.37649 5.90879 0
M  V30 2300 H 216.647 0.728202 4.82233 0
M  V30 2301 H 215.652 3.02165 4.59322 0
M  V30 2302 H 216.877 3.66964 5.71414 0
M  V30 2303 H 214.823 1.52665 6.37989 0
M  V30 2304 H 214.74 3.19185 6.85315 0
M  V30 2305 H 216.008 2.1832 7.48303 0
M  V30 2306 N 220.237 -1.11381 1.11499 0
M  V30 2307 C 221.648 -1.6465 0.880191 0
M  V30 2308 C 221.999 -1.87199 -0.587434 0
M  V30 2309 O 221.124 -1.60667 -1.44966 0
M  V30 2310 C 221.719 -2.99105 1.59128 0
M  V30 2311 C 220.278 -3.49279 1.40289 0
M  V30 2312 C 219.425 -2.24077 1.63354 0
M  V30 2313 H 222.376 -0.950123 1.27116 0
M  V30 2314 H 222.397 -3.66107 1.03664 0
M  V30 2315 H 221.909 -2.82661 2.65941 0
M  V30 2316 H 220.01 -3.70887 0.356888 0
M  V30 2317 H 220.123 -4.2803 2.15238 0
M  V30 2318 H 218.487 -2.31733 1.05698 0
M  V30 2319 H 219.27 -2.10175 2.71443 0
M  V30 2320 N 221.715 -0.905404 -1.28997 0
M  V30 2321 C 222.645 -0.404212 -2.29975 0
M  V30 2322 C 223.626 0.523784 -1.61835 0
M  V30 2323 O 224.811 0.433298 -1.89304 0
M  V30 2324 C 221.941 0.364042 -3.45387 0
M  V30 2325 C 220.895 -0.474048 -4.25367 0
M  V30 2326 C 220.221 0.422045 -5.33032 0
M  V30 2327 C 221.521 -1.72696 -4.92923 0
M  V30 2328 H 223.215 -1.24807 -2.72146 0
M  V30 2329 H 220.761 -0.601585 -1.30832 0
M  V30 2330 H 222.714 0.725447 -4.15109 0
M  V30 2331 H 221.438 1.24174 -3.02074 0
M  V30 2332 H 220.097 -0.81786 -3.57361 0
M  V30 2333 H 219.745 1.29804 -4.85963 0
M  V30 2334 H 219.445 -0.135057 -5.87445 0
M  V30 2335 H 220.969 0.779517 -6.05604 0
M  V30 2336 H 222.383 -1.43495 -5.55051 0
M  V30 2337 H 220.78 -2.22582 -5.57295 0
M  V30 2338 H 221.85 -2.45964 -4.17887 0
M  V30 2339 N 223.193 1.4272 -0.668489 0
M  V30 2340 C 224.604 1.84793 -0.266151 0
M  V30 2341 C 224.955 1.55959 1.19043 0
M  V30 2342 O 224.08 1.01622 1.91055 0
M  V30 2343 C 224.675 3.35436 -0.476271 0
M  V30 2344 C 223.234 3.76182 -0.128113 0
M  V30 2345 C 222.381 2.66344 -0.771777 0
M  V30 2346 H 225.332 1.32656 -0.871098 0
M  V30 2347 H 225.353 3.79515 0.273561 0
M  V30 2348 H 224.865 3.5639 -1.53647 0
M  V30 2349 H 222.966 3.60836 0.928891 0
M  V30 2350 H 223.079 4.75766 -0.564231 0
M  V30 2351 H 221.443 2.53885 -0.203652 0
M  V30 2352 H 222.226 2.90123 -1.83531 0
M  V30 2353 N 224.671 0.411399 1.52136 0
M  V30 2354 C 225.896 -0.165538 2.06738 0
M  V30 2355 C 226.321 -1.379 1.27926 0
M  V30 2356 O 225.679 -1.78628 0.310114 0
M  V30 2357 C 225.727 -0.492124 3.57226 0
M  V30 2358 O 224.831 -1.58276 3.80818 0
M  V30 2359 H 224.172 -0.0132132 0.663869 0
M  V30 2360 H 226.702 0.585253 1.96051 0
M  V30 2361 H 226.712 -0.750104 4.01045 0
M  V30 2362 H 225.387 0.394922 4.14021 0
M  V30 2363 H 223.964 -1.31677 3.48877 0
M  V30 2364 N 226.149 -1.5696 0.141893 0
M  V30 2365 C 227.081 -2.13619 -0.830627 0
M  V30 2366 C 228.094 -1.08439 -1.21428 0
M  V30 2367 O 229.283 -1.35734 -1.15925 0
M  V30 2368 C 226.383 -2.63978 -2.12529 0
M  V30 2369 C 225.556 -3.93504 -1.9098 0
M  V30 2370 C 224.615 -4.29225 -3.04388 0
M  V30 2371 O 223.641 -4.97641 -2.76302 0
M  V30 2372 N 224.843 -3.88393 -4.31429 0
M  V30 2373 H 227.608 -2.97691 -0.34641 0
M  V30 2374 H 225.169 -1.61846 -0.0418375 0
M  V30 2375 H 227.161 -2.84891 -2.87436 0
M  V30 2376 H 225.731 -1.84659 -2.52229 0
M  V30 2377 H 224.951 -3.81269 -1.00139 0
M  V30 2378 H 226.239 -4.78154 -1.73914 0
M  V30 2379 H 225.637 -3.33257 -4.57117 0
M  V30 2380 H 224.194 -4.14368 -5.03133 0
M  V30 2381 N 227.627 0.131896 -1.57047 0
M  V30 2382 C 229.038 0.690407 -1.73465 0
M  V30 2383 C 229.389 1.8094 -0.758629 0
M  V30 2384 O 228.514 2.16282 0.0713813 0
M  V30 2385 C 229.109 1.25916 -3.14532 0
M  V30 2386 C 227.668 1.76409 -3.32501 0
M  V30 2387 C 226.815 0.658579 -2.69366 0
M  V30 2388 H 229.766 -0.0939144 -1.58422 0
M  V30 2389 H 229.787 2.12892 -3.15369 0
M  V30 2390 H 229.299 0.444515 -3.85546 0
M  V30 2391 H 227.4 2.60391 -2.66509 0
M  V30 2392 H 227.513 1.88241 -4.4057 0
M  V30 2393 H 225.877 1.08899 -2.30246 0
M  V30 2394 H 226.66 -0.14487 -3.42994 0
M  V30 2395 N 229.106 1.52395 0.401703 0
M  V30 2396 C 230.353 1.66817 1.14796 0
M  V30 2397 C 230.681 0.401772 1.90305 0
M  V30 2398 O 229.936 -0.615487 1.85769 0
M  V30 2399 C 230.235 2.84578 2.16217 0
M  V30 2400 C 229.901 4.22513 1.5746 0
M  V30 2401 C 228.563 4.60029 1.41161 0
M  V30 2402 C 230.915 5.0844 1.14622 0
M  V30 2403 C 228.243 5.81144 0.80552 0
M  V30 2404 C 230.595 6.30167 0.55428 0
M  V30 2405 C 229.259 6.66426 0.378482 0
M  V30 2406 H 228.529 0.610428 0.420069 0
M  V30 2407 H 231.176 1.86512 0.434212 0
M  V30 2408 H 229.481 2.59248 2.93764 0
M  V30 2409 H 231.178 2.92933 2.73845 0
M  V30 2410 H 227.768 3.92953 1.71132 0
M  V30 2411 H 231.952 4.80034 1.26021 0
M  V30 2412 H 227.208 6.07855 0.657399 0
M  V30 2413 H 231.382 6.96071 0.213983 0
M  V30 2414 H 229.009 7.60143 -0.0932606 0
M  V30 2415 N 230.584 -0.659388 1.43143 0
M  V30 2416 C 231.516 -1.7849 1.43784 0
M  V30 2417 C 232.529 -1.5932 0.334787 0
M  V30 2418 O 233.718 -1.68155 0.598842 0
M  V30 2419 C 230.818 -3.15828 1.22906 0
M  V30 2420 C 229.991 -3.61711 2.45934 0
M  V30 2421 C 229.05 -4.77831 2.20371 0
M  V30 2422 O 228.076 -4.87586 2.93681 0
M  V30 2423 N 229.278 -5.67611 1.21647 0
M  V30 2424 H 232.043 -1.7842 2.40803 0
M  V30 2425 H 229.604 -0.84302 1.3822 0
M  V30 2426 H 231.596 -3.91189 1.03697 0
M  V30 2427 H 230.166 -3.10707 0.343542 0
M  V30 2428 H 229.386 -2.76861 2.80609 0
M  V30 2429 H 230.674 -3.89112 3.27825 0
M  V30 2430 H 230.072 -5.62397 0.610449 0
M  V30 2431 H 228.629 -6.42719 1.08423 0
M  V30 2432 N 232.062 -1.29571 -0.897171 0
M  V30 2433 C 233.478 -1.07637 -1.17841 0
M  V30 2434 C 233.678 0.170713 -2.00776 0
M  V30 2435 O 232.734 0.867768 -2.3712 0
M  V30 2436 C 234.047 -2.3332 -1.8969 0
M  V30 2437 C 235.595 -2.38664 -2.02505 0
M  V30 2438 C 236.07 -3.64157 -2.77765 0
M  V30 2439 N 237.561 -3.64894 -2.85318 0
M  V30 2440 C 238.296 -4.58679 -3.44094 0
M  V30 2441 N 237.792 -5.62799 -4.04017 0
M  V30 2442 N 239.585 -4.46245 -3.41793 0
M  V30 2443 H 231.736 -2.09598 -0.343883 0
M  V30 2444 H 233.999 -0.923333 -0.214848 0
M  V30 2445 H 233.705 -3.24262 -1.36187 0
M  V30 2446 H 233.579 -2.41025 -2.9015 0
M  V30 2447 H 235.966 -1.48208 -2.55183 0
M  V30 2448 H 236.047 -2.34943 -1.01171 0
M  V30 2449 H 235.691 -4.54965 -2.25763 0
M  V30 2450 H 235.621 -3.65137 -3.7945 0
M  V30 2451 H 238.112 -2.89613 -2.42761 0
M  V30 2452 H 238.425 -6.3048 -4.46895 0
M  V30 2453 H 236.77 -5.66605 -4.02472 0
M  V30 2454 H 239.961 -3.64094 -2.94199 0
M  V30 2455 H 240.134 -5.19518 -3.87304 0
M  V30 2456 N 233.54 1.10788 -1.12088 0
M  V30 2457 C 234.472 2.16816 -0.743213 0
M  V30 2458 C 235.485 1.6119 0.228412 0
M  V30 2459 O 236.674 1.78497 0.0102931 0
M  V30 2460 C 233.774 3.38809 -0.0787313 0
M  V30 2461 C 232.947 4.23885 -1.0789 0
M  V30 2462 C 232.006 5.24334 -0.442713 0
M  V30 2463 O 231.032 5.58497 -1.09864 0
M  V30 2464 N 232.234 5.75079 0.791457 0
M  V30 2465 H 234.999 2.49825 -1.65552 0
M  V30 2466 H 232.56 1.26373 -1.012 0
M  V30 2467 H 234.552 4.03107 0.358766 0
M  V30 2468 H 233.122 3.03805 0.736275 0
M  V30 2469 H 232.342 3.55939 -1.69414 0
M  V30 2470 H 233.63 4.77562 -1.75533 0
M  V30 2471 H 233.028 5.49517 1.3434 0
M  V30 2472 H 231.585 6.4118 1.17183 0
M  V30 2473 N 235.018 0.912232 1.28515 0
M  V30 2474 C 236.264 0.545405 1.95328 0
M  V30 2475 C 236.597 -0.908313 1.71649 0
M  V30 2476 O 235.872 -1.64575 1.03659 0
M  V30 2477 C 236.155 0.853483 3.4984 0
M  V30 2478 C 236.008 2.35982 3.82926 0
M  V30 2479 C 237.327 0.348589 4.38717 0
M  V30 2480 H 234.446 0.199626 0.709449 0
M  V30 2481 H 237.088 1.1412 1.5191 0
M  V30 2482 H 235.238 0.34643 3.86952 0
M  V30 2483 H 236.91 2.93738 3.55691 0
M  V30 2484 H 235.153 2.81543 3.30024 0
M  V30 2485 H 235.824 2.52593 4.90816 0
M  V30 2486 H 238.3 0.78294 4.08668 0
M  V30 2487 H 237.176 0.593242 5.45685 0
M  V30 2488 H 237.437 -0.751049 4.35674 0
M  V30 2489 N 236.496 -1.42363 0.676048 0
M  V30 2490 C 237.742 -2.02336 0.207809 0
M  V30 2491 C 238.097 -1.52506 -1.17302 0
M  V30 2492 O 237.39 -0.718048 -1.77636 0
M  V30 2493 C 237.584 -3.56929 0.183431 0
M  V30 2494 C 237.413 -4.21762 1.56036 0
M  V30 2495 C 236.183 -4.56881 2.15842 0
M  V30 2496 C 238.381 -4.49267 2.50327 0
M  V30 2497 N 236.363 -5.069 3.46303 0
M  V30 2498 C 237.734 -5.00851 3.65443 0
M  V30 2499 C 239.789 -4.31257 2.48841 0
M  V30 2500 C 238.492 -5.36317 4.79329 0
M  V30 2501 C 240.518 -4.678 3.61824 0
M  V30 2502 C 239.88 -5.19537 4.75668 0
M  V30 2503 H 235.979 -0.772583 0.120993 0
M  V30 2504 H 238.563 -1.73203 0.889306 0
M  V30 2505 H 236.734 -3.85576 -0.467483 0
M  V30 2506 H 238.466 -4.03603 -0.297808 0
M  V30 2507 H 235.221 -4.4268 1.68319 0
M  V30 2508 H 235.645 -5.36338 4.13123 0
M  V30 2509 H 240.287 -3.90511 1.62051 0
M  V30 2510 H 238.005 -5.75995 5.66794 0
M  V30 2511 H 241.591 -4.55541 3.61903 0
M  V30 2512 H 240.471 -5.47287 5.61646 0
M  V30 2513 N 237.974 -0.419461 -1.51915 0
M  V30 2514 C 238.904 0.391813 -2.30189 0
M  V30 2515 C 239.885 1.03699 -1.34836 0
M  V30 2516 O 241.07 1.04403 -1.63748 0
M  V30 2517 C 238.2 1.50312 -3.13087 0
M  V30 2518 C 237.154 0.9824 -4.16573 0
M  V30 2519 C 236.48 2.18809 -4.8788 0
M  V30 2520 C 237.78 0.0292356 -5.22292 0
M  V30 2521 H 239.474 -0.26135 -2.98257 0
M  V30 2522 H 237.02 -0.127134 -1.43438 0
M  V30 2523 H 238.973 2.07773 -3.66617 0
M  V30 2524 H 237.697 2.18431 -2.42807 0
M  V30 2525 H 236.356 0.430119 -3.64068 0
M  V30 2526 H 236.004 2.85507 -4.14119 0
M  V30 2527 H 235.704 1.84615 -5.57845 0
M  V30 2528 H 237.228 2.76858 -5.44226 0
M  V30 2529 H 238.642 0.512976 -5.71 0
M  V30 2530 H 237.039 -0.2244 -5.9968 0
M  V30 2531 H 238.109 -0.912931 -4.76228 0
M  V30 2532 N 239.452 1.56882 -0.150215 0
M  V30 2533 C 240.382 2.19935 0.784284 0
M  V30 2534 C 241.363 1.14854 1.25469 0
M  V30 2535 O 242.548 1.43209 1.31168 0
M  V30 2536 C 239.678 2.82349 2.02229 0
M  V30 2537 C 238.632 3.93285 1.68853 0
M  V30 2538 C 237.958 4.42649 2.99944 0
M  V30 2539 C 239.258 5.13904 0.932714 0
M  V30 2540 H 240.952 2.9828 0.258781 0
M  V30 2541 H 238.498 1.43473 0.123029 0
M  V30 2542 H 240.451 3.25126 2.68088 0
M  V30 2543 H 239.175 2.0134 2.57157 0
M  V30 2544 H 237.834 3.5113 1.05371 0
M  V30 2545 H 237.482 3.58458 3.52869 0
M  V30 2546 H 237.182 5.17476 2.78374 0
M  V30 2547 H 238.706 4.88099 3.66868 0
M  V30 2548 H 240.12 5.53506 1.49345 0
M  V30 2549 H 238.517 5.94515 0.81684 0
M  V30 2550 H 239.587 4.84842 -0.0749568 0
M  V30 2551 N 240.93 -0.123565 1.57115 0
M  V30 2552 C 242.177 -0.832153 1.84612 0
M  V30 2553 C 242.505 -1.80093 0.734627 0
M  V30 2554 O 241.76 -1.93766 -0.27442 0
M  V30 2555 C 242.059 -1.62016 3.18568 0
M  V30 2556 C 241.725 -0.796084 4.43817 0
M  V30 2557 C 240.387 -0.568816 4.77826 0
M  V30 2558 C 242.739 -0.221364 5.2073 0
M  V30 2559 C 240.067 0.243499 5.86194 0
M  V30 2560 C 242.419 0.578117 6.29953 0
M  V30 2561 C 241.083 0.815744 6.62497 0
M  V30 2562 H 240.353 -0.304507 0.675542 0
M  V30 2563 H 243 -0.0947248 1.91266 0
M  V30 2564 H 241.305 -2.42837 3.0747 0
M  V30 2565 H 243.002 -2.17231 3.37064 0
M  V30 2566 H 239.592 -0.983307 4.17168 0
M  V30 2567 H 243.776 -0.384173 4.94811 0
M  V30 2568 H 239.032 0.436871 6.09837 0
M  V30 2569 H 243.206 1.03046 6.88734 0
M  V30 2570 H 240.833 1.44701 7.46301 0
M  V30 2571 N 242.408 -1.52605 -0.393616 0
M  V30 2572 C 243.318 -1.79971 -1.50492 0
M  V30 2573 C 244.334 -0.686181 -1.59899 0
M  V30 2574 O 245.51 -0.973274 -1.76322 0
M  V30 2575 C 242.575 -1.95867 -2.86072 0
M  V30 2576 C 241.636 -3.19781 -2.86424 0
M  V30 2577 C 240.869 -3.34909 -4.15538 0
M  V30 2578 O 241.092 -2.54948 -5.10253 0
M  V30 2579 O 240.026 -4.28141 -4.23059 0
M  V30 2580 H 243.852 -2.74328 -1.30299 0
M  V30 2581 H 241.437 -1.3764 -0.581005 0
M  V30 2582 H 243.319 -2.08056 -3.66457 0
M  V30 2583 H 241.994 -1.04699 -3.063 0
M  V30 2584 H 240.901 -3.13038 -2.04837 0
M  V30 2585 H 242.234 -4.1078 -2.71147 0
M  V30 2586 N 243.887 0.651787 -1.4349 0
M  V30 2587 C 245.117 1.43728 -1.48411 0
M  V30 2588 C 245.525 1.8893 -0.10103 0
M  V30 2589 O 244.868 1.60182 0.899307 0
M  V30 2590 C 244.93 2.70411 -2.36893 0
M  V30 2591 C 244.594 2.4714 -3.8441 0
M  V30 2592 C 245.591 2.10271 -4.75481 0
M  V30 2593 C 243.276 2.6142 -4.28912 0
M  V30 2594 C 245.27 1.87982 -6.0905 0
M  V30 2595 C 242.957 2.38746 -5.62533 0
M  V30 2596 C 243.955 2.02083 -6.5242 0
M  V30 2597 O 243.643 1.79647 -7.8357 0
M  V30 2598 H 243.375 0.447962 -0.506267 0
M  V30 2599 H 245.929 0.80624 -1.88915 0
M  V30 2600 H 244.159 3.36079 -1.91278 0
M  V30 2601 H 245.848 3.32364 -2.33 0
M  V30 2602 H 246.614 1.98814 -4.42378 0
M  V30 2603 H 242.493 2.88931 -3.59222 0
M  V30 2604 H 246.037 1.5929 -6.7917 0
M  V30 2605 H 241.934 2.49806 -5.95203 0
M  V30 2606 H 242.702 1.9406 -7.95162 0
M  V30 2607 N 245.365 1.30045 0.890287 0
M  V30 2608 C 246.776 1.16738 1.45702 0
M  V30 2609 C 247.127 -0.233939 1.948 0
M  V30 2610 O 246.252 -1.13021 1.84541 0
M  V30 2611 C 246.847 2.11313 2.64825 0
M  V30 2612 C 245.406 2.02001 3.17604 0
M  V30 2613 C 244.553 2.01699 1.90296 0
M  V30 2614 H 247.504 1.42392 0.700726 0
M  V30 2615 H 247.525 1.69086 3.40867 0
M  V30 2616 H 247.037 3.13294 2.2906 0
M  V30 2617 H 245.138 1.03142 3.5804 0
M  V30 2618 H 245.251 2.90128 3.81264 0
M  V30 2619 H 243.615 1.46427 2.08402 0
M  V30 2620 H 244.398 3.05402 1.56795 0
M  V30 2621 N 246.843 -1.10192 1.12674 0
M  V30 2622 C 247.753 -2.20172 0.810026 0
M  V30 2623 C 248.769 -1.72821 -0.202188 0
M  V30 2624 O 249.945 -2.01369 -0.0351691 0
M  V30 2625 C 247.01 -3.45631 0.272007 0
M  V30 2626 C 246.071 -4.07704 1.34447 0
M  V30 2627 C 245.304 -5.27175 0.832029 0
M  V30 2628 O 245.527 -5.69425 -0.333284 0
M  V30 2629 O 244.461 -5.80168 1.60277 0
M  V30 2630 H 248.287 -2.49701 1.72867 0
M  V30 2631 H 245.872 -1.18977 0.903597 0
M  V30 2632 H 247.754 -4.21394 -0.0230219 0
M  V30 2633 H 246.429 -3.17723 -0.619164 0
M  V30 2634 H 245.336 -3.33614 1.6927 0
M  V30 2635 H 246.669 -4.3982 2.2095 0
M  V30 2636 N 248.321 -0.919034 -1.28029 0
M  V30 2637 C 249.546 -0.570357 -1.99403 0
M  V30 2638 C 249.971 0.842486 -1.68178 0
M  V30 2639 O 249.329 1.56391 -0.917141 0
M  V30 2640 C 249.377 -0.792541 -3.51783 0
M  V30 2641 O 248.481 0.145988 -4.12142 0
M  V30 2642 H 247.822 -0.220555 -0.6263 0
M  V30 2643 H 250.352 -1.23592 -1.63053 0
M  V30 2644 H 250.362 -0.704708 -4.01868 0
M  V30 2645 H 249.037 -1.82247 -3.73844 0
M  V30 2646 H 247.614 0.00897528 -3.72899 0
M  V30 2647 N 249.799 1.42003 -0.683588 0
M  V30 2648 C 251.024 2.06265 -0.216647 0
M  V30 2649 C 251.449 1.51059 1.12083 0
M  V30 2650 O 250.807 0.632638 1.69904 0
M  V30 2651 C 250.855 3.60191 -0.171759 0
M  V30 2652 O 249.959 4.03396 0.857069 0
M  V30 2653 H 249.3 0.65502 -0.108834 0
M  V30 2654 H 251.83 1.81982 -0.935077 0
M  V30 2655 H 251.84 4.08 0.0014303 0
M  V30 2656 H 250.515 3.99743 -1.14796 0
M  V30 2657 H 249.092 3.67117 0.654208 0
M  V30 2658 N 251.277 0.427512 1.51691 0
M  V30 2659 C 252.525 -0.141948 2.01601 0
M  V30 2660 C 252.846 -1.44067 1.31414 0
M  V30 2661 O 252.116 -1.90763 0.445658 0
M  V30 2662 H 250.696 -0.0554468 0.744939 0
M  V30 2663 H 253.358 0.567968 1.86441 0
M  V30 2664 H 252.454 -0.324913 3.10404 0
M  V30 2665 N 252.755 -1.56801 0.158532 0
M  V30 2666 C 254.166 -1.83189 -0.360366 0
M  V30 2667 C 254.517 -1.07778 -1.63946 0
M  V30 2668 O 253.642 -0.326718 -2.13919 0
M  V30 2669 C 254.237 -3.32297 -0.660595 0
M  V30 2670 C 252.796 -3.59227 -1.12398 0
M  V30 2671 C 251.943 -2.76877 -0.153097 0
M  V30 2672 H 254.894 -1.54008 0.383031 0
M  V30 2673 H 254.915 -3.4908 -1.51405 0
M  V30 2674 H 254.427 -3.87156 0.270527 0
M  V30 2675 H 252.528 -3.09766 -2.07064 0
M  V30 2676 H 252.641 -4.67632 -1.04197 0
M  V30 2677 H 251.005 -2.46319 -0.647983 0
M  V30 2678 H 251.788 -3.34511 0.77182 0
M  V30 2679 N 254.233 0.115231 -1.57178 0
M  V30 2680 C 255.196 1.12526 -1.99676 0
M  V30 2681 C 256.196 1.34095 -0.88742 0
M  V30 2682 O 257.386 1.30548 -1.15337 0
M  V30 2683 C 254.518 2.4789 -2.34015 0
M  V30 2684 H 255.711 0.759912 -2.90113 0
M  V30 2685 H 253.264 0.359648 -1.52106 0
M  V30 2686 H 253.999 2.89339 -1.4647 0
M  V30 2687 H 253.784 2.33588 -3.14927 0
M  V30 2688 H 255.274 3.20575 -2.67622 0
M  V30 2689 N 255.711 1.52812 0.385517 0
M  V30 2690 C 257.127 1.4214 0.725829 0
M  V30 2691 C 257.327 0.544589 1.94001 0
M  V30 2692 O 256.383 0.0193693 2.52493 0
M  V30 2693 C 257.696 2.85042 0.957668 0
M  V30 2694 C 259.244 2.94543 1.05892 0
M  V30 2695 C 259.719 4.38464 1.32337 0
M  V30 2696 N 261.21 4.41804 1.39151 0
M  V30 2697 C 261.945 5.5025 1.61285 0
M  V30 2698 N 261.441 6.68775 1.80866 0
M  V30 2699 N 263.234 5.37798 1.63492 0
M  V30 2700 H 255.385 2.08338 -0.413383 0
M  V30 2701 H 257.648 0.940016 -0.122775 0
M  V30 2702 H 257.354 3.51431 0.137568 0
M  V30 2703 H 257.228 3.27505 1.87137 0
M  V30 2704 H 259.615 2.28321 1.86959 0
M  V30 2705 H 259.696 2.55504 0.123057 0
M  V30 2706 H 259.34 5.05254 0.517793 0
M  V30 2707 H 259.27 4.75059 2.27214 0
M  V30 2708 H 261.761 3.56377 1.25713 0
M  V30 2709 H 262.074 7.47197 1.97271 0
M  V30 2710 H 260.419 6.71797 1.78083 0
M  V30 2711 H 263.61 4.44171 1.47749 0
M  V30 2712 H 263.783 6.22382 1.80402 0
M  V30 2713 N 257.189 -0.644168 1.43834 0
M  V30 2714 C 258.437 -1.40117 1.45642 0
M  V30 2715 C 258.758 -1.94814 0.0852413 0
M  V30 2716 O 258.028 -1.74988 -0.880688 0
M  V30 2717 H 256.608 -0.52005 0.536243 0
M  V30 2718 H 259.27 -0.7591 1.7951 0
M  V30 2719 H 258.366 -2.23902 2.17427 0
M  V30 2720 N 258.668 -1.30515 -0.883378 0
M  V30 2721 C 259.917 -1.18795 -1.63005 0
M  V30 2722 C 260.23 0.255923 -1.93919 0
M  V30 2723 O 261.436 0.494654 -2.66956 0
M  V30 2724 C 259.892 -2.07878 -2.93794 0
M  V30 2725 C 259.5 -3.57184 -2.70414 0
M  V30 2726 C 261.244 -2.04924 -3.71761 0
M  V30 2727 C 259.151 -4.38317 -3.97029 0
M  V30 2728 H 258.081 -0.441031 -0.611562 0
M  V30 2729 H 260.732 -1.55275 -0.977854 0
M  V30 2730 H 259.114 -1.64283 -3.60315 0
M  V30 2731 H 260.288 -4.08937 -2.12384 0
M  V30 2732 H 258.603 -3.61976 -2.0582 0
M  V30 2733 H 261.2 -2.62792 -4.65665 0
M  V30 2734 H 261.543 -1.0331 -4.03277 0
M  V30 2735 H 262.076 -2.46649 -3.12104 0
M  V30 2736 H 258.815 -5.40632 -3.70671 0
M  V30 2737 H 258.335 -3.91326 -4.54559 0
M  V30 2738 H 260.014 -4.49834 -4.65036 0
M  V30 2739 N 260.146 1.09593 -1.13257 0
M  V30 2740 C 261.109 2.14359 -0.811358 0
M  V30 2741 C 262.109 1.59808 0.178377 0
M  V30 2742 O 263.299 1.74132 -0.0484911 0
M  V30 2743 C 260.431 3.40269 -0.207276 0
M  V30 2744 H 261.624 2.44284 -1.73969 0
M  V30 2745 H 259.177 1.25102 -0.936973 0
M  V30 2746 H 259.912 3.15969 0.73036 0
M  V30 2747 H 259.697 3.81154 -0.919992 0
M  V30 2748 H 261.187 4.176 0.000667944 0
M  V30 2749 N 261.624 0.925811 1.2754 0
M  V30 2750 C 262.873 0.561084 1.93739 0
M  V30 2751 C 263.186 -0.901685 1.73577 0
M  V30 2752 O 264.392 -1.37511 2.34101 0
M  V30 2753 C 262.848 0.952668 3.47062 0
M  V30 2754 C 262.456 2.43599 3.75983 0
M  V30 2755 C 264.2 0.659103 4.19352 0
M  V30 2756 C 262.107 2.76707 5.22673 0
M  V30 2757 H 261.037 0.206122 0.725279 0
M  V30 2758 H 263.688 1.12637 1.44863 0
M  V30 2759 H 262.07 0.316053 3.94737 0
M  V30 2760 H 263.244 3.12035 3.39073 0
M  V30 2761 H 261.559 2.70125 3.16893 0
M  V30 2762 H 264.156 0.882985 5.27359 0
M  V30 2763 H 264.499 -0.403607 4.14339 0
M  V30 2764 H 265.032 1.25473 3.77494 0
M  V30 2765 H 261.771 3.8188 5.32774 0
M  V30 2766 H 261.291 2.12919 5.60737 0
M  V30 2767 H 262.97 2.6435 5.90532 0
M  V30 2768 N 263.102 -1.41638 0.69111 0
M  V30 2769 C 264.348 -2.01598 0.220519 0
M  V30 2770 C 264.681 -1.54594 -1.17535 0
M  V30 2771 O 263.956 -0.755177 -1.79241 0
M  V30 2772 C 264.239 -3.59062 0.273243 0
M  V30 2773 C 264.092 -4.16203 1.70573 0
M  V30 2774 C 265.411 -4.38546 -0.369457 0
M  V30 2775 H 262.53 -0.732468 0.0816045 0
M  V30 2776 H 265.172 -1.68445 0.878986 0
M  V30 2777 H 263.322 -3.87435 -0.287411 0
M  V30 2778 H 264.994 -3.98722 2.31989 0
M  V30 2779 H 263.237 -3.71414 2.2413 0
M  V30 2780 H 263.908 -5.25358 1.69419 0
M  V30 2781 H 266.384 -4.1596 0.107977 0
M  V30 2782 H 265.26 -5.48069 -0.302002 0
M  V30 2783 H 265.521 -4.17662 -1.44951 0
M  V30 2784 N 264.58 -0.43555 -1.51462 0
M  V30 2785 C 265.805 0.132627 -2.06976 0
M  V30 2786 C 266.23 1.35848 -1.30104 0
M  V30 2787 O 265.588 1.78112 -0.338493 0
M  V30 2788 C 265.636 0.43523 -3.57964 0
M  V30 2789 O 264.74 1.52198 -3.83288 0
M  V30 2790 H 264.081 0.00265 -0.663995 0
M  V30 2791 H 266.611 -0.616369 -1.95095 0
M  V30 2792 H 266.621 0.686206 -4.02188 0
M  V30 2793 H 265.296 -0.460739 -4.1334 0
M  V30 2794 H 263.873 1.2611 -3.50928 0
M  V30 2795 N 266.058 1.56714 -0.166846 0
M  V30 2796 C 267.304 1.97039 0.479962 0
M  V30 2797 C 267.637 1.05264 1.63197 0
M  V30 2798 O 266.912 0.0988833 1.94248 0
M  V30 2799 C 267.195 3.46867 0.967212 0
M  V30 2800 C 267.048 4.49421 -0.18466 0
M  V30 2801 C 268.367 3.9968 1.84238 0
M  V30 2802 H 265.486 0.71641 0.172992 0
M  V30 2803 H 268.128 1.8832 -0.252079 0
M  V30 2804 H 266.278 3.54428 1.59101 0
M  V30 2805 H 267.95 4.53924 -0.821621 0
M  V30 2806 H 266.193 4.25573 -0.840837 0
M  V30 2807 H 266.864 5.51644 0.198317 0
M  V30 2808 H 269.34 3.94723 1.31655 0
M  V30 2809 H 268.216 5.04941 2.15234 0
M  V30 2810 H 268.477 3.43226 2.78654 0
M  V30 2811 N 267.536 -0.106894 1.57237 0
M  V30 2812 C 268.466 -1.13148 2.04254 0
M  V30 2813 C 269.447 -1.42476 0.929224 0
M  V30 2814 O 270.632 -1.52709 1.19973 0
M  V30 2815 C 267.762 -2.4545 2.45706 0
M  V30 2816 C 266.716 -2.30558 3.60592 0
M  V30 2817 C 266.042 -3.67931 3.87983 0
M  V30 2818 C 267.342 -1.75597 4.91897 0
M  V30 2819 H 269.036 -0.740374 2.90101 0
M  V30 2820 H 266.582 -0.354696 1.39563 0
M  V30 2821 H 268.535 -3.17389 2.77205 0
M  V30 2822 H 267.259 -2.86475 1.56843 0
M  V30 2823 H 265.918 -1.61067 3.29322 0
M  V30 2824 H 265.566 -4.06462 2.96306 0
M  V30 2825 H 265.266 -3.58817 4.65322 0
M  V30 2826 H 266.79 -4.41356 4.21945 0
M  V30 2827 H 268.204 -2.37364 5.21854 0
M  V30 2828 H 266.601 -1.77272 5.73319 0
M  V30 2829 H 267.671 -0.714451 4.79608 0
M  V30 2830 N 269.014 -1.53014 -0.377408 0
M  V30 2831 C 270.26 -1.68872 -1.12294 0
M  V30 2832 C 270.593 -0.433224 -1.89306 0
M  V30 2833 O 269.868 0.569258 -1.85983 0
M  V30 2834 C 270.151 -2.93115 -2.09179 0
M  V30 2835 C 270.004 -4.28794 -1.35853 0
M  V30 2836 C 271.323 -3.12928 -3.09458 0
M  V30 2837 H 268.442 -0.614518 -0.406862 0
M  V30 2838 H 271.084 -1.85633 -0.40503 0
M  V30 2839 H 269.234 -2.78956 -2.70399 0
M  V30 2840 H 270.906 -4.54742 -0.775082 0
M  V30 2841 H 269.149 -4.28744 -0.660364 0
M  V30 2842 H 269.82 -5.11837 -2.06706 0
M  V30 2843 H 272.296 -3.26194 -2.58334 0
M  V30 2844 H 271.172 -4.01316 -3.74482 0
M  V30 2845 H 271.433 -2.27669 -3.78971 0
M  V30 2846 N 270.492 0.636531 -1.44174 0
M  V30 2847 C 271.741 1.39213 -1.45954 0
M  V30 2848 C 272.054 1.95374 -0.0939119 0
M  V30 2849 O 273.26 2.71498 0.0107767 0
M  V30 2850 C 271.716 2.52025 -2.56927 0
M  V30 2851 C 271.324 2.024 -3.99673 0
M  V30 2852 C 273.068 3.29269 -2.67922 0
M  V30 2853 C 270.975 3.12521 -5.0208 0
M  V30 2854 H 269.905 0.523132 -0.542999 0
M  V30 2855 H 272.556 0.685349 -1.70221 0
M  V30 2856 H 270.938 3.25253 -2.25891 0
M  V30 2857 H 272.112 1.36073 -4.40251 0
M  V30 2858 H 270.427 1.37987 -3.92872 0
M  V30 2859 H 273.024 4.11352 -3.41605 0
M  V30 2860 H 273.367 3.78397 -1.73555 0
M  V30 2861 H 273.9 2.63129 -2.98342 0
M  V30 2862 H 270.639 2.68343 -5.98057 0
M  V30 2863 H 270.159 3.77507 -4.66099 0
M  V30 2864 H 271.838 3.77385 -5.25538 0
M  V30 2865 N 271.97 1.30982 0.876444 0
M  V30 2866 C 272.9 1.20668 1.99903 0
M  V30 2867 C 273.881 0.095354 1.69833 0
M  V30 2868 O 275.066 0.27885 1.92188 0
M  V30 2869 C 272.196 0.90655 3.3526 0
M  V30 2870 C 271.15 1.97675 3.79617 0
M  V30 2871 C 270.476 1.52943 5.1236 0
M  V30 2872 C 271.776 3.389 3.97422 0
M  V30 2873 H 273.47 2.14586 2.0879 0
M  V30 2874 H 271.016 1.03308 1.00317 0
M  V30 2875 H 272.969 0.821025 4.13324 0
M  V30 2876 H 271.693 -0.0682969 3.26529 0
M  V30 2877 H 270.352 2.05205 3.03787 0
M  V30 2878 H 270 0.54262 5.00065 0
M  V30 2879 H 269.7 2.24532 5.43009 0
M  V30 2880 H 271.224 1.45786 5.92941 0
M  V30 2881 H 272.638 3.34081 4.659 0
M  V30 2882 H 271.035 4.0865 4.3946 0
M  V30 2883 H 272.105 3.80163 3.01006 0
M  V30 2884 N 273.449 -1.08991 1.13837 0
M  V30 2885 C 274.698 -1.80631 0.897509 0
M  V30 2886 C 275.011 -1.86872 -0.57777 0
M  V30 2887 O 276.217 -2.54866 -0.935701 0
M  V30 2888 C 274.673 -3.24517 1.55618 0
M  V30 2889 C 274.281 -3.26529 3.0673 0
M  V30 2890 C 276.025 -4.00882 1.3962 0
M  V30 2891 C 273.932 -4.64965 3.65461 0
M  V30 2892 H 272.862 -0.67691 0.332129 0
M  V30 2893 H 275.513 -1.2246 1.3666 0
M  V30 2894 H 273.895 -3.82778 1.01476 0
M  V30 2895 H 275.069 -2.78008 3.67489 0
M  V30 2896 H 273.384 -2.63656 3.22296 0
M  V30 2897 H 275.981 -5.03167 1.80906 0
M  V30 2898 H 276.324 -4.14896 0.341578 0
M  V30 2899 H 276.857 -3.49075 1.90766 0
M  V30 2900 H 273.596 -4.56153 4.70749 0
M  V30 2901 H 273.116 -5.13792 3.09481 0
M  V30 2902 H 274.795 -5.3394 3.654 0
M  V30 2903 N 274.927 -0.932562 -1.27047 0
M  V30 2904 C 276.152 -0.591474 -1.98787 0
M  V30 2905 C 276.577 0.824601 -1.69062 0
M  V30 2906 O 275.935 1.5541 -0.933677 0
M  V30 2907 C 275.983 -0.829808 -3.50922 0
M  V30 2908 O 275.087 0.102266 -4.12273 0
M  V30 2909 H 274.428 -0.227185 -0.623926 0
M  V30 2910 H 276.958 -1.25314 -1.61733 0
M  V30 2911 H 276.968 -0.747292 -4.01098 0
M  V30 2912 H 275.643 -1.86201 -3.7189 0
M  V30 2913 H 274.22 -0.0305761 -3.72887 0
M  V30 2914 N 276.405 1.4127 -0.698611 0
M  V30 2915 C 277.654 2.00408 -0.227949 0
M  V30 2916 C 277.967 1.55981 1.18023 0
M  V30 2917 O 279.173 2.07699 1.74852 0
M  V30 2918 C 277.629 3.58129 -0.356636 0
M  V30 2919 C 277.237 4.11536 -1.77037 0
M  V30 2920 C 278.981 4.24466 0.0540969 0
M  V30 2921 C 276.888 5.61701 -1.85055 0
M  V30 2922 H 275.818 0.749586 -0.0814657 0
M  V30 2923 H 278.469 1.61713 -0.867249 0
M  V30 2924 H 276.851 3.94442 0.350965 0
M  V30 2925 H 278.025 3.86636 -2.50698 0
M  V30 2926 H 276.34 3.57736 -2.13105 0
M  V30 2927 H 278.937 5.34698 0.0146723 0
M  V30 2928 H 279.28 4.01687 1.09332 0
M  V30 2929 H 279.813 3.93198 -0.603337 0
M  V30 2930 H 276.552 5.89312 -2.8704 0
M  V30 2931 H 276.072 5.88519 -1.15783 0
M  V30 2932 H 277.751 6.26524 -1.61484 0
M  V30 2933 N 277.883 0.443576 1.51229 0
M  V30 2934 C 279.129 -0.120975 2.02439 0
M  V30 2935 C 279.462 -1.41815 1.32674 0
M  V30 2936 O 278.737 -1.89373 0.443622 0
M  V30 2937 C 279.02 -0.333291 3.58554 0
M  V30 2938 C 278.873 0.982968 4.38928 0
M  V30 2939 C 280.192 -1.10028 4.26124 0
M  V30 2940 H 277.311 -0.0424923 0.735774 0
M  V30 2941 H 279.953 0.583794 1.80809 0
M  V30 2942 H 278.103 -0.933614 3.77115 0
M  V30 2943 H 279.775 1.61775 4.32003 0
M  V30 2944 H 278.018 1.58611 4.03763 0
M  V30 2945 H 278.689 0.788379 5.46341 0
M  V30 2946 H 281.165 -0.591711 4.11871 0
M  V30 2947 H 280.041 -1.21761 5.35225 0
M  V30 2948 H 280.302 -2.12996 3.87408 0
M  V30 2949 N 279.361 -1.56624 0.175154 0
M  V30 2950 C 280.61 -1.96173 -0.468921 0
M  V30 2951 C 280.923 -1.06401 -1.64128 0
M  V30 2952 O 282.129 -1.35648 -2.35185 0
M  V30 2953 C 280.585 -3.48833 -0.885633 0
M  V30 2954 C 280.193 -4.47237 0.261343 0
M  V30 2955 C 281.937 -3.97194 -1.49791 0
M  V30 2956 C 279.844 -5.9114 -0.175214 0
M  V30 2957 H 278.774 -0.732455 -0.178958 0
M  V30 2958 H 281.425 -1.81591 0.263997 0
M  V30 2959 H 279.807 -3.58848 -1.67464 0
M  V30 2960 H 280.981 -4.4894 1.03871 0
M  V30 2961 H 279.296 -4.08956 0.783827 0
M  V30 2962 H 281.893 -5.02167 -1.83665 0
M  V30 2963 H 282.236 -3.40351 -2.39722 0
M  V30 2964 H 282.769 -3.90212 -0.773267 0
M  V30 2965 H 279.508 -6.51865 0.689414 0
M  V30 2966 H 279.028 -5.92735 -0.91786 0
M  V30 2967 H 280.707 -6.44044 -0.617792 0
M  V30 2968 N 280.839 0.0985539 -1.57292 0
M  V30 2969 C 282.086 0.802678 -1.85912 0
M  V30 2970 C 282.414 1.78901 -0.763186 0
M  V30 2971 O 281.669 1.94178 0.243559 0
M  V30 2972 C 281.968 1.56927 -3.21105 0
M  V30 2973 C 281.634 0.725376 -4.45027 0
M  V30 2974 C 280.296 0.492726 -4.78671 0
M  V30 2975 C 282.648 0.138493 -5.21016 0
M  V30 2976 C 279.976 -0.336727 -5.85733 0
M  V30 2977 C 282.328 -0.678264 -6.28953 0
M  V30 2978 C 280.992 -0.921039 -6.61115 0
M  V30 2979 H 280.262 0.293721 -0.680301 0
M  V30 2980 H 282.909 0.0642841 -1.91392 0
M  V30 2981 H 281.214 2.37914 -3.11294 0
M  V30 2982 H 282.911 2.11841 -3.40477 0
M  V30 2983 H 279.501 0.916815 -4.18679 0
M  V30 2984 H 283.685 0.305404 -4.95359 0
M  V30 2985 H 278.941 -0.533836 -6.09065 0
M  V30 2986 H 283.115 -1.1399 -6.87007 0
M  V30 2987 H 280.742 -1.56556 -7.43905 0
M  V30 2988 N 282.317 1.53212 0.369288 0
M  V30 2989 C 283.557 1.70915 1.12105 0
M  V30 2990 C 283.921 0.449444 1.86665 0
M  V30 2991 O 285.122 0.503105 2.6405 0
M  V30 2992 C 283.393 2.9222 2.05772 0
M  V30 2993 S 284.952 3.30609 2.88519 0
M  V30 2994 H 281.77 0.601445 0.379189 0
M  V30 2995 H 284.372 1.91306 0.402794 0
M  V30 2996 H 283.076 3.82103 1.49752 0
M  V30 2997 H 282.607 2.7422 2.82076 0
M  V30 2998 H 284.622 2.82333 4.08047 0
M  V30 2999 N 283.795 -0.628877 1.44509 0
M  V30 3000 C 284.725 -1.75187 1.54376 0
M  V30 3001 C 285.706 -1.65411 0.396618 0
M  V30 3002 O 286.891 -1.84137 0.617031 0
M  V30 3003 C 284.021 -3.13725 1.48976 0
M  V30 3004 C 282.975 -3.38291 2.62189 0
M  V30 3005 C 282.301 -4.76883 2.41841 0
M  V30 3006 C 283.601 -3.30632 4.04326 0
M  V30 3007 H 285.295 -1.67187 2.48373 0
M  V30 3008 H 282.841 -0.802909 1.19538 0
M  V30 3009 H 284.794 -3.92064 1.54478 0
M  V30 3010 H 283.518 -3.22515 0.514961 0
M  V30 3011 H 282.177 -2.62334 2.56079 0
M  V30 3012 H 281.825 -4.82378 1.42548 0
M  V30 3013 H 281.525 -4.94278 3.17747 0
M  V30 3014 H 283.049 -5.57449 2.49165 0
M  V30 3015 H 284.463 -3.98873 4.11793 0
M  V30 3016 H 282.86 -3.59561 4.80454 0
M  V30 3017 H 283.93 -2.28404 4.27738 0
M  V30 3018 N 285.273 -1.31445 -0.869486 0
M  V30 3019 C 286.183 -1.21097 -2.0093 0
M  V30 3020 C 287.199 -0.127584 -1.73532 0
M  V30 3021 O 288.375 -0.345477 -1.98415 0
M  V30 3022 C 285.44 -0.919378 -3.34288 0
M  V30 3023 C 284.501 -2.08971 -3.75006 0
M  V30 3024 C 283.734 -1.81194 -5.02001 0
M  V30 3025 O 283.957 -0.747296 -5.65484 0
M  V30 3026 O 282.891 -2.66883 -5.39497 0
M  V30 3027 H 286.717 -2.16883 -2.12592 0
M  V30 3028 H 284.302 -1.11189 -0.997868 0
M  V30 3029 H 286.184 -0.772625 -4.14257 0
M  V30 3030 H 284.859 0.00844772 -3.23699 0
M  V30 3031 H 283.766 -2.29187 -2.95676 0
M  V30 3032 H 285.099 -2.9998 -3.90221 0
M  V30 3033 N 286.751 1.08385 -1.14413 0
M  V30 3034 C 287.979 1.84517 -0.936001 0
M  V30 3035 C 288.394 1.81626 0.515503 0
M  V30 3036 O 287.751 1.22008 1.35721 0
M  V30 3037 C 287.802 3.32049 -1.42918 0
M  V30 3038 O 287.523 3.34951 -2.82381 0
M  V30 3039 C 289.024 4.24986 -1.26103 0
M  V30 3040 H 286.244 0.582491 -0.333084 0
M  V30 3041 H 288.788 1.36885 -1.5193 0
M  V30 3042 H 286.943 3.7707 -0.888641 0
M  V30 3043 H 287.357 4.27048 -3.04517 0
M  V30 3044 H 288.831 5.26615 -1.6547 0
M  V30 3045 H 289.308 4.38726 -0.20392 0
M  V30 3046 H 289.914 3.85791 -1.79012 0
M  V30 3047 N 288.23 0.939286 1.26551 0
M  V30 3048 C 289.16 0.465044 2.28822 0
M  V30 3049 C 290.141 -0.480692 1.63167 0
M  V30 3050 O 291.326 -0.382955 1.90387 0
M  V30 3051 C 288.456 -0.27234 3.46231 0
M  V30 3052 C 287.41 0.58666 4.2396 0
M  V30 3053 C 286.736 -0.280573 5.33963 0
M  V30 3054 C 288.036 1.85704 4.88171 0
M  V30 3055 H 289.73 1.31979 2.68741 0
M  V30 3056 H 287.276 0.636061 1.29191 0
M  V30 3057 H 289.229 -0.615133 4.16886 0
M  V30 3058 H 287.953 -1.16121 3.0526 0
M  V30 3059 H 286.612 0.91232 3.55067 0
M  V30 3060 H 286.26 -1.16874 4.89234 0
M  V30 3061 H 285.96 0.29076 5.8688 0
M  V30 3062 H 287.484 -0.618678 6.07458 0
M  V30 3063 H 288.898 1.58161 5.51052 0
M  V30 3064 H 287.295 2.37279 5.51197 0
M  V30 3065 H 288.365 2.56957 4.11219 0
M  V30 3066 N 289.708 -1.40897 0.706093 0
M  V30 3067 C 291.119 -1.84023 0.315052 0
M  V30 3068 C 291.47 -1.5906 -1.14866 0
M  V30 3069 O 290.595 -1.06651 -1.88293 0
M  V30 3070 C 291.19 -3.34055 0.565038 0
M  V30 3071 C 289.749 -3.7571 0.227806 0
M  V30 3072 C 288.896 -2.64204 0.842122 0
M  V30 3073 H 291.847 -1.303 0.905963 0
M  V30 3074 H 291.868 -3.80107 -0.172843 0
M  V30 3075 H 291.38 -3.52192 1.63042 0
M  V30 3076 H 289.481 -3.63172 -0.832895 0
M  V30 3077 H 289.594 -4.74103 0.690174 0
M  V30 3078 H 287.958 -2.53255 0.270893 0
M  V30 3079 H 288.741 -2.85155 1.91158 0
M  V30 3080 N 291.186 -0.45159 -1.50991 0
M  V30 3081 C 292.118 0.388634 -2.25881 0
M  V30 3082 C 293.131 0.974041 -1.30446 0
M  V30 3083 O 294.32 0.865758 -1.56099 0
M  V30 3084 C 291.42 1.5571 -3.01011 0
M  V30 3085 C 290.593 1.08801 -4.23652 0
M  V30 3086 C 289.652 2.12825 -4.8124 0
M  V30 3087 O 288.678 1.71678 -5.42693 0
M  V30 3088 N 289.88 3.45453 -4.66522 0
M  V30 3089 H 292.645 -0.25329 -2.98628 0
M  V30 3090 H 290.206 -0.281268 -1.59438 0
M  V30 3091 H 292.198 2.24952 -3.3642 0
M  V30 3092 H 290.768 2.10409 -2.31186 0
M  V30 3093 H 289.988 0.22215 -3.93574 0
M  V30 3094 H 291.276 0.752213 -5.03209 0
M  V30 3095 H 290.674 3.81605 -4.17605 0
M  V30 3096 H 289.231 4.10549 -5.06254 0
M  V30 3097 N 292.664 1.56529 -0.183458 0
M  V30 3098 C 293.911 1.97244 0.458357 0
M  V30 3099 C 294.239 1.06992 1.62428 0
M  V30 3100 O 293.494 0.106542 1.9541 0
M  V30 3101 C 293.793 3.43939 0.971637 0
M  V30 3102 C 293.459 4.5083 -0.0796784 0
M  V30 3103 C 292.121 4.79786 -0.368584 0
M  V30 3104 C 294.473 5.15138 -0.792638 0
M  V30 3105 C 291.801 5.70345 -1.37563 0
M  V30 3106 C 294.153 6.06784 -1.78875 0
M  V30 3107 C 292.817 6.34102 -2.08497 0
M  V30 3108 H 292.087 0.721768 0.167725 0
M  V30 3109 H 294.734 1.89472 -0.277976 0
M  V30 3110 H 293.039 3.48724 1.78602 0
M  V30 3111 H 294.736 3.72791 1.47744 0
M  V30 3112 H 291.326 4.28317 0.155668 0
M  V30 3113 H 295.51 4.92868 -0.582659 0
M  V30 3114 H 290.766 5.89789 -1.61118 0
M  V30 3115 H 294.94 6.55677 -2.3465 0
M  V30 3116 H 292.567 7.04074 -2.86678 0
M  V30 3117 N 294.142 -0.090211 1.57342 0
M  V30 3118 C 295.558 -0.444547 1.53284 0
M  V30 3119 C 295.758 -1.80238 0.900914 0
M  V30 3120 O 294.814 -2.4759 0.495513 0
M  V30 3121 C 296.127 -0.402543 2.97993 0
M  V30 3122 C 297.675 -0.48405 3.09234 0
M  V30 3123 C 298.15 -0.472144 4.5556 0
M  V30 3124 N 299.641 -0.532757 4.60126 0
M  V30 3125 C 300.376 -0.545462 5.708 0
M  V30 3126 N 299.872 -0.514082 6.9089 0
M  V30 3127 N 301.665 -0.59064 5.58988 0
M  V30 3128 H 293.816 0.799121 1.96794 0
M  V30 3129 H 296.079 0.297965 0.899956 0
M  V30 3130 H 295.785 0.528106 3.47712 0
M  V30 3131 H 295.659 -1.21969 3.56936 0
M  V30 3132 H 298.046 -1.40512 2.595 0
M  V30 3133 H 298.127 0.361328 2.53235 0
M  V30 3134 H 297.771 0.445 5.05947 0
M  V30 3135 H 297.701 -1.3348 5.09402 0
M  V30 3136 H 300.192 -0.562006 3.73698 0
M  V30 3137 H 300.505 -0.527195 7.71 0
M  V30 3138 H 298.85 -0.481054 6.93333 0
M  V30 3139 H 302.041 -0.61272 4.64073 0
M  V30 3140 H 302.214 -0.597073 6.45243 0
M  V30 3141 N 295.62 -1.53406 -0.361157 0
M  V30 3142 C 296.866 -1.70054 -1.10496 0
M  V30 3143 C 297.199 -0.453278 -1.88836 0
M  V30 3144 O 296.474 0.5495 -1.86576 0
M  V30 3145 C 296.757 -2.95317 -2.06058 0
M  V30 3146 C 296.61 -4.3021 -1.31298 0
M  V30 3147 C 297.929 -3.16193 -3.06121 0
M  V30 3148 H 295.048 -0.618799 -0.400321 0
M  V30 3149 H 297.69 -1.86052 -0.385318 0
M  V30 3150 H 295.84 -2.81809 -2.67425 0
M  V30 3151 H 297.512 -4.55538 -0.726807 0
M  V30 3152 H 295.755 -4.29421 -0.614853 0
M  V30 3153 H 296.426 -5.14 -2.01265 0
M  V30 3154 H 298.902 -3.28916 -2.5486 0
M  V30 3155 H 297.778 -4.05266 -3.70204 0
M  V30 3156 H 298.039 -2.31676 -3.76535 0
M  V30 3157 N 297.098 0.621204 -1.44841 0
M  V30 3158 C 298.375 1.38 -1.38619 0
M  V30 3159 C 298.755 2.11041 -0.0498935 0
M  V30 3160 O 298.103 2.06992 0.967816 0
M  V30 3161 C 298.313 2.33817 -2.59096 0
M  V30 3162 C 299.661 2.96844 -3.03593 0
M  V30 3163 O 300.685 2.44141 -2.59371 0
M  V30 3164 O 299.544 3.92476 -3.80296 0
M  V30 3165 H 296.638 0.61811 -0.549426 0
M  V30 3166 H 299.184 0.645429 -1.56947 0
M  V30 3167 H 297.956 1.79012 -3.47952 0
M  V30 3168 H 297.579 3.14676 -2.43032 0
M  V30 3169 N 298.576 1.31904 0.862503 0
M  V30 3170 C 299.824 1.21776 1.61292 0
M  V30 3171 C 300.145 -0.222413 1.93727 0
M  V30 3172 O 299.415 -1.1451 1.58947 0
M  V30 3173 H 297.995 0.447717 0.597962 0
M  V30 3174 H 300.657 1.65326 1.03215 0
M  V30 3175 H 299.753 1.7948 2.5533 0
M  V30 3176 N 300.054 -1.07777 1.14986 0
M  V30 3177 C 301.47 -1.32373 0.891596 0
M  V30 3178 C 301.67 -1.9609 -0.463788 0
M  V30 3179 O 300.726 -2.21801 -1.20667 0
M  V30 3180 C 302.039 -2.21905 2.02925 0
M  V30 3181 C 303.587 -2.35367 2.06329 0
M  V30 3182 C 304.062 -3.28245 3.19405 0
M  V30 3183 N 305.553 -3.35824 3.19024 0
M  V30 3184 C 306.288 -4.07739 4.03158 0
M  V30 3185 N 305.784 -4.82306 4.97346 0
M  V30 3186 N 307.577 -4.03635 3.91197 0
M  V30 3187 H 299.728 -0.648039 2.02273 0
M  V30 3188 H 301.991 -0.348149 0.881757 0
M  V30 3189 H 301.697 -1.82342 3.0074 0
M  V30 3190 H 301.571 -3.22407 1.95789 0
M  V30 3191 H 303.958 -2.74186 1.09116 0
M  V30 3192 H 304.039 -1.34585 2.17533 0
M  V30 3193 H 303.683 -2.90146 4.16867 0
M  V30 3194 H 303.613 -4.28971 3.05437 0
M  V30 3195 H 306.104 -2.8267 2.50811 0
M  V30 3196 H 306.417 -5.34661 5.57994 0
M  V30 3197 H 304.762 -4.81337 5.01338 0
M  V30 3198 H 307.953 -3.44491 3.16928 0
M  V30 3199 H 308.126 -4.59417 4.5699 0
M  V30 3200 N 301.532 -0.945985 -1.26051 0
M  V30 3201 C 302.78 -0.594941 -1.93145 0
M  V30 3202 C 303.101 0.86953 -1.7454 0
M  V30 3203 O 302.371 1.61838 -1.10387 0
M  V30 3204 H 300.951 -0.217044 -0.714773 0
M  V30 3205 H 303.613 -1.20235 -1.53393 0
M  V30 3206 H 302.709 -0.816835 -3.01221 0
M  V30 3207 N 303.011 1.40521 -0.713556 0
M  V30 3208 C 304.259 2.00527 -0.251692 0
M  V30 3209 C 304.58 1.56857 1.15848 0
M  V30 3210 O 303.85 0.807127 1.785 0
M  V30 3211 H 302.43 0.741551 -0.0900646 0
M  V30 3212 H 305.092 1.71887 -0.918733 0
M  V30 3213 H 304.188 3.10813 -0.283192 0
M  V30 3214 N 304.489 0.459591 1.5075 0
M  V30 3215 C 305.437 -0.354678 2.2988 0
M  V30 3216 C 306.431 -1.00086 1.36672 0
M  V30 3217 O 307.637 -0.933277 1.53915 0
M  V30 3218 H 304.012 -0.13321 0.740107 0
M  V30 3219 H 305.983 0.333269 2.96533 0
M  V30 3220 C 304.732 -1.43073 3.169 0
M  V30 3221 H 304.055 -0.942882 3.88523 0
M  V30 3222 H 305.495 -1.97328 3.75284 0
M  V30 3223 C 303.954 -2.42633 2.33732 0
M  V30 3224 O 304.484 -3.47658 2.01238 0
M  V30 3225 N 302.69 -2.14066 1.9653 0
M  V30 3226 H 302.237 -1.28685 2.23155 0
M  V30 3227 H 302.195 -2.80917 1.41185 0
M  V30 3228 N 305.967 -1.56429 0.191757 0
M  V30 3229 C 306.915 -2.20273 -0.747174 0
M  V30 3230 C 307.909 -1.17288 -1.22229 0
M  V30 3231 O 309.115 -1.35441 -1.18557 0
M  V30 3232 H 305.49 -0.705885 -0.259289 0
M  V30 3233 H 307.461 -2.97826 -0.184963 0
M  V30 3234 C 306.21 -2.87356 -1.95759 0
M  V30 3235 H 305.533 -3.66341 -1.60106 0
M  V30 3236 H 306.973 -3.3547 -2.59299 0
M  V30 3237 C 305.432 -1.88213 -2.79423 0
M  V30 3238 O 305.962 -1.38033 -3.7724 0
M  V30 3239 N 304.168 -1.56516 -2.44849 0
M  V30 3240 H 303.715 -1.97516 -1.65364 0
M  V30 3241 H 303.673 -0.904369 -3.01112 0
M  V30 3242 N 307.445 0.0818655 -1.57387 0
M  V30 3243 C 308.693 0.781368 -1.86384 0
M  V30 3244 C 309.014 1.78618 -0.782342 0
M  V30 3245 O 308.284 1.94976 0.190061 0
M  V30 3246 H 306.864 0.291562 -0.687751 0
M  V30 3247 H 309.526 0.060348 -1.94807 0
M  V30 3248 H 308.622 1.3038 -2.83562 0
M  V30 3249 N 308.923 1.53595 0.353017 0
M  V30 3250 C 310.171 1.70049 1.09215 0
M  V30 3251 C 310.492 0.461406 1.89463 0
M  V30 3252 O 309.762 -0.524633 1.88744 0
M  V30 3253 H 308.342 0.626912 0.40619 0
M  V30 3254 H 311.004 1.90822 0.396585 0
M  V30 3255 H 310.1 2.56718 1.77488 0
M  V30 3256 N 310.401 -0.613514 1.45168 0
M  V30 3257 C 311.647 -1.37471 1.49096 0
M  V30 3258 C 311.98 -1.93765 0.129901 0
M  V30 3259 O 311.255 -1.74707 -0.854858 0
M  V30 3260 C 311.538 -2.52701 2.56542 0
M  V30 3261 C 311.391 -2.01643 4.0207 0
M  V30 3262 C 312.71 -3.54849 2.60327 0
M  V30 3263 H 309.829 -0.498502 0.54283 0
M  V30 3264 H 312.471 -0.692125 1.76945 0
M  V30 3265 H 310.621 -3.10931 2.32926 0
M  V30 3266 H 312.293 -1.48108 4.36877 0
M  V30 3267 H 310.536 -1.32688 4.13009 0
M  V30 3268 H 311.207 -2.84681 4.72928 0
M  V30 3269 H 313.683 -3.0645 2.81474 0
M  V30 3270 H 312.559 -4.32973 3.37381 0
M  V30 3271 H 312.82 -4.10079 1.6519 0
M  V30 3272 N 311.879 -1.3236 -0.855495 0
M  V30 3273 C 313.104 -1.2601 -1.64731 0
M  V30 3274 C 313.529 0.169068 -1.87339 0
M  V30 3275 O 312.887 1.12016 -1.42556 0
M  V30 3276 C 312.935 -2.02417 -2.98429 0
M  V30 3277 O 312.039 -1.3714 -3.8893 0
M  V30 3278 H 311.38 -0.434325 -0.502253 0
M  V30 3279 H 313.91 -1.74661 -1.06558 0
M  V30 3280 H 313.92 -2.12559 -3.48257 0
M  V30 3281 H 312.595 -3.06343 -2.81295 0
M  V30 3282 H 311.172 -1.3554 -3.47395 0
M  V30 3283 N 313.357 1.07166 -1.15556 0
M  V30 3284 C 314.773 1.31899 -0.898603 0
M  V30 3285 C 314.973 1.96333 0.453383 0
M  V30 3286 O 314.029 2.22438 1.19489 0
M  V30 3287 C 315.342 2.20826 -2.04099 0
M  V30 3288 C 316.89 2.34269 -2.07574 0
M  V30 3289 C 317.365 3.26546 -3.21141 0
M  V30 3290 N 318.856 3.34127 -3.20801 0
M  V30 3291 C 319.591 4.05595 -4.05315 0
M  V30 3292 N 319.087 4.79661 -4.99897 0
M  V30 3293 N 320.88 4.01555 -3.93332 0
M  V30 3294 H 313.031 0.637302 -2.02613 0
M  V30 3295 H 315.294 0.343468 -0.883591 0
M  V30 3296 H 315 1.80744 -3.01703 0
M  V30 3297 H 314.874 3.21364 -1.97496 0
M  V30 3298 H 317.261 2.73603 -1.10568 0
M  V30 3299 H 317.342 1.33429 -2.18244 0
M  V30 3300 H 316.986 2.87931 -4.184 0
M  V30 3301 H 316.916 4.27345 -3.07708 0
M  V30 3302 H 319.407 2.81336 -2.52306 0
M  V30 3303 H 319.72 5.31694 -5.60822 0
M  V30 3304 H 318.065 4.78671 -5.03884 0
M  V30 3305 H 321.256 3.42806 -3.18751 0
M  V30 3306 H 321.429 4.56987 -4.5942 0
M  V30 3307 N 314.835 0.952656 1.25548 0
M  V30 3308 C 316.081 0.607272 1.93494 0
M  V30 3309 C 316.414 -0.853245 1.74452 0
M  V30 3310 O 315.689 -1.61194 1.08843 0
M  V30 3311 C 315.972 0.96435 3.46947 0
M  V30 3312 C 315.825 2.48045 3.75225 0
M  V30 3313 C 317.144 0.487987 4.37386 0
M  V30 3314 H 314.263 0.222096 0.702739 0
M  V30 3315 H 316.905 1.18895 1.48203 0
M  V30 3316 H 315.055 0.469361 3.85654 0
M  V30 3317 H 316.727 3.04905 3.46166 0
M  V30 3318 H 314.97 2.919 3.209 0
M  V30 3319 H 315.641 2.6808 4.82532 0
M  V30 3320 H 318.117 0.912558 4.0597 0
M  V30 3321 H 316.993 0.766547 5.43521 0
M  V30 3322 H 317.254 -0.612063 4.37843 0
M  V30 3323 N 316.313 -1.40141 0.720998 0
M  V30 3324 C 317.538 -2.05618 0.271258 0
M  V30 3325 C 317.963 -1.53978 -1.08039 0
M  V30 3326 O 317.321 -0.677463 -1.68167 0
M  V30 3327 C 317.369 -3.59609 0.267197 0
M  V30 3328 O 316.473 -4.05526 -0.749814 0
M  V30 3329 H 315.814 -0.651904 0.126162 0
M  V30 3330 H 318.344 -1.79439 0.982997 0
M  V30 3331 H 318.354 -4.0786 0.106744 0
M  V30 3332 H 317.029 -3.96559 1.25354 0
M  V30 3333 H 315.606 -3.68722 -0.556644 0
M  V30 3334 N 317.792 -0.46758 -1.50504 0
M  V30 3335 C 319.203 -0.0116166 -1.86696 0
M  V30 3336 C 319.554 1.39202 -1.38265 0
M  V30 3337 O 318.679 2.0313 -0.746132 0
M  V30 3338 C 319.274 -0.0143044 -3.38797 0
M  V30 3339 C 317.833 0.386175 -3.74414 0
M  V30 3340 C 316.98 -0.401287 -2.74381 0
M  V30 3341 H 319.931 -0.682022 -1.43297 0
M  V30 3342 H 319.952 0.788641 -3.72237 0
M  V30 3343 H 319.464 -1.03602 -3.74016 0
M  V30 3344 H 317.565 1.41237 -3.44794 0
M  V30 3345 H 317.678 0.0899596 -4.79016 0
M  V30 3346 H 316.042 0.144536 -2.5429 0
M  V30 3347 H 316.825 -1.42244 -3.12444 0
M  V30 3348 N 319.27 1.56325 -0.20005 0
M  V30 3349 C 320.516 1.98012 0.438059 0
M  V30 3350 C 320.849 1.08702 1.60927 0
M  V30 3351 O 320.124 0.140064 1.93995 0
M  V30 3352 C 320.407 3.48841 0.893419 0
M  V30 3353 C 320.26 4.48928 -0.279947 0
M  V30 3354 C 321.579 4.03498 1.75719 0
M  V30 3355 H 318.698 0.719918 0.157757 0
M  V30 3356 H 321.34 1.87743 -0.291968 0
M  V30 3357 H 319.49 3.57723 1.51547 0
M  V30 3358 H 321.162 4.52079 -0.91772 0
M  V30 3359 H 319.405 4.23694 -0.930919 0
M  V30 3360 H 320.076 5.5194 0.0812601 0
M  V30 3361 H 322.552 3.97427 1.23253 0
M  V30 3362 H 321.428 5.09393 2.04476 0
M  V30 3363 H 321.689 3.4906 2.71311 0
M  V30 3364 N 320.748 -0.0735177 1.57428 0
M  V30 3365 C 321.973 -0.789787 1.91774 0
M  V30 3366 C 322.398 -1.70413 0.796306 0
M  V30 3367 O 321.756 -1.79555 -0.250961 0
M  V30 3368 C 321.804 -1.5609 3.25067 0
M  V30 3369 O 320.908 -2.67144 3.14178 0
M  V30 3370 H 320.249 -0.215582 0.628029 0
M  V30 3371 H 322.779 -0.0422781 2.04556 0
M  V30 3372 H 322.789 -1.94052 3.58898 0
M  V30 3373 H 321.464 -0.890015 4.06265 0
M  V30 3374 H 320.041 -2.32052 2.91901 0
M  V30 3375 N 322.226 -1.5378 -0.344866 0
M  V30 3376 C 323.642 -1.44015 -0.687888 0
M  V30 3377 C 323.842 -0.595834 -1.92489 0
M  V30 3378 O 322.898 -0.0863064 -2.52352 0
M  V30 3379 C 324.211 -2.87481 -0.881758 0
M  V30 3380 C 325.759 -2.97247 -0.980459 0
M  V30 3381 C 326.234 -4.41819 -1.20665 0
M  V30 3382 N 327.725 -4.45339 -1.27389 0
M  V30 3383 C 328.46 -5.54333 -1.46639 0
M  V30 3384 N 327.956 -6.73335 -1.63071 0
M  V30 3385 N 329.749 -5.41944 -1.49176 0
M  V30 3386 H 321.9 -2.07169 0.468475 0
M  V30 3387 H 324.163 -0.93643 0.147655 0
M  V30 3388 H 323.869 -3.51672 -0.0443444 0
M  V30 3389 H 323.743 -3.32352 -1.78388 0
M  V30 3390 H 326.13 -2.33197 -1.8084 0
M  V30 3391 H 326.211 -2.5574 -0.0552713 0
M  V30 3392 H 325.855 -5.06449 -0.383652 0
M  V30 3393 H 325.785 -4.80917 -2.14539 0
M  V30 3394 H 328.276 -3.59585 -1.1622 0
M  V30 3395 H 328.589 -7.52165 -1.77391 0
M  V30 3396 H 326.934 -6.76282 -1.60209 0
M  V30 3397 H 330.125 -4.47932 -1.3592 0
M  V30 3398 H 330.298 -6.26946 -1.63837 0
M  V30 3399 N 323.704 0.605807 -1.45491 0
M  V30 3400 C 324.952 1.36207 -1.49305 0
M  V30 3401 C 325.273 1.94519 -0.136863 0
M  V30 3402 O 324.543 1.77261 0.833983 0
M  V30 3403 H 323.123 0.50565 -0.549843 0
M  V30 3404 H 325.785 0.711239 -1.81459 0
M  V30 3405 H 324.881 2.18058 -2.23287 0
M  V30 3406 N 325.182 1.32811 0.848464 0
M  V30 3407 C 326.407 1.26882 1.6406 0
M  V30 3408 C 326.832 -0.15913 1.87426 0
M  V30 3409 O 326.19 -1.11258 1.43148 0
M  V30 3410 C 326.238 2.03997 2.97351 0
M  V30 3411 O 325.342 1.39201 3.88197 0
M  V30 3412 H 324.683 0.436982 0.499943 0
M  V30 3413 H 327.213 1.75224 1.0563 0
M  V30 3414 H 327.223 2.14403 3.47124 0
M  V30 3415 H 325.898 3.0783 2.79666 0
M  V30 3416 H 324.475 1.37381 3.46671 0
M  V30 3417 N 326.66 -1.06551 1.16123 0
M  V30 3418 C 327.592 -2.13908 0.823171 0
M  V30 3419 C 328.605 -1.61926 -0.16843 0
M  V30 3420 O 329.794 -1.78412 0.055962 0
M  V30 3421 C 326.894 -3.38283 0.204424 0
M  V30 3422 C 326.067 -4.19589 1.23548 0
M  V30 3423 C 325.126 -5.2233 0.637011 0
M  V30 3424 O 324.152 -5.54034 1.30516 0
M  V30 3425 N 325.354 -5.77621 -0.577474 0
M  V30 3426 H 328.119 -2.43508 1.74711 0
M  V30 3427 H 325.68 -1.2253 1.05821 0
M  V30 3428 H 327.672 -4.0416 -0.208909 0
M  V30 3429 H 326.242 -3.06329 -0.623012 0
M  V30 3430 H 325.462 -3.49406 1.82507 0
M  V30 3431 H 326.75 -4.70718 1.93137 0
M  V30 3432 H 326.148 -5.54125 -1.13853 0
M  V30 3433 H 324.705 -6.45087 -0.933053 0
M  V30 3434 N 328.138 -0.959301 -1.25041 0
M  V30 3435 C 329.048 -0.489994 -2.29426 0
M  V30 3436 C 330.064 0.444944 -1.68215 0
M  V30 3437 O 331.24 0.320046 -1.98841 0
M  V30 3438 C 328.305 0.220309 -3.45999 0
M  V30 3439 C 327.366 -0.753418 -4.22637 0
M  V30 3440 C 326.599 -0.076918 -5.33645 0
M  V30 3441 O 326.822 1.13649 -5.58963 0
M  V30 3442 O 325.756 -0.764824 -5.97021 0
M  V30 3443 H 329.582 -1.35755 -2.71669 0
M  V30 3444 H 327.167 -0.725961 -1.30576 0
M  V30 3445 H 329.049 0.619677 -4.16819 0
M  V30 3446 H 327.724 1.06296 -3.0575 0
M  V30 3447 H 326.631 -1.20308 -3.54227 0
M  V30 3448 H 327.964 -1.56423 -4.66683 0
M  V30 3449 N 329.616 1.39756 -0.72842 0
M  V30 3450 C 330.526 2.34444 -0.0855374 0
M  V30 3451 C 331.542 1.57976 0.729356 0
M  V30 3452 O 332.718 1.90301 0.659346 0
M  V30 3453 C 329.783 3.36965 0.815798 0
M  V30 3454 C 328.844 4.29299 -0.0105996 0
M  V30 3455 C 328.077 5.26923 0.84781 0
M  V30 3456 O 328.3 5.30859 2.08673 0
M  V30 3457 O 327.234 6.01249 0.279969 0
M  V30 3458 H 331.06 2.91065 -0.866892 0
M  V30 3459 H 328.645 1.4117 -0.48902 0
M  V30 3460 H 330.527 3.99804 1.33171 0
M  V30 3461 H 329.202 2.82739 1.57608 0
M  V30 3462 H 328.109 3.69703 -0.571877 0
M  V30 3463 H 329.442 4.86712 -0.73295 0
M  V30 3464 N 331.094 0.475555 1.50254 0
M  V30 3465 C 332.004 -0.321501 2.32387 0
M  V30 3466 C 333.02 -0.991755 1.42969 0
M  V30 3467 O 334.196 -0.978747 1.76018 0
M  V30 3468 C 331.261 -1.38667 3.17762 0
M  V30 3469 C 330.322 -0.732538 4.23004 0
M  V30 3470 C 329.555 -1.74695 5.04299 0
M  V30 3471 O 329.778 -2.97399 4.86734 0
M  V30 3472 O 328.712 -1.31631 5.8733 0
M  V30 3473 H 332.538 0.350071 3.01676 0
M  V30 3474 H 330.123 0.237321 1.47503 0
M  V30 3475 H 332.005 -2.00354 3.70724 0
M  V30 3476 H 330.68 -2.04163 2.51196 0
M  V30 3477 H 329.587 -0.0765902 3.74022 0
M  V30 3478 H 330.92 -0.120452 4.92053 0
M  V30 3479 N 332.573 -1.56217 0.208337 0
M  V30 3480 C 333.483 -2.23316 -0.718836 0
M  V30 3481 C 334.499 -1.23648 -1.22422 0
M  V30 3482 O 335.675 -1.56423 -1.26861 0
M  V30 3483 C 332.74 -2.88968 -1.91568 0
M  V30 3484 C 331.801 -4.03943 -1.45357 0
M  V30 3485 C 331.034 -4.66455 -2.59337 0
M  V30 3486 O 331.257 -4.27919 -3.77149 0
M  V30 3487 O 330.191 -5.55686 -2.31293 0
M  V30 3488 H 334.017 -3.03182 -0.177315 0
M  V30 3489 H 331.602 -1.49384 -0.0215402 0
M  V30 3490 H 333.484 -3.30455 -2.61491 0
M  V30 3491 H 332.159 -2.12071 -2.44556 0
M  V30 3492 H 331.066 -3.67052 -0.722746 0
M  V30 3493 H 332.399 -4.82543 -0.970219 0
M  V30 3494 N 334.051 0.0651679 -1.57465 0
M  V30 3495 C 335.328 0.79644 -1.78651 0
M  V30 3496 C 335.708 1.95454 -0.797566 0
M  V30 3497 O 335.056 2.27882 0.167946 0
M  V30 3498 C 335.266 1.26322 -3.25337 0
M  V30 3499 C 336.614 1.6939 -3.89348 0
M  V30 3500 O 337.638 1.35872 -3.29268 0
M  V30 3501 O 336.497 2.31471 -4.95059 0
M  V30 3502 H 333.591 0.382157 -0.733407 0
M  V30 3503 H 336.137 0.0447311 -1.69641 0
M  V30 3504 H 334.909 0.434859 -3.88876 0
M  V30 3505 H 334.532 2.07604 -3.39096 0
M  V30 3506 N 335.529 1.53961 0.336706 0
M  V30 3507 C 336.439 1.85432 1.43708 0
M  V30 3508 C 337.455 0.745053 1.57242 0
M  V30 3509 O 338.631 1.03804 1.72588 0
M  V30 3510 C 335.696 2.06349 2.78605 0
M  V30 3511 C 334.757 3.30191 2.74358 0
M  V30 3512 C 333.99 3.50101 4.02822 0
M  V30 3513 O 334.213 2.7371 5.00439 0
M  V30 3514 O 333.147 4.43547 4.06878 0
M  V30 3515 H 336.973 2.78975 1.20028 0
M  V30 3516 H 334.558 1.39701 0.52952 0
M  V30 3517 H 336.44 2.21513 3.58483 0
M  V30 3518 H 335.115 1.15995 3.02203 0
M  V30 3519 H 334.022 3.20425 1.93078 0
M  V30 3520 H 335.355 4.2056 2.55715 0
M  V30 3521 N 337.007 -0.598083 1.45811 0
M  V30 3522 C 338.284 -1.35777 1.40797 0
M  V30 3523 C 338.664 -2.10935 0.083462 0
M  V30 3524 O 338.012 -2.08505 -0.934763 0
M  V30 3525 C 338.222 -2.29666 2.62783 0
M  V30 3526 C 339.57 -2.91977 3.08277 0
M  V30 3527 O 340.594 -2.39984 2.63223 0
M  V30 3528 O 339.453 -3.86376 3.86491 0
M  V30 3529 H 336.547 -0.609291 0.55919 0
M  V30 3530 H 339.093 -0.620379 1.57954 0
M  V30 3531 H 337.865 -1.73454 3.50756 0
M  V30 3532 H 337.488 -3.1077 2.48008 0
M  V30 3533 N 338.485 -1.33259 -0.841409 0
M  V30 3534 C 339.762 -1.15174 -1.58096 0
M  V30 3535 C 340.142 0.282858 -2.09196 0
M  V30 3536 O 339.49 1.28151 -1.89181 0
M  V30 3537 C 339.7 -2.1907 -2.71679 0
M  V30 3538 C 341.048 -2.53093 -3.40924 0
M  V30 3539 O 342.072 -2.17717 -2.81918 0
M  V30 3540 O 340.931 -3.1379 -4.47435 0
M  V30 3541 H 338.025 -0.445303 -0.696875 0
M  V30 3542 H 340.571 -1.44833 -0.884385 0
M  V30 3543 H 339.343 -3.15443 -2.31541 0
M  V30 3544 H 338.966 -1.90481 -3.49002 0
M  V30 3545 N 339.963 1.05934 -1.16686 0
M  V30 3546 C 341.188 1.83029 -0.975455 0
M  V30 3547 C 341.613 1.82096 0.471452 0
M  V30 3548 O 340.971 1.22443 1.33706 0
M  V30 3549 C 341.019 3.27372 -1.51195 0
M  V30 3550 O 340.123 4.06054 -0.720701 0
M  V30 3551 H 339.464 0.566194 -0.346872 0
M  V30 3552 H 341.994 1.33541 -1.55009 0
M  V30 3553 H 342.004 3.78186 -1.53099 0
M  V30 3554 H 340.679 3.27366 -2.56523 0
M  V30 3555 H 339.256 3.64812 -0.772458 0
M  V30 3556 N 341.441 0.965919 1.2453 0
M  V30 3557 C 342.671 0.643451 1.96324 0
M  V30 3558 C 343.079 -0.790927 1.71875 0
M  V30 3559 O 342.422 -1.54208 0.998273 0
M  V30 3560 C 342.484 0.836078 3.49643 0
M  V30 3561 C 342.148 2.24975 3.97788 0
M  V30 3562 C 343.145 3.22735 4.07601 0
M  V30 3563 C 340.83 2.57697 4.31158 0
M  V30 3564 C 342.824 4.51303 4.50116 0
M  V30 3565 C 340.511 3.86492 4.73357 0
M  V30 3566 C 341.509 4.83107 4.828 0
M  V30 3567 O 341.197 6.09605 5.24058 0
M  V30 3568 H 340.929 0.239223 0.632257 0
M  V30 3569 H 343.483 1.29587 1.59362 0
M  V30 3570 H 341.713 0.12649 3.86493 0
M  V30 3571 H 343.402 0.512965 4.02646 0
M  V30 3572 H 344.168 2.98783 3.82039 0
M  V30 3573 H 340.047 1.83216 4.23028 0
M  V30 3574 H 343.591 5.26716 4.57401 0
M  V30 3575 H 339.488 4.10245 4.98366 0
M  V30 3576 H 340.256 6.13146 5.42213 0
M  V30 3577 N 342.919 -1.39368 0.735821 0
M  V30 3578 C 344.147 -2.04795 0.294393 0
M  V30 3579 C 344.562 -1.55478 -1.07107 0
M  V30 3580 O 343.919 -0.720038 -1.67695 0
M  V30 3581 C 343.97 -3.6035 0.288071 0
M  V30 3582 O 343.691 -4.07852 1.59963 0
M  V30 3583 C 345.192 -4.42976 -0.169422 0
M  V30 3584 H 342.412 -0.658571 0.128551 0
M  V30 3585 H 344.956 -1.78399 0.999701 0
M  V30 3586 H 343.111 -3.85645 -0.368355 0
M  V30 3587 H 343.525 -5.02181 1.51375 0
M  V30 3588 H 344.999 -5.51864 -0.122687 0
M  V30 3589 H 345.476 -4.22068 -1.21472 0
M  V30 3590 H 346.082 -4.22832 0.457469 0
M  V30 3591 N 344.397 -0.483516 -1.5 0
M  V30 3592 C 345.644 0.0671597 -2.02389 0
M  V30 3593 C 345.972 1.38597 -1.36459 0
M  V30 3594 O 345.227 1.89634 -0.483458 0
M  V30 3595 C 345.526 0.286226 -3.56252 0
M  V30 3596 C 345.192 -0.952416 -4.40726 0
M  V30 3597 C 343.854 -1.29199 -4.63531 0
M  V30 3598 C 346.206 -1.77655 -4.89988 0
M  V30 3599 C 343.534 -2.45553 -5.32842 0
M  V30 3600 C 345.886 -2.93147 -5.60578 0
M  V30 3601 C 344.55 -3.27505 -5.81633 0
M  V30 3602 H 343.82 0.0245755 -0.740592 0
M  V30 3603 H 346.467 -0.640124 -1.80485 0
M  V30 3604 H 344.772 1.07587 -3.76739 0
M  V30 3605 H 346.469 0.726473 -3.94365 0
M  V30 3606 H 343.059 -0.677881 -4.23205 0
M  V30 3607 H 347.243 -1.52737 -4.72213 0
M  V30 3608 H 342.499 -2.72431 -5.47349 0
M  V30 3609 H 346.673 -3.57344 -5.97727 0
M  V30 3610 H 344.3 -4.1777 -6.35116 0
M  V30 3611 N 345.875 1.56104 -0.216619 0
M  V30 3612 C 346.825 2.16703 0.708798 0
M  V30 3613 C 347.809 1.11392 1.16106 0
M  V30 3614 O 349.001 1.37395 1.11587 0
M  V30 3615 C 346.13 2.84666 1.91886 0
M  V30 3616 C 345.216 3.97195 1.48651 0
M  V30 3617 N 345.607 4.99959 0.766434 0
M  V30 3618 C 343.905 4.09193 1.77418 0
M  V30 3619 C 344.606 5.79126 0.546659 0
M  V30 3620 N 343.582 5.32315 1.10188 0
M  V30 3621 H 347.384 2.93516 0.150162 0
M  V30 3622 H 344.898 1.6239 -0.0176768 0
M  V30 3623 H 346.895 3.26486 2.59253 0
M  V30 3624 H 345.555 2.09347 2.48202 0
M  V30 3625 H 346.566 5.16197 0.419634 0
M  V30 3626 H 343.243 3.45021 2.35088 0
M  V30 3627 H 344.633 6.71895 -0.026103 0
M  V30 3628 N 347.353 -0.0568162 1.57498 0
M  V30 3629 C 348.303 -1.07315 2.01166 0
M  V30 3630 C 349.287 -1.33632 0.896171 0
M  V30 3631 O 350.479 -1.33682 1.16009 0
M  V30 3632 C 347.608 -2.38257 2.47161 0
M  V30 3633 C 346.694 -2.1515 3.65474 0
M  V30 3634 N 347.085 -1.62014 4.7915 0
M  V30 3635 C 345.383 -2.45559 3.72313 0
M  V30 3636 C 346.084 -1.54069 5.60926 0
M  V30 3637 N 345.06 -2.00652 5.05213 0
M  V30 3638 H 348.862 -0.655878 2.86488 0
M  V30 3639 H 346.376 -0.263635 1.60246 0
M  V30 3640 H 348.373 -3.11845 2.76691 0
M  V30 3641 H 347.033 -2.80687 1.63232 0
M  V30 3642 H 348.044 -1.30667 5.01145 0
M  V30 3643 H 344.721 -2.91253 2.99129 0
M  V30 3644 H 346.111 -1.13712 6.62208 0
M  V30 3645 N 348.832 -1.54138 -0.328536 0
M  V30 3646 C 350.08 -1.71765 -1.06496 0
M  V30 3647 C 350.401 -0.49149 -1.88704 0
M  V30 3648 O 349.671 0.494539 -1.89555 0
M  V30 3649 H 348.251 -0.633295 -0.396164 0
M  V30 3650 H 350.913 -1.91429 -0.366176 0
M  V30 3651 H 350.009 -2.5951 -1.73381 0
M  V30 3652 N 350.31 0.590341 -1.46126 0
M  V30 3653 C 351.559 1.34499 -1.50309 0
M  V30 3654 C 351.872 1.94977 -0.156021 0
M  V30 3655 O 353.078 2.71395 -0.0756037 0
M  V30 3656 C 351.534 2.43723 -2.64815 0
M  V30 3657 C 351.142 1.89582 -4.0591 0
M  V30 3658 C 352.886 3.20579 -2.78262 0
M  V30 3659 C 350.793 2.9639 -5.11769 0
M  V30 3660 H 349.723 0.505593 -0.559368 0
M  V30 3661 H 352.374 0.630848 -1.72315 0
M  V30 3662 H 350.756 3.17902 -2.36124 0
M  V30 3663 H 351.93 1.21997 -4.44357 0
M  V30 3664 H 350.245 1.25418 -3.97063 0
M  V30 3665 H 352.842 4.00276 -3.54519 0
M  V30 3666 H 353.185 3.72684 -1.85505 0
M  V30 3667 H 353.718 2.53505 -3.06562 0
M  V30 3668 H 350.457 2.49181 -6.06291 0
M  V30 3669 H 349.977 3.62487 -4.77873 0
M  V30 3670 H 351.656 3.60474 -5.37278 0
M  V30 3671 N 351.788 1.33704 0.83433 0
M  V30 3672 C 353.016 1.28467 1.62185 0
M  V30 3673 C 353.431 -0.143526 1.88254 0
M  V30 3674 O 352.788 -1.08709 1.4659 0
M  V30 3675 C 352.839 2.06174 2.96942 0
M  V30 3676 O 352.56 3.43422 2.72016 0
M  V30 3677 C 354.061 2.08201 3.91366 0
M  V30 3678 H 351.281 0.4424 0.504503 0
M  V30 3679 H 353.825 1.76145 1.03891 0
M  V30 3680 H 351.98 1.62167 3.51825 0
M  V30 3681 H 352.394 3.83453 3.57861 0
M  V30 3682 H 353.868 2.67017 4.83121 0
M  V30 3683 H 354.345 1.07343 4.2588 0
M  V30 3684 H 354.951 2.52246 3.42421 0
M  V30 3685 N 353.266 -1.05314 1.17247 0
M  V30 3686 C 354.677 -1.59753 0.96623 0
M  V30 3687 C 355.028 -1.9005 -0.487378 0
M  V30 3688 O 354.153 -1.68126 -1.36245 0
M  V30 3689 C 354.748 -2.90249 1.74759 0
M  V30 3690 C 353.307 -3.41352 1.58606 0
M  V30 3691 C 352.454 -2.15103 1.75002 0
M  V30 3692 H 355.405 -0.881406 1.31973 0
M  V30 3693 H 355.426 -3.60097 1.22925 0
M  V30 3694 H 354.938 -2.68166 2.8055 0
M  V30 3695 H 353.039 -3.68474 0.552985 0
M  V30 3696 H 353.152 -4.16019 2.37624 0
M  V30 3697 H 351.516 -2.25804 1.17833 0
M  V30 3698 H 352.299 -1.95491 2.82202 0
M  V30 3699 N 354.744 -0.972509 -1.24016 0
M  V30 3700 C 355.992 -0.635776 -1.91839 0
M  V30 3701 C 356.313 0.832312 -1.76345 0
M  V30 3702 O 355.583 1.5946 -1.13795 0
M  V30 3703 H 354.163 -0.232157 -0.710009 0
M  V30 3704 H 356.825 -1.23462 -1.50809 0
M  V30 3705 H 355.921 -0.880545 -2.99421 0
M  V30 3706 N 356.222 1.38976 -0.743202 0
M  V30 3707 C 357.132 2.3434 -0.110399 0
M  V30 3708 C 358.148 1.58741 0.712559 0
M  V30 3709 O 359.324 1.9099 0.639125 0
M  V30 3710 C 356.389 3.37812 0.780012 0
M  V30 3711 C 355.45 4.29263 -0.0561319 0
M  V30 3712 C 354.683 5.27793 0.791875 0
M  V30 3713 O 354.906 5.33043 2.03031 0
M  V30 3714 O 353.84 6.01512 0.216183 0
M  V30 3715 H 357.666 2.90129 -0.897714 0
M  V30 3716 H 355.251 1.40643 -0.503966 0
M  V30 3717 H 357.133 4.01194 1.28923 0
M  V30 3718 H 355.808 2.84395 1.546 0
M  V30 3719 H 354.715 3.69076 -0.611056 0
M  V30 3720 H 356.048 4.85907 -0.784531 0
M  V30 3721 N 357.7 0.491464 1.49741 0
M  V30 3722 C 358.633 -0.338464 2.25676 0
M  V30 3723 C 359.611 -0.978676 1.29849 0
M  V30 3724 O 360.795 -1.01064 1.59117 0
M  V30 3725 C 357.922 -1.47588 3.04853 0
M  V30 3726 C 356.968 -0.951 4.15762 0
M  V30 3727 S 357.801 0.150626 5.35288 0
M  V30 3728 C 358.957 -0.990178 6.18018 0
M  V30 3729 H 359.19 0.306068 2.9572 0
M  V30 3730 H 356.723 0.276622 1.51902 0
M  V30 3731 H 358.681 -2.12764 3.51058 0
M  V30 3732 H 357.342 -2.09199 2.34296 0
M  V30 3733 H 356.535 -1.80311 4.70642 0
M  V30 3734 H 356.137 -0.376607 3.72099 0
M  V30 3735 H 358.429 -1.89748 6.50386 0
M  V30 3736 H 359.372 -0.480205 7.0647 0
M  V30 3737 H 359.78 -1.25321 5.50413 0
M  V30 3738 N 359.178 -1.55987 0.224894 0
M  V30 3739 C 360.426 -1.97998 -0.405099 0
M  V30 3740 C 360.747 -1.11387 -1.60056 0
M  V30 3741 O 360.017 -0.191645 -1.9496 0
M  V30 3742 H 358.597 -0.731235 -0.152658 0
M  V30 3743 H 361.259 -1.92279 0.318567 0
M  V30 3744 H 360.355 -3.03463 -0.729167 0
M  V30 3745 N 360.656 0.0484629 -1.57525 0
M  V30 3746 C 361.884 0.755421 -1.92616 0
M  V30 3747 C 362.299 1.69919 -0.822984 0
M  V30 3748 O 361.656 1.81378 0.202085 0
M  V30 3749 C 361.707 1.52915 -3.27566 0
M  V30 3750 O 361.428 0.62329 -4.33644 0
M  V30 3751 C 362.929 2.33502 -3.76818 0
M  V30 3752 H 360.149 0.213465 -0.63614 0
M  V30 3753 H 362.693 0.0117698 -2.04497 0
M  V30 3754 H 360.848 2.22486 -3.17142 0
M  V30 3755 H 361.262 1.16383 -5.11425 0
M  V30 3756 H 362.736 2.83214 -4.73808 0
M  V30 3757 H 363.213 3.14068 -3.07014 0
M  V30 3758 H 363.819 1.69043 -3.90262 0
M  V30 3759 N 362.134 1.5431 0.320358 0
M  V30 3760 C 363.382 1.72327 1.05583 0
M  V30 3761 C 363.703 0.50149 1.88441 0
M  V30 3762 O 362.973 -0.48448 1.89815 0
M  V30 3763 H 361.553 0.635387 0.3928 0
M  V30 3764 H 364.215 1.91621 0.356019 0
M  V30 3765 H 363.311 2.60426 1.72003 0
M  V30 3766 N 363.613 -0.582584 1.46437 0
M  V30 3767 C 364.861 -1.33814 1.51453 0
M  V30 3768 C 365.182 -1.94277 0.167792 0
M  V30 3769 O 364.452 -1.78566 -0.805677 0
M  V30 3770 H 363.032 -0.496838 0.557818 0
M  V30 3771 H 365.694 -0.682281 1.82568 0
M  V30 3772 H 364.79 -2.14479 2.26728 0
M  V30 3773 N 365.091 -1.34144 -0.827227 0
M  V30 3774 C 366.316 -1.29476 -1.62021 0
M  V30 3775 C 366.741 0.129292 -1.87655 0
M  V30 3776 O 366.099 1.08967 -1.449 0
M  V30 3777 C 366.147 -2.08702 -2.94068 0
M  V30 3778 O 365.251 -1.45359 -3.85933 0
M  V30 3779 H 364.592 -0.444881 -0.492927 0
M  V30 3780 H 367.122 -1.76882 -1.02829 0
M  V30 3781 H 367.132 -2.19898 -3.43669 0
M  V30 3782 H 365.807 -3.12241 -2.74734 0
M  V30 3783 H 364.384 -1.42879 -3.44442 0
M  V30 3784 N 366.569 1.04691 -1.17803 0
M  V30 3785 C 367.794 1.81984 -0.994813 0
M  V30 3786 C 368.219 1.82586 0.452112 0
M  V30 3787 O 367.577 1.23854 1.324 0
M  V30 3788 C 367.625 3.2575 -1.54659 0
M  V30 3789 O 366.729 4.05267 -0.763728 0
M  V30 3790 H 366.07 0.562483 -0.352857 0
M  V30 3791 H 368.6 1.3189 -1.56417 0
M  V30 3792 H 368.61 3.76541 -1.57102 0
M  V30 3793 H 367.285 3.24627 -2.59981 0
M  V30 3794 H 365.862 3.63972 -0.811108 0
M  V30 3795 N 368.047 0.979072 1.23499 0
M  V30 3796 C 369.272 0.664845 1.96455 0
M  V30 3797 C 369.697 -0.761287 1.72006 0
M  V30 3798 O 369.055 -1.51837 0.990713 0
M  V30 3799 C 369.103 0.959479 3.47601 0
M  V30 3800 O 368.207 0.0508168 4.12369 0
M  V30 3801 H 367.548 0.250185 0.615064 0
M  V30 3802 H 370.078 1.31231 1.5697 0
M  V30 3803 H 370.088 0.895642 3.98048 0
M  V30 3804 H 368.763 1.99876 3.64723 0
M  V30 3805 H 367.34 0.16895 3.72517 0
M  V30 3806 N 369.525 -1.3858 0.750561 0
M  V30 3807 C 370.455 -2.33102 0.136237 0
M  V30 3808 C 371.436 -1.54713 -0.706965 0
M  V30 3809 O 372.621 -1.83043 -0.648769 0
M  V30 3810 C 369.751 -3.38882 -0.760017 0
M  V30 3811 C 368.705 -4.27995 -0.0197785 0
M  V30 3812 C 368.031 -5.24605 -1.03408 0
M  V30 3813 C 369.331 -5.09554 1.14684 0
M  V30 3814 H 371.025 -2.84726 0.925822 0
M  V30 3815 H 368.571 -1.36898 0.446654 0
M  V30 3816 H 370.524 -4.0397 -1.19943 0
M  V30 3817 H 369.248 -2.85734 -1.58189 0
M  V30 3818 H 367.907 -3.64409 0.400184 0
M  V30 3819 H 367.555 -4.67746 -1.84994 0
M  V30 3820 H 367.255 -5.85081 -0.543464 0
M  V30 3821 H 368.779 -5.9257 -1.47288 0
M  V30 3822 H 370.193 -5.67899 0.785118 0
M  V30 3823 H 368.59 -5.7925 1.56812 0
M  V30 3824 H 369.66 -4.4347 1.96118 0
M  V30 3825 N 371.003 -0.499398 -1.49478 0
M  V30 3826 C 372.228 0.044722 -2.07352 0
M  V30 3827 C 372.653 1.30207 -1.35749 0
M  V30 3828 O 372.011 1.76516 -0.413732 0
M  V30 3829 C 372.059 0.283013 -3.59488 0
M  V30 3830 O 371.163 1.35804 -3.89398 0
M  V30 3831 H 370.504 -0.0255147 -0.66351 0
M  V30 3832 H 373.034 -0.698561 -1.92305 0
M  V30 3833 H 373.044 0.515007 -4.04737 0
M  V30 3834 H 371.719 -0.635636 -4.11014 0
M  V30 3835 H 370.296 1.11113 -3.55961 0
M  V30 3836 N 372.481 1.55866 -0.233164 0
M  V30 3837 C 373.709 2.02998 0.399905 0
M  V30 3838 C 374.124 1.11274 1.52524 0
M  V30 3839 O 373.481 0.124528 1.82075 0
M  V30 3840 C 373.532 3.4958 0.920639 0
M  V30 3841 O 373.253 4.37808 -0.159834 0
M  V30 3842 C 374.754 4.12411 1.62578 0
M  V30 3843 H 371.974 0.664006 0.0966281 0
M  V30 3844 H 374.518 2.0143 -0.353013 0
M  V30 3845 H 372.673 3.51727 1.62379 0
M  V30 3846 H 373.087 5.23981 0.23337 0
M  V30 3847 H 374.561 5.16711 1.94201 0
M  V30 3848 H 375.038 3.5809 2.54299 0
M  V30 3849 H 375.644 4.14148 0.967553 0
M  V30 3850 N 373.959 -0.0401083 1.57549 0
M  V30 3851 C 374.889 -1.04384 2.08869 0
M  V30 3852 C 375.87 -1.38407 0.988817 0
M  V30 3853 O 377.055 -1.47483 1.26342 0
M  V30 3854 C 374.185 -2.34808 2.55895 0
M  V30 3855 C 373.139 -2.15057 3.70047 0
M  V30 3856 C 372.465 -3.51145 4.03239 0
M  V30 3857 C 373.765 -1.54576 4.98902 0
M  V30 3858 H 375.459 -0.616666 2.92981 0
M  V30 3859 H 373.005 -0.295184 1.40942 0
M  V30 3860 H 374.958 -3.05346 2.90417 0
M  V30 3861 H 373.682 -2.79565 1.68853 0
M  V30 3862 H 372.341 -1.46954 3.35857 0
M  V30 3863 H 371.989 -3.93529 3.13279 0
M  V30 3864 H 371.689 -3.38758 4.80122 0
M  V30 3865 H 373.213 -4.23062 4.40285 0
M  V30 3866 H 374.627 -2.15017 5.31451 0
M  V30 3867 H 373.024 -1.52796 5.80322 0
M  V30 3868 H 374.094 -0.51039 4.82206 0
M  V30 3869 N 375.437 -1.54477 -0.31217 0
M  V30 3870 C 376.685 -1.72884 -1.04668 0
M  V30 3871 C 377.006 -0.511477 -1.88173 0
M  V30 3872 O 376.276 0.474407 -1.90069 0
M  V30 3873 H 374.856 -0.637461 -0.389425 0
M  V30 3874 H 377.518 -1.91807 -0.345852 0
M  V30 3875 H 376.614 -2.61334 -1.70619 0
M  V30 3876 N 376.915 0.57481 -1.46744 0
M  V30 3877 C 378.163 1.33009 -1.52161 0
M  V30 3878 C 378.484 1.94185 -0.178092 0
M  V30 3879 O 377.754 1.7899 0.796196 0
M  V30 3880 H 376.334 0.493873 -0.560445 0
M  V30 3881 H 378.996 0.672589 -1.82927 0
M  V30 3882 H 378.092 2.13273 -2.27862 0
M  V30 3883 N 378.394 1.34581 0.820102 0
M  V30 3884 C 379.619 1.30333 1.61332 0
M  V30 3885 C 380.044 -0.119339 1.87721 0
M  V30 3886 O 379.402 -1.08197 1.45475 0
M  V30 3887 C 379.45 2.10258 2.92957 0
M  V30 3888 O 378.554 1.47404 3.85157 0
M  V30 3889 H 377.895 0.447488 0.490561 0
M  V30 3890 H 380.425 1.77425 1.01889 0
M  V30 3891 H 380.435 2.21718 3.42498 0
M  V30 3892 H 379.11 3.13693 2.73074 0
M  V30 3893 H 377.687 1.44703 3.43679 0
M  V30 3894 N 379.872 -1.04064 1.18357 0
M  V30 3895 C 381.119 -1.77265 0.978947 0
M  V30 3896 C 381.447 -1.88189 -0.491428 0
M  V30 3897 O 380.702 -1.38653 -1.38108 0
M  V30 3898 C 381.001 -3.20634 1.57888 0
M  V30 3899 C 380.667 -3.29743 3.07539 0
M  V30 3900 C 379.329 -3.31937 3.48384 0
M  V30 3901 C 381.681 -3.29841 4.03552 0
M  V30 3902 C 379.009 -3.3187 4.83818 0
M  V30 3903 C 381.361 -3.31313 5.38901 0
M  V30 3904 C 380.025 -3.31799 5.79194 0
M  V30 3905 H 379.295 -0.648659 0.358222 0
M  V30 3906 H 381.942 -1.22225 1.47422 0
M  V30 3907 H 380.247 -3.78675 1.00561 0
M  V30 3908 H 381.944 -3.75917 1.39598 0
M  V30 3909 H 378.534 -3.28757 2.74986 0
M  V30 3910 H 382.718 -3.27337 3.73047 0
M  V30 3911 H 377.974 -3.30562 5.14333 0
M  V30 3912 H 382.148 -3.30338 6.13066 0
M  V30 3913 H 379.775 -3.315 6.84114 0
M  V30 3914 N 381.35 -0.985608 -1.22978 0
M  V30 3915 C 382.597 -0.657386 -1.91532 0
M  V30 3916 C 382.925 0.809707 -1.76845 0
M  V30 3917 O 382.18 1.60021 -1.12658 0
M  V30 3918 C 382.479 -1.00014 -3.43121 0
M  V30 3919 C 382.145 -2.4583 -3.77993 0
M  V30 3920 C 380.807 -2.85679 -3.87222 0
M  V30 3921 C 383.159 -3.40378 -3.94705 0
M  V30 3922 C 380.487 -4.19081 -4.10595 0
M  V30 3923 C 382.839 -4.73429 -4.1958 0
M  V30 3924 C 381.503 -5.1303 -4.27032 0
M  V30 3925 H 380.773 -0.240555 -0.700867 0
M  V30 3926 H 383.42 -1.24044 -1.45895 0
M  V30 3927 H 381.725 -0.335072 -3.90365 0
M  V30 3928 H 383.422 -0.724322 -3.94404 0
M  V30 3929 H 380.012 -2.13939 -3.71387 0
M  V30 3930 H 384.196 -3.10766 -3.8696 0
M  V30 3931 H 379.452 -4.49362 -4.14589 0
M  V30 3932 H 383.626 -5.46644 -4.31455 0
M  V30 3933 H 381.253 -6.16418 -4.44896 0
M  V30 3934 N 382.828 1.3818 -0.7579 0
M  V30 3935 C 384.056 2.04301 -0.326937 0
M  V30 3936 C 384.471 1.57163 1.0462 0
M  V30 3937 O 383.828 0.746626 1.66529 0
M  V30 3938 C 383.879 3.59846 -0.345363 0
M  V30 3939 O 383.6 4.05256 -1.66432 0
M  V30 3940 C 385.101 4.4319 0.098927 0
M  V30 3941 H 382.321 0.656443 -0.139012 0
M  V30 3942 H 384.865 1.76786 -1.02796 0
M  V30 3943 H 383.02 3.86182 0.306955 0
M  V30 3944 H 383.434 4.99709 -1.59345 0
M  V30 3945 H 384.908 5.51989 0.0348745 0
M  V30 3946 H 385.385 4.23947 1.14741 0
M  V30 3947 H 385.991 4.22051 -0.52468 0
M  V30 3948 N 384.306 0.507319 1.49211 0
M  V30 3949 C 385.583 -0.0982702 1.95353 0
M  V30 3950 C 385.963 -1.53516 1.449 0
M  V30 3951 O 385.311 -2.18594 0.66551 0
M  V30 3952 C 385.521 -0.00440283 3.49 0
M  V30 3953 C 386.869 -0.175147 4.24239 0
M  V30 3954 O 387.893 -0.0792891 3.56112 0
M  V30 3955 O 386.752 -0.37276 5.45227 0
M  V30 3956 H 383.846 -0.0918236 0.821887 0
M  V30 3957 H 386.392 0.570307 1.5983 0
M  V30 3958 H 385.164 0.997402 3.78375 0
M  V30 3959 H 384.787 -0.712845 3.91158 0
M  V30 3960 N 385.784 -1.5574 0.241426 0
M  V30 3961 C 387.195 -1.84842 -0.262755 0
M  V30 3962 C 387.546 -1.16317 -1.58003 0
M  V30 3963 O 386.671 -0.439653 -2.11887 0
M  V30 3964 C 387.266 -3.35332 -0.483523 0
M  V30 3965 C 385.825 -3.6468 -0.931977 0
M  V30 3966 C 384.972 -2.77299 -0.0061151 0
M  V30 3967 H 387.923 -1.51761 0.464129 0
M  V30 3968 H 387.944 -3.56615 -1.32688 0
M  V30 3969 H 387.456 -3.85178 0.47537 0
M  V30 3970 H 385.557 -3.20307 -1.90353 0
M  V30 3971 H 385.67 -4.72498 -0.792628 0
M  V30 3972 H 384.034 -2.49408 -0.516503 0
M  V30 3973 H 384.817 -3.2995 0.948052 0
M  V30 3974 N 387.262 0.0317525 -1.57568 0
M  V30 3975 C 388.509 0.723104 -1.89149 0
M  V30 3976 C 388.837 1.75504 -0.838377 0
M  V30 3977 O 388.092 1.95037 0.160982 0
M  V30 3978 C 388.391 1.43167 -3.27472 0
M  V30 3979 C 388.057 0.535972 -4.47703 0
M  V30 3980 C 386.719 0.289262 -4.8033 0
M  V30 3981 C 389.071 -0.0826125 -5.21135 0
M  V30 3982 C 386.399 -0.584853 -5.83778 0
M  V30 3983 C 388.751 -0.944414 -6.25511 0
M  V30 3984 C 387.415 -1.20061 -6.56614 0
M  V30 3985 H 386.685 0.264602 -0.692146 0
M  V30 3986 H 389.332 -0.0169496 -1.91492 0
M  V30 3987 H 387.637 2.24497 -3.21105 0
M  V30 3988 H 389.334 1.97209 -3.49155 0
M  V30 3989 H 385.924 0.738414 -4.22191 0
M  V30 3990 H 390.108 0.0950302 -4.96209 0
M  V30 3991 H 385.364 -0.79168 -6.06253 0
M  V30 3992 H 389.538 -1.43026 -6.81554 0
M  V30 3993 H 387.165 -1.87967 -7.36595 0
M  V30 3994 N 388.74 1.54641 0.303973 0
M  V30 3995 C 389.987 1.7378 1.03955 0
M  V30 3996 C 390.315 0.521986 1.87365 0
M  V30 3997 O 389.57 -0.496099 1.89308 0
M  V30 3998 C 389.869 2.97753 1.97681 0
M  V30 3999 C 389.535 4.31671 1.30271 0
M  V30 4000 C 388.197 4.68075 1.11619 0
M  V30 4001 C 390.549 5.147 0.82055 0
M  V30 4002 C 387.877 5.8509 0.434304 0
M  V30 4003 C 390.229 6.32416 0.152395 0
M  V30 4004 C 388.893 6.67484 -0.0461067 0
M  V30 4005 H 388.163 0.635908 0.380398 0
M  V30 4006 H 390.81 1.88896 0.314718 0
M  V30 4007 H 389.115 2.77406 2.76682 0
M  V30 4008 H 390.812 3.09756 2.54661 0
M  V30 4009 H 387.402 4.03041 1.45795 0
M  V30 4010 H 391.586 4.87077 0.952374 0
M  V30 4011 H 386.842 6.10806 0.269495 0
M  V30 4012 H 391.016 6.96023 -0.229126 0
M  V30 4013 H 388.643 7.58011 -0.576494 0
M  V30 4014 N 390.218 -0.567019 1.47046 0
M  V30 4015 C 391.148 -1.68482 1.61667 0
M  V30 4016 C 392.129 -1.6358 0.466418 0
M  V30 4017 O 393.314 -1.81354 0.694574 0
M  V30 4018 C 390.444 -3.07124 1.62148 0
M  V30 4019 C 389.398 -3.26867 2.76301 0
M  V30 4020 C 388.724 -4.66196 2.61849 0
M  V30 4021 C 390.024 -3.13186 4.17986 0
M  V30 4022 H 391.718 -1.56502 2.5524 0
M  V30 4023 H 389.264 -0.751486 1.22836 0
M  V30 4024 H 391.217 -3.8516 1.70968 0
M  V30 4025 H 389.941 -3.2004 0.651287 0
M  V30 4026 H 388.6 -2.51237 2.66975 0
M  V30 4027 H 388.248 -4.75898 1.62879 0
M  V30 4028 H 387.948 -4.80356 3.38425 0
M  V30 4029 H 389.472 -5.46379 2.72584 0
M  V30 4030 H 390.886 -3.81049 4.2834 0
M  V30 4031 H 389.283 -3.3886 4.95272 0
M  V30 4032 H 390.353 -2.10057 4.3704 0
M  V30 4033 N 391.696 -1.35014 -0.812953 0
M  V30 4034 C 392.942 -1.2812 -1.57204 0
M  V30 4035 C 393.275 0.145869 -1.93651 0
M  V30 4036 O 392.55 1.0937 -1.60836 0
M  V30 4037 C 392.833 -2.18162 -2.86492 0
M  V30 4038 C 392.686 -3.69454 -2.56561 0
M  V30 4039 C 394.005 -2.07439 -3.88145 0
M  V30 4040 H 391.124 -0.466746 -0.570366 0
M  V30 4041 H 393.766 -1.65357 -0.935783 0
M  V30 4042 H 391.916 -1.86535 -3.40789 0
M  V30 4043 H 393.588 -4.11493 -2.08497 0
M  V30 4044 H 391.831 -3.9005 -1.89851 0
M  V30 4045 H 392.502 -4.27835 -3.48799 0
M  V30 4046 H 394.978 -2.35228 -3.4323 0
M  V30 4047 H 393.854 -2.7265 -4.76396 0
M  V30 4048 H 394.115 -1.05439 -4.29343 0
M  V30 4049 N 393.175 1.03435 -1.18907 0
M  V30 4050 C 394.085 2.15075 -0.937015 0
M  V30 4051 C 395.101 1.73706 0.101085 0
M  V30 4052 O 396.277 2.01232 -0.0822948 0
M  V30 4053 C 393.342 3.43458 -0.473057 0
M  V30 4054 C 392.403 3.99172 -1.57989 0
M  V30 4055 C 391.636 5.21427 -1.13797 0
M  V30 4056 O 391.859 5.704 0.000725941 0
M  V30 4057 O 390.793 5.69837 -1.9383 0
M  V30 4058 H 394.619 2.39198 -1.87131 0
M  V30 4059 H 392.204 1.13506 -0.971427 0
M  V30 4060 H 394.086 4.20811 -0.222702 0
M  V30 4061 H 392.761 3.20793 0.432869 0
M  V30 4062 H 391.668 3.23178 -1.88433 0
M  V30 4063 H 393.001 4.2619 -2.46217 0
M  V30 4064 N 394.653 0.992116 1.22453 0
M  V30 4065 C 395.881 0.685944 1.95198 0
M  V30 4066 C 396.296 -0.749233 1.73297 0
M  V30 4067 O 395.653 -1.50549 1.03156 0
M  V30 4068 C 395.704 0.981395 3.47924 0
M  V30 4069 O 395.425 2.36018 3.6909 0
M  V30 4070 C 396.926 0.692815 4.37853 0
M  V30 4071 H 394.146 0.253821 0.621141 0
M  V30 4072 H 396.69 1.32668 1.55626 0
M  V30 4073 H 394.845 0.386481 3.85467 0
M  V30 4074 H 395.259 2.45884 4.63294 0
M  V30 4075 H 396.733 0.949818 5.43767 0
M  V30 4076 H 397.21 -0.373181 4.37612 0
M  V30 4077 H 397.816 1.26874 4.05935 0
M  V30 4078 N 396.131 -1.37776 0.765217 0
M  V30 4079 C 397.061 -2.32945 0.160953 0
M  V30 4080 C 398.042 -1.55454 -0.690516 0
M  V30 4081 O 399.227 -1.83721 -0.629318 0
M  V30 4082 C 396.357 -3.39669 -0.724031 0
M  V30 4083 C 395.311 -4.27992 0.0256173 0
M  V30 4084 C 394.637 -5.25673 -0.978383 0
M  V30 4085 C 395.937 -5.08309 1.20082 0
M  V30 4086 H 397.631 -2.83728 0.955969 0
M  V30 4087 H 395.177 -1.36416 0.461149 0
M  V30 4088 H 397.13 -4.05219 -1.15652 0
M  V30 4089 H 395.854 -2.87396 -1.5515 0
M  V30 4090 H 394.513 -3.63964 0.438812 0
M  V30 4091 H 394.161 -4.69682 -1.80022 0
M  V30 4092 H 393.861 -5.85625 -0.481378 0
M  V30 4093 H 395.385 -5.94098 -1.40995 0
M  V30 4094 H 396.799 -5.67034 0.845307 0
M  V30 4095 H 395.196 -5.77554 1.62947 0
M  V30 4096 H 396.266 -4.41365 2.00811 0
M  V30 4097 N 397.609 -0.515225 -1.4894 0
M  V30 4098 C 398.849 0.0223983 -2.04388 0
M  V30 4099 C 399.213 1.32961 -1.38511 0
M  V30 4100 O 400.414 1.95236 -1.8476 0
M  V30 4101 C 398.685 0.157056 -3.57055 0
M  V30 4102 S 400.244 0.646875 -4.34006 0
M  V30 4103 H 397.062 -0.00500662 -0.710982 0
M  V30 4104 H 399.664 -0.69243 -1.82827 0
M  V30 4105 H 398.368 -0.799412 -4.02539 0
M  V30 4106 H 397.899 0.896704 -3.83044 0
M  V30 4107 H 399.914 1.91381 -4.57808 0
M  V30 4108 N 399.087 1.5561 -0.249682 0
M  V30 4109 C 400.336 1.98187 0.37479 0
M  V30 4110 C 400.649 1.14111 1.58865 0
M  V30 4111 O 401.855 1.46714 2.28445 0
M  V30 4112 C 400.311 3.52661 0.718192 0
M  V30 4113 C 399.919 4.45481 -0.474428 0
M  V30 4114 C 401.663 4.03888 1.3067 0
M  V30 4115 C 399.57 5.91303 -0.107026 0
M  V30 4116 H 398.5 0.740159 0.143808 0
M  V30 4117 H 401.151 1.80125 -0.350336 0
M  V30 4118 H 399.533 3.66429 1.50152 0
M  V30 4119 H 400.707 4.43473 -1.25172 0
M  V30 4120 H 399.022 4.04751 -0.978052 0
M  V30 4121 H 401.619 5.10358 1.59496 0
M  V30 4122 H 401.962 3.51401 2.23211 0
M  V30 4123 H 402.495 3.93457 0.586211 0
M  V30 4124 H 399.234 6.47833 -0.999642 0
M  V30 4125 H 398.754 5.9644 0.634013 0
M  V30 4126 H 400.433 6.46258 0.309807 0
M  V30 4127 N 400.565 -0.0233959 1.57583 0
M  V30 4128 C 401.811 -0.714119 1.89811 0
M  V30 4129 C 402.144 -1.74702 0.848113 0
M  V30 4130 O 401.419 -1.94023 -0.136135 0
M  V30 4131 C 401.702 -1.37853 3.32669 0
M  V30 4132 C 401.555 -0.358764 4.48367 0
M  V30 4133 C 402.874 -2.31101 3.7454 0
M  V30 4134 H 399.993 -0.25814 0.690314 0
M  V30 4135 H 402.635 0.0230927 1.89986 0
M  V30 4136 H 400.785 -2.00689 3.3265 0
M  V30 4137 H 402.457 0.268115 4.6052 0
M  V30 4138 H 400.7 0.321387 4.32608 0
M  V30 4139 H 401.371 -0.862242 5.45224 0
M  V30 4140 H 403.847 -1.78304 3.75961 0
M  V30 4141 H 402.723 -2.74567 4.75294 0
M  V30 4142 H 402.984 -3.18018 3.0711 0
M  V30 4143 N 402.043 -1.548 -0.295768 0
M  V30 4144 C 403.289 -1.75517 -1.02789 0
M  V30 4145 C 403.644 -0.537266 -1.84746 0
M  V30 4146 O 402.937 0.470299 -1.85738 0
M  V30 4147 C 403.131 -2.98797 -1.961 0
M  V30 4148 C 402.96 -4.3246 -1.23321 0
M  V30 4149 C 401.73 -4.96131 -0.95822 0
M  V30 4150 C 403.928 -5.10365 -0.635024 0
M  V30 4151 N 401.91 -6.1357 -0.201257 0
M  V30 4152 C 403.281 -6.19999 -0.0110937 0
M  V30 4153 C 405.336 -4.94957 -0.540594 0
M  V30 4154 C 404.039 -7.15904 0.698136 0
M  V30 4155 C 406.065 -5.91197 0.154992 0
M  V30 4156 C 405.427 -7.00203 0.767752 0
M  V30 4157 H 401.526 -0.694786 -0.358882 0
M  V30 4158 H 404.11 -1.92281 -0.305943 0
M  V30 4159 H 402.281 -2.83448 -2.6554 0
M  V30 4160 H 404.013 -3.08017 -2.62502 0
M  V30 4161 H 400.768 -4.56595 -1.25771 0
M  V30 4162 H 401.192 -6.76802 0.16389 0
M  V30 4163 H 405.834 -4.10803 -1.00003 0
M  V30 4164 H 403.552 -7.99595 1.16933 0
M  V30 4165 H 407.138 -5.81353 0.228069 0
M  V30 4166 H 406.018 -7.73393 1.29743 0
M  V30 4167 N 403.521 0.559213 -1.47345 0
M  V30 4168 C 404.768 1.31648 -1.53867 0
M  V30 4169 C 405.096 1.93468 -0.200104 0
M  V30 4170 O 404.351 1.78295 0.806799 0
M  V30 4171 C 404.65 2.44853 -2.6035 0
M  V30 4172 C 404.316 2.00876 -4.03683 0
M  V30 4173 C 402.978 1.88599 -4.42701 0
M  V30 4174 C 405.33 1.67279 -4.93626 0
M  V30 4175 C 402.658 1.41017 -5.69501 0
M  V30 4176 C 405.01 1.21169 -6.20887 0
M  V30 4177 C 403.674 1.07487 -6.58789 0
M  V30 4178 H 402.944 0.481734 -0.56304 0
M  V30 4179 H 405.591 0.627301 -1.80934 0
M  V30 4180 H 403.896 3.19318 -2.27032 0
M  V30 4181 H 405.593 3.03039 -2.62619 0
M  V30 4182 H 402.183 2.11374 -3.72853 0
M  V30 4183 H 406.367 1.75638 -4.64182 0
M  V30 4184 H 401.623 1.29086 -5.97618 0
M  V30 4185 H 405.797 0.942345 -6.89995 0
M  V30 4186 H 403.424 0.703946 -7.56934 0
M  V30 4187 N 404.999 1.35443 0.805782 0
M  V30 4188 C 406.227 1.31878 1.59423 0
M  V30 4189 C 406.642 -0.103562 1.88516 0
M  V30 4190 O 405.999 -1.05575 1.48863 0
M  V30 4191 C 406.05 2.12426 2.92502 0
M  V30 4192 O 405.771 3.49115 2.6467 0
M  V30 4193 C 407.272 2.16455 3.86862 0
M  V30 4194 H 404.492 0.453002 0.495005 0
M  V30 4195 H 407.036 1.78309 1.00131 0
M  V30 4196 H 405.191 1.69593 3.48306 0
M  V30 4197 H 405.605 3.90957 3.49647 0
M  V30 4198 H 407.079 2.77204 4.77349 0
M  V30 4199 H 407.556 1.16352 4.23508 0
M  V30 4200 H 408.162 2.59453 3.36993 0
M  V30 4201 N 406.477 -1.02803 1.19454 0
M  V30 4202 C 407.724 -1.76217 0.997693 0
M  V30 4203 C 408.052 -1.887 -0.47144 0
M  V30 4204 O 407.307 -1.4011 -1.3663 0
M  V30 4205 C 407.606 -3.18941 1.6128 0
M  V30 4206 C 407.272 -3.26463 3.11019 0
M  V30 4207 C 405.934 -3.28223 3.51885 0
M  V30 4208 C 408.286 -3.25542 4.07028 0
M  V30 4209 C 405.614 -3.26719 4.8731 0
M  V30 4210 C 407.966 -3.25579 5.42385 0
M  V30 4211 C 406.63 -3.25637 5.82681 0
M  V30 4212 H 405.9 -0.644823 0.365082 0
M  V30 4213 H 408.547 -1.20655 1.4871 0
M  V30 4214 H 406.852 -3.77587 1.04572 0
M  V30 4215 H 408.549 -3.74415 1.43577 0
M  V30 4216 H 405.139 -3.25822 2.78457 0
M  V30 4217 H 409.323 -3.23362 3.76498 0
M  V30 4218 H 404.579 -3.25089 5.1781 0
M  V30 4219 H 408.753 -3.23817 6.16535 0
M  V30 4220 H 406.38 -3.24226 6.87591 0
M  V30 4221 N 407.956 -0.998596 -1.21925 0
M  V30 4222 C 408.866 -0.562736 -2.27751 0
M  V30 4223 C 409.882 0.391203 -1.69545 0
M  V30 4224 O 411.058 0.256625 -1.99758 0
M  V30 4225 C 408.123 0.11012 -3.46525 0
M  V30 4226 C 407.184 -0.887495 -4.20026 0
M  V30 4227 C 406.417 -0.246654 -5.3313 0
M  V30 4228 O 406.64 0.958088 -5.62296 0
M  V30 4229 O 405.574 -0.954374 -5.94286 0
M  V30 4230 H 409.4 -1.44329 -2.67213 0
M  V30 4231 H 406.985 -0.767135 -1.28201 0
M  V30 4232 H 408.867 0.486756 -4.18579 0
M  V30 4233 H 407.542 0.965154 -3.08976 0
M  V30 4234 H 406.449 -1.31517 -3.5022 0
M  V30 4235 H 407.782 -1.71191 -4.6147 0
M  V30 4236 N 409.434 1.37368 -0.772513 0
M  V30 4237 C 410.364 2.32856 -0.173304 0
M  V30 4238 C 411.345 1.55818 0.682262 0
M  V30 4239 O 412.53 1.84052 0.619566 0
M  V30 4240 C 409.66 3.40048 0.706007 0
M  V30 4241 C 408.614 4.27973 -0.0483144 0
M  V30 4242 C 407.94 5.26184 0.950491 0
M  V30 4243 C 409.24 5.07665 -1.22776 0
M  V30 4244 H 410.934 2.83217 -0.971002 0
M  V30 4245 H 408.48 1.3617 -0.468377 0
M  V30 4246 H 410.433 4.05827 1.13501 0
M  V30 4247 H 409.157 2.88214 1.53623 0
M  V30 4248 H 407.816 3.63726 -0.458107 0
M  V30 4249 H 407.464 4.7063 1.77529 0
M  V30 4250 H 407.164 5.85872 0.450314 0
M  V30 4251 H 408.688 5.94838 1.37842 0
M  V30 4252 H 410.102 5.66578 -0.875366 0
M  V30 4253 H 408.499 5.76681 -1.66007 0
M  V30 4254 H 409.569 4.40294 -2.03149 0
M  V30 4255 N 410.912 0.523116 1.48665 0
M  V30 4256 C 411.842 -0.23231 2.32342 0
M  V30 4257 C 412.823 -0.941637 1.41659 0
M  V30 4258 O 414.008 -0.928751 1.70552 0
M  V30 4259 C 411.138 -1.28387 3.22698 0
M  V30 4260 C 410.092 -0.693098 4.22351 0
M  V30 4261 C 409.418 -1.8468 5.01794 0
M  V30 4262 C 410.718 0.33063 5.21252 0
M  V30 4263 H 412.412 0.466192 2.95748 0
M  V30 4264 H 409.958 0.225643 1.42221 0
M  V30 4265 H 411.911 -1.82024 3.80059 0
M  V30 4266 H 410.635 -2.01186 2.57278 0
M  V30 4267 H 409.294 -0.178299 3.66166 0
M  V30 4268 H 408.942 -2.56301 4.32804 0
M  V30 4269 H 408.642 -1.45747 5.69238 0
M  V30 4270 H 410.166 -2.38709 5.62006 0
M  V30 4271 H 411.58 -0.118407 5.73178 0
M  V30 4272 H 409.977 0.636974 5.9671 0
M  V30 4273 H 411.047 1.23883 4.68808 0
M  V30 4274 N 412.39 -1.55475 0.257931 0
M  V30 4275 C 413.636 -1.99502 -0.364266 0
M  V30 4276 C 413.969 -1.146 -1.56782 0
M  V30 4277 O 413.244 -0.211968 -1.93342 0
M  V30 4278 C 413.527 -3.51917 -0.763333 0
M  V30 4279 C 413.38 -4.4758 0.446371 0
M  V30 4280 C 414.699 -4.09742 -1.60623 0
M  V30 4281 H 411.818 -0.725277 -0.130929 0
M  V30 4282 H 414.46 -1.8653 0.361446 0
M  V30 4283 H 412.61 -3.63101 -1.38166 0
M  V30 4284 H 414.282 -4.48362 1.08487 0
M  V30 4285 H 412.525 -4.19947 1.08753 0
M  V30 4286 H 413.196 -5.51862 0.123645 0
M  V30 4287 H 415.672 -4.01727 -1.08418 0
M  V30 4288 H 414.548 -5.16631 -1.85429 0
M  V30 4289 H 414.809 -3.58889 -2.58169 0
M  V30 4290 N 413.868 0.0150385 -1.57593 0
M  V30 4291 C 415.284 0.370907 -1.5523 0
M  V30 4292 C 415.484 1.75735 -0.985882 0
M  V30 4293 O 414.54 2.44944 -0.613077 0
M  V30 4294 C 415.853 0.259908 -2.99575 0
M  V30 4295 C 417.401 0.335959 -3.11192 0
M  V30 4296 C 417.876 0.254253 -4.57294 0
M  V30 4297 N 419.367 0.312618 -4.62144 0
M  V30 4298 C 420.102 0.272505 -5.72752 0
M  V30 4299 N 419.598 0.183864 -6.92556 0
M  V30 4300 N 421.391 0.323267 -5.6117 0
M  V30 4301 H 413.542 -0.892104 -1.92757 0
M  V30 4302 H 415.805 -0.340563 -0.884715 0
M  V30 4303 H 415.511 -0.693403 -3.44797 0
M  V30 4304 H 415.385 1.048 -3.62349 0
M  V30 4305 H 417.772 1.27971 -2.65909 0
M  V30 4306 H 417.853 -0.481739 -2.51223 0
M  V30 4307 H 417.497 -0.685887 -5.03247 0
M  V30 4308 H 417.427 1.09024 -5.15191 0
M  V30 4309 H 419.918 0.38307 -3.75953 0
M  V30 4310 H 420.231 0.15874 -7.72637 0
M  V30 4311 H 418.576 0.149708 -6.94839 0
M  V30 4312 H 421.767 0.390607 -4.66467 0
M  V30 4313 H 421.94 0.288539 -6.47357 0
M  V30 4314 N 415.346 1.54954 0.287554 0
M  V30 4315 C 416.593 1.74873 1.02106 0
M  V30 4316 C 416.921 0.541829 1.86801 0
M  V30 4317 O 416.176 -0.475992 1.89823 0
M  V30 4318 C 416.475 2.99833 1.94512 0
M  V30 4319 C 416.141 4.33029 1.25686 0
M  V30 4320 C 414.803 4.69233 1.06649 0
M  V30 4321 C 417.155 5.15542 0.765913 0
M  V30 4322 C 414.483 5.85518 0.372222 0
M  V30 4323 C 416.835 6.32542 0.0853101 0
M  V30 4324 C 415.499 6.67398 -0.1169 0
M  V30 4325 H 414.769 0.639906 0.373632 0
M  V30 4326 H 417.416 1.89219 0.294665 0
M  V30 4327 H 415.721 2.80325 2.73725 0
M  V30 4328 H 417.418 3.1244 2.51361 0
M  V30 4329 H 414.008 4.04564 1.41512 0
M  V30 4330 H 418.192 4.88059 0.90066 0
M  V30 4331 H 413.448 6.11057 0.204695 0
M  V30 4332 H 417.622 6.95741 -0.302936 0
M  V30 4333 H 415.249 7.57357 -0.656859 0
M  V30 4334 N 416.824 -0.551391 1.4764 0
M  V30 4335 C 418.049 -1.33837 1.58437 0
M  V30 4336 C 418.474 -1.866 0.237063 0
M  V30 4337 O 417.832 -1.6328 -0.787994 0
M  V30 4338 C 417.88 -2.48014 2.61766 0
M  V30 4339 O 416.984 -3.50419 2.1744 0
M  V30 4340 H 416.325 -0.397299 0.532024 0
M  V30 4341 H 418.855 -0.665759 1.93465 0
M  V30 4342 H 418.865 -2.94503 2.82369 0
M  V30 4343 H 417.54 -2.08969 3.5959 0
M  V30 4344 H 416.117 -3.10196 2.06961 0
M  V30 4345 N 418.302 -1.35869 -0.798587 0
M  V30 4346 C 419.265 -1.29307 -1.89242 0
M  V30 4347 C 420.265 -0.202747 -1.59517 0
M  V30 4348 O 421.455 -0.456957 -1.681 0
M  V30 4349 C 418.587 -1.00229 -3.25833 0
M  V30 4350 H 419.78 -2.26576 -1.96478 0
M  V30 4351 H 417.333 -1.20509 -0.995358 0
M  V30 4352 H 418.068 -0.033801 -3.24282 0
M  V30 4353 H 417.853 -1.79121 -3.48795 0
M  V30 4354 H 419.343 -0.98219 -4.05885 0
M  V30 4355 N 419.78 1.02168 -1.19998 0
M  V30 4356 C 421.02 1.77232 -1.01825 0
M  V30 4357 C 421.384 1.86833 0.442428 0
M  V30 4358 O 422.585 2.58293 0.744189 0
M  V30 4359 C 420.856 3.15601 -1.67722 0
M  V30 4360 S 422.415 4.06765 -1.64584 0
M  V30 4361 H 419.233 0.610021 -0.365233 0
M  V30 4362 H 421.835 1.22368 -1.52467 0
M  V30 4363 H 420.539 3.06235 -2.73218 0
M  V30 4364 H 420.07 3.7554 -1.17189 0
M  V30 4365 H 422.085 4.91586 -0.67511 0
M  V30 4366 N 421.258 1.00505 1.21394 0
M  V30 4367 C 422.669 0.721082 1.72213 0
M  V30 4368 C 423.02 -0.761263 1.80829 0
M  V30 4369 O 422.145 -1.59464 1.46288 0
M  V30 4370 C 422.74 1.30228 3.12772 0
M  V30 4371 C 421.299 1.06743 3.60947 0
M  V30 4372 C 420.446 1.41507 2.38477 0
M  V30 4373 H 423.397 1.17594 1.06571 0
M  V30 4374 H 423.418 0.686955 3.74247 0
M  V30 4375 H 422.93 2.38115 3.06468 0
M  V30 4376 H 421.031 0.00572162 3.726 0
M  V30 4377 H 421.144 1.73936 4.46411 0
M  V30 4378 H 419.508 0.833852 2.40664 0
M  V30 4379 H 420.291 2.50424 2.34824 0
M  V30 4380 N 422.737 -1.36956 0.779787 0
M  V30 4381 C 423.962 -2.04283 0.358224 0
M  V30 4382 C 424.387 -1.58422 -1.01411 0
M  V30 4383 O 423.745 -0.748179 -1.65142 0
M  V30 4384 C 423.793 -3.58152 0.419479 0
M  V30 4385 O 422.897 -4.08342 -0.577142 0
M  V30 4386 H 422.238 -0.645967 0.153698 0
M  V30 4387 H 424.768 -1.75108 1.05822 0
M  V30 4388 H 424.778 -4.07041 0.279636 0
M  V30 4389 H 423.453 -3.90886 1.42061 0
M  V30 4390 H 422.03 -3.70751 -0.399755 0
M  V30 4391 N 424.215 -0.530993 -1.48385 0
M  V30 4392 C 425.162 0.231223 -2.29639 0
M  V30 4393 C 426.132 0.932864 -1.37429 0
M  V30 4394 O 427.317 0.933692 -1.66394 0
M  V30 4395 C 424.457 1.27155 -3.2082 0
M  V30 4396 C 423.57 0.578655 -4.28107 0
M  V30 4397 C 422.705 1.602 -5.06467 0
M  V30 4398 C 421.744 0.892625 -6.05556 0
M  V30 4399 N 420.881 1.86157 -6.76971 0
M  V30 4400 H 425.721 -0.467848 -2.94305 0
M  V30 4401 H 423.258 -0.242556 -1.45086 0
M  V30 4402 H 425.216 1.88703 -3.72085 0
M  V30 4403 H 423.846 1.939 -2.58075 0
M  V30 4404 H 422.898 -0.150782 -3.80101 0
M  V30 4405 H 424.21 0.0217065 -4.98795 0
M  V30 4406 H 423.364 2.29173 -5.61751 0
M  V30 4407 H 422.103 2.19285 -4.35621 0
M  V30 4408 H 421.108 0.188829 -5.49476 0
M  V30 4409 H 422.333 0.307878 -6.78402 0
M  V30 4410 H 420.279 2.44147 -6.08875 0
M  V30 4411 H 420.196 1.35608 -7.43738 0
M  V30 4412 H 421.464 2.54325 -7.36844 0
M  V30 4413 N 425.693 1.55336 -0.266172 0
M  V30 4414 C 427.104 1.85236 0.233315 0
M  V30 4415 C 427.455 1.18816 1.56132 0
M  V30 4416 O 426.58 0.473307 2.11161 0
M  V30 4417 C 427.175 3.36059 0.430113 0
M  V30 4418 C 425.734 3.66116 0.873842 0
M  V30 4419 C 424.881 2.77274 -0.0380016 0
M  V30 4420 H 427.832 1.51004 -0.488214 0
M  V30 4421 H 427.853 3.58681 1.26998 0
M  V30 4422 H 427.365 3.84373 -0.536588 0
M  V30 4423 H 425.466 3.23295 1.85233 0
M  V30 4424 H 425.579 4.73699 0.717358 0
M  V30 4425 H 423.943 2.50198 0.476759 0
M  V30 4426 H 424.726 3.284 -1.00042 0
M  V30 4427 N 427.171 -0.0066808 1.57599 0
M  V30 4428 C 428.134 -0.985035 2.06953 0
M  V30 4429 C 429.134 -1.27663 0.977687 0
M  V30 4430 O 430.324 -1.22293 1.24057 0
M  V30 4431 C 427.456 -2.3118 2.50536 0
M  V30 4432 H 428.649 -0.558255 2.94658 0
M  V30 4433 H 426.202 -0.254011 1.54222 0
M  V30 4434 H 426.937 -2.78561 1.66054 0
M  V30 4435 H 426.722 -2.11338 3.3027 0
M  V30 4436 H 428.212 -3.01377 2.8907 0
M  V30 4437 N 428.649 -1.55105 -0.279332 0
M  V30 4438 C 429.896 -1.75412 -1.01177 0
M  V30 4439 C 430.224 -0.551728 -1.86511 0
M  V30 4440 O 429.479 0.465919 -1.90073 0
M  V30 4441 C 429.778 -3.0086 -1.92919 0
M  V30 4442 C 429.444 -4.33689 -1.23387 0
M  V30 4443 C 428.106 -4.69792 -1.04159 0
M  V30 4444 C 430.458 -5.15941 -0.738562 0
M  V30 4445 C 427.786 -5.85707 -0.341166 0
M  V30 4446 C 430.138 -6.32579 -0.0517636 0
M  V30 4447 C 428.802 -6.67326 0.152292 0
M  V30 4448 H 428.072 -0.641879 -0.370233 0
M  V30 4449 H 430.719 -1.89373 -0.284627 0
M  V30 4450 H 429.024 -2.81773 -2.72234 0
M  V30 4451 H 430.721 -3.13768 -2.49701 0
M  V30 4452 H 427.311 -4.05309 -1.39364 0
M  V30 4453 H 431.495 -4.8853 -0.874764 0
M  V30 4454 H 426.751 -6.11157 -0.172287 0
M  V30 4455 H 430.925 -6.9557 0.339828 0
M  V30 4456 H 428.552 -7.56998 0.697014 0
M  V30 4457 N 430.127 0.543554 -1.4793 0
M  V30 4458 C 431.374 1.30008 -1.55255 0
M  V30 4459 C 431.702 1.93245 -0.220612 0
M  V30 4460 O 430.957 1.79141 0.787843 0
M  V30 4461 C 431.256 2.42078 -2.62932 0
M  V30 4462 C 430.922 1.96583 -4.0579 0
M  V30 4463 C 429.584 1.83893 -4.44676 0
M  V30 4464 C 431.936 1.62034 -4.95373 0
M  V30 4465 C 429.264 1.34969 -5.70964 0
M  V30 4466 C 431.616 1.14577 -6.22137 0
M  V30 4467 C 430.28 1.00493 -6.59892 0
M  V30 4468 H 429.55 0.475735 -0.568117 0
M  V30 4469 H 432.197 0.608075 -1.81589 0
M  V30 4470 H 430.502 3.16892 -2.30406 0
M  V30 4471 H 432.199 3.00236 -2.65818 0
M  V30 4472 H 428.789 2.07407 -3.75074 0
M  V30 4473 H 432.973 1.70705 -4.66019 0
M  V30 4474 H 428.229 1.2274 -5.98953 0
M  V30 4475 H 432.403 0.869109 -6.90955 0
M  V30 4476 H 430.03 0.623624 -7.57638 0
M  V30 4477 N 431.605 1.3629 0.791371 0
M  V30 4478 C 433.021 1.16661 1.08914 0
M  V30 4479 C 433.221 -0.0106266 2.01497 0
M  V30 4480 O 432.277 -0.676596 2.43266 0
M  V30 4481 C 433.59 2.47656 1.70549 0
M  V30 4482 C 435.138 2.54002 1.82899 0
M  V30 4483 C 435.613 3.85078 2.47949 0
M  V30 4484 N 437.104 3.86413 2.5542 0
M  V30 4485 C 437.839 4.84572 3.06557 0
M  V30 4486 N 437.335 5.93124 3.58016 0
M  V30 4487 N 439.128 4.71994 3.05251 0
M  V30 4488 H 431.279 2.11668 0.176238 0
M  V30 4489 H 433.542 0.937486 0.140796 0
M  V30 4490 H 433.248 3.34059 1.09989 0
M  V30 4491 H 433.122 2.63319 2.70079 0
M  V30 4492 H 435.509 1.68018 2.42598 0
M  V30 4493 H 435.59 2.42239 0.821808 0
M  V30 4494 H 435.234 4.71467 1.88895 0
M  V30 4495 H 435.164 3.94135 3.49235 0
M  V30 4496 H 437.655 3.07988 2.18979 0
M  V30 4497 H 437.968 6.63999 3.95381 0
M  V30 4498 H 436.313 5.96796 3.56173 0
M  V30 4499 H 439.504 3.86321 2.64336 0
M  V30 4500 H 439.677 5.48653 3.44796 0
M  V30 4501 N 433.083 -1.0153 1.20538 0
M  V30 4502 C 434.031 -2.12215 0.952235 0
M  V30 4503 C 435.025 -1.69123 -0.0968735 0
M  V30 4504 O 436.231 -1.7992 0.0536006 0
M  V30 4505 H 432.606 -0.693576 0.290613 0
M  V30 4506 H 434.577 -2.3075 1.89201 0
M  V30 4507 C 433.326 -3.43755 0.522287 0
M  V30 4508 H 432.649 -3.7734 1.32115 0
M  V30 4509 H 434.089 -4.22254 0.384389 0
M  V30 4510 C 432.548 -3.28088 -0.765489 0
M  V30 4511 O 433.078 -3.57921 -1.8236 0
M  V30 4512 N 431.284 -2.81333 -0.728011 0
M  V30 4513 H 430.831 -2.57255 0.133332 0
M  V30 4514 H 430.789 -2.71232 -1.58999 0
M  V30 4515 N 434.561 -1.01147 -1.20859 0
M  V30 4516 C 435.81 -0.693214 -1.89413 0
M  V30 4517 C 436.123 0.779969 -1.79376 0
M  V30 4518 O 437.329 1.21057 -2.43017 0
M  V30 4519 C 435.785 -1.18949 -3.39675 0
M  V30 4520 C 435.393 -2.68921 -3.58309 0
M  V30 4521 C 437.137 -0.94642 -4.13815 0
M  V30 4522 C 435.044 -3.12056 -5.0237 0
M  V30 4523 H 433.974 -0.255595 -0.709357 0
M  V30 4524 H 436.625 -1.22349 -1.36759 0
M  V30 4525 H 435.007 -0.587228 -3.91622 0
M  V30 4526 H 436.181 -3.34652 -3.16772 0
M  V30 4527 H 434.496 -2.91314 -2.97532 0
M  V30 4528 H 437.093 -1.24417 -5.20023 0
M  V30 4529 H 437.436 0.117219 -4.16135 0
M  V30 4530 H 437.969 -1.5118 -3.67953 0
M  V30 4531 H 434.708 -4.17674 -5.05202 0
M  V30 4532 H 434.228 -2.51041 -5.44737 0
M  V30 4533 H 435.907 -3.04403 -5.70918 0
M  V30 4534 N 436.039 1.36541 -0.78704 0
M  V30 4535 C 436.972 2.27831 -0.129765 0
M  V30 4536 C 437.95 1.47105 0.692732 0
M  V30 4537 O 439.134 1.7641 0.664222 0
M  V30 4538 C 436.261 3.28577 0.821883 0
M  V30 4539 C 435.307 4.26422 0.0814771 0
M  V30 4540 S 436.14 5.20919 -1.24112 0
M  V30 4541 C 437.296 6.25212 -0.293409 0
M  V30 4542 H 437.529 2.83229 -0.903811 0
M  V30 4543 H 435.062 1.43046 -0.581144 0
M  V30 4544 H 437.02 3.87123 1.3655 0
M  V30 4545 H 435.681 2.72096 1.56916 0
M  V30 4546 H 434.874 4.97554 0.803485 0
M  V30 4547 H 434.476 3.71944 -0.391589 0
M  V30 4548 H 436.768 6.75435 0.528622 0
M  V30 4549 H 437.711 7.01378 -0.973344 0
M  V30 4550 H 438.119 5.64407 0.102196 0
M  V30 4551 N 437.518 0.538854 1.48102 0
M  V30 4552 C 438.466 -0.232325 2.31437 0
M  V30 4553 C 439.46 -0.927004 1.41785 0
M  V30 4554 O 440.666 -0.850378 1.58646 0
M  V30 4555 H 437.041 -0.0937916 0.746128 0
M  V30 4556 H 439.012 0.489986 2.9435 0
M  V30 4557 C 437.761 -1.26074 3.24038 0
M  V30 4558 H 437.084 -0.735609 3.92974 0
M  V30 4559 H 438.524 -1.77157 3.85216 0
M  V30 4560 C 436.983 -2.29902 2.46265 0
M  V30 4561 O 437.513 -3.36502 2.19384 0
M  V30 4562 N 435.719 -2.03348 2.07601 0
M  V30 4563 H 435.266 -1.16675 2.29662 0
M  V30 4564 H 435.224 -2.73038 1.55877 0
M  V30 4565 N 438.996 -1.55193 0.274407 0
M  V30 4566 C 440.245 -1.98758 -0.343213 0
M  V30 4567 C 440.558 -1.16624 -1.5703 0
M  V30 4568 O 441.764 -1.5033 -2.26082 0
M  V30 4569 C 440.22 -3.53759 -0.661996 0
M  V30 4570 C 439.828 -4.4467 0.54524 0
M  V30 4571 C 441.572 -4.05916 -1.24228 0
M  V30 4572 C 439.479 -5.91058 0.201084 0
M  V30 4573 H 438.409 -0.742353 -0.132014 0
M  V30 4574 H 441.06 -1.79545 0.378948 0
M  V30 4575 H 439.442 -3.68772 -1.44304 0
M  V30 4576 H 440.616 -4.41426 1.32212 0
M  V30 4577 H 438.931 -4.03143 1.04232 0
M  V30 4578 H 441.528 -5.12831 -1.51357 0
M  V30 4579 H 441.871 -3.54908 -2.17592 0
M  V30 4580 H 442.404 -3.9434 -0.523542 0
M  V30 4581 H 439.143 -6.46161 1.10258 0
M  V30 4582 H 438.663 -5.97373 -0.539045 0
M  V30 4583 H 440.342 -6.46669 -0.206954 0
M  V30 4584 N 440.474 -0.00167713 -1.576 0
M  V30 4585 C 441.723 0.682021 -1.89819 0
M  V30 4586 C 442.036 1.74844 -0.876871 0
M  V30 4587 O 443.242 2.48688 -1.08934 0
M  V30 4588 C 441.698 1.26425 -3.36964 0
M  V30 4589 C 441.306 0.232568 -4.47396 0
M  V30 4590 C 443.05 1.92604 -3.78291 0
M  V30 4591 C 440.957 0.824882 -5.85619 0
M  V30 4592 H 439.887 0.258499 -0.708304 0
M  V30 4593 H 442.538 -0.0624957 -1.83394 0
M  V30 4594 H 440.92 2.05949 -3.38232 0
M  V30 4595 H 442.094 -0.5382 -4.57646 0
M  V30 4596 H 440.409 -0.32888 -4.15099 0
M  V30 4597 H 443.006 2.37827 -4.78897 0
M  V30 4598 H 443.349 2.75732 -3.11894 0
M  V30 4599 H 443.882 1.19812 -3.79328 0
M  V30 4600 H 440.621 0.0323542 -6.55492 0
M  V30 4601 H 440.141 1.56477 -5.79029 0
M  V30 4602 H 441.82 1.32301 -6.33329 0
M  V30 4603 N 441.952 1.55251 0.271103 0
M  V30 4604 C 443.229 1.66664 1.02384 0
M  V30 4605 C 443.609 0.534363 2.04225 0
M  V30 4606 O 442.957 -0.465337 2.23712 0
M  V30 4607 C 443.167 3.05961 1.67895 0
M  V30 4608 C 444.515 3.63772 2.18986 0
M  V30 4609 O 445.539 3.08606 1.77878 0
M  V30 4610 O 444.398 4.60429 2.94393 0
M  V30 4611 H 441.492 0.676957 0.475035 0
M  V30 4612 H 444.038 1.67589 0.26681 0
M  V30 4613 H 442.81 3.79815 0.941071 0
M  V30 4614 H 442.433 3.08943 2.5028 0
M  V30 4615 N 443.43 -0.535701 1.48216 0
M  V30 4616 C 444.36 -1.65014 1.65204 0
M  V30 4617 C 445.341 -1.62554 0.501011 0
M  V30 4618 O 446.526 -1.7984 0.732886 0
M  V30 4619 C 443.656 -3.03616 1.68626 0
M  V30 4620 C 442.61 -3.20932 2.83172 0
M  V30 4621 C 441.936 -4.60537 2.71679 0
M  V30 4622 C 443.236 -3.04249 4.24535 0
M  V30 4623 H 444.93 -1.51053 2.58502 0
M  V30 4624 H 442.476 -0.725262 1.24402 0
M  V30 4625 H 444.429 -3.81446 1.79099 0
M  V30 4626 H 443.153 -3.18587 0.719026 0
M  V30 4627 H 441.812 -2.45517 2.72244 0
M  V30 4628 H 441.46 -4.72336 1.72937 0
M  V30 4629 H 441.16 -4.73069 3.48538 0
M  V30 4630 H 442.684 -5.40475 2.84112 0
M  V30 4631 H 444.098 -3.71877 4.36326 0
M  V30 4632 H 442.495 -3.28278 5.02348 0
M  V30 4633 H 443.565 -2.00739 4.41397 0
M  V30 4634 N 444.908 -1.36708 -0.784132 0
M  V30 4635 C 446.154 -1.31426 -1.54451 0
M  V30 4636 C 446.487 0.10476 -1.93917 0
M  V30 4637 O 445.762 1.05934 -1.6312 0
M  V30 4638 C 446.045 -2.24189 -2.818 0
M  V30 4639 C 445.898 -3.74813 -2.48667 0
M  V30 4640 C 447.217 -2.15626 -3.83658 0
M  V30 4641 H 444.336 -0.478739 -0.560337 0
M  V30 4642 H 446.978 -1.67305 -0.900498 0
M  V30 4643 H 445.128 -1.93722 -3.36755 0
M  V30 4644 H 446.8 -4.15823 -1.99722 0
M  V30 4645 H 445.043 -3.93989 -1.81535 0
M  V30 4646 H 445.714 -4.35138 -3.39646 0
M  V30 4647 H 448.19 -2.42456 -3.38163 0
M  V30 4648 H 447.066 -2.82694 -4.70506 0
M  V30 4649 H 447.327 -1.14522 -4.27009 0
M  V30 4650 N 446.386 1.0089 -1.21074 0
M  V30 4651 C 447.349 2.0775 -0.968129 0
M  V30 4652 C 448.349 1.6069 0.0593445 0
M  V30 4653 O 449.539 1.73293 -0.177525 0
M  V30 4654 C 446.671 3.37794 -0.459108 0
M  V30 4655 H 447.864 2.30707 -1.9161 0
M  V30 4656 H 445.417 1.17807 -1.02719 0
M  V30 4657 H 446.152 3.20516 0.49397 0
M  V30 4658 H 445.937 3.7328 -1.20019 0
M  V30 4659 H 447.427 4.16454 -0.309099 0
M  V30 4660 N 447.864 1.01787 1.20321 0
M  V30 4661 C 449.113 0.703249 1.89043 0
M  V30 4662 C 449.426 -0.770445 1.79787 0
M  V30 4663 O 450.632 -1.19767 2.43656 0
M  V30 4664 C 449.088 1.20749 3.3904 0
M  V30 4665 C 448.696 2.70817 3.56878 0
M  V30 4666 C 450.44 0.968352 4.13308 0
M  V30 4667 C 448.347 3.14716 5.00708 0
M  V30 4668 H 447.277 0.259354 0.707991 0
M  V30 4669 H 449.928 1.23072 1.36108 0
M  V30 4670 H 448.31 0.607989 3.91305 0
M  V30 4671 H 449.484 3.36327 3.14993 0
M  V30 4672 H 447.799 2.92888 2.95983 0
M  V30 4673 H 450.396 1.27173 5.19356 0
M  V30 4674 H 450.739 -0.095149 4.16191 0
M  V30 4675 H 451.272 1.53129 3.67146 0
M  V30 4676 H 448.011 4.20347 5.02979 0
M  V30 4677 H 447.531 2.53927 5.43398 0
M  V30 4678 H 449.21 3.07426 5.69296 0
M  V30 4679 N 449.342 -1.36122 0.79427 0
M  V30 4680 C 450.589 -1.99111 0.368905 0
M  V30 4681 C 450.917 -1.63032 -1.0607 0
M  V30 4682 O 450.172 -0.879303 -1.74833 0
M  V30 4683 C 450.471 -3.5409 0.48527 0
M  V30 4684 C 450.137 -4.10003 1.87638 0
M  V30 4685 C 448.799 -4.24986 2.257 0
M  V30 4686 C 451.151 -4.40423 2.78706 0
M  V30 4687 C 448.479 -4.67701 3.54221 0
M  V30 4688 C 450.831 -4.84573 4.0666 0
M  V30 4689 C 449.495 -4.97761 4.44737 0
M  V30 4690 H 448.765 -0.7286 0.134992 0
M  V30 4691 H 451.412 -1.62534 1.01267 0
M  V30 4692 H 449.717 -3.91052 -0.241984 0
M  V30 4693 H 451.414 -4.00766 0.137109 0
M  V30 4694 H 448.004 -3.98784 1.57064 0
M  V30 4695 H 452.188 -4.28412 2.50553 0
M  V30 4696 H 447.444 -4.761 3.83587 0
M  V30 4697 H 451.618 -5.07074 4.77336 0
M  V30 4698 H 449.245 -5.30618 5.44379 0
M  V30 4699 N 450.82 -0.546701 -1.47814 0
M  V30 4700 C 452.231 -0.110564 -1.86372 0
M  V30 4701 C 452.582 1.31678 -1.45449 0
M  V30 4702 O 451.707 1.98889 -0.852758 0
M  V30 4703 C 452.302 -0.193873 -3.38245 0
M  V30 4704 C 450.861 0.187164 -3.75934 0
M  V30 4705 C 450.008 -0.546166 -2.71868 0
M  V30 4706 H 452.959 -0.757022 -1.39481 0
M  V30 4707 H 452.98 0.590218 -3.75895 0
M  V30 4708 H 452.492 -1.23282 -3.67999 0
M  V30 4709 H 450.593 1.22762 -3.51796 0
M  V30 4710 H 450.706 -0.164083 -4.78819 0
M  V30 4711 H 449.07 0.00953904 -2.54698 0
M  V30 4712 H 449.853 -1.58606 -3.04465 0
M  V30 4713 N 452.299 1.55045 -0.282633 0
M  V30 4714 C 453.529 2.03872 0.334635 0
M  V30 4715 C 453.937 1.16018 1.49454 0
M  V30 4716 O 453.28 0.174449 1.8287 0
M  V30 4717 C 453.342 3.48791 0.870905 0
M  V30 4718 C 453.006 4.56715 -0.161338 0
M  V30 4719 C 454.003 5.10513 -0.983466 0
M  V30 4720 C 451.688 5.01417 -0.297745 0
M  V30 4721 C 453.682 6.07538 -1.92811 0
M  V30 4722 C 451.369 5.98265 -1.24586 0
M  V30 4723 C 452.367 6.51208 -2.05954 0
M  V30 4724 O 452.055 7.46162 -2.99162 0
M  V30 4725 H 451.787 0.671324 0.0793742 0
M  V30 4726 H 454.341 2.01169 -0.41473 0
M  V30 4727 H 452.571 3.48758 1.67047 0
M  V30 4728 H 454.26 3.80916 1.40207 0
M  V30 4729 H 455.026 4.76785 -0.888856 0
M  V30 4730 H 450.905 4.59849 0.325604 0
M  V30 4731 H 454.449 6.48787 -2.56363 0
M  V30 4732 H 450.346 6.31412 -1.34126 0
M  V30 4733 H 451.114 7.63903 -2.93929 0
M  V30 4734 N 453.777 0.010035 1.57597 0
M  V30 4735 C 455.024 -0.6727 1.91 0
M  V30 4736 C 455.352 -1.73219 0.884614 0
M  V30 4737 O 454.607 -1.95395 -0.109215 0
M  V30 4738 C 454.906 -1.34434 3.31153 0
M  V30 4739 C 454.572 -0.417083 4.48967 0
M  V30 4740 C 453.234 -0.161809 4.80928 0
M  V30 4741 C 455.586 0.220753 5.20732 0
M  V30 4742 C 452.914 0.739426 5.82022 0
M  V30 4743 C 455.266 1.10993 6.22787 0
M  V30 4744 C 453.93 1.37428 6.532 0
M  V30 4745 H 453.2 -0.246158 0.698918 0
M  V30 4746 H 455.847 0.0677145 1.9138 0
M  V30 4747 H 454.152 -2.15905 3.26944 0
M  V30 4748 H 455.849 -1.87883 3.54261 0
M  V30 4749 H 452.439 -0.626217 4.24001 0
M  V30 4750 H 456.623 0.0365643 4.96287 0
M  V30 4751 H 451.879 0.952139 6.03941 0
M  V30 4752 H 456.053 1.61046 6.77523 0
M  V30 4753 H 453.68 2.0743 7.31353 0
M  V30 4754 N 455.255 -1.55392 -0.262866 0
M  V30 4755 C 456.504 -1.75679 -0.990943 0
M  V30 4756 C 456.817 -0.57097 -1.87081 0
M  V30 4757 O 458.023 -0.656486 -2.63444 0
M  V30 4758 C 456.479 -3.10964 -1.81188 0
M  V30 4759 C 456.087 -4.37146 -0.980188 0
M  V30 4760 C 457.831 -3.40597 -2.53365 0
M  V30 4761 C 455.738 -5.63466 -1.7961 0
M  V30 4762 H 454.668 -0.654868 -0.373716 0
M  V30 4763 H 457.319 -1.81841 -0.246203 0
M  V30 4764 H 455.701 -2.98867 -2.59797 0
M  V30 4765 H 456.875 -4.60187 -0.237558 0
M  V30 4766 H 455.19 -4.14731 -0.372497 0
M  V30 4767 H 457.787 -4.32186 -3.14833 0
M  V30 4768 H 458.13 -2.6119 -3.24169 0
M  V30 4769 H 458.663 -3.53838 -1.81779 0
M  V30 4770 H 455.402 -6.4565 -1.13209 0
M  V30 4771 H 454.922 -5.44552 -2.51443 0
M  V30 4772 H 456.601 -6.02139 -2.36723 0
M  V30 4773 N 456.733 0.527833 -1.48498 0
M  V30 4774 C 457.961 1.30823 -1.6029 0
M  V30 4775 C 458.376 1.86945 -0.263974 0
M  V30 4776 O 457.733 1.6651 0.747034 0
M  V30 4777 C 457.784 2.45756 -2.65116 0
M  V30 4778 O 457.505 1.91946 -3.93813 0
M  V30 4779 C 459.006 3.37543 -2.87367 0
M  V30 4780 H 456.226 0.397763 -0.540394 0
M  V30 4781 H 458.77 0.636529 -1.94341 0
M  V30 4782 H 456.925 3.08806 -2.33917 0
M  V30 4783 H 457.339 2.67195 -4.51339 0
M  V30 4784 H 458.813 4.14532 -3.6451 0
M  V30 4785 H 459.29 3.92905 -1.9627 0
M  V30 4786 H 459.896 2.80283 -3.19878 0
M  V30 4787 N 458.211 1.37122 0.776871 0
M  V30 4788 C 459.141 1.35164 1.90402 0
M  V30 4789 C 460.122 0.221069 1.68657 0
M  V30 4790 O 461.307 0.420642 1.8959 0
M  V30 4791 C 458.437 1.15274 3.27611 0
M  V30 4792 C 457.391 2.25289 3.63908 0
M  V30 4793 C 456.717 1.90527 4.99603 0
M  V30 4794 C 458.017 3.67446 3.71188 0
M  V30 4795 H 459.711 2.29482 1.92297 0
M  V30 4796 H 457.257 1.10465 0.923773 0
M  V30 4797 H 459.21 1.12536 4.06096 0
M  V30 4798 H 457.934 0.174102 3.26136 0
M  V30 4799 H 456.593 2.27174 2.87728 0
M  V30 4800 H 456.241 0.91206 4.94662 0
M  V30 4801 H 455.941 2.64193 5.24858 0
M  V30 4802 H 457.465 1.89367 5.80493 0
M  V30 4803 H 458.879 3.67719 4.39836 0
M  V30 4804 H 457.276 4.40123 4.07936 0
M  V30 4805 H 458.346 4.01443 2.71977 0
M  V30 4806 N 459.689 -1.00246 1.21608 0
M  V30 4807 C 460.937 -1.73717 1.0328 0
M  V30 4808 C 461.258 -1.90102 -0.434318 0
M  V30 4809 O 460.528 -1.45376 -1.31311 0
M  V30 4810 H 459.108 -0.643613 0.379172 0
M  V30 4811 H 461.77 -1.20787 1.52959 0
M  V30 4812 H 460.866 -2.73535 1.50283 0
M  V30 4813 N 461.167 -1.02423 -1.1978 0
M  V30 4814 C 462.395 -0.737456 -1.93311 0
M  V30 4815 C 462.81 0.703023 -1.75223 0
M  V30 4816 O 462.167 1.47761 -1.07112 0
M  V30 4817 C 462.218 -1.0733 -3.45199 0
M  V30 4818 O 461.939 -2.4572 -3.62702 0
M  V30 4819 C 463.44 -0.80866 -4.35862 0
M  V30 4820 H 460.66 -0.2702 -0.614193 0
M  V30 4821 H 463.204 -1.36747 -1.52054 0
M  V30 4822 H 461.359 -0.488545 -3.84307 0
M  V30 4823 H 461.773 -2.58081 -4.56612 0
M  V30 4824 H 463.247 -1.09365 -5.41057 0
M  V30 4825 H 463.724 0.257025 -4.38447 0
M  V30 4826 H 464.33 -1.37592 -4.02428 0
M  V30 4827 N 462.645 1.35699 -0.801477 0
M  V30 4828 C 463.555 2.33661 -0.209691 0
M  V30 4829 C 464.571 1.6162 0.644591 0
M  V30 4830 O 465.747 1.93529 0.557545 0
M  V30 4831 C 462.812 3.40816 0.636033 0
M  V30 4832 C 461.873 4.28639 -0.238147 0
M  V30 4833 C 461.106 5.30676 0.567307 0
M  V30 4834 O 461.329 5.41174 1.8024 0
M  V30 4835 O 460.263 6.01887 -0.0391336 0
M  V30 4836 H 464.089 2.8606 -1.01996 0
M  V30 4837 H 461.674 1.38379 -0.563164 0
M  V30 4838 H 463.556 4.06301 1.11791 0
M  V30 4839 H 462.231 2.90696 1.42399 0
M  V30 4840 H 461.138 3.66152 -0.767044 0
M  V30 4841 H 462.471 4.82143 -0.989915 0
M  V30 4842 N 464.123 0.554532 1.47522 0
M  V30 4843 C 465.053 -0.182974 2.32782 0
M  V30 4844 C 466.034 -0.911377 1.43624 0
M  V30 4845 O 467.219 -0.892366 1.72483 0
M  V30 4846 C 464.349 -1.21513 3.25349 0
M  V30 4847 C 463.303 -0.603355 4.23726 0
M  V30 4848 C 462.629 -1.73995 5.05598 0
M  V30 4849 C 463.929 0.441121 5.20434 0
M  V30 4850 H 465.623 0.52882 2.94693 0
M  V30 4851 H 463.169 0.255759 1.41711 0
M  V30 4852 H 465.122 -1.73922 3.83835 0
M  V30 4853 H 463.846 -1.95683 2.61487 0
M  V30 4854 H 462.505 -0.10059 3.66462 0
M  V30 4855 H 462.153 -2.47063 4.38143 0
M  V30 4856 H 461.853 -1.3364 5.72201 0
M  V30 4857 H 463.377 -2.26735 5.66942 0
M  V30 4858 H 464.791 0.00319931 5.733 0
M  V30 4859 H 463.188 0.763402 5.95224 0
M  V30 4860 H 464.258 1.33799 4.66075 0
M  V30 4861 N 465.601 -1.54893 0.290851 0
M  V30 4862 C 466.847 -2.0023 -0.321867 0
M  V30 4863 C 467.18 -1.179 -1.54316 0
M  V30 4864 O 466.455 -0.25293 -1.92848 0
M  V30 4865 C 466.738 -3.53456 -0.688515 0
M  V30 4866 C 466.591 -4.46532 0.541209 0
M  V30 4867 C 467.91 -4.13057 -1.51895 0
M  V30 4868 H 465.029 -0.727891 -0.115515 0
M  V30 4869 H 467.671 -1.85722 0.400931 0
M  V30 4870 H 465.821 -3.6595 -1.30433 0
M  V30 4871 H 467.493 -4.4596 1.17973 0
M  V30 4872 H 465.736 -4.17545 1.17636 0
M  V30 4873 H 466.407 -5.51475 0.240675 0
M  V30 4874 H 468.883 -4.03937 -0.99872 0
M  V30 4875 H 467.759 -5.20448 -1.74429 0
M  V30 4876 H 468.02 -3.64284 -2.50498 0
M  V30 4877 N 467.08 -0.0183926 -1.57589 0
M  V30 4878 C 468.012 0.995557 -2.06449 0
M  V30 4879 C 469.025 1.29556 -0.985849 0
M  V30 4880 O 470.214 1.2621 -1.26227 0
M  V30 4881 C 467.314 2.32572 -2.46502 0
M  V30 4882 C 466.487 2.21245 -3.77319 0
M  V30 4883 C 465.546 3.37104 -4.04039 0
M  V30 4884 O 464.572 3.14468 -4.74445 0
M  V30 4885 N 465.774 4.60553 -3.53372 0
M  V30 4886 H 468.539 0.578746 -2.94059 0
M  V30 4887 H 466.1 0.168603 -1.6102 0
M  V30 4888 H 468.092 3.08887 -2.61478 0
M  V30 4889 H 466.662 2.65931 -1.64315 0
M  V30 4890 H 465.882 1.29723 -3.72244 0
M  V30 4891 H 467.17 2.10868 -4.63047 0
M  V30 4892 H 466.568 4.81839 -2.96391 0
M  V30 4893 H 465.125 5.34072 -3.73644 0
M  V30 4894 N 468.558 1.5553 0.254621 0
M  V30 4895 C 469.49 1.86104 1.33783 0
M  V30 4896 C 470.503 0.746752 1.44663 0
M  V30 4897 O 471.692 1.0248 1.46151 0
M  V30 4898 C 468.792 2.02532 2.71724 0
M  V30 4899 C 467.965 3.33335 2.83208 0
M  V30 4900 C 467.024 3.396 4.01943 0
M  V30 4901 O 466.05 4.12862 3.91834 0
M  V30 4902 N 467.252 2.68332 5.1476 0
M  V30 4903 H 470.017 2.79605 1.07893 0
M  V30 4904 H 467.578 1.55672 0.444732 0
M  V30 4905 H 469.57 2.04074 3.4948 0
M  V30 4906 H 468.14 1.15811 2.90356 0
M  V30 4907 H 467.36 3.44176 1.92189 0
M  V30 4908 H 468.648 4.19565 2.87824 0
M  V30 4909 H 468.046 2.08528 5.25864 0
M  V30 4910 H 466.603 2.75575 5.90679 0
M  V30 4911 N 470.036 -0.519951 1.48776 0
M  V30 4912 C 470.968 -1.63973 1.60142 0
M  V30 4913 C 471.981 -1.55404 0.485117 0
M  V30 4914 O 473.17 -1.61682 0.756391 0
M  V30 4915 C 470.27 -3.02676 1.52449 0
M  V30 4916 C 469.443 -3.36624 2.79291 0
M  V30 4917 C 468.502 -4.54652 2.64912 0
M  V30 4918 O 467.528 -4.57374 3.38818 0
M  V30 4919 N 468.73 -5.53432 1.75195 0
M  V30 4920 H 471.495 -1.54656 2.56713 0
M  V30 4921 H 469.056 -0.707439 1.45626 0
M  V30 4922 H 471.048 -3.79525 1.4051 0
M  V30 4923 H 469.618 -3.06018 0.638125 0
M  V30 4924 H 468.838 -2.48855 3.0572 0
M  V30 4925 H 470.126 -3.56094 3.6342 0
M  V30 4926 H 469.524 -5.54018 1.14371 0
M  V30 4927 H 468.081 -6.29459 1.69189 0
M  V30 4928 N 471.514 -1.37532 -0.769588 0
M  V30 4929 C 472.424 -1.35668 -1.91393 0
M  V30 4930 C 473.44 -0.255954 -1.72107 0
M  V30 4931 O 474.616 -0.491704 -1.95305 0
M  V30 4932 C 471.681 -1.16481 -3.26547 0
M  V30 4933 C 470.742 -2.36212 -3.58472 0
M  V30 4934 C 469.975 -2.17932 -4.87177 0
M  V30 4935 O 470.198 -1.1647 -5.58382 0
M  V30 4936 O 469.132 -3.06167 -5.18214 0
M  V30 4937 H 472.958 -2.32055 -1.95918 0
M  V30 4938 H 470.543 -1.18284 -0.912641 0
M  V30 4939 H 472.425 -1.07778 -4.07384 0
M  V30 4940 H 471.1 -0.231687 -3.2287 0
M  V30 4941 H 470.007 -2.50488 -2.77861 0
M  V30 4942 H 471.34 -3.281 -3.66894 0
M  V30 4943 N 472.992 0.995999 -1.22138 0
M  V30 4944 C 473.924 2.08745 -0.946485 0
M  V30 4945 C 474.937 1.62633 0.0737356 0
M  V30 4946 O 476.126 1.77782 -0.159886 0
M  V30 4947 C 473.226 3.36516 -0.401305 0
M  V30 4948 C 472.399 4.11672 -1.47801 0
M  V30 4949 C 471.458 5.17728 -0.940461 0
M  V30 4950 O 470.484 5.45482 -1.62596 0
M  V30 4951 N 471.686 5.80005 0.239723 0
M  V30 4952 H 474.451 2.32908 -1.88611 0
M  V30 4953 H 472.012 1.16152 -1.12785 0
M  V30 4954 H 474.004 4.04691 -0.0270837 0
M  V30 4955 H 472.574 3.0944 0.443354 0
M  V30 4956 H 471.794 3.38171 -2.02568 0
M  V30 4957 H 473.082 4.58657 -2.20253 0
M  V30 4958 H 472.48 5.5982 0.813518 0
M  V30 4959 H 471.037 6.4943 0.555361 0
M  V30 4960 N 474.47 1.03057 1.19235 0
M  V30 4961 C 475.402 0.570932 2.21975 0
M  V30 4962 C 476.415 -0.354088 1.58903 0
M  V30 4963 O 477.604 -0.150211 1.77867 0
M  V30 4964 C 474.704 -0.187152 3.38383 0
M  V30 4965 C 473.877 0.743231 4.31039 0
M  V30 4966 C 472.936 0.0302493 5.26191 0
M  V30 4967 O 471.962 0.657371 5.65391 0
M  V30 4968 N 473.164 -1.23991 5.67104 0
M  V30 4969 H 475.929 1.45456 2.62036 0
M  V30 4970 H 473.49 0.909807 1.33918 0
M  V30 4971 H 475.482 -0.673715 3.99053 0
M  V30 4972 H 474.052 -0.972205 2.97098 0
M  V30 4973 H 473.272 1.40985 3.68126 0
M  V30 4974 H 474.56 1.3755 4.89854 0
M  V30 4975 H 473.958 -1.77011 5.37293 0
M  V30 4976 H 472.515 -1.67093 6.30018 0
M  V30 4977 N 475.948 -1.35272 0.808662 0
M  V30 4978 C 477.359 -1.81179 0.450688 0
M  V30 4979 C 477.71 -1.67143 -1.02751 0
M  V30 4980 O 476.835 -1.20325 -1.79864 0
M  V30 4981 C 477.43 -3.28943 0.811275 0
M  V30 4982 C 475.989 -3.72985 0.505871 0
M  V30 4983 C 475.136 -2.57229 1.03578 0
M  V30 4984 H 478.087 -1.2322 1.00012 0
M  V30 4985 H 478.108 -3.80342 0.109588 0
M  V30 4986 H 477.62 -3.39127 1.88718 0
M  V30 4987 H 475.721 -3.68349 -0.561209 0
M  V30 4988 H 475.834 -4.67677 1.03995 0
M  V30 4989 H 474.198 -2.50548 0.458005 0
M  V30 4990 H 474.981 -2.7019 2.11784 0
M  V30 4991 N 477.426 -0.562348 -1.47226 0
M  V30 4992 C 478.389 0.172056 -2.28553 0
M  V30 4993 C 479.389 0.837928 -1.37242 0
M  V30 4994 O 480.579 0.693001 -1.59822 0
M  V30 4995 C 477.711 1.25223 -3.17068 0
M  V30 4996 H 478.904 -0.542401 -2.94954 0
M  V30 4997 H 476.457 -0.319493 -1.53 0
M  V30 4998 H 477.192 1.99892 -2.55369 0
M  V30 4999 H 476.977 0.779515 -3.84273 0
M  V30 5000 H 478.467 1.76791 -3.78332 0
M  V30 5001 N 478.904 1.54736 -0.299062 0
M  V30 5002 C 480.129 2.04975 0.316254 0
M  V30 5003 C 480.554 1.17501 1.46885 0
M  V30 5004 O 479.912 0.178678 1.80417 0
M  V30 5005 C 479.96 3.52672 0.751997 0
M  V30 5006 O 479.064 3.68226 1.85697 0
M  V30 5007 H 478.405 0.661126 0.0617175 0
M  V30 5008 H 480.935 1.99805 -0.440341 0
M  V30 5009 H 480.945 3.94488 1.04133 0
M  V30 5010 H 479.62 4.158 -0.0911482 0
M  V30 5011 H 478.197 3.38316 1.56834 0
M  V30 5012 N 480.382 0.0267497 1.57577 0
M  V30 5013 C 481.63 -0.651116 1.91324 0
M  V30 5014 C 481.951 -1.72804 0.90353 0
M  V30 5015 O 481.221 -1.95822 -0.0552946 0
M  V30 5016 H 479.801 -0.243491 0.706202 0
M  V30 5017 H 482.463 0.0739935 1.94759 0
M  V30 5018 H 481.559 -1.10536 2.9187 0
M  V30 5019 N 481.861 -1.55662 -0.24637 0
M  V30 5020 C 483.109 -1.77168 -0.972411 0
M  V30 5021 C 483.43 -0.590827 -1.85834 0
M  V30 5022 O 482.7 0.393365 -1.9191 0
M  V30 5023 H 481.28 -0.653405 -0.362038 0
M  V30 5024 H 483.942 -1.93101 -0.264189 0
M  V30 5025 H 483.038 -2.68335 -1.59382 0
M  V30 5026 N 483.339 0.512053 -1.4905 0
M  V30 5027 C 484.587 1.26436 -1.57665 0
M  V30 5028 C 484.908 1.93255 -0.260293 0
M  V30 5029 O 484.178 1.82206 0.719564 0
M  V30 5030 H 482.758 0.469658 -0.580888 0
M  V30 5031 H 485.42 0.594398 -1.85615 0
M  V30 5032 H 484.516 2.03417 -2.36702 0
M  V30 5033 N 484.817 1.37938 0.762283 0
M  V30 5034 C 486.065 1.33404 1.51815 0
M  V30 5035 C 486.386 -0.0780975 1.94844 0
M  V30 5036 O 485.656 -1.02405 1.67003 0
M  V30 5037 H 484.236 0.490839 0.563104 0
M  V30 5038 H 486.898 1.72527 0.906669 0
M  V30 5039 H 485.994 1.97926 2.41313 0
M  V30 5040 N 486.295 -0.989507 1.22664 0
M  V30 5041 C 487.227 -2.0824 0.957542 0
M  V30 5042 C 488.24 -1.6267 -0.0651098 0
M  V30 5043 O 489.429 -1.77695 0.169312 0
M  V30 5044 C 486.529 -3.36298 0.419145 0
M  V30 5045 C 485.702 -4.10882 1.49982 0
M  V30 5046 C 484.761 -5.17221 0.967904 0
M  V30 5047 O 483.787 -5.44613 1.65487 0
M  V30 5048 N 484.989 -5.80124 -0.20896 0
M  V30 5049 H 487.754 -2.31904 1.89843 0
M  V30 5050 H 485.315 -1.15552 1.13399 0
M  V30 5051 H 487.307 -4.04671 0.0485451 0
M  V30 5052 H 485.877 -3.09671 -0.426937 0
M  V30 5053 H 485.097 -3.37092 2.04359 0
M  V30 5054 H 486.385 -4.57482 2.22682 0
M  V30 5055 H 485.783 -5.60244 -0.783818 0
M  V30 5056 H 484.34 -6.49715 -0.520913 0
M  V30 5057 N 487.773 -1.03688 -1.18687 0
M  V30 5058 C 488.721 -0.618292 -2.24232 0
M  V30 5059 C 489.715 0.353045 -1.6568 0
M  V30 5060 O 490.921 0.220749 -1.78641 0
M  V30 5061 H 487.296 -0.181711 -0.729716 0
M  V30 5062 H 489.267 -1.51893 -2.56848 0
M  V30 5063 C 488.016 0.00677342 -3.47699 0
M  V30 5064 H 487.339 -0.731692 -3.93047 0
M  V30 5065 H 488.779 0.262492 -4.23187 0
M  V30 5066 C 487.238 1.25572 -3.12623 0
M  V30 5067 O 487.768 2.34691 -3.26011 0
M  V30 5068 N 485.974 1.14755 -2.66982 0
M  V30 5069 H 485.521 0.259601 -2.56289 0
M  V30 5070 H 485.479 1.98412 -2.43885 0
M  V30 5071 N 489.251 1.34841 -0.815825 0
M  V30 5072 C 490.499 1.98107 -0.399744 0
M  V30 5073 C 490.82 1.65019 1.03894 0
M  V30 5074 O 490.09 0.937311 1.72021 0
M  V30 5075 H 488.67 0.732827 -0.144823 0
M  V30 5076 H 491.332 1.64599 -1.0437 0
M  V30 5077 H 490.428 3.07856 -0.512965 0
M  V30 5078 N 490.729 0.570148 1.46925 0
M  V30 5079 C 491.661 -0.207909 2.28255 0
M  V30 5080 C 492.674 -0.867301 1.37774 0
M  V30 5081 O 493.863 -0.738976 1.62485 0
M  V30 5082 C 490.963 -1.31298 3.12433 0
M  V30 5083 C 490.136 -0.747915 4.30958 0
M  V30 5084 C 489.195 -1.7391 4.9663 0
M  V30 5085 O 488.221 -1.2801 5.54619 0
M  V30 5086 N 489.423 -3.07288 4.92498 0
M  V30 5087 H 492.188 0.489794 2.95671 0
M  V30 5088 H 489.749 0.407076 1.56699 0
M  V30 5089 H 491.741 -1.97507 3.53232 0
M  V30 5090 H 490.311 -1.91373 2.47175 0
M  V30 5091 H 489.531 0.0913066 3.94094 0
M  V30 5092 H 490.819 -0.349958 5.07595 0
M  V30 5093 H 490.217 -3.47213 4.46609 0
M  V30 5094 H 488.774 -3.69021 5.37277 0
M  V30 5095 N 492.207 -1.54576 0.307264 0
M  V30 5096 C 493.139 -2.21212 -0.599807 0
M  V30 5097 C 494.152 -1.20685 -1.09266 0
M  V30 5098 O 495.341 -1.47244 -1.00903 0
M  V30 5099 C 492.441 -2.84994 -1.83389 0
M  V30 5100 C 491.614 -4.11511 -1.48248 0
M  V30 5101 C 490.673 -4.59038 -2.57237 0
M  V30 5102 O 489.699 -5.24095 -2.22065 0
M  V30 5103 N 490.901 -4.31884 -3.87887 0
M  V30 5104 H 493.666 -2.99686 -0.0293075 0
M  V30 5105 H 491.227 -1.61379 0.129738 0
M  V30 5106 H 493.219 -3.1372 -2.5566 0
M  V30 5107 H 491.789 -2.10324 -2.31263 0
M  V30 5108 H 491.009 -3.89728 -0.592122 0
M  V30 5109 H 492.297 -4.93879 -1.22316 0
M  V30 5110 H 491.695 -3.79778 -4.19268 0
M  V30 5111 H 490.252 -4.65304 -4.56438 0
M  V30 5112 N 493.685 -0.035106 -1.57561 0
M  V30 5113 C 494.648 0.929819 -2.09492 0
M  V30 5114 C 495.648 1.25026 -1.01119 0
M  V30 5115 O 496.838 1.18961 -1.27255 0
M  V30 5116 C 493.97 2.24457 -2.56577 0
M  V30 5117 H 495.163 0.479935 -2.96035 0
M  V30 5118 H 492.716 0.213033 -1.54841 0
M  V30 5119 H 493.451 2.74061 -1.73382 0
M  V30 5120 H 493.236 2.02508 -3.35757 0
M  V30 5121 H 494.726 2.93607 -2.96959 0
M  V30 5122 N 495.163 1.55791 0.238111 0
M  V30 5123 C 496.096 1.86036 1.32158 0
M  V30 5124 C 497.074 0.716216 1.45976 0
M  V30 5125 O 498.258 0.962882 1.62052 0
M  V30 5126 C 495.385 2.05281 2.69402 0
M  V30 5127 C 494.431 3.27939 2.72687 0
M  V30 5128 S 495.264 4.84342 2.28413 0
M  V30 5129 C 496.42 5.06604 3.67565 0
M  V30 5130 H 496.653 2.77644 1.06306 0
M  V30 5131 H 494.186 1.48012 0.439537 0
M  V30 5132 H 496.144 2.17053 3.48423 0
M  V30 5133 H 494.805 1.14499 2.92487 0
M  V30 5134 H 493.998 3.38398 3.73501 0
M  V30 5135 H 493.6 3.14938 2.01717 0
M  V30 5136 H 495.892 4.94486 4.6313 0
M  V30 5137 H 496.835 6.08554 3.62033 0
M  V30 5138 H 497.243 4.34409 3.60485 0
M  V30 5139 N 496.642 -0.504142 1.49319 0
M  V30 5140 C 497.867 -1.28729 1.62615 0
M  V30 5141 C 498.292 -1.85752 0.296309 0
M  V30 5142 O 497.65 -1.65704 -0.735649 0
M  V30 5143 C 497.698 -2.39561 2.69524 0
M  V30 5144 O 496.802 -3.43324 2.28478 0
M  V30 5145 H 496.143 -0.380172 0.544395 0
M  V30 5146 H 498.673 -0.603872 1.95485 0
M  V30 5147 H 498.683 -2.8537 2.91595 0
M  V30 5148 H 497.358 -1.97423 3.66056 0
M  V30 5149 H 495.935 -3.03455 2.16725 0
M  V30 5150 N 498.12 -1.38341 -0.754957 0
M  V30 5151 C 499.05 -1.38176 -1.88227 0
M  V30 5152 C 500.031 -0.247873 -1.68284 0
M  V30 5153 O 501.216 -0.45075 -1.88896 0
M  V30 5154 C 498.346 -1.20471 -3.25736 0
M  V30 5155 C 497.3 -2.3105 -3.60278 0
M  V30 5156 C 496.626 -1.98452 -4.96509 0
M  V30 5157 C 497.926 -3.73305 -3.65295 0
M  V30 5158 H 499.62 -2.32512 -1.88622 0
M  V30 5159 H 497.166 -1.1192 -0.906082 0
M  V30 5160 H 499.119 -1.18982 -4.04254 0
M  V30 5161 H 497.843 -0.225965 -3.25817 0
M  V30 5162 H 496.502 -2.31723 -2.84078 0
M  V30 5163 H 496.15 -0.990641 -4.93148 0
M  V30 5164 H 495.85 -2.7251 -5.20588 0
M  V30 5165 H 497.374 -1.98578 -5.77407 0
M  V30 5166 H 498.788 -3.7467 -4.3393 0
M  V30 5167 H 497.185 -4.46557 -4.00883 0
M  V30 5168 H 498.255 -4.05719 -2.65556 0
M  V30 5169 N 499.598 0.982988 -1.23187 0
M  V30 5170 C 500.561 2.05649 -1.01198 0
M  V30 5171 C 501.561 1.6078 0.0252464 0
M  V30 5172 O 502.751 1.72878 -0.214243 0
M  V30 5173 C 499.883 3.36744 -0.530656 0
M  V30 5174 H 501.076 2.2659 -1.96461 0
M  V30 5175 H 498.629 1.15602 -1.05195 0
M  V30 5176 H 499.364 3.21492 0.425873 0
M  V30 5177 H 499.149 3.7065 -1.2791 0
M  V30 5178 H 500.639 4.15705 -0.397366 0
M  V30 5179 N 501.076 1.04316 1.18135 0
M  V30 5180 C 502.325 0.74319 1.87509 0
M  V30 5181 C 502.638 -0.732136 1.81381 0
M  V30 5182 O 503.844 -1.14572 2.46141 0
M  V30 5183 C 502.3 1.27913 3.36402 0
M  V30 5184 C 501.908 2.78326 3.51053 0
M  V30 5185 C 503.652 1.0558 4.11161 0
M  V30 5186 C 501.559 3.25266 4.93919 0
M  V30 5187 H 500.489 0.274313 0.702331 0
M  V30 5188 H 503.14 1.25931 1.33467 0
M  V30 5189 H 501.522 0.690853 3.89927 0
M  V30 5190 H 502.696 3.42933 3.07788 0
M  V30 5191 H 501.011 2.991 2.89704 0
M  V30 5192 H 503.608 1.38161 5.16542 0
M  V30 5193 H 503.951 -0.00684729 4.16299 0
M  V30 5194 H 504.484 1.60882 3.63816 0
M  V30 5195 H 501.223 4.30922 4.9395 0
M  V30 5196 H 500.743 2.65396 5.3789 0
M  V30 5197 H 502.422 3.19433 5.62647 0
M  V30 5198 N 502.554 -1.34406 0.822964 0
M  V30 5199 C 503.484 -2.32052 0.259608 0
M  V30 5200 C 504.465 -1.58243 -0.623961 0
M  V30 5201 O 505.65 -1.86224 -0.55083 0
M  V30 5202 C 502.78 -3.42434 -0.579314 0
M  V30 5203 C 501.734 -4.27499 0.20712 0
M  V30 5204 C 501.06 -5.29349 -0.754547 0
M  V30 5205 C 502.36 -5.02758 1.41533 0
M  V30 5206 H 504.054 -2.79418 1.07545 0
M  V30 5207 H 501.6 -1.34338 0.518593 0
M  V30 5208 H 503.553 -4.0976 -0.983612 0
M  V30 5209 H 502.277 -2.93717 -1.4282 0
M  V30 5210 H 500.936 -3.61776 0.592787 0
M  V30 5211 H 500.584 -4.76895 -1.59939 0
M  V30 5212 H 500.284 -5.8714 -0.232561 0
M  V30 5213 H 501.808 -5.99544 -1.1567 0
M  V30 5214 H 503.222 -5.62938 1.08504 0
M  V30 5215 H 501.619 -5.70123 1.87296 0
M  V30 5216 H 502.689 -4.32451 2.1935 0
M  V30 5217 N 504.032 -0.577932 -1.46621 0
M  V30 5218 C 505.448 -0.239242 -1.57797 0
M  V30 5219 C 505.648 1.25843 -1.57371 0
M  V30 5220 O 504.704 2.03988 -1.48813 0
M  V30 5221 C 506.017 -0.884227 -2.87405 0
M  V30 5222 C 507.565 -0.857373 -3.01028 0
M  V30 5223 C 508.04 -1.48181 -4.33366 0
M  V30 5224 N 509.531 -1.44593 -4.40053 0
M  V30 5225 C 510.266 -1.89852 -5.41058 0
M  V30 5226 N 509.762 -2.43062 -6.48762 0
M  V30 5227 N 511.555 -1.80797 -5.3223 0
M  V30 5228 H 503.706 -1.55073 -1.45142 0
M  V30 5229 H 505.969 -0.647903 -0.692044 0
M  V30 5230 H 505.675 -1.93759 -2.93514 0
M  V30 5231 H 505.549 -0.389585 -3.75183 0
M  V30 5232 H 507.936 0.187357 -2.94505 0
M  V30 5233 H 508.017 -1.38999 -2.14739 0
M  V30 5234 H 507.661 -2.52572 -4.40647 0
M  V30 5235 H 507.591 -0.924464 -5.18422 0
M  V30 5236 H 510.082 -1.05694 -3.62819 0
M  V30 5237 H 510.395 -2.75466 -7.22038 0
M  V30 5238 H 508.74 -2.47085 -6.49595 0
M  V30 5239 H 511.931 -1.38989 -4.46989 0
M  V30 5240 H 512.104 -2.16385 -6.10804 0
M  V30 5241 N 505.51 1.54411 -0.315457 0
M  V30 5242 C 506.756 2.00716 0.289972 0
M  V30 5243 C 507.089 1.2034 1.5242 0
M  V30 5244 O 506.364 0.283579 1.92422 0
M  V30 5245 C 506.647 3.54507 0.632196 0
M  V30 5246 C 506.5 4.45615 -0.61218 0
M  V30 5247 C 507.819 4.15421 1.45305 0
M  V30 5248 H 504.938 0.729637 0.10392 0
M  V30 5249 H 507.58 1.8506 -0.430427 0
M  V30 5250 H 505.73 3.67979 1.24595 0
M  V30 5251 H 507.402 4.44026 -1.25053 0
M  V30 5252 H 505.645 4.15621 -1.24264 0
M  V30 5253 H 506.316 5.51022 -0.328379 0
M  V30 5254 H 508.792 4.05474 0.934331 0
M  V30 5255 H 507.668 5.23157 1.66127 0
M  V30 5256 H 507.929 3.68223 2.44671 0
M  V30 5257 N 506.988 0.0434614 1.5754 0
M  V30 5258 C 508.237 -0.631454 1.91561 0
M  V30 5259 C 508.55 -1.72457 0.92292 0
M  V30 5260 O 509.756 -2.45712 1.15489 0
M  V30 5261 C 508.212 -1.17447 3.40197 0
M  V30 5262 C 507.82 -0.113867 4.47855 0
M  V30 5263 C 509.564 -1.82507 3.83264 0
M  V30 5264 C 507.471 -0.669326 5.876 0
M  V30 5265 H 506.401 -0.239629 0.714908 0
M  V30 5266 H 509.052 0.111097 1.83163 0
M  V30 5267 H 507.434 -1.96909 3.43574 0
M  V30 5268 H 508.608 0.659348 4.56058 0
M  V30 5269 H 506.923 0.438821 4.14081 0
M  V30 5270 H 509.52 -2.25047 4.85034 0
M  V30 5271 H 509.863 -2.67365 3.19095 0
M  V30 5272 H 510.396 -1.09712 3.82372 0
M  V30 5273 H 507.135 0.141449 6.55347 0
M  V30 5274 H 506.655 -1.4107 5.82974 0
M  V30 5275 H 508.334 -1.15463 6.36614 0
M  V30 5276 N 508.466 -1.55915 -0.229846 0
M  V30 5277 C 509.882 -1.48721 -0.579166 0
M  V30 5278 C 510.082 -0.736976 -1.87539 0
M  V30 5279 O 509.138 -0.273258 -2.51017 0
M  V30 5280 C 510.451 -2.9323 -0.666082 0
M  V30 5281 C 511.999 -3.03701 -0.757267 0
M  V30 5282 C 512.474 -4.49552 -0.8756 0
M  V30 5283 N 513.965 -4.53561 -0.940035 0
M  V30 5284 C 514.7 -5.63683 -1.05116 0
M  V30 5285 N 514.196 -6.83576 -1.12675 0
M  V30 5286 N 515.989 -5.51516 -1.08565 0
M  V30 5287 H 508.14 -2.03123 0.620857 0
M  V30 5288 H 510.403 -0.922898 0.21671 0
M  V30 5289 H 510.109 -3.51032 0.21664 0
M  V30 5290 H 509.983 -3.44668 -1.53243 0
M  V30 5291 H 512.37 -2.45969 -1.63043 0
M  V30 5292 H 512.451 -2.55446 0.134583 0
M  V30 5293 H 512.095 -5.079 -0.00692351 0
M  V30 5294 H 512.025 -4.95506 -1.78274 0
M  V30 5295 H 514.516 -3.67215 -0.892269 0
M  V30 5296 H 514.829 -7.63251 -1.21109 0
M  V30 5297 H 513.174 -6.86303 -1.09603 0
M  V30 5298 H 516.365 -4.5678 -1.02319 0
M  V30 5299 H 516.538 -6.37372 -1.1688 0
M  V30 5300 N 509.944 0.496216 -1.49584 0
M  V30 5301 C 510.874 1.60576 -1.69521 0
M  V30 5302 C 511.855 1.61169 -0.543933 0
M  V30 5303 O 513.04 1.77834 -0.78031 0
M  V30 5304 C 510.17 2.99038 -1.76616 0
M  V30 5305 C 509.124 3.13312 -2.91581 0
M  V30 5306 C 508.45 4.53172 -2.83794 0
M  V30 5307 C 509.75 2.92886 -4.32452 0
M  V30 5308 H 511.444 1.44146 -2.62416 0
M  V30 5309 H 508.99 0.692024 -1.26282 0
M  V30 5310 H 510.943 3.76564 -1.8915 0
M  V30 5311 H 509.667 3.16568 -0.80324 0
M  V30 5312 H 508.326 2.38213 -2.78658 0
M  V30 5313 H 507.974 4.67585 -1.854 0
M  V30 5314 H 507.674 4.63662 -3.60958 0
M  V30 5315 H 509.198 5.32752 -2.98342 0
M  V30 5316 H 510.612 3.60178 -4.46032 0
M  V30 5317 H 509.009 3.14844 -5.10875 0
M  V30 5318 H 510.079 1.88966 -4.46565 0
M  V30 5319 N 511.423 1.38739 0.74761 0
M  V30 5320 C 512.669 1.35475 1.50912 0
M  V30 5321 C 513.002 -0.0533093 1.94127 0
M  V30 5322 O 512.277 -1.01572 1.65871 0
M  V30 5323 C 512.56 2.31582 2.75757 0
M  V30 5324 C 512.413 3.81274 2.38642 0
M  V30 5325 C 513.732 2.25722 3.77806 0
M  V30 5326 H 510.851 0.493427 0.547447 0
M  V30 5327 H 513.493 1.69634 0.855823 0
M  V30 5328 H 511.643 2.02582 3.31501 0
M  V30 5329 H 513.315 4.20972 1.88626 0
M  V30 5330 H 511.558 3.98664 1.71025 0
M  V30 5331 H 512.229 4.4399 3.27989 0
M  V30 5332 H 514.705 2.51336 3.31616 0
M  V30 5333 H 513.581 2.95069 4.62845 0
M  V30 5334 H 513.842 1.25803 4.23823 0
M  V30 5335 N 512.901 -0.976442 1.23707 0
M  V30 5336 C 514.317 -1.24341 1.00058 0
M  V30 5337 C 514.517 -1.99315 -0.295932 0
M  V30 5338 O 513.573 -2.3123 -1.01435 0
M  V30 5339 C 514.886 -2.03909 2.21001 0
M  V30 5340 C 516.434 -2.17034 2.25534 0
M  V30 5341 C 516.909 -2.99994 3.46075 0
M  V30 5342 N 518.4 -3.07578 3.46338 0
M  V30 5343 C 519.135 -3.72104 4.36264 0
M  V30 5344 N 518.631 -4.3842 5.36432 0
M  V30 5345 N 520.424 -3.69029 4.23998 0
M  V30 5346 H 512.575 -0.47428 2.07037 0
M  V30 5347 H 514.838 -0.272167 0.908091 0
M  V30 5348 H 514.544 -1.56198 3.15111 0
M  V30 5349 H 514.418 -3.04654 2.22409 0
M  V30 5350 H 516.805 -2.63951 1.31961 0
M  V30 5351 H 516.886 -1.15664 2.28156 0
M  V30 5352 H 516.53 -2.53772 4.39957 0
M  V30 5353 H 516.46 -4.01541 3.40694 0
M  V30 5354 H 518.951 -2.60397 2.73865 0
M  V30 5355 H 519.264 -4.85447 6.013 0
M  V30 5356 H 517.609 -4.37116 5.40328 0
M  V30 5357 H 520.8 -3.16392 3.44984 0
M  V30 5358 H 520.973 -4.19034 4.94282 0
M  V30 5359 N 514.379 -1.04941 -1.1758 0
M  V30 5360 C 515.625 -0.759112 -1.88057 0
M  V30 5361 C 515.958 0.711918 -1.8068 0
M  V30 5362 O 515.233 1.52035 -1.21308 0
M  V30 5363 C 515.516 -1.237 -3.38187 0
M  V30 5364 C 515.369 -2.77078 -3.54327 0
M  V30 5365 C 516.688 -0.834014 -4.32125 0
M  V30 5366 H 513.807 -0.277237 -0.682868 0
M  V30 5367 H 516.449 -1.30296 -1.38286 0
M  V30 5368 H 514.599 -0.774337 -3.80705 0
M  V30 5369 H 516.271 -3.31449 -3.20842 0
M  V30 5370 H 514.514 -3.16477 -2.96689 0
M  V30 5371 H 515.185 -3.05577 -4.59703 0
M  V30 5372 H 517.661 -1.23228 -3.97434 0
M  V30 5373 H 516.537 -1.19603 -5.35711 0
M  V30 5374 H 516.798 0.262195 -4.41322 0
M  V30 5375 N 515.857 1.33968 -0.830081 0
M  V30 5376 C 517.104 1.98063 -0.421566 0
M  V30 5377 C 517.432 1.65787 1.0171 0
M  V30 5378 O 516.687 0.925348 1.72441 0
M  V30 5379 C 516.986 3.52679 -0.57898 0
M  V30 5380 C 516.652 4.04884 -1.98443 0
M  V30 5381 C 515.314 4.18852 -2.36888 0
M  V30 5382 C 517.666 4.32879 -2.90285 0
M  V30 5383 C 514.994 4.58145 -3.66497 0
M  V30 5384 C 517.346 4.7362 -4.19364 0
M  V30 5385 C 516.01 4.85794 -4.57778 0
M  V30 5386 H 515.28 0.724765 -0.154262 0
M  V30 5387 H 517.927 1.59792 -1.05541 0
M  V30 5388 H 516.232 3.91556 0.138219 0
M  V30 5389 H 517.929 4.00261 -0.243317 0
M  V30 5390 H 514.519 3.9448 -1.67581 0
M  V30 5391 H 518.703 4.21619 -2.61823 0
M  V30 5392 H 513.959 4.65762 -3.96075 0
M  V30 5393 H 518.133 4.9424 -4.90612 0
M  V30 5394 H 515.76 5.15998 -5.58256 0
M  V30 5395 N 517.335 0.585699 1.46312 0
M  V30 5396 C 518.751 0.247607 1.57668 0
M  V30 5397 C 518.951 -1.25007 1.58037 0
M  V30 5398 O 518.007 -2.03196 1.49893 0
M  V30 5399 C 519.32 0.899456 2.86933 0
M  V30 5400 C 520.868 0.873326 3.00569 0
M  V30 5401 C 521.343 1.50477 4.32574 0
M  V30 5402 N 522.834 1.46925 4.3928 0
M  V30 5403 C 523.569 1.92719 5.40044 0
M  V30 5404 N 523.065 2.46499 6.47464 0
M  V30 5405 N 524.858 1.83617 5.31264 0
M  V30 5406 H 517.009 1.55841 1.44317 0
M  V30 5407 H 519.272 0.651564 0.688599 0
M  V30 5408 H 518.978 1.95313 2.92482 0
M  V30 5409 H 518.852 0.409476 3.74971 0
M  V30 5410 H 521.239 -0.171736 2.946 0
M  V30 5411 H 521.32 1.40136 2.13999 0
M  V30 5412 H 520.964 2.54905 4.39302 0
M  V30 5413 H 520.894 0.951944 5.17924 0
M  V30 5414 H 523.385 1.07616 3.62253 0
M  V30 5415 H 523.698 2.79291 7.20567 0
M  V30 5416 H 522.043 2.50526 6.48276 0
M  V30 5417 H 525.234 1.41358 4.46246 0
M  V30 5418 H 525.407 2.19622 6.09648 0
M  V30 5419 N 518.813 -1.54241 0.323641 0
M  V30 5420 C 520.062 -1.9975 -0.279806 0
M  V30 5421 C 520.375 -1.2156 -1.5324 0
M  V30 5422 O 521.581 -1.57447 -2.21185 0
M  V30 5423 C 520.037 -3.55686 -0.549115 0
M  V30 5424 C 519.645 -4.4271 0.686432 0
M  V30 5425 C 521.389 -4.09663 -1.11251 0
M  V30 5426 C 519.296 -5.90119 0.389022 0
M  V30 5427 H 518.226 -0.746177 -0.10833 0
M  V30 5428 H 520.877 -1.78248 0.435877 0
M  V30 5429 H 519.259 -3.73176 -1.32499 0
M  V30 5430 H 520.433 -4.36996 1.46188 0
M  V30 5431 H 518.748 -3.99623 1.17005 0
M  V30 5432 H 521.345 -5.17386 -1.34965 0
M  V30 5433 H 521.688 -3.61651 -2.06191 0
M  V30 5434 H 522.221 -3.95806 -0.39782 0
M  V30 5435 H 518.96 -6.42326 1.30759 0
M  V30 5436 H 518.48 -5.98785 -0.348722 0
M  V30 5437 H 520.159 -6.47 -0.0011164 0
M  V30 5438 N 520.291 -0.0518155 -1.57515 0
M  V30 5439 C 521.538 0.621823 -1.92716 0
M  V30 5440 C 521.866 1.70813 -0.930229 0
M  V30 5441 O 521.121 1.95616 0.0573708 0
M  V30 5442 C 521.42 1.25607 -3.34601 0
M  V30 5443 C 521.086 0.297901 -4.49915 0
M  V30 5444 C 519.748 0.034243 -4.81188 0
M  V30 5445 C 522.1 -0.358738 -5.19964 0
M  V30 5446 C 519.428 -0.893479 -5.79857 0
M  V30 5447 C 521.78 -1.27466 -6.19625 0
M  V30 5448 C 520.444 -1.54698 -6.49326 0
M  V30 5449 H 519.714 0.227541 -0.705199 0
M  V30 5450 H 522.361 -0.118432 -1.91133 0
M  V30 5451 H 520.666 2.07161 -3.32553 0
M  V30 5452 H 522.363 1.78424 -3.59118 0
M  V30 5453 H 518.953 0.513581 -4.25512 0
M  V30 5454 H 523.137 -0.168133 -4.96015 0
M  V30 5455 H 518.393 -1.11193 -6.01204 0
M  V30 5456 H 522.567 -1.78953 -6.73015 0
M  V30 5457 H 520.194 -2.26748 -7.25596 0
M  V30 5458 N 521.769 1.56035 0.221574 0
M  V30 5459 C 522.716 1.92413 1.27459 0
M  V30 5460 C 523.686 0.781323 1.46576 0
M  V30 5461 O 524.871 1.03721 1.60145 0
M  V30 5462 C 522.011 2.24617 2.61995 0
M  V30 5463 C 521.124 3.51831 2.50677 0
M  V30 5464 C 520.259 3.73482 3.77736 0
M  V30 5465 C 519.298 4.94211 3.6114 0
M  V30 5466 N 518.435 5.12252 4.80148 0
M  V30 5467 H 523.275 2.82203 0.957355 0
M  V30 5468 H 520.812 1.39676 0.461415 0
M  V30 5469 H 522.77 2.41298 3.40339 0
M  V30 5470 H 521.4 1.38 2.91815 0
M  V30 5471 H 520.452 3.43343 1.63767 0
M  V30 5472 H 521.764 4.40328 2.34334 0
M  V30 5473 H 520.918 3.9026 4.64523 0
M  V30 5474 H 519.657 2.83266 3.97003 0
M  V30 5475 H 518.662 4.77384 2.72736 0
M  V30 5476 H 519.887 5.85912 3.43343 0
M  V30 5477 H 517.833 4.24978 4.99729 0
M  V30 5478 H 517.75 5.94881 4.66532 0
M  V30 5479 H 519.018 5.33465 5.68362 0
M  V30 5480 N 523.247 -0.488276 1.49845 0
M  V30 5481 C 524.177 -1.59675 1.70371 0
M  V30 5482 C 525.158 -1.60878 0.552473 0
M  V30 5483 O 526.343 -1.77417 0.78973 0
M  V30 5484 C 523.473 -2.98098 1.782 0
M  V30 5485 C 522.427 -3.11761 2.93239 0
M  V30 5486 C 521.753 -4.51661 2.86193 0
M  V30 5487 C 523.053 -2.90589 4.33999 0
M  V30 5488 H 524.747 -1.42752 2.63177 0
M  V30 5489 H 522.293 -0.685317 1.26647 0
M  V30 5490 H 524.246 -3.75555 1.91144 0
M  V30 5491 H 522.97 -3.16138 0.820018 0
M  V30 5492 H 521.629 -2.36732 2.79917 0
M  V30 5493 H 521.277 -4.66595 1.87877 0
M  V30 5494 H 520.977 -4.61742 3.63412 0
M  V30 5495 H 522.501 -5.31162 3.01163 0
M  V30 5496 H 523.915 -3.57807 4.47936 0
M  V30 5497 H 522.312 -3.1213 5.12538 0
M  V30 5498 H 523.382 -1.86595 4.4756 0
M  V30 5499 N 524.725 -1.39134 -0.740242 0
M  V30 5500 C 525.95 -1.39518 -1.53459 0
M  V30 5501 C 526.375 0.00968883 -1.88098 0
M  V30 5502 O 525.733 0.995312 -1.51536 0
M  V30 5503 C 525.781 -2.26981 -2.802 0
M  V30 5504 O 524.885 -1.69609 -3.75908 0
M  V30 5505 H 524.226 -0.475328 -0.463637 0
M  V30 5506 H 526.756 -1.83064 -0.913717 0
M  V30 5507 H 526.766 -2.41309 -3.28989 0
M  V30 5508 H 525.441 -3.29081 -2.5432 0
M  V30 5509 H 524.018 -1.64495 -3.34658 0
M  V30 5510 N 526.204 0.969867 -1.24223 0
M  V30 5511 C 527.62 1.23809 -1.00716 0
M  V30 5512 C 527.82 1.99469 0.285358 0
M  V30 5513 O 526.876 2.31764 1.00207 0
M  V30 5514 C 528.189 2.02734 -2.2208 0
M  V30 5515 C 529.737 2.15834 -2.26681 0
M  V30 5516 C 530.212 2.98154 -3.47661 0
M  V30 5517 N 531.703 3.05737 -3.47964 0
M  V30 5518 C 532.438 3.69785 -4.38231 0
M  V30 5519 N 531.934 4.35569 -5.3875 0
M  V30 5520 N 533.727 3.66775 -4.25949 0
M  V30 5521 H 525.878 0.463294 -2.07286 0
M  V30 5522 H 528.141 0.267348 -0.909521 0
M  V30 5523 H 527.847 1.54524 -3.15935 0
M  V30 5524 H 527.721 3.0347 -2.24021 0
M  V30 5525 H 530.108 2.63248 -1.33359 0
M  V30 5526 H 530.189 1.14453 -2.28767 0
M  V30 5527 H 529.833 2.51435 -4.41297 0
M  V30 5528 H 529.763 3.99729 -3.42818 0
M  V30 5529 H 532.254 2.58941 -2.75242 0
M  V30 5530 H 532.567 4.82251 -6.03866 0
M  V30 5531 H 530.912 4.34244 -5.42639 0
M  V30 5532 H 534.103 3.14558 -3.46657 0
M  V30 5533 H 534.276 4.16407 -4.96497 0
M  V30 5534 N 527.682 1.05563 1.17022 0
M  V30 5535 C 528.632 0.630007 2.19123 0
M  V30 5536 C 529.616 -0.335472 1.57364 0
M  V30 5537 O 530.808 -0.1521 1.76345 0
M  V30 5538 C 527.937 0.0101676 3.43298 0
M  V30 5539 C 527.023 0.999698 4.12149 0
M  V30 5540 N 527.414 2.17251 4.56766 0
M  V30 5541 C 525.712 0.829 4.38228 0
M  V30 5542 C 526.413 2.79883 5.09942 0
M  V30 5543 N 525.389 2.07656 5.02374 0
M  V30 5544 H 529.191 1.52353 2.51328 0
M  V30 5545 H 526.705 0.926288 1.33393 0
M  V30 5546 H 528.702 -0.312541 4.15727 0
M  V30 5547 H 527.362 -0.878707 3.12584 0
M  V30 5548 H 528.373 2.55067 4.50734 0
M  V30 5549 H 525.05 -0.00850974 4.17499 0
M  V30 5550 H 526.44 3.79362 5.54558 0
M  V30 5551 N 529.16 -1.33526 0.837174 0
M  V30 5552 C 530.385 -2.0258 0.444545 0
M  V30 5553 C 530.81 -1.6258 -0.946006 0
M  V30 5554 O 530.168 -0.817548 -1.6182 0
M  V30 5555 C 530.216 -3.5605 0.571006 0
M  V30 5556 O 529.32 -4.10422 -0.403431 0
M  V30 5557 H 528.661 -0.638866 0.180958 0
M  V30 5558 H 531.191 -1.70462 1.13154 0
M  V30 5559 H 531.201 -4.05488 0.452024 0
M  V30 5560 H 529.876 -3.84509 1.58512 0
M  V30 5561 H 528.453 -3.72113 -0.242147 0
M  V30 5562 N 530.638 -0.59345 -1.46 0
M  V30 5563 C 531.585 0.133618 -2.30413 0
M  V30 5564 C 532.555 0.873736 -1.41262 0
M  V30 5565 O 533.74 0.862279 -1.70204 0
M  V30 5566 C 530.88 1.13434 -3.25924 0
M  V30 5567 C 529.993 0.39656 -4.30176 0
M  V30 5568 C 529.128 1.38575 -5.12806 0
M  V30 5569 C 528.167 0.634984 -6.08797 0
M  V30 5570 N 527.304 1.57276 -6.84258 0
M  V30 5571 H 532.144 -0.592252 -2.92055 0
M  V30 5572 H 529.681 -0.303874 -1.43927 0
M  V30 5573 H 531.639 1.72752 -3.79753 0
M  V30 5574 H 530.269 1.82779 -2.66067 0
M  V30 5575 H 529.321 -0.311861 -3.79119 0
M  V30 5576 H 530.633 -0.189869 -4.98438 0
M  V30 5577 H 529.787 2.05141 -5.70966 0
M  V30 5578 H 528.526 2.00611 -4.44529 0
M  V30 5579 H 527.531 -0.0443925 -5.49782 0
M  V30 5580 H 528.756 0.0198678 -6.79097 0
M  V30 5581 H 526.702 2.18103 -6.18682 0
M  V30 5582 H 526.619 1.03941 -7.48821 0
M  V30 5583 H 527.887 2.22844 -7.46968 0
M  V30 5584 N 532.116 1.54067 -0.331816 0
M  V30 5585 C 533.364 2.00319 0.267739 0
M  V30 5586 C 533.685 1.22148 1.52003 0
M  V30 5587 O 532.955 0.325494 1.93177 0
M  V30 5588 H 531.535 0.740014 0.101922 0
M  V30 5589 H 534.197 1.89628 -0.450267 0
M  V30 5590 H 533.293 3.07765 0.518385 0
M  V30 5591 N 533.594 0.0601682 1.57485 0
M  V30 5592 C 534.524 -0.90889 2.15085 0
M  V30 5593 C 535.505 -1.31838 1.07484 0
M  V30 5594 O 536.69 -1.3915 1.35466 0
M  V30 5595 C 533.82 -2.18059 2.7031 0
M  V30 5596 C 532.774 -1.91088 3.82974 0
M  V30 5597 C 532.1 -3.24789 4.24754 0
M  V30 5598 C 533.4 -1.22535 5.07723 0
M  V30 5599 H 535.094 -0.429093 2.96309 0
M  V30 5600 H 532.64 -0.204952 1.42534 0
M  V30 5601 H 534.593 -2.86258 3.09248 0
M  V30 5602 H 533.317 -2.6826 1.8629 0
M  V30 5603 H 531.976 -1.25297 3.44523 0
M  V30 5604 H 531.624 -3.72809 3.37672 0
M  V30 5605 H 531.324 -3.07538 5.00694 0
M  V30 5606 H 532.848 -3.94205 4.66299 0
M  V30 5607 H 534.262 -1.80783 5.4405 0
M  V30 5608 H 532.659 -1.1558 5.88864 0
M  V30 5609 H 533.729 -0.202692 4.84476 0
M  V30 5610 N 535.072 -1.5615 -0.213296 0
M  V30 5611 C 536.004 -1.89586 -1.28802 0
M  V30 5612 C 537.017 -0.784844 -1.42633 0
M  V30 5613 O 538.206 -1.06319 -1.43383 0
M  V30 5614 C 535.306 -2.09665 -2.66259 0
M  V30 5615 C 534.479 -3.40726 -2.7427 0
M  V30 5616 C 533.538 -3.50137 -3.92798 0
M  V30 5617 O 532.564 -4.23105 -3.8075 0
M  V30 5618 N 533.766 -2.81886 -5.07465 0
M  V30 5619 H 536.531 -2.82368 -1.00442 0
M  V30 5620 H 534.092 -1.56796 -0.403302 0
M  V30 5621 H 536.084 -2.13268 -3.43946 0
M  V30 5622 H 534.654 -1.23469 -2.87183 0
M  V30 5623 H 533.874 -3.4915 -1.82997 0
M  V30 5624 H 535.162 -4.27048 -2.76599 0
M  V30 5625 H 534.56 -2.22397 -5.2015 0
M  V30 5626 H 533.117 -2.91139 -5.83165 0
M  V30 5627 N 536.55 0.480323 -1.50102 0
M  V30 5628 C 537.799 1.22979 -1.59872 0
M  V30 5629 C 538.112 1.93282 -0.30022 0
M  V30 5630 O 539.318 2.70086 -0.276709 0
M  V30 5631 C 537.774 2.23408 -2.82164 0
M  V30 5632 C 537.382 1.5895 -4.18854 0
M  V30 5633 C 539.126 2.99055 -3.01275 0
M  V30 5634 C 537.033 2.57611 -5.32344 0
M  V30 5635 H 535.963 0.462707 -0.59533 0
M  V30 5636 H 538.614 0.501291 -1.7652 0
M  V30 5637 H 536.996 2.99511 -2.59055 0
M  V30 5638 H 538.17 0.887 -4.52182 0
M  V30 5639 H 536.485 0.956191 -4.05273 0
M  V30 5640 H 539.082 3.72876 -3.83233 0
M  V30 5641 H 539.425 3.57897 -2.12639 0
M  V30 5642 H 539.958 2.30066 -3.24522 0
M  V30 5643 H 536.697 2.03521 -6.23105 0
M  V30 5644 H 536.217 3.26041 -5.03445 0
M  V30 5645 H 537.896 3.19627 -5.62537 0
M  V30 5646 N 538.028 1.39524 0.732853 0
M  V30 5647 C 538.958 1.41153 1.86005 0
M  V30 5648 C 539.939 0.274614 1.67869 0
M  V30 5649 O 541.124 0.480745 1.88155 0
M  V30 5650 C 538.254 1.25638 3.23778 0
M  V30 5651 C 537.208 2.36752 3.56556 0
M  V30 5652 C 536.534 2.06326 4.93289 0
M  V30 5653 C 537.834 3.79069 3.5931 0
M  V30 5654 H 539.528 2.35484 1.84899 0
M  V30 5655 H 537.074 1.13348 0.888162 0
M  V30 5656 H 539.027 1.25398 4.0231 0
M  V30 5657 H 537.751 0.277772 3.25417 0
M  V30 5658 H 536.41 2.36213 2.80355 0
M  V30 5659 H 536.058 1.06897 4.9151 0
M  V30 5660 H 535.758 2.80757 5.16187 0
M  V30 5661 H 537.282 2.07739 5.74175 0
M  V30 5662 H 538.696 3.81526 4.27914 0
M  V30 5663 H 537.093 4.52878 3.93728 0
M  V30 5664 H 538.163 4.09893 2.59068 0
M  V30 5665 N 539.506 -0.963266 1.24736 0
M  V30 5666 C 540.754 -1.70343 1.08755 0
M  V30 5667 C 541.075 -1.91387 -0.373619 0
M  V30 5668 O 540.345 -1.4948 -1.2662 0
M  V30 5669 H 538.925 -0.631224 0.399456 0
M  V30 5670 H 541.587 -1.15859 1.56725 0
M  V30 5671 H 540.683 -2.68616 1.58909 0
M  V30 5672 N 540.985 -1.06182 -1.16461 0
M  V30 5673 C 541.932 -0.671613 -2.20812 0
M  V30 5674 C 542.902 0.331186 -1.62765 0
M  V30 5675 O 544.087 0.22033 -1.89524 0
M  V30 5676 C 541.227 -0.063029 -3.45042 0
M  V30 5677 C 540.34 -1.11587 -4.1734 0
M  V30 5678 C 539.475 -0.473546 -5.29085 0
M  V30 5679 C 538.514 -1.51 -5.93182 0
M  V30 5680 N 537.651 -0.891118 -6.96422 0
M  V30 5681 H 542.491 -1.56589 -2.53542 0
M  V30 5682 H 540.028 -0.782951 -1.24532 0
M  V30 5683 H 541.986 0.307344 -4.16066 0
M  V30 5684 H 540.616 0.794663 -3.12866 0
M  V30 5685 H 539.668 -1.60396 -3.44931 0
M  V30 5686 H 540.98 -1.90221 -4.61104 0
M  V30 5687 H 540.134 -0.0501432 -6.06679 0
M  V30 5688 H 538.873 0.344687 -4.8648 0
M  V30 5689 H 537.878 -1.94331 -5.14311 0
M  V30 5690 H 539.103 -2.33031 -6.37866 0
M  V30 5691 H 537.049 -0.0935753 -6.55933 0
M  V30 5692 H 536.966 -1.61486 -7.38551 0
M  V30 5693 H 538.234 -0.492822 -7.77941 0
M  V30 5694 N 542.463 1.3308 -0.844243 0
M  V30 5695 C 543.691 2.01808 -0.456203 0
M  V30 5696 C 544.106 1.63498 0.944131 0
M  V30 5697 O 543.463 0.85102 1.61443 0
M  V30 5698 C 543.514 3.56922 -0.573513 0
M  V30 5699 O 543.235 3.93851 -1.91868 0
M  V30 5700 C 544.736 4.42922 -0.183125 0
M  V30 5701 H 541.956 0.646273 -0.180477 0
M  V30 5702 H 544.5 1.69891 -1.1383 0
M  V30 5703 H 542.655 3.87352 0.0607367 0
M  V30 5704 H 543.069 4.88564 -1.90802 0
M  V30 5705 H 544.543 5.51093 -0.316241 0
M  V30 5706 H 545.02 4.30386 0.875477 0
M  V30 5707 H 545.626 4.1786 -0.792027 0
M  V30 5708 N 543.941 0.601185 1.45683 0
M  V30 5709 C 544.871 -0.108824 2.33246 0
M  V30 5710 C 545.852 -0.865223 1.46451 0
M  V30 5711 O 547.037 -0.83704 1.75235 0
M  V30 5712 C 544.167 -1.11101 3.2905 0
M  V30 5713 C 543.121 -0.468244 4.25431 0
M  V30 5714 C 542.447 -1.57822 5.10878 0
M  V30 5715 C 543.747 0.606469 5.18767 0
M  V30 5716 H 545.441 0.622306 2.92861 0
M  V30 5717 H 542.987 0.300714 1.40825 0
M  V30 5718 H 544.94 -1.61622 3.89174 0
M  V30 5719 H 543.664 -1.87265 2.67581 0
M  V30 5720 H 542.323 0.0160484 3.66596 0
M  V30 5721 H 541.971 -2.32998 4.45781 0
M  V30 5722 H 541.671 -1.15369 5.76163 0
M  V30 5723 H 543.195 -2.08583 5.73869 0
M  V30 5724 H 544.609 0.185589 5.73 0
M  V30 5725 H 543.006 0.952381 5.92494 0
M  V30 5726 H 544.076 1.48559 4.61582 0
M  V30 5727 N 545.419 -1.53889 0.339982 0
M  V30 5728 C 546.351 -2.22435 -0.55275 0
M  V30 5729 C 547.364 -1.22975 -1.06681 0
M  V30 5730 O 548.553 -1.49351 -0.977575 0
M  V30 5731 C 545.653 -2.8882 -1.77302 0
M  V30 5732 C 544.826 -4.14563 -1.39486 0
M  V30 5733 C 543.885 -4.64391 -2.47442 0
M  V30 5734 O 542.911 -5.28687 -2.10899 0
M  V30 5735 N 544.113 -4.40015 -3.78639 0
M  V30 5736 H 546.878 -2.9968 0.0342669 0
M  V30 5737 H 544.439 -1.61068 0.16394 0
M  V30 5738 H 546.431 -3.19072 -2.48948 0
M  V30 5739 H 545.001 -2.15182 -2.26749 0
M  V30 5740 H 544.221 -3.90896 -0.509321 0
M  V30 5741 H 545.509 -4.96362 -1.11813 0
M  V30 5742 H 544.907 -3.88586 -4.11118 0
M  V30 5743 H 543.464 -4.74881 -4.46465 0
M  V30 5744 N 546.897 -0.0685191 -1.57451 0
M  V30 5745 C 547.86 0.885173 -2.11417 0
M  V30 5746 C 548.86 1.22853 -1.03748 0
M  V30 5747 O 550.05 1.16235 -1.2975 0
M  V30 5748 C 547.182 2.18964 -2.61281 0
M  V30 5749 H 548.375 0.417034 -2.96986 0
M  V30 5750 H 545.928 0.18014 -1.55258 0
M  V30 5751 H 546.663 2.70321 -1.79156 0
M  V30 5752 H 546.448 1.9534 -3.39977 0
M  V30 5753 H 547.938 2.87242 -3.0312 0
M  V30 5754 N 548.375 1.56261 0.205012 0
M  V30 5755 C 549.6 1.84491 0.947512 0
M  V30 5756 C 550.025 0.650894 1.76479 0
M  V30 5757 O 549.383 -0.40035 1.76824 0
M  V30 5758 C 549.431 3.10863 1.82747 0
M  V30 5759 O 548.535 2.90719 2.925 0
M  V30 5760 H 547.876 0.607783 0.267386 0
M  V30 5761 H 550.406 2.03485 0.213323 0
M  V30 5762 H 550.416 3.41399 2.23407 0
M  V30 5763 H 549.091 3.97392 1.2269 0
M  V30 5764 H 547.668 2.71457 2.55667 0
M  V30 5765 N 549.853 -0.472356 1.50355 0
M  V30 5766 C 550.786 -1.58923 1.63764 0
M  V30 5767 C 551.764 -1.55173 0.485793 0
M  V30 5768 O 552.948 -1.74815 0.705132 0
M  V30 5769 C 550.075 -2.97497 1.61905 0
M  V30 5770 C 549.121 -3.19405 2.82635 0
M  V30 5771 S 549.954 -2.99441 4.43954 0
M  V30 5772 C 551.11 -4.40359 4.44786 0
M  V30 5773 H 551.343 -1.47309 2.58239 0
M  V30 5774 H 548.876 -0.659601 1.39602 0
M  V30 5775 H 550.834 -3.77389 1.61518 0
M  V30 5776 H 549.495 -3.06502 0.686683 0
M  V30 5777 H 548.688 -4.20636 2.77636 0
M  V30 5778 H 548.29 -2.47283 2.80583 0
M  V30 5779 H 550.582 -5.32969 4.1827 0
M  V30 5780 H 551.525 -4.50403 5.46391 0
M  V30 5781 H 551.933 -4.22378 3.74509 0
M  V30 5782 N 551.331 -1.39911 -0.725443 0
M  V30 5783 C 552.747 -1.21725 -1.03224 0
M  V30 5784 C 552.947 -0.0855224 -2.01318 0
M  V30 5785 O 552.003 0.55976 -2.46217 0
M  V30 5786 C 553.316 -2.55511 -1.58539 0
M  V30 5787 C 554.864 -2.62439 -1.70572 0
M  V30 5788 C 555.339 -3.9647 -2.29294 0
M  V30 5789 N 556.83 -3.98159 -2.36692 0
M  V30 5790 C 557.565 -4.98647 -2.83088 0
M  V30 5791 N 557.061 -6.0953 -3.2931 0
M  V30 5792 N 558.854 -4.8602 -2.82384 0
M  V30 5793 H 551.005 -2.12267 -0.075048 0
M  V30 5794 H 553.268 -0.943136 -0.0959066 0
M  V30 5795 H 552.974 -3.38926 -0.939249 0
M  V30 5796 H 552.848 -2.75905 -2.57208 0
M  V30 5797 H 555.235 -1.79401 -2.34306 0
M  V30 5798 H 555.316 -2.45885 -0.705297 0
M  V30 5799 H 554.96 -4.79942 -1.66186 0
M  V30 5800 H 554.89 -4.10349 -3.30032 0
M  V30 5801 H 557.381 -3.18085 -2.04035 0
M  V30 5802 H 557.694 -6.82106 -3.6325 0
M  V30 5803 H 556.039 -6.1311 -3.27294 0
M  V30 5804 H 559.23 -3.98493 -2.45603 0
M  V30 5805 H 559.403 -5.64478 -3.18226 0
M  V30 5806 N 552.809 0.956637 -1.25245 0
M  V30 5807 C 553.719 2.0868 -1.0719 0
M  V30 5808 C 554.735 1.73997 -0.00959074 0
M  V30 5809 O 555.911 2.00301 -0.210104 0
M  V30 5810 C 552.976 3.39754 -0.690526 0
M  V30 5811 C 552.037 3.88316 -1.83055 0
M  V30 5812 C 551.27 5.13134 -1.46728 0
M  V30 5813 O 551.493 5.6925 -0.362029 0
M  V30 5814 O 550.427 5.56356 -2.29677 0
M  V30 5815 H 554.253 2.26813 -2.01965 0
M  V30 5816 H 551.838 1.07098 -1.04165 0
M  V30 5817 H 553.72 4.18543 -0.489871 0
M  V30 5818 H 552.395 3.22896 0.227981 0
M  V30 5819 H 551.302 3.1054 -2.08604 0
M  V30 5820 H 552.635 4.09669 -2.72822 0
M  V30 5821 N 554.287 1.06798 1.15896 0
M  V30 5822 C 555.217 0.704677 2.22613 0
M  V30 5823 C 556.198 -0.305252 1.67339 0
M  V30 5824 O 557.383 -0.179247 1.93371 0
M  V30 5825 C 554.513 0.0957325 3.47168 0
M  V30 5826 C 553.467 1.0322 4.15367 0
M  V30 5827 C 552.793 0.286293 5.33933 0
M  V30 5828 C 554.093 2.36341 4.65768 0
M  V30 5829 H 555.787 1.59688 2.53259 0
M  V30 5830 H 553.333 0.769257 1.21731 0
M  V30 5831 H 555.286 -0.170333 4.21056 0
M  V30 5832 H 554.01 -0.831516 3.15838 0
M  V30 5833 H 552.669 1.28309 3.43413 0
M  V30 5834 H 552.317 -0.644237 4.98857 0
M  V30 5835 H 552.017 0.910436 5.80504 0
M  V30 5836 H 553.541 0.0278938 6.10594 0
M  V30 5837 H 554.955 2.1561 5.31211 0
M  V30 5838 H 553.352 2.94299 5.2298 0
M  V30 5839 H 554.422 2.99047 3.81705 0
M  V30 5840 N 555.766 -1.3263 0.851289 0
M  V30 5841 C 557.014 -1.96978 0.452128 0
M  V30 5842 C 557.335 -1.67715 -0.99482 0
M  V30 5843 O 556.605 -0.98259 -1.69476 0
M  V30 5844 H 555.185 -0.72873 0.164202 0
M  V30 5845 H 557.847 -1.61774 1.08698 0
M  V30 5846 H 556.943 -3.06387 0.594407 0
M  V30 5847 N 557.244 -0.608902 -1.45362 0
M  V30 5848 C 558.174 0.0964526 -2.33301 0
M  V30 5849 C 559.155 0.857444 -1.46908 0
M  V30 5850 O 560.34 0.827735 -1.75676 0
M  V30 5851 C 557.47 1.09354 -3.29635 0
M  V30 5852 C 556.424 0.445676 -4.25673 0
M  V30 5853 C 555.75 1.5511 -5.11708 0
M  V30 5854 C 557.05 -0.633972 -5.18438 0
M  V30 5855 H 558.744 -0.637829 -2.92527 0
M  V30 5856 H 556.29 -0.308178 -1.40664 0
M  V30 5857 H 558.243 1.59556 -3.90025 0
M  V30 5858 H 556.967 1.85843 -2.6857 0
M  V30 5859 H 555.626 -0.0354897 -3.66583 0
M  V30 5860 H 555.274 2.30631 -4.4701 0
M  V30 5861 H 554.974 1.12311 -5.76767 0
M  V30 5862 H 556.498 2.05537 -5.74967 0
M  V30 5863 H 557.912 -0.215974 -5.72893 0
M  V30 5864 H 556.309 -0.983789 -5.91981 0
M  V30 5865 H 557.379 -1.51005 -4.60788 0
M  V30 5866 N 558.722 1.53707 -0.348139 0
M  V30 5867 C 559.652 2.28111 0.498766 0
M  V30 5868 C 560.633 1.29851 1.09876 0
M  V30 5869 O 561.818 1.587 1.11928 0
M  V30 5870 C 558.948 3.05735 1.64753 0
M  V30 5871 C 557.902 4.11537 1.17565 0
M  V30 5872 C 557.228 4.77142 2.4133 0
M  V30 5873 C 558.528 5.21587 0.272844 0
M  V30 5874 H 560.222 2.99152 -0.121934 0
M  V30 5875 H 557.768 1.43875 -0.0600842 0
M  V30 5876 H 559.721 3.56526 2.24649 0
M  V30 5877 H 558.445 2.32354 2.2952 0
M  V30 5878 H 557.104 3.61665 0.599483 0
M  V30 5879 H 556.752 4.0035 3.04514 0
M  V30 5880 H 556.452 5.48626 2.10436 0
M  V30 5881 H 557.976 5.30719 3.01943 0
M  V30 5882 H 559.39 5.67986 0.778779 0
M  V30 5883 H 557.787 6.00074 0.0555849 0
M  V30 5884 H 558.857 4.79969 -0.689785 0
M  V30 5885 N 560.2 0.0768682 1.57412 0
M  V30 5886 C 561.449 -0.590679 1.92857 0
M  V30 5887 C 561.762 -1.70461 0.959293 0
M  V30 5888 O 562.968 -2.43207 1.20675 0
M  V30 5889 C 561.424 -1.10204 3.42612 0
M  V30 5890 C 561.032 -0.0188447 4.47996 0
M  V30 5891 C 562.776 -1.74336 3.87049 0
M  V30 5892 C 560.683 -0.544536 5.88888 0
M  V30 5893 H 559.613 -0.224411 0.71983 0
M  V30 5894 H 562.264 0.149924 1.82887 0
M  V30 5895 H 560.646 -1.89577 3.47673 0
M  V30 5896 H 561.82 0.755936 4.54557 0
M  V30 5897 H 560.135 0.526555 4.13057 0
M  V30 5898 H 562.732 -2.14708 4.89699 0
M  V30 5899 H 563.075 -2.60537 3.24694 0
M  V30 5900 H 563.608 -1.01577 3.84613 0
M  V30 5901 H 560.347 0.280426 6.549 0
M  V30 5902 H 559.867 -1.28673 5.85836 0
M  V30 5903 H 561.546 -1.01933 6.3892 0
M  V30 5904 N 561.678 -1.56367 -0.196722 0
M  V30 5905 C 562.925 -1.80529 -0.917366 0
M  V30 5906 C 563.253 -0.649817 -1.83324 0
M  V30 5907 O 562.508 0.36451 -1.92275 0
M  V30 5908 C 562.807 -3.10663 -1.767 0
M  V30 5909 C 562.473 -4.3962 -1.00225 0
M  V30 5910 C 561.135 -4.74653 -0.791095 0
M  V30 5911 C 563.487 -5.1913 -0.464035 0
M  V30 5912 C 560.815 -5.86692 -0.0302155 0
M  V30 5913 C 563.167 -6.31964 0.283625 0
M  V30 5914 C 561.831 -6.65581 0.505813 0
M  V30 5915 H 561.101 -0.660602 -0.335688 0
M  V30 5916 H 563.748 -1.90615 -0.183844 0
M  V30 5917 H 562.053 -2.95807 -2.56915 0
M  V30 5918 H 563.75 -3.26563 -2.32718 0
M  V30 5919 H 560.34 -4.12127 -1.17684 0
M  V30 5920 H 564.524 -4.9248 -0.614575 0
M  V30 5921 H 559.78 -6.11211 0.151917 0
M  V30 5922 H 563.954 -6.92791 0.708057 0
M  V30 5923 H 561.581 -7.52239 1.0973 0
M  V30 5924 N 563.156 0.464375 -1.50603 0
M  V30 5925 C 564.403 1.21596 -1.61928 0
M  V30 5926 C 564.731 1.91804 -0.322737 0
M  V30 5927 O 563.986 1.83065 0.691776 0
M  V30 5928 C 564.285 2.278 -2.75394 0
M  V30 5929 C 563.951 1.74797 -4.1564 0
M  V30 5930 C 562.613 1.60063 -4.53799 0
M  V30 5931 C 564.965 1.35548 -5.03266 0
M  V30 5932 C 562.293 1.04514 -5.77316 0
M  V30 5933 C 564.645 0.814381 -6.27336 0
M  V30 5934 C 563.309 0.653726 -6.64291 0
M  V30 5935 H 562.579 0.444951 -0.592536 0
M  V30 5936 H 565.226 0.510964 -1.84557 0
M  V30 5937 H 563.531 3.04233 -2.46879 0
M  V30 5938 H 565.228 2.85723 -2.81359 0
M  V30 5939 H 561.818 1.87234 -3.8554 0
M  V30 5940 H 566.002 1.45763 -4.74412 0
M  V30 5941 H 561.258 0.908186 -6.04617 0
M  V30 5942 H 565.432 0.501626 -6.94591 0
M  V30 5943 H 563.059 0.22114 -7.59878 0
M  V30 5944 N 564.634 1.40294 0.718013 0
M  V30 5945 C 565.564 1.43118 1.84498 0
M  V30 5946 C 566.545 0.292403 1.67568 0
M  V30 5947 O 567.73 0.500675 1.87635 0
M  V30 5948 C 564.86 1.29065 3.22427 0
M  V30 5949 C 563.814 2.40521 3.54025 0
M  V30 5950 C 563.14 2.11546 4.91073 0
M  V30 5951 C 564.44 3.82859 3.55269 0
M  V30 5952 H 566.134 2.37432 1.82391 0
M  V30 5953 H 563.68 1.14283 0.87609 0
M  V30 5954 H 565.633 1.29658 4.00957 0
M  V30 5955 H 564.357 0.312271 3.25104 0
M  V30 5956 H 563.016 2.39173 2.77834 0
M  V30 5957 H 562.664 1.12104 4.90348 0
M  V30 5958 H 562.364 2.86216 5.1318 0
M  V30 5959 H 563.888 2.13817 5.71939 0
M  V30 5960 H 565.302 3.86044 4.23843 0
M  V30 5961 H 563.699 4.57029 3.88902 0
M  V30 5962 H 564.769 4.12617 2.54706 0
M  V30 5963 N 566.112 -0.949982 1.2575 0
M  V30 5964 C 567.359 -1.69515 1.10774 0
M  V30 5965 C 567.687 -1.91316 -0.350479 0
M  V30 5966 O 566.942 -1.48515 -1.27443 0
M  V30 5967 C 567.241 -3.08039 1.81237 0
M  V30 5968 C 566.907 -3.06023 3.31151 0
M  V30 5969 C 565.569 -3.0518 3.72047 0
M  V30 5970 C 567.921 -2.98998 4.26907 0
M  V30 5971 C 565.249 -2.95067 5.07102 0
M  V30 5972 C 567.601 -2.90426 5.61992 0
M  V30 5973 C 566.265 -2.87922 6.0221 0
M  V30 5974 H 565.535 -0.6203 0.405351 0
M  V30 5975 H 568.182 -1.10953 1.56082 0
M  V30 5976 H 566.487 -3.70172 1.28373 0
M  V30 5977 H 568.184 -3.64526 1.67098 0
M  V30 5978 H 564.774 -3.07453 2.98614 0
M  V30 5979 H 568.958 -2.98764 3.963 0
M  V30 5980 H 564.214 -2.915 5.37436 0
M  V30 5981 H 568.388 -2.83952 6.35881 0
M  V30 5982 H 566.015 -2.79841 7.06819 0
M  V30 5983 N 567.59 -1.07411 -1.15328 0
M  V30 5984 C 568.839 -0.792643 -1.85473 0
M  V30 5985 C 569.152 0.683789 -1.83259 0
M  V30 5986 O 570.358 1.08005 -2.49093 0
M  V30 5987 C 568.814 -1.36787 -3.32892 0
M  V30 5988 C 568.422 -2.87536 -3.43551 0
M  V30 5989 C 570.166 -1.16444 -4.08217 0
M  V30 5990 C 568.073 -3.38247 -4.85122 0
M  V30 5991 H 567.003 -0.292838 -0.694811 0
M  V30 5992 H 569.654 -1.29426 -1.30082 0
M  V30 5993 H 568.036 -0.793993 -3.87958 0
M  V30 5994 H 569.21 -3.50973 -2.98588 0
M  V30 5995 H 567.525 -3.06676 -2.81672 0
M  V30 5996 H 570.122 -1.51808 -5.12697 0
M  V30 5997 H 570.465 -0.10353 -4.16171 0
M  V30 5998 H 570.998 -1.70472 -3.59422 0
M  V30 5999 H 567.737 -4.43866 -4.82351 0
M  V30 6000 H 567.257 -2.79564 -5.30664 0
M  V30 6001 H 568.936 -3.34238 -5.5398 0
M  V30 6002 N 569.068 1.32177 -0.85831 0
M  V30 6003 C 570.316 1.96735 -0.462568 0
M  V30 6004 C 570.637 1.6824 0.985911 0
M  V30 6005 O 569.907 0.991564 1.68952 0
M  V30 6006 H 568.487 0.727849 -0.168064 0
M  V30 6007 H 571.149 1.61195 -1.09554 0
M  V30 6008 H 570.245 3.06068 -0.610647 0
M  V30 6009 N 570.547 0.616602 1.45037 0
M  V30 6010 C 571.793 0.115501 2.02471 0
M  V30 6011 C 572.126 -1.25406 1.4828 0
M  V30 6012 O 571.401 -1.82922 0.661051 0
M  V30 6013 C 571.684 0.0863588 3.59996 0
M  V30 6014 C 571.537 1.48723 4.24501 0
M  V30 6015 C 572.856 -0.596762 4.36035 0
M  V30 6016 H 569.975 0.0434461 0.735718 0
M  V30 6017 H 572.617 0.7903 1.72784 0
M  V30 6018 H 570.767 -0.488277 3.85419 0
M  V30 6019 H 572.439 2.10964 4.10234 0
M  V30 6020 H 570.682 2.04534 3.82555 0
M  V30 6021 H 571.353 1.419 5.3345 0
M  V30 6022 H 573.829 -0.10824 4.15959 0
M  V30 6023 H 572.705 -0.586289 5.4576 0
M  V30 6024 H 572.966 -1.66451 4.09569 0
M  V30 6025 N 572.025 -1.5352 0.356285 0
M  V30 6026 C 573.274 -2.00298 -0.237373 0
M  V30 6027 C 573.587 -1.24784 -1.50627 0
M  V30 6028 O 574.793 -1.62103 -2.17795 0
M  V30 6029 C 573.249 -3.56771 -0.473545 0
M  V30 6030 C 572.857 -4.41154 0.780183 0
M  V30 6031 C 574.601 -4.1193 -1.02537 0
M  V30 6032 C 572.508 -5.89161 0.514108 0
M  V30 6033 H 571.438 -0.748307 -0.092478 0
M  V30 6034 H 574.089 -1.77283 0.473588 0
M  V30 6035 H 572.471 -3.75902 -1.24553 0
M  V30 6036 H 573.645 -4.33797 1.55425 0
M  V30 6037 H 571.96 -3.97052 1.25455 0
M  V30 6038 H 574.557 -5.20133 -1.2396 0
M  V30 6039 H 574.9 -3.65943 -1.98473 0
M  V30 6040 H 575.433 -3.96561 -0.313775 0
M  V30 6041 H 572.172 -6.39408 1.44355 0
M  V30 6042 H 571.692 -5.9939 -0.221632 0
M  V30 6043 H 573.371 -6.46857 0.136122 0
M  V30 6044 N 573.503 -0.0852151 -1.57369 0
M  V30 6045 C 574.433 0.874556 -2.16503 0
M  V30 6046 C 575.414 1.30111 -1.09568 0
M  V30 6047 O 576.599 1.36977 -1.37662 0
M  V30 6048 C 573.729 2.13731 -2.73745 0
M  V30 6049 C 572.683 1.84971 -3.85966 0
M  V30 6050 C 572.009 3.17991 -4.29867 0
M  V30 6051 C 573.309 1.14442 -5.09608 0
M  V30 6052 H 575.003 0.381899 -2.96954 0
M  V30 6053 H 572.549 0.18225 -1.42842 0
M  V30 6054 H 574.502 2.81302 -3.13763 0
M  V30 6055 H 573.226 2.65263 -1.90534 0
M  V30 6056 H 571.885 1.19801 -3.46473 0
M  V30 6057 H 571.533 3.6739 -3.4356 0
M  V30 6058 H 571.233 2.99534 -5.05523 0
M  V30 6059 H 572.757 3.86737 -4.72511 0
M  V30 6060 H 574.171 1.72105 -5.46857 0
M  V30 6061 H 572.568 1.06197 -5.90629 0
M  V30 6062 H 573.638 0.12559 -4.84737 0
M  V30 6063 N 574.981 1.5647 0.188427 0
M  V30 6064 C 576.228 1.81013 0.907779 0
M  V30 6065 C 576.556 0.65953 1.82977 0
M  V30 6066 O 575.811 -0.354308 1.92466 0
M  V30 6067 C 576.11 3.11596 1.7505 0
M  V30 6068 C 575.776 4.40145 0.978922 0
M  V30 6069 C 574.438 4.75066 0.765912 0
M  V30 6070 C 576.79 5.19369 0.436498 0
M  V30 6071 C 574.118 5.867 -0.00089868 0
M  V30 6072 C 576.47 6.31805 -0.317136 0
M  V30 6073 C 575.134 6.65303 -0.541103 0
M  V30 6074 H 574.404 0.662373 0.33218 0
M  V30 6075 H 577.051 1.9071 0.173732 0
M  V30 6076 H 575.356 2.97165 2.55343 0
M  V30 6077 H 577.053 3.27793 2.30983 0
M  V30 6078 H 573.643 4.12745 1.15497 0
M  V30 6079 H 577.827 4.92799 0.588449 0
M  V30 6080 H 573.083 6.11122 -0.184329 0
M  V30 6081 H 577.257 6.92406 -0.744788 0
M  V30 6082 H 574.884 7.51646 -1.13718 0
M  V30 6083 N 576.459 -0.456382 1.50847 0
M  V30 6084 C 577.684 -1.2349 1.66628 0
M  V30 6085 C 578.109 -1.84715 0.355254 0
M  V30 6086 O 577.467 -1.67961 -0.682559 0
M  V30 6087 C 577.515 -2.30865 2.77009 0
M  V30 6088 O 576.619 -3.35882 2.39285 0
M  V30 6089 H 575.96 -0.36266 0.556214 0
M  V30 6090 H 578.49 -0.541374 1.97308 0
M  V30 6091 H 578.5 -2.75949 3.00526 0
M  V30 6092 H 577.175 -1.85677 3.72152 0
M  V30 6093 H 575.752 -2.96406 2.26269 0
M  V30 6094 N 577.937 -1.40673 -0.710563 0
M  V30 6095 C 579.162 -1.42741 -1.50465 0
M  V30 6096 C 579.587 -0.0302116 -1.88076 0
M  V30 6097 O 578.945 0.962945 -1.53613 0
M  V30 6098 C 578.993 -2.32873 -2.75322 0
M  V30 6099 O 578.097 -1.77544 -3.72226 0
M  V30 6100 H 577.438 -0.485056 -0.45345 0
M  V30 6101 H 579.968 -1.84961 -0.874681 0
M  V30 6102 H 579.978 -2.48233 -3.23797 0
M  V30 6103 H 578.653 -3.34401 -2.47283 0
M  V30 6104 H 577.23 -1.71556 -3.31093 0
M  V30 6105 N 579.415 0.9433 -1.26252 0
M  V30 6106 C 580.378 2.02326 -1.07689 0
M  V30 6107 C 581.378 1.60779 -0.0259174 0
M  V30 6108 O 582.568 1.72108 -0.269134 0
M  V30 6109 C 579.7 3.34886 -0.63752 0
M  V30 6110 H 580.893 2.20225 -2.0357 0
M  V30 6111 H 578.446 1.12197 -1.08819 0
M  V30 6112 H 579.181 3.22684 0.323377 0
M  V30 6113 H 578.966 3.66393 -1.39637 0
M  V30 6114 H 580.456 4.14231 -0.529418 0
M  V30 6115 N 580.893 1.08022 1.14757 0
M  V30 6116 C 582.139 0.808705 1.85978 0
M  V30 6117 C 582.472 -0.663764 1.82504 0
M  V30 6118 O 581.747 -1.48765 1.25296 0
M  V30 6119 C 582.03 1.32623 3.34788 0
M  V30 6120 C 581.883 2.86375 3.46856 0
M  V30 6121 C 583.202 0.948291 4.29762 0
M  V30 6122 H 580.321 0.295244 0.675278 0
M  V30 6123 H 582.963 1.33917 1.34783 0
M  V30 6124 H 581.113 0.875002 3.78518 0
M  V30 6125 H 582.785 3.39839 3.11941 0
M  V30 6126 H 581.028 3.24232 2.88194 0
M  V30 6127 H 581.699 3.17658 4.51439 0
M  V30 6128 H 584.175 1.33722 3.94028 0
M  V30 6129 H 583.051 1.33765 5.32352 0
M  V30 6130 H 583.312 -0.145094 4.41862 0
M  V30 6131 N 582.371 -1.3172 0.865308 0
M  V30 6132 C 583.601 -2.00765 0.487543 0
M  V30 6133 C 584.009 -1.65145 -0.92325 0
M  V30 6134 O 583.352 -0.874294 -1.61561 0
M  V30 6135 C 583.414 -3.55122 0.559369 0
M  V30 6136 C 583.078 -4.14202 1.93095 0
M  V30 6137 C 584.075 -4.3165 2.89784 0
M  V30 6138 C 581.76 -4.50036 2.23099 0
M  V30 6139 C 583.754 -4.84114 4.14623 0
M  V30 6140 C 581.441 -5.02203 3.48189 0
M  V30 6141 C 582.439 -5.19192 4.43767 0
M  V30 6142 O 582.127 -5.70241 5.6664 0
M  V30 6143 H 581.859 -0.649066 0.188915 0
M  V30 6144 H 584.413 -1.69032 1.16694 0
M  V30 6145 H 582.643 -3.86295 -0.176926 0
M  V30 6146 H 584.332 -4.05428 0.195694 0
M  V30 6147 H 585.098 -4.04288 2.6791 0
M  V30 6148 H 580.977 -4.36091 1.49485 0
M  V30 6149 H 584.521 -4.9729 4.89233 0
M  V30 6150 H 580.418 -5.28997 3.69908 0
M  V30 6151 H 581.186 -5.88617 5.68746 0
M  V30 6152 N 583.85 -0.624285 -1.44708 0
M  V30 6153 C 585.096 -0.126051 -2.02107 0
M  V30 6154 C 585.425 1.2496 -1.49048 0
M  V30 6155 O 584.68 1.84163 -0.662005 0
M  V30 6156 C 584.979 -0.0546353 -3.57358 0
M  V30 6157 C 584.644 -1.36815 -4.29642 0
M  V30 6158 C 583.307 -1.72792 -4.49106 0
M  V30 6159 C 585.659 -2.23549 -4.70824 0
M  V30 6160 C 582.986 -2.95222 -5.07012 0
M  V30 6161 C 585.339 -3.45243 -5.30085 0
M  V30 6162 C 584.003 -3.81452 -5.47769 0
M  V30 6163 H 583.273 -0.0461252 -0.739563 0
M  V30 6164 H 585.92 -0.809236 -1.73562 0
M  V30 6165 H 584.225 0.711891 -3.85278 0
M  V30 6166 H 585.922 0.347282 -3.99493 0
M  V30 6167 H 582.512 -1.07817 -4.14817 0
M  V30 6168 H 586.696 -1.9705 -4.55505 0
M  V30 6169 H 581.952 -3.23361 -5.18891 0
M  V30 6170 H 586.125 -4.12689 -5.60946 0
M  V30 6171 H 583.753 -4.76403 -5.92405 0
M  V30 6172 N 585.328 1.53329 -0.364422 0
M  V30 6173 C 586.291 2.24323 0.470292 0
M  V30 6174 C 587.291 1.25068 1.01067 0
M  V30 6175 O 588.481 1.49354 0.896605 0
M  V30 6176 C 585.613 2.97908 1.65722 0
M  V30 6177 H 586.806 2.9952 -0.150917 0
M  V30 6178 H 584.359 1.55868 -0.116092 0
M  V30 6179 H 585.094 2.2695 2.31655 0
M  V30 6180 H 584.879 3.70732 1.27671 0
M  V30 6181 H 586.369 3.5188 2.24878 0
M  V30 6182 N 586.806 0.0935595 1.57322 0
M  V30 6183 C 587.716 -0.880192 2.17462 0
M  V30 6184 C 588.732 -1.31135 1.14366 0
M  V30 6185 O 589.908 -1.37958 1.46729 0
M  V30 6186 C 586.973 -2.12184 2.74188 0
M  V30 6187 C 586.034 -1.74503 3.92234 0
M  V30 6188 C 585.267 -2.92748 4.46245 0
M  V30 6189 O 585.49 -4.07427 3.99198 0
M  V30 6190 O 584.424 -2.71303 5.37288 0
M  V30 6191 H 588.25 -0.398516 3.01074 0
M  V30 6192 H 585.835 -0.130707 1.48827 0
M  V30 6193 H 587.717 -2.84953 3.10451 0
M  V30 6194 H 586.392 -2.59407 1.93623 0
M  V30 6195 H 585.299 -0.989186 3.60785 0
M  V30 6196 H 586.632 -1.32044 4.74157 0
M  V30 6197 N 588.284 -1.56567 -0.180126 0
M  V30 6198 C 589.247 -1.94852 -1.20686 0
M  V30 6199 C 590.247 -0.831212 -1.3765 0
M  V30 6200 O 591.437 -1.09841 -1.35206 0
M  V30 6201 C 588.569 -2.23565 -2.57355 0
M  V30 6202 H 589.762 -2.86722 -0.879225 0
M  V30 6203 H 587.315 -1.50489 -0.422237 0
M  V30 6204 H 588.05 -1.34381 -2.95148 0
M  V30 6205 H 587.835 -3.04999 -2.46411 0
M  V30 6206 H 589.325 -2.54137 -3.31367 0
M  V30 6207 N 589.762 0.448376 -1.51087 0
M  V30 6208 C 591.039 1.20926 -1.53741 0
M  V30 6209 C 591.419 2.09025 -0.295222 0
M  V30 6210 O 590.767 2.16851 0.720283 0
M  V30 6211 C 590.977 2.02067 -2.84552 0
M  V30 6212 C 592.325 2.59486 -3.36084 0
M  V30 6213 O 593.349 2.12289 -2.86028 0
M  V30 6214 O 592.208 3.45539 -4.23397 0
M  V30 6215 H 589.302 0.549951 -0.617643 0
M  V30 6216 H 591.848 0.458344 -1.63393 0
M  V30 6217 H 590.62 1.37291 -3.66425 0
M  V30 6218 H 590.243 2.84246 -2.78011 0
M  V30 6219 N 591.24 1.41047 0.703093 0
M  V30 6220 C 592.517 1.30493 1.45708 0
M  V30 6221 C 592.897 -0.0709892 2.10981 0
M  V30 6222 O 592.245 -1.08471 2.01113 0
M  V30 6223 C 592.455 2.45287 2.48265 0
M  V30 6224 C 593.803 2.86104 3.13735 0
M  V30 6225 O 594.827 2.44971 2.58587 0
M  V30 6226 O 593.686 3.57206 4.13601 0
M  V30 6227 H 590.78 0.513144 0.648546 0
M  V30 6228 H 593.326 1.52995 0.734208 0
M  V30 6229 H 592.098 3.37135 1.98635 0
M  V30 6230 H 591.721 2.24622 3.28071 0
M  V30 6231 N 592.718 -0.936591 1.26751 0
M  V30 6232 C 593.995 -1.66094 1.03306 0
M  V30 6233 C 594.375 -2.06568 -0.435058 0
M  V30 6234 O 593.723 -1.79305 -1.41641 0
M  V30 6235 C 593.933 -2.86969 1.98619 0
M  V30 6236 C 595.281 -3.58516 2.27489 0
M  V30 6237 O 596.305 -2.97082 1.96522 0
M  V30 6238 O 595.164 -4.69181 2.80235 0
M  V30 6239 H 592.258 -0.727568 0.393158 0
M  V30 6240 H 594.804 -0.987914 1.3798 0
M  V30 6241 H 593.576 -2.53985 2.9767 0
M  V30 6242 H 593.199 -3.61996 1.64454 0
M  V30 6243 N 594.196 -1.08629 -1.14182 0
M  V30 6244 C 595.473 -0.73002 -1.81466 0
M  V30 6245 C 595.853 0.785996 -1.95922 0
M  V30 6246 O 595.201 1.70535 -1.52086 0
M  V30 6247 C 595.411 -1.45957 -3.17014 0
M  V30 6248 C 596.759 -1.62008 -3.92477 0
M  V30 6249 O 597.783 -1.42141 -3.26611 0
M  V30 6250 O 596.642 -1.94806 -5.106 0
M  V30 6251 H 593.736 -0.261307 -0.784632 0
M  V30 6252 H 596.282 -1.188 -1.2118 0
M  V30 6253 H 595.054 -2.49221 -3.01669 0
M  V30 6254 H 594.677 -0.993222 -3.84995 0
M  V30 6255 N 595.674 1.31259 -0.872281 0
M  V30 6256 C 596.899 2.0133 -0.498099 0
M  V30 6257 C 597.324 1.65031 0.902568 0
M  V30 6258 O 596.682 0.860164 1.59596 0
M  V30 6259 C 596.73 3.54411 -0.665205 0
M  V30 6260 O 595.834 4.11347 0.294473 0
M  V30 6261 H 595.175 0.633844 -0.197832 0
M  V30 6262 H 597.705 1.67402 -1.17633 0
M  V30 6263 H 597.715 4.04147 -0.559373 0
M  V30 6264 H 596.39 3.80171 -1.68651 0
M  V30 6265 H 594.967 3.72624 0.143403 0
M  V30 6266 N 597.152 0.631951 1.44375 0
M  V30 6267 C 598.082 -0.0593243 2.33425 0
M  V30 6268 C 599.063 -0.833964 1.48253 0
M  V30 6269 O 600.248 -0.799682 1.76971 0
M  V30 6270 C 597.378 -1.04096 3.31333 0
M  V30 6271 C 596.332 -0.377899 4.26328 0
M  V30 6272 C 595.658 -1.4695 5.14111 0
M  V30 6273 C 596.958 0.716371 5.17364 0
M  V30 6274 H 598.652 0.684287 2.91475 0
M  V30 6275 H 596.198 0.330518 1.40156 0
M  V30 6276 H 598.151 -1.53331 3.92514 0
M  V30 6277 H 596.875 -1.81547 2.71493 0
M  V30 6278 H 595.534 0.0938054 3.6648 0
M  V30 6279 H 595.182 -2.2349 4.50623 0
M  V30 6280 H 594.882 -1.03121 5.78481 0
M  V30 6281 H 596.406 -1.96363 5.78164 0
M  V30 6282 H 597.82 0.307089 5.72477 0
M  V30 6283 H 596.217 1.07784 5.90341 0
M  V30 6284 H 597.287 1.58316 4.58327 0
M  V30 6285 N 598.631 -1.53133 0.372548 0
M  V30 6286 C 599.878 -2.01356 -0.214959 0
M  V30 6287 C 600.206 -1.2596 -1.48204 0
M  V30 6288 O 599.461 -0.343511 -1.92662 0
M  V30 6289 C 599.76 -3.53206 -0.545938 0
M  V30 6290 C 599.426 -4.46511 0.627624 0
M  V30 6291 C 598.088 -4.71737 0.949615 0
M  V30 6292 C 600.44 -5.01666 1.41353 0
M  V30 6293 C 597.768 -5.4937 2.05936 0
M  V30 6294 C 600.12 -5.80511 2.51375 0
M  V30 6295 C 598.784 -6.04022 2.84101 0
M  V30 6296 H 598.054 -0.736813 -0.078659 0
M  V30 6297 H 600.701 -1.84682 0.506447 0
M  V30 6298 H 599.006 -3.67864 -1.34845 0
M  V30 6299 H 600.703 -3.87997 -1.01287 0
M  V30 6300 H 597.293 -4.27029 0.366635 0
M  V30 6301 H 601.477 -4.82117 1.17802 0
M  V30 6302 H 596.733 -5.65803 2.31682 0
M  V30 6303 H 600.907 -6.22255 3.12684 0
M  V30 6304 H 598.534 -6.63962 3.70214 0
M  V30 6305 N 600.109 -0.101901 -1.5727 0
M  V30 6306 C 601.52 0.426173 -1.81771 0
M  V30 6307 C 601.871 1.67725 -1.01797 0
M  V30 6308 O 600.996 2.14958 -0.249386 0
M  V30 6309 C 601.591 0.779962 -3.297 0
M  V30 6310 C 600.15 1.25275 -3.54941 0
M  V30 6311 C 599.297 0.252814 -2.76145 0
M  V30 6312 H 602.248 -0.32726 -1.55289 0
M  V30 6313 H 602.269 1.63891 -3.43395 0
M  V30 6314 H 601.781 -0.130778 -3.8788 0
M  V30 6315 H 599.882 2.18097 -3.021 0
M  V30 6316 H 599.995 1.20988 -4.63572 0
M  V30 6317 H 598.359 0.736362 -2.43823 0
M  V30 6318 H 599.142 -0.650724 -3.37076 0
M  V30 6319 N 601.587 1.56661 0.17182 0
M  V30 6320 C 602.812 1.86459 0.908165 0
M  V30 6321 C 603.237 0.688181 1.75059 0
M  V30 6322 O 602.595 -0.362753 1.77634 0
M  V30 6323 C 602.643 3.14669 1.76112 0
M  V30 6324 O 601.747 2.96858 2.86268 0
M  V30 6325 H 601.088 0.613318 0.254434 0
M  V30 6326 H 603.618 2.03892 0.170113 0
M  V30 6327 H 603.628 3.46061 2.16115 0
M  V30 6328 H 602.303 3.99905 1.14233 0
M  V30 6329 H 600.88 2.76819 2.49852 0
M  V30 6330 N 603.065 -0.440357 1.51323 0
M  V30 6331 C 604.314 -1.18697 1.63076 0
M  V30 6332 C 604.627 -1.92418 0.35136 0
M  V30 6333 O 605.833 -2.69258 0.348221 0
M  V30 6334 C 604.289 -2.15849 2.87988 0
M  V30 6335 C 603.897 -1.47789 4.22921 0
M  V30 6336 C 605.641 -2.90962 3.09098 0
M  V30 6337 C 603.548 -2.43407 5.38987 0
M  V30 6338 H 602.478 -0.44676 0.607389 0
M  V30 6339 H 605.129 -0.454313 1.77787 0
M  V30 6340 H 603.511 -2.92537 2.66905 0
M  V30 6341 H 604.685 -0.7668 4.54375 0
M  V30 6342 H 603 -0.848404 4.07665 0
M  V30 6343 H 605.597 -3.62584 3.92985 0
M  V30 6344 H 605.94 -3.52133 2.22053 0
M  V30 6345 H 606.473 -2.21381 3.30507 0
M  V30 6346 H 603.212 -1.86929 6.28282 0
M  V30 6347 H 602.732 -3.12579 5.11913 0
M  V30 6348 H 604.411 -3.046 5.70813 0
M  V30 6349 N 604.543 -1.41418 -0.695603 0
M  V30 6350 C 605.954 -1.36335 -1.27552 0
M  V30 6351 C 606.305 -0.0464336 -1.96145 0
M  V30 6352 O 605.43 0.855304 -1.9878 0
M  V30 6353 C 606.025 -2.46941 -2.3196 0
M  V30 6354 C 604.584 -2.45256 -2.85529 0
M  V30 6355 C 603.731 -2.2679 -1.59566 0
M  V30 6356 H 606.682 -1.50934 -0.490362 0
M  V30 6357 H 606.703 -2.15997 -3.1325 0
M  V30 6358 H 606.215 -3.42775 -1.82008 0
M  V30 6359 H 604.316 -1.53179 -3.39657 0
M  V30 6360 H 604.429 -3.41565 -3.35961 0
M  V30 6361 H 602.793 -1.74667 -1.85374 0
M  V30 6362 H 603.576 -3.24651 -1.1161 0
M  V30 6363 N 606.021 0.929856 -1.27246 0
M  V30 6364 C 607.298 1.65544 -1.04186 0
M  V30 6365 C 607.678 2.06796 0.424097 0
M  V30 6366 O 607.026 1.80053 1.40688 0
M  V30 6367 C 607.236 2.85912 -2.00138 0
M  V30 6368 C 608.584 3.57305 -2.29387 0
M  V30 6369 O 609.608 2.96036 -1.98094 0
M  V30 6370 O 608.467 4.67688 -2.82719 0
M  V30 6371 H 605.561 0.725473 -0.397011 0
M  V30 6372 H 608.107 0.980583 -1.38501 0
M  V30 6373 H 606.879 2.52403 -2.99013 0
M  V30 6374 H 606.502 3.61118 -1.66371 0
M  V30 6375 N 607.499 1.09233 1.13605 0
M  V30 6376 C 608.462 0.733553 2.17144 0
M  V30 6377 C 609.462 -0.235873 1.59061 0
M  V30 6378 O 610.652 -0.0143167 1.74194 0
M  V30 6379 C 607.784 0.084471 3.40795 0
M  V30 6380 H 608.977 1.65049 2.50397 0
M  V30 6381 H 606.53 0.891264 1.28399 0
M  V30 6382 H 607.265 -0.843795 3.1313 0
M  V30 6383 H 607.05 0.781985 3.84223 0
M  V30 6384 H 608.54 -0.151216 4.17326 0
M  V30 6385 N 608.977 -1.30795 0.87923 0
M  V30 6386 C 610.224 -1.96362 0.494786 0
M  V30 6387 C 610.552 -1.69448 -0.954868 0
M  V30 6388 O 609.807 -0.988711 -1.68888 0
M  V30 6389 C 610.106 -3.50287 0.709476 0
M  V30 6390 C 609.772 -3.9724 2.13333 0
M  V30 6391 C 608.434 -4.09772 2.52271 0
M  V30 6392 C 610.786 -4.21807 3.06151 0
M  V30 6393 C 608.114 -4.44227 3.83248 0
M  V30 6394 C 610.466 -4.5773 4.36654 0
M  V30 6395 C 609.13 -4.68469 4.75492 0
M  V30 6396 H 608.4 -0.71854 0.181055 0
M  V30 6397 H 611.047 -1.55764 1.11399 0
M  V30 6398 H 609.352 -3.91799 0.0072 0
M  V30 6399 H 611.049 -3.99082 0.391703 0
M  V30 6400 H 607.639 -3.87988 1.82107 0
M  V30 6401 H 611.823 -4.11611 2.77291 0
M  V30 6402 H 607.079 -4.50741 4.13089 0
M  V30 6403 H 611.253 -4.7569 5.08617 0
M  V30 6404 H 608.88 -4.94923 5.77022 0
M  V30 6405 N 610.455 -0.639598 -1.44038 0
M  V30 6406 C 611.701 -0.156248 -2.02799 0
M  V30 6407 C 612.056 1.21145 -1.49471 0
M  V30 6408 O 611.349 1.79406 -0.672608 0
M  V30 6409 C 611.543 -0.0925348 -3.5728 0
M  V30 6410 C 611.372 -1.45252 -4.25596 0
M  V30 6411 C 610.142 -2.04145 -4.62226 0
M  V30 6412 C 612.34 -2.38812 -4.55492 0
M  V30 6413 N 610.322 -3.3329 -5.15549 0
M  V30 6414 C 611.693 -3.52578 -5.09989 0
M  V30 6415 C 613.748 -2.37785 -4.3745 0
M  V30 6416 C 612.451 -4.65525 -5.48342 0
M  V30 6417 C 614.477 -3.49802 -4.76857 0
M  V30 6418 C 613.839 -4.62292 -5.31475 0
M  V30 6419 H 609.938 -0.101292 -0.775412 0
M  V30 6420 H 612.522 -0.844938 -1.75411 0
M  V30 6421 H 610.693 0.565459 -3.84262 0
M  V30 6422 H 612.425 0.400426 -4.02714 0
M  V30 6423 H 609.18 -1.56999 -4.4682 0
M  V30 6424 H 609.604 -3.9934 -5.46678 0
M  V30 6425 H 614.246 -1.52061 -3.94509 0
M  V30 6426 H 611.964 -5.51951 -5.90233 0
M  V30 6427 H 615.55 -3.50193 -4.64603 0
M  V30 6428 H 614.43 -5.47536 -5.61403 0
M  V30 6429 N 611.933 1.52934 -0.380664 0
M  V30 6430 C 613.179 2.02443 0.197089 0
M  V30 6431 C 613.534 1.26249 1.45186 0
M  V30 6432 O 612.827 0.351964 1.8834 0
M  V30 6433 C 613.021 3.5349 0.527199 0
M  V30 6434 C 612.85 4.44312 -0.694027 0
M  V30 6435 C 611.62 4.90582 -1.21068 0
M  V30 6436 C 613.818 4.8995 -1.56377 0
M  V30 6437 N 611.8 5.65451 -2.39036 0
M  V30 6438 C 613.171 5.63313 -2.58995 0
M  V30 6439 C 615.226 4.72002 -1.58488 0
M  V30 6440 C 613.929 6.20635 -3.63599 0
M  V30 6441 C 615.955 5.30201 -2.61995 0
M  V30 6442 C 615.317 6.03463 -3.63335 0
M  V30 6443 H 611.416 0.781241 0.0344357 0
M  V30 6444 H 614 1.87387 -0.528609 0
M  V30 6445 H 612.171 3.68677 1.22196 0
M  V30 6446 H 613.903 3.89707 1.09135 0
M  V30 6447 H 610.658 4.67249 -0.772995 0
M  V30 6448 H 611.082 6.07541 -2.98701 0
M  V30 6449 H 615.724 4.14873 -0.814891 0
M  V30 6450 H 613.442 6.76852 -4.41472 0
M  V30 6451 H 617.028 5.182 -2.645 0
M  V30 6452 H 615.908 6.47693 -4.42113 0
M  V30 6453 N 613.412 0.11024 1.57214 0
M  V30 6454 C 614.375 -0.828808 2.1369 0
M  V30 6455 C 615.375 -1.20059 1.06969 0
M  V30 6456 O 616.565 -1.12754 1.32786 0
M  V30 6457 C 613.697 -2.11959 2.66994 0
M  V30 6458 H 614.89 -0.338146 2.97988 0
M  V30 6459 H 612.443 -0.138913 1.55681 0
M  V30 6460 H 613.178 -2.65476 1.8626 0
M  V30 6461 H 612.963 -1.86258 3.45037 0
M  V30 6462 H 614.453 -2.79105 3.10629 0
M  V30 6463 N 614.89 -1.56749 -0.16351 0
M  V30 6464 C 616.136 -1.82704 -0.880168 0
M  V30 6465 C 616.469 -0.689311 -1.81555 0
M  V30 6466 O 615.744 0.308224 -1.92042 0
M  V30 6467 C 616.027 -3.19084 -1.66905 0
M  V30 6468 C 615.88 -4.43397 -0.756269 0
M  V30 6469 C 617.199 -3.52493 -2.63509 0
M  V30 6470 H 614.318 -0.664608 -0.318535 0
M  V30 6471 H 616.96 -1.89438 -0.146036 0
M  V30 6472 H 615.11 -3.13475 -2.2949 0
M  V30 6473 H 616.782 -4.61079 -0.14269 0
M  V30 6474 H 615.025 -4.33752 -0.0647944 0
M  V30 6475 H 615.696 -5.3539 -1.34393 0
M  V30 6476 H 618.172 -3.58606 -2.11047 0
M  V30 6477 H 617.048 -4.48979 -3.15767 0
M  V30 6478 H 617.309 -2.77597 -3.44082 0
M  V30 6479 N 616.368 0.432326 -1.51554 0
M  V30 6480 C 617.614 1.18309 -1.64714 0
M  V30 6481 C 617.947 1.90745 -0.364696 0
M  V30 6482 O 617.222 1.8381 0.635936 0
M  V30 6483 C 617.505 2.1961 -2.85383 0
M  V30 6484 C 617.358 1.51223 -4.23617 0
M  V30 6485 C 618.677 3.20538 -3.01569 0
M  V30 6486 H 615.796 0.428751 -0.599451 0
M  V30 6487 H 618.438 0.471689 -1.84052 0
M  V30 6488 H 616.588 2.8028 -2.69027 0
M  V30 6489 H 618.26 0.938516 -4.51652 0
M  V30 6490 H 616.503 0.814501 -4.26085 0
M  V30 6491 H 617.174 2.25024 -5.04052 0
M  V30 6492 H 619.65 2.69926 -3.16669 0
M  V30 6493 H 618.526 3.88706 -3.87555 0
M  V30 6494 H 618.787 3.86933 -2.13859 0
M  V30 6495 N 617.846 1.41785 0.688094 0
M  V30 6496 C 619.074 1.44915 1.47673 0
M  V30 6497 C 619.489 0.0565786 1.88715 0
M  V30 6498 O 618.846 -0.92579 1.57275 0
M  V30 6499 C 618.897 2.36452 2.73446 0
M  V30 6500 O 618.618 3.7029 2.34131 0
M  V30 6501 C 620.119 2.48463 3.67125 0
M  V30 6502 H 617.339 0.493324 0.454832 0
M  V30 6503 H 619.883 1.86153 0.846594 0
M  V30 6504 H 618.038 1.98502 3.3268 0
M  V30 6505 H 618.452 4.19183 3.15255 0
M  V30 6506 H 619.926 3.16662 4.52138 0
M  V30 6507 H 620.403 1.51826 4.12123 0
M  V30 6508 H 621.009 2.8708 3.13792 0
M  V30 6509 N 619.324 -0.923095 1.27737 0
M  V30 6510 C 620.257 -2.02515 1.05181 0
M  V30 6511 C 621.235 -1.62574 -0.0292204 0
M  V30 6512 O 622.419 -1.88137 0.116848 0
M  V30 6513 C 619.546 -3.33407 0.596468 0
M  V30 6514 C 618.592 -3.92328 1.67276 0
M  V30 6515 S 619.425 -4.24342 3.26641 0
M  V30 6516 C 620.581 -5.58308 2.82919 0
M  V30 6517 H 620.814 -2.21336 1.98488 0
M  V30 6518 H 618.347 -1.06679 1.1162 0
M  V30 6519 H 620.305 -4.09086 0.34044 0
M  V30 6520 H 618.966 -3.125 -0.316614 0
M  V30 6521 H 618.159 -4.86797 1.30556 0
M  V30 6522 H 617.761 -3.2325 1.8811 0
M  V30 6523 H 620.053 -6.37801 2.28509 0
M  V30 6524 H 620.996 -5.99931 3.7615 0
M  V30 6525 H 621.404 -5.19049 2.21919 0
M  V30 6526 N 620.802 -1.09834 -1.13024 0
M  V30 6527 C 622.03 -0.858902 -1.8823 0
M  V30 6528 C 622.445 0.590164 -1.79339 0
M  V30 6529 O 621.802 1.4065 -1.16292 0
M  V30 6530 C 621.853 -1.29066 -3.37675 0
M  V30 6531 O 621.574 -2.6829 -3.46341 0
M  V30 6532 C 623.075 -1.08421 -4.29837 0
M  V30 6533 H 620.295 -0.308713 -0.595766 0
M  V30 6534 H 622.839 -1.4614 -1.4305 0
M  V30 6535 H 620.994 -0.731961 -3.80422 0
M  V30 6536 H 621.408 -2.86598 -4.39274 0
M  V30 6537 H 622.882 -1.43553 -5.33007 0
M  V30 6538 H 623.359 -0.0223315 -4.39194 0
M  V30 6539 H 623.965 -1.62907 -3.92863 0
M  V30 6540 N 622.28 1.30327 -0.886154 0
M  V30 6541 C 623.508 2.00254 -0.520176 0
M  V30 6542 C 623.923 1.66419 0.891637 0
M  V30 6543 O 623.28 0.901951 1.58654 0
M  V30 6544 C 623.331 3.54916 -0.686775 0
M  V30 6545 O 623.052 3.87547 -2.04301 0
M  V30 6546 C 624.553 4.42115 -0.323945 0
M  V30 6547 H 621.773 0.640204 -0.200947 0
M  V30 6548 H 624.317 1.66183 -1.19178 0
M  V30 6549 H 622.472 3.8735 -0.0625273 0
M  V30 6550 H 622.886 4.82247 -2.06249 0
M  V30 6551 H 624.36 5.49808 -0.491407 0
M  V30 6552 H 624.837 4.32953 0.73811 0
M  V30 6553 H 625.443 4.15129 -0.924565 0
M  V30 6554 N 623.758 0.647228 1.43697 0
M  V30 6555 C 625.004 0.158422 2.0218 0
M  V30 6556 C 625.337 -1.22233 1.50907 0
M  V30 6557 O 624.612 -1.81478 0.699702 0
M  V30 6558 C 624.895 0.1627 3.59732 0
M  V30 6559 C 624.748 1.57694 4.21251 0
M  V30 6560 C 626.067 -0.504138 4.37203 0
M  V30 6561 H 623.186 0.059042 0.734631 0
M  V30 6562 H 625.828 0.826772 1.71069 0
M  V30 6563 H 623.978 -0.406414 3.86368 0
M  V30 6564 H 625.65 2.19618 4.05667 0
M  V30 6565 H 623.893 2.12603 3.7813 0
M  V30 6566 H 624.564 1.53183 5.3032 0
M  V30 6567 H 627.04 -0.0199841 4.16095 0
M  V30 6568 H 625.916 -0.470394 5.46881 0
M  V30 6569 H 626.177 -1.57726 4.13007 0
M  V30 6570 N 625.236 -1.5273 0.388769 0
M  V30 6571 C 626.484 -2.01174 -0.193208 0
M  V30 6572 C 626.805 -1.27705 -1.47365 0
M  V30 6573 O 626.075 -0.396966 -1.91836 0
M  V30 6574 H 624.655 -0.743287 -0.0743871 0
M  V30 6575 H 627.317 -1.87826 0.520336 0
M  V30 6576 H 626.413 -3.09477 -0.403803 0
M  V30 6577 N 626.714 -0.118576 -1.57153 0
M  V30 6578 C 627.944 0.546466 -1.99242 0
M  V30 6579 C 628.352 1.60791 -0.997148 0
M  V30 6580 O 627.695 1.83691 0.0181745 0
M  V30 6581 C 627.757 1.23167 -3.37743 0
M  V30 6582 C 627.421 0.318226 -4.55891 0
M  V30 6583 C 628.418 -0.442988 -5.18009 0
M  V30 6584 C 626.103 0.229421 -5.01776 0
M  V30 6585 C 628.097 -1.28074 -6.244 0
M  V30 6586 C 625.784 -0.611966 -6.08028 0
M  V30 6587 C 626.782 -1.36568 -6.69207 0
M  V30 6588 O 626.47 -2.1931 -7.73407 0
M  V30 6589 H 626.202 0.149297 -0.659307 0
M  V30 6590 H 628.756 -0.201603 -2.04408 0
M  V30 6591 H 626.986 2.0268 -3.29329 0
M  V30 6592 H 628.675 1.79358 -3.64123 0
M  V30 6593 H 629.441 -0.38425 -4.83475 0
M  V30 6594 H 625.32 0.805771 -4.53903 0
M  V30 6595 H 628.864 -1.86952 -6.72082 0
M  V30 6596 H 624.761 -0.6721 -6.41991 0
M  V30 6597 H 625.529 -2.12247 -7.90502 0
M  V30 6598 N 628.193 1.56834 0.155195 0
M  V30 6599 C 629.441 1.82536 0.867462 0
M  V30 6600 C 629.762 0.698168 1.82073 0
M  V30 6601 O 629.032 -0.280807 1.93877 0
M  V30 6602 H 627.612 0.673401 0.323327 0
M  V30 6603 H 630.274 1.94313 0.151156 0
M  V30 6604 H 629.37 2.77171 1.43466 0
M  V30 6605 N 629.671 -0.424282 1.51781 0
M  V30 6606 C 630.948 -1.18464 1.55646 0
M  V30 6607 C 631.328 -2.08529 0.328438 0
M  V30 6608 O 630.676 -2.17969 -0.685693 0
M  V30 6609 C 630.886 -1.97514 2.87731 0
M  V30 6610 C 632.234 -2.54106 3.40169 0
M  V30 6611 O 633.258 -2.07711 2.89369 0
M  V30 6612 O 632.117 -3.38759 4.28841 0
M  V30 6613 H 629.211 -0.540055 0.626314 0
M  V30 6614 H 631.757 -0.432291 1.64102 0
M  V30 6615 H 630.529 -1.31444 3.68562 0
M  V30 6616 H 630.152 -2.79787 2.82498 0
M  V30 6617 N 631.149 -1.42148 -0.680565 0
M  V30 6618 C 632.082 -1.39602 -1.80517 0
M  V30 6619 C 633.06 -0.261098 -1.6049 0
M  V30 6620 O 634.244 -0.450404 -1.8304 0
M  V30 6621 C 631.371 -1.18134 -3.1743 0
M  V30 6622 C 630.417 -2.34543 -3.56219 0
M  V30 6623 S 631.25 -3.97063 -3.59306 0
M  V30 6624 C 632.406 -3.77926 -4.98921 0
M  V30 6625 H 632.639 -2.3477 -1.82402 0
M  V30 6626 H 630.172 -1.28851 -0.850691 0
M  V30 6627 H 632.13 -1.06434 -3.96462 0
M  V30 6628 H 630.791 -0.245611 -3.13138 0
M  V30 6629 H 629.984 -2.15255 -4.55721 0
M  V30 6630 H 629.586 -2.42728 -2.84533 0
M  V30 6631 H 631.878 -3.3856 -5.86842 0
M  V30 6632 H 632.821 -4.77084 -5.23256 0
M  V30 6633 H 633.229 -3.10904 -4.71167 0
M  V30 6634 N 632.627 0.916307 -1.28225 0
M  V30 6635 C 633.857 1.69654 -1.17902 0
M  V30 6636 C 634.265 1.87331 0.265268 0
M  V30 6637 O 633.608 1.39828 1.19137 0
M  V30 6638 C 633.67 3.11024 -1.80289 0
M  V30 6639 C 633.334 3.16643 -3.29525 0
M  V30 6640 C 634.331 2.98032 -4.25997 0
M  V30 6641 C 632.016 3.39238 -3.70436 0
M  V30 6642 C 634.01 3.01924 -5.61356 0
M  V30 6643 C 631.697 3.42762 -5.05922 0
M  V30 6644 C 632.695 3.24125 -6.01192 0
M  V30 6645 O 632.383 3.27406 -7.34208 0
M  V30 6646 H 632.115 0.537197 -0.41036 0
M  V30 6647 H 634.669 1.15547 -1.69817 0
M  V30 6648 H 632.899 3.66662 -1.22865 0
M  V30 6649 H 634.588 3.71063 -1.6452 0
M  V30 6650 H 635.354 2.80405 -3.95725 0
M  V30 6651 H 631.233 3.52791 -2.96749 0
M  V30 6652 H 634.777 2.87295 -6.35694 0
M  V30 6653 H 630.674 3.59916 -5.35846 0
M  V30 6654 H 631.442 3.43784 -7.42802 0
M  V30 6655 N 634.105 1.10431 1.1244 0
M  V30 6656 C 635.516 0.864439 1.65482 0
M  V30 6657 C 635.867 -0.60527 1.8663 0
M  V30 6658 O 634.992 -1.46492 1.59276 0
M  V30 6659 C 635.587 1.56267 3.0061 0
M  V30 6660 C 634.146 1.3695 3.50602 0
M  V30 6661 C 633.293 1.61209 2.25626 0
M  V30 6662 H 636.244 1.26203 0.962209 0
M  V30 6663 H 636.265 1.00166 3.67079 0
M  V30 6664 H 635.777 2.63231 2.85186 0
M  V30 6665 H 633.878 0.321481 3.71211 0
M  V30 6666 H 633.991 2.11143 4.30064 0
M  V30 6667 H 632.355 1.03482 2.32731 0
M  V30 6668 H 633.138 2.69425 2.12756 0
M  V30 6669 N 635.583 -1.29855 0.893053 0
M  V30 6670 C 636.516 -2.26079 0.3104 0
M  V30 6671 C 637.494 -1.52145 -0.573644 0
M  V30 6672 O 638.678 -1.8113 -0.521937 0
M  V30 6673 C 635.805 -3.34069 -0.558179 0
M  V30 6674 C 634.851 -4.25721 0.257638 0
M  V30 6675 S 635.684 -5.09409 1.65114 0
M  V30 6676 C 636.84 -6.20903 0.789307 0
M  V30 6677 H 637.073 -2.75151 1.12602 0
M  V30 6678 H 634.606 -1.37975 0.692978 0
M  V30 6679 H 636.564 -3.9675 -1.05355 0
M  V30 6680 H 635.225 -2.83705 -1.34797 0
M  V30 6681 H 634.418 -5.02366 -0.405562 0
M  V30 6682 H 634.02 -3.67656 0.685917 0
M  V30 6683 H 636.312 -6.77499 0.00978451 0
M  V30 6684 H 637.255 -6.91426 1.52762 0
M  V30 6685 H 637.663 -5.63435 0.346634 0
M  V30 6686 N 637.061 -0.65484 -1.43351 0
M  V30 6687 C 638.289 -0.176685 -2.06144 0
M  V30 6688 C 638.704 1.15831 -1.49093 0
M  V30 6689 O 638.061 1.71542 -0.622868 0
M  V30 6690 C 638.112 -0.0813326 -3.61408 0
M  V30 6691 O 637.833 -1.36355 -4.1634 0
M  V30 6692 C 639.334 0.422706 -4.4128 0
M  V30 6693 H 636.554 -0.0906429 -0.66485 0
M  V30 6694 H 639.098 -0.895945 -1.83829 0
M  V30 6695 H 637.253 0.588496 -3.82904 0
M  V30 6696 H 637.667 -1.22381 -5.10023 0
M  V30 6697 H 639.141 0.438375 -5.50257 0
M  V30 6698 H 639.618 1.45432 -4.14423 0
M  V30 6699 H 640.224 -0.214687 -4.24758 0
M  V30 6700 N 638.539 1.52521 -0.396863 0
M  V30 6701 C 639.785 2.01971 0.183169 0
M  V30 6702 C 640.118 1.2825 1.45827 0
M  V30 6703 O 639.393 0.385179 1.90648 0
M  V30 6704 C 639.676 3.5736 0.443391 0
M  V30 6705 C 639.529 4.41743 -0.84753 0
M  V30 6706 C 640.848 4.22539 1.2308 0
M  V30 6707 H 637.967 0.734119 0.0650976 0
M  V30 6708 H 640.609 1.82519 -0.527918 0
M  V30 6709 H 638.759 3.74066 1.04914 0
M  V30 6710 H 640.431 4.36773 -1.48414 0
M  V30 6711 H 638.674 4.0845 -1.4612 0
M  V30 6712 H 639.345 5.48507 -0.620003 0
M  V30 6713 H 641.821 4.09857 0.718084 0
M  V30 6714 H 640.697 5.31227 1.38162 0
M  V30 6715 H 640.958 3.80675 2.24808 0
M  V30 6716 N 640.017 0.126909 1.57088 0
M  V30 6717 C 641.265 -0.528123 1.95078 0
M  V30 6718 C 641.586 -1.66708 1.0116 0
M  V30 6719 O 640.856 -1.95777 0.0693527 0
M  V30 6720 H 639.436 -0.198087 0.720257 0
M  V30 6721 H 642.098 0.197703 1.93895 0
M  V30 6722 H 641.194 -0.917507 2.98309 0
M  V30 6723 N 641.495 -1.56914 -0.146875 0
M  V30 6724 C 642.743 -1.82994 -0.85777 0
M  V30 6725 C 643.064 -0.707814 -1.817 0
M  V30 6726 O 642.334 0.270521 -1.94023 0
M  V30 6727 H 640.914 -0.675106 -0.319751 0
M  V30 6728 H 643.576 -1.9439 -0.140849 0
M  V30 6729 H 642.672 -2.77928 -1.41994 0
M  V30 6730 N 642.974 0.416227 -1.52004 0
M  V30 6731 C 643.921 1.50666 -1.74838 0
M  V30 6732 C 644.891 1.55245 -0.590599 0
M  V30 6733 O 646.076 1.71928 -0.827374 0
M  V30 6734 C 643.216 2.88185 -1.89851 0
M  V30 6735 C 642.329 2.92971 -3.17478 0
M  V30 6736 C 641.464 4.21745 -3.22962 0
M  V30 6737 C 640.503 4.20478 -4.4482 0
M  V30 6738 N 639.64 5.40811 -4.47736 0
M  V30 6739 H 644.48 1.30498 -2.67907 0
M  V30 6740 H 642.017 0.633568 -1.32757 0
M  V30 6741 H 643.975 3.68007 -1.96537 0
M  V30 6742 H 642.605 3.06865 -1.00169 0
M  V30 6743 H 641.657 2.05684 -3.19997 0
M  V30 6744 H 642.969 2.87899 -4.07328 0
M  V30 6745 H 642.123 5.09954 -3.28682 0
M  V30 6746 H 640.862 4.29503 -2.31038 0
M  V30 6747 H 639.867 3.30659 -4.39254 0
M  V30 6748 H 641.092 4.14366 -5.38031 0
M  V30 6749 H 639.038 5.4925 -3.58692 0
M  V30 6750 H 638.955 5.37705 -5.31422 0
M  V30 6751 H 640.223 6.30993 -4.57676 0
M  V30 6752 N 644.452 1.42507 0.673017 0
M  V30 6753 C 645.701 1.42364 1.42883 0
M  V30 6754 C 646.014 0.0441598 1.9555 0
M  V30 6755 O 647.22 -0.0798679 2.71382 0
M  V30 6756 C 645.676 2.5043 2.58482 0
M  V30 6757 C 645.284 3.94392 2.12506 0
M  V30 6758 C 647.028 2.59455 3.35981 0
M  V30 6759 C 644.935 4.93964 3.25198 0
M  V30 6760 H 643.865 0.52951 0.536782 0
M  V30 6761 H 646.516 1.68422 0.728448 0
M  V30 6762 H 644.898 2.1754 3.30896 0
M  V30 6763 H 646.072 4.36645 1.47233 0
M  V30 6764 H 644.387 3.89233 1.4794 0
M  V30 6765 H 646.984 3.31025 4.19912 0
M  V30 6766 H 647.327 1.63869 3.82691 0
M  V30 6767 H 647.86 2.91549 2.70637 0
M  V30 6768 H 644.599 5.91034 2.83477 0
M  V30 6769 H 644.119 4.56341 3.89247 0
M  V30 6770 H 645.798 5.15763 3.90637 0
M  V30 6771 N 645.93 -0.909495 1.28709 0
M  V30 6772 C 647.176 -1.66151 1.16283 0
M  V30 6773 C 647.509 -1.92067 -0.287069 0
M  V30 6774 O 646.784 -1.52409 -1.20837 0
M  V30 6775 C 647.067 -3.01676 1.9663 0
M  V30 6776 C 646.92 -2.82888 3.49707 0
M  V30 6777 C 648.239 -4.02274 1.78504 0
M  V30 6778 H 645.358 -0.602966 0.423793 0
M  V30 6779 H 648 -1.05418 1.58073 0
M  V30 6780 H 646.15 -3.53515 1.61119 0
M  V30 6781 H 647.822 -2.38026 3.95147 0
M  V30 6782 H 646.065 -2.17862 3.75125 0
M  V30 6783 H 646.736 -3.79147 4.01187 0
M  V30 6784 H 649.212 -3.59511 2.09503 0
M  V30 6785 H 648.088 -4.95056 2.37088 0
M  V30 6786 H 648.349 -4.35903 0.737647 0
M  V30 6787 N 647.408 -1.11026 -1.11852 0
M  V30 6788 C 648.656 -0.854769 -1.83134 0
M  V30 6789 C 648.977 0.621375 -1.84835 0
M  V30 6790 O 648.247 1.45129 -1.31584 0
M  V30 6791 H 646.827 -0.313229 -0.678157 0
M  V30 6792 H 649.489 -1.40178 -1.35411 0
M  V30 6793 H 648.585 -1.22311 -2.87135 0
M  V30 6794 N 648.886 1.2938 -0.899927 0
M  V30 6795 C 650.111 2.00228 -0.540692 0
M  V30 6796 C 650.536 1.66909 0.867359 0
M  V30 6797 O 649.894 0.893824 1.57735 0
M  V30 6798 C 649.942 3.52921 -0.740232 0
M  V30 6799 O 649.046 4.11879 0.207154 0
M  V30 6800 H 648.387 0.629505 -0.211233 0
M  V30 6801 H 650.917 1.6487 -1.21158 0
M  V30 6802 H 650.927 4.0287 -0.644973 0
M  V30 6803 H 649.602 3.76508 -1.76677 0
M  V30 6804 H 648.179 3.72845 0.0643315 0
M  V30 6805 N 650.364 0.662433 1.43002 0
M  V30 6806 C 651.294 -0.00979809 2.33498 0
M  V30 6807 C 652.275 -0.802329 1.49989 0
M  V30 6808 O 653.46 -0.761964 1.78627 0
M  V30 6809 C 650.59 -0.970446 3.33466 0
M  V30 6810 C 649.544 -0.287383 4.27034 0
M  V30 6811 C 648.87 -1.36012 5.17112 0
M  V30 6812 C 650.17 0.82595 5.15728 0
M  V30 6813 H 651.864 0.745959 2.89958 0
M  V30 6814 H 649.41 0.360172 1.39423 0
M  V30 6815 H 651.363 -1.44971 3.95679 0
M  V30 6816 H 650.087 -1.75748 2.75282 0
M  V30 6817 H 648.746 0.17152 3.66199 0
M  V30 6818 H 648.394 -2.13882 4.55262 0
M  V30 6819 H 648.094 -0.908276 5.80538 0
M  V30 6820 H 649.618 -1.84056 5.82199 0
M  V30 6821 H 651.032 0.42845 5.71697 0
M  V30 6822 H 649.429 1.20282 5.87922 0
M  V30 6823 H 650.499 1.68003 4.54866 0
M  V30 6824 N 651.842 -1.52309 0.404946 0
M  V30 6825 C 653.082 -2.03677 -0.171779 0
M  V30 6826 C 653.446 -1.28419 -1.42733 0
M  V30 6827 O 654.647 -1.69991 -2.08222 0
M  V30 6828 C 652.918 -3.54951 -0.417701 0
M  V30 6829 S 654.477 -4.28114 -0.962472 0
M  V30 6830 H 651.295 -0.709445 -0.0469912 0
M  V30 6831 H 653.897 -1.874 0.556901 0
M  V30 6832 H 652.601 -4.07306 0.50295 0
M  V30 6833 H 652.132 -3.75462 -1.17437 0
M  V30 6834 H 654.147 -4.42589 -2.24342 0
M  V30 6835 N 653.32 -0.135238 -1.57019 0
M  V30 6836 C 654.283 0.794707 -2.14981 0
M  V30 6837 C 655.283 1.18342 -1.08866 0
M  V30 6838 O 656.473 1.10627 -1.34563 0
M  V30 6839 C 653.605 2.07685 -2.70333 0
M  V30 6840 H 654.798 0.290696 -2.98488 0
M  V30 6841 H 652.351 0.114128 -1.55883 0
M  V30 6842 H 653.086 2.6248 -1.9046 0
M  V30 6843 H 652.871 1.80745 -3.47957 0
M  V30 6844 H 654.361 2.74127 -3.1503 0
M  V30 6845 N 654.798 1.5699 0.138552 0
M  V30 6846 C 656.047 1.82998 0.848205 0
M  V30 6847 C 656.36 0.717829 1.81952 0
M  V30 6848 O 657.566 0.863756 2.57394 0
M  V30 6849 C 656.022 3.24379 1.55904 0
M  V30 6850 C 655.63 4.43552 0.62971 0
M  V30 6851 C 657.374 3.59654 2.25498 0
M  V30 6852 C 655.281 5.75957 1.34266 0
M  V30 6853 H 654.211 0.682495 0.320495 0
M  V30 6854 H 656.862 1.83222 0.100924 0
M  V30 6855 H 655.244 3.18567 2.35226 0
M  V30 6856 H 656.418 4.6062 -0.128882 0
M  V30 6857 H 654.733 4.16379 0.0417526 0
M  V30 6858 H 657.33 4.55837 2.79493 0
M  V30 6859 H 657.673 2.86124 3.02388 0
M  V30 6860 H 658.206 3.67164 1.53087 0
M  V30 6861 H 654.945 6.52604 0.615441 0
M  V30 6862 H 654.465 5.62811 2.07375 0
M  V30 6863 H 656.144 6.19046 1.88126 0
M  V30 6864 N 656.276 -0.40816 1.52223 0
M  V30 6865 C 657.239 -1.48 1.7501 0
M  V30 6866 C 658.239 -1.48367 0.619996 0
M  V30 6867 O 659.429 -1.49874 0.887881 0
M  V30 6868 C 656.561 -2.87403 1.83336 0
M  V30 6869 H 657.754 -1.29086 2.70697 0
M  V30 6870 H 655.307 -0.638715 1.42654 0
M  V30 6871 H 656.042 -3.11686 0.895677 0
M  V30 6872 H 655.827 -2.8854 2.65494 0
M  V30 6873 H 657.317 -3.65103 2.02705 0
M  V30 6874 N 657.755 -1.42862 -0.66545 0
M  V30 6875 C 659.003 -1.43546 -1.42264 0
M  V30 6876 C 659.324 -0.0563116 -1.94919 0
M  V30 6877 O 658.594 0.906568 -1.73661 0
M  V30 6878 H 657.174 -0.528464 -0.527953 0
M  V30 6879 H 659.836 -1.78363 -0.785665 0
M  V30 6880 H 658.932 -2.14079 -2.27105 0
M  V30 6881 N 659.233 0.902656 -1.29189 0
M  V30 6882 C 660.479 1.65532 -1.17163 0
M  V30 6883 C 660.812 1.92216 0.276879 0
M  V30 6884 O 660.087 1.53048 1.20027 0
M  V30 6885 C 660.37 3.00629 -1.98228 0
M  V30 6886 C 660.223 2.81029 -3.51202 0
M  V30 6887 C 661.542 4.01321 -1.80635 0
M  V30 6888 H 658.661 0.60071 -0.426985 0
M  V30 6889 H 661.303 1.04578 -1.5863 0
M  V30 6890 H 659.453 3.52656 -1.62991 0
M  V30 6891 H 661.125 2.35927 -3.96404 0
M  V30 6892 H 659.368 2.1587 -3.76275 0
M  V30 6893 H 660.039 3.77014 -4.03192 0
M  V30 6894 H 662.515 3.58394 -2.11406 0
M  V30 6895 H 661.391 4.93792 -2.3971 0
M  V30 6896 H 661.652 4.35505 -0.760754 0
M  V30 6897 N 660.711 1.11618 1.11262 0
M  V30 6898 C 661.641 0.79846 2.19424 0
M  V30 6899 C 662.622 -0.234003 1.68483 0
M  V30 6900 O 663.807 -0.0970704 1.93957 0
M  V30 6901 C 660.937 0.242892 3.4645 0
M  V30 6902 C 659.891 1.20744 4.10615 0
M  V30 6903 C 659.217 0.512494 5.32238 0
M  V30 6904 C 660.517 2.55884 4.55325 0
M  V30 6905 H 662.211 1.70286 2.46258 0
M  V30 6906 H 659.757 0.820195 1.18359 0
M  V30 6907 H 661.71 0.00840447 4.21399 0
M  V30 6908 H 660.434 -0.696811 3.1908 0
M  V30 6909 H 659.093 1.42759 3.37662 0
M  V30 6910 H 658.741 -0.432075 5.01141 0
M  V30 6911 H 658.441 1.15583 5.7612 0
M  V30 6912 H 659.965 0.286842 6.09926 0
M  V30 6913 H 661.379 2.37946 5.21588 0
M  V30 6914 H 659.776 3.16216 5.10027 0
M  V30 6915 H 660.846 3.14968 3.68678 0
M  V30 6916 N 662.189 -1.289 0.906776 0
M  V30 6917 C 663.417 -1.99401 0.551969 0
M  V30 6918 C 663.832 -1.67816 -0.865048 0
M  V30 6919 O 663.189 -0.927078 -1.57199 0
M  V30 6920 C 663.24 -3.53779 0.743152 0
M  V30 6921 O 662.961 -3.84248 2.1044 0
M  V30 6922 C 664.462 -4.41543 0.39424 0
M  V30 6923 H 661.682 -0.636926 0.211106 0
M  V30 6924 H 664.226 -1.64266 1.21807 0
M  V30 6925 H 662.381 -3.87201 0.124143 0
M  V30 6926 H 662.795 -4.78904 2.13895 0
M  V30 6927 H 664.269 -5.48957 0.578814 0
M  V30 6928 H 664.746 -4.34073 -0.669137 0
M  V30 6929 H 665.352 -4.13605 0.990491 0
M  V30 6930 N 663.667 -0.670007 -1.42649 0
M  V30 6931 C 664.916 -0.187526 -2.00826 0
M  V30 6932 C 665.229 1.21142 -1.53571 0
M  V30 6933 O 666.435 1.79001 -2.04134 0
M  V30 6934 C 664.891 -0.284409 -3.58774 0
M  V30 6935 C 664.499 -1.6871 -4.15019 0
M  V30 6936 C 666.243 0.139605 -4.2427 0
M  V30 6937 C 664.15 -1.73701 -5.65316 0
M  V30 6938 H 663.08 -0.0663468 -0.751075 0
M  V30 6939 H 665.731 -0.834492 -1.63427 0
M  V30 6940 H 664.113 0.430364 -3.93655 0
M  V30 6941 H 665.287 -2.42857 -3.91608 0
M  V30 6942 H 663.602 -2.05855 -3.61957 0
M  V30 6943 H 666.199 0.122398 -5.3456 0
M  V30 6944 H 666.542 1.17403 -3.99402 0
M  V30 6945 H 667.075 -0.523995 -3.94334 0
M  V30 6946 H 663.814 -2.75109 -5.94975 0
M  V30 6947 H 663.334 -1.03903 -5.90732 0
M  V30 6948 H 665.013 -1.48829 -6.2965 0
M  V30 6949 N 665.145 1.52092 -0.413018 0
M  V30 6950 C 666.108 2.25706 0.398687 0
M  V30 6951 C 667.108 1.28221 0.970368 0
M  V30 6952 O 668.298 1.52131 0.848635 0
M  V30 6953 C 665.43 3.03029 1.5616 0
M  V30 6954 H 666.623 2.98888 -0.246131 0
M  V30 6955 H 664.176 1.5542 -0.165622 0
M  V30 6956 H 664.911 2.34205 2.24317 0
M  V30 6957 H 664.696 3.74606 1.15812 0
M  V30 6958 H 666.186 3.58857 2.13569 0
M  V30 6959 N 666.623 0.143563 1.56945 0
M  V30 6960 C 667.553 -0.7936 2.196 0
M  V30 6961 C 668.534 -1.25955 1.14321 0
M  V30 6962 O 669.719 -1.31773 1.42651 0
M  V30 6963 C 666.849 -2.03424 2.81489 0
M  V30 6964 C 665.803 -1.70519 3.92565 0
M  V30 6965 C 665.129 -3.01817 4.41373 0
M  V30 6966 C 666.429 -0.95449 5.13504 0
M  V30 6967 H 668.123 -0.271423 2.98167 0
M  V30 6968 H 665.669 -0.12911 1.4342 0
M  V30 6969 H 667.622 -2.69463 3.23987 0
M  V30 6970 H 666.346 -2.58008 2.00248 0
M  V30 6971 H 665.005 -1.06859 3.5068 0
M  V30 6972 H 664.653 -3.54386 3.56959 0
M  V30 6973 H 664.353 -2.80565 5.16292 0
M  V30 6974 H 665.877 -3.68934 4.86539 0
M  V30 6975 H 667.291 -1.5169 5.52868 0
M  V30 6976 H 665.688 -0.842035 5.94163 0
M  V30 6977 H 666.758 0.0544033 4.84869 0
M  V30 6978 N 668.101 -1.57061 -0.130224 0
M  V30 6979 C 669.512 -1.73539 -0.68856 0
M  V30 6980 C 669.863 -0.760554 -1.80859 0
M  V30 6981 O 668.988 0.0690796 -2.1629 0
M  V30 6982 C 669.583 -3.14666 -1.25581 0
M  V30 6983 C 668.142 -3.32689 -1.76055 0
M  V30 6984 C 667.289 -2.69436 -0.655712 0
M  V30 6985 H 670.24 -1.58412 0.0956002 0
M  V30 6986 H 670.261 -3.15595 -2.12556 0
M  V30 6987 H 669.773 -3.85593 -0.440412 0
M  V30 6988 H 667.874 -2.66786 -2.60108 0
M  V30 6989 H 667.987 -4.4077 -1.87772 0
M  V30 6990 H 666.351 -2.30362 -1.08654 0
M  V30 6991 H 667.134 -3.42979 0.14852 0
M  V30 6992 N 669.579 0.400081 -1.52437 0
M  V30 6993 C 670.825 1.14788 -1.67187 0
M  V30 6994 C 671.158 1.89928 -0.405074 0
M  V30 6995 O 670.433 1.85118 0.596804 0
M  V30 6996 C 670.716 2.13507 -2.89977 0
M  V30 6997 C 670.569 1.42204 -4.2673 0
M  V30 6998 C 671.888 3.14069 -3.083 0
M  V30 6999 H 669.007 0.415939 -0.608411 0
M  V30 7000 H 671.649 0.432542 -1.85011 0
M  V30 7001 H 669.799 2.7451 -2.74912 0
M  V30 7002 H 671.471 0.842503 -4.53541 0
M  V30 7003 H 669.714 0.723939 -4.27717 0
M  V30 7004 H 670.385 2.14281 -5.08712 0
M  V30 7005 H 672.861 2.63148 -3.22323 0
M  V30 7006 H 671.737 3.80398 -3.95713 0
M  V30 7007 H 671.998 3.82309 -2.22018 0
M  V30 7008 N 671.057 1.43213 0.657864 0
M  V30 7009 C 672.468 1.39669 1.23893 0
M  V30 7010 C 672.819 0.0984217 1.95953 0
M  V30 7011 O 671.944 -0.8023 2.00978 0
M  V30 7012 C 672.539 2.53004 2.25332 0
M  V30 7013 C 671.098 2.5274 2.78926 0
M  V30 7014 C 670.245 2.30941 1.53497 0
M  V30 7015 H 673.196 1.52181 0.450172 0
M  V30 7016 H 673.217 2.24226 3.07413 0
M  V30 7017 H 672.729 3.4748 1.72856 0
M  V30 7018 H 670.83 1.6213 3.35477 0
M  V30 7019 H 670.943 3.50352 3.26787 0
M  V30 7020 H 669.307 1.7952 1.80678 0
M  V30 7021 H 670.09 3.27496 1.02963 0
M  V30 7022 N 672.536 -0.895792 1.29666 0
M  V30 7023 C 673.782 -1.64908 1.18039 0
M  V30 7024 C 674.115 -1.9236 -0.266682 0
M  V30 7025 O 673.39 -1.53682 -1.19214 0
M  V30 7026 C 673.673 -2.99574 1.99819 0
M  V30 7027 C 673.526 -2.79163 3.52687 0
M  V30 7028 C 674.845 -4.00358 1.82761 0
M  V30 7029 H 671.964 -0.598437 0.430165 0
M  V30 7030 H 674.606 -1.03736 1.59182 0
M  V30 7031 H 672.756 -3.51786 1.64859 0
M  V30 7032 H 674.428 -2.33821 3.9765 0
M  V30 7033 H 672.671 -2.13871 3.77414 0
M  V30 7034 H 673.342 -3.74871 4.05186 0
M  V30 7035 H 675.818 -3.57268 2.13304 0
M  V30 7036 H 674.694 -4.92514 2.42325 0
M  V30 7037 H 674.955 -4.35096 0.783839 0
M  V30 7038 N 674.014 -1.12206 -1.10668 0
M  V30 7039 C 675.263 -0.870595 -1.81944 0
M  V30 7040 C 675.576 0.605447 -1.85994 0
M  V30 7041 O 676.782 0.973433 -2.53449 0
M  V30 7042 C 675.238 -1.50783 -3.26791 0
M  V30 7043 C 674.846 -3.01849 -3.31046 0
M  V30 7044 C 676.59 -1.33653 -4.02911 0
M  V30 7045 C 674.497 -3.58518 -4.70339 0
M  V30 7046 H 673.427 -0.322043 -0.681765 0
M  V30 7047 H 676.078 -1.34827 -1.24475 0
M  V30 7048 H 674.46 -0.957825 -3.84242 0
M  V30 7049 H 675.634 -3.63321 -2.83433 0
M  V30 7050 H 673.949 -3.18346 -2.68411 0
M  V30 7051 H 676.546 -1.73416 -5.05797 0
M  V30 7052 H 676.889 -0.279949 -4.15358 0
M  V30 7053 H 677.422 -1.85562 -3.51868 0
M  V30 7054 H 674.161 -4.63925 -4.63091 0
M  V30 7055 H 673.681 -3.01819 -5.18329 0
M  V30 7056 H 675.36 -3.57434 -5.39305 0
M  V30 7057 N 675.492 1.28418 -0.913599 0
M  V30 7058 C 676.738 1.9527 -0.547484 0
M  V30 7059 C 677.071 1.71745 0.906486 0
M  V30 7060 O 676.346 1.03834 1.64465 0
M  V30 7061 C 676.629 3.49748 -0.857205 0
M  V30 7062 C 676.482 3.82675 -2.3639 0
M  V30 7063 C 677.801 4.3868 -0.353258 0
M  V30 7064 H 674.92 0.709236 -0.200381 0
M  V30 7065 H 677.562 1.51789 -1.14281 0
M  V30 7066 H 675.712 3.86915 -0.350548 0
M  V30 7067 H 677.384 3.55378 -2.94116 0
M  V30 7068 H 675.627 3.29724 -2.81894 0
M  V30 7069 H 676.298 4.90547 -2.53115 0
M  V30 7070 H 678.774 4.08584 -0.787288 0
M  V30 7071 H 677.65 5.45621 -0.599049 0
M  V30 7072 H 677.911 4.35753 0.746413 0
M  V30 7073 N 676.97 0.677563 1.42291 0
M  V30 7074 C 678.195 0.207901 2.06355 0
M  V30 7075 C 678.62 -1.12723 1.50583 0
M  V30 7076 O 677.978 -1.70171 0.62543 0
M  V30 7077 C 678.026 0.156489 3.6026 0
M  V30 7078 O 677.13 -0.874162 4.03029 0
M  V30 7079 H 676.471 0.106056 0.655475 0
M  V30 7080 H 679.001 0.927354 1.82377 0
M  V30 7081 H 679.011 -0.0187258 4.07996 0
M  V30 7082 H 677.686 1.13101 4.00226 0
M  V30 7083 H 676.263 -0.669764 3.66836 0
M  V30 7084 N 678.448 -1.51871 0.421078 0
M  V30 7085 C 679.396 -2.28903 -0.413066 0
M  V30 7086 C 680.39 -1.3408 -1.03532 0
M  V30 7087 O 681.596 -1.5149 -0.972146 0
M  V30 7088 H 677.971 -0.736478 -0.152003 0
M  V30 7089 H 679.942 -2.97285 0.257695 0
M  V30 7090 C 678.691 -3.13156 -1.51091 0
M  V30 7091 H 678.014 -3.85997 -1.04145 0
M  V30 7092 H 679.454 -3.7014 -2.06814 0
M  V30 7093 C 677.913 -2.27482 -2.48503 0
M  V30 7094 O 678.443 -1.92325 -3.52667 0
M  V30 7095 N 676.649 -1.91019 -2.18998 0
M  V30 7096 H 676.196 -2.19808 -1.34322 0
M  V30 7097 H 676.154 -1.3399 -2.84419 0
M  V30 7098 N 679.926 -0.151884 -1.56866 0
M  V30 7099 C 681.173 0.498004 -1.96281 0
M  V30 7100 C 681.501 1.64551 -1.03698 0
M  V30 7101 O 680.756 1.95585 -0.0671497 0
M  V30 7102 C 681.055 1.04074 -3.41911 0
M  V30 7103 C 680.721 0.0111688 -4.50899 0
M  V30 7104 C 679.383 -0.271844 -4.80432 0
M  V30 7105 C 681.735 -0.68869 -5.1663 0
M  V30 7106 C 679.063 -1.26044 -5.73001 0
M  V30 7107 C 681.415 -1.66613 -6.10264 0
M  V30 7108 C 680.079 -1.9568 -6.38174 0
M  V30 7109 H 679.349 0.182233 -0.718242 0
M  V30 7110 H 681.996 -0.239746 -1.89993 0
M  V30 7111 H 680.301 1.85592 -3.45055 0
M  V30 7112 H 681.998 1.55224 -3.69738 0
M  V30 7113 H 678.588 0.241932 -4.27917 0
M  V30 7114 H 682.772 -0.48324 -4.93942 0
M  V30 7115 H 678.028 -1.49202 -5.92915 0
M  V30 7116 H 682.202 -2.21392 -6.60272 0
M  V30 7117 H 679.829 -2.72434 -7.09707 0
M  V30 7118 N 681.404 1.57128 0.121893 0
M  V30 7119 C 682.352 2.01109 1.16868 0
M  V30 7120 C 683.346 0.907532 1.43039 0
M  V30 7121 O 684.552 1.09274 1.43036 0
M  V30 7122 H 680.927 0.640539 0.393971 0
M  V30 7123 H 682.898 2.88261 0.771224 0
M  V30 7124 C 681.647 2.42887 2.48799 0
M  V30 7125 H 680.97 3.2737 2.29498 0
M  V30 7126 H 682.41 2.77461 3.20611 0
M  V30 7127 C 680.869 1.29137 3.11168 0
M  V30 7128 O 681.399 0.605756 3.97106 0
M  V30 7129 N 679.605 1.04916 2.71 0
M  V30 7130 H 679.152 1.60848 2.01211 0
M  V30 7131 H 679.11 0.290016 3.1306 0
M  V30 7132 N 682.882 -0.391992 1.52647 0
M  V30 7133 C 684.112 -1.15692 1.71169 0
M  V30 7134 C 684.52 -1.84285 0.428444 0
M  V30 7135 O 683.863 -1.73393 -0.606669 0
M  V30 7136 C 683.925 -2.25033 2.80357 0
M  V30 7137 C 683.589 -1.76433 4.21569 0
M  V30 7138 C 684.586 -1.2427 5.0483 0
M  V30 7139 C 682.271 -1.82746 4.67877 0
M  V30 7140 C 684.265 -0.790657 6.32477 0
M  V30 7141 C 681.952 -1.37153 5.9551 0
M  V30 7142 C 682.95 -0.853997 6.7764 0
M  V30 7143 O 682.638 -0.404708 8.02881 0
M  V30 7144 H 682.37 -0.35297 0.576531 0
M  V30 7145 H 684.924 -0.464994 2.00067 0
M  V30 7146 H 683.154 -2.97641 2.46874 0
M  V30 7147 H 684.843 -2.86718 2.87311 0
M  V30 7148 H 685.609 -1.18752 4.70237 0
M  V30 7149 H 681.488 -2.21971 4.04042 0
M  V30 7150 H 685.032 -0.386024 6.96531 0
M  V30 7151 H 680.929 -1.42356 6.29607 0
M  V30 7152 H 681.697 -0.526459 8.16805 0
M  V30 7153 N 684.36 -1.4356 -0.65026 0
M  V30 7154 C 685.607 -1.45333 -1.41012 0
M  V30 7155 C 685.935 -0.0787282 -1.94341 0
M  V30 7156 O 685.19 0.916715 -1.72901 0
M  V30 7157 C 685.489 -2.44528 -2.60654 0
M  V30 7158 C 685.155 -3.90331 -2.25727 0
M  V30 7159 C 683.817 -4.3004 -2.15914 0
M  V30 7160 C 686.169 -4.822 -1.97821 0
M  V30 7161 C 683.497 -5.59568 -1.76354 0
M  V30 7162 C 685.849 -6.12095 -1.59759 0
M  V30 7163 C 684.513 -6.50778 -1.48473 0
M  V30 7164 H 683.783 -0.531813 -0.516 0
M  V30 7165 H 686.43 -1.76657 -0.739219 0
M  V30 7166 H 684.735 -2.06619 -3.3289 0
M  V30 7167 H 686.432 -2.43155 -3.18868 0
M  V30 7168 H 683.022 -3.58905 -2.34276 0
M  V30 7169 H 687.206 -4.5229 -2.04322 0
M  V30 7170 H 682.462 -5.88376 -1.66205 0
M  V30 7171 H 686.636 -6.82751 -1.37198 0
M  V30 7172 H 684.263 -7.5105 -1.17591 0
M  V30 7173 N 685.838 0.888903 -1.30139 0
M  V30 7174 C 687.068 1.67115 -1.21474 0
M  V30 7175 C 687.476 1.87852 0.225472 0
M  V30 7176 O 686.819 1.42324 1.16145 0
M  V30 7177 C 686.881 3.0713 -1.86846 0
M  V30 7178 C 686.545 3.09582 -3.36167 0
M  V30 7179 C 687.542 2.88929 -4.32222 0
M  V30 7180 C 685.227 3.31304 -3.77549 0
M  V30 7181 C 687.221 2.89949 -5.67634 0
M  V30 7182 C 684.908 3.31954 -5.13079 0
M  V30 7183 C 685.906 3.113 -6.07932 0
M  V30 7184 O 685.594 3.11758 -7.40987 0
M  V30 7185 H 685.326 0.528372 -0.421662 0
M  V30 7186 H 687.88 1.11919 -1.7223 0
M  V30 7187 H 686.11 3.63973 -1.30615 0
M  V30 7188 H 687.799 3.6749 -1.72354 0
M  V30 7189 H 688.565 2.71948 -4.01584 0
M  V30 7190 H 684.444 3.46417 -3.04165 0
M  V30 7191 H 687.988 2.73746 -6.41645 0
M  V30 7192 H 683.885 3.48469 -5.43359 0
M  V30 7193 H 684.653 3.27951 -7.49927 0
M  V30 7194 N 687.317 1.12792 1.10072 0
M  V30 7195 C 688.267 0.768086 2.14673 0
M  V30 7196 C 689.251 -0.234716 1.59179 0
M  V30 7197 O 690.443 -0.039643 1.76956 0
M  V30 7198 C 687.572 0.228472 3.42539 0
M  V30 7199 C 686.658 1.25979 4.04957 0
M  V30 7200 N 687.049 2.4586 4.42025 0
M  V30 7201 C 685.347 1.10602 4.32069 0
M  V30 7202 C 686.048 3.11747 4.9111 0
M  V30 7203 N 685.024 2.39185 4.88151 0
M  V30 7204 H 688.826 1.68029 2.4113 0
M  V30 7205 H 686.34 1.00925 1.27232 0
M  V30 7206 H 688.337 -0.0475216 4.16873 0
M  V30 7207 H 686.997 -0.678136 3.1754 0
M  V30 7208 H 688.008 2.83215 4.33601 0
M  V30 7209 H 684.685 0.257021 4.16708 0
M  V30 7210 H 686.075 4.13862 5.29309 0
M  V30 7211 N 688.795 -1.27931 0.920396 0
M  V30 7212 C 690.211 -1.47085 0.619537 0
M  V30 7213 C 690.411 -1.83463 -0.833291 0
M  V30 7214 O 689.467 -1.94363 -1.61181 0
M  V30 7215 C 690.78 -2.56878 1.56314 0
M  V30 7216 C 692.328 -2.70743 1.57058 0
M  V30 7217 C 692.803 -3.83687 2.50097 0
M  V30 7218 N 694.294 -3.9105 2.48262 0
M  V30 7219 C 695.029 -4.77842 3.16945 0
M  V30 7220 N 694.525 -5.69176 3.94982 0
M  V30 7221 N 696.318 -4.71509 3.06 0
M  V30 7222 H 688.469 -1.02601 1.85975 0
M  V30 7223 H 690.732 -0.511682 0.798051 0
M  V30 7224 H 690.438 -2.36923 2.59923 0
M  V30 7225 H 690.312 -3.54117 1.29928 0
M  V30 7226 H 692.699 -2.90083 0.541832 0
M  V30 7227 H 692.78 -1.74015 1.8749 0
M  V30 7228 H 692.424 -3.65101 3.53077 0
M  V30 7229 H 692.354 -4.79827 2.16964 0
M  V30 7230 H 694.845 -3.25738 1.91581 0
M  V30 7231 H 695.158 -6.32245 4.44394 0
M  V30 7232 H 693.503 -5.68995 3.99086 0
M  V30 7233 H 696.694 -3.99151 2.44533 0
M  V30 7234 H 696.867 -5.38933 3.59799 0
M  V30 7235 N 690.273 -0.685099 -1.4193 0
M  V30 7236 C 691.183 -0.013404 -2.34596 0
M  V30 7237 C 692.199 0.777589 -1.55658 0
M  V30 7238 O 693.375 0.717553 -1.88184 0
M  V30 7239 C 690.44 0.919031 -3.34297 0
M  V30 7240 C 689.501 0.121417 -4.29128 0
M  V30 7241 C 688.734 1.00944 -5.24067 0
M  V30 7242 O 688.957 2.24898 -5.24192 0
M  V30 7243 O 687.891 0.464724 -6.00103 0
M  V30 7244 H 691.717 -0.776978 -2.93593 0
M  V30 7245 H 689.302 -0.445379 -1.42607 0
M  V30 7246 H 691.184 1.45402 -3.9552 0
M  V30 7247 H 689.859 1.66228 -2.77759 0
M  V30 7248 H 688.766 -0.45792 -3.71287 0
M  V30 7249 H 690.099 -0.582937 -4.88736 0
M  V30 7250 N 691.751 1.51645 -0.429126 0
M  V30 7251 C 692.979 2.06433 0.138994 0
M  V30 7252 C 693.394 1.29735 1.37165 0
M  V30 7253 O 692.751 0.354638 1.79021 0
M  V30 7254 C 692.802 3.58439 0.469452 0
M  V30 7255 O 692.523 4.32238 -0.714273 0
M  V30 7256 C 694.024 4.29712 1.08914 0
M  V30 7257 H 691.244 0.6709 0.0115608 0
M  V30 7258 H 693.788 1.9532 -0.605843 0
M  V30 7259 H 691.943 3.69494 1.16419 0
M  V30 7260 H 692.357 5.22704 -0.433633 0
M  V30 7261 H 693.831 5.37182 1.27042 0
M  V30 7262 H 694.308 3.87473 2.06788 0
M  V30 7263 H 694.914 4.2308 0.434028 0
M  V30 7264 N 693.229 0.160201 1.56784 0
M  V30 7265 C 694.139 -0.787167 2.21 0
M  V30 7266 C 695.155 -1.26167 1.19825 0
M  V30 7267 O 696.331 -1.31611 1.52448 0
M  V30 7268 C 693.396 -2.00364 2.8294 0
M  V30 7269 C 692.457 -1.5771 3.99282 0
M  V30 7270 C 691.69 -2.73558 4.58259 0
M  V30 7271 O 691.913 -3.90129 4.16119 0
M  V30 7272 O 690.847 -2.48271 5.48311 0
M  V30 7273 H 694.673 -0.270462 3.02493 0
M  V30 7274 H 692.258 -0.0674666 1.49248 0
M  V30 7275 H 694.14 -2.71529 3.22257 0
M  V30 7276 H 692.815 -2.50961 2.04451 0
M  V30 7277 H 691.722 -0.835274 3.64656 0
M  V30 7278 H 693.055 -1.11815 4.79331 0
M  V30 7279 N 694.707 -1.5719 -0.113559 0
M  V30 7280 C 695.639 -1.97393 -1.16484 0
M  V30 7281 C 696.652 -0.873964 -1.37352 0
M  V30 7282 O 697.841 -1.15222 -1.36331 0
M  V30 7283 C 694.941 -2.26174 -2.52386 0
M  V30 7284 C 694.114 -3.57479 -2.52046 0
M  V30 7285 C 693.173 -3.74409 -3.69735 0
M  V30 7286 O 692.199 -4.46463 -3.53071 0
M  V30 7287 N 693.401 -3.13588 -4.88511 0
M  V30 7288 H 696.166 -2.88184 -0.822814 0
M  V30 7289 H 693.727 -1.59044 -0.302769 0
M  V30 7290 H 695.719 -2.3471 -3.29687 0
M  V30 7291 H 694.289 -1.41483 -2.7875 0
M  V30 7292 H 693.509 -3.60081 -1.60421 0
M  V30 7293 H 694.797 -4.43775 -2.48881 0
M  V30 7294 H 694.195 -2.55026 -5.04953 0
M  V30 7295 H 692.752 -3.27637 -5.63469 0
M  V30 7296 N 696.185 0.383891 -1.52853 0
M  V30 7297 C 697.095 1.49343 -1.80925 0
M  V30 7298 C 698.111 1.59458 -0.696348 0
M  V30 7299 O 699.287 1.75698 -0.984481 0
M  V30 7300 C 696.352 2.84819 -1.97684 0
M  V30 7301 C 695.413 2.84382 -3.21598 0
M  V30 7302 C 694.646 4.13397 -3.37548 0
M  V30 7303 O 694.869 5.08619 -2.58192 0
M  V30 7304 O 693.803 4.20325 -4.30826 0
M  V30 7305 H 697.629 1.2855 -2.75152 0
M  V30 7306 H 695.214 0.572229 -1.38007 0
M  V30 7307 H 697.096 3.65125 -2.10385 0
M  V30 7308 H 695.771 3.05627 -1.06647 0
M  V30 7309 H 694.678 2.0284 -3.14336 0
M  V30 7310 H 696.011 2.68526 -4.12498 0
M  V30 7311 N 697.663 1.43903 0.642637 0
M  V30 7312 C 698.573 1.52349 1.78401 0
M  V30 7313 C 699.589 0.409869 1.69104 0
M  V30 7314 O 700.765 0.665548 1.90085 0
M  V30 7315 C 697.83 1.45408 3.14734 0
M  V30 7316 C 696.891 2.67528 3.35749 0
M  V30 7317 C 696.124 2.60909 4.65577 0
M  V30 7318 O 696.347 1.6627 5.45628 0
M  V30 7319 O 695.281 3.5158 4.88544 0
M  V30 7320 H 699.107 2.48752 1.7423 0
M  V30 7321 H 696.692 1.26021 0.802439 0
M  V30 7322 H 698.574 1.44019 3.96026 0
M  V30 7323 H 697.249 0.521437 3.19473 0
M  V30 7324 H 696.156 2.74487 2.5418 0
M  V30 7325 H 697.489 3.598 3.35864 0
M  V30 7326 N 699.141 -0.881989 1.30609 0
M  V30 7327 C 700.073 -1.99375 1.13058 0
M  V30 7328 C 701.086 -1.62636 0.0729879 0
M  V30 7329 O 702.275 -1.75621 0.319301 0
M  V30 7330 C 699.375 -3.31536 0.702651 0
M  V30 7331 C 698.548 -3.96693 1.84265 0
M  V30 7332 C 697.607 -5.07158 1.40277 0
M  V30 7333 O 696.633 -5.28628 2.11048 0
M  V30 7334 N 697.835 -5.79808 0.283449 0
M  V30 7335 H 700.6 -2.14981 2.08814 0
M  V30 7336 H 698.161 -1.05526 1.22784 0
M  V30 7337 H 700.153 -4.02804 0.391331 0
M  V30 7338 H 698.723 -3.12175 -0.162954 0
M  V30 7339 H 697.943 -3.1856 2.32192 0
M  V30 7340 H 699.231 -4.36964 2.60653 0
M  V30 7341 H 698.629 -5.64871 -0.306189 0
M  V30 7342 H 697.186 -6.51792 0.0315985 0
M  V30 7343 N 700.619 -1.13374 -1.09472 0
M  V30 7344 C 701.867 -0.893422 -1.8128 0
M  V30 7345 C 702.188 0.582029 -1.86111 0
M  V30 7346 O 701.458 1.42305 -1.34633 0
M  V30 7347 H 700.038 -0.327543 -0.67136 0
M  V30 7348 H 702.7 -1.43018 -1.32408 0
M  V30 7349 H 701.796 -1.28374 -2.84476 0
M  V30 7350 N 702.098 1.27442 -0.927168 0
M  V30 7351 C 703.03 2.25975 -0.383158 0
M  V30 7352 C 704.043 1.55382 0.485832 0
M  V30 7353 O 705.232 1.75986 0.298541 0
M  V30 7354 C 702.332 3.35629 0.469688 0
M  V30 7355 C 701.505 4.35747 -0.379886 0
M  V30 7356 C 700.564 5.24598 0.410227 0
M  V30 7357 O 699.59 5.68909 -0.181888 0
M  V30 7358 N 700.792 5.54737 1.71017 0
M  V30 7359 H 703.557 2.7329 -1.23015 0
M  V30 7360 H 701.118 1.41063 -0.794539 0
M  V30 7361 H 703.11 3.92015 1.00532 0
M  V30 7362 H 701.68 2.87919 1.21744 0
M  V30 7363 H 700.9 3.78634 -1.09682 0
M  V30 7364 H 702.188 4.99648 -0.960717 0
M  V30 7365 H 701.586 5.20594 2.21356 0
M  V30 7366 H 700.143 6.13824 2.19234 0
M  V30 7367 N 703.576 0.692616 1.41565 0
M  V30 7368 C 704.806 0.230943 2.05305 0
M  V30 7369 C 705.214 -1.12379 1.52209 0
M  V30 7370 O 704.557 -1.71281 0.663968 0
M  V30 7371 C 704.619 0.107894 3.59338 0
M  V30 7372 C 704.283 1.39419 4.35214 0
M  V30 7373 C 705.28 2.33143 4.64694 0
M  V30 7374 C 702.965 1.64674 4.74539 0
M  V30 7375 C 704.959 3.50385 5.32456 0
M  V30 7376 C 702.646 2.82202 5.42038 0
M  V30 7377 C 703.644 3.74881 5.70923 0
M  V30 7378 O 703.332 4.90351 6.37033 0
M  V30 7379 H 703.064 0.105708 0.667684 0
M  V30 7380 H 705.618 0.94488 1.82376 0
M  V30 7381 H 703.848 -0.661785 3.80995 0
M  V30 7382 H 705.537 -0.316213 4.04666 0
M  V30 7383 H 706.303 2.14887 4.34797 0
M  V30 7384 H 702.182 0.934007 4.51439 0
M  V30 7385 H 705.726 4.22743 5.54918 0
M  V30 7386 H 701.623 3.00376 5.71353 0
M  V30 7387 H 702.391 4.90128 6.55528 0
M  V30 7388 N 705.054 -1.51416 0.437162 0
M  V30 7389 C 706.282 -2.06503 -0.128045 0
M  V30 7390 C 706.697 -1.30461 -1.36475 0
M  V30 7391 O 706.054 -0.364127 -1.78831 0
M  V30 7392 C 706.105 -3.58683 -0.450437 0
M  V30 7393 O 705.826 -4.31853 0.737186 0
M  V30 7394 C 707.327 -4.30284 -1.06633 0
M  V30 7395 H 704.547 -0.670952 -0.00800269 0
M  V30 7396 H 707.091 -1.94996 0.616193 0
M  V30 7397 H 705.246 -3.70106 -1.14457 0
M  V30 7398 H 705.66 -5.22467 0.461347 0
M  V30 7399 H 707.134 -5.37848 -1.24191 0
M  V30 7400 H 707.611 -3.88564 -2.0473 0
M  V30 7401 H 708.217 -4.23304 -0.411585 0
M  V30 7402 N 706.532 -0.168513 -1.56696 0
M  V30 7403 C 707.482 0.7751 -2.14421 0
M  V30 7404 C 708.466 1.19476 -1.07769 0
M  V30 7405 O 709.658 1.15759 -1.33898 0
M  V30 7406 C 706.787 2.00549 -2.7863 0
M  V30 7407 C 705.873 1.60795 -3.92436 0
M  V30 7408 N 706.264 0.919812 -4.97366 0
M  V30 7409 C 704.562 1.89917 -4.03544 0
M  V30 7410 C 705.263 0.724485 -5.77171 0
M  V30 7411 N 704.239 1.26505 -5.28675 0
M  V30 7412 H 708.041 0.240349 -2.92916 0
M  V30 7413 H 705.555 0.0322675 -1.62368 0
M  V30 7414 H 707.552 2.6917 -3.1836 0
M  V30 7415 H 706.212 2.54522 -2.01615 0
M  V30 7416 H 707.223 0.578169 -5.14663 0
M  V30 7417 H 703.9 2.45587 -3.37629 0
M  V30 7418 H 705.29 0.180521 -6.71657 0
M  V30 7419 N 708.01 1.57248 0.105221 0
M  V30 7420 C 709.256 1.85845 0.811753 0
M  V30 7421 C 709.589 0.756219 1.78871 0
M  V30 7422 O 708.864 -0.236736 1.93054 0
M  V30 7423 C 709.147 3.25059 1.54947 0
M  V30 7424 C 709 4.45898 0.591185 0
M  V30 7425 C 710.319 3.6203 2.50245 0
M  V30 7426 H 707.438 0.675973 0.293649 0
M  V30 7427 H 710.08 1.89849 0.0756269 0
M  V30 7428 H 708.23 3.21776 2.17698 0
M  V30 7429 H 709.902 4.61291 -0.0285352 0
M  V30 7430 H 708.145 4.33693 -0.0962343 0
M  V30 7431 H 708.816 5.40009 1.1443 0
M  V30 7432 H 711.292 3.66192 1.97593 0
M  V30 7433 H 710.168 4.60389 2.98886 0
M  V30 7434 H 710.429 2.90176 3.33542 0
M  V30 7435 N 709.488 -0.375779 1.53054 0
M  V30 7436 C 710.716 -1.14036 1.72637 0
M  V30 7437 C 711.131 -1.83342 0.450687 0
M  V30 7438 O 710.488 -1.7318 -0.575749 0
M  V30 7439 C 710.539 -2.17841 2.88492 0
M  V30 7440 O 710.26 -1.51358 4.11123 0
M  V30 7441 C 711.761 -3.06924 3.19863 0
M  V30 7442 H 708.981 -0.341386 0.577665 0
M  V30 7443 H 711.525 -0.437809 1.99759 0
M  V30 7444 H 709.68 -2.8371 2.63794 0
M  V30 7445 H 710.094 -2.20439 4.75928 0
M  V30 7446 H 711.568 -3.75763 4.04359 0
M  V30 7447 H 712.045 -3.71169 2.34798 0
M  V30 7448 H 712.651 -2.46684 3.46449 0
M  V30 7449 N 710.966 -1.44241 -0.634997 0
M  V30 7450 C 712.206 -1.48339 -1.40623 0
M  V30 7451 C 712.57 -0.111479 -1.91676 0
M  V30 7452 O 713.771 -0.0271345 -2.68786 0
M  V30 7453 C 712.042 -2.51122 -2.54308 0
M  V30 7454 S 713.601 -2.74237 -3.42548 0
M  V30 7455 H 710.419 -0.524715 -0.479787 0
M  V30 7456 H 713.021 -1.81138 -0.735489 0
M  V30 7457 H 711.725 -3.49511 -2.15106 0
M  V30 7458 H 711.256 -2.19883 -3.26213 0
M  V30 7459 H 713.271 -2.0554 -4.51628 0
M  V30 7460 N 712.444 0.87505 -1.31075 0
M  V30 7461 C 713.692 1.62447 -1.20231 0
M  V30 7462 C 714.013 1.93506 0.240888 0
M  V30 7463 O 713.283 1.57847 1.16022 0
M  V30 7464 H 711.863 0.602207 -0.441991 0
M  V30 7465 H 714.525 1.04788 -1.64334 0
M  V30 7466 H 713.621 2.57031 -1.77036 0
M  V30 7467 N 713.922 1.13953 1.08869 0
M  V30 7468 C 714.854 0.779906 2.15523 0
M  V30 7469 C 715.867 -0.20102 1.61554 0
M  V30 7470 O 717.056 0.0200049 1.78489 0
M  V30 7471 C 714.156 0.136226 3.38626 0
M  V30 7472 C 713.329 1.15069 4.21993 0
M  V30 7473 C 712.388 0.531645 5.23507 0
M  V30 7474 O 711.414 1.19327 5.56552 0
M  V30 7475 N 712.616 -0.693734 5.7634 0
M  V30 7476 H 715.381 1.69769 2.46979 0
M  V30 7477 H 712.942 1.03331 1.24637 0
M  V30 7478 H 714.934 -0.290295 4.03658 0
M  V30 7479 H 713.504 -0.684603 3.05011 0
M  V30 7480 H 712.724 1.75431 3.53012 0
M  V30 7481 H 714.012 1.83614 4.74514 0
M  V30 7482 H 713.41 -1.24994 5.51718 0
M  V30 7483 H 711.967 -1.06283 6.43076 0
M  V30 7484 N 715.4 -1.26948 0.933913 0
M  V30 7485 C 716.811 -1.76058 0.621324 0
M  V30 7486 C 717.162 -1.76175 -0.863522 0
M  V30 7487 O 716.287 -1.36921 -1.67576 0
M  V30 7488 C 716.882 -3.19713 1.12111 0
M  V30 7489 C 715.441 -3.66465 0.859074 0
M  V30 7490 C 714.588 -2.46186 1.27624 0
M  V30 7491 H 717.539 -1.13127 1.11301 0
M  V30 7492 H 717.56 -3.77566 0.471608 0
M  V30 7493 H 717.072 -3.19596 2.20182 0
M  V30 7494 H 715.173 -3.72021 -0.207566 0
M  V30 7495 H 715.286 -4.55636 1.48098 0
M  V30 7496 H 713.65 -2.45042 0.694727 0
M  V30 7497 H 714.433 -2.48774 2.36572 0
M  V30 7498 N 716.879 -0.700114 -1.41195 0
M  V30 7499 C 717.842 -0.0465706 -2.29153 0
M  V30 7500 C 718.842 0.703302 -1.44604 0
M  V30 7501 O 720.032 0.537513 -1.657 0
M  V30 7502 C 717.164 0.944324 -3.2756 0
M  V30 7503 H 718.357 -0.821064 -2.88442 0
M  V30 7504 H 715.91 -0.463869 -1.49258 0
M  V30 7505 H 716.645 1.74642 -2.73259 0
M  V30 7506 H 716.43 0.409701 -3.89954 0
M  V30 7507 H 717.92 1.39925 -3.9346 0
M  V30 7508 N 718.357 1.51182 -0.445186 0
M  V30 7509 C 719.768 1.86693 0.0160999 0
M  V30 7510 C 720.119 1.36183 1.4124 0
M  V30 7511 O 719.244 0.715895 2.04215 0
M  V30 7512 C 719.839 3.38781 0.0359918 0
M  V30 7513 C 718.398 3.73799 0.441715 0
M  V30 7514 C 717.545 2.74947 -0.360511 0
M  V30 7515 H 720.496 1.44294 -0.660674 0
M  V30 7516 H 720.517 3.71026 0.843813 0
M  V30 7517 H 720.029 3.75513 -0.980378 0
M  V30 7518 H 718.13 3.42659 1.4634 0
M  V30 7519 H 718.243 4.78829 0.16106 0
M  V30 7520 H 716.607 2.54047 0.182269 0
M  V30 7521 H 717.39 3.14521 -1.3759 0
M  V30 7522 N 719.835 0.176821 1.56605 0
M  V30 7523 C 721.112 -0.513365 1.88743 0
M  V30 7524 C 721.492 -1.80929 1.08757 0
M  V30 7525 O 720.84 -2.27765 0.183127 0
M  V30 7526 C 721.05 -0.749925 3.40848 0
M  V30 7527 C 722.398 -1.07747 4.10701 0
M  V30 7528 O 723.422 -0.838277 3.46196 0
M  V30 7529 O 722.281 -1.52901 5.24675 0
M  V30 7530 H 719.375 -0.265296 0.783292 0
M  V30 7531 H 721.921 0.215669 1.68324 0
M  V30 7532 H 720.693 0.16599 3.90948 0
M  V30 7533 H 720.316 -1.53208 3.66897 0
M  V30 7534 N 721.313 -1.57302 -0.09688 0
M  V30 7535 C 722.243 -2.0497 -1.11846 0
M  V30 7536 C 723.224 -0.938278 -1.41882 0
M  V30 7537 O 724.409 -1.20943 -1.51942 0
M  V30 7538 C 721.539 -2.47264 -2.43881 0
M  V30 7539 C 720.493 -3.62053 -2.28257 0
M  V30 7540 C 719.819 -3.90318 -3.65453 0
M  V30 7541 C 721.119 -4.93005 -1.72461 0
M  V30 7542 H 722.813 -2.90567 -0.721888 0
M  V30 7543 H 720.359 -1.39786 -0.345803 0
M  V30 7544 H 722.312 -2.7922 -3.15617 0
M  V30 7545 H 721.036 -1.58664 -2.8547 0
M  V30 7546 H 719.695 -3.30341 -1.58967 0
M  V30 7547 H 719.343 -2.98889 -4.04567 0
M  V30 7548 H 719.043 -4.67597 -3.55846 0
M  V30 7549 H 720.567 -4.24747 -4.3866 0
M  V30 7550 H 721.981 -5.23354 -2.34036 0
M  V30 7551 H 720.378 -5.74436 -1.73618 0
M  V30 7552 H 721.448 -4.80053 -0.683898 0
M  V30 7553 N 722.791 0.367657 -1.53252 0
M  V30 7554 C 724.207 0.709191 -1.42978 0
M  V30 7555 C 724.407 1.93352 -0.567193 0
M  V30 7556 O 723.463 2.52453 -0.0488349 0
M  V30 7557 C 724.776 0.924338 -2.86141 0
M  V30 7558 C 726.324 1.02448 -2.95759 0
M  V30 7559 C 726.799 1.27211 -4.39979 0
M  V30 7560 N 728.29 1.33986 -4.43398 0
M  V30 7561 C 729.025 1.54852 -5.52095 0
M  V30 7562 N 728.521 1.73049 -6.7084 0
M  V30 7563 N 730.314 1.57205 -5.39669 0
M  V30 7564 H 722.465 -0.437669 -2.07842 0
M  V30 7565 H 724.728 -0.133737 -0.938519 0
M  V30 7566 H 724.434 0.0965455 -3.51567 0
M  V30 7567 H 724.308 1.83302 -3.29667 0
M  V30 7568 H 726.695 1.84282 -2.30487 0
M  V30 7569 H 726.776 0.0932301 -2.5563 0
M  V30 7570 H 726.42 0.458792 -5.05824 0
M  V30 7571 H 726.35 2.21654 -4.77679 0
M  V30 7572 H 728.841 1.21545 -3.5782 0
M  V30 7573 H 729.154 1.88538 -7.49449 0
M  V30 7574 H 727.499 1.70231 -6.7383 0
M  V30 7575 H 730.69 1.42555 -4.45865 0
M  V30 7576 H 730.863 1.73126 -6.24445 0
M  V30 7577 N 724.269 1.44576 0.627338 0
M  V30 7578 C 725.232 1.51372 1.72102 0
M  V30 7579 C 726.232 0.395329 1.55865 0
M  V30 7580 O 727.422 0.658094 1.61291 0
M  V30 7581 C 724.554 1.39129 3.11217 0
M  V30 7582 H 725.747 2.48798 1.6745 0
M  V30 7583 H 723.3 1.31724 0.841336 0
M  V30 7584 H 724.035 0.428114 3.21462 0
M  V30 7585 H 723.82 2.20229 3.24409 0
M  V30 7586 H 725.31 1.46874 3.90919 0
M  V30 7587 N 725.747 -0.868086 1.31537 0
M  V30 7588 C 726.975 -1.65402 1.24298 0
M  V30 7589 C 727.39 -1.87827 -0.191389 0
M  V30 7590 O 726.747 -1.43776 -1.12404 0
M  V30 7591 C 726.798 -3.02093 1.9855 0
M  V30 7592 O 726.519 -2.80668 3.36388 0
M  V30 7593 C 728.02 -3.96538 1.98173 0
M  V30 7594 H 725.24 -0.515598 0.429417 0
M  V30 7595 H 727.784 -1.0834 1.73444 0
M  V30 7596 H 725.939 -3.55838 1.53161 0
M  V30 7597 H 726.353 -3.67504 3.74221 0
M  V30 7598 H 727.827 -4.8976 2.54635 0
M  V30 7599 H 728.304 -4.28474 0.964697 0
M  V30 7600 H 728.91 -3.48729 2.4345 0
M  V30 7601 N 727.225 -1.14528 -1.08264 0
M  V30 7602 C 728.502 -0.825185 -1.77342 0
M  V30 7603 C 728.882 0.681037 -1.99813 0
M  V30 7604 O 728.23 1.62234 -1.60912 0
M  V30 7605 C 728.44 -1.62556 -3.08831 0
M  V30 7606 C 729.788 -1.82585 -3.83338 0
M  V30 7607 O 730.812 -1.59254 -3.18617 0
M  V30 7608 O 729.671 -2.21598 -4.99556 0
M  V30 7609 H 726.765 -0.302531 -0.769678 0
M  V30 7610 H 729.311 -1.25056 -1.14713 0
M  V30 7611 H 728.083 -2.64862 -2.88035 0
M  V30 7612 H 727.706 -1.1959 -3.79189 0
M  V30 7613 N 728.703 1.26451 -0.940633 0
M  V30 7614 C 729.651 2.28389 -0.440581 0
M  V30 7615 C 730.645 1.62402 0.481859 0
M  V30 7616 O 731.851 1.76361 0.360132 0
M  V30 7617 H 728.226 0.741716 -0.123938 0
M  V30 7618 H 730.197 2.67967 -1.31288 0
M  V30 7619 C 728.946 3.46576 0.279364 0
M  V30 7620 H 728.269 3.97574 -0.421274 0
M  V30 7621 H 729.709 4.19826 0.59348 0
M  V30 7622 C 728.168 3.01815 1.49697 0
M  V30 7623 O 728.698 3.06607 2.59529 0
M  V30 7624 N 726.904 2.57163 1.35334 0
M  V30 7625 H 726.451 2.53464 0.459743 0
M  V30 7626 H 726.409 2.27578 2.16923 0
M  V30 7627 N 730.181 0.707592 1.40822 0
M  V30 7628 C 731.429 0.243189 2.00632 0
M  V30 7629 C 731.75 -1.16512 1.56365 0
M  V30 7630 O 731.02 -1.78841 0.799553 0
M  V30 7631 H 729.6 0.0869203 0.741926 0
M  V30 7632 H 732.262 0.911438 1.72275 0
M  V30 7633 H 731.358 0.270014 3.1093 0
M  V30 7634 N 731.66 -1.50943 0.453197 0
M  V30 7635 C 732.59 -2.31005 -0.34044 0
M  V30 7636 C 733.571 -1.37112 -1.00669 0
M  V30 7637 O 734.756 -1.66033 -1.0073 0
M  V30 7638 C 731.886 -3.16358 -1.433 0
M  V30 7639 C 730.84 -4.18658 -0.889363 0
M  V30 7640 C 730.166 -4.92633 -2.07887 0
M  V30 7641 C 731.466 -5.22227 0.0871142 0
M  V30 7642 H 733.16 -2.97601 0.327723 0
M  V30 7643 H 730.706 -1.43119 0.159054 0
M  V30 7644 H 732.659 -3.71155 -1.99555 0
M  V30 7645 H 731.383 -2.47613 -2.12968 0
M  V30 7646 H 730.042 -3.64936 -0.348915 0
M  V30 7647 H 729.69 -4.20376 -2.76211 0
M  V30 7648 H 729.39 -5.61819 -1.72143 0
M  V30 7649 H 730.914 -5.50258 -2.64666 0
M  V30 7650 H 732.328 -5.72001 -0.385656 0
M  V30 7651 H 730.725 -5.99032 0.357926 0
M  V30 7652 H 731.795 -4.74077 1.01879 0
M  V30 7653 N 733.138 -0.185124 -1.56509 0
M  V30 7654 C 734.386 0.455357 -1.96903 0
M  V30 7655 C 734.707 1.62839 -1.07277 0
M  V30 7656 O 733.977 1.95385 -0.141966 0
M  V30 7657 H 732.557 0.171218 -0.727113 0
M  V30 7658 H 735.219 -0.26953 -1.93027 0
M  V30 7659 H 734.315 0.80616 -3.01509 0
M  V30 7660 N 734.616 1.57351 0.0885366 0
M  V30 7661 C 735.563 2.02523 1.10693 0
M  V30 7662 C 736.533 0.902736 1.39427 0
M  V30 7663 O 737.718 1.16921 1.50779 0
M  V30 7664 C 734.858 2.46013 2.42016 0
M  V30 7665 C 733.971 3.7181 2.19957 0
M  V30 7666 C 733.106 4.04152 3.44724 0
M  V30 7667 C 732.145 5.2304 3.17956 0
M  V30 7668 N 731.282 5.51102 4.35007 0
M  V30 7669 H 736.122 2.89302 0.714742 0
M  V30 7670 H 733.659 1.43084 0.341378 0
M  V30 7671 H 735.617 2.69274 3.18665 0
M  V30 7672 H 734.247 1.62235 2.79069 0
M  V30 7673 H 733.299 3.55987 1.34079 0
M  V30 7674 H 734.611 4.58604 1.96173 0
M  V30 7675 H 733.765 4.28225 4.29777 0
M  V30 7676 H 732.504 3.15893 3.71568 0
M  V30 7677 H 731.509 4.98781 2.31296 0
M  V30 7678 H 732.734 6.12902 2.92451 0
M  V30 7679 H 730.68 4.65802 4.61914 0
M  V30 7680 H 730.597 6.3228 4.14437 0
M  V30 7681 H 731.865 5.79714 5.21106 0
M  V30 7682 N 736.094 -0.359525 1.53444 0
M  V30 7683 C 737.505 -0.936009 1.61542 0
M  V30 7684 C 737.856 -1.90069 0.486633 0
M  V30 7685 O 736.981 -2.12929 -0.386047 0
M  V30 7686 C 737.576 -1.70441 2.92806 0
M  V30 7687 C 736.135 -2.23015 3.03218 0
M  V30 7688 C 735.282 -1.04438 2.56881 0
M  V30 7689 H 738.233 -0.138134 1.58098 0
M  V30 7690 H 738.254 -2.56609 2.80948 0
M  V30 7691 H 737.766 -1.00205 3.74941 0
M  V30 7692 H 735.867 -2.96475 2.25684 0
M  V30 7693 H 735.98 -2.50481 4.08407 0
M  V30 7694 H 734.344 -1.41314 2.11902 0
M  V30 7695 H 735.127 -0.356905 3.4144 0
M  V30 7696 N 737.572 -1.44907 -0.619662 0
M  V30 7697 C 738.849 -1.38766 -1.37852 0
M  V30 7698 C 739.229 -0.0521393 -2.11036 0
M  V30 7699 O 738.577 0.965613 -2.07095 0
M  V30 7700 C 738.787 -2.59344 -2.33541 0
M  V30 7701 C 740.135 -3.03909 -2.96521 0
M  V30 7702 O 741.159 -2.59631 -2.43865 0
M  V30 7703 O 740.018 -3.80713 -3.92071 0
M  V30 7704 H 737.112 -0.550083 -0.617525 0
M  V30 7705 H 739.658 -1.57015 -0.643759 0
M  V30 7706 H 738.43 -3.48142 -1.78642 0
M  V30 7707 H 738.053 -2.43367 -3.14417 0
M  V30 7708 N 739.05 0.861098 -1.31996 0
M  V30 7709 C 740.297 1.61481 -1.22188 0
M  V30 7710 C 740.625 1.93276 0.217853 0
M  V30 7711 O 739.88 1.56942 1.16909 0
M  V30 7712 C 740.179 2.94822 -2.02027 0
M  V30 7713 C 739.845 2.82483 -3.51446 0
M  V30 7714 C 738.507 2.78825 -3.92186 0
M  V30 7715 C 740.859 2.68878 -4.46491 0
M  V30 7716 C 738.187 2.59433 -5.26224 0
M  V30 7717 C 740.539 2.51022 -5.80664 0
M  V30 7718 C 739.203 2.45753 -6.20614 0
M  V30 7719 H 738.473 0.590902 -0.447119 0
M  V30 7720 H 741.12 0.999376 -1.63355 0
M  V30 7721 H 739.425 3.6045 -1.53569 0
M  V30 7722 H 741.122 3.52149 -1.91812 0
M  V30 7723 H 737.712 2.86152 -3.19085 0
M  V30 7724 H 741.896 2.70754 -4.1594 0
M  V30 7725 H 737.152 2.53784 -5.5624 0
M  V30 7726 H 741.326 2.39473 -6.53931 0
M  V30 7727 H 738.953 2.30485 -7.24417 0
M  V30 7728 N 740.528 1.15101 1.07655 0
M  V30 7729 C 741.939 0.933848 1.61667 0
M  V30 7730 C 742.29 -0.525569 1.8903 0
M  V30 7731 O 741.415 -1.39605 1.65346 0
M  V30 7732 C 742.01 1.68876 2.93711 0
M  V30 7733 C 740.569 1.51697 3.44478 0
M  V30 7734 C 739.716 1.70633 2.18586 0
M  V30 7735 H 742.667 1.30171 0.907816 0
M  V30 7736 H 742.688 1.15645 3.625 0
M  V30 7737 H 742.2 2.7509 2.73764 0
M  V30 7738 H 740.301 0.478635 3.69513 0
M  V30 7739 H 740.414 2.29194 4.20722 0
M  V30 7740 H 738.778 1.13259 2.28132 0
M  V30 7741 H 739.561 2.78206 2.01137 0
M  V30 7742 N 742.006 -1.2595 0.947325 0
M  V30 7743 C 742.916 -2.29883 0.468079 0
M  V30 7744 C 743.932 -1.67783 -0.460975 0
M  V30 7745 O 745.108 -1.98526 -0.339006 0
M  V30 7746 C 742.173 -3.45773 -0.253315 0
M  V30 7747 C 741.234 -4.23337 0.713054 0
M  V30 7748 C 740.467 -5.33694 0.025993 0
M  V30 7749 O 740.69 -5.57853 -1.18978 0
M  V30 7750 O 739.624 -5.97724 0.70782 0
M  V30 7751 H 743.45 -2.72952 1.33156 0
M  V30 7752 H 741.035 -1.31263 0.713468 0
M  V30 7753 H 742.917 -4.16209 -0.659423 0
M  V30 7754 H 741.592 -3.04721 -1.09209 0
M  V30 7755 H 740.499 -3.55359 1.16923 0
M  V30 7756 H 741.832 -4.68154 1.51963 0
M  V30 7757 N 743.484 -0.715051 -1.40445 0
M  V30 7758 C 744.447 -0.0708726 -2.2909 0
M  V30 7759 C 745.447 0.687926 -1.45342 0
M  V30 7760 O 746.637 0.519908 -1.66261 0
M  V30 7761 C 743.769 0.909528 -3.28543 0
M  V30 7762 H 744.962 -0.851611 -2.87555 0
M  V30 7763 H 742.515 -0.479674 -1.48758 0
M  V30 7764 H 743.25 1.71734 -2.75096 0
M  V30 7765 H 743.035 0.368318 -3.90366 0
M  V30 7766 H 744.525 1.35744 -3.94922 0
M  V30 7767 N 744.962 1.50701 -0.461195 0
M  V30 7768 C 745.91 2.29918 0.352231 0
M  V30 7769 C 746.904 1.36778 0.999403 0
M  V30 7770 O 748.11 1.54015 0.931639 0
M  V30 7771 H 744.485 0.740249 0.132423 0
M  V30 7772 H 746.456 2.96497 -0.336424 0
M  V30 7773 C 745.205 3.17052 1.42736 0
M  V30 7774 H 744.528 3.88623 0.938747 0
M  V30 7775 H 745.968 3.75493 1.96928 0
M  V30 7776 C 744.427 2.3399 2.42384 0
M  V30 7777 O 744.957 2.01608 3.47444 0
M  V30 7778 N 743.163 1.96758 2.13857 0
M  V30 7779 H 742.71 2.23292 1.28447 0
M  V30 7780 H 742.668 1.41484 2.80766 0
M  V30 7781 N 746.441 0.193421 1.56409 0
M  V30 7782 C 747.857 -0.162447 1.58771 0
M  V30 7783 C 748.057 -1.6116 1.20954 0
M  V30 7784 O 747.113 -2.3469 0.931497 0
M  V30 7785 C 748.426 0.138391 3.00381 0
M  V30 7786 C 749.974 0.0783649 3.12902 0
M  V30 7787 C 750.449 0.352491 4.56642 0
M  V30 7788 N 751.94 0.30105 4.62221 0
M  V30 7789 C 752.675 0.487028 5.71328 0
M  V30 7790 N 752.171 0.733265 6.88909 0
M  V30 7791 N 753.964 0.4214 5.60518 0
M  V30 7792 H 746.115 1.13909 1.79272 0
M  V30 7793 H 748.378 0.454528 0.83193 0
M  V30 7794 H 748.084 1.14312 3.32604 0
M  V30 7795 H 747.958 -0.559804 3.73023 0
M  V30 7796 H 750.345 -0.916963 2.80492 0
M  V30 7797 H 750.426 0.809611 2.4265 0
M  V30 7798 H 750.07 1.34513 4.89764 0
M  V30 7799 H 750 -0.399624 5.25081 0
M  V30 7800 H 752.491 0.117279 3.77718 0
M  V30 7801 H 752.804 0.86403 7.67955 0
M  V30 7802 H 751.149 0.770138 6.9072 0
M  V30 7803 H 754.34 0.229461 4.67537 0
M  V30 7804 H 754.513 0.569758 6.4549 0
M  V30 7805 N 747.919 -1.57396 -0.0801906 0
M  V30 7806 C 748.829 -2.06451 -1.11423 0
M  V30 7807 C 749.845 -0.992352 -1.42928 0
M  V30 7808 O 751.021 -1.30651 -1.53272 0
M  V30 7809 C 748.086 -2.49164 -2.41077 0
M  V30 7810 C 747.147 -3.70641 -2.16619 0
M  V30 7811 C 746.38 -4.11307 -3.40092 0
M  V30 7812 O 746.603 -3.51922 -4.48895 0
M  V30 7813 O 745.537 -5.04157 -3.288 0
M  V30 7814 H 749.363 -2.94857 -0.727519 0
M  V30 7815 H 746.948 -1.46484 -0.293743 0
M  V30 7816 H 748.83 -2.77196 -3.17396 0
M  V30 7817 H 747.505 -1.6389 -2.79145 0
M  V30 7818 H 746.412 -3.47703 -1.38033 0
M  V30 7819 H 747.745 -4.5674 -1.83437 0
M  V30 7820 N 749.397 0.351382 -1.53633 0
M  V30 7821 C 750.813 0.693987 -1.43722 0
M  V30 7822 C 751.013 1.9274 -0.587669 0
M  V30 7823 O 750.069 2.52387 -0.0756082 0
M  V30 7824 C 751.382 0.893937 -2.87105 0
M  V30 7825 C 752.93 0.993051 -2.96829 0
M  V30 7826 C 753.405 1.22537 -4.41303 0
M  V30 7827 N 754.896 1.29275 -4.44795 0
M  V30 7828 C 755.631 1.48988 -5.53706 0
M  V30 7829 N 755.127 1.65924 -6.72637 0
M  V30 7830 N 756.92 1.51472 -5.41306 0
M  V30 7831 H 749.071 -0.459688 -2.07366 0
M  V30 7832 H 751.334 -0.143684 -0.937048 0
M  V30 7833 H 751.04 0.0592517 -3.5165 0
M  V30 7834 H 750.914 1.79795 -3.31592 0
M  V30 7835 H 753.301 1.81827 -2.32429 0
M  V30 7836 H 753.382 0.0661119 -2.55715 0
M  V30 7837 H 753.026 0.405117 -5.06282 0
M  V30 7838 H 752.956 2.16575 -4.80003 0
M  V30 7839 H 755.447 1.17743 -3.59089 0
M  V30 7840 H 755.76 1.80578 -7.51406 0
M  V30 7841 H 754.105 1.63075 -6.75597 0
M  V30 7842 H 757.296 1.37818 -4.47352 0
M  V30 7843 H 757.469 1.66493 -6.26246 0
M  V30 7844 N 750.875 1.45233 0.611969 0
M  V30 7845 C 752.291 1.29542 0.932251 0
M  V30 7846 C 752.491 0.24523 2.00002 0
M  V30 7847 O 751.547 -0.362333 2.49887 0
M  V30 7848 C 752.86 2.67301 1.37733 0
M  V30 7849 C 754.408 2.75163 1.49178 0
M  V30 7850 C 754.883 4.13437 1.97064 0
M  V30 7851 N 756.374 4.15709 2.04304 0
M  V30 7852 C 757.109 5.19566 2.42568 0
M  V30 7853 N 756.605 6.33771 2.79832 0
M  V30 7854 N 758.398 5.06923 2.42869 0
M  V30 7855 H 750.549 2.12192 -0.0938679 0
M  V30 7856 H 752.812 0.947775 0.0206569 0
M  V30 7857 H 752.518 3.45318 0.666951 0
M  V30 7858 H 752.392 2.95472 2.3447 0
M  V30 7859 H 754.779 1.97453 2.19309 0
M  V30 7860 H 754.86 2.50712 0.507674 0
M  V30 7861 H 754.504 4.91631 1.27521 0
M  V30 7862 H 754.434 4.35277 2.9638 0
M  V30 7863 H 756.925 3.33293 1.78113 0
M  V30 7864 H 757.238 7.08815 3.07898 0
M  V30 7865 H 755.583 6.37179 2.77538 0
M  V30 7866 H 758.774 4.1675 2.1316 0
M  V30 7867 H 758.947 5.87981 2.72364 0
M  V30 7868 N 752.353 -0.854086 1.3245 0
M  V30 7869 C 753.764 -1.42427 1.20712 0
M  V30 7870 C 754.115 -1.95371 -0.18013 0
M  V30 7871 O 753.24 -1.87587 -1.07889 0
M  V30 7872 C 753.835 -2.58897 2.18536 0
M  V30 7873 C 752.394 -3.11913 2.10683 0
M  V30 7874 C 751.541 -1.84661 2.06871 0
M  V30 7875 H 754.492 -0.661192 1.4427 0
M  V30 7876 H 754.513 -3.36074 1.78422 0
M  V30 7877 H 754.025 -2.20333 3.19492 0
M  V30 7878 H 752.126 -3.55059 1.12977 0
M  V30 7879 H 752.239 -3.73119 3.00532 0
M  V30 7880 H 750.603 -2.04285 1.52118 0
M  V30 7881 H 751.386 -1.48314 3.09609 0
M  V30 7882 N 753.831 -1.1567 -1.07043 0
M  V30 7883 C 755.056 -0.957946 -1.83952 0
M  V30 7884 C 755.481 0.488807 -1.81638 0
M  V30 7885 O 754.839 1.34869 -1.21162 0
M  V30 7886 C 754.887 -1.48064 -3.288 0
M  V30 7887 O 753.991 -0.681921 -4.06723 0
M  V30 7888 H 753.332 -0.341453 -0.569479 0
M  V30 7889 H 755.862 -1.53728 -1.35015 0
M  V30 7890 H 755.872 -1.49484 -3.7963 0
M  V30 7891 H 754.547 -2.53388 -3.29799 0
M  V30 7892 H 753.124 -0.737612 -3.65532 0
M  V30 7893 N 755.309 1.25446 -0.953992 0
M  V30 7894 C 756.539 1.96929 -0.624688 0
M  V30 7895 C 756.947 1.71112 0.807292 0
M  V30 7896 O 756.29 0.983512 1.55154 0
M  V30 7897 C 756.352 3.50425 -0.802676 0
M  V30 7898 C 756.016 3.99916 -2.21169 0
M  V30 7899 C 757.013 4.10662 -3.18831 0
M  V30 7900 C 754.698 4.33598 -2.53571 0
M  V30 7901 C 756.692 4.54401 -4.46988 0
M  V30 7902 C 754.379 4.77024 -3.81958 0
M  V30 7903 C 755.377 4.87388 -4.78478 0
M  V30 7904 O 755.065 5.29851 -6.04577 0
M  V30 7905 H 754.797 0.634511 -0.233179 0
M  V30 7906 H 757.351 1.60591 -1.28061 0
M  V30 7907 H 755.581 3.86596 -0.0896044 0
M  V30 7908 H 757.27 4.03117 -0.47452 0
M  V30 7909 H 758.036 3.84872 -2.95124 0
M  V30 7910 H 753.915 4.24757 -1.79171 0
M  V30 7911 H 757.459 4.62406 -5.22328 0
M  V30 7912 H 753.356 5.02258 -4.05471 0
M  V30 7913 H 754.124 5.48039 -6.07944 0
M  V30 7914 N 756.787 0.722489 1.40064 0
M  V30 7915 C 757.717 0.0892452 2.33329 0
M  V30 7916 C 758.698 -0.737992 1.53257 0
M  V30 7917 O 759.883 -0.685516 1.81698 0
M  V30 7918 C 757.013 -0.828139 3.37282 0
M  V30 7919 C 755.967 -0.106005 4.27869 0
M  V30 7920 C 755.293 -1.13957 5.22415 0
M  V30 7921 C 756.593 1.04395 5.11761 0
M  V30 7922 H 758.287 0.868269 2.86534 0
M  V30 7923 H 755.833 0.418982 1.3777 0
M  V30 7924 H 757.786 -1.28058 4.01471 0
M  V30 7925 H 756.51 -1.63914 2.82489 0
M  V30 7926 H 755.169 0.326683 3.65142 0
M  V30 7927 H 754.817 -1.9438 4.63924 0
M  V30 7928 H 754.517 -0.661233 5.83868 0
M  V30 7929 H 756.041 -1.59197 5.89482 0
M  V30 7930 H 757.455 0.670541 5.69365 0
M  V30 7931 H 755.852 1.4511 5.82291 0
M  V30 7932 H 756.922 1.87144 4.47331 0
M  V30 7933 N 758.265 -1.50454 0.469181 0
M  V30 7934 C 759.676 -1.86695 0.0136034 0
M  V30 7935 C 760.027 -1.38413 -1.39055 0
M  V30 7936 O 759.152 -0.748294 -2.03051 0
M  V30 7937 C 759.747 -3.38795 0.0179098 0
M  V30 7938 C 758.306 -3.74455 -0.382191 0
M  V30 7939 C 757.453 -2.74338 0.404207 0
M  V30 7940 H 760.404 -1.43225 0.683547 0
M  V30 7941 H 760.425 -3.72321 -0.78468 0
M  V30 7942 H 759.937 -3.73906 1.04 0
M  V30 7943 H 758.038 -3.44944 -1.4087 0
M  V30 7944 H 758.151 -4.79025 -0.084862 0
M  V30 7945 H 756.515 -2.54305 -0.141829 0
M  V30 7946 H 757.298 -3.12293 1.42577 0
M  V30 7947 N 759.743 -0.201713 -1.56304 0
M  V30 7948 C 760.971 0.440723 -2.02152 0
M  V30 7949 C 761.386 1.54735 -1.08179 0
M  V30 7950 O 760.743 1.82289 -0.0878196 0
M  V30 7951 C 760.794 0.990884 -3.47655 0
M  V30 7952 O 760.515 -0.0715937 -4.38041 0
M  V30 7953 C 762.016 1.70854 -4.09052 0
M  V30 7954 H 759.236 0.109987 -0.661924 0
M  V30 7955 H 761.78 -0.312358 -2.021 0
M  V30 7956 H 759.935 1.69432 -3.48384 0
M  V30 7957 H 760.349 0.338892 -5.23404 0
M  V30 7958 H 761.823 2.04572 -5.12693 0
M  V30 7959 H 762.3 2.61462 -3.52894 0
M  V30 7960 H 762.906 1.0508 -4.12114 0
M  V30 7961 N 761.222 1.57436 0.0718424 0
M  V30 7962 C 762.633 1.75975 0.623678 0
M  V30 7963 C 762.984 0.827155 1.77912 0
M  V30 7964 O 762.109 0.0112425 2.16397 0
M  V30 7965 C 762.704 3.1911 1.13816 0
M  V30 7966 C 761.263 3.38994 1.63586 0
M  V30 7967 C 760.41 2.71684 0.555261 0
M  V30 7968 H 763.361 1.57948 -0.154328 0
M  V30 7969 H 763.382 3.23267 2.00696 0
M  V30 7970 H 762.894 3.86962 0.296998 0
M  V30 7971 H 760.995 2.76256 2.50027 0
M  V30 7972 H 761.108 4.47436 1.71283 0
M  V30 7973 H 759.472 2.34236 1.00029 0
M  V30 7974 H 760.255 3.42191 -0.275712 0
M  V30 7975 N 762.7 -0.34323 1.53817 0
M  V30 7976 C 763.65 -1.42217 1.78208 0
M  V30 7977 C 764.634 -1.4774 0.637304 0
M  V30 7978 O 765.826 -1.52605 0.896705 0
M  V30 7979 C 762.955 -2.79354 1.9954 0
M  V30 7980 C 762.041 -2.78222 3.20084 0
M  V30 7981 N 762.432 -2.46719 4.41547 0
M  V30 7982 C 760.73 -3.09368 3.21259 0
M  V30 7983 C 761.431 -2.53828 5.23399 0
M  V30 7984 N 760.407 -2.89464 4.60121 0
M  V30 7985 H 764.209 -1.16759 2.69712 0
M  V30 7986 H 761.723 -0.551592 1.52746 0
M  V30 7987 H 763.72 -3.57095 2.15148 0
M  V30 7988 H 762.38 -3.05759 1.09278 0
M  V30 7989 H 763.391 -2.19912 4.68891 0
M  V30 7990 H 760.068 -3.40942 2.40966 0
M  V30 7991 H 761.458 -2.32629 6.30344 0
M  V30 7992 N 764.178 -1.45556 -0.604258 0
M  V30 7993 C 765.594 -1.30035 -0.925368 0
M  V30 7994 C 765.794 -0.255833 -1.99869 0
M  V30 7995 O 764.85 0.349076 -2.50075 0
M  V30 7996 C 766.163 -2.68028 -1.36314 0
M  V30 7997 C 767.711 -2.75951 -1.47717 0
M  V30 7998 C 768.186 -4.14476 -1.94868 0
M  V30 7999 N 769.677 -4.16787 -2.02097 0
M  V30 8000 C 770.412 -5.20845 -2.39809 0
M  V30 8001 N 769.908 -6.35246 -2.76467 0
M  V30 8002 N 771.701 -5.08204 -2.40177 0
M  V30 8003 H 763.852 -2.1214 0.10512 0
M  V30 8004 H 766.115 -0.947871 -0.0156303 0
M  V30 8005 H 765.821 -3.45667 -0.648628 0
M  V30 8006 H 765.695 -2.96711 -2.329 0
M  V30 8007 H 768.082 -1.98613 -2.18258 0
M  V30 8008 H 768.163 -2.50977 -0.494371 0
M  V30 8009 H 767.807 -4.923 -1.24912 0
M  V30 8010 H 767.737 -4.36843 -2.94068 0
M  V30 8011 H 770.228 -3.34233 -1.76343 0
M  V30 8012 H 770.541 -7.10438 -3.04134 0
M  V30 8013 H 768.886 -6.38642 -2.74155 0
M  V30 8014 H 772.077 -4.17874 -2.10947 0
M  V30 8015 H 772.25 -5.89417 -2.69242 0
M  V30 8016 N 765.656 0.84705 -1.32902 0
M  V30 8017 C 766.619 1.9378 -1.224 0
M  V30 8018 C 767.619 1.60144 -0.145108 0
M  V30 8019 O 768.809 1.69638 -0.396058 0
M  V30 8020 C 765.941 3.29234 -0.884174 0
M  V30 8021 H 767.134 2.04518 -2.19345 0
M  V30 8022 H 764.687 1.03816 -1.16842 0
M  V30 8023 H 765.422 3.24193 0.0831277 0
M  V30 8024 H 765.207 3.55026 -1.6643 0
M  V30 8025 H 766.697 4.09162 -0.835226 0
M  V30 8026 N 767.134 1.16236 1.06428 0
M  V30 8027 C 768.364 0.965782 1.82637 0
M  V30 8028 C 768.772 -0.489284 1.82764 0
M  V30 8029 O 768.115 -1.35133 1.24438 0
M  V30 8030 C 768.177 1.41458 3.30499 0
M  V30 8031 C 767.841 2.88926 3.54077 0
M  V30 8032 C 768.838 3.86939 3.47238 0
M  V30 8033 C 766.523 3.26814 3.81442 0
M  V30 8034 C 768.517 5.20841 3.67428 0
M  V30 8035 C 766.204 4.60886 4.01282 0
M  V30 8036 C 767.202 5.57708 3.94272 0
M  V30 8037 O 766.89 6.89357 4.13573 0
M  V30 8038 H 766.622 0.342569 0.582772 0
M  V30 8039 H 769.176 1.54641 1.35187 0
M  V30 8040 H 767.406 0.777426 3.78805 0
M  V30 8041 H 769.095 1.18563 3.88198 0
M  V30 8042 H 769.861 3.59014 3.26089 0
M  V30 8043 H 765.74 2.5203 3.86008 0
M  V30 8044 H 769.284 5.96401 3.61873 0
M  V30 8045 H 765.181 4.88522 4.21921 0
M  V30 8046 H 765.949 6.95913 4.30869 0
M  V30 8047 N 768.612 -1.24939 0.960631 0
M  V30 8048 C 769.575 -2.239 0.49006 0
M  V30 8049 C 770.575 -1.55497 -0.409535 0
M  V30 8050 O 771.765 -1.72978 -0.205984 0
M  V30 8051 C 768.897 -3.39654 -0.291193 0
M  V30 8052 H 770.09 -2.67044 1.36482 0
M  V30 8053 H 767.643 -1.37429 0.744505 0
M  V30 8054 H 768.378 -3.01939 -1.18336 0
M  V30 8055 H 768.163 -3.90496 0.354276 0
M  V30 8056 H 769.653 -4.13125 -0.609693 0
M  V30 8057 N 770.09 -0.729906 -1.39679 0
M  V30 8058 C 771 -0.0880322 -2.34435 0
M  V30 8059 C 772.016 0.727674 -1.58053 0
M  V30 8060 O 773.192 0.657321 -1.90371 0
M  V30 8061 C 770.257 0.812211 -3.37052 0
M  V30 8062 C 769.318 -0.0151681 -4.29297 0
M  V30 8063 C 768.551 0.842202 -5.27013 0
M  V30 8064 O 768.774 2.08108 -5.31081 0
M  V30 8065 O 767.708 0.27357 -6.01278 0
M  V30 8066 H 771.534 -0.869989 -2.90972 0
M  V30 8067 H 769.119 -0.490522 -1.41118 0
M  V30 8068 H 771.001 1.32745 -3.99946 0
M  V30 8069 H 769.676 1.57307 -2.82907 0
M  V30 8070 H 768.583 -0.575811 -3.69642 0
M  V30 8071 H 769.916 -0.738129 -4.86634 0
M  V30 8072 N 771.568 1.50203 -0.477153 0
M  V30 8073 C 772.515 2.28656 0.31386 0
M  V30 8074 C 773.485 1.33977 0.981802 0
M  V30 8075 O 774.67 1.62919 0.993072 0
M  V30 8076 C 771.81 3.16027 1.38639 0
M  V30 8077 C 770.923 4.25743 0.732615 0
M  V30 8078 C 770.058 5.00363 1.78355 0
M  V30 8079 C 769.097 6.01945 1.11035 0
M  V30 8080 N 768.234 6.6982 2.10441 0
M  V30 8081 H 773.074 2.958 -0.361445 0
M  V30 8082 H 770.611 1.45867 -0.190093 0
M  V30 8083 H 772.569 3.6504 2.01994 0
M  V30 8084 H 771.199 2.50917 2.03077 0
M  V30 8085 H 770.251 3.80398 -0.0136546 0
M  V30 8086 H 771.563 4.98393 0.201513 0
M  V30 8087 H 770.717 5.53124 2.49276 0
M  V30 8088 H 769.456 4.27432 2.34847 0
M  V30 8089 H 768.461 5.48438 0.386797 0
M  V30 8090 H 769.686 6.76851 0.552248 0
M  V30 8091 H 767.632 5.99677 2.65939 0
M  V30 8092 H 767.549 7.38366 1.62332 0
M  V30 8093 H 768.817 7.27196 2.80724 0
M  V30 8094 N 773.046 0.209999 1.56195 0
M  V30 8095 C 774.462 -0.145598 1.58934 0
M  V30 8096 C 774.662 -1.59868 1.22656 0
M  V30 8097 O 773.718 -2.33689 0.956336 0
M  V30 8098 C 775.031 0.170243 3.00218 0
M  V30 8099 C 776.579 0.111548 3.12801 0
M  V30 8100 C 777.054 0.400904 4.56242 0
M  V30 8101 N 778.545 0.350058 4.61875 0
M  V30 8102 C 779.28 0.547598 5.70779 0
M  V30 8103 N 778.776 0.806291 6.88092 0
M  V30 8104 N 780.569 0.480827 5.6004 0
M  V30 8105 H 772.72 1.15804 1.78054 0
M  V30 8106 H 774.983 0.463326 0.827063 0
M  V30 8107 H 774.689 1.17833 3.31373 0
M  V30 8108 H 774.563 -0.520208 3.73596 0
M  V30 8109 H 776.95 -0.887162 2.81449 0
M  V30 8110 H 777.031 0.835302 2.41777 0
M  V30 8111 H 776.675 1.397 4.8831 0
M  V30 8112 H 776.605 -0.34391 5.25476 0
M  V30 8113 H 779.096 0.157334 3.77572 0
M  V30 8114 H 779.409 0.945433 7.66995 0
M  V30 8115 H 777.754 0.843355 6.89864 0
M  V30 8116 H 780.945 0.279037 4.67268 0
M  V30 8117 H 781.118 0.638189 6.4485 0
M  V30 8118 N 774.524 -1.57472 -0.0634922 0
M  V30 8119 C 775.457 -1.99571 -1.10664 0
M  V30 8120 C 776.435 -0.874015 -1.37112 0
M  V30 8121 O 777.619 -1.13702 -1.50347 0
M  V30 8122 C 774.746 -2.3395 -2.44918 0
M  V30 8123 C 773.792 -3.56213 -2.34551 0
M  V30 8124 S 774.625 -5.06727 -1.73169 0
M  V30 8125 C 775.781 -5.44316 -3.08984 0
M  V30 8126 H 776.014 -2.87739 -0.747905 0
M  V30 8127 H 773.547 -1.5198 -0.272316 0
M  V30 8128 H 775.505 -2.54431 -3.22141 0
M  V30 8129 H 774.166 -1.46297 -2.7795 0
M  V30 8130 H 773.359 -3.77812 -3.33578 0
M  V30 8131 H 772.961 -3.35406 -1.65466 0
M  V30 8132 H 775.253 -5.42894 -4.05305 0
M  V30 8133 H 776.196 -6.4502 -2.92156 0
M  V30 8134 H 776.604 -4.71781 -3.09972 0
M  V30 8135 N 776.003 0.335068 -1.53997 0
M  V30 8136 C 776.933 1.41727 -1.85568 0
M  V30 8137 C 777.914 1.54505 -0.7115 0
M  V30 8138 O 779.099 1.68573 -0.964191 0
M  V30 8139 C 776.229 2.7866 -2.07282 0
M  V30 8140 C 775.183 2.80682 -3.23112 0
M  V30 8141 C 774.509 4.20581 -3.30175 0
M  V30 8142 C 775.809 2.45458 -4.61029 0
M  V30 8143 H 777.503 1.15555 -2.76202 0
M  V30 8144 H 775.049 0.554445 -1.32898 0
M  V30 8145 H 777.002 3.54423 -2.27952 0
M  V30 8146 H 775.726 3.06286 -1.13387 0
M  V30 8147 H 774.385 2.07373 -3.02311 0
M  V30 8148 H 774.033 4.4533 -2.33859 0
M  V30 8149 H 773.733 4.22843 -4.08016 0
M  V30 8150 H 775.257 4.98174 -3.53066 0
M  V30 8151 H 776.671 3.10934 -4.81656 0
M  V30 8152 H 775.068 2.5899 -5.41336 0
M  V30 8153 H 776.138 1.40628 -4.6406 0
M  V30 8154 N 777.481 1.45874 0.596531 0
M  V30 8155 C 778.709 1.54013 1.38158 0
M  V30 8156 C 779.124 0.17648 1.87973 0
M  V30 8157 O 778.481 -0.823895 1.62844 0
M  V30 8158 C 778.532 2.53363 2.57855 0
M  V30 8159 O 778.253 3.8443 2.10108 0
M  V30 8160 C 779.754 2.71308 3.50581 0
M  V30 8161 H 776.974 0.521251 0.422538 0
M  V30 8162 H 779.518 1.9116 0.726493 0
M  V30 8163 H 777.673 2.19257 3.19382 0
M  V30 8164 H 778.087 4.38384 2.87958 0
M  V30 8165 H 779.561 3.44776 4.31084 0
M  V30 8166 H 780.038 1.77728 4.01633 0
M  V30 8167 H 780.644 3.06455 2.94899 0
M  V30 8168 N 778.959 -0.83999 1.33349 0
M  V30 8169 C 779.869 -1.98182 1.25543 0
M  V30 8170 C 780.885 -1.73204 0.166208 0
M  V30 8171 O 782.061 -1.97596 0.389589 0
M  V30 8172 C 779.126 -3.32157 0.993614 0
M  V30 8173 C 778.187 -3.70258 2.17273 0
M  V30 8174 C 777.42 -4.9784 1.92331 0
M  V30 8175 O 777.643 -5.63679 0.873074 0
M  V30 8176 O 776.577 -5.33418 2.78835 0
M  V30 8177 H 780.403 -2.07708 2.21565 0
M  V30 8178 H 777.988 -0.972852 1.13384 0
M  V30 8179 H 779.87 -4.12433 0.864711 0
M  V30 8180 H 778.545 -3.23637 0.0636596 0
M  V30 8181 H 777.452 -2.90497 2.35716 0
M  V30 8182 H 778.785 -3.83442 3.08598 0
M  V30 8183 N 780.437 -1.16799 -1.0581 0
M  V30 8184 C 781.683 -0.953935 -1.78963 0
M  V30 8185 C 782.016 0.516638 -1.87202 0
M  V30 8186 O 781.291 1.38338 -1.36721 0
M  V30 8187 C 781.574 -1.58808 -3.23191 0
M  V30 8188 C 781.427 -3.13032 -3.23003 0
M  V30 8189 C 782.746 -1.2868 -4.20867 0
M  V30 8190 H 779.865 -0.347972 -0.64968 0
M  V30 8191 H 782.507 -1.44204 -1.23715 0
M  V30 8192 H 780.657 -1.17303 -3.70368 0
M  V30 8193 H 782.329 -3.63553 -2.83949 0
M  V30 8194 H 780.572 -3.46108 -2.61518 0
M  V30 8195 H 781.243 -3.52527 -4.24769 0
M  V30 8196 H 783.719 -1.6461 -3.82155 0
M  V30 8197 H 782.595 -1.75645 -5.20038 0
M  V30 8198 H 782.856 -0.206491 -4.41618 0
M  V30 8199 O 781.954 1.1855 -1.09673 0
M  V30 8200 H 782.645 1.76666 -0.794287 0
M  V30 END ATOM
M  V30 BEGIN BOND
M  V30 END BOND
M  V30 END CTAB
M  END
$$$$
