drugbank_target|P0DJ06 Candidapepsin-2 (DB03090; DB03241; DB03659; DB04387; DB04451)
 OpenBabel12092120593D

  0  0  0     0  0            999 V3000
M  V30 BEGIN CTAB
M  V30 COUNTS 5900 5946 0 0 0
M  V30 BEGIN ATOM
M  V30 1 H -0.908 1.98254 -0.117106 0
M  V30 2 N 0 1.576 0 0
M  V30 3 C 0.933 2.03868 1.02534 0
M  V30 4 C 1.911 0.928543 1.3348 0
M  V30 5 O 3.095 1.19667 1.45644 0
M  V30 6 C 0.222 2.43627 2.35294 0
M  V30 7 C -0.732 3.65373 2.2001 0
M  V30 8 S 0.101 5.13292 1.52614 0
M  V30 9 C 1.257 5.56322 2.86805 0
M  V30 10 H 1.49 2.90518 0.631377 0
M  V30 11 H -0.977 1.52953 0.210867 0
M  V30 12 H 0.981 2.67203 3.11629 0
M  V30 13 H -0.358 1.57376 2.7183 0
M  V30 14 H -1.165 3.90944 3.18086 0
M  V30 15 H -1.563 3.418 1.51819 0
M  V30 16 H 0.729 5.58782 3.83104 0
M  V30 17 H 1.672 6.56266 2.65933 0
M  V30 18 H 2.08 4.83886 2.90714 0
M  V30 19 N 1.4781 -0.272755 1.55222 0
M  V30 20 C 2.7251 -1.00433 1.7584 0
M  V30 21 C 3.0531 -1.86275 0.559629 0
M  V30 22 O 2.3081 -1.90269 -0.457857 0
M  V30 23 C 2.6071 -1.91642 3.01675 0
M  V30 24 C 2.2731 -1.21548 4.34208 0
M  V30 25 C 0.9351 -1.02166 4.70229 0
M  V30 26 C 3.2871 -0.716684 5.16249 0
M  V30 27 C 0.6151 -0.316334 5.85847 0
M  V30 28 C 2.9671 -0.0249476 6.32595 0
M  V30 29 C 1.6311 0.180579 6.67256 0
M  V30 30 H 0.9011 -0.367509 0.643443 0
M  V30 31 H 3.5481 -0.276596 1.89492 0
M  V30 32 H 1.8531 -2.71037 2.82924 0
M  V30 33 H 3.5501 -2.48369 3.14824 0
M  V30 34 H 0.1401 -1.37645 4.05896 0
M  V30 35 H 4.3241 -0.854047 4.88896 0
M  V30 36 H -0.4199 -0.146378 6.11225 0
M  V30 37 H 3.7541 0.369311 6.9542 0
M  V30 38 H 1.3811 0.729098 7.56696 0
M  V30 39 N 2.9562 -1.48159 -0.537278 0
M  V30 40 C 3.8862 -1.65029 -1.6519 0
M  V30 41 C 4.8672 -0.499281 -1.62607 0
M  V30 42 O 6.0522 -0.730972 -1.79918 0
M  V30 43 C 3.1822 -1.68303 -3.03795 0
M  V30 44 C 2.1362 -2.8283 -3.21234 0
M  V30 45 C 1.4622 -2.71189 -4.60826 0
M  V30 46 C 2.7622 -4.24211 -3.04701 0
M  V30 47 H 4.4562 -2.58341 -1.51328 0
M  V30 48 H 2.0022 -1.24325 -0.726585 0
M  V30 49 H 3.9552 -1.78693 -3.81637 0
M  V30 50 H 2.6792 -0.715635 -3.18663 0
M  V30 51 H 1.3382 -2.71983 -2.45807 0
M  V30 52 H 0.9862 -1.72435 -4.7252 0
M  V30 53 H 0.6862 -3.48035 -4.7344 0
M  V30 54 H 2.2102 -2.83537 -5.40777 0
M  V30 55 H 3.6242 -4.3593 -3.72341 0
M  V30 56 H 2.0212 -5.01998 -3.28813 0
M  V30 57 H 3.0912 -4.41184 -2.01209 0
M  V30 58 N 4.4343 0.785586 -1.36625 0
M  V30 59 C 5.3813 1.89838 -1.31264 0
M  V30 60 C 6.3513 1.65115 -0.180633 0
M  V30 61 O 7.5363 1.87222 -0.36777 0
M  V30 62 C 4.6763 3.26706 -1.11163 0
M  V30 63 C 3.7893 3.63476 -2.33472 0
M  V30 64 C 2.9243 4.89481 -2.06353 0
M  V30 65 C 1.9633 5.18941 -3.24602 0
M  V30 66 N 1.1003 6.36131 -2.97123 0
M  V30 67 H 5.9403 1.93756 -2.26413 0
M  V30 68 H 3.4773 0.947454 -1.12524 0
M  V30 69 H 5.4353 4.05639 -0.975337 0
M  V30 70 H 4.0653 3.222 -0.196674 0
M  V30 71 H 3.1173 2.79636 -2.57891 0
M  V30 72 H 4.4293 3.81193 -3.21704 0
M  V30 73 H 3.5833 5.76288 -1.89675 0
M  V30 74 H 2.3223 4.73841 -1.15437 0
M  V30 75 H 1.3273 4.30615 -3.41834 0
M  V30 76 H 2.5523 5.36498 -4.16349 0
M  V30 77 H 0.4983 6.21875 -2.08823 0
M  V30 78 H 0.4153 6.54198 -3.78894 0
M  V30 79 H 1.6833 7.2591 -2.84033 0
M  V30 80 N 5.9124 1.20967 1.01018 0
M  V30 81 C 6.8604 0.961223 2.1181 0
M  V30 82 C 7.8544 -0.0897034 1.69162 0
M  V30 83 O 9.0604 0.0612271 1.79896 0
M  V30 84 H 5.4354 0.29355 0.692338 0
M  V30 85 H 7.4064 1.90178 2.29946 0
M  V30 86 C 6.1554 0.536854 3.4353 0
M  V30 87 H 5.4784 1.33713 3.76777 0
M  V30 88 H 6.9184 0.402286 4.22087 0
M  V30 89 C 5.3774 -0.751574 3.2841 0
M  V30 90 O 5.9074 -1.80841 3.58691 0
M  V30 91 N 4.1134 -0.716079 2.81639 0
M  V30 92 H 3.6604 0.144236 2.57196 0
M  V30 93 H 3.6184 -1.57847 2.71904 0
M  V30 94 N 7.3905 -1.2043 1.01659 0
M  V30 95 C 8.6395 -1.89118 0.701237 0
M  V30 96 C 8.9525 -1.79705 -0.772358 0
M  V30 97 O 10.1585 -2.43528 -1.20026 0
M  V30 98 C 8.6145 -3.39168 1.20388 0
M  V30 99 C 8.2225 -3.57166 2.70438 0
M  V30 100 C 9.9665 -4.1341 0.963953 0
M  V30 101 C 7.8735 -5.01042 3.14183 0
M  V30 102 H 6.8035 -0.708267 0.2586 0
M  V30 103 H 9.4545 -1.36239 1.22927 0
M  V30 104 H 7.8365 -3.91369 0.603824 0
M  V30 105 H 9.0105 -3.15351 3.35992 0
M  V30 106 H 7.3255 -2.96294 2.92572 0
M  V30 107 H 9.9225 -5.19491 1.26621 0
M  V30 108 H 10.2655 -4.16181 -0.099578 0
M  V30 109 H 10.7985 -3.67309 1.52738 0
M  V30 110 H 7.5375 -5.03426 4.19812 0
M  V30 111 H 7.0575 -5.43668 2.53348 0
M  V30 112 H 8.7365 -5.69623 3.0682 0
M  V30 113 N 8.8686 -0.792821 -1.36206 0
M  V30 114 C 10.1156 -0.366786 -1.99151 0
M  V30 115 C 10.4436 1.06243 -1.62919 0
M  V30 116 O 9.6986 1.74927 -0.877442 0
M  V30 117 C 9.9976 -0.481501 -3.54142 0
M  V30 118 C 9.6636 -1.87202 -4.10203 0
M  V30 119 C 8.3256 -2.25248 -4.25226 0
M  V30 120 C 10.6776 -2.78237 -4.40719 0
M  V30 121 C 8.0056 -3.53723 -4.68078 0
M  V30 122 C 10.3576 -4.06144 -4.85005 0
M  V30 123 C 9.0216 -4.44207 -4.98234 0
M  V30 124 H 8.2916 -0.134217 -0.728743 0
M  V30 125 H 10.9386 -1.01094 -1.62641 0
M  V30 126 H 9.2436 0.246146 -3.91026 0
M  V30 127 H 10.9406 -0.132844 -4.0078 0
M  V30 128 H 7.5306 -1.56639 -3.98951 0
M  V30 129 H 11.7146 -2.50097 -4.28679 0
M  V30 130 H 6.9706 -3.8308 -4.76508 0
M  V30 131 H 11.1446 -4.76796 -5.07581 0
M  V30 132 H 8.7716 -5.43814 -5.31197 0
M  V30 133 N 10.3467 1.47872 -0.545128 0
M  V30 134 C 11.5957 2.01695 -0.0145033 0
M  V30 135 C 11.9087 1.42609 1.33873 0
M  V30 136 O 13.1147 1.88021 1.95858 0
M  V30 137 C 11.5707 3.59892 0.0245068 0
M  V30 138 C 11.1787 4.27966 -1.32475 0
M  V30 139 C 12.9227 4.21507 0.50316 0
M  V30 140 C 10.8297 5.78136 -1.2455 0
M  V30 141 H 9.7597 0.753998 -0.00165172 0
M  V30 142 H 12.4107 1.69985 -0.691175 0
M  V30 143 H 10.7927 3.88509 0.766575 0
M  V30 144 H 11.9667 4.11003 -2.08357 0
M  V30 145 H 10.2817 3.78286 -1.74036 0
M  V30 146 H 12.8787 5.31538 0.580656 0
M  V30 147 H 13.2217 3.87855 1.51243 0
M  V30 148 H 13.7547 3.97376 -0.183681 0
M  V30 149 H 10.4937 6.16388 -2.23039 0
M  V30 150 H 10.0137 5.97469 -0.528282 0
M  V30 151 H 11.6927 6.40099 -0.942488 0
M  V30 152 N 11.8248 0.280983 1.55075 0
M  V30 153 C 12.7878 -0.590896 2.21452 0
M  V30 154 C 13.7878 -1.07682 1.19421 0
M  V30 155 O 14.9778 -0.97605 1.44288 0
M  V30 156 C 12.1098 -1.81587 2.88511 0
M  V30 157 H 13.3028 -0.0112554 2.99898 0
M  V30 158 H 10.8558 0.0316438 1.56268 0
M  V30 159 H 11.5908 -2.43587 2.14093 0
M  V30 160 H 11.3758 -1.4753 3.63287 0
M  V30 161 H 12.8658 -2.43575 3.39206 0
M  V30 162 N 13.3029 -1.57598 0.00835791 0
M  V30 163 C 14.2329 -2.1198 -0.979113 0
M  V30 164 C 15.2139 -1.03091 -1.35301 0
M  V30 165 O 16.3989 -1.30818 -1.43528 0
M  V30 166 C 13.5289 -2.62995 -2.26828 0
M  V30 167 C 12.4829 -3.76485 -2.03576 0
M  V30 168 C 11.8089 -4.13846 -3.38579 0
M  V30 169 C 13.1089 -5.0342 -1.39161 0
M  V30 170 H 14.8029 -2.94738 -0.526281 0
M  V30 171 H 12.3489 -1.41783 -0.251704 0
M  V30 172 H 14.3019 -2.99669 -2.96271 0
M  V30 173 H 13.0259 -1.7737 -2.7424 0
M  V30 174 H 11.6849 -3.40217 -1.36557 0
M  V30 175 H 11.3329 -3.25232 -3.83709 0
M  V30 176 H 11.0329 -4.90312 -3.23834 0
M  V30 177 H 12.5569 -4.53086 -4.09323 0
M  V30 178 H 13.9709 -5.37812 -1.98573 0
M  V30 179 H 12.3679 -5.84746 -1.34878 0
M  V30 180 H 13.4379 -4.83548 -0.361868 0
M  V30 181 N 14.781 0.264519 -1.55364 0
M  V30 182 C 15.744 1.31046 -1.88042 0
M  V30 183 C 16.744 1.41943 -0.755569 0
M  V30 184 O 17.934 1.40947 -1.02369 0
M  V30 185 C 15.066 2.69067 -2.09323 0
M  V30 186 H 16.259 1.03297 -2.81549 0
M  V30 187 H 13.812 0.502989 -1.47986 0
M  V30 188 H 14.547 3.01982 -1.18226 0
M  V30 189 H 14.332 2.62542 -2.91229 0
M  V30 190 H 15.822 3.44623 -2.35848 0
M  V30 191 N 16.2591 1.48442 0.529413 0
M  V30 192 C 17.5081 1.55742 1.28169 0
M  V30 193 C 17.8211 0.236511 1.94165 0
M  V30 194 O 19.0271 0.187761 2.7085 0
M  V30 195 C 17.4831 2.74667 2.32564 0
M  V30 196 C 17.0911 4.13402 1.72636 0
M  V30 197 C 18.8351 2.9128 3.08798 0
M  V30 198 C 16.7421 5.23587 2.74975 0
M  V30 199 H 15.6721 0.579796 0.48203 0
M  V30 200 H 18.3231 1.74776 0.559056 0
M  V30 201 H 16.7051 2.49067 3.07866 0
M  V30 202 H 17.8791 4.49022 1.03519 0
M  V30 203 H 16.1941 4.0191 1.08892 0
M  V30 204 H 18.7911 3.70767 3.85274 0
M  V30 205 H 19.1341 2.00757 3.64695 0
M  V30 206 H 19.6671 3.16782 2.40611 0
M  V30 207 H 16.4061 6.16076 2.23897 0
M  V30 208 H 15.9261 4.92454 3.42417 0
M  V30 209 H 17.6051 5.51724 3.37949 0
M  V30 210 N 17.7372 -0.778329 1.37039 0
M  V30 211 C 18.7002 -1.87301 1.32102 0
M  V30 212 C 19.7002 -1.59198 0.226405 0
M  V30 213 O 20.8902 -1.67403 0.481861 0
M  V30 214 C 18.0222 -3.24309 1.05055 0
M  V30 215 H 19.2152 -1.93093 2.29467 0
M  V30 216 H 16.7682 -0.977358 1.21973 0
M  V30 217 H 17.5032 -3.24196 0.0819373 0
M  V30 218 H 17.2882 -3.46098 1.84279 0
M  V30 219 H 18.7782 -4.04382 1.04234 0
M  V30 220 N 19.2153 -1.21501 -1.00376 0
M  V30 221 C 20.1453 -0.999478 -2.11028 0
M  V30 222 C 21.1263 0.0759671 -1.6993 0
M  V30 223 O 22.3113 -0.0841106 -1.94018 0
M  V30 224 C 19.4413 -0.564709 -3.42678 0
M  V30 225 C 18.3953 -1.58486 -3.97576 0
M  V30 226 C 17.7213 -1.00628 -5.25146 0
M  V30 227 C 19.0213 -2.97204 -4.29496 0
M  V30 228 H 20.7153 -1.92495 -2.29317 0
M  V30 229 H 18.2613 -0.92693 -1.102 0
M  V30 230 H 20.2143 -0.401091 -4.19487 0
M  V30 231 H 18.9383 0.396411 -3.24185 0
M  V30 232 H 17.5973 -1.73606 -3.22888 0
M  V30 233 H 17.2453 -0.0368439 -5.02987 0
M  V30 234 H 16.9453 -1.68771 -5.62841 0
M  V30 235 H 18.4693 -0.854015 -6.04598 0
M  V30 236 H 19.8833 -2.8552 -4.97143 0
M  V30 237 H 18.2803 -3.62372 -4.78338 0
M  V30 238 H 19.3503 -3.47956 -3.3772 0
M  V30 239 N 20.6934 1.19889 -1.02296 0
M  V30 240 C 21.6234 2.25141 -0.619174 0
M  V30 241 C 22.6044 1.66051 0.368915 0
M  V30 242 O 23.7894 1.92546 0.252941 0
M  V30 243 C 20.9194 3.4728 0.0368783 0
M  V30 244 C 19.8734 4.19005 -0.872865 0
M  V30 245 C 19.1994 5.34637 -0.0822402 0
M  V30 246 C 20.4994 4.74452 -2.18387 0
M  V30 247 H 22.1934 2.59171 -1.49903 0
M  V30 248 H 19.7394 1.24579 -0.722222 0
M  V30 249 H 21.6924 4.20098 0.330958 0
M  V30 250 H 20.4164 3.12433 0.95149 0
M  V30 251 H 19.0754 3.48061 -1.15105 0
M  V30 252 H 18.7234 4.96034 0.83422 0
M  V30 253 H 18.4234 5.83557 -0.688149 0
M  V30 254 H 19.9474 6.10255 0.205238 0
M  V30 255 H 21.3614 5.39055 -1.95172 0
M  V30 256 H 19.7584 5.33834 -2.74119 0
M  V30 257 H 20.8284 3.92844 -2.84257 0
M  V30 258 N 22.1715 0.800033 1.35784 0
M  V30 259 C 23.4175 0.377901 1.99248 0
M  V30 260 C 23.7505 -1.05052 1.63333 0
M  V30 261 O 23.0255 -1.72768 0.893385 0
M  V30 262 C 23.3085 0.553922 3.55814 0
M  V30 263 C 23.1615 2.0268 4.01548 0
M  V30 264 C 24.4805 -0.0244802 4.40093 0
M  V30 265 H 21.5995 0.138782 0.723815 0
M  V30 266 H 24.2415 1.00835 1.61035 0
M  V30 267 H 22.3915 0.0172398 3.88496 0
M  V30 268 H 24.0635 2.62536 3.79305 0
M  V30 269 H 22.3065 2.5256 3.52698 0
M  V30 270 H 22.9775 2.10087 5.10458 0
M  V30 271 H 25.4535 0.433775 4.13833 0
M  V30 272 H 24.3295 0.128637 5.48749 0
M  V30 273 H 24.5905 -1.11758 4.27741 0
M  V30 274 N 23.6496 -1.47581 0.552962 0
M  V30 275 C 24.9266 -1.95563 -0.0381515 0
M  V30 276 C 25.3066 -1.49552 -1.48988 0
M  V30 277 O 24.6546 -0.732414 -2.16444 0
M  V30 278 C 24.8646 -3.48848 0.102919 0
M  V30 279 C 26.2126 -4.24577 -0.0446082 0
M  V30 280 O 27.2366 -3.56187 0.0302548 0
M  V30 281 O 26.0956 -5.46116 -0.204923 0
M  V30 282 H 23.1896 -0.824321 -0.0665067 0
M  V30 283 H 25.7356 -1.58001 0.619186 0
M  V30 284 H 24.5076 -3.75129 1.11328 0
M  V30 285 H 24.1306 -3.93165 -0.592224 0
M  V30 286 N 25.1277 -0.289203 -1.54924 0
M  V30 287 C 26.0907 0.579144 -2.21762 0
M  V30 288 C 27.0907 1.07047 -1.1999 0
M  V30 289 O 28.2807 0.968384 -1.44803 0
M  V30 290 C 25.4127 1.80055 -2.8947 0
M  V30 291 H 26.6057 -0.00464908 -2.999 0
M  V30 292 H 24.1587 -0.0399306 -1.56249 0
M  V30 293 H 24.8937 2.42449 -2.15381 0
M  V30 294 H 24.6787 1.45602 -3.64064 0
M  V30 295 H 26.1687 2.41773 -3.40493 0
M  V30 296 N 26.6058 1.57591 -0.0167156 0
M  V30 297 C 27.8338 1.95575 0.675128 0
M  V30 298 C 28.2488 0.892542 1.6637 0
M  V30 299 O 27.6058 -0.126912 1.82058 0
M  V30 300 C 27.6568 3.33608 1.39239 0
M  V30 301 O 27.3778 4.3585 0.443444 0
M  V30 302 C 28.8788 3.86151 2.17721 0
M  V30 303 H 26.0988 0.644423 0.186978 0
M  V30 304 H 28.6428 2.0437 -0.0728 0
M  V30 305 H 26.7978 3.2607 2.09182 0
M  V30 306 H 27.2118 5.158 0.951358 0
M  V30 307 H 28.6858 4.85114 2.63379 0
M  V30 308 H 29.1628 3.19738 3.01105 0
M  V30 309 H 29.7688 3.96918 1.52761 0
M  V30 310 N 28.0839 -0.256276 1.55502 0
M  V30 311 C 29.4949 -0.826068 1.67431 0
M  V30 312 C 29.8459 -1.86396 0.612446 0
M  V30 313 O 28.9709 -2.15031 -0.243025 0
M  V30 314 C 29.5659 -1.50512 3.03532 0
M  V30 315 C 28.1249 -2.02273 3.17431 0
M  V30 316 C 27.2719 -0.870548 2.63281 0
M  V30 317 H 30.2229 -0.0322728 1.58667 0
M  V30 318 H 30.2439 -2.37279 2.97454 0
M  V30 319 H 29.7559 -0.749484 3.80794 0
M  V30 320 H 27.8569 -2.80746 2.44974 0
M  V30 321 H 27.9699 -2.22655 4.24219 0
M  V30 322 H 26.3339 -1.26851 2.20864 0
M  V30 323 H 27.1169 -0.128149 3.43061 0
M  V30 324 N 29.562 -1.4872 -0.521534 0
M  V30 325 C 30.79 -1.60843 -1.30142 0
M  V30 326 C 31.205 -0.271897 -1.86832 0
M  V30 327 O 30.562 0.739969 -1.66825 0
M  V30 328 C 30.613 -2.66155 -2.4463 0
M  V30 329 O 30.334 -3.94623 -1.90275 0
M  V30 330 C 31.835 -2.88795 -3.36322 0
M  V30 331 H 29.055 -0.542075 -0.395468 0
M  V30 332 H 31.599 -1.94609 -0.628285 0
M  V30 333 H 29.754 -2.35224 -3.07812 0
M  V30 334 H 30.168 -4.52468 -2.65279 0
M  V30 335 H 31.642 -3.66264 -4.12983 0
M  V30 336 H 32.119 -1.97934 -3.9207 0
M  V30 337 H 32.725 -3.21063 -2.78924 0
M  V30 338 N 31.0401 0.771051 -1.3745 0
M  V30 339 C 32.2681 1.56015 -1.35893 0
M  V30 340 C 32.6831 1.88718 0.0555523 0
M  V30 341 O 32.0401 1.51502 1.01752 0
M  V30 342 C 32.0911 2.87001 -2.19801 0
M  V30 343 O 31.8121 2.557 -3.55738 0
M  V30 344 C 33.3131 3.81228 -2.26231 0
M  V30 345 H 30.5331 0.483317 -0.465453 0
M  V30 346 H 33.0771 0.955611 -1.80799 0
M  V30 347 H 31.2321 3.43877 -1.78402 0
M  V30 348 H 31.6461 3.39584 -3.99729 0
M  V30 349 H 33.1201 4.70139 -2.89263 0
M  V30 350 H 33.5971 4.20409 -1.27093 0
M  V30 351 H 34.2031 3.30281 -2.67945 0
M  V30 352 N 32.5182 1.22032 0.997298 0
M  V30 353 C 33.7462 1.06841 1.7718 0
M  V30 354 C 34.1612 -0.381325 1.84909 0
M  V30 355 O 33.5182 -1.26437 1.31605 0
M  V30 356 C 33.5692 1.66814 3.20711 0
M  V30 357 O 33.2902 3.06116 3.13408 0
M  V30 358 C 34.7912 1.56838 4.14628 0
M  V30 359 H 32.0112 0.374782 0.556578 0
M  V30 360 H 34.5552 1.61532 1.2541 0
M  V30 361 H 32.7102 1.16196 3.69564 0
M  V30 362 H 33.1242 3.34926 4.0364 0
M  V30 363 H 34.5982 2.03532 5.13107 0
M  V30 364 H 35.0752 0.524155 4.36061 0
M  V30 365 H 35.6812 2.06741 3.7167 0
M  V30 366 N 33.9963 -1.19345 1.0293 0
M  V30 367 C 34.9433 -2.2258 0.610464 0
M  V30 368 C 35.9133 -1.6179 -0.375946 0
M  V30 369 O 37.0983 -1.88844 -0.272511 0
M  V30 370 C 34.2383 -3.45085 -0.0321473 0
M  V30 371 C 33.3513 -4.20258 1.00035 0
M  V30 372 C 32.4863 -5.3019 0.32746 0
M  V30 373 C 31.5253 -5.97121 1.34584 0
M  V30 374 N 30.6623 -6.98615 0.698726 0
M  V30 375 H 35.5023 -2.57764 1.49538 0
M  V30 376 H 33.0393 -1.26644 0.748311 0
M  V30 377 H 34.9973 -4.15061 -0.421966 0
M  V30 378 H 33.6273 -3.10555 -0.88064 0
M  V30 379 H 32.6793 -3.49223 1.50823 0
M  V30 380 H 33.9913 -4.66175 1.77433 0
M  V30 381 H 33.1453 -6.06587 -0.11718 0
M  V30 382 H 31.8843 -4.85345 -0.478713 0
M  V30 383 H 30.8893 -5.19474 1.80074 0
M  V30 384 H 32.1143 -6.4405 2.15352 0
M  V30 385 H 30.0603 -6.55942 -0.0873471 0
M  V30 386 H 29.9773 -7.42724 1.41058 0
M  V30 387 H 31.2453 -7.79004 0.278102 0
M  V30 388 N 35.4744 -0.807222 -1.35358 0
M  V30 389 C 36.8904 -0.491038 -1.51858 0
M  V30 390 C 37.0904 0.987648 -1.75635 0
M  V30 391 O 36.1464 1.77265 -1.79815 0
M  V30 392 C 37.4594 -1.33695 -2.69344 0
M  V30 393 C 39.0074 -1.33246 -2.83222 0
M  V30 394 C 39.4824 -2.1625 -4.03733 0
M  V30 395 N 40.9734 -2.1379 -4.10911 0
M  V30 396 C 41.7084 -2.74772 -5.03277 0
M  V30 397 N 41.2044 -3.44684 -6.0097 0
M  V30 398 N 42.9974 -2.6441 -4.96028 0
M  V30 399 H 35.1484 -1.76485 -1.18181 0
M  V30 400 H 37.4114 -0.751199 -0.578276 0
M  V30 401 H 37.1174 -2.38634 -2.58354 0
M  V30 402 H 36.9914 -0.990618 -3.6396 0
M  V30 403 H 39.3784 -0.290911 -2.93663 0
M  V30 404 H 39.4594 -1.71866 -1.89461 0
M  V30 405 H 39.1034 -3.20445 -3.94052 0
M  V30 406 H 39.0334 -1.74989 -4.96675 0
M  V30 407 H 41.5244 -1.62923 -3.40976 0
M  V30 408 H 41.8374 -3.88501 -6.68047 0
M  V30 409 H 40.1824 -3.48788 -6.01142 0
M  V30 410 H 43.3734 -2.0938 -4.18662 0
M  V30 411 H 43.5464 -3.12225 -5.6782 0
M  V30 412 N 36.9525 1.47285 -0.560781 0
M  V30 413 C 38.1775 2.07359 -0.0410566 0
M  V30 414 C 38.6025 1.41017 1.24483 0
M  V30 415 O 37.9605 0.486368 1.74654 0
M  V30 416 C 38.0085 3.6035 0.134123 0
M  V30 417 O 37.1125 3.94681 1.19587 0
M  V30 418 H 36.4535 0.661887 -0.0529291 0
M  V30 419 H 38.9835 1.89252 -0.777482 0
M  V30 420 H 38.9935 4.0652 0.347207 0
M  V30 421 H 37.6685 4.08034 -0.805047 0
M  V30 422 H 36.2455 3.60251 0.962987 0
M  V30 423 N 38.4306 0.297415 1.54768 0
M  V30 424 C 39.3936 -0.567375 2.22066 0
M  V30 425 C 40.3936 -1.06409 1.20556 0
M  V30 426 O 41.5836 -0.960691 1.45315 0
M  V30 427 C 38.7156 -1.78517 2.90421 0
M  V30 428 H 39.9086 0.0205534 2.99893 0
M  V30 429 H 37.4616 0.0482163 1.56226 0
M  V30 430 H 38.1966 -2.41303 2.16664 0
M  V30 431 H 37.9816 -1.43669 3.64831 0
M  V30 432 H 39.4716 -2.39964 3.41771 0
M  V30 433 N 39.9087 -1.5758 0.0250728 0
M  V30 434 C 41.1567 -1.91255 -0.653151 0
M  V30 435 C 41.4777 -0.901691 -1.729 0
M  V30 436 O 40.7477 0.0573785 -1.95816 0
M  V30 437 H 39.3277 -0.705942 -0.244243 0
M  V30 438 H 41.9897 -1.94767 0.0719209 0
M  V30 439 H 41.0857 -2.91752 -1.10847 0
M  V30 440 N 41.3868 0.248026 -1.55636 0
M  V30 441 C 42.6338 0.976224 -1.77415 0
M  V30 442 C 42.9618 1.85361 -0.589193 0
M  V30 443 O 42.2168 1.90973 0.427529 0
M  V30 444 C 42.5158 1.86819 -3.04686 0
M  V30 445 C 42.1818 1.14625 -4.36087 0
M  V30 446 C 40.8438 0.946723 -4.71795 0
M  V30 447 C 43.1958 0.634463 -5.17324 0
M  V30 448 C 40.5238 0.223091 -5.86276 0
M  V30 449 C 42.8758 -0.0756959 -6.32555 0
M  V30 450 C 41.5398 -0.286711 -6.66884 0
M  V30 451 H 40.8098 0.357226 -0.649208 0
M  V30 452 H 43.4568 0.246415 -1.89908 0
M  V30 453 H 41.7618 2.66502 -2.872 0
M  V30 454 H 43.4588 2.43329 -3.18735 0
M  V30 455 H 40.0488 1.3117 -4.08035 0
M  V30 456 H 44.2328 0.77616 -4.90193 0
M  V30 457 H 39.4888 0.0491185 -6.1138 0
M  V30 458 H 43.6628 -0.479899 -6.94745 0
M  V30 459 H 41.2898 -0.849389 -7.5544 0
M  V30 460 N 42.8649 1.48995 0.513639 0
M  V30 461 C 44.1109 1.58076 1.27042 0
M  V30 462 C 44.4439 0.261026 1.92438 0
M  V30 463 O 43.7189 -0.734393 1.80103 0
M  V30 464 C 44.0019 2.73091 2.34719 0
M  V30 465 C 43.8549 4.14821 1.73907 0
M  V30 466 C 45.1739 2.83796 3.36375 0
M  V30 467 H 42.2929 0.575391 0.460536 0
M  V30 468 H 44.9349 1.81232 0.570516 0
M  V30 469 H 43.0849 2.53479 2.94416 0
M  V30 470 H 44.7569 4.45917 1.18135 0
M  V30 471 H 42.9999 4.21058 1.0437 0
M  V30 472 H 43.6709 4.91147 2.51949 0
M  V30 473 H 46.1469 3.01611 2.86653 0
M  V30 474 H 45.0229 3.65971 4.09093 0
M  V30 475 H 45.2839 1.92624 3.9793 0
M  V30 476 N 44.343 -0.763751 1.37857 0
M  V30 477 C 45.306 -1.85889 1.34081 0
M  V30 478 C 46.306 -1.58949 0.243277 0
M  V30 479 O 47.496 -1.66882 0.499589 0
M  V30 480 C 44.628 -3.23176 1.08489 0
M  V30 481 H 45.821 -1.90648 2.31502 0
M  V30 482 H 43.374 -0.964367 1.23003 0
M  V30 483 H 44.109 -3.24091 0.116318 0
M  V30 484 H 43.894 -3.44124 1.8794 0
M  V30 485 H 45.384 -4.03254 1.08517 0
M  V30 486 N 45.8211 -1.22559 -0.990812 0
M  V30 487 C 46.7511 -1.0218 -2.09956 0
M  V30 488 C 47.7321 0.0579394 -1.70001 0
M  V30 489 O 48.9171 -0.104684 -1.93918 0
M  V30 490 C 46.0471 -0.601023 -3.4206 0
M  V30 491 C 45.0011 -1.62694 -3.95872 0
M  V30 492 C 44.3271 -1.06193 -5.24049 0
M  V30 493 C 45.6271 -3.01743 -4.2632 0
M  V30 494 H 47.3211 -1.94916 -2.27262 0
M  V30 495 H 44.8671 -0.938566 -1.09211 0
M  V30 496 H 46.8201 -0.445561 -4.19038 0
M  V30 497 H 45.5441 0.362005 -3.24588 0
M  V30 498 H 44.2031 -1.77021 -3.21028 0
M  V30 499 H 43.8511 -0.0901903 -5.02919 0
M  V30 500 H 43.5511 -1.74732 -5.61019 0
M  V30 501 H 45.0751 -0.918092 -6.03658 0
M  V30 502 H 46.4891 -2.90777 -4.94087 0
M  V30 503 H 44.8861 -3.67425 -4.74467 0
M  V30 504 H 45.9561 -3.51518 -3.34011 0
M  V30 505 N 47.2992 1.18797 -1.03562 0
M  V30 506 C 48.5762 1.84469 -0.650434 0
M  V30 507 C 48.9562 1.92319 0.870433 0
M  V30 508 O 48.3042 1.44528 1.76986 0
M  V30 509 C 48.5142 3.2306 -1.32036 0
M  V30 510 C 49.8622 3.9915 -1.44792 0
M  V30 511 O 50.8862 3.32481 -1.27806 0
M  V30 512 O 49.7452 5.18587 -1.72423 0
M  V30 513 H 46.8392 0.795251 -0.226946 0
M  V30 514 H 49.3852 1.26231 -1.13419 0
M  V30 515 H 48.1572 3.1222 -2.3587 0
M  V30 516 H 47.7802 3.88949 -0.8249 0
M  V30 517 N 48.7773 0.814389 1.34928 0
M  V30 518 C 50.0243 0.398423 1.98542 0
M  V30 519 C 50.3523 -1.03638 1.64589 0
M  V30 520 O 49.6073 -1.73509 0.90516 0
M  V30 521 C 49.9063 0.537781 3.53331 0
M  V30 522 C 49.5723 1.93704 4.07172 0
M  V30 523 C 48.2343 2.31984 4.21589 0
M  V30 524 C 50.5863 2.85213 4.36237 0
M  V30 525 C 47.9143 3.61125 4.62391 0
M  V30 526 C 50.2663 4.13809 4.78482 0
M  V30 527 C 48.9303 4.52077 4.91104 0
M  V30 528 H 48.2003 0.145793 0.726516 0
M  V30 529 H 50.8473 1.03669 1.61012 0
M  V30 530 H 49.1523 -0.183906 3.91368 0
M  V30 531 H 50.8493 0.196588 4.00518 0
M  V30 532 H 47.4393 1.62966 3.96409 0
M  V30 533 H 51.6233 2.56885 4.24645 0
M  V30 534 H 46.8793 3.90612 4.70353 0
M  V30 535 H 51.0533 4.84811 4.99932 0
M  V30 536 H 48.6803 5.52196 5.22478 0
M  V30 537 N 50.2554 -1.46986 0.568584 0
M  V30 538 C 51.4804 -2.07335 0.0520528 0
M  V30 539 C 51.9054 -1.41675 -1.23733 0
M  V30 540 O 51.2634 -0.495623 -1.74394 0
M  V30 541 C 51.3114 -3.60417 -0.11501 0
M  V30 542 O 50.4154 -3.95309 -1.17492 0
M  V30 543 H 49.7564 -0.661597 0.0564385 0
M  V30 544 H 52.2864 -1.88837 0.787507 0
M  V30 545 H 52.2964 -4.06698 -0.325644 0
M  V30 546 H 50.9714 -4.07601 0.826675 0
M  V30 547 H 49.5484 -3.60757 -0.943869 0
M  V30 548 N 51.7335 -0.305618 -1.54608 0
M  V30 549 C 52.9795 0.302746 -2.00528 0
M  V30 550 C 53.3125 1.53184 -1.19367 0
M  V30 551 O 52.5875 1.92598 -0.271321 0
M  V30 552 C 52.8705 0.654756 -3.54097 0
M  V30 553 C 52.7235 -0.583793 -4.45995 0
M  V30 554 C 54.0425 1.47947 -4.14487 0
M  V30 555 H 51.1615 0.108564 -0.72896 0
M  V30 556 H 53.8035 -0.418634 -1.85331 0
M  V30 557 H 51.9535 1.26935 -3.67178 0
M  V30 558 H 53.6255 -1.22224 -4.44814 0
M  V30 559 H 51.8685 -1.21615 -4.16404 0
M  V30 560 H 52.5395 -0.293287 -5.5122 0
M  V30 561 H 55.0155 0.96013 -4.04871 0
M  V30 562 H 53.8915 1.69454 -5.22088 0
M  V30 563 H 54.1525 2.47011 -3.66658 0
M  V30 564 N 53.2116 1.57565 -0.0334293 0
M  V30 565 C 54.4576 1.92262 0.645226 0
M  V30 566 C 54.7906 0.910543 1.71531 0
M  V30 567 O 54.0656 -0.066099 1.94388 0
M  V30 568 C 54.3486 3.37422 1.2577 0
M  V30 569 C 54.2016 4.49369 0.196891 0
M  V30 570 C 55.5206 3.82628 2.17449 0
M  V30 571 H 52.6396 0.699171 0.233085 0
M  V30 572 H 55.2816 1.89779 -0.0915694 0
M  V30 573 H 53.4316 3.39669 1.88566 0
M  V30 574 H 55.1036 4.59254 -0.433962 0
M  V30 575 H 53.3466 4.31168 -0.477137 0
M  V30 576 H 54.0176 5.47978 0.665124 0
M  V30 577 H 56.4936 3.82145 1.64634 0
M  V30 578 H 55.3696 4.84883 2.57254 0
M  V30 579 H 55.6306 3.18376 3.0674 0
M  V30 580 N 54.6897 -0.239769 1.55765 0
M  V30 581 C 55.6367 -1.29696 1.90913 0
M  V30 582 C 56.6067 -1.47478 0.764164 0
M  V30 583 O 57.7917 -1.61345 1.01845 0
M  V30 584 C 54.9317 -2.64598 2.21544 0
M  V30 585 C 54.0447 -2.54765 3.48882 0
M  V30 586 C 53.1797 -3.82069 3.69049 0
M  V30 587 C 52.2187 -3.66883 4.89963 0
M  V30 588 N 51.3557 -4.86094 5.06614 0
M  V30 589 H 56.1957 -0.990224 2.81067 0
M  V30 590 H 53.7327 -0.477684 1.39128 0
M  V30 591 H 55.6907 -3.43132 2.3731 0
M  V30 592 H 54.3207 -2.93405 1.34585 0
M  V30 593 H 53.3727 -1.67763 3.41409 0
M  V30 594 H 54.6847 -2.39457 4.37563 0
M  V30 595 H 53.8387 -4.69046 3.84812 0
M  V30 596 H 52.5777 -4.00282 2.78614 0
M  V30 597 H 51.5827 -2.78289 4.74168 0
M  V30 598 H 52.8077 -3.50157 5.81865 0
M  V30 599 H 50.7537 -5.04655 4.19117 0
M  V30 600 H 50.6707 -4.73443 5.89396 0
M  V30 601 H 51.9387 -5.74549 5.26795 0
M  V30 602 N 56.1678 -1.49265 -0.50573 0
M  V30 603 C 57.3958 -1.62215 -1.28429 0
M  V30 604 C 57.8108 -0.291697 -1.86533 0
M  V30 605 O 57.1678 0.722233 -1.67601 0
M  V30 606 C 57.2188 -2.68735 -2.41793 0
M  V30 607 O 56.9398 -3.96619 -1.86078 0
M  V30 608 C 58.4408 -2.92346 -3.3324 0
M  V30 609 H 55.6608 -0.546239 -0.389697 0
M  V30 610 H 58.2048 -1.95265 -0.607609 0
M  V30 611 H 56.3598 -2.38476 -3.053 0
M  V30 612 H 56.7738 -4.55256 -2.60465 0
M  V30 613 H 58.2478 -3.70623 -4.09075 0
M  V30 614 H 58.7248 -2.02081 -3.89948 0
M  V30 615 H 59.3308 -3.24003 -2.75503 0
M  V30 616 N 57.6459 0.756429 -1.3826 0
M  V30 617 C 59.0569 1.33359 -1.30661 0
M  V30 618 C 59.4079 1.96161 0.0388875 0
M  V30 619 O 58.5329 1.94874 0.940918 0
M  V30 620 C 59.1279 2.42477 -2.36622 0
M  V30 621 C 57.6869 2.95922 -2.3261 0
M  V30 622 C 56.8339 1.69275 -2.19639 0
M  V30 623 H 59.7849 0.55552 -1.4866 0
M  V30 624 H 59.8059 3.22345 -2.02174 0
M  V30 625 H 59.3179 1.96739 -3.34538 0
M  V30 626 H 57.4189 3.45996 -1.38267 0
M  V30 627 H 57.5319 3.50494 -3.26636 0
M  V30 628 H 55.8959 1.92793 -1.66442 0
M  V30 629 H 56.6789 1.25619 -3.19491 0
M  V30 630 N 59.124 1.23083 0.984299 0
M  V30 631 C 60.071 1.00854 2.07598 0
M  V30 632 C 61.041 -0.0726709 1.65941 0
M  V30 633 O 62.226 0.0786535 1.90638 0
M  V30 634 C 59.366 0.601645 3.39815 0
M  V30 635 C 58.479 1.75456 3.94765 0
M  V30 636 C 57.614 1.29482 5.15177 0
M  V30 637 C 56.653 2.41873 5.62284 0
M  V30 638 N 55.79 1.96885 6.73929 0
M  V30 639 H 60.63 1.943 2.25946 0
M  V30 640 H 58.167 0.968001 1.10762 0
M  V30 641 H 60.125 0.346854 4.15756 0
M  V30 642 H 58.755 -0.295803 3.21442 0
M  V30 643 H 57.807 2.12346 3.15616 0
M  V30 644 H 59.119 2.59965 4.25699 0
M  V30 645 H 58.273 0.997923 5.98437 0
M  V30 646 H 57.012 0.420046 4.85888 0
M  V30 647 H 56.017 2.72342 4.77608 0
M  V30 648 H 57.242 3.29881 5.93595 0
M  V30 649 H 55.188 1.11782 6.46406 0
M  V30 650 H 55.105 2.74956 7.04227 0
M  V30 651 H 56.373 1.70289 7.60672 0
M  V30 652 N 60.6021 -1.18246 1.0419 0
M  V30 653 C 61.5651 -2.20128 0.638452 0
M  V30 654 C 62.5651 -1.57885 -0.304805 0
M  V30 655 O 63.7551 -1.73967 -0.0900369 0
M  V30 656 C 60.8871 -3.4084 -0.0637751 0
M  V30 657 H 62.0801 -2.57336 1.54007 0
M  V30 658 H 59.6331 -1.32152 0.834598 0
M  V30 659 H 60.3681 -3.09166 -0.979136 0
M  V30 660 H 60.1531 -3.8726 0.614198 0
M  V30 661 H 61.6431 -4.16274 -0.332512 0
M  V30 662 N 62.0802 -0.821533 -1.34494 0
M  V30 663 C 63.3272 -0.408946 -1.98328 0
M  V30 664 C 63.6552 1.02764 -1.65136 0
M  V30 665 O 62.9102 1.73026 -0.914349 0
M  V30 666 C 63.2092 -0.556512 -3.53041 0
M  V30 667 C 62.8752 -1.95861 -4.0614 0
M  V30 668 C 61.5372 -2.34217 -4.20352 0
M  V30 669 C 63.8892 -2.87523 -4.34718 0
M  V30 670 C 61.2172 -3.63572 -4.6047 0
M  V30 671 C 63.5692 -4.1634 -4.76281 0
M  V30 672 C 62.2332 -4.54675 -4.88699 0
M  V30 673 H 61.5032 -0.149644 -0.725732 0
M  V30 674 H 64.1502 -1.04521 -1.6046 0
M  V30 675 H 62.4552 0.163148 -3.9146 0
M  V30 676 H 64.1522 -0.217826 -4.00408 0
M  V30 677 H 60.7422 -1.65066 -3.95539 0
M  V30 678 H 64.9262 -2.59133 -4.23277 0
M  V30 679 H 60.1822 -3.93101 -4.68275 0
M  V30 680 H 64.3562 -4.87455 -4.97354 0
M  V30 681 H 61.9832 -5.54959 -5.19542 0
M  V30 682 N 63.5583 1.46682 -0.576371 0
M  V30 683 C 64.9693 1.86112 -0.148091 0
M  V30 684 C 65.3203 1.48073 1.2872 0
M  V30 685 O 64.4453 0.892656 1.97131 0
M  V30 686 C 65.0403 3.37786 -0.261982 0
M  V30 687 C 63.5993 3.76235 0.111384 0
M  V30 688 C 62.7463 2.70713 -0.60083 0
M  V30 689 H 65.6973 1.37927 -0.78497 0
M  V30 690 H 65.7183 3.77007 0.514364 0
M  V30 691 H 65.2303 3.6544 -1.30671 0
M  V30 692 H 63.3313 3.54198 1.15649 0
M  V30 693 H 63.4443 4.78391 -0.26052 0
M  V30 694 H 61.8083 2.54666 -0.0417783 0
M  V30 695 H 62.5913 3.01208 -1.64708 0
M  V30 696 N 65.0364 0.313813 1.54444 0
M  V30 697 C 66.2824 -0.292108 2.00685 0
M  V30 698 C 66.6154 -1.52548 1.20177 0
M  V30 699 O 65.8904 -1.92452 0.281531 0
M  V30 700 C 66.1734 -0.635968 3.5444 0
M  V30 701 C 66.0264 0.607437 4.4568 0
M  V30 702 C 67.3454 -1.45747 4.15266 0
M  V30 703 H 64.4644 -0.104697 0.729526 0
M  V30 704 H 67.1064 0.428457 1.85106 0
M  V30 705 H 65.2564 -1.24986 3.67846 0
M  V30 706 H 66.9284 1.24581 4.44159 0
M  V30 707 H 65.1714 1.23822 4.15753 0
M  V30 708 H 65.8424 0.322515 5.51057 0
M  V30 709 H 68.3184 -0.938645 4.05375 0
M  V30 710 H 67.1944 -1.66683 5.2298 0
M  V30 711 H 67.4554 -2.45063 3.67963 0
M  V30 712 N 66.5145 -1.57545 0.0417849 0
M  V30 713 C 67.7425 -1.96624 -0.643928 0
M  V30 714 C 68.1575 -0.918897 -1.64929 0
M  V30 715 O 67.5145 0.0979323 -1.82237 0
M  V30 716 C 67.5655 -3.35781 -1.33914 0
M  V30 717 O 67.2865 -4.365 -0.374048 0
M  V30 718 C 68.7875 -3.89566 -2.1155 0
M  V30 719 H 66.0075 -0.647316 -0.176702 0
M  V30 720 H 68.5515 -2.04229 0.105304 0
M  V30 721 H 66.7065 -3.29357 -2.03968 0
M  V30 722 H 67.1205 -5.17248 -0.869179 0
M  V30 723 H 68.5945 -4.89242 -2.55628 0
M  V30 724 H 69.0715 -3.24488 -2.9598 0
M  V30 725 H 69.6775 -3.99298 -1.46427 0
M  V30 726 N 67.9926 0.231505 -1.5589 0
M  V30 727 C 68.9406 1.30649 -1.92441 0
M  V30 728 C 69.9346 1.49037 -0.805254 0
M  V30 729 O 71.1406 1.50329 -0.990007 0
M  V30 730 H 67.5156 0.437812 -0.611412 0
M  V30 731 H 69.4866 0.970973 -2.82161 0
M  V30 732 C 68.2356 2.65179 -2.24889 0
M  V30 733 H 67.5586 2.51835 -3.10514 0
M  V30 734 H 68.9986 3.39234 -2.54355 0
M  V30 735 C 67.4576 3.19439 -1.07054 0
M  V30 736 O 67.9876 4.00371 -0.326499 0
M  V30 737 N 66.1936 2.77675 -0.85703 0
M  V30 738 H 65.7406 2.11969 -1.46379 0
M  V30 739 H 65.6986 3.14321 -0.0703223 0
M  V30 740 N 69.4707 1.49531 0.497807 0
M  V30 741 C 70.7187 1.58865 1.24926 0
M  V30 742 C 71.0397 0.278721 1.92998 0
M  V30 743 O 70.3097 -0.702144 1.82885 0
M  V30 744 H 68.8897 0.585343 0.464094 0
M  V30 745 H 71.5517 1.86174 0.57666 0
M  V30 746 H 70.6477 2.38633 2.01149 0
M  V30 747 N 70.9488 -0.749086 1.3866 0
M  V30 748 C 71.8808 -1.87273 1.32142 0
M  V30 749 C 72.8938 -1.61127 0.232787 0
M  V30 750 O 74.0828 -1.71623 0.49069 0
M  V30 751 C 71.1828 -3.23005 1.02571 0
M  V30 752 C 70.3558 -3.7662 2.22433 0
M  V30 753 C 69.4148 -4.90879 1.89537 0
M  V30 754 O 68.4408 -5.05276 2.62078 0
M  V30 755 N 69.6428 -5.74198 0.853031 0
M  V30 756 H 72.4078 -1.93373 2.28969 0
M  V30 757 H 69.9688 -0.929216 1.32579 0
M  V30 758 H 71.9608 -3.96992 0.786085 0
M  V30 759 H 70.5308 -3.12262 0.145249 0
M  V30 760 H 69.7508 -2.94147 2.62434 0
M  V30 761 H 71.0388 -4.09173 3.02415 0
M  V30 762 H 70.4368 -5.6514 0.25155 0
M  V30 763 H 68.9938 -6.48313 0.67329 0
M  V30 764 N 72.4269 -1.23603 -0.977757 0
M  V30 765 C 73.3369 -1.03632 -2.1047 0
M  V30 766 C 74.3529 0.0199435 -1.73989 0
M  V30 767 O 75.5289 -0.176076 -2.00629 0
M  V30 768 C 72.5939 -0.63276 -3.40877 0
M  V30 769 C 71.6549 -1.76437 -3.91367 0
M  V30 770 C 70.8879 -1.37997 -5.15551 0
M  V30 771 O 71.1109 -0.265357 -5.69782 0
M  V30 772 O 70.0449 -2.20201 -5.60174 0
M  V30 773 H 73.8709 -1.98086 -2.30208 0
M  V30 774 H 71.4559 -1.02332 -1.08851 0
M  V30 775 H 73.3379 -0.418761 -4.19314 0
M  V30 776 H 72.0129 0.282754 -3.22463 0
M  V30 777 H 70.9199 -2.03304 -3.14036 0
M  V30 778 H 72.2529 -2.6583 -4.14241 0
M  V30 779 N 73.905 1.17692 -1.04816 0
M  V30 780 C 75.153 1.87488 -0.754497 0
M  V30 781 C 75.474 1.81205 0.720407 0
M  V30 782 O 74.744 1.23544 1.52032 0
M  V30 783 H 73.324 0.694101 -0.276102 0
M  V30 784 H 75.986 1.42793 -1.32651 0
M  V30 785 H 75.082 2.93328 -1.06606 0
M  V30 786 N 75.3831 0.828654 1.34056 0
M  V30 787 C 76.3301 0.252567 2.29414 0
M  V30 788 C 77.3001 -0.62588 1.53857 0
M  V30 789 O 78.4851 -0.566312 1.82202 0
M  V30 790 C 75.6251 -0.574831 3.40279 0
M  V30 791 C 74.7381 0.326499 4.30764 0
M  V30 792 C 73.8731 -0.511016 5.28736 0
M  V30 793 C 72.9121 0.389342 6.1086 0
M  V30 794 N 72.0491 -0.409439 7.00905 0
M  V30 795 H 76.8891 1.07108 2.78086 0
M  V30 796 H 74.4261 0.539677 1.36843 0
M  V30 797 H 76.3841 -1.06992 4.03248 0
M  V30 798 H 75.0141 -1.35841 2.92826 0
M  V30 799 H 74.0661 0.939837 3.68607 0
M  V30 800 H 75.3781 1.01857 4.88289 0
M  V30 801 H 74.5321 -1.07035 5.97184 0
M  V30 802 H 73.2711 -1.23657 4.71763 0
M  V30 803 H 72.2761 0.960769 5.4134 0
M  V30 804 H 73.5011 1.1131 6.69916 0
M  V30 805 H 71.4471 -1.11856 6.46393 0
M  V30 806 H 71.3641 0.224126 7.55668 0
M  V30 807 H 72.6321 -0.951336 7.73673 0
M  V30 808 N 76.8612 -1.46375 0.584142 0
M  V30 809 C 78.0892 -2.06761 0.0759296 0
M  V30 810 C 78.5042 -1.43266 -1.22965 0
M  V30 811 O 77.8612 -0.538458 -1.74376 0
M  V30 812 C 77.9122 -3.61375 -0.0950384 0
M  V30 813 O 77.6332 -4.22495 1.15887 0
M  V30 814 C 79.1342 -4.38693 -0.637434 0
M  V30 815 H 76.3542 -0.668479 0.0581075 0
M  V30 816 H 78.8982 -1.8798 0.805218 0
M  V30 817 H 77.0532 -3.79578 -0.774554 0
M  V30 818 H 77.4672 -5.15385 0.973598 0
M  V30 819 H 78.9412 -5.47464 -0.706237 0
M  V30 820 H 79.4182 -4.06836 -1.65472 0
M  V30 821 H 80.0242 -4.25299 0.00725967 0
M  V30 822 N 78.3393 -0.321999 -1.54275 0
M  V30 823 C 79.5643 0.285791 -2.05422 0
M  V30 824 C 79.9893 1.45124 -1.19669 0
M  V30 825 O 79.3473 1.80132 -0.205441 0
M  V30 826 C 79.3953 0.69956 -3.53749 0
M  V30 827 O 78.4993 1.8021 -3.70942 0
M  V30 828 H 77.8403 0.0518962 -0.661969 0
M  V30 829 H 80.3703 -0.469954 -1.9913 0
M  V30 830 H 80.3803 0.982649 -3.9599 0
M  V30 831 H 79.0553 -0.152864 -4.15619 0
M  V30 832 H 77.6323 1.51794 -3.40607 0
M  V30 833 N 79.8174 1.5752 -0.0501392 0
M  V30 834 C 80.7644 2.1147 0.924603 0
M  V30 835 C 81.7344 1.02182 1.30951 0
M  V30 836 O 82.9194 1.29723 1.39916 0
M  V30 837 C 80.0594 2.66337 2.19451 0
M  V30 838 C 79.1724 3.89708 1.86418 0
M  V30 839 C 78.3074 4.32893 3.07859 0
M  V30 840 C 77.3464 5.48967 2.70742 0
M  V30 841 N 76.4834 5.87211 3.84874 0
M  V30 842 H 81.3234 2.94465 0.457639 0
M  V30 843 H 78.8604 1.45531 0.214266 0
M  V30 844 H 80.8184 2.96247 2.93758 0
M  V30 845 H 79.4484 1.86141 2.63726 0
M  V30 846 H 78.5004 3.66396 1.02264 0
M  V30 847 H 79.8124 4.74074 1.55096 0
M  V30 848 H 78.9664 4.6435 3.90466 0
M  V30 849 H 77.7054 3.47336 3.42358 0
M  V30 850 H 76.7104 5.17183 1.86551 0
M  V30 851 H 77.9354 6.3624 2.37436 0
M  V30 852 H 75.8814 5.04607 4.19175 0
M  V30 853 H 75.7984 6.66266 3.57247 0
M  V30 854 H 77.0664 6.23282 4.68123 0
M  V30 855 N 81.2955 -0.223234 1.56011 0
M  V30 856 C 82.7115 -0.572856 1.48965 0
M  V30 857 C 82.9115 -1.87225 0.74492 0
M  V30 858 O 81.9675 -2.50899 0.283896 0
M  V30 859 C 83.2805 -0.653646 2.9351 0
M  V30 860 C 84.8285 -0.744386 3.0402 0
M  V30 861 C 85.3035 -0.856535 4.49919 0
M  V30 862 N 86.7945 -0.9208 4.53955 0
M  V30 863 C 87.5295 -1.02726 5.64123 0
M  V30 864 N 87.0255 -1.09777 6.84047 0
M  V30 865 N 88.8185 -1.06226 5.51971 0
M  V30 866 H 80.9695 0.629462 2.02858 0
M  V30 867 H 83.2325 0.220621 0.921971 0
M  V30 868 H 82.9385 0.231518 3.50937 0
M  V30 869 H 82.8125 -1.51781 3.45315 0
M  V30 870 H 85.1995 -1.61999 2.46658 0
M  V30 871 H 85.2805 0.14541 2.55386 0
M  V30 872 H 84.9245 0.0146069 5.07898 0
M  V30 873 H 84.8545 -1.76172 4.96257 0
M  V30 874 H 87.3455 -0.876694 3.6759 0
M  V30 875 H 87.6585 -1.17872 7.63758 0
M  V30 876 H 86.0035 -1.06693 6.86762 0
M  V30 877 H 89.1945 -1.00382 4.5721 0
M  V30 878 H 89.3675 -1.14177 6.37862 0
M  V30 879 N 82.7736 -1.49793 -0.48987 0
M  V30 880 C 83.7056 -1.63413 -1.60713 0
M  V30 881 C 84.7186 -0.516329 -1.54395 0
M  V30 882 O 85.9076 -0.788812 -1.60125 0
M  V30 883 C 83.0076 -1.58516 -2.99543 0
M  V30 884 C 82.1806 -2.86016 -3.30928 0
M  V30 885 C 81.2396 -2.74018 -4.49222 0
M  V30 886 O 80.2656 -3.47964 -4.50455 0
M  V30 887 N 81.4676 -1.86309 -5.4979 0
M  V30 888 H 84.2326 -2.59777 -1.49452 0
M  V30 889 H 81.7936 -1.47022 -0.677955 0
M  V30 890 H 83.7856 -1.48128 -3.76617 0
M  V30 891 H 82.3556 -0.69965 -3.0467 0
M  V30 892 H 81.5756 -3.10672 -2.42645 0
M  V30 893 H 82.8636 -3.70521 -3.487 0
M  V30 894 H 82.2616 -1.2551 -5.51601 0
M  V30 895 H 80.8186 -1.81837 -6.25922 0
M  V30 896 N 84.2517 0.741722 -1.39055 0
M  V30 897 C 85.2147 1.83733 -1.37021 0
M  V30 898 C 86.2147 1.58542 -0.268534 0
M  V30 899 O 87.4047 1.66067 -0.526076 0
M  V30 900 C 84.5367 3.2141 -1.13617 0
M  V30 901 H 85.7297 1.86941 -2.34506 0
M  V30 902 H 83.2827 0.944676 -1.24521 0
M  V30 903 H 84.0177 3.23865 -0.167863 0
M  V30 904 H 83.8027 3.4109 -1.93391 0
M  V30 905 H 85.2927 4.01477 -1.14918 0
M  V30 906 N 85.7298 1.2412 0.971189 0
M  V30 907 C 86.9758 1.08041 1.71625 0
M  V30 908 C 87.3088 -0.380407 1.90438 0
M  V30 909 O 86.5838 -1.28127 1.46334 0
M  V30 910 C 86.8668 1.81682 3.10908 0
M  V30 911 C 86.7198 3.35493 2.99608 0
M  V30 912 C 88.0388 1.58671 4.10501 0
M  V30 913 H 85.1578 0.39388 0.622919 0
M  V30 914 H 87.7998 1.52743 1.13003 0
M  V30 915 H 85.9498 1.43684 3.60953 0
M  V30 916 H 87.6218 3.83068 2.57015 0
M  V30 917 H 85.8648 3.64052 2.35899 0
M  V30 918 H 86.5358 3.82217 3.98264 0
M  V30 919 H 89.0118 1.91719 3.69301 0
M  V30 920 H 87.8878 2.1266 5.06031 0
M  V30 921 H 88.1488 0.524161 4.38982 0
M  V30 922 N 87.2079 -1.17134 1.05439 0
M  V30 923 C 88.6189 -1.69084 0.791676 0
M  V30 924 C 88.9699 -1.83822 -0.685839 0
M  V30 925 O 88.0949 -1.52757 -1.53278 0
M  V30 926 C 88.6899 -3.07119 1.4305 0
M  V30 927 C 87.2489 -3.56225 1.21577 0
M  V30 928 C 86.3959 -2.32421 1.51247 0
M  V30 929 H 89.3469 -1.01617 1.219 0
M  V30 930 H 89.3679 -3.71087 0.84112 0
M  V30 931 H 88.8799 -2.9636 2.50584 0
M  V30 932 H 86.9809 -3.72257 0.159787 0
M  V30 933 H 87.0939 -4.38837 1.92246 0
M  V30 934 H 85.4579 -2.3701 0.932653 0
M  V30 935 H 86.2409 -2.24268 2.5992 0
M  V30 936 N 88.686 -0.835752 -1.33615 0
M  V30 937 C 89.932 -0.430596 -1.98176 0
M  V30 938 C 90.265 1.00684 -1.66061 0
M  V30 939 O 89.54 1.70339 -0.938877 0
M  V30 940 C 89.823 -0.648065 -3.5422 0
M  V30 941 C 89.676 -2.13255 -3.96033 0
M  V30 942 C 90.995 -0.0922113 -4.40003 0
M  V30 943 H 88.114 -0.157924 -0.719881 0
M  V30 944 H 90.756 -1.05069 -1.58305 0
M  V30 945 H 88.906 -0.120237 -3.88314 0
M  V30 946 H 90.578 -2.725 -3.72211 0
M  V30 947 H 88.821 -2.61823 -3.45878 0
M  V30 948 H 89.492 -2.23547 -5.04708 0
M  V30 949 H 91.968 -0.543343 -4.12537 0
M  V30 950 H 90.844 -0.274083 -5.48215 0
M  V30 951 H 91.105 1.00378 -4.30554 0
M  V30 952 N 90.1641 1.46063 -0.591896 0
M  V30 953 C 91.3921 2.06717 -0.0868936 0
M  V30 954 C 91.8071 1.43916 1.22203 0
M  V30 955 O 91.1641 0.547698 1.74088 0
M  V30 956 C 91.2151 3.6142 0.0758725 0
M  V30 957 O 90.9361 4.21874 -1.18126 0
M  V30 958 C 92.4371 4.39025 0.61416 0
M  V30 959 H 89.6571 0.668162 -0.0616518 0
M  V30 960 H 92.2011 1.8755 -0.815175 0
M  V30 961 H 90.3561 3.79983 0.754413 0
M  V30 962 H 90.7701 5.14861 -1.00092 0
M  V30 963 H 92.2441 5.4783 0.677193 0
M  V30 964 H 92.7211 4.07708 1.63312 0
M  V30 965 H 93.3271 4.2529 -0.0298142 0
M  V30 966 N 91.6422 0.330177 1.54103 0
M  V30 967 C 92.5722 -0.525353 2.27513 0
M  V30 968 C 93.5532 -1.11383 1.2856 0
M  V30 969 O 94.7382 -1.13773 1.57383 0
M  V30 970 C 91.8682 -1.6831 3.03791 0
M  V30 971 C 90.8222 -1.2236 4.10137 0
M  V30 972 C 90.1482 -2.46882 4.74293 0
M  V30 973 C 91.4482 -0.333697 5.21233 0
M  V30 974 H 93.1422 0.087013 2.99274 0
M  V30 975 H 90.6882 0.0432893 1.43935 0
M  V30 976 H 92.6412 -2.28795 3.5388 0
M  V30 977 H 91.3652 -2.32216 2.29659 0
M  V30 978 H 90.0242 -0.64165 3.60941 0
M  V30 979 H 89.6722 -3.09165 3.96769 0
M  V30 980 H 89.3722 -2.16825 5.46133 0
M  V30 981 H 90.8962 -3.08117 5.27159 0
M  V30 982 H 92.3102 -0.845013 5.67038 0
M  V30 983 H 90.7072 -0.125612 5.99969 0
M  V30 984 H 91.7772 0.633724 4.80741 0
M  V30 985 N 93.1203 -1.57491 0.0584922 0
M  V30 986 C 94.0703 -2.08474 -0.923188 0
M  V30 987 C 95.0543 -0.991479 -1.26722 0
M  V30 988 O 96.2463 -1.25473 -1.24842 0
M  V30 989 C 93.3753 -2.6392 -2.19548 0
M  V30 990 C 92.4613 -3.80227 -1.87852 0
M  V30 991 N 92.8523 -4.89714 -1.26546 0
M  V30 992 C 91.1503 -3.89271 -2.17679 0
M  V30 993 C 91.8513 -5.70689 -1.12644 0
M  V30 994 N 90.8273 -5.18531 -1.63176 0
M  V30 995 H 94.6293 -2.90517 -0.444653 0
M  V30 996 H 92.1433 -1.61745 -0.145764 0
M  V30 997 H 94.1403 -2.98752 -2.9078 0
M  V30 998 H 92.8003 -1.83318 -2.68001 0
M  V30 999 H 93.8113 -5.09358 -0.936757 0
M  V30 1000 H 90.4883 -3.19623 -2.68602 0
M  V30 1001 H 91.8783 -6.6875 -0.6499 0
M  V30 1002 N 94.5984 0.214957 -1.56127 0
M  V30 1003 C 95.5464 1.28601 -1.93816 0
M  V30 1004 C 96.5404 1.48175 -0.821016 0
M  V30 1005 O 97.7464 1.49271 -1.0059 0
M  V30 1006 H 94.1214 0.431302 -0.616022 0
M  V30 1007 H 96.0924 0.940991 -2.83175 0
M  V30 1008 C 94.8414 2.62779 -2.27689 0
M  V30 1009 H 94.1644 2.48527 -3.13168 0
M  V30 1010 H 95.6044 3.36517 -2.57939 0
M  V30 1011 C 94.0634 3.18285 -1.10436 0
M  V30 1012 O 94.5934 4.00002 -0.368945 0
M  V30 1013 N 92.7994 2.7675 -0.886433 0
M  V30 1014 H 92.3464 2.10404 -1.48619 0
M  V30 1015 H 92.3044 3.14229 -0.103656 0
M  V30 1016 N 96.0765 1.50051 0.48192 0
M  V30 1017 C 96.9865 1.7089 1.60728 0
M  V30 1018 C 98.0025 0.591788 1.63627 0
M  V30 1019 O 99.1785 0.868817 1.81696 0
M  V30 1020 C 96.2435 1.78855 2.97005 0
M  V30 1021 C 95.3045 3.02537 3.04581 0
M  V30 1022 C 94.5375 3.10112 4.34357 0
M  V30 1023 O 94.7605 2.24765 5.24249 0
M  V30 1024 O 93.6945 4.02747 4.47301 0
M  V30 1025 H 97.5205 2.66264 1.46072 0
M  V30 1026 H 95.1055 1.34018 0.660264 0
M  V30 1027 H 96.9875 1.86336 3.77964 0
M  V30 1028 H 95.6625 0.866628 3.11883 0
M  V30 1029 H 94.5695 3.00563 2.22739 0
M  V30 1030 H 95.9025 3.94272 2.94636 0
M  V30 1031 N 97.5546 -0.734337 1.39446 0
M  V30 1032 C 98.4866 -1.85861 1.34121 0
M  V30 1033 C 99.4996 -1.60871 0.249864 0
M  V30 1034 O 100.689 -1.71093 0.508865 0
M  V30 1035 C 97.7886 -3.21899 1.05991 0
M  V30 1036 C 96.9616 -3.74239 2.26415 0
M  V30 1037 C 96.0206 -4.88841 1.94733 0
M  V30 1038 O 95.0466 -5.02468 2.67422 0
M  V30 1039 N 96.2486 -5.73261 0.913884 0
M  V30 1040 H 99.0136 -1.90934 2.31007 0
M  V30 1041 H 96.5746 -0.915102 1.33557 0
M  V30 1042 H 98.5666 -3.96136 0.828147 0
M  V30 1043 H 97.1366 -3.12091 0.178361 0
M  V30 1044 H 96.3566 -2.91347 2.65539 0
M  V30 1045 H 97.6446 -4.05942 3.06738 0
M  V30 1046 H 97.0426 -5.64842 0.311476 0
M  V30 1047 H 95.5996 -6.47563 0.742015 0
M  V30 1048 N 99.0327 -1.24633 -0.964593 0
M  V30 1049 C 100.279 -1.08949 -1.71049 0
M  V30 1050 C 100.612 0.370302 -1.90637 0
M  V30 1051 O 99.8867 1.27349 -1.47011 0
M  V30 1052 C 100.17 -1.83329 -3.0994 0
M  V30 1053 C 100.023 -3.37077 -2.97824 0
M  V30 1054 C 101.342 -1.60846 -4.09654 0
M  V30 1055 H 98.4607 -0.397178 -0.620821 0
M  V30 1056 H 101.103 -1.5334 -1.12191 0
M  V30 1057 H 99.2527 -1.45597 -3.60186 0
M  V30 1058 H 100.925 -3.84425 -2.5498 0
M  V30 1059 H 99.1677 -3.65298 -2.33965 0
M  V30 1060 H 99.8387 -3.84324 -3.96231 0
M  V30 1061 H 102.315 -1.93674 -3.68279 0
M  V30 1062 H 101.191 -2.1534 -5.04896 0
M  V30 1063 H 101.452 -0.547434 -4.38698 0
M  V30 1064 N 100.511 1.16574 -1.06058 0
M  V30 1065 C 101.739 1.90952 -0.796552 0
M  V30 1066 C 102.154 1.77302 0.648808 0
M  V30 1067 O 101.511 1.11605 1.44397 0
M  V30 1068 C 101.562 3.41736 -1.17894 0
M  V30 1069 O 101.283 3.54975 -2.56758 0
M  V30 1070 C 102.784 4.33169 -0.942308 0
M  V30 1071 H 100.004 0.605594 -0.288959 0
M  V30 1072 H 102.548 1.47777 -1.41358 0
M  V30 1073 H 100.703 3.82623 -0.606491 0
M  V30 1074 H 101.117 4.4846 -2.72 0
M  V30 1075 H 102.591 5.37439 -1.25952 0
M  V30 1076 H 103.068 4.3903 0.122078 0
M  V30 1077 H 103.674 3.98007 -1.49902 0
M  V30 1078 N 101.989 0.842826 1.3317 0
M  V30 1079 C 103.219 0.453397 2.01564 0
M  V30 1080 C 103.627 -0.951147 1.63554 0
M  V30 1081 O 102.97 -1.63021 0.846746 0
M  V30 1082 C 103.032 0.499013 3.5602 0
M  V30 1083 C 102.696 1.86037 4.1742 0
M  V30 1084 C 103.693 2.82416 4.36506 0
M  V30 1085 C 101.378 2.15428 4.53757 0
M  V30 1086 C 103.372 4.06346 4.91082 0
M  V30 1087 C 101.059 3.39615 5.0804 0
M  V30 1088 C 102.057 4.3489 5.26649 0
M  V30 1089 O 101.745 5.5688 5.79776 0
M  V30 1090 H 101.477 0.177871 0.652179 0
M  V30 1091 H 104.031 1.13808 1.70988 0
M  V30 1092 H 102.261 -0.242467 3.85939 0
M  V30 1093 H 103.95 0.126852 4.05702 0
M  V30 1094 H 104.716 2.6101 4.08777 0
M  V30 1095 H 100.595 1.42061 4.38565 0
M  V30 1096 H 104.139 4.80722 5.05522 0
M  V30 1097 H 100.036 3.60876 5.352 0
M  V30 1098 H 100.804 5.58674 5.98185 0
M  V30 1099 N 103.467 -1.45747 0.599634 0
M  V30 1100 C 104.43 -2.28917 -0.113835 0
M  V30 1101 C 105.43 -1.3933 -0.802729 0
M  V30 1102 O 106.62 -1.61534 -0.652103 0
M  V30 1103 C 103.752 -3.20152 -1.17114 0
M  V30 1104 H 104.945 -2.93478 0.617289 0
M  V30 1105 H 102.498 -1.52137 0.358327 0
M  V30 1106 H 103.233 -2.60374 -1.93329 0
M  V30 1107 H 103.018 -3.86133 -0.681468 0
M  V30 1108 H 104.508 -3.82708 -1.67105 0
M  V30 1109 N 104.945 -0.338344 -1.53925 0
M  V30 1110 C 105.908 0.508299 -2.23493 0
M  V30 1111 C 106.908 1.03175 -1.23335 0
M  V30 1112 O 108.098 0.921826 -1.47811 0
M  V30 1113 C 105.23 1.70754 -2.95052 0
M  V30 1114 H 106.423 -0.100058 -2.99733 0
M  V30 1115 H 103.976 -0.0896198 -1.56043 0
M  V30 1116 H 104.711 2.35474 -2.22986 0
M  V30 1117 H 104.496 1.33946 -3.68512 0
M  V30 1118 H 105.986 2.30818 -3.48013 0
M  V30 1119 N 106.423 1.57458 -0.0668435 0
M  V30 1120 C 107.7 1.8469 0.644132 0
M  V30 1121 C 108.08 0.958343 1.88093 0
M  V30 1122 O 107.428 0.0233579 2.28488 0
M  V30 1123 C 107.638 3.34767 0.986509 0
M  V30 1124 C 108.986 4.02159 1.36212 0
M  V30 1125 O 110.01 3.39484 1.07839 0
M  V30 1126 O 108.869 5.12694 1.89227 0
M  V30 1127 H 105.963 0.762816 0.319437 0
M  V30 1128 H 108.509 1.6942 -0.0973986 0
M  V30 1129 H 107.281 3.91151 0.107883 0
M  V30 1130 H 106.904 3.55281 1.78497 0
M  V30 1131 N 107.901 -0.206675 1.56239 0
M  V30 1132 C 109.15 -0.926964 1.79138 0
M  V30 1133 C 109.463 -1.84901 0.638043 0
M  V30 1134 O 110.669 -2.60906 0.751033 0
M  V30 1135 C 109.125 -1.6986 3.17294 0
M  V30 1136 C 108.733 -0.821956 4.40395 0
M  V30 1137 C 110.477 -2.40922 3.4951 0
M  V30 1138 C 108.384 -1.59179 5.69575 0
M  V30 1139 H 107.314 -0.349864 0.667915 0
M  V30 1140 H 109.965 -0.180487 1.8261 0
M  V30 1141 H 108.347 -2.48853 3.08039 0
M  V30 1142 H 109.521 -0.0715019 4.60745 0
M  V30 1143 H 107.836 -0.222741 4.15804 0
M  V30 1144 H 110.433 -2.99047 4.43255 0
M  V30 1145 H 110.776 -3.14542 2.72707 0
M  V30 1146 H 111.309 -1.68905 3.60161 0
M  V30 1147 H 108.048 -0.898589 6.49312 0
M  V30 1148 H 107.568 -2.31648 5.53262 0
M  V30 1149 H 109.247 -2.14862 6.10281 0
M  V30 1150 N 109.379 -1.50304 -0.473955 0
M  V30 1151 C 110.607 -1.64902 -1.24959 0
M  V30 1152 C 111.022 -0.331198 -1.85872 0
M  V30 1153 O 110.379 0.68652 -1.69095 0
M  V30 1154 C 110.43 -2.73803 -2.36038 0
M  V30 1155 O 110.151 -4.00477 -1.77624 0
M  V30 1156 C 111.652 -2.99349 -3.26964 0
M  V30 1157 H 108.872 -0.554383 -0.378022 0
M  V30 1158 H 111.416 -1.9651 -0.566054 0
M  V30 1159 H 109.571 -2.44898 -3.00173 0
M  V30 1160 H 109.985 -4.60678 -2.5075 0
M  V30 1161 H 111.459 -3.79217 -4.01121 0
M  V30 1162 H 111.936 -2.10307 -3.85574 0
M  V30 1163 H 112.542 -3.29774 -2.68569 0
M  V30 1164 N 110.857 0.726932 -1.39834 0
M  V30 1165 C 112.103 1.48884 -1.377 0
M  V30 1166 C 112.436 1.94185 0.0244852 0
M  V30 1167 O 111.711 1.67361 0.990986 0
M  V30 1168 C 111.994 2.72288 -2.3565 0
M  V30 1169 C 111.847 2.32956 -3.84775 0
M  V30 1170 C 113.166 3.74414 -2.31306 0
M  V30 1171 H 110.285 0.540062 -0.5015 0
M  V30 1172 H 112.927 0.830547 -1.70886 0
M  V30 1173 H 111.077 3.28457 -2.07481 0
M  V30 1174 H 112.749 1.82356 -4.23726 0
M  V30 1175 H 110.992 1.65088 -4.01159 0
M  V30 1176 H 111.663 3.21362 -4.4881 0
M  V30 1177 H 114.139 3.27849 -2.56231 0
M  V30 1178 H 113.015 4.58414 -3.01907 0
M  V30 1179 H 113.276 4.21909 -1.32081 0
M  V30 1180 N 112.336 1.25143 0.95797 0
M  V30 1181 C 113.584 1.09476 1.69881 0
M  V30 1182 C 113.905 -0.365502 1.91544 0
M  V30 1183 O 113.175 -1.25985 1.50015 0
M  V30 1184 H 111.755 0.402128 0.629525 0
M  V30 1185 H 114.417 1.57214 1.15194 0
M  V30 1186 H 113.513 1.60046 2.6794 0
M  V30 1187 N 113.814 -1.1601 1.06675 0
M  V30 1188 C 115.039 -1.91068 0.806706 0
M  V30 1189 C 115.464 -1.77112 -0.633485 0
M  V30 1190 O 114.822 -1.09908 -1.44187 0
M  V30 1191 C 114.87 -3.39655 1.21106 0
M  V30 1192 O 113.974 -4.10893 0.352189 0
M  V30 1193 H 113.315 -0.595125 0.294486 0
M  V30 1194 H 115.845 -1.46955 1.42356 0
M  V30 1195 H 115.855 -3.90434 1.18428 0
M  V30 1196 H 114.53 -3.49132 2.26008 0
M  V30 1197 H 113.107 -3.70285 0.440868 0
M  V30 1198 N 115.292 -0.849877 -1.32721 0
M  V30 1199 C 116.24 -0.279745 -2.30912 0
M  V30 1200 C 117.234 0.594278 -1.58634 0
M  V30 1201 O 118.44 0.482613 -1.73409 0
M  V30 1202 H 114.815 -0.0717521 -0.748569 0
M  V30 1203 H 116.786 -1.12222 -2.76494 0
M  V30 1204 C 115.535 0.521108 -3.43773 0
M  V30 1205 H 114.858 -0.142141 -3.99547 0
M  V30 1206 H 116.298 0.885693 -4.14646 0
M  V30 1207 C 114.757 1.70442 -2.90605 0
M  V30 1208 O 115.287 2.8034 -2.87702 0
M  V30 1209 N 113.493 1.52991 -2.47067 0
M  V30 1210 H 113.04 0.635914 -2.49628 0
M  V30 1211 H 112.998 2.32311 -2.11847 0
M  V30 1212 N 116.77 1.45427 -0.607355 0
M  V30 1213 C 117.718 2.32269 0.12411 0
M  V30 1214 C 118.712 1.45955 0.859854 0
M  V30 1215 O 119.918 1.6244 0.775447 0
M  V30 1216 H 116.293 0.749691 0.0588839 0
M  V30 1217 H 118.264 2.91743 -0.626762 0
M  V30 1218 C 117.013 3.29567 1.1082 0
M  V30 1219 H 116.336 3.95978 0.551492 0
M  V30 1220 H 117.776 3.93061 1.58995 0
M  V30 1221 C 116.235 2.56722 2.18164 0
M  V30 1222 O 116.765 2.34842 3.25902 0
M  V30 1223 N 114.971 2.16861 1.93442 0
M  V30 1224 H 114.518 2.34855 1.05834 0
M  V30 1225 H 114.476 1.68444 2.65469 0
M  V30 1226 N 118.248 0.346503 1.53744 0
M  V30 1227 C 119.18 -0.543316 2.22667 0
M  V30 1228 C 120.193 -1.06159 1.23427 0
M  V30 1229 O 121.382 -0.971235 1.49764 0
M  V30 1230 C 118.482 -1.76076 2.89569 0
M  V30 1231 C 117.655 -1.37727 4.15151 0
M  V30 1232 C 116.714 -2.45471 4.65436 0
M  V30 1233 O 115.74 -2.08655 5.29577 0
M  V30 1234 N 116.942 -3.7677 4.41616 0
M  V30 1235 H 119.707 0.0469703 2.99663 0
M  V30 1236 H 117.268 0.170766 1.60997 0
M  V30 1237 H 119.26 -2.47593 3.20125 0
M  V30 1238 H 117.83 -2.25835 2.16142 0
M  V30 1239 H 117.05 -0.492746 3.91108 0
M  V30 1240 H 118.338 -1.09708 4.96832 0
M  V30 1241 H 117.736 -4.09467 3.90325 0
M  V30 1242 H 116.293 -4.44448 4.7677 0
M  V30 1243 N 119.726 -1.57421 0.075193 0
M  V30 1244 C 120.673 -2.12915 -0.890843 0
M  V30 1245 C 121.643 -1.04252 -1.29309 0
M  V30 1246 O 122.828 -1.31933 -1.37834 0
M  V30 1247 C 119.968 -2.69795 -2.15186 0
M  V30 1248 C 119.081 -3.92624 -1.80194 0
M  V30 1249 C 118.216 -4.37736 -3.00933 0
M  V30 1250 C 117.255 -5.53205 -2.61974 0
M  V30 1251 N 116.392 -5.9326 -3.75483 0
M  V30 1252 H 121.232 -2.95156 -0.410735 0
M  V30 1253 H 118.769 -1.45854 -0.191086 0
M  V30 1254 H 120.727 -3.00883 -2.89008 0
M  V30 1255 H 119.357 -1.90313 -2.60731 0
M  V30 1256 H 118.409 -3.67977 -0.964218 0
M  V30 1257 H 119.721 -4.76482 -1.47534 0
M  V30 1258 H 118.875 -4.70503 -3.8303 0
M  V30 1259 H 117.614 -3.52739 -3.36789 0
M  V30 1260 H 116.619 -5.20086 -1.783 0
M  V30 1261 H 117.844 -6.39936 -2.27284 0
M  V30 1262 H 115.79 -5.11212 -4.11094 0
M  V30 1263 H 115.707 -6.71865 -3.46602 0
M  V30 1264 H 116.975 -6.30651 -4.58148 0
M  V30 1265 N 121.204 0.198386 -1.56346 0
M  V30 1266 C 122.134 1.24865 -1.9731 0
M  V30 1267 C 123.115 1.47651 -0.844576 0
M  V30 1268 O 124.3 1.59444 -1.10866 0
M  V30 1269 C 121.43 2.59358 -2.30977 0
M  V30 1270 C 120.384 2.5119 -3.46537 0
M  V30 1271 C 119.71 3.89926 -3.65871 0
M  V30 1272 C 121.01 2.03977 -4.80823 0
M  V30 1273 H 122.704 0.908252 -2.85291 0
M  V30 1274 H 120.25 0.435462 -1.37258 0
M  V30 1275 H 122.203 3.33011 -2.58228 0
M  V30 1276 H 120.927 2.95132 -1.39874 0
M  V30 1277 H 119.586 1.79993 -3.19371 0
M  V30 1278 H 119.234 4.23046 -2.72105 0
M  V30 1279 H 118.934 3.85336 -4.4361 0
M  V30 1280 H 120.458 4.65205 -3.95495 0
M  V30 1281 H 121.872 2.67386 -5.07127 0
M  V30 1282 H 120.269 2.10397 -5.62008 0
M  V30 1283 H 121.339 0.992861 -4.74626 0
M  V30 1284 N 122.682 1.50554 0.465978 0
M  V30 1285 C 123.63 1.70324 1.58406 0
M  V30 1286 C 124.624 0.569139 1.59553 0
M  V30 1287 O 125.83 0.749776 1.63641 0
M  V30 1288 H 122.205 0.537688 0.525734 0
M  V30 1289 H 124.176 2.64104 1.38894 0
M  V30 1290 C 122.925 1.81928 2.96307 0
M  V30 1291 H 122.248 2.68586 2.96144 0
M  V30 1292 H 123.688 1.99784 3.73982 0
M  V30 1293 C 122.147 0.572095 3.32007 0
M  V30 1294 O 122.677 -0.286416 4.00678 0
M  V30 1295 N 120.883 0.424606 2.87481 0
M  V30 1296 H 120.43 1.12427 2.31771 0
M  V30 1297 H 120.388 -0.408697 3.11732 0
M  V30 1298 N 124.16 -0.719506 1.40217 0
M  V30 1299 C 125.406 -1.48152 1.38488 0
M  V30 1300 C 125.739 -1.94195 -0.0141867 0
M  V30 1301 O 125.014 -1.67884 -0.982096 0
M  V30 1302 C 125.297 -2.71035 2.37091 0
M  V30 1303 C 125.15 -2.30912 3.86005 0
M  V30 1304 C 126.469 -3.73182 2.33288 0
M  V30 1305 H 123.588 -0.537395 0.504357 0
M  V30 1306 H 126.23 -0.821472 1.71324 0
M  V30 1307 H 124.38 -3.27352 2.0922 0
M  V30 1308 H 126.052 -1.80107 4.24687 0
M  V30 1309 H 124.295 -1.62958 4.02029 0
M  V30 1310 H 124.966 -3.18978 4.50508 0
M  V30 1311 H 127.442 -3.26485 2.57966 0
M  V30 1312 H 126.318 -4.56806 3.04334 0
M  V30 1313 H 126.579 -4.21202 1.34317 0
M  V30 1314 N 125.638 -1.25649 -0.95132 0
M  V30 1315 C 126.887 -1.09988 -1.69073 0
M  V30 1316 C 127.2 0.358355 -1.92289 0
M  V30 1317 O 128.406 0.635466 -2.63958 0
M  V30 1318 C 126.862 -1.92012 -3.044 0
M  V30 1319 C 126.47 -3.42347 -2.88968 0
M  V30 1320 C 128.214 -1.8493 -3.82101 0
M  V30 1321 C 126.121 -4.16655 -4.19705 0
M  V30 1322 H 125.051 -0.407993 -0.63408 0
M  V30 1323 H 127.702 -1.49873 -1.05879 0
M  V30 1324 H 126.084 -1.44952 -3.68517 0
M  V30 1325 H 127.258 -3.97104 -2.33762 0
M  V30 1326 H 125.573 -3.50557 -2.24719 0
M  V30 1327 H 128.17 -2.37739 -4.78941 0
M  V30 1328 H 128.513 -0.817883 -4.08187 0
M  V30 1329 H 129.046 -2.29758 -3.2474 0
M  V30 1330 H 125.785 -5.20224 -3.98807 0
M  V30 1331 H 125.305 -3.66681 -4.74663 0
M  V30 1332 H 126.984 -4.24551 -4.88227 0
M  V30 1333 N 127.117 1.15442 -1.07289 0
M  V30 1334 C 128.363 1.86489 -0.796846 0
M  V30 1335 C 128.696 1.82078 0.675371 0
M  V30 1336 O 127.971 1.24346 1.4956 0
M  V30 1337 C 128.254 3.35626 -1.30489 0
M  V30 1338 C 128.107 3.48673 -2.84161 0
M  V30 1339 C 129.426 4.30357 -0.920907 0
M  V30 1340 H 126.545 0.677144 -0.290939 0
M  V30 1341 H 129.187 1.35633 -1.33056 0
M  V30 1342 H 127.337 3.79068 -0.850883 0
M  V30 1343 H 129.009 3.14099 -3.37846 0
M  V30 1344 H 127.252 2.90253 -3.22391 0
M  V30 1345 H 127.923 4.53453 -3.14777 0
M  V30 1346 H 130.399 3.94871 -1.3121 0
M  V30 1347 H 129.275 5.33193 -1.30372 0
M  V30 1348 H 129.536 4.4176 0.173226 0
M  V30 1349 N 128.595 0.856903 1.32268 0
M  V30 1350 C 129.872 0.382583 1.91822 0
M  V30 1351 C 130.252 -1.13407 1.78051 0
M  V30 1352 O 129.6 -1.95673 1.18001 0
M  V30 1353 C 129.81 0.849446 3.38505 0
M  V30 1354 C 131.158 0.867936 4.15634 0
M  V30 1355 O 132.182 0.794232 3.47232 0
M  V30 1356 O 131.041 0.972286 5.37781 0
M  V30 1357 H 128.135 0.112014 0.819379 0
M  V30 1358 H 130.681 0.943952 1.41024 0
M  V30 1359 H 129.453 1.89267 3.42482 0
M  V30 1360 H 129.076 0.265652 3.96712 0
M  V30 1361 N 130.073 -1.45103 0.615059 0
M  V30 1362 C 131.301 -2.06553 0.11977 0
M  V30 1363 C 131.716 -1.45842 -1.19898 0
M  V30 1364 O 131.073 -0.575325 -1.73194 0
M  V30 1365 C 131.124 -3.61495 -0.018364 0
M  V30 1366 O 130.845 -4.19942 1.24822 0
M  V30 1367 C 132.346 -4.39947 -0.544237 0
M  V30 1368 H 129.566 -0.667096 0.0722739 0
M  V30 1369 H 132.11 -1.8623 0.84491 0
M  V30 1370 H 130.265 -3.81135 -0.693865 0
M  V30 1371 H 130.679 -5.13204 1.0827 0
M  V30 1372 H 132.153 -5.48838 -0.589953 0
M  V30 1373 H 132.63 -4.10255 -1.56805 0
M  V30 1374 H 133.236 -4.25188 0.0974703 0
M  V30 1375 N 131.551 -0.354651 -1.53558 0
M  V30 1376 C 132.799 0.237972 -2.00694 0
M  V30 1377 C 133.12 1.50173 -1.24391 0
M  V30 1378 O 132.39 1.92673 -0.354135 0
M  V30 1379 H 130.97 0.0909256 -0.741446 0
M  V30 1380 H 133.632 -0.478368 -1.88938 0
M  V30 1381 H 132.728 0.47264 -3.085 0
M  V30 1382 N 133.029 1.57378 -0.0835403 0
M  V30 1383 C 134.254 1.98682 0.594987 0
M  V30 1384 C 134.679 0.961969 1.61641 0
M  V30 1385 O 134.037 -0.0709989 1.81161 0
M  V30 1386 C 134.085 3.38988 1.2296 0
M  V30 1387 O 133.189 3.39208 2.34546 0
M  V30 1388 H 132.53 0.646368 0.152002 0
M  V30 1389 H 135.06 2.03961 -0.161533 0
M  V30 1390 H 135.07 3.76431 1.57366 0
M  V30 1391 H 133.745 4.13107 0.481228 0
M  V30 1392 H 132.322 3.13548 2.01846 0
M  V30 1393 N 134.507 -0.190092 1.56449 0
M  V30 1394 C 135.732 -0.929864 1.85387 0
M  V30 1395 C 136.157 -1.7585 0.667704 0
M  V30 1396 O 135.515 -1.77198 -0.383459 0
M  V30 1397 C 135.563 -1.79773 3.12593 0
M  V30 1398 O 134.667 -2.89713 2.93496 0
M  V30 1399 H 134.008 -0.261574 0.610307 0
M  V30 1400 H 136.538 -0.193896 2.03679 0
M  V30 1401 H 136.548 -2.20139 3.43515 0
M  V30 1402 H 135.223 -1.18892 3.98544 0
M  V30 1403 H 133.8 -2.53065 2.73884 0
M  V30 1404 N 135.985 -1.50799 -0.457987 0
M  V30 1405 C 137.262 -1.52968 -1.21902 0
M  V30 1406 C 137.642 -0.281906 -2.09209 0
M  V30 1407 O 136.99 0.734076 -2.16388 0
M  V30 1408 C 137.2 -2.8326 -2.03875 0
M  V30 1409 C 138.548 -3.34425 -2.6162 0
M  V30 1410 O 139.572 -2.8467 -2.14106 0
M  V30 1411 O 138.431 -4.21188 -3.48228 0
M  V30 1412 H 135.525 -0.614129 -0.553873 0
M  V30 1413 H 138.071 -1.63098 -0.468739 0
M  V30 1414 H 136.843 -3.65543 -1.39621 0
M  V30 1415 H 136.466 -2.76195 -2.8601 0
M  V30 1416 N 137.463 0.71206 -1.40597 0
M  V30 1417 C 138.393 1.83889 -1.43899 0
M  V30 1418 C 139.374 1.67442 -0.299504 0
M  V30 1419 O 140.559 1.87421 -0.508624 0
M  V30 1420 C 137.689 3.21877 -1.30431 0
M  V30 1421 C 136.643 3.53002 -2.42019 0
M  V30 1422 C 135.969 4.90172 -2.13626 0
M  V30 1423 C 137.269 3.53643 -3.84362 0
M  V30 1424 H 138.963 1.81383 -2.38203 0
M  V30 1425 H 136.509 0.871237 -1.14654 0
M  V30 1426 H 138.462 4.00404 -1.31357 0
M  V30 1427 H 137.186 3.24968 -0.326049 0
M  V30 1428 H 135.845 2.76818 -2.40349 0
M  V30 1429 H 135.493 4.89869 -1.14182 0
M  V30 1430 H 135.193 5.11962 -2.88389 0
M  V30 1431 H 136.717 5.71028 -2.1624 0
M  V30 1432 H 138.131 4.22203 -3.87837 0
M  V30 1433 H 136.528 3.86961 -4.58673 0
M  V30 1434 H 137.598 2.52954 -4.13693 0
M  V30 1435 N 138.941 1.26152 0.944643 0
M  V30 1436 C 140.187 1.12665 1.69346 0
M  V30 1437 C 140.542 -0.3273 1.89596 0
M  V30 1438 O 139.835 -1.23717 1.46303 0
M  V30 1439 C 140.029 1.82541 3.07268 0
M  V30 1440 C 139.858 3.34582 3.00475 0
M  V30 1441 C 138.628 4.03863 3.03681 0
M  V30 1442 C 140.826 4.30828 2.80877 0
M  V30 1443 N 138.808 5.42603 2.87151 0
M  V30 1444 C 140.179 5.5672 2.7288 0
M  V30 1445 C 142.234 4.21122 2.65633 0
M  V30 1446 C 140.937 6.74013 2.51196 0
M  V30 1447 C 142.963 5.38118 2.45323 0
M  V30 1448 C 142.325 6.62955 2.38055 0
M  V30 1449 H 138.424 0.467041 0.627214 0
M  V30 1450 H 141.008 1.59391 1.11815 0
M  V30 1451 H 139.179 1.38296 3.62945 0
M  V30 1452 H 140.911 1.61708 3.70989 0
M  V30 1453 H 137.666 3.55198 3.1326 0
M  V30 1454 H 138.09 6.15443 2.82063 0
M  V30 1455 H 142.732 3.25344 2.70021 0
M  V30 1456 H 140.45 7.6989 2.4555 0
M  V30 1457 H 144.036 5.32475 2.34439 0
M  V30 1458 H 142.916 7.51959 2.22546 0
M  V30 1459 N 140.419 -1.14872 1.07899 0
M  V30 1460 C 141.665 -1.86064 0.806725 0
M  V30 1461 C 141.998 -1.82434 -0.665706 0
M  V30 1462 O 141.273 -1.25138 -1.48899 0
M  V30 1463 C 141.556 -3.34929 1.32267 0
M  V30 1464 C 141.409 -3.47161 2.86006 0
M  V30 1465 C 142.728 -4.29863 0.943717 0
M  V30 1466 H 139.847 -0.675591 0.294526 0
M  V30 1467 H 142.489 -1.34925 1.33773 0
M  V30 1468 H 140.639 -3.78611 0.870974 0
M  V30 1469 H 142.311 -3.12302 3.39507 0
M  V30 1470 H 140.554 -2.88539 3.23925 0
M  V30 1471 H 141.225 -4.51777 3.17177 0
M  V30 1472 H 143.701 -3.9417 1.33302 0
M  V30 1473 H 142.577 -5.32494 1.33198 0
M  V30 1474 H 142.838 -4.41846 -0.149796 0
M  V30 1475 N 141.898 -0.863906 -1.31812 0
M  V30 1476 C 143.309 -0.52522 -1.7916 0
M  V30 1477 C 143.66 0.957518 -1.71248 0
M  V30 1478 O 142.785 1.74734 -1.27659 0
M  V30 1479 C 143.38 -0.9466 -3.25307 0
M  V30 1480 C 141.939 -0.659668 -3.70574 0
M  V30 1481 C 141.086 -1.14126 -2.52726 0
M  V30 1482 H 144.037 -1.05022 -1.1898 0
M  V30 1483 H 144.058 -0.266766 -3.79564 0
M  V30 1484 H 143.57 -2.02579 -3.31034 0
M  V30 1485 H 141.671 0.408416 -3.70355 0
M  V30 1486 H 141.784 -1.23245 -4.62977 0
M  V30 1487 H 140.148 -0.561216 -2.4844 0
M  V30 1488 H 140.931 -2.22775 -2.61201 0
M  V30 1489 N 143.376 1.44774 -0.622745 0
M  V30 1490 C 144.653 1.95522 -0.0551974 0
M  V30 1491 C 145.033 1.5649 1.41683 0
M  V30 1492 O 144.381 0.834848 2.12703 0
M  V30 1493 C 144.591 3.4796 -0.269242 0
M  V30 1494 C 145.939 4.24306 -0.158014 0
M  V30 1495 O 146.963 3.55637 -0.200162 0
M  V30 1496 O 145.822 5.46471 -0.0558693 0
M  V30 1497 H 142.916 0.826556 0.0271015 0
M  V30 1498 H 145.462 1.54866 -0.693864 0
M  V30 1499 H 144.234 3.6939 -1.29099 0
M  V30 1500 H 143.857 3.95543 0.403966 0
M  V30 1501 N 144.854 0.36279 1.53368 0
M  V30 1502 C 146.1 -0.228113 2.01513 0
M  V30 1503 C 146.433 -1.48648 1.2497 0
M  V30 1504 O 145.708 -1.91459 0.342616 0
M  V30 1505 C 145.991 -0.522884 3.56284 0
M  V30 1506 C 145.844 0.74892 4.43521 0
M  V30 1507 C 147.163 -1.32461 4.19693 0
M  V30 1508 H 144.282 -0.0814343 0.732487 0
M  V30 1509 H 146.924 0.48713 1.83649 0
M  V30 1510 H 145.074 -1.1322 3.71636 0
M  V30 1511 H 146.746 1.38648 4.39971 0
M  V30 1512 H 144.989 1.36986 4.11603 0
M  V30 1513 H 145.66 0.497667 5.49752 0
M  V30 1514 H 148.136 -0.809203 4.08156 0
M  V30 1515 H 147.012 -1.49961 5.28018 0
M  V30 1516 H 147.273 -2.33232 3.75573 0
M  V30 1517 N 146.332 -1.57332 0.0918853 0
M  V30 1518 C 147.28 -2.15075 -0.885747 0
M  V30 1519 C 148.274 -1.09277 -1.29441 0
M  V30 1520 O 149.48 -1.27627 -1.26931 0
M  V30 1521 H 145.855 -0.687966 -0.303656 0
M  V30 1522 H 147.826 -2.96047 -0.373995 0
M  V30 1523 C 146.575 -2.74325 -2.13638 0
M  V30 1524 H 145.898 -3.55418 -1.8308 0
M  V30 1525 H 147.338 -3.183 -2.80109 0
M  V30 1526 C 145.797 -1.70062 -2.90827 0
M  V30 1527 O 146.327 -1.13763 -3.85254 0
M  V30 1528 N 144.533 -1.40628 -2.54307 0
M  V30 1529 H 144.08 -1.866 -1.7759 0
M  V30 1530 H 144.038 -0.711043 -3.06254 0
M  V30 1531 N 147.81 0.181792 -1.56548 0
M  V30 1532 C 149.056 0.901431 -1.81665 0
M  V30 1533 C 149.389 1.82347 -0.668075 0
M  V30 1534 O 148.664 1.91669 0.330615 0
M  V30 1535 C 148.947 1.70618 -3.17115 0
M  V30 1536 C 148.8 0.807964 -4.42484 0
M  V30 1537 C 150.119 2.67605 -3.49393 0
M  V30 1538 H 147.238 0.32627 -0.660846 0
M  V30 1539 H 149.88 0.168134 -1.89255 0
M  V30 1540 H 148.03 2.33133 -3.10775 0
M  V30 1541 H 149.702 0.19649 -4.60881 0
M  V30 1542 H 147.945 0.115411 -4.33646 0
M  V30 1543 H 148.616 1.40632 -5.33785 0
M  V30 1544 H 151.092 2.15218 -3.56118 0
M  V30 1545 H 149.968 3.20985 -4.45264 0
M  V30 1546 H 150.229 3.47298 -2.73563 0
M  V30 1547 N 149.288 1.51039 0.449983 0
M  V30 1548 C 150.565 1.53612 1.21089 0
M  V30 1549 C 150.945 0.292997 2.09057 0
M  V30 1550 O 150.293 -0.72259 2.16774 0
M  V30 1551 C 150.503 2.84337 2.0237 0
M  V30 1552 C 151.851 3.35807 2.59843 0
M  V30 1553 O 152.875 2.85802 2.12593 0
M  V30 1554 O 151.734 4.23029 3.45989 0
M  V30 1555 H 148.828 0.617057 0.550608 0
M  V30 1556 H 151.374 1.63344 0.460082 0
M  V30 1557 H 150.146 3.66278 1.37681 0
M  V30 1558 H 149.769 2.77708 2.84542 0
M  V30 1559 N 150.766 -0.704594 1.40972 0
M  V30 1560 C 152.006 -1.47691 1.41304 0
M  V30 1561 C 152.37 -1.91992 0.0178582 0
M  V30 1562 O 153.571 -2.68599 -0.103996 0
M  V30 1563 C 151.842 -2.66254 2.38419 0
M  V30 1564 S 153.401 -3.55516 2.57204 0
M  V30 1565 H 150.219 -0.504808 0.500689 0
M  V30 1566 H 152.821 -0.822962 1.77335 0
M  V30 1567 H 151.525 -2.31897 3.38603 0
M  V30 1568 H 151.056 -3.3655 2.03711 0
M  V30 1569 H 153.071 -4.61115 1.83268 0
M  V30 1570 N 152.244 -1.26651 -0.937939 0
M  V30 1571 C 153.176 -1.04283 -2.04102 0
M  V30 1572 C 154.189 -0.00221014 -1.628 0
M  V30 1573 O 155.378 -0.242645 -1.76843 0
M  V30 1574 C 152.478 -0.557846 -3.34277 0
M  V30 1575 C 151.651 -1.66843 -4.04329 0
M  V30 1576 C 150.71 -1.18095 -5.12777 0
M  V30 1577 O 149.736 -1.87865 -5.37304 0
M  V30 1578 N 150.938 -0.0311006 -5.80492 0
M  V30 1579 H 153.703 -1.9927 -2.23856 0
M  V30 1580 H 151.264 -1.1808 -1.10764 0
M  V30 1581 H 153.256 -0.215836 -4.04124 0
M  V30 1582 H 151.826 0.298523 -3.11171 0
M  V30 1583 H 151.046 -2.18123 -3.28353 0
M  V30 1584 H 152.334 -2.41408 -4.47883 0
M  V30 1585 H 151.732 0.551486 -5.63005 0
M  V30 1586 H 150.289 0.251809 -6.51313 0
M  V30 1587 N 153.722 1.14298 -1.08507 0
M  V30 1588 C 154.968 1.85633 -0.816581 0
M  V30 1589 C 155.301 1.82784 0.656021 0
M  V30 1590 O 154.576 1.25926 1.48233 0
M  V30 1591 C 154.859 3.34223 -1.34041 0
M  V30 1592 C 154.712 3.45639 -2.87843 0
M  V30 1593 C 156.031 4.29356 -0.9665 0
M  V30 1594 H 153.15 0.67402 -0.298104 0
M  V30 1595 H 155.792 1.34214 -1.34487 0
M  V30 1596 H 153.942 3.78144 -0.89104 0
M  V30 1597 H 155.614 3.10498 -3.41158 0
M  V30 1598 H 153.857 2.86817 -3.25451 0
M  V30 1599 H 154.528 4.50089 -3.19569 0
M  V30 1600 H 157.004 3.93457 -1.35391 0
M  V30 1601 H 155.88 5.3178 -1.3602 0
M  V30 1602 H 156.141 4.41919 0.126362 0
M  V30 1603 N 155.201 0.870884 1.31352 0
M  V30 1604 C 156.429 0.49677 2.00848 0
M  V30 1605 C 156.844 -0.910998 1.65367 0
M  V30 1606 O 156.201 -1.59696 0.883374 0
M  V30 1607 C 156.252 0.645308 3.55694 0
M  V30 1608 O 155.973 1.99764 3.89905 0
M  V30 1609 C 157.474 0.272326 4.42463 0
M  V30 1610 H 154.694 0.193462 0.642506 0
M  V30 1611 H 157.238 1.1723 1.67563 0
M  V30 1612 H 155.393 0.0173176 3.87396 0
M  V30 1613 H 155.807 2.00607 4.84621 0
M  V30 1614 H 157.281 0.427208 5.50344 0
M  V30 1615 H 157.758 -0.788587 4.32062 0
M  V30 1616 H 158.364 0.876054 4.1618 0
M  V30 1617 N 156.679 -1.44442 0.630414 0
M  V30 1618 C 157.909 -2.06115 0.141465 0
M  V30 1619 C 158.317 -1.47179 -1.1889 0
M  V30 1620 O 157.66 -0.588873 -1.74006 0
M  V30 1621 C 157.722 -3.59467 -0.0484355 0
M  V30 1622 C 157.386 -4.40864 1.20366 0
M  V30 1623 C 158.383 -4.74391 2.12719 0
M  V30 1624 C 156.068 -4.8125 1.43887 0
M  V30 1625 C 158.062 -5.47186 3.26904 0
M  V30 1626 C 155.749 -5.53795 2.5837 0
M  V30 1627 C 156.747 -5.86682 3.49705 0
M  V30 1628 O 156.435 -6.57749 4.62191 0
M  V30 1629 H 156.167 -0.671648 0.0765792 0
M  V30 1630 H 158.721 -1.86312 0.864695 0
M  V30 1631 H 156.951 -3.77758 -0.826803 0
M  V30 1632 H 158.64 -4.02909 -0.491849 0
M  V30 1633 H 159.406 -4.43728 1.95781 0
M  V30 1634 H 155.285 -4.55073 0.736853 0
M  V30 1635 H 158.829 -5.72773 3.98217 0
M  V30 1636 H 154.726 -5.83872 2.75251 0
M  V30 1637 H 155.494 -6.76217 4.61164 0
M  V30 1638 N 158.157 -0.370918 -1.53173 0
M  V30 1639 C 159.382 0.220293 -2.06227 0
M  V30 1640 C 159.807 1.41243 -1.24225 0
M  V30 1641 O 159.165 1.79387 -0.262645 0
M  V30 1642 C 159.213 0.586663 -3.55796 0
M  V30 1643 O 158.317 1.68317 -3.76488 0
M  V30 1644 H 157.658 0.0308099 -0.663285 0
M  V30 1645 H 160.188 -0.533068 -1.97534 0
M  V30 1646 H 160.198 0.85617 -3.98916 0
M  V30 1647 H 158.873 -0.285013 -4.14922 0
M  V30 1648 H 157.45 1.40881 -3.45264 0
M  V30 1649 N 159.635 1.57281 -0.100228 0
M  V30 1650 C 160.912 1.86014 0.604812 0
M  V30 1651 C 161.292 0.998025 1.86018 0
M  V30 1652 O 160.64 0.0718184 2.28387 0
M  V30 1653 C 160.85 3.36784 0.915278 0
M  V30 1654 C 162.198 4.04957 1.27651 0
M  V30 1655 O 163.222 3.41695 1.00613 0
M  V30 1656 O 162.081 5.16593 1.7831 0
M  V30 1657 H 159.175 0.76942 0.303185 0
M  V30 1658 H 161.721 1.69176 -0.133313 0
M  V30 1659 H 160.493 3.91292 0.0248896 0
M  V30 1660 H 160.116 3.58987 1.70921 0
M  V30 1661 N 161.113 -0.173488 1.56642 0
M  V30 1662 C 162.045 -1.23935 1.92802 0
M  V30 1663 C 163.058 -1.40589 0.820889 0
M  V30 1664 O 164.247 -1.40631 1.09933 0
M  V30 1665 C 161.347 -2.60837 2.16373 0
M  V30 1666 C 160.52 -2.6551 3.47596 0
M  V30 1667 C 159.579 -3.8376 3.60021 0
M  V30 1668 O 158.605 -3.69859 4.32658 0
M  V30 1669 N 159.807 -5.00127 2.94709 0
M  V30 1670 H 162.572 -0.932236 2.84832 0
M  V30 1671 H 160.133 -0.363268 1.57772 0
M  V30 1672 H 162.125 -3.38407 2.21952 0
M  V30 1673 H 160.695 -2.83948 1.30738 0
M  V30 1674 H 159.915 -1.74052 3.53694 0
M  V30 1675 H 161.203 -2.65641 4.33949 0
M  V30 1676 H 160.601 -5.14322 2.35563 0
M  V30 1677 H 159.158 -5.75567 3.05886 0
M  V30 1678 N 162.591 -1.51276 -0.441967 0
M  V30 1679 C 163.819 -1.67516 -1.21434 0
M  V30 1680 C 164.234 -0.37055 -1.85128 0
M  V30 1681 O 163.591 0.650498 -1.70513 0
M  V30 1682 C 163.642 -2.78748 -2.30177 0
M  V30 1683 O 163.363 -4.04154 -1.69089 0
M  V30 1684 C 164.864 -3.06217 -3.20541 0
M  V30 1685 H 162.084 -0.562276 -0.366178 0
M  V30 1686 H 164.628 -1.97666 -0.524244 0
M  V30 1687 H 162.783 -2.5121 -2.94911 0
M  V30 1688 H 163.197 -4.65894 -2.40922 0
M  V30 1689 H 164.671 -3.8764 -3.92987 0
M  V30 1690 H 165.148 -2.18439 -3.81026 0
M  V30 1691 H 165.754 -3.35397 -2.61513 0
M  V30 1692 N 164.069 0.697108 -1.41344 0
M  V30 1693 C 165.032 1.79281 -1.42797 0
M  V30 1694 C 166.032 1.57607 -0.318837 0
M  V30 1695 O 167.222 1.64309 -0.578642 0
M  V30 1696 C 164.354 3.17632 -1.23785 0
M  V30 1697 H 165.547 1.79385 -2.40335 0
M  V30 1698 H 163.1 0.904582 -1.27464 0
M  V30 1699 H 163.835 3.23167 -0.270814 0
M  V30 1700 H 163.62 3.34765 -2.04144 0
M  V30 1701 H 165.11 3.97617 -1.27633 0
M  V30 1702 N 165.547 1.27147 0.931209 0
M  V30 1703 C 166.824 1.0401 1.65654 0
M  V30 1704 C 167.204 -0.426297 2.06751 0
M  V30 1705 O 166.552 -1.40879 1.79904 0
M  V30 1706 C 166.762 1.99834 2.86125 0
M  V30 1707 C 168.11 2.29007 3.57549 0
M  V30 1708 O 169.134 1.97779 2.96246 0
M  V30 1709 O 167.993 2.82222 4.67989 0
M  V30 1710 H 165.087 0.396239 0.725895 0
M  V30 1711 H 167.633 1.38397 0.982056 0
M  V30 1712 H 166.405 2.98744 2.52721 0
M  V30 1713 H 166.028 1.65987 3.61295 0
M  V30 1714 N 167.025 -1.13721 1.09112 0
M  V30 1715 C 168.272 -1.84924 0.825192 0
M  V30 1716 C 168.6 -1.83347 -0.649151 0
M  V30 1717 O 167.855 -1.26449 -1.49362 0
M  V30 1718 C 168.154 -3.32861 1.30146 0
M  V30 1719 C 167.82 -3.54621 2.78486 0
M  V30 1720 C 166.482 -3.60268 3.18999 0
M  V30 1721 C 168.834 -3.62855 3.74146 0
M  V30 1722 C 166.162 -3.71679 4.53951 0
M  V30 1723 C 168.514 -3.75793 5.08883 0
M  V30 1724 C 167.178 -3.79692 5.4899 0
M  V30 1725 H 166.448 -0.676684 0.301959 0
M  V30 1726 H 169.095 -1.3428 1.36533 0
M  V30 1727 H 167.4 -3.85835 0.681064 0
M  V30 1728 H 169.097 -3.86395 1.07236 0
M  V30 1729 H 165.687 -3.50879 2.46134 0
M  V30 1730 H 169.871 -3.57775 3.43963 0
M  V30 1731 H 165.127 -3.72963 4.84467 0
M  V30 1732 H 169.301 -3.81107 5.82864 0
M  V30 1733 H 166.928 -3.88287 6.53558 0
M  V30 1734 N 168.503 -0.877838 -1.30888 0
M  V30 1735 C 169.743 -0.499301 -1.98208 0
M  V30 1736 C 170.107 0.932649 -1.67826 0
M  V30 1737 O 171.308 1.41694 -2.28421 0
M  V30 1738 C 169.579 -0.758221 -3.49265 0
M  V30 1739 S 171.138 -0.480719 -4.36159 0
M  V30 1740 H 167.956 -0.186062 -0.686223 0
M  V30 1741 H 170.558 -1.13556 -1.59139 0
M  V30 1742 H 169.262 -1.79903 -3.68867 0
M  V30 1743 H 168.793 -0.109247 -3.93248 0
M  V30 1744 H 170.808 0.683698 -4.91467 0
M  V30 1745 N 169.982 1.44106 -0.638065 0
M  V30 1746 C 170.929 2.30715 0.062701 0
M  V30 1747 C 171.899 1.43882 0.829883 0
M  V30 1748 O 173.084 1.72775 0.809532 0
M  V30 1749 C 170.224 3.29258 1.03358 0
M  V30 1750 C 169.337 4.31192 0.26409 0
M  V30 1751 C 168.472 5.16825 1.22741 0
M  V30 1752 C 167.511 6.10462 0.447475 0
M  V30 1753 N 166.648 6.8877 1.36161 0
M  V30 1754 H 171.488 2.90096 -0.681781 0
M  V30 1755 H 169.025 1.42925 -0.347988 0
M  V30 1756 H 170.983 3.84886 1.60992 0
M  V30 1757 H 169.613 2.71562 1.74511 0
M  V30 1758 H 168.665 3.77981 -0.428295 0
M  V30 1759 H 169.977 4.97619 -0.343052 0
M  V30 1760 H 169.131 5.77004 1.87487 0
M  V30 1761 H 167.87 4.50488 1.86847 0
M  V30 1762 H 166.875 5.49386 -0.213433 0
M  V30 1763 H 168.1 6.78837 -0.188968 0
M  V30 1764 H 166.046 6.25096 1.98975 0
M  V30 1765 H 165.963 7.51663 0.808656 0
M  V30 1766 H 167.231 7.53467 1.99769 0
M  V30 1767 N 171.46 0.379036 1.52974 0
M  V30 1768 C 172.392 -0.495963 2.2377 0
M  V30 1769 C 173.405 -1.03517 1.25651 0
M  V30 1770 O 174.594 -0.939249 1.51791 0
M  V30 1771 C 171.694 -1.69894 2.93239 0
M  V30 1772 C 170.867 -1.2889 4.17979 0
M  V30 1773 C 169.926 -2.35543 4.70538 0
M  V30 1774 O 168.952 -1.97375 5.33883 0
M  V30 1775 N 170.154 -3.67318 4.49508 0
M  V30 1776 H 172.919 0.110523 2.99496 0
M  V30 1777 H 170.48 0.204878 1.60598 0
M  V30 1778 H 172.472 -2.40747 3.25304 0
M  V30 1779 H 171.042 -2.212 2.20883 0
M  V30 1780 H 170.262 -0.409676 3.92065 0
M  V30 1781 H 171.55 -0.991443 4.99047 0
M  V30 1782 H 170.948 -4.01095 3.98923 0
M  V30 1783 H 169.505 -4.34235 4.8609 0
M  V30 1784 N 172.938 -1.57226 0.108567 0
M  V30 1785 C 173.885 -2.14756 -0.845481 0
M  V30 1786 C 174.855 -1.06971 -1.27068 0
M  V30 1787 O 176.04 -1.34827 -1.35005 0
M  V30 1788 C 173.18 -2.74298 -2.09415 0
M  V30 1789 C 172.293 -3.96358 -1.71826 0
M  V30 1790 C 171.428 -4.44021 -2.9158 0
M  V30 1791 C 170.467 -5.58637 -2.50181 0
M  V30 1792 N 169.604 -6.01091 -3.62814 0
M  V30 1793 H 174.444 -2.95961 -0.348035 0
M  V30 1794 H 171.981 -1.46226 -0.160106 0
M  V30 1795 H 173.939 -3.06945 -2.82561 0
M  V30 1796 H 172.569 -1.95801 -2.56636 0
M  V30 1797 H 171.621 -3.69939 -0.885947 0
M  V30 1798 H 172.933 -4.79504 -1.37394 0
M  V30 1799 H 172.087 -4.78522 -3.72963 0
M  V30 1800 H 170.826 -3.59803 -3.29231 0
M  V30 1801 H 169.831 -5.23751 -1.67228 0
M  V30 1802 H 171.056 -6.44613 -2.13659 0
M  V30 1803 H 169.002 -5.19817 -4.00158 0
M  V30 1804 H 168.919 -6.79066 -3.32273 0
M  V30 1805 H 170.187 -6.40227 -4.44668 0
M  V30 1806 N 174.416 0.165178 -1.56732 0
M  V30 1807 C 175.664 0.879068 -1.8198 0
M  V30 1808 C 175.985 1.82514 -0.686561 0
M  V30 1809 O 175.255 1.93694 0.293146 0
M  V30 1810 H 173.835 0.327608 -0.671329 0
M  V30 1811 H 176.497 0.163526 -1.94213 0
M  V30 1812 H 175.593 1.45228 -2.76252 0
M  V30 1813 N 175.894 1.51508 0.433938 0
M  V30 1814 C 177.122 1.68157 1.20543 0
M  V30 1815 C 177.537 0.380362 1.84929 0
M  V30 1816 O 176.894 -0.641446 1.70856 0
M  V30 1817 C 176.945 2.79965 2.28696 0
M  V30 1818 O 176.666 4.05045 1.66943 0
M  V30 1819 C 178.167 3.07912 3.18912 0
M  V30 1820 H 175.387 0.56421 0.363191 0
M  V30 1821 H 177.931 1.97941 0.513754 0
M  V30 1822 H 176.086 2.5277 2.93574 0
M  V30 1823 H 176.5 4.67165 2.38448 0
M  V30 1824 H 177.974 3.89719 3.90926 0
M  V30 1825 H 178.451 2.20456 3.79863 0
M  V30 1826 H 179.057 3.36779 2.59731 0
M  V30 1827 N 177.372 -0.689602 1.41712 0
M  V30 1828 C 178.602 -1.47613 1.44548 0
M  V30 1829 C 179.01 -1.89132 0.0509034 0
M  V30 1830 O 178.353 -1.57741 -0.94146 0
M  V30 1831 C 178.415 -2.76596 2.2964 0
M  V30 1832 C 178.079 -2.57245 3.77722 0
M  V30 1833 C 179.076 -2.22804 4.69739 0
M  V30 1834 C 176.761 -2.727 4.2183 0
M  V30 1835 C 178.755 -2.04064 6.03851 0
M  V30 1836 C 176.442 -2.53576 5.56006 0
M  V30 1837 C 177.44 -2.1931 6.46832 0
M  V30 1838 O 177.128 -2.00359 7.78532 0
M  V30 1839 H 176.86 -0.461227 0.494212 0
M  V30 1840 H 179.414 -0.856045 1.86711 0
M  V30 1841 H 177.644 -3.41033 1.82301 0
M  V30 1842 H 179.333 -3.38424 2.24107 0
M  V30 1843 H 180.099 -2.10473 4.36951 0
M  V30 1844 H 175.978 -2.98353 3.51435 0
M  V30 1845 H 179.522 -1.77241 6.74708 0
M  V30 1846 H 175.419 -2.65499 5.88371 0
M  V30 1847 H 176.187 -2.15075 7.89737 0
M  V30 1848 N 178.85 -1.27639 -0.924453 0
M  V30 1849 C 180.127 -1.04887 -1.651 0
M  V30 1850 C 180.507 0.415327 -2.06974 0
M  V30 1851 O 179.855 1.39923 -1.80648 0
M  V30 1852 C 180.065 -2.01348 -2.85061 0
M  V30 1853 C 181.413 -2.30899 -3.56329 0
M  V30 1854 O 182.437 -1.99348 -2.95193 0
M  V30 1855 O 181.296 -2.84699 -4.66485 0
M  V30 1856 H 178.39 -0.400083 -0.723784 0
M  V30 1857 H 180.936 -1.38916 -0.974703 0
M  V30 1858 H 179.708 -3.0008 -2.51133 0
M  V30 1859 H 179.331 -1.679 -3.6041 0
M  V30 1860 N 180.328 1.1314 -1.09713 0
M  V30 1861 C 181.739 1.66029 -0.853885 0
M  V30 1862 C 182.09 1.86241 0.617142 0
M  V30 1863 O 181.215 1.5834 1.47503 0
M  V30 1864 C 181.81 3.01599 -1.5435 0
M  V30 1865 C 180.369 3.51467 -1.34714 0
M  V30 1866 C 179.516 2.26648 -1.59769 0
M  V30 1867 H 182.467 0.970226 -1.25588 0
M  V30 1868 H 182.488 3.67709 -0.978267 0
M  V30 1869 H 182 2.86856 -2.6141 0
M  V30 1870 H 180.101 3.71408 -0.297838 0
M  V30 1871 H 180.214 4.314 -2.08401 0
M  V30 1872 H 178.578 2.33385 -1.01998 0
M  V30 1873 H 179.361 2.14467 -2.68065 0
M  V30 1874 N 181.806 0.884767 1.30421 0
M  V30 1875 C 183.031 0.517288 2.00845 0
M  V30 1876 C 183.456 -0.886779 1.65885 0
M  V30 1877 O 182.814 -1.58768 0.875354 0
M  V30 1878 C 182.862 0.698994 3.5376 0
M  V30 1879 O 181.966 -0.255208 4.1161 0
M  V30 1880 H 181.307 0.203872 0.631927 0
M  V30 1881 H 183.837 1.19225 1.66272 0
M  V30 1882 H 183.847 0.597912 4.03595 0
M  V30 1883 H 182.522 1.72271 3.78544 0
M  V30 1884 H 181.099 -0.10784 3.72744 0
M  V30 1885 N 183.284 -1.43765 0.645699 0
M  V30 1886 C 184.532 -2.01499 0.155731 0
M  V30 1887 C 184.853 -1.51151 -1.232 0
M  V30 1888 O 184.123 -0.721044 -1.82148 0
M  V30 1889 H 182.703 -0.745003 0.0545817 0
M  V30 1890 H 185.365 -1.76075 0.835677 0
M  V30 1891 H 184.461 -3.1181 0.134577 0
M  V30 1892 N 184.763 -0.387143 -1.52771 0
M  V30 1893 C 185.988 0.198407 -2.06449 0
M  V30 1894 C 186.413 1.39918 -1.25716 0
M  V30 1895 O 185.771 1.79099 -0.281657 0
M  V30 1896 C 185.819 0.548893 -3.56398 0
M  V30 1897 O 184.923 1.64315 -3.78252 0
M  V30 1898 H 184.264 0.0237731 -0.663574 0
M  V30 1899 H 186.794 -0.553989 -1.96957 0
M  V30 1900 H 186.804 0.813812 -3.99801 0
M  V30 1901 H 185.479 -0.329005 -4.14597 0
M  V30 1902 H 184.056 1.37211 -3.46738 0
M  V30 1903 N 186.241 1.57166 -0.116904 0
M  V30 1904 C 187.466 1.999 0.55271 0
M  V30 1905 C 187.891 0.996039 1.59564 0
M  V30 1906 O 187.249 -0.032556 1.81271 0
M  V30 1907 C 187.297 3.4152 1.15742 0
M  V30 1908 O 186.401 3.44106 2.27299 0
M  V30 1909 H 185.742 0.649447 0.138258 0
M  V30 1910 H 188.272 2.03573 -0.204759 0
M  V30 1911 H 188.282 3.79684 1.49346 0
M  V30 1912 H 186.957 4.14034 0.393493 0
M  V30 1913 H 185.534 3.17759 1.9515 0
M  V30 1914 N 187.719 -0.156864 1.56817 0
M  V30 1915 C 188.682 -1.17781 1.96622 0
M  V30 1916 C 189.682 -1.36401 0.851555 0
M  V30 1917 O 190.872 -1.33561 1.11836 0
M  V30 1918 C 188.004 -2.54008 2.27361 0
M  V30 1919 H 189.197 -0.836564 2.87996 0
M  V30 1920 H 186.75 -0.39985 1.51099 0
M  V30 1921 H 187.485 -2.9312 1.38748 0
M  V30 1922 H 187.27 -2.41856 3.08623 0
M  V30 1923 H 188.76 -3.27558 2.59029 0
M  V30 1924 N 189.197 -1.51736 -0.425897 0
M  V30 1925 C 190.422 -1.69082 -1.20108 0
M  V30 1926 C 190.847 -0.392398 -1.83962 0
M  V30 1927 O 190.205 0.64858 -1.69302 0
M  V30 1928 C 190.253 -2.81604 -2.25237 0
M  V30 1929 O 189.357 -2.46004 -3.30992 0
M  V30 1930 H 188.698 -0.563408 -0.35138 0
M  V30 1931 H 191.228 -1.98358 -0.501512 0
M  V30 1932 H 191.238 -3.06025 -2.69838 0
M  V30 1933 H 189.913 -3.75817 -1.78142 0
M  V30 1934 H 188.49 -2.32195 -2.91787 0
M  V30 1935 N 190.675 0.682077 -1.42076 0
M  V30 1936 C 191.607 1.80755 -1.40926 0
M  V30 1937 C 192.62 1.59833 -0.309398 0
M  V30 1938 O 193.809 1.69087 -0.572014 0
M  V30 1939 C 190.909 3.17744 -1.17865 0
M  V30 1940 C 190.082 3.65578 -2.40149 0
M  V30 1941 C 189.141 4.81277 -2.12742 0
M  V30 1942 O 188.167 4.92197 -2.85887 0
M  V30 1943 N 189.369 5.69474 -1.12602 0
M  V30 1944 H 192.134 1.82229 -2.37935 0
M  V30 1945 H 189.695 0.864903 -1.36861 0
M  V30 1946 H 191.687 3.9279 -0.9746 0
M  V30 1947 H 190.257 3.11214 -0.294068 0
M  V30 1948 H 189.477 2.81291 -2.76169 0
M  V30 1949 H 190.765 3.94278 -3.21593 0
M  V30 1950 H 190.163 5.63297 -0.520899 0
M  V30 1951 H 188.72 6.44363 -0.981842 0
M  V30 1952 N 192.153 1.28127 0.917671 0
M  V30 1953 C 193.43 1.05761 1.64542 0
M  V30 1954 C 193.81 -0.404344 2.07191 0
M  V30 1955 O 193.158 -1.38963 1.81388 0
M  V30 1956 C 193.368 2.02857 2.83989 0
M  V30 1957 C 194.716 2.32786 3.551 0
M  V30 1958 O 195.74 2.0091 2.94132 0
M  V30 1959 O 194.599 2.87169 4.64969 0
M  V30 1960 H 191.693 0.403916 0.721652 0
M  V30 1961 H 194.239 1.39431 0.967322 0
M  V30 1962 H 193.011 3.01407 2.49538 0
M  V30 1963 H 192.634 1.69809 3.59514 0
M  V30 1964 N 193.631 -1.12557 1.10312 0
M  V30 1965 C 194.561 -2.20341 0.772798 0
M  V30 1966 C 195.542 -1.68198 -0.25365 0
M  V30 1967 O 196.727 -1.93831 -0.119699 0
M  V30 1968 C 193.857 -3.46709 0.202443 0
M  V30 1969 C 192.811 -4.11996 1.15943 0
M  V30 1970 C 192.137 -5.328 0.450345 0
M  V30 1971 C 193.437 -4.5828 2.50552 0
M  V30 1972 H 195.131 -2.48229 1.674 0
M  V30 1973 H 192.677 -1.19308 0.806326 0
M  V30 1974 H 194.63 -4.2138 -0.0407752 0
M  V30 1975 H 193.354 -3.18245 -0.734001 0
M  V30 1976 H 192.013 -3.39305 1.38808 0
M  V30 1977 H 191.661 -5.00602 -0.490531 0
M  V30 1978 H 191.361 -5.7743 1.08851 0
M  V30 1979 H 192.885 -6.10219 0.215642 0
M  V30 1980 H 194.299 -5.2433 2.31843 0
M  V30 1981 H 192.696 -5.13683 3.10242 0
M  V30 1982 H 193.766 -3.72329 3.10643 0
M  V30 1983 N 195.109 -0.891671 -1.2995 0
M  V30 1984 C 196.057 -0.353066 -2.29905 0
M  V30 1985 C 197.051 0.543509 -1.60444 0
M  V30 1986 O 198.257 0.4272 -1.74857 0
M  V30 1987 H 194.632 -0.095531 -0.745907 0
M  V30 1988 H 196.603 -1.20961 -2.72784 0
M  V30 1989 C 195.352 0.411475 -3.45257 0
M  V30 1990 H 194.675 -0.269182 -3.98893 0
M  V30 1991 H 196.115 0.753328 -4.17254 0
M  V30 1992 C 194.574 1.6111 -2.9588 0
M  V30 1993 O 195.104 2.71045 -2.96475 0
M  V30 1994 N 193.31 1.45054 -2.51809 0
M  V30 1995 H 192.857 0.556175 -2.51524 0
M  V30 1996 H 192.815 2.25453 -2.1913 0
M  V30 1997 N 196.587 1.43421 -0.653314 0
M  V30 1998 C 197.815 2.06163 -0.174491 0
M  V30 1999 C 198.23 1.48969 1.1599 0
M  V30 2000 O 197.587 0.621042 1.71608 0
M  V30 2001 C 197.638 3.61417 -0.0774865 0
M  V30 2002 O 197.359 4.16485 -1.35912 0
M  V30 2003 C 198.86 4.41235 0.427402 0
M  V30 2004 H 196.08 0.664946 -0.0899353 0
M  V30 2005 H 198.624 1.83924 -0.893988 0
M  V30 2006 H 196.779 3.82841 0.59257 0
M  V30 2007 H 197.193 5.10153 -1.21839 0
M  V30 2008 H 198.667 5.5021 0.44423 0
M  V30 2009 H 199.144 4.14268 1.45873 0
M  V30 2010 H 199.75 4.2478 -0.210167 0
M  V30 2011 N 198.065 0.39524 1.52563 0
M  V30 2012 C 199.476 -0.0774719 1.86539 0
M  V30 2013 C 199.827 -1.45641 1.31466 0
M  V30 2014 O 198.952 -2.06459 0.648367 0
M  V30 2015 C 199.547 -0.147356 3.38479 0
M  V30 2016 C 198.106 -0.564373 3.72145 0
M  V30 2017 C 197.253 0.269919 2.75983 0
M  V30 2018 H 200.204 0.612876 1.46388 0
M  V30 2019 H 200.225 -0.965343 3.68051 0
M  V30 2020 H 199.737 0.856387 3.78534 0
M  V30 2021 H 197.838 -1.57527 3.37663 0
M  V30 2022 H 197.951 -0.318402 4.78041 0
M  V30 2023 H 196.315 -0.265696 2.5331 0
M  V30 2024 H 197.098 1.27175 3.18875 0
M  V30 2025 N 199.544 -1.57102 0.125237 0
M  V30 2026 C 200.791 -1.95407 -0.531248 0
M  V30 2027 C 201.119 -1.0089 -1.66287 0
M  V30 2028 O 200.374 -0.0339431 -1.95671 0
M  V30 2029 C 200.673 -3.40096 -1.09862 0
M  V30 2030 C 200.339 -4.50815 -0.0876989 0
M  V30 2031 C 199.001 -4.80824 0.19026 0
M  V30 2032 C 201.353 -5.17724 0.600902 0
M  V30 2033 C 198.681 -5.75058 1.163 0
M  V30 2034 C 201.033 -6.13005 1.56231 0
M  V30 2035 C 199.697 -6.41403 1.8482 0
M  V30 2036 H 198.967 -0.715046 -0.194397 0
M  V30 2037 H 201.614 -1.90373 0.207463 0
M  V30 2038 H 199.919 -3.41855 -1.91422 0
M  V30 2039 H 201.616 -3.6705 -1.61478 0
M  V30 2040 H 198.206 -4.27444 -0.314528 0
M  V30 2041 H 202.39 -4.94691 0.399333 0
M  V30 2042 H 197.646 -5.95362 1.39117 0
M  V30 2043 H 201.82 -6.63934 2.10153 0
M  V30 2044 H 199.447 -7.14229 2.60349 0
M  V30 2045 N 201.022 0.148545 -1.56898 0
M  V30 2046 C 201.969 1.18345 -1.98149 0
M  V30 2047 C 202.939 1.42772 -0.848848 0
M  V30 2048 O 204.124 1.55132 -1.11079 0
M  V30 2049 C 201.264 2.51231 -2.36594 0
M  V30 2050 C 200.377 2.33991 -3.63142 0
M  V30 2051 C 199.512 3.59902 -3.90697 0
M  V30 2052 C 198.551 3.37692 -5.1052 0
M  V30 2053 N 197.688 4.5573 -5.34092 0
M  V30 2054 H 202.528 0.82467 -2.86362 0
M  V30 2055 H 200.065 0.395756 -1.41676 0
M  V30 2056 H 202.023 3.28713 -2.56912 0
M  V30 2057 H 200.653 2.85059 -1.51463 0
M  V30 2058 H 199.705 1.47572 -3.50609 0
M  V30 2059 H 201.017 2.13539 -4.5078 0
M  V30 2060 H 200.171 4.45813 -4.11505 0
M  V30 2061 H 198.91 3.83357 -3.01477 0
M  V30 2062 H 197.915 2.5017 -4.89587 0
M  V30 2063 H 199.14 3.15637 -6.0129 0
M  V30 2064 H 197.086 4.79361 -4.47827 0
M  V30 2065 H 197.003 4.38274 -6.15996 0
M  V30 2066 H 198.271 5.42858 -5.59397 0
M  V30 2067 N 202.5 1.5196 0.417844 0
M  V30 2068 C 203.749 1.6482 1.16264 0
M  V30 2069 C 204.062 0.379886 1.91876 0
M  V30 2070 O 205.268 0.388154 2.68711 0
M  V30 2071 C 203.724 2.91161 2.1155 0
M  V30 2072 C 203.332 4.25068 1.41495 0
M  V30 2073 C 205.076 3.13383 2.86341 0
M  V30 2074 C 202.983 5.42541 2.35379 0
M  V30 2075 H 201.913 0.613954 0.437694 0
M  V30 2076 H 204.564 1.78442 0.427871 0
M  V30 2077 H 202.946 2.71218 2.88543 0
M  V30 2078 H 204.12 4.55463 0.699263 0
M  V30 2079 H 202.435 4.0888 0.787792 0
M  V30 2080 H 205.032 3.98324 3.5671 0
M  V30 2081 H 205.375 2.27256 3.48798 0
M  V30 2082 H 205.908 3.33757 2.1645 0
M  V30 2083 H 202.647 6.30987 1.77582 0
M  V30 2084 H 202.167 5.16497 3.04945 0
M  V30 2085 H 203.846 5.75272 2.96093 0
M  V30 2086 N 203.978 -0.674533 1.42435 0
M  V30 2087 C 205.226 -1.43175 1.42637 0
M  V30 2088 C 205.547 -1.94951 0.0438992 0
M  V30 2089 O 204.817 -1.7308 -0.917607 0
M  V30 2090 H 203.397 -0.531307 0.525092 0
M  V30 2091 H 206.059 -0.797006 1.77859 0
M  V30 2092 H 205.155 -2.28463 2.12629 0
M  V30 2093 N 205.456 -1.28612 -0.910864 0
M  V30 2094 C 206.686 -1.1862 -1.69153 0
M  V30 2095 C 207.094 0.257324 -1.87442 0
M  V30 2096 O 206.437 1.18543 -1.40332 0
M  V30 2097 C 206.499 -1.81606 -3.10257 0
M  V30 2098 C 206.163 -3.30864 -3.15243 0
M  V30 2099 C 207.16 -4.27256 -2.96223 0
M  V30 2100 C 204.845 -3.71871 -3.37664 0
M  V30 2101 C 206.839 -5.62631 -2.99541 0
M  V30 2102 C 204.526 -5.07371 -3.40614 0
M  V30 2103 C 205.524 -6.02561 -3.21573 0
M  V30 2104 O 205.212 -7.35589 -3.2429 0
M  V30 2105 H 204.944 -0.412633 -0.535453 0
M  V30 2106 H 207.498 -1.70306 -1.14827 0
M  V30 2107 H 205.728 -1.24418 -3.66138 0
M  V30 2108 H 207.417 -1.66092 -3.70362 0
M  V30 2109 H 208.183 -3.9691 -2.78725 0
M  V30 2110 H 204.062 -2.98241 -3.5153 0
M  V30 2111 H 207.606 -6.36907 -2.84597 0
M  V30 2112 H 203.503 -5.37366 -3.57642 0
M  V30 2113 H 204.271 -7.44252 -3.40633 0
M  V30 2114 N 206.934 1.1197 -1.10907 0
M  V30 2115 C 208.182 1.83225 -0.852819 0
M  V30 2116 C 208.503 1.84769 0.623341 0
M  V30 2117 O 207.773 1.3143 1.45269 0
M  V30 2118 H 206.353 0.67849 -0.312507 0
M  V30 2119 H 209.015 1.3556 -1.40033 0
M  V30 2120 H 208.111 2.87265 -1.22005 0
M  V30 2121 N 208.412 0.89855 1.29475 0
M  V30 2122 C 209.689 0.443416 1.90508 0
M  V30 2123 C 210.069 -1.07685 1.81569 0
M  V30 2124 O 209.417 -1.9182 1.24166 0
M  V30 2125 C 209.627 0.956708 3.35631 0
M  V30 2126 C 210.975 0.999728 4.12663 0
M  V30 2127 O 211.999 0.904299 3.4453 0
M  V30 2128 O 210.858 1.14289 5.34416 0
M  V30 2129 H 207.952 0.138025 0.815401 0
M  V30 2130 H 210.498 0.98834 1.37949 0
M  V30 2131 H 209.27 2.00067 3.36287 0
M  V30 2132 H 208.893 0.391728 3.95666 0
M  V30 2133 N 209.89 -1.43072 0.660911 0
M  V30 2134 C 211.138 -2.01323 0.177094 0
M  V30 2135 C 211.459 -1.5245 -1.2159 0
M  V30 2136 O 210.729 -0.740322 -1.81373 0
M  V30 2137 H 209.309 -0.744382 0.0624804 0
M  V30 2138 H 211.971 -1.75179 0.854305 0
M  V30 2139 H 211.067 -3.11649 0.167641 0
M  V30 2140 N 211.368 -0.403325 -1.52352 0
M  V30 2141 C 212.593 0.176499 -2.06648 0
M  V30 2142 C 213.018 1.38577 -1.27193 0
M  V30 2143 O 212.376 1.7879 -0.300637 0
M  V30 2144 C 212.424 0.511061 -3.5696 0
M  V30 2145 O 211.528 1.60294 -3.79973 0
M  V30 2146 H 210.869 0.0167337 -0.663789 0
M  V30 2147 H 213.399 -0.574848 -1.96359 0
M  V30 2148 H 213.409 0.771362 -4.00642 0
M  V30 2149 H 212.084 -0.37296 -4.14224 0
M  V30 2150 H 210.661 1.33526 -3.48174 0
M  V30 2151 N 212.846 1.57033 -0.133567 0
M  V30 2152 C 214.071 2.00475 0.531477 0
M  V30 2153 C 214.496 1.01291 1.58499 0
M  V30 2154 O 213.854 -0.0133279 1.81295 0
M  V30 2155 C 213.902 3.42729 1.12113 0
M  V30 2156 O 213.006 3.46498 2.23636 0
M  V30 2157 H 212.347 0.650876 0.131362 0
M  V30 2158 H 214.877 2.03344 -0.22634 0
M  V30 2159 H 214.887 3.81246 1.4531 0
M  V30 2160 H 213.562 4.14428 0.349557 0
M  V30 2161 H 212.139 3.19811 1.91769 0
M  V30 2162 N 214.325 -0.140222 1.56975 0
M  V30 2163 C 215.55 -0.870414 1.88251 0
M  V30 2164 C 215.975 -1.73637 0.723312 0
M  V30 2165 O 215.333 -1.78329 -0.32689 0
M  V30 2166 C 215.381 -1.69737 3.18154 0
M  V30 2167 O 214.485 -2.80229 3.02565 0
M  V30 2168 H 213.826 -0.242025 0.61832 0
M  V30 2169 H 216.356 -0.128999 2.04193 0
M  V30 2170 H 216.366 -2.09099 3.50345 0
M  V30 2171 H 215.041 -1.06152 4.02125 0
M  V30 2172 H 213.618 -2.44224 2.81796 0
M  V30 2173 N 215.803 -1.52179 -0.40978 0
M  V30 2174 C 216.735 -1.71703 -1.51825 0
M  V30 2175 C 217.748 -0.597445 -1.51441 0
M  V30 2176 O 218.937 -0.872582 -1.55719 0
M  V30 2177 C 216.037 -1.74171 -2.90719 0
M  V30 2178 C 215.21 -3.03156 -3.15302 0
M  V30 2179 C 214.269 -2.97445 -4.34065 0
M  V30 2180 O 213.295 -3.71352 -4.31377 0
M  V30 2181 N 214.497 -2.15191 -5.39141 0
M  V30 2182 H 217.262 -2.67334 -1.35472 0
M  V30 2183 H 214.823 -1.50409 -0.599069 0
M  V30 2184 H 216.815 -1.67884 -3.68235 0
M  V30 2185 H 215.385 -0.860166 -3.00533 0
M  V30 2186 H 214.605 -3.23097 -2.25836 0
M  V30 2187 H 215.893 -3.88484 -3.28569 0
M  V30 2188 H 215.291 -1.54573 -5.44173 0
M  V30 2189 H 213.848 -2.1476 -6.15403 0
M  V30 2190 N 217.281 0.66697 -1.42791 0
M  V30 2191 C 218.529 1.42417 -1.43394 0
M  V30 2192 C 218.85 1.94925 -0.0542373 0
M  V30 2193 O 218.12 1.73564 0.908415 0
M  V30 2194 H 216.7 0.528515 -0.527902 0
M  V30 2195 H 219.362 0.787562 -1.78279 0
M  V30 2196 H 218.458 2.27333 -2.13837 0
M  V30 2197 N 218.759 1.29093 0.90403 0
M  V30 2198 C 219.987 1.19689 1.68766 0
M  V30 2199 C 220.402 -0.243113 1.87228 0
M  V30 2200 O 219.759 -1.16326 1.40621 0
M  V30 2201 C 219.81 1.90144 3.07453 0
M  V30 2202 O 219.531 3.2852 2.89838 0
M  V30 2203 C 221.032 1.87162 4.01852 0
M  V30 2204 H 218.252 0.415035 0.527244 0
M  V30 2205 H 220.796 1.7039 1.13082 0
M  V30 2206 H 218.951 1.43289 3.59926 0
M  V30 2207 H 219.365 3.63944 3.77684 0
M  V30 2208 H 220.839 2.41032 4.96596 0
M  V30 2209 H 221.316 0.84617 4.30972 0
M  V30 2210 H 221.922 2.33741 3.5531 0
M  V30 2211 N 220.237 -1.11381 1.11499 0
M  V30 2212 C 221.167 -2.19509 0.796125 0
M  V30 2213 C 222.148 -1.68458 -0.235796 0
M  V30 2214 O 223.333 -1.93947 -0.0991344 0
M  V30 2215 C 220.463 -3.46475 0.239205 0
M  V30 2216 C 219.417 -4.10744 1.20307 0
M  V30 2217 C 218.743 -5.32293 0.50683 0
M  V30 2218 C 220.043 -4.55597 2.55399 0
M  V30 2219 H 221.737 -2.46439 1.70024 0
M  V30 2220 H 219.283 -1.18446 0.818935 0
M  V30 2221 H 221.236 -4.214 0.00392006 0
M  V30 2222 H 219.96 -3.19006 -0.700206 0
M  V30 2223 H 218.619 -3.37813 1.42399 0
M  V30 2224 H 218.267 -5.01095 -0.437408 0
M  V30 2225 H 217.967 -5.76243 1.1497 0
M  V30 2226 H 219.491 -6.09956 0.280351 0
M  V30 2227 H 220.905 -5.21841 2.37391 0
M  V30 2228 H 219.302 -5.10363 3.15673 0
M  V30 2229 H 220.372 -3.69013 3.14575 0
M  V30 2230 N 221.715 -0.905404 -1.28997 0
M  V30 2231 C 222.945 -0.549049 -1.99171 0
M  V30 2232 C 223.353 0.87203 -1.67906 0
M  V30 2233 O 222.696 1.58796 -0.923561 0
M  V30 2234 C 222.758 -0.668306 -3.53234 0
M  V30 2235 C 222.422 -2.0574 -4.08069 0
M  V30 2236 C 223.419 -3.0292 -4.22534 0
M  V30 2237 C 221.104 -2.36833 -4.42962 0
M  V30 2238 C 223.098 -4.29314 -4.71135 0
M  V30 2239 C 220.785 -3.63467 -4.91258 0
M  V30 2240 C 221.783 -4.59522 -5.053 0
M  V30 2241 O 221.471 -5.83907 -5.52546 0
M  V30 2242 H 221.203 -0.208784 -0.64295 0
M  V30 2243 H 223.757 -1.21836 -1.65363 0
M  V30 2244 H 221.987 0.0580547 -3.86656 0
M  V30 2245 H 223.676 -0.320273 -4.04634 0
M  V30 2246 H 224.442 -2.80216 -3.95859 0
M  V30 2247 H 220.321 -1.62824 -4.31288 0
M  V30 2248 H 223.865 -5.04293 -4.8201 0
M  V30 2249 H 219.762 -3.86 -5.17372 0
M  V30 2250 H 220.53 -5.86578 -5.70849 0
M  V30 2251 N 223.193 1.4272 -0.668489 0
M  V30 2252 C 224.14 2.30796 0.0137489 0
M  V30 2253 C 225.11 1.4561 0.799177 0
M  V30 2254 O 226.295 1.74453 0.772702 0
M  V30 2255 C 223.435 3.31377 0.963507 0
M  V30 2256 C 222.548 4.31655 0.172569 0
M  V30 2257 C 221.683 5.19312 1.1175 0
M  V30 2258 C 220.722 6.11274 0.317886 0
M  V30 2259 N 219.859 6.91504 1.2152 0
M  V30 2260 H 224.699 2.88585 -0.743161 0
M  V30 2261 H 222.236 1.42154 -0.378226 0
M  V30 2262 H 224.194 3.88214 1.52792 0
M  V30 2263 H 222.824 2.75202 1.68712 0
M  V30 2264 H 221.876 3.76988 -0.508374 0
M  V30 2265 H 223.188 4.96779 -0.448527 0
M  V30 2266 H 222.342 5.80851 1.75206 0
M  V30 2267 H 221.081 4.5435 1.77249 0
M  V30 2268 H 220.086 5.48809 -0.329918 0
M  V30 2269 H 221.311 6.78283 -0.332917 0
M  V30 2270 H 219.257 6.29176 1.85671 0
M  V30 2271 H 219.174 7.53209 0.649036 0
M  V30 2272 H 220.442 7.57535 1.83742 0
M  V30 2273 N 224.671 0.411399 1.52136 0
M  V30 2274 C 225.948 -0.222308 1.94333 0
M  V30 2275 C 226.328 -1.6242 1.34844 0
M  V30 2276 O 225.676 -2.22384 0.525145 0
M  V30 2277 C 225.886 -0.226345 3.48265 0
M  V30 2278 C 227.234 -0.444592 4.22266 0
M  V30 2279 O 228.258 -0.305602 3.54887 0
M  V30 2280 O 227.117 -0.718749 5.41753 0
M  V30 2281 H 224.211 -0.143907 0.814383 0
M  V30 2282 H 226.757 0.467506 1.63133 0
M  V30 2283 H 225.529 0.75475 3.83952 0
M  V30 2284 H 225.152 -0.960163 3.85832 0
M  V30 2285 N 226.149 -1.5696 0.141893 0
M  V30 2286 C 227.377 -2.00322 -0.517579 0
M  V30 2287 C 227.792 -1.02193 -1.58752 0
M  V30 2288 O 227.149 -0.0181619 -1.82491 0
M  V30 2289 C 227.2 -3.43618 -1.12289 0
M  V30 2290 O 226.921 -4.37995 -0.0956929 0
M  V30 2291 C 228.422 -4.02231 -1.86347 0
M  V30 2292 H 225.642 -0.657243 -0.135177 0
M  V30 2293 H 228.186 -2.03146 0.234973 0
M  V30 2294 H 226.341 -3.41662 -1.82609 0
M  V30 2295 H 226.755 -5.21729 -0.538469 0
M  V30 2296 H 228.229 -5.04509 -2.23997 0
M  V30 2297 H 228.706 -3.42655 -2.74744 0
M  V30 2298 H 229.312 -4.07802 -1.20737 0
M  V30 2299 N 227.627 0.131896 -1.57047 0
M  V30 2300 C 228.873 0.843179 -1.84441 0
M  V30 2301 C 229.206 1.80129 -0.725749 0
M  V30 2302 O 228.481 1.92624 0.269469 0
M  V30 2303 C 228.764 1.60442 -3.22382 0
M  V30 2304 C 228.617 0.666782 -4.4483 0
M  V30 2305 C 229.936 2.56354 -3.5773 0
M  V30 2306 H 227.055 0.305081 -0.670891 0
M  V30 2307 H 229.697 0.107839 -1.89694 0
M  V30 2308 H 227.847 2.23128 -3.18035 0
M  V30 2309 H 229.519 0.0497646 -4.61273 0
M  V30 2310 H 227.762 -0.022609 -4.33794 0
M  V30 2311 H 228.433 1.23579 -5.37989 0
M  V30 2312 H 230.909 2.0378 -3.62785 0
M  V30 2313 H 229.785 3.06657 -4.5525 0
M  V30 2314 H 230.046 3.38419 -2.84473 0
M  V30 2315 N 229.106 1.52395 0.401703 0
M  V30 2316 C 230.354 1.66488 1.14569 0
M  V30 2317 C 230.675 0.400897 1.90835 0
M  V30 2318 O 229.945 -0.584415 1.8698 0
M  V30 2319 H 228.525 0.613672 0.425929 0
M  V30 2320 H 231.187 1.89464 0.457093 0
M  V30 2321 H 230.283 2.50942 1.85566 0
M  V30 2322 N 230.584 -0.659388 1.43143 0
M  V30 2323 C 231.831 -1.41935 1.44433 0
M  V30 2324 C 232.159 -1.94387 0.0663522 0
M  V30 2325 O 231.414 -1.72314 -0.927706 0
M  V30 2326 C 231.713 -2.62206 2.42864 0
M  V30 2327 C 231.379 -2.28208 3.88886 0
M  V30 2328 C 230.041 -2.18647 4.28657 0
M  V30 2329 C 232.393 -2.00887 4.8093 0
M  V30 2330 C 229.721 -1.79914 5.58433 0
M  V30 2331 C 232.073 -1.63653 6.11065 0
M  V30 2332 C 230.737 -1.52614 6.49819 0
M  V30 2333 H 230.007 -0.519376 0.528517 0
M  V30 2334 H 232.654 -0.750453 1.76183 0
M  V30 2335 H 230.959 -3.34199 2.04495 0
M  V30 2336 H 232.656 -3.2041 2.41119 0
M  V30 2337 H 229.246 -2.36557 3.57406 0
M  V30 2338 H 233.43 -2.07198 4.5098 0
M  V30 2339 H 228.686 -1.69948 5.87305 0
M  V30 2340 H 232.86 -1.41543 6.81864 0
M  V30 2341 H 230.487 -1.22371 7.50286 0
M  V30 2342 N 232.062 -1.29571 -0.897171 0
M  V30 2343 C 233.31 -1.17456 -1.64464 0
M  V30 2344 C 233.631 0.273698 -1.9307 0
M  V30 2345 O 232.901 1.18684 -1.55855 0
M  V30 2346 H 231.481 -0.431706 -0.609622 0
M  V30 2347 H 234.143 -1.62531 -1.07562 0
M  V30 2348 H 233.239 -1.72648 -2.59998 0
M  V30 2349 N 233.54 1.10788 -1.12088 0
M  V30 2350 C 234.788 1.8231 -0.872205 0
M  V30 2351 C 235.109 1.85419 0.603709 0
M  V30 2352 O 234.379 1.32963 1.43867 0
M  V30 2353 H 232.959 0.675137 -0.319686 0
M  V30 2354 H 235.621 1.34068 -1.41463 0
M  V30 2355 H 234.717 2.85955 -1.25045 0
M  V30 2356 N 235.018 0.912232 1.28515 0
M  V30 2357 C 236.264 0.545405 1.95328 0
M  V30 2358 C 236.597 -0.908313 1.71649 0
M  V30 2359 O 235.872 -1.64575 1.03659 0
M  V30 2360 C 236.155 0.853483 3.4984 0
M  V30 2361 C 236.008 2.35982 3.82926 0
M  V30 2362 C 237.327 0.348589 4.38717 0
M  V30 2363 H 234.446 0.199626 0.709449 0
M  V30 2364 H 237.088 1.1412 1.5191 0
M  V30 2365 H 235.238 0.34643 3.86952 0
M  V30 2366 H 236.91 2.93738 3.55691 0
M  V30 2367 H 235.153 2.81543 3.30024 0
M  V30 2368 H 235.824 2.52593 4.90816 0
M  V30 2369 H 238.3 0.78294 4.08668 0
M  V30 2370 H 237.176 0.593242 5.45685 0
M  V30 2371 H 237.437 -0.751049 4.35674 0
M  V30 2372 N 236.496 -1.42363 0.676048 0
M  V30 2373 C 237.721 -2.06377 0.205705 0
M  V30 2374 C 238.146 -1.50463 -1.12883 0
M  V30 2375 O 237.504 -0.623619 -1.70237 0
M  V30 2376 C 237.552 -3.60277 0.152655 0
M  V30 2377 O 236.656 -4.02935 -0.87845 0
M  V30 2378 H 235.997 -0.655588 0.105359 0
M  V30 2379 H 238.527 -1.82475 0.925412 0
M  V30 2380 H 238.537 -4.07993 -0.0230675 0
M  V30 2381 H 237.212 -4.00346 1.12675 0
M  V30 2382 H 235.789 -3.66764 -0.673668 0
M  V30 2383 N 237.974 -0.419461 -1.51915 0
M  V30 2384 C 239.223 0.154346 -2.01109 0
M  V30 2385 C 239.536 1.45338 -1.30905 0
M  V30 2386 O 240.742 2.10906 -1.7097 0
M  V30 2387 C 239.198 0.325615 -3.58424 0
M  V30 2388 C 238.806 -0.961934 -4.37551 0
M  V30 2389 C 240.55 0.854155 -4.15818 0
M  V30 2390 C 238.457 -0.757287 -5.86531 0
M  V30 2391 H 237.387 0.0614563 -0.751491 0
M  V30 2392 H 240.038 -0.54649 -1.75173 0
M  V30 2393 H 238.42 1.08903 -3.80731 0
M  V30 2394 H 239.594 -1.7323 -4.26999 0
M  V30 2395 H 237.909 -1.41766 -3.91524 0
M  V30 2396 H 240.506 1.02346 -5.24814 0
M  V30 2397 H 240.849 1.83172 -3.73837 0
M  V30 2398 H 241.382 0.149528 -3.97519 0
M  V30 2399 H 238.121 -1.70671 -6.32892 0
M  V30 2400 H 237.641 -0.0264061 -5.99794 0
M  V30 2401 H 239.32 -0.403482 -6.45741 0
M  V30 2402 N 239.452 1.56882 -0.150215 0
M  V30 2403 C 240.399 2.16922 0.788244 0
M  V30 2404 C 241.369 1.10303 1.24187 0
M  V30 2405 O 242.554 1.38359 1.31383 0
M  V30 2406 C 239.694 2.79754 2.02068 0
M  V30 2407 C 238.807 4.00775 1.61257 0
M  V30 2408 C 237.942 4.51595 2.79705 0
M  V30 2409 C 236.981 5.65074 2.35282 0
M  V30 2410 N 236.118 6.10499 3.4675 0
M  V30 2411 H 240.958 2.96779 0.269444 0
M  V30 2412 H 238.495 1.46599 0.12128 0
M  V30 2413 H 240.453 3.14329 2.74323 0
M  V30 2414 H 239.083 2.02536 2.51354 0
M  V30 2415 H 238.135 3.72158 0.787553 0
M  V30 2416 H 239.447 4.82978 1.24633 0
M  V30 2417 H 238.601 4.88242 3.60145 0
M  V30 2418 H 237.34 3.68406 3.19576 0
M  V30 2419 H 236.345 5.28 1.53283 0
M  V30 2420 H 237.57 6.50052 1.96493 0
M  V30 2421 H 235.516 5.30243 3.86236 0
M  V30 2422 H 235.433 6.87637 3.14152 0
M  V30 2423 H 236.701 6.51791 4.27537 0
M  V30 2424 N 240.93 -0.123565 1.57115 0
M  V30 2425 C 241.878 -1.17082 2.00984 0
M  V30 2426 C 242.872 -1.43136 0.906009 0
M  V30 2427 O 244.078 -1.43152 1.09121 0
M  V30 2428 H 240.453 -0.394653 0.64012 0
M  V30 2429 H 242.424 -0.774292 2.88179 0
M  V30 2430 C 241.173 -2.49057 2.42623 0
M  V30 2431 H 240.496 -2.29846 3.27125 0
M  V30 2432 H 241.936 -3.20906 2.7712 0
M  V30 2433 C 240.395 -3.11305 1.28805 0
M  V30 2434 O 240.925 -3.97171 0.60153 0
M  V30 2435 N 239.131 -2.71111 1.04628 0
M  V30 2436 H 238.678 -2.01382 1.60634 0
M  V30 2437 H 238.636 -3.1309 0.286685 0
M  V30 2438 N 242.408 -1.52605 -0.393616 0
M  V30 2439 C 243.34 -1.73303 -1.49995 0
M  V30 2440 C 244.353 -0.613473 -1.50799 0
M  V30 2441 O 245.542 -0.889049 -1.54784 0
M  V30 2442 C 242.642 -1.77245 -2.88855 0
M  V30 2443 C 241.815 -3.06483 -3.12069 0
M  V30 2444 C 240.874 -3.02033 -4.30886 0
M  V30 2445 O 239.9 -3.75907 -4.27414 0
M  V30 2446 N 241.102 -2.20897 -5.36828 0
M  V30 2447 H 243.867 -2.68756 -1.32629 0
M  V30 2448 H 241.428 -1.51036 -0.583083 0
M  V30 2449 H 243.42 -1.7178 -3.66434 0
M  V30 2450 H 241.99 -0.891993 -2.99603 0
M  V30 2451 H 241.21 -3.25474 -2.22396 0
M  V30 2452 H 242.498 -3.91947 -3.2443 0
M  V30 2453 H 241.896 -1.60336 -5.42502 0
M  V30 2454 H 240.453 -2.21275 -6.13091 0
M  V30 2455 N 243.887 0.651787 -1.4349 0
M  V30 2456 C 245.133 1.41376 -1.45398 0
M  V30 2457 C 245.466 1.94041 -0.0784823 0
M  V30 2458 O 244.741 1.72379 0.900878 0
M  V30 2459 C 245.024 2.59414 -2.49752 0
M  V30 2460 C 244.877 2.12232 -3.96582 0
M  V30 2461 C 246.196 3.61626 -2.50827 0
M  V30 2462 H 243.315 0.512719 -0.529422 0
M  V30 2463 H 245.957 0.738796 -1.75048 0
M  V30 2464 H 244.107 3.16997 -2.246 0
M  V30 2465 H 245.779 1.59639 -4.32797 0
M  V30 2466 H 244.022 1.43592 -4.09346 0
M  V30 2467 H 244.693 2.9712 -4.65214 0
M  V30 2468 H 247.169 3.13805 -2.7325 0
M  V30 2469 H 246.045 4.41766 -3.25783 0
M  V30 2470 H 246.306 4.14314 -1.5426 0
M  V30 2471 N 245.365 1.30045 0.890287 0
M  V30 2472 C 246.295 1.18541 2.01172 0
M  V30 2473 C 247.276 0.0773356 1.69924 0
M  V30 2474 O 248.461 0.25845 1.92473 0
M  V30 2475 C 245.591 0.870941 3.36202 0
M  V30 2476 C 244.545 1.93637 3.81692 0
M  V30 2477 C 243.871 1.475 5.13953 0
M  V30 2478 C 245.171 3.34666 4.00994 0
M  V30 2479 H 246.865 2.12359 2.11054 0
M  V30 2480 H 244.411 1.02238 1.01407 0
M  V30 2481 H 246.364 0.777141 4.14172 0
M  V30 2482 H 245.088 -0.102926 3.26438 0
M  V30 2483 H 243.747 2.01972 3.05946 0
M  V30 2484 H 243.395 0.489551 5.00612 0
M  V30 2485 H 243.095 2.1876 5.4536 0
M  V30 2486 H 244.619 1.39489 5.94454 0
M  V30 2487 H 246.033 3.2912 4.69417 0
M  V30 2488 H 244.43 4.03966 4.43769 0
M  V30 2489 H 245.5 3.76949 3.05021 0
M  V30 2490 N 246.843 -1.10192 1.12674 0
M  V30 2491 C 247.806 -2.14786 0.799979 0
M  V30 2492 C 248.806 -1.59711 -0.18685 0
M  V30 2493 O 249.996 -1.74156 0.0392558 0
M  V30 2494 C 247.128 -3.40374 0.189228 0
M  V30 2495 H 248.321 -2.45203 1.72671 0
M  V30 2496 H 245.874 -1.25597 0.930326 0
M  V30 2497 H 246.609 -3.15577 -0.747107 0
M  V30 2498 H 246.394 -3.81637 0.899766 0
M  V30 2499 H 247.884 -4.17594 -0.0228143 0
M  V30 2500 N 248.321 -0.919034 -1.28029 0
M  V30 2501 C 249.598 -0.473668 -1.89778 0
M  V30 2502 C 249.978 1.04783 -1.83259 0
M  V30 2503 O 249.326 1.8982 -1.27202 0
M  V30 2504 C 249.536 -1.00998 -3.34066 0
M  V30 2505 C 250.884 -1.06525 -4.1102 0
M  V30 2506 O 251.908 -0.958996 -3.43048 0
M  V30 2507 O 250.767 -1.22776 -5.3253 0
M  V30 2508 H 247.861 -0.15098 -0.813101 0
M  V30 2509 H 250.407 -1.01016 -1.36359 0
M  V30 2510 H 249.179 -2.05392 -3.33061 0
M  V30 2511 H 248.802 -0.454626 -3.94992 0
M  V30 2512 N 249.799 1.42003 -0.683588 0
M  V30 2513 C 251.045 2.01712 -0.209825 0
M  V30 2514 C 251.378 1.53968 1.18353 0
M  V30 2515 O 250.653 0.745661 1.79639 0
M  V30 2516 C 250.936 3.59202 -0.254197 0
M  V30 2517 C 250.789 4.17102 -1.68363 0
M  V30 2518 C 252.108 4.38344 0.392709 0
M  V30 2519 H 249.227 0.732891 -0.0777189 0
M  V30 2520 H 251.869 1.68909 -0.87004 0
M  V30 2521 H 250.019 3.87278 0.307954 0
M  V30 2522 H 251.691 3.99946 -2.29871 0
M  V30 2523 H 249.934 3.72597 -2.22157 0
M  V30 2524 H 250.605 5.26249 -1.6663 0
M  V30 2525 H 253.081 4.16011 -0.0859162 0
M  V30 2526 H 251.957 5.47901 0.331063 0
M  V30 2527 H 252.218 4.16887 1.47164 0
M  V30 2528 N 251.277 0.427512 1.51691 0
M  V30 2529 C 252.554 -0.201684 1.94557 0
M  V30 2530 C 252.934 -1.60981 1.36559 0
M  V30 2531 O 252.282 -2.21814 0.548702 0
M  V30 2532 C 252.492 -0.189394 3.48486 0
M  V30 2533 C 253.84 -0.39978 4.22714 0
M  V30 2534 O 254.864 -0.267945 3.55191 0
M  V30 2535 O 253.723 -0.661249 5.42485 0
M  V30 2536 H 250.817 -0.135261 0.815864 0
M  V30 2537 H 253.363 0.484782 1.62628 0
M  V30 2538 H 252.135 0.795431 3.8313 0
M  V30 2539 H 251.758 -0.919187 3.86829 0
M  V30 2540 N 252.755 -1.56801 0.158532 0
M  V30 2541 C 253.98 -2.01295 -0.499516 0
M  V30 2542 C 254.405 -1.03799 -1.56867 0
M  V30 2543 O 253.763 -0.0155162 -1.81293 0
M  V30 2544 C 253.811 -3.44469 -1.06647 0
M  V30 2545 O 252.915 -3.50012 -2.18095 0
M  V30 2546 H 252.256 -0.652884 -0.12099 0
M  V30 2547 H 254.786 -2.02958 0.258661 0
M  V30 2548 H 254.796 -3.8351 -1.39227 0
M  V30 2549 H 253.471 -4.14932 -0.283581 0
M  V30 2550 H 252.048 -3.22822 -1.86656 0
M  V30 2551 N 254.233 0.115231 -1.57178 0
M  V30 2552 C 255.461 0.836437 -1.89239 0
M  V30 2553 C 255.876 1.73256 -0.750175 0
M  V30 2554 O 255.233 1.80357 0.278832 0
M  V30 2555 C 255.284 1.66671 -3.20785 0
M  V30 2556 O 255.005 0.806652 -4.3061 0
M  V30 2557 C 256.506 2.49274 -3.66575 0
M  V30 2558 H 253.726 0.240253 -0.626514 0
M  V30 2559 H 256.27 0.0984932 -2.04263 0
M  V30 2560 H 254.425 2.35737 -3.0742 0
M  V30 2561 H 254.839 1.37969 -5.06028 0
M  V30 2562 H 256.313 3.03055 -4.6137 0
M  V30 2563 H 256.79 3.26807 -2.93417 0
M  V30 2564 H 257.396 1.85443 -3.82741 0
M  V30 2565 N 255.711 1.52812 0.385517 0
M  V30 2566 C 256.936 1.72207 1.15583 0
M  V30 2567 C 257.361 0.441034 1.82857 0
M  V30 2568 O 256.719 -0.603465 1.70962 0
M  V30 2569 C 256.767 2.87476 2.17692 0
M  V30 2570 O 255.871 2.54693 3.24354 0
M  V30 2571 H 255.212 0.572526 0.336319 0
M  V30 2572 H 257.742 1.99618 0.448744 0
M  V30 2573 H 257.752 3.13072 2.6163 0
M  V30 2574 H 256.427 3.80408 1.68115 0
M  V30 2575 H 255.004 2.3985 2.85529 0
M  V30 2576 N 257.189 -0.644168 1.43834 0
M  V30 2577 C 258.438 -1.39985 1.45214 0
M  V30 2578 C 258.751 -1.95421 0.0835494 0
M  V30 2579 O 259.957 -2.71488 -0.0251748 0
M  V30 2580 C 258.413 -2.53384 2.55587 0
M  V30 2581 C 258.021 -2.04517 3.98594 0
M  V30 2582 C 259.765 -3.30685 2.66172 0
M  V30 2583 C 257.672 -3.1518 5.00416 0
M  V30 2584 H 256.602 -0.526005 0.540218 0
M  V30 2585 H 259.253 -0.694367 1.69855 0
M  V30 2586 H 257.635 -3.26446 2.24163 0
M  V30 2587 H 258.809 -1.38405 4.39523 0
M  V30 2588 H 257.124 -1.40068 3.92135 0
M  V30 2589 H 259.721 -4.13158 3.39418 0
M  V30 2590 H 260.064 -3.79312 1.71546 0
M  V30 2591 H 260.597 -2.64708 2.96942 0
M  V30 2592 H 257.336 -2.71511 5.96625 0
M  V30 2593 H 256.856 -3.79974 4.64091 0
M  V30 2594 H 258.535 -3.80166 5.23529 0
M  V30 2595 N 258.668 -1.30515 -0.883378 0
M  V30 2596 C 259.945 -1.10086 -1.6168 0
M  V30 2597 C 260.325 0.349269 -2.08191 0
M  V30 2598 O 259.673 1.34105 -1.85008 0
M  V30 2599 C 259.883 -2.10315 -2.78511 0
M  V30 2600 C 261.231 -2.42119 -3.48803 0
M  V30 2601 O 262.255 -2.08638 -2.88702 0
M  V30 2602 O 261.114 -2.99396 -4.57192 0
M  V30 2603 H 258.208 -0.422907 -0.710689 0
M  V30 2604 H 260.754 -1.41947 -0.930015 0
M  V30 2605 H 259.526 -3.07917 -2.41459 0
M  V30 2606 H 259.149 -1.79282 -3.54886 0
M  V30 2607 N 260.146 1.09593 -1.13257 0
M  V30 2608 C 261.078 2.16015 -0.766167 0
M  V30 2609 C 262.091 1.61423 0.211303 0
M  V30 2610 O 263.28 1.78498 -0.00863946 0
M  V30 2611 C 260.38 3.38706 -0.114662 0
M  V30 2612 C 259.553 4.22717 -1.12379 0
M  V30 2613 C 258.612 5.23835 -0.498301 0
M  V30 2614 O 257.638 5.573 -1.15781 0
M  V30 2615 N 258.84 5.75886 0.730417 0
M  V30 2616 H 261.605 2.48055 -1.68193 0
M  V30 2617 H 259.166 1.25292 -1.02535 0
M  V30 2618 H 261.158 4.03464 0.315991 0
M  V30 2619 H 259.728 3.04569 0.704011 0
M  V30 2620 H 258.948 3.54122 -1.73179 0
M  V30 2621 H 260.236 4.75673 -1.80589 0
M  V30 2622 H 259.634 5.50911 1.28504 0
M  V30 2623 H 258.191 6.42387 1.10376 0
M  V30 2624 N 261.624 0.925811 1.2754 0
M  V30 2625 C 262.872 0.564138 1.94067 0
M  V30 2626 C 263.193 -0.897188 1.73134 0
M  V30 2627 O 262.463 -1.63573 1.07799 0
M  V30 2628 H 261.043 0.205645 0.718136 0
M  V30 2629 H 263.705 1.1778 1.55287 0
M  V30 2630 H 262.801 0.76881 3.02483 0
M  V30 2631 N 263.102 -1.41638 0.69111 0
M  V30 2632 C 264.351 -2.00526 0.217318 0
M  V30 2633 C 264.664 -1.55353 -1.18848 0
M  V30 2634 O 265.87 -2.06769 -1.75951 0
M  V30 2635 C 264.326 -3.58313 0.337639 0
M  V30 2636 C 263.934 -4.12469 1.74852 0
M  V30 2637 C 265.678 -4.24431 -0.0766066 0
M  V30 2638 C 263.585 -5.62675 1.82074 0
M  V30 2639 H 262.515 -0.750008 0.0774893 0
M  V30 2640 H 265.166 -1.6217 0.858661 0
M  V30 2641 H 263.548 -3.9425 -0.371879 0
M  V30 2642 H 264.722 -3.8796 2.48644 0
M  V30 2643 H 263.037 -3.58861 2.11205 0
M  V30 2644 H 265.634 -5.34683 -0.0430284 0
M  V30 2645 H 265.977 -4.01101 -1.1146 0
M  V30 2646 H 266.51 -3.93512 0.582476 0
M  V30 2647 H 263.249 -5.90826 2.83911 0
M  V30 2648 H 262.769 -5.89124 1.12661 0
M  V30 2649 H 264.448 -6.27371 1.58159 0
M  V30 2650 N 264.58 -0.43555 -1.51462 0
M  V30 2651 C 265.51 0.367376 -2.30592 0
M  V30 2652 C 266.491 1.02263 -1.35928 0
M  V30 2653 O 267.676 1.02661 -1.64847 0
M  V30 2654 C 264.806 1.46983 -3.14664 0
M  V30 2655 C 263.76 0.938161 -4.17591 0
M  V30 2656 C 263.086 2.13622 -4.90173 0
M  V30 2657 C 264.386 -0.0261621 -5.22293 0
M  V30 2658 H 266.08 -0.292969 -2.97963 0
M  V30 2659 H 263.626 -0.14234 -1.43295 0
M  V30 2660 H 265.579 2.03873 -3.688 0
M  V30 2661 H 264.303 2.15843 -2.4511 0
M  V30 2662 H 262.962 0.391481 -3.64504 0
M  V30 2663 H 262.61 2.81098 -4.17124 0
M  V30 2664 H 262.31 1.78688 -5.59772 0
M  V30 2665 H 263.834 2.7107 -5.47132 0
M  V30 2666 H 265.248 0.452384 -5.71512 0
M  V30 2667 H 263.645 -0.287992 -5.99409 0
M  V30 2668 H 264.715 -0.963391 -4.75233 0
M  V30 2669 N 266.058 1.56714 -0.166846 0
M  V30 2670 C 267.306 1.96358 0.478305 0
M  V30 2671 C 267.627 1.0537 1.6408 0
M  V30 2672 O 266.897 0.119154 1.95537 0
M  V30 2673 H 265.477 0.725065 0.179692 0
M  V30 2674 H 268.139 1.93329 -0.246985 0
M  V30 2675 H 267.235 3.00547 0.841292 0
M  V30 2676 N 267.536 -0.106894 1.57237 0
M  V30 2677 C 268.782 -0.81373 1.85759 0
M  V30 2678 C 269.115 -1.78952 0.754315 0
M  V30 2679 O 268.39 -1.93029 -0.23879 0
M  V30 2680 C 268.673 -1.55293 3.24894 0
M  V30 2681 C 268.526 -0.595929 4.45835 0
M  V30 2682 C 269.845 -2.5063 3.61763 0
M  V30 2683 H 266.964 -0.294369 0.67566 0
M  V30 2684 H 269.606 -0.0776472 1.89841 0
M  V30 2685 H 267.756 -2.1804 3.21544 0
M  V30 2686 H 269.428 0.0236262 4.61294 0
M  V30 2687 H 267.671 0.0916191 4.33703 0
M  V30 2688 H 268.342 -1.15004 5.39887 0
M  V30 2689 H 270.818 -1.97982 3.65981 0
M  V30 2690 H 269.694 -2.99376 4.60071 0
M  V30 2691 H 269.955 -3.3385 2.89821 0
M  V30 2692 N 269.014 -1.53014 -0.377408 0
M  V30 2693 C 270.262 -1.6829 -1.11906 0
M  V30 2694 C 270.583 -0.431206 -1.90173 0
M  V30 2695 O 269.853 0.554595 -1.87886 0
M  V30 2696 H 268.433 -0.620371 -0.416112 0
M  V30 2697 H 271.095 -1.90167 -0.426893 0
M  V30 2698 H 270.191 -2.53862 -1.8155 0
M  V30 2699 N 270.492 0.636531 -1.44174 0
M  V30 2700 C 271.722 1.42146 -1.49927 0
M  V30 2701 C 272.13 1.88812 -0.121063 0
M  V30 2702 O 271.473 1.61126 0.882267 0
M  V30 2703 C 271.535 2.67883 -2.39748 0
M  V30 2704 C 271.199 2.43048 -3.8701 0
M  V30 2705 C 272.196 2.05216 -4.77684 0
M  V30 2706 C 269.881 2.56856 -4.3166 0
M  V30 2707 C 271.875 1.81512 -6.11009 0
M  V30 2708 C 269.562 2.32766 -5.65034 0
M  V30 2709 C 270.56 1.95152 -6.54526 0
M  V30 2710 O 270.248 1.71326 -7.85431 0
M  V30 2711 H 269.98 0.442567 -0.51099 0
M  V30 2712 H 272.534 0.786158 -1.8976 0
M  V30 2713 H 270.764 3.34032 -1.94832 0
M  V30 2714 H 272.453 3.29874 -2.36513 0
M  V30 2715 H 273.219 1.94111 -4.44462 0
M  V30 2716 H 269.098 2.85104 -3.62266 0
M  V30 2717 H 272.642 1.52077 -6.80822 0
M  V30 2718 H 268.539 2.43479 -5.97819 0
M  V30 2719 H 269.307 1.85616 -7.97176 0
M  V30 2720 N 271.97 1.30982 0.876444 0
M  V30 2721 C 272.917 1.18085 1.98304 0
M  V30 2722 C 273.887 0.0682263 1.6596 0
M  V30 2723 O 275.072 0.239937 1.89285 0
M  V30 2724 C 272.212 0.887475 3.33493 0
M  V30 2725 C 271.325 2.08281 3.78475 0
M  V30 2726 C 270.46 1.72678 5.0235 0
M  V30 2727 C 269.499 2.88657 5.39762 0
M  V30 2728 N 268.636 2.53292 6.54819 0
M  V30 2729 H 273.476 2.1275 2.08666 0
M  V30 2730 H 271.013 1.05839 1.02159 0
M  V30 2731 H 272.971 0.697961 4.1132 0
M  V30 2732 H 271.601 -0.022315 3.22792 0
M  V30 2733 H 270.653 2.3833 2.96484 0
M  V30 2734 H 271.965 2.95108 4.02135 0
M  V30 2735 H 271.119 1.50151 5.87826 0
M  V30 2736 H 269.858 0.830327 4.8058 0
M  V30 2737 H 268.863 3.1184 4.52809 0
M  V30 2738 H 270.088 3.79002 5.63502 0
M  V30 2739 H 268.034 1.66163 6.34607 0
M  V30 2740 H 267.951 3.3365 6.7839 0
M  V30 2741 H 269.219 2.34143 7.43503 0
M  V30 2742 N 273.449 -1.08991 1.13837 0
M  V30 2743 C 274.677 -1.85011 0.926202 0
M  V30 2744 C 275.092 -1.8135 -0.525127 0
M  V30 2745 O 274.449 -1.21287 -1.36366 0
M  V30 2746 C 274.5 -3.32802 1.41155 0
M  V30 2747 O 274.221 -3.36444 2.80601 0
M  V30 2748 C 275.722 -4.25649 1.23847 0
M  V30 2749 H 272.942 -0.584249 0.32999 0
M  V30 2750 H 275.486 -1.37688 1.51202 0
M  V30 2751 H 273.641 -3.77536 0.868631 0
M  V30 2752 H 274.055 -4.28657 3.02248 0
M  V30 2753 H 275.529 -5.27485 1.62675 0
M  V30 2754 H 276.006 -4.38828 0.18065 0
M  V30 2755 H 276.612 -3.86735 1.76964 0
M  V30 2756 N 274.927 -0.932562 -1.27047 0
M  V30 2757 C 275.875 -0.42603 -2.28665 0
M  V30 2758 C 276.869 0.49219 -1.62092 0
M  V30 2759 O 278.075 0.371355 -1.76128 0
M  V30 2760 H 274.45 -0.119213 -0.742491 0
M  V30 2761 H 276.421 -1.29579 -2.68797 0
M  V30 2762 C 275.17 0.301426 -3.46391 0
M  V30 2763 H 274.493 -0.39595 -3.97834 0
M  V30 2764 H 275.933 0.6202 -4.1944 0
M  V30 2765 C 274.392 1.51616 -3.00856 0
M  V30 2766 O 274.922 2.61476 -3.04948 0
M  V30 2767 N 273.128 1.36969 -2.56296 0
M  V30 2768 H 272.675 0.475873 -2.53166 0
M  V30 2769 H 272.633 2.18368 -2.26192 0
M  V30 2770 N 276.405 1.4127 -0.698611 0
M  V30 2771 C 277.315 2.34573 -0.0357891 0
M  V30 2772 C 278.331 1.56393 0.762701 0
M  V30 2773 O 279.507 1.8886 0.699564 0
M  V30 2774 C 276.572 3.35159 0.887089 0
M  V30 2775 C 275.633 4.29225 0.0804634 0
M  V30 2776 C 274.866 5.25006 0.959387 0
M  V30 2777 O 275.089 5.26314 2.19886 0
M  V30 2778 O 274.023 6.00519 0.407439 0
M  V30 2779 H 277.849 2.92838 -0.804957 0
M  V30 2780 H 275.434 1.42175 -0.458966 0
M  V30 2781 H 277.316 3.9689 1.41621 0
M  V30 2782 H 275.991 2.79333 1.6357 0
M  V30 2783 H 274.898 3.70833 -0.493328 0
M  V30 2784 H 276.231 4.88157 -0.629547 0
M  V30 2785 N 277.883 0.443576 1.51229 0
M  V30 2786 C 278.846 -0.353132 2.26463 0
M  V30 2787 C 279.846 -0.944338 1.3015 0
M  V30 2788 O 281.036 -0.817813 1.5381 0
M  V30 2789 C 278.168 -1.50023 3.06114 0
M  V30 2790 H 279.361 0.3063 2.98332 0
M  V30 2791 H 276.914 0.196902 1.55055 0
M  V30 2792 H 277.649 -2.19553 2.38677 0
M  V30 2793 H 277.434 -1.08241 3.76864 0
M  V30 2794 H 278.924 -2.06296 3.63087 0
M  V30 2795 N 279.361 -1.56624 0.175154 0
M  V30 2796 C 280.609 -1.96609 -0.467885 0
M  V30 2797 C 280.93 -1.06238 -1.63519 0
M  V30 2798 O 280.2 -0.129523 -1.95471 0
M  V30 2799 H 278.78 -0.726008 -0.175845 0
M  V30 2800 H 281.442 -1.93195 0.257234 0
M  V30 2801 H 280.538 -3.00989 -0.825342 0
M  V30 2802 N 280.839 0.0985539 -1.57292 0
M  V30 2803 C 282.087 0.801092 -1.85545 0
M  V30 2804 C 282.408 1.79438 -0.763353 0
M  V30 2805 O 281.678 1.94763 0.21073 0
M  V30 2806 H 280.258 0.29884 -0.684619 0
M  V30 2807 H 282.92 0.0810064 -1.94732 0
M  V30 2808 H 282.016 1.3338 -2.82163 0
M  V30 2809 N 282.317 1.53212 0.369288 0
M  V30 2810 C 283.542 1.73423 1.1375 0
M  V30 2811 C 283.967 0.460404 1.82378 0
M  V30 2812 O 283.325 -0.585298 1.71592 0
M  V30 2813 C 283.373 2.89769 2.1463 0
M  V30 2814 O 282.477 2.58119 3.21634 0
M  V30 2815 H 281.818 0.576061 0.330227 0
M  V30 2816 H 284.348 2.00083 0.427547 0
M  V30 2817 H 284.358 3.15829 2.58294 0
M  V30 2818 H 283.033 3.8217 1.64071 0
M  V30 2819 H 281.61 2.42864 2.82969 0
M  V30 2820 N 283.795 -0.628877 1.44509 0
M  V30 2821 C 285.025 -1.41349 1.50678 0
M  V30 2822 C 285.433 -1.88745 0.131075 0
M  V30 2823 O 284.776 -1.61592 -0.87371 0
M  V30 2824 C 284.838 -2.66608 2.41165 0
M  V30 2825 C 284.502 -2.40993 3.88293 0
M  V30 2826 C 285.499 -2.0268 4.78766 0
M  V30 2827 C 283.184 -2.54563 4.33016 0
M  V30 2828 C 285.178 -1.78269 6.11963 0
M  V30 2829 C 282.865 -2.29766 5.6626 0
M  V30 2830 C 283.863 -1.91678 6.55552 0
M  V30 2831 O 283.551 -1.67158 7.86329 0
M  V30 2832 H 283.283 -0.439851 0.51333 0
M  V30 2833 H 285.837 -0.776084 1.90174 0
M  V30 2834 H 284.067 -3.32994 1.96601 0
M  V30 2835 H 285.756 -3.28615 2.38259 0
M  V30 2836 H 286.522 -1.91751 4.45485 0
M  V30 2837 H 282.401 -2.83179 3.63773 0
M  V30 2838 H 285.945 -1.48465 6.81619 0
M  V30 2839 H 281.842 -2.40306 5.99102 0
M  V30 2840 H 282.61 -1.81386 7.98149 0
M  V30 2841 N 285.273 -1.31445 -0.869486 0
M  V30 2842 C 286.55 -1.11795 -1.60503 0
M  V30 2843 C 286.93 0.327168 -2.08549 0
M  V30 2844 O 286.278 1.32135 -1.8642 0
M  V30 2845 C 286.488 -2.13258 -2.76265 0
M  V30 2846 C 287.836 -2.45805 -3.46215 0
M  V30 2847 O 288.86 -2.11688 -2.86473 0
M  V30 2848 O 287.719 -3.04228 -4.5399 0
M  V30 2849 H 284.813 -0.430421 -0.706163 0
M  V30 2850 H 287.359 -1.42925 -0.914907 0
M  V30 2851 H 286.131 -3.10461 -2.3818 0
M  V30 2852 H 285.754 -1.83035 -3.52964 0
M  V30 2853 N 286.751 1.08385 -1.14413 0
M  V30 2854 C 287.699 2.17406 -0.826888 0
M  V30 2855 C 288.693 1.6827 0.195312 0
M  V30 2856 O 289.899 1.79927 0.0513892 0
M  V30 2857 H 286.274 0.70934 -0.249681 0
M  V30 2858 H 288.245 2.41388 -1.75426 0
M  V30 2859 C 286.994 3.46215 -0.320979 0
M  V30 2860 H 286.317 3.84401 -1.0989 0
M  V30 2861 H 287.757 4.23777 -0.137549 0
M  V30 2862 C 286.216 3.23067 0.955472 0
M  V30 2863 O 286.746 3.4668 2.02918 0
M  V30 2864 N 284.952 2.7661 0.890798 0
M  V30 2865 H 284.499 2.57594 0.0168815 0
M  V30 2866 H 284.457 2.61501 1.74542 0
M  V30 2867 N 288.23 0.939286 1.26551 0
M  V30 2868 C 289.476 0.586715 1.94128 0
M  V30 2869 C 289.809 -0.8717 1.73537 0
M  V30 2870 O 289.084 -1.62339 1.07127 0
M  V30 2871 C 289.367 0.927497 3.4795 0
M  V30 2872 C 289.22 2.44052 3.77834 0
M  V30 2873 C 290.539 0.441569 4.37879 0
M  V30 2874 H 287.658 0.21463 0.705055 0
M  V30 2875 H 290.3 1.17316 1.49455 0
M  V30 2876 H 288.45 0.428431 3.8613 0
M  V30 2877 H 290.122 3.01216 3.4938 0
M  V30 2878 H 288.365 2.8848 3.23978 0
M  V30 2879 H 289.036 2.62947 4.85348 0
M  V30 2880 H 291.512 0.869448 4.06915 0
M  V30 2881 H 290.388 0.708856 5.44304 0
M  V30 2882 H 290.649 -0.658467 4.37169 0
M  V30 2883 N 289.708 -1.40897 0.706093 0
M  V30 2884 C 291.119 -1.84023 0.315052 0
M  V30 2885 C 291.47 -1.5906 -1.14866 0
M  V30 2886 O 290.595 -1.06651 -1.88293 0
M  V30 2887 C 291.19 -3.34055 0.565038 0
M  V30 2888 C 289.749 -3.7571 0.227806 0
M  V30 2889 C 288.896 -2.64204 0.842122 0
M  V30 2890 H 291.847 -1.303 0.905963 0
M  V30 2891 H 291.868 -3.80107 -0.172843 0
M  V30 2892 H 291.38 -3.52192 1.63042 0
M  V30 2893 H 289.481 -3.63172 -0.832895 0
M  V30 2894 H 289.594 -4.74103 0.690174 0
M  V30 2895 H 287.958 -2.53255 0.270893 0
M  V30 2896 H 288.741 -2.85155 1.91158 0
M  V30 2897 N 291.186 -0.45159 -1.50991 0
M  V30 2898 C 292.432 0.110237 -2.025 0
M  V30 2899 C 292.765 1.41109 -1.33424 0
M  V30 2900 O 292.04 1.89135 -0.453659 0
M  V30 2901 C 292.323 0.314271 -3.58726 0
M  V30 2902 C 292.176 -1.00623 -4.38401 0
M  V30 2903 C 293.495 1.07767 -4.26702 0
M  V30 2904 H 290.614 0.0385897 -0.735989 0
M  V30 2905 H 293.256 -0.593374 -1.80497 0
M  V30 2906 H 291.406 0.913601 -3.77605 0
M  V30 2907 H 293.078 -1.64064 -4.31139 0
M  V30 2908 H 291.321 -1.6075 -4.02917 0
M  V30 2909 H 291.992 -0.817341 -5.45915 0
M  V30 2910 H 294.468 0.56986 -4.12179 0
M  V30 2911 H 293.344 1.18921 -5.35863 0
M  V30 2912 H 293.605 2.10939 -3.88532 0
M  V30 2913 N 292.664 1.56529 -0.183458 0
M  V30 2914 C 293.892 2.01623 0.464285 0
M  V30 2915 C 294.307 1.06366 1.55986 0
M  V30 2916 O 293.664 0.0665398 1.82379 0
M  V30 2917 C 293.715 3.46475 1.03139 0
M  V30 2918 O 293.436 4.38095 -0.0204675 0
M  V30 2919 C 294.937 4.0703 1.75617 0
M  V30 2920 H 292.157 0.660596 0.117704 0
M  V30 2921 H 294.701 2.02451 -0.288751 0
M  V30 2922 H 292.856 3.46383 1.73486 0
M  V30 2923 H 293.27 5.22973 0.399952 0
M  V30 2924 H 294.744 5.10271 2.10542 0
M  V30 2925 H 295.221 3.49819 2.65563 0
M  V30 2926 H 295.827 4.1086 1.09882 0
M  V30 2927 N 294.142 -0.090211 1.57342 0
M  V30 2928 C 295.072 -1.10976 2.05443 0
M  V30 2929 C 296.053 -1.41482 0.944284 0
M  V30 2930 O 297.238 -1.51428 1.21586 0
M  V30 2931 C 294.368 -2.42831 2.48295 0
M  V30 2932 C 293.322 -2.26721 3.63018 0
M  V30 2933 C 292.648 -3.63796 3.91863 0
M  V30 2934 C 293.948 -1.7037 4.93732 0
M  V30 2935 H 295.642 -0.709564 2.9087 0
M  V30 2936 H 293.188 -0.339874 1.39932 0
M  V30 2937 H 295.141 -3.14431 2.80555 0
M  V30 2938 H 293.865 -2.84795 1.59873 0
M  V30 2939 H 292.524 -1.57565 3.31012 0
M  V30 2940 H 292.172 -4.03297 3.00601 0
M  V30 2941 H 291.872 -3.53861 4.69101 0
M  V30 2942 H 293.396 -4.36855 4.26603 0
M  V30 2943 H 294.81 -2.31816 5.24342 0
M  V30 2944 H 293.207 -1.71181 5.75167 0
M  V30 2945 H 294.277 -0.663542 4.80339 0
M  V30 2946 N 295.62 -1.53406 -0.361157 0
M  V30 2947 C 296.567 -1.80156 -1.44265 0
M  V30 2948 C 297.537 -0.646183 -1.53015 0
M  V30 2949 O 298.722 -0.888818 -1.68833 0
M  V30 2950 C 295.862 -2.00116 -2.81154 0
M  V30 2951 C 294.975 -3.27833 -2.81335 0
M  V30 2952 C 294.11 -3.37957 -4.09828 0
M  V30 2953 C 293.149 -4.59689 -4.04168 0
M  V30 2954 N 292.286 -4.66942 -5.24318 0
M  V30 2955 H 297.126 -2.72438 -1.20754 0
M  V30 2956 H 294.663 -1.34954 -0.585296 0
M  V30 2957 H 296.621 -2.09677 -3.60682 0
M  V30 2958 H 295.251 -1.11167 -3.03054 0
M  V30 2959 H 294.303 -3.27204 -1.94014 0
M  V30 2960 H 295.615 -4.17442 -2.73027 0
M  V30 2961 H 294.769 -3.46853 -4.97773 0
M  V30 2962 H 293.508 -2.46372 -4.20894 0
M  V30 2963 H 292.513 -4.50889 -3.14609 0
M  V30 2964 H 293.738 -5.5262 -3.947 0
M  V30 2965 H 291.684 -3.7826 -5.35962 0
M  V30 2966 H 291.601 -5.50462 -5.18197 0
M  V30 2967 H 292.869 -4.80127 -6.14084 0
M  V30 2968 N 297.098 0.621204 -1.44841 0
M  V30 2969 C 298.045 1.73267 -1.5247 0
M  V30 2970 C 299.015 1.6189 -0.371611 0
M  V30 2971 O 300.2 1.81668 -0.58321 0
M  V30 2972 C 297.34 3.11545 -1.48438 0
M  V30 2973 C 296.453 3.33827 -2.74196 0
M  V30 2974 C 295.588 4.62133 -2.61929 0
M  V30 2975 C 294.627 4.77627 -3.82804 0
M  V30 2976 N 293.764 5.97219 -3.69153 0
M  V30 2977 H 298.604 1.66082 -2.47428 0
M  V30 2978 H 296.141 0.810026 -1.22788 0
M  V30 2979 H 298.099 3.91528 -1.4409 0
M  V30 2980 H 296.729 3.1772 -0.570402 0
M  V30 2981 H 295.781 2.47715 -2.88689 0
M  V30 2982 H 297.093 3.41153 -3.6389 0
M  V30 2983 H 296.247 5.50291 -2.5547 0
M  V30 2984 H 294.986 4.57182 -1.69811 0
M  V30 2985 H 293.991 3.87896 -3.89637 0
M  V30 2986 H 295.216 4.84385 -4.75971 0
M  V30 2987 H 293.162 5.93339 -2.79794 0
M  V30 2988 H 293.079 6.05644 -4.52472 0
M  V30 2989 H 294.347 6.87912 -3.66603 0
M  V30 2990 N 298.576 1.31904 0.862503 0
M  V30 2991 C 299.508 1.16005 1.97675 0
M  V30 2992 C 300.521 0.0971234 1.6251 0
M  V30 2993 O 301.71 0.345337 1.75128 0
M  V30 2994 C 298.81 0.751791 3.30456 0
M  V30 2995 C 297.983 1.90133 3.93914 0
M  V30 2996 C 297.042 1.4779 5.05019 0
M  V30 2997 O 296.068 2.18872 5.25437 0
M  V30 2998 N 297.27 0.369491 5.79323 0
M  V30 2999 H 300.035 2.11982 2.11857 0
M  V30 3000 H 297.596 1.24337 1.03691 0
M  V30 3001 H 299.588 0.451084 4.02178 0
M  V30 3002 H 298.158 -0.116593 3.12382 0
M  V30 3003 H 297.378 2.36896 3.15078 0
M  V30 3004 H 298.666 2.67111 4.33047 0
M  V30 3005 H 298.064 -0.222299 5.65263 0
M  V30 3006 H 296.621 0.128354 6.51674 0
M  V30 3007 N 300.054 -1.07777 1.14986 0
M  V30 3008 C 301.302 -1.79934 0.920235 0
M  V30 3009 C 301.623 -1.86955 -0.554336 0
M  V30 3010 O 300.893 -1.36731 -1.40291 0
M  V30 3011 H 299.473 -0.666424 0.337473 0
M  V30 3012 H 302.135 -1.3027 1.44968 0
M  V30 3013 H 301.231 -2.82539 1.32583 0
M  V30 3014 N 301.532 -0.945985 -1.26051 0
M  V30 3015 C 302.778 -0.597002 -1.93814 0
M  V30 3016 C 303.111 0.862484 -1.73997 0
M  V30 3017 O 302.386 1.61769 -1.07986 0
M  V30 3018 C 302.669 -0.945937 -3.47454 0
M  V30 3019 C 302.522 -2.46052 -3.76535 0
M  V30 3020 C 303.841 -0.464785 -4.37639 0
M  V30 3021 H 300.96 -0.218366 -0.703907 0
M  V30 3022 H 303.602 -1.18107 -1.48831 0
M  V30 3023 H 301.752 -0.448902 -3.85898 0
M  V30 3024 H 303.424 -3.03065 -3.47778 0
M  V30 3025 H 301.667 -2.90194 -3.22444 0
M  V30 3026 H 302.338 -2.65517 -4.83947 0
M  V30 3027 H 304.814 -0.891016 -4.06448 0
M  V30 3028 H 303.69 -0.737712 -5.4392 0
M  V30 3029 H 303.951 0.635274 -4.37512 0
M  V30 3030 N 303.011 1.40521 -0.713556 0
M  V30 3031 C 304.26 2.00155 -0.249192 0
M  V30 3032 C 304.573 1.57224 1.16362 0
M  V30 3033 O 305.779 2.09542 1.72639 0
M  V30 3034 C 304.235 3.5773 -0.3946 0
M  V30 3035 C 303.843 4.09635 -1.81392 0
M  V30 3036 C 305.587 4.24499 0.00907364 0
M  V30 3037 C 303.494 5.59707 -1.91003 0
M  V30 3038 H 302.424 0.74868 -0.0894114 0
M  V30 3039 H 305.075 1.60784 -0.884352 0
M  V30 3040 H 303.457 3.94792 0.30911 0
M  V30 3041 H 304.631 3.83955 -2.54785 0
M  V30 3042 H 302.946 3.55456 -2.16888 0
M  V30 3043 H 305.543 5.34683 -0.0420404 0
M  V30 3044 H 305.886 4.02824 1.05065 0
M  V30 3045 H 306.419 3.92536 -0.645007 0
M  V30 3046 H 303.158 5.86234 -2.93275 0
M  V30 3047 H 302.678 5.87258 -1.22019 0
M  V30 3048 H 304.357 6.24776 -1.6812 0
M  V30 3049 N 304.489 0.459591 1.5075 0
M  V30 3050 C 305.452 -0.329093 2.26825 0
M  V30 3051 C 306.452 -0.930481 1.31144 0
M  V30 3052 O 307.642 -0.801453 1.54669 0
M  V30 3053 C 304.774 -1.46768 3.07688 0
M  V30 3054 H 305.967 0.337924 2.9799 0
M  V30 3055 H 303.52 0.213336 1.54837 0
M  V30 3056 H 304.255 -2.17009 2.40993 0
M  V30 3057 H 304.04 -1.04238 3.77991 0
M  V30 3058 H 305.53 -2.02433 3.65254 0
M  V30 3059 N 305.967 -1.56429 0.191757 0
M  V30 3060 C 306.914 -2.18936 -0.730454 0
M  V30 3061 C 307.884 -1.13557 -1.21219 0
M  V30 3062 O 309.069 -1.41794 -1.27668 0
M  V30 3063 C 306.209 -2.85013 -1.9458 0
M  V30 3064 C 305.322 -4.04909 -1.50574 0
M  V30 3065 C 304.457 -4.58853 -2.67634 0
M  V30 3066 C 303.496 -5.71114 -2.20217 0
M  V30 3067 N 302.633 -6.19478 -3.30442 0
M  V30 3068 H 307.473 -2.97389 -0.190664 0
M  V30 3069 H 305.01 -1.46869 -0.0823694 0
M  V30 3070 H 306.968 -3.21492 -2.65893 0
M  V30 3071 H 305.598 -2.09129 -2.45896 0
M  V30 3072 H 304.65 -3.74115 -0.688605 0
M  V30 3073 H 305.962 -4.86113 -1.11784 0
M  V30 3074 H 305.116 -4.97619 -3.47074 0
M  V30 3075 H 303.855 -3.76749 -3.09696 0
M  V30 3076 H 302.86 -5.31879 -1.3923 0
M  V30 3077 H 304.085 -6.55033 -1.79189 0
M  V30 3078 H 302.031 -5.40297 -3.72041 0
M  V30 3079 H 301.948 -6.95725 -2.9581 0
M  V30 3080 H 303.216 -6.62898 -4.10106 0
M  V30 3081 N 307.445 0.0818655 -1.57387 0
M  V30 3082 C 308.393 1.11712 -2.04018 0
M  V30 3083 C 309.387 1.40683 -0.94364 0
M  V30 3084 O 310.593 1.40209 -1.12878 0
M  V30 3085 H 306.968 0.377542 -0.650358 0
M  V30 3086 H 308.939 0.697614 -2.90131 0
M  V30 3087 C 307.688 2.42537 -2.49141 0
M  V30 3088 H 307.011 2.21092 -3.33104 0
M  V30 3089 H 308.451 3.13446 -2.85531 0
M  V30 3090 C 306.91 3.0778 -1.37014 0
M  V30 3091 O 307.44 3.95436 -0.706621 0
M  V30 3092 N 305.646 2.68242 -1.11779 0
M  V30 3093 H 305.193 1.97052 -1.65917 0
M  V30 3094 H 305.151 3.1222 -0.369594 0
M  V30 3095 N 308.923 1.53595 0.353017 0
M  V30 3096 C 309.886 1.80232 1.41594 0
M  V30 3097 C 310.886 0.673081 1.46035 0
M  V30 3098 O 312.076 0.941335 1.46576 0
M  V30 3099 C 309.208 1.93578 2.80607 0
M  V30 3100 H 310.401 2.75174 1.19244 0
M  V30 3101 H 307.954 1.44864 0.586872 0
M  V30 3102 H 308.689 1.00746 3.08254 0
M  V30 3103 H 308.474 2.75724 2.78781 0
M  V30 3104 H 309.964 2.15735 3.57558 0
M  V30 3105 N 310.401 -0.613514 1.45168 0
M  V30 3106 C 311.631 -1.39743 1.52169 0
M  V30 3107 C 312.039 -1.88596 0.151086 0
M  V30 3108 O 311.382 -1.6251 -0.856521 0
M  V30 3109 C 311.444 -2.64035 2.43979 0
M  V30 3110 C 311.108 -2.36861 3.90827 0
M  V30 3111 C 312.105 -1.97591 4.80889 0
M  V30 3112 C 309.79 -2.49956 4.35692 0
M  V30 3113 C 311.784 -1.71768 6.1382 0
M  V30 3114 C 309.471 -2.23747 5.68665 0
M  V30 3115 C 310.469 -1.84714 6.57548 0
M  V30 3116 O 310.157 -1.58809 7.88058 0
M  V30 3117 H 309.889 -0.434382 0.517966 0
M  V30 3118 H 312.443 -0.75587 1.90986 0
M  V30 3119 H 310.673 -3.3089 2.00122 0
M  V30 3120 H 312.362 -3.26069 2.41731 0
M  V30 3121 H 313.128 -1.87015 4.47493 0
M  V30 3122 H 309.007 -2.79305 3.66756 0
M  V30 3123 H 312.551 -1.41227 6.83155 0
M  V30 3124 H 308.448 -2.33938 6.01617 0
M  V30 3125 H 309.216 -1.7291 8.00028 0
M  V30 3126 N 311.879 -1.3236 -0.855495 0
M  V30 3127 C 313.104 -1.2601 -1.64731 0
M  V30 3128 C 313.529 0.169068 -1.87339 0
M  V30 3129 O 312.887 1.12016 -1.42556 0
M  V30 3130 C 312.935 -2.02417 -2.98429 0
M  V30 3131 O 312.039 -1.3714 -3.8893 0
M  V30 3132 H 311.38 -0.434325 -0.502253 0
M  V30 3133 H 313.91 -1.74661 -1.06558 0
M  V30 3134 H 313.92 -2.12559 -3.48257 0
M  V30 3135 H 312.595 -3.06343 -2.81295 0
M  V30 3136 H 311.172 -1.3554 -3.47395 0
M  V30 3137 N 313.357 1.07166 -1.15556 0
M  V30 3138 C 314.287 2.16403 -0.877046 0
M  V30 3139 C 315.268 1.69217 0.173111 0
M  V30 3140 O 316.453 1.94181 0.027084 0
M  V30 3141 C 313.583 3.45349 -0.367632 0
M  V30 3142 C 312.537 4.05995 -1.35468 0
M  V30 3143 C 311.863 5.30045 -0.704038 0
M  V30 3144 C 313.163 4.45804 -2.72132 0
M  V30 3145 H 314.857 2.39959 -1.79053 0
M  V30 3146 H 312.403 1.15325 -0.862331 0
M  V30 3147 H 314.356 4.21095 -0.160317 0
M  V30 3148 H 313.08 3.21385 0.581326 0
M  V30 3149 H 311.739 3.32296 -1.54839 0
M  V30 3150 H 311.387 5.02373 0.251128 0
M  V30 3151 H 311.087 5.71579 -1.36277 0
M  V30 3152 H 312.611 6.08495 -0.50654 0
M  V30 3153 H 314.025 5.12671 -2.56595 0
M  V30 3154 H 312.422 4.98296 -3.34397 0
M  V30 3155 H 313.492 3.57083 -3.28054 0
M  V30 3156 N 314.835 0.952656 1.25548 0
M  V30 3157 C 316.065 0.622592 1.96996 0
M  V30 3158 C 316.473 -0.809112 1.71026 0
M  V30 3159 O 315.816 -1.55258 0.981861 0
M  V30 3160 C 315.878 0.798946 3.5051 0
M  V30 3161 C 315.542 2.20744 4.00151 0
M  V30 3162 C 316.539 3.18394 4.11001 0
M  V30 3163 C 314.224 2.5311 4.33867 0
M  V30 3164 C 316.218 4.46504 4.54877 0
M  V30 3165 C 313.905 3.8145 4.7743 0
M  V30 3166 C 314.903 4.77959 4.87897 0
M  V30 3167 O 314.591 6.04012 5.30494 0
M  V30 3168 H 314.323 0.232503 0.634758 0
M  V30 3169 H 316.877 1.2789 1.60728 0
M  V30 3170 H 315.107 0.0854903 3.86605 0
M  V30 3171 H 316.796 0.47023 4.03167 0
M  V30 3172 H 317.562 2.94715 3.85186 0
M  V30 3173 H 313.441 1.78719 4.24948 0
M  V30 3174 H 316.985 5.21835 4.62962 0
M  V30 3175 H 312.882 4.04936 5.0269 0
M  V30 3176 H 313.65 6.0736 5.48685 0
M  V30 3177 N 316.313 -1.40141 0.720998 0
M  V30 3178 C 317.243 -2.33339 0.0867621 0
M  V30 3179 C 318.224 -1.53178 -0.739622 0
M  V30 3180 O 319.409 -1.81625 -0.687449 0
M  V30 3181 C 316.539 -3.37194 -0.831728 0
M  V30 3182 C 315.493 -4.27857 -0.110558 0
M  V30 3183 C 314.819 -5.22294 -1.14513 0
M  V30 3184 C 316.119 -5.11872 1.0385 0
M  V30 3185 H 317.813 -2.86626 0.865219 0
M  V30 3186 H 315.359 -1.37814 0.417516 0
M  V30 3187 H 317.312 -4.01335 -1.28485 0
M  V30 3188 H 316.036 -2.82314 -1.64214 0
M  V30 3189 H 314.695 -3.65176 0.322797 0
M  V30 3190 H 314.343 -4.63717 -1.94874 0
M  V30 3191 H 314.043 -5.83797 -0.667446 0
M  V30 3192 H 315.567 -5.89312 -1.59824 0
M  V30 3193 H 316.981 -5.69436 0.664482 0
M  V30 3194 H 315.378 -5.82445 1.4449 0
M  V30 3195 H 316.448 -4.4753 1.86668 0
M  V30 3196 N 317.792 -0.46758 -1.50504 0
M  V30 3197 C 318.74 0.342482 -2.30065 0
M  V30 3198 C 319.734 0.993596 -1.37201 0
M  V30 3199 O 320.94 0.925102 -1.54408 0
M  V30 3200 H 317.315 0.129283 -0.740803 0
M  V30 3201 H 319.286 -0.34899 -2.96352 0
M  V30 3202 C 318.035 1.4139 -3.17654 0
M  V30 3203 H 317.358 0.922264 -3.89017 0
M  V30 3204 H 318.798 1.95335 -3.76325 0
M  V30 3205 C 317.257 2.4139 -2.35016 0
M  V30 3206 O 317.787 3.46586 -2.03079 0
M  V30 3207 N 315.993 2.13021 -1.97662 0
M  V30 3208 H 315.54 1.27499 -2.23834 0
M  V30 3209 H 315.498 2.80164 -1.42673 0
M  V30 3210 N 319.27 1.56325 -0.20005 0
M  V30 3211 C 320.495 2.02548 0.44597 0
M  V30 3212 C 320.92 1.07922 1.5406 0
M  V30 3213 O 320.278 0.0635775 1.81188 0
M  V30 3214 C 320.326 3.47175 0.974761 0
M  V30 3215 O 319.43 3.55671 2.08739 0
M  V30 3216 H 318.771 0.655862 0.103638 0
M  V30 3217 H 321.301 2.02201 -0.312381 0
M  V30 3218 H 321.311 3.87067 1.2901 0
M  V30 3219 H 319.986 4.15538 0.17347 0
M  V30 3220 H 318.563 3.27657 1.78032 0
M  V30 3221 N 320.748 -0.0735177 1.57428 0
M  V30 3222 C 322.159 -0.625551 1.75908 0
M  V30 3223 C 322.51 -1.78 0.825261 0
M  V30 3224 O 321.635 -2.16398 0.00893964 0
M  V30 3225 C 322.23 -1.14155 3.18989 0
M  V30 3226 C 320.789 -1.63946 3.38819 0
M  V30 3227 C 319.936 -0.558151 2.71625 0
M  V30 3228 H 322.887 0.152647 1.57964 0
M  V30 3229 H 322.908 -2.0104 3.23053 0
M  V30 3230 H 322.42 -0.301116 3.8693 0
M  V30 3231 H 320.521 -2.50321 2.7599 0
M  V30 3232 H 320.634 -1.71759 4.47253 0
M  V30 3233 H 318.998 -1.00278 2.34129 0
M  V30 3234 H 319.781 0.272071 3.4222 0
M  V30 3235 N 322.226 -1.5378 -0.344866 0
M  V30 3236 C 323.503 -1.61589 -1.10219 0
M  V30 3237 C 323.883 -0.436316 -2.06542 0
M  V30 3238 O 323.231 0.571543 -2.21237 0
M  V30 3239 C 323.441 -2.97602 -1.82301 0
M  V30 3240 C 324.789 -3.5291 -2.36093 0
M  V30 3241 O 325.813 -2.99768 -1.924 0
M  V30 3242 O 324.672 -4.45859 -3.16026 0
M  V30 3243 H 321.766 -0.653522 -0.506792 0
M  V30 3244 H 324.312 -1.66126 -0.346465 0
M  V30 3245 H 323.084 -3.74893 -1.12121 0
M  V30 3246 H 322.707 -2.9665 -2.64735 0
M  V30 3247 N 323.704 0.605807 -1.45491 0
M  V30 3248 C 324.667 1.69836 -1.5391 0
M  V30 3249 C 325.667 1.55261 -0.418424 0
M  V30 3250 O 326.857 1.60296 -0.681965 0
M  V30 3251 C 323.989 3.09117 -1.43734 0
M  V30 3252 H 325.182 1.63738 -2.51257 0
M  V30 3253 H 322.735 0.821689 -1.32959 0
M  V30 3254 H 323.47 3.20791 -0.475788 0
M  V30 3255 H 323.255 3.21104 -2.25021 0
M  V30 3256 H 324.745 3.88696 -1.52661 0
M  V30 3257 N 325.182 1.32811 0.848464 0
M  V30 3258 C 326.145 1.22194 1.9391 0
M  V30 3259 C 327.145 0.143404 1.60159 0
M  V30 3260 O 328.335 0.394253 1.6968 0
M  V30 3261 C 325.467 0.88067 3.29328 0
M  V30 3262 H 326.66 2.19127 2.04752 0
M  V30 3263 H 324.213 1.16731 1.0394 0
M  V30 3264 H 324.948 -0.0865776 3.24184 0
M  V30 3265 H 324.733 1.66052 3.55203 0
M  V30 3266 H 326.223 0.830871 4.09251 0
M  V30 3267 N 326.66 -1.06551 1.16123 0
M  V30 3268 C 327.888 -1.83005 0.965237 0
M  V30 3269 C 328.303 -1.82423 -0.486542 0
M  V30 3270 O 327.66 -1.24152 -1.33763 0
M  V30 3271 C 327.711 -3.29733 1.48183 0
M  V30 3272 O 327.432 -3.30416 2.87674 0
M  V30 3273 C 328.933 -4.22926 1.32848 0
M  V30 3274 H 326.153 -0.577118 0.342309 0
M  V30 3275 H 328.697 -1.3445 1.54089 0
M  V30 3276 H 326.852 -3.75609 0.948517 0
M  V30 3277 H 327.266 -4.22149 3.11272 0
M  V30 3278 H 328.74 -5.23916 1.73827 0
M  V30 3279 H 329.217 -4.38346 0.273692 0
M  V30 3280 H 329.823 -3.82894 1.85127 0
M  V30 3281 N 328.138 -0.959301 -1.25041 0
M  V30 3282 C 329.386 -0.615393 -1.92503 0
M  V30 3283 C 329.707 0.850969 -1.75452 0
M  V30 3284 O 328.977 1.60658 -1.12098 0
M  V30 3285 H 327.557 -0.224613 -0.712431 0
M  V30 3286 H 330.219 -1.21855 -1.5211 0
M  V30 3287 H 329.315 -0.848738 -3.00338 0
M  V30 3288 N 329.616 1.39756 -0.72842 0
M  V30 3289 C 330.548 2.29157 -0.0446202 0
M  V30 3290 C 331.561 1.46484 0.710367 0
M  V30 3291 O 332.75 1.69632 0.55562 0
M  V30 3292 C 329.85 3.24987 0.961071 0
M  V30 3293 C 329.023 4.36572 0.268967 0
M  V30 3294 C 328.082 5.12756 1.18184 0
M  V30 3295 O 327.108 5.6534 0.661794 0
M  V30 3296 N 328.31 5.23331 2.51206 0
M  V30 3297 H 331.075 2.88482 -0.812295 0
M  V30 3298 H 328.636 1.51265 -0.577098 0
M  V30 3299 H 330.628 3.72827 1.57423 0
M  V30 3300 H 329.198 2.66739 1.63 0
M  V30 3301 H 328.418 3.90694 -0.524574 0
M  V30 3302 H 329.706 5.08363 -0.210934 0
M  V30 3303 H 329.104 4.82116 2.9594 0
M  V30 3304 H 327.661 5.74634 3.07634 0
M  V30 3305 N 331.094 0.475555 1.50254 0
M  V30 3306 C 332.343 -0.0795996 2.01543 0
M  V30 3307 C 332.656 -1.4038 1.36209 0
M  V30 3308 O 333.862 -2.04415 1.7868 0
M  V30 3309 C 332.318 -0.192363 3.59386 0
M  V30 3310 C 331.926 1.12367 4.33679 0
M  V30 3311 C 333.67 -0.699238 4.18701 0
M  V30 3312 C 331.577 0.974453 5.83317 0
M  V30 3313 H 330.507 -0.0335228 0.753254 0
M  V30 3314 H 333.158 0.611128 1.73025 0
M  V30 3315 H 331.54 -0.946974 3.84511 0
M  V30 3316 H 332.714 1.88958 4.20276 0
M  V30 3317 H 331.029 1.562 3.85993 0
M  V30 3318 H 333.626 -0.827978 5.28251 0
M  V30 3319 H 333.969 -1.69171 3.80377 0
M  V30 3320 H 334.502 -0.00188807 3.978 0
M  V30 3321 H 331.241 1.94042 6.26121 0
M  V30 3322 H 330.761 0.248998 5.99283 0
M  V30 3323 H 332.44 0.642867 6.43798 0
M  V30 3324 N 332.573 -1.56217 0.208337 0
M  V30 3325 C 333.822 -1.97124 -0.427204 0
M  V30 3326 C 334.135 -1.09859 -1.61835 0
M  V30 3327 O 335.341 -1.40606 -2.32255 0
M  V30 3328 C 333.797 -3.50633 -0.811442 0
M  V30 3329 C 333.405 -4.46582 0.35615 0
M  V30 3330 C 335.149 -4.00282 -1.41332 0
M  V30 3331 C 333.056 -5.91379 -0.0497852 0
M  V30 3332 H 331.986 -0.736086 -0.163381 0
M  V30 3333 H 334.637 -1.8099 0.302456 0
M  V30 3334 H 333.019 -3.62319 -1.59815 0
M  V30 3335 H 334.193 -4.46636 1.1337 0
M  V30 3336 H 332.508 -4.07202 0.870396 0
M  V30 3337 H 335.105 -5.0595 -1.72972 0
M  V30 3338 H 335.448 -3.45359 -2.32449 0
M  V30 3339 H 335.981 -3.91764 -0.690323 0
M  V30 3340 H 332.72 -6.50255 0.827529 0
M  V30 3341 H 332.24 -5.94549 -0.791926 0
M  V30 3342 H 333.919 -6.45209 -0.481042 0
M  V30 3343 N 334.051 0.0651679 -1.57465 0
M  V30 3344 C 335.298 0.763063 -1.87573 0
M  V30 3345 C 335.626 1.77242 -0.800961 0
M  V30 3346 O 334.881 1.94651 0.202316 0
M  V30 3347 C 335.18 1.50081 -3.24362 0
M  V30 3348 C 334.846 0.630816 -4.46466 0
M  V30 3349 C 333.508 0.391082 -4.79608 0
M  V30 3350 C 335.86 0.0279465 -5.21193 0
M  V30 3351 C 333.188 -0.460894 -5.84887 0
M  V30 3352 C 335.54 -0.811522 -6.27373 0
M  V30 3353 C 334.204 -1.06106 -6.59013 0
M  V30 3354 H 333.474 0.279224 -0.686378 0
M  V30 3355 H 336.121 0.0236726 -1.91485 0
M  V30 3356 H 334.426 2.31258 -3.16271 0
M  V30 3357 H 336.123 2.04571 -3.44894 0
M  V30 3358 H 332.713 0.8278 -4.2053 0
M  V30 3359 H 336.897 0.200262 -4.95896 0
M  V30 3360 H 332.153 -0.662907 -6.07796 0
M  V30 3361 H 336.327 -1.28537 -6.84435 0
M  V30 3362 H 333.954 -1.723 -7.40417 0
M  V30 3363 N 335.529 1.53961 0.336706 0
M  V30 3364 C 336.777 1.71197 1.07405 0
M  V30 3365 C 337.098 0.481475 1.88962 0
M  V30 3366 O 336.368 -0.504585 1.8929 0
M  V30 3367 H 334.948 0.631185 0.399517 0
M  V30 3368 H 337.61 1.91232 0.376323 0
M  V30 3369 H 336.706 2.58587 1.74755 0
M  V30 3370 N 337.007 -0.598083 1.45811 0
M  V30 3371 C 338.255 -1.35413 1.50026 0
M  V30 3372 C 338.576 -1.94444 0.147177 0
M  V30 3373 O 337.846 -1.77701 -0.824571 0
M  V30 3374 H 336.426 -0.502727 0.552517 0
M  V30 3375 H 339.088 -0.701606 1.81834 0
M  V30 3376 H 338.184 -2.16871 2.2444 0
M  V30 3377 N 338.485 -1.33259 -0.841409 0
M  V30 3378 C 339.731 -1.24757 -1.59886 0
M  V30 3379 C 340.064 0.186913 -1.93298 0
M  V30 3380 O 339.339 1.12757 -1.5848 0
M  V30 3381 C 339.622 -2.12036 -2.91055 0
M  V30 3382 C 339.475 -3.63929 -2.6434 0
M  V30 3383 C 340.794 -1.9916 -3.92458 0
M  V30 3384 H 337.913 -0.454542 -0.580138 0
M  V30 3385 H 340.555 -1.63335 -0.970647 0
M  V30 3386 H 338.705 -1.79265 -3.44669 0
M  V30 3387 H 340.377 -4.06978 -2.17178 0
M  V30 3388 H 338.62 -3.85935 -1.98082 0
M  V30 3389 H 339.291 -4.20341 -3.57796 0
M  V30 3390 H 341.767 -2.27895 -3.48143 0
M  V30 3391 H 340.643 -2.62484 -4.82072 0
M  V30 3392 H 340.904 -0.963082 -4.31482 0
M  V30 3393 N 339.963 1.05934 -1.16686 0
M  V30 3394 C 341.24 1.75643 -0.860747 0
M  V30 3395 C 341.62 2.01144 0.640641 0
M  V30 3396 O 340.968 1.64147 1.58959 0
M  V30 3397 C 341.178 3.05493 -1.68745 0
M  V30 3398 C 342.526 3.79581 -1.90271 0
M  V30 3399 O 343.55 3.15344 -1.65641 0
M  V30 3400 O 342.409 4.9499 -2.31618 0
M  V30 3401 H 339.503 0.763426 -0.317977 0
M  V30 3402 H 342.049 1.1217 -1.27342 0
M  V30 3403 H 340.821 2.8264 -2.70611 0
M  V30 3404 H 340.444 3.76702 -1.27206 0
M  V30 3405 N 341.441 0.965919 1.2453 0
M  V30 3406 C 342.389 0.486506 2.27455 0
M  V30 3407 C 343.383 -0.449041 1.6334 0
M  V30 3408 O 344.589 -0.324527 1.7705 0
M  V30 3409 H 340.964 0.138857 0.739069 0
M  V30 3410 H 342.935 1.3666 2.65267 0
M  V30 3411 C 341.684 -0.209481 3.47068 0
M  V30 3412 H 341.007 0.50129 3.96645 0
M  V30 3413 H 342.447 -0.508775 4.20936 0
M  V30 3414 C 340.906 -1.43586 3.0477 0
M  V30 3415 O 341.436 -2.53299 3.11773 0
M  V30 3416 N 339.642 -1.30126 2.59838 0
M  V30 3417 H 339.189 -0.408583 2.54339 0
M  V30 3418 H 339.147 -2.12294 2.31902 0
M  V30 3419 N 342.919 -1.39368 0.735821 0
M  V30 3420 C 343.882 -2.2896 0.104874 0
M  V30 3421 C 344.882 -1.46347 -0.666274 0
M  V30 3422 O 346.072 -1.67014 -0.49517 0
M  V30 3423 C 343.204 -3.29857 -0.860656 0
M  V30 3424 H 344.397 -2.86259 0.894205 0
M  V30 3425 H 341.95 -1.48029 0.501704 0
M  V30 3426 H 342.685 -2.77615 -1.67631 0
M  V30 3427 H 342.47 -3.9087 -0.310327 0
M  V30 3428 H 343.96 -3.96893 -1.29867 0
M  V30 3429 N 344.397 -0.483516 -1.5 0
M  V30 3430 C 345.344 0.304164 -2.28787 0
M  V30 3431 C 346.314 0.976114 -1.34392 0
M  V30 3432 O 347.499 0.986156 -1.63339 0
M  V30 3433 C 344.639 1.37298 -3.16612 0
M  V30 3434 C 343.752 0.714561 -4.26049 0
M  V30 3435 C 342.887 1.76232 -5.01114 0
M  V30 3436 C 341.926 1.08483 -6.0241 0
M  V30 3437 N 341.063 2.076 -6.70706 0
M  V30 3438 H 345.903 -0.373981 -2.95644 0
M  V30 3439 H 343.44 -0.196275 -1.45785 0
M  V30 3440 H 345.398 2.00445 -3.65893 0
M  V30 3441 H 344.028 2.02012 -2.51776 0
M  V30 3442 H 343.08 -0.0297798 -3.80388 0
M  V30 3443 H 344.392 0.180383 -4.98474 0
M  V30 3444 H 343.546 2.46929 -5.54176 0
M  V30 3445 H 342.285 2.33033 -4.28424 0
M  V30 3446 H 341.29 0.363545 -5.48597 0
M  V30 3447 H 342.515 0.523551 -6.77079 0
M  V30 3448 H 340.461 2.63394 -6.00799 0
M  V30 3449 H 340.378 1.59201 -7.39047 0
M  V30 3450 H 341.646 2.77639 -7.2838 0
M  V30 3451 N 345.875 1.56104 -0.216619 0
M  V30 3452 C 347.105 2.02269 0.420802 0
M  V30 3453 C 347.513 1.09575 1.5424 0
M  V30 3454 O 346.856 0.0967308 1.83445 0
M  V30 3455 C 346.918 3.44784 1.01806 0
M  V30 3456 C 346.582 4.56988 0.0325154 0
M  V30 3457 C 347.579 5.14225 -0.766055 0
M  V30 3458 C 345.264 5.02228 -0.0848092 0
M  V30 3459 C 347.258 6.15169 -1.6687 0
M  V30 3460 C 344.945 6.03011 -0.990994 0
M  V30 3461 C 345.943 6.59357 -1.78149 0
M  V30 3462 O 345.631 7.58179 -2.67245 0
M  V30 3463 H 345.363 0.667353 0.107776 0
M  V30 3464 H 347.917 2.02747 -0.329034 0
M  V30 3465 H 346.147 3.41359 1.81689 0
M  V30 3466 H 347.836 3.74626 1.56237 0
M  V30 3467 H 348.602 4.80126 -0.685836 0
M  V30 3468 H 344.481 4.58054 0.520349 0
M  V30 3469 H 348.025 6.59076 -2.28615 0
M  V30 3470 H 343.922 6.36532 -1.07225 0
M  V30 3471 H 344.69 7.75682 -2.61265 0
M  V30 3472 N 347.353 -0.0568162 1.57498 0
M  V30 3473 C 348.578 -0.769402 1.92601 0
M  V30 3474 C 349.003 -1.69559 0.814336 0
M  V30 3475 O 348.361 -1.79811 -0.231903 0
M  V30 3476 C 348.409 -1.52634 3.26704 0
M  V30 3477 O 347.513 -2.63797 3.16994 0
M  V30 3478 H 346.854 -0.208909 0.63028 0
M  V30 3479 H 349.384 -0.0205798 2.0459 0
M  V30 3480 H 349.394 -1.90234 3.60936 0
M  V30 3481 H 348.069 -0.846875 4.07186 0
M  V30 3482 H 346.646 -2.28943 2.94346 0
M  V30 3483 N 348.832 -1.54138 -0.328536 0
M  V30 3484 C 350.08 -1.71765 -1.06496 0
M  V30 3485 C 350.401 -0.49149 -1.88704 0
M  V30 3486 O 349.671 0.494539 -1.89555 0
M  V30 3487 H 348.251 -0.633295 -0.396164 0
M  V30 3488 H 350.913 -1.91429 -0.366176 0
M  V30 3489 H 350.009 -2.5951 -1.73381 0
M  V30 3490 N 350.31 0.590341 -1.46126 0
M  V30 3491 C 351.535 1.37991 -1.54833 0
M  V30 3492 C 351.96 1.87163 -0.187506 0
M  V30 3493 O 351.318 1.61133 0.831008 0
M  V30 3494 C 351.366 2.54867 -2.55098 0
M  V30 3495 O 350.47 3.56061 -2.08073 0
M  V30 3496 H 349.811 0.411265 -0.521303 0
M  V30 3497 H 352.341 0.716819 -1.91632 0
M  V30 3498 H 352.351 3.01886 -2.74461 0
M  V30 3499 H 351.026 2.18429 -3.53923 0
M  V30 3500 H 349.603 3.15574 -1.98664 0
M  V30 3501 N 351.788 1.33704 0.83433 0
M  V30 3502 C 352.718 1.26967 1.95963 0
M  V30 3503 C 353.699 0.149337 1.69443 0
M  V30 3504 O 354.884 0.339852 1.91203 0
M  V30 3505 C 352.014 1.01275 3.32206 0
M  V30 3506 C 350.968 2.09652 3.73136 0
M  V30 3507 C 350.294 1.69166 5.07235 0
M  V30 3508 C 351.594 3.51372 3.86439 0
M  V30 3509 H 353.288 2.2112 2.01857 0
M  V30 3510 H 350.834 1.06447 0.969793 0
M  V30 3511 H 352.787 0.952106 4.10503 0
M  V30 3512 H 351.511 0.0356203 3.26581 0
M  V30 3513 H 350.17 2.14766 2.97104 0
M  V30 3514 H 349.818 0.701437 4.98085 0
M  V30 3515 H 349.518 2.41694 5.35591 0
M  V30 3516 H 351.042 1.64576 5.88003 0
M  V30 3517 H 352.456 3.48734 4.55036 0
M  V30 3518 H 350.853 4.22425 4.26236 0
M  V30 3519 H 351.923 3.89546 2.88759 0
M  V30 3520 N 353.266 -1.05314 1.17247 0
M  V30 3521 C 354.515 -1.77685 0.954521 0
M  V30 3522 C 354.828 -1.88616 -0.518025 0
M  V30 3523 O 356.034 -2.57714 -0.854144 0
M  V30 3524 C 354.49 -3.19402 1.65863 0
M  V30 3525 C 354.098 -3.16605 3.16963 0
M  V30 3526 C 355.842 -3.96237 1.52303 0
M  V30 3527 C 353.749 -4.53103 3.80068 0
M  V30 3528 H 352.679 -0.666 0.353496 0
M  V30 3529 H 355.33 -1.1805 1.40486 0
M  V30 3530 H 353.712 -3.79355 1.13602 0
M  V30 3531 H 354.886 -2.66176 3.76148 0
M  V30 3532 H 353.201 -2.53268 3.30521 0
M  V30 3533 H 355.798 -4.97157 1.96822 0
M  V30 3534 H 356.141 -4.136 0.473401 0
M  V30 3535 H 356.674 -3.42829 2.01775 0
M  V30 3536 H 353.413 -4.40946 4.85023 0
M  V30 3537 H 352.933 -5.03686 3.2567 0
M  V30 3538 H 354.612 -5.22045 3.82202 0
M  V30 3539 N 354.744 -0.972509 -1.24016 0
M  V30 3540 C 355.707 -0.511403 -2.23422 0
M  V30 3541 C 356.707 0.394679 -1.55881 0
M  V30 3542 O 357.897 0.189469 -1.73167 0
M  V30 3543 C 355.029 0.258769 -3.39916 0
M  V30 3544 H 356.222 -1.39024 -2.6573 0
M  V30 3545 H 353.775 -0.757585 -1.36713 0
M  V30 3546 H 354.51 1.1545 -3.03054 0
M  V30 3547 H 354.295 -0.391522 -3.9014 0
M  V30 3548 H 355.785 0.570244 -4.13688 0
M  V30 3549 N 356.222 1.38976 -0.743202 0
M  V30 3550 C 357.152 2.33171 -0.123873 0
M  V30 3551 C 358.133 1.54336 0.71516 0
M  V30 3552 O 359.318 1.82696 0.658467 0
M  V30 3553 C 356.448 3.38474 0.777978 0
M  V30 3554 C 355.402 4.27979 0.0424758 0
M  V30 3555 C 354.728 5.2405 1.06189 0
M  V30 3556 C 356.028 5.10155 -1.1198 0
M  V30 3557 H 357.722 2.85213 -0.910709 0
M  V30 3558 H 355.268 1.37133 -0.439388 0
M  V30 3559 H 357.221 4.03328 1.22084 0
M  V30 3560 H 355.945 2.84891 1.59702 0
M  V30 3561 H 354.604 3.64616 -0.380853 0
M  V30 3562 H 354.252 4.66758 1.87472 0
M  V30 3563 H 353.952 5.84785 0.574485 0
M  V30 3564 H 355.476 5.9178 1.50428 0
M  V30 3565 H 356.89 5.68307 -0.75499 0
M  V30 3566 H 355.287 5.80073 -1.53738 0
M  V30 3567 H 356.357 4.44504 -1.93764 0
M  V30 3568 N 357.7 0.491464 1.49741 0
M  V30 3569 C 359.111 0.0413169 1.86654 0
M  V30 3570 C 359.462 -1.36985 1.40462 0
M  V30 3571 O 358.587 -2.01917 0.778354 0
M  V30 3572 C 359.182 0.0682023 3.38731 0
M  V30 3573 C 357.741 -0.32656 3.74981 0
M  V30 3574 C 356.888 0.444888 2.73708 0
M  V30 3575 H 359.839 0.704733 1.42194 0
M  V30 3576 H 359.86 -0.729322 3.73445 0
M  V30 3577 H 359.372 1.09539 3.72321 0
M  V30 3578 H 357.473 -1.35734 3.46997 0
M  V30 3579 H 357.586 -0.013741 4.79098 0
M  V30 3580 H 355.95 -0.104062 2.54487 0
M  V30 3581 H 356.733 1.47197 3.10142 0
M  V30 3582 N 359.178 -1.55987 0.224894 0
M  V30 3583 C 360.424 -1.98684 -0.406502 0
M  V30 3584 C 360.757 -1.11248 -1.59177 0
M  V30 3585 O 360.032 -0.170909 -1.93748 0
M  V30 3586 C 360.315 -3.50218 -0.837808 0
M  V30 3587 C 360.168 -4.48426 0.351332 0
M  V30 3588 C 361.487 -4.06243 -1.69278 0
M  V30 3589 H 358.606 -0.722337 -0.146283 0
M  V30 3590 H 361.248 -1.87255 0.321799 0
M  V30 3591 H 359.398 -3.60089 -1.45837 0
M  V30 3592 H 361.07 -4.50562 0.989526 0
M  V30 3593 H 359.313 -4.22159 0.998207 0
M  V30 3594 H 359.984 -5.52 0.00655905 0
M  V30 3595 H 362.46 -3.99337 -1.16914 0
M  V30 3596 H 361.336 -5.12581 -1.96346 0
M  V30 3597 H 361.597 -3.53332 -2.65723 0
M  V30 3598 N 360.656 0.0484629 -1.57525 0
M  V30 3599 C 361.884 0.755421 -1.92616 0
M  V30 3600 C 362.299 1.69919 -0.822984 0
M  V30 3601 O 361.656 1.81378 0.202085 0
M  V30 3602 C 361.707 1.52915 -3.27566 0
M  V30 3603 O 361.428 0.62329 -4.33644 0
M  V30 3604 C 362.929 2.33502 -3.76818 0
M  V30 3605 H 360.149 0.213465 -0.63614 0
M  V30 3606 H 362.693 0.0117698 -2.04497 0
M  V30 3607 H 360.848 2.22486 -3.17142 0
M  V30 3608 H 361.262 1.16383 -5.11425 0
M  V30 3609 H 362.736 2.83214 -4.73808 0
M  V30 3610 H 363.213 3.14068 -3.07014 0
M  V30 3611 H 363.819 1.69043 -3.90262 0
M  V30 3612 N 362.134 1.5431 0.320358 0
M  V30 3613 C 363.359 1.76954 1.08175 0
M  V30 3614 C 363.784 0.518193 1.80821 0
M  V30 3615 O 363.142 -0.530411 1.73368 0
M  V30 3616 C 363.19 2.96451 2.05303 0
M  V30 3617 O 362.294 2.68221 3.13259 0
M  V30 3618 H 361.635 0.586275 0.311733 0
M  V30 3619 H 364.165 2.01342 0.363676 0
M  V30 3620 H 364.175 3.23887 2.48116 0
M  V30 3621 H 362.85 3.87196 1.51829 0
M  V30 3622 H 361.427 2.51744 2.75099 0
M  V30 3623 N 363.613 -0.582584 1.46437 0
M  V30 3624 C 364.89 -1.34276 1.4223 0
M  V30 3625 C 365.27 -2.10835 0.10583 0
M  V30 3626 O 364.618 -2.09485 -0.912596 0
M  V30 3627 C 364.828 -2.26865 2.65204 0
M  V30 3628 C 366.176 -2.88691 3.11356 0
M  V30 3629 O 367.2 -2.37178 2.65753 0
M  V30 3630 O 366.059 -3.82255 3.90568 0
M  V30 3631 H 363.153 -0.603326 0.565621 0
M  V30 3632 H 365.699 -0.603591 1.58603 0
M  V30 3633 H 364.471 -1.69724 3.52576 0
M  V30 3634 H 364.094 -3.08122 2.5129 0
M  V30 3635 N 365.091 -1.34144 -0.827227 0
M  V30 3636 C 366.507 -1.13732 -1.11969 0
M  V30 3637 C 366.707 0.0640463 -2.01398 0
M  V30 3638 O 365.763 0.740856 -2.41387 0
M  V30 3639 C 367.076 -2.43047 -1.77055 0
M  V30 3640 C 368.624 -2.49063 -1.89569 0
M  V30 3641 C 369.099 -3.78369 -2.58072 0
M  V30 3642 N 370.59 -3.79505 -2.65575 0
M  V30 3643 C 371.325 -4.76274 -3.19297 0
M  V30 3644 N 370.821 -5.83424 -3.73616 0
M  V30 3645 N 372.614 -4.63735 -3.17658 0
M  V30 3646 H 364.765 -2.11126 -0.232296 0
M  V30 3647 H 367.028 -0.933424 -0.165602 0
M  V30 3648 H 366.734 -3.31025 -1.18807 0
M  V30 3649 H 366.608 -2.56066 -2.76966 0
M  V30 3650 H 368.995 -1.61527 -2.46968 0
M  V30 3651 H 369.076 -2.39975 -0.885745 0
M  V30 3652 H 368.72 -4.66293 -2.01329 0
M  V30 3653 H 368.65 -3.84737 -3.59562 0
M  V30 3654 H 371.141 -3.02074 -2.27068 0
M  V30 3655 H 371.454 -6.53282 -4.12846 0
M  V30 3656 H 369.799 -5.87143 -3.71871 0
M  V30 3657 H 372.99 -3.79177 -2.74486 0
M  V30 3658 H 373.163 -5.39318 -3.59221 0
M  V30 3659 N 366.569 1.04691 -1.17803 0
M  V30 3660 C 367.479 2.16057 -0.914151 0
M  V30 3661 C 368.495 1.73589 0.119503 0
M  V30 3662 O 369.671 2.01308 -0.0609468 0
M  V30 3663 C 366.736 3.4394 -0.436603 0
M  V30 3664 C 365.797 4.00825 -1.53746 0
M  V30 3665 C 365.03 5.22604 -1.0826 0
M  V30 3666 O 365.253 5.70367 0.0612244 0
M  V30 3667 O 364.187 5.7186 -1.87775 0
M  V30 3668 H 368.013 2.41169 -1.84584 0
M  V30 3669 H 365.598 1.1453 -0.959334 0
M  V30 3670 H 367.48 4.21024 -0.178057 0
M  V30 3671 H 366.155 3.20316 0.466869 0
M  V30 3672 H 365.062 3.25158 -1.84995 0
M  V30 3673 H 366.395 4.28778 -2.41683 0
M  V30 3674 N 368.047 0.979072 1.23499 0
M  V30 3675 C 368.977 0.537606 2.27227 0
M  V30 3676 C 369.958 -0.428539 1.64613 0
M  V30 3677 O 371.143 -0.322191 1.91509 0
M  V30 3678 C 368.273 -0.162052 3.46922 0
M  V30 3679 C 367.227 0.721242 4.21879 0
M  V30 3680 C 366.553 -0.110555 5.34586 0
M  V30 3681 C 367.853 2.01141 4.82016 0
M  V30 3682 H 369.547 1.40462 2.64406 0
M  V30 3683 H 367.093 0.67684 1.27102 0
M  V30 3684 H 369.046 -0.482192 4.18632 0
M  V30 3685 H 367.77 -1.06351 3.08799 0
M  V30 3686 H 366.429 1.02482 3.51984 0
M  V30 3687 H 366.077 -1.0125 4.92704 0
M  V30 3688 H 365.777 0.477325 5.85658 0
M  V30 3689 H 367.301 -0.425107 6.09118 0
M  V30 3690 H 368.715 1.75612 5.45741 0
M  V30 3691 H 367.112 2.54695 5.43369 0
M  V30 3692 H 368.182 2.69909 4.02836 0
M  V30 3693 N 369.525 -1.3858 0.750561 0
M  V30 3694 C 370.941 -1.53759 0.427824 0
M  V30 3695 C 371.141 -1.71401 -1.05943 0
M  V30 3696 O 370.197 -1.72331 -1.84549 0
M  V30 3697 C 371.51 -2.74642 1.22443 0
M  V30 3698 C 373.058 -2.88489 1.2142 0
M  V30 3699 C 373.533 -4.12329 1.9937 0
M  V30 3700 N 375.024 -4.194 1.96616 0
M  V30 3701 C 375.759 -5.14209 2.53727 0
M  V30 3702 N 375.255 -6.14709 3.19539 0
M  V30 3703 N 377.048 -5.06537 2.43673 0
M  V30 3704 H 369.199 -1.25377 1.71447 0
M  V30 3705 H 371.462 -0.608844 0.726645 0
M  V30 3706 H 371.168 -2.68 2.27747 0
M  V30 3707 H 371.042 -3.67745 0.839273 0
M  V30 3708 H 373.429 -2.94614 0.169232 0
M  V30 3709 H 373.51 -1.96406 1.63885 0
M  V30 3710 H 373.154 -4.06966 3.03877 0
M  V30 3711 H 373.084 -5.03486 1.54302 0
M  V30 3712 H 375.575 -3.47421 1.48684 0
M  V30 3713 H 375.888 -6.8354 3.60545 0
M  V30 3714 H 374.233 -6.1505 3.23633 0
M  V30 3715 H 377.424 -4.26962 1.91889 0
M  V30 3716 H 377.597 -5.80245 2.88479 0
M  V30 3717 N 371.003 -0.499398 -1.49478 0
M  V30 3718 C 372.252 0.0475259 -2.01644 0
M  V30 3719 C 372.565 1.38195 -1.38425 0
M  V30 3720 O 373.771 2.01547 -1.8191 0
M  V30 3721 C 372.227 0.135164 -3.59646 0
M  V30 3722 C 371.835 -1.19252 -4.31837 0
M  V30 3723 C 373.579 0.632538 -4.19761 0
M  V30 3724 C 371.486 -1.06713 -5.81693 0
M  V30 3725 H 370.416 0.0215349 -0.753692 0
M  V30 3726 H 373.067 -0.638577 -1.7203 0
M  V30 3727 H 371.449 0.885681 -3.85969 0
M  V30 3728 H 372.623 -1.9562 -4.17216 0
M  V30 3729 H 370.938 -1.62321 -3.83459 0
M  V30 3730 H 373.535 0.743833 -5.29501 0
M  V30 3731 H 373.878 1.63098 -3.83021 0
M  V30 3732 H 374.411 -0.0613987 -3.97753 0
M  V30 3733 H 371.15 -2.03979 -6.22955 0
M  V30 3734 H 370.67 -0.344307 -5.98811 0
M  V30 3735 H 372.349 -0.745208 -6.42694 0
M  V30 3736 N 372.481 1.55866 -0.233164 0
M  V30 3737 C 373.706 2.03449 0.402906 0
M  V30 3738 C 374.131 1.11166 1.51736 0
M  V30 3739 O 373.489 0.101996 1.81013 0
M  V30 3740 C 373.537 3.49165 0.9009 0
M  V30 3741 O 372.641 3.60019 2.01147 0
M  V30 3742 H 371.982 0.657913 0.0897025 0
M  V30 3743 H 374.512 2.01493 -0.355201 0
M  V30 3744 H 374.522 3.89716 1.2077 0
M  V30 3745 H 373.197 4.15813 0.0852889 0
M  V30 3746 H 371.774 3.3136 1.71042 0
M  V30 3747 N 373.959 -0.0401083 1.57549 0
M  V30 3748 C 374.889 -1.04384 2.08869 0
M  V30 3749 C 375.87 -1.38407 0.988817 0
M  V30 3750 O 377.055 -1.47483 1.26342 0
M  V30 3751 C 374.185 -2.34808 2.55895 0
M  V30 3752 C 373.139 -2.15057 3.70047 0
M  V30 3753 C 372.465 -3.51145 4.03239 0
M  V30 3754 C 373.765 -1.54576 4.98902 0
M  V30 3755 H 375.459 -0.616666 2.92981 0
M  V30 3756 H 373.005 -0.295184 1.40942 0
M  V30 3757 H 374.958 -3.05346 2.90417 0
M  V30 3758 H 373.682 -2.79565 1.68853 0
M  V30 3759 H 372.341 -1.46954 3.35857 0
M  V30 3760 H 371.989 -3.93529 3.13279 0
M  V30 3761 H 371.689 -3.38758 4.80122 0
M  V30 3762 H 373.213 -4.23062 4.40285 0
M  V30 3763 H 374.627 -2.15017 5.31451 0
M  V30 3764 H 373.024 -1.52796 5.80322 0
M  V30 3765 H 374.094 -0.51039 4.82206 0
M  V30 3766 N 375.437 -1.54477 -0.31217 0
M  V30 3767 C 376.685 -1.72884 -1.04668 0
M  V30 3768 C 377.006 -0.511477 -1.88173 0
M  V30 3769 O 376.276 0.474407 -1.90069 0
M  V30 3770 H 374.856 -0.637461 -0.389425 0
M  V30 3771 H 377.518 -1.91807 -0.345852 0
M  V30 3772 H 376.614 -2.61334 -1.70619 0
M  V30 3773 N 376.915 0.57481 -1.46744 0
M  V30 3774 C 378.14 1.36341 -1.56288 0
M  V30 3775 C 378.565 1.86954 -0.207347 0
M  V30 3776 O 377.923 1.62006 0.813871 0
M  V30 3777 C 377.971 2.52147 -2.57787 0
M  V30 3778 O 377.075 3.53834 -2.11838 0
M  V30 3779 H 376.416 0.405713 -0.525636 0
M  V30 3780 H 378.946 0.696453 -1.92382 0
M  V30 3781 H 378.956 2.98958 -2.77648 0
M  V30 3782 H 377.631 2.14663 -3.5622 0
M  V30 3783 H 376.208 3.1345 -2.01999 0
M  V30 3784 N 378.394 1.34581 0.820102 0
M  V30 3785 C 379.64 1.27285 1.57881 0
M  V30 3786 C 379.973 -0.156137 1.93571 0
M  V30 3787 O 379.248 -1.10222 1.60254 0
M  V30 3788 C 379.531 2.16639 2.87645 0
M  V30 3789 C 379.384 3.68088 2.58517 0
M  V30 3790 C 380.703 2.05378 3.8924 0
M  V30 3791 H 377.822 0.463714 0.572833 0
M  V30 3792 H 380.464 1.64859 0.944539 0
M  V30 3793 H 378.614 1.84725 3.41773 0
M  V30 3794 H 380.286 4.10382 2.10676 0
M  V30 3795 H 378.529 3.89038 1.91917 0
M  V30 3796 H 379.2 4.2598 3.51063 0
M  V30 3797 H 381.676 2.33404 3.44473 0
M  V30 3798 H 380.552 2.7012 4.77835 0
M  V30 3799 H 380.813 1.0316 4.29896 0
M  V30 3800 N 379.872 -1.04064 1.18357 0
M  V30 3801 C 380.782 -2.15569 0.925596 0
M  V30 3802 C 381.798 -1.7365 -0.110295 0
M  V30 3803 O 382.974 -2.01273 0.0716218 0
M  V30 3804 C 380.039 -3.43704 0.454836 0
M  V30 3805 C 379.1 -4.00004 1.55869 0
M  V30 3806 C 378.333 -5.22023 1.1103 0
M  V30 3807 O 378.556 -5.70392 -0.0309756 0
M  V30 3808 O 377.49 -5.70856 1.90805 0
M  V30 3809 H 381.316 -2.40187 1.8586 0
M  V30 3810 H 378.901 -1.1402 0.965394 0
M  V30 3811 H 380.783 -4.20923 0.200382 0
M  V30 3812 H 379.458 -3.20559 -0.449876 0
M  V30 3813 H 378.365 -3.24172 1.86716 0
M  V30 3814 H 379.698 -4.2749 2.43953 0
M  V30 3815 N 381.35 -0.985608 -1.22978 0
M  V30 3816 C 382.596 -0.65836 -1.91816 0
M  V30 3817 C 382.929 0.806692 -1.76653 0
M  V30 3818 O 382.204 1.58252 -1.13078 0
M  V30 3819 C 382.487 -1.056 -3.44268 0
M  V30 3820 C 382.34 -2.57906 -3.68516 0
M  V30 3821 C 383.659 -0.603781 -4.35939 0
M  V30 3822 H 380.778 -0.24065 -0.696604 0
M  V30 3823 H 383.42 -1.22783 -1.44998 0
M  V30 3824 H 381.57 -0.571445 -3.84274 0
M  V30 3825 H 383.242 -3.13976 -3.3796 0
M  V30 3826 H 381.485 -3.00305 -3.13048 0
M  V30 3827 H 382.156 -2.80779 -4.75255 0
M  V30 3828 H 384.632 -1.01987 -4.03408 0
M  V30 3829 H 383.508 -0.910383 -5.41298 0
M  V30 3830 H 383.769 0.495761 -4.39312 0
M  V30 3831 N 382.828 1.3818 -0.7579 0
M  V30 3832 C 384.053 2.04827 -0.325679 0
M  V30 3833 C 384.478 1.56788 1.03919 0
M  V30 3834 O 383.836 0.721811 1.66312 0
M  V30 3835 C 383.884 3.58774 -0.362447 0
M  V30 3836 O 382.988 4.07372 0.642033 0
M  V30 3837 H 382.329 0.64833 -0.143402 0
M  V30 3838 H 384.859 1.7677 -1.03023 0
M  V30 3839 H 384.869 4.07434 -0.214844 0
M  V30 3840 H 383.544 3.93096 -1.35824 0
M  V30 3841 H 382.121 3.70068 0.458688 0
M  V30 3842 N 384.306 0.507319 1.49211 0
M  V30 3843 C 385.554 -0.0348839 2.0207 0
M  V30 3844 C 385.875 -1.36898 1.38866 0
M  V30 3845 O 385.145 -1.88133 0.546151 0
M  V30 3846 H 383.725 -0.0158812 0.746831 0
M  V30 3847 H 386.387 0.665998 1.83168 0
M  V30 3848 H 385.483 -0.159917 3.1169 0
M  V30 3849 N 385.784 -1.5574 0.241426 0
M  V30 3850 C 386.731 -2.21149 -0.660432 0
M  V30 3851 C 387.701 -1.17356 -1.17545 0
M  V30 3852 O 388.886 -1.45784 -1.23093 0
M  V30 3853 C 386.026 -2.91059 -1.85414 0
M  V30 3854 C 385.139 -4.09495 -1.37616 0
M  V30 3855 C 384.274 -4.67135 -2.529 0
M  V30 3856 C 383.313 -5.77831 -2.01936 0
M  V30 3857 N 382.45 -6.29677 -3.10566 0
M  V30 3858 H 387.29 -2.97845 -0.095955 0
M  V30 3859 H 384.827 -1.47057 -0.0356024 0
M  V30 3860 H 386.785 -3.29788 -2.5553 0
M  V30 3861 H 385.415 -2.16846 -2.39118 0
M  V30 3862 H 384.467 -3.76117 -0.569235 0
M  V30 3863 H 385.779 -4.89423 -0.962618 0
M  V30 3864 H 384.933 -5.08409 -3.31067 0
M  V30 3865 H 383.672 -3.86411 -2.97553 0
M  V30 3866 H 382.677 -5.36039 -1.22238 0
M  V30 3867 H 383.902 -6.60402 -1.58259 0
M  V30 3868 H 381.848 -5.5186 -3.54664 0
M  V30 3869 H 381.765 -7.04783 -2.73526 0
M  V30 3870 H 383.033 -6.75609 -3.88809 0
M  V30 3871 N 387.262 0.0317525 -1.57568 0
M  V30 3872 C 388.49 0.734949 -1.93407 0
M  V30 3873 C 388.905 1.69036 -0.84096 0
M  V30 3874 O 388.262 1.81582 0.182836 0
M  V30 3875 C 388.313 1.49432 -3.29169 0
M  V30 3876 O 388.034 0.577261 -4.3428 0
M  V30 3877 C 389.535 2.29492 -3.79273 0
M  V30 3878 H 386.755 0.206706 -0.638368 0
M  V30 3879 H 389.299 -0.00992046 -2.04498 0
M  V30 3880 H 387.454 2.1911 -3.19483 0
M  V30 3881 H 387.868 1.10952 -5.1263 0
M  V30 3882 H 389.342 2.78172 -4.76785 0
M  V30 3883 H 389.819 3.10794 -3.10328 0
M  V30 3884 H 390.425 1.64894 -3.92033 0
M  V30 3885 N 388.74 1.54641 0.303973 0
M  V30 3886 C 389.989 1.7299 1.03717 0
M  V30 3887 C 390.302 0.521168 1.88529 0
M  V30 3888 O 391.508 0.586408 2.65092 0
M  V30 3889 C 389.964 3.06051 1.89369 0
M  V30 3890 C 389.572 4.34393 1.09574 0
M  V30 3891 C 391.316 3.3376 2.62306 0
M  V30 3892 C 389.223 5.58506 1.94486 0
M  V30 3893 H 388.153 0.64473 0.390947 0
M  V30 3894 H 390.804 1.81124 0.294328 0
M  V30 3895 H 389.186 2.91874 2.67629 0
M  V30 3896 H 390.36 4.59396 0.359485 0
M  V30 3897 H 388.675 4.13597 0.482324 0
M  V30 3898 H 391.272 4.23687 3.26181 0
M  V30 3899 H 391.615 2.52503 3.3098 0
M  V30 3900 H 392.148 3.48894 1.91097 0
M  V30 3901 H 388.887 6.42422 1.30287 0
M  V30 3902 H 388.407 5.37694 2.65792 0
M  V30 3903 H 390.086 5.95651 2.52605 0
M  V30 3904 N 390.218 -0.567019 1.47046 0
M  V30 3905 C 391.166 -1.69593 1.59188 0
M  V30 3906 C 392.16 -1.63046 0.459609 0
M  V30 3907 O 393.366 -1.6835 0.637058 0
M  V30 3908 H 389.741 -0.560993 0.500791 0
M  V30 3909 H 391.712 -1.56488 2.54075 0
M  V30 3910 C 390.461 -3.07964 1.61411 0
M  V30 3911 H 389.784 -3.13679 2.47881 0
M  V30 3912 H 391.224 -3.86671 1.73958 0
M  V30 3913 C 389.683 -3.35123 0.34559 0
M  V30 3914 O 390.213 -3.97812 -0.557521 0
M  V30 3915 N 388.419 -2.89699 0.22864 0
M  V30 3916 H 387.966 -2.38863 0.964479 0
M  V30 3917 H 387.924 -3.08242 -0.619192 0
M  V30 3918 N 391.696 -1.35014 -0.812953 0
M  V30 3919 C 392.924 -1.31031 -1.6012 0
M  V30 3920 C 393.339 0.113558 -1.88458 0
M  V30 3921 O 392.696 1.06363 -1.48301 0
M  V30 3922 C 392.747 -2.10872 -2.93624 0
M  V30 3923 O 392.468 -3.47706 -2.66518 0
M  V30 3924 C 393.969 -2.14401 -3.88004 0
M  V30 3925 H 391.189 -0.45037 -0.497401 0
M  V30 3926 H 393.733 -1.77775 -1.01076 0
M  V30 3927 H 391.888 -1.67744 -3.492 0
M  V30 3928 H 392.302 -3.89097 -3.51715 0
M  V30 3929 H 393.776 -2.74669 -4.78812 0
M  V30 3930 H 394.253 -1.14105 -4.24119 0
M  V30 3931 H 394.859 -2.57662 -3.38364 0
M  V30 3932 N 393.175 1.03435 -1.18907 0
M  V30 3933 C 394.452 1.73778 -0.89781 0
M  V30 3934 C 394.832 2.02458 0.597832 0
M  V30 3935 O 394.18 1.67482 1.55441 0
M  V30 3936 C 394.39 3.01845 -1.75187 0
M  V30 3937 C 395.738 3.7546 -1.9828 0
M  V30 3938 O 396.762 3.11759 -1.72293 0
M  V30 3939 O 395.621 4.89966 -2.42065 0
M  V30 3940 H 392.715 0.75651 -0.334098 0
M  V30 3941 H 395.261 1.09444 -1.29693 0
M  V30 3942 H 394.033 2.76836 -2.76545 0
M  V30 3943 H 393.656 3.73919 -1.35167 0
M  V30 3944 N 394.653 0.992116 1.22453 0
M  V30 3945 C 395.601 0.534644 2.26372 0
M  V30 3946 C 396.595 -0.414293 1.64256 0
M  V30 3947 O 397.801 -0.286899 1.77699 0
M  V30 3948 H 394.176 0.154502 0.735957 0
M  V30 3949 H 396.147 1.42256 2.62309 0
M  V30 3950 C 394.896 -0.135815 3.47435 0
M  V30 3951 H 394.219 0.585311 3.95492 0
M  V30 3952 H 395.659 -0.419374 4.21921 0
M  V30 3953 C 394.118 -1.37089 3.07747 0
M  V30 3954 O 394.648 -2.46629 3.17076 0
M  V30 3955 N 392.854 -1.24585 2.62539 0
M  V30 3956 H 392.401 -0.354542 2.55149 0
M  V30 3957 H 392.359 -2.07327 2.36353 0
M  V30 3958 N 396.131 -1.37776 0.765217 0
M  V30 3959 C 397.377 -2.00145 0.327072 0
M  V30 3960 C 397.71 -1.60607 -1.09175 0
M  V30 3961 O 396.985 -0.849127 -1.74986 0
M  V30 3962 C 397.268 -3.57109 0.46319 0
M  V30 3963 C 397.121 -4.06576 1.92395 0
M  V30 3964 C 398.44 -4.39888 -0.136473 0
M  V30 3965 H 395.559 -0.727113 0.120316 0
M  V30 3966 H 398.201 -1.63549 0.967039 0
M  V30 3967 H 396.351 -3.88414 -0.0816358 0
M  V30 3968 H 398.023 -3.85864 2.52798 0
M  V30 3969 H 396.266 -3.59011 2.43503 0
M  V30 3970 H 396.937 -5.15639 1.97028 0
M  V30 3971 H 399.413 -4.14803 0.328317 0
M  V30 3972 H 398.289 -5.48899 -0.0110582 0
M  V30 3973 H 398.55 -4.24758 -1.22608 0
M  V30 3974 N 397.609 -0.515225 -1.4894 0
M  V30 3975 C 398.886 0.0879088 -1.95402 0
M  V30 3976 C 399.266 1.52745 -1.45712 0
M  V30 3977 O 398.614 2.18238 -0.677093 0
M  V30 3978 C 398.824 -0.0141055 -3.48997 0
M  V30 3979 C 400.172 0.152646 -4.24326 0
M  V30 3980 O 401.196 0.0604025 -3.56149 0
M  V30 3981 O 400.055 0.34384 -5.45417 0
M  V30 3982 H 397.149 0.0874636 -0.822362 0
M  V30 3983 H 399.695 -0.578775 -1.59525 0
M  V30 3984 H 398.467 -1.01745 -3.77841 0
M  V30 3985 H 398.09 0.692091 -3.9153 0
M  V30 3986 N 399.087 1.5561 -0.249682 0
M  V30 3987 C 400.333 1.99306 0.374841 0
M  V30 3988 C 400.666 1.13767 1.57387 0
M  V30 3989 O 399.941 0.201711 1.93451 0
M  V30 3990 C 400.224 3.51507 0.781986 0
M  V30 3991 C 400.077 4.4781 -0.422629 0
M  V30 3992 C 401.396 4.08884 1.62793 0
M  V30 3993 H 398.515 0.724572 0.134773 0
M  V30 3994 H 401.157 1.86719 -0.351549 0
M  V30 3995 H 399.307 3.62363 1.4009 0
M  V30 3996 H 400.979 4.48931 -1.06108 0
M  V30 3997 H 399.222 4.20518 -1.06524 0
M  V30 3998 H 399.893 5.51919 -0.0943766 0
M  V30 3999 H 402.369 4.01147 1.10547 0
M  V30 4000 H 401.245 5.1564 1.88166 0
M  V30 4001 H 401.506 3.57515 2.60068 0
M  V30 4002 N 400.565 -0.0233959 1.57583 0
M  V30 4003 C 401.495 -1.02162 2.09965 0
M  V30 4004 C 402.476 -1.3735 1.00344 0
M  V30 4005 O 403.661 -1.46135 1.27899 0
M  V30 4006 C 400.791 -2.32081 2.58371 0
M  V30 4007 C 399.745 -2.1112 3.72307 0
M  V30 4008 C 399.071 -3.46848 4.06941 0
M  V30 4009 C 400.371 -1.49276 5.00514 0
M  V30 4010 H 402.065 -0.585557 2.93618 0
M  V30 4011 H 399.611 -0.280218 1.41247 0
M  V30 4012 H 401.564 -3.02249 2.93639 0
M  V30 4013 H 400.288 -2.77758 1.71808 0
M  V30 4014 H 398.947 -1.43384 3.37397 0
M  V30 4015 H 398.595 -3.90184 3.17436 0
M  V30 4016 H 398.295 -3.33646 4.83688 0
M  V30 4017 H 399.819 -4.18369 4.44747 0
M  V30 4018 H 401.233 -2.09368 5.33702 0
M  V30 4019 H 399.63 -1.46632 5.8191 0
M  V30 4020 H 400.7 -0.459217 4.82721 0
M  V30 4021 N 402.043 -1.548 -0.295768 0
M  V30 4022 C 403.289 -1.74588 -1.03184 0
M  V30 4023 C 403.622 -0.532962 -1.86744 0
M  V30 4024 O 402.897 0.469872 -1.88739 0
M  V30 4025 C 403.18 -3.03791 -1.93347 0
M  V30 4026 C 403.033 -4.35392 -1.12933 0
M  V30 4027 C 404.352 -3.28892 -2.92435 0
M  V30 4028 H 401.471 -0.635221 -0.373715 0
M  V30 4029 H 404.113 -1.87519 -0.30606 0
M  V30 4030 H 402.263 -2.92898 -2.55232 0
M  V30 4031 H 403.935 -4.58211 -0.532943 0
M  V30 4032 H 402.178 -4.31642 -0.432168 0
M  V30 4033 H 402.849 -5.22074 -1.79284 0
M  V30 4034 H 405.325 -3.39429 -2.4068 0
M  V30 4035 H 404.201 -4.20603 -3.52682 0
M  V30 4036 H 404.462 -2.47437 -3.6637 0
M  V30 4037 N 403.521 0.559213 -1.47345 0
M  V30 4038 C 404.798 1.31997 -1.44348 0
M  V30 4039 C 405.178 2.1064 -0.139358 0
M  V30 4040 O 404.526 2.1091 0.879153 0
M  V30 4041 C 404.736 2.22618 -2.68779 0
M  V30 4042 C 406.084 2.83701 -3.1591 0
M  V30 4043 O 407.108 2.32921 -2.69493 0
M  V30 4044 O 405.967 3.75993 -3.966 0
M  V30 4045 H 403.061 0.594251 -0.575147 0
M  V30 4046 H 405.607 0.578282 -1.59543 0
M  V30 4047 H 404.379 1.64093 -3.55231 0
M  V30 4048 H 404.002 3.04085 -2.5616 0
M  V30 4049 N 404.999 1.35443 0.805782 0
M  V30 4050 C 406.224 1.32037 1.59941 0
M  V30 4051 C 406.649 -0.0994215 1.87837 0
M  V30 4052 O 406.007 -1.06648 1.46615 0
M  V30 4053 C 406.055 2.13354 2.90711 0
M  V30 4054 O 405.159 1.5148 3.83572 0
M  V30 4055 H 404.5 0.452666 0.485787 0
M  V30 4056 H 407.03 1.78496 1.00002 0
M  V30 4057 H 407.04 2.25338 3.40128 0
M  V30 4058 H 405.715 3.16572 2.69732 0
M  V30 4059 H 404.292 1.4834 3.42125 0
M  V30 4060 N 406.477 -1.02803 1.19454 0
M  V30 4061 C 407.725 -1.75869 0.995722 0
M  V30 4062 C 408.046 -1.89138 -0.474543 0
M  V30 4063 O 407.316 -1.42558 -1.34366 0
M  V30 4064 H 405.896 -0.651511 0.365435 0
M  V30 4065 H 408.558 -1.24004 1.50363 0
M  V30 4066 H 407.654 -2.76661 1.44447 0
M  V30 4067 N 407.956 -0.998596 -1.21925 0
M  V30 4068 C 409.184 -0.696286 -1.94832 0
M  V30 4069 C 409.599 0.740032 -1.73692 0
M  V30 4070 O 408.956 1.5 -1.03953 0
M  V30 4071 C 409.007 -0.999833 -3.47398 0
M  V30 4072 O 408.728 -2.37972 -3.67833 0
M  V30 4073 C 410.229 -0.716025 -4.37479 0
M  V30 4074 H 407.449 -0.257111 -0.619786 0
M  V30 4075 H 409.993 -1.33491 -1.54921 0
M  V30 4076 H 408.148 -0.406918 -3.85257 0
M  V30 4077 H 408.562 -2.48338 -4.61983 0
M  V30 4078 H 410.036 -0.978642 -5.43256 0
M  V30 4079 H 410.513 0.349968 -4.37803 0
M  V30 4080 H 411.119 -1.29025 -4.05256 0
M  V30 4081 N 409.434 1.37368 -0.772513 0
M  V30 4082 C 410.662 2.03942 -0.348588 0
M  V30 4083 C 411.077 1.58264 1.02947 0
M  V30 4084 O 410.434 0.764246 1.65727 0
M  V30 4085 C 410.485 3.5946 -0.38351 0
M  V30 4086 O 410.206 4.03468 -1.70721 0
M  V30 4087 C 411.707 4.4327 0.0519152 0
M  V30 4088 H 408.927 0.654931 -0.145966 0
M  V30 4089 H 411.471 1.75686 -1.04665 0
M  V30 4090 H 409.626 3.86486 0.265978 0
M  V30 4091 H 410.04 4.97991 -1.64636 0
M  V30 4092 H 411.514 5.51995 -0.0236733 0
M  V30 4093 H 411.991 4.2514 1.10238 0
M  V30 4094 H 412.597 4.21471 -0.569415 0
M  V30 4095 N 410.912 0.523116 1.48665 0
M  V30 4096 C 412.161 -0.01544 2.01694 0
M  V30 4097 C 412.474 -1.35975 1.40606 0
M  V30 4098 O 413.68 -1.98627 1.85093 0
M  V30 4099 C 412.136 -0.0779303 3.59816 0
M  V30 4100 C 411.744 1.26107 4.29885 0
M  V30 4101 C 413.488 -0.565678 4.20714 0
M  V30 4102 C 411.395 1.15954 5.79921 0
M  V30 4103 H 410.325 -0.00954163 0.75394 0
M  V30 4104 H 412.976 0.665865 1.70993 0
M  V30 4105 H 411.358 -0.824165 3.87329 0
M  V30 4106 H 412.532 2.02233 4.14051 0
M  V30 4107 H 410.847 1.68401 3.80828 0
M  V30 4108 H 413.444 -0.6595 5.30617 0
M  V30 4109 H 413.787 -1.56984 3.85567 0
M  V30 4110 H 414.32 0.12467 3.97605 0
M  V30 4111 H 411.059 2.13864 6.19631 0
M  V30 4112 H 410.579 0.439529 5.98187 0
M  V30 4113 H 412.258 0.847361 6.41427 0
M  V30 4114 N 412.39 -1.55475 0.257931 0
M  V30 4115 C 413.618 -2.03609 -0.367559 0
M  V30 4116 C 414.033 -1.13687 -1.50734 0
M  V30 4117 O 413.39 -0.153479 -1.81853 0
M  V30 4118 C 413.441 -3.51001 -0.864908 0
M  V30 4119 O 413.162 -4.37499 0.229465 0
M  V30 4120 C 414.663 -4.14946 -1.55997 0
M  V30 4121 H 411.883 -0.665459 -0.0860521 0
M  V30 4122 H 414.427 -2.00843 0.385014 0
M  V30 4123 H 412.582 -3.54266 -1.56762 0
M  V30 4124 H 412.996 -5.24286 -0.14998 0
M  V30 4125 H 414.47 -5.19735 -1.85956 0
M  V30 4126 H 414.947 -3.6209 -2.4857 0
M  V30 4127 H 415.553 -4.15635 -0.901543 0
M  V30 4128 N 413.868 0.0150385 -1.57593 0
M  V30 4129 C 415.098 0.713359 -1.93894 0
M  V30 4130 C 415.506 1.68663 -0.857289 0
M  V30 4131 O 414.849 1.82876 0.173788 0
M  V30 4132 C 414.911 1.51348 -3.26089 0
M  V30 4133 C 414.575 0.703451 -4.51554 0
M  V30 4134 C 415.572 -0.00237924 -5.199 0
M  V30 4135 C 413.257 0.653854 -4.98026 0
M  V30 4136 C 415.251 -0.746955 -6.33008 0
M  V30 4137 C 412.938 -0.0944578 -6.11027 0
M  V30 4138 C 413.936 -0.793609 -6.78374 0
M  V30 4139 O 413.624 -1.52974 -7.89211 0
M  V30 4140 H 413.356 0.204637 -0.644282 0
M  V30 4141 H 415.91 -0.0276411 -2.05381 0
M  V30 4142 H 414.14 2.29862 -3.10967 0
M  V30 4143 H 415.829 2.09572 -3.47612 0
M  V30 4144 H 416.595 0.0268803 -4.84993 0
M  V30 4145 H 412.474 1.18756 -4.45441 0
M  V30 4146 H 416.018 -1.2932 -6.85509 0
M  V30 4147 H 411.915 -0.125591 -6.45378 0
M  V30 4148 H 412.683 -1.44488 -8.05646 0
M  V30 4149 N 415.346 1.54954 0.287554 0
M  V30 4150 C 416.276 1.89839 1.35954 0
M  V30 4151 C 417.257 0.758675 1.52244 0
M  V30 4152 O 418.442 1.01557 1.65529 0
M  V30 4153 C 415.572 2.15753 2.72154 0
M  V30 4154 C 414.526 3.3159 2.70614 0
M  V30 4155 C 413.852 3.42952 4.10229 0
M  V30 4156 C 415.152 4.68359 2.31165 0
M  V30 4157 H 416.846 2.79625 1.07007 0
M  V30 4158 H 414.392 1.3454 0.513316 0
M  V30 4159 H 416.345 2.38743 3.47246 0
M  V30 4160 H 415.069 1.22752 3.02654 0
M  V30 4161 H 413.728 3.08545 1.97979 0
M  V30 4162 H 413.376 2.47443 4.37928 0
M  V30 4163 H 413.076 4.20826 4.10097 0
M  V30 4164 H 414.6 3.68218 4.87081 0
M  V30 4165 H 416.014 4.9099 2.95976 0
M  V30 4166 H 414.411 5.49044 2.42221 0
M  V30 4167 H 415.481 4.68165 1.26291 0
M  V30 4168 N 416.824 -0.551391 1.4764 0
M  V30 4169 C 417.756 -1.67333 1.56628 0
M  V30 4170 C 418.769 -1.56398 0.452045 0
M  V30 4171 O 419.958 -1.6325 0.721926 0
M  V30 4172 C 417.058 -3.05841 1.45994 0
M  V30 4173 C 416.231 -3.42472 2.72088 0
M  V30 4174 C 415.29 -4.60168 2.55209 0
M  V30 4175 O 414.316 -4.64458 3.2904 0
M  V30 4176 N 415.518 -5.57024 1.63416 0
M  V30 4177 H 418.283 -1.60066 2.53375 0
M  V30 4178 H 415.844 -0.738169 1.44093 0
M  V30 4179 H 417.836 -3.8242 1.32428 0
M  V30 4180 H 416.406 -3.07302 0.573071 0
M  V30 4181 H 415.626 -2.55284 3.00373 0
M  V30 4182 H 416.914 -3.63723 3.55785 0
M  V30 4183 H 416.312 -5.56319 1.02594 0
M  V30 4184 H 414.869 -6.32906 1.558 0
M  V30 4185 N 418.302 -1.35869 -0.798587 0
M  V30 4186 C 419.234 -1.25305 -1.91915 0
M  V30 4187 C 420.247 -0.174548 -1.61862 0
M  V30 4188 O 421.436 -0.428499 -1.73281 0
M  V30 4189 C 418.536 -0.9086 -3.26493 0
M  V30 4190 C 417.709 -2.08711 -3.84394 0
M  V30 4191 C 416.768 -1.71717 -4.97393 0
M  V30 4192 O 415.794 -2.43692 -5.14396 0
M  V30 4193 N 416.996 -0.645473 -5.769 0
M  V30 4194 H 419.761 -2.21849 -2.01502 0
M  V30 4195 H 417.322 -1.29143 -0.976408 0
M  V30 4196 H 419.314 -0.642455 -3.99568 0
M  V30 4197 H 417.884 -0.0325815 -3.12583 0
M  V30 4198 H 417.104 -2.51659 -3.03416 0
M  V30 4199 H 418.392 -2.87468 -4.19809 0
M  V30 4200 H 417.79 -0.047648 -5.6568 0
M  V30 4201 H 416.347 -0.43913 -6.50319 0
M  V30 4202 N 419.78 1.02168 -1.19998 0
M  V30 4203 C 421.057 1.72816 -0.916191 0
M  V30 4204 C 421.437 2.03081 0.576325 0
M  V30 4205 O 420.785 1.69122 1.53656 0
M  V30 4206 C 420.995 2.9997 -1.78378 0
M  V30 4207 C 422.343 3.73336 -2.02251 0
M  V30 4208 O 423.367 3.09914 -1.75589 0
M  V30 4209 O 422.226 4.87371 -2.47249 0
M  V30 4210 H 419.32 0.752924 -0.342103 0
M  V30 4211 H 421.866 1.08062 -1.30846 0
M  V30 4212 H 420.638 2.73888 -2.79466 0
M  V30 4213 H 420.261 3.72464 -1.39126 0
M  V30 4214 N 421.258 1.00505 1.21394 0
M  V30 4215 C 422.188 0.585684 2.26035 0
M  V30 4216 C 423.169 -0.393525 1.65485 0
M  V30 4217 O 424.354 -0.281497 1.92149 0
M  V30 4218 C 421.484 -0.0884283 3.47187 0
M  V30 4219 C 420.438 0.810567 4.20254 0
M  V30 4220 C 419.764 0.00286382 5.347 0
M  V30 4221 C 421.064 2.1132 4.77641 0
M  V30 4222 H 422.758 1.46039 2.61368 0
M  V30 4223 H 420.304 0.703648 1.25638 0
M  V30 4224 H 422.257 -0.393286 4.19561 0
M  V30 4225 H 420.981 -0.997766 3.10986 0
M  V30 4226 H 419.64 1.09925 3.49731 0
M  V30 4227 H 419.288 -0.907765 4.94741 0
M  V30 4228 H 418.988 0.601444 5.84514 0
M  V30 4229 H 420.512 -0.295808 6.09883 0
M  V30 4230 H 421.926 1.87148 5.41893 0
M  V30 4231 H 420.323 2.66164 5.37845 0
M  V30 4232 H 421.393 2.78393 3.9702 0
M  V30 4233 N 422.737 -1.36956 0.779787 0
M  V30 4234 C 423.7 -2.2851 0.177662 0
M  V30 4235 C 424.7 -1.48393 -0.619377 0
M  V30 4236 O 425.89 -1.68505 -0.441785 0
M  V30 4237 C 423.022 -3.32428 -0.755279 0
M  V30 4238 H 424.215 -2.83269 0.984823 0
M  V30 4239 H 421.768 -1.46358 0.548544 0
M  V30 4240 H 422.503 -2.82808 -1.58714 0
M  V30 4241 H 422.288 -3.91659 -0.185817 0
M  V30 4242 H 423.778 -4.00824 -1.17174 0
M  V30 4243 N 424.215 -0.530993 -1.48385 0
M  V30 4244 C 425.492 0.0671788 -1.95485 0
M  V30 4245 C 425.872 1.51191 -1.47324 0
M  V30 4246 O 425.22 2.17507 -0.700202 0
M  V30 4247 C 425.43 -0.0511206 -3.48963 0
M  V30 4248 C 426.778 0.107632 -4.24464 0
M  V30 4249 O 427.802 0.0226248 -3.56193 0
M  V30 4250 O 426.661 0.285972 -5.45751 0
M  V30 4251 H 423.755 0.0787365 -0.823243 0
M  V30 4252 H 426.301 -0.595662 -1.58902 0
M  V30 4253 H 425.073 -1.05747 -3.7674 0
M  V30 4254 H 424.696 0.650525 -3.92242 0
M  V30 4255 N 425.693 1.55336 -0.266172 0
M  V30 4256 C 426.625 2.19544 0.658247 0
M  V30 4257 C 427.638 1.17746 1.12427 0
M  V30 4258 O 428.827 1.44517 1.04772 0
M  V30 4259 C 425.927 2.80032 1.9088 0
M  V30 4260 C 425.1 4.07436 1.59106 0
M  V30 4261 C 424.159 4.52056 2.69317 0
M  V30 4262 O 423.185 5.18023 2.35883 0
M  V30 4263 N 424.387 4.21448 3.99201 0
M  V30 4264 H 427.152 2.99503 0.108754 0
M  V30 4265 H 424.713 1.61667 -0.0869059 0
M  V30 4266 H 426.705 3.06831 2.63888 0
M  V30 4267 H 425.275 2.04119 2.36758 0
M  V30 4268 H 424.495 3.88021 0.695243 0
M  V30 4269 H 425.783 4.90462 1.35367 0
M  V30 4270 H 425.181 3.68528 4.29189 0
M  V30 4271 H 423.738 4.53039 4.68614 0
M  V30 4272 N 427.171 -0.0066808 1.57599 0
M  V30 4273 C 428.42 -0.692078 1.89455 0
M  V30 4274 C 428.733 -1.75306 0.867586 0
M  V30 4275 O 429.939 -2.49262 1.07614 0
M  V30 4276 C 428.395 -1.2821 3.36289 0
M  V30 4277 C 428.003 -0.256291 4.47266 0
M  V30 4278 C 429.747 -1.94608 3.77264 0
M  V30 4279 C 427.654 -0.855927 5.85173 0
M  V30 4280 H 426.584 -0.262252 0.706923 0
M  V30 4281 H 429.235 0.052769 1.83424 0
M  V30 4282 H 427.617 -2.0774 3.37135 0
M  V30 4283 H 428.791 0.513923 4.57925 0
M  V30 4284 H 427.106 0.306862 4.15268 0
M  V30 4285 H 429.703 -2.40364 4.77629 0
M  V30 4286 H 430.046 -2.77382 3.10427 0
M  V30 4287 H 430.579 -1.21822 3.78688 0
M  V30 4288 H 427.318 -0.0671161 6.55466 0
M  V30 4289 H 426.838 -1.59546 5.78191 0
M  V30 4290 H 428.517 -1.35658 6.32618 0
M  V30 4291 N 428.649 -1.55105 -0.279332 0
M  V30 4292 C 429.898 -1.74618 -1.00952 0
M  V30 4293 C 430.211 -0.551096 -1.87676 0
M  V30 4294 O 431.417 -0.628507 -2.64125 0
M  V30 4295 C 429.873 -3.09025 -1.84476 0
M  V30 4296 C 429.481 -4.36081 -1.0265 0
M  V30 4297 C 431.225 -3.37891 -2.56963 0
M  V30 4298 C 429.132 -5.6153 -1.85576 0
M  V30 4299 H 428.062 -0.650868 -0.38064 0
M  V30 4300 H 430.713 -1.81569 -0.265475 0
M  V30 4301 H 429.095 -2.96095 -2.62952 0
M  V30 4302 H 430.269 -4.59909 -0.286354 0
M  V30 4303 H 428.584 -4.14312 -0.416464 0
M  V30 4304 H 431.181 -4.28822 -3.19399 0
M  V30 4305 H 431.524 -2.57737 -3.26921 0
M  V30 4306 H 432.057 -3.5189 -1.85522 0
M  V30 4307 H 428.796 -6.44413 -1.2005 0
M  V30 4308 H 428.316 -5.41854 -2.57204 0
M  V30 4309 H 429.995 -5.99594 -2.43096 0
M  V30 4310 N 430.127 0.543554 -1.4793 0
M  V30 4311 C 431.074 1.64942 -1.6144 0
M  V30 4312 C 432.044 1.59692 -0.456903 0
M  V30 4313 O 433.229 1.78321 -0.678688 0
M  V30 4314 C 430.369 3.03238 -1.64744 0
M  V30 4315 C 429.482 3.18823 -2.91506 0
M  V30 4316 C 428.617 4.47599 -2.86057 0
M  V30 4317 C 427.656 4.56664 -4.07584 0
M  V30 4318 N 426.793 5.76811 -4.00292 0
M  V30 4319 H 431.633 1.52733 -2.55884 0
M  V30 4320 H 429.17 0.7438 -1.2691 0
M  V30 4321 H 431.128 3.83339 -1.64641 0
M  V30 4322 H 429.758 3.1425 -0.738017 0
M  V30 4323 H 428.81 2.32064 -3.01414 0
M  V30 4324 H 430.122 3.21384 -3.81463 0
M  V30 4325 H 429.276 5.35975 -2.84281 0
M  V30 4326 H 428.015 4.47538 -1.93807 0
M  V30 4327 H 427.02 3.66697 -4.09651 0
M  V30 4328 H 428.245 4.58474 -5.00978 0
M  V30 4329 H 426.191 5.77673 -3.10853 0
M  V30 4330 H 426.108 5.80808 -4.8394 0
M  V30 4331 H 427.376 6.67512 -4.02553 0
M  V30 4332 N 431.605 1.3629 0.791371 0
M  V30 4333 C 432.568 1.30309 1.88553 0
M  V30 4334 C 433.568 0.211204 1.59407 0
M  V30 4335 O 434.758 0.465865 1.67855 0
M  V30 4336 C 431.89 1.01956 3.25297 0
M  V30 4337 H 433.083 2.27614 1.95273 0
M  V30 4338 H 430.636 1.21035 0.988953 0
M  V30 4339 H 431.371 0.050998 3.2426 0
M  V30 4340 H 431.156 1.80968 3.4784 0
M  V30 4341 H 432.646 1.0037 4.05359 0
M  V30 4342 N 433.083 -1.0153 1.20538 0
M  V30 4343 C 434.33 -1.75149 1.01633 0
M  V30 4344 C 434.658 -1.89189 -0.451399 0
M  V30 4345 O 433.913 -1.41551 -1.35136 0
M  V30 4346 C 434.212 -3.17213 1.64654 0
M  V30 4347 C 433.878 -3.23146 3.14464 0
M  V30 4348 C 432.54 -3.24472 3.55347 0
M  V30 4349 C 434.892 -3.21207 4.10458 0
M  V30 4350 C 432.22 -3.21532 4.90748 0
M  V30 4351 C 434.572 -3.19808 5.45807 0
M  V30 4352 C 433.236 -3.19439 5.86102 0
M  V30 4353 H 432.506 -0.640914 0.3719 0
M  V30 4354 H 435.153 -1.19071 1.49981 0
M  V30 4355 H 433.458 -3.76457 1.08571 0
M  V30 4356 H 435.155 -3.72871 1.4754 0
M  V30 4357 H 431.745 -3.2285 2.81897 0
M  V30 4358 H 435.929 -3.19351 3.79906 0
M  V30 4359 H 431.185 -3.19578 5.21229 0
M  V30 4360 H 435.359 -3.1726 6.19935 0
M  V30 4361 H 432.986 -3.16915 6.90991 0
M  V30 4362 N 434.561 -1.01147 -1.20859 0
M  V30 4363 C 435.509 -0.57059 -2.25493 0
M  V30 4364 C 436.503 0.388109 -1.64894 0
M  V30 4365 O 437.709 0.258592 -1.78133 0
M  V30 4366 H 434.084 -0.166191 -0.733406 0
M  V30 4367 H 436.055 -1.46411 -2.60012 0
M  V30 4368 C 434.804 0.0805241 -3.47607 0
M  V30 4369 H 434.127 -0.648156 -3.94511 0
M  V30 4370 H 435.567 0.352197 -4.22535 0
M  V30 4371 C 434.026 1.32175 -3.09889 0
M  V30 4372 O 434.556 2.41553 -3.20959 0
M  V30 4373 N 432.762 1.20392 -2.64488 0
M  V30 4374 H 432.309 0.313905 -2.5568 0
M  V30 4375 H 432.267 2.03541 -2.39621 0
M  V30 4376 N 436.039 1.36541 -0.78704 0
M  V30 4377 C 437.287 1.98911 -0.357633 0
M  V30 4378 C 437.608 1.62778 1.07371 0
M  V30 4379 O 436.878 0.900612 1.73971 0
M  V30 4380 H 435.458 0.735734 -0.129246 0
M  V30 4381 H 438.12 1.66776 -1.00855 0
M  V30 4382 H 437.216 3.08874 -0.447549 0
M  V30 4383 N 437.518 0.538854 1.48102 0
M  V30 4384 C 438.465 -0.219042 2.29758 0
M  V30 4385 C 439.435 -0.925562 1.37922 0
M  V30 4386 O 440.62 -0.924855 1.66886 0
M  V30 4387 C 437.76 -1.25452 3.2149 0
M  V30 4388 C 436.873 -0.555943 4.28408 0
M  V30 4389 C 436.008 -1.57512 5.0731 0
M  V30 4390 C 435.047 -0.860498 6.06021 0
M  V30 4391 N 434.184 -1.82564 6.77949 0
M  V30 4392 H 439.024 0.483449 2.94052 0
M  V30 4393 H 436.561 0.250247 1.44956 0
M  V30 4394 H 438.519 -1.86727 3.7308 0
M  V30 4395 H 437.149 -1.92528 2.591 0
M  V30 4396 H 436.201 0.170938 3.80016 0
M  V30 4397 H 437.513 0.00474616 4.988 0
M  V30 4398 H 436.667 -2.26191 5.62959 0
M  V30 4399 H 435.406 -2.16972 4.36778 0
M  V30 4400 H 434.411 -0.159686 5.49568 0
M  V30 4401 H 435.636 -0.271897 6.78555 0
M  V30 4402 H 433.582 -2.40915 6.10161 0
M  V30 4403 H 433.499 -1.31662 7.44447 0
M  V30 4404 H 434.767 -2.50414 7.38182 0
M  V30 4405 N 438.996 -1.55193 0.274407 0
M  V30 4406 C 439.926 -2.25471 -0.607032 0
M  V30 4407 C 440.907 -1.24461 -1.15946 0
M  V30 4408 O 442.092 -1.53179 -1.19373 0
M  V30 4409 C 439.222 -2.97526 -1.79153 0
M  V30 4410 C 438.176 -4.05459 -1.37067 0
M  V30 4411 C 437.502 -4.65084 -2.6382 0
M  V30 4412 C 438.802 -5.19691 -0.521389 0
M  V30 4413 H 440.496 -2.99393 -0.0209343 0
M  V30 4414 H 438.042 -1.43997 -0.00862866 0
M  V30 4415 H 439.995 -3.45402 -2.41404 0
M  V30 4416 H 438.719 -2.21138 -2.40344 0
M  V30 4417 H 437.378 -3.58393 -0.771355 0
M  V30 4418 H 437.026 -3.85365 -3.23268 0
M  V30 4419 H 436.726 -5.37961 -2.36372 0
M  V30 4420 H 438.25 -5.15708 -3.26921 0
M  V30 4421 H 439.664 -5.63623 -1.04889 0
M  V30 4422 H 438.061 -5.99126 -0.341825 0
M  V30 4423 H 439.131 -4.82713 0.46 0
M  V30 4424 N 440.474 -0.00167713 -1.576 0
M  V30 4425 C 441.702 0.693759 -1.94922 0
M  V30 4426 C 442.117 1.67215 -0.876626 0
M  V30 4427 O 441.474 1.81929 0.144279 0
M  V30 4428 C 441.525 1.42416 -3.32265 0
M  V30 4429 O 441.246 0.485014 -4.35407 0
M  V30 4430 C 442.747 2.21395 -3.84056 0
M  V30 4431 H 439.967 0.193118 -0.642609 0
M  V30 4432 H 442.511 -0.0532952 -2.04431 0
M  V30 4433 H 440.666 2.12284 -3.24059 0
M  V30 4434 H 441.08 1.00053 -5.14868 0
M  V30 4435 H 442.554 2.67996 -4.82578 0
M  V30 4436 H 443.031 3.04142 -3.16851 0
M  V30 4437 H 443.637 1.56542 -3.95443 0
M  V30 4438 N 441.952 1.55251 0.271103 0
M  V30 4439 C 442.884 1.84675 1.35749 0
M  V30 4440 C 443.897 0.731366 1.45447 0
M  V30 4441 O 445.086 1.00924 1.4723 0
M  V30 4442 C 442.186 1.99638 2.73857 0
M  V30 4443 C 441.359 3.30312 2.86727 0
M  V30 4444 C 440.418 3.35318 4.05522 0
M  V30 4445 O 439.444 4.08682 3.96191 0
M  V30 4446 N 440.646 2.62857 5.17577 0
M  V30 4447 H 443.411 2.78445 1.10853 0
M  V30 4448 H 440.972 1.55191 0.461218 0
M  V30 4449 H 442.964 2.00355 3.51625 0
M  V30 4450 H 441.534 1.12725 2.91568 0
M  V30 4451 H 440.754 3.42118 1.95829 0
M  V30 4452 H 442.042 4.16488 2.92258 0
M  V30 4453 H 441.44 2.02939 5.28046 0
M  V30 4454 H 439.997 2.69295 5.93568 0
M  V30 4455 N 443.43 -0.535701 1.48216 0
M  V30 4456 C 444.707 -1.29683 1.46429 0
M  V30 4457 C 445.087 -2.10391 0.172852 0
M  V30 4458 O 444.435 -2.12282 -0.845488 0
M  V30 4459 C 444.645 -2.18313 2.72287 0
M  V30 4460 C 445.993 -2.78639 3.20383 0
M  V30 4461 O 447.017 -2.28604 2.73164 0
M  V30 4462 O 445.876 -3.69636 4.02531 0
M  V30 4463 H 442.97 -0.585026 0.584529 0
M  V30 4464 H 445.516 -0.552827 1.60443 0
M  V30 4465 H 444.288 -1.58421 3.57797 0
M  V30 4466 H 443.911 -2.99971 2.60966 0
M  V30 4467 N 444.908 -1.36708 -0.784132 0
M  V30 4468 C 446.133 -1.34565 -1.5782 0
M  V30 4469 C 446.558 0.0695257 -1.87971 0
M  V30 4470 O 445.916 1.04302 -1.48293 0
M  V30 4471 C 445.964 -2.17952 -2.87279 0
M  V30 4472 O 445.068 -1.57563 -3.81114 0
M  V30 4473 H 444.409 -0.460337 -0.478524 0
M  V30 4474 H 446.939 -1.80064 -0.971495 0
M  V30 4475 H 446.949 -2.30721 -3.365 0
M  V30 4476 H 445.624 -3.20823 -2.64661 0
M  V30 4477 H 444.201 -1.53764 -3.39722 0
M  V30 4478 N 446.386 1.0089 -1.21074 0
M  V30 4479 C 447.334 2.11707 -0.963476 0
M  V30 4480 C 448.328 1.69172 0.0879032 0
M  V30 4481 O 449.534 1.79889 -0.0631415 0
M  V30 4482 H 445.909 0.692026 -0.294287 0
M  V30 4483 H 447.88 2.29743 -1.90422 0
M  V30 4484 C 446.629 3.43473 -0.540509 0
M  V30 4485 H 445.952 3.76634 -1.34114 0
M  V30 4486 H 447.392 4.22044 -0.406777 0
M  V30 4487 C 445.851 3.2849 0.748079 0
M  V30 4488 O 446.381 3.58883 1.8046 0
M  V30 4489 N 444.587 2.81715 0.713081 0
M  V30 4490 H 444.134 2.5718 -0.146973 0
M  V30 4491 H 444.092 2.72071 1.57558 0
M  V30 4492 N 447.864 1.01787 1.20321 0
M  V30 4493 C 449.112 0.706538 1.89347 0
M  V30 4494 C 449.433 -0.766289 1.79313 0
M  V30 4495 O 448.703 -1.55126 1.19635 0
M  V30 4496 H 447.283 0.258348 0.700903 0
M  V30 4497 H 449.945 1.28974 1.46122 0
M  V30 4498 H 449.041 0.991066 2.95946 0
M  V30 4499 N 449.342 -1.36122 0.79427 0
M  V30 4500 C 450.29 -2.31871 0.184023 0
M  V30 4501 C 451.284 -1.56041 -0.659365 0
M  V30 4502 O 452.49 -1.71266 -0.553906 0
M  V30 4503 H 448.865 -0.750896 0.0407373 0
M  V30 4504 H 450.836 -2.80898 1.00693 0
M  V30 4505 C 449.585 -3.41324 -0.662813 0
M  V30 4506 H 448.908 -3.99793 -0.0231944 0
M  V30 4507 H 450.348 -4.10629 -1.05639 0
M  V30 4508 C 448.807 -2.83308 -1.82313 0
M  V30 4509 O 449.337 -2.75863 -2.91997 0
M  V30 4510 N 447.543 -2.40529 -1.63077 0
M  V30 4511 H 447.09 -2.46785 -0.738591 0
M  V30 4512 H 447.048 -2.02059 -2.40872 0
M  V30 4513 N 450.82 -0.546701 -1.47814 0
M  V30 4514 C 452.045 -0.021268 -2.07389 0
M  V30 4515 C 452.47 1.25822 -1.39822 0
M  V30 4516 O 451.828 1.75111 -0.46968 0
M  V30 4517 C 451.876 0.168502 -3.60206 0
M  V30 4518 O 450.98 1.23347 -3.93522 0
M  V30 4519 H 450.321 -0.0466108 -0.662362 0
M  V30 4520 H 452.851 -0.759387 -1.89985 0
M  V30 4521 H 452.861 0.385982 -4.0617 0
M  V30 4522 H 451.536 -0.766075 -4.08784 0
M  V30 4523 H 450.113 0.997319 -3.59316 0
M  V30 4524 N 452.299 1.55045 -0.282633 0
M  V30 4525 C 453.546 1.9976 0.33199 0
M  V30 4526 C 453.874 1.17105 1.55295 0
M  V30 4527 O 453.129 0.230599 1.94337 0
M  V30 4528 C 453.428 3.49422 0.750938 0
M  V30 4529 C 453.094 4.4941 -0.366228 0
M  V30 4530 C 451.756 4.76471 -0.672964 0
M  V30 4531 C 454.108 5.09054 -1.11864 0
M  V30 4532 C 451.436 5.60442 -1.73556 0
M  V30 4533 C 453.788 5.9418 -2.17102 0
M  V30 4534 C 452.452 6.19558 -2.48402 0
M  V30 4535 H 451.722 0.730974 0.121484 0
M  V30 4536 H 454.369 1.8732 -0.39791 0
M  V30 4537 H 452.674 3.59377 1.56063 0
M  V30 4538 H 454.371 3.81432 1.23736 0
M  V30 4539 H 450.961 4.2844 -0.117041 0
M  V30 4540 H 455.145 4.88165 -0.894925 0
M  V30 4541 H 450.401 5.78349 -1.983 0
M  V30 4542 H 454.575 6.39427 -2.75873 0
M  V30 4543 H 452.202 6.84417 -3.30874 0
M  V30 4544 N 453.777 0.010035 1.57597 0
M  V30 4545 C 455.007 -0.682422 1.95004 0
M  V30 4546 C 455.415 -1.67278 0.884014 0
M  V30 4547 O 454.758 -1.83129 -0.144672 0
M  V30 4548 C 454.82 -1.46141 3.28456 0
M  V30 4549 C 454.484 -0.631523 4.52615 0
M  V30 4550 C 455.481 0.0850905 5.1983 0
M  V30 4551 C 453.166 -0.574539 4.99003 0
M  V30 4552 C 455.16 0.847566 6.3174 0
M  V30 4553 C 452.847 0.191655 6.10799 0
M  V30 4554 C 453.845 0.901432 6.77025 0
M  V30 4555 O 453.533 1.65511 7.86677 0
M  V30 4556 H 453.265 -0.194361 0.647456 0
M  V30 4557 H 455.819 0.060312 2.05311 0
M  V30 4558 H 454.049 -2.24885 3.14585 0
M  V30 4559 H 455.738 -2.04016 3.50902 0
M  V30 4560 H 456.504 0.0502812 4.84974 0
M  V30 4561 H 452.383 -1.11654 4.47274 0
M  V30 4562 H 455.927 1.4021 6.83364 0
M  V30 4563 H 451.824 0.228249 6.45096 0
M  V30 4564 H 452.592 1.57287 8.03245 0
M  V30 4565 N 455.255 -1.55392 -0.262866 0
M  V30 4566 C 456.165 -1.92077 -1.34698 0
M  V30 4567 C 457.181 -0.819227 -1.53508 0
M  V30 4568 O 458.357 -1.11921 -1.67439 0
M  V30 4569 C 455.422 -2.19407 -2.68443 0
M  V30 4570 C 454.483 -3.42905 -2.58292 0
M  V30 4571 C 453.716 -3.68921 -3.85659 0
M  V30 4572 O 453.939 -2.97275 -4.8681 0
M  V30 4573 O 452.873 -4.62455 -3.85252 0
M  V30 4574 H 456.699 -2.84384 -1.06581 0
M  V30 4575 H 454.284 -1.42069 -0.462264 0
M  V30 4576 H 456.166 -2.38365 -3.47506 0
M  V30 4577 H 454.841 -1.30282 -2.96325 0
M  V30 4578 H 453.748 -3.29272 -1.7757 0
M  V30 4579 H 455.081 -4.32282 -2.35358 0
M  V30 4580 N 456.733 0.527833 -1.48498 0
M  V30 4581 C 457.979 1.28545 -1.56857 0
M  V30 4582 C 458.312 1.92678 -0.242651 0
M  V30 4583 O 457.587 1.79394 0.751545 0
M  V30 4584 C 457.87 2.37314 -2.70839 0
M  V30 4585 C 457.723 1.77858 -4.13142 0
M  V30 4586 C 459.042 3.39068 -2.80573 0
M  V30 4587 H 456.161 0.466006 -0.570971 0
M  V30 4588 H 458.803 0.587784 -1.8068 0
M  V30 4589 H 456.953 2.96821 -2.50658 0
M  V30 4590 H 458.625 1.22385 -4.44769 0
M  V30 4591 H 456.868 1.08383 -4.20042 0
M  V30 4592 H 457.539 2.56624 -4.88721 0
M  V30 4593 H 460.015 2.89518 -2.98862 0
M  V30 4594 H 458.891 4.12566 -3.6205 0
M  V30 4595 H 459.152 3.9975 -1.88818 0
M  V30 4596 N 458.211 1.37122 0.776871 0
M  V30 4597 C 459.488 1.22586 1.52421 0
M  V30 4598 C 459.868 -0.182726 2.10308 0
M  V30 4599 O 459.216 -1.18979 1.9508 0
M  V30 4600 C 459.426 2.31782 2.60918 0
M  V30 4601 C 460.774 2.69071 3.2846 0
M  V30 4602 O 461.798 2.3092 2.71209 0
M  V30 4603 O 460.657 3.3478 4.31954 0
M  V30 4604 H 457.751 0.478045 0.674835 0
M  V30 4605 H 460.297 1.48888 0.814275 0
M  V30 4606 H 459.069 3.26131 2.16227 0
M  V30 4607 H 458.692 2.06916 3.39517 0
M  V30 4608 N 459.689 -1.00246 1.21608 0
M  V30 4609 C 460.929 -1.75589 1.04631 0
M  V30 4610 C 461.293 -1.87513 -0.412648 0
M  V30 4611 O 462.494 -2.59444 -0.703003 0
M  V30 4612 C 460.765 -3.12893 1.72722 0
M  V30 4613 S 462.324 -4.04095 1.71034 0
M  V30 4614 H 459.142 -0.604133 0.374892 0
M  V30 4615 H 461.744 -1.19927 1.54395 0
M  V30 4616 H 460.448 -3.0185 2.78055 0
M  V30 4617 H 459.979 -3.73628 1.23149 0
M  V30 4618 H 461.994 -4.9045 0.753231 0
M  V30 4619 N 461.167 -1.02423 -1.1978 0
M  V30 4620 C 462.115 -0.594474 -2.24875 0
M  V30 4621 C 463.109 0.370598 -1.65296 0
M  V30 4622 O 464.315 0.239684 -1.78397 0
M  V30 4623 H 460.69 -0.173961 -0.731602 0
M  V30 4624 H 462.661 -1.4916 -2.58445 0
M  V30 4625 C 461.41 0.0436512 -3.47673 0
M  V30 4626 H 460.733 -0.689963 -3.93801 0
M  V30 4627 H 462.173 0.307362 -4.22884 0
M  V30 4628 C 460.632 1.28881 -3.11274 0
M  V30 4629 O 461.162 2.38135 -3.23503 0
M  V30 4630 N 459.368 1.1758 -2.6575 0
M  V30 4631 H 458.915 0.286769 -2.55999 0
M  V30 4632 H 458.873 2.00988 -2.41767 0
M  V30 4633 N 462.645 1.35699 -0.801477 0
M  V30 4634 C 463.575 2.32436 -0.222658 0
M  V30 4635 C 464.556 1.5723 0.649057 0
M  V30 4636 O 465.741 1.85324 0.580387 0
M  V30 4637 C 462.871 3.41469 0.633719 0
M  V30 4638 C 461.825 4.27774 -0.139083 0
M  V30 4639 C 461.151 5.28082 0.838666 0
M  V30 4640 C 462.451 5.04946 -1.33517 0
M  V30 4641 H 464.145 2.81094 -1.03086 0
M  V30 4642 H 461.691 1.35146 -0.497155 0
M  V30 4643 H 463.644 4.08143 1.04868 0
M  V30 4644 H 462.368 2.91408 1.47475 0
M  V30 4645 H 461.027 3.62673 -0.535156 0
M  V30 4646 H 460.675 4.7429 1.67506 0
M  V30 4647 H 460.375 5.86695 0.32594 0
M  V30 4648 H 461.899 5.97628 1.25194 0
M  V30 4649 H 463.313 5.64593 -0.995349 0
M  V30 4650 H 461.71 5.7303 -1.78202 0
M  V30 4651 H 462.78 4.35886 -2.12442 0
M  V30 4652 N 464.123 0.554532 1.47522 0
M  V30 4653 C 465.348 0.0322661 2.07375 0
M  V30 4654 C 465.773 -1.25079 1.40488 0
M  V30 4655 O 465.131 -1.74859 0.47896 0
M  V30 4656 C 465.179 -0.149397 3.6029 0
M  V30 4657 O 464.283 -1.21259 3.9417 0
M  V30 4658 H 463.624 0.0501228 0.662106 0
M  V30 4659 H 466.154 0.769452 1.8958 0
M  V30 4660 H 466.164 -0.364437 4.06369 0
M  V30 4661 H 464.839 0.787743 4.08372 0
M  V30 4662 H 463.416 -0.97825 3.5984 0
M  V30 4663 N 465.601 -1.54893 0.290851 0
M  V30 4664 C 466.849 -1.99538 -0.320756 0
M  V30 4665 C 467.17 -1.18075 -1.55188 0
M  V30 4666 O 466.44 -0.274162 -1.93972 0
M  V30 4667 H 465.02 -0.737052 -0.121507 0
M  V30 4668 H 467.682 -1.90755 0.399832 0
M  V30 4669 H 466.778 -3.06282 -0.599802 0
M  V30 4670 N 467.08 -0.0183926 -1.57589 0
M  V30 4671 C 468.357 0.700621 -1.82622 0
M  V30 4672 C 468.737 1.90951 -0.90005 0
M  V30 4673 O 468.085 2.28452 0.0469145 0
M  V30 4674 C 468.295 1.08899 -3.31575 0
M  V30 4675 C 469.643 1.48514 -3.9778 0
M  V30 4676 O 470.667 1.18227 -3.36007 0
M  V30 4677 O 469.526 2.04903 -5.06633 0
M  V30 4678 H 466.62 0.342743 -0.752633 0
M  V30 4679 H 469.166 -0.0452548 -1.6964 0
M  V30 4680 H 467.938 0.228113 -3.90635 0
M  V30 4681 H 467.561 1.89338 -3.49624 0
M  V30 4682 N 468.558 1.5553 0.254621 0
M  V30 4683 C 469.804 1.77262 0.985193 0
M  V30 4684 C 470.137 0.582286 1.85265 0
M  V30 4685 O 469.412 -0.419666 1.89919 0
M  V30 4686 C 469.695 3.0881 1.85225 0
M  V30 4687 C 469.548 4.38233 1.0135 0
M  V30 4688 C 470.867 3.3653 2.83612 0
M  V30 4689 H 467.986 0.644906 0.356742 0
M  V30 4690 H 470.628 1.88264 0.256236 0
M  V30 4691 H 468.778 2.99562 2.47376 0
M  V30 4692 H 470.45 4.59463 0.411269 0
M  V30 4693 H 468.693 4.32636 0.317574 0
M  V30 4694 H 469.364 5.26644 1.65379 0
M  V30 4695 H 471.84 3.45691 2.31596 0
M  V30 4696 H 470.716 4.29805 3.41407 0
M  V30 4697 H 470.977 2.57064 3.59681 0
M  V30 4698 N 470.036 -0.519951 1.48776 0
M  V30 4699 C 471.282 -1.27711 1.57536 0
M  V30 4700 C 471.615 -1.92547 0.252866 0
M  V30 4701 O 470.89 -1.7979 -0.742021 0
M  V30 4702 C 471.173 -2.35875 2.72094 0
M  V30 4703 C 471.026 -1.75664 4.1408 0
M  V30 4704 C 472.345 -3.37575 2.82367 0
M  V30 4705 H 469.464 -0.462971 0.573434 0
M  V30 4706 H 472.106 -0.578194 1.80989 0
M  V30 4707 H 470.256 -2.95488 2.52228 0
M  V30 4708 H 471.928 -1.20025 4.45412 0
M  V30 4709 H 470.171 -1.06154 4.20611 0
M  V30 4710 H 470.842 -2.54029 4.90075 0
M  V30 4711 H 473.318 -2.87929 3.00393 0
M  V30 4712 H 472.194 -4.1064 3.64233 0
M  V30 4713 H 472.455 -3.98743 1.90936 0
M  V30 4714 N 471.514 -1.37532 -0.769588 0
M  V30 4715 C 472.761 -1.3286 -1.52822 0
M  V30 4716 C 473.089 0.0862597 -1.94309 0
M  V30 4717 O 472.344 1.05995 -1.6451 0
M  V30 4718 C 472.643 -2.21558 -2.8044 0
M  V30 4719 C 472.309 -3.69796 -2.57996 0
M  V30 4720 C 470.971 -4.10194 -2.51583 0
M  V30 4721 C 473.323 -4.63699 -2.37976 0
M  V30 4722 C 470.651 -5.42608 -2.23144 0
M  V30 4723 C 473.003 -5.96353 -2.1106 0
M  V30 4724 C 471.667 -6.35853 -2.03093 0
M  V30 4725 H 470.937 -0.486168 -0.559215 0
M  V30 4726 H 473.584 -1.69757 -0.886277 0
M  V30 4727 H 471.889 -1.77663 -3.49204 0
M  V30 4728 H 473.586 -2.15256 -3.38328 0
M  V30 4729 H 470.176 -3.37759 -2.63851 0
M  V30 4730 H 474.36 -4.33346 -2.41919 0
M  V30 4731 H 469.616 -5.72173 -2.15472 0
M  V30 4732 H 473.79 -6.68667 -1.94568 0
M  V30 4733 H 471.417 -7.38382 -1.8082 0
M  V30 4734 N 472.992 0.995999 -1.22138 0
M  V30 4735 C 473.94 2.10673 -0.985876 0
M  V30 4736 C 474.934 1.69255 0.0699553 0
M  V30 4737 O 476.14 1.79812 -0.0822176 0
M  V30 4738 H 472.515 0.688865 -0.30161 0
M  V30 4739 H 474.486 2.27711 -1.92848 0
M  V30 4740 C 473.235 3.42881 -0.576909 0
M  V30 4741 H 472.558 3.75191 -1.38101 0
M  V30 4742 H 473.998 4.21589 -0.451518 0
M  V30 4743 C 472.457 3.29265 0.713196 0
M  V30 4744 O 472.987 3.60777 1.76643 0
M  V30 4745 N 471.193 2.82456 0.683162 0
M  V30 4746 H 470.74 2.5701 -0.174242 0
M  V30 4747 H 470.698 2.73727 1.54663 0
M  V30 4748 N 474.47 1.03057 1.19235 0
M  V30 4749 C 475.717 0.728019 1.88961 0
M  V30 4750 C 476.045 -0.743515 1.79728 0
M  V30 4751 O 475.3 -1.55729 1.1852 0
M  V30 4752 C 475.599 1.1268 3.39172 0
M  V30 4753 C 475.265 2.5969 3.68608 0
M  V30 4754 C 473.927 2.99854 3.76352 0
M  V30 4755 C 476.279 3.54793 3.81801 0
M  V30 4756 C 473.607 4.34031 3.94758 0
M  V30 4757 C 475.959 4.88675 4.0172 0
M  V30 4758 C 474.623 5.28526 4.07697 0
M  V30 4759 H 473.893 0.266401 0.691456 0
M  V30 4760 H 476.54 1.29373 1.41191 0
M  V30 4761 H 474.845 0.479722 3.88852 0
M  V30 4762 H 476.542 0.870203 3.91444 0
M  V30 4763 H 473.132 2.27575 3.63191 0
M  V30 4764 H 477.316 3.24914 3.7516 0
M  V30 4765 H 472.572 4.6444 3.97625 0
M  V30 4766 H 476.746 5.6228 4.1087 0
M  V30 4767 H 474.373 6.32506 4.21712 0
M  V30 4768 N 475.948 -1.35272 0.808662 0
M  V30 4769 C 477.173 -2.03477 0.401475 0
M  V30 4770 C 477.598 -1.60537 -0.980279 0
M  V30 4771 O 476.956 -0.78304 -1.63518 0
M  V30 4772 C 477.004 -3.57181 0.495354 0
M  V30 4773 O 476.108 -4.09474 -0.490397 0
M  V30 4774 H 475.449 -0.642561 0.167366 0
M  V30 4775 H 477.979 -1.72824 1.09512 0
M  V30 4776 H 477.989 -4.06356 0.365912 0
M  V30 4777 H 476.664 -3.87784 1.5032 0
M  V30 4778 H 475.241 -3.71516 -0.321023 0
M  V30 4779 N 477.426 -0.562348 -1.47226 0
M  V30 4780 C 478.373 0.182461 -2.30078 0
M  V30 4781 C 479.343 0.903503 -1.39377 0
M  V30 4782 O 480.528 0.898188 -1.68337 0
M  V30 4783 C 477.668 1.20322 -3.23445 0
M  V30 4784 C 476.781 0.487717 -4.29238 0
M  V30 4785 C 475.916 1.49422 -5.09752 0
M  V30 4786 C 474.955 0.763976 -6.07314 0
M  V30 4787 N 474.092 1.71755 -6.80768 0
M  V30 4788 H 478.932 -0.530169 -2.93246 0
M  V30 4789 H 476.469 -0.273276 -1.44539 0
M  V30 4790 H 478.427 1.80768 -3.76004 0
M  V30 4791 H 477.057 1.88382 -2.6213 0
M  V30 4792 H 476.109 -0.231374 -3.79696 0
M  V30 4793 H 477.421 -0.0841003 -4.98729 0
M  V30 4794 H 476.575 2.17206 -5.66486 0
M  V30 4795 H 475.314 2.09995 -4.40174 0
M  V30 4796 H 474.319 0.0722344 -5.49753 0
M  V30 4797 H 475.544 0.16391 -6.78902 0
M  V30 4798 H 473.49 2.31177 -6.13916 0
M  V30 4799 H 473.407 1.19802 -7.46447 0
M  V30 4800 H 474.675 2.38638 -7.42073 0
M  V30 4801 N 478.904 1.54736 -0.299062 0
M  V30 4802 C 479.852 2.24897 0.593658 0
M  V30 4803 C 480.846 1.25429 1.13859 0
M  V30 4804 O 482.052 1.43286 1.08945 0
M  V30 4805 H 478.427 0.72207 0.210046 0
M  V30 4806 H 480.398 2.98393 -0.0206421 0
M  V30 4807 C 479.147 3.00159 1.75499 0
M  V30 4808 H 478.47 3.76501 1.34489 0
M  V30 4809 H 479.91 3.52535 2.35574 0
M  V30 4810 C 478.369 2.07015 2.65794 0
M  V30 4811 O 478.899 1.63692 3.66835 0
M  V30 4812 N 477.105 1.73012 2.33485 0
M  V30 4813 H 476.652 2.08439 1.51364 0
M  V30 4814 H 476.61 1.10965 2.94167 0
M  V30 4815 N 480.382 0.0267497 1.57577 0
M  V30 4816 C 481.345 -0.940916 2.08996 0
M  V30 4817 C 482.345 -1.25561 1.00455 0
M  V30 4818 O 483.535 -1.19634 1.26623 0
M  V30 4819 C 480.667 -2.25814 2.55384 0
M  V30 4820 H 481.86 -0.495628 2.95776 0
M  V30 4821 H 479.413 -0.221241 1.54726 0
M  V30 4822 H 480.148 -2.74976 1.71926 0
M  V30 4823 H 479.933 -2.04285 3.34679 0
M  V30 4824 H 481.423 -2.95178 2.95398 0
M  V30 4825 N 481.861 -1.55662 -0.24637 0
M  V30 4826 C 482.808 -1.90361 -1.30504 0
M  V30 4827 C 483.778 -0.757905 -1.47801 0
M  V30 4828 O 484.963 -1.01161 -1.61775 0
M  V30 4829 C 482.103 -2.2042 -2.65535 0
M  V30 4830 C 481.216 -3.47799 -2.56242 0
M  V30 4831 C 480.351 -3.67426 -3.8363 0
M  V30 4832 C 479.39 -4.88403 -3.68956 0
M  V30 4833 N 478.527 -5.04548 -4.88237 0
M  V30 4834 H 483.367 -2.80645 -1.00213 0
M  V30 4835 H 480.904 -1.38924 -0.483577 0
M  V30 4836 H 482.862 -2.35853 -3.44135 0
M  V30 4837 H 481.492 -1.3334 -2.93973 0
M  V30 4838 H 480.544 -3.40694 -1.69208 0
M  V30 4839 H 481.856 -4.36544 -2.4131 0
M  V30 4840 H 481.01 -3.82821 -4.70673 0
M  V30 4841 H 479.749 -2.76914 -4.01459 0
M  V30 4842 H 478.754 -4.72984 -2.80296 0
M  V30 4843 H 479.979 -5.80375 -3.52621 0
M  V30 4844 H 477.925 -4.16974 -5.06427 0
M  V30 4845 H 477.842 -5.87384 -4.75937 0
M  V30 4846 H 479.11 -5.24355 -5.76777 0
M  V30 4847 N 483.339 0.512053 -1.4905 0
M  V30 4848 C 484.588 1.26343 -1.57227 0
M  V30 4849 C 484.901 1.93876 -0.259155 0
M  V30 4850 O 486.107 2.70612 -0.219358 0
M  V30 4851 C 484.563 2.29343 -2.77362 0
M  V30 4852 C 484.171 1.67799 -4.15388 0
M  V30 4853 C 485.915 3.05378 -2.94864 0
M  V30 4854 C 483.822 2.68845 -5.2676 0
M  V30 4855 H 482.752 0.475231 -0.585382 0
M  V30 4856 H 485.403 0.53862 -1.75417 0
M  V30 4857 H 483.785 3.04938 -2.52643 0
M  V30 4858 H 484.959 0.982715 -4.50199 0
M  V30 4859 H 483.274 1.04194 -4.03153 0
M  V30 4860 H 485.871 3.80921 -3.75238 0
M  V30 4861 H 486.214 3.62327 -2.05 0
M  V30 4862 H 486.747 2.36898 -3.19569 0
M  V30 4863 H 483.486 2.16692 -6.18647 0
M  V30 4864 H 483.006 3.36647 -4.96416 0
M  V30 4865 H 484.685 3.31487 -5.5563 0
M  V30 4866 N 484.817 1.37938 0.762283 0
M  V30 4867 C 486.042 1.37059 1.55659 0
M  V30 4868 C 486.467 -0.0396123 1.88058 0
M  V30 4869 O 485.825 -1.01929 1.49934 0
M  V30 4870 C 485.873 2.22494 2.83776 0
M  V30 4871 O 484.977 1.63607 3.78559 0
M  V30 4872 H 484.318 0.467892 0.47114 0
M  V30 4873 H 486.848 1.81587 0.942725 0
M  V30 4874 H 486.858 2.36045 3.32786 0
M  V30 4875 H 485.533 3.24993 2.59524 0
M  V30 4876 H 484.11 1.5915 3.37233 0
M  V30 4877 N 486.295 -0.989507 1.22664 0
M  V30 4878 C 487.541 -1.7321 1.05481 0
M  V30 4879 C 487.874 -1.89852 -0.408635 0
M  V30 4880 O 487.149 -1.44416 -1.30285 0
M  V30 4881 C 487.432 -3.1357 1.77047 0
M  V30 4882 C 487.285 -3.04555 3.31008 0
M  V30 4883 C 488.604 -4.12812 1.5256 0
M  V30 4884 H 485.723 -0.628697 0.384589 0
M  V30 4885 H 488.365 -1.15258 1.51049 0
M  V30 4886 H 486.515 -3.63046 1.3831 0
M  V30 4887 H 488.187 -2.62674 3.7921 0
M  V30 4888 H 486.43 -2.41278 3.6051 0
M  V30 4889 H 487.101 -4.03894 3.76263 0
M  V30 4890 H 489.577 -3.72106 1.86215 0
M  V30 4891 H 488.453 -5.09132 2.05124 0
M  V30 4892 H 488.714 -4.39711 0.458936 0
M  V30 4893 N 487.773 -1.03688 -1.18687 0
M  V30 4894 C 489.184 -0.766488 -1.70241 0
M  V30 4895 C 489.535 0.713052 -1.82784 0
M  V30 4896 O 488.66 1.55529 -1.50465 0
M  V30 4897 C 489.255 -1.38475 -3.09209 0
M  V30 4898 C 487.814 -1.16276 -3.5799 0
M  V30 4899 C 486.961 -1.4778 -2.34641 0
M  V30 4900 H 489.912 -1.20378 -1.03415 0
M  V30 4901 H 489.933 -0.785939 -3.72295 0
M  V30 4902 H 489.445 -2.46157 -3.00048 0
M  V30 4903 H 487.546 -0.104508 -3.72453 0
M  V30 4904 H 487.659 -1.8571 -4.41643 0
M  V30 4905 H 486.023 -0.897366 -2.38368 0
M  V30 4906 H 486.806 -2.56562 -2.28102 0
M  V30 4907 N 489.251 1.34841 -0.815825 0
M  V30 4908 C 490.214 2.27959 -0.238185 0
M  V30 4909 C 491.214 1.49983 0.579816 0
M  V30 4910 O 492.404 1.69617 0.396953 0
M  V30 4911 C 489.536 3.34314 0.666876 0
M  V30 4912 H 490.729 2.80558 -1.05958 0
M  V30 4913 H 488.282 1.44852 -0.587156 0
M  V30 4914 H 489.017 2.86916 1.5116 0
M  V30 4915 H 488.802 3.92014 0.0819106 0
M  V30 4916 H 490.292 4.0379 1.06506 0
M  V30 4917 N 490.729 0.570148 1.46925 0
M  V30 4918 C 491.954 0.0542592 2.07329 0
M  V30 4919 C 492.379 -1.23582 1.41806 0
M  V30 4920 O 491.737 -1.74341 0.497479 0
M  V30 4921 C 491.785 -0.111175 3.60429 0
M  V30 4922 O 490.889 -1.17071 3.95434 0
M  V30 4923 H 490.23 0.0571425 0.661537 0
M  V30 4924 H 492.76 0.789516 1.88753 0
M  V30 4925 H 492.77 -0.321315 4.06733 0
M  V30 4926 H 491.445 0.831012 4.07513 0
M  V30 4927 H 490.022 -0.940029 3.60857 0
M  V30 4928 N 492.207 -1.54576 0.307264 0
M  V30 4929 C 493.117 -2.27435 -0.57536 0
M  V30 4930 C 494.133 -1.31183 -1.14311 0
M  V30 4931 O 495.309 -1.64175 -1.16656 0
M  V30 4932 C 492.374 -3.00566 -1.72803 0
M  V30 4933 C 491.435 -4.12369 -1.19373 0
M  V30 4934 C 490.668 -4.82003 -2.29147 0
M  V30 4935 O 490.891 -4.51038 -3.49171 0
M  V30 4936 O 489.825 -5.69271 -1.95485 0
M  V30 4937 H 493.651 -3.03696 0.0158558 0
M  V30 4938 H 491.236 -1.49219 0.0735064 0
M  V30 4939 H 493.118 -3.46416 -2.39946 0
M  V30 4940 H 491.793 -2.27195 -2.30574 0
M  V30 4941 H 490.7 -3.70905 -0.487851 0
M  V30 4942 H 492.033 -4.87736 -0.661376 0
M  V30 4943 N 493.685 -0.035106 -1.57561 0
M  V30 4944 C 494.932 0.642229 -1.92046 0
M  V30 4945 C 495.26 1.7179 -0.91206 0
M  V30 4946 O 494.515 1.95544 0.0781153 0
M  V30 4947 C 494.814 1.29149 -3.3325 0
M  V30 4948 C 494.48 0.345604 -4.49574 0
M  V30 4949 C 493.142 0.0852775 -4.81124 0
M  V30 4950 C 495.494 -0.303569 -5.20315 0
M  V30 4951 C 492.822 -0.831927 -5.80772 0
M  V30 4952 C 495.174 -1.20886 -6.20942 0
M  V30 4953 C 493.838 -1.47802 -6.50931 0
M  V30 4954 H 493.108 0.235008 -0.702746 0
M  V30 4955 H 495.755 -0.0981529 -1.91248 0
M  V30 4956 H 494.06 2.10676 -3.30337 0
M  V30 4957 H 495.757 1.82223 -3.57205 0
M  V30 4958 H 492.347 0.558683 -4.24943 0
M  V30 4959 H 496.531 -0.115515 -4.96166 0
M  V30 4960 H 491.787 -1.0481 -6.02349 0
M  V30 4961 H 495.961 -1.71804 -6.74875 0
M  V30 4962 H 493.588 -2.19039 -7.2796 0
M  V30 4963 N 495.163 1.55791 0.238111 0
M  V30 4964 C 496.126 1.90239 1.27835 0
M  V30 4965 C 497.126 0.779552 1.4064 0
M  V30 4966 O 498.316 1.04747 1.3919 0
M  V30 4967 C 495.448 2.13859 2.65475 0
M  V30 4968 H 496.641 2.83262 0.985034 0
M  V30 4969 H 494.194 1.48818 0.477799 0
M  V30 4970 H 494.929 1.23334 2.99932 0
M  V30 4971 H 494.714 2.95643 2.57561 0
M  V30 4972 H 496.204 2.41664 3.40571 0
M  V30 4973 N 496.642 -0.504142 1.49319 0
M  V30 4974 C 497.605 -1.5883 1.65244 0
M  V30 4975 C 498.605 -1.52009 0.524386 0
M  V30 4976 O 499.795 -1.55218 0.79077 0
M  V30 4977 C 496.927 -2.98481 1.64687 0
M  V30 4978 H 498.12 -1.4604 2.61939 0
M  V30 4979 H 495.673 -0.728144 1.38303 0
M  V30 4980 H 496.408 -3.16751 0.695644 0
M  V30 4981 H 496.193 -3.0484 2.46607 0
M  V30 4982 H 497.683 -3.77256 1.79075 0
M  V30 4983 N 498.12 -1.38341 -0.754957 0
M  V30 4984 C 499.345 -1.37882 -1.5493 0
M  V30 4985 C 499.77 0.0296385 -1.88077 0
M  V30 4986 O 499.128 1.01133 -1.50472 0
M  V30 4987 C 499.176 -2.23996 -2.82592 0
M  V30 4988 O 498.28 -1.65612 -3.77686 0
M  V30 4989 H 497.621 -0.470384 -0.468652 0
M  V30 4990 H 500.151 -1.82084 -0.933082 0
M  V30 4991 H 500.161 -2.37806 -3.3153 0
M  V30 4992 H 498.836 -3.26365 -2.57796 0
M  V30 4993 H 497.413 -1.60936 -3.36384 0
M  V30 4994 N 499.598 0.982988 -1.23187 0
M  V30 4995 C 500.528 2.09301 -1.03515 0
M  V30 4996 C 501.509 1.70035 0.0471136 0
M  V30 4997 O 502.694 1.93847 -0.117029 0
M  V30 4998 C 499.824 3.4167 -0.622791 0
M  V30 4999 C 498.778 3.94828 -1.65211 0
M  V30 5000 C 498.104 5.23362 -1.09527 0
M  V30 5001 C 499.404 4.2439 -3.04451 0
M  V30 5002 H 501.098 2.26016 -1.96359 0
M  V30 5003 H 498.644 1.08611 -0.945501 0
M  V30 5004 H 500.597 4.18746 -0.472233 0
M  V30 5005 H 499.321 3.24811 0.341329 0
M  V30 5006 H 497.98 3.19895 -1.79061 0
M  V30 5007 H 497.628 5.02852 -0.122211 0
M  V30 5008 H 497.328 5.59895 -1.783 0
M  V30 5009 H 498.852 6.03062 -0.956511 0
M  V30 5010 H 500.266 4.92225 -2.93917 0
M  V30 5011 H 498.663 4.72118 -3.70438 0
M  V30 5012 H 499.733 3.31765 -3.53638 0
M  V30 5013 N 501.076 1.04316 1.18135 0
M  V30 5014 C 502.008 0.594444 2.21357 0
M  V30 5015 C 503.021 -0.337215 1.59269 0
M  V30 5016 O 504.21 -0.131337 1.78016 0
M  V30 5017 C 501.31 -0.151251 3.38562 0
M  V30 5018 C 500.483 0.788907 4.30227 0
M  V30 5019 C 499.542 0.0860572 5.2613 0
M  V30 5020 O 498.568 0.717302 5.64662 0
M  V30 5021 N 499.77 -1.17969 5.68387 0
M  V30 5022 H 502.535 1.48227 2.60478 0
M  V30 5023 H 500.096 0.92396 1.32946 0
M  V30 5024 H 502.088 -0.631352 3.99745 0
M  V30 5025 H 500.658 -0.940639 2.98112 0
M  V30 5026 H 499.878 1.44882 3.6661 0
M  V30 5027 H 501.166 1.42738 4.88368 0
M  V30 5028 H 500.564 -1.71302 5.3914 0
M  V30 5029 H 499.121 -1.60402 6.31755 0
M  V30 5030 N 502.554 -1.34406 0.822964 0
M  V30 5031 C 503.802 -1.97892 0.410245 0
M  V30 5032 C 504.123 -1.65567 -1.03017 0
M  V30 5033 O 503.393 -0.94642 -1.71522 0
M  V30 5034 H 501.973 -0.732049 0.148707 0
M  V30 5035 H 504.635 -1.64043 1.05242 0
M  V30 5036 H 503.731 -3.07579 0.529284 0
M  V30 5037 N 504.032 -0.577932 -1.46621 0
M  V30 5038 C 505.309 0.00495287 -1.95599 0
M  V30 5039 C 505.689 1.46428 -1.5206 0
M  V30 5040 O 505.037 2.1517 -0.769046 0
M  V30 5041 C 505.247 -0.162114 -3.48623 0
M  V30 5042 C 506.595 -0.0274623 -4.24591 0
M  V30 5043 O 507.619 -0.0907067 -3.56084 0
M  V30 5044 O 506.478 0.1122 -5.46385 0
M  V30 5045 H 503.572 0.0525057 -0.825332 0
M  V30 5046 H 506.118 -0.645914 -1.56927 0
M  V30 5047 H 504.89 -1.17679 -3.73185 0
M  V30 5048 H 504.513 0.525407 -3.94113 0
M  V30 5049 N 505.51 1.54411 -0.315457 0
M  V30 5050 C 506.787 1.92562 0.343398 0
M  V30 5051 C 507.167 1.24423 1.70535 0
M  V30 5052 O 506.515 0.385051 2.25232 0
M  V30 5053 C 506.725 3.46168 0.443687 0
M  V30 5054 C 508.073 4.18659 0.707783 0
M  V30 5055 O 509.097 3.52281 0.52693 0
M  V30 5056 O 507.956 5.36198 1.05612 0
M  V30 5057 H 505.05 0.80379 0.194552 0
M  V30 5058 H 507.596 1.65738 -0.364577 0
M  V30 5059 H 506.368 3.8792 -0.513172 0
M  V30 5060 H 505.991 3.79073 1.19956 0
M  V30 5061 N 506.988 0.0434614 1.5754 0
M  V30 5062 C 508.236 -0.630786 1.92004 0
M  V30 5063 C 508.557 -1.71836 0.921807 0
M  V30 5064 O 507.827 -1.9587 -0.034522 0
M  V30 5065 H 506.407 -0.235988 0.708745 0
M  V30 5066 H 509.069 0.0946462 1.9467 0
M  V30 5067 H 508.165 -1.07434 2.93026 0
M  V30 5068 N 508.466 -1.55915 -0.229846 0
M  V30 5069 C 509.398 -1.88209 -1.30805 0
M  V30 5070 C 510.411 -0.769672 -1.43457 0
M  V30 5071 O 511.6 -1.04792 -1.44502 0
M  V30 5072 C 508.7 -2.06829 -2.68468 0
M  V30 5073 C 507.873 -3.37798 -2.77869 0
M  V30 5074 C 506.932 -3.45952 -3.96489 0
M  V30 5075 O 505.958 -4.19043 -3.85216 0
M  V30 5076 N 507.16 -2.76488 -5.10426 0
M  V30 5077 H 509.925 -2.81286 -1.03431 0
M  V30 5078 H 507.486 -1.5636 -0.41991 0
M  V30 5079 H 509.478 -2.09608 -3.46189 0
M  V30 5080 H 508.048 -1.20416 -2.88477 0
M  V30 5081 H 507.268 -3.4719 -1.86689 0
M  V30 5082 H 508.556 -4.24091 -2.81113 0
M  V30 5083 H 507.954 -2.16868 -5.2248 0
M  V30 5084 H 506.511 -2.84938 -5.8622 0
M  V30 5085 N 509.944 0.496216 -1.49584 0
M  V30 5086 C 511.355 1.07765 -1.52459 0
M  V30 5087 C 511.706 1.93679 -0.31353 0
M  V30 5088 O 510.831 2.08588 0.576186 0
M  V30 5089 C 511.426 1.96111 -2.76271 0
M  V30 5090 C 509.985 2.49409 -2.81908 0
M  V30 5091 C 509.132 1.27142 -2.46435 0
M  V30 5092 H 512.083 0.279914 -1.56212 0
M  V30 5093 H 512.104 2.80862 -2.56704 0
M  V30 5094 H 511.616 1.33555 -3.64396 0
M  V30 5095 H 509.717 3.1559 -1.98074 0
M  V30 5096 H 509.83 2.86234 -3.84196 0
M  V30 5097 H 508.194 1.59818 -1.98319 0
M  V30 5098 H 508.977 0.662866 -3.3684 0
M  V30 5099 N 511.423 1.38739 0.74761 0
M  V30 5100 C 512.653 1.3832 1.53464 0
M  V30 5101 C 513.061 -0.0273464 1.8918 0
M  V30 5102 O 512.404 -1.00588 1.53713 0
M  V30 5103 C 512.466 2.18007 2.85855 0
M  V30 5104 C 512.13 3.66762 2.72644 0
M  V30 5105 C 513.127 4.60124 2.42037 0
M  V30 5106 C 510.812 4.10193 2.89909 0
M  V30 5107 C 512.806 5.94897 2.28859 0
M  V30 5108 C 510.493 5.45045 2.7635 0
M  V30 5109 C 511.491 6.37211 2.45869 0
M  V30 5110 O 511.179 7.69581 2.3238 0
M  V30 5111 H 510.911 0.474718 0.481268 0
M  V30 5112 H 513.465 1.83012 0.932518 0
M  V30 5113 H 511.695 1.68043 3.48279 0
M  V30 5114 H 513.384 2.09921 3.47402 0
M  V30 5115 H 514.15 4.27874 2.28361 0
M  V30 5116 H 510.029 3.38797 3.1263 0
M  V30 5117 H 513.573 6.66802 2.04989 0
M  V30 5118 H 509.47 5.76889 2.89601 0
M  V30 5119 H 510.238 7.80169 2.47546 0
M  V30 5120 N 512.901 -0.976442 1.23707 0
M  V30 5121 C 514.178 -1.69296 0.979699 0
M  V30 5122 C 514.558 -2.0508 -0.500555 0
M  V30 5123 O 513.906 -1.74708 -1.47273 0
M  V30 5124 C 514.116 -2.93143 1.89389 0
M  V30 5125 C 515.464 -3.65572 2.15968 0
M  V30 5126 O 516.488 -3.03184 1.86971 0
M  V30 5127 O 515.347 -4.77859 2.65167 0
M  V30 5128 H 512.441 -0.739708 0.369812 0
M  V30 5129 H 514.987 -1.03131 1.34767 0
M  V30 5130 H 513.759 -2.63327 2.89439 0
M  V30 5131 H 513.382 -3.67044 1.52854 0
M  V30 5132 N 514.379 -1.04941 -1.1758 0
M  V30 5133 C 515.326 -0.648155 -2.21512 0
M  V30 5134 C 516.296 0.348431 -1.62404 0
M  V30 5135 O 517.481 0.240419 -1.89279 0
M  V30 5136 C 514.621 -0.0264291 -3.4509 0
M  V30 5137 C 513.734 -1.07154 -4.185 0
M  V30 5138 C 512.869 -0.417403 -5.29558 0
M  V30 5139 C 511.908 -1.447 -5.94751 0
M  V30 5140 N 511.045 -0.817203 -6.97328 0
M  V30 5141 H 515.885 -1.53891 -2.55189 0
M  V30 5142 H 513.422 -0.769699 -1.25356 0
M  V30 5143 H 515.38 0.351456 -4.15717 0
M  V30 5144 H 514.01 0.827802 -3.12005 0
M  V30 5145 H 513.062 -1.56728 -3.46613 0
M  V30 5146 H 514.374 -1.8532 -4.63096 0
M  V30 5147 H 513.528 0.0142061 -6.06698 0
M  V30 5148 H 512.267 0.396265 -4.86087 0
M  V30 5149 H 511.272 -1.88865 -5.16343 0
M  V30 5150 H 512.497 -2.26252 -6.40302 0
M  V30 5151 H 510.443 -0.0239995 -6.55996 0
M  V30 5152 H 510.36 -1.53644 -7.40223 0
M  V30 5153 H 511.628 -0.410283 -7.7842 0
M  V30 5154 N 515.857 1.33968 -0.830081 0
M  V30 5155 C 517.097 1.99879 -0.427521 0
M  V30 5156 C 517.461 1.64355 0.992546 0
M  V30 5157 O 518.662 2.23164 1.49837 0
M  V30 5158 C 516.933 3.51771 -0.631815 0
M  V30 5159 S 518.492 4.37608 -0.323168 0
M  V30 5160 H 515.31 0.692485 -0.161202 0
M  V30 5161 H 517.912 1.63129 -1.07745 0
M  V30 5162 H 516.616 3.75113 -1.66488 0
M  V30 5163 H 516.147 3.93386 0.0325936 0
M  V30 5164 H 518.162 4.88683 0.860432 0
M  V30 5165 N 517.335 0.585699 1.46312 0
M  V30 5166 C 518.267 -0.183687 2.28463 0
M  V30 5167 C 519.28 -0.85264 1.38686 0
M  V30 5168 O 520.469 -0.721701 1.6326 0
M  V30 5169 C 517.569 -1.27977 3.13808 0
M  V30 5170 C 516.742 -0.702164 4.31727 0
M  V30 5171 C 515.801 -1.68633 4.98447 0
M  V30 5172 O 514.827 -1.22121 5.55945 0
M  V30 5173 N 516.029 -3.02047 4.95729 0
M  V30 5174 H 518.794 0.521127 2.95134 0
M  V30 5175 H 516.355 0.423673 1.56258 0
M  V30 5176 H 518.347 -1.9375 3.55307 0
M  V30 5177 H 516.917 -1.8874 2.4919 0
M  V30 5178 H 516.137 0.1331 3.93975 0
M  V30 5179 H 517.425 -0.296101 5.07938 0
M  V30 5180 H 516.823 -3.42457 4.50266 0
M  V30 5181 H 515.38 -3.63301 5.41161 0
M  V30 5182 N 518.813 -1.54241 0.323641 0
M  V30 5183 C 519.743 -2.27289 -0.534993 0
M  V30 5184 C 520.724 -1.28087 -1.11927 0
M  V30 5185 O 521.909 -1.56899 -1.14439 0
M  V30 5186 C 519.039 -3.03075 -1.69596 0
M  V30 5187 C 517.993 -4.09614 -1.24098 0
M  V30 5188 C 517.319 -4.73242 -2.4889 0
M  V30 5189 C 518.619 -5.21087 -0.355789 0
M  V30 5190 H 520.313 -2.99308 0.0743257 0
M  V30 5191 H 517.859 -1.43952 0.0371874 0
M  V30 5192 H 519.812 -3.52907 -2.30293 0
M  V30 5193 H 518.536 -2.28673 -2.33187 0
M  V30 5194 H 517.195 -3.60666 -0.656945 0
M  V30 5195 H 516.843 -3.95455 -3.10845 0
M  V30 5196 H 516.543 -5.45209 -2.19138 0
M  V30 5197 H 518.067 -5.25848 -3.10348 0
M  V30 5198 H 519.481 -5.66675 -0.869042 0
M  V30 5199 H 517.878 -5.9991 -0.151045 0
M  V30 5200 H 518.948 -4.81005 0.613339 0
M  V30 5201 N 520.291 -0.0518155 -1.57515 0
M  V30 5202 C 521.221 0.920283 -2.146 0
M  V30 5203 C 522.202 1.32406 -1.06783 0
M  V30 5204 O 523.387 1.39866 -1.34726 0
M  V30 5205 C 520.517 2.1949 -2.6915 0
M  V30 5206 C 519.471 1.93116 -3.81956 0
M  V30 5207 C 518.797 3.27037 -4.23026 0
M  V30 5208 C 520.097 1.25225 -5.07066 0
M  V30 5209 H 521.791 0.444801 -2.96077 0
M  V30 5210 H 519.337 0.212508 -1.42423 0
M  V30 5211 H 521.29 2.87894 -3.07725 0
M  V30 5212 H 520.014 2.69244 -1.84865 0
M  V30 5213 H 518.673 1.27123 -3.43854 0
M  V30 5214 H 518.321 3.74595 -3.3569 0
M  V30 5215 H 518.021 3.10189 -4.99056 0
M  V30 5216 H 519.545 3.96673 -4.64202 0
M  V30 5217 H 520.959 1.83666 -5.43083 0
M  V30 5218 H 519.356 1.18702 -5.88243 0
M  V30 5219 H 520.426 0.228382 -4.84362 0
M  V30 5220 N 521.769 1.56035 0.221574 0
M  V30 5221 C 523.016 1.79047 0.94597 0
M  V30 5222 C 523.344 0.62057 1.84334 0
M  V30 5223 O 522.599 -0.395053 1.91671 0
M  V30 5224 C 522.898 3.07813 1.8162 0
M  V30 5225 C 522.564 4.3797 1.07206 0
M  V30 5226 C 521.226 4.73334 0.866508 0
M  V30 5227 C 523.578 5.18326 0.546565 0
M  V30 5228 C 520.906 5.8657 0.123549 0
M  V30 5229 C 523.258 6.32335 -0.18305 0
M  V30 5230 C 521.922 6.66301 -0.399861 0
M  V30 5231 H 521.192 0.655178 0.346155 0
M  V30 5232 H 523.839 1.90299 0.214146 0
M  V30 5233 H 522.144 2.91682 2.61589 0
M  V30 5234 H 523.841 3.2282 2.37884 0
M  V30 5235 H 520.431 4.10202 1.24226 0
M  V30 5236 H 524.615 4.9144 0.692847 0
M  V30 5237 H 519.871 6.11376 -0.0546591 0
M  V30 5238 H 524.045 6.9383 -0.59775 0
M  V30 5239 H 521.672 7.53889 -0.977489 0
M  V30 5240 N 523.247 -0.488276 1.49845 0
M  V30 5241 C 524.524 -1.24959 1.50481 0
M  V30 5242 C 524.904 -2.09735 0.239698 0
M  V30 5243 O 524.252 -2.14865 -0.777524 0
M  V30 5244 C 524.462 -2.0954 2.79095 0
M  V30 5245 C 525.81 -2.68305 3.29086 0
M  V30 5246 O 526.834 -2.19797 2.80299 0
M  V30 5247 O 525.693 -3.56643 4.14087 0
M  V30 5248 H 522.787 -0.566133 0.602845 0
M  V30 5249 H 525.333 -0.501504 1.6212 0
M  V30 5250 H 524.105 -1.46958 3.62656 0
M  V30 5251 H 523.728 -2.91517 2.70377 0
M  V30 5252 N 524.725 -1.39134 -0.740242 0
M  V30 5253 C 525.971 -1.36273 -1.50192 0
M  V30 5254 C 526.304 0.0430136 -1.94152 0
M  V30 5255 O 525.579 1.00691 -1.66408 0
M  V30 5256 C 525.862 -2.33041 -2.74525 0
M  V30 5257 C 525.715 -3.82535 -2.36617 0
M  V30 5258 C 527.034 -2.27723 -3.76604 0
M  V30 5259 H 524.153 -0.496323 -0.544823 0
M  V30 5260 H 526.795 -1.70085 -0.846815 0
M  V30 5261 H 524.945 -2.04337 -3.30422 0
M  V30 5262 H 526.617 -4.21967 -1.86391 0
M  V30 5263 H 524.86 -3.99565 -1.68909 0
M  V30 5264 H 525.531 -4.45723 -3.2563 0
M  V30 5265 H 528.007 -2.53091 -3.30279 0
M  V30 5266 H 526.883 -2.97519 -4.61274 0
M  V30 5267 H 527.144 -1.28049 -4.2315 0
M  V30 5268 N 526.204 0.969867 -1.24223 0
M  V30 5269 C 527.152 2.08535 -1.03034 0
M  V30 5270 C 528.146 1.69366 0.0340379 0
M  V30 5271 O 529.352 1.79597 -0.12034 0
M  V30 5272 H 525.727 0.682313 -0.316154 0
M  V30 5273 H 527.698 2.23569 -1.97635 0
M  V30 5274 C 526.447 3.4158 -0.649509 0
M  V30 5275 H 525.77 3.72177 -1.46028 0
M  V30 5276 H 527.21 4.20536 -0.540841 0
M  V30 5277 C 525.669 3.30703 0.643194 0
M  V30 5278 O 526.199 3.64443 1.68951 0
M  V30 5279 N 524.405 2.83841 0.623095 0
M  V30 5280 H 523.952 2.56583 -0.228719 0
M  V30 5281 H 523.91 2.76946 1.48823 0
M  V30 5282 N 527.682 1.05563 1.17022 0
M  V30 5283 C 528.959 0.68165 1.83338 0
M  V30 5284 C 529.339 -0.837665 1.93769 0
M  V30 5285 O 528.687 -1.74507 1.47511 0
M  V30 5286 C 528.897 1.375 3.20772 0
M  V30 5287 C 530.245 1.51545 3.96635 0
M  V30 5288 O 531.269 1.33431 3.30264 0
M  V30 5289 O 530.128 1.812 5.15586 0
M  V30 5290 H 527.222 0.240412 0.791285 0
M  V30 5291 H 529.768 1.15545 1.24288 0
M  V30 5292 H 528.54 2.41135 3.08171 0
M  V30 5293 H 528.163 0.890798 3.87493 0
M  V30 5294 N 529.16 -1.33526 0.837174 0
M  V30 5295 C 530.123 -2.27551 0.274421 0
M  V30 5296 C 531.123 -1.50886 -0.555881 0
M  V30 5297 O 532.313 -1.70227 -0.369918 0
M  V30 5298 C 529.445 -3.35332 -0.613605 0
M  V30 5299 H 530.638 -2.78837 1.10408 0
M  V30 5300 H 528.191 -1.439 0.610126 0
M  V30 5301 H 528.926 -2.89285 -1.46577 0
M  V30 5302 H 528.711 -3.92095 -0.0195341 0
M  V30 5303 H 530.201 -4.05433 -1.00068 0
M  V30 5304 N 530.638 -0.59345 -1.46 0
M  V30 5305 C 531.586 0.146268 -2.3214 0
M  V30 5306 C 532.58 0.873743 -1.45128 0
M  V30 5307 O 533.786 0.790912 -1.61693 0
M  V30 5308 H 530.161 0.0660349 -0.749095 0
M  V30 5309 H 532.132 -0.598895 -2.92328 0
M  V30 5310 C 530.881 1.1396 -3.28494 0
M  V30 5311 H 530.204 0.589252 -3.95434 0
M  V30 5312 H 531.644 1.62738 -3.91526 0
M  V30 5313 C 530.103 2.20604 -2.54628 0
M  V30 5314 O 530.633 3.28128 -2.31722 0
M  V30 5315 N 528.839 1.95502 -2.15005 0
M  V30 5316 H 528.386 1.0807 -2.33834 0
M  V30 5317 H 528.344 2.67064 -1.65904 0
M  V30 5318 N 532.116 1.54067 -0.331816 0
M  V30 5319 C 533.365 1.99895 0.269209 0
M  V30 5320 C 533.678 1.22371 1.52593 0
M  V30 5321 O 534.884 1.58618 2.20347 0
M  V30 5322 C 533.34 3.55972 0.530244 0
M  V30 5323 C 532.948 4.4234 -0.709901 0
M  V30 5324 C 534.692 4.10247 1.09077 0
M  V30 5325 C 532.599 5.89905 -0.420312 0
M  V30 5326 H 531.529 0.746741 0.104371 0
M  V30 5327 H 534.18 1.78014 -0.445324 0
M  V30 5328 H 532.562 3.73873 1.30518 0
M  V30 5329 H 533.736 4.36215 -1.48504 0
M  V30 5330 H 532.051 3.98997 -1.19123 0
M  V30 5331 H 534.648 5.18095 1.32219 0
M  V30 5332 H 534.991 3.62739 2.0427 0
M  V30 5333 H 535.524 3.96011 0.376824 0
M  V30 5334 H 532.263 6.41623 -1.34164 0
M  V30 5335 H 531.783 5.98962 0.316962 0
M  V30 5336 H 533.462 6.46991 -0.0331956 0
M  V30 5337 N 533.594 0.0601682 1.57485 0
M  V30 5338 C 534.524 -0.90889 2.15085 0
M  V30 5339 C 535.505 -1.31838 1.07484 0
M  V30 5340 O 536.69 -1.3915 1.35466 0
M  V30 5341 C 533.82 -2.18059 2.7031 0
M  V30 5342 C 532.774 -1.91088 3.82974 0
M  V30 5343 C 532.1 -3.24789 4.24754 0
M  V30 5344 C 533.4 -1.22535 5.07723 0
M  V30 5345 H 535.094 -0.429093 2.96309 0
M  V30 5346 H 532.64 -0.204952 1.42534 0
M  V30 5347 H 534.593 -2.86258 3.09248 0
M  V30 5348 H 533.317 -2.6826 1.8629 0
M  V30 5349 H 531.976 -1.25297 3.44523 0
M  V30 5350 H 531.624 -3.72809 3.37672 0
M  V30 5351 H 531.324 -3.07538 5.00694 0
M  V30 5352 H 532.848 -3.94205 4.66299 0
M  V30 5353 H 534.262 -1.80783 5.4405 0
M  V30 5354 H 532.659 -1.1558 5.88864 0
M  V30 5355 H 533.729 -0.202692 4.84476 0
M  V30 5356 N 535.072 -1.5615 -0.213296 0
M  V30 5357 C 536.32 -1.79191 -0.934612 0
M  V30 5358 C 536.641 -0.630112 -1.84539 0
M  V30 5359 O 535.911 0.35257 -1.92701 0
M  V30 5360 H 534.491 -0.660937 -0.348097 0
M  V30 5361 H 537.153 -1.93618 -0.22317 0
M  V30 5362 H 536.249 -2.71656 -1.53654 0
M  V30 5363 N 536.55 0.480323 -1.50102 0
M  V30 5364 C 537.827 1.24159 -1.51142 0
M  V30 5365 C 538.207 2.09605 -0.250818 0
M  V30 5366 O 537.555 2.15274 0.766118 0
M  V30 5367 C 537.765 2.08057 -2.80202 0
M  V30 5368 C 539.113 2.66556 -3.30504 0
M  V30 5369 O 540.137 2.18308 -2.81461 0
M  V30 5370 O 538.996 3.54442 -4.15973 0
M  V30 5371 H 536.09 0.562928 -0.605839 0
M  V30 5372 H 538.636 0.492899 -1.62384 0
M  V30 5373 H 537.408 1.45032 -3.6343 0
M  V30 5374 H 537.031 2.90079 -2.71919 0
M  V30 5375 N 538.028 1.39524 0.732853 0
M  V30 5376 C 538.976 1.38563 1.86824 0
M  V30 5377 C 539.97 0.268467 1.67259 0
M  V30 5378 O 541.176 0.438613 1.74574 0
M  V30 5379 H 537.551 0.432737 0.615014 0
M  V30 5380 H 539.522 2.34328 1.84751 0
M  V30 5381 C 538.271 1.2481 3.24527 0
M  V30 5382 H 537.594 2.10044 3.40179 0
M  V30 5383 H 539.034 1.28194 4.04156 0
M  V30 5384 C 537.493 -0.0432825 3.36872 0
M  V30 5385 O 538.023 -1.01268 3.88726 0
M  V30 5386 N 536.229 -0.107055 2.90403 0
M  V30 5387 H 535.776 0.682512 2.48394 0
M  V30 5388 H 535.734 -0.970618 2.99042 0
M  V30 5389 N 539.506 -0.963266 1.24736 0
M  V30 5390 C 540.753 -1.7068 1.0897 0
M  V30 5391 C 541.081 -1.90934 -0.370751 0
M  V30 5392 O 540.336 -1.47155 -1.29011 0
M  V30 5393 C 540.635 -3.09944 1.7796 0
M  V30 5394 C 540.301 -3.09518 3.27887 0
M  V30 5395 C 538.963 -3.09109 3.68789 0
M  V30 5396 C 541.315 -3.03509 4.23712 0
M  V30 5397 C 538.643 -3.00429 5.03944 0
M  V30 5398 C 540.995 -2.96371 5.5888 0
M  V30 5399 C 539.659 -2.94293 5.99123 0
M  V30 5400 H 538.929 -0.624564 0.398749 0
M  V30 5401 H 541.576 -1.12603 1.54896 0
M  V30 5402 H 539.881 -3.71513 1.2444 0
M  V30 5403 H 541.578 -3.66278 1.63222 0
M  V30 5404 H 538.168 -3.10603 2.95337 0
M  V30 5405 H 542.352 -3.0295 3.93109 0
M  V30 5406 H 537.608 -2.97183 5.34314 0
M  V30 5407 H 541.782 -2.90681 6.32833 0
M  V30 5408 H 539.409 -2.87322 7.03811 0
M  V30 5409 N 540.985 -1.06182 -1.16461 0
M  V30 5410 C 541.915 -0.692861 -2.22984 0
M  V30 5411 C 542.896 0.314122 -1.67174 0
M  V30 5412 O 544.081 0.189499 -1.93273 0
M  V30 5413 C 541.211 -0.07732 -3.47214 0
M  V30 5414 C 540.165 -1.01015 -4.15909 0
M  V30 5415 C 539.491 -0.257973 -5.34077 0
M  V30 5416 C 540.791 -2.33868 -4.67015 0
M  V30 5417 H 542.485 -1.58343 -2.54102 0
M  V30 5418 H 540.031 -0.76279 -1.22137 0
M  V30 5419 H 541.984 0.19266 -4.20959 0
M  V30 5420 H 540.708 0.848254 -3.15392 0
M  V30 5421 H 539.367 -1.26486 -3.44088 0
M  V30 5422 H 539.015 0.670684 -4.98509 0
M  V30 5423 H 538.715 -0.879638 -5.80979 0
M  V30 5424 H 540.239 0.00448788 -6.106 0
M  V30 5425 H 541.653 -2.1279 -5.32347 0
M  V30 5426 H 540.05 -2.91522 -5.24533 0
M  V30 5427 H 541.12 -2.97019 -3.83286 0
M  V30 5428 N 542.463 1.3308 -0.844243 0
M  V30 5429 C 543.879 1.50447 -0.532729 0
M  V30 5430 C 544.079 1.78292 0.938837 0
M  V30 5431 O 543.135 1.84635 1.72239 0
M  V30 5432 C 544.448 2.65555 -1.41072 0
M  V30 5433 C 545.996 2.7944 -1.41005 0
M  V30 5434 C 546.471 3.97616 -2.27301 0
M  V30 5435 N 547.962 4.0486 -2.2504 0
M  V30 5436 C 548.697 4.95508 -2.88547 0
M  V30 5437 N 548.193 5.91236 -3.61126 0
M  V30 5438 N 549.986 4.88548 -2.77989 0
M  V30 5439 H 542.137 1.13269 -1.79677 0
M  V30 5440 H 544.4 0.55734 -0.766861 0
M  V30 5441 H 544.106 2.51675 -2.45668 0
M  V30 5442 H 543.98 3.61089 -1.09061 0
M  V30 5443 H 546.367 2.92749 -0.371784 0
M  V30 5444 H 546.448 1.8465 -1.77026 0
M  V30 5445 H 546.092 3.85066 -3.3119 0
M  V30 5446 H 546.022 4.91661 -1.88619 0
M  V30 5447 H 548.513 3.36353 -1.72264 0
M  V30 5448 H 548.826 6.57079 -4.06776 0
M  V30 5449 H 547.171 5.91295 -3.65234 0
M  V30 5450 H 550.362 4.12729 -2.20846 0
M  V30 5451 H 550.535 5.58994 -3.27765 0
M  V30 5452 N 543.941 0.601185 1.45683 0
M  V30 5453 C 545.166 0.0982245 2.07167 0
M  V30 5454 C 545.591 -1.20546 1.44396 0
M  V30 5455 O 544.949 -1.73247 0.534347 0
M  V30 5456 C 544.997 -0.0346976 3.60583 0
M  V30 5457 O 544.101 -1.08657 3.97828 0
M  V30 5458 H 543.442 0.0711618 0.660176 0
M  V30 5459 H 545.972 0.829376 1.87036 0
M  V30 5460 H 545.982 -0.234969 4.07323 0
M  V30 5461 H 544.657 0.917265 4.05659 0
M  V30 5462 H 543.234 -0.863275 3.6277 0
M  V30 5463 N 545.419 -1.53889 0.339982 0
M  V30 5464 C 546.382 -2.23547 -0.50592 0
M  V30 5465 C 547.382 -1.23445 -1.03044 0
M  V30 5466 O 548.572 -1.47909 -0.920253 0
M  V30 5467 C 545.704 -2.95234 -1.7044 0
M  V30 5468 H 546.897 -2.99722 0.103247 0
M  V30 5469 H 544.45 -1.56033 0.0912804 0
M  V30 5470 H 545.185 -2.23236 -2.35236 0
M  V30 5471 H 544.97 -3.68654 -1.33553 0
M  V30 5472 H 546.46 -3.48258 -2.30447 0
M  V30 5473 N 546.897 -0.0685191 -1.57451 0
M  V30 5474 C 548.127 0.609577 -1.97402 0
M  V30 5475 C 548.535 1.63882 -0.945489 0
M  V30 5476 O 547.878 1.8354 0.0766052 0
M  V30 5477 C 547.94 1.3385 -3.33653 0
M  V30 5478 C 547.604 0.463103 -4.54648 0
M  V30 5479 C 548.601 -0.277964 -5.19156 0
M  V30 5480 C 546.286 0.388941 -5.00792 0
M  V30 5481 C 548.28 -1.08145 -6.28159 0
M  V30 5482 C 545.967 -0.418217 -6.09667 0
M  V30 5483 C 546.965 -1.15208 -6.73213 0
M  V30 5484 O 546.653 -1.94594 -7.79993 0
M  V30 5485 H 546.385 0.170197 -0.654224 0
M  V30 5486 H 548.939 -0.13647 -2.04946 0
M  V30 5487 H 547.169 2.13055 -3.22714 0
M  V30 5488 H 548.858 1.90851 -3.58233 0
M  V30 5489 H 549.624 -0.230241 -4.84453 0
M  V30 5490 H 545.503 0.949769 -4.5111 0
M  V30 5491 H 549.047 -1.65476 -6.7769 0
M  V30 5492 H 544.944 -0.467515 -6.43805 0
M  V30 5493 H 545.712 -1.8699 -7.96854 0
M  V30 5494 N 548.375 1.56261 0.205012 0
M  V30 5495 C 549.624 1.79236 0.925058 0
M  V30 5496 C 549.937 0.640011 1.84833 0
M  V30 5497 O 551.143 0.753809 2.60826 0
M  V30 5498 C 549.599 3.17475 1.69522 0
M  V30 5499 C 549.207 4.40482 0.817269 0
M  V30 5500 C 550.951 3.49766 2.4055 0
M  V30 5501 C 548.858 5.69744 1.58573 0
M  V30 5502 H 547.788 0.668287 0.349153 0
M  V30 5503 H 550.439 1.82629 0.178544 0
M  V30 5504 H 548.821 3.08304 2.48526 0
M  V30 5505 H 549.995 4.60752 0.0665988 0
M  V30 5506 H 548.31 4.15827 0.218316 0
M  V30 5507 H 550.907 4.43573 2.98575 0
M  V30 5508 H 551.25 2.73041 3.14252 0
M  V30 5509 H 551.783 3.60341 1.68522 0
M  V30 5510 H 548.522 6.49407 0.891679 0
M  V30 5511 H 548.042 5.53509 2.31059 0
M  V30 5512 H 549.721 6.1051 2.14212 0
M  V30 5513 N 549.853 -0.472356 1.50355 0
M  V30 5514 C 551.099 -1.22634 1.6152 0
M  V30 5515 C 551.432 -1.91645 0.313995 0
M  V30 5516 O 550.707 -1.82059 -0.684446 0
M  V30 5517 C 550.99 -2.27099 2.7946 0
M  V30 5518 C 550.843 -1.62402 4.19459 0
M  V30 5519 C 552.162 -3.28421 2.92964 0
M  V30 5520 H 549.281 -0.444494 0.587873 0
M  V30 5521 H 551.923 -0.520321 1.82737 0
M  V30 5522 H 550.073 -2.87314 2.61501 0
M  V30 5523 H 551.745 -1.05793 4.49005 0
M  V30 5524 H 549.988 -0.927184 4.23776 0
M  V30 5525 H 550.659 -2.38309 4.97909 0
M  V30 5526 H 553.135 -2.78227 3.09401 0
M  V30 5527 H 552.011 -3.98845 3.77113 0
M  V30 5528 H 552.272 -3.92467 2.03525 0
M  V30 5529 N 551.331 -1.39911 -0.725443 0
M  V30 5530 C 552.561 -1.40744 -1.51244 0
M  V30 5531 C 552.969 -0.00275403 -1.892 0
M  V30 5532 O 552.312 0.981299 -1.55294 0
M  V30 5533 C 552.374 -2.22527 -2.82351 0
M  V30 5534 C 552.038 -3.71053 -2.66774 0
M  V30 5535 C 553.035 -4.63916 -2.34686 0
M  V30 5536 C 550.72 -4.14753 -2.83347 0
M  V30 5537 C 552.714 -5.98463 -2.19366 0
M  V30 5538 C 550.401 -5.49372 -2.67644 0
M  V30 5539 C 551.399 -6.41042 -2.357 0
M  V30 5540 O 551.087 -7.73181 -2.20107 0
M  V30 5541 H 550.819 -0.482314 -0.473655 0
M  V30 5542 H 553.373 -1.84472 -0.903284 0
M  V30 5543 H 551.603 -1.73563 -3.45562 0
M  V30 5544 H 553.292 -2.15421 -3.44018 0
M  V30 5545 H 554.058 -4.31453 -2.21525 0
M  V30 5546 H 549.937 -3.43728 -3.072 0
M  V30 5547 H 553.481 -6.69979 -1.94354 0
M  V30 5548 H 549.378 -5.81424 -2.80387 0
M  V30 5549 H 550.146 -7.84008 -2.35103 0
M  V30 5550 N 552.809 0.956637 -1.25245 0
M  V30 5551 C 554.086 1.67716 -1.00651 0
M  V30 5552 C 554.466 2.0585 0.467866 0
M  V30 5553 O 553.814 1.77029 1.44475 0
M  V30 5554 C 554.024 2.90093 -1.94028 0
M  V30 5555 C 555.372 3.6209 -2.21756 0
M  V30 5556 O 556.396 3.00171 -1.9177 0
M  V30 5557 O 555.255 4.7358 -2.72735 0
M  V30 5558 H 552.349 0.733731 -0.381533 0
M  V30 5559 H 554.895 1.00974 -1.3639 0
M  V30 5560 H 553.667 2.58689 -2.93591 0
M  V30 5561 H 553.29 3.64566 -1.58674 0
M  V30 5562 N 554.287 1.06798 1.15896 0
M  V30 5563 C 555.217 0.704677 2.22613 0
M  V30 5564 C 556.198 -0.305252 1.67339 0
M  V30 5565 O 557.383 -0.179247 1.93371 0
M  V30 5566 C 554.513 0.0957325 3.47168 0
M  V30 5567 C 553.467 1.0322 4.15367 0
M  V30 5568 C 552.793 0.286293 5.33933 0
M  V30 5569 C 554.093 2.36341 4.65768 0
M  V30 5570 H 555.787 1.59688 2.53259 0
M  V30 5571 H 553.333 0.769257 1.21731 0
M  V30 5572 H 555.286 -0.170333 4.21056 0
M  V30 5573 H 554.01 -0.831516 3.15838 0
M  V30 5574 H 552.669 1.28309 3.43413 0
M  V30 5575 H 552.317 -0.644237 4.98857 0
M  V30 5576 H 552.017 0.910436 5.80504 0
M  V30 5577 H 553.541 0.0278938 6.10594 0
M  V30 5578 H 554.955 2.1561 5.31211 0
M  V30 5579 H 553.352 2.94299 5.2298 0
M  V30 5580 H 554.422 2.99047 3.81705 0
M  V30 5581 N 555.766 -1.3263 0.851289 0
M  V30 5582 C 557.043 -1.91982 0.374448 0
M  V30 5583 C 557.423 -1.77568 -1.14161 0
M  V30 5584 O 556.771 -1.1717 -1.96172 0
M  V30 5585 C 556.981 -3.38862 0.835088 0
M  V30 5586 C 558.329 -4.15999 0.850309 0
M  V30 5587 O 559.353 -3.47566 0.779505 0
M  V30 5588 O 558.212 -5.38189 0.949481 0
M  V30 5589 H 555.306 -0.819846 0.10854 0
M  V30 5590 H 557.852 -1.41422 0.937966 0
M  V30 5591 H 556.624 -3.43281 1.87814 0
M  V30 5592 H 556.247 -3.96821 0.248833 0
M  V30 5593 N 557.244 -0.608902 -1.45362 0
M  V30 5594 C 558.521 -0.0365378 -1.95566 0
M  V30 5595 C 558.901 1.43169 -1.55131 0
M  V30 5596 O 558.249 2.1349 -0.814513 0
M  V30 5597 C 558.459 -0.236026 -3.48201 0
M  V30 5598 C 559.807 -0.117518 -4.24437 0
M  V30 5599 O 560.831 -0.166217 -3.55812 0
M  V30 5600 O 559.69 -0.00372127 -5.465 0
M  V30 5601 H 556.784 0.0349874 -0.82626 0
M  V30 5602 H 559.33 -0.679055 -1.55521 0
M  V30 5603 H 558.102 -1.25569 -3.70605 0
M  V30 5604 H 557.725 0.441691 -3.95139 0
M  V30 5605 N 558.722 1.53707 -0.348139 0
M  V30 5606 C 559.67 2.26671 0.521808 0
M  V30 5607 C 560.664 1.28988 1.09811 0
M  V30 5608 O 561.87 1.4668 1.04332 0
M  V30 5609 H 558.245 0.728387 0.186968 0
M  V30 5610 H 560.216 2.98176 -0.115563 0
M  V30 5611 C 558.965 3.05591 1.6586 0
M  V30 5612 H 558.288 3.80589 1.22443 0
M  V30 5613 H 559.728 3.59851 2.24239 0
M  V30 5614 C 558.187 2.15366 2.59073 0
M  V30 5615 O 558.717 1.7528 3.61441 0
M  V30 5616 N 556.923 1.80352 2.27863 0
M  V30 5617 H 556.47 2.13149 1.44656 0
M  V30 5618 H 556.428 1.20268 2.90488 0
M  V30 5619 N 560.2 0.0768682 1.57412 0
M  V30 5620 C 561.11 -0.903207 2.16516 0
M  V30 5621 C 562.126 -1.32341 1.12968 0
M  V30 5622 O 563.302 -1.39507 1.45258 0
M  V30 5623 C 560.367 -2.1508 2.71922 0
M  V30 5624 C 559.428 -1.78653 3.90361 0
M  V30 5625 C 558.661 -2.97465 4.43114 0
M  V30 5626 O 558.884 -4.11638 3.94854 0
M  V30 5627 O 557.818 -2.76987 5.3438 0
M  V30 5628 H 561.644 -0.430427 3.00634 0
M  V30 5629 H 559.229 -0.146485 1.4868 0
M  V30 5630 H 561.111 -2.8823 3.07411 0
M  V30 5631 H 559.786 -2.61446 1.9086 0
M  V30 5632 H 558.693 -1.0274 3.59716 0
M  V30 5633 H 560.026 -1.37066 4.7273 0
M  V30 5634 N 561.678 -1.56367 -0.196722 0
M  V30 5635 C 562.927 -1.79724 -0.915539 0
M  V30 5636 C 563.24 -0.649804 -1.84491 0
M  V30 5637 O 564.446 -0.767631 -2.60422 0
M  V30 5638 C 562.902 -3.18369 -1.67836 0
M  V30 5639 C 562.51 -4.4091 -0.793897 0
M  V30 5640 C 564.254 -3.51037 -2.38691 0
M  V30 5641 C 562.161 -5.70577 -1.55549 0
M  V30 5642 H 561.091 -0.67013 -0.345604 0
M  V30 5643 H 563.742 -1.82721 -0.168856 0
M  V30 5644 H 562.124 -3.09617 -2.46887 0
M  V30 5645 H 563.298 -4.60781 -0.042163 0
M  V30 5646 H 561.613 -4.15937 -0.19626 0
M  V30 5647 H 564.21 -4.4515 -2.96219 0
M  V30 5648 H 564.553 -2.74704 -3.12799 0
M  V30 5649 H 565.086 -3.61229 -1.66608 0
M  V30 5650 H 561.825 -6.49871 -0.857226 0
M  V30 5651 H 561.345 -5.54726 -2.2812 0
M  V30 5652 H 563.024 -6.11637 -2.10971 0
M  V30 5653 N 563.156 0.464375 -1.50603 0
M  V30 5654 C 564.381 1.24372 -1.65971 0
M  V30 5655 C 564.806 1.84901 -0.345453 0
M  V30 5656 O 564.164 1.67596 0.691457 0
M  V30 5657 C 564.212 2.32331 -2.7578 0
M  V30 5658 O 563.316 3.37146 -2.375 0
M  V30 5659 H 562.657 0.365604 -0.554283 0
M  V30 5660 H 565.187 0.55183 -1.97018 0
M  V30 5661 H 565.197 2.77539 -2.99059 0
M  V30 5662 H 563.872 1.87648 -3.71162 0
M  V30 5663 H 562.449 2.97602 -2.24694 0
M  V30 5664 N 564.634 1.40294 0.718013 0
M  V30 5665 C 565.564 1.43118 1.84498 0
M  V30 5666 C 566.545 0.292403 1.67568 0
M  V30 5667 O 567.73 0.500675 1.87635 0
M  V30 5668 C 564.86 1.29065 3.22427 0
M  V30 5669 C 563.814 2.40521 3.54025 0
M  V30 5670 C 563.14 2.11546 4.91073 0
M  V30 5671 C 564.44 3.82859 3.55269 0
M  V30 5672 H 566.134 2.37432 1.82391 0
M  V30 5673 H 563.68 1.14283 0.87609 0
M  V30 5674 H 565.633 1.29658 4.00957 0
M  V30 5675 H 564.357 0.312271 3.25104 0
M  V30 5676 H 563.016 2.39173 2.77834 0
M  V30 5677 H 562.664 1.12104 4.90348 0
M  V30 5678 H 562.364 2.86216 5.1318 0
M  V30 5679 H 563.888 2.13817 5.71939 0
M  V30 5680 H 565.302 3.86044 4.23843 0
M  V30 5681 H 563.699 4.57029 3.88902 0
M  V30 5682 H 564.769 4.12617 2.54706 0
M  V30 5683 N 566.112 -0.949982 1.2575 0
M  V30 5684 C 567.075 -2.02894 1.06615 0
M  V30 5685 C 568.075 -1.60791 0.0173905 0
M  V30 5686 O 569.265 -1.72249 0.260003 0
M  V30 5687 C 566.397 -3.35219 0.619751 0
M  V30 5688 H 567.59 -2.21302 2.02399 0
M  V30 5689 H 565.143 -1.12772 1.08223 0
M  V30 5690 H 565.878 -3.22508 -0.340486 0
M  V30 5691 H 565.663 -3.67129 1.37692 0
M  V30 5692 H 567.153 -4.14505 0.507443 0
M  V30 5693 N 567.59 -1.07411 -1.15328 0
M  V30 5694 C 568.522 -0.652924 -2.19703 0
M  V30 5695 C 569.535 0.294869 -1.60107 0
M  V30 5696 O 570.724 0.0840932 -1.78302 0
M  V30 5697 C 567.824 0.061434 -3.38844 0
M  V30 5698 C 566.997 -0.902696 -4.27984 0
M  V30 5699 C 566.056 -0.225521 -5.25717 0
M  V30 5700 O 565.082 -0.86676 -5.62562 0
M  V30 5701 N 566.284 1.02858 -5.71315 0
M  V30 5702 H 569.049 -1.55081 -2.56457 0
M  V30 5703 H 566.61 -0.958883 -1.30449 0
M  V30 5704 H 568.602 0.525145 -4.01278 0
M  V30 5705 H 567.172 0.861269 -3.00501 0
M  V30 5706 H 566.392 -1.54551 -3.6264 0
M  V30 5707 H 567.68 -1.55636 -4.84412 0
M  V30 5708 H 567.078 1.56948 -5.43492 0
M  V30 5709 H 565.635 1.43596 -6.35786 0
M  V30 5710 N 569.068 1.32177 -0.85831 0
M  V30 5711 C 570.314 1.97417 -0.46417 0
M  V30 5712 C 570.647 1.67746 0.978514 0
M  V30 5713 O 569.922 0.967654 1.68721 0
M  V30 5714 C 570.205 3.53069 -0.708094 0
M  V30 5715 C 570.058 3.92357 -2.19946 0
M  V30 5716 C 571.377 4.39783 -0.166881 0
M  V30 5717 H 568.496 0.717097 -0.17012 0
M  V30 5718 H 571.138 1.56499 -1.07741 0
M  V30 5719 H 569.288 3.88054 -0.186128 0
M  V30 5720 H 570.96 3.67533 -2.78779 0
M  V30 5721 H 569.203 3.41384 -2.67656 0
M  V30 5722 H 569.874 5.00841 -2.32082 0
M  V30 5723 H 572.35 4.11556 -0.613285 0
M  V30 5724 H 571.226 5.47671 -0.367093 0
M  V30 5725 H 571.487 4.32196 0.930559 0
M  V30 5726 N 570.547 0.616602 1.45037 0
M  V30 5727 C 571.494 -0.0969439 2.30596 0
M  V30 5728 C 572.464 -0.851151 1.42635 0
M  V30 5729 O 573.649 -0.835092 1.71554 0
M  V30 5730 C 570.789 -1.08234 3.27688 0
M  V30 5731 C 569.902 -0.328072 4.30752 0
M  V30 5732 C 569.037 -1.30399 5.14946 0
M  V30 5733 C 568.076 -0.538049 6.09731 0
M  V30 5734 N 567.213 -1.46371 6.86673 0
M  V30 5735 H 572.053 0.63864 2.91076 0
M  V30 5736 H 569.59 0.326733 1.43425 0
M  V30 5737 H 571.548 -1.66688 3.82454 0
M  V30 5738 H 570.178 -1.78523 2.68941 0
M  V30 5739 H 569.23 0.372136 3.78575 0
M  V30 5740 H 570.542 0.269142 4.98073 0
M  V30 5741 H 569.696 -1.96032 5.74157 0
M  V30 5742 H 568.435 -1.93514 4.47665 0
M  V30 5743 H 567.44 0.131852 5.49642 0
M  V30 5744 H 568.665 0.0881732 6.79043 0
M  V30 5745 H 566.611 -2.08233 6.22073 0
M  V30 5746 H 566.528 -0.920152 7.50379 0
M  V30 5747 H 567.796 -2.10932 7.50418 0
M  V30 5748 N 572.025 -1.5352 0.356285 0
M  V30 5749 C 573.255 -2.05236 -0.236983 0
M  V30 5750 C 573.663 -1.23016 -1.43749 0
M  V30 5751 O 573.006 -0.2615 -1.81829 0
M  V30 5752 C 573.068 -3.52549 -0.7035 0
M  V30 5753 C 572.732 -4.55425 0.379059 0
M  V30 5754 C 573.729 -5.0524 1.22592 0
M  V30 5755 C 571.414 -4.99425 0.536638 0
M  V30 5756 C 573.408 -5.97647 2.21578 0
M  V30 5757 C 571.095 -5.9164 1.52988 0
M  V30 5758 C 572.093 -6.4064 2.3679 0
M  V30 5759 O 571.781 -7.31039 3.34421 0
M  V30 5760 H 571.513 -0.674346 -0.047254 0
M  V30 5761 H 574.067 -1.98962 0.510238 0
M  V30 5762 H 572.297 -3.56331 -1.50217 0
M  V30 5763 H 573.986 -3.87171 -1.21873 0
M  V30 5764 H 574.752 -4.72002 1.11532 0
M  V30 5765 H 570.631 -4.60879 -0.105834 0
M  V30 5766 H 574.175 -6.35816 2.87025 0
M  V30 5767 H 570.072 -6.24293 1.64099 0
M  V30 5768 H 570.84 -7.49009 3.30041 0
M  V30 5769 N 573.503 -0.0852151 -1.57369 0
M  V30 5770 C 574.731 0.58946 -1.98325 0
M  V30 5771 C 575.146 1.62333 -0.96403 0
M  V30 5772 O 574.503 1.82438 0.0476395 0
M  V30 5773 C 574.554 1.24604 -3.39347 0
M  V30 5774 O 574.275 0.253532 -4.37366 0
M  V30 5775 C 575.776 2.00726 -3.95252 0
M  V30 5776 H 572.996 0.158783 -0.651942 0
M  V30 5777 H 575.54 -0.161584 -2.03861 0
M  V30 5778 H 573.695 1.94808 -3.34856 0
M  V30 5779 H 574.109 0.726207 -5.19448 0
M  V30 5780 H 575.583 2.42039 -4.96106 0
M  V30 5781 H 576.06 2.86919 -3.32527 0
M  V30 5782 H 576.666 1.3536 -4.03185 0
M  V30 5783 N 574.981 1.5647 0.188427 0
M  V30 5784 C 576.206 1.85486 0.927891 0
M  V30 5785 C 576.631 0.669575 1.75779 0
M  V30 5786 O 575.989 -0.381573 1.77239 0
M  V30 5787 C 576.037 3.12784 1.7944 0
M  V30 5788 O 575.141 2.93805 2.894 0
M  V30 5789 H 574.482 0.610585 0.260925 0
M  V30 5790 H 577.012 2.037 0.191729 0
M  V30 5791 H 577.022 3.43749 2.19774 0
M  V30 5792 H 575.697 3.98671 1.18468 0
M  V30 5793 H 574.274 2.74153 2.52774 0
M  V30 5794 N 576.459 -0.456382 1.50847 0
M  V30 5795 C 577.422 -1.53493 1.70213 0
M  V30 5796 C 578.422 -1.50264 0.572481 0
M  V30 5797 O 579.612 -1.52623 0.839751 0
M  V30 5798 C 576.744 -2.93091 1.741 0
M  V30 5799 H 577.937 -1.37633 2.66453 0
M  V30 5800 H 575.49 -0.683776 1.4055 0
M  V30 5801 H 576.225 -3.14378 0.796063 0
M  V30 5802 H 576.01 -2.9684 2.5618 0
M  V30 5803 H 577.5 -3.71368 1.90987 0
M  V30 5804 N 577.937 -1.40673 -0.710563 0
M  V30 5805 C 579.162 -1.42741 -1.50465 0
M  V30 5806 C 579.587 -0.0302116 -1.88076 0
M  V30 5807 O 578.945 0.962945 -1.53613 0
M  V30 5808 C 578.993 -2.32873 -2.75322 0
M  V30 5809 O 578.097 -1.77544 -3.72226 0
M  V30 5810 H 577.438 -0.485056 -0.45345 0
M  V30 5811 H 579.968 -1.84961 -0.874681 0
M  V30 5812 H 579.978 -2.48233 -3.23797 0
M  V30 5813 H 578.653 -3.34401 -2.47283 0
M  V30 5814 H 577.23 -1.71556 -3.31093 0
M  V30 5815 N 579.415 0.9433 -1.26252 0
M  V30 5816 C 580.64 1.72898 -1.14547 0
M  V30 5817 C 581.065 1.85761 0.295743 0
M  V30 5818 O 580.423 1.3463 1.21427 0
M  V30 5819 C 580.471 3.11471 -1.8171 0
M  V30 5820 O 579.575 3.97336 -1.10445 0
M  V30 5821 H 578.916 0.530555 -0.399259 0
M  V30 5822 H 581.446 1.18159 -1.67032 0
M  V30 5823 H 581.456 3.61872 -1.88449 0
M  V30 5824 H 580.131 3.01425 -2.86558 0
M  V30 5825 H 578.708 3.55788 -1.11666 0
M  V30 5826 N 580.893 1.08022 1.14757 0
M  V30 5827 C 582.142 0.802468 1.8505 0
M  V30 5828 C 582.455 -0.674061 1.83619 0
M  V30 5829 O 583.661 -1.06683 2.49662 0
M  V30 5830 C 582.117 1.38551 3.32162 0
M  V30 5831 C 581.725 2.89354 3.42021 0
M  V30 5832 C 583.469 1.18608 4.07594 0
M  V30 5833 C 581.376 3.40815 4.83321 0
M  V30 5834 H 580.306 0.296518 0.693248 0
M  V30 5835 H 582.957 1.30114 1.29393 0
M  V30 5836 H 581.339 0.814556 3.87532 0
M  V30 5837 H 582.513 3.52552 2.96722 0
M  V30 5838 H 580.828 3.08165 2.80041 0
M  V30 5839 H 583.425 1.54525 5.11885 0
M  V30 5840 H 583.768 0.125599 4.1611 0
M  V30 5841 H 584.301 1.72375 3.58513 0
M  V30 5842 H 581.04 4.46418 4.79991 0
M  V30 5843 H 580.56 2.82374 5.29174 0
M  V30 5844 H 582.239 3.37171 5.522 0
M  V30 5845 N 582.371 -1.3172 0.865308 0
M  V30 5846 C 583.596 -2.01591 0.487415 0
M  V30 5847 C 584.021 -1.6455 -0.911307 0
M  V30 5848 O 583.379 -0.851689 -1.6005 0
M  V30 5849 C 583.427 -3.54759 0.646401 0
M  V30 5850 O 582.531 -4.11185 -0.316284 0
M  V30 5851 H 581.872 -0.634884 0.194468 0
M  V30 5852 H 584.402 -1.68024 1.16744 0
M  V30 5853 H 584.412 -4.04438 0.537932 0
M  V30 5854 H 583.087 -3.8106 1.66632 0
M  V30 5855 H 581.664 -3.72543 -0.163162 0
M  V30 5856 N 583.85 -0.624285 -1.44708 0
M  V30 5857 C 584.812 0.0749638 -2.29077 0
M  V30 5858 C 585.812 0.778965 -1.40673 0
M  V30 5859 O 587.003 0.624591 -1.62618 0
M  V30 5860 C 584.135 1.11663 -3.22094 0
M  V30 5861 H 585.327 -0.667013 -2.92388 0
M  V30 5862 H 582.88 -0.384098 -1.51507 0
M  V30 5863 H 583.615 1.88881 -2.63618 0
M  V30 5864 H 583.401 0.61583 -3.87234 0
M  V30 5865 H 584.891 1.60585 -3.8549 0
M  V30 5866 N 585.328 1.53329 -0.364422 0
M  V30 5867 C 586.258 2.28627 0.474543 0
M  V30 5868 C 587.239 1.31009 1.08492 0
M  V30 5869 O 588.424 1.59878 1.10239 0
M  V30 5870 C 585.554 3.07465 1.61501 0
M  V30 5871 C 584.508 4.1276 1.13194 0
M  V30 5872 C 583.834 4.79674 2.36255 0
M  V30 5873 C 585.134 5.21847 0.217507 0
M  V30 5874 H 586.828 2.99005 -0.153656 0
M  V30 5875 H 584.374 1.43803 -0.0753406 0
M  V30 5876 H 586.327 3.58889 2.20855 0
M  V30 5877 H 585.051 2.34775 2.27042 0
M  V30 5878 H 583.71 3.62281 0.56109 0
M  V30 5879 H 583.358 4.03557 3.00251 0
M  V30 5880 H 583.058 5.50827 2.04606 0
M  V30 5881 H 584.582 5.33892 2.96297 0
M  V30 5882 H 585.996 5.6878 0.718493 0
M  V30 5883 H 584.393 6.00099 -0.00806408 0
M  V30 5884 H 585.463 4.7921 -0.740653 0
M  V30 5885 N 586.806 0.0935595 1.57322 0
M  V30 5886 C 588.034 -0.578934 1.98635 0
M  V30 5887 C 588.449 -1.61819 0.972626 0
M  V30 5888 O 587.806 -1.82461 -0.0379638 0
M  V30 5889 C 587.857 -1.22802 3.40003 0
M  V30 5890 O 587.578 -0.230334 4.37494 0
M  V30 5891 C 589.079 -1.98627 3.96311 0
M  V30 5892 H 586.299 -0.155324 0.652775 0
M  V30 5893 H 588.843 0.172393 2.03772 0
M  V30 5894 H 586.998 -1.93029 3.35885 0
M  V30 5895 H 587.412 -0.698649 5.19826 0
M  V30 5896 H 588.886 -2.39405 4.97382 0
M  V30 5897 H 589.363 -2.85151 3.34044 0
M  V30 5898 H 589.969 -1.3322 4.03897 0
M  V30 5899 O 588.323 -1.61433 -0.0465113 0
M  V30 5900 H 589.014 -1.8177 -0.669292 0
M  V30 END ATOM
M  V30 BEGIN BOND
M  V30 END BOND
M  V30 END CTAB
M  END
$$$$
