drugbank_target|Q8IDP8 Aspartate carbamoyltransferase (DB11638)
 OpenBabel12092121113D

  0  0  0     0  0            999 V3000
M  V30 BEGIN CTAB
M  V30 COUNTS 6148 6202 0 0 0
M  V30 BEGIN ATOM
M  V30 1 H -0.908 1.98254 -0.117106 0
M  V30 2 N 0 1.576 0 0
M  V30 3 C 0.933 2.03868 1.02534 0
M  V30 4 C 1.911 0.928543 1.3348 0
M  V30 5 O 3.095 1.19667 1.45644 0
M  V30 6 C 0.222 2.43627 2.35294 0
M  V30 7 C -0.732 3.65373 2.2001 0
M  V30 8 S 0.101 5.13292 1.52614 0
M  V30 9 C 1.257 5.56322 2.86805 0
M  V30 10 H 1.49 2.90518 0.631377 0
M  V30 11 H -0.977 1.52953 0.210867 0
M  V30 12 H 0.981 2.67203 3.11629 0
M  V30 13 H -0.358 1.57376 2.7183 0
M  V30 14 H -1.165 3.90944 3.18086 0
M  V30 15 H -1.563 3.418 1.51819 0
M  V30 16 H 0.729 5.58782 3.83104 0
M  V30 17 H 1.672 6.56266 2.65933 0
M  V30 18 H 2.08 4.83886 2.90714 0
M  V30 19 N 1.4781 -0.272755 1.55222 0
M  V30 20 C 2.7271 -1.00211 1.75045 0
M  V30 21 C 3.0401 -1.87441 0.559046 0
M  V30 22 O 4.2461 -2.63856 0.639698 0
M  V30 23 C 2.7021 -1.83165 3.09804 0
M  V30 24 C 2.3101 -1.008 4.36513 0
M  V30 25 C 4.0541 -2.55529 3.38977 0
M  V30 26 C 1.9611 -1.83194 5.62311 0
M  V30 27 H 0.8911 -0.377878 0.652476 0
M  V30 28 H 3.5421 -0.257776 1.8168 0
M  V30 29 H 1.9241 -2.61694 2.97207 0
M  V30 30 H 3.0981 -0.266855 4.60027 0
M  V30 31 H 1.4131 -0.398897 4.14485 0
M  V30 32 H 4.0101 -3.17578 4.30172 0
M  V30 33 H 4.3531 -3.25825 2.59121 0
M  V30 34 H 4.8861 -1.84029 3.52673 0
M  V30 35 H 1.6251 -1.17318 6.44916 0
M  V30 36 H 1.1451 -2.54905 5.4294 0
M  V30 37 H 2.8241 -2.40552 6.00619 0
M  V30 38 N 2.9562 -1.48159 -0.537278 0
M  V30 39 C 3.8662 -1.64807 -1.6696 0
M  V30 40 C 4.8822 -0.530651 -1.65711 0
M  V30 41 O 6.0582 -0.800784 -1.84796 0
M  V30 42 C 3.1232 -1.67708 -3.03438 0
M  V30 43 C 2.1842 -2.91025 -3.156 0
M  V30 44 C 1.4172 -2.93778 -4.45567 0
M  V30 45 O 1.6402 -2.05153 -5.3223 0
M  V30 46 O 0.5742 -3.85868 -4.61941 0
M  V30 47 H 4.4002 -2.6066 -1.55853 0
M  V30 48 H 1.9852 -1.31475 -0.709549 0
M  V30 49 H 3.8672 -1.7218 -3.84619 0
M  V30 50 H 2.5422 -0.750278 -3.14885 0
M  V30 51 H 1.4492 -2.92089 -2.33741 0
M  V30 52 H 2.7822 -3.83065 -3.09066 0
M  V30 53 N 4.4343 0.785586 -1.36625 0
M  V30 54 C 5.6833 1.53883 -1.30396 0
M  V30 55 C 5.9963 1.95271 0.113452 0
M  V30 56 O 7.2023 2.69858 0.298142 0
M  V30 57 C 5.6583 2.77808 -2.28802 0
M  V30 58 C 5.2663 2.43574 -3.75999 0
M  V30 59 C 7.0103 3.55783 -2.31558 0
M  V30 60 C 4.9173 3.63919 -4.66173 0
M  V30 61 H 3.8473 0.577678 -0.484566 0
M  V30 62 H 6.4983 0.861705 -1.62009 0
M  V30 63 H 4.8803 3.47339 -1.90188 0
M  V30 64 H 6.0543 1.81916 -4.23371 0
M  V30 65 H 4.3693 1.78803 -3.76056 0
M  V30 66 H 6.9663 4.45205 -2.96137 0
M  V30 67 H 7.3093 3.94644 -1.3252 0
M  V30 68 H 7.8423 2.93235 -2.68809 0
M  V30 69 H 4.5813 3.3015 -5.66287 0
M  V30 70 H 4.1013 4.2473 -4.23515 0
M  V30 71 H 5.7803 4.30901 -4.82632 0
M  V30 72 N 5.9124 1.20967 1.01018 0
M  V30 73 C 7.1594 1.02374 1.74716 0
M  V30 74 C 7.4874 -0.443375 1.89379 0
M  V30 75 O 6.7424 -1.34535 1.42123 0
M  V30 76 C 7.0414 1.65997 3.16512 0
M  V30 77 C 6.7074 3.15831 3.2181 0
M  V30 78 C 5.3694 3.56719 3.22963 0
M  V30 79 C 7.7214 4.11816 3.19464 0
M  V30 80 C 5.0494 4.92107 3.19449 0
M  V30 81 C 7.4014 5.47158 3.17491 0
M  V30 82 C 6.0654 5.87451 3.16951 0
M  V30 83 H 5.3354 0.374614 0.639332 0
M  V30 84 H 7.9824 1.50485 1.18434 0
M  V30 85 H 6.2874 1.10166 3.75993 0
M  V30 86 H 7.9844 1.49119 3.72242 0
M  V30 87 H 4.5744 2.83263 3.21652 0
M  V30 88 H 8.7584 3.81257 3.17737 0
M  V30 89 H 4.0144 5.22579 3.17366 0
M  V30 90 H 8.1884 6.21274 3.14629 0
M  V30 91 H 5.8154 6.92329 3.13983 0
M  V30 92 N 7.3905 -1.2043 1.01659 0
M  V30 93 C 8.6305 -1.91507 0.714456 0
M  V30 94 C 8.9945 -1.77073 -0.742237 0
M  V30 95 O 10.1955 -2.42631 -1.15688 0
M  V30 96 C 8.4665 -3.38795 1.13809 0
M  V30 97 S 10.0255 -4.28216 0.957925 0
M  V30 98 H 6.8435 -0.661571 0.260471 0
M  V30 99 H 9.4455 -1.45671 1.30384 0
M  V30 100 H 8.1495 -3.46822 2.19415 0
M  V30 101 H 7.6805 -3.89656 0.541474 0
M  V30 102 H 9.6955 -4.96007 -0.138531 0
M  V30 103 N 8.8686 -0.792821 -1.36206 0
M  V30 104 C 10.0966 -0.378825 -2.03402 0
M  V30 105 C 10.5116 1.00586 -1.59774 0
M  V30 106 O 9.8686 1.64574 -0.788764 0
M  V30 107 C 9.9196 -0.43683 -3.58851 0
M  V30 108 O 9.6406 -1.76691 -4.00889 0
M  V30 109 C 11.1416 -0.0138943 -4.43298 0
M  V30 110 H 8.3616 -0.155673 -0.652692 0
M  V30 111 H 10.9056 -1.07261 -1.74113 0
M  V30 112 H 9.0606 0.208575 -3.86838 0
M  V30 113 H 9.4746 -1.72011 -4.95492 0
M  V30 114 H 10.9486 -0.105615 -5.51899 0
M  V30 115 H 11.4256 1.03915 -4.2673 0
M  V30 116 H 12.0316 -0.63192 -4.20579 0
M  V30 117 N 10.3467 1.47872 -0.545128 0
M  V30 118 C 11.3097 2.28337 0.198717 0
M  V30 119 C 12.3097 1.36255 0.853888 0
M  V30 120 O 13.4997 1.59003 0.711606 0
M  V30 121 C 10.6317 3.15585 1.28915 0
M  V30 122 H 11.8247 2.95567 -0.507941 0
M  V30 123 H 9.3777 1.53362 -0.301616 0
M  V30 124 H 10.1127 2.53019 2.02859 0
M  V30 125 H 9.8977 3.83337 0.824309 0
M  V30 126 H 11.3877 3.76243 1.81194 0
M  V30 127 N 11.8248 0.280983 1.55075 0
M  V30 128 C 13.0738 -0.334784 1.98902 0
M  V30 129 C 13.3868 -1.56534 1.17288 0
M  V30 130 O 14.5928 -2.25443 1.51287 0
M  V30 131 C 13.0488 -0.646994 3.54037 0
M  V30 132 C 12.6568 0.564085 4.44435 0
M  V30 133 C 14.4008 -1.22506 4.06439 0
M  V30 134 C 12.3078 0.226137 5.90967 0
M  V30 135 H 11.2378 -0.128866 0.742906 0
M  V30 136 H 13.8888 0.386556 1.79382 0
M  V30 137 H 12.2708 -1.42739 3.6938 0
M  V30 138 H 13.4448 1.34082 4.40861 0
M  V30 139 H 11.7598 1.0594 4.02698 0
M  V30 140 H 14.3568 -1.49182 5.13468 0
M  V30 141 H 14.6998 -2.16085 3.55827 0
M  V30 142 H 15.2328 -0.50682 3.94558 0
M  V30 143 H 11.9718 1.12996 6.45687 0
M  V30 144 H 11.4918 -0.513717 5.97596 0
M  V30 145 H 13.1708 -0.179539 6.46751 0
M  V30 146 N 13.3029 -1.57598 0.00835791 0
M  V30 147 C 14.5489 -1.91211 -0.675732 0
M  V30 148 C 14.8819 -0.883139 -1.72958 0
M  V30 149 O 14.1569 0.097016 -1.94258 0
M  V30 150 C 14.4399 -3.35379 -1.31123 0
M  V30 151 C 14.2929 -4.48999 -0.268356 0
M  V30 152 C 15.6119 -3.7912 -2.23508 0
M  V30 153 H 12.7309 -0.695374 -0.244179 0
M  V30 154 H 15.3729 -1.89901 0.0613655 0
M  V30 155 H 13.5229 -3.36626 -1.93946 0
M  V30 156 H 15.1949 -4.59887 0.360844 0
M  V30 157 H 13.4379 -4.31873 0.408482 0
M  V30 158 H 14.1089 -5.46851 -0.752218 0
M  V30 159 H 16.5849 -3.79477 -1.70693 0
M  V30 160 H 15.4609 -4.80729 -2.64936 0
M  V30 161 H 15.7219 -3.13455 -3.11766 0
M  V30 162 N 14.781 0.264519 -1.55364 0
M  V30 163 C 16.027 0.99646 -1.76631 0
M  V30 164 C 16.36 1.85632 -0.570478 0
M  V30 165 O 15.635 1.89647 0.43175 0
M  V30 166 C 15.918 1.87187 -3.07625 0
M  V30 167 C 15.771 1.04138 -4.37579 0
M  V30 168 C 17.09 2.85749 -3.34717 0
M  V30 169 H 14.209 0.360841 -0.642622 0
M  V30 170 H 16.851 0.268218 -1.88097 0
M  V30 171 H 15.001 2.49279 -2.9798 0
M  V30 172 H 16.673 0.440517 -4.59192 0
M  V30 173 H 14.916 0.345115 -4.32425 0
M  V30 174 H 15.587 1.68729 -5.2558 0
M  V30 175 H 18.063 2.33793 -3.4421 0
M  V30 176 H 16.939 3.44136 -4.27623 0
M  V30 177 H 17.2 3.61311 -2.54768 0
M  V30 178 N 16.2591 1.48442 0.529413 0
M  V30 179 C 17.5081 1.55742 1.28169 0
M  V30 180 C 17.8211 0.236511 1.94165 0
M  V30 181 O 19.0271 0.187761 2.7085 0
M  V30 182 C 17.4831 2.74667 2.32564 0
M  V30 183 C 17.0911 4.13402 1.72636 0
M  V30 184 C 18.8351 2.9128 3.08798 0
M  V30 185 C 16.7421 5.23587 2.74975 0
M  V30 186 H 15.6721 0.579796 0.48203 0
M  V30 187 H 18.3231 1.74776 0.559056 0
M  V30 188 H 16.7051 2.49067 3.07866 0
M  V30 189 H 17.8791 4.49022 1.03519 0
M  V30 190 H 16.1941 4.0191 1.08892 0
M  V30 191 H 18.7911 3.70767 3.85274 0
M  V30 192 H 19.1341 2.00757 3.64695 0
M  V30 193 H 19.6671 3.16782 2.40611 0
M  V30 194 H 16.4061 6.16076 2.23897 0
M  V30 195 H 15.9261 4.92454 3.42417 0
M  V30 196 H 17.6051 5.51724 3.37949 0
M  V30 197 N 17.7372 -0.778329 1.37039 0
M  V30 198 C 18.9652 -1.56734 1.35063 0
M  V30 199 C 19.3802 -1.88686 -0.0655597 0
M  V30 200 O 18.7372 -1.5096 -1.02554 0
M  V30 201 C 18.7882 -2.88163 2.18276 0
M  V30 202 O 18.5092 -2.57583 3.54376 0
M  V30 203 C 20.0102 -3.82422 2.24206 0
M  V30 204 H 17.2302 -0.485778 0.462883 0
M  V30 205 H 19.7742 -0.965185 1.8029 0
M  V30 206 H 17.9292 -3.44818 1.76576 0
M  V30 207 H 18.3432 -3.41699 3.97922 0
M  V30 208 H 19.8172 -4.71667 2.86765 0
M  V30 209 H 20.2942 -4.21078 1.24861 0
M  V30 210 H 20.9002 -3.31697 2.6619 0
M  V30 211 N 19.2153 -1.21501 -1.00376 0
M  V30 212 C 20.4643 -1.02718 -1.73586 0
M  V30 213 C 20.7773 0.439589 -1.90596 0
M  V30 214 O 21.9833 0.746848 -2.61026 0
M  V30 215 C 20.4393 -1.78929 -3.1227 0
M  V30 216 C 20.0473 -3.29783 -3.03228 0
M  V30 217 C 21.7913 -1.68557 -3.89601 0
M  V30 218 C 19.6983 -3.98479 -4.36999 0
M  V30 219 H 18.6283 -0.380733 -0.650814 0
M  V30 220 H 21.2793 -1.45248 -1.1214 0
M  V30 221 H 19.6613 -1.29192 -3.74333 0
M  V30 222 H 20.8353 -3.86832 -2.50395 0
M  V30 223 H 19.1503 -3.40711 -2.39385 0
M  V30 224 H 21.7473 -2.17211 -4.88593 0
M  V30 225 H 22.0903 -0.644021 -4.11288 0
M  V30 226 H 22.6233 -2.15778 -3.34193 0
M  V30 227 H 19.3623 -5.02841 -4.20513 0
M  V30 228 H 18.8823 -3.46219 -4.89788 0
M  V30 229 H 20.5613 -4.03462 -5.05794 0
M  V30 230 N 20.6934 1.19889 -1.02296 0
M  V30 231 C 21.6234 2.25141 -0.619174 0
M  V30 232 C 22.6044 1.66051 0.368915 0
M  V30 233 O 23.7894 1.92546 0.252941 0
M  V30 234 C 20.9194 3.4728 0.0368783 0
M  V30 235 C 19.8734 4.19005 -0.872865 0
M  V30 236 C 19.1994 5.34637 -0.0822402 0
M  V30 237 C 20.4994 4.74452 -2.18387 0
M  V30 238 H 22.1934 2.59171 -1.49903 0
M  V30 239 H 19.7394 1.24579 -0.722222 0
M  V30 240 H 21.6924 4.20098 0.330958 0
M  V30 241 H 20.4164 3.12433 0.95149 0
M  V30 242 H 19.0754 3.48061 -1.15105 0
M  V30 243 H 18.7234 4.96034 0.83422 0
M  V30 244 H 18.4234 5.83557 -0.688149 0
M  V30 245 H 19.9474 6.10255 0.205238 0
M  V30 246 H 21.3614 5.39055 -1.95172 0
M  V30 247 H 19.7584 5.33834 -2.74119 0
M  V30 248 H 20.8284 3.92844 -2.84257 0
M  V30 249 N 22.1715 0.800033 1.35784 0
M  V30 250 C 23.4205 0.37387 1.98205 0
M  V30 251 C 23.7335 -1.06302 1.64193 0
M  V30 252 O 24.9395 -1.59198 2.19928 0
M  V30 253 C 23.3955 0.617532 3.54562 0
M  V30 254 C 23.0035 2.06654 3.9749 0
M  V30 255 C 24.7475 0.256401 4.23725 0
M  V30 256 C 22.6545 2.2563 5.46667 0
M  V30 257 H 21.5845 0.136055 0.741623 0
M  V30 258 H 24.2355 0.983166 1.54939 0
M  V30 259 H 22.6175 -0.0616248 3.95952 0
M  V30 260 H 23.7915 2.78296 3.67271 0
M  V30 261 H 22.1065 2.38691 3.41197 0
M  V30 262 H 24.7035 0.376318 5.33374 0
M  V30 263 H 25.0465 -0.796692 4.08606 0
M  V30 264 H 25.5795 0.889214 3.87734 0
M  V30 265 H 22.3185 3.2936 5.66747 0
M  V30 266 H 21.8385 1.58504 5.78478 0
M  V30 267 H 23.5175 2.06861 6.1304 0
M  V30 268 N 23.6496 -1.47581 0.552962 0
M  V30 269 C 24.8956 -2.02782 0.0273648 0
M  V30 270 C 25.2286 -1.42687 -1.31734 0
M  V30 271 O 24.5036 -0.580897 -1.85623 0
M  V30 272 C 24.7866 -3.60031 -0.0702371 0
M  V30 273 C 24.6396 -4.30566 1.30126 0
M  V30 274 C 25.9586 -4.33028 -0.785771 0
M  V30 275 H 23.0776 -0.736912 0.0114185 0
M  V30 276 H 25.7196 -1.76056 0.714432 0
M  V30 277 H 23.8696 -3.82932 -0.655382 0
M  V30 278 H 25.5416 -4.19018 1.92929 0
M  V30 279 H 23.7846 -3.91086 1.87709 0
M  V30 280 H 24.4556 -5.39114 1.18573 0
M  V30 281 H 26.9316 -4.15095 -0.288982 0
M  V30 282 H 25.8076 -5.42695 -0.823013 0
M  V30 283 H 26.0686 -4.01945 -1.841 0
M  V30 284 N 25.1277 -0.289203 -1.54924 0
M  V30 285 C 26.3757 0.322879 -1.99504 0
M  V30 286 C 26.6967 1.55313 -1.1791 0
M  V30 287 O 25.9667 1.94001 -0.272097 0
M  V30 288 H 24.5467 0.122291 -0.736922 0
M  V30 289 H 27.2087 -0.397802 -1.90797 0
M  V30 290 H 26.3047 0.603061 -3.06218 0
M  V30 291 N 26.6058 1.57591 -0.0167156 0
M  V30 292 C 27.8518 1.91567 0.665582 0
M  V30 293 C 28.1848 0.892298 1.72487 0
M  V30 294 O 27.4598 -0.0867127 1.94307 0
M  V30 295 C 27.7428 3.36069 1.29342 0
M  V30 296 C 27.5958 4.49135 0.244541 0
M  V30 297 C 28.9148 3.803 2.21495 0
M  V30 298 H 26.0338 0.69666 0.240488 0
M  V30 299 H 28.6758 1.89866 -0.0714356 0
M  V30 300 H 26.8258 3.3765 1.92158 0
M  V30 301 H 28.4978 4.59689 -0.385228 0
M  V30 302 H 26.7408 4.3165 -0.431379 0
M  V30 303 H 27.4118 5.47242 0.723207 0
M  V30 304 H 29.8878 3.80377 1.68678 0
M  V30 305 H 28.7638 4.82127 2.62382 0
M  V30 306 H 29.0248 3.15104 3.101 0
M  V30 307 N 28.0839 -0.256276 1.55502 0
M  V30 308 C 29.3309 -0.985619 1.76895 0
M  V30 309 C 29.6589 -1.85671 0.579355 0
M  V30 310 O 28.9139 -1.90744 -0.437651 0
M  V30 311 C 29.2129 -1.88432 3.03691 0
M  V30 312 C 28.8789 -1.16936 4.35473 0
M  V30 313 C 27.5409 -0.97173 4.71286 0
M  V30 314 C 29.8929 -0.661889 5.1698 0
M  V30 315 C 27.2209 -0.254179 5.86149 0
M  V30 316 C 29.5729 0.042149 6.32586 0
M  V30 317 C 28.2369 0.25134 6.67027 0
M  V30 318 H 27.5069 -0.360663 0.647304 0
M  V30 319 H 30.1539 -0.256483 1.89775 0
M  V30 320 H 28.4589 -2.68021 2.85783 0
M  V30 321 H 30.1559 -2.45015 3.1744 0
M  V30 322 H 26.7459 -1.33332 4.07333 0
M  V30 323 H 30.9299 -0.802145 4.89775 0
M  V30 324 H 26.1859 -0.0815408 6.11346 0
M  V30 325 H 30.3599 0.443049 6.94989 0
M  V30 326 H 27.9869 0.809314 7.5588 0
M  V30 327 N 29.562 -1.4872 -0.521534 0
M  V30 328 C 30.808 -1.574 -1.27879 0
M  V30 329 C 31.141 -0.250817 -1.92573 0
M  V30 330 O 30.416 0.743934 -1.79711 0
M  V30 331 C 30.699 -2.71843 -2.36164 0
M  V30 332 C 30.552 -4.13893 -1.76105 0
M  V30 333 C 31.871 -2.82008 -3.37875 0
M  V30 334 H 28.99 -0.572941 -0.463581 0
M  V30 335 H 31.632 -1.80927 -0.580119 0
M  V30 336 H 29.782 -2.51914 -2.95756 0
M  V30 337 H 31.454 -4.45284 -1.20499 0
M  V30 338 H 29.697 -4.20498 -1.06601 0
M  V30 339 H 30.368 -4.89804 -2.5455 0
M  V30 340 H 32.844 -3.00086 -2.88249 0
M  V30 341 H 31.72 -3.63796 -4.11028 0
M  V30 342 H 31.981 -1.90511 -3.98946 0
M  V30 343 N 31.0401 0.771051 -1.3745 0
M  V30 344 C 32.2701 1.55789 -1.35696 0
M  V30 345 C 32.6781 1.89107 0.0594523 0
M  V30 346 O 32.0211 1.51984 1.03183 0
M  V30 347 C 32.0831 2.89515 -2.13123 0
M  V30 348 C 31.7471 2.78829 -3.62082 0
M  V30 349 C 32.7441 2.49812 -4.5595 0
M  V30 350 C 30.4291 2.9683 -4.05213 0
M  V30 351 C 32.4231 2.38923 -5.90927 0
M  V30 352 C 30.1101 2.85562 -5.40276 0
M  V30 353 C 31.1081 2.56649 -6.32946 0
M  V30 354 O 30.7961 2.45408 -7.65526 0
M  V30 355 H 30.5281 0.489257 -0.466481 0
M  V30 356 H 33.0821 0.963446 -1.81403 0
M  V30 357 H 31.3121 3.51081 -1.62107 0
M  V30 358 H 33.0011 3.50915 -2.03994 0
M  V30 359 H 33.7671 2.3559 -4.23937 0
M  V30 360 H 29.6461 3.18335 -3.33442 0
M  V30 361 H 33.1901 2.16277 -6.63227 0
M  V30 362 H 29.0871 2.99351 -5.71891 0
M  V30 363 H 29.8551 2.60753 -7.75855 0
M  V30 364 N 32.5182 1.22032 0.997298 0
M  V30 365 C 33.4512 0.929735 2.08401 0
M  V30 366 C 34.4292 -0.125681 1.62114 0
M  V30 367 O 35.6132 0.00495409 1.88499 0
M  V30 368 C 32.7402 0.397488 3.3636 0
M  V30 369 C 31.7862 1.4369 4.01566 0
M  V30 370 S 32.6192 3.00874 4.42984 0
M  V30 371 C 33.7752 2.49276 5.74119 0
M  V30 372 H 34.0082 1.84998 2.32729 0
M  V30 373 H 31.5412 1.0509 1.13117 0
M  V30 374 H 33.4992 0.0969846 4.10385 0
M  V30 375 H 32.1602 -0.501571 3.10069 0
M  V30 376 H 31.3532 1.01427 4.93689 0
M  V30 377 H 30.9552 1.68588 3.33847 0
M  V30 378 H 33.2472 1.90242 6.50242 0
M  V30 379 H 34.1902 3.39872 6.21203 0
M  V30 380 H 34.5982 1.90714 5.31308 0
M  V30 381 N 33.9963 -1.19345 1.0293 0
M  V30 382 C 35.2453 -1.88363 0.721256 0
M  V30 383 C 35.5583 -1.80514 -0.753254 0
M  V30 384 O 36.7643 -2.44788 -1.17436 0
M  V30 385 C 35.2203 -3.37872 1.23978 0
M  V30 386 C 34.8283 -3.54278 2.74211 0
M  V30 387 C 36.5723 -4.12365 1.00775 0
M  V30 388 C 34.4793 -4.97682 3.19479 0
M  V30 389 H 33.4093 -0.705484 0.266098 0
M  V30 390 H 36.0603 -1.34928 1.24365 0
M  V30 391 H 34.4423 -3.90707 0.6453 0
M  V30 392 H 35.6163 -3.11769 3.39318 0
M  V30 393 H 33.9313 -2.93174 2.95699 0
M  V30 394 H 36.5283 -5.18119 1.32123 0
M  V30 395 H 36.8713 -4.16263 -0.0554308 0
M  V30 396 H 37.4043 -3.65668 1.56625 0
M  V30 397 H 34.1433 -4.98945 4.25128 0
M  V30 398 H 33.6633 -5.4095 2.591 0
M  V30 399 H 35.3423 -5.66337 3.12845 0
M  V30 400 N 35.4744 -0.807222 -1.35358 0
M  V30 401 C 36.7234 -0.384376 -1.98004 0
M  V30 402 C 37.0364 1.0543 -1.64754 0
M  V30 403 O 38.2424 1.58029 -2.20769 0
M  V30 404 C 36.6984 -0.636326 -3.5423 0
M  V30 405 C 36.3064 -2.08759 -3.96388 0
M  V30 406 C 38.0504 -0.278869 -4.23583 0
M  V30 407 C 35.9574 -2.28525 -5.45463 0
M  V30 408 H 34.8874 -0.139986 -0.740891 0
M  V30 409 H 37.5384 -0.991369 -1.54415 0
M  V30 410 H 35.9204 0.0406256 -3.95979 0
M  V30 411 H 37.0944 -2.8024 -3.6579 0
M  V30 412 H 35.4094 -2.40497 -3.39926 0
M  V30 413 H 38.0064 -0.404599 -5.33167 0
M  V30 414 H 38.3494 0.775012 -4.09022 0
M  V30 415 H 38.8824 -0.909764 -3.87257 0
M  V30 416 H 35.6214 -3.32361 -5.64992 0
M  V30 417 H 35.1414 -1.61569 -5.77629 0
M  V30 418 H 36.8204 -2.10109 -6.11934 0
M  V30 419 N 36.9525 1.47285 -0.560781 0
M  V30 420 C 38.3685 1.58065 -0.22081 0
M  V30 421 C 38.5685 1.55892 1.27671 0
M  V30 422 O 37.6245 1.46422 2.0571 0
M  V30 423 C 38.9375 2.88418 -0.850625 0
M  V30 424 C 40.4855 3.02009 -0.822184 0
M  V30 425 C 40.9605 4.35066 -1.43113 0
M  V30 426 N 42.4515 4.41711 -1.39448 0
M  V30 427 C 43.1865 5.43237 -1.83525 0
M  V30 428 N 42.6825 6.51555 -2.35474 0
M  V30 429 N 44.4755 5.34304 -1.74574 0
M  V30 430 H 36.6265 1.46941 -1.53369 0
M  V30 431 H 38.8895 0.699558 -0.639783 0
M  V30 432 H 38.5955 2.95755 -1.9032 0
M  V30 433 H 38.4695 3.75612 -0.345773 0
M  V30 434 H 40.8565 2.94266 0.221714 0
M  V30 435 H 40.9375 2.16347 -1.36483 0
M  V30 436 H 40.5815 4.43565 -2.47412 0
M  V30 437 H 40.5115 5.19465 -0.863899 0
M  V30 438 H 43.0025 3.64027 -1.01452 0
M  V30 439 H 43.3155 7.25203 -2.67021 0
M  V30 440 H 41.6605 6.52435 -2.39487 0
M  V30 441 H 44.8515 4.48581 -1.33763 0
M  V30 442 H 45.0245 6.13288 -2.09242 0
M  V30 443 N 38.4306 0.297415 1.54768 0
M  V30 444 C 39.6586 -0.315623 2.04478 0
M  V30 445 C 40.0736 -1.47792 1.17486 0
M  V30 446 O 39.4306 -1.81404 0.19971 0
M  V30 447 C 39.4816 -0.7753 3.53088 0
M  V30 448 O 39.2026 0.340732 4.36773 0
M  V30 449 C 40.7036 -1.45386 4.18781 0
M  V30 450 H 37.9236 -0.0690887 0.667434 0
M  V30 451 H 40.4676 0.436003 1.99798 0
M  V30 452 H 38.6226 -1.47696 3.58141 0
M  V30 453 H 39.0366 -0.0165035 5.24497 0
M  V30 454 H 40.5106 -1.72669 5.24299 0
M  V30 455 H 40.9876 -2.39275 3.68299 0
M  V30 456 H 41.5936 -0.795475 4.17795 0
M  V30 457 N 39.9087 -1.5758 0.0250728 0
M  V30 458 C 40.8557 -2.09973 -0.958129 0
M  V30 459 C 41.8257 -1.00085 -1.3256 0
M  V30 460 O 43.0107 -1.27481 -1.41962 0
M  V30 461 C 40.1507 -2.62812 -2.2366 0
M  V30 462 C 39.2637 -3.86693 -1.92594 0
M  V30 463 C 38.3987 -4.27941 -3.14707 0
M  V30 464 C 37.4377 -5.44591 -2.79442 0
M  V30 465 N 36.5747 -5.81014 -3.94167 0
M  V30 466 H 41.4147 -2.937 -0.504428 0
M  V30 467 H 38.9517 -1.45172 -0.237392 0
M  V30 468 H 40.9097 -2.91536 -2.98434 0
M  V30 469 H 39.5397 -1.81922 -2.66654 0
M  V30 470 H 38.5917 -3.64723 -1.0808 0
M  V30 471 H 39.9037 -4.71547 -1.62619 0
M  V30 472 H 39.0577 -4.58079 -3.97804 0
M  V30 473 H 37.7967 -3.41845 -3.4784 0
M  V30 474 H 36.8017 -5.1415 -1.94755 0
M  V30 475 H 38.0267 -6.32382 -2.47528 0
M  V30 476 H 35.9727 -4.97874 -4.2715 0
M  V30 477 H 35.8897 -6.60498 -3.67801 0
M  V30 478 H 37.1577 -6.15756 -4.7798 0
M  V30 479 N 41.3868 0.248026 -1.55636 0
M  V30 480 C 42.3338 1.30707 -1.90222 0
M  V30 481 C 43.3038 1.47881 -0.756332 0
M  V30 482 O 44.4888 1.61883 -1.00988 0
M  V30 483 C 41.6288 2.65769 -2.20138 0
M  V30 484 C 40.7418 2.56612 -3.47526 0
M  V30 485 C 39.8768 3.8402 -3.67017 0
M  V30 486 C 38.9158 3.69476 -4.8801 0
M  V30 487 N 38.0528 4.88774 -5.04029 0
M  V30 488 H 42.8928 1.00512 -2.80538 0
M  V30 489 H 40.4298 0.485055 -1.38873 0
M  V30 490 H 42.3878 3.44386 -2.35487 0
M  V30 491 H 41.0178 2.94115 -1.33027 0
M  V30 492 H 40.0698 1.69571 -3.40514 0
M  V30 493 H 41.3818 2.41774 -4.36287 0
M  V30 494 H 40.5358 4.7108 -3.8232 0
M  V30 495 H 39.2748 4.01754 -2.76487 0
M  V30 496 H 38.2798 2.80799 -4.72686 0
M  V30 497 H 39.5048 3.53238 -5.8 0
M  V30 498 H 37.4508 5.0687 -4.16435 0
M  V30 499 H 37.3678 4.76562 -5.86877 0
M  V30 500 H 38.6358 5.77335 -5.23741 0
M  V30 501 N 42.8649 1.48995 0.513639 0
M  V30 502 C 43.8119 1.6473 1.61656 0
M  V30 503 C 44.7819 0.488984 1.58739 0
M  V30 504 O 45.9669 0.714478 1.76918 0
M  V30 505 C 43.1069 1.7082 2.99858 0
M  V30 506 C 42.2199 2.9787 3.12885 0
M  V30 507 C 41.3549 2.95017 4.41744 0
M  V30 508 C 40.3939 4.16702 4.48359 0
M  V30 509 N 39.5309 4.11832 5.68629 0
M  V30 510 H 44.3709 2.58909 1.47547 0
M  V30 511 H 41.9079 1.28382 0.71808 0
M  V30 512 H 43.8659 1.72331 3.79944 0
M  V30 513 H 42.4959 0.801181 3.12699 0
M  V30 514 H 41.5479 3.06029 2.25944 0
M  V30 515 H 42.8599 3.8786 3.13633 0
M  V30 516 H 42.0139 2.95021 5.30139 0
M  V30 517 H 40.7529 2.02784 4.43542 0
M  V30 518 H 39.7579 4.16955 3.58369 0
M  V30 519 H 40.9829 5.10113 4.48287 0
M  V30 520 H 38.9289 3.22428 5.71293 0
M  V30 521 H 38.8459 4.95543 5.7094 0
M  V30 522 H 40.1139 4.1592 6.59266 0
M  V30 523 N 44.343 -0.763751 1.37857 0
M  V30 524 C 45.29 -1.87726 1.34267 0
M  V30 525 C 46.26 -1.64807 0.206879 0
M  V30 526 O 47.445 -1.86613 0.397508 0
M  V30 527 C 44.585 -3.24896 1.16346 0
M  V30 528 C 43.698 -3.59716 2.39225 0
M  V30 529 C 42.833 -4.86137 2.14114 0
M  V30 530 C 41.872 -5.13711 3.32817 0
M  V30 531 N 41.009 -6.31323 3.07206 0
M  V30 532 H 45.849 -1.90129 2.29466 0
M  V30 533 H 43.386 -0.929433 1.14017 0
M  V30 534 H 45.344 -4.04036 1.03975 0
M  V30 535 H 43.974 -3.21847 0.247909 0
M  V30 536 H 43.026 -2.75498 2.62307 0
M  V30 537 H 44.338 -3.76027 3.27728 0
M  V30 538 H 43.492 -5.73198 1.9882 0
M  V30 539 H 42.231 -4.71945 1.22961 0
M  V30 540 H 41.236 -4.25123 3.48641 0
M  V30 541 H 42.461 -5.29807 4.24832 0
M  V30 542 H 40.407 -6.18474 2.1869 0
M  V30 543 H 40.324 -6.48087 3.89254 0
M  V30 544 H 41.592 -7.213 2.95546 0
M  V30 545 N 45.8211 -1.22559 -0.990812 0
M  V30 546 C 46.7511 -1.0218 -2.09956 0
M  V30 547 C 47.7321 0.0579394 -1.70001 0
M  V30 548 O 48.9171 -0.104684 -1.93918 0
M  V30 549 C 46.0471 -0.601023 -3.4206 0
M  V30 550 C 45.0011 -1.62694 -3.95872 0
M  V30 551 C 44.3271 -1.06193 -5.24049 0
M  V30 552 C 45.6271 -3.01743 -4.2632 0
M  V30 553 H 47.3211 -1.94916 -2.27262 0
M  V30 554 H 44.8671 -0.938566 -1.09211 0
M  V30 555 H 46.8201 -0.445561 -4.19038 0
M  V30 556 H 45.5441 0.362005 -3.24588 0
M  V30 557 H 44.2031 -1.77021 -3.21028 0
M  V30 558 H 43.8511 -0.0901903 -5.02919 0
M  V30 559 H 43.5511 -1.74732 -5.61019 0
M  V30 560 H 45.0751 -0.918092 -6.03658 0
M  V30 561 H 46.4891 -2.90777 -4.94087 0
M  V30 562 H 44.8861 -3.67425 -4.74467 0
M  V30 563 H 45.9561 -3.51518 -3.34011 0
M  V30 564 N 47.2992 1.18797 -1.03562 0
M  V30 565 C 48.2462 2.22253 -0.622259 0
M  V30 566 C 49.2162 1.61987 0.36736 0
M  V30 567 O 50.4012 1.88986 0.262492 0
M  V30 568 C 47.5412 3.45097 0.0138462 0
M  V30 569 C 46.6542 4.19722 -1.02263 0
M  V30 570 C 45.7892 5.30009 -0.355573 0
M  V30 571 C 44.8282 5.96399 -1.37749 0
M  V30 572 N 43.9652 6.98234 -0.735766 0
M  V30 573 H 48.8052 2.56968 -1.50903 0
M  V30 574 H 46.3422 1.26245 -0.755017 0
M  V30 575 H 48.3002 4.15279 0.399948 0
M  V30 576 H 46.9302 3.11018 0.864158 0
M  V30 577 H 45.9822 3.48418 -1.52673 0
M  V30 578 H 47.2942 4.65227 -1.79903 0
M  V30 579 H 46.4482 6.0664 0.0850095 0
M  V30 580 H 45.1872 4.85592 0.452967 0
M  V30 581 H 44.1922 5.18512 -1.82826 0
M  V30 582 H 45.4172 6.42899 -2.18764 0
M  V30 583 H 43.3632 6.55979 0.0525597 0
M  V30 584 H 43.2802 7.41965 -1.44995 0
M  V30 585 H 44.5482 7.78845 -0.31941 0
M  V30 586 N 48.7773 0.814389 1.34928 0
M  V30 587 C 49.7073 0.244827 2.32213 0
M  V30 588 C 50.6883 -0.634024 1.57842 0
M  V30 589 O 51.8733 -0.562676 1.8587 0
M  V30 590 C 49.0033 -0.601106 3.42058 0
M  V30 591 C 47.9573 0.179896 4.27622 0
M  V30 592 C 47.2833 -0.788237 5.28858 0
M  V30 593 C 48.5833 1.38329 5.03649 0
M  V30 594 H 50.2773 1.05763 2.80097 0
M  V30 595 H 47.8233 0.510029 1.34665 0
M  V30 596 H 49.7763 -1.00968 4.09125 0
M  V30 597 H 48.5003 -1.44688 2.92802 0
M  V30 598 H 47.1593 0.569739 3.62146 0
M  V30 599 H 46.8073 -1.62973 4.75866 0
M  V30 600 H 46.5073 -0.269942 5.8698 0
M  V30 601 H 48.0313 -1.19485 5.98795 0
M  V30 602 H 49.4453 1.04918 5.63618 0
M  V30 603 H 47.8423 1.83662 5.71304 0
M  V30 604 H 48.9123 2.16592 4.33839 0
M  V30 605 N 50.2554 -1.46986 0.568584 0
M  V30 606 C 51.5324 -1.95592 -0.0174074 0
M  V30 607 C 51.9124 -1.51124 -1.47393 0
M  V30 608 O 51.2604 -0.755329 -2.15655 0
M  V30 609 C 51.4704 -3.48719 0.139913 0
M  V30 610 C 52.8184 -4.246 0.000426376 0
M  V30 611 O 53.8424 -3.56135 0.0680316 0
M  V30 612 O 52.7014 -5.46302 -0.146988 0
M  V30 613 H 49.7954 -0.82498 -0.0577599 0
M  V30 614 H 52.3414 -1.57335 0.635909 0
M  V30 615 H 51.1134 -3.73927 1.15301 0
M  V30 616 H 50.7364 -3.93771 -0.550491 0
M  V30 617 N 51.7335 -0.305618 -1.54608 0
M  V30 618 C 52.6815 0.584119 -2.25146 0
M  V30 619 C 53.6755 1.13326 -1.25911 0
M  V30 620 O 54.8815 1.08337 -1.43747 0
M  V30 621 H 51.2565 0.206983 -0.722954 0
M  V30 622 H 53.2275 -0.033291 -2.98381 0
M  V30 623 C 51.9765 1.74225 -3.009 0
M  V30 624 H 51.2995 1.32892 -3.77067 0
M  V30 625 H 52.7395 2.34077 -3.53531 0
M  V30 626 C 51.1985 2.64914 -2.0814 0
M  V30 627 O 51.7285 3.66137 -1.65246 0
M  V30 628 N 49.9345 2.3275 -1.74 0
M  V30 629 H 49.4815 1.50479 -2.09078 0
M  V30 630 H 49.4395 2.93694 -1.12211 0
M  V30 631 N 53.2116 1.57565 -0.0334293 0
M  V30 632 C 54.1446 2.05997 0.981866 0
M  V30 633 C 55.1226 0.956647 1.3148 0
M  V30 634 O 56.3066 1.22729 1.43073 0
M  V30 635 C 53.4336 2.48564 2.30074 0
M  V30 636 C 52.4796 3.69958 2.12211 0
M  V30 637 S 53.3126 5.16414 1.41692 0
M  V30 638 C 54.4686 5.6228 2.7494 0
M  V30 639 H 54.7016 2.91792 0.569612 0
M  V30 640 H 52.2346 1.53366 0.178376 0
M  V30 641 H 54.1926 2.73753 3.05892 0
M  V30 642 H 52.8536 1.63106 2.68431 0
M  V30 643 H 52.0466 3.97603 3.09722 0
M  V30 644 H 51.6486 3.44943 1.44535 0
M  V30 645 H 53.9406 5.66783 3.71165 0
M  V30 646 H 54.8836 6.61759 2.51953 0
M  V30 647 H 55.2916 4.89944 2.80384 0
M  V30 648 N 54.6897 -0.239769 1.55765 0
M  V30 649 C 55.9367 -0.966801 1.7793 0
M  V30 650 C 56.2647 -1.85046 0.599015 0
M  V30 651 O 55.5197 -1.91197 -0.417395 0
M  V30 652 C 55.8187 -1.852 3.05672 0
M  V30 653 C 55.4847 -1.1231 4.36689 0
M  V30 654 C 54.1467 -0.921689 4.72291 0
M  V30 655 C 56.4987 -0.607019 5.17653 0
M  V30 656 C 53.8267 -0.191996 5.86386 0
M  V30 657 C 56.1787 0.109241 6.32506 0
M  V30 658 C 54.8427 0.322073 6.66723 0
M  V30 659 H 54.1127 -0.353778 0.651093 0
M  V30 660 H 56.7597 -0.23634 1.90036 0
M  V30 661 H 55.0647 -2.64975 2.8861 0
M  V30 662 H 56.7617 -2.41635 3.20021 0
M  V30 663 H 53.3517 -1.29004 4.08725 0
M  V30 664 H 57.5357 -0.750153 4.90598 0
M  V30 665 H 52.7917 -0.0166949 6.11398 0
M  V30 666 H 56.9657 0.516737 6.9448 0
M  V30 667 H 54.5927 0.88944 7.54979 0
M  V30 668 N 56.1678 -1.49265 -0.50573 0
M  V30 669 C 57.3978 -1.61979 -1.28243 0
M  V30 670 C 57.8058 -0.288576 -1.86986 0
M  V30 671 O 57.1488 0.735408 -1.68337 0
M  V30 672 C 57.2108 -2.62632 -2.45489 0
M  V30 673 C 56.8748 -4.071 -2.07651 0
M  V30 674 C 57.8718 -4.94049 -1.61901 0
M  V30 675 C 55.5568 -4.52801 -2.17431 0
M  V30 676 C 57.5508 -6.24736 -1.26428 0
M  V30 677 C 55.2378 -5.83503 -1.8157 0
M  V30 678 C 56.2358 -6.69294 -1.36142 0
M  V30 679 O 55.9238 -7.9756 -1.00764 0
M  V30 680 H 55.6558 -0.54834 -0.395347 0
M  V30 681 H 58.2098 -1.96002 -0.614204 0
M  V30 682 H 56.4398 -2.2378 -3.15372 0
M  V30 683 H 58.1288 -2.64925 -3.07522 0
M  V30 684 H 58.8948 -4.5997 -1.53795 0
M  V30 685 H 54.7738 -3.86196 -2.51742 0
M  V30 686 H 58.3178 -6.91652 -0.908992 0
M  V30 687 H 54.2148 -6.17112 -1.89324 0
M  V30 688 H 54.9828 -8.10529 -1.13952 0
M  V30 689 N 57.6459 0.756429 -1.3826 0
M  V30 690 C 58.8949 1.51082 -1.3363 0
M  V30 691 C 59.2079 1.95467 0.0720068 0
M  V30 692 O 60.4139 2.7043 0.240834 0
M  V30 693 C 58.8699 2.72893 -2.34644 0
M  V30 694 C 58.4779 2.35544 -3.81081 0
M  V30 695 C 60.2219 3.50791 -2.39052 0
M  V30 696 C 58.1289 3.53948 -4.73787 0
M  V30 697 H 57.0589 0.56727 -0.49671 0
M  V30 698 H 59.7099 0.827147 -1.638 0
M  V30 699 H 58.0919 3.43227 -1.97513 0
M  V30 700 H 59.2659 1.72894 -4.27135 0
M  V30 701 H 57.5809 1.70786 -3.79764 0
M  V30 702 H 60.1779 4.38823 -3.05513 0
M  V30 703 H 60.5209 3.91745 -1.40861 0
M  V30 704 H 61.0539 2.87467 -2.74968 0
M  V30 705 H 57.7929 3.18064 -5.73163 0
M  V30 706 H 57.3129 4.15651 -4.32428 0
M  V30 707 H 58.9919 4.20566 -4.91663 0
M  V30 708 N 59.124 1.23083 0.984299 0
M  V30 709 C 60.072 1.00593 2.09723 0
M  V30 710 C 61.066 -0.0538014 1.69315 0
M  V30 711 O 62.272 0.0993719 1.79725 0
M  V30 712 H 58.647 0.30817 0.685956 0
M  V30 713 H 60.618 1.95012 2.2586 0
M  V30 714 C 59.367 0.609601 3.42314 0
M  V30 715 H 58.69 1.41675 3.73856 0
M  V30 716 H 60.13 0.491726 4.21139 0
M  V30 717 C 58.589 -0.681745 3.2993 0
M  V30 718 O 59.119 -1.73192 3.62446 0
M  V30 719 N 57.325 -0.656178 2.83095 0
M  V30 720 H 56.872 0.198759 2.56832 0
M  V30 721 H 56.83 -1.52044 2.75191 0
M  V30 722 N 60.6021 -1.18246 1.0419 0
M  V30 723 C 61.8271 -1.92736 0.765996 0
M  V30 724 C 62.2521 -1.75728 -0.67091 0
M  V30 725 O 61.6101 -1.06825 -1.46486 0
M  V30 726 C 61.6581 -3.42148 1.13875 0
M  V30 727 O 60.7621 -4.11548 0.264954 0
M  V30 728 H 60.1031 -0.601238 0.281797 0
M  V30 729 H 62.6331 -1.49942 1.39207 0
M  V30 730 H 62.6431 -3.92858 1.1012 0
M  V30 731 H 61.3181 -3.53848 2.18551 0
M  V30 732 H 59.8951 -3.71137 0.362226 0
M  V30 733 N 62.0802 -0.821533 -1.34494 0
M  V30 734 C 63.0272 -0.240397 -2.29545 0
M  V30 735 C 63.9972 0.634031 -1.53523 0
M  V30 736 O 65.1822 0.575966 -1.81899 0
M  V30 737 C 62.3222 0.592869 -3.39969 0
M  V30 738 C 61.4352 -0.30365 -4.30932 0
M  V30 739 C 60.5702 0.539049 -5.28458 0
M  V30 740 C 59.6092 -0.356942 -6.11058 0
M  V30 741 N 58.7462 0.446603 -7.00678 0
M  V30 742 H 63.5862 -1.05632 -2.7865 0
M  V30 743 H 61.1232 -0.532413 -1.37127 0
M  V30 744 H 63.0812 1.09129 -4.02675 0
M  V30 745 H 61.7112 1.37392 -2.92102 0
M  V30 746 H 60.7632 -0.920276 -3.691 0
M  V30 747 H 62.0752 -0.992661 -4.88823 0
M  V30 748 H 61.2292 1.102 -5.96608 0
M  V30 749 H 59.9682 1.26157 -4.71101 0
M  V30 750 H 58.9732 -0.932047 -5.41842 0
M  V30 751 H 60.1982 -1.07755 -6.70497 0
M  V30 752 H 58.1442 1.15282 -6.45791 0
M  V30 753 H 58.0612 -0.184048 -7.55776 0
M  V30 754 H 59.3292 0.992352 -7.73158 0
M  V30 755 N 63.5583 1.46682 -0.576371 0
M  V30 756 C 64.7883 2.06498 -0.0648694 0
M  V30 757 C 65.1963 1.42665 1.24271 0
M  V30 758 O 64.5393 0.523886 1.76071 0
M  V30 759 C 64.6013 3.5904 0.181816 0
M  V30 760 C 64.2653 4.45028 -1.0392 0
M  V30 761 C 65.2623 4.81959 -1.94966 0
M  V30 762 C 62.9473 4.86259 -1.25927 0
M  V30 763 C 64.9413 5.58942 -3.06371 0
M  V30 764 C 62.6283 5.63002 -2.37638 0
M  V30 765 C 63.6263 5.99257 -3.2769 0
M  V30 766 O 63.3143 6.7445 -4.37461 0
M  V30 767 H 63.0463 0.674028 -0.0515987 0
M  V30 768 H 65.6003 1.89393 -0.794951 0
M  V30 769 H 63.8303 3.74429 0.966436 0
M  V30 770 H 65.5193 4.00806 0.641047 0
M  V30 771 H 66.2853 4.50689 -1.79177 0
M  V30 772 H 62.1643 4.57494 -0.567448 0
M  V30 773 H 65.7083 5.87158 -3.76684 0
M  V30 774 H 61.6053 5.93686 -2.53392 0
M  V30 775 H 62.3733 6.92867 -4.35749 0
M  V30 776 N 65.0364 0.313813 1.54444 0
M  V30 777 C 65.9834 -0.55655 2.23989 0
M  V30 778 C 66.9534 -1.11943 1.22711 0
M  V30 779 O 68.1384 -1.16158 1.51367 0
M  V30 780 C 65.2784 -1.71635 2.99392 0
M  V30 781 C 64.3914 -1.18364 4.15468 0
M  V30 782 C 63.5264 -2.30834 4.78424 0
M  V30 783 C 62.5654 -1.74762 5.86622 0
M  V30 784 N 61.7024 -2.80855 6.43479 0
M  V30 785 H 66.5424 0.0430893 2.97969 0
M  V30 786 H 64.0794 0.0330359 1.47063 0
M  V30 787 H 66.0374 -2.39868 3.41349 0
M  V30 788 H 64.6674 -2.28742 2.27765 0
M  V30 789 H 63.7194 -0.393163 3.78363 0
M  V30 790 H 65.0314 -0.733262 4.93381 0
M  V30 791 H 64.1854 -3.0699 5.23299 0
M  V30 792 H 62.9244 -2.79204 3.99871 0
M  V30 793 H 61.9294 -0.970995 5.41158 0
M  V30 794 H 63.1544 -1.2728 6.67066 0
M  V30 795 H 61.1004 -3.28535 5.67804 0
M  V30 796 H 61.0174 -2.40351 7.16776 0
M  V30 797 H 62.2854 -3.5687 6.93011 0
M  V30 798 N 66.5145 -1.57545 0.0417849 0
M  V30 799 C 67.7635 -1.91494 -0.633492 0
M  V30 800 C 68.0765 -0.921084 -1.72556 0
M  V30 801 O 69.2825 -1.15228 -2.45835 0
M  V30 802 C 67.7385 -3.40072 -1.17808 0
M  V30 803 C 67.3465 -4.47843 -0.118633 0
M  V30 804 C 69.0905 -3.8307 -1.82915 0
M  V30 805 C 66.9975 -5.87529 -0.675578 0
M  V30 806 H 65.9275 -0.714653 -0.24039 0
M  V30 807 H 68.5785 -1.83175 0.109148 0
M  V30 808 H 66.9605 -3.43364 -1.97274 0
M  V30 809 H 68.1345 -4.56128 0.654494 0
M  V30 810 H 66.4495 -4.14128 0.434414 0
M  V30 811 H 69.0465 -4.84794 -2.25563 0
M  V30 812 H 69.3895 -3.1881 -2.67705 0
M  V30 813 H 69.9225 -3.82255 -1.10119 0
M  V30 814 H 66.6615 -6.55362 0.134475 0
M  V30 815 H 66.1815 -5.82824 -1.4169 0
M  V30 816 H 67.8605 -6.36491 -1.1614 0
M  V30 817 N 67.9926 0.231505 -1.5589 0
M  V30 818 C 69.2696 0.981096 -1.69215 0
M  V30 819 C 69.6496 2.02799 -0.586164 0
M  V30 820 O 68.9976 2.24823 0.408253 0
M  V30 821 C 69.2076 1.60054 -3.10135 0
M  V30 822 C 70.5556 2.09658 -3.69227 0
M  V30 823 O 71.5796 1.69967 -3.13033 0
M  V30 824 O 70.4386 2.8258 -4.67772 0
M  V30 825 H 67.5326 0.457653 -0.688827 0
M  V30 826 H 70.0786 0.224073 -1.68214 0
M  V30 827 H 68.8506 0.844105 -3.82087 0
M  V30 828 H 68.4736 2.42336 -3.15212 0
M  V30 829 N 69.4707 1.49531 0.497807 0
M  V30 830 C 70.4007 1.6935 1.60757 0
M  V30 831 C 71.3817 0.542218 1.61227 0
M  V30 832 O 72.5667 0.778417 1.77917 0
M  V30 833 C 69.6967 1.76298 2.99226 0
M  V30 834 C 68.6507 2.91248 3.13622 0
M  V30 835 C 67.9767 2.83312 4.53474 0
M  V30 836 C 69.2767 4.3214 2.93346 0
M  V30 837 H 70.9707 2.62263 1.44425 0
M  V30 838 H 68.5167 1.26208 0.693367 0
M  V30 839 H 70.4697 1.88749 3.76765 0
M  V30 840 H 69.1937 0.799871 3.16654 0
M  V30 841 H 67.8527 2.78404 2.38509 0
M  V30 842 H 67.5007 1.84902 4.67782 0
M  V30 843 H 67.2007 3.60465 4.64046 0
M  V30 844 H 68.7247 2.97775 5.33069 0
M  V30 845 H 70.1387 4.45649 3.60652 0
M  V30 846 H 68.5357 5.1054 3.15387 0
M  V30 847 H 69.6057 4.46363 1.89441 0
M  V30 848 N 70.9488 -0.749086 1.3866 0
M  V30 849 C 72.2258 -1.4992 1.25632 0
M  V30 850 C 72.6058 -2.10633 -0.140317 0
M  V30 851 O 71.9538 -1.97437 -1.15025 0
M  V30 852 C 72.1638 -2.56195 2.36992 0
M  V30 853 C 73.5118 -3.22972 2.75634 0
M  V30 854 O 74.5358 -2.66502 2.36337 0
M  V30 855 O 73.3948 -4.25122 3.43415 0
M  V30 856 H 70.4888 -0.665067 0.491544 0
M  V30 857 H 73.0348 -0.784113 1.50498 0
M  V30 858 H 71.8068 -2.09612 3.30422 0
M  V30 859 H 71.4298 -3.35279 2.13714 0
M  V30 860 N 72.4269 -1.23603 -0.977757 0
M  V30 861 C 73.3739 -1.01954 -2.07061 0
M  V30 862 C 74.3439 0.0638697 -1.65977 0
M  V30 863 O 75.5289 -0.0887624 -1.90593 0
M  V30 864 C 72.6689 -0.619658 -3.39491 0
M  V30 865 C 71.7819 -1.77547 -3.93829 0
M  V30 866 C 70.9169 -1.32212 -5.14484 0
M  V30 867 C 69.9559 -2.44852 -5.60994 0
M  V30 868 N 69.0929 -2.00456 -6.72876 0
M  V30 869 H 73.9329 -1.95495 -2.24913 0
M  V30 870 H 71.4699 -0.973861 -1.10247 0
M  V30 871 H 73.4279 -0.368898 -4.15566 0
M  V30 872 H 72.0579 0.278752 -3.21594 0
M  V30 873 H 71.1099 -2.14016 -3.14486 0
M  V30 874 H 72.4219 -2.62219 -4.24314 0
M  V30 875 H 71.5759 -1.02965 -5.97899 0
M  V30 876 H 70.3149 -0.445808 -4.85658 0
M  V30 877 H 69.3199 -2.74871 -4.76157 0
M  V30 878 H 70.5449 -3.33024 -5.91837 0
M  V30 879 H 68.4909 -1.15208 -6.45804 0
M  V30 880 H 68.4079 -2.78687 -7.02759 0
M  V30 881 H 69.6759 -1.7432 -7.59758 0
M  V30 882 N 73.905 1.17692 -1.04816 0
M  V30 883 C 75.154 1.87192 -0.751132 0
M  V30 884 C 75.467 1.8169 0.724441 0
M  V30 885 O 76.673 2.46625 1.13527 0
M  V30 886 C 75.129 3.35857 -1.29338 0
M  V30 887 C 74.737 3.4987 -2.79812 0
M  V30 888 C 76.481 4.10709 -1.07322 0
M  V30 889 C 74.388 4.92536 -3.27356 0
M  V30 890 H 73.318 0.701162 -0.277288 0
M  V30 891 H 75.969 1.32932 -1.26496 0
M  V30 892 H 74.351 3.89631 -0.707376 0
M  V30 893 H 75.525 3.06332 -3.44235 0
M  V30 894 H 73.84 2.88433 -3.00325 0
M  V30 895 H 76.437 5.15952 -1.4035 0
M  V30 896 H 76.78 4.16299 -0.0108001 0
M  V30 897 H 77.313 3.6313 -1.62423 0
M  V30 898 H 74.052 4.92119 -4.33012 0
M  V30 899 H 73.572 5.3676 -2.67673 0
M  V30 900 H 75.251 5.61288 -3.21815 0
M  V30 901 N 75.3831 0.828654 1.34056 0
M  V30 902 C 76.3161 0.199763 2.27324 0
M  V30 903 C 77.2941 -0.647168 1.49166 0
M  V30 904 O 78.4781 -0.609661 1.78369 0
M  V30 905 C 75.6051 -0.720455 3.30949 0
M  V30 906 C 74.6511 0.0496888 4.26471 0
M  V30 907 S 75.4841 1.40072 5.16856 0
M  V30 908 C 76.6401 0.485527 6.24014 0
M  V30 909 H 76.8731 0.990478 2.80316 0
M  V30 910 H 74.4061 0.624857 1.41191 0
M  V30 911 H 76.3641 -1.24581 3.91139 0
M  V30 912 H 75.0251 -1.48474 2.76793 0
M  V30 913 H 74.2181 -0.650104 4.9979 0
M  V30 914 H 73.8201 0.505779 3.70564 0
M  V30 915 H 76.1121 -0.320672 6.76741 0
M  V30 916 H 77.0551 1.18856 6.98054 0
M  V30 917 H 77.4631 0.0714109 5.64455 0
M  V30 918 N 76.8612 -1.46375 0.584142 0
M  V30 919 C 78.0892 -2.06761 0.0759296 0
M  V30 920 C 78.5042 -1.43266 -1.22965 0
M  V30 921 O 77.8612 -0.538458 -1.74376 0
M  V30 922 C 77.9122 -3.61375 -0.0950384 0
M  V30 923 O 77.6332 -4.22495 1.15887 0
M  V30 924 C 79.1342 -4.38693 -0.637434 0
M  V30 925 H 76.3542 -0.668479 0.0581075 0
M  V30 926 H 78.8982 -1.8798 0.805218 0
M  V30 927 H 77.0532 -3.79578 -0.774554 0
M  V30 928 H 77.4672 -5.15385 0.973598 0
M  V30 929 H 78.9412 -5.47464 -0.706237 0
M  V30 930 H 79.4182 -4.06836 -1.65472 0
M  V30 931 H 80.0242 -4.25299 0.00725967 0
M  V30 932 N 78.3393 -0.321999 -1.54275 0
M  V30 933 C 79.2863 0.544664 -2.24281 0
M  V30 934 C 80.2563 1.1129 -1.23303 0
M  V30 935 O 81.4413 1.15354 -1.51981 0
M  V30 936 C 78.5813 1.70045 -3.00298 0
M  V30 937 C 77.6943 1.16159 -4.1609 0
M  V30 938 C 76.8293 2.28293 -4.79641 0
M  V30 939 C 75.8683 1.71648 -5.8754 0
M  V30 940 N 75.0053 2.77438 -6.44959 0
M  V30 941 H 79.8453 -0.0588907 -2.97942 0
M  V30 942 H 77.3823 -0.0408345 -1.47043 0
M  V30 943 H 79.3403 2.38054 -3.42616 0
M  V30 944 H 77.9703 2.27531 -2.28975 0
M  V30 945 H 77.0223 0.373092 -3.78566 0
M  V30 946 H 78.3343 0.707087 -4.93763 0
M  V30 947 H 77.4883 3.0421 -5.2492 0
M  V30 948 H 76.2273 2.77079 -4.01346 0
M  V30 949 H 75.2323 0.942282 -5.41665 0
M  V30 950 H 76.4573 1.23741 -6.67731 0
M  V30 951 H 74.4033 3.25519 -5.69538 0
M  V30 952 H 74.3203 2.36547 -7.1804 0
M  V30 953 H 75.5883 3.53189 -6.94894 0
M  V30 954 N 79.8174 1.5752 -0.0501392 0
M  V30 955 C 80.7504 2.07026 0.959962 0
M  V30 956 C 81.7284 0.970539 1.30458 0
M  V30 957 O 82.9124 1.2424 1.41763 0
M  V30 958 C 80.0394 2.5099 2.27424 0
M  V30 959 C 79.0854 3.72188 2.08275 0
M  V30 960 S 79.9184 5.17888 1.36207 0
M  V30 961 C 81.0744 5.65165 2.6896 0
M  V30 962 H 81.3074 2.9238 0.538631 0
M  V30 963 H 78.8404 1.53547 0.162099 0
M  V30 964 H 80.7984 2.76982 3.02971 0
M  V30 965 H 79.4594 1.65944 2.66686 0
M  V30 966 H 78.6524 4.00866 3.05487 0
M  V30 967 H 78.2544 3.46457 1.40868 0
M  V30 968 H 80.5464 5.70687 3.65133 0
M  V30 969 H 81.4894 6.64394 2.4492 0
M  V30 970 H 81.8974 4.9289 2.75172 0
M  V30 971 N 81.2955 -0.223234 1.56011 0
M  V30 972 C 82.2425 -1.27664 1.92277 0
M  V30 973 C 83.2125 -1.46659 0.779763 0
M  V30 974 O 84.3975 -1.60256 1.03551 0
M  V30 975 C 81.5375 -2.62234 2.24338 0
M  V30 976 C 80.6505 -2.51051 3.51564 0
M  V30 977 C 79.7855 -3.78133 3.7308 0
M  V30 978 C 78.8245 -3.61665 4.93827 0
M  V30 979 N 77.9615 -4.80693 5.11741 0
M  V30 980 H 82.8015 -0.960358 2.82101 0
M  V30 981 H 80.3385 -0.462901 1.39627 0
M  V30 982 H 82.2965 -3.40596 2.40936 0
M  V30 983 H 80.9265 -2.91961 1.3769 0
M  V30 984 H 79.9785 -1.64132 3.43169 0
M  V30 985 H 81.2905 -2.34803 4.40079 0
M  V30 986 H 80.4445 -4.64938 3.89766 0
M  V30 987 H 79.1835 -3.97304 2.82844 0
M  V30 988 H 78.1885 -2.73244 4.77093 0
M  V30 989 H 79.4135 -3.43966 5.85546 0
M  V30 990 H 77.3595 -5.00181 4.24446 0
M  V30 991 H 77.2765 -4.67165 5.94384 0
M  V30 992 H 78.5445 -5.6893 5.3286 0
M  V30 993 N 82.7736 -1.49793 -0.48987 0
M  V30 994 C 83.7216 -1.67783 -1.61095 0
M  V30 995 C 84.7156 -0.543683 -1.60438 0
M  V30 996 O 85.9216 -0.723647 -1.64813 0
M  V30 997 H 82.2966 -0.529255 -0.534222 0
M  V30 998 H 84.2676 -2.61861 -1.43078 0
M  V30 999 C 83.0166 -1.77191 -2.99164 0
M  V30 1000 H 82.3396 -2.63841 -3.0038 0
M  V30 1001 H 83.7796 -1.93809 -3.77113 0
M  V30 1002 C 82.2386 -0.519203 -3.32875 0
M  V30 1003 O 82.7686 0.350124 -4.00171 0
M  V30 1004 N 80.9746 -0.378816 -2.8812 0
M  V30 1005 H 80.5216 -1.08725 -2.33531 0
M  V30 1006 H 80.4796 0.458239 -3.11043 0
M  V30 1007 N 84.2517 0.741722 -1.39055 0
M  V30 1008 C 85.1987 1.85566 -1.37237 0
M  V30 1009 C 86.1687 1.64457 -0.233072 0
M  V30 1010 O 87.3537 1.85957 -0.427147 0
M  V30 1011 C 84.4937 3.23004 -1.215 0
M  V30 1012 C 83.6067 3.55864 -2.44918 0
M  V30 1013 C 82.7417 4.82669 -2.21821 0
M  V30 1014 C 81.7807 5.08351 -3.40948 0
M  V30 1015 N 80.9177 6.26356 -3.17211 0
M  V30 1016 H 85.7577 1.86455 -2.32462 0
M  V30 1017 H 83.2947 0.911176 -1.15482 0
M  V30 1018 H 85.2527 4.02331 -1.10389 0
M  V30 1019 H 83.8827 3.21411 -0.29908 0
M  V30 1020 H 82.9347 2.7129 -2.66657 0
M  V30 1021 H 84.2467 3.70765 -3.33668 0
M  V30 1022 H 83.4007 5.69962 -2.07914 0
M  V30 1023 H 82.1397 4.69929 -1.30454 0
M  V30 1024 H 81.1447 4.19522 -3.55361 0
M  V30 1025 H 82.3697 5.22981 -4.33207 0
M  V30 1026 H 80.3157 6.14917 -2.28502 0
M  V30 1027 H 80.2327 6.41813 -3.99515 0
M  V30 1028 H 81.5007 7.16506 -3.06984 0
M  V30 1029 N 85.7298 1.2412 0.971189 0
M  V30 1030 C 86.9548 1.10667 1.75407 0
M  V30 1031 C 87.3798 -0.337048 1.85056 0
M  V30 1032 O 86.7378 -1.24396 1.31892 0
M  V30 1033 C 86.7858 1.74726 3.15441 0
M  V30 1034 O 85.8898 1.01566 3.99697 0
M  V30 1035 H 85.2308 0.387341 0.539317 0
M  V30 1036 H 87.7608 1.64358 1.2185 0
M  V30 1037 H 87.7708 1.80341 3.6598 0
M  V30 1038 H 86.4458 2.79773 3.07734 0
M  V30 1039 H 85.0228 1.03713 3.58187 0
M  V30 1040 N 87.2079 -1.17134 1.05439 0
M  V30 1041 C 88.4539 -1.87733 0.767077 0
M  V30 1042 C 88.7869 -1.8098 -0.704253 0
M  V30 1043 O 88.0619 -1.21951 -1.5152 0
M  V30 1044 C 88.3449 -3.37659 1.25133 0
M  V30 1045 C 88.1979 -3.53149 2.78578 0
M  V30 1046 C 89.5169 -4.31768 0.852324 0
M  V30 1047 H 86.6359 -0.681687 0.280129 0
M  V30 1048 H 89.2779 -1.37732 1.30881 0
M  V30 1049 H 87.4279 -3.80373 0.790469 0
M  V30 1050 H 89.0999 -3.19434 3.32806 0
M  V30 1051 H 87.3429 -2.95345 3.17732 0
M  V30 1052 H 88.0139 -4.58403 3.07523 0
M  V30 1053 H 90.4899 -3.96909 1.24911 0
M  V30 1054 H 89.3659 -5.35199 1.21873 0
M  V30 1055 H 89.6269 -4.41429 -0.243485 0
M  V30 1056 N 88.686 -0.835752 -1.33615 0
M  V30 1057 C 89.935 -0.426289 -1.97144 0
M  V30 1058 C 90.248 1.01912 -1.66953 0
M  V30 1059 O 91.454 1.53311 -2.24072 0
M  V30 1060 C 89.91 -0.711321 -3.52801 0
M  V30 1061 C 89.518 -2.1712 -3.91871 0
M  V30 1062 C 91.262 -0.368654 -4.22896 0
M  V30 1063 C 89.169 -2.40044 -5.40493 0
M  V30 1064 H 88.099 -0.15567 -0.737755 0
M  V30 1065 H 90.75 -1.0239 -1.52278 0
M  V30 1066 H 89.132 -0.0433766 -3.95976 0
M  V30 1067 H 90.306 -2.87936 -3.59763 0
M  V30 1068 H 88.621 -2.47654 -3.34749 0
M  V30 1069 H 91.218 -0.517601 -5.32189 0
M  V30 1070 H 91.561 0.688078 -4.10574 0
M  V30 1071 H 92.094 -0.991702 -3.8524 0
M  V30 1072 H 88.833 -3.44271 -5.57815 0
M  V30 1073 H 88.353 -1.73785 -5.74072 0
M  V30 1074 H 90.032 -2.23042 -6.0734 0
M  V30 1075 N 90.1641 1.46063 -0.591896 0
M  V30 1076 C 91.1121 2.32124 0.148739 0
M  V30 1077 C 92.1061 1.45035 0.875286 0
M  V30 1078 O 93.3121 1.61609 0.792632 0
M  V30 1079 H 89.6871 0.749024 0.066832 0
M  V30 1080 H 91.6581 2.92392 -0.595783 0
M  V30 1081 C 90.4071 3.28373 1.1431 0
M  V30 1082 H 89.7301 3.95371 0.59346 0
M  V30 1083 H 91.1701 3.91352 1.63155 0
M  V30 1084 C 89.6291 2.54393 2.20875 0
M  V30 1085 O 90.1591 2.31373 3.28374 0
M  V30 1086 N 88.3651 2.14797 1.95731 0
M  V30 1087 H 87.9121 2.33719 1.08319 0
M  V30 1088 H 87.8701 1.65619 2.67241 0
M  V30 1089 N 91.6422 0.330177 1.54103 0
M  V30 1090 C 92.8912 -0.271336 1.99867 0
M  V30 1091 C 93.2042 -1.52723 1.22209 0
M  V30 1092 O 94.4102 -2.20515 1.58383 0
M  V30 1093 C 92.8662 -0.534032 3.55916 0
M  V30 1094 C 92.4742 0.705193 4.42415 0
M  V30 1095 C 94.2182 -1.09514 4.1013 0
M  V30 1096 C 92.1252 0.414035 5.89949 0
M  V30 1097 H 91.0552 -0.105166 0.74663 0
M  V30 1098 H 93.7062 0.443429 1.78062 0
M  V30 1099 H 92.0882 -1.30915 3.73734 0
M  V30 1100 H 93.2622 1.4804 4.36372 0
M  V30 1101 H 91.5772 1.18698 3.99124 0
M  V30 1102 H 94.1742 -1.3277 5.17954 0
M  V30 1103 H 94.5172 -2.04656 3.62521 0
M  V30 1104 H 95.0502 -0.381038 3.95971 0
M  V30 1105 H 91.7892 1.33481 6.41766 0
M  V30 1106 H 91.3092 -0.323336 5.98928 0
M  V30 1107 H 92.9882 0.0263105 6.46995 0
M  V30 1108 N 93.1203 -1.57491 0.0584922 0
M  V30 1109 C 94.3973 -1.84346 -0.653918 0
M  V30 1110 C 94.7773 -0.948355 -1.88599 0
M  V30 1111 O 94.1253 -0.0112403 -2.28497 0
M  V30 1112 C 94.3353 -3.34239 -1.00425 0
M  V30 1113 C 95.6833 -4.01431 -1.38342 0
M  V30 1114 O 96.7073 -3.38907 -1.09637 0
M  V30 1115 O 95.5663 -5.11683 -1.91943 0
M  V30 1116 H 92.6603 -0.761112 -0.323478 0
M  V30 1117 H 95.2063 -1.6947 0.0884125 0
M  V30 1118 H 93.9783 -3.91089 -0.128625 0
M  V30 1119 H 93.6013 -3.54329 -1.80378 0
M  V30 1120 N 94.5984 0.214957 -1.56127 0
M  V30 1121 C 95.8754 0.963093 -1.70247 0
M  V30 1122 C 96.2554 2.02166 -0.60764 0
M  V30 1123 O 95.6034 2.25244 0.384385 0
M  V30 1124 C 95.8134 1.56756 -3.11815 0
M  V30 1125 C 97.1614 2.0573 -3.7143 0
M  V30 1126 O 98.1854 1.66637 -3.14818 0
M  V30 1127 O 97.0444 2.77603 -4.70743 0
M  V30 1128 H 94.1384 0.450321 -0.693643 0
M  V30 1129 H 96.6844 0.206219 -1.68442 0
M  V30 1130 H 95.4564 0.803533 -3.82961 0
M  V30 1131 H 95.0794 2.3898 -3.17765 0
M  V30 1132 N 96.0765 1.50051 0.48192 0
M  V30 1133 C 97.3225 1.60736 1.2366 0
M  V30 1134 C 97.6555 0.301786 1.91841 0
M  V30 1135 O 96.9305 -0.696025 1.8162 0
M  V30 1136 C 97.2135 2.78009 2.28874 0
M  V30 1137 C 97.0665 4.18416 1.65069 0
M  V30 1138 C 98.3855 2.90867 3.30279 0
M  V30 1139 H 95.5045 0.585031 0.448228 0
M  V30 1140 H 98.1465 1.82402 0.531946 0
M  V30 1141 H 96.2965 2.59667 2.88973 0
M  V30 1142 H 97.9685 4.48322 1.0865 0
M  V30 1143 H 96.2115 4.23177 0.954148 0
M  V30 1144 H 96.8825 4.96381 2.41474 0
M  V30 1145 H 99.3585 3.07623 2.80191 0
M  V30 1146 H 98.2345 3.74566 4.01238 0
M  V30 1147 H 98.4955 2.01021 3.93755 0
M  V30 1148 N 97.5546 -0.734337 1.39446 0
M  V30 1149 C 98.8316 -1.48579 1.27215 0
M  V30 1150 C 99.2116 -2.1077 -0.117968 0
M  V30 1151 O 98.5596 -1.98646 -1.12924 0
M  V30 1152 C 98.7696 -2.53667 2.39696 0
M  V30 1153 C 100.118 -3.20031 2.79044 0
M  V30 1154 O 101.142 -2.6398 2.39151 0
M  V30 1155 O 100.001 -4.21455 3.47905 0
M  V30 1156 H 97.0946 -0.659816 0.49857 0
M  V30 1157 H 99.6406 -0.768106 1.51322 0
M  V30 1158 H 98.4126 -2.06096 3.32626 0
M  V30 1159 H 98.0356 -3.32994 2.17258 0
M  V30 1160 N 99.0327 -1.24633 -0.964593 0
M  V30 1161 C 100.31 -0.995809 -1.68354 0
M  V30 1162 C 100.69 0.480964 -2.05548 0
M  V30 1163 O 100.038 1.45599 -1.76105 0
M  V30 1164 C 100.248 -1.92177 -2.91323 0
M  V30 1165 C 101.596 -2.19446 -3.63495 0
M  V30 1166 O 102.62 -1.89855 -3.01386 0
M  V30 1167 O 101.479 -2.69714 -4.75307 0
M  V30 1168 H 98.5727 -0.376854 -0.736146 0
M  V30 1169 H 101.119 -1.35745 -1.0184 0
M  V30 1170 H 99.8907 -2.91938 -2.60553 0
M  V30 1171 H 99.5137 -1.56349 -3.65569 0
M  V30 1172 N 100.511 1.16574 -1.06058 0
M  V30 1173 C 101.421 2.2452 -0.680282 0
M  V30 1174 C 102.437 1.71348 0.302604 0
M  V30 1175 O 103.613 2.00822 0.152513 0
M  V30 1176 C 100.678 3.46629 -0.0700315 0
M  V30 1177 C 99.7388 4.14849 -1.10448 0
M  V30 1178 C 98.9718 5.31129 -0.523256 0
M  V30 1179 O 99.1948 5.66514 0.664709 0
M  V30 1180 O 98.1288 5.88526 -1.26179 0
M  V30 1181 H 101.955 2.59355 -1.58015 0
M  V30 1182 H 99.5398 1.24043 -0.832694 0
M  V30 1183 H 101.422 4.20543 0.268667 0
M  V30 1184 H 100.097 3.13573 0.803353 0
M  V30 1185 H 99.0038 3.42916 -1.49532 0
M  V30 1186 H 100.337 4.51954 -1.94931 0
M  V30 1187 N 101.989 0.842826 1.3317 0
M  V30 1188 C 102.899 0.281444 2.32906 0
M  V30 1189 C 103.915 -0.594587 1.63526 0
M  V30 1190 O 105.091 -0.49777 1.95152 0
M  V30 1191 C 102.156 -0.530929 3.42611 0
M  V30 1192 C 101.217 0.369843 4.27704 0
M  V30 1193 C 100.45 -0.403853 5.3217 0
M  V30 1194 O 100.673 -1.63513 5.46461 0
M  V30 1195 O 99.6069 0.224199 6.01482 0
M  V30 1196 H 103.433 1.10744 2.82789 0
M  V30 1197 H 101.018 0.60545 1.36582 0
M  V30 1198 H 102.9 -0.992437 4.09547 0
M  V30 1199 H 101.575 -1.33392 2.94938 0
M  V30 1200 H 100.482 0.879275 3.6362 0
M  V30 1201 H 101.815 1.13771 4.78871 0
M  V30 1202 N 103.467 -1.45747 0.599634 0
M  V30 1203 C 104.397 -2.33235 -0.111306 0
M  V30 1204 C 105.378 -1.46359 -0.866781 0
M  V30 1205 O 106.563 -1.75146 -0.838904 0
M  V30 1206 C 103.693 -3.28932 -1.11451 0
M  V30 1207 C 102.647 -4.25381 -0.472772 0
M  V30 1208 C 101.973 -5.1071 -1.58365 0
M  V30 1209 C 103.273 -5.18831 0.600948 0
M  V30 1210 H 104.967 -2.92927 0.61919 0
M  V30 1211 H 102.513 -1.40857 0.299215 0
M  V30 1212 H 104.466 -3.89002 -1.62036 0
M  V30 1213 H 103.19 -2.67381 -1.8755 0
M  V30 1214 H 101.849 -3.66598 0.0121472 0
M  V30 1215 H 101.497 -4.45533 -2.33473 0
M  V30 1216 H 101.197 -5.7604 -1.15982 0
M  V30 1217 H 102.721 -5.73647 -2.09194 0
M  V30 1218 H 104.135 -5.73019 0.179491 0
M  V30 1219 H 102.532 -5.92595 0.946076 0
M  V30 1220 H 103.602 -4.6174 1.48068 0
M  V30 1221 N 104.945 -0.338344 -1.53925 0
M  V30 1222 C 105.875 0.51328 -2.27789 0
M  V30 1223 C 106.856 1.107 -1.29149 0
M  V30 1224 O 108.041 1.12937 -1.57984 0
M  V30 1225 C 105.171 1.66697 -3.04679 0
M  V30 1226 C 104.125 1.20183 -4.1078 0
M  V30 1227 C 103.451 2.44363 -4.75595 0
M  V30 1228 C 104.751 0.30605 -5.21403 0
M  V30 1229 H 106.445 -0.102883 -2.99223 0
M  V30 1230 H 103.991 -0.0509219 -1.4391 0
M  V30 1231 H 105.944 2.26915 -3.55088 0
M  V30 1232 H 104.668 2.30995 -2.30887 0
M  V30 1233 H 103.327 0.622499 -3.61276 0
M  V30 1234 H 102.975 3.07057 -3.98403 0
M  V30 1235 H 102.675 2.13925 -5.47275 0
M  V30 1236 H 104.199 3.05317 -5.28786 0
M  V30 1237 H 105.613 0.814929 -5.67478 0
M  V30 1238 H 104.01 0.0937929 -6.00027 0
M  V30 1239 H 105.08 -0.65921 -4.80398 0
M  V30 1240 N 106.423 1.57458 -0.0668435 0
M  V30 1241 C 107.386 2.11323 0.887422 0
M  V30 1242 C 108.386 1.03618 1.22964 0
M  V30 1243 O 109.576 1.29626 1.16373 0
M  V30 1244 C 106.708 2.61048 2.19242 0
M  V30 1245 H 107.901 2.96942 0.420194 0
M  V30 1246 H 105.454 1.55239 0.181793 0
M  V30 1247 H 106.189 1.78868 2.70512 0
M  V30 1248 H 105.974 3.39769 1.95702 0
M  V30 1249 H 107.464 3.02814 2.87565 0
M  V30 1250 N 107.901 -0.206675 1.56239 0
M  V30 1251 C 109.15 -0.926964 1.79138 0
M  V30 1252 C 109.463 -1.84901 0.638043 0
M  V30 1253 O 110.669 -2.60906 0.751033 0
M  V30 1254 C 109.125 -1.6986 3.17294 0
M  V30 1255 C 108.733 -0.821956 4.40395 0
M  V30 1256 C 110.477 -2.40922 3.4951 0
M  V30 1257 C 108.384 -1.59179 5.69575 0
M  V30 1258 H 107.314 -0.349864 0.667915 0
M  V30 1259 H 109.965 -0.180487 1.8261 0
M  V30 1260 H 108.347 -2.48853 3.08039 0
M  V30 1261 H 109.521 -0.0715019 4.60745 0
M  V30 1262 H 107.836 -0.222741 4.15804 0
M  V30 1263 H 110.433 -2.99047 4.43255 0
M  V30 1264 H 110.776 -3.14542 2.72707 0
M  V30 1265 H 111.309 -1.68905 3.60161 0
M  V30 1266 H 108.048 -0.898589 6.49312 0
M  V30 1267 H 107.568 -2.31648 5.53262 0
M  V30 1268 H 109.247 -2.14862 6.10281 0
M  V30 1269 N 109.379 -1.50304 -0.473955 0
M  V30 1270 C 110.309 -1.71886 -1.58042 0
M  V30 1271 C 111.29 -0.567799 -1.60344 0
M  V30 1272 O 112.475 -0.806623 -1.76656 0
M  V30 1273 C 109.605 -1.81036 -2.96384 0
M  V30 1274 C 108.559 -2.962 -3.08949 0
M  V30 1275 C 107.885 -2.9049 -4.48909 0
M  V30 1276 C 109.185 -4.36752 -2.86434 0
M  V30 1277 H 110.879 -2.64527 -1.40234 0
M  V30 1278 H 108.425 -1.27295 -0.673201 0
M  V30 1279 H 110.378 -1.94719 -3.73714 0
M  V30 1280 H 109.102 -0.850147 -3.15341 0
M  V30 1281 H 107.761 -2.82164 -2.3405 0
M  V30 1282 H 107.409 -1.92321 -4.64781 0
M  V30 1283 H 107.109 -3.67802 -4.58253 0
M  V30 1284 H 108.633 -3.06218 -5.28264 0
M  V30 1285 H 110.047 -4.5133 -3.53517 0
M  V30 1286 H 108.444 -5.15493 -3.07225 0
M  V30 1287 H 109.514 -4.49321 -1.82316 0
M  V30 1288 N 110.857 0.726932 -1.39834 0
M  V30 1289 C 112.087 1.51393 -1.40583 0
M  V30 1290 C 112.495 1.892 -0.000740625 0
M  V30 1291 O 111.838 1.55189 0.982951 0
M  V30 1292 C 111.9 2.82588 -2.22226 0
M  V30 1293 C 111.564 2.67169 -3.70769 0
M  V30 1294 C 112.561 2.3518 -4.63666 0
M  V30 1295 C 110.246 2.83788 -4.14451 0
M  V30 1296 C 112.24 2.20002 -5.98229 0
M  V30 1297 C 109.927 2.68229 -5.49087 0
M  V30 1298 C 110.925 2.36382 -6.4079 0
M  V30 1299 O 110.613 2.2093 -7.72946 0
M  V30 1300 H 110.345 0.474168 -0.48181 0
M  V30 1301 H 112.899 0.905247 -1.84376 0
M  V30 1302 H 111.129 3.45746 -1.73195 0
M  V30 1303 H 112.818 3.44247 -2.15055 0
M  V30 1304 H 113.584 2.21984 -4.31217 0
M  V30 1305 H 109.463 3.07566 -3.43401 0
M  V30 1306 H 113.007 1.95067 -6.69772 0
M  V30 1307 H 108.904 2.81006 -5.81125 0
M  V30 1308 H 109.672 2.35937 -7.83757 0
M  V30 1309 N 112.336 1.25143 0.95797 0
M  V30 1310 C 113.564 1.12424 1.73691 0
M  V30 1311 C 113.979 -0.322304 1.86029 0
M  V30 1312 O 113.336 -1.22186 1.35561 0
M  V30 1313 C 113.387 1.76933 3.15241 0
M  V30 1314 O 113.108 3.15932 3.03511 0
M  V30 1315 C 114.609 1.6995 4.09429 0
M  V30 1316 H 111.829 0.3923 0.544373 0
M  V30 1317 H 114.373 1.6544 1.20207 0
M  V30 1318 H 112.528 1.27895 3.6568 0
M  V30 1319 H 112.942 3.47598 3.9278 0
M  V30 1320 H 114.416 2.19753 5.06372 0
M  V30 1321 H 114.893 0.662619 4.34173 0
M  V30 1322 H 115.499 2.18461 3.64904 0
M  V30 1323 N 113.814 -1.1601 1.06675 0
M  V30 1324 C 115.039 -1.91068 0.806706 0
M  V30 1325 C 115.464 -1.77112 -0.633485 0
M  V30 1326 O 114.822 -1.09908 -1.44187 0
M  V30 1327 C 114.87 -3.39655 1.21106 0
M  V30 1328 O 113.974 -4.10893 0.352189 0
M  V30 1329 H 113.315 -0.595125 0.294486 0
M  V30 1330 H 115.845 -1.46955 1.42356 0
M  V30 1331 H 115.855 -3.90434 1.18428 0
M  V30 1332 H 114.53 -3.49132 2.26008 0
M  V30 1333 H 113.107 -3.70285 0.440868 0
M  V30 1334 N 115.292 -0.849877 -1.32721 0
M  V30 1335 C 116.239 -0.289033 -2.28983 0
M  V30 1336 C 117.209 0.601324 -1.54833 0
M  V30 1337 O 118.394 0.537253 -1.8308 0
M  V30 1338 C 115.534 0.520623 -3.4115 0
M  V30 1339 C 114.647 -0.394989 -4.3019 0
M  V30 1340 C 113.782 0.426834 -5.29482 0
M  V30 1341 C 112.821 -0.486476 -6.10164 0
M  V30 1342 N 111.958 0.297879 -7.01468 0
M  V30 1343 H 116.798 -1.11519 -2.76347 0
M  V30 1344 H 114.335 -0.56138 -1.35967 0
M  V30 1345 H 116.293 1.00563 -4.04899 0
M  V30 1346 H 114.923 1.31165 -2.9495 0
M  V30 1347 H 113.975 -0.99836 -3.67065 0
M  V30 1348 H 115.287 -1.09612 -4.86607 0
M  V30 1349 H 114.441 0.975205 -5.98811 0
M  V30 1350 H 113.18 1.16136 -4.73671 0
M  V30 1351 H 112.185 -1.04677 -5.39743 0
M  V30 1352 H 113.41 -1.21953 -6.6806 0
M  V30 1353 H 111.356 1.01558 -6.48091 0
M  V30 1354 H 111.273 -0.344318 -7.55216 0
M  V30 1355 H 112.541 0.828131 -7.75089 0
M  V30 1356 N 116.77 1.45427 -0.607355 0
M  V30 1357 C 117.702 2.2871 0.149752 0
M  V30 1358 C 118.715 1.39937 0.831958 0
M  V30 1359 O 119.904 1.64313 0.697385 0
M  V30 1360 C 117.004 3.15673 1.23304 0
M  V30 1361 C 116.177 4.32722 0.637996 0
M  V30 1362 C 115.236 5.00895 1.61215 0
M  V30 1363 O 114.262 5.57697 1.13854 0
M  V30 1364 N 115.464 5.00159 2.94655 0
M  V30 1365 H 118.229 2.94328 -0.564882 0
M  V30 1366 H 115.79 1.55612 -0.446823 0
M  V30 1367 H 117.782 3.58144 1.88454 0
M  V30 1368 H 116.352 2.51965 1.8502 0
M  V30 1369 H 115.572 3.93734 -0.191572 0
M  V30 1370 H 116.86 5.08321 0.220665 0
M  V30 1371 H 116.258 4.553 3.35735 0
M  V30 1372 H 114.815 5.46495 3.55228 0
M  V30 1373 N 118.248 0.346503 1.53744 0
M  V30 1374 C 119.495 -0.249104 2.00962 0
M  V30 1375 C 119.823 -1.5032 1.23426 0
M  V30 1376 O 119.078 -1.93217 0.310761 0
M  V30 1377 C 119.377 -0.605809 3.52228 0
M  V30 1378 C 119.043 0.551747 4.47512 0
M  V30 1379 C 117.705 0.86941 4.73281 0
M  V30 1380 C 120.057 1.32818 5.03993 0
M  V30 1381 C 117.385 1.96582 5.52786 0
M  V30 1382 C 119.737 2.41486 5.84694 0
M  V30 1383 C 118.401 2.73808 6.08757 0
M  V30 1384 H 117.671 -0.0911538 0.735372 0
M  V30 1385 H 120.318 0.475027 1.85515 0
M  V30 1386 H 118.623 -1.4107 3.65522 0
M  V30 1387 H 120.32 -1.07858 3.86222 0
M  V30 1388 H 116.91 0.294102 4.2759 0
M  V30 1389 H 121.094 1.09602 4.84047 0
M  V30 1390 H 116.35 2.22045 5.69654 0
M  V30 1391 H 120.524 3.02078 6.27473 0
M  V30 1392 H 118.151 3.58892 6.7015 0
M  V30 1393 N 119.726 -1.57421 0.075193 0
M  V30 1394 C 120.636 -2.1642 -0.905511 0
M  V30 1395 C 121.652 -1.12828 -1.32461 0
M  V30 1396 O 122.828 -1.45109 -1.39661 0
M  V30 1397 C 119.893 -2.71693 -2.15369 0
M  V30 1398 C 118.954 -3.90171 -1.79068 0
M  V30 1399 C 118.187 -4.42798 -2.97936 0
M  V30 1400 O 118.41 -3.94416 -4.12058 0
M  V30 1401 O 117.344 -5.34085 -2.77555 0
M  V30 1402 H 121.17 -3.00588 -0.433626 0
M  V30 1403 H 118.755 -1.48664 -0.148067 0
M  V30 1404 H 120.637 -3.07104 -2.88557 0
M  V30 1405 H 119.312 -1.90582 -2.61649 0
M  V30 1406 H 118.219 -3.59606 -1.03122 0
M  V30 1407 H 119.552 -4.72584 -1.37569 0
M  V30 1408 N 121.204 0.198386 -1.56346 0
M  V30 1409 C 122.151 1.24589 -1.94284 0
M  V30 1410 C 123.121 1.454 -0.802997 0
M  V30 1411 O 124.306 1.58588 -1.06087 0
M  V30 1412 C 121.446 2.58631 -2.28482 0
M  V30 1413 C 120.559 2.45426 -3.55514 0
M  V30 1414 C 119.694 3.7215 -3.79049 0
M  V30 1415 C 118.733 3.53763 -4.99518 0
M  V30 1416 N 117.87 4.72491 -5.19323 0
M  V30 1417 H 122.71 0.915356 -2.83593 0
M  V30 1418 H 120.247 0.440629 -1.40346 0
M  V30 1419 H 122.205 3.3672 -2.46324 0
M  V30 1420 H 120.835 2.89734 -1.42317 0
M  V30 1421 H 119.887 1.58652 -3.45737 0
M  V30 1422 H 121.199 2.27772 -4.43758 0
M  V30 1423 H 120.353 4.58679 -3.97113 0
M  V30 1424 H 119.092 3.92754 -2.89129 0
M  V30 1425 H 118.097 2.65619 -4.8138 0
M  V30 1426 H 119.322 3.34607 -5.90944 0
M  V30 1427 H 117.268 4.93365 -4.3235 0
M  V30 1428 H 117.185 4.5765 -6.01741 0
M  V30 1429 H 118.453 5.6038 -5.41843 0
M  V30 1430 N 122.682 1.50554 0.465978 0
M  V30 1431 C 123.931 1.61038 1.21448 0
M  V30 1432 C 124.244 0.31865 1.92987 0
M  V30 1433 O 125.45 0.302469 2.6981 0
M  V30 1434 C 123.906 2.84283 2.20706 0
M  V30 1435 C 123.514 4.20352 1.54946 0
M  V30 1436 C 125.258 3.04115 2.96166 0
M  V30 1437 C 123.165 5.34778 2.5252 0
M  V30 1438 H 122.095 0.599718 0.457005 0
M  V30 1439 H 124.746 1.7699 0.484424 0
M  V30 1440 H 123.128 2.61901 2.97025 0
M  V30 1441 H 124.302 4.53008 0.843811 0
M  V30 1442 H 122.617 4.06167 0.917475 0
M  V30 1443 H 125.214 3.86774 3.69202 0
M  V30 1444 H 125.557 2.16045 3.55852 0
M  V30 1445 H 126.09 3.26702 2.26959 0
M  V30 1446 H 122.829 6.25018 1.97566 0
M  V30 1447 H 122.349 5.06534 3.21222 0
M  V30 1448 H 124.028 5.65561 3.14245 0
M  V30 1449 N 124.16 -0.719506 1.40217 0
M  V30 1450 C 125.09 -1.8465 1.42922 0
M  V30 1451 C 126.071 -1.67599 0.29062 0
M  V30 1452 O 127.256 -1.87688 0.498677 0
M  V30 1453 C 124.386 -3.22565 1.28722 0
M  V30 1454 C 123.34 -3.54281 2.40144 0
M  V30 1455 C 122.666 -4.91298 2.11023 0
M  V30 1456 C 123.966 -3.55676 3.82481 0
M  V30 1457 H 125.66 -1.82644 2.37237 0
M  V30 1458 H 123.206 -0.877305 1.1419 0
M  V30 1459 H 125.159 -4.01095 1.29232 0
M  V30 1460 H 123.883 -3.25137 0.308811 0
M  V30 1461 H 122.542 -2.78088 2.38877 0
M  V30 1462 H 122.19 -4.90468 1.11582 0
M  V30 1463 H 121.89 -5.13485 2.8567 0
M  V30 1464 H 123.414 -5.72166 2.13209 0
M  V30 1465 H 124.828 -4.24254 3.85592 0
M  V30 1466 H 123.225 -3.89388 4.56614 0
M  V30 1467 H 124.295 -2.55144 4.12346 0
M  V30 1468 N 125.638 -1.25649 -0.95132 0
M  V30 1469 C 126.585 -1.06323 -2.04851 0
M  V30 1470 C 127.555 0.0286491 -1.66075 0
M  V30 1471 O 128.74 -0.12917 -1.90362 0
M  V30 1472 C 125.88 -0.691529 -3.381 0
M  V30 1473 C 124.993 -1.85861 -3.89974 0
M  V30 1474 C 124.128 -1.43096 -5.11563 0
M  V30 1475 C 123.167 -2.56696 -5.55674 0
M  V30 1476 N 122.304 -2.14684 -6.68472 0
M  V30 1477 H 127.144 -2.00222 -2.20715 0
M  V30 1478 H 124.681 -0.997027 -1.08156 0
M  V30 1479 H 126.639 -0.456963 -4.1469 0
M  V30 1480 H 125.269 0.210474 -3.22113 0
M  V30 1481 H 124.321 -2.20639 -3.09875 0
M  V30 1482 H 125.633 -2.71161 -4.18657 0
M  V30 1483 H 124.787 -1.15624 -5.9558 0
M  V30 1484 H 123.526 -0.548722 -4.84603 0
M  V30 1485 H 122.531 -2.84909 -4.7022 0
M  V30 1486 H 123.756 -3.45503 -5.8464 0
M  V30 1487 H 121.702 -1.28881 -6.43215 0
M  V30 1488 H 121.619 -2.9353 -6.96689 0
M  V30 1489 H 122.887 -1.90397 -7.5589 0
M  V30 1490 N 127.117 1.15442 -1.07289 0
M  V30 1491 C 128.065 2.22225 -0.686952 0
M  V30 1492 C 129.059 1.66688 0.30193 0
M  V30 1493 O 130.265 1.79236 0.165712 0
M  V30 1494 H 126.64 0.723783 -0.204064 0
M  V30 1495 H 128.611 2.52056 -1.5972 0
M  V30 1496 C 127.36 3.47556 -0.100149 0
M  V30 1497 H 126.683 3.90612 -0.852211 0
M  V30 1498 H 128.123 4.23794 0.132235 0
M  V30 1499 C 126.582 3.16337 1.159 0
M  V30 1500 O 127.112 3.33074 2.24555 0
M  V30 1501 N 125.318 2.70385 1.06491 0
M  V30 1502 H 124.865 2.56966 0.180668 0
M  V30 1503 H 124.823 2.49871 1.90819 0
M  V30 1504 N 128.595 0.856903 1.32268 0
M  V30 1505 C 129.543 0.291987 2.3076 0
M  V30 1506 C 130.537 -0.585857 1.58947 0
M  V30 1507 O 131.743 -0.47341 1.73663 0
M  V30 1508 H 128.118 0.075721 0.748178 0
M  V30 1509 H 130.089 1.13687 2.75895 0
M  V30 1510 C 128.838 -0.502869 3.44044 0
M  V30 1511 H 128.161 0.163328 3.99466 0
M  V30 1512 H 129.601 -0.863691 4.1511 0
M  V30 1513 C 128.06 -1.68898 2.91505 0
M  V30 1514 O 128.59 -2.78811 2.89184 0
M  V30 1515 N 126.796 -1.51679 2.47875 0
M  V30 1516 H 126.343 -0.622666 2.49961 0
M  V30 1517 H 126.301 -2.31184 2.13076 0
M  V30 1518 N 130.073 -1.45103 0.615059 0
M  V30 1519 C 130.983 -2.34382 -0.101034 0
M  V30 1520 C 131.999 -1.51681 -0.852585 0
M  V30 1521 O 133.175 -1.8446 -0.808484 0
M  V30 1522 C 130.24 -3.29417 -1.08099 0
M  V30 1523 C 129.301 -4.28025 -0.330577 0
M  V30 1524 C 128.534 -5.1852 -1.26385 0
M  V30 1525 O 128.757 -5.12598 -2.50198 0
M  V30 1526 O 127.691 -5.97122 -0.756866 0
M  V30 1527 H 131.517 -2.97033 0.632855 0
M  V30 1528 H 129.102 -1.4461 0.375293 0
M  V30 1529 H 130.984 -3.87958 -1.6452 0
M  V30 1530 H 129.659 -2.69321 -1.79577 0
M  V30 1531 H 128.566 -3.73078 0.276283 0
M  V30 1532 H 129.899 -4.90997 0.343866 0
M  V30 1533 N 131.551 -0.354651 -1.53558 0
M  V30 1534 C 132.828 0.294281 -1.93374 0
M  V30 1535 C 133.208 1.67313 -1.28723 0
M  V30 1536 O 132.556 2.24179 -0.442247 0
M  V30 1537 C 132.766 0.355445 -3.47185 0
M  V30 1538 C 134.114 0.601007 -4.20325 0
M  V30 1539 O 135.138 0.437106 -3.53508 0
M  V30 1540 O 133.997 0.919322 -5.38712 0
M  V30 1541 H 131.091 0.174033 -0.808481 0
M  V30 1542 H 133.637 -0.406638 -1.64756 0
M  V30 1543 H 132.409 -0.611729 -3.86489 0
M  V30 1544 H 132.032 1.1027 -3.82003 0
M  V30 1545 N 133.029 1.57378 -0.0835403 0
M  V30 1546 C 134.254 1.98682 0.594987 0
M  V30 1547 C 134.679 0.961969 1.61641 0
M  V30 1548 O 134.037 -0.0709989 1.81161 0
M  V30 1549 C 134.085 3.38988 1.2296 0
M  V30 1550 O 133.189 3.39208 2.34546 0
M  V30 1551 H 132.53 0.646368 0.152002 0
M  V30 1552 H 135.06 2.03961 -0.161533 0
M  V30 1553 H 135.07 3.76431 1.57366 0
M  V30 1554 H 133.745 4.13107 0.481228 0
M  V30 1555 H 132.322 3.13548 2.01846 0
M  V30 1556 N 134.507 -0.190092 1.56449 0
M  V30 1557 C 135.454 -1.23557 1.94942 0
M  V30 1558 C 136.424 -1.44972 0.810696 0
M  V30 1559 O 137.609 -1.58023 1.06927 0
M  V30 1560 C 134.749 -2.57416 2.2985 0
M  V30 1561 C 133.862 -2.43537 3.5681 0
M  V30 1562 C 132.997 -3.70134 3.81017 0
M  V30 1563 C 132.036 -3.51109 5.01387 0
M  V30 1564 N 131.173 -4.6973 5.21822 0
M  V30 1565 H 136.013 -0.900304 2.84075 0
M  V30 1566 H 133.55 -0.43318 1.40577 0
M  V30 1567 H 135.508 -3.35409 2.48106 0
M  V30 1568 H 134.138 -2.88975 1.43852 0
M  V30 1569 H 133.19 -1.56816 3.46573 0
M  V30 1570 H 134.502 -2.25415 4.4496 0
M  V30 1571 H 133.656 -4.56566 3.9954 0
M  V30 1572 H 132.395 -3.91215 2.91207 0
M  V30 1573 H 131.4 -2.63063 4.82782 0
M  V30 1574 H 132.625 -3.31468 5.9271 0
M  V30 1575 H 130.571 -4.91065 4.34961 0
M  V30 1576 H 130.488 -4.54452 6.0416 0
M  V30 1577 H 131.756 -5.57499 5.44808 0
M  V30 1578 N 135.985 -1.50799 -0.457987 0
M  V30 1579 C 137.215 -1.65977 -1.23025 0
M  V30 1580 C 137.623 -0.347918 -1.85974 0
M  V30 1581 O 136.966 0.68148 -1.70592 0
M  V30 1582 C 137.028 -2.70309 -2.3701 0
M  V30 1583 C 136.692 -4.135 -1.94594 0
M  V30 1584 C 137.689 -4.98949 -1.46101 0
M  V30 1585 C 135.374 -4.5949 -2.02915 0
M  V30 1586 C 137.368 -6.28442 -1.06489 0
M  V30 1587 C 135.055 -5.88984 -1.62914 0
M  V30 1588 C 136.053 -6.73286 -1.1478 0
M  V30 1589 O 135.741 -8.00362 -0.75339 0
M  V30 1590 H 135.473 -0.56064 -0.377702 0
M  V30 1591 H 138.027 -1.97857 -0.551537 0
M  V30 1592 H 136.257 -2.337 -3.08093 0
M  V30 1593 H 137.946 -2.74574 -2.98938 0
M  V30 1594 H 138.712 -4.6463 -1.39084 0
M  V30 1595 H 134.591 -3.94009 -2.39328 0
M  V30 1596 H 138.135 -6.94194 -0.688488 0
M  V30 1597 H 134.032 -6.22822 -1.69595 0
M  V30 1598 H 134.8 -8.13744 -0.88108 0
M  V30 1599 N 137.463 0.71206 -1.40597 0
M  V30 1600 C 138.393 1.83889 -1.43899 0
M  V30 1601 C 139.374 1.67442 -0.299504 0
M  V30 1602 O 140.559 1.87421 -0.508624 0
M  V30 1603 C 137.689 3.21877 -1.30431 0
M  V30 1604 C 136.643 3.53002 -2.42019 0
M  V30 1605 C 135.969 4.90172 -2.13626 0
M  V30 1606 C 137.269 3.53643 -3.84362 0
M  V30 1607 H 138.963 1.81383 -2.38203 0
M  V30 1608 H 136.509 0.871237 -1.14654 0
M  V30 1609 H 138.462 4.00404 -1.31357 0
M  V30 1610 H 137.186 3.24968 -0.326049 0
M  V30 1611 H 135.845 2.76818 -2.40349 0
M  V30 1612 H 135.493 4.89869 -1.14182 0
M  V30 1613 H 135.193 5.11962 -2.88389 0
M  V30 1614 H 136.717 5.71028 -2.1624 0
M  V30 1615 H 138.131 4.22203 -3.87837 0
M  V30 1616 H 136.528 3.86961 -4.58673 0
M  V30 1617 H 137.598 2.52954 -4.13693 0
M  V30 1618 N 138.941 1.26152 0.944643 0
M  V30 1619 C 139.851 1.09176 2.07648 0
M  V30 1620 C 140.867 0.0261935 1.7398 0
M  V30 1621 O 142.043 0.229208 2.00091 0
M  V30 1622 C 139.108 0.722915 3.39079 0
M  V30 1623 C 138.169 1.86752 3.86552 0
M  V30 1624 C 137.402 1.51617 5.11711 0
M  V30 1625 O 137.625 0.416331 5.68879 0
M  V30 1626 O 136.559 2.34975 5.54139 0
M  V30 1627 H 140.385 2.0412 2.24875 0
M  V30 1628 H 137.97 1.05182 1.061 0
M  V30 1629 H 139.852 0.529787 4.18056 0
M  V30 1630 H 138.527 -0.197159 3.23099 0
M  V30 1631 H 137.434 2.11558 3.08535 0
M  V30 1632 H 138.767 2.76719 4.07047 0
M  V30 1633 N 140.419 -1.14872 1.07899 0
M  V30 1634 C 141.367 -2.21857 0.698727 0
M  V30 1635 C 142.361 -1.66845 -0.293086 0
M  V30 1636 O 143.567 -1.79321 -0.156204 0
M  V30 1637 H 139.942 -0.722691 0.207899 0
M  V30 1638 H 141.913 -2.51205 1.61054 0
M  V30 1639 C 140.662 -3.47498 0.11858 0
M  V30 1640 H 139.985 -3.90154 0.872914 0
M  V30 1641 H 141.425 -4.23858 -0.109759 0
M  V30 1642 C 139.884 -3.16947 -1.1422 0
M  V30 1643 O 140.414 -3.3426 -2.22785 0
M  V30 1644 N 138.62 -2.70946 -1.05055 0
M  V30 1645 H 138.167 -2.57058 -0.167038 0
M  V30 1646 H 138.125 -2.50879 -1.89491 0
M  V30 1647 N 141.898 -0.863906 -1.31812 0
M  V30 1648 C 142.845 -0.313303 -2.28664 0
M  V30 1649 C 143.815 0.584868 -1.55462 0
M  V30 1650 O 145 0.517805 -1.83639 0
M  V30 1651 C 142.14 0.48441 -3.41683 0
M  V30 1652 C 141.253 -0.440594 -4.29747 0
M  V30 1653 C 140.388 0.370652 -5.29905 0
M  V30 1654 C 139.427 -0.551164 -6.09613 0
M  V30 1655 N 138.564 0.223462 -7.01744 0
M  V30 1656 H 143.404 -1.14444 -2.75148 0
M  V30 1657 H 140.941 -0.575769 -1.35364 0
M  V30 1658 H 142.899 0.962627 -4.05943 0
M  V30 1659 H 141.529 1.28029 -2.96325 0
M  V30 1660 H 140.581 -1.03724 -3.65986 0
M  V30 1661 H 141.893 -1.14767 -4.85417 0
M  V30 1662 H 141.047 0.911638 -5.99812 0
M  V30 1663 H 139.786 1.11105 -4.74876 0
M  V30 1664 H 138.791 -1.10396 -5.38603 0
M  V30 1665 H 140.016 -1.29032 -6.66729 0
M  V30 1666 H 137.962 0.946787 -6.49132 0
M  V30 1667 H 137.879 -0.424399 -7.54808 0
M  V30 1668 H 139.147 0.745876 -7.75923 0
M  V30 1669 N 143.376 1.44774 -0.622745 0
M  V30 1670 C 144.622 2.0242 -0.124083 0
M  V30 1671 C 144.955 1.4881 1.24777 0
M  V30 1672 O 144.23 0.668799 1.8264 0
M  V30 1673 C 144.513 3.59957 -0.101619 0
M  V30 1674 C 144.366 4.23867 -1.50521 0
M  V30 1675 C 145.685 4.36284 0.578272 0
M  V30 1676 H 142.804 0.735528 -0.0465645 0
M  V30 1677 H 145.446 1.72447 -0.797617 0
M  V30 1678 H 143.596 3.85623 0.471934 0
M  V30 1679 H 145.268 4.09336 -2.12701 0
M  V30 1680 H 143.511 3.81684 -2.06154 0
M  V30 1681 H 144.182 5.32843 -1.4416 0
M  V30 1682 H 146.658 4.16001 0.0906057 0
M  V30 1683 H 145.534 5.46004 0.563149 0
M  V30 1684 H 145.795 4.10271 1.64713 0
M  V30 1685 N 144.854 0.36279 1.53368 0
M  V30 1686 C 146.101 -0.227776 2.01215 0
M  V30 1687 C 146.429 -1.49003 1.25014 0
M  V30 1688 O 145.684 -1.92876 0.331236 0
M  V30 1689 C 145.983 -0.568417 3.52851 0
M  V30 1690 C 145.649 0.59918 4.46901 0
M  V30 1691 C 144.311 0.919559 4.72332 0
M  V30 1692 C 146.663 1.38156 5.02556 0
M  V30 1693 C 143.991 2.02434 5.5067 0
M  V30 1694 C 146.343 2.47674 5.821 0
M  V30 1695 C 145.007 2.8025 6.05819 0
M  V30 1696 H 144.277 -0.083349 0.736297 0
M  V30 1697 H 146.924 0.494677 1.85001 0
M  V30 1698 H 145.229 -1.37185 3.66998 0
M  V30 1699 H 146.926 -1.03756 3.87344 0
M  V30 1700 H 143.516 0.339437 4.27254 0
M  V30 1701 H 147.7 1.14729 4.82857 0
M  V30 1702 H 142.956 2.28075 5.67267 0
M  V30 1703 H 147.13 3.08716 6.24234 0
M  V30 1704 H 144.757 3.65979 6.66306 0
M  V30 1705 N 146.332 -1.57332 0.0918853 0
M  V30 1706 C 147.572 -1.96117 -0.575988 0
M  V30 1707 C 147.936 -0.972499 -1.65549 0
M  V30 1708 O 149.137 -1.24872 -2.38034 0
M  V30 1709 C 147.408 -3.39407 -1.11973 0
M  V30 1710 S 148.967 -4.00185 -1.79992 0
M  V30 1711 H 145.785 -0.685682 -0.188045 0
M  V30 1712 H 148.387 -1.94755 0.170525 0
M  V30 1713 H 147.091 -4.09131 -0.322504 0
M  V30 1714 H 146.622 -3.44358 -1.90214 0
M  V30 1715 H 148.637 -3.88728 -3.08391 0
M  V30 1716 N 147.81 0.181792 -1.56548 0
M  V30 1717 C 149.035 0.920019 -1.85877 0
M  V30 1718 C 149.46 1.75494 -0.677021 0
M  V30 1719 O 148.818 1.77399 0.374056 0
M  V30 1720 C 148.866 1.78112 -3.13542 0
M  V30 1721 O 147.97 2.88152 -2.95029 0
M  V30 1722 H 147.311 0.258334 -0.611686 0
M  V30 1723 H 149.841 0.183092 -2.03779 0
M  V30 1724 H 149.851 2.18314 -3.44678 0
M  V30 1725 H 148.526 1.16777 -3.99169 0
M  V30 1726 H 147.103 2.51609 -2.75222 0
M  V30 1727 N 149.288 1.51039 0.449983 0
M  V30 1728 C 150.534 1.63322 1.20223 0
M  V30 1729 C 150.867 0.34241 1.91158 0
M  V30 1730 O 150.142 -0.657344 1.83055 0
M  V30 1731 C 150.425 2.82801 2.22925 0
M  V30 1732 C 150.278 4.21823 1.56157 0
M  V30 1733 C 151.597 2.97807 3.24035 0
M  V30 1734 H 148.716 0.594407 0.435718 0
M  V30 1735 H 151.358 1.83489 0.493136 0
M  V30 1736 H 149.508 2.65738 2.834 0
M  V30 1737 H 151.18 4.50526 0.991162 0
M  V30 1738 H 149.423 4.25105 0.864172 0
M  V30 1739 H 150.094 5.01391 2.30891 0
M  V30 1740 H 152.57 3.13497 2.73603 0
M  V30 1741 H 151.446 3.82992 3.93202 0
M  V30 1742 H 151.707 2.09328 3.89402 0
M  V30 1743 N 150.766 -0.704594 1.40972 0
M  V30 1744 C 152.013 -1.46458 1.39844 0
M  V30 1745 C 152.341 -1.94499 0.00447594 0
M  V30 1746 O 151.596 -1.69275 -0.982057 0
M  V30 1747 C 151.895 -2.698 2.34399 0
M  V30 1748 C 151.561 -2.40464 3.81429 0
M  V30 1749 C 150.223 -2.32174 4.21484 0
M  V30 1750 C 152.575 -2.16086 4.74296 0
M  V30 1751 C 149.903 -1.97589 5.52427 0
M  V30 1752 C 152.255 -1.83011 6.05549 0
M  V30 1753 C 150.919 -1.7321 6.44635 0
M  V30 1754 H 150.189 -0.535927 0.511725 0
M  V30 1755 H 152.836 -0.806124 1.73706 0
M  V30 1756 H 151.141 -3.40536 1.93759 0
M  V30 1757 H 152.838 -3.27919 2.30804 0
M  V30 1758 H 149.428 -2.47808 3.49699 0
M  V30 1759 H 153.612 -2.2144 4.4416 0
M  V30 1760 H 148.868 -1.88547 5.81601 0
M  V30 1761 H 153.042 -1.63164 6.77016 0
M  V30 1762 H 150.669 -1.46179 7.46013 0
M  V30 1763 N 152.244 -1.26651 -0.937939 0
M  V30 1764 C 153.174 -1.10993 -2.05433 0
M  V30 1765 C 154.155 -0.0142161 -1.70094 0
M  V30 1766 O 155.34 -0.186837 -1.93299 0
M  V30 1767 C 152.47 -0.745561 -3.39203 0
M  V30 1768 C 151.424 -1.79337 -3.88616 0
M  V30 1769 C 150.75 -1.28324 -5.19073 0
M  V30 1770 C 152.05 -3.19553 -4.13138 0
M  V30 1771 H 153.744 -2.0438 -2.1879 0
M  V30 1772 H 151.29 -0.984041 -1.05131 0
M  V30 1773 H 153.243 -0.622888 -4.16771 0
M  V30 1774 H 151.967 0.22401 -3.25831 0
M  V30 1775 H 150.626 -1.90477 -3.13231 0
M  V30 1776 H 150.274 -0.303414 -5.02084 0
M  V30 1777 H 149.974 -1.98369 -5.53103 0
M  V30 1778 H 151.498 -1.1733 -5.99221 0
M  V30 1779 H 152.912 -3.11471 -4.81309 0
M  V30 1780 H 151.309 -3.87218 -4.58457 0
M  V30 1781 H 152.379 -3.65368 -3.18801 0
M  V30 1782 N 153.722 1.14298 -1.08507 0
M  V30 1783 C 154.632 2.23027 -0.727753 0
M  V30 1784 C 155.648 1.71952 0.26619 0
M  V30 1785 O 156.824 2.011 0.109882 0
M  V30 1786 C 153.889 3.46403 -0.143541 0
M  V30 1787 C 152.95 4.12413 -1.19223 0
M  V30 1788 C 152.183 5.29899 -0.635798 0
M  V30 1789 O 152.406 5.67796 0.544393 0
M  V30 1790 O 151.34 5.85717 -1.38634 0
M  V30 1791 H 155.166 2.55945 -1.63481 0
M  V30 1792 H 152.751 1.22248 -0.858817 0
M  V30 1793 H 154.633 4.21018 0.179404 0
M  V30 1794 H 153.308 3.15206 0.736659 0
M  V30 1795 H 152.215 3.39667 -1.56772 0
M  V30 1796 H 153.548 4.47718 -2.04474 0
M  V30 1797 N 155.201 0.870884 1.31352 0
M  V30 1798 C 156.612 0.534714 1.78879 0
M  V30 1799 C 156.963 -0.948423 1.71754 0
M  V30 1800 O 156.088 -1.74055 1.28584 0
M  V30 1801 C 156.683 0.963839 3.24801 0
M  V30 1802 C 155.242 0.679311 3.70219 0
M  V30 1803 C 154.389 1.15465 2.52117 0
M  V30 1804 H 157.34 1.05651 1.18421 0
M  V30 1805 H 157.361 0.286892 3.79417 0
M  V30 1806 H 156.873 2.04332 3.29955 0
M  V30 1807 H 154.974 -0.388769 3.70566 0
M  V30 1808 H 155.087 1.25698 4.62317 0
M  V30 1809 H 153.451 0.574383 2.48139 0
M  V30 1810 H 154.234 2.24157 2.60016 0
M  V30 1811 N 156.679 -1.44442 0.630414 0
M  V30 1812 C 157.904 -2.06927 0.139944 0
M  V30 1813 C 158.329 -1.46795 -1.17613 0
M  V30 1814 O 157.687 -0.569144 -1.72135 0
M  V30 1815 C 157.735 -3.6058 0.0379581 0
M  V30 1816 O 156.839 -3.99937 -1.0062 0
M  V30 1817 H 156.18 -0.658608 0.0844483 0
M  V30 1818 H 158.71 -1.85327 0.866891 0
M  V30 1819 H 158.72 -4.07714 -0.152856 0
M  V30 1820 H 157.395 -4.03728 0.998809 0
M  V30 1821 H 155.972 -3.64436 -0.79001 0
M  V30 1822 N 158.157 -0.370918 -1.53173 0
M  V30 1823 C 159.385 0.217704 -2.05751 0
M  V30 1824 C 159.8 1.42018 -1.24404 0
M  V30 1825 O 159.157 1.80245 -0.286033 0
M  V30 1826 C 159.208 0.605954 -3.56385 0
M  V30 1827 O 158.929 -0.548734 -4.3465 0
M  V30 1828 C 160.43 1.2524 -4.25241 0
M  V30 1829 H 157.65 0.0371659 -0.66997 0
M  V30 1830 H 160.194 -0.530832 -1.9749 0
M  V30 1831 H 158.349 1.3044 -3.6478 0
M  V30 1832 H 158.763 -0.23376 -5.23979 0
M  V30 1833 H 160.237 1.47458 -5.3194 0
M  V30 1834 H 160.714 2.2143 -3.79296 0
M  V30 1835 H 161.32 0.595233 -4.21114 0
M  V30 1836 N 159.635 1.57281 -0.100228 0
M  V30 1837 C 161.051 1.57527 0.256416 0
M  V30 1838 C 161.251 1.11173 1.68056 0
M  V30 1839 O 160.307 0.79053 2.39806 0
M  V30 1840 C 161.62 3.00673 0.0401747 0
M  V30 1841 C 163.168 3.12815 0.107528 0
M  V30 1842 C 163.643 4.57929 -0.0807834 0
M  V30 1843 N 165.134 4.63193 -0.0261207 0
M  V30 1844 C 165.869 5.73212 -0.146999 0
M  V30 1845 N 165.365 6.92047 -0.322999 0
M  V30 1846 N 167.158 5.62031 -0.0879044 0
M  V30 1847 H 159.309 1.85718 -1.03065 0
M  V30 1848 H 161.572 0.857446 -0.404339 0
M  V30 1849 H 161.278 3.38804 -0.943649 0
M  V30 1850 H 161.152 3.69042 0.780262 0
M  V30 1851 H 163.539 2.74554 1.08186 0
M  V30 1852 H 163.62 2.47028 -0.664134 0
M  V30 1853 H 163.264 4.96886 -1.05201 0
M  V30 1854 H 163.194 5.21783 0.710635 0
M  V30 1855 H 165.685 3.77748 0.107161 0
M  V30 1856 H 165.998 7.7173 -0.406608 0
M  V30 1857 H 164.343 6.94074 -0.358733 0
M  V30 1858 H 167.534 4.68075 0.048498 0
M  V30 1859 H 167.707 6.47734 -0.185557 0
M  V30 1860 N 161.113 -0.173488 1.56642 0
M  V30 1861 C 162.341 -0.906095 1.86004 0
M  V30 1862 C 162.756 -1.75921 0.685355 0
M  V30 1863 O 162.113 -1.79198 -0.345578 0
M  V30 1864 C 162.164 -1.78462 3.14378 0
M  V30 1865 O 161.885 -0.965914 4.27319 0
M  V30 1866 C 163.386 -2.62707 3.57071 0
M  V30 1867 H 160.606 -0.263341 0.617165 0
M  V30 1868 H 163.15 -0.174236 2.03756 0
M  V30 1869 H 161.305 -2.46984 2.98459 0
M  V30 1870 H 161.719 -1.56655 5.00559 0
M  V30 1871 H 163.193 -3.19969 4.49804 0
M  V30 1872 H 163.67 -3.37472 2.81086 0
M  V30 1873 H 164.276 -1.99521 3.75595 0
M  V30 1874 N 162.591 -1.51276 -0.441967 0
M  V30 1875 C 164.007 -1.39349 -0.778083 0
M  V30 1876 C 164.207 -0.472212 -1.95889 0
M  V30 1877 O 163.263 0.0743551 -2.5239 0
M  V30 1878 C 164.576 -2.81292 -1.0628 0
M  V30 1879 C 166.124 -2.9041 -1.16751 0
M  V30 1880 C 166.599 -4.33251 -1.48519 0
M  V30 1881 N 168.09 -4.36336 -1.55453 0
M  V30 1882 C 168.825 -5.43885 -1.81596 0
M  V30 1883 N 168.321 -6.61601 -2.05562 0
M  V30 1884 N 170.114 -5.3136 -1.8334 0
M  V30 1885 H 162.265 -2.09729 0.335774 0
M  V30 1886 H 164.528 -0.943925 0.0878028 0
M  V30 1887 H 164.234 -3.50678 -0.267905 0
M  V30 1888 H 164.108 -3.20334 -1.99163 0
M  V30 1889 H 166.495 -2.21225 -1.95304 0
M  V30 1890 H 166.576 -2.54871 -0.217801 0
M  V30 1891 H 166.22 -5.02984 -0.704958 0
M  V30 1892 H 166.15 -4.66299 -2.44689 0
M  V30 1893 H 168.641 -3.51466 -1.38853 0
M  V30 1894 H 168.954 -7.39361 -2.24867 0
M  V30 1895 H 167.299 -6.64725 -2.02894 0
M  V30 1896 H 170.49 -4.38382 -1.64132 0
M  V30 1897 H 170.663 -6.15258 -2.03377 0
M  V30 1898 N 164.069 0.697108 -1.41344 0
M  V30 1899 C 165.309 1.46939 -1.42085 0
M  V30 1900 C 165.673 1.9198 -0.0280397 0
M  V30 1901 O 166.874 2.6865 0.0897504 0
M  V30 1902 C 165.145 2.64985 -2.39828 0
M  V30 1903 S 166.704 3.54147 -2.59085 0
M  V30 1904 H 163.522 0.502146 -0.503359 0
M  V30 1905 H 166.124 0.813546 -1.77769 0
M  V30 1906 H 164.828 2.30098 -3.39828 0
M  V30 1907 H 164.359 3.35464 -2.05493 0
M  V30 1908 H 166.374 4.60137 -1.85711 0
M  V30 1909 N 165.547 1.27147 0.931209 0
M  V30 1910 C 166.772 1.16191 1.71797 0
M  V30 1911 C 167.197 -0.278004 1.86034 0
M  V30 1912 O 166.555 -1.20137 1.35782 0
M  V30 1913 C 166.603 1.84673 3.09723 0
M  V30 1914 O 165.707 1.14231 3.96264 0
M  V30 1915 H 165.048 0.404303 0.526721 0
M  V30 1916 H 167.578 1.68152 1.1656 0
M  V30 1917 H 167.588 1.91893 3.60057 0
M  V30 1918 H 166.263 2.89421 2.98677 0
M  V30 1919 H 164.84 1.15056 3.54706 0
M  V30 1920 N 167.025 -1.13721 1.09112 0
M  V30 1921 C 168.272 -1.84924 0.825192 0
M  V30 1922 C 168.6 -1.83347 -0.649151 0
M  V30 1923 O 167.855 -1.26449 -1.49362 0
M  V30 1924 C 168.154 -3.32861 1.30146 0
M  V30 1925 C 167.82 -3.54621 2.78486 0
M  V30 1926 C 166.482 -3.60268 3.18999 0
M  V30 1927 C 168.834 -3.62855 3.74146 0
M  V30 1928 C 166.162 -3.71679 4.53951 0
M  V30 1929 C 168.514 -3.75793 5.08883 0
M  V30 1930 C 167.178 -3.79692 5.4899 0
M  V30 1931 H 166.448 -0.676684 0.301959 0
M  V30 1932 H 169.095 -1.3428 1.36533 0
M  V30 1933 H 167.4 -3.85835 0.681064 0
M  V30 1934 H 169.097 -3.86395 1.07236 0
M  V30 1935 H 165.687 -3.50879 2.46134 0
M  V30 1936 H 169.871 -3.57775 3.43963 0
M  V30 1937 H 165.127 -3.72963 4.84467 0
M  V30 1938 H 169.301 -3.81107 5.82864 0
M  V30 1939 H 166.928 -3.88287 6.53558 0
M  V30 1940 N 168.503 -0.877838 -1.30888 0
M  V30 1941 C 169.78 -0.413052 -1.91189 0
M  V30 1942 C 170.16 1.1056 -1.79832 0
M  V30 1943 O 169.508 1.93771 -1.21099 0
M  V30 1944 C 169.718 -0.903191 -3.3711 0
M  V30 1945 C 171.066 -0.93395 -4.14201 0
M  V30 1946 O 172.09 -0.849373 -3.45925 0
M  V30 1947 O 170.949 -1.05772 -5.36167 0
M  V30 1948 H 168.043 -0.125035 -0.817493 0
M  V30 1949 H 170.589 -0.966269 -1.39504 0
M  V30 1950 H 169.361 -1.94692 -3.39427 0
M  V30 1951 H 168.984 -0.328732 -3.96239 0
M  V30 1952 N 169.982 1.44106 -0.638065 0
M  V30 1953 C 170.945 2.29138 0.0531013 0
M  V30 1954 C 171.945 1.41409 0.765506 0
M  V30 1955 O 173.135 1.63206 0.609046 0
M  V30 1956 C 170.267 3.23144 1.08584 0
M  V30 1957 H 171.46 2.91739 -0.694883 0
M  V30 1958 H 169.013 1.51134 -0.398538 0
M  V30 1959 H 169.748 2.65408 1.86357 0
M  V30 1960 H 169.533 3.87804 0.578852 0
M  V30 1961 H 171.023 3.87004 1.56899 0
M  V30 1962 N 171.46 0.379036 1.52974 0
M  V30 1963 C 172.423 -0.448865 2.24762 0
M  V30 1964 C 173.423 -0.998689 1.26027 0
M  V30 1965 O 174.613 -0.882313 1.50203 0
M  V30 1966 C 171.745 -1.62872 2.99476 0
M  V30 1967 H 172.938 0.179491 2.99362 0
M  V30 1968 H 170.491 0.13096 1.5575 0
M  V30 1969 H 171.226 -2.29479 2.29151 0
M  V30 1970 H 171.011 -1.24128 3.71934 0
M  V30 1971 H 172.501 -2.2151 3.5401 0
M  V30 1972 N 172.938 -1.57226 0.108567 0
M  V30 1973 C 174.187 -1.94008 -0.551703 0
M  V30 1974 C 174.5 -0.993442 -1.68494 0
M  V30 1975 O 175.706 -1.25551 -2.40726 0
M  V30 1976 C 174.162 -3.44763 -1.03279 0
M  V30 1977 C 173.77 -4.47943 0.0714193 0
M  V30 1978 C 175.514 -3.90483 -1.66503 0
M  V30 1979 C 173.421 -5.89865 -0.425779 0
M  V30 1980 H 172.351 -0.724206 -0.209863 0
M  V30 1981 H 175.002 -1.82547 0.186741 0
M  V30 1982 H 173.384 -3.51422 -1.82533 0
M  V30 1983 H 174.558 -4.52942 0.847365 0
M  V30 1984 H 172.873 -4.11913 0.609669 0
M  V30 1985 H 175.47 -4.93925 -2.04798 0
M  V30 1986 H 175.813 -3.29877 -2.53942 0
M  V30 1987 H 176.346 -3.86581 -0.938074 0
M  V30 1988 H 173.085 -6.54202 0.412316 0
M  V30 1989 H 172.605 -5.88309 -1.16843 0
M  V30 1990 H 174.284 -6.40844 -0.890397 0
M  V30 1991 N 174.416 0.165178 -1.56732 0
M  V30 1992 C 175.346 1.20651 -1.99914 0
M  V30 1993 C 176.327 1.45827 -0.875705 0
M  V30 1994 O 177.512 1.57057 -1.14223 0
M  V30 1995 C 174.642 2.54401 -2.36427 0
M  V30 1996 C 173.596 2.43782 -3.51787 0
M  V30 1997 C 172.922 3.82078 -3.7406 0
M  V30 1998 C 174.222 1.93732 -4.85041 0
M  V30 1999 H 175.916 0.847534 -2.87154 0
M  V30 2000 H 173.462 0.40625 -1.38151 0
M  V30 2001 H 175.415 3.27458 -2.65234 0
M  V30 2002 H 174.139 2.92098 -1.46103 0
M  V30 2003 H 172.798 1.73178 -3.23117 0
M  V30 2004 H 172.446 4.17179 -2.81017 0
M  V30 2005 H 172.146 3.7584 -4.51684 0
M  V30 2006 H 173.67 4.56712 -4.05274 0
M  V30 2007 H 175.084 2.56569 -5.12684 0
M  V30 2008 H 173.481 1.98428 -5.66345 0
M  V30 2009 H 174.551 0.891962 -4.76626 0
M  V30 2010 N 175.894 1.51508 0.433938 0
M  V30 2011 C 176.841 1.73068 1.52696 0
M  V30 2012 C 177.811 0.572441 1.55924 0
M  V30 2013 O 178.996 0.807253 1.72882 0
M  V30 2014 C 176.136 1.86474 2.90381 0
M  V30 2015 C 175.249 3.14037 2.96656 0
M  V30 2016 C 174.384 3.18019 4.25485 0
M  V30 2017 C 173.423 4.39882 4.2564 0
M  V30 2018 N 172.56 4.41394 5.45999 0
M  V30 2019 H 177.4 2.66366 1.33615 0
M  V30 2020 H 174.937 1.32008 0.649018 0
M  V30 2021 H 176.895 1.92229 3.70275 0
M  V30 2022 H 175.525 0.965809 3.08013 0
M  V30 2023 H 174.577 3.17575 2.09404 0
M  V30 2024 H 175.889 4.0394 2.92633 0
M  V30 2025 H 175.043 3.22708 5.13755 0
M  V30 2026 H 173.782 2.2601 4.3217 0
M  V30 2027 H 172.787 4.35366 3.35763 0
M  V30 2028 H 174.012 5.33159 4.20617 0
M  V30 2029 H 171.958 3.52258 5.53399 0
M  V30 2030 H 171.875 5.25111 5.4387 0
M  V30 2031 H 173.143 4.50281 6.36292 0
M  V30 2032 N 177.372 -0.689602 1.41712 0
M  V30 2033 C 178.302 -1.81577 1.46806 0
M  V30 2034 C 179.283 -1.66945 0.326105 0
M  V30 2035 O 180.468 -1.86588 0.538377 0
M  V30 2036 C 177.598 -3.19762 1.35535 0
M  V30 2037 C 176.552 -3.49107 2.47605 0
M  V30 2038 C 175.878 -4.86711 2.21397 0
M  V30 2039 C 177.178 -3.47483 3.89939 0
M  V30 2040 H 178.872 -1.7757 2.41058 0
M  V30 2041 H 176.418 -0.852887 1.16025 0
M  V30 2042 H 178.371 -3.98263 1.3771 0
M  V30 2043 H 177.095 -3.24409 0.377708 0
M  V30 2044 H 175.754 -2.72959 2.44722 0
M  V30 2045 H 175.402 -4.8799 1.21961 0
M  V30 2046 H 175.102 -5.0731 2.96497 0
M  V30 2047 H 176.626 -5.67515 2.25297 0
M  V30 2048 H 178.04 -4.1598 3.94505 0
M  V30 2049 H 176.437 -3.79615 4.64771 0
M  V30 2050 H 177.507 -2.46341 4.17665 0
M  V30 2051 N 178.85 -1.27639 -0.924453 0
M  V30 2052 C 180.098 -1.13941 -1.66918 0
M  V30 2053 C 180.419 0.314589 -1.92446 0
M  V30 2054 O 179.689 1.21964 -1.53303 0
M  V30 2055 H 178.269 -0.418678 -0.618642 0
M  V30 2056 H 180.931 -1.60213 -1.10985 0
M  V30 2057 H 180.027 -1.67094 -2.63602 0
M  V30 2058 N 180.328 1.1314 -1.09713 0
M  V30 2059 C 181.553 1.88862 -0.857081 0
M  V30 2060 C 181.978 1.78729 0.586304 0
M  V30 2061 O 181.336 1.13692 1.41222 0
M  V30 2062 C 181.384 3.36325 -1.30069 0
M  V30 2063 O 180.488 4.09815 -0.461007 0
M  V30 2064 H 179.829 0.587108 -0.310162 0
M  V30 2065 H 182.359 1.43129 -1.46203 0
M  V30 2066 H 182.369 3.87157 -1.28738 0
M  V30 2067 H 181.044 3.43017 -2.35185 0
M  V30 2068 H 179.621 3.68986 -0.538888 0
M  V30 2069 N 181.806 0.884767 1.30421 0
M  V30 2070 C 182.753 0.349642 2.28136 0
M  V30 2071 C 183.723 -0.560061 1.56373 0
M  V30 2072 O 184.908 -0.488524 1.8444 0
M  V30 2073 C 182.048 -0.42999 3.42411 0
M  V30 2074 C 181.161 0.508907 4.28992 0
M  V30 2075 C 180.296 -0.286301 5.30428 0
M  V30 2076 C 179.335 0.648079 6.08659 0
M  V30 2077 N 178.472 -0.111792 7.02011 0
M  V30 2078 H 183.312 1.18807 2.73293 0
M  V30 2079 H 180.849 0.597231 1.3443 0
M  V30 2080 H 182.807 -0.897923 4.07423 0
M  V30 2081 H 181.437 -1.23299 2.98324 0
M  V30 2082 H 180.489 1.09533 3.64289 0
M  V30 2083 H 181.801 1.22475 4.8353 0
M  V30 2084 H 180.955 -0.816098 6.01186 0
M  V30 2085 H 179.694 -1.03536 4.76583 0
M  V30 2086 H 178.699 1.18951 5.36778 0
M  V30 2087 H 179.924 1.39623 6.64592 0
M  V30 2088 H 177.87 -0.843395 6.50556 0
M  V30 2089 H 177.787 0.544429 7.54037 0
M  V30 2090 H 179.055 -0.622339 7.77012 0
M  V30 2091 N 183.284 -1.43765 0.645699 0
M  V30 2092 C 184.53 -2.02197 0.156271 0
M  V30 2093 C 184.863 -1.50776 -1.22393 0
M  V30 2094 O 184.138 -0.697771 -1.81553 0
M  V30 2095 C 184.421 -3.59749 0.158872 0
M  V30 2096 C 184.274 -4.21419 1.57245 0
M  V30 2097 C 185.593 -4.37149 -0.50879 0
M  V30 2098 H 182.712 -0.734694 0.0582602 0
M  V30 2099 H 185.354 -1.71157 0.824951 0
M  V30 2100 H 183.504 -3.86325 -0.410525 0
M  V30 2101 H 185.176 -4.059 2.19186 0
M  V30 2102 H 183.419 -3.78356 2.122 0
M  V30 2103 H 184.09 -5.30482 1.52619 0
M  V30 2104 H 186.566 -4.16093 -0.024412 0
M  V30 2105 H 185.442 -5.4683 -0.476213 0
M  V30 2106 H 185.703 -4.12839 -1.58165 0
M  V30 2107 N 184.763 -0.387143 -1.52771 0
M  V30 2108 C 185.693 0.440551 -2.29306 0
M  V30 2109 C 186.674 1.06535 -1.32606 0
M  V30 2110 O 187.859 1.07853 -1.61497 0
M  V30 2111 C 184.989 1.56919 -3.09829 0
M  V30 2112 C 183.943 1.07054 -4.14395 0
M  V30 2113 C 183.269 2.29109 -4.83129 0
M  V30 2114 C 184.569 0.140015 -5.22112 0
M  V30 2115 H 186.263 -0.198026 -2.98744 0
M  V30 2116 H 183.809 -0.09668 -1.43675 0
M  V30 2117 H 185.762 2.15503 -3.62128 0
M  V30 2118 H 184.486 2.23532 -2.3812 0
M  V30 2119 H 183.145 0.507247 -3.63074 0
M  V30 2120 H 182.793 2.94227 -4.0797 0
M  V30 2121 H 182.493 1.96406 -5.53804 0
M  V30 2122 H 184.017 2.88339 -5.38231 0
M  V30 2123 H 185.431 0.633978 -5.69784 0
M  V30 2124 H 183.828 -0.0971485 -6.00021 0
M  V30 2125 H 184.898 -0.811711 -4.78058 0
M  V30 2126 N 186.241 1.57166 -0.116904 0
M  V30 2127 C 187.189 2.16457 0.851418 0
M  V30 2128 C 188.183 1.11323 1.27686 0
M  V30 2129 O 189.389 1.2963 1.24884 0
M  V30 2130 H 185.764 0.69271 0.292672 0
M  V30 2131 H 187.735 2.96605 0.32685 0
M  V30 2132 C 186.484 2.77689 2.09246 0
M  V30 2133 H 185.807 3.58285 1.77402 0
M  V30 2134 H 187.247 3.22716 2.7501 0
M  V30 2135 C 185.706 1.74667 2.88085 0
M  V30 2136 O 186.236 1.19877 3.83396 0
M  V30 2137 N 184.442 1.44656 2.52038 0
M  V30 2138 H 183.989 1.89402 1.74599 0
M  V30 2139 H 183.947 0.759675 3.05084 0
M  V30 2140 N 187.719 -0.156864 1.56817 0
M  V30 2141 C 188.968 -0.869504 1.81996 0
M  V30 2142 C 189.281 -1.82777 0.696545 0
M  V30 2143 O 190.487 -2.58384 0.833658 0
M  V30 2144 C 188.943 -1.59679 3.22538 0
M  V30 2145 C 188.551 -0.681431 4.42787 0
M  V30 2146 C 190.295 -2.2968 3.56997 0
M  V30 2147 C 188.202 -1.40978 5.74351 0
M  V30 2148 H 187.132 -0.328438 0.678708 0
M  V30 2149 H 189.783 -0.1223 1.83092 0
M  V30 2150 H 188.165 -2.38927 3.158 0
M  V30 2151 H 189.339 0.0751166 4.60739 0
M  V30 2152 H 187.654 -0.0903431 4.16302 0
M  V30 2153 H 190.251 -2.84794 4.52544 0
M  V30 2154 H 190.594 -3.05707 2.82576 0
M  V30 2155 H 191.127 -1.57361 3.65352 0
M  V30 2156 H 187.866 -0.691561 6.51842 0
M  V30 2157 H 187.386 -2.13929 5.60352 0
M  V30 2158 H 189.065 -1.95337 6.16808 0
M  V30 2159 N 189.197 -1.51736 -0.425897 0
M  V30 2160 C 190.425 -1.68794 -1.1965 0
M  V30 2161 C 190.84 -0.390164 -1.84725 0
M  V30 2162 O 190.197 0.632376 -1.71194 0
M  V30 2163 C 190.248 -2.81174 -2.27208 0
M  V30 2164 O 189.969 -4.05925 -1.64793 0
M  V30 2165 C 191.47 -3.09599 -3.17275 0
M  V30 2166 H 188.69 -0.566128 -0.360194 0
M  V30 2167 H 191.234 -1.98211 -0.503249 0
M  V30 2168 H 189.389 -2.54324 -2.9223 0
M  V30 2169 H 189.803 -4.68423 -2.35967 0
M  V30 2170 H 191.277 -3.91786 -3.88854 0
M  V30 2171 H 191.754 -2.22468 -3.78688 0
M  V30 2172 H 192.36 -3.38151 -2.57941 0
M  V30 2173 N 190.675 0.682077 -1.42076 0
M  V30 2174 C 191.952 1.43755 -1.32642 0
M  V30 2175 C 192.332 2.11063 0.0396611 0
M  V30 2176 O 191.68 2.02701 1.05474 0
M  V30 2177 C 191.89 2.44596 -2.48946 0
M  V30 2178 C 193.238 3.09454 -2.9073 0
M  V30 2179 O 194.262 2.54922 -2.48783 0
M  V30 2180 O 193.121 4.08253 -3.63307 0
M  V30 2181 H 190.215 0.640857 -0.522715 0
M  V30 2182 H 192.761 0.711415 -1.54068 0
M  V30 2183 H 191.533 1.93609 -3.40046 0
M  V30 2184 H 191.156 3.24701 -2.29467 0
M  V30 2185 N 192.153 1.28127 0.917671 0
M  V30 2186 C 193.086 1.06039 2.02067 0
M  V30 2187 C 194.064 -0.0223285 1.62585 0
M  V30 2188 O 195.248 0.124823 1.88086 0
M  V30 2189 C 192.375 0.610596 3.33151 0
M  V30 2190 C 191.421 1.68937 3.91615 0
M  V30 2191 S 192.254 3.28437 4.22953 0
M  V30 2192 C 193.41 2.85283 5.57103 0
M  V30 2193 H 193.643 1.99425 2.20493 0
M  V30 2194 H 191.176 1.12071 1.06205 0
M  V30 2195 H 193.134 0.357778 4.08938 0
M  V30 2196 H 191.795 -0.303364 3.12632 0
M  V30 2197 H 190.988 1.32619 4.86239 0
M  V30 2198 H 190.59 1.89478 3.2245 0
M  V30 2199 H 192.882 2.3121 6.36827 0
M  V30 2200 H 193.825 3.7869 5.98331 0
M  V30 2201 H 194.233 2.24118 5.18104 0
M  V30 2202 N 193.631 -1.12557 1.10312 0
M  V30 2203 C 194.579 -2.20325 0.745629 0
M  V30 2204 C 195.573 -1.67429 -0.25763 0
M  V30 2205 O 196.779 -1.79612 -0.118132 0
M  V30 2206 H 193.154 -0.718118 0.223182 0
M  V30 2207 H 195.125 -2.47733 1.66346 0
M  V30 2208 C 193.874 -3.47168 0.192262 0
M  V30 2209 H 193.197 -3.88215 0.955475 0
M  V30 2210 H 194.637 -4.23995 -0.0198274 0
M  V30 2211 C 193.096 -3.19298 -1.07472 0
M  V30 2212 O 193.626 -3.3891 -2.15645 0
M  V30 2213 N 191.832 -2.73113 -0.992847 0
M  V30 2214 H 191.379 -2.57354 -0.112474 0
M  V30 2215 H 191.337 -2.54842 -1.84127 0
M  V30 2216 N 195.109 -0.891671 -1.2995 0
M  V30 2217 C 196.334 -0.527932 -2.00568 0
M  V30 2218 C 196.759 0.877969 -1.66353 0
M  V30 2219 O 196.117 1.58301 -0.883762 0
M  V30 2220 C 196.165 -0.717745 -3.53385 0
M  V30 2221 O 195.269 0.233376 -4.11739 0
M  V30 2222 H 194.61 -0.20722 -0.630837 0
M  V30 2223 H 197.14 -1.20105 -1.65638 0
M  V30 2224 H 197.15 -0.619307 -4.03272 0
M  V30 2225 H 195.825 -1.74276 -3.77625 0
M  V30 2226 H 194.402 0.0880706 -3.72796 0
M  V30 2227 N 196.587 1.43421 -0.653314 0
M  V30 2228 C 197.815 2.06163 -0.174491 0
M  V30 2229 C 198.23 1.48969 1.1599 0
M  V30 2230 O 197.587 0.621042 1.71608 0
M  V30 2231 C 197.638 3.61417 -0.0774865 0
M  V30 2232 O 197.359 4.16485 -1.35912 0
M  V30 2233 C 198.86 4.41235 0.427402 0
M  V30 2234 H 196.08 0.664946 -0.0899353 0
M  V30 2235 H 198.624 1.83924 -0.893988 0
M  V30 2236 H 196.779 3.82841 0.59257 0
M  V30 2237 H 197.193 5.10153 -1.21839 0
M  V30 2238 H 198.667 5.5021 0.44423 0
M  V30 2239 H 199.144 4.14268 1.45873 0
M  V30 2240 H 199.75 4.2478 -0.210167 0
M  V30 2241 N 198.065 0.39524 1.52563 0
M  V30 2242 C 199.29 -0.187456 2.06551 0
M  V30 2243 C 199.715 -1.39249 1.26457 0
M  V30 2244 O 199.073 -1.78947 0.291151 0
M  V30 2245 C 199.121 -0.529985 3.56684 0
M  V30 2246 O 198.225 -1.62307 3.79118 0
M  V30 2247 H 197.566 -0.0202537 0.663691 0
M  V30 2248 H 200.096 0.564426 1.96661 0
M  V30 2249 H 200.106 -0.792598 4.00227 0
M  V30 2250 H 198.781 0.350987 4.14416 0
M  V30 2251 H 197.358 -1.3537 3.47461 0
M  V30 2252 N 199.544 -1.57102 0.125237 0
M  V30 2253 C 200.791 -1.95407 -0.531248 0
M  V30 2254 C 201.119 -1.0089 -1.66287 0
M  V30 2255 O 200.374 -0.0339431 -1.95671 0
M  V30 2256 C 200.673 -3.40096 -1.09862 0
M  V30 2257 C 200.339 -4.50815 -0.0876989 0
M  V30 2258 C 199.001 -4.80824 0.19026 0
M  V30 2259 C 201.353 -5.17724 0.600902 0
M  V30 2260 C 198.681 -5.75058 1.163 0
M  V30 2261 C 201.033 -6.13005 1.56231 0
M  V30 2262 C 199.697 -6.41403 1.8482 0
M  V30 2263 H 198.967 -0.715046 -0.194397 0
M  V30 2264 H 201.614 -1.90373 0.207463 0
M  V30 2265 H 199.919 -3.41855 -1.91422 0
M  V30 2266 H 201.616 -3.6705 -1.61478 0
M  V30 2267 H 198.206 -4.27444 -0.314528 0
M  V30 2268 H 202.39 -4.94691 0.399333 0
M  V30 2269 H 197.646 -5.95362 1.39117 0
M  V30 2270 H 201.82 -6.63934 2.10153 0
M  V30 2271 H 199.447 -7.14229 2.60349 0
M  V30 2272 N 201.022 0.148545 -1.56898 0
M  V30 2273 C 202.252 0.875118 -1.8715 0
M  V30 2274 C 202.66 1.75322 -0.711262 0
M  V30 2275 O 202.003 1.80745 0.328151 0
M  V30 2276 C 202.065 1.7844 -3.12089 0
M  V30 2277 C 201.729 1.08361 -4.43967 0
M  V30 2278 C 202.726 0.438247 -5.1805 0
M  V30 2279 C 200.411 1.07358 -4.90693 0
M  V30 2280 C 202.405 -0.20779 -6.37061 0
M  V30 2281 C 200.092 0.42373 -6.09629 0
M  V30 2282 C 201.09 -0.215829 -6.82659 0
M  V30 2283 O 200.778 -0.855378 -7.99336 0
M  V30 2284 H 200.51 0.258504 -0.624621 0
M  V30 2285 H 203.064 0.14652 -2.04877 0
M  V30 2286 H 201.294 2.55389 -2.90367 0
M  V30 2287 H 202.983 2.38279 -3.286 0
M  V30 2288 H 203.749 0.437817 -4.8302 0
M  V30 2289 H 199.628 1.5608 -4.33774 0
M  V30 2290 H 203.172 -0.70758 -6.94002 0
M  V30 2291 H 199.069 0.421822 -6.4412 0
M  V30 2292 H 199.837 -0.756892 -8.14993 0
M  V30 2293 N 202.5 1.5196 0.417844 0
M  V30 2294 C 203.447 1.74678 1.50852 0
M  V30 2295 C 204.417 0.588947 1.55308 0
M  V30 2296 O 205.602 0.825544 1.72016 0
M  V30 2297 C 202.742 1.89544 2.88387 0
M  V30 2298 C 201.855 3.17166 2.93309 0
M  V30 2299 C 200.99 3.22513 4.22088 0
M  V30 2300 C 200.029 4.44372 4.20951 0
M  V30 2301 N 199.166 4.47161 5.41287 0
M  V30 2302 H 204.006 2.67768 1.30783 0
M  V30 2303 H 201.543 1.32689 0.63498 0
M  V30 2304 H 203.501 1.96146 3.68216 0
M  V30 2305 H 202.131 0.998424 3.06971 0
M  V30 2306 H 201.183 3.19778 2.06024 0
M  V30 2307 H 202.495 4.07021 2.88332 0
M  V30 2308 H 201.649 3.28139 5.10303 0
M  V30 2309 H 200.388 2.30581 4.29748 0
M  V30 2310 H 199.393 4.38902 3.31127 0
M  V30 2311 H 200.618 5.3759 4.14938 0
M  V30 2312 H 198.564 3.58108 5.49632 0
M  V30 2313 H 198.481 5.3085 5.3827 0
M  V30 2314 H 199.749 4.57005 6.3148 0
M  V30 2315 N 203.978 -0.674533 1.42435 0
M  V30 2316 C 205.226 -1.43175 1.42637 0
M  V30 2317 C 205.547 -1.94951 0.0438992 0
M  V30 2318 O 204.817 -1.7308 -0.917607 0
M  V30 2319 H 203.397 -0.531307 0.525092 0
M  V30 2320 H 206.059 -0.797006 1.77859 0
M  V30 2321 H 205.155 -2.28463 2.12629 0
M  V30 2322 N 205.456 -1.28612 -0.910864 0
M  V30 2323 C 206.366 -1.14643 -2.0468 0
M  V30 2324 C 207.382 -0.0723121 -1.7385 0
M  V30 2325 O 208.558 -0.282178 -1.99413 0
M  V30 2326 C 205.623 -0.812561 -3.37044 0
M  V30 2327 C 204.684 -1.96935 -3.81465 0
M  V30 2328 C 203.917 -1.65131 -5.07511 0
M  V30 2329 O 204.14 -0.567013 -5.67575 0
M  V30 2330 O 203.074 -2.49585 -5.47714 0
M  V30 2331 H 206.9 -2.1001 -2.19384 0
M  V30 2332 H 204.485 -1.07958 -1.03274 0
M  V30 2333 H 206.367 -0.640441 -4.16505 0
M  V30 2334 H 205.042 0.111426 -3.23508 0
M  V30 2335 H 203.949 -2.19664 -3.02818 0
M  V30 2336 H 205.282 -2.87414 -3.99567 0
M  V30 2337 N 206.934 1.1197 -1.10907 0
M  V30 2338 C 208.162 1.87402 -0.876824 0
M  V30 2339 C 208.577 1.79894 0.573025 0
M  V30 2340 O 207.934 1.17629 1.39534 0
M  V30 2341 C 207.985 3.36428 -1.32282 0
M  V30 2342 O 207.706 3.43765 -2.71582 0
M  V30 2343 C 209.207 4.28783 -1.12518 0
M  V30 2344 H 206.427 0.592793 -0.314384 0
M  V30 2345 H 208.971 1.41649 -1.47499 0
M  V30 2346 H 207.126 3.79706 -0.768229 0
M  V30 2347 H 207.54 4.3652 -2.90776 0
M  V30 2348 H 209.014 5.31613 -1.48633 0
M  V30 2349 H 209.491 4.39153 -0.0642394 0
M  V30 2350 H 210.097 3.91291 -1.66648 0
M  V30 2351 N 208.412 0.89855 1.29475 0
M  V30 2352 C 209.658 0.524658 1.95896 0
M  V30 2353 C 209.991 -0.926468 1.70676 0
M  V30 2354 O 209.266 -1.65665 1.01908 0
M  V30 2355 C 209.549 0.81633 3.50725 0
M  V30 2356 C 209.402 2.31907 3.85408 0
M  V30 2357 C 210.721 0.302038 4.39062 0
M  V30 2358 H 207.84 0.19209 0.711527 0
M  V30 2359 H 210.482 1.12502 1.53112 0
M  V30 2360 H 208.632 0.305369 3.87298 0
M  V30 2361 H 210.304 2.89949 3.58786 0
M  V30 2362 H 208.547 2.78027 3.32992 0
M  V30 2363 H 209.218 2.47373 4.93468 0
M  V30 2364 H 211.694 0.739551 4.09475 0
M  V30 2365 H 210.57 0.535331 5.46283 0
M  V30 2366 H 210.831 -0.797216 4.34853 0
M  V30 2367 N 209.89 -1.43072 0.660911 0
M  V30 2368 C 210.8 -2.34585 -0.0264163 0
M  V30 2369 C 211.816 -1.54316 -0.803898 0
M  V30 2370 O 212.992 -1.86939 -0.749391 0
M  V30 2371 C 210.057 -3.32689 -0.975639 0
M  V30 2372 C 209.118 -4.2886 -0.194236 0
M  V30 2373 C 208.351 -5.22278 -1.09825 0
M  V30 2374 O 208.574 -5.20299 -2.33763 0
M  V30 2375 O 207.508 -5.99228 -0.566513 0
M  V30 2376 H 211.334 -2.94869 0.727034 0
M  V30 2377 H 208.919 -1.43342 0.42111 0
M  V30 2378 H 210.801 -3.92995 -1.52094 0
M  V30 2379 H 209.476 -2.74898 -1.70918 0
M  V30 2380 H 208.383 -3.72011 0.394835 0
M  V30 2381 H 209.716 -4.89655 0.499899 0
M  V30 2382 N 211.368 -0.403325 -1.52352 0
M  V30 2383 C 212.645 0.232611 -1.94212 0
M  V30 2384 C 213.025 1.63133 -1.33981 0
M  V30 2385 O 212.373 2.22659 -0.513344 0
M  V30 2386 C 212.583 0.244811 -3.4814 0
M  V30 2387 C 213.931 0.46698 -4.22024 0
M  V30 2388 O 214.955 0.324419 -3.5472 0
M  V30 2389 O 213.814 0.74747 -5.41364 0
M  V30 2390 H 210.908 0.148223 -0.813609 0
M  V30 2391 H 213.454 -0.458848 -1.63379 0
M  V30 2392 H 212.226 -0.734378 -3.84347 0
M  V30 2393 H 211.849 0.980611 -3.85318 0
M  V30 2394 N 212.846 1.57033 -0.133567 0
M  V30 2395 C 213.809 2.14897 0.796995 0
M  V30 2396 C 214.809 1.0874 1.18458 0
M  V30 2397 O 215.999 1.34446 1.1077 0
M  V30 2398 C 213.131 2.70112 2.07973 0
M  V30 2399 H 214.324 2.98457 0.293873 0
M  V30 2400 H 211.877 1.55871 0.115787 0
M  V30 2401 H 212.612 1.9018 2.62682 0
M  V30 2402 H 212.397 3.47764 1.81115 0
M  V30 2403 H 213.887 3.14738 2.74462 0
M  V30 2404 N 214.325 -0.140222 1.56975 0
M  V30 2405 C 215.572 -0.851687 1.83719 0
M  V30 2406 C 215.9 -1.80862 0.715485 0
M  V30 2407 O 215.155 -1.93464 -0.294956 0
M  V30 2408 C 215.454 -1.65386 3.16832 0
M  V30 2409 C 215.12 -0.843112 4.42947 0
M  V30 2410 C 213.782 -0.619464 4.77196 0
M  V30 2411 C 216.134 -0.276582 5.20466 0
M  V30 2412 C 213.462 0.181312 5.8642 0
M  V30 2413 C 215.814 0.51127 6.30531 0
M  V30 2414 C 214.478 0.745432 6.63325 0
M  V30 2415 H 213.748 -0.311654 0.672274 0
M  V30 2416 H 216.395 -0.115006 1.91154 0
M  V30 2417 H 214.7 -2.46084 3.04877 0
M  V30 2418 H 216.397 -2.20793 3.34741 0
M  V30 2419 H 212.987 -1.0275 4.16101 0
M  V30 2420 H 217.171 -0.436632 4.94376 0
M  V30 2421 H 212.427 0.372165 6.10266 0
M  V30 2422 H 216.601 0.957354 6.89788 0
M  V30 2423 H 214.228 1.36778 7.47794 0
M  V30 2424 N 215.803 -1.52179 -0.40978 0
M  V30 2425 C 216.75 -1.75475 -1.49924 0
M  V30 2426 C 217.72 -0.597175 -1.54994 0
M  V30 2427 O 218.905 -0.834655 -1.71575 0
M  V30 2428 C 216.045 -1.9107 -2.87378 0
M  V30 2429 C 215.158 -3.18717 -2.91622 0
M  V30 2430 C 214.293 -3.24747 -4.20372 0
M  V30 2431 C 213.332 -4.46598 -4.18588 0
M  V30 2432 N 212.469 -4.50025 -5.38908 0
M  V30 2433 H 217.309 -2.68458 -1.29361 0
M  V30 2434 H 214.846 -1.33024 -0.627934 0
M  V30 2435 H 216.804 -1.98096 -3.6717 0
M  V30 2436 H 215.434 -1.01469 -3.06437 0
M  V30 2437 H 214.486 -3.20866 -2.04326 0
M  V30 2438 H 215.798 -4.08544 -2.86169 0
M  V30 2439 H 214.952 -3.30841 -5.08556 0
M  V30 2440 H 213.691 -2.32857 -4.28519 0
M  V30 2441 H 212.696 -4.40652 -3.28794 0
M  V30 2442 H 213.921 -5.39783 -4.12081 0
M  V30 2443 H 211.867 -3.61017 -5.47725 0
M  V30 2444 H 211.784 -5.33697 -5.35447 0
M  V30 2445 H 213.052 -4.60347 -6.29048 0
M  V30 2446 N 217.281 0.66697 -1.42791 0
M  V30 2447 C 218.53 1.42278 -1.42968 0
M  V30 2448 C 218.843 1.9553 -0.0524489 0
M  V30 2449 O 220.049 2.71414 0.068363 0
M  V30 2450 C 218.505 2.57418 -2.51524 0
M  V30 2451 C 218.113 2.10832 -3.9529 0
M  V30 2452 C 219.857 3.34878 -2.60877 0
M  V30 2453 C 217.764 3.23101 -4.95338 0
M  V30 2454 H 216.694 0.534533 -0.531781 0
M  V30 2455 H 219.345 0.721302 -1.68729 0
M  V30 2456 H 217.727 3.29971 -2.18941 0
M  V30 2457 H 218.901 1.4538 -4.37266 0
M  V30 2458 H 217.216 1.46289 -3.89857 0
M  V30 2459 H 219.813 4.18505 -3.32802 0
M  V30 2460 H 220.156 3.81993 -1.6549 0
M  V30 2461 H 220.689 2.69398 -2.92693 0
M  V30 2462 H 217.428 2.80969 -5.9223 0
M  V30 2463 H 216.948 3.87309 -4.57987 0
M  V30 2464 H 218.627 3.88447 -5.17415 0
M  V30 2465 N 218.759 1.29093 0.90403 0
M  V30 2466 C 219.689 1.16401 2.02418 0
M  V30 2467 C 220.67 0.0593085 1.69997 0
M  V30 2468 O 221.855 0.238021 1.92736 0
M  V30 2469 C 218.985 0.835233 3.37107 0
M  V30 2470 C 217.939 1.89578 3.83724 0
M  V30 2471 C 217.265 1.42041 5.15489 0
M  V30 2472 C 218.565 3.30394 4.04521 0
M  V30 2473 H 220.259 2.10109 2.13295 0
M  V30 2474 H 217.805 1.01157 1.02486 0
M  V30 2475 H 219.758 0.733169 4.14973 0
M  V30 2476 H 218.482 -0.137543 3.2631 0
M  V30 2477 H 217.141 1.98715 3.08071 0
M  V30 2478 H 216.789 0.436426 5.01103 0
M  V30 2479 H 216.489 2.12964 5.4765 0
M  V30 2480 H 218.013 1.33176 5.959 0
M  V30 2481 H 219.427 3.24123 4.72882 0
M  V30 2482 H 217.824 3.99237 4.48029 0
M  V30 2483 H 218.894 3.73692 3.09002 0
M  V30 2484 N 220.237 -1.11381 1.11499 0
M  V30 2485 C 221.462 -1.87475 0.887019 0
M  V30 2486 C 221.887 -1.79639 -0.557796 0
M  V30 2487 O 221.245 -1.15924 -1.39396 0
M  V30 2488 C 221.293 -3.34213 1.35403 0
M  V30 2489 O 220.397 -4.0903 0.526146 0
M  V30 2490 H 219.738 -0.582099 0.319463 0
M  V30 2491 H 222.268 -1.40785 1.48461 0
M  V30 2492 H 222.278 -3.8506 1.34881 0
M  V30 2493 H 220.953 -3.39232 2.40612 0
M  V30 2494 H 219.53 -3.68082 0.597522 0
M  V30 2495 N 221.715 -0.905404 -1.28997 0
M  V30 2496 C 222.943 -0.549846 -1.9946 0
M  V30 2497 C 223.358 0.866834 -1.67724 0
M  V30 2498 O 222.715 1.57298 -0.925404 0
M  V30 2499 C 222.766 -0.739387 -3.53858 0
M  V30 2500 O 222.487 -2.10031 -3.84472 0
M  V30 2501 C 223.988 -0.389541 -4.41585 0
M  V30 2502 H 221.208 -0.210429 -0.637151 0
M  V30 2503 H 223.752 -1.21632 -1.64396 0
M  V30 2504 H 221.907 -0.120023 -3.87214 0
M  V30 2505 H 222.321 -2.13385 -4.79132 0
M  V30 2506 H 223.795 -0.572972 -5.49018 0
M  V30 2507 H 224.272 0.673756 -4.34001 0
M  V30 2508 H 224.878 -0.986089 -4.1371 0
M  V30 2509 N 223.193 1.4272 -0.668489 0
M  V30 2510 C 224.423 2.05668 -0.196063 0
M  V30 2511 C 224.831 1.5028 1.14946 0
M  V30 2512 O 224.174 0.6348 1.72383 0
M  V30 2513 C 224.236 3.59469 -0.0468879 0
M  V30 2514 C 223.9 4.37518 -1.32012 0
M  V30 2515 C 224.897 4.68584 -2.25222 0
M  V30 2516 C 222.582 4.77266 -1.56596 0
M  V30 2517 C 224.576 5.38326 -3.41297 0
M  V30 2518 C 222.263 5.4675 -2.72962 0
M  V30 2519 C 223.261 5.77204 -3.65137 0
M  V30 2520 O 222.949 6.45264 -4.79468 0
M  V30 2521 H 222.681 0.669382 -0.0943599 0
M  V30 2522 H 225.235 1.83954 -0.913788 0
M  V30 2523 H 223.465 3.79817 0.726357 0
M  V30 2524 H 225.154 4.04071 0.384852 0
M  V30 2525 H 225.92 4.38382 -2.07477 0
M  V30 2526 H 221.799 4.52959 -0.857249 0
M  V30 2527 H 225.343 5.62014 -4.13263 0
M  V30 2528 H 221.24 5.76369 -2.90635 0
M  V30 2529 H 222.008 6.63753 -4.78931 0
M  V30 2530 N 224.671 0.411399 1.52136 0
M  V30 2531 C 225.917 -0.163888 2.02137 0
M  V30 2532 C 226.25 -1.44597 1.29636 0
M  V30 2533 O 225.525 -1.90272 0.403353 0
M  V30 2534 C 225.808 -0.40927 3.57767 0
M  V30 2535 C 225.661 0.889643 4.40914 0
M  V30 2536 C 226.98 -1.19042 4.23694 0
M  V30 2537 H 224.099 -0.0580896 0.734707 0
M  V30 2538 H 226.741 0.54531 1.82007 0
M  V30 2539 H 224.891 -1.0134 3.7505 0
M  V30 2540 H 226.563 1.52575 4.35337 0
M  V30 2541 H 224.806 1.50011 4.07037 0
M  V30 2542 H 225.477 0.672314 5.4789 0
M  V30 2543 H 227.953 -0.678942 4.10524 0
M  V30 2544 H 226.829 -1.33086 5.32522 0
M  V30 2545 H 227.09 -2.21166 3.82803 0
M  V30 2546 N 226.149 -1.5696 0.141893 0
M  V30 2547 C 227.426 -1.87553 -0.555281 0
M  V30 2548 C 227.806 -1.04699 -1.83306 0
M  V30 2549 O 227.154 -0.132346 -2.28116 0
M  V30 2550 C 227.364 -3.39093 -0.825664 0
M  V30 2551 C 228.712 -4.08199 -1.16869 0
M  V30 2552 O 229.736 -3.44242 -0.915185 0
M  V30 2553 O 228.595 -5.21139 -1.6455 0
M  V30 2554 H 225.689 -0.777188 -0.282679 0
M  V30 2555 H 228.235 -1.68763 0.17812 0
M  V30 2556 H 227.007 -3.91221 0.0788633 0
M  V30 2557 H 226.63 -3.63393 -1.61343 0
M  V30 2558 N 227.627 0.131896 -1.57047 0
M  V30 2559 C 228.875 0.840269 -1.83804 0
M  V30 2560 C 229.196 1.81017 -0.72512 0
M  V30 2561 O 228.466 1.94272 0.251995 0
M  V30 2562 H 227.046 0.313294 -0.678127 0
M  V30 2563 H 229.708 0.122294 -1.94516 0
M  V30 2564 H 228.804 1.39335 -2.79271 0
M  V30 2565 N 229.106 1.52395 0.401703 0
M  V30 2566 C 230.355 1.66044 1.14509 0
M  V30 2567 C 230.668 0.400216 1.91462 0
M  V30 2568 O 231.874 0.416632 2.68284 0
M  V30 2569 C 230.33 2.93388 2.0845 0
M  V30 2570 C 229.938 4.26545 1.36978 0
M  V30 2571 C 231.682 3.16402 2.83001 0
M  V30 2572 C 229.589 5.45007 2.29611 0
M  V30 2573 H 228.519 0.618562 0.431158 0
M  V30 2574 H 231.17 1.78886 0.40892 0
M  V30 2575 H 229.552 2.74263 2.8565 0
M  V30 2576 H 230.726 4.56179 0.650916 0
M  V30 2577 H 229.041 4.09692 0.74438 0
M  V30 2578 H 231.638 4.02085 3.52465 0
M  V30 2579 H 231.981 2.30943 3.46368 0
M  V30 2580 H 232.514 3.36034 2.12898 0
M  V30 2581 H 229.253 6.32835 1.70879 0
M  V30 2582 H 228.773 5.19702 2.9945 0
M  V30 2583 H 230.452 5.7838 2.89974 0
M  V30 2584 N 230.584 -0.659388 1.43143 0
M  V30 2585 C 231.833 -1.41518 1.43721 0
M  V30 2586 C 232.146 -1.95499 0.0628176 0
M  V30 2587 O 233.352 -2.71446 -0.0539683 0
M  V30 2588 C 231.808 -2.5608 2.52885 0
M  V30 2589 C 231.416 -2.08733 3.96402 0
M  V30 2590 C 233.16 -3.3349 2.62649 0
M  V30 2591 C 231.067 -3.20469 4.97045 0
M  V30 2592 H 229.997 -0.531705 0.534608 0
M  V30 2593 H 232.648 -0.712343 1.69109 0
M  V30 2594 H 231.03 -3.28805 2.20688 0
M  V30 2595 H 232.204 -1.43059 4.3803 0
M  V30 2596 H 230.519 -1.44219 3.90627 0
M  V30 2597 H 233.116 -4.16734 3.35017 0
M  V30 2598 H 233.459 -3.8111 1.67513 0
M  V30 2599 H 233.992 -2.67842 2.94118 0
M  V30 2600 H 230.731 -2.77824 5.93712 0
M  V30 2601 H 230.251 -3.84874 4.60034 0
M  V30 2602 H 231.93 -3.85698 5.19467 0
M  V30 2603 N 232.062 -1.29571 -0.897171 0
M  V30 2604 C 233.292 -1.20408 -1.67886 0
M  V30 2605 C 233.7 0.237429 -1.87704 0
M  V30 2606 O 233.043 1.17048 -1.41582 0
M  V30 2607 C 233.105 -1.84887 -3.08314 0
M  V30 2608 C 232.769 -3.34189 -3.11716 0
M  V30 2609 C 233.766 -4.30374 -2.91675 0
M  V30 2610 C 231.451 -3.75431 -3.33701 0
M  V30 2611 C 233.445 -5.65776 -2.93557 0
M  V30 2612 C 231.132 -5.10955 -3.35214 0
M  V30 2613 C 232.13 -6.05938 -3.15164 0
M  V30 2614 O 231.818 -7.38987 -3.1647 0
M  V30 2615 H 231.55 -0.418289 -0.531046 0
M  V30 2616 H 234.104 -1.71514 -1.13014 0
M  V30 2617 H 232.334 -1.28295 -3.64798 0
M  V30 2618 H 234.023 -1.70011 -3.6858 0
M  V30 2619 H 234.789 -3.99844 -2.74499 0
M  V30 2620 H 230.668 -3.01953 -3.48347 0
M  V30 2621 H 234.212 -6.39889 -2.77826 0
M  V30 2622 H 230.109 -5.4113 -3.51922 0
M  V30 2623 H 230.877 -7.47823 -3.3272 0
M  V30 2624 N 233.54 1.10788 -1.12088 0
M  V30 2625 C 234.956 1.34691 -0.856186 0
M  V30 2626 C 235.156 1.94791 0.515615 0
M  V30 2627 O 234.212 2.18524 1.26505 0
M  V30 2628 C 235.525 2.27208 -1.9697 0
M  V30 2629 C 237.073 2.40755 -2.00016 0
M  V30 2630 C 237.548 3.36598 -3.1059 0
M  V30 2631 N 239.039 3.44164 -3.10008 0
M  V30 2632 C 239.774 4.18284 -3.92206 0
M  V30 2633 N 239.27 4.95322 -4.84384 0
M  V30 2634 N 241.063 4.13865 -3.80357 0
M  V30 2635 H 233.214 0.70144 -2.00483 0
M  V30 2636 H 235.477 0.371405 -0.872217 0
M  V30 2637 H 235.183 1.90251 -2.958 0
M  V30 2638 H 235.057 3.27485 -1.87172 0
M  V30 2639 H 237.444 2.76982 -1.01808 0
M  V30 2640 H 237.525 1.40305 -2.13888 0
M  V30 2641 H 237.169 3.01096 -4.09028 0
M  V30 2642 H 237.099 4.36918 -2.93956 0
M  V30 2643 H 239.59 2.8922 -2.43228 0
M  V30 2644 H 239.903 5.49267 -5.43623 0
M  V30 2645 H 238.248 4.94459 -4.884 0
M  V30 2646 H 241.439 3.52773 -3.07683 0
M  V30 2647 H 241.612 4.71372 -4.44649 0
M  V30 2648 N 235.018 0.912232 1.28515 0
M  V30 2649 C 236.295 0.463597 1.90027 0
M  V30 2650 C 236.675 -1.05753 1.82701 0
M  V30 2651 O 236.023 -1.90492 1.26194 0
M  V30 2652 C 236.233 0.992253 3.34597 0
M  V30 2653 C 237.581 1.04344 4.11579 0
M  V30 2654 O 238.605 0.94079 3.43551 0
M  V30 2655 O 237.464 1.1995 5.33174 0
M  V30 2656 H 234.558 0.146666 0.813891 0
M  V30 2657 H 237.104 1.00292 1.36893 0
M  V30 2658 H 235.876 2.03623 3.34146 0
M  V30 2659 H 235.499 0.433672 3.95228 0
M  V30 2660 N 236.496 -1.42363 0.676048 0
M  V30 2661 C 237.907 -1.84649 0.275948 0
M  V30 2662 C 238.258 -1.56588 -1.18214 0
M  V30 2663 O 237.383 -1.02634 -1.90513 0
M  V30 2664 C 237.978 -3.35178 0.494053 0
M  V30 2665 C 236.537 -3.76109 0.148061 0
M  V30 2666 C 235.684 -2.65931 0.785891 0
M  V30 2667 H 238.635 -1.32192 0.878121 0
M  V30 2668 H 238.656 -3.79655 -0.25343 0
M  V30 2669 H 238.168 -3.55571 1.55535 0
M  V30 2670 H 236.269 -3.61323 -0.909742 0
M  V30 2671 H 236.382 -4.7546 0.589454 0
M  V30 2672 H 234.746 -2.53773 0.217113 0
M  V30 2673 H 235.529 -2.89146 1.85067 0
M  V30 2674 N 237.974 -0.419461 -1.51915 0
M  V30 2675 C 239.199 0.154572 -2.06823 0
M  V30 2676 C 239.624 1.3722 -1.28656 0
M  V30 2677 O 238.982 1.78461 -0.319583 0
M  V30 2678 C 239.03 0.473172 -3.57482 0
M  V30 2679 O 238.134 1.56255 -3.81652 0
M  V30 2680 H 237.475 0.0096924 -0.663929 0
M  V30 2681 H 240.005 -0.595642 -1.95738 0
M  V30 2682 H 240.015 0.728825 -4.01438 0
M  V30 2683 H 238.69 -0.416873 -4.13805 0
M  V30 2684 H 237.267 1.29825 -3.49571 0
M  V30 2685 N 239.452 1.56882 -0.150215 0
M  V30 2686 C 240.399 2.16922 0.788244 0
M  V30 2687 C 241.369 1.10303 1.24187 0
M  V30 2688 O 242.554 1.38359 1.31383 0
M  V30 2689 C 239.694 2.79754 2.02068 0
M  V30 2690 C 238.807 4.00775 1.61257 0
M  V30 2691 C 237.942 4.51595 2.79705 0
M  V30 2692 C 236.981 5.65074 2.35282 0
M  V30 2693 N 236.118 6.10499 3.4675 0
M  V30 2694 H 240.958 2.96779 0.269444 0
M  V30 2695 H 238.495 1.46599 0.12128 0
M  V30 2696 H 240.453 3.14329 2.74323 0
M  V30 2697 H 239.083 2.02536 2.51354 0
M  V30 2698 H 238.135 3.72158 0.787553 0
M  V30 2699 H 239.447 4.82978 1.24633 0
M  V30 2700 H 238.601 4.88242 3.60145 0
M  V30 2701 H 237.34 3.68406 3.19576 0
M  V30 2702 H 236.345 5.28 1.53283 0
M  V30 2703 H 237.57 6.50052 1.96493 0
M  V30 2704 H 235.516 5.30243 3.86236 0
M  V30 2705 H 235.433 6.87637 3.14152 0
M  V30 2706 H 236.701 6.51791 4.27537 0
M  V30 2707 N 240.93 -0.123565 1.57115 0
M  V30 2708 C 241.877 -1.15177 2.00007 0
M  V30 2709 C 242.847 -1.41403 0.871454 0
M  V30 2710 O 244.032 -1.53346 1.13533 0
M  V30 2711 C 241.172 -2.47436 2.40561 0
M  V30 2712 C 240.285 -2.28184 3.66819 0
M  V30 2713 C 239.42 -3.53641 3.96373 0
M  V30 2714 C 238.459 -3.29528 5.15827 0
M  V30 2715 N 237.596 -4.47175 5.41275 0
M  V30 2716 H 242.436 -0.779008 2.87638 0
M  V30 2717 H 239.973 -0.373166 1.42288 0
M  V30 2718 H 241.931 -3.24584 2.62109 0
M  V30 2719 H 240.561 -2.82614 1.55978 0
M  V30 2720 H 239.613 -1.41976 3.52912 0
M  V30 2721 H 240.925 -2.0634 4.5412 0
M  V30 2722 H 240.079 -4.39209 4.18545 0
M  V30 2723 H 238.818 -3.78512 3.07538 0
M  V30 2724 H 237.823 -2.42349 4.93505 0
M  V30 2725 H 239.048 -3.06031 6.06236 0
M  V30 2726 H 236.994 -4.72175 4.55397 0
M  V30 2727 H 236.911 -4.28419 6.22891 0
M  V30 2728 H 238.179 -5.3389 5.67963 0
M  V30 2729 N 242.408 -1.52605 -0.393616 0
M  V30 2730 C 243.356 -1.77688 -1.50099 0
M  V30 2731 C 244.35 -0.644615 -1.56656 0
M  V30 2732 O 245.556 -0.826997 -1.59877 0
M  V30 2733 H 241.931 -0.562159 -0.499481 0
M  V30 2734 H 243.902 -2.7043 -1.26135 0
M  V30 2735 C 242.651 -1.95858 -2.87289 0
M  V30 2736 H 241.974 -2.8241 -2.82992 0
M  V30 2737 H 243.414 -2.174 -3.64024 0
M  V30 2738 C 241.873 -0.729848 -3.28899 0
M  V30 2739 O 242.403 0.0949217 -4.01588 0
M  V30 2740 N 240.609 -0.561283 -2.85128 0
M  V30 2741 H 240.156 -1.23357 -2.26143 0
M  V30 2742 H 240.114 0.2595 -3.13327 0
M  V30 2743 N 243.887 0.651787 -1.4349 0
M  V30 2744 C 245.133 1.41376 -1.45398 0
M  V30 2745 C 245.466 1.94041 -0.0784823 0
M  V30 2746 O 244.741 1.72379 0.900878 0
M  V30 2747 C 245.024 2.59414 -2.49752 0
M  V30 2748 C 244.877 2.12232 -3.96582 0
M  V30 2749 C 246.196 3.61626 -2.50827 0
M  V30 2750 H 243.315 0.512719 -0.529422 0
M  V30 2751 H 245.957 0.738796 -1.75048 0
M  V30 2752 H 244.107 3.16997 -2.246 0
M  V30 2753 H 245.779 1.59639 -4.32797 0
M  V30 2754 H 244.022 1.43592 -4.09346 0
M  V30 2755 H 244.693 2.9712 -4.65214 0
M  V30 2756 H 247.169 3.13805 -2.7325 0
M  V30 2757 H 246.045 4.41766 -3.25783 0
M  V30 2758 H 246.306 4.14314 -1.5426 0
M  V30 2759 N 245.365 1.30045 0.890287 0
M  V30 2760 C 246.642 1.09227 1.62262 0
M  V30 2761 C 247.022 -0.360305 2.08002 0
M  V30 2762 O 246.37 -1.35084 1.84295 0
M  V30 2763 C 246.58 2.08835 2.79623 0
M  V30 2764 C 247.928 2.40266 3.50082 0
M  V30 2765 O 248.952 2.07104 2.89804 0
M  V30 2766 O 247.811 2.96967 4.58773 0
M  V30 2767 H 244.905 0.419132 0.712922 0
M  V30 2768 H 247.451 1.41451 0.937529 0
M  V30 2769 H 246.223 3.06633 2.43089 0
M  V30 2770 H 245.846 1.77397 3.55832 0
M  V30 2771 N 246.843 -1.10192 1.12674 0
M  V30 2772 C 248.092 -1.81573 0.8783 0
M  V30 2773 C 248.405 -1.86249 -0.597557 0
M  V30 2774 O 249.611 -2.5386 -0.962681 0
M  V30 2775 C 248.067 -3.26149 1.52167 0
M  V30 2776 C 247.675 -3.29763 3.03249 0
M  V30 2777 C 249.419 -4.0234 1.3536 0
M  V30 2778 C 247.326 -4.68815 3.60508 0
M  V30 2779 H 246.256 -0.680394 0.324931 0
M  V30 2780 H 248.907 -1.23902 1.35353 0
M  V30 2781 H 247.289 -3.83832 0.974104 0
M  V30 2782 H 248.463 -2.8189 3.6452 0
M  V30 2783 H 246.778 -2.67059 3.19481 0
M  V30 2784 H 249.375 -5.05058 1.75559 0
M  V30 2785 H 249.718 -4.15235 0.297554 0
M  V30 2786 H 250.251 -3.51079 1.87052 0
M  V30 2787 H 246.99 -4.61121 4.65884 0
M  V30 2788 H 246.51 -5.17045 3.04014 0
M  V30 2789 H 248.189 -5.37785 3.59717 0
M  V30 2790 N 248.321 -0.919034 -1.28029 0
M  V30 2791 C 249.284 -0.416182 -2.2539 0
M  V30 2792 C 250.284 0.460438 -1.54067 0
M  V30 2793 O 251.474 0.262744 -1.72207 0
M  V30 2794 C 248.606 0.402707 -3.38513 0
M  V30 2795 H 249.799 -1.27629 -2.71387 0
M  V30 2796 H 247.352 -0.698919 -1.39803 0
M  V30 2797 H 248.087 1.282 -2.97885 0
M  V30 2798 H 247.872 -0.225698 -3.9145 0
M  V30 2799 H 249.362 0.745191 -4.10897 0
M  V30 2800 N 249.799 1.42003 -0.683588 0
M  V30 2801 C 251.045 2.01712 -0.209825 0
M  V30 2802 C 251.378 1.53968 1.18353 0
M  V30 2803 O 250.653 0.745661 1.79639 0
M  V30 2804 C 250.936 3.59202 -0.254197 0
M  V30 2805 C 250.789 4.17102 -1.68363 0
M  V30 2806 C 252.108 4.38344 0.392709 0
M  V30 2807 H 249.227 0.732891 -0.0777189 0
M  V30 2808 H 251.869 1.68909 -0.87004 0
M  V30 2809 H 250.019 3.87278 0.307954 0
M  V30 2810 H 251.691 3.99946 -2.29871 0
M  V30 2811 H 249.934 3.72597 -2.22157 0
M  V30 2812 H 250.605 5.26249 -1.6663 0
M  V30 2813 H 253.081 4.16011 -0.0859162 0
M  V30 2814 H 251.957 5.47901 0.331063 0
M  V30 2815 H 252.218 4.16887 1.47164 0
M  V30 2816 N 251.277 0.427512 1.51691 0
M  V30 2817 C 252.502 -0.143601 2.06902 0
M  V30 2818 C 252.927 -1.36536 1.29382 0
M  V30 2819 O 252.285 -1.78289 0.329043 0
M  V30 2820 C 252.333 -0.454207 3.57728 0
M  V30 2821 O 251.437 -1.54228 3.82475 0
M  V30 2822 H 250.778 -0.00617128 0.663971 0
M  V30 2823 H 253.308 0.606014 1.95419 0
M  V30 2824 H 253.318 -0.707525 4.01818 0
M  V30 2825 H 251.993 0.438812 4.13579 0
M  V30 2826 H 250.57 -1.2797 3.50254 0
M  V30 2827 N 252.755 -1.56801 0.158532 0
M  V30 2828 C 253.98 -2.01295 -0.499516 0
M  V30 2829 C 254.405 -1.03799 -1.56867 0
M  V30 2830 O 253.763 -0.0155162 -1.81293 0
M  V30 2831 C 253.811 -3.44469 -1.06647 0
M  V30 2832 O 252.915 -3.50012 -2.18095 0
M  V30 2833 H 252.256 -0.652884 -0.12099 0
M  V30 2834 H 254.786 -2.02958 0.258661 0
M  V30 2835 H 254.796 -3.8351 -1.39227 0
M  V30 2836 H 253.471 -4.14932 -0.283581 0
M  V30 2837 H 252.048 -3.22822 -1.86656 0
M  V30 2838 N 254.233 0.115231 -1.57178 0
M  V30 2839 C 255.458 0.840354 -1.89612 0
M  V30 2840 C 255.883 1.72464 -0.750845 0
M  V30 2841 O 255.241 1.78826 0.298478 0
M  V30 2842 C 255.289 1.64654 -3.20814 0
M  V30 2843 O 254.393 2.7538 -3.06985 0
M  V30 2844 H 253.734 0.232158 -0.622092 0
M  V30 2845 H 256.264 0.0964977 -2.04372 0
M  V30 2846 H 256.274 2.03499 -3.53627 0
M  V30 2847 H 254.949 0.997416 -4.03763 0
M  V30 2848 H 253.526 2.3971 -2.85646 0
M  V30 2849 N 255.711 1.52812 0.385517 0
M  V30 2850 C 256.936 1.72207 1.15583 0
M  V30 2851 C 257.361 0.441034 1.82857 0
M  V30 2852 O 256.719 -0.603465 1.70962 0
M  V30 2853 C 256.767 2.87476 2.17692 0
M  V30 2854 O 255.871 2.54693 3.24354 0
M  V30 2855 H 255.212 0.572526 0.336319 0
M  V30 2856 H 257.742 1.99618 0.448744 0
M  V30 2857 H 257.752 3.13072 2.6163 0
M  V30 2858 H 256.427 3.80408 1.68115 0
M  V30 2859 H 255.004 2.3985 2.85529 0
M  V30 2860 N 257.189 -0.644168 1.43834 0
M  V30 2861 C 258.136 -1.75671 1.49694 0
M  V30 2862 C 259.106 -1.6246 0.345809 0
M  V30 2863 O 260.291 -1.82573 0.554234 0
M  V30 2864 C 257.431 -3.13867 1.43463 0
M  V30 2865 C 256.544 -3.38147 2.6885 0
M  V30 2866 C 255.679 -4.66241 2.54544 0
M  V30 2867 C 254.718 -4.83657 3.75157 0
M  V30 2868 N 253.855 -6.03016 3.59605 0
M  V30 2869 H 258.695 -1.69998 2.44754 0
M  V30 2870 H 256.232 -0.829458 1.21484 0
M  V30 2871 H 258.19 -3.9377 1.37843 0
M  V30 2872 H 256.82 -3.18588 0.519783 0
M  V30 2873 H 255.872 -2.52276 2.84712 0
M  V30 2874 H 257.184 -3.46899 3.58417 0
M  V30 2875 H 256.338 -5.54285 2.46683 0
M  V30 2876 H 255.077 -4.59826 1.62516 0
M  V30 2877 H 254.082 -3.94046 3.83416 0
M  V30 2878 H 255.307 -4.91896 4.68204 0
M  V30 2879 H 253.253 -5.97715 2.7032 0
M  V30 2880 H 253.17 -6.12766 4.42779 0
M  V30 2881 H 254.438 -6.93657 3.55613 0
M  V30 2882 N 258.668 -1.30515 -0.883378 0
M  V30 2883 C 260.079 -1.17509 -1.45081 0
M  V30 2884 C 260.43 0.223605 -1.94922 0
M  V30 2885 O 259.555 1.12041 -1.85137 0
M  V30 2886 C 260.15 -2.12715 -2.63701 0
M  V30 2887 C 258.709 -2.03682 -3.16529 0
M  V30 2888 C 257.856 -2.02706 -1.89224 0
M  V30 2889 H 260.807 -1.42762 -0.693165 0
M  V30 2890 H 260.828 -1.70891 -3.39965 0
M  V30 2891 H 260.34 -3.14505 -2.27395 0
M  V30 2892 H 258.441 -1.05039 -3.57488 0
M  V30 2893 H 258.554 -2.92146 -3.7972 0
M  V30 2894 H 256.918 -1.4753 -2.07622 0
M  V30 2895 H 257.701 -3.06229 -1.55174 0
M  V30 2896 N 260.146 1.09593 -1.13257 0
M  V30 2897 C 261.395 1.81105 -0.887917 0
M  V30 2898 C 261.708 1.86563 0.587672 0
M  V30 2899 O 262.914 2.54367 0.949204 0
M  V30 2900 C 261.37 3.25338 -1.53895 0
M  V30 2901 C 260.978 3.28151 -3.04994 0
M  V30 2902 C 262.722 4.01617 -1.37492 0
M  V30 2903 C 260.629 4.66897 -3.6299 0
M  V30 2904 H 259.559 0.678661 -0.328534 0
M  V30 2905 H 262.21 1.23183 -1.36008 0
M  V30 2906 H 260.592 3.8331 -0.994446 0
M  V30 2907 H 261.766 2.79953 -3.66009 0
M  V30 2908 H 260.081 2.65361 -3.20893 0
M  V30 2909 H 262.678 5.04119 -1.78235 0
M  V30 2910 H 263.021 4.15072 -0.31957 0
M  V30 2911 H 263.554 3.50082 -1.88912 0
M  V30 2912 H 260.293 4.58643 -4.68323 0
M  V30 2913 H 259.813 5.15426 -3.06752 0
M  V30 2914 H 261.492 5.3587 -3.62563 0
M  V30 2915 N 261.624 0.925811 1.2754 0
M  V30 2916 C 262.873 0.561084 1.93739 0
M  V30 2917 C 263.186 -0.901685 1.73577 0
M  V30 2918 O 264.392 -1.37511 2.34101 0
M  V30 2919 C 262.848 0.952668 3.47062 0
M  V30 2920 C 262.456 2.43599 3.75983 0
M  V30 2921 C 264.2 0.659103 4.19352 0
M  V30 2922 C 262.107 2.76707 5.22673 0
M  V30 2923 H 261.037 0.206122 0.725279 0
M  V30 2924 H 263.688 1.12637 1.44863 0
M  V30 2925 H 262.07 0.316053 3.94737 0
M  V30 2926 H 263.244 3.12035 3.39073 0
M  V30 2927 H 261.559 2.70125 3.16893 0
M  V30 2928 H 264.156 0.882985 5.27359 0
M  V30 2929 H 264.499 -0.403607 4.14339 0
M  V30 2930 H 265.032 1.25473 3.77494 0
M  V30 2931 H 261.771 3.8188 5.32774 0
M  V30 2932 H 261.291 2.12919 5.60737 0
M  V30 2933 H 262.97 2.6435 5.90532 0
M  V30 2934 N 263.102 -1.41638 0.69111 0
M  V30 2935 C 264.05 -2.32597 0.0115199 0
M  V30 2936 C 265.044 -1.5072 -0.773296 0
M  V30 2937 O 266.25 -1.66685 -0.67942 0
M  V30 2938 H 262.625 -0.751849 -0.0150746 0
M  V30 2939 H 264.596 -2.87593 0.795791 0
M  V30 2940 C 263.345 -3.35467 -0.914172 0
M  V30 2941 H 262.668 -3.9852 -0.319687 0
M  V30 2942 H 264.108 -4.01662 -1.35808 0
M  V30 2943 C 262.567 -2.69004 -2.02826 0
M  V30 2944 O 263.097 -2.53444 -3.11655 0
M  V30 2945 N 261.303 -2.2777 -1.80469 0
M  V30 2946 H 260.85 -2.40626 -0.919615 0
M  V30 2947 H 260.808 -1.83635 -2.55197 0
M  V30 2948 N 264.58 -0.43555 -1.51462 0
M  V30 2949 C 265.543 0.365137 -2.26273 0
M  V30 2950 C 266.543 0.951227 -1.29647 0
M  V30 2951 O 267.733 0.825958 -1.53374 0
M  V30 2952 C 264.865 1.51645 -3.05314 0
M  V30 2953 H 266.058 -0.290474 -2.9849 0
M  V30 2954 H 263.611 -0.188676 -1.55157 0
M  V30 2955 H 264.346 2.20816 -2.3751 0
M  V30 2956 H 264.131 1.10238 -3.76284 0
M  V30 2957 H 265.621 2.08218 -3.61987 0
M  V30 2958 N 266.058 1.56714 -0.166846 0
M  V30 2959 C 267.306 1.96358 0.478305 0
M  V30 2960 C 267.627 1.0537 1.6408 0
M  V30 2961 O 266.897 0.119154 1.95537 0
M  V30 2962 H 265.477 0.725065 0.179692 0
M  V30 2963 H 268.139 1.93329 -0.246985 0
M  V30 2964 H 267.235 3.00547 0.841292 0
M  V30 2965 N 267.536 -0.106894 1.57237 0
M  V30 2966 C 268.484 -1.14944 2.02215 0
M  V30 2967 C 269.478 -1.42167 0.92114 0
M  V30 2968 O 270.684 -1.41987 1.10634 0
M  V30 2969 H 267.059 -0.387841 0.64427 0
M  V30 2970 H 269.03 -0.743683 2.88984 0
M  V30 2971 C 267.779 -2.4647 2.4525 0
M  V30 2972 H 267.102 -2.26363 3.29545 0
M  V30 2973 H 268.542 -3.17948 2.80508 0
M  V30 2974 C 267.001 -3.09921 1.321 0
M  V30 2975 O 267.531 -3.9651 0.643622 0
M  V30 2976 N 265.737 -2.69986 1.07497 0
M  V30 2977 H 265.284 -1.99667 1.62761 0
M  V30 2978 H 265.242 -3.12769 0.319876 0
M  V30 2979 N 269.014 -1.53014 -0.377408 0
M  V30 2980 C 270.262 -1.6829 -1.11906 0
M  V30 2981 C 270.583 -0.431206 -1.90173 0
M  V30 2982 O 269.853 0.554595 -1.87886 0
M  V30 2983 H 268.433 -0.620371 -0.416112 0
M  V30 2984 H 271.095 -1.90167 -0.426893 0
M  V30 2985 H 270.191 -2.53862 -1.8155 0
M  V30 2986 N 270.492 0.636531 -1.44174 0
M  V30 2987 C 271.72 1.42353 -1.50144 0
M  V30 2988 C 272.135 1.88389 -0.124575 0
M  V30 2989 O 271.492 1.6051 0.868489 0
M  V30 2990 C 271.543 2.64744 -2.46156 0
M  V30 2991 O 271.264 2.20629 -3.7849 0
M  V30 2992 C 272.765 3.57929 -2.61537 0
M  V30 2993 H 269.985 0.436752 -0.5094 0
M  V30 2994 H 272.529 0.778933 -1.89084 0
M  V30 2995 H 270.684 3.25307 -2.10366 0
M  V30 2996 H 271.098 2.99938 -4.30276 0
M  V30 2997 H 272.572 4.40428 -3.32757 0
M  V30 2998 H 273.049 4.06382 -1.66585 0
M  V30 2999 H 273.655 3.03238 -2.98206 0
M  V30 3000 N 271.97 1.30982 0.876444 0
M  V30 3001 C 273.218 1.20058 1.62575 0
M  V30 3002 C 273.539 -0.242947 1.93481 0
M  V30 3003 O 272.809 -1.1619 1.57724 0
M  V30 3004 H 271.389 0.44135 0.602677 0
M  V30 3005 H 274.051 1.64222 1.04962 0
M  V30 3006 H 273.147 1.76762 2.57219 0
M  V30 3007 N 273.449 -1.08991 1.13837 0
M  V30 3008 C 274.359 -2.19301 0.833333 0
M  V30 3009 C 275.375 -1.73026 -0.183847 0
M  V30 3010 O 276.551 -2.01395 -0.0138092 0
M  V30 3011 C 273.616 -3.45323 0.308651 0
M  V30 3012 C 272.677 -4.06255 1.38764 0
M  V30 3013 C 271.91 -5.26262 0.887896 0
M  V30 3014 O 272.133 -5.69747 -0.27287 0
M  V30 3015 O 271.067 -5.78435 1.66421 0
M  V30 3016 H 274.893 -2.47854 1.75506 0
M  V30 3017 H 272.478 -1.18012 0.916166 0
M  V30 3018 H 274.36 -4.21394 0.0216739 0
M  V30 3019 H 273.035 -3.18362 -0.585431 0
M  V30 3020 H 271.942 -3.318 1.72799 0
M  V30 3021 H 273.275 -4.37452 2.25602 0
M  V30 3022 N 274.927 -0.932562 -1.27047 0
M  V30 3023 C 275.877 -0.406392 -2.24349 0
M  V30 3024 C 276.861 0.492066 -1.53191 0
M  V30 3025 O 278.053 0.328717 -1.73921 0
M  V30 3026 C 275.182 0.335214 -3.41659 0
M  V30 3027 C 274.268 -0.58004 -4.20115 0
M  V30 3028 N 274.659 -1.70203 -4.76303 0
M  V30 3029 C 272.957 -0.383974 -4.44344 0
M  V30 3030 C 273.658 -2.27167 -5.35509 0
M  V30 3031 N 272.634 -1.56068 -5.20715 0
M  V30 3032 H 276.436 -1.26299 -2.65378 0
M  V30 3033 H 273.95 -0.787408 -1.42034 0
M  V30 3034 H 275.947 0.729142 -4.10474 0
M  V30 3035 H 274.607 1.18868 -3.0216 0
M  V30 3036 H 275.618 -2.08433 -4.74106 0
M  V30 3037 H 272.295 0.428436 -4.15296 0
M  V30 3038 H 273.685 -3.21654 -5.89905 0
M  V30 3039 N 276.405 1.4127 -0.698611 0
M  V30 3040 C 277.816 1.84187 -0.305289 0
M  V30 3041 C 278.167 1.58449 1.15708 0
M  V30 3042 O 277.292 1.05651 1.88856 0
M  V30 3043 C 277.887 3.3435 -0.547314 0
M  V30 3044 C 276.446 3.75826 -0.207878 0
M  V30 3045 C 275.593 2.64647 -0.828099 0
M  V30 3046 H 278.544 1.30778 -0.89904 0
M  V30 3047 H 278.565 3.8001 0.192998 0
M  V30 3048 H 278.077 3.53051 -1.61172 0
M  V30 3049 H 276.178 3.62725 0.852143 0
M  V30 3050 H 276.291 4.74462 -0.665021 0
M  V30 3051 H 274.655 2.53395 -0.257458 0
M  V30 3052 H 275.438 2.86165 -1.89643 0
M  V30 3053 N 277.883 0.443576 1.51229 0
M  V30 3054 C 279.111 -0.11929 2.06556 0
M  V30 3055 C 279.526 -1.35921 1.31038 0
M  V30 3056 O 278.883 -1.78675 0.371704 0
M  V30 3057 C 278.934 -0.435228 3.5887 0
M  V30 3058 O 278.655 0.755486 4.31537 0
M  V30 3059 C 280.156 -1.04808 4.30732 0
M  V30 3060 H 277.376 -0.0051584 0.67098 0
M  V30 3061 H 279.92 0.624453 1.94733 0
M  V30 3062 H 278.075 -1.12887 3.70588 0
M  V30 3063 H 278.489 0.483491 5.22267 0
M  V30 3064 H 279.963 -1.2191 5.3837 0
M  V30 3065 H 280.44 -2.03081 3.89429 0
M  V30 3066 H 281.046 -0.393637 4.23474 0
M  V30 3067 N 279.361 -1.56624 0.175154 0
M  V30 3068 C 280.293 -2.15333 -0.785128 0
M  V30 3069 C 281.306 -1.1099 -1.19101 0
M  V30 3070 O 282.495 -1.38162 -1.13019 0
M  V30 3071 C 279.595 -2.68427 -2.06882 0
M  V30 3072 C 278.768 -3.97466 -1.8259 0
M  V30 3073 C 277.827 -4.35585 -2.95215 0
M  V30 3074 O 276.853 -5.03389 -2.65684 0
M  V30 3075 N 278.055 -3.97457 -4.23094 0
M  V30 3076 H 280.82 -2.98359 -0.283187 0
M  V30 3077 H 278.381 -1.61898 -0.00749817 0
M  V30 3078 H 280.373 -2.90924 -2.81328 0
M  V30 3079 H 278.943 -1.89968 -2.48256 0
M  V30 3080 H 278.163 -3.83307 -0.920287 0
M  V30 3081 H 279.451 -4.81736 -1.63733 0
M  V30 3082 H 278.849 -3.42878 -4.49945 0
M  V30 3083 H 277.406 -4.24947 -4.9423 0
M  V30 3084 N 280.839 0.0985539 -1.57292 0
M  V30 3085 C 282.064 0.820196 -1.90493 0
M  V30 3086 C 282.489 1.71658 -0.769094 0
M  V30 3087 O 281.847 1.79133 0.279495 0
M  V30 3088 C 281.895 1.61242 -3.22542 0
M  V30 3089 O 280.999 2.72108 -3.09888 0
M  V30 3090 H 280.34 0.225547 -0.62452 0
M  V30 3091 H 282.87 0.0748159 -2.04463 0
M  V30 3092 H 282.88 1.99737 -3.55766 0
M  V30 3093 H 281.555 0.954535 -4.04798 0
M  V30 3094 H 280.132 2.36667 -2.88172 0
M  V30 3095 N 282.317 1.53212 0.369288 0
M  V30 3096 C 283.247 1.82365 1.45826 0
M  V30 3097 C 284.228 0.676907 1.56051 0
M  V30 3098 O 285.413 0.926401 1.70679 0
M  V30 3099 C 282.543 2.01023 2.83208 0
M  V30 3100 C 281.497 3.1678 2.8781 0
M  V30 3101 C 280.823 3.20724 4.27832 0
M  V30 3102 C 282.123 4.55447 2.55667 0
M  V30 3103 H 283.817 2.73559 1.21678 0
M  V30 3104 H 281.363 1.3163 0.583911 0
M  V30 3105 H 283.316 2.20001 3.59413 0
M  V30 3106 H 282.04 1.06536 3.08736 0
M  V30 3107 H 280.699 2.97616 2.14056 0
M  V30 3108 H 280.347 2.23882 4.50429 0
M  V30 3109 H 280.047 3.98496 4.31827 0
M  V30 3110 H 281.571 3.41881 5.05915 0
M  V30 3111 H 282.985 4.74611 3.21586 0
M  V30 3112 H 281.382 5.35432 2.70984 0
M  V30 3113 H 282.452 4.60812 1.5093 0
M  V30 3114 N 283.795 -0.628877 1.44509 0
M  V30 3115 C 284.725 -1.75187 1.54376 0
M  V30 3116 C 285.706 -1.65411 0.396618 0
M  V30 3117 O 286.891 -1.84137 0.617031 0
M  V30 3118 C 284.021 -3.13725 1.48976 0
M  V30 3119 C 282.975 -3.38291 2.62189 0
M  V30 3120 C 282.301 -4.76883 2.41841 0
M  V30 3121 C 283.601 -3.30632 4.04326 0
M  V30 3122 H 285.295 -1.67187 2.48373 0
M  V30 3123 H 282.841 -0.802909 1.19538 0
M  V30 3124 H 284.794 -3.92064 1.54478 0
M  V30 3125 H 283.518 -3.22515 0.514961 0
M  V30 3126 H 282.177 -2.62334 2.56079 0
M  V30 3127 H 281.825 -4.82378 1.42548 0
M  V30 3128 H 281.525 -4.94278 3.17747 0
M  V30 3129 H 283.049 -5.57449 2.49165 0
M  V30 3130 H 284.463 -3.98873 4.11793 0
M  V30 3131 H 282.86 -3.59561 4.80454 0
M  V30 3132 H 283.93 -2.28404 4.27738 0
M  V30 3133 N 285.273 -1.31445 -0.869486 0
M  V30 3134 C 286.55 -1.11795 -1.60503 0
M  V30 3135 C 286.93 0.327168 -2.08549 0
M  V30 3136 O 286.278 1.32135 -1.8642 0
M  V30 3137 C 286.488 -2.13258 -2.76265 0
M  V30 3138 C 287.836 -2.45805 -3.46215 0
M  V30 3139 O 288.86 -2.11688 -2.86473 0
M  V30 3140 O 287.719 -3.04228 -4.5399 0
M  V30 3141 H 284.813 -0.430421 -0.706163 0
M  V30 3142 H 287.359 -1.42925 -0.914907 0
M  V30 3143 H 286.131 -3.10461 -2.3818 0
M  V30 3144 H 285.754 -1.83035 -3.52964 0
M  V30 3145 N 286.751 1.08385 -1.14413 0
M  V30 3146 C 287.998 1.80776 -0.912482 0
M  V30 3147 C 288.326 1.86236 0.560934 0
M  V30 3148 O 287.581 1.33431 1.43159 0
M  V30 3149 C 287.88 3.26273 -1.45879 0
M  V30 3150 C 287.546 3.4093 -2.95089 0
M  V30 3151 C 286.208 3.44638 -3.35824 0
M  V30 3152 C 288.56 3.44591 -3.91033 0
M  V30 3153 C 285.888 3.49597 -4.71167 0
M  V30 3154 C 288.24 3.51086 -5.26233 0
M  V30 3155 C 286.904 3.53067 -5.6648 0
M  V30 3156 H 286.174 0.661507 -0.333901 0
M  V30 3157 H 288.821 1.27613 -1.42784 0
M  V30 3158 H 287.126 3.82146 -0.864376 0
M  V30 3159 H 288.823 3.80839 -1.2555 0
M  V30 3160 H 285.413 3.38736 -2.62594 0
M  V30 3161 H 289.597 3.40957 -3.60641 0
M  V30 3162 H 284.853 3.49424 -5.0171 0
M  V30 3163 H 289.027 3.52864 -6.00383 0
M  V30 3164 H 286.654 3.56662 -6.71339 0
M  V30 3165 N 288.23 0.939286 1.26551 0
M  V30 3166 C 289.46 0.601663 1.97645 0
M  V30 3167 C 289.868 -0.827206 1.70159 0
M  V30 3168 O 289.211 -1.56291 0.965338 0
M  V30 3169 C 289.273 0.761725 3.51337 0
M  V30 3170 C 288.937 2.16487 4.0247 0
M  V30 3171 C 289.934 3.14016 4.14355 0
M  V30 3172 C 287.619 2.48494 4.36527 0
M  V30 3173 C 289.613 4.41654 4.59587 0
M  V30 3174 C 287.3 3.76364 4.81449 0
M  V30 3175 C 288.298 4.72758 4.92939 0
M  V30 3176 O 287.986 5.98352 5.36871 0
M  V30 3177 H 287.718 0.225758 0.637189 0
M  V30 3178 H 290.272 1.26178 1.62075 0
M  V30 3179 H 288.502 0.0444808 3.86674 0
M  V30 3180 H 290.191 0.427442 4.03643 0
M  V30 3181 H 290.957 2.90613 3.8829 0
M  V30 3182 H 286.836 1.74202 4.26819 0
M  V30 3183 H 290.38 5.16896 4.68471 0
M  V30 3184 H 286.277 3.99582 5.06956 0
M  V30 3185 H 287.045 6.01507 5.55096 0
M  V30 3186 N 289.708 -1.40897 0.706093 0
M  V30 3187 C 290.936 -2.05373 0.250887 0
M  V30 3188 C 291.351 -1.53172 -1.10381 0
M  V30 3189 O 290.708 -0.684305 -1.69185 0
M  V30 3190 C 290.759 -3.6088 0.211571 0
M  V30 3191 O 290.48 -4.11153 1.51276 0
M  V30 3192 C 291.981 -4.42517 -0.263346 0
M  V30 3193 H 289.201 -0.66115 0.114552 0
M  V30 3194 H 291.745 -1.80479 0.961635 0
M  V30 3195 H 289.9 -3.84777 -0.450073 0
M  V30 3196 H 290.314 -5.05279 1.40689 0
M  V30 3197 H 291.788 -5.51479 -0.239718 0
M  V30 3198 H 292.265 -4.19396 -1.30397 0
M  V30 3199 H 292.871 -4.23708 0.367677 0
M  V30 3200 N 291.186 -0.45159 -1.50991 0
M  V30 3201 C 292.435 0.111653 -2.01391 0
M  V30 3202 C 292.748 1.42529 -1.33959 0
M  V30 3203 O 293.954 2.07232 -1.75405 0
M  V30 3204 C 292.41 0.249514 -3.59034 0
M  V30 3205 C 292.018 -1.05453 -4.35412 0
M  V30 3206 C 293.762 0.765762 -4.17536 0
M  V30 3207 C 291.669 -0.881529 -5.84793 0
M  V30 3208 H 290.599 0.0455022 -0.752626 0
M  V30 3209 H 293.25 -0.583524 -1.73975 0
M  V30 3210 H 291.632 1.00803 -3.82955 0
M  V30 3211 H 292.806 -1.82248 -4.23229 0
M  V30 3212 H 291.121 -1.50039 -3.88429 0
M  V30 3213 H 293.718 0.911913 -5.26866 0
M  V30 3214 H 294.061 1.75201 -3.77638 0
M  V30 3215 H 294.594 0.0651744 -3.97747 0
M  V30 3216 H 291.333 -1.84057 -6.29129 0
M  V30 3217 H 290.853 -0.153625 -5.99603 0
M  V30 3218 H 292.532 -0.540363 -6.4474 0
M  V30 3219 N 292.664 1.56529 -0.183458 0
M  V30 3220 C 293.614 2.1515 0.754605 0
M  V30 3221 C 294.598 1.08904 1.18443 0
M  V30 3222 O 295.79 1.34997 1.14476 0
M  V30 3223 C 292.919 2.80531 1.97881 0
M  V30 3224 C 292.005 3.93952 1.57043 0
M  V30 3225 N 292.396 4.98221 0.87231 0
M  V30 3226 C 290.694 4.05338 1.86057 0
M  V30 3227 C 291.395 5.77836 0.669377 0
M  V30 3228 N 290.371 5.29858 1.21454 0
M  V30 3229 H 294.173 2.93132 0.212387 0
M  V30 3230 H 291.687 1.62391 0.0167725 0
M  V30 3231 H 293.684 3.20914 2.6612 0
M  V30 3232 H 292.344 2.04035 2.52586 0
M  V30 3233 H 293.355 5.15191 0.529033 0
M  V30 3234 H 290.032 3.39957 2.42354 0
M  V30 3235 H 291.422 6.71799 0.116422 0
M  V30 3236 N 294.142 -0.090211 1.57342 0
M  V30 3237 C 295.09 -1.12792 2.03422 0
M  V30 3238 C 296.084 -1.41182 0.936166 0
M  V30 3239 O 297.29 -1.40805 1.12133 0
M  V30 3240 H 293.665 -0.380986 0.648347 0
M  V30 3241 H 295.636 -0.71299 2.89757 0
M  V30 3242 C 294.385 -2.43855 2.47851 0
M  V30 3243 H 293.708 -2.22855 3.31927 0
M  V30 3244 H 295.148 -3.14955 2.83865 0
M  V30 3245 C 293.607 -3.08503 1.3538 0
M  V30 3246 O 294.137 -3.95805 0.685641 0
M  V30 3247 N 292.343 -2.68831 1.10355 0
M  V30 3248 H 291.89 -1.97929 1.64869 0
M  V30 3249 H 291.848 -3.12412 0.353031 0
M  V30 3250 N 295.62 -1.53406 -0.361157 0
M  V30 3251 C 296.85 -1.73465 -1.1222 0
M  V30 3252 C 297.258 -0.465486 -1.83384 0
M  V30 3253 O 296.601 0.571611 -1.7458 0
M  V30 3254 C 296.663 -2.84834 -2.19339 0
M  V30 3255 C 296.327 -4.25038 -1.67903 0
M  V30 3256 C 297.324 -5.07231 -1.14074 0
M  V30 3257 C 295.009 -4.71464 -1.73282 0
M  V30 3258 C 297.003 -6.33942 -0.663068 0
M  V30 3259 C 294.69 -5.98153 -1.25127 0
M  V30 3260 C 295.688 -6.79223 -0.717296 0
M  V30 3261 O 295.376 -8.03533 -0.242865 0
M  V30 3262 H 295.108 -0.583526 -0.341283 0
M  V30 3263 H 297.662 -2.00964 -0.424591 0
M  V30 3264 H 295.892 -2.5282 -2.92607 0
M  V30 3265 H 297.581 -2.9303 -2.80871 0
M  V30 3266 H 298.347 -4.72534 -1.09254 0
M  V30 3267 H 294.226 -4.08432 -2.13786 0
M  V30 3268 H 297.77 -6.97167 -0.245612 0
M  V30 3269 H 293.667 -6.32347 -1.29642 0
M  V30 3270 H 294.435 -8.177 -0.361786 0
M  V30 3271 N 297.098 0.621204 -1.44841 0
M  V30 3272 C 298.345 1.38055 -1.48145 0
M  V30 3273 C 298.673 1.94143 -0.117867 0
M  V30 3274 O 297.928 1.74713 0.881694 0
M  V30 3275 C 298.227 2.55675 -2.4973 0
M  V30 3276 C 297.893 2.17817 -3.94799 0
M  V30 3277 C 296.555 2.07205 -4.34303 0
M  V30 3278 C 298.907 1.88065 -4.86087 0
M  V30 3279 C 296.235 1.65045 -5.63007 0
M  V30 3280 C 298.587 1.47394 -6.15189 0
M  V30 3281 C 297.251 1.35331 -6.53637 0
M  V30 3282 H 296.521 0.505181 -0.542101 0
M  V30 3283 H 299.168 0.703477 -1.78111 0
M  V30 3284 H 297.473 3.2866 -2.13284 0
M  V30 3285 H 299.17 3.13904 -2.4953 0
M  V30 3286 H 295.76 2.26998 -3.63552 0
M  V30 3287 H 299.944 1.95168 -4.56315 0
M  V30 3288 H 295.2 1.54317 -5.91605 0
M  V30 3289 H 299.374 1.23415 -6.85377 0
M  V30 3290 H 297.001 1.02435 -7.53267 0
M  V30 3291 N 298.576 1.31904 0.862503 0
M  V30 3292 C 299.987 1.19803 1.43193 0
M  V30 3293 C 300.338 -0.192567 1.95253 0
M  V30 3294 O 299.463 -1.09081 1.86896 0
M  V30 3295 C 300.058 2.16883 2.60283 0
M  V30 3296 C 298.617 2.08692 3.13248 0
M  V30 3297 C 297.764 2.05691 1.85975 0
M  V30 3298 H 300.715 1.43846 0.670365 0
M  V30 3299 H 300.736 1.76278 3.37204 0
M  V30 3300 H 300.248 3.18083 2.22363 0
M  V30 3301 H 298.349 1.10713 3.55771 0
M  V30 3302 H 298.462 2.9815 3.75025 0
M  V30 3303 H 296.826 1.50814 2.05249 0
M  V30 3304 H 297.609 3.08659 1.50282 0
M  V30 3305 N 300.054 -1.07777 1.14986 0
M  V30 3306 C 301.301 -1.8029 0.922056 0
M  V30 3307 C 301.629 -1.86531 -0.55105 0
M  V30 3308 O 300.884 -1.34189 -1.42449 0
M  V30 3309 C 301.183 -3.25495 1.47608 0
M  V30 3310 C 300.849 -3.39361 2.96893 0
M  V30 3311 C 299.511 -3.42852 3.37647 0
M  V30 3312 C 301.863 -3.42512 3.92854 0
M  V30 3313 C 299.191 -3.47094 4.73015 0
M  V30 3314 C 301.543 -3.4829 5.28088 0
M  V30 3315 C 300.207 -3.50058 5.68345 0
M  V30 3316 H 299.477 -0.659727 0.337404 0
M  V30 3317 H 302.124 -1.26854 1.43459 0
M  V30 3318 H 300.429 -3.81683 0.88463 0
M  V30 3319 H 302.126 -3.80168 1.27568 0
M  V30 3320 H 298.716 -3.37339 2.64387 0
M  V30 3321 H 302.9 -3.3904 3.62444 0
M  V30 3322 H 298.156 -3.46758 5.03556 0
M  V30 3323 H 302.33 -3.49675 6.02246 0
M  V30 3324 H 299.957 -3.53097 6.73221 0
M  V30 3325 N 301.532 -0.945985 -1.26051 0
M  V30 3326 C 302.781 -0.591836 -1.92822 0
M  V30 3327 C 303.094 0.873956 -1.7499 0
M  V30 3328 O 304.3 1.33769 -2.36259 0
M  V30 3329 C 302.756 -1.00776 -3.45503 0
M  V30 3330 C 302.364 -2.4955 -3.7206 0
M  V30 3331 C 304.108 -0.725735 -4.1825 0
M  V30 3332 C 302.015 -2.84988 -5.18205 0
M  V30 3333 H 300.945 -0.217635 -0.721908 0
M  V30 3334 H 303.596 -1.14927 -1.43052 0
M  V30 3335 H 301.978 -0.378812 -3.94184 0
M  V30 3336 H 303.152 -3.1739 -3.34066 0
M  V30 3337 H 301.467 -2.75133 -3.12555 0
M  V30 3338 H 304.064 -0.966771 -5.25887 0
M  V30 3339 H 304.407 0.337639 -4.14929 0
M  V30 3340 H 304.94 -1.31463 -3.7545 0
M  V30 3341 H 301.679 -3.90307 -5.26631 0
M  V30 3342 H 301.199 -2.21813 -5.57278 0
M  V30 3343 H 302.878 -2.73712 -5.86252 0
M  V30 3344 N 303.011 1.40521 -0.713556 0
M  V30 3345 C 303.941 2.33381 -0.0743864 0
M  V30 3346 C 304.922 1.52784 0.747735 0
M  V30 3347 O 306.107 1.81258 0.697071 0
M  V30 3348 C 303.237 3.36748 0.849598 0
M  V30 3349 C 302.191 4.27793 0.133247 0
M  V30 3350 C 301.517 5.21679 1.17281 0
M  V30 3351 C 302.817 5.12415 -1.01134 0
M  V30 3352 H 304.511 2.87081 -0.850007 0
M  V30 3353 H 302.057 1.38034 -0.410201 0
M  V30 3354 H 304.01 4.00648 1.30612 0
M  V30 3355 H 302.734 2.81439 1.65709 0
M  V30 3356 H 301.393 3.65342 -0.303426 0
M  V30 3357 H 301.041 4.62677 1.9733 0
M  V30 3358 H 300.741 5.83435 0.698397 0
M  V30 3359 H 302.265 5.88456 1.62947 0
M  V30 3360 H 303.679 5.69781 -0.634274 0
M  V30 3361 H 302.076 5.83203 -1.41399 0
M  V30 3362 H 303.146 4.48514 -1.84292 0
M  V30 3363 N 304.489 0.459591 1.5075 0
M  V30 3364 C 305.766 -0.160371 1.94941 0
M  V30 3365 C 306.146 -1.58048 1.39943 0
M  V30 3366 O 305.494 -2.206 0.595629 0
M  V30 3367 C 305.704 -0.115432 3.48809 0
M  V30 3368 C 307.052 -0.310026 4.23467 0
M  V30 3369 O 308.076 -0.192543 3.55679 0
M  V30 3370 O 306.935 -0.546031 5.43765 0
M  V30 3371 H 304.029 -0.117925 0.818549 0
M  V30 3372 H 306.575 0.519169 1.61563 0
M  V30 3373 H 305.347 0.87652 3.81357 0
M  V30 3374 H 304.97 -0.836928 3.88692 0
M  V30 3375 N 305.967 -1.56429 0.191757 0
M  V30 3376 C 307.383 -1.58754 -0.164137 0
M  V30 3377 C 307.583 -1.20782 -1.61288 0
M  V30 3378 O 306.639 -0.928999 -2.34789 0
M  V30 3379 C 307.952 -3.00396 0.135195 0
M  V30 3380 C 309.5 -3.1291 0.0750351 0
M  V30 3381 C 309.975 -4.56679 0.347632 0
M  V30 3382 N 311.466 -4.62252 0.296131 0
M  V30 3383 C 312.201 -5.71379 0.480948 0
M  V30 3384 N 311.697 -6.88986 0.725933 0
M  V30 3385 N 313.49 -5.60563 0.415435 0
M  V30 3386 H 305.641 -1.79393 1.13718 0
M  V30 3387 H 307.904 -0.832414 0.453643 0
M  V30 3388 H 307.61 -3.32726 1.13958 0
M  V30 3389 H 307.484 -3.72963 -0.563773 0
M  V30 3390 H 309.871 -2.80394 -0.919948 0
M  V30 3391 H 309.952 -2.42736 0.807029 0
M  V30 3392 H 309.596 -4.89907 1.33992 0
M  V30 3393 H 309.526 -5.25039 -0.405212 0
M  V30 3394 H 312.017 -3.7773 0.113259 0
M  V30 3395 H 312.33 -7.68046 0.855857 0
M  V30 3396 H 310.675 -6.90801 0.762788 0
M  V30 3397 H 313.866 -4.67561 0.224486 0
M  V30 3398 H 314.039 -6.45551 0.562889 0
M  V30 3399 N 307.445 0.0818655 -1.57387 0
M  V30 3400 C 308.393 1.11712 -2.04018 0
M  V30 3401 C 309.387 1.40683 -0.94364 0
M  V30 3402 O 310.593 1.40209 -1.12878 0
M  V30 3403 H 306.968 0.377542 -0.650358 0
M  V30 3404 H 308.939 0.697614 -2.90131 0
M  V30 3405 C 307.688 2.42537 -2.49141 0
M  V30 3406 H 307.011 2.21092 -3.33104 0
M  V30 3407 H 308.451 3.13446 -2.85531 0
M  V30 3408 C 306.91 3.0778 -1.37014 0
M  V30 3409 O 307.44 3.95436 -0.706621 0
M  V30 3410 N 305.646 2.68242 -1.11779 0
M  V30 3411 H 305.193 1.97052 -1.65917 0
M  V30 3412 H 305.151 3.1222 -0.369594 0
M  V30 3413 N 308.923 1.53595 0.353017 0
M  V30 3414 C 310.172 1.69603 1.09168 0
M  V30 3415 C 310.485 0.460925 1.90092 0
M  V30 3416 O 311.691 0.501774 2.66823 0
M  V30 3417 C 310.147 2.99872 1.9901 0
M  V30 3418 C 309.755 4.30687 1.23339 0
M  V30 3419 C 311.499 3.25246 2.72792 0
M  V30 3420 C 309.406 5.52036 2.12156 0
M  V30 3421 H 308.336 0.631966 0.411261 0
M  V30 3422 H 310.987 1.80096 0.351802 0
M  V30 3423 H 309.369 2.83212 2.7678 0
M  V30 3424 H 310.543 4.58019 0.505456 0
M  V30 3425 H 308.858 4.11853 0.613663 0
M  V30 3426 H 311.455 4.13095 3.39495 0
M  V30 3427 H 311.798 2.41846 3.38846 0
M  V30 3428 H 312.331 3.42638 2.021 0
M  V30 3429 H 309.07 6.37951 1.50659 0
M  V30 3430 H 308.59 5.28966 2.82764 0
M  V30 3431 H 310.269 5.87313 2.71427 0
M  V30 3432 N 310.401 -0.613514 1.45168 0
M  V30 3433 C 311.349 -1.74572 1.53712 0
M  V30 3434 C 312.343 -1.64426 0.407505 0
M  V30 3435 O 313.549 -1.70291 0.583176 0
M  V30 3436 H 309.924 -0.576641 0.48269 0
M  V30 3437 H 311.895 -1.64492 2.48968 0
M  V30 3438 C 310.644 -3.12943 1.51532 0
M  V30 3439 H 309.967 -3.21407 2.37776 0
M  V30 3440 H 311.407 -3.9201 1.61569 0
M  V30 3441 C 309.866 -3.36053 0.238798 0
M  V30 3442 O 310.396 -3.95837 -0.6838 0
M  V30 3443 N 308.602 -2.9028 0.136359 0
M  V30 3444 H 308.149 -2.41811 0.887999 0
M  V30 3445 H 308.107 -3.06116 -0.716944 0
M  V30 3446 N 311.879 -1.3236 -0.855495 0
M  V30 3447 C 312.826 -1.21225 -1.964 0
M  V30 3448 C 313.796 -0.0946204 -1.6583 0
M  V30 3449 O 314.981 -0.27002 -1.8888 0
M  V30 3450 C 312.121 -0.940419 -3.32039 0
M  V30 3451 C 311.234 -2.14276 -3.75113 0
M  V30 3452 C 310.369 -1.80648 -4.9954 0
M  V30 3453 C 309.408 -2.97208 -5.35102 0
M  V30 3454 N 308.545 -2.63678 -6.50706 0
M  V30 3455 H 313.385 -2.16042 -2.05255 0
M  V30 3456 H 310.922 -1.07451 -1.00463 0
M  V30 3457 H 312.88 -0.763311 -4.10158 0
M  V30 3458 H 311.51 -0.0290413 -3.22787 0
M  V30 3459 H 310.562 -2.43017 -2.92655 0
M  V30 3460 H 311.874 -3.01468 -3.97389 0
M  V30 3461 H 311.028 -1.59484 -5.85363 0
M  V30 3462 H 309.767 -0.906678 -4.79198 0
M  V30 3463 H 308.772 -3.19004 -4.47791 0
M  V30 3464 H 309.997 -3.87918 -5.57401 0
M  V30 3465 H 307.943 -1.76238 -6.31883 0
M  V30 3466 H 307.86 -3.444 -6.72997 0
M  V30 3467 H 309.128 -2.45942 -7.39684 0
M  V30 3468 N 313.357 1.07166 -1.15556 0
M  V30 3469 C 314.304 2.14417 -0.854055 0
M  V30 3470 C 315.274 1.64965 0.193806 0
M  V30 3471 O 316.459 1.90703 0.0609443 0
M  V30 3472 C 313.599 3.43304 -0.351574 0
M  V30 3473 C 312.712 4.06537 -1.46123 0
M  V30 3474 C 311.847 5.23266 -0.914677 0
M  V30 3475 C 310.886 5.78464 -2.00114 0
M  V30 3476 N 310.023 6.86521 -1.47083 0
M  V30 3477 H 314.863 2.39548 -1.77259 0
M  V30 3478 H 312.4 1.17543 -0.884425 0
M  V30 3479 H 314.358 4.17179 -0.0419409 0
M  V30 3480 H 312.988 3.18419 0.530037 0
M  V30 3481 H 312.04 3.30297 -1.88701 0
M  V30 3482 H 313.352 4.43567 -2.28144 0
M  V30 3483 H 312.506 6.04131 -0.557698 0
M  V30 3484 H 311.245 4.87658 -0.0636583 0
M  V30 3485 H 310.25 4.96243 -2.36692 0
M  V30 3486 H 311.475 6.16126 -2.85597 0
M  V30 3487 H 309.421 6.52849 -0.642198 0
M  V30 3488 H 309.338 7.22446 -2.22729 0
M  V30 3489 H 310.606 7.71087 -1.14215 0
M  V30 3490 N 314.835 0.952656 1.25548 0
M  V30 3491 C 315.765 0.489287 2.28316 0
M  V30 3492 C 316.746 -0.463359 1.63667 0
M  V30 3493 O 317.931 -0.36274 1.90782 0
M  V30 3494 C 315.061 -0.235603 3.465 0
M  V30 3495 C 314.015 0.631593 4.23314 0
M  V30 3496 C 313.341 -0.223923 5.34231 0
M  V30 3497 C 314.641 1.90871 4.86174 0
M  V30 3498 H 316.335 1.34822 2.67326 0
M  V30 3499 H 313.881 0.649728 1.28509 0
M  V30 3500 H 315.834 -0.570882 4.17515 0
M  V30 3501 H 314.558 -1.12877 3.06474 0
M  V30 3502 H 313.217 0.949929 3.54079 0
M  V30 3503 H 312.865 -1.11678 4.90446 0
M  V30 3504 H 312.565 0.35299 5.86539 0
M  V30 3505 H 314.089 -0.554214 6.0808 0
M  V30 3506 H 315.503 1.63997 5.49343 0
M  V30 3507 H 313.9 2.43112 5.4865 0
M  V30 3508 H 314.97 2.61304 4.08471 0
M  V30 3509 N 316.313 -1.40141 0.720998 0
M  V30 3510 C 317.261 -2.3252 0.0608547 0
M  V30 3511 C 318.255 -1.52326 -0.741152 0
M  V30 3512 O 319.461 -1.68089 -0.643911 0
M  V30 3513 H 315.836 -0.751999 0.000876664 0
M  V30 3514 H 317.807 -2.8584 0.856614 0
M  V30 3515 C 316.556 -3.37331 -0.842809 0
M  V30 3516 H 315.879 -3.99108 -0.235084 0
M  V30 3517 H 317.319 -4.04452 -1.27257 0
M  V30 3518 C 315.778 -2.73246 -1.97074 0
M  V30 3519 O 316.308 -2.59998 -3.06209 0
M  V30 3520 N 314.514 -2.31547 -1.75597 0
M  V30 3521 H 314.061 -2.42522 -0.868368 0
M  V30 3522 H 314.019 -1.89007 -2.51244 0
M  V30 3523 N 317.792 -0.46758 -1.50504 0
M  V30 3524 C 319.041 0.0902868 -2.01498 0
M  V30 3525 C 319.354 1.411 -1.35463 0
M  V30 3526 O 320.56 2.0536 -1.77594 0
M  V30 3527 C 319.016 0.21142 -3.59278 0
M  V30 3528 C 318.624 -1.10065 -4.34269 0
M  V30 3529 C 320.368 0.721433 -4.18325 0
M  V30 3530 C 318.275 -0.943505 -5.83825 0
M  V30 3531 H 317.205 0.037517 -0.753066 0
M  V30 3532 H 319.856 -0.601943 -1.73346 0
M  V30 3533 H 318.238 0.967352 -3.84003 0
M  V30 3534 H 319.412 -1.86726 -4.21272 0
M  V30 3535 H 317.727 -1.5415 -3.86816 0
M  V30 3536 H 320.324 0.85598 -5.27804 0
M  V30 3537 H 320.667 1.71186 -3.79475 0
M  V30 3538 H 321.2 0.0229843 -3.97793 0
M  V30 3539 H 317.939 -1.90719 -6.27141 0
M  V30 3540 H 317.459 -0.217213 -5.99407 0
M  V30 3541 H 319.138 -0.608715 -6.4413 0
M  V30 3542 N 319.27 1.56325 -0.20005 0
M  V30 3543 C 320.233 2.18084 0.705132 0
M  V30 3544 C 321.233 1.13666 1.1374 0
M  V30 3545 O 322.423 1.39023 1.04968 0
M  V30 3546 C 319.555 2.78689 1.96329 0
M  V30 3547 H 320.748 2.99435 0.167023 0
M  V30 3548 H 318.301 1.56221 0.0495725 0
M  V30 3549 H 319.036 2.0115 2.5438 0
M  V30 3550 H 318.821 3.55133 1.66202 0
M  V30 3551 H 320.311 3.26096 2.60866 0
M  V30 3552 N 320.748 -0.0735177 1.57428 0
M  V30 3553 C 321.995 -0.772999 1.87166 0
M  V30 3554 C 322.323 -1.77665 0.791551 0
M  V30 3555 O 321.578 -1.94541 -0.212636 0
M  V30 3556 C 321.877 -1.51799 3.23561 0
M  V30 3557 C 321.543 -0.654484 4.46125 0
M  V30 3558 C 320.205 -0.416511 4.79394 0
M  V30 3559 C 322.557 -0.0555862 5.2117 0
M  V30 3560 C 319.885 0.429869 5.85123 0
M  V30 3561 C 322.237 0.778239 6.27795 0
M  V30 3562 C 320.901 1.0261 6.59566 0
M  V30 3563 H 320.171 -0.282861 0.684888 0
M  V30 3564 H 322.818 -0.0338272 1.9147 0
M  V30 3565 H 321.123 -2.32932 3.1504 0
M  V30 3566 H 322.82 -2.06397 3.43804 0
M  V30 3567 H 319.41 -0.850091 4.20085 0
M  V30 3568 H 323.594 -0.226558 4.95783 0
M  V30 3569 H 318.85 0.630665 6.08139 0
M  V30 3570 H 323.024 1.24906 6.85107 0
M  V30 3571 H 320.651 1.68371 7.4132 0
M  V30 3572 N 322.226 -1.5378 -0.344866 0
M  V30 3573 C 323.472 -1.71216 -1.08687 0
M  V30 3574 C 323.805 -0.473281 -1.88345 0
M  V30 3575 O 323.08 0.52968 -1.87149 0
M  V30 3576 C 323.363 -2.97486 -2.02914 0
M  V30 3577 C 323.216 -4.31579 -1.26727 0
M  V30 3578 C 324.535 -3.19422 -3.0275 0
M  V30 3579 H 321.654 -0.62301 -0.393735 0
M  V30 3580 H 324.296 -1.8645 -0.365563 0
M  V30 3581 H 322.446 -2.84629 -2.64421 0
M  V30 3582 H 324.118 -4.56284 -0.67845 0
M  V30 3583 H 322.361 -4.30049 -0.569273 0
M  V30 3584 H 323.032 -5.16106 -1.95803 0
M  V30 3585 H 325.508 -3.316 -2.51357 0
M  V30 3586 H 324.384 -4.09169 -3.65885 0
M  V30 3587 H 324.645 -2.35656 -3.74057 0
M  V30 3588 N 323.704 0.605807 -1.45491 0
M  V30 3589 C 324.952 1.36207 -1.49305 0
M  V30 3590 C 325.273 1.94519 -0.136863 0
M  V30 3591 O 324.543 1.77261 0.833983 0
M  V30 3592 H 323.123 0.50565 -0.549843 0
M  V30 3593 H 325.785 0.711239 -1.81459 0
M  V30 3594 H 324.881 2.18058 -2.23287 0
M  V30 3595 N 325.182 1.32811 0.848464 0
M  V30 3596 C 326.459 1.14334 1.58704 0
M  V30 3597 C 326.839 -0.293948 2.09043 0
M  V30 3598 O 326.187 -1.29153 1.88499 0
M  V30 3599 C 326.397 2.17626 2.72837 0
M  V30 3600 C 327.745 2.51282 3.42261 0
M  V30 3601 O 328.769 2.16219 2.83068 0
M  V30 3602 O 327.628 3.11413 4.49093 0
M  V30 3603 H 324.722 0.441601 0.699226 0
M  V30 3604 H 327.268 1.44362 0.892053 0
M  V30 3605 H 326.04 3.14211 2.3321 0
M  V30 3606 H 325.663 1.88628 3.50008 0
M  V30 3607 N 326.66 -1.06551 1.16123 0
M  V30 3608 C 327.59 -2.15935 0.88851 0
M  V30 3609 C 328.571 -1.69306 -0.164135 0
M  V30 3610 O 329.756 -1.94193 -0.0167857 0
M  V30 3611 C 326.886 -3.45149 0.385942 0
M  V30 3612 C 325.84 -4.05271 1.3762 0
M  V30 3613 C 325.166 -5.29664 0.732137 0
M  V30 3614 C 326.466 -4.44355 2.74493 0
M  V30 3615 H 328.16 -2.39006 1.80323 0
M  V30 3616 H 325.706 -1.14866 0.868435 0
M  V30 3617 H 327.659 -4.21004 0.182647 0
M  V30 3618 H 326.383 -3.21689 -0.564274 0
M  V30 3619 H 325.042 -3.3147 1.56599 0
M  V30 3620 H 324.69 -5.02499 -0.224483 0
M  V30 3621 H 324.39 -5.70848 1.39307 0
M  V30 3622 H 325.914 -6.08218 0.538802 0
M  V30 3623 H 327.328 -5.11303 2.59311 0
M  V30 3624 H 325.725 -4.96515 3.37035 0
M  V30 3625 H 326.795 -3.55339 3.29943 0
M  V30 3626 N 328.138 -0.959301 -1.25041 0
M  V30 3627 C 329.085 -0.482057 -2.2571 0
M  V30 3628 C 330.055 0.467939 -1.59372 0
M  V30 3629 O 331.24 0.380159 -1.86974 0
M  V30 3630 C 328.38 0.229623 -3.44335 0
M  V30 3631 C 327.493 -0.758156 -4.25295 0
M  V30 3632 C 326.628 -0.0234403 -5.31195 0
M  V30 3633 C 325.667 -1.00184 -6.03846 0
M  V30 3634 N 324.804 -0.29769 -7.01469 0
M  V30 3635 H 329.644 -1.34538 -2.65901 0
M  V30 3636 H 327.181 -0.674592 -1.3072 0
M  V30 3637 H 329.139 0.658856 -4.11965 0
M  V30 3638 H 327.769 1.05696 -3.05005 0
M  V30 3639 H 326.821 -1.30586 -3.57284 0
M  V30 3640 H 328.133 -1.50458 -4.75567 0
M  V30 3641 H 327.287 0.464201 -6.04922 0
M  V30 3642 H 326.026 0.755741 -4.81809 0
M  V30 3643 H 325.031 -1.50044 -5.2893 0
M  V30 3644 H 326.256 -1.78133 -6.55321 0
M  V30 3645 H 324.202 0.462668 -6.54366 0
M  V30 3646 H 324.119 -0.983128 -7.4958 0
M  V30 3647 H 325.387 0.16826 -7.79318 0
M  V30 3648 N 329.616 1.39756 -0.72842 0
M  V30 3649 C 330.564 2.32485 -0.0731849 0
M  V30 3650 C 331.558 1.52717 0.733063 0
M  V30 3651 O 332.764 1.68428 0.634988 0
M  V30 3652 H 329.139 0.751984 -0.00486469 0
M  V30 3653 H 331.11 2.85382 -0.871761 0
M  V30 3654 C 329.859 3.37773 0.824908 0
M  V30 3655 H 329.182 3.99227 0.213915 0
M  V30 3656 H 330.622 4.05121 1.25111 0
M  V30 3657 C 329.081 2.74287 1.95622 0
M  V30 3658 O 329.611 2.61618 3.04826 0
M  V30 3659 N 327.817 2.32475 1.74367 0
M  V30 3660 H 327.364 2.4298 0.855494 0
M  V30 3661 H 327.322 1.90337 2.50238 0
M  V30 3662 N 331.094 0.475555 1.50254 0
M  V30 3663 C 332.342 -0.077738 2.0195 0
M  V30 3664 C 332.663 -1.39813 1.35931 0
M  V30 3665 O 331.933 -1.89249 0.506123 0
M  V30 3666 H 330.513 -0.031719 0.746326 0
M  V30 3667 H 333.175 0.626995 1.84539 0
M  V30 3668 H 332.271 -0.225995 3.11281 0
M  V30 3669 N 332.573 -1.56217 0.208337 0
M  V30 3670 C 333.989 -1.58919 -0.14729 0
M  V30 3671 C 334.189 -1.22486 -1.59998 0
M  V30 3672 O 333.245 -0.953849 -2.3379 0
M  V30 3673 C 334.558 -3.00236 0.167048 0
M  V30 3674 C 336.106 -3.12813 0.108219 0
M  V30 3675 C 336.581 -4.56284 0.396049 0
M  V30 3676 N 338.072 -4.61912 0.345142 0
M  V30 3677 C 338.807 -5.70837 0.541523 0
M  V30 3678 N 338.303 -6.88178 0.798968 0
M  V30 3679 N 340.096 -5.60091 0.474867 0
M  V30 3680 H 332.247 -1.78177 1.15614 0
M  V30 3681 H 334.51 -0.827555 0.462446 0
M  V30 3682 H 334.216 -3.31499 1.1748 0
M  V30 3683 H 334.09 -3.7354 -0.524184 0
M  V30 3684 H 336.477 -2.81354 -0.890157 0
M  V30 3685 H 336.558 -2.41866 0.832729 0
M  V30 3686 H 336.202 -4.88458 1.3918 0
M  V30 3687 H 336.132 -5.25439 -0.349502 0
M  V30 3688 H 338.623 -3.77589 0.153316 0
M  V30 3689 H 338.936 -7.67095 0.93727 0
M  V30 3690 H 337.281 -6.89953 0.836013 0
M  V30 3691 H 340.472 -4.67297 0.274064 0
M  V30 3692 H 340.645 -6.44917 0.631326 0
M  V30 3693 N 334.051 0.0651679 -1.57465 0
M  V30 3694 C 335.279 0.775808 -1.91804 0
M  V30 3695 C 335.694 1.70782 -0.804916 0
M  V30 3696 O 335.051 1.81153 0.221311 0
M  V30 3697 C 335.102 1.56381 -3.25925 0
M  V30 3698 O 334.823 0.669248 -4.32958 0
M  V30 3699 C 336.324 2.37485 -3.7432 0
M  V30 3700 H 333.544 0.2202 -0.63384 0
M  V30 3701 H 336.088 0.0334587 -2.04473 0
M  V30 3702 H 334.243 2.25837 -3.14764 0
M  V30 3703 H 334.657 1.21801 -5.10162 0
M  V30 3704 H 336.131 2.88223 -4.70778 0
M  V30 3705 H 336.608 3.17307 -3.03666 0
M  V30 3706 H 337.214 1.73173 -3.88447 0
M  V30 3707 N 335.529 1.53961 0.336706 0
M  V30 3708 C 336.775 1.7179 1.07777 0
M  V30 3709 C 337.108 0.483263 1.88091 0
M  V30 3710 O 336.383 -0.519747 1.87427 0
M  V30 3711 C 336.666 2.98558 2.01334 0
M  V30 3712 C 336.519 4.32245 1.24437 0
M  V30 3713 C 337.838 3.21023 3.01052 0
M  V30 3714 H 334.957 0.625089 0.390426 0
M  V30 3715 H 337.599 1.86641 0.35567 0
M  V30 3716 H 335.749 2.86028 2.62908 0
M  V30 3717 H 337.421 4.56637 0.654243 0
M  V30 3718 H 335.664 4.30344 0.546458 0
M  V30 3719 H 336.335 5.17137 1.93063 0
M  V30 3720 H 338.811 3.32929 2.49595 0
M  V30 3721 H 337.687 4.11104 3.6371 0
M  V30 3722 H 337.948 2.37637 3.72802 0
M  V30 3723 N 337.007 -0.598083 1.45811 0
M  V30 3724 C 337.957 -1.70272 1.51629 0
M  V30 3725 C 338.941 -1.56382 0.378629 0
M  V30 3726 O 340.133 -1.65557 0.626087 0
M  V30 3727 C 337.262 -3.09042 1.49493 0
M  V30 3728 C 336.348 -3.28284 2.68496 0
M  V30 3729 N 336.739 -3.17748 3.93535 0
M  V30 3730 C 335.037 -3.59182 2.64394 0
M  V30 3731 C 335.738 -3.38579 4.7301 0
M  V30 3732 N 334.714 -3.63016 4.04624 0
M  V30 3733 H 338.516 -1.60634 2.46118 0
M  V30 3734 H 336.03 -0.801642 1.41235 0
M  V30 3735 H 338.027 -3.88302 1.51747 0
M  V30 3736 H 336.687 -3.19823 0.560683 0
M  V30 3737 H 337.698 -2.95944 4.25014 0
M  V30 3738 H 334.375 -3.76742 1.79922 0
M  V30 3739 H 335.765 -3.35747 5.82 0
M  V30 3740 N 338.485 -1.33259 -0.841409 0
M  V30 3741 C 339.71 -1.2775 -1.63385 0
M  V30 3742 C 340.135 0.149188 -1.87507 0
M  V30 3743 O 339.493 1.10498 -1.43736 0
M  V30 3744 C 339.541 -2.05571 -2.96265 0
M  V30 3745 O 338.645 -1.41257 -3.87453 0
M  V30 3746 H 337.986 -0.439627 -0.497618 0
M  V30 3747 H 340.516 -1.75782 -1.04699 0
M  V30 3748 H 340.526 -2.16241 -3.45982 0
M  V30 3749 H 339.201 -3.09309 -2.7803 0
M  V30 3750 H 337.778 -1.39217 -3.45938 0
M  V30 3751 N 339.963 1.05934 -1.16686 0
M  V30 3752 C 340.893 2.1546 -0.899949 0
M  V30 3753 C 341.874 1.69391 0.155154 0
M  V30 3754 O 343.059 1.94199 0.00648693 0
M  V30 3755 C 340.189 3.44939 -0.404241 0
M  V30 3756 C 339.143 4.04536 -1.39767 0
M  V30 3757 C 338.469 5.29268 -0.760216 0
M  V30 3758 C 339.769 4.42893 -2.76845 0
M  V30 3759 H 341.463 2.38046 -1.81588 0
M  V30 3760 H 339.009 1.14404 -0.874514 0
M  V30 3761 H 340.962 4.20901 -0.204971 0
M  V30 3762 H 339.686 3.21983 0.547206 0
M  V30 3763 H 338.345 3.30635 -1.58355 0
M  V30 3764 H 337.993 5.02611 0.197831 0
M  V30 3765 H 337.693 5.70101 -1.42332 0
M  V30 3766 H 339.217 6.07924 -0.57105 0
M  V30 3767 H 340.631 5.09921 -2.62019 0
M  V30 3768 H 339.028 4.94721 -3.39663 0
M  V30 3769 H 340.098 3.53584 -3.31823 0
M  V30 3770 N 341.441 0.965919 1.2453 0
M  V30 3771 C 342.666 0.643971 1.97149 0
M  V30 3772 C 343.091 -0.779487 1.71189 0
M  V30 3773 O 342.449 -1.5288 0.974553 0
M  V30 3774 C 342.497 0.922557 3.48599 0
M  V30 3775 O 341.601 0.00707672 4.12399 0
M  V30 3776 H 340.942 0.243647 0.617683 0
M  V30 3777 H 343.472 1.29558 1.58353 0
M  V30 3778 H 343.482 0.853373 3.98976 0
M  V30 3779 H 342.157 1.95996 3.66822 0
M  V30 3780 H 340.734 0.12943 3.72675 0
M  V30 3781 N 342.919 -1.39368 0.735821 0
M  V30 3782 C 343.866 -2.30599 0.0963825 0
M  V30 3783 C 344.836 -1.49257 -0.728794 0
M  V30 3784 O 346.021 -1.77941 -0.688588 0
M  V30 3785 C 343.161 -3.35596 -0.804305 0
M  V30 3786 C 342.274 -4.31987 0.0335761 0
M  V30 3787 C 341.409 -5.24053 -0.868461 0
M  V30 3788 C 340.448 -6.12095 -0.0258776 0
M  V30 3789 N 339.585 -6.96514 -0.883893 0
M  V30 3790 H 344.425 -2.8471 0.880002 0
M  V30 3791 H 341.962 -1.40188 0.445619 0
M  V30 3792 H 343.92 -3.95062 -1.34096 0
M  V30 3793 H 342.55 -2.82938 -1.55389 0
M  V30 3794 H 341.602 -3.74133 0.68766 0
M  V30 3795 H 342.914 -4.94074 0.685036 0
M  V30 3796 H 342.068 -5.88549 -1.47293 0
M  V30 3797 H 340.807 -4.62289 -1.5537 0
M  V30 3798 H 339.812 -5.4661 0.591386 0
M  V30 3799 H 341.037 -6.75923 0.656156 0
M  V30 3800 H 338.983 -6.37318 -1.55441 0
M  V30 3801 H 338.9 -7.55448 -0.288931 0
M  V30 3802 H 340.168 -7.65439 -1.4739 0
M  V30 3803 N 344.397 -0.483516 -1.5 0
M  V30 3804 C 345.327 0.293829 -2.31644 0
M  V30 3805 C 346.308 0.978864 -1.39112 0
M  V30 3806 O 347.493 0.973644 -1.68029 0
M  V30 3807 C 344.623 1.36897 -3.19181 0
M  V30 3808 C 343.577 0.804833 -4.20365 0
M  V30 3809 C 342.903 1.9792 -4.96721 0
M  V30 3810 C 344.203 -0.192313 -5.21946 0
M  V30 3811 H 345.897 -0.387616 -2.9688 0
M  V30 3812 H 343.443 -0.187856 -1.42769 0
M  V30 3813 H 345.396 1.92037 -3.751 0
M  V30 3814 H 344.12 2.07936 -2.51853 0
M  V30 3815 H 342.779 0.275319 -3.65565 0
M  V30 3816 H 342.427 2.67686 -4.25856 0
M  V30 3817 H 342.127 1.60789 -5.65173 0
M  V30 3818 H 343.651 2.53526 -5.55479 0
M  V30 3819 H 345.065 0.270333 -5.72662 0
M  V30 3820 H 343.462 -0.478543 -5.98189 0
M  V30 3821 H 344.532 -1.11409 -4.71928 0
M  V30 3822 N 345.875 1.56104 -0.216619 0
M  V30 3823 C 346.805 2.23063 0.690296 0
M  V30 3824 C 347.786 1.20072 1.20485 0
M  V30 3825 O 348.971 1.48643 1.24976 0
M  V30 3826 C 346.101 2.90672 1.90072 0
M  V30 3827 C 345.055 4.00092 1.5202 0
M  V30 3828 C 344.381 4.54972 2.80899 0
M  V30 3829 C 345.681 5.17398 0.71391 0
M  V30 3830 H 347.375 2.99109 0.132038 0
M  V30 3831 H 344.921 1.43866 0.0620664 0
M  V30 3832 H 346.874 3.36204 2.54057 0
M  V30 3833 H 345.598 2.12066 2.48386 0
M  V30 3834 H 344.257 3.55283 0.903839 0
M  V30 3835 H 343.905 3.73102 3.37348 0
M  V30 3836 H 343.605 5.28817 2.56176 0
M  V30 3837 H 345.129 5.0322 3.45836 0
M  V30 3838 H 346.543 5.59342 1.25735 0
M  V30 3839 H 344.94 5.97444 0.563951 0
M  V30 3840 H 346.01 4.84088 -0.280527 0
M  V30 3841 N 347.353 -0.0568162 1.57498 0
M  V30 3842 C 348.578 -0.769402 1.92601 0
M  V30 3843 C 349.003 -1.69559 0.814336 0
M  V30 3844 O 348.361 -1.79811 -0.231903 0
M  V30 3845 C 348.409 -1.52634 3.26704 0
M  V30 3846 O 347.513 -2.63797 3.16994 0
M  V30 3847 H 346.854 -0.208909 0.63028 0
M  V30 3848 H 349.384 -0.0205798 2.0459 0
M  V30 3849 H 349.394 -1.90234 3.60936 0
M  V30 3850 H 348.069 -0.846875 4.07186 0
M  V30 3851 H 346.646 -2.28943 2.94346 0
M  V30 3852 N 348.832 -1.54138 -0.328536 0
M  V30 3853 C 350.248 -1.44736 -0.672574 0
M  V30 3854 C 350.448 -0.616217 -1.91846 0
M  V30 3855 O 349.504 -0.113067 -2.52247 0
M  V30 3856 C 350.817 -2.884 -0.851217 0
M  V30 3857 C 352.365 -2.98271 -0.948877 0
M  V30 3858 C 352.84 -4.43074 -1.15973 0
M  V30 3859 N 354.331 -4.46665 -1.22658 0
M  V30 3860 C 355.066 -5.55857 -1.40751 0
M  V30 3861 N 354.562 -6.75026 -1.5592 0
M  V30 3862 N 356.355 -5.43495 -1.4342 0
M  V30 3863 H 348.506 -2.06661 0.490421 0
M  V30 3864 H 350.769 -0.934812 0.157579 0
M  V30 3865 H 350.475 -3.51699 -0.00704236 0
M  V30 3866 H 350.349 -3.34225 -1.74853 0
M  V30 3867 H 352.736 -2.35102 -1.78356 0
M  V30 3868 H 352.817 -2.55785 -0.0281435 0
M  V30 3869 H 352.461 -5.06827 -0.329915 0
M  V30 3870 H 352.391 -4.83165 -2.09426 0
M  V30 3871 H 354.882 -3.60797 -1.124 0
M  V30 3872 H 355.195 -7.54004 -1.69404 0
M  V30 3873 H 353.54 -6.77944 -1.53027 0
M  V30 3874 H 356.731 -4.49349 -1.31162 0
M  V30 3875 H 356.904 -6.28649 -1.57178 0
M  V30 3876 N 350.31 0.590341 -1.46126 0
M  V30 3877 C 351.54 1.37304 -1.54373 0
M  V30 3878 C 351.948 1.88332 -0.181071 0
M  V30 3879 O 351.291 1.63852 0.830559 0
M  V30 3880 C 351.353 2.6012 -2.48149 0
M  V30 3881 C 351.017 2.30613 -3.94546 0
M  V30 3882 C 352.014 1.89915 -4.83971 0
M  V30 3883 C 349.699 2.42993 -4.39613 0
M  V30 3884 C 351.693 1.61981 -6.16475 0
M  V30 3885 C 349.38 2.14672 -5.72153 0
M  V30 3886 C 350.378 1.7423 -6.60404 0
M  V30 3887 O 350.066 1.46251 -7.90485 0
M  V30 3888 H 349.798 0.426086 -0.524811 0
M  V30 3889 H 352.352 0.72539 -1.92165 0
M  V30 3890 H 350.582 3.27664 -2.05361 0
M  V30 3891 H 352.271 3.22182 -2.46887 0
M  V30 3892 H 353.037 1.79872 -4.50412 0
M  V30 3893 H 348.916 2.73435 -3.71153 0
M  V30 3894 H 352.46 1.30341 -6.85315 0
M  V30 3895 H 348.357 2.24337 -6.05263 0
M  V30 3896 H 349.125 1.6016 -8.02677 0
M  V30 3897 N 351.788 1.33704 0.83433 0
M  V30 3898 C 352.736 1.24323 1.96587 0
M  V30 3899 C 353.73 0.143659 1.6879 0
M  V30 3900 O 354.936 0.30791 1.77347 0
M  V30 3901 H 351.311 0.385925 0.645419 0
M  V30 3902 H 353.282 2.19978 2.01624 0
M  V30 3903 C 352.031 1.00394 3.32891 0
M  V30 3904 H 351.354 1.84231 3.54822 0
M  V30 3905 H 352.794 0.97862 4.12552 0
M  V30 3906 C 351.253 -0.293047 3.35623 0
M  V30 3907 O 351.783 -1.29823 3.80143 0
M  V30 3908 N 349.989 -0.322174 2.88809 0
M  V30 3909 H 349.536 0.496379 2.52772 0
M  V30 3910 H 349.494 -1.18977 2.91019 0
M  V30 3911 N 353.266 -1.05314 1.17247 0
M  V30 3912 C 354.512 -1.78557 0.961513 0
M  V30 3913 C 354.845 -1.87419 -0.508697 0
M  V30 3914 O 354.12 -1.37307 -1.37757 0
M  V30 3915 C 354.403 -3.22514 1.60176 0
M  V30 3916 C 354.256 -3.21673 3.14399 0
M  V30 3917 C 355.575 -4.20318 1.30463 0
M  V30 3918 H 352.694 -0.6482 0.350723 0
M  V30 3919 H 355.336 -1.23102 1.44727 0
M  V30 3920 H 353.486 -3.69867 1.18871 0
M  V30 3921 H 355.158 -2.82405 3.64753 0
M  V30 3922 H 353.401 -2.60048 3.47214 0
M  V30 3923 H 354.072 -4.23271 3.54324 0
M  V30 3924 H 356.548 -3.81454 1.66229 0
M  V30 3925 H 355.424 -5.19289 1.77848 0
M  V30 3926 H 355.685 -4.41526 0.22521 0
M  V30 3927 N 354.744 -0.972509 -1.24016 0
M  V30 3928 C 355.969 -0.654417 -1.96805 0
M  V30 3929 C 356.394 0.770398 -1.716 0
M  V30 3930 O 355.752 1.52361 -0.982647 0
M  V30 3931 C 355.8 -0.941031 -3.48105 0
M  V30 3932 O 354.904 -0.0289472 -4.1239 0
M  V30 3933 H 354.245 -0.24692 -0.616382 0
M  V30 3934 H 356.775 -1.30396 -1.57664 0
M  V30 3935 H 356.785 -0.87452 -3.98517 0
M  V30 3936 H 355.46 -1.97939 -3.65777 0
M  V30 3937 H 354.037 -0.149192 -3.72601 0
M  V30 3938 N 356.222 1.38976 -0.743202 0
M  V30 3939 C 357.469 2.00343 -0.294752 0
M  V30 3940 C 357.797 1.58983 1.12047 0
M  V30 3941 O 357.052 0.813809 1.77977 0
M  V30 3942 C 357.351 3.55647 -0.353517 0
M  V30 3943 C 357.017 4.16685 -1.72292 0
M  V30 3944 C 355.679 4.3307 -2.09771 0
M  V30 3945 C 358.031 4.50464 -2.62168 0
M  V30 3946 C 355.359 4.80526 -3.36618 0
M  V30 3947 C 357.711 4.99332 -3.88395 0
M  V30 3948 C 356.375 5.13924 -4.25956 0
M  V30 3949 H 355.645 0.733108 -0.107857 0
M  V30 3950 H 358.292 1.6618 -0.951651 0
M  V30 3951 H 356.597 3.89884 0.386954 0
M  V30 3952 H 358.294 4.00998 0.0117269 0
M  V30 3953 H 354.884 4.04339 -1.42155 0
M  V30 3954 H 359.068 4.37416 -2.3448 0
M  V30 3955 H 354.324 4.90008 -3.65653 0
M  V30 3956 H 358.498 5.2444 -4.58187 0
M  V30 3957 H 356.125 5.50457 -5.2431 0
M  V30 3958 N 357.7 0.491464 1.49741 0
M  V30 3959 C 358.648 -0.305837 2.30581 0
M  V30 3960 C 359.642 -0.971642 1.38764 0
M  V30 3961 O 360.848 -0.90042 1.5586 0
M  V30 3962 H 357.223 -0.117482 0.742767 0
M  V30 3963 H 359.194 0.396093 2.95759 0
M  V30 3964 C 357.943 -1.36319 3.19863 0
M  V30 3965 H 357.266 -0.860258 3.90435 0
M  V30 3966 H 358.706 -1.89323 3.79385 0
M  V30 3967 C 357.165 -2.37621 2.38826 0
M  V30 3968 O 357.695 -3.43311 2.08567 0
M  V30 3969 N 355.901 -2.09849 2.01026 0
M  V30 3970 H 355.448 -1.23922 2.25834 0
M  V30 3971 H 355.406 -2.77859 1.47112 0
M  V30 3972 N 359.178 -1.55987 0.224894 0
M  V30 3973 C 360.425 -1.9839 -0.4059 0
M  V30 3974 C 360.753 -1.11261 -1.59535 0
M  V30 3975 O 360.008 -0.158314 -1.95059 0
M  V30 3976 C 360.307 -3.46394 -0.880106 0
M  V30 3977 C 359.973 -4.5046 0.19918 0
M  V30 3978 C 358.635 -4.7864 0.495661 0
M  V30 3979 C 360.987 -5.12855 0.928939 0
M  V30 3980 C 358.315 -5.66497 1.52636 0
M  V30 3981 C 360.667 -6.01828 1.949 0
M  V30 3982 C 359.331 -6.28351 2.25236 0
M  V30 3983 H 358.601 -0.725961 -0.148529 0
M  V30 3984 H 361.248 -1.88668 0.328113 0
M  V30 3985 H 359.553 -3.53337 -1.69294 0
M  V30 3986 H 361.25 -3.76577 -1.37808 0
M  V30 3987 H 357.84 -4.28579 -0.0420526 0
M  V30 3988 H 362.024 -4.9115 0.713129 0
M  V30 3989 H 357.28 -5.8531 1.76698 0
M  V30 3990 H 361.454 -6.49225 2.51951 0
M  V30 3991 H 359.081 -6.96226 3.05244 0
M  V30 3992 N 360.656 0.0484629 -1.57525 0
M  V30 3993 C 361.902 0.744226 -1.88651 0
M  V30 3994 C 362.235 1.76029 -0.820212 0
M  V30 3995 O 361.51 1.93782 0.166985 0
M  V30 3996 C 361.793 1.43128 -3.30434 0
M  V30 3997 C 361.646 0.43005 -4.47739 0
M  V30 3998 C 362.965 2.37031 -3.70816 0
M  V30 3999 H 360.084 0.269089 -0.68612 0
M  V30 4000 H 362.726 0.00713532 -1.89999 0
M  V30 4001 H 360.876 2.05956 -3.29415 0
M  V30 4002 H 362.548 -0.194816 -4.60888 0
M  V30 4003 H 360.791 -0.252522 -4.33064 0
M  V30 4004 H 361.462 0.948874 -5.43783 0
M  V30 4005 H 363.938 1.84263 -3.73077 0
M  V30 4006 H 362.814 2.82094 -4.70865 0
M  V30 4007 H 363.075 3.22864 -3.02012 0
M  V30 4008 N 362.134 1.5431 0.320358 0
M  V30 4009 C 363.359 1.76954 1.08175 0
M  V30 4010 C 363.784 0.518193 1.80821 0
M  V30 4011 O 363.142 -0.530411 1.73368 0
M  V30 4012 C 363.19 2.96451 2.05303 0
M  V30 4013 O 362.294 2.68221 3.13259 0
M  V30 4014 H 361.635 0.586275 0.311733 0
M  V30 4015 H 364.165 2.01342 0.363676 0
M  V30 4016 H 364.175 3.23887 2.48116 0
M  V30 4017 H 362.85 3.87196 1.51829 0
M  V30 4018 H 361.427 2.51744 2.75099 0
M  V30 4019 N 363.613 -0.582584 1.46437 0
M  V30 4020 C 364.853 -1.35184 1.53312 0
M  V30 4021 C 365.217 -1.9115 0.180508 0
M  V30 4022 O 366.418 -2.68514 0.124017 0
M  V30 4023 C 364.689 -2.45089 2.60127 0
M  V30 4024 S 366.248 -3.32439 2.86408 0
M  V30 4025 H 363.066 -0.460559 0.54167 0
M  V30 4026 H 365.668 -0.669709 1.83671 0
M  V30 4027 H 364.372 -2.02366 3.57038 0
M  V30 4028 H 363.903 -3.18074 2.315 0
M  V30 4029 H 365.918 -4.43924 2.21688 0
M  V30 4030 N 365.091 -1.34144 -0.827227 0
M  V30 4031 C 366.038 -1.25364 -1.93785 0
M  V30 4032 C 367.008 -0.129774 -1.65592 0
M  V30 4033 O 368.193 -0.310024 -1.88264 0
M  V30 4034 C 365.333 -1.01064 -3.2997 0
M  V30 4035 C 364.446 -2.22185 -3.70484 0
M  V30 4036 C 363.581 -1.91203 -4.95595 0
M  V30 4037 C 362.62 -3.08491 -5.28677 0
M  V30 4038 N 361.757 -2.77421 -6.44967 0
M  V30 4039 H 366.597 -2.20347 -2.00627 0
M  V30 4040 H 364.134 -1.09558 -0.981608 0
M  V30 4041 H 366.092 -0.850139 -4.08446 0
M  V30 4042 H 364.722 -0.0975026 -3.22653 0
M  V30 4043 H 363.774 -2.4917 -2.87434 0
M  V30 4044 H 365.086 -3.0983 -3.90905 0
M  V30 4045 H 364.24 -1.71864 -5.81848 0
M  V30 4046 H 362.979 -1.00812 -4.77167 0
M  V30 4047 H 361.984 -3.28431 -4.40923 0
M  V30 4048 H 363.209 -3.99655 -5.49047 0
M  V30 4049 H 361.155 -1.89601 -6.28003 0
M  V30 4050 H 361.072 -3.58598 -6.6554 0
M  V30 4051 H 362.34 -2.61577 -7.34301 0
M  V30 4052 N 366.569 1.04691 -1.17803 0
M  V30 4053 C 367.794 1.81984 -0.994813 0
M  V30 4054 C 368.219 1.82586 0.452112 0
M  V30 4055 O 367.577 1.23854 1.324 0
M  V30 4056 C 367.625 3.2575 -1.54659 0
M  V30 4057 O 366.729 4.05267 -0.763728 0
M  V30 4058 H 366.07 0.562483 -0.352857 0
M  V30 4059 H 368.6 1.3189 -1.56417 0
M  V30 4060 H 368.61 3.76541 -1.57102 0
M  V30 4061 H 367.285 3.24627 -2.59981 0
M  V30 4062 H 365.862 3.63972 -0.811108 0
M  V30 4063 N 368.047 0.979072 1.23499 0
M  V30 4064 C 368.977 0.537606 2.27227 0
M  V30 4065 C 369.958 -0.428539 1.64613 0
M  V30 4066 O 371.143 -0.322191 1.91509 0
M  V30 4067 C 368.273 -0.162052 3.46922 0
M  V30 4068 C 367.227 0.721242 4.21879 0
M  V30 4069 C 366.553 -0.110555 5.34586 0
M  V30 4070 C 367.853 2.01141 4.82016 0
M  V30 4071 H 369.547 1.40462 2.64406 0
M  V30 4072 H 367.093 0.67684 1.27102 0
M  V30 4073 H 369.046 -0.482192 4.18632 0
M  V30 4074 H 367.77 -1.06351 3.08799 0
M  V30 4075 H 366.429 1.02482 3.51984 0
M  V30 4076 H 366.077 -1.0125 4.92704 0
M  V30 4077 H 365.777 0.477325 5.85658 0
M  V30 4078 H 367.301 -0.425107 6.09118 0
M  V30 4079 H 368.715 1.75612 5.45741 0
M  V30 4080 H 367.112 2.54695 5.43369 0
M  V30 4081 H 368.182 2.69909 4.02836 0
M  V30 4082 N 369.525 -1.3858 0.750561 0
M  V30 4083 C 370.473 -2.32339 0.110162 0
M  V30 4084 C 371.467 -1.53864 -0.708674 0
M  V30 4085 O 372.673 -1.69417 -0.608112 0
M  V30 4086 H 369.048 -0.751812 0.0168275 0
M  V30 4087 H 371.019 -2.83959 0.917053 0
M  V30 4088 C 369.768 -3.39043 -0.771067 0
M  V30 4089 H 369.091 -3.99517 -0.150374 0
M  V30 4090 H 370.531 -4.07061 -1.1865 0
M  V30 4091 C 368.99 -2.77365 -1.91234 0
M  V30 4092 O 369.52 -2.66434 -3.00626 0
M  V30 4093 N 367.726 -2.35219 -1.70646 0
M  V30 4094 H 367.273 -2.4431 -0.81673 0
M  V30 4095 H 367.231 -1.94294 -2.47178 0
M  V30 4096 N 371.003 -0.499398 -1.49478 0
M  V30 4097 C 372.252 0.0475259 -2.01644 0
M  V30 4098 C 372.565 1.38195 -1.38425 0
M  V30 4099 O 373.771 2.01547 -1.8191 0
M  V30 4100 C 372.227 0.135164 -3.59646 0
M  V30 4101 C 371.835 -1.19252 -4.31837 0
M  V30 4102 C 373.579 0.632538 -4.19761 0
M  V30 4103 C 371.486 -1.06713 -5.81693 0
M  V30 4104 H 370.416 0.0215349 -0.753692 0
M  V30 4105 H 373.067 -0.638577 -1.7203 0
M  V30 4106 H 371.449 0.885681 -3.85969 0
M  V30 4107 H 372.623 -1.9562 -4.17216 0
M  V30 4108 H 370.938 -1.62321 -3.83459 0
M  V30 4109 H 373.535 0.743833 -5.29501 0
M  V30 4110 H 373.878 1.63098 -3.83021 0
M  V30 4111 H 374.411 -0.0613987 -3.97753 0
M  V30 4112 H 371.15 -2.03979 -6.22955 0
M  V30 4113 H 370.67 -0.344307 -5.98811 0
M  V30 4114 H 372.349 -0.745208 -6.42694 0
M  V30 4115 N 372.481 1.55866 -0.233164 0
M  V30 4116 C 373.892 1.847 0.272554 0
M  V30 4117 C 374.243 1.15477 1.58617 0
M  V30 4118 O 373.368 0.42841 2.12117 0
M  V30 4119 C 373.963 3.35071 0.501299 0
M  V30 4120 C 372.522 3.6418 0.951304 0
M  V30 4121 C 371.669 2.77292 0.0208209 0
M  V30 4122 H 374.62 1.52005 -0.456074 0
M  V30 4123 H 374.641 3.55906 1.34577 0
M  V30 4124 H 374.153 3.85424 -0.454936 0
M  V30 4125 H 372.254 3.19293 1.92049 0
M  V30 4126 H 372.367 4.72071 0.817675 0
M  V30 4127 H 370.731 2.49131 0.529723 0
M  V30 4128 H 371.514 3.30448 -0.93054 0
M  V30 4129 N 373.959 -0.0401083 1.57549 0
M  V30 4130 C 374.906 -1.04413 2.05831 0
M  V30 4131 C 375.876 -1.36585 0.945184 0
M  V30 4132 O 377.061 -1.47112 1.21502 0
M  V30 4133 C 374.201 -2.34336 2.53339 0
M  V30 4134 C 373.314 -2.08419 3.78398 0
M  V30 4135 C 372.449 -3.32133 4.14561 0
M  V30 4136 C 371.488 -3.01721 5.3257 0
M  V30 4137 N 370.625 -4.17855 5.64218 0
M  V30 4138 H 375.465 -0.625442 2.91363 0
M  V30 4139 H 373.002 -0.297218 1.44066 0
M  V30 4140 H 374.96 -3.10234 2.78946 0
M  V30 4141 H 373.59 -2.73948 1.7074 0
M  V30 4142 H 372.642 -1.23069 3.59942 0
M  V30 4143 H 373.954 -1.81978 4.64419 0
M  V30 4144 H 373.108 -4.16406 4.41238 0
M  V30 4145 H 371.847 -3.61678 3.2717 0
M  V30 4146 H 370.852 -2.15849 5.05657 0
M  V30 4147 H 372.077 -2.73466 6.21605 0
M  V30 4148 H 370.023 -4.47372 4.79786 0
M  V30 4149 H 369.94 -3.94798 6.44725 0
M  V30 4150 H 371.208 -5.03033 5.95465 0
M  V30 4151 N 375.437 -1.54477 -0.31217 0
M  V30 4152 C 376.714 -1.63891 -1.06767 0
M  V30 4153 C 377.094 -0.480028 -2.0557 0
M  V30 4154 O 376.442 0.524487 -2.22399 0
M  V30 4155 C 376.652 -3.01402 -1.75948 0
M  V30 4156 C 378 -3.57838 -2.28554 0
M  V30 4157 O 379.024 -3.03782 -1.85998 0
M  V30 4158 O 377.883 -4.52462 -3.06497 0
M  V30 4159 H 374.977 -0.664125 -0.492816 0
M  V30 4160 H 377.523 -1.66823 -0.311149 0
M  V30 4161 H 376.295 -3.77187 -1.04144 0
M  V30 4162 H 375.918 -3.02199 -2.58383 0
M  V30 4163 N 376.915 0.57481 -1.46744 0
M  V30 4164 C 378.164 1.32898 -1.51727 0
M  V30 4165 C 378.477 1.948 -0.176692 0
M  V30 4166 O 379.683 2.71299 -0.104385 0
M  V30 4167 C 378.139 2.40901 -2.67385 0
M  V30 4168 C 377.747 1.85266 -4.07898 0
M  V30 4169 C 379.491 3.17609 -2.81646 0
M  V30 4170 C 377.398 2.90945 -5.14883 0
M  V30 4171 H 376.328 0.499631 -0.564699 0
M  V30 4172 H 378.979 0.612536 -1.72975 0
M  V30 4173 H 377.361 3.15379 -2.39483 0
M  V30 4174 H 378.535 1.17278 -4.45626 0
M  V30 4175 H 376.85 1.21199 -3.98371 0
M  V30 4176 H 379.447 3.96493 -3.58744 0
M  V30 4177 H 379.79 3.70696 -1.89448 0
M  V30 4178 H 380.323 2.50239 -3.09233 0
M  V30 4179 H 377.062 2.42736 -6.089 0
M  V30 4180 H 376.582 3.57398 -4.81691 0
M  V30 4181 H 378.261 3.54755 -5.41071 0
M  V30 4182 N 378.394 1.34581 0.820102 0
M  V30 4183 C 379.64 1.27285 1.57881 0
M  V30 4184 C 379.973 -0.156137 1.93571 0
M  V30 4185 O 379.248 -1.10222 1.60254 0
M  V30 4186 C 379.531 2.16639 2.87645 0
M  V30 4187 C 379.384 3.68088 2.58517 0
M  V30 4188 C 380.703 2.05378 3.8924 0
M  V30 4189 H 377.822 0.463714 0.572833 0
M  V30 4190 H 380.464 1.64859 0.944539 0
M  V30 4191 H 378.614 1.84725 3.41773 0
M  V30 4192 H 380.286 4.10382 2.10676 0
M  V30 4193 H 378.529 3.89038 1.91917 0
M  V30 4194 H 379.2 4.2598 3.51063 0
M  V30 4195 H 381.676 2.33404 3.44473 0
M  V30 4196 H 380.552 2.7012 4.77835 0
M  V30 4197 H 380.813 1.0316 4.29896 0
M  V30 4198 N 379.872 -1.04064 1.18357 0
M  V30 4199 C 380.82 -2.14187 0.907007 0
M  V30 4200 C 381.814 -1.68879 -0.132725 0
M  V30 4201 O 383.02 -1.79993 0.0154248 0
M  V30 4202 H 379.395 -0.699585 0.275835 0
M  V30 4203 H 381.366 -2.34711 1.84264 0
M  V30 4204 C 380.115 -3.44785 0.449254 0
M  V30 4205 H 379.438 -3.80058 1.24081 0
M  V30 4206 H 380.878 -4.22974 0.294737 0
M  V30 4207 C 379.337 -3.26391 -0.834909 0
M  V30 4208 O 379.867 -3.53973 -1.89911 0
M  V30 4209 N 378.073 -2.79726 -0.787523 0
M  V30 4210 H 377.62 -2.5748 0.0787347 0
M  V30 4211 H 377.578 -2.67798 -1.64716 0
M  V30 4212 N 381.35 -0.985608 -1.22978 0
M  V30 4213 C 382.578 -0.675582 -1.95559 0
M  V30 4214 C 382.993 0.758413 -1.72897 0
M  V30 4215 O 382.35 1.51094 -1.02357 0
M  V30 4216 C 382.401 -0.96293 -3.48439 0
M  V30 4217 O 382.122 -2.34057 -3.70336 0
M  V30 4218 C 383.623 -0.669585 -4.38214 0
M  V30 4219 H 380.843 -0.250523 -0.622478 0
M  V30 4220 H 383.387 -1.3184 -1.56328 0
M  V30 4221 H 381.542 -0.366033 -3.85667 0
M  V30 4222 H 381.956 -2.43424 -4.64591 0
M  V30 4223 H 383.43 -0.920967 -5.44263 0
M  V30 4224 H 383.907 0.396383 -4.37408 0
M  V30 4225 H 384.513 -1.2472 -4.06602 0
M  V30 4226 N 382.828 1.3818 -0.7579 0
M  V30 4227 C 384.077 1.99261 -0.312744 0
M  V30 4228 C 384.39 1.60846 1.11301 0
M  V30 4229 O 385.596 2.14929 1.65885 0
M  V30 4230 C 384.052 3.56294 -0.50821 0
M  V30 4231 C 383.66 4.03657 -1.94333 0
M  V30 4232 C 385.404 4.24313 -0.125982 0
M  V30 4233 C 383.311 5.53347 -2.08712 0
M  V30 4234 H 382.241 0.745456 -0.113185 0
M  V30 4235 H 384.892 1.57889 -0.935056 0
M  V30 4236 H 383.274 3.95575 0.183353 0
M  V30 4237 H 384.448 3.75655 -2.66871 0
M  V30 4238 H 382.763 3.48376 -2.28086 0
M  V30 4239 H 385.36 5.34279 -0.212125 0
M  V30 4240 H 385.703 4.05962 0.921964 0
M  V30 4241 H 386.236 3.90285 -0.769563 0
M  V30 4242 H 382.975 5.76607 -3.11777 0
M  V30 4243 H 382.495 5.83078 -1.4064 0
M  V30 4244 H 384.174 6.19111 -1.87912 0
M  V30 4245 N 384.306 0.507319 1.49211 0
M  V30 4246 C 385.534 -0.0315749 2.06876 0
M  V30 4247 C 385.949 -1.30241 1.36685 0
M  V30 4248 O 385.306 -1.76937 0.447152 0
M  V30 4249 C 385.357 -0.282627 3.60393 0
M  V30 4250 O 385.078 0.937835 4.27944 0
M  V30 4251 C 386.579 -0.864453 4.3479 0
M  V30 4252 H 383.799 0.0233048 0.670595 0
M  V30 4253 H 386.343 0.706484 1.91909 0
M  V30 4254 H 384.498 -0.97068 3.75042 0
M  V30 4255 H 384.912 0.704567 5.19746 0
M  V30 4256 H 386.386 -0.989664 5.43056 0
M  V30 4257 H 386.863 -1.86382 3.97692 0
M  V30 4258 H 387.469 -0.213672 4.24763 0
M  V30 4259 N 385.784 -1.5574 0.241426 0
M  V30 4260 C 387.014 -2.02913 -0.38857 0
M  V30 4261 C 387.422 -1.12014 -1.52478 0
M  V30 4262 O 386.765 -0.125903 -1.83268 0
M  V30 4263 C 386.827 -3.4636 -0.963075 0
M  V30 4264 C 386.491 -4.56982 0.0401916 0
M  V30 4265 C 387.488 -5.12941 0.847766 0
M  V30 4266 C 385.173 -5.0203 0.164699 0
M  V30 4267 C 387.167 -6.12437 1.76636 0
M  V30 4268 C 384.854 -6.01358 1.0868 0
M  V30 4269 C 385.852 -6.5644 1.88616 0
M  V30 4270 O 385.54 -7.53831 2.79273 0
M  V30 4271 H 385.272 -0.668983 -0.0971452 0
M  V30 4272 H 387.826 -2.02198 0.361248 0
M  V30 4273 H 386.056 -3.44206 -1.76235 0
M  V30 4274 H 387.745 -3.77065 -1.50257 0
M  V30 4275 H 388.511 -4.78974 0.762133 0
M  V30 4276 H 384.39 -4.58824 -0.447411 0
M  V30 4277 H 387.934 -6.55355 2.39071 0
M  V30 4278 H 383.831 -6.34746 1.17338 0
M  V30 4279 H 384.599 -7.71428 2.73572 0
M  V30 4280 N 387.262 0.0317525 -1.57568 0
M  V30 4281 C 388.21 1.05165 -2.07468 0
M  V30 4282 C 389.204 1.3761 -0.98792 0
M  V30 4283 O 390.41 1.36546 -1.17282 0
M  V30 4284 H 386.785 0.35666 -0.66204 0
M  V30 4285 H 388.756 0.604958 -2.92203 0
M  V30 4286 C 387.505 2.34488 -2.56731 0
M  V30 4287 H 386.828 2.10383 -3.39969 0
M  V30 4288 H 388.268 3.04203 -2.95358 0
M  V30 4289 C 386.727 3.03266 -1.46736 0
M  V30 4290 O 387.257 3.92988 -0.832069 0
M  V30 4291 N 385.463 2.6455 -1.20256 0
M  V30 4292 H 385.01 1.91674 -1.72102 0
M  V30 4293 H 384.968 3.10886 -0.468737 0
M  V30 4294 N 388.74 1.54641 0.303973 0
M  V30 4295 C 389.67 1.88386 1.3796 0
M  V30 4296 C 390.651 0.742485 1.5304 0
M  V30 4297 O 391.836 0.997959 1.66597 0
M  V30 4298 C 388.966 2.12854 2.74427 0
M  V30 4299 C 387.92 3.28702 2.74115 0
M  V30 4300 C 387.246 3.38582 4.13844 0
M  V30 4301 C 388.546 4.65881 2.3612 0
M  V30 4302 H 390.24 2.78474 1.09966 0
M  V30 4303 H 387.786 1.33988 0.527556 0
M  V30 4304 H 389.739 2.35047 3.49758 0
M  V30 4305 H 388.463 1.19535 3.03939 0
M  V30 4306 H 387.122 3.06428 2.0124 0
M  V30 4307 H 386.77 2.42784 4.40528 0
M  V30 4308 H 386.47 4.16453 4.14537 0
M  V30 4309 H 387.994 3.63031 4.90959 0
M  V30 4310 H 389.408 4.87823 3.01167 0
M  V30 4311 H 387.805 5.46444 2.48031 0
M  V30 4312 H 388.875 4.66799 1.3125 0
M  V30 4313 N 390.218 -0.567019 1.47046 0
M  V30 4314 C 391.165 -1.67489 1.58796 0
M  V30 4315 C 392.135 -1.60399 0.43144 0
M  V30 4316 O 393.32 -1.79378 0.650233 0
M  V30 4317 C 390.46 -3.05821 1.59899 0
M  V30 4318 C 389.573 -3.2342 2.86397 0
M  V30 4319 C 388.708 -4.52093 2.789 0
M  V30 4320 C 387.747 -4.6309 4.00267 0
M  V30 4321 N 386.884 -5.83106 3.91064 0
M  V30 4322 H 391.724 -1.56785 2.53422 0
M  V30 4323 H 389.261 -0.763896 1.2571 0
M  V30 4324 H 391.219 -3.8591 1.58522 0
M  V30 4325 H 389.849 -3.15384 0.687929 0
M  V30 4326 H 388.901 -2.3683 2.97684 0
M  V30 4327 H 390.213 -3.27412 3.76301 0
M  V30 4328 H 389.367 -5.4043 2.75718 0
M  V30 4329 H 388.106 -4.50565 1.86662 0
M  V30 4330 H 387.111 -3.73168 4.03765 0
M  V30 4331 H 388.336 -4.66386 4.93621 0
M  V30 4332 H 386.282 -5.82546 3.01623 0
M  V30 4333 H 386.199 -5.88434 4.74638 0
M  V30 4334 H 387.467 -6.73831 3.91882 0
M  V30 4335 N 391.696 -1.35014 -0.812953 0
M  V30 4336 C 392.643 -1.27412 -1.92444 0
M  V30 4337 C 393.613 -0.14733 -1.65445 0
M  V30 4338 O 394.798 -0.329974 -1.87925 0
M  V30 4339 C 391.938 -1.04558 -3.28879 0
M  V30 4340 C 391.051 -2.26101 -3.68106 0
M  V30 4341 C 390.186 -1.96449 -4.9354 0
M  V30 4342 C 389.225 -3.14081 -5.25376 0
M  V30 4343 N 388.362 -2.84246 -6.41988 0
M  V30 4344 H 393.202 -2.22463 -1.98278 0
M  V30 4345 H 390.739 -1.10593 -0.969933 0
M  V30 4346 H 392.697 -0.893413 -4.07522 0
M  V30 4347 H 391.327 -0.131719 -3.22531 0
M  V30 4348 H 390.379 -2.52204 -2.84775 0
M  V30 4349 H 391.691 -3.13959 -3.87597 0
M  V30 4350 H 390.845 -1.78026 -5.79993 0
M  V30 4351 H 389.584 -1.05867 -4.76071 0
M  V30 4352 H 388.589 -3.33089 -4.37415 0
M  V30 4353 H 389.814 -4.05455 -5.44778 0
M  V30 4354 H 387.76 -1.96252 -6.25956 0
M  V30 4355 H 387.677 -3.65637 -6.61699 0
M  V30 4356 H 388.945 -2.6935 -7.31485 0
M  V30 4357 N 393.175 1.03435 -1.18907 0
M  V30 4358 C 394.123 2.13703 -0.918353 0
M  V30 4359 C 395.117 1.68947 0.123767 0
M  V30 4360 O 396.323 1.79983 -0.0249701 0
M  V30 4361 H 392.698 0.698112 -0.279542 0
M  V30 4362 H 394.669 2.33731 -1.85506 0
M  V30 4363 C 393.418 3.44542 -0.467532 0
M  V30 4364 H 392.741 3.79394 -1.26095 0
M  V30 4365 H 394.181 4.22812 -0.317164 0
M  V30 4366 C 392.64 3.26829 0.817588 0
M  V30 4367 O 393.17 3.54975 1.88031 0
M  V30 4368 N 391.376 2.80139 0.772677 0
M  V30 4369 H 390.923 2.57434 -0.0923883 0
M  V30 4370 H 390.881 2.68668 1.63294 0
M  V30 4371 N 394.653 0.992116 1.22453 0
M  V30 4372 C 395.601 0.534644 2.26372 0
M  V30 4373 C 396.595 -0.414293 1.64256 0
M  V30 4374 O 397.801 -0.286899 1.77699 0
M  V30 4375 H 394.176 0.154502 0.735957 0
M  V30 4376 H 396.147 1.42256 2.62309 0
M  V30 4377 C 394.896 -0.135815 3.47435 0
M  V30 4378 H 394.219 0.585311 3.95492 0
M  V30 4379 H 395.659 -0.419374 4.21921 0
M  V30 4380 C 394.118 -1.37089 3.07747 0
M  V30 4381 O 394.648 -2.46629 3.17076 0
M  V30 4382 N 392.854 -1.24585 2.62539 0
M  V30 4383 H 392.401 -0.354542 2.55149 0
M  V30 4384 H 392.359 -2.07327 2.36353 0
M  V30 4385 N 396.131 -1.37776 0.765217 0
M  V30 4386 C 397.378 -1.99849 0.326588 0
M  V30 4387 C 397.706 -1.60746 -1.09504 0
M  V30 4388 O 396.961 -0.84202 -1.76659 0
M  V30 4389 C 397.26 -3.5504 0.410053 0
M  V30 4390 C 396.926 -4.13891 1.78899 0
M  V30 4391 C 395.588 -4.29678 2.16635 0
M  V30 4392 C 397.94 -4.46236 2.69301 0
M  V30 4393 C 395.268 -4.7511 3.44221 0
M  V30 4394 C 397.62 -4.93089 3.9629 0
M  V30 4395 C 396.284 -5.07082 4.34078 0
M  V30 4396 H 395.554 -0.7313 0.119507 0
M  V30 4397 H 398.201 -1.64645 0.977968 0
M  V30 4398 H 396.506 -3.90451 -0.324878 0
M  V30 4399 H 398.203 -4.00966 0.0520699 0
M  V30 4400 H 394.793 -4.02026 1.48569 0
M  V30 4401 H 398.977 -4.3363 2.41409 0
M  V30 4402 H 394.233 -4.84129 3.73402 0
M  V30 4403 H 398.407 -5.17084 4.66472 0
M  V30 4404 H 396.034 -5.42046 5.33001 0
M  V30 4405 N 397.609 -0.515225 -1.4894 0
M  V30 4406 C 398.839 0.0205735 -2.0659 0
M  V30 4407 C 399.247 1.30064 -1.37405 0
M  V30 4408 O 398.59 1.78087 -0.450632 0
M  V30 4409 C 398.652 0.330124 -3.57981 0
M  V30 4410 C 398.316 -0.854295 -4.48944 0
M  V30 4411 C 399.313 -1.7487 -4.89609 0
M  V30 4412 C 396.998 -1.05712 -4.9105 0
M  V30 4413 C 398.992 -2.82996 -5.71132 0
M  V30 4414 C 396.679 -2.14154 -5.72347 0
M  V30 4415 C 397.677 -3.0263 -6.12294 0
M  V30 4416 O 397.365 -4.09198 -6.91962 0
M  V30 4417 H 397.097 -0.0236833 -0.675585 0
M  V30 4418 H 399.651 -0.715956 -1.92518 0
M  V30 4419 H 397.881 1.12044 -3.70112 0
M  V30 4420 H 399.57 0.806233 -3.97812 0
M  V30 4421 H 400.336 -1.60388 -4.57712 0
M  V30 4422 H 396.215 -0.377788 -4.59449 0
M  V30 4423 H 399.759 -3.52083 -6.02232 0
M  V30 4424 H 395.656 -2.28626 -6.03656 0
M  V30 4425 H 396.424 -4.06726 -7.10293 0
M  V30 4426 N 399.087 1.5561 -0.249682 0
M  V30 4427 C 400.312 2.03865 0.381305 0
M  V30 4428 C 400.737 1.12769 1.50548 0
M  V30 4429 O 400.095 0.121189 1.80895 0
M  V30 4430 C 400.143 3.50101 0.863816 0
M  V30 4431 O 399.247 3.62132 1.97318 0
M  V30 4432 H 398.588 0.658827 0.0827194 0
M  V30 4433 H 401.118 2.01105 -0.376552 0
M  V30 4434 H 401.128 3.90975 1.1663 0
M  V30 4435 H 399.803 4.1588 0.0411816 0
M  V30 4436 H 398.38 3.33155 1.67517 0
M  V30 4437 N 400.565 -0.0233959 1.57583 0
M  V30 4438 C 401.842 -0.748794 1.807 0
M  V30 4439 C 402.222 -1.9327 0.849106 0
M  V30 4440 O 401.57 -2.28247 -0.107468 0
M  V30 4441 C 401.78 -1.17651 3.28571 0
M  V30 4442 C 403.128 -1.59008 3.93702 0
M  V30 4443 O 404.152 -1.27094 3.32755 0
M  V30 4444 O 403.011 -2.18264 5.01022 0
M  V30 4445 H 400.105 -0.362578 0.743281 0
M  V30 4446 H 402.651 0.000261958 1.697 0
M  V30 4447 H 401.423 -0.331603 3.89892 0
M  V30 4448 H 401.046 -1.98541 3.44481 0
M  V30 4449 N 402.043 -1.548 -0.295768 0
M  V30 4450 C 403.32 -1.65014 -1.05023 0
M  V30 4451 C 403.7 -0.501805 -2.05049 0
M  V30 4452 O 403.048 0.500869 -2.22943 0
M  V30 4453 C 403.258 -3.03252 -1.72741 0
M  V30 4454 C 404.606 -3.60242 -2.24746 0
M  V30 4455 O 405.63 -3.05737 -1.82765 0
M  V30 4456 O 404.489 -4.55687 -3.01681 0
M  V30 4457 H 401.583 -0.669314 -0.485744 0
M  V30 4458 H 404.129 -1.67144 -0.293438 0
M  V30 4459 H 402.901 -3.7827 -1.00138 0
M  V30 4460 H 402.524 -3.04922 -2.55163 0
M  V30 4461 N 403.521 0.559213 -1.47345 0
M  V30 4462 C 404.746 1.34676 -1.57725 0
M  V30 4463 C 405.171 1.86723 -0.227164 0
M  V30 4464 O 404.529 1.6286 0.796642 0
M  V30 4465 C 404.577 2.49399 -2.60447 0
M  V30 4466 O 403.681 3.51567 -2.15578 0
M  V30 4467 H 403.022 0.400115 -0.52991 0
M  V30 4468 H 405.552 0.676009 -1.93109 0
M  V30 4469 H 405.562 2.95996 -2.80803 0
M  V30 4470 H 404.237 2.10873 -3.58477 0
M  V30 4471 H 402.814 3.11289 -2.05313 0
M  V30 4472 N 404.999 1.35443 0.805782 0
M  V30 4473 C 406.248 1.28097 1.55801 0
M  V30 4474 C 406.561 -0.142428 1.95081 0
M  V30 4475 O 407.767 -0.33817 2.69386 0
M  V30 4476 C 406.223 2.24653 2.81174 0
M  V30 4477 C 405.831 3.72342 2.49129 0
M  V30 4478 C 407.575 2.2625 3.59181 0
M  V30 4479 C 405.482 4.60719 3.70799 0
M  V30 4480 H 404.412 0.475937 0.584808 0
M  V30 4481 H 407.063 1.60712 0.885661 0
M  V30 4482 H 405.445 1.85011 3.50124 0
M  V30 4483 H 406.619 4.20624 1.88181 0
M  V30 4484 H 404.934 3.73361 1.84366 0
M  V30 4485 H 407.531 2.89495 4.49552 0
M  V30 4486 H 407.874 1.26647 3.96568 0
M  V30 4487 H 408.407 2.64426 2.97193 0
M  V30 4488 H 405.146 5.61324 3.3852 0
M  V30 4489 H 404.666 4.17163 4.3097 0
M  V30 4490 H 406.345 4.76182 4.38018 0
M  V30 4491 N 406.477 -1.02803 1.19454 0
M  V30 4492 C 407.424 -2.11099 0.933046 0
M  V30 4493 C 408.394 -1.65571 -0.132447 0
M  V30 4494 O 409.579 -1.90797 0.00987576 0
M  V30 4495 C 406.719 -3.41763 0.478747 0
M  V30 4496 C 405.832 -4.00833 1.6111 0
M  V30 4497 C 404.967 -5.19511 1.10825 0
M  V30 4498 C 404.006 -5.70639 2.21445 0
M  V30 4499 N 403.143 -6.80589 1.72461 0
M  V30 4500 H 407.983 -2.32804 1.86028 0
M  V30 4501 H 405.52 -1.14179 0.927441 0
M  V30 4502 H 407.478 -4.16736 0.196745 0
M  V30 4503 H 406.108 -3.20166 -0.411493 0
M  V30 4504 H 405.16 -3.23066 2.00829 0
M  V30 4505 H 406.472 -4.34794 2.4445 0
M  V30 4506 H 405.626 -6.01645 0.781533 0
M  V30 4507 H 404.365 -4.87086 0.244606 0
M  V30 4508 H 403.37 -4.87116 2.54947 0
M  V30 4509 H 404.595 -6.05102 3.08267 0
M  V30 4510 H 402.541 -6.50016 0.884056 0
M  V30 4511 H 402.458 -7.13681 2.49389 0
M  V30 4512 H 403.726 -7.66317 1.42755 0
M  V30 4513 N 407.956 -0.998596 -1.21925 0
M  V30 4514 C 409.186 -0.695276 -1.94549 0
M  V30 4515 C 409.594 0.745079 -1.73911 0
M  V30 4516 O 408.937 1.51507 -1.03881 0
M  V30 4517 C 408.999 -0.928485 -3.47303 0
M  V30 4518 C 408.663 -2.35443 -3.91683 0
M  V30 4519 C 409.66 -3.33428 -3.98901 0
M  V30 4520 C 407.345 -2.69038 -4.24174 0
M  V30 4521 C 409.339 -4.63079 -4.37992 0
M  V30 4522 C 407.026 -3.98906 -4.62944 0
M  V30 4523 C 408.024 -4.95738 -4.69822 0
M  V30 4524 O 407.712 -6.23285 -5.07711 0
M  V30 4525 H 407.444 -0.255902 -0.625692 0
M  V30 4526 H 409.998 -1.33767 -1.5587 0
M  V30 4527 H 408.228 -0.228917 -3.86022 0
M  V30 4528 H 409.917 -0.619539 -4.01144 0
M  V30 4529 H 410.683 -3.08807 -3.73983 0
M  V30 4530 H 406.562 -1.94367 -4.18022 0
M  V30 4531 H 410.106 -5.38658 -4.43275 0
M  V30 4532 H 406.003 -4.23314 -4.87314 0
M  V30 4533 H 406.771 -6.27306 -5.25766 0
M  V30 4534 N 409.434 1.37368 -0.772513 0
M  V30 4535 C 410.681 1.99673 -0.337182 0
M  V30 4536 C 411.009 1.61324 1.0865 0
M  V30 4537 O 410.264 0.851377 1.7621 0
M  V30 4538 C 410.563 3.54817 -0.428876 0
M  V30 4539 C 410.229 4.12936 -1.81092 0
M  V30 4540 C 408.891 4.28523 -2.1891 0
M  V30 4541 C 411.243 4.44801 -2.71664 0
M  V30 4542 C 408.571 4.73277 -3.46735 0
M  V30 4543 C 410.923 4.90981 -3.98899 0
M  V30 4544 C 409.587 5.04773 -4.36761 0
M  V30 4545 H 408.857 0.730656 -0.123384 0
M  V30 4546 H 411.504 1.64124 -0.986686 0
M  V30 4547 H 409.809 3.90618 0.304167 0
M  V30 4548 H 411.506 4.00933 -0.0733334 0
M  V30 4549 H 408.096 4.01233 -1.50699 0
M  V30 4550 H 412.28 4.32344 -2.43706 0
M  V30 4551 H 407.536 4.82142 -3.75964 0
M  V30 4552 H 411.71 5.14603 -4.69208 0
M  V30 4553 H 409.337 5.39211 -5.35868 0
M  V30 4554 N 410.912 0.523116 1.48665 0
M  V30 4555 C 412.189 -0.0775449 1.95446 0
M  V30 4556 C 412.569 -1.5197 1.4652 0
M  V30 4557 O 411.917 -2.17876 0.688657 0
M  V30 4558 C 412.127 0.0326135 3.48985 0
M  V30 4559 C 413.475 -0.130141 4.24401 0
M  V30 4560 O 414.499 -0.0415142 3.56176 0
M  V30 4561 O 413.358 -0.31491 5.45592 0
M  V30 4562 H 410.452 -0.0831012 0.822814 0
M  V30 4563 H 412.998 0.587227 1.59216 0
M  V30 4564 H 411.77 1.03748 3.77296 0
M  V30 4565 H 411.393 -0.671317 3.91892 0
M  V30 4566 N 412.39 -1.55475 0.257931 0
M  V30 4567 C 413.338 -2.23244 -0.653076 0
M  V30 4568 C 414.332 -1.22366 -1.17144 0
M  V30 4569 O 415.538 -1.40347 -1.12706 0
M  V30 4570 H 411.913 -0.716247 -0.229117 0
M  V30 4571 H 413.884 -2.98343 -0.0584788 0
M  V30 4572 C 412.633 -2.95401 -1.83395 0
M  V30 4573 H 411.956 -3.72802 -1.44424 0
M  V30 4574 H 413.396 -3.46165 -2.44838 0
M  V30 4575 C 411.855 -1.99895 -2.71189 0
M  V30 4576 O 412.385 -1.53909 -3.71046 0
M  V30 4577 N 410.591 -1.6676 -2.3799 0
M  V30 4578 H 410.138 -2.04352 -1.56837 0
M  V30 4579 H 410.096 -1.03127 -2.97005 0
M  V30 4580 N 413.868 0.0150385 -1.57593 0
M  V30 4581 C 414.798 1.01047 -2.10503 0
M  V30 4582 C 415.779 1.36816 -1.01071 0
M  V30 4583 O 416.964 1.45455 -1.28672 0
M  V30 4584 C 414.094 2.30708 -2.59598 0
M  V30 4585 C 413.048 2.09142 -3.73421 0
M  V30 4586 C 412.374 3.44685 -4.08774 0
M  V30 4587 C 413.674 1.46619 -5.01298 0
M  V30 4588 H 415.368 0.569978 -2.93925 0
M  V30 4589 H 412.914 0.272724 -1.41394 0
M  V30 4590 H 414.867 3.00687 -2.95238 0
M  V30 4591 H 413.591 2.76843 -1.73279 0
M  V30 4592 H 412.25 1.41592 -3.38153 0
M  V30 4593 H 411.898 3.88495 -3.195 0
M  V30 4594 H 411.598 3.31077 -4.8545 0
M  V30 4595 H 413.122 4.16004 -4.4696 0
M  V30 4596 H 414.536 2.06535 -5.34805 0
M  V30 4597 H 412.933 1.43544 -5.82679 0
M  V30 4598 H 414.003 0.433611 -4.82957 0
M  V30 4599 N 415.346 1.54954 0.287554 0
M  V30 4600 C 416.256 1.8991 1.37736 0
M  V30 4601 C 417.272 0.794701 1.54792 0
M  V30 4602 O 418.448 1.09243 1.69198 0
M  V30 4603 C 415.513 2.15108 2.71899 0
M  V30 4604 C 414.574 3.38752 2.63715 0
M  V30 4605 C 413.807 3.62739 3.91479 0
M  V30 4606 O 414.03 2.89492 4.91478 0
M  V30 4607 O 412.964 4.56267 3.92561 0
M  V30 4608 H 416.79 2.82652 1.11092 0
M  V30 4609 H 414.375 1.41315 0.484807 0
M  V30 4610 H 416.257 2.32806 3.51254 0
M  V30 4611 H 414.932 1.25551 2.9836 0
M  V30 4612 H 413.839 3.26405 1.82786 0
M  V30 4613 H 415.172 4.28483 2.42205 0
M  V30 4614 N 416.824 -0.551391 1.4764 0
M  V30 4615 C 417.734 -1.68525 1.63207 0
M  V30 4616 C 418.75 -1.6621 0.514815 0
M  V30 4617 O 419.926 -1.85551 0.783113 0
M  V30 4618 C 416.991 -3.05025 1.64805 0
M  V30 4619 C 416.052 -3.18362 2.88 0
M  V30 4620 C 415.285 -4.4835 2.89513 0
M  V30 4621 O 415.508 -5.34163 2.00065 0
M  V30 4622 O 414.442 -4.65602 3.81443 0
M  V30 4623 H 418.268 -1.58333 2.59161 0
M  V30 4624 H 415.853 -0.722063 1.30792 0
M  V30 4625 H 417.735 -3.86245 1.68502 0
M  V30 4626 H 416.41 -3.15587 0.720197 0
M  V30 4627 H 415.317 -2.36518 2.89845 0
M  V30 4628 H 416.65 -3.12707 3.80099 0
M  V30 4629 N 418.302 -1.35869 -0.798587 0
M  V30 4630 C 419.55 -1.29332 -1.55298 0
M  V30 4631 C 419.871 0.129729 -1.94568 0
M  V30 4632 O 419.141 1.06796 -1.6423 0
M  V30 4633 H 417.721 -0.475737 -0.57592 0
M  V30 4634 H 420.383 -1.70062 -0.952093 0
M  V30 4635 H 419.479 -1.91458 -2.46476 0
M  V30 4636 N 419.78 1.02168 -1.19998 0
M  V30 4637 C 420.71 2.12488 -0.96804 0
M  V30 4638 C 421.691 1.69799 0.101185 0
M  V30 4639 O 422.876 1.94121 -0.0552993 0
M  V30 4640 C 420.006 3.43479 -0.513776 0
M  V30 4641 C 418.96 3.99884 -1.52566 0
M  V30 4642 C 418.286 5.26582 -0.928214 0
M  V30 4643 C 419.586 4.33861 -2.90795 0
M  V30 4644 H 421.28 2.32149 -1.89069 0
M  V30 4645 H 418.826 1.11564 -0.910468 0
M  V30 4646 H 420.779 4.20036 -0.338774 0
M  V30 4647 H 419.503 3.23561 0.444493 0
M  V30 4648 H 418.162 3.25429 -1.68794 0
M  V30 4649 H 417.81 5.02986 0.0378289 0
M  V30 4650 H 417.51 5.65284 -1.60397 0
M  V30 4651 H 419.034 6.05799 -0.764167 0
M  V30 4652 H 420.448 5.01327 -2.78109 0
M  V30 4653 H 418.845 4.83664 -3.55231 0
M  V30 4654 H 419.915 3.42848 -3.42904 0
M  V30 4655 N 421.258 1.00505 1.21394 0
M  V30 4656 C 422.168 0.574806 2.27449 0
M  V30 4657 C 423.184 -0.382206 1.6975 0
M  V30 4658 O 424.36 -0.246027 1.99892 0
M  V30 4659 C 421.425 -0.0917414 3.46579 0
M  V30 4660 C 420.486 0.909758 4.1955 0
M  V30 4661 C 419.719 0.274924 5.32991 0
M  V30 4662 O 419.942 -0.928254 5.62796 0
M  V30 4663 O 418.876 0.985877 5.93771 0
M  V30 4664 H 422.702 1.45744 2.66444 0
M  V30 4665 H 420.287 0.773923 1.27792 0
M  V30 4666 H 422.169 -0.464551 4.18832 0
M  V30 4667 H 420.844 -0.948755 3.09484 0
M  V30 4668 H 419.751 1.33372 3.49518 0
M  V30 4669 H 421.084 1.73636 4.60555 0
M  V30 4670 N 422.737 -1.36956 0.779787 0
M  V30 4671 C 424.014 -1.93697 0.272156 0
M  V30 4672 C 424.394 -1.71267 -1.23413 0
M  V30 4673 O 423.742 -1.06607 -2.02107 0
M  V30 4674 C 423.952 -3.42812 0.654291 0
M  V30 4675 C 425.3 -4.19921 0.628602 0
M  V30 4676 O 426.324 -3.51209 0.594172 0
M  V30 4677 O 425.183 -5.42465 0.662864 0
M  V30 4678 H 422.277 -0.824447 0.0649286 0
M  V30 4679 H 424.823 -1.46196 0.861682 0
M  V30 4680 H 423.595 -3.52754 1.69353 0
M  V30 4681 H 423.218 -3.97582 0.0381369 0
M  V30 4682 N 424.215 -0.530993 -1.48385 0
M  V30 4683 C 425.461 0.00274135 -2.028 0
M  V30 4684 C 425.794 1.33838 -1.40716 0
M  V30 4685 O 425.069 1.86465 -0.553277 0
M  V30 4686 C 425.352 0.123676 -3.59888 0
M  V30 4687 C 425.205 -1.2372 -4.3245 0
M  V30 4688 C 426.524 0.849967 -4.31814 0
M  V30 4689 H 423.643 -0.000477758 -0.737 0
M  V30 4690 H 426.285 -0.688217 -1.77098 0
M  V30 4691 H 424.435 0.712157 -3.81917 0
M  V30 4692 H 426.107 -1.86687 -4.21836 0
M  V30 4693 H 424.35 -1.81882 -3.93829 0
M  V30 4694 H 425.021 -1.10557 -5.40815 0
M  V30 4695 H 427.497 0.350572 -4.14621 0
M  V30 4696 H 426.373 0.903486 -5.41413 0
M  V30 4697 H 426.634 1.90047 -3.99167 0
M  V30 4698 N 425.693 1.55336 -0.266172 0
M  V30 4699 C 426.643 2.18848 0.639497 0
M  V30 4700 C 427.627 1.1503 1.12503 0
M  V30 4701 O 428.819 1.40875 1.0716 0
M  V30 4702 C 425.948 2.90626 1.82733 0
M  V30 4703 C 425.034 4.01723 1.35939 0
M  V30 4704 N 425.425 5.02145 0.606988 0
M  V30 4705 C 423.723 4.1463 1.6431 0
M  V30 4706 C 424.424 5.80572 0.362138 0
M  V30 4707 N 423.4 5.35551 0.931971 0
M  V30 4708 H 427.202 2.93845 0.0567057 0
M  V30 4709 H 424.716 1.62252 -0.0693312 0
M  V30 4710 H 426.713 3.34569 2.48735 0
M  V30 4711 H 425.373 2.17137 2.41416 0
M  V30 4712 H 426.384 5.17271 0.255198 0
M  V30 4713 H 423.061 3.52326 2.23993 0
M  V30 4714 H 424.451 6.71472 -0.239848 0
M  V30 4715 N 427.171 -0.0066808 1.57599 0
M  V30 4716 C 428.42 -0.692078 1.89455 0
M  V30 4717 C 428.733 -1.75306 0.867586 0
M  V30 4718 O 429.939 -2.49262 1.07614 0
M  V30 4719 C 428.395 -1.2821 3.36289 0
M  V30 4720 C 428.003 -0.256291 4.47266 0
M  V30 4721 C 429.747 -1.94608 3.77264 0
M  V30 4722 C 427.654 -0.855927 5.85173 0
M  V30 4723 H 426.584 -0.262252 0.706923 0
M  V30 4724 H 429.235 0.052769 1.83424 0
M  V30 4725 H 427.617 -2.0774 3.37135 0
M  V30 4726 H 428.791 0.513923 4.57925 0
M  V30 4727 H 427.106 0.306862 4.15268 0
M  V30 4728 H 429.703 -2.40364 4.77629 0
M  V30 4729 H 430.046 -2.77382 3.10427 0
M  V30 4730 H 430.579 -1.21822 3.78688 0
M  V30 4731 H 427.318 -0.0671161 6.55466 0
M  V30 4732 H 426.838 -1.59546 5.78191 0
M  V30 4733 H 428.517 -1.35658 6.32618 0
M  V30 4734 N 428.649 -1.55105 -0.279332 0
M  V30 4735 C 429.898 -1.74618 -1.00952 0
M  V30 4736 C 430.211 -0.551096 -1.87676 0
M  V30 4737 O 431.417 -0.628507 -2.64125 0
M  V30 4738 C 429.873 -3.09025 -1.84476 0
M  V30 4739 C 429.481 -4.36081 -1.0265 0
M  V30 4740 C 431.225 -3.37891 -2.56963 0
M  V30 4741 C 429.132 -5.6153 -1.85576 0
M  V30 4742 H 428.062 -0.650868 -0.38064 0
M  V30 4743 H 430.713 -1.81569 -0.265475 0
M  V30 4744 H 429.095 -2.96095 -2.62952 0
M  V30 4745 H 430.269 -4.59909 -0.286354 0
M  V30 4746 H 428.584 -4.14312 -0.416464 0
M  V30 4747 H 431.181 -4.28822 -3.19399 0
M  V30 4748 H 431.524 -2.57737 -3.26921 0
M  V30 4749 H 432.057 -3.5189 -1.85522 0
M  V30 4750 H 428.796 -6.44413 -1.2005 0
M  V30 4751 H 428.316 -5.41854 -2.57204 0
M  V30 4752 H 429.995 -5.99594 -2.43096 0
M  V30 4753 N 430.127 0.543554 -1.4793 0
M  V30 4754 C 431.357 1.32324 -1.58663 0
M  V30 4755 C 431.765 1.8766 -0.240896 0
M  V30 4756 O 431.108 1.66411 0.778011 0
M  V30 4757 C 431.17 2.52094 -2.56299 0
M  V30 4758 C 430.834 2.17944 -4.01683 0
M  V30 4759 C 431.831 1.74422 -4.89768 0
M  V30 4760 C 429.516 2.28884 -4.47121 0
M  V30 4761 C 431.51 1.42287 -6.21316 0
M  V30 4762 C 429.197 1.96361 -5.78693 0
M  V30 4763 C 430.195 1.53132 -6.65612 0
M  V30 4764 O 429.883 1.21029 -7.94737 0
M  V30 4765 H 429.615 0.409174 -0.538101 0
M  V30 4766 H 432.169 0.663887 -1.94375 0
M  V30 4767 H 430.399 3.20965 -2.15681 0
M  V30 4768 H 432.088 3.14165 -2.57012 0
M  V30 4769 H 432.854 1.65452 -4.55907 0
M  V30 4770 H 428.733 2.61488 -3.79664 0
M  V30 4771 H 432.277 1.08472 -6.89115 0
M  V30 4772 H 428.174 2.04967 -6.12094 0
M  V30 4773 H 428.942 1.34543 -8.07366 0
M  V30 4774 N 431.605 1.3629 0.791371 0
M  V30 4775 C 432.538 1.24816 1.9104 0
M  V30 4776 C 433.516 0.132739 1.62057 0
M  V30 4777 O 434.7 0.303527 1.8604 0
M  V30 4778 C 431.827 0.925355 3.25814 0
M  V30 4779 C 430.873 2.05495 3.7373 0
M  V30 4780 S 431.706 3.67255 3.89723 0
M  V30 4781 C 432.862 3.37084 5.27376 0
M  V30 4782 H 433.095 2.19533 2.00481 0
M  V30 4783 H 430.628 1.21684 0.950393 0
M  V30 4784 H 432.586 0.745924 4.03666 0
M  V30 4785 H 431.247 -0.00400098 3.141 0
M  V30 4786 H 430.44 1.7836 4.71385 0
M  V30 4787 H 430.042 2.1935 3.02922 0
M  V30 4788 H 432.334 2.90856 6.1189 0
M  V30 4789 H 433.277 4.33995 5.59512 0
M  V30 4790 H 433.685 2.7248 4.94383 0
M  V30 4791 N 433.083 -1.0153 1.20538 0
M  V30 4792 C 434.311 -1.78746 1.04199 0
M  V30 4793 C 434.726 -1.84323 -0.408733 0
M  V30 4794 O 434.083 -1.29714 -1.28377 0
M  V30 4795 C 434.134 -3.23152 1.62035 0
M  V30 4796 O 433.855 -3.17918 3.0143 0
M  V30 4797 C 435.356 -4.16911 1.50666 0
M  V30 4798 H 432.576 -0.56208 0.366479 0
M  V30 4799 H 435.12 -1.27794 1.59653 0
M  V30 4800 H 433.275 -3.71248 1.10697 0
M  V30 4801 H 433.689 -4.08567 3.28897 0
M  V30 4802 H 435.163 -5.16072 1.95892 0
M  V30 4803 H 435.64 -4.36791 0.459363 0
M  V30 4804 H 436.246 -3.74698 2.01201 0
M  V30 4805 N 434.561 -1.01147 -1.20859 0
M  V30 4806 C 435.977 -0.725422 -1.42161 0
M  V30 4807 C 436.177 0.696919 -1.89064 0
M  V30 4808 O 435.233 1.46539 -2.05627 0
M  V30 4809 C 436.546 -1.74678 -2.44761 0
M  V30 4810 C 438.094 -1.76433 -2.58535 0
M  V30 4811 C 438.569 -2.77481 -3.64374 0
M  V30 4812 N 440.06 -2.76189 -3.71852 0
M  V30 4813 C 440.795 -3.51035 -4.53389 0
M  V30 4814 N 440.291 -4.35541 -5.38773 0
M  V30 4815 N 442.084 -3.39655 -4.47873 0
M  V30 4816 H 434.235 -1.92979 -0.887282 0
M  V30 4817 H 436.498 -0.833327 -0.451962 0
M  V30 4818 H 436.204 -2.76551 -2.17285 0
M  V30 4819 H 436.078 -1.55472 -3.43669 0
M  V30 4820 H 438.465 -0.75248 -2.85345 0
M  V30 4821 H 438.546 -1.99712 -1.5984 0
M  V30 4822 H 438.19 -3.78827 -3.38308 0
M  V30 4823 H 438.12 -2.51466 -4.6268 0
M  V30 4824 H 440.611 -2.14885 -3.10858 0
M  V30 4825 H 440.924 -4.89432 -5.98061 0
M  V30 4826 H 439.269 -4.39621 -5.38292 0
M  V30 4827 H 442.46 -2.73063 -3.80203 0
M  V30 4828 H 442.633 -3.9824 -5.11184 0
M  V30 4829 N 436.039 1.36541 -0.78704 0
M  V30 4830 C 437.288 1.98552 -0.35494 0
M  V30 4831 C 437.601 1.63171 1.07864 0
M  V30 4832 O 438.807 2.18399 1.61289 0
M  V30 4833 C 437.263 3.55136 -0.583671 0
M  V30 4834 C 436.871 3.99444 -2.02851 0
M  V30 4835 C 438.615 4.2395 -0.215957 0
M  V30 4836 C 436.522 5.48796 -2.20403 0
M  V30 4837 H 435.452 0.742888 -0.128972 0
M  V30 4838 H 438.103 1.5587 -0.968337 0
M  V30 4839 H 436.485 3.95875 0.0994046 0
M  V30 4840 H 437.659 3.6991 -2.74779 0
M  V30 4841 H 435.974 3.43459 -2.35425 0
M  V30 4842 H 438.571 5.33709 -0.325405 0
M  V30 4843 H 438.914 4.07827 0.835646 0
M  V30 4844 H 439.447 3.88565 -0.852175 0
M  V30 4845 H 436.186 5.69864 -3.23937 0
M  V30 4846 H 435.706 5.79964 -1.52977 0
M  V30 4847 H 437.385 6.14986 -2.01002 0
M  V30 4848 N 437.518 0.538854 1.48102 0
M  V30 4849 C 438.45 -0.256278 2.27763 0
M  V30 4850 C 439.463 -0.89633 1.35904 0
M  V30 4851 O 440.652 -0.773275 1.60881 0
M  V30 4852 C 437.752 -1.37896 3.09577 0
M  V30 4853 C 436.925 -0.839159 4.29275 0
M  V30 4854 C 435.984 -1.84405 4.9283 0
M  V30 4855 O 435.01 -1.39746 5.51779 0
M  V30 4856 N 436.212 -3.17666 4.85869 0
M  V30 4857 H 438.977 0.426968 2.96643 0
M  V30 4858 H 436.538 0.373747 1.57527 0
M  V30 4859 H 438.53 -2.04955 3.48963 0
M  V30 4860 H 437.1 -1.96572 2.4306 0
M  V30 4861 H 436.32 0.00769287 3.94199 0
M  V30 4862 H 437.608 -0.457548 5.06739 0
M  V30 4863 H 437.006 -3.56609 4.39143 0
M  V30 4864 H 435.563 -3.80334 5.29329 0
M  V30 4865 N 438.996 -1.55193 0.274407 0
M  V30 4866 C 439.943 -2.225 -0.613374 0
M  V30 4867 C 440.913 -1.19823 -1.15029 0
M  V30 4868 O 442.098 -1.48362 -1.19973 0
M  V30 4869 C 439.238 -2.94927 -1.79199 0
M  V30 4870 C 438.351 -4.12322 -1.28899 0
M  V30 4871 C 437.486 -4.72394 -2.42934 0
M  V30 4872 C 436.525 -5.81984 -1.89634 0
M  V30 4873 N 435.662 -6.36123 -2.9714 0
M  V30 4874 H 440.502 -2.97982 -0.032756 0
M  V30 4875 H 438.039 -1.47099 -0.00440146 0
M  V30 4876 H 439.997 -3.35134 -2.48478 0
M  V30 4877 H 438.627 -2.2187 -2.34465 0
M  V30 4878 H 437.679 -3.7724 -0.489327 0
M  V30 4879 H 438.991 -4.91355 -0.858587 0
M  V30 4880 H 438.145 -5.15317 -3.20208 0
M  V30 4881 H 436.884 -3.92636 -2.8929 0
M  V30 4882 H 435.889 -5.38511 -1.1084 0
M  V30 4883 H 437.114 -6.6361 -1.44215 0
M  V30 4884 H 435.06 -5.59259 -3.42878 0
M  V30 4885 H 434.977 -7.10427 -2.58515 0
M  V30 4886 H 436.245 -6.83704 -3.74391 0
M  V30 4887 N 440.474 -0.00167713 -1.576 0
M  V30 4888 C 441.384 1.00548 -2.1196 0
M  V30 4889 C 442.4 1.3758 -1.06526 0
M  V30 4890 O 443.576 1.46278 -1.38436 0
M  V30 4891 C 440.641 2.27809 -2.6135 0
M  V30 4892 C 439.702 1.97074 -3.81393 0
M  V30 4893 C 438.935 3.18267 -4.28417 0
M  V30 4894 O 439.158 4.30009 -3.74765 0
M  V30 4895 O 438.092 3.02167 -5.20556 0
M  V30 4896 H 441.918 0.573373 -2.98238 0
M  V30 4897 H 439.503 0.217255 -1.47812 0
M  V30 4898 H 441.385 3.02568 -2.93309 0
M  V30 4899 H 440.06 2.70254 -1.78169 0
M  V30 4900 H 438.967 1.19785 -3.54404 0
M  V30 4901 H 440.3 1.59464 -4.65652 0
M  V30 4902 N 441.952 1.55251 0.271103 0
M  V30 4903 C 443.368 1.47133 0.618393 0
M  V30 4904 C 443.568 0.686994 1.89427 0
M  V30 4905 O 442.624 0.206609 2.51653 0
M  V30 4906 C 443.937 2.91361 0.743593 0
M  V30 4907 C 445.485 3.01587 0.837522 0
M  V30 4908 C 445.96 4.47073 0.994483 0
M  V30 4909 N 447.451 4.50909 1.05996 0
M  V30 4910 C 448.186 5.60698 1.20024 0
M  V30 4911 N 447.682 6.80348 1.30759 0
M  V30 4912 N 449.475 5.48444 1.23149 0
M  V30 4913 H 441.626 2.04698 -0.566784 0
M  V30 4914 H 443.889 0.928319 -0.192165 0
M  V30 4915 H 443.595 3.51483 -0.123493 0
M  V30 4916 H 443.469 3.40484 1.62328 0
M  V30 4917 H 445.856 2.4156 1.69507 0
M  V30 4918 H 445.937 2.55713 -0.0668086 0
M  V30 4919 H 445.581 5.07703 0.141582 0
M  V30 4920 H 445.511 4.90605 1.91349 0
M  V30 4921 H 448.002 3.6472 0.989316 0
M  V30 4922 H 448.315 7.59772 1.41303 0
M  V30 4923 H 446.66 6.83156 1.27761 0
M  V30 4924 H 449.851 4.53907 1.14394 0
M  V30 4925 H 450.024 6.34049 1.33738 0
M  V30 4926 N 443.43 -0.535701 1.48216 0
M  V30 4927 C 444.677 -1.29183 1.55942 0
M  V30 4928 C 445.005 -1.93125 0.230857 0
M  V30 4929 O 444.26 -1.79556 -0.778331 0
M  V30 4930 C 444.559 -2.4068 2.64212 0
M  V30 4931 C 444.225 -1.94428 4.06827 0
M  V30 4932 C 442.887 -1.81532 4.45645 0
M  V30 4933 C 445.239 -1.59405 4.96225 0
M  V30 4934 C 442.567 -1.31939 5.71672 0
M  V30 4935 C 444.919 -1.11276 6.22736 0
M  V30 4936 C 443.583 -0.969924 6.60416 0
M  V30 4937 H 442.853 -0.472715 0.570632 0
M  V30 4938 H 445.5 -0.598437 1.81909 0
M  V30 4939 H 443.805 -3.15666 2.32083 0
M  V30 4940 H 445.502 -2.98822 2.67407 0
M  V30 4941 H 442.092 -2.05415 3.76168 0
M  V30 4942 H 446.276 -1.68231 4.66917 0
M  V30 4943 H 441.532 -1.19562 5.99596 0
M  V30 4944 H 445.706 -0.832453 6.91407 0
M  V30 4945 H 443.333 -0.583436 7.57958 0
M  V30 4946 N 444.908 -1.36708 -0.784132 0
M  V30 4947 C 446.136 -1.34398 -1.57305 0
M  V30 4948 C 446.551 0.0735577 -1.88657 0
M  V30 4949 O 445.908 1.03193 -1.50524 0
M  V30 4950 C 445.959 -2.17053 -2.89085 0
M  V30 4951 O 445.68 -3.53281 -2.59083 0
M  V30 4952 C 447.181 -2.22583 -3.83369 0
M  V30 4953 H 444.401 -0.460819 -0.487736 0
M  V30 4954 H 446.945 -1.79879 -0.972819 0
M  V30 4955 H 445.1 -1.75113 -3.45564 0
M  V30 4956 H 445.514 -3.9647 -3.43383 0
M  V30 4957 H 446.988 -2.84763 -4.72878 0
M  V30 4958 H 447.465 -1.23075 -4.21603 0
M  V30 4959 H 448.071 -2.64781 -3.32823 0
M  V30 4960 N 446.386 1.0089 -1.21074 0
M  V30 4961 C 447.663 1.71834 -0.934469 0
M  V30 4962 C 448.043 2.0368 0.554753 0
M  V30 4963 O 447.391 1.70742 1.51854 0
M  V30 4964 C 447.601 2.98061 -1.8155 0
M  V30 4965 C 448.949 3.7117 -2.06199 0
M  V30 4966 O 449.973 3.08034 -1.78867 0
M  V30 4967 O 448.832 4.84721 -2.52404 0
M  V30 4968 H 445.926 0.749253 -0.35007 0
M  V30 4969 H 448.472 1.06668 -1.31985 0
M  V30 4970 H 447.244 2.70908 -2.82355 0
M  V30 4971 H 446.867 3.70968 -1.43068 0
M  V30 4972 N 447.864 1.01787 1.20321 0
M  V30 4973 C 449.11 0.708985 1.90003 0
M  V30 4974 C 449.443 -0.759572 1.78729 0
M  V30 4975 O 448.718 -1.55198 1.17234 0
M  V30 4976 C 449.001 1.1469 3.41348 0
M  V30 4977 C 448.854 2.67586 3.61549 0
M  V30 4978 C 450.173 0.71915 4.34185 0
M  V30 4979 H 447.292 0.259034 0.689978 0
M  V30 4980 H 449.934 1.26584 1.41692 0
M  V30 4981 H 448.084 0.673128 3.82624 0
M  V30 4982 H 449.756 3.22826 3.29517 0
M  V30 4983 H 447.999 3.085 3.04976 0
M  V30 4984 H 448.67 2.93281 4.67643 0
M  V30 4985 H 451.146 1.12647 4.00562 0
M  V30 4986 H 450.022 1.05358 5.38694 0
M  V30 4987 H 450.283 -0.379111 4.40472 0
M  V30 4988 N 449.342 -1.36122 0.79427 0
M  V30 4989 C 450.619 -1.93398 0.292685 0
M  V30 4990 C 450.999 -1.72567 -1.21589 0
M  V30 4991 O 450.347 -1.08745 -2.00965 0
M  V30 4992 C 450.557 -3.42099 0.690614 0
M  V30 4993 C 451.905 -4.19231 0.673105 0
M  V30 4994 O 452.929 -3.50559 0.631389 0
M  V30 4995 O 451.788 -5.41732 0.720362 0
M  V30 4996 H 448.882 -0.823712 0.0736693 0
M  V30 4997 H 451.428 -1.45273 0.87714 0
M  V30 4998 H 450.2 -3.50938 1.73085 0
M  V30 4999 H 449.823 -3.97519 0.0803036 0
M  V30 5000 N 450.82 -0.546701 -1.47814 0
M  V30 5001 C 451.73 0.21026 -2.33656 0
M  V30 5002 C 452.746 0.922413 -1.47538 0
M  V30 5003 O 453.922 0.893652 -1.80488 0
M  V30 5004 C 450.987 1.23348 -3.24016 0
M  V30 5005 C 450.048 0.529883 -4.26017 0
M  V30 5006 C 449.281 1.50435 -5.12059 0
M  V30 5007 O 449.504 2.73837 -5.00369 0
M  V30 5008 O 448.438 1.03459 -5.92942 0
M  V30 5009 H 452.264 -0.493605 -2.99662 0
M  V30 5010 H 449.849 -0.307427 -1.46203 0
M  V30 5011 H 451.731 1.82438 -3.79861 0
M  V30 5012 H 450.406 1.91945 -2.60651 0
M  V30 5013 H 449.313 -0.101948 -3.73961 0
M  V30 5014 H 450.646 -0.11445 -4.92067 0
M  V30 5015 N 452.299 1.55045 -0.282633 0
M  V30 5016 C 453.529 2.03872 0.334635 0
M  V30 5017 C 453.937 1.16018 1.49454 0
M  V30 5018 O 453.28 0.174449 1.8287 0
M  V30 5019 C 453.342 3.48791 0.870905 0
M  V30 5020 C 453.006 4.56715 -0.161338 0
M  V30 5021 C 454.003 5.10513 -0.983466 0
M  V30 5022 C 451.688 5.01417 -0.297745 0
M  V30 5023 C 453.682 6.07538 -1.92811 0
M  V30 5024 C 451.369 5.98265 -1.24586 0
M  V30 5025 C 452.367 6.51208 -2.05954 0
M  V30 5026 O 452.055 7.46162 -2.99162 0
M  V30 5027 H 451.787 0.671324 0.0793742 0
M  V30 5028 H 454.341 2.01169 -0.41473 0
M  V30 5029 H 452.571 3.48758 1.67047 0
M  V30 5030 H 454.26 3.80916 1.40207 0
M  V30 5031 H 455.026 4.76785 -0.888856 0
M  V30 5032 H 450.905 4.59849 0.325604 0
M  V30 5033 H 454.449 6.48787 -2.56363 0
M  V30 5034 H 450.346 6.31412 -1.34126 0
M  V30 5035 H 451.114 7.63903 -2.93929 0
M  V30 5036 N 453.777 0.010035 1.57597 0
M  V30 5037 C 454.725 -0.996272 2.10184 0
M  V30 5038 C 455.719 -1.34942 1.02406 0
M  V30 5039 O 456.925 -1.33389 1.20861 0
M  V30 5040 H 453.3 -0.338982 0.671264 0
M  V30 5041 H 455.271 -0.527272 2.93705 0
M  V30 5042 C 454.02 -2.27599 2.62857 0
M  V30 5043 H 453.343 -2.01295 3.45428 0
M  V30 5044 H 454.783 -2.96265 3.0332 0
M  V30 5045 C 453.242 -2.99269 1.54725 0
M  V30 5046 O 453.772 -3.90644 0.93597 0
M  V30 5047 N 451.978 -2.61269 1.27228 0
M  V30 5048 H 451.525 -1.87043 1.77123 0
M  V30 5049 H 451.483 -3.09534 0.550999 0
M  V30 5050 N 455.255 -1.55392 -0.262866 0
M  V30 5051 C 456.187 -1.85392 -1.34768 0
M  V30 5052 C 457.2 -0.739069 -1.45057 0
M  V30 5053 O 458.389 -1.01703 -1.46693 0
M  V30 5054 C 455.489 -2.01088 -2.72795 0
M  V30 5055 C 454.662 -3.31828 -2.84972 0
M  V30 5056 C 453.721 -3.37464 -4.03738 0
M  V30 5057 O 452.747 -4.10778 -3.94018 0
M  V30 5058 N 453.949 -2.65599 -5.16176 0
M  V30 5059 H 456.714 -2.79029 -1.09375 0
M  V30 5060 H 454.275 -1.55434 -0.452981 0
M  V30 5061 H 456.267 -2.02217 -3.50557 0
M  V30 5062 H 454.837 -1.1427 -2.90966 0
M  V30 5063 H 454.057 -3.43152 -1.94012 0
M  V30 5064 H 455.345 -4.18032 -2.90045 0
M  V30 5065 H 454.743 -2.05736 -5.26962 0
M  V30 5066 H 453.3 -2.72439 -5.92132 0
M  V30 5067 N 456.733 0.527833 -1.48498 0
M  V30 5068 C 457.963 1.30633 -1.60058 0
M  V30 5069 C 458.371 1.87394 -0.260786 0
M  V30 5070 O 457.714 1.67227 0.760317 0
M  V30 5071 C 457.776 2.49361 -2.58958 0
M  V30 5072 C 457.44 2.13671 -4.03972 0
M  V30 5073 C 458.437 1.69217 -4.91591 0
M  V30 5074 C 456.122 2.24129 -4.49524 0
M  V30 5075 C 458.116 1.35689 -6.2279 0
M  V30 5076 C 455.803 1.90212 -5.80743 0
M  V30 5077 C 456.801 1.46063 -6.67199 0
M  V30 5078 O 456.489 1.12593 -7.95976 0
M  V30 5079 H 456.221 0.403444 -0.54241 0
M  V30 5080 H 458.775 0.643233 -1.95068 0
M  V30 5081 H 457.005 3.18659 -2.19073 0
M  V30 5082 H 458.694 3.11421 -2.6033 0
M  V30 5083 H 459.46 1.60607 -4.57636 0
M  V30 5084 H 455.339 2.57447 -3.82416 0
M  V30 5085 H 458.883 1.01157 -6.90227 0
M  V30 5086 H 454.78 1.98464 -6.14233 0
M  V30 5087 H 455.548 1.25972 -8.08748 0
M  V30 5088 N 458.211 1.37122 0.776871 0
M  V30 5089 C 459.158 1.3247 1.88998 0
M  V30 5090 C 460.128 0.191143 1.64997 0
M  V30 5091 O 461.313 0.379683 1.86984 0
M  V30 5092 C 458.453 1.13241 3.25992 0
M  V30 5093 C 457.566 2.35782 3.61982 0
M  V30 5094 C 456.701 2.09465 4.88158 0
M  V30 5095 C 455.74 3.279 5.16864 0
M  V30 5096 N 454.877 3.01167 6.34226 0
M  V30 5097 H 459.717 2.27642 1.9231 0
M  V30 5098 H 457.254 1.13125 0.94027 0
M  V30 5099 H 459.212 1.00115 4.0501 0
M  V30 5100 H 457.842 0.217186 3.22069 0
M  V30 5101 H 456.894 2.59666 2.77989 0
M  V30 5102 H 458.206 3.24125 3.79137 0
M  V30 5103 H 457.36 1.93341 5.75069 0
M  V30 5104 H 456.099 1.18452 4.73097 0
M  V30 5105 H 455.104 3.44569 4.2843 0
M  V30 5106 H 456.329 4.19757 5.33836 0
M  V30 5107 H 454.275 2.12779 6.20533 0
M  V30 5108 H 454.192 3.83052 6.51772 0
M  V30 5109 H 455.46 2.88649 7.24087 0
M  V30 5110 N 459.689 -1.00246 1.21608 0
M  V30 5111 C 460.637 -2.11193 0.97469 0
M  V30 5112 C 461.631 -1.69216 -0.0789303 0
M  V30 5113 O 462.837 -1.79853 0.0726806 0
M  V30 5114 H 459.212 -0.690455 0.297953 0
M  V30 5115 H 461.183 -2.2873 1.91638 0
M  V30 5116 C 459.932 -3.43182 0.558717 0
M  V30 5117 H 459.255 -3.75918 1.3611 0
M  V30 5118 H 460.695 -4.21823 0.429154 0
M  V30 5119 C 459.154 -3.28882 -0.730648 0
M  V30 5120 O 459.684 -3.59835 -1.78554 0
M  V30 5121 N 457.89 -2.8209 -0.698131 0
M  V30 5122 H 457.437 -2.57099 0.16061 0
M  V30 5123 H 457.395 -2.72903 -1.56113 0
M  V30 5124 N 461.167 -1.02423 -1.1978 0
M  V30 5125 C 462.13 -0.605703 -2.21052 0
M  V30 5126 C 463.13 0.328209 -1.57415 0
M  V30 5127 O 464.32 0.115853 -1.73814 0
M  V30 5128 C 461.452 0.114366 -3.40708 0
M  V30 5129 H 462.645 -1.5017 -2.59594 0
M  V30 5130 H 460.198 -0.814888 -1.33376 0
M  V30 5131 H 460.933 1.02492 -3.07678 0
M  V30 5132 H 460.718 -0.556641 -3.88129 0
M  V30 5133 H 462.208 0.394272 -4.15735 0
M  V30 5134 N 462.645 1.35699 -0.801477 0
M  V30 5135 C 463.892 1.98913 -0.379459 0
M  V30 5136 C 464.22 1.63592 1.05204 0
M  V30 5137 O 463.475 0.888563 1.74365 0
M  V30 5138 C 463.774 3.53828 -0.504041 0
M  V30 5139 C 463.44 4.09002 -1.8981 0
M  V30 5140 C 462.102 4.23783 -2.27951 0
M  V30 5141 C 464.454 4.38939 -2.81038 0
M  V30 5142 C 461.782 4.65816 -3.56696 0
M  V30 5143 C 464.134 4.82409 -4.09224 0
M  V30 5144 C 462.798 4.95395 -4.4737 0
M  V30 5145 H 462.068 0.727874 -0.138854 0
M  V30 5146 H 464.715 1.61994 -1.02128 0
M  V30 5147 H 463.02 3.91175 0.221242 0
M  V30 5148 H 464.717 4.00687 -0.158361 0
M  V30 5149 H 461.307 3.97946 -1.59176 0
M  V30 5150 H 465.491 4.27077 -2.52821 0
M  V30 5151 H 460.747 4.74059 -3.86106 0
M  V30 5152 H 464.921 5.04535 -4.80018 0
M  V30 5153 H 462.548 5.27724 -5.47185 0
M  V30 5154 N 464.123 0.554532 1.47522 0
M  V30 5155 C 465.372 0.0273458 2.01681 0
M  V30 5156 C 465.685 -1.32962 1.43459 0
M  V30 5157 O 466.891 -1.94657 1.89265 0
M  V30 5158 C 465.347 -0.00159057 3.599 0
M  V30 5159 C 464.955 1.35197 4.27113 0
M  V30 5160 C 466.699 -0.476311 4.21819 0
M  V30 5161 C 464.606 1.28229 5.77331 0
M  V30 5162 H 463.536 0.00645269 0.753972 0
M  V30 5163 H 466.187 0.701985 1.69542 0
M  V30 5164 H 464.569 -0.741821 3.8899 0
M  V30 5165 H 465.743 2.1097 4.09668 0
M  V30 5166 H 464.058 1.76441 3.77171 0
M  V30 5167 H 466.655 -0.5468 5.31897 0
M  V30 5168 H 466.998 -1.4877 3.8881 0
M  V30 5169 H 467.531 0.20898 3.97251 0
M  V30 5170 H 464.27 2.26959 6.14955 0
M  V30 5171 H 463.79 0.566314 5.97121 0
M  V30 5172 H 465.469 0.983226 6.39485 0
M  V30 5173 N 465.601 -1.54893 0.290851 0
M  V30 5174 C 466.531 -2.26103 -0.583084 0
M  V30 5175 C 467.512 -1.25684 -1.14619 0
M  V30 5176 O 468.697 -1.54436 -1.17741 0
M  V30 5177 C 465.827 -2.99409 -1.75987 0
M  V30 5178 C 464.781 -4.0689 -1.32758 0
M  V30 5179 C 464.107 -4.67856 -2.58872 0
M  V30 5180 C 465.407 -5.20215 -0.46624 0
M  V30 5181 H 467.101 -2.99398 0.0108214 0
M  V30 5182 H 464.647 -1.43998 0.00664468 0
M  V30 5183 H 466.6 -3.47943 -2.37727 0
M  V30 5184 H 465.324 -2.23675 -2.37985 0
M  V30 5185 H 463.983 -3.59191 -0.733299 0
M  V30 5186 H 463.631 -3.88772 -3.19163 0
M  V30 5187 H 463.331 -5.40438 -2.30653 0
M  V30 5188 H 464.855 -5.19147 -3.21433 0
M  V30 5189 H 466.269 -5.64704 -0.989047 0
M  V30 5190 H 464.666 -5.99455 -0.27826 0
M  V30 5191 H 465.736 -4.82198 0.511173 0
M  V30 5192 N 467.08 -0.0183926 -1.57589 0
M  V30 5193 C 468.305 0.676634 -1.96052 0
M  V30 5194 C 468.73 1.6548 -0.894307 0
M  V30 5195 O 468.088 1.80712 0.145849 0
M  V30 5196 C 468.136 1.36872 -3.33614 0
M  V30 5197 O 467.24 2.48372 -3.29219 0
M  V30 5198 H 466.581 0.1786 -0.63953 0
M  V30 5199 H 469.111 -0.077056 -2.04455 0
M  V30 5200 H 469.121 1.72797 -3.69601 0
M  V30 5201 H 467.796 0.651636 -4.10763 0
M  V30 5202 H 466.373 2.14639 -3.04934 0
M  V30 5203 N 468.558 1.5553 0.254621 0
M  V30 5204 C 469.506 1.9048 1.33492 0
M  V30 5205 C 470.5 0.78304 1.50216 0
M  V30 5206 O 471.706 0.967582 1.51782 0
M  V30 5207 H 468.081 0.604846 0.44684 0
M  V30 5208 H 470.052 2.80688 1.01275 0
M  V30 5209 C 468.801 2.20928 2.68489 0
M  V30 5210 H 468.124 3.06742 2.56417 0
M  V30 5211 H 469.564 2.49291 3.42972 0
M  V30 5212 C 468.023 1.023 3.20993 0
M  V30 5213 O 468.553 0.267027 4.00811 0
M  V30 5214 N 466.759 0.815714 2.78917 0
M  V30 5215 H 466.306 1.43217 2.14119 0
M  V30 5216 H 466.264 0.0236532 3.14391 0
M  V30 5217 N 470.036 -0.519951 1.48776 0
M  V30 5218 C 470.983 -1.62352 1.64044 0
M  V30 5219 C 471.953 -1.58945 0.482251 0
M  V30 5220 O 473.138 -1.77219 0.706971 0
M  V30 5221 C 470.278 -3.00579 1.69547 0
M  V30 5222 C 469.391 -3.14145 2.96541 0
M  V30 5223 C 468.526 -4.42991 2.93142 0
M  V30 5224 C 467.565 -4.50122 4.14797 0
M  V30 5225 N 466.702 -5.7037 4.09418 0
M  V30 5226 H 471.542 -1.48643 2.58281 0
M  V30 5227 H 469.079 -0.723516 1.28077 0
M  V30 5228 H 471.037 -3.80671 1.70719 0
M  V30 5229 H 469.667 -3.13036 0.787918 0
M  V30 5230 H 468.719 -2.27239 3.05068 0
M  V30 5231 H 470.031 -3.15275 3.86527 0
M  V30 5232 H 469.185 -5.31385 2.92772 0
M  V30 5233 H 467.924 -4.44398 2.00902 0
M  V30 5234 H 466.929 -3.60133 4.15433 0
M  V30 5235 H 468.154 -4.50445 5.08208 0
M  V30 5236 H 466.1 -5.72655 3.20004 0
M  V30 5237 H 466.017 -5.73036 4.93119 0
M  V30 5238 H 467.285 -6.61023 4.13121 0
M  V30 5239 N 471.514 -1.37532 -0.769588 0
M  V30 5240 C 472.742 -1.36059 -1.55871 0
M  V30 5241 C 473.157 0.053544 -1.88724 0
M  V30 5242 O 472.514 1.01591 -1.5161 0
M  V30 5243 C 472.565 -2.20107 -2.86767 0
M  V30 5244 O 472.286 -3.56009 -2.55321 0
M  V30 5245 C 473.787 -2.26636 -3.80987 0
M  V30 5246 H 471.007 -0.465967 -0.482821 0
M  V30 5247 H 473.551 -1.80901 -0.953686 0
M  V30 5248 H 471.706 -1.78768 -3.43687 0
M  V30 5249 H 472.12 -4.0009 -3.39158 0
M  V30 5250 H 473.594 -2.89763 -4.69831 0
M  V30 5251 H 474.071 -1.2754 -4.20274 0
M  V30 5252 H 474.677 -2.68296 -3.29996 0
M  V30 5253 N 472.992 0.995999 -1.22138 0
M  V30 5254 C 473.922 2.10387 -1.01289 0
M  V30 5255 C 474.903 1.69975 0.0651454 0
M  V30 5256 O 476.088 1.9396 -0.0964628 0
M  V30 5257 C 473.218 3.42312 -0.586517 0
M  V30 5258 C 472.172 3.96558 -1.61014 0
M  V30 5259 C 471.498 5.24494 -1.0397 0
M  V30 5260 C 472.798 4.27595 -2.99933 0
M  V30 5261 H 474.492 2.28086 -1.93951 0
M  V30 5262 H 472.038 1.09607 -0.933928 0
M  V30 5263 H 473.991 4.19223 -0.427793 0
M  V30 5264 H 472.715 3.24431 0.375761 0
M  V30 5265 H 471.374 3.21776 -1.75658 0
M  V30 5266 H 471.022 5.02953 -0.0688703 0
M  V30 5267 H 470.722 5.61755 -1.72352 0
M  V30 5268 H 472.246 6.04042 -0.892494 0
M  V30 5269 H 473.66 4.95315 -2.8868 0
M  V30 5270 H 472.057 4.76021 -3.6541 0
M  V30 5271 H 473.127 3.35498 -3.50099 0
M  V30 5272 N 474.47 1.03057 1.19235 0
M  V30 5273 C 475.38 0.622922 2.26179 0
M  V30 5274 C 476.396 -0.346113 1.70523 0
M  V30 5275 O 477.572 -0.203572 2.00369 0
M  V30 5276 C 474.637 -0.0182063 3.46695 0
M  V30 5277 C 473.698 0.998546 4.17526 0
M  V30 5278 C 472.931 0.387917 5.32288 0
M  V30 5279 O 473.154 -0.808668 5.64639 0
M  V30 5280 O 472.088 1.1116 5.91546 0
M  V30 5281 H 475.914 1.51363 2.63292 0
M  V30 5282 H 473.499 0.800856 1.26122 0
M  V30 5283 H 475.381 -0.375606 4.19723 0
M  V30 5284 H 474.056 -0.882895 3.11427 0
M  V30 5285 H 472.963 1.40756 3.4661 0
M  V30 5286 H 474.296 1.83366 4.56769 0
M  V30 5287 N 475.948 -1.35272 0.808662 0
M  V30 5288 C 476.896 -2.31663 0.208606 0
M  V30 5289 C 477.89 -1.56731 -0.642778 0
M  V30 5290 O 479.096 -1.71843 -0.53571 0
M  V30 5291 H 475.471 -0.750421 0.0486993 0
M  V30 5292 H 477.442 -2.79814 1.03666 0
M  V30 5293 C 476.191 -3.42008 -0.626573 0
M  V30 5294 H 475.514 -3.99795 0.0192103 0
M  V30 5295 H 476.954 -4.11727 -1.01278 0
M  V30 5296 C 475.413 -2.85226 -1.79298 0
M  V30 5297 O 475.943 -2.78945 -2.89055 0
M  V30 5298 N 474.149 -2.42245 -1.60516 0
M  V30 5299 H 473.696 -2.47554 -0.712375 0
M  V30 5300 H 473.654 -2.04603 -2.38715 0
M  V30 5301 N 477.426 -0.562348 -1.47226 0
M  V30 5302 C 478.654 -0.0452275 -2.06851 0
M  V30 5303 C 479.069 1.25078 -1.41424 0
M  V30 5304 O 478.426 1.75156 -0.512513 0
M  V30 5305 C 478.477 0.148674 -3.61194 0
M  V30 5306 O 478.198 -1.09602 -4.24169 0
M  V30 5307 C 479.699 0.702488 -4.37699 0
M  V30 5308 H 476.919 -0.0481775 -0.669268 0
M  V30 5309 H 479.463 -0.777223 -1.89155 0
M  V30 5310 H 477.618 0.830817 -3.78386 0
M  V30 5311 H 478.032 -0.896982 -5.16773 0
M  V30 5312 H 479.506 0.78743 -5.46355 0
M  V30 5313 H 479.983 1.71493 -4.04335 0
M  V30 5314 H 480.589 0.0558772 -4.25263 0
M  V30 5315 N 478.904 1.54736 -0.299062 0
M  V30 5316 C 480.32 1.59507 0.0543849 0
M  V30 5317 C 480.52 1.31606 1.52585 0
M  V30 5318 O 479.576 1.08853 2.27832 0
M  V30 5319 C 480.889 2.98751 -0.34181 0
M  V30 5320 C 482.437 3.1165 -0.290414 0
M  V30 5321 C 482.912 4.53199 -0.661402 0
M  V30 5322 N 484.403 4.59114 -0.613863 0
M  V30 5323 C 485.138 5.66709 -0.873417 0
M  V30 5324 N 484.634 6.82349 -1.19884 0
M  V30 5325 N 486.427 5.56369 -0.800608 0
M  V30 5326 H 478.578 1.71133 -1.25806 0
M  V30 5327 H 480.841 0.799186 -0.509908 0
M  V30 5328 H 480.547 3.24085 -1.36608 0
M  V30 5329 H 480.421 3.75961 0.305508 0
M  V30 5330 H 482.808 2.86066 0.724605 0
M  V30 5331 H 482.889 2.366 -0.972327 0
M  V30 5332 H 482.533 4.79513 -1.67422 0
M  V30 5333 H 482.463 5.26583 0.0425612 0
M  V30 5334 H 484.954 3.76053 -0.3732 0
M  V30 5335 H 485.267 7.60326 -1.38291 0
M  V30 5336 H 483.612 6.83906 -1.23685 0
M  V30 5337 H 486.803 4.64904 -0.546045 0
M  V30 5338 H 486.976 6.40139 -1.00626 0
M  V30 5339 N 480.382 0.0267497 1.57577 0
M  V30 5340 C 481.659 -0.690926 1.82991 0
M  V30 5341 C 482.039 -1.90471 0.910164 0
M  V30 5342 O 481.387 -2.28474 -0.0347985 0
M  V30 5343 C 481.597 -1.07139 3.32148 0
M  V30 5344 C 482.945 -1.46402 3.98562 0
M  V30 5345 O 483.969 -1.16443 3.36629 0
M  V30 5346 O 482.828 -2.02214 5.07712 0
M  V30 5347 H 479.922 -0.338747 0.75444 0
M  V30 5348 H 482.468 0.0542506 1.69613 0
M  V30 5349 H 481.24 -0.207394 3.9075 0
M  V30 5350 H 480.863 -1.87481 3.50623 0
M  V30 5351 N 481.861 -1.55662 -0.24637 0
M  V30 5352 C 483.138 -1.68272 -0.997198 0
M  V30 5353 C 483.518 -0.566785 -2.03349 0
M  V30 5354 O 482.866 0.429688 -2.24424 0
M  V30 5355 C 483.076 -3.08594 -1.63006 0
M  V30 5356 C 484.424 -3.6721 -2.13171 0
M  V30 5357 O 485.448 -3.11397 -1.72946 0
M  V30 5358 O 484.307 -4.65054 -2.87031 0
M  V30 5359 H 481.401 -0.684429 -0.464205 0
M  V30 5360 H 483.947 -1.67993 -0.240114 0
M  V30 5361 H 482.719 -3.81264 -0.880527 0
M  V30 5362 H 482.342 -3.12886 -2.45333 0
M  V30 5363 N 483.339 0.512053 -1.4905 0
M  V30 5364 C 484.567 1.29116 -1.61669 0
M  V30 5365 C 484.982 1.86655 -0.283787 0
M  V30 5366 O 484.339 1.67293 0.729331 0
M  V30 5367 C 484.39 2.4293 -2.67707 0
M  V30 5368 O 484.111 1.87758 -3.95826 0
M  V30 5369 C 485.612 3.34476 -2.90931 0
M  V30 5370 H 482.832 0.392009 -0.544583 0
M  V30 5371 H 485.376 0.615881 -1.95006 0
M  V30 5372 H 483.531 3.06308 -2.37179 0
M  V30 5373 H 483.945 2.62393 -4.54148 0
M  V30 5374 H 485.419 4.10642 -3.68886 0
M  V30 5375 H 485.896 3.90801 -2.00427 0
M  V30 5376 H 486.502 2.76874 -3.22832 0
M  V30 5377 N 484.817 1.37938 0.762283 0
M  V30 5378 C 485.764 1.34467 1.87583 0
M  V30 5379 C 486.734 0.208633 1.64785 0
M  V30 5380 O 487.919 0.399494 1.86571 0
M  V30 5381 C 485.059 1.16692 3.24772 0
M  V30 5382 C 484.172 2.39608 3.59461 0
M  V30 5383 C 483.307 2.14631 4.85908 0
M  V30 5384 C 482.346 3.33364 5.13357 0
M  V30 5385 N 481.483 3.07877 6.30996 0
M  V30 5386 H 486.323 2.29669 1.89885 0
M  V30 5387 H 483.86 1.14116 0.928219 0
M  V30 5388 H 485.818 1.04405 4.03925 0
M  V30 5389 H 484.448 0.251333 3.2182 0
M  V30 5390 H 483.5 2.626 2.75219 0
M  V30 5391 H 484.812 3.28128 3.75678 0
M  V30 5392 H 483.966 1.99429 5.72986 0
M  V30 5393 H 482.705 1.23463 4.71814 0
M  V30 5394 H 481.71 3.49094 4.24751 0
M  V30 5395 H 482.935 4.25395 5.29354 0
M  V30 5396 H 480.881 2.19348 6.18241 0
M  V30 5397 H 480.798 3.89944 6.47673 0
M  V30 5398 H 482.066 2.96313 7.20985 0
M  V30 5399 N 486.295 -0.989507 1.22664 0
M  V30 5400 C 487.544 -1.72375 1.04737 0
M  V30 5401 C 487.857 -1.91096 -0.417316 0
M  V30 5402 O 489.063 -2.6188 -0.716334 0
M  V30 5403 C 487.519 -3.10161 1.82561 0
M  V30 5404 C 487.127 -2.99358 3.333 0
M  V30 5405 C 488.871 -3.87607 1.73093 0
M  V30 5406 C 486.778 -4.32319 4.03552 0
M  V30 5407 H 485.708 -0.646326 0.388302 0
M  V30 5408 H 488.359 -1.10437 1.46546 0
M  V30 5409 H 486.741 -3.728 1.33552 0
M  V30 5410 H 487.915 -2.45863 3.89728 0
M  V30 5411 H 486.23 -2.35392 3.43481 0
M  V30 5412 H 488.827 -4.86025 2.22899 0
M  V30 5413 H 489.17 -4.10509 0.691976 0
M  V30 5414 H 489.703 -3.31652 2.19663 0
M  V30 5415 H 486.442 -4.14616 5.07714 0
M  V30 5416 H 485.962 -4.85714 3.51911 0
M  V30 5417 H 487.641 -5.01051 4.09337 0
M  V30 5418 N 487.773 -1.03688 -1.18687 0
M  V30 5419 C 488.703 -0.645407 -2.24403 0
M  V30 5420 C 489.684 0.349511 -1.66471 0
M  V30 5421 O 490.869 0.230453 -1.92828 0
M  V30 5422 C 487.999 -0.00365337 -3.473 0
M  V30 5423 C 486.953 -0.921705 -4.17958 0
M  V30 5424 C 486.279 -0.144629 -5.34504 0
M  V30 5425 C 487.579 -2.23909 -4.71871 0
M  V30 5426 H 489.273 -1.52917 -2.57404 0
M  V30 5427 H 486.819 -0.736711 -1.23728 0
M  V30 5428 H 488.772 0.281908 -4.20456 0
M  V30 5429 H 487.496 0.914963 -3.13522 0
M  V30 5430 H 486.155 -1.19159 -3.46694 0
M  V30 5431 H 485.803 0.776274 -4.96974 0
M  V30 5432 H 485.503 -0.756206 -5.82714 0
M  V30 5433 H 487.027 0.134004 -6.10453 0
M  V30 5434 H 488.441 -2.0145 -5.36741 0
M  V30 5435 H 486.838 -2.8033 -5.30599 0
M  V30 5436 H 487.908 -2.88822 -3.895 0
M  V30 5437 N 489.251 1.34841 -0.815825 0
M  V30 5438 C 490.201 2.27075 -0.205169 0
M  V30 5439 C 491.185 1.48205 0.626414 0
M  V30 5440 O 492.377 1.70306 0.482157 0
M  V30 5441 C 489.506 3.37322 0.637871 0
M  V30 5442 C 488.592 4.23609 -0.203948 0
M  V30 5443 N 488.983 4.89558 -1.27149 0
M  V30 5444 C 487.281 4.45998 0.0128971 0
M  V30 5445 C 487.982 5.53597 -1.7862 0
M  V30 5446 N 486.958 5.32535 -1.0912 0
M  V30 5447 H 490.76 2.75563 -1.02187 0
M  V30 5448 H 488.274 1.48477 -0.657912 0
M  V30 5449 H 490.271 4.02359 1.09146 0
M  V30 5450 H 488.931 2.90385 1.45281 0
M  V30 5451 H 489.942 4.9077 -1.65423 0
M  V30 5452 H 486.619 4.09837 0.79624 0
M  V30 5453 H 488.009 6.16184 -2.67892 0
M  V30 5454 N 490.729 0.570148 1.46925 0
M  V30 5455 C 492.14 0.1402 1.86173 0
M  V30 5456 C 492.491 -1.29347 1.47526 0
M  V30 5457 O 491.616 -1.97508 0.884292 0
M  V30 5458 C 492.211 0.247661 3.37894 0
M  V30 5459 C 490.77 -0.127332 3.76185 0
M  V30 5460 C 489.917 0.589349 2.70965 0
M  V30 5461 H 492.868 0.779117 1.38259 0
M  V30 5462 H 492.889 -0.530341 3.76786 0
M  V30 5463 H 492.401 1.29121 3.65991 0
M  V30 5464 H 490.502 -1.17149 3.53704 0
M  V30 5465 H 490.615 0.240238 4.78497 0
M  V30 5466 H 488.979 0.0309824 2.54681 0
M  V30 5467 H 489.762 1.6343 3.01903 0
M  V30 5468 N 492.207 -1.54576 0.307264 0
M  V30 5469 C 493.137 -2.26708 -0.55907 0
M  V30 5470 C 494.118 -1.26893 -1.1328 0
M  V30 5471 O 495.303 -1.55677 -1.16097 0
M  V30 5472 C 492.433 -3.01259 -1.72801 0
M  V30 5473 C 491.387 -4.08275 -1.28435 0
M  V30 5474 C 490.713 -4.70575 -2.53895 0
M  V30 5475 C 492.013 -5.2068 -0.411038 0
M  V30 5476 H 493.707 -2.9937 0.042576 0
M  V30 5477 H 491.253 -1.43983 0.0219173 0
M  V30 5478 H 493.206 -3.50444 -2.34023 0
M  V30 5479 H 491.93 -2.26187 -2.356 0
M  V30 5480 H 490.589 -3.59949 -0.695161 0
M  V30 5481 H 490.237 -3.92136 -3.15021 0
M  V30 5482 H 489.937 -5.42854 -2.24908 0
M  V30 5483 H 491.461 -5.22527 -3.15908 0
M  V30 5484 H 492.875 -5.65721 -0.929097 0
M  V30 5485 H 491.272 -5.99716 -0.214664 0
M  V30 5486 H 492.342 -4.81629 0.562287 0
M  V30 5487 N 493.685 -0.035106 -1.57561 0
M  V30 5488 C 495.096 0.502885 -1.798 0
M  V30 5489 C 495.447 1.71892 -0.945921 0
M  V30 5490 O 494.572 2.15822 -0.157991 0
M  V30 5491 C 495.167 0.919097 -3.26095 0
M  V30 5492 C 493.726 1.40216 -3.49308 0
M  V30 5493 C 492.873 0.369709 -2.74824 0
M  V30 5494 H 495.824 -0.261102 -1.56537 0
M  V30 5495 H 495.845 1.78308 -3.36135 0
M  V30 5496 H 495.357 0.0338526 -3.88085 0
M  V30 5497 H 493.458 2.30714 -2.92578 0
M  V30 5498 H 493.571 1.40541 -4.58023 0
M  V30 5499 H 491.935 0.839113 -2.40481 0
M  V30 5500 H 492.718 -0.507173 -3.39533 0
M  V30 5501 N 495.163 1.55791 0.238111 0
M  V30 5502 C 496.579 1.48411 0.587045 0
M  V30 5503 C 496.779 0.72702 1.87927 0
M  V30 5504 O 495.835 0.259942 2.51158 0
M  V30 5505 C 497.148 2.92873 0.681623 0
M  V30 5506 C 498.696 3.03295 0.773363 0
M  V30 5507 C 499.171 4.49082 0.899428 0
M  V30 5508 N 500.662 4.53056 0.964075 0
M  V30 5509 C 501.397 5.63117 1.08104 0
M  V30 5510 N 500.893 6.82969 1.16299 0
M  V30 5511 N 502.686 5.50933 1.11488 0
M  V30 5512 H 494.837 2.0345 -0.610076 0
M  V30 5513 H 497.1 0.924034 -0.211813 0
M  V30 5514 H 496.806 3.51142 -0.19802 0
M  V30 5515 H 496.68 3.43851 1.55069 0
M  V30 5516 H 499.067 2.45101 1.64346 0
M  V30 5517 H 499.148 2.55513 -0.121034 0
M  V30 5518 H 498.792 5.07889 0.0338586 0
M  V30 5519 H 498.722 4.94553 1.809 0
M  V30 5520 H 501.213 3.66737 0.91173 0
M  V30 5521 H 501.526 7.62598 1.25155 0
M  V30 5522 H 499.871 6.85712 1.13241 0
M  V30 5523 H 503.062 4.56231 1.0474 0
M  V30 5524 H 503.235 6.36743 1.20259 0
M  V30 5525 N 496.642 -0.504142 1.49319 0
M  V30 5526 C 497.888 -1.26033 1.58882 0
M  V30 5527 C 498.221 -1.92268 0.273274 0
M  V30 5528 O 497.496 -1.80567 -0.72291 0
M  V30 5529 C 497.779 -2.32976 2.7458 0
M  V30 5530 C 497.632 -1.71263 4.1592 0
M  V30 5531 C 498.951 -3.34561 2.85932 0
M  V30 5532 H 496.07 -0.456863 0.578312 0
M  V30 5533 H 498.712 -0.558965 1.81592 0
M  V30 5534 H 496.862 -2.92796 2.55348 0
M  V30 5535 H 498.534 -1.15294 4.4666 0
M  V30 5536 H 496.777 -1.01686 4.21714 0
M  V30 5537 H 497.448 -2.48816 4.92742 0
M  V30 5538 H 499.924 -2.84727 3.0343 0
M  V30 5539 H 498.8 -4.06754 3.68568 0
M  V30 5540 H 499.061 -3.96695 1.95154 0
M  V30 5541 N 498.12 -1.38341 -0.754957 0
M  V30 5542 C 499.068 -1.35573 -1.89005 0
M  V30 5543 C 500.062 -0.241824 -1.67665 0
M  V30 5544 O 501.268 -0.410785 -1.7525 0
M  V30 5545 H 497.643 -0.422898 -0.621821 0
M  V30 5546 H 499.614 -2.31359 -1.88455 0
M  V30 5547 C 498.363 -1.19631 -3.26471 0
M  V30 5548 H 497.686 -2.04605 -3.43477 0
M  V30 5549 H 499.126 -1.21748 -4.06144 0
M  V30 5550 C 497.585 0.0968705 -3.36761 0
M  V30 5551 O 498.115 1.07439 -3.87066 0
M  V30 5552 N 496.321 0.153242 -2.90196 0
M  V30 5553 H 495.868 -0.642908 -2.49448 0
M  V30 5554 H 495.826 1.01807 -2.9746 0
M  V30 5555 N 499.598 0.982988 -1.23187 0
M  V30 5556 C 500.508 2.10907 -1.02739 0
M  V30 5557 C 501.524 1.73979 0.0273188 0
M  V30 5558 O 502.7 2.00702 -0.16757 0
M  V30 5559 C 499.765 3.41142 -0.618304 0
M  V30 5560 C 498.826 3.92112 -1.74777 0
M  V30 5561 C 498.059 5.16131 -1.3581 0
M  V30 5562 O 498.282 5.6989 -0.241201 0
M  V30 5563 O 497.216 5.61103 -2.17824 0
M  V30 5564 H 501.042 2.31046 -1.97108 0
M  V30 5565 H 498.627 1.09284 -1.01869 0
M  V30 5566 H 500.509 4.19488 -0.400982 0
M  V30 5567 H 499.184 3.2234 0.296421 0
M  V30 5568 H 498.091 3.14895 -2.0197 0
M  V30 5569 H 499.424 4.15364 -2.64071 0
M  V30 5570 N 501.076 1.04316 1.18135 0
M  V30 5571 C 502.325 0.74319 1.87509 0
M  V30 5572 C 502.638 -0.732136 1.81381 0
M  V30 5573 O 503.844 -1.14572 2.46141 0
M  V30 5574 C 502.3 1.27913 3.36402 0
M  V30 5575 C 501.908 2.78326 3.51053 0
M  V30 5576 C 503.652 1.0558 4.11161 0
M  V30 5577 C 501.559 3.25266 4.93919 0
M  V30 5578 H 500.489 0.274313 0.702331 0
M  V30 5579 H 503.14 1.25931 1.33467 0
M  V30 5580 H 501.522 0.690853 3.89927 0
M  V30 5581 H 502.696 3.42933 3.07788 0
M  V30 5582 H 501.011 2.991 2.89704 0
M  V30 5583 H 503.608 1.38161 5.16542 0
M  V30 5584 H 503.951 -0.00684729 4.16299 0
M  V30 5585 H 504.484 1.60882 3.63816 0
M  V30 5586 H 501.223 4.30922 4.9395 0
M  V30 5587 H 500.743 2.65396 5.3789 0
M  V30 5588 H 502.422 3.19433 5.62647 0
M  V30 5589 N 502.554 -1.34406 0.822964 0
M  V30 5590 C 503.501 -2.29519 0.24284 0
M  V30 5591 C 504.471 -1.5359 -0.632397 0
M  V30 5592 O 505.656 -1.8196 -0.57403 0
M  V30 5593 C 502.796 -3.40032 -0.58925 0
M  V30 5594 C 501.909 -4.30899 0.308236 0
M  V30 5595 C 501.044 -5.28515 -0.533425 0
M  V30 5596 C 500.083 -6.1102 0.363444 0
M  V30 5597 N 499.22 -7.00725 -0.439147 0
M  V30 5598 H 504.06 -2.78537 1.05929 0
M  V30 5599 H 501.597 -1.3707 0.533872 0
M  V30 5600 H 503.555 -4.0279 -1.087 0
M  V30 5601 H 502.185 -2.92248 -1.37081 0
M  V30 5602 H 501.237 -3.69002 0.924203 0
M  V30 5603 H 502.549 -4.88717 0.997862 0
M  V30 5604 H 501.703 -5.96725 -1.09565 0
M  V30 5605 H 500.442 -4.71235 -1.25656 0
M  V30 5606 H 499.447 -5.41743 0.937812 0
M  V30 5607 H 500.672 -6.70381 1.08469 0
M  V30 5608 H 498.618 -6.45913 -1.14595 0
M  V30 5609 H 498.535 -7.55756 0.19209 0
M  V30 5610 H 499.803 -7.73263 -0.984124 0
M  V30 5611 N 504.032 -0.577932 -1.46621 0
M  V30 5612 C 505.278 -0.0617793 -2.02706 0
M  V30 5613 C 505.611 1.29294 -1.44903 0
M  V30 5614 O 504.886 1.8461 -0.61232 0
M  V30 5615 C 505.169 0.00911824 -3.60099 0
M  V30 5616 C 505.022 -1.37416 -4.28295 0
M  V30 5617 C 506.341 0.712159 -4.343 0
M  V30 5618 H 503.46 -0.0239246 -0.736612 0
M  V30 5619 H 506.102 -0.744211 -1.74818 0
M  V30 5620 H 504.252 0.590292 -3.83989 0
M  V30 5621 H 505.924 -2.00013 -4.15683 0
M  V30 5622 H 504.167 -1.94319 -3.87843 0
M  V30 5623 H 504.838 -1.27707 -5.37024 0
M  V30 5624 H 507.314 0.218486 -4.15526 0
M  V30 5625 H 506.19 0.730782 -5.44014 0
M  V30 5626 H 506.451 1.77251 -4.05012 0
M  V30 5627 N 505.51 1.54411 -0.315457 0
M  V30 5628 C 506.42 2.27737 0.56329 0
M  V30 5629 C 507.436 1.31787 1.13614 0
M  V30 5630 O 508.612 1.64791 1.15784 0
M  V30 5631 C 505.677 3.01478 1.71207 0
M  V30 5632 C 504.738 4.12997 1.17185 0
M  V30 5633 C 503.971 4.83212 2.26588 0
M  V30 5634 O 504.194 4.52884 3.46775 0
M  V30 5635 O 503.128 5.70299 1.92463 0
M  V30 5636 H 506.954 3.03683 -0.0319614 0
M  V30 5637 H 504.539 1.49178 -0.0814188 0
M  V30 5638 H 506.421 3.47683 2.38106 0
M  V30 5639 H 505.096 2.28414 2.29366 0
M  V30 5640 H 504.003 3.71159 0.468174 0
M  V30 5641 H 505.336 4.8808 0.635501 0
M  V30 5642 N 506.988 0.0434614 1.5754 0
M  V30 5643 C 508.234 -0.632971 1.92669 0
M  V30 5644 C 508.567 -1.70947 0.921446 0
M  V30 5645 O 507.842 -1.94426 -0.0537202 0
M  V30 5646 C 508.125 -1.23619 3.38216 0
M  V30 5647 C 507.978 -0.168274 4.49485 0
M  V30 5648 C 509.297 -2.15008 3.84005 0
M  V30 5649 H 506.416 -0.228629 0.700641 0
M  V30 5650 H 509.058 0.103651 1.89717 0
M  V30 5651 H 507.208 -1.864 3.40863 0
M  V30 5652 H 508.88 0.463196 4.58969 0
M  V30 5653 H 507.123 0.504581 4.30855 0
M  V30 5654 H 507.794 -0.630218 5.48391 0
M  V30 5655 H 510.27 -1.62198 3.83185 0
M  V30 5656 H 509.146 -2.54161 4.86511 0
M  V30 5657 H 509.407 -3.04707 3.20322 0
M  V30 5658 N 508.466 -1.55915 -0.229846 0
M  V30 5659 C 509.743 -1.6932 -0.979295 0
M  V30 5660 C 510.123 -0.588321 -2.02736 0
M  V30 5661 O 509.471 0.40586 -2.24867 0
M  V30 5662 C 509.681 -3.10305 -1.59724 0
M  V30 5663 C 511.029 -3.6945 -2.09264 0
M  V30 5664 O 512.053 -3.13214 -1.69633 0
M  V30 5665 O 510.912 -4.68072 -2.82082 0
M  V30 5666 H 508.006 -0.689314 -0.456919 0
M  V30 5667 H 510.552 -1.68238 -0.222283 0
M  V30 5668 H 509.324 -3.82177 -0.840039 0
M  V30 5669 H 508.947 -3.1547 -2.42001 0
M  V30 5670 N 509.944 0.496216 -1.49584 0
M  V30 5671 C 511.169 1.27865 -1.63295 0
M  V30 5672 C 511.594 1.85592 -0.306156 0
M  V30 5673 O 510.952 1.66092 0.726851 0
M  V30 5674 C 511 2.38128 -2.7079 0
M  V30 5675 O 510.104 3.42108 -2.30296 0
M  V30 5676 H 509.445 0.377279 -0.546403 0
M  V30 5677 H 511.975 0.593497 -1.95803 0
M  V30 5678 H 511.985 2.8382 -2.93104 0
M  V30 5679 H 510.66 1.95479 -3.67098 0
M  V30 5680 H 509.237 3.02301 -2.18331 0
M  V30 5681 N 511.423 1.38739 0.74761 0
M  V30 5682 C 512.371 1.36573 1.88283 0
M  V30 5683 C 513.365 0.250712 1.67534 0
M  V30 5684 O 514.571 0.420073 1.7503 0
M  V30 5685 H 510.946 0.42619 0.619569 0
M  V30 5686 H 512.917 2.32356 1.87226 0
M  V30 5687 C 511.666 1.21361 3.25832 0
M  V30 5688 H 510.989 2.06424 3.42388 0
M  V30 5689 H 512.429 1.23901 4.05493 0
M  V30 5690 C 510.888 -0.0790099 3.36807 0
M  V30 5691 O 511.418 -1.05385 3.8763 0
M  V30 5692 N 509.624 -0.13785 2.90273 0
M  V30 5693 H 509.171 0.656128 2.49104 0
M  V30 5694 H 509.129 -1.00228 2.97996 0
M  V30 5695 N 512.901 -0.976442 1.23707 0
M  V30 5696 C 514.312 -1.53284 1.06587 0
M  V30 5697 C 514.663 -1.92765 -0.365526 0
M  V30 5698 O 513.788 -1.7645 -1.25277 0
M  V30 5699 C 514.383 -2.78548 1.92864 0
M  V30 5700 C 512.942 -3.30574 1.79994 0
M  V30 5701 C 512.089 -2.03538 1.88328 0
M  V30 5702 H 515.04 -0.795692 1.37311 0
M  V30 5703 H 515.061 -3.5155 1.45577 0
M  V30 5704 H 514.573 -2.49782 2.97037 0
M  V30 5705 H 512.674 -3.64211 0.786202 0
M  V30 5706 H 512.787 -4.00065 2.636 0
M  V30 5707 H 511.151 -2.17853 1.31954 0
M  V30 5708 H 511.934 -1.77149 2.94063 0
M  V30 5709 N 514.379 -1.04941 -1.1758 0
M  V30 5710 C 515.326 -0.648155 -2.21512 0
M  V30 5711 C 516.296 0.348431 -1.62404 0
M  V30 5712 O 517.481 0.240419 -1.89279 0
M  V30 5713 C 514.621 -0.0264291 -3.4509 0
M  V30 5714 C 513.734 -1.07154 -4.185 0
M  V30 5715 C 512.869 -0.417403 -5.29558 0
M  V30 5716 C 511.908 -1.447 -5.94751 0
M  V30 5717 N 511.045 -0.817203 -6.97328 0
M  V30 5718 H 515.885 -1.53891 -2.55189 0
M  V30 5719 H 513.422 -0.769699 -1.25356 0
M  V30 5720 H 515.38 0.351456 -4.15717 0
M  V30 5721 H 514.01 0.827802 -3.12005 0
M  V30 5722 H 513.062 -1.56728 -3.46613 0
M  V30 5723 H 514.374 -1.8532 -4.63096 0
M  V30 5724 H 513.528 0.0142061 -6.06698 0
M  V30 5725 H 512.267 0.396265 -4.86087 0
M  V30 5726 H 511.272 -1.88865 -5.16343 0
M  V30 5727 H 512.497 -2.26252 -6.40302 0
M  V30 5728 H 510.443 -0.0239995 -6.55996 0
M  V30 5729 H 510.36 -1.53644 -7.40223 0
M  V30 5730 H 511.628 -0.410283 -7.7842 0
M  V30 5731 N 515.857 1.33968 -0.830081 0
M  V30 5732 C 517.082 2.02813 -0.433796 0
M  V30 5733 C 517.507 1.62076 0.954614 0
M  V30 5734 O 516.865 0.808955 1.62252 0
M  V30 5735 C 516.913 3.56348 -0.552115 0
M  V30 5736 O 516.017 4.10202 0.425191 0
M  V30 5737 H 515.358 0.639817 -0.177567 0
M  V30 5738 H 517.888 1.7106 -1.12248 0
M  V30 5739 H 517.898 4.05722 -0.430513 0
M  V30 5740 H 516.573 3.85344 -1.56471 0
M  V30 5741 H 515.15 3.71979 0.261878 0
M  V30 5742 N 517.335 0.585699 1.46312 0
M  V30 5743 C 518.581 0.0725284 2.0267 0
M  V30 5744 C 518.914 -1.28523 1.45586 0
M  V30 5745 O 518.189 -1.84283 0.622101 0
M  V30 5746 C 518.472 0.0099788 3.60099 0
M  V30 5747 C 518.325 1.39685 4.27561 0
M  V30 5748 C 519.644 -0.689117 4.34671 0
M  V30 5749 H 516.763 0.0278307 0.736474 0
M  V30 5750 H 519.405 0.753472 1.74421 0
M  V30 5751 H 517.555 -0.56992 3.84297 0
M  V30 5752 H 519.227 2.02215 4.14617 0
M  V30 5753 H 517.47 1.96374 3.86807 0
M  V30 5754 H 518.141 1.30553 5.36339 0
M  V30 5755 H 520.617 -0.196446 4.15636 0
M  V30 5756 H 519.493 -0.701921 5.44393 0
M  V30 5757 H 519.754 -1.75101 4.05946 0
M  V30 5758 N 518.813 -1.54241 0.323641 0
M  V30 5759 C 520.043 -2.04687 -0.280464 0
M  V30 5760 C 520.451 -1.19939 -1.46326 0
M  V30 5761 O 519.794 -0.222872 -1.82343 0
M  V30 5762 C 519.856 -3.50978 -0.778123 0
M  V30 5763 C 519.52 -4.56127 0.282371 0
M  V30 5764 C 520.517 -5.07726 1.11847 0
M  V30 5765 C 518.202 -5.00451 0.430582 0
M  V30 5766 C 520.196 -6.02212 2.08851 0
M  V30 5767 C 517.883 -5.94752 1.40404 0
M  V30 5768 C 518.881 -6.45519 2.23147 0
M  V30 5769 O 518.569 -7.37968 3.1884 0
M  V30 5770 H 518.301 -0.673192 -0.0615473 0
M  V30 5771 H 520.855 -1.99999 0.467921 0
M  V30 5772 H 519.085 -3.53064 -1.57742 0
M  V30 5773 H 520.774 -3.84499 -1.30058 0
M  V30 5774 H 521.54 -4.74261 1.01496 0
M  V30 5775 H 517.419 -4.6055 -0.203569 0
M  V30 5776 H 520.963 -6.41761 2.73474 0
M  V30 5777 H 516.86 -6.27633 1.5082 0
M  V30 5778 H 517.628 -7.55841 3.14079 0
M  V30 5779 N 520.291 -0.0518155 -1.57515 0
M  V30 5780 C 521.538 0.621823 -1.92716 0
M  V30 5781 C 521.866 1.70813 -0.930229 0
M  V30 5782 O 521.121 1.95616 0.0573708 0
M  V30 5783 C 521.42 1.25607 -3.34601 0
M  V30 5784 C 521.086 0.297901 -4.49915 0
M  V30 5785 C 519.748 0.034243 -4.81188 0
M  V30 5786 C 522.1 -0.358738 -5.19964 0
M  V30 5787 C 519.428 -0.893479 -5.79857 0
M  V30 5788 C 521.78 -1.27466 -6.19625 0
M  V30 5789 C 520.444 -1.54698 -6.49326 0
M  V30 5790 H 519.714 0.227541 -0.705199 0
M  V30 5791 H 522.361 -0.118432 -1.91133 0
M  V30 5792 H 520.666 2.07161 -3.32553 0
M  V30 5793 H 522.363 1.78424 -3.59118 0
M  V30 5794 H 518.953 0.513581 -4.25512 0
M  V30 5795 H 523.137 -0.168133 -4.96015 0
M  V30 5796 H 518.393 -1.11193 -6.01204 0
M  V30 5797 H 522.567 -1.78953 -6.73015 0
M  V30 5798 H 520.194 -2.26748 -7.25596 0
M  V30 5799 N 521.769 1.56035 0.221574 0
M  V30 5800 C 522.997 1.8313 0.962864 0
M  V30 5801 C 523.412 0.630934 1.77946 0
M  V30 5802 O 522.769 -0.400519 1.78051 0
M  V30 5803 C 522.82 3.08742 1.88045 0
M  V30 5804 O 522.541 4.24147 1.09686 0
M  V30 5805 C 524.042 3.48824 2.73563 0
M  V30 5806 H 521.262 0.608775 0.282194 0
M  V30 5807 H 523.806 2.03124 0.23681 0
M  V30 5808 H 521.961 2.90723 2.56045 0
M  V30 5809 H 522.375 4.95505 1.71974 0
M  V30 5810 H 523.849 4.39752 3.3365 0
M  V30 5811 H 524.326 2.70575 3.45956 0
M  V30 5812 H 524.932 3.69282 2.10976 0
M  V30 5813 N 523.247 -0.488276 1.49845 0
M  V30 5814 C 524.179 -1.60539 1.63584 0
M  V30 5815 C 525.192 -1.5434 0.517972 0
M  V30 5816 O 526.381 -1.60041 0.790516 0
M  V30 5817 C 523.481 -2.99374 1.58835 0
M  V30 5818 C 522.654 -3.30624 2.86368 0
M  V30 5819 C 521.713 -4.4893 2.74496 0
M  V30 5820 O 520.739 -4.50085 3.48443 0
M  V30 5821 N 521.941 -5.49591 1.86894 0
M  V30 5822 H 524.706 -1.49176 2.59936 0
M  V30 5823 H 522.267 -0.67639 1.47094 0
M  V30 5824 H 524.259 -3.76459 1.48529 0
M  V30 5825 H 522.829 -3.04595 0.702892 0
M  V30 5826 H 522.049 -2.42314 3.1093 0
M  V30 5827 H 523.337 -3.48305 3.70892 0
M  V30 5828 H 522.735 -5.51467 1.26097 0
M  V30 5829 H 521.292 -6.25728 1.82503 0
M  V30 5830 N 524.725 -1.39134 -0.740242 0
M  V30 5831 C 525.688 -1.37217 -1.83587 0
M  V30 5832 C 526.688 -0.270221 -1.58513 0
M  V30 5833 O 527.878 -0.527843 -1.6601 0
M  V30 5834 C 525.01 -1.13959 -3.21288 0
M  V30 5835 H 526.203 -2.34705 -1.86691 0
M  V30 5836 H 523.756 -1.24622 -0.94335 0
M  V30 5837 H 524.491 -0.17131 -3.23847 0
M  V30 5838 H 524.276 -1.93754 -3.40884 0
M  V30 5839 H 525.766 -1.15346 -4.01354 0
M  V30 5840 N 526.204 0.969867 -1.24223 0
M  V30 5841 C 527.114 2.09806 -1.0497 0
M  V30 5842 C 528.13 1.73998 0.00886455 0
M  V30 5843 O 529.306 2.00513 -0.188848 0
M  V30 5844 C 526.371 3.40467 -0.654452 0
M  V30 5845 C 525.432 3.90236 -1.78926 0
M  V30 5846 C 524.665 5.14662 -1.41277 0
M  V30 5847 O 524.888 5.69602 -0.301632 0
M  V30 5848 O 523.822 5.58761 -2.23763 0
M  V30 5849 H 527.648 2.28942 -1.99548 0
M  V30 5850 H 525.233 1.08197 -1.03023 0
M  V30 5851 H 527.115 4.19039 -0.445452 0
M  V30 5852 H 525.79 3.22636 0.262216 0
M  V30 5853 H 524.697 3.12735 -2.05299 0
M  V30 5854 H 526.03 4.1254 -2.68462 0
M  V30 5855 N 527.682 1.05563 1.17022 0
M  V30 5856 C 528.63 0.653887 2.2322 0
M  V30 5857 C 529.624 -0.326642 1.66221 0
M  V30 5858 O 530.83 -0.192301 1.7897 0
M  V30 5859 H 527.205 0.193297 0.726733 0
M  V30 5860 H 529.176 1.5596 2.54399 0
M  V30 5861 C 527.925 0.0485434 3.47666 0
M  V30 5862 H 527.248 0.79413 3.91834 0
M  V30 5863 H 528.688 -0.195133 4.23551 0
M  V30 5864 C 527.147 -1.20583 3.14581 0
M  V30 5865 O 527.677 -2.29475 3.29703 0
M  V30 5866 N 525.883 -1.10493 2.68774 0
M  V30 5867 H 525.43 -0.218795 2.56669 0
M  V30 5868 H 525.388 -1.94507 2.47011 0
M  V30 5869 N 529.16 -1.33526 0.837174 0
M  V30 5870 C 530.408 -1.97446 0.431211 0
M  V30 5871 C 530.729 -1.6665 -1.01255 0
M  V30 5872 O 529.999 -0.964559 -1.70508 0
M  V30 5873 H 528.579 -0.73043 0.156463 0
M  V30 5874 H 531.241 -1.62918 1.06976 0
M  V30 5875 H 530.337 -3.07001 0.561877 0
M  V30 5876 N 530.638 -0.59345 -1.46 0
M  V30 5877 C 531.568 0.121192 -2.33185 0
M  V30 5878 C 532.549 0.872977 -1.4599 0
M  V30 5879 O 533.734 0.846321 -1.74789 0
M  V30 5880 C 530.864 1.12844 -3.28456 0
M  V30 5881 C 529.818 0.4908 -4.25177 0
M  V30 5882 C 529.144 1.60529 -5.10034 0
M  V30 5883 C 530.444 -0.578949 -5.19081 0
M  V30 5884 H 532.138 -0.606767 -2.93187 0
M  V30 5885 H 529.684 -0.293242 -1.40983 0
M  V30 5886 H 531.637 1.63684 -3.88311 0
M  V30 5887 H 530.361 1.88681 -2.66584 0
M  V30 5888 H 529.02 0.00339328 -3.666 0
M  V30 5889 H 528.668 2.35359 -4.44539 0
M  V30 5890 H 528.368 1.18422 -5.75543 0
M  V30 5891 H 529.892 2.11623 -5.72755 0
M  V30 5892 H 531.306 -0.155199 -5.7309 0
M  V30 5893 H 529.703 -0.920947 -5.92991 0
M  V30 5894 H 530.773 -1.46109 -4.62364 0
M  V30 5895 N 532.116 1.54067 -0.331816 0
M  V30 5896 C 533.346 2.04833 0.269605 0
M  V30 5897 C 533.754 1.20714 1.45687 0
M  V30 5898 O 533.097 0.232539 1.82222 0
M  V30 5899 C 533.159 3.51386 0.759499 0
M  V30 5900 C 532.823 4.55971 -0.306557 0
M  V30 5901 C 533.82 5.07126 -1.14538 0
M  V30 5902 C 531.505 5.00216 -0.457116 0
M  V30 5903 C 533.499 6.01096 -2.12042 0
M  V30 5904 C 531.186 5.93999 -1.43556 0
M  V30 5905 C 532.184 6.44326 -2.26568 0
M  V30 5906 O 531.872 7.36267 -3.22749 0
M  V30 5907 H 531.604 0.673509 0.0579763 0
M  V30 5908 H 534.158 1.99748 -0.478521 0
M  V30 5909 H 532.388 3.53896 1.55867 0
M  V30 5910 H 534.077 3.85184 1.28017 0
M  V30 5911 H 534.843 4.73716 -1.04009 0
M  V30 5912 H 530.722 4.60652 0.179142 0
M  V30 5913 H 534.266 6.40302 -2.76873 0
M  V30 5914 H 530.163 6.26825 -1.54146 0
M  V30 5915 H 530.931 7.54165 -3.18083 0
M  V30 5916 N 533.594 0.0601682 1.57485 0
M  V30 5917 C 534.84 -0.612501 1.93329 0
M  V30 5918 C 535.173 -1.6996 0.939526 0
M  V30 5919 O 534.448 -1.94472 -0.0330957 0
M  V30 5920 C 534.731 -1.20025 3.39508 0
M  V30 5921 C 534.584 -0.12059 4.49638 0
M  V30 5922 C 535.903 -2.10923 3.86264 0
M  V30 5923 H 533.022 -0.221185 0.703027 0
M  V30 5924 H 535.664 0.123768 1.89596 0
M  V30 5925 H 533.814 -1.82774 3.42821 0
M  V30 5926 H 535.486 0.51185 4.58452 0
M  V30 5927 H 533.729 0.550251 4.30296 0
M  V30 5928 H 534.4 -0.572019 5.49028 0
M  V30 5929 H 536.876 -1.58124 3.84884 0
M  V30 5930 H 535.752 -2.48987 4.8918 0
M  V30 5931 H 536.013 -3.01292 3.23536 0
M  V30 5932 N 535.072 -1.5615 -0.213296 0
M  V30 5933 C 536.488 -1.49327 -0.56336 0
M  V30 5934 C 536.688 -0.756826 -1.86747 0
M  V30 5935 O 535.744 -0.299866 -2.50713 0
M  V30 5936 C 537.057 -2.9392 -0.634944 0
M  V30 5937 C 538.605 -3.04487 -0.725013 0
M  V30 5938 C 539.08 -4.50456 -0.82787 0
M  V30 5939 N 540.571 -4.54533 -0.891876 0
M  V30 5940 C 541.306 -5.64766 -0.991315 0
M  V30 5941 N 540.802 -6.84733 -1.05419 0
M  V30 5942 N 542.595 -5.52637 -1.02709 0
M  V30 5943 H 534.746 -2.02453 0.642366 0
M  V30 5944 H 537.009 -0.920548 0.226487 0
M  V30 5945 H 536.715 -3.50783 0.253859 0
M  V30 5946 H 536.589 -3.46274 -1.49579 0
M  V30 5947 H 538.976 -2.47685 -1.60425 0
M  V30 5948 H 539.057 -2.55289 0.161669 0
M  V30 5949 H 538.701 -5.07878 0.0469464 0
M  V30 5950 H 538.631 -4.97369 -1.73009 0
M  V30 5951 H 541.122 -3.68141 -0.85327 0
M  V30 5952 H 541.435 -7.64493 -1.13007 0
M  V30 5953 H 539.78 -6.87427 -1.02318 0
M  V30 5954 H 542.971 -4.5784 -0.974687 0
M  V30 5955 H 543.144 -6.38576 -1.10113 0
M  V30 5956 N 536.55 0.480323 -1.50102 0
M  V30 5957 C 537.483 1.59789 -1.62919 0
M  V30 5958 C 538.461 1.55429 -0.477557 0
M  V30 5959 O 539.645 1.75186 -0.695851 0
M  V30 5960 C 536.772 2.98351 -1.60325 0
M  V30 5961 C 535.818 3.20899 -2.80938 0
M  V30 5962 S 536.651 3.01791 -4.4236 0
M  V30 5963 C 537.807 4.42712 -4.42444 0
M  V30 5964 H 538.04 1.48676 -2.57454 0
M  V30 5965 H 535.573 0.666996 -1.3925 0
M  V30 5966 H 537.531 3.7824 -1.59514 0
M  V30 5967 H 536.192 3.06862 -0.670419 0
M  V30 5968 H 535.385 4.22102 -2.75401 0
M  V30 5969 H 534.987 2.48768 -2.79268 0
M  V30 5970 H 537.279 5.3518 -4.15438 0
M  V30 5971 H 538.222 4.53294 -5.43995 0
M  V30 5972 H 538.63 4.24359 -3.72263 0
M  V30 5973 N 538.028 1.39524 0.732853 0
M  V30 5974 C 538.991 1.38189 1.82857 0
M  V30 5975 C 539.991 0.278624 1.58368 0
M  V30 5976 O 541.181 0.536639 1.65728 0
M  V30 5977 C 538.313 1.15661 3.2068 0
M  V30 5978 H 539.506 2.35692 1.85444 0
M  V30 5979 H 537.059 1.2512 0.936728 0
M  V30 5980 H 537.794 0.188482 3.23752 0
M  V30 5981 H 537.579 1.95559 3.39852 0
M  V30 5982 H 539.069 1.17472 4.00737 0
M  V30 5983 N 539.506 -0.963266 1.24736 0
M  V30 5984 C 540.436 -2.07628 1.06832 0
M  V30 5985 C 541.417 -1.70088 -0.0200566 0
M  V30 5986 O 542.602 -1.93636 0.147854 0
M  V30 5987 C 539.732 -3.40636 0.677069 0
M  V30 5988 C 538.686 -3.9215 1.71471 0
M  V30 5989 C 538.012 -5.21553 1.1784 0
M  V30 5990 C 539.312 -4.19493 3.11164 0
M  V30 5991 H 541.006 -2.22864 1.9993 0
M  V30 5992 H 538.552 -1.07093 0.96266 0
M  V30 5993 H 540.505 -4.17941 0.538792 0
M  V30 5994 H 539.229 -3.25313 -0.289612 0
M  V30 5995 H 537.888 -3.17005 1.84128 0
M  V30 5996 H 537.536 -5.02593 0.202195 0
M  V30 5997 H 537.236 -5.56988 1.87185 0
M  V30 5998 H 538.76 -6.01463 1.05233 0
M  V30 5999 H 540.174 -4.87487 3.01711 0
M  V30 6000 H 538.571 -4.66165 3.77902 0
M  V30 6001 H 539.641 -3.26097 3.58871 0
M  V30 6002 N 540.985 -1.06182 -1.16461 0
M  V30 6003 C 541.915 -0.692861 -2.22984 0
M  V30 6004 C 542.896 0.314122 -1.67174 0
M  V30 6005 O 544.081 0.189499 -1.93273 0
M  V30 6006 C 541.211 -0.07732 -3.47214 0
M  V30 6007 C 540.165 -1.01015 -4.15909 0
M  V30 6008 C 539.491 -0.257973 -5.34077 0
M  V30 6009 C 540.791 -2.33868 -4.67015 0
M  V30 6010 H 542.485 -1.58343 -2.54102 0
M  V30 6011 H 540.031 -0.76279 -1.22137 0
M  V30 6012 H 541.984 0.19266 -4.20959 0
M  V30 6013 H 540.708 0.848254 -3.15392 0
M  V30 6014 H 539.367 -1.26486 -3.44088 0
M  V30 6015 H 539.015 0.670684 -4.98509 0
M  V30 6016 H 538.715 -0.879638 -5.80979 0
M  V30 6017 H 540.239 0.00448788 -6.106 0
M  V30 6018 H 541.653 -2.1279 -5.32347 0
M  V30 6019 H 540.05 -2.91522 -5.24533 0
M  V30 6020 H 541.12 -2.97019 -3.83286 0
M  V30 6021 N 542.463 1.3308 -0.844243 0
M  V30 6022 C 543.693 2.01515 -0.455541 0
M  V30 6023 C 544.101 1.63655 0.949406 0
M  V30 6024 O 543.444 0.84848 1.62931 0
M  V30 6025 C 543.506 3.55967 -0.502801 0
M  V30 6026 C 543.17 4.17222 -1.86481 0
M  V30 6027 C 544.167 4.36205 -2.8288 0
M  V30 6028 C 541.852 4.53528 -2.15911 0
M  V30 6029 C 543.846 4.90649 -4.06869 0
M  V30 6030 C 541.533 5.07679 -3.40155 0
M  V30 6031 C 542.531 5.26186 -4.35451 0
M  V30 6032 O 542.219 5.79183 -5.57496 0
M  V30 6033 H 541.951 0.65199 -0.178565 0
M  V30 6034 H 544.505 1.70867 -1.1399 0
M  V30 6035 H 542.735 3.85965 0.23836 0
M  V30 6036 H 544.424 4.05688 -0.131169 0
M  V30 6037 H 545.19 4.085 -2.61444 0
M  V30 6038 H 541.069 4.38414 -1.42528 0
M  V30 6039 H 544.613 5.0501 -4.81259 0
M  V30 6040 H 540.51 5.34815 -3.61446 0
M  V30 6041 H 541.278 5.97591 -5.5931 0
M  V30 6042 N 543.941 0.601185 1.45683 0
M  V30 6043 C 544.871 -0.108824 2.33246 0
M  V30 6044 C 545.852 -0.865223 1.46451 0
M  V30 6045 O 547.037 -0.83704 1.75235 0
M  V30 6046 C 544.167 -1.11101 3.2905 0
M  V30 6047 C 543.121 -0.468244 4.25431 0
M  V30 6048 C 542.447 -1.57822 5.10878 0
M  V30 6049 C 543.747 0.606469 5.18767 0
M  V30 6050 H 545.441 0.622306 2.92861 0
M  V30 6051 H 542.987 0.300714 1.40825 0
M  V30 6052 H 544.94 -1.61622 3.89174 0
M  V30 6053 H 543.664 -1.87265 2.67581 0
M  V30 6054 H 542.323 0.0160484 3.66596 0
M  V30 6055 H 541.971 -2.32998 4.45781 0
M  V30 6056 H 541.671 -1.15369 5.76163 0
M  V30 6057 H 543.195 -2.08583 5.73869 0
M  V30 6058 H 544.609 0.185589 5.73 0
M  V30 6059 H 543.006 0.952381 5.92494 0
M  V30 6060 H 544.076 1.48559 4.61582 0
M  V30 6061 N 545.419 -1.53889 0.339982 0
M  V30 6062 C 546.668 -2.00035 -0.258604 0
M  V30 6063 C 546.981 -1.23179 -1.51942 0
M  V30 6064 O 548.187 -1.59784 -2.19503 0
M  V30 6065 C 546.643 -3.56249 -0.511359 0
M  V30 6066 C 546.251 -4.41957 0.733349 0
M  V30 6067 C 547.995 -4.1082 -1.069 0
M  V30 6068 C 545.902 -5.89673 0.451591 0
M  V30 6069 H 544.832 -0.747284 -0.10041 0
M  V30 6070 H 547.483 -1.77776 0.454758 0
M  V30 6071 H 545.865 -3.7456 -1.28533 0
M  V30 6072 H 547.039 -4.35421 1.50815 0
M  V30 6073 H 545.354 -3.9836 1.21237 0
M  V30 6074 H 547.951 -5.18789 -1.2947 0
M  V30 6075 H 548.294 -3.63817 -2.02343 0
M  V30 6076 H 548.827 -3.96205 -0.355817 0
M  V30 6077 H 545.566 -6.40903 1.37565 0
M  V30 6078 H 545.086 -5.99122 -0.285193 0
M  V30 6079 H 546.765 -6.46965 0.0675067 0
M  V30 6080 N 546.897 -0.0685191 -1.57451 0
M  V30 6081 C 548.144 0.601348 -1.93365 0
M  V30 6082 C 548.472 1.69816 -0.948294 0
M  V30 6083 O 547.727 1.95666 0.0366199 0
M  V30 6084 C 548.026 1.22051 -3.35914 0
M  V30 6085 C 547.692 0.250165 -4.50205 0
M  V30 6086 C 546.354 -0.0167954 -4.81197 0
M  V30 6087 C 548.706 -0.413867 -5.19554 0
M  V30 6088 C 546.034 -0.95493 -5.78876 0
M  V30 6089 C 548.386 -1.3403 -6.18238 0
M  V30 6090 C 547.05 -1.61576 -6.47649 0
M  V30 6091 H 546.32 0.220049 -0.707573 0
M  V30 6092 H 548.967 -0.138697 -1.90997 0
M  V30 6093 H 547.272 2.03622 -3.34732 0
M  V30 6094 H 548.969 1.74605 -3.6099 0
M  V30 6095 H 545.559 0.468421 -4.26033 0
M  V30 6096 H 549.743 -0.220733 -4.95809 0
M  V30 6097 H 544.999 -1.17563 -5.99991 0
M  V30 6098 H 549.173 -1.86081 -6.71079 0
M  V30 6099 H 546.8 -2.34431 -7.2315 0
M  V30 6100 N 548.375 1.56261 0.205012 0
M  V30 6101 C 549.6 1.84491 0.947512 0
M  V30 6102 C 550.025 0.650894 1.76479 0
M  V30 6103 O 549.383 -0.40035 1.76824 0
M  V30 6104 C 549.431 3.10863 1.82747 0
M  V30 6105 O 548.535 2.90719 2.925 0
M  V30 6106 H 547.876 0.607783 0.267386 0
M  V30 6107 H 550.406 2.03485 0.213323 0
M  V30 6108 H 550.416 3.41399 2.23407 0
M  V30 6109 H 549.091 3.97392 1.2269 0
M  V30 6110 H 547.668 2.71457 2.55667 0
M  V30 6111 N 549.853 -0.472356 1.50355 0
M  V30 6112 C 551.078 -1.25251 1.65309 0
M  V30 6113 C 551.503 -1.85081 0.335643 0
M  V30 6114 O 550.861 -1.67227 -0.700335 0
M  V30 6115 C 550.909 -2.3379 2.74544 0
M  V30 6116 O 550.013 -3.38401 2.35709 0
M  V30 6117 H 549.354 -0.368539 0.552336 0
M  V30 6118 H 551.884 -0.562271 1.96722 0
M  V30 6119 H 551.894 -2.79121 2.97583 0
M  V30 6120 H 550.569 -1.89614 3.70161 0
M  V30 6121 H 549.146 -2.9879 2.23112 0
M  V30 6122 N 551.331 -1.39911 -0.725443 0
M  V30 6123 C 552.559 -1.40949 -1.51463 0
M  V30 6124 C 552.974 -0.0065242 -1.88799 0
M  V30 6125 O 552.331 0.967163 -1.54765 0
M  V30 6126 C 552.382 -2.29119 -2.79619 0
M  V30 6127 O 552.103 -3.63952 -2.43866 0
M  V30 6128 C 553.604 -2.38642 -3.73584 0
M  V30 6129 H 550.824 -0.481091 -0.467752 0
M  V30 6130 H 553.368 -1.83843 -0.895651 0
M  V30 6131 H 551.523 -1.89612 -3.37826 0
M  V30 6132 H 551.937 -4.10677 -3.26258 0
M  V30 6133 H 553.411 -3.04563 -4.60375 0
M  V30 6134 H 553.888 -1.40846 -4.16004 0
M  V30 6135 H 554.494 -2.78659 -3.21293 0
M  V30 6136 N 552.809 0.956637 -1.25245 0
M  V30 6137 C 554.034 1.74104 -1.12706 0
M  V30 6138 C 554.459 1.85436 0.315429 0
M  V30 6139 O 553.817 1.33334 1.22848 0
M  V30 6140 C 553.865 3.1338 -1.78396 0
M  V30 6141 O 552.969 3.98485 -1.06224 0
M  V30 6142 H 552.31 0.53476 -0.393609 0
M  V30 6143 H 554.84 1.19924 -1.65769 0
M  V30 6144 H 554.85 3.6385 -1.846 0
M  V30 6145 H 553.525 3.04448 -2.83345 0
M  V30 6146 H 552.102 3.56952 -1.07886 0
M  V30 6147 O 554.326 1.1921 1.08956 0
M  V30 6148 H 555.017 0.939352 1.69399 0
M  V30 END ATOM
M  V30 BEGIN BOND
M  V30 END BOND
M  V30 END CTAB
M  END
$$$$
