drugbank_target|P0A3R9 Neocarzinostatin (DB07776; DB08261; DB08619)
 OpenBabel12092120463D

  0  0  0     0  0            999 V3000
M  V30 BEGIN CTAB
M  V30 COUNTS 2012 2028 0 0 0
M  V30 BEGIN ATOM
M  V30 1 H -0.908 1.98254 -0.117106 0
M  V30 2 N 0 1.576 0 0
M  V30 3 C 0.933 2.03868 1.02534 0
M  V30 4 C 1.911 0.928543 1.3348 0
M  V30 5 O 3.095 1.19667 1.45644 0
M  V30 6 C 0.222 2.43627 2.35294 0
M  V30 7 C -0.732 3.65373 2.2001 0
M  V30 8 S 0.101 5.13292 1.52614 0
M  V30 9 C 1.257 5.56322 2.86805 0
M  V30 10 H 1.49 2.90518 0.631377 0
M  V30 11 H -0.977 1.52953 0.210867 0
M  V30 12 H 0.981 2.67203 3.11629 0
M  V30 13 H -0.358 1.57376 2.7183 0
M  V30 14 H -1.165 3.90944 3.18086 0
M  V30 15 H -1.563 3.418 1.51819 0
M  V30 16 H 0.729 5.58782 3.83104 0
M  V30 17 H 1.672 6.56266 2.65933 0
M  V30 18 H 2.08 4.83886 2.90714 0
M  V30 19 N 1.4781 -0.272755 1.55222 0
M  V30 20 C 2.7241 -1.00581 1.761 0
M  V30 21 C 3.0571 -1.85932 0.560625 0
M  V30 22 O 2.3321 -1.89416 -0.441801 0
M  V30 23 C 2.6151 -1.88816 3.06628 0
M  V30 24 C 2.4681 -1.06457 4.37021 0
M  V30 25 C 3.7871 -2.8752 3.33197 0
M  V30 26 H 0.9061 -0.364244 0.640699 0
M  V30 27 H 3.5481 -0.278189 1.87952 0
M  V30 28 H 1.6981 -2.50856 2.96654 0
M  V30 29 H 3.3701 -0.464863 4.58952 0
M  V30 30 H 1.6131 -0.368043 4.32236 0
M  V30 31 H 2.2841 -1.71514 5.24678 0
M  V30 32 H 4.7601 -2.35615 3.42965 0
M  V30 33 H 3.6361 -3.46399 4.25792 0
M  V30 34 H 3.8971 -3.62657 2.52849 0
M  V30 35 N 2.9562 -1.48159 -0.537278 0
M  V30 36 C 4.3672 -1.49429 -1.11928 0
M  V30 37 C 4.7182 -0.26 -1.9447 0
M  V30 38 O 3.8432 0.633489 -2.0692 0
M  V30 39 C 4.4382 -2.70758 -2.03656 0
M  V30 40 C 2.9972 -2.74923 -2.57088 0
M  V30 41 C 2.1442 -2.42835 -1.3389 0
M  V30 42 H 5.0952 -1.55381 -0.322886 0
M  V30 43 H 5.1162 -2.48861 -2.87834 0
M  V30 44 H 4.6282 -3.60575 -1.43553 0
M  V30 45 H 2.7292 -1.89296 -3.20933 0
M  V30 46 H 2.8422 -3.76157 -2.9672 0
M  V30 47 H 1.2062 -1.93836 -1.65226 0
M  V30 48 H 1.9892 -3.34884 -0.755504 0
M  V30 49 N 4.4343 0.785586 -1.36625 0
M  V30 50 C 5.6833 1.53883 -1.30396 0
M  V30 51 C 5.9963 1.95271 0.113452 0
M  V30 52 O 7.2023 2.69858 0.298142 0
M  V30 53 C 5.6583 2.77808 -2.28802 0
M  V30 54 C 5.2663 2.43574 -3.75999 0
M  V30 55 C 7.0103 3.55783 -2.31558 0
M  V30 56 C 4.9173 3.63919 -4.66173 0
M  V30 57 H 3.8473 0.577678 -0.484566 0
M  V30 58 H 6.4983 0.861705 -1.62009 0
M  V30 59 H 4.8803 3.47339 -1.90188 0
M  V30 60 H 6.0543 1.81916 -4.23371 0
M  V30 61 H 4.3693 1.78803 -3.76056 0
M  V30 62 H 6.9663 4.45205 -2.96137 0
M  V30 63 H 7.3093 3.94644 -1.3252 0
M  V30 64 H 7.8423 2.93235 -2.68809 0
M  V30 65 H 4.5813 3.3015 -5.66287 0
M  V30 66 H 4.1013 4.2473 -4.23515 0
M  V30 67 H 5.7803 4.30901 -4.82632 0
M  V30 68 N 5.9124 1.20967 1.01018 0
M  V30 69 C 7.1374 1.0503 1.78839 0
M  V30 70 C 7.5624 -0.395752 1.8389 0
M  V30 71 O 6.9204 -1.28529 1.27867 0
M  V30 72 C 6.9684 1.64602 3.2084 0
M  V30 73 O 6.0724 0.887988 4.02726 0
M  V30 74 H 5.4134 0.369987 0.551367 0
M  V30 75 H 7.9434 1.60399 1.27018 0
M  V30 76 H 7.9534 1.68607 3.71532 0
M  V30 77 H 6.6284 2.69841 3.16479 0
M  V30 78 H 5.2054 0.922648 3.61305 0
M  V30 79 N 7.3905 -1.2043 1.01659 0
M  V30 80 C 8.6395 -1.89118 0.701237 0
M  V30 81 C 8.9525 -1.79705 -0.772358 0
M  V30 82 O 10.1585 -2.43528 -1.20026 0
M  V30 83 C 8.6145 -3.39168 1.20388 0
M  V30 84 C 8.2225 -3.57166 2.70438 0
M  V30 85 C 9.9665 -4.1341 0.963953 0
M  V30 86 C 7.8735 -5.01042 3.14183 0
M  V30 87 H 6.8035 -0.708267 0.2586 0
M  V30 88 H 9.4545 -1.36239 1.22927 0
M  V30 89 H 7.8365 -3.91369 0.603824 0
M  V30 90 H 9.0105 -3.15351 3.35992 0
M  V30 91 H 7.3255 -2.96294 2.92572 0
M  V30 92 H 9.9225 -5.19491 1.26621 0
M  V30 93 H 10.2655 -4.16181 -0.099578 0
M  V30 94 H 10.7985 -3.67309 1.52738 0
M  V30 95 H 7.5375 -5.03426 4.19812 0
M  V30 96 H 7.0575 -5.43668 2.53348 0
M  V30 97 H 8.7365 -5.69623 3.0682 0
M  V30 98 N 8.8686 -0.792821 -1.36206 0
M  V30 99 C 10.1176 -0.363353 -1.984 0
M  V30 100 C 10.4306 1.07172 -1.63626 0
M  V30 101 O 11.6366 1.60362 -2.19081 0
M  V30 102 C 10.0926 -0.59872 -3.54885 0
M  V30 103 C 9.7006 -2.04543 -3.9858 0
M  V30 104 C 11.4446 -0.233926 -4.23855 0
M  V30 105 C 9.3516 -2.22727 -5.47856 0
M  V30 106 H 8.2816 -0.13212 -0.742334 0
M  V30 107 H 10.9326 -0.974935 -1.55458 0
M  V30 108 H 9.3146 0.0826222 -3.95914 0
M  V30 109 H 10.4886 -2.76345 -3.68741 0
M  V30 110 H 8.8036 -2.36879 -3.42458 0
M  V30 111 H 11.4006 -0.348027 -5.33566 0
M  V30 112 H 11.7436 0.818351 -4.08177 0
M  V30 113 H 12.2766 -0.868639 -3.882 0
M  V30 114 H 9.0156 -3.2635 -5.68486 0
M  V30 115 H 8.5356 -1.55434 -5.7931 0
M  V30 116 H 10.2146 -2.03607 -6.14128 0
M  V30 117 N 10.3467 1.47872 -0.545128 0
M  V30 118 C 11.7627 1.5829 -0.204032 0
M  V30 119 C 11.9627 1.54529 1.29317 0
M  V30 120 O 11.0187 1.44232 2.07252 0
M  V30 121 C 12.3317 2.89304 -0.819987 0
M  V30 122 C 13.8797 3.02864 -0.790105 0
M  V30 123 C 14.3547 4.3656 -1.38491 0
M  V30 124 N 15.8457 4.43165 -1.34755 0
M  V30 125 C 16.5807 5.45153 -1.77753 0
M  V30 126 N 16.0767 6.54016 -2.2855 0
M  V30 127 N 17.8697 5.36125 -1.68897 0
M  V30 128 H 10.0207 1.4856 -1.51802 0
M  V30 129 H 12.2837 0.706305 -0.632327 0
M  V30 130 H 11.9897 2.97757 -1.87173 0
M  V30 131 H 11.8637 3.75957 -0.305915 0
M  V30 132 H 14.2507 2.94014 0.252913 0
M  V30 133 H 14.3317 2.17782 -1.34181 0
M  V30 134 H 13.9757 4.46164 -2.42693 0
M  V30 135 H 13.9057 5.20353 -0.808754 0
M  V30 136 H 16.3967 3.65083 -0.975855 0
M  V30 137 H 16.7097 7.27994 -2.59314 0
M  V30 138 H 15.0547 6.54938 -2.32553 0
M  V30 139 H 18.2457 4.49975 -1.28998 0
M  V30 140 H 18.4187 6.15472 -2.02726 0
M  V30 141 N 11.8248 0.280983 1.55075 0
M  V30 142 C 12.7728 -0.619864 2.24188 0
M  V30 143 C 13.7668 -1.15315 1.24092 0
M  V30 144 O 14.9728 -1.1061 1.42005 0
M  V30 145 H 11.3478 -0.218459 0.719569 0
M  V30 146 H 13.3188 -0.0141831 2.98397 0
M  V30 147 C 12.0678 -1.7899 2.98091 0
M  V30 148 H 11.3908 -1.38874 3.74905 0
M  V30 149 H 12.8308 -2.39672 3.49762 0
M  V30 150 C 11.2898 -2.68192 2.03899 0
M  V30 151 O 11.8198 -3.6872 1.594 0
M  V30 152 N 10.0258 -2.35488 1.70275 0
M  V30 153 H 9.5728 -1.53787 2.06658 0
M  V30 154 H 9.5308 -2.95442 1.07524 0
M  V30 155 N 13.3029 -1.57598 0.00835791 0
M  V30 156 C 14.7189 -1.55764 -0.347822 0
M  V30 157 C 14.9189 -1.01186 -1.74252 0
M  V30 158 O 13.9749 -0.649371 -2.44007 0
M  V30 159 C 15.2879 -2.99927 -0.215407 0
M  V30 160 C 16.8359 -3.11656 -0.289725 0
M  V30 161 C 17.3109 -4.57621 -0.18634 0
M  V30 162 N 18.8019 -4.62557 -0.243978 0
M  V30 163 C 19.5369 -5.73094 -0.18745 0
M  V30 164 N 19.0329 -6.92753 -0.0810331 0
M  V30 165 N 20.8259 -5.61588 -0.239925 0
M  V30 166 H 12.9769 -1.91411 0.92062 0
M  V30 167 H 15.2399 -0.879562 0.353659 0
M  V30 168 H 14.9459 -3.43729 0.744512 0
M  V30 169 H 14.8199 -3.63865 -0.994097 0
M  V30 170 H 17.2069 -2.67779 -1.24009 0
M  V30 171 H 17.2879 -2.5048 0.51898 0
M  V30 172 H 16.9319 -5.02174 0.760519 0
M  V30 173 H 16.8619 -5.16752 -1.01364 0
M  V30 174 H 19.3529 -3.76481 -0.327217 0
M  V30 175 H 19.6659 -7.72787 -0.0440241 0
M  V30 176 H 18.0109 -6.94984 -0.0465419 0
M  V30 177 H 21.2019 -4.66996 -0.321317 0
M  V30 178 H 21.3749 -6.47714 -0.192407 0
M  V30 179 N 14.781 0.264519 -1.55364 0
M  V30 180 C 16.027 0.99646 -1.76631 0
M  V30 181 C 16.36 1.85632 -0.570478 0
M  V30 182 O 15.635 1.89647 0.43175 0
M  V30 183 C 15.918 1.87187 -3.07625 0
M  V30 184 C 15.771 1.04138 -4.37579 0
M  V30 185 C 17.09 2.85749 -3.34717 0
M  V30 186 H 14.209 0.360841 -0.642622 0
M  V30 187 H 16.851 0.268218 -1.88097 0
M  V30 188 H 15.001 2.49279 -2.9798 0
M  V30 189 H 16.673 0.440517 -4.59192 0
M  V30 190 H 14.916 0.345115 -4.32425 0
M  V30 191 H 15.587 1.68729 -5.2558 0
M  V30 192 H 18.063 2.33793 -3.4421 0
M  V30 193 H 16.939 3.44136 -4.27623 0
M  V30 194 H 17.2 3.61311 -2.54768 0
M  V30 195 N 16.2591 1.48442 0.529413 0
M  V30 196 C 17.2221 1.62524 1.61612 0
M  V30 197 C 18.2221 0.498509 1.52877 0
M  V30 198 O 19.4121 0.76431 1.56537 0
M  V30 199 C 16.5441 1.59597 3.01233 0
M  V30 200 H 17.7371 2.59423 1.50465 0
M  V30 201 H 15.2901 1.37047 0.751514 0
M  V30 202 H 16.0251 0.641781 3.17886 0
M  V30 203 H 15.8101 2.41397 3.08982 0
M  V30 204 H 17.3001 1.72646 3.80241 0
M  V30 205 N 17.7372 -0.778329 1.37039 0
M  V30 206 C 18.6842 -1.89139 1.32269 0
M  V30 207 C 19.6542 -1.65017 0.189387 0
M  V30 208 O 20.8392 -1.87024 0.377693 0
M  V30 209 C 17.9792 -3.26112 1.12894 0
M  V30 210 C 17.0922 -3.62233 2.35396 0
M  V30 211 C 16.2272 -4.8838 2.08946 0
M  V30 212 C 15.2662 -5.17212 3.2735 0
M  V30 213 N 14.4032 -6.34546 3.00492 0
M  V30 214 H 19.2432 -1.92552 2.27437 0
M  V30 215 H 16.7802 -0.941473 1.13025 0
M  V30 216 H 18.7382 -4.05116 0.996835 0
M  V30 217 H 17.3682 -3.22091 0.213758 0
M  V30 218 H 16.4202 -2.78265 2.5937 0
M  V30 219 H 17.7322 -3.79481 3.23721 0
M  V30 220 H 16.8862 -5.75274 1.92729 0
M  V30 221 H 15.6252 -4.73222 1.17949 0
M  V30 222 H 14.6302 -4.28796 3.44113 0
M  V30 223 H 15.8552 -5.34283 4.19188 0
M  V30 224 H 13.8012 -6.20759 2.12118 0
M  V30 225 H 13.7182 -6.52179 3.82358 0
M  V30 226 H 14.9862 -7.24394 2.87879 0
M  V30 227 N 19.2153 -1.21501 -1.00376 0
M  V30 228 C 20.4613 -1.03452 -1.74429 0
M  V30 229 C 20.7943 0.430764 -1.89362 0
M  V30 230 O 20.0693 1.31962 -1.42886 0
M  V30 231 C 20.3523 -1.73375 -3.15615 0
M  V30 232 C 20.2053 -3.27431 -3.08397 0
M  V30 233 C 21.5243 -1.47732 -4.14564 0
M  V30 234 H 18.6433 -0.377226 -0.633143 0
M  V30 235 H 21.2853 -1.49693 -1.17013 0
M  V30 236 H 19.4353 -1.34064 -3.64636 0
M  V30 237 H 21.1073 -3.76119 -2.67081 0
M  V30 238 H 19.3503 -3.5767 -2.45468 0
M  V30 239 H 20.0213 -3.71524 -4.08258 0
M  V30 240 H 22.4973 -1.8186 -3.74254 0
M  V30 241 H 21.3733 -1.99169 -5.11491 0
M  V30 242 H 21.6343 -0.407589 -4.40217 0
M  V30 243 N 20.6934 1.19889 -1.02296 0
M  V30 244 C 21.6564 2.21116 -0.603351 0
M  V30 245 C 22.6564 1.5738 0.329884 0
M  V30 246 O 23.8464 1.73802 0.117702 0
M  V30 247 C 20.9784 3.40696 0.117992 0
M  V30 248 H 22.1714 2.59754 -1.49893 0
M  V30 249 H 19.7244 1.33463 -0.813468 0
M  V30 250 H 20.4594 3.07569 1.0282 0
M  V30 251 H 20.2444 3.88188 -0.552511 0
M  V30 252 H 21.7344 4.15692 0.398696 0
M  V30 253 N 22.1715 0.800033 1.35784 0
M  V30 254 C 23.4175 0.377901 1.99248 0
M  V30 255 C 23.7505 -1.05052 1.63333 0
M  V30 256 O 23.0255 -1.72768 0.893385 0
M  V30 257 C 23.3085 0.553922 3.55814 0
M  V30 258 C 23.1615 2.0268 4.01548 0
M  V30 259 C 24.4805 -0.0244802 4.40093 0
M  V30 260 H 21.5995 0.138782 0.723815 0
M  V30 261 H 24.2415 1.00835 1.61035 0
M  V30 262 H 22.3915 0.0172398 3.88496 0
M  V30 263 H 24.0635 2.62536 3.79305 0
M  V30 264 H 22.3065 2.5256 3.52698 0
M  V30 265 H 22.9775 2.10087 5.10458 0
M  V30 266 H 25.4535 0.433775 4.13833 0
M  V30 267 H 24.3295 0.128637 5.48749 0
M  V30 268 H 24.5905 -1.11758 4.27741 0
M  V30 269 N 23.6496 -1.47581 0.552962 0
M  V30 270 C 24.8976 -2.02082 0.0272703 0
M  V30 271 C 25.2186 -1.4301 -1.32563 0
M  V30 272 O 24.4886 -0.603745 -1.86365 0
M  V30 273 H 23.0686 -0.746966 0.00709182 0
M  V30 274 H 25.7306 -1.81033 0.722008 0
M  V30 275 H 24.8266 -3.12034 -0.0639951 0
M  V30 276 N 25.1277 -0.289203 -1.54924 0
M  V30 277 C 26.3527 0.329299 -2.04769 0
M  V30 278 C 26.7777 1.4763 -1.16564 0
M  V30 279 O 26.1357 1.80527 -0.167186 0
M  V30 280 C 26.1837 0.774438 -3.52186 0
M  V30 281 O 25.2877 1.88038 -3.67036 0
M  V30 282 H 24.6287 0.0659259 -0.660719 0
M  V30 283 H 27.1587 -0.42761 -2.00082 0
M  V30 284 H 27.1687 1.06642 -3.93816 0
M  V30 285 H 25.8437 -0.0646707 -4.1585 0
M  V30 286 H 24.4207 1.58985 -3.3731 0
M  V30 287 N 26.6058 1.57591 -0.0167156 0
M  V30 288 C 27.5688 2.08393 0.954204 0
M  V30 289 C 28.5688 0.996531 1.26198 0
M  V30 290 O 29.7588 1.25858 1.20438 0
M  V30 291 C 26.8908 2.5394 2.27436 0
M  V30 292 H 28.0838 2.95455 0.514451 0
M  V30 293 H 25.6368 1.54582 0.231089 0
M  V30 294 H 26.3718 1.70171 2.76066 0
M  V30 295 H 26.1568 3.33371 2.06412 0
M  V30 296 H 27.6468 2.93512 2.97053 0
M  V30 297 N 28.0839 -0.256276 1.55502 0
M  V30 298 C 29.0469 -1.30047 1.88734 0
M  V30 299 C 30.0469 -1.4154 0.763086 0
M  V30 300 O 31.2369 -1.40403 1.03115 0
M  V30 301 C 28.3689 -2.67953 2.10747 0
M  V30 302 H 29.5619 -1.01802 2.82093 0
M  V30 303 H 27.1149 -0.495134 1.4825 0
M  V30 304 H 27.8499 -3.01351 1.19825 0
M  V30 305 H 27.6349 -2.60993 2.92617 0
M  V30 306 H 29.1249 -3.43368 2.37673 0
M  V30 307 N 29.562 -1.4872 -0.521534 0
M  V30 308 C 30.808 -1.574 -1.27879 0
M  V30 309 C 31.141 -0.250817 -1.92573 0
M  V30 310 O 30.416 0.743934 -1.79711 0
M  V30 311 C 30.699 -2.71843 -2.36164 0
M  V30 312 C 30.552 -4.13893 -1.76105 0
M  V30 313 C 31.871 -2.82008 -3.37875 0
M  V30 314 H 28.99 -0.572941 -0.463581 0
M  V30 315 H 31.632 -1.80927 -0.580119 0
M  V30 316 H 29.782 -2.51914 -2.95756 0
M  V30 317 H 31.454 -4.45284 -1.20499 0
M  V30 318 H 29.697 -4.20498 -1.06601 0
M  V30 319 H 30.368 -4.89804 -2.5455 0
M  V30 320 H 32.844 -3.00086 -2.88249 0
M  V30 321 H 31.72 -3.63796 -4.11028 0
M  V30 322 H 31.981 -1.90511 -3.98946 0
M  V30 323 N 31.0401 0.771051 -1.3745 0
M  V30 324 C 31.9701 1.89827 -1.3597 0
M  V30 325 C 32.9511 1.68562 -0.228216 0
M  V30 326 O 34.1361 1.8941 -0.428675 0
M  V30 327 C 31.2661 3.2712 -1.16662 0
M  V30 328 C 30.2201 3.6295 -2.2683 0
M  V30 329 C 29.5461 4.98791 -1.92644 0
M  V30 330 C 30.8461 3.69627 -3.69017 0
M  V30 331 H 32.5401 1.91323 -2.30295 0
M  V30 332 H 30.0861 0.919082 -1.10855 0
M  V30 333 H 32.0391 4.05615 -1.14256 0
M  V30 334 H 30.7631 3.26059 -0.187926 0
M  V30 335 H 29.4221 2.86763 -2.28392 0
M  V30 336 H 29.0701 4.94271 -0.933021 0
M  V30 337 H 28.7701 5.23733 -2.66416 0
M  V30 338 H 30.2941 5.79685 -1.91826 0
M  V30 339 H 31.7081 4.38273 -3.69581 0
M  V30 340 H 30.1051 4.06067 -4.41848 0
M  V30 341 H 31.1751 2.70273 -4.02592 0
M  V30 342 N 32.5182 1.22032 0.997298 0
M  V30 343 C 33.7662 1.04016 1.73278 0
M  V30 344 C 34.0872 -0.426255 1.90284 0
M  V30 345 O 33.3572 -1.30694 1.45931 0
M  V30 346 H 31.9372 0.381897 0.642 0
M  V30 347 H 34.5992 1.5347 1.20137 0
M  V30 348 H 33.6952 1.51441 2.72896 0
M  V30 349 N 33.9963 -1.19345 1.0293 0
M  V30 350 C 34.9263 -2.2481 0.631105 0
M  V30 351 C 35.9073 -1.66245 -0.360104 0
M  V30 352 O 37.0923 -1.92677 -0.242726 0
M  V30 353 C 34.2223 -3.47295 -0.0184607 0
M  V30 354 C 33.1763 -4.18536 0.895073 0
M  V30 355 C 32.5023 -5.34586 0.110592 0
M  V30 356 C 33.8023 -4.73287 2.209 0
M  V30 357 H 35.4963 -2.58372 1.51275 0
M  V30 358 H 33.0423 -1.24194 0.728818 0
M  V30 359 H 34.9953 -4.20268 -0.308675 0
M  V30 360 H 33.7193 -3.12933 -0.934907 0
M  V30 361 H 32.3783 -3.47446 1.16949 0
M  V30 362 H 32.0263 -4.96469 -0.807902 0
M  V30 363 H 31.7263 -5.83183 0.719087 0
M  V30 364 H 33.2503 -6.10355 -0.172871 0
M  V30 365 H 34.6643 -5.38013 1.98028 0
M  V30 366 H 33.0613 -5.32373 2.76946 0
M  V30 367 H 34.1313 -3.91331 2.86336 0
M  V30 368 N 35.4744 -0.807222 -1.35358 0
M  V30 369 C 36.4374 -0.223665 -2.28106 0
M  V30 370 C 37.4374 0.589354 -1.4961 0
M  V30 371 O 38.6274 0.407745 -1.69361 0
M  V30 372 C 35.7594 0.688149 -3.33882 0
M  V30 373 H 36.9524 -1.04169 -2.81227 0
M  V30 374 H 34.5054 -0.577921 -1.45223 0
M  V30 375 H 35.2404 1.52984 -2.85948 0
M  V30 376 H 35.0254 0.10687 -3.91954 0
M  V30 377 H 36.5154 1.09075 -4.03104 0
M  V30 378 N 36.9525 1.47285 -0.560781 0
M  V30 379 C 38.1985 2.02764 -0.0381184 0
M  V30 380 C 38.5315 1.43384 1.30976 0
M  V30 381 O 37.8065 0.590733 1.85312 0
M  V30 382 C 38.0895 3.60064 0.0511427 0
M  V30 383 C 37.9425 4.2987 -1.32408 0
M  V30 384 C 39.2615 4.33439 0.762795 0
M  V30 385 H 36.3805 0.736841 -0.0153264 0
M  V30 386 H 39.0225 1.75675 -0.723759 0
M  V30 387 H 37.1725 3.83274 0.635065 0
M  V30 388 H 38.8445 4.17989 -1.95148 0
M  V30 389 H 37.0875 3.90085 -1.8978 0
M  V30 390 H 37.7585 5.38478 -1.21431 0
M  V30 391 H 40.2345 4.15243 0.266965 0
M  V30 392 H 39.1105 5.43124 0.794221 0
M  V30 393 H 39.3715 4.02915 1.81966 0
M  V30 394 N 38.4306 0.297415 1.54768 0
M  V30 395 C 39.6786 -0.312295 1.99673 0
M  V30 396 C 39.9996 -1.54686 1.18732 0
M  V30 397 O 39.2696 -1.93854 0.282382 0
M  V30 398 H 37.8496 -0.118381 0.73756 0
M  V30 399 H 40.5116 0.407915 1.90583 0
M  V30 400 H 39.6076 -0.586813 3.06534 0
M  V30 401 N 39.9087 -1.5758 0.0250728 0
M  V30 402 C 41.1557 -1.91633 -0.654444 0
M  V30 403 C 41.4837 -0.901103 -1.72367 0
M  V30 404 O 40.7387 0.0905647 -1.9549 0
M  V30 405 C 41.0377 -3.32421 -1.31268 0
M  V30 406 C 40.7037 -4.49344 -0.374223 0
M  V30 407 C 39.3657 -4.8106 -0.115911 0
M  V30 408 C 41.7177 -5.20498 0.270432 0
M  V30 409 C 39.0457 -5.8129 0.79493 0
M  V30 410 C 41.3977 -6.21699 1.1693 0
M  V30 411 C 40.0617 -6.51859 1.43655 0
M  V30 412 H 39.3317 -0.701236 -0.239478 0
M  V30 413 H 41.9787 -1.91307 0.0859734 0
M  V30 414 H 40.2837 -3.28989 -2.12775 0
M  V30 415 H 41.9807 -3.56038 -1.84494 0
M  V30 416 H 38.5707 -4.24579 -0.58573 0
M  V30 417 H 42.7547 -4.96229 0.0839194 0
M  V30 418 H 38.0107 -6.03005 1.00973 0
M  V30 419 H 42.1847 -6.75955 1.67504 0
M  V30 420 H 39.8117 -7.2934 2.144 0
M  V30 421 N 41.3868 0.248026 -1.55636 0
M  V30 422 C 42.3188 1.32993 -1.8667 0
M  V30 423 C 43.3318 1.44345 -0.752877 0
M  V30 424 O 44.5208 1.45715 -1.03098 0
M  V30 425 C 41.6208 2.70863 -2.03682 0
M  V30 426 C 40.7938 2.81792 -3.34532 0
M  V30 427 C 39.8528 4.005 -3.41301 0
M  V30 428 O 38.8788 3.9008 -4.14519 0
M  V30 429 N 40.0808 5.13618 -2.70512 0
M  V30 430 H 42.8458 1.06707 -2.8006 0
M  V30 431 H 40.4068 0.438129 -1.55859 0
M  V30 432 H 42.3988 3.48612 -2.05553 0
M  V30 433 H 40.9688 2.89862 -1.17041 0
M  V30 434 H 40.1888 1.90729 -3.44987 0
M  V30 435 H 41.4768 2.86043 -4.20781 0
M  V30 436 H 40.8748 5.24975 -2.10755 0
M  V30 437 H 39.4318 5.89505 -2.78077 0
M  V30 438 N 42.8649 1.48995 0.513639 0
M  V30 439 C 44.0929 1.61531 1.29288 0
M  V30 440 C 44.5079 0.281801 1.86685 0
M  V30 441 O 43.8649 -0.731111 1.67215 0
M  V30 442 C 43.9159 2.67449 2.43215 0
M  V30 443 O 43.6369 3.95626 1.88179 0
M  V30 444 C 45.1379 2.90575 3.34785 0
M  V30 445 H 42.3579 0.544165 0.392588 0
M  V30 446 H 44.9019 1.9494 0.617956 0
M  V30 447 H 43.0569 2.36853 3.0656 0
M  V30 448 H 43.4709 4.53868 2.62876 0
M  V30 449 H 44.9449 3.68449 4.11035 0
M  V30 450 H 45.4219 2.00011 3.91015 0
M  V30 451 H 46.0279 3.22538 2.77218 0
M  V30 452 N 44.343 -0.763751 1.37857 0
M  V30 453 C 45.754 -1.3405 1.29952 0
M  V30 454 C 46.105 -1.96138 -0.0492898 0
M  V30 455 O 45.23 -1.94372 -0.951239 0
M  V30 456 C 45.825 -2.43729 2.35333 0
M  V30 457 C 44.384 -2.97151 2.31037 0
M  V30 458 C 43.531 -1.70438 2.18738 0
M  V30 459 H 46.482 -0.563396 1.48363 0
M  V30 460 H 46.503 -3.23412 2.00462 0
M  V30 461 H 46.015 -1.9851 3.33489 0
M  V30 462 H 44.116 -3.46724 1.3643 0
M  V30 463 H 44.229 -3.52221 3.24772 0
M  V30 464 H 42.593 -1.93673 1.65418 0
M  V30 465 H 43.376 -1.27312 3.18821 0
M  V30 466 N 45.8211 -1.22559 -0.990812 0
M  V30 467 C 46.7841 -0.998863 -2.0629 0
M  V30 468 C 47.7841 0.0354834 -1.60761 0
M  V30 469 O 48.9741 -0.203231 -1.7301 0
M  V30 470 C 46.1061 -0.509203 -3.37076 0
M  V30 471 H 47.2991 -1.95014 -2.27837 0
M  V30 472 H 44.8521 -1.04456 -1.16269 0
M  V30 473 H 45.5871 0.446335 -3.21214 0
M  V30 474 H 45.3721 -1.25547 -3.71457 0
M  V30 475 H 46.8621 -0.370888 -4.1595 0
M  V30 476 N 47.2992 1.18797 -1.03562 0
M  V30 477 C 48.5452 1.8893 -0.737113 0
M  V30 478 C 48.8782 1.79837 0.732956 0
M  V30 479 O 48.1532 1.19525 1.5344 0
M  V30 480 C 48.4362 3.39607 -1.19745 0
M  V30 481 C 48.2892 3.57537 -2.72924 0
M  V30 482 C 49.6082 4.33069 -0.783526 0
M  V30 483 H 46.7272 0.686057 -0.269249 0
M  V30 484 H 49.3692 1.39797 -1.28673 0
M  V30 485 H 47.5192 3.81583 -0.729855 0
M  V30 486 H 49.1912 3.24688 -3.27682 0
M  V30 487 H 47.4342 3.00363 -3.12993 0
M  V30 488 H 48.1052 4.63238 -3.00191 0
M  V30 489 H 50.5812 3.98846 -1.18581 0
M  V30 490 H 49.4572 5.3707 -1.13343 0
M  V30 491 H 49.7182 4.40986 0.313681 0
M  V30 492 N 48.7773 0.814389 1.34928 0
M  V30 493 C 49.7403 0.235759 2.27984 0
M  V30 494 C 50.7403 -0.581412 1.49921 0
M  V30 495 O 51.9303 -0.398758 1.69575 0
M  V30 496 C 49.0623 -0.670433 3.34242 0
M  V30 497 H 50.2553 1.05659 2.80671 0
M  V30 498 H 47.8083 0.585614 1.44915 0
M  V30 499 H 48.5433 -1.51466 2.86755 0
M  V30 500 H 48.3283 -0.0860822 3.92005 0
M  V30 501 H 49.8183 -1.06935 4.03676 0
M  V30 502 N 50.2554 -1.46986 0.568584 0
M  V30 503 C 51.2184 -2.28624 -0.162366 0
M  V30 504 C 52.2184 -1.37596 -0.832103 0
M  V30 505 O 53.4084 -1.60115 -0.68622 0
M  V30 506 C 50.5404 -3.17596 -1.23878 0
M  V30 507 H 51.7334 -2.94722 0.554899 0
M  V30 508 H 49.2864 -1.52863 0.325976 0
M  V30 509 H 50.0214 -2.56214 -1.98808 0
M  V30 510 H 49.8064 -3.846 -0.763219 0
M  V30 511 H 51.2964 -3.79078 -1.75185 0
M  V30 512 N 51.7335 -0.305618 -1.54608 0
M  V30 513 C 52.6965 0.555591 -2.22364 0
M  V30 514 C 53.6965 1.05768 -1.21119 0
M  V30 515 O 54.8865 0.952972 -1.45822 0
M  V30 516 C 52.0185 1.76974 -2.91364 0
M  V30 517 H 53.2115 -0.0364572 -2.99878 0
M  V30 518 H 50.7645 -0.0565007 -1.56198 0
M  V30 519 H 51.4995 2.40151 -2.17941 0
M  V30 520 H 51.2845 1.41732 -3.65588 0
M  V30 521 H 52.7745 2.38148 -3.43038 0
M  V30 522 N 53.2116 1.57565 -0.0334293 0
M  V30 523 C 54.6226 1.79746 0.504798 0
M  V30 524 C 54.9736 0.944091 1.71992 0
M  V30 525 O 54.0986 0.155694 2.15839 0
M  V30 526 C 54.6936 3.25997 0.922567 0
M  V30 527 C 53.2526 3.49159 1.40588 0
M  V30 528 C 52.3996 2.74785 0.372633 0
M  V30 529 H 55.3506 1.56565 -0.259436 0
M  V30 530 H 55.3716 3.35945 1.78666 0
M  V30 531 H 54.8836 3.88081 0.0379825 0
M  V30 532 H 52.9846 2.92332 2.31025 0
M  V30 533 H 53.0976 4.57873 1.41028 0
M  V30 534 H 51.4616 2.40391 0.841672 0
M  V30 535 H 52.2446 3.39587 -0.503559 0
M  V30 536 N 54.6897 -0.239769 1.55765 0
M  V30 537 C 55.9177 -0.98417 1.81994 0
M  V30 538 C 56.3327 -1.7867 0.610124 0
M  V30 539 O 55.6897 -1.77571 -0.421271 0
M  V30 540 C 55.7407 -1.91635 3.06526 0
M  V30 541 O 55.4617 -1.14629 4.22838 0
M  V30 542 C 56.9627 -2.77616 3.45607 0
M  V30 543 H 54.1827 -0.28928 0.605441 0
M  V30 544 H 56.7267 -0.260499 2.02834 0
M  V30 545 H 54.8817 -2.5942 2.87715 0
M  V30 546 H 55.2957 -1.77745 4.93464 0
M  V30 547 H 56.7697 -3.38759 4.35828 0
M  V30 548 H 57.2467 -3.4909 2.6652 0
M  V30 549 H 57.8527 -2.15271 3.66795 0
M  V30 550 N 56.1678 -1.49265 -0.50573 0
M  V30 551 C 57.1308 -1.65075 -1.59006 0
M  V30 552 C 58.1308 -0.522768 -1.52065 0
M  V30 553 O 59.3208 -0.789117 -1.55302 0
M  V30 554 C 56.4528 -1.64369 -2.98656 0
M  V30 555 H 57.6458 -2.61784 -1.46319 0
M  V30 556 H 55.1988 -1.38226 -0.729616 0
M  V30 557 H 55.9338 -0.692272 -3.16825 0
M  V30 558 H 55.7188 -2.46282 -3.05103 0
M  V30 559 H 57.2088 -1.78674 -3.77446 0
M  V30 560 N 57.6459 0.756429 -1.3826 0
M  V30 561 C 58.8739 1.54565 -1.3754 0
M  V30 562 C 59.2889 1.88767 0.0355331 0
M  V30 563 O 58.6459 1.52572 1.0014 0
M  V30 564 C 58.6969 2.84654 -2.22833 0
M  V30 565 O 58.4179 2.51912 -3.5843 0
M  V30 566 C 59.9189 3.78807 -2.30261 0
M  V30 567 H 57.1389 0.478353 -0.470553 0
M  V30 568 H 59.6829 0.936381 -1.81803 0
M  V30 569 H 57.8379 3.41965 -1.8204 0
M  V30 570 H 58.2519 3.35325 -4.03308 0
M  V30 571 H 59.7259 4.67045 -2.94233 0
M  V30 572 H 60.2029 4.19038 -1.31545 0
M  V30 573 H 60.8089 3.2742 -2.71433 0
M  V30 574 N 59.124 1.23083 0.984299 0
M  V30 575 C 60.37 1.06214 1.72761 0
M  V30 576 C 60.703 -0.400584 1.90024 0
M  V30 577 O 59.978 -1.29672 1.44967 0
M  V30 578 C 60.261 1.78375 3.12817 0
M  V30 579 C 60.114 3.32296 3.03149 0
M  V30 580 C 61.433 1.54309 4.12161 0
M  V30 581 H 58.552 0.387251 0.627061 0
M  V30 582 H 61.194 1.51536 1.14616 0
M  V30 583 H 59.344 1.39848 3.62457 0
M  V30 584 H 61.016 3.8032 2.61064 0
M  V30 585 H 59.259 3.6153 2.39747 0
M  V30 586 H 59.93 3.77972 4.02295 0
M  V30 587 H 62.406 1.87791 3.71314 0
M  V30 588 H 61.282 2.07281 5.08258 0
M  V30 589 H 61.543 0.477572 4.39513 0
M  V30 590 N 60.6021 -1.18246 1.0419 0
M  V30 591 C 61.8301 -1.92195 0.766072 0
M  V30 592 C 62.2451 -1.76247 -0.676933 0
M  V30 593 O 61.6021 -1.09293 -1.46155 0
M  V30 594 C 61.6531 -3.43568 1.12442 0
M  V30 595 O 61.3741 -3.59015 2.51078 0
M  V30 596 C 62.8751 -4.34613 0.873275 0
M  V30 597 H 60.0951 -0.610114 0.279288 0
M  V30 598 H 62.6391 -1.50007 1.38989 0
M  V30 599 H 60.7941 -3.8354 0.545542 0
M  V30 600 H 61.2081 -4.5273 2.64831 0
M  V30 601 H 62.6821 -5.39374 1.17385 0
M  V30 602 H 63.1591 -4.38781 -0.191909 0
M  V30 603 H 63.7651 -4.00341 1.43551 0
M  V30 604 N 62.0802 -0.821533 -1.34494 0
M  V30 605 C 63.4912 -0.467956 -1.8074 0
M  V30 606 C 63.8422 1.01151 -1.68116 0
M  V30 607 O 62.9672 1.78707 -1.22036 0
M  V30 608 C 63.5622 -0.842627 -3.28154 0
M  V30 609 C 62.1212 -0.541439 -3.72485 0
M  V30 610 C 61.2682 -1.06028 -2.56229 0
M  V30 611 H 64.2192 -1.01183 -1.22261 0
M  V30 612 H 64.2402 -0.145876 -3.8022 0
M  V30 613 H 63.7522 -1.91945 -3.37311 0
M  V30 614 H 61.8532 0.526034 -3.68868 0
M  V30 615 H 61.9662 -1.08453 -4.66663 0
M  V30 616 H 60.3302 -0.481892 -2.501 0
M  V30 617 H 61.1132 -2.14352 -2.68157 0
M  V30 618 N 63.5583 1.46682 -0.576371 0
M  V30 619 C 64.7833 2.07304 -0.0630475 0
M  V30 620 C 65.2083 1.42329 1.2298 0
M  V30 621 O 64.5663 0.504865 1.74129 0
M  V30 622 C 64.6143 3.60472 0.095895 0
M  V30 623 O 63.7183 3.95927 1.15394 0
M  V30 624 H 63.0593 0.661288 -0.0599463 0
M  V30 625 H 65.5893 1.88417 -0.797511 0
M  V30 626 H 65.5993 4.06865 0.304071 0
M  V30 627 H 64.2743 4.07157 -0.84828 0
M  V30 628 H 62.8513 3.61252 0.924724 0
M  V30 629 N 65.0364 0.313813 1.54444 0
M  V30 630 C 66.2614 -0.296681 2.05267 0
M  V30 631 C 66.6864 -1.45757 1.18897 0
M  V30 632 O 66.0444 -1.80239 0.195886 0
M  V30 633 C 66.0924 -0.71831 3.53373 0
M  V30 634 O 65.1964 -1.82175 3.69981 0
M  V30 635 H 64.5374 -0.0554061 0.661684 0
M  V30 636 H 67.0674 0.459387 1.99376 0
M  V30 637 H 67.0774 -1.00364 3.95463 0
M  V30 638 H 65.7524 0.130821 4.15694 0
M  V30 639 H 64.3294 -1.53598 3.39797 0
M  V30 640 N 66.5145 -1.57545 0.0417849 0
M  V30 641 C 67.7625 -1.91937 -0.632829 0
M  V30 642 C 68.0835 -0.919978 -1.71934 0
M  V30 643 O 67.3535 0.0366064 -1.95866 0
M  V30 644 H 65.9335 -0.708493 -0.236742 0
M  V30 645 H 68.5955 -1.9468 0.0925745 0
M  V30 646 H 67.6915 -2.92912 -1.07746 0
M  V30 647 N 67.9926 0.231505 -1.5589 0
M  V30 648 C 68.9226 1.29022 -1.94617 0
M  V30 649 C 69.9036 1.4941 -0.813067 0
M  V30 650 O 71.0886 1.6176 -1.07459 0
M  V30 651 C 68.2186 2.64199 -2.25424 0
M  V30 652 C 67.1726 2.58484 -3.41131 0
M  V30 653 C 66.4986 3.97599 -3.57518 0
M  V30 654 C 67.7986 2.1413 -4.76388 0
M  V30 655 H 69.4926 0.968563 -2.83301 0
M  V30 656 H 67.0386 0.464479 -1.36303 0
M  V30 657 H 68.9916 3.38413 -2.51107 0
M  V30 658 H 67.7156 2.98032 -1.33583 0
M  V30 659 H 66.3746 1.86727 -3.15481 0
M  V30 660 H 66.0226 4.28723 -2.6307 0
M  V30 661 H 65.7226 3.94659 -4.35337 0
M  V30 662 H 67.2466 4.7349 -3.85538 0
M  V30 663 H 68.6606 2.78083 -5.01341 0
M  V30 664 H 67.0576 2.2227 -5.57419 0
M  V30 665 H 68.1276 1.09331 -4.72414 0
M  V30 666 N 69.4707 1.49531 0.497807 0
M  V30 667 C 70.6957 1.63159 1.28039 0
M  V30 668 C 71.1207 0.30418 1.85624 0
M  V30 669 O 70.4787 -0.728618 1.66015 0
M  V30 670 C 70.5267 2.70537 2.38416 0
M  V30 671 O 69.6307 2.29931 3.42353 0
M  V30 672 H 68.9717 0.546001 0.377861 0
M  V30 673 H 71.5017 1.9574 0.59558 0
M  V30 674 H 71.5117 2.92802 2.84132 0
M  V30 675 H 70.1867 3.6689 1.95869 0
M  V30 676 H 68.7637 2.18009 3.02533 0
M  V30 677 N 70.9488 -0.749086 1.3866 0
M  V30 678 C 72.2258 -1.4992 1.25632 0
M  V30 679 C 72.6058 -2.10633 -0.140317 0
M  V30 680 O 71.9538 -1.97437 -1.15025 0
M  V30 681 C 72.1638 -2.56195 2.36992 0
M  V30 682 C 73.5118 -3.22972 2.75634 0
M  V30 683 O 74.5358 -2.66502 2.36337 0
M  V30 684 O 73.3948 -4.25122 3.43415 0
M  V30 685 H 70.4888 -0.665067 0.491544 0
M  V30 686 H 73.0348 -0.784113 1.50498 0
M  V30 687 H 71.8068 -2.09612 3.30422 0
M  V30 688 H 71.4298 -3.35279 2.13714 0
M  V30 689 N 72.4269 -1.23603 -0.977757 0
M  V30 690 C 73.6749 -1.06759 -1.71601 0
M  V30 691 C 73.9959 0.395929 -1.90938 0
M  V30 692 O 73.2659 1.28356 -1.47992 0
M  V30 693 H 71.8459 -0.392062 -0.635843 0
M  V30 694 H 74.5079 -1.55362 -1.1768 0
M  V30 695 H 73.6039 -1.55763 -2.70452 0
M  V30 696 N 73.905 1.17692 -1.04816 0
M  V30 697 C 75.133 1.91786 -0.776254 0
M  V30 698 C 75.548 1.76604 0.667577 0
M  V30 699 O 74.905 1.10067 1.45573 0
M  V30 700 C 74.956 3.42967 -1.14263 0
M  V30 701 O 74.677 3.57678 -2.52978 0
M  V30 702 C 76.178 4.34144 -0.896311 0
M  V30 703 H 73.398 0.608624 -0.282519 0
M  V30 704 H 75.942 1.49268 -1.39783 0
M  V30 705 H 74.097 3.83245 -0.565874 0
M  V30 706 H 74.511 4.51319 -2.67229 0
M  V30 707 H 75.985 5.38744 -1.20244 0
M  V30 708 H 76.462 4.38876 0.168636 0
M  V30 709 H 77.068 3.99574 -1.45672 0
M  V30 710 N 75.3831 0.828654 1.34056 0
M  V30 711 C 76.6291 0.42008 1.98402 0
M  V30 712 C 76.9621 -1.01564 1.65525 0
M  V30 713 O 76.2371 -1.70834 0.929831 0
M  V30 714 C 76.5201 0.62927 3.54559 0
M  V30 715 C 76.3731 2.11152 3.97159 0
M  V30 716 C 77.6921 0.0688756 4.40046 0
M  V30 717 H 74.8111 0.154104 0.720709 0
M  V30 718 H 77.4531 1.04228 1.5886 0
M  V30 719 H 75.6031 0.0996418 3.88372 0
M  V30 720 H 77.2751 2.70522 3.73651 0
M  V30 721 H 75.5181 2.59985 3.47261 0
M  V30 722 H 76.1891 2.20868 5.05887 0
M  V30 723 H 78.6651 0.521458 4.1282 0
M  V30 724 H 77.5411 0.245006 5.48353 0
M  V30 725 H 77.8021 -1.0266 4.30015 0
M  V30 726 N 76.8612 -1.46375 0.584142 0
M  V30 727 C 78.1072 -2.02678 0.0703716 0
M  V30 728 C 78.4402 -1.4545 -1.28678 0
M  V30 729 O 77.7152 -0.62014 -1.84349 0
M  V30 730 C 77.9982 -3.60099 0.00614674 0
M  V30 731 C 77.8512 -4.27709 1.3923 0
M  V30 732 C 79.1702 -4.34598 -0.693742 0
M  V30 733 H 76.2892 -0.736504 0.027047 0
M  V30 734 H 78.9312 -1.74501 0.751615 0
M  V30 735 H 77.0812 -3.84236 -0.574009 0
M  V30 736 H 78.7532 -4.14832 2.01773 0
M  V30 737 H 76.9962 -3.87016 1.95962 0
M  V30 738 H 77.6672 -5.36478 1.29982 0
M  V30 739 H 80.1432 -4.15615 -0.200869 0
M  V30 740 H 79.0192 -5.44318 -0.707714 0
M  V30 741 H 79.2802 -4.05759 -1.75533 0
M  V30 742 N 78.3393 -0.321999 -1.54275 0
M  V30 743 C 79.2863 0.544664 -2.24281 0
M  V30 744 C 80.2563 1.1129 -1.23303 0
M  V30 745 O 81.4413 1.15354 -1.51981 0
M  V30 746 C 78.5813 1.70045 -3.00298 0
M  V30 747 C 77.6943 1.16159 -4.1609 0
M  V30 748 C 76.8293 2.28293 -4.79641 0
M  V30 749 C 75.8683 1.71648 -5.8754 0
M  V30 750 N 75.0053 2.77438 -6.44959 0
M  V30 751 H 79.8453 -0.0588907 -2.97942 0
M  V30 752 H 77.3823 -0.0408345 -1.47043 0
M  V30 753 H 79.3403 2.38054 -3.42616 0
M  V30 754 H 77.9703 2.27531 -2.28975 0
M  V30 755 H 77.0223 0.373092 -3.78566 0
M  V30 756 H 78.3343 0.707087 -4.93763 0
M  V30 757 H 77.4883 3.0421 -5.2492 0
M  V30 758 H 76.2273 2.77079 -4.01346 0
M  V30 759 H 75.2323 0.942282 -5.41665 0
M  V30 760 H 76.4573 1.23741 -6.67731 0
M  V30 761 H 74.4033 3.25519 -5.69538 0
M  V30 762 H 74.3203 2.36547 -7.1804 0
M  V30 763 H 75.5883 3.53189 -6.94894 0
M  V30 764 N 79.8174 1.5752 -0.0501392 0
M  V30 765 C 81.0634 1.92936 0.624798 0
M  V30 766 C 81.3964 0.928685 1.70555 0
M  V30 767 O 80.6714 -0.0454779 1.94447 0
M  V30 768 C 80.9544 3.38737 1.22185 0
M  V30 769 C 80.8074 4.49552 0.149218 0
M  V30 770 C 82.1264 3.84913 2.13378 0
M  V30 771 H 79.2454 0.701604 0.225657 0
M  V30 772 H 81.8874 1.89671 -0.111693 0
M  V30 773 H 80.0374 3.4165 1.84953 0
M  V30 774 H 81.7094 4.58768 -0.482648 0
M  V30 775 H 79.9524 4.30638 -0.522841 0
M  V30 776 H 80.6234 5.48653 0.606966 0
M  V30 777 H 83.0994 3.8387 1.60572 0
M  V30 778 H 81.9754 4.87584 2.52097 0
M  V30 779 H 82.2364 3.21611 3.03346 0
M  V30 780 N 81.2955 -0.223234 1.56011 0
M  V30 781 C 82.2585 -1.26014 1.9145 0
M  V30 782 C 83.2585 -1.3989 0.792937 0
M  V30 783 O 84.4485 -1.38184 1.0607 0
M  V30 784 C 81.5805 -2.63422 2.16383 0
M  V30 785 H 82.7735 -0.95796 2.84189 0
M  V30 786 H 80.3265 -0.463576 1.49267 0
M  V30 787 H 81.0615 -2.98741 1.2619 0
M  V30 788 H 80.8465 -2.54728 2.98088 0
M  V30 789 H 82.3365 -3.38249 2.44903 0
M  V30 790 N 82.7736 -1.49793 -0.48987 0
M  V30 791 C 84.0216 -1.59525 -1.24081 0
M  V30 792 C 84.3426 -0.288953 -1.92847 0
M  V30 793 O 83.6126 0.692436 -1.83254 0
M  V30 794 H 82.1926 -0.587796 -0.460983 0
M  V30 795 H 84.8546 -1.86477 -0.566778 0
M  V30 796 H 83.9506 -2.39696 -1.99881 0
M  V30 797 N 84.2517 0.741722 -1.39055 0
M  V30 798 C 85.2147 1.83733 -1.37021 0
M  V30 799 C 86.2147 1.58542 -0.268534 0
M  V30 800 O 87.4047 1.66067 -0.526076 0
M  V30 801 C 84.5367 3.2141 -1.13617 0
M  V30 802 H 85.7297 1.86941 -2.34506 0
M  V30 803 H 83.2827 0.944676 -1.24521 0
M  V30 804 H 84.0177 3.23865 -0.167863 0
M  V30 805 H 83.8027 3.4109 -1.93391 0
M  V30 806 H 85.2927 4.01477 -1.14918 0
M  V30 807 N 85.7298 1.2412 0.971189 0
M  V30 808 C 86.9778 1.07668 1.71032 0
M  V30 809 C 87.2988 -0.385797 1.91146 0
M  V30 810 O 86.5688 -1.27569 1.4867 0
M  V30 811 H 85.1488 0.395429 0.633755 0
M  V30 812 H 87.8108 1.55984 1.16855 0
M  V30 813 H 86.9068 1.57195 2.69622 0
M  V30 814 N 87.2079 -1.17134 1.05439 0
M  V30 815 C 88.1379 -2.2342 0.678649 0
M  V30 816 C 89.1189 -1.66971 -0.32476 0
M  V30 817 O 90.3039 -1.93149 -0.201802 0
M  V30 818 C 87.4339 -3.47256 0.0552099 0
M  V30 819 C 86.3879 -4.16543 0.98365 0
M  V30 820 C 85.7139 -5.34231 0.223961 0
M  V30 821 C 87.0139 -4.68495 2.3089 0
M  V30 822 H 88.7079 -2.55105 1.56722 0
M  V30 823 H 86.2539 -1.2262 0.754998 0
M  V30 824 H 88.2069 -4.20828 -0.21946 0
M  V30 825 H 86.9309 -3.14846 -0.868319 0
M  V30 826 H 85.5899 -3.44887 1.24293 0
M  V30 827 H 85.2379 -4.98071 -0.702412 0
M  V30 828 H 84.9379 -5.81527 0.842627 0
M  V30 829 H 86.4619 -6.10585 -0.0433671 0
M  V30 830 H 87.8759 -5.33691 2.09396 0
M  V30 831 H 86.2729 -5.26379 2.88176 0
M  V30 832 H 87.3429 -3.85169 2.94572 0
M  V30 833 N 88.686 -0.835752 -1.33615 0
M  V30 834 C 89.618 -0.224151 -2.28101 0
M  V30 835 C 90.631 0.593331 -1.51603 0
M  V30 836 O 91.82 0.420911 -1.73466 0
M  V30 837 C 88.92 0.703309 -3.31522 0
M  V30 838 C 88.093 -0.0741528 -4.37337 0
M  V30 839 C 87.152 0.776176 -5.20444 0
M  V30 840 O 86.178 0.216506 -5.68788 0
M  V30 841 N 87.38 2.09401 -5.41416 0
M  V30 842 H 90.145 -1.03598 -2.81225 0
M  V30 843 H 87.706 -0.69392 -1.46275 0
M  V30 844 H 89.698 1.27707 -3.84022 0
M  V30 845 H 88.268 1.41585 -2.78698 0
M  V30 846 H 87.488 -0.82928 -3.85378 0
M  V30 847 H 88.776 -0.608863 -5.05144 0
M  V30 848 H 88.174 2.57229 -5.03835 0
M  V30 849 H 86.731 2.61633 -5.96985 0
M  V30 850 N 90.1641 1.46063 -0.591896 0
M  V30 851 C 91.1271 2.28854 0.125973 0
M  V30 852 C 92.1271 1.38903 0.810107 0
M  V30 853 O 93.3171 1.61186 0.66066 0
M  V30 854 C 90.4491 3.19526 1.1881 0
M  V30 855 H 91.6421 2.93802 -0.601717 0
M  V30 856 H 89.1951 1.52325 -0.350254 0
M  V30 857 H 89.9301 2.59345 1.94707 0
M  V30 858 H 89.7151 3.85766 0.701936 0
M  V30 859 H 91.2051 3.81817 1.69132 0
M  V30 860 N 91.6422 0.330177 1.54103 0
M  V30 861 C 92.8902 -0.269871 2.0029 0
M  V30 862 C 93.2112 -1.52133 1.21986 0
M  V30 863 O 92.4812 -1.93212 0.323438 0
M  V30 864 H 91.0612 -0.10271 0.739905 0
M  V30 865 H 93.7232 0.448249 1.89675 0
M  V30 866 H 92.8192 -0.52166 3.07709 0
M  V30 867 N 93.1203 -1.57491 0.0584922 0
M  V30 868 C 94.3483 -1.97296 -0.623037 0
M  V30 869 C 94.7633 -0.936338 -1.63946 0
M  V30 870 O 94.1203 0.0785981 -1.82331 0
M  V30 871 C 94.1713 -3.37183 -1.30345 0
M  V30 872 O 93.8923 -4.36872 -0.32773 0
M  V30 873 C 95.3933 -3.91788 -2.07406 0
M  V30 874 H 92.6133 -0.649153 -0.169826 0
M  V30 875 H 95.1573 -2.04106 0.12696 0
M  V30 876 H 93.3123 -3.31502 -2.00463 0
M  V30 877 H 93.7263 -5.18141 -0.814269 0
M  V30 878 H 95.2003 -4.91926 -2.50425 0
M  V30 879 H 95.6773 -3.27609 -2.92521 0
M  V30 880 H 96.2833 -4.00829 -1.42184 0
M  V30 881 N 94.5984 0.214957 -1.56127 0
M  V30 882 C 95.5614 1.24997 -1.92116 0
M  V30 883 C 96.5614 1.39467 -0.800344 0
M  V30 884 O 97.7514 1.37619 -1.06802 0
M  V30 885 C 94.8834 2.62271 -2.17777 0
M  V30 886 H 96.0764 0.942875 -2.84693 0
M  V30 887 H 93.6294 0.455654 -1.49511 0
M  V30 888 H 94.3644 2.98068 -1.27773 0
M  V30 889 H 94.1494 2.53143 -2.99434 0
M  V30 890 H 95.6394 3.36946 -2.46693 0
M  V30 891 N 96.0765 1.50051 0.48192 0
M  V30 892 C 97.3065 1.63999 1.2565 0
M  V30 893 C 97.7145 0.318288 1.86504 0
M  V30 894 O 97.0575 -0.708534 1.69486 0
M  V30 895 C 97.1195 2.66504 2.4128 0
M  V30 896 C 96.7835 4.10352 2.01148 0
M  V30 897 C 97.7805 4.96562 1.54021 0
M  V30 898 C 95.4655 4.56203 2.10199 0
M  V30 899 C 97.4595 6.26668 1.16473 0
M  V30 900 C 95.1465 5.86318 1.72264 0
M  V30 901 C 96.1445 6.71375 1.25477 0
M  V30 902 O 95.8325 7.99062 0.880626 0
M  V30 903 H 95.5645 0.55456 0.386574 0
M  V30 904 H 98.1185 1.96954 0.582944 0
M  V30 905 H 96.3485 2.28769 3.11772 0
M  V30 906 H 98.0375 2.69783 3.03268 0
M  V30 907 H 98.8035 4.62358 1.46458 0
M  V30 908 H 94.6825 3.90152 2.45566 0
M  V30 909 H 98.2265 6.93011 0.798841 0
M  V30 910 H 94.1235 6.20046 1.79482 0
M  V30 911 H 94.8915 8.12239 1.01043 0
M  V30 912 N 97.5546 -0.734337 1.39446 0
M  V30 913 C 98.8316 -1.48579 1.27215 0
M  V30 914 C 99.2116 -2.1077 -0.117968 0
M  V30 915 O 98.5596 -1.98646 -1.12924 0
M  V30 916 C 98.7696 -2.53667 2.39696 0
M  V30 917 C 100.118 -3.20031 2.79044 0
M  V30 918 O 101.142 -2.6398 2.39151 0
M  V30 919 O 100.001 -4.21455 3.47905 0
M  V30 920 H 97.0946 -0.659816 0.49857 0
M  V30 921 H 99.6406 -0.768106 1.51322 0
M  V30 922 H 98.4126 -2.06096 3.32626 0
M  V30 923 H 98.0356 -3.32994 2.17258 0
M  V30 924 N 99.0327 -1.24633 -0.964593 0
M  V30 925 C 100.279 -1.08949 -1.71049 0
M  V30 926 C 100.612 0.370302 -1.90637 0
M  V30 927 O 99.8867 1.27349 -1.47011 0
M  V30 928 C 100.17 -1.83329 -3.0994 0
M  V30 929 C 100.023 -3.37077 -2.97824 0
M  V30 930 C 101.342 -1.60846 -4.09654 0
M  V30 931 H 98.4607 -0.397178 -0.620821 0
M  V30 932 H 101.103 -1.5334 -1.12191 0
M  V30 933 H 99.2527 -1.45597 -3.60186 0
M  V30 934 H 100.925 -3.84425 -2.5498 0
M  V30 935 H 99.1677 -3.65298 -2.33965 0
M  V30 936 H 99.8387 -3.84324 -3.96231 0
M  V30 937 H 102.315 -1.93674 -3.68279 0
M  V30 938 H 101.191 -2.1534 -5.04896 0
M  V30 939 H 101.452 -0.547434 -4.38698 0
M  V30 940 N 100.511 1.16574 -1.06058 0
M  V30 941 C 101.759 1.86677 -0.77434 0
M  V30 942 C 102.08 1.81959 0.701147 0
M  V30 943 O 101.35 1.2515 1.50713 0
M  V30 944 H 99.9298 0.691134 -0.283449 0
M  V30 945 H 102.592 1.41378 -1.34158 0
M  V30 946 H 101.688 2.92181 -1.09711 0
M  V30 947 N 101.989 0.842826 1.3317 0
M  V30 948 C 102.921 0.236245 2.27979 0
M  V30 949 C 103.934 -0.585282 1.51915 0
M  V30 950 O 105.123 -0.411705 1.73687 0
M  V30 951 C 102.223 -0.685717 3.3189 0
M  V30 952 C 101.396 0.0973448 4.37292 0
M  V30 953 C 100.455 -0.748565 5.20848 0
M  V30 954 O 99.4809 -0.186339 5.68895 0
M  V30 955 N 100.683 -2.06527 5.42519 0
M  V30 956 H 103.448 1.05088 2.80672 0
M  V30 957 H 101.009 0.701667 1.45905 0
M  V30 958 H 103.001 -1.25669 3.84694 0
M  V30 959 H 101.571 -1.40105 2.79445 0
M  V30 960 H 100.791 0.849706 3.84933 0
M  V30 961 H 102.079 0.635643 5.04814 0
M  V30 962 H 101.477 -2.54554 5.05192 0
M  V30 963 H 100.034 -2.58464 5.98364 0
M  V30 964 N 103.467 -1.45747 0.599634 0
M  V30 965 C 104.707 -2.04181 0.0946309 0
M  V30 966 C 105.071 -1.45895 -1.24815 0
M  V30 967 O 106.272 -1.95633 -1.8434 0
M  V30 968 C 104.543 -3.57368 0.047581 0
M  V30 969 S 106.102 -4.36997 -0.397387 0
M  V30 970 H 102.92 -0.70953 0.0456954 0
M  V30 971 H 105.522 -1.78564 0.795946 0
M  V30 972 H 104.226 -3.97303 1.02852 0
M  V30 973 H 103.757 -3.87549 -0.675977 0
M  V30 974 H 105.772 -4.68012 -1.64862 0
M  V30 975 N 104.945 -0.338344 -1.53925 0
M  V30 976 C 105.908 0.508299 -2.23493 0
M  V30 977 C 106.908 1.03175 -1.23335 0
M  V30 978 O 108.098 0.921826 -1.47811 0
M  V30 979 C 105.23 1.70754 -2.95052 0
M  V30 980 H 106.423 -0.100058 -2.99733 0
M  V30 981 H 103.976 -0.0896198 -1.56043 0
M  V30 982 H 104.711 2.35474 -2.22986 0
M  V30 983 H 104.496 1.33946 -3.68512 0
M  V30 984 H 105.986 2.30818 -3.48013 0
M  V30 985 N 106.423 1.57458 -0.0668435 0
M  V30 986 C 107.669 1.94401 0.598316 0
M  V30 987 C 108.024 0.946335 1.67518 0
M  V30 988 O 107.317 -0.0321442 1.91573 0
M  V30 989 C 107.511 3.35784 1.22409 0
M  V30 990 C 107.34 4.49212 0.209367 0
M  V30 991 C 106.11 5.04887 -0.204218 0
M  V30 992 C 108.308 5.11335 -0.551431 0
M  V30 993 N 106.29 6.01854 -1.21016 0
M  V30 994 C 107.661 6.03754 -1.41 0
M  V30 995 C 109.716 4.94173 -0.608038 0
M  V30 996 C 108.419 6.80854 -2.32013 0
M  V30 997 C 110.445 5.71912 -1.50566 0
M  V30 998 C 109.807 6.63976 -2.35191 0
M  V30 999 H 105.906 0.758538 0.190114 0
M  V30 1000 H 108.49 1.94175 -0.142832 0
M  V30 1001 H 106.661 3.36757 1.93518 0
M  V30 1002 H 108.393 3.59976 1.84931 0
M  V30 1003 H 105.148 4.73266 0.177908 0
M  V30 1004 H 105.572 6.55035 -1.71049 0
M  V30 1005 H 110.214 4.22788 0.032022 0
M  V30 1006 H 107.932 7.5152 -2.97057 0
M  V30 1007 H 111.518 5.60656 -1.55423 0
M  V30 1008 H 110.398 7.2308 -3.03522 0
M  V30 1009 N 107.901 -0.206675 1.56239 0
M  V30 1010 C 109.147 -0.930218 1.80208 0
M  V30 1011 C 109.48 -1.83387 0.638981 0
M  V30 1012 O 108.755 -1.91119 -0.361066 0
M  V30 1013 C 109.038 -1.75641 3.1436 0
M  V30 1014 C 108.891 -0.878257 4.41142 0
M  V30 1015 C 110.21 -2.73129 3.45092 0
M  V30 1016 H 107.329 -0.336742 0.655571 0
M  V30 1017 H 109.971 -0.198222 1.88963 0
M  V30 1018 H 108.121 -2.38048 3.07027 0
M  V30 1019 H 109.793 -0.269787 4.6051 0
M  V30 1020 H 108.036 -0.184385 4.33408 0
M  V30 1021 H 108.707 -1.49106 5.3148 0
M  V30 1022 H 111.183 -2.20856 3.52649 0
M  V30 1023 H 110.059 -3.28028 4.40101 0
M  V30 1024 H 110.32 -3.51606 2.68003 0
M  V30 1025 N 109.379 -1.50304 -0.473955 0
M  V30 1026 C 110.656 -1.51667 -1.23518 0
M  V30 1027 C 111.036 -0.259701 -2.09496 0
M  V30 1028 O 110.384 0.756986 -2.15597 0
M  V30 1029 C 110.594 -2.81082 -2.06868 0
M  V30 1030 C 111.942 -3.31631 -2.65153 0
M  V30 1031 O 112.966 -2.82384 -2.17113 0
M  V30 1032 O 111.825 -4.17471 -3.52675 0
M  V30 1033 H 108.919 -0.60822 -0.560355 0
M  V30 1034 H 111.465 -1.62592 -0.486011 0
M  V30 1035 H 110.237 -3.64041 -1.4349 0
M  V30 1036 H 109.86 -2.73146 -2.88924 0
M  V30 1037 N 110.857 0.726932 -1.39834 0
M  V30 1038 C 112.085 1.51613 -1.40787 0
M  V30 1039 C 112.5 1.88799 -0.00451505 0
M  V30 1040 O 111.857 1.54662 0.968809 0
M  V30 1041 C 111.908 2.79863 -2.28821 0
M  V30 1042 O 111.629 2.44253 -3.63692 0
M  V30 1043 C 113.13 3.73837 -2.38245 0
M  V30 1044 H 110.35 0.468264 -0.480593 0
M  V30 1045 H 112.894 0.897607 -1.83748 0
M  V30 1046 H 111.049 3.38027 -1.89252 0
M  V30 1047 H 111.463 3.26695 -4.1033 0
M  V30 1048 H 112.937 4.60699 -3.04073 0
M  V30 1049 H 113.414 4.16153 -1.40403 0
M  V30 1050 H 114.02 3.21589 -2.78317 0
M  V30 1051 N 112.336 1.25143 0.95797 0
M  V30 1052 C 113.584 1.09476 1.69881 0
M  V30 1053 C 113.905 -0.365502 1.91544 0
M  V30 1054 O 113.175 -1.25985 1.50015 0
M  V30 1055 H 111.755 0.402128 0.629525 0
M  V30 1056 H 114.417 1.57214 1.15194 0
M  V30 1057 H 113.513 1.60046 2.6794 0
M  V30 1058 N 113.814 -1.1601 1.06675 0
M  V30 1059 C 115.06 -1.86909 0.786945 0
M  V30 1060 C 115.393 -1.81717 -0.685018 0
M  V30 1061 O 114.668 -1.23551 -1.50218 0
M  V30 1062 C 114.951 -3.36313 1.28707 0
M  V30 1063 C 114.804 -3.50175 2.82308 0
M  V30 1064 C 116.123 -4.3084 0.898071 0
M  V30 1065 H 113.242 -0.678677 0.287343 0
M  V30 1066 H 115.884 -1.36336 1.32334 0
M  V30 1067 H 114.034 -3.79513 0.830768 0
M  V30 1068 H 115.706 -3.15886 3.36175 0
M  V30 1069 H 113.949 -2.91959 3.20847 0
M  V30 1070 H 114.62 -4.55116 3.12368 0
M  V30 1071 H 117.096 -3.95561 1.29114 0
M  V30 1072 H 115.972 -5.33876 1.27543 0
M  V30 1073 H 116.233 -4.41662 -0.196651 0
M  V30 1074 N 115.292 -0.849877 -1.32721 0
M  V30 1075 C 116.222 -0.306308 -2.31482 0
M  V30 1076 C 117.203 0.591952 -1.59468 0
M  V30 1077 O 118.388 0.513199 -1.87296 0
M  V30 1078 C 115.518 0.510204 -3.43532 0
M  V30 1079 C 114.472 -0.293209 -4.26994 0
M  V30 1080 C 113.798 0.647743 -5.30762 0
M  V30 1081 C 115.098 -1.51634 -4.99804 0
M  V30 1082 H 116.792 -1.13153 -2.77195 0
M  V30 1083 H 114.338 -0.545553 -1.33266 0
M  V30 1084 H 116.291 0.900856 -4.11658 0
M  V30 1085 H 115.015 1.36874 -2.96535 0
M  V30 1086 H 113.674 -0.665555 -3.60508 0
M  V30 1087 H 113.322 1.50299 -4.8002 0
M  V30 1088 H 113.022 0.11422 -5.87489 0
M  V30 1089 H 114.546 1.03567 -6.01753 0
M  V30 1090 H 115.96 -1.19824 -5.60638 0
M  V30 1091 H 114.357 -1.98745 -5.66234 0
M  V30 1092 H 115.427 -2.28018 -4.27943 0
M  V30 1093 N 116.77 1.45427 -0.607355 0
M  V30 1094 C 117.733 2.28974 0.101693 0
M  V30 1095 C 118.733 1.39754 0.795329 0
M  V30 1096 O 119.923 1.61878 0.643527 0
M  V30 1097 C 117.055 3.20768 1.15414 0
M  V30 1098 H 118.248 2.93147 -0.632844 0
M  V30 1099 H 115.801 1.51945 -0.366391 0
M  V30 1100 H 116.536 2.61395 1.91945 0
M  V30 1101 H 116.321 3.86489 0.66098 0
M  V30 1102 H 117.811 3.83589 1.65073 0
M  V30 1103 N 118.248 0.346503 1.53744 0
M  V30 1104 C 119.488 -0.249413 2.02873 0
M  V30 1105 C 119.852 -1.47532 1.22876 0
M  V30 1106 O 121.053 -2.1456 1.61918 0
M  V30 1107 C 119.324 -0.552909 3.53097 0
M  V30 1108 S 120.883 -1.12521 4.24128 0
M  V30 1109 H 117.701 -0.074042 0.707134 0
M  V30 1110 H 120.303 0.48495 1.8939 0
M  V30 1111 H 119.007 0.347083 4.0893 0
M  V30 1112 H 118.538 -1.31686 3.70705 0
M  V30 1113 H 120.553 -2.41075 4.33702 0
M  V30 1114 N 119.726 -1.57421 0.075193 0
M  V30 1115 C 120.674 -2.14124 -0.908508 0
M  V30 1116 C 121.668 -1.07898 -1.30592 0
M  V30 1117 O 122.874 -1.26273 -1.28277 0
M  V30 1118 H 119.249 -0.684707 -0.310935 0
M  V30 1119 H 121.22 -2.95634 -0.405374 0
M  V30 1120 C 119.969 -2.72044 -2.16535 0
M  V30 1121 H 119.292 -3.53456 -1.86839 0
M  V30 1122 H 120.732 -3.15311 -2.83469 0
M  V30 1123 C 119.191 -1.66968 -2.92615 0
M  V30 1124 O 119.721 -1.0967 -3.86439 0
M  V30 1125 N 117.927 -1.37923 -2.55784 0
M  V30 1126 H 117.474 -1.84706 -1.79559 0
M  V30 1127 H 117.432 -0.67852 -3.06991 0
M  V30 1128 N 121.204 0.198386 -1.56346 0
M  V30 1129 C 122.615 0.763358 -1.70381 0
M  V30 1130 C 122.966 1.83995 -0.681203 0
M  V30 1131 O 122.091 2.15785 0.16305 0
M  V30 1132 C 122.686 1.39143 -3.08909 0
M  V30 1133 C 121.245 1.90352 -3.2472 0
M  V30 1134 C 120.392 0.772233 -2.6633 0
M  V30 1135 H 123.343 -0.0266377 -1.58678 0
M  V30 1136 H 123.364 2.26076 -3.06055 0
M  V30 1137 H 122.876 0.607638 -3.83314 0
M  V30 1138 H 120.977 2.71461 -2.55225 0
M  V30 1139 H 121.09 2.06757 -4.3219 0
M  V30 1140 H 119.454 1.18566 -2.2542 0
M  V30 1141 H 120.237 0.00073556 -3.433 0
M  V30 1142 N 122.682 1.50554 0.465978 0
M  V30 1143 C 123.645 1.69233 1.54574 0
M  V30 1144 C 124.645 0.562901 1.50626 0
M  V30 1145 O 125.835 0.830016 1.53155 0
M  V30 1146 C 122.967 1.7223 2.94193 0
M  V30 1147 H 124.16 2.65571 1.39327 0
M  V30 1148 H 121.713 1.40111 0.692711 0
M  V30 1149 H 122.448 0.77603 3.14878 0
M  V30 1150 H 122.233 2.54285 2.98466 0
M  V30 1151 H 123.723 1.88618 3.72576 0
M  V30 1152 N 124.16 -0.719506 1.40217 0
M  V30 1153 C 125.437 -1.47221 1.28784 0
M  V30 1154 C 125.817 -2.10883 -0.0956067 0
M  V30 1155 O 125.165 -1.99833 -1.10811 0
M  V30 1156 C 125.375 -2.5111 2.42373 0
M  V30 1157 C 126.723 -3.17053 2.82423 0
M  V30 1158 O 127.747 -2.61429 2.41937 0
M  V30 1159 O 126.606 -4.17742 3.52355 0
M  V30 1160 H 123.7 -0.654491 0.50554 0
M  V30 1161 H 126.246 -0.752014 1.52128 0
M  V30 1162 H 125.018 -2.02556 3.34793 0
M  V30 1163 H 124.641 -3.3067 2.20778 0
M  V30 1164 N 125.638 -1.25649 -0.95132 0
M  V30 1165 C 126.885 -1.10594 -1.69633 0
M  V30 1166 C 127.213 0.352515 -1.91279 0
M  V30 1167 O 126.468 1.27601 -1.4838 0
M  V30 1168 C 126.767 -1.80909 -3.08231 0
M  V30 1169 C 126.433 -3.30825 -3.06375 0
M  V30 1170 C 125.095 -3.71722 -3.05576 0
M  V30 1171 C 127.447 -4.26589 -2.99452 0
M  V30 1172 C 124.775 -5.06788 -2.95606 0
M  V30 1173 C 127.127 -5.61683 -2.91024 0
M  V30 1174 C 125.791 -6.01904 -2.88562 0
M  V30 1175 H 125.061 -0.404691 -0.620731 0
M  V30 1176 H 127.708 -1.55964 -1.11119 0
M  V30 1177 H 126.013 -1.27979 -3.70309 0
M  V30 1178 H 127.71 -1.6671 -3.64704 0
M  V30 1179 H 124.3 -2.98287 -3.07771 0
M  V30 1180 H 128.484 -3.95982 -2.99185 0
M  V30 1181 H 123.74 -5.37126 -2.92071 0
M  V30 1182 H 127.914 -6.35578 -2.84629 0
M  V30 1183 H 125.541 -7.06521 -2.80593 0
M  V30 1184 N 127.117 1.15442 -1.07289 0
M  V30 1185 C 128.342 1.90638 -0.816828 0
M  V30 1186 C 128.767 1.77445 0.624083 0
M  V30 1187 O 128.125 1.10671 1.43602 0
M  V30 1188 C 128.173 3.39008 -1.22906 0
M  V30 1189 O 127.277 4.10701 -0.373975 0
M  V30 1190 H 126.618 0.593555 -0.297638 0
M  V30 1191 H 129.148 1.46198 -1.43134 0
M  V30 1192 H 129.158 3.89801 -1.20497 0
M  V30 1193 H 127.833 3.47929 -2.27856 0
M  V30 1194 H 126.41 3.70046 -0.460499 0
M  V30 1195 N 128.595 0.856903 1.32268 0
M  V30 1196 C 129.82 0.474569 2.01897 0
M  V30 1197 C 130.245 -0.921766 1.63967 0
M  V30 1198 O 129.603 -1.60589 0.84148 0
M  V30 1199 C 129.651 0.623799 3.55164 0
M  V30 1200 O 128.755 -0.342459 4.10976 0
M  V30 1201 H 128.096 0.190422 0.63611 0
M  V30 1202 H 130.626 1.15672 1.68764 0
M  V30 1203 H 130.636 0.512169 4.04773 0
M  V30 1204 H 129.311 1.64202 3.82113 0
M  V30 1205 H 127.888 -0.18688 3.72431 0
M  V30 1206 N 130.073 -1.45103 0.615059 0
M  V30 1207 C 131.319 -2.02483 0.113347 0
M  V30 1208 C 131.652 -1.48146 -1.25564 0
M  V30 1209 O 130.927 -0.659104 -1.82992 0
M  V30 1210 C 131.21 -3.60005 0.0825278 0
M  V30 1211 C 131.063 -4.2466 1.48271 0
M  V30 1212 C 132.382 -4.35972 -0.601401 0
M  V30 1213 H 129.501 -0.735764 0.0426632 0
M  V30 1214 H 132.143 -1.72868 0.788461 0
M  V30 1215 H 130.293 -3.85367 -0.492378 0
M  V30 1216 H 131.965 -4.10458 2.10527 0
M  V30 1217 H 130.208 -3.82772 2.04127 0
M  V30 1218 H 130.879 -5.336 1.41332 0
M  V30 1219 H 133.355 -4.15947 -0.112666 0
M  V30 1220 H 132.231 -5.45697 -0.592097 0
M  V30 1221 H 132.492 -4.09391 -1.66887 0
M  V30 1222 N 131.551 -0.354651 -1.53558 0
M  V30 1223 C 132.779 0.239515 -2.05509 0
M  V30 1224 C 133.194 1.4333 -1.2289 0
M  V30 1225 O 132.551 1.80538 -0.266899 0
M  V30 1226 C 132.602 0.643719 -3.55723 0
M  V30 1227 O 132.323 -0.502602 -4.35207 0
M  V30 1228 C 133.824 1.29743 -4.23889 0
M  V30 1229 H 131.044 0.0442697 -0.669538 0
M  V30 1230 H 133.588 -0.509856 -1.98042 0
M  V30 1231 H 131.743 1.34302 -3.63376 0
M  V30 1232 H 132.157 -0.178172 -5.24197 0
M  V30 1233 H 133.631 1.53091 -5.30346 0
M  V30 1234 H 134.108 2.25441 -3.76926 0
M  V30 1235 H 134.714 0.639865 -4.20459 0
M  V30 1236 N 133.029 1.57378 -0.0835403 0
M  V30 1237 C 133.992 2.12252 0.864959 0
M  V30 1238 C 134.992 1.04916 1.21858 0
M  V30 1239 O 136.182 1.30853 1.14991 0
M  V30 1240 C 133.314 2.63358 2.16461 0
M  V30 1241 H 134.507 2.97371 0.388676 0
M  V30 1242 H 132.06 1.55423 0.165317 0
M  V30 1243 H 132.795 1.81727 2.686 0
M  V30 1244 H 132.58 3.41826 1.92087 0
M  V30 1245 H 134.07 3.05847 2.84337 0
M  V30 1246 N 134.507 -0.190092 1.56449 0
M  V30 1247 C 135.784 -0.935886 1.71757 0
M  V30 1248 C 136.164 -2.01173 0.639726 0
M  V30 1249 O 135.512 -2.25827 -0.348502 0
M  V30 1250 C 135.722 -1.51775 3.1427 0
M  V30 1251 C 137.07 -1.99794 3.74656 0
M  V30 1252 O 138.094 -1.61607 3.1743 0
M  V30 1253 O 136.953 -2.70079 4.751 0
M  V30 1254 H 134.047 -0.439229 0.700719 0
M  V30 1255 H 136.593 -0.179395 1.68749 0
M  V30 1256 H 135.365 -0.742505 3.84191 0
M  V30 1257 H 134.988 -2.33894 3.21527 0
M  V30 1258 N 135.985 -1.50799 -0.457987 0
M  V30 1259 C 136.948 -1.7005 -1.53674 0
M  V30 1260 C 137.948 -0.570881 -1.50325 0
M  V30 1261 O 139.138 -0.838126 -1.52712 0
M  V30 1262 C 136.27 -1.73788 -2.93276 0
M  V30 1263 H 137.463 -2.66306 -1.37917 0
M  V30 1264 H 135.016 -1.40477 -0.685271 0
M  V30 1265 H 135.751 -0.792717 -3.14462 0
M  V30 1266 H 135.536 -2.55864 -2.97113 0
M  V30 1267 H 137.026 -1.90591 -3.71571 0
M  V30 1268 N 137.463 0.71206 -1.40597 0
M  V30 1269 C 138.411 1.84746 -1.41321 0
M  V30 1270 C 139.405 1.66842 -0.293268 0
M  V30 1271 O 140.611 1.73904 -0.464481 0
M  V30 1272 H 136.986 0.608522 -0.441819 0
M  V30 1273 H 138.957 1.81252 -2.37045 0
M  V30 1274 C 137.706 3.22638 -1.29614 0
M  V30 1275 H 137.029 3.37023 -2.15071 0
M  V30 1276 H 138.469 4.02209 -1.3418 0
M  V30 1277 C 136.928 3.36899 -0.00673121 0
M  V30 1278 O 137.458 3.90186 0.954859 0
M  V30 1279 N 135.664 2.9053 0.0639327 0
M  V30 1280 H 135.211 2.47353 -0.719311 0
M  V30 1281 H 135.169 3.0045 0.926118 0
M  V30 1282 N 138.941 1.26152 0.944643 0
M  V30 1283 C 140.189 1.11271 1.6871 0
M  V30 1284 C 140.51 -0.345166 1.91921 0
M  V30 1285 O 139.78 -1.24387 1.51343 0
M  V30 1286 H 138.36 0.408783 0.625224 0
M  V30 1287 H 141.022 1.58427 1.1352 0
M  V30 1288 H 140.118 1.62879 2.66227 0
M  V30 1289 N 140.419 -1.14872 1.07899 0
M  V30 1290 C 141.644 -1.90202 0.826926 0
M  V30 1291 C 142.069 -1.77774 -0.614664 0
M  V30 1292 O 141.427 -1.11431 -1.43013 0
M  V30 1293 C 141.475 -3.38352 1.24702 0
M  V30 1294 O 140.579 -4.10497 0.39575 0
M  V30 1295 H 139.92 -0.591968 0.300782 0
M  V30 1296 H 142.45 -1.45437 1.43907 0
M  V30 1297 H 142.46 -3.89156 1.22563 0
M  V30 1298 H 141.135 -3.46715 2.29698 0
M  V30 1299 H 139.712 -3.69796 0.480117 0
M  V30 1300 N 141.898 -0.863906 -1.31812 0
M  V30 1301 C 142.861 -0.320212 -2.26952 0
M  V30 1302 C 143.861 0.525369 -1.51975 0
M  V30 1303 O 145.051 0.335547 -1.70938 0
M  V30 1304 C 142.183 0.545919 -3.365 0
M  V30 1305 H 143.376 -1.16004 -2.76556 0
M  V30 1306 H 140.929 -0.638995 -1.42641 0
M  V30 1307 H 141.664 1.40718 -2.92179 0
M  V30 1308 H 141.449 -0.0594674 -3.92055 0
M  V30 1309 H 142.939 0.918796 -4.07367 0
M  V30 1310 N 143.376 1.44774 -0.622745 0
M  V30 1311 C 144.601 2.06999 -0.128968 0
M  V30 1312 C 145.026 1.4617 1.1839 0
M  V30 1313 O 144.384 0.560007 1.72434 0
M  V30 1314 C 144.432 3.60595 -0.0188351 0
M  V30 1315 O 143.536 3.99398 1.02739 0
M  V30 1316 H 142.877 0.659047 -0.0809544 0
M  V30 1317 H 145.407 1.85784 -0.85705 0
M  V30 1318 H 145.417 4.07627 0.174476 0
M  V30 1319 H 144.092 4.04252 -0.977384 0
M  V30 1320 H 142.669 3.64011 0.809326 0
M  V30 1321 N 144.854 0.36279 1.53368 0
M  V30 1322 C 146.082 -0.228613 2.05633 0
M  V30 1323 C 146.497 -1.42676 1.23649 0
M  V30 1324 O 145.854 -1.80394 0.27647 0
M  V30 1325 C 145.905 -0.624845 3.56059 0
M  V30 1326 O 145.626 0.525675 4.34935 0
M  V30 1327 C 147.127 -1.27493 4.24571 0
M  V30 1328 H 144.347 -0.0407183 0.669763 0
M  V30 1329 H 146.891 0.520352 1.97769 0
M  V30 1330 H 145.046 -1.32373 3.64083 0
M  V30 1331 H 145.46 0.205969 5.24095 0
M  V30 1332 H 146.934 -1.50277 5.31151 0
M  V30 1333 H 147.411 -2.23439 3.78116 0
M  V30 1334 H 148.017 -0.617558 4.20792 0
M  V30 1335 N 146.332 -1.57332 0.0918853 0
M  V30 1336 C 147.557 -1.98995 -0.584442 0
M  V30 1337 C 147.982 -0.970528 -1.61128 0
M  V30 1338 O 147.34 0.0613904 -1.81196 0
M  V30 1339 C 147.388 -3.39636 -1.21161 0
M  V30 1340 O 146.492 -3.40447 -2.32744 0
M  V30 1341 H 145.833 -0.647165 -0.148572 0
M  V30 1342 H 148.363 -2.03873 0.172347 0
M  V30 1343 H 148.373 -3.7726 -1.55367 0
M  V30 1344 H 147.048 -4.13356 -0.459313 0
M  V30 1345 H 145.625 -3.14614 -2.0018 0
M  V30 1346 N 147.81 0.181792 -1.56548 0
M  V30 1347 C 148.74 1.22765 -1.98623 0
M  V30 1348 C 149.721 1.46747 -0.860189 0
M  V30 1349 O 150.906 1.58259 -1.12551 0
M  V30 1350 C 148.036 2.56894 -2.33715 0
M  V30 1351 C 146.99 2.475 -3.49182 0
M  V30 1352 C 146.316 3.86023 -3.69986 0
M  V30 1353 C 147.616 1.98866 -4.82959 0
M  V30 1354 H 149.31 0.877942 -2.86239 0
M  V30 1355 H 146.856 0.42088 -1.37712 0
M  V30 1356 H 148.809 3.30253 -2.61746 0
M  V30 1357 H 147.533 2.93632 -1.42997 0
M  V30 1358 H 146.192 1.76596 -3.21262 0
M  V30 1359 H 145.84 4.20136 -2.76576 0
M  V30 1360 H 145.54 3.80609 -4.47672 0
M  V30 1361 H 147.064 4.60984 -4.00407 0
M  V30 1362 H 148.478 2.61992 -5.09934 0
M  V30 1363 H 146.875 2.04424 -5.64208 0
M  V30 1364 H 147.945 0.942465 -4.75653 0
M  V30 1365 N 149.288 1.51039 0.449983 0
M  V30 1366 C 150.516 1.66869 1.2232 0
M  V30 1367 C 150.931 0.360727 1.85322 0
M  V30 1368 O 150.288 -0.659531 1.70166 0
M  V30 1369 C 150.339 2.77524 2.31652 0
M  V30 1370 O 150.06 4.03252 1.7123 0
M  V30 1371 C 151.561 3.04512 3.2216 0
M  V30 1372 H 148.781 0.560326 0.369155 0
M  V30 1373 H 151.325 1.97385 0.534719 0
M  V30 1374 H 149.48 2.49642 2.96239 0
M  V30 1375 H 149.894 4.64609 2.43389 0
M  V30 1376 H 151.368 3.85551 3.95038 0
M  V30 1377 H 151.845 2.16415 3.8218 0
M  V30 1378 H 152.451 3.34005 2.63288 0
M  V30 1379 N 150.766 -0.704594 1.40972 0
M  V30 1380 C 152.012 -1.46675 1.40051 0
M  V30 1381 C 152.345 -1.94199 0.00641102 0
M  V30 1382 O 151.62 -1.68916 -0.964235 0
M  V30 1383 C 151.903 -2.68505 2.39952 0
M  V30 1384 C 151.756 -2.26805 3.88432 0
M  V30 1385 C 153.075 -3.70686 2.37233 0
M  V30 1386 H 150.194 -0.532015 0.510028 0
M  V30 1387 H 152.836 -0.803255 1.72185 0
M  V30 1388 H 150.986 -3.25114 2.1268 0
M  V30 1389 H 152.658 -1.75592 4.26574 0
M  V30 1390 H 150.901 -1.58685 4.03734 0
M  V30 1391 H 151.572 -3.14181 4.53866 0
M  V30 1392 H 154.048 -3.23731 2.61415 0
M  V30 1393 H 152.924 -4.53553 3.09162 0
M  V30 1394 H 153.185 -4.19754 1.38777 0
M  V30 1395 N 152.244 -1.26651 -0.937939 0
M  V30 1396 C 153.66 -1.03834 -1.21205 0
M  V30 1397 C 153.86 0.234502 -2.00131 0
M  V30 1398 O 152.916 0.942767 -2.3424 0
M  V30 1399 C 154.229 -2.27167 -1.97017 0
M  V30 1400 C 155.777 -2.32101 -2.09996 0
M  V30 1401 C 156.252 -3.55136 -2.8921 0
M  V30 1402 N 157.743 -3.55632 -2.96783 0
M  V30 1403 C 158.478 -4.475 -3.58512 0
M  V30 1404 N 157.974 -5.4966 -4.21717 0
M  V30 1405 N 159.767 -4.35145 -3.55816 0
M  V30 1406 H 151.918 -2.08398 -0.410391 0
M  V30 1407 H 154.181 -0.916031 -0.244114 0
M  V30 1408 H 153.887 -3.19765 -1.46434 0
M  V30 1409 H 153.761 -2.31672 -2.97671 0
M  V30 1410 H 156.148 -1.40015 -2.59769 0
M  V30 1411 H 156.229 -2.31605 -1.08594 0
M  V30 1412 H 155.873 -4.47553 -2.40123 0
M  V30 1413 H 155.803 -3.5288 -3.90875 0
M  V30 1414 H 158.294 -2.81743 -2.51852 0
M  V30 1415 H 158.607 -6.15943 -4.66727 0
M  V30 1416 H 156.952 -5.53514 -4.20294 0
M  V30 1417 H 160.143 -3.5455 -3.05634 0
M  V30 1418 H 160.316 -5.06934 -4.03636 0
M  V30 1419 N 153.722 1.14298 -1.08507 0
M  V30 1420 C 155.138 1.37347 -0.812901 0
M  V30 1421 C 155.338 1.93052 0.577325 0
M  V30 1422 O 154.394 2.14389 1.33393 0
M  V30 1423 C 155.707 2.33359 -1.89642 0
M  V30 1424 C 157.255 2.46996 -1.92255 0
M  V30 1425 C 157.73 3.46309 -2.99724 0
M  V30 1426 N 159.221 3.53853 -2.98902 0
M  V30 1427 C 159.956 4.3055 -3.787 0
M  V30 1428 N 159.452 5.10482 -4.6838 0
M  V30 1429 N 161.245 4.25757 -3.66998 0
M  V30 1430 H 153.396 0.764867 -1.9815 0
M  V30 1431 H 155.659 0.398966 -0.859959 0
M  V30 1432 H 155.365 1.99565 -2.89597 0
M  V30 1433 H 155.239 3.33274 -1.76659 0
M  V30 1434 H 157.626 2.80081 -0.929445 0
M  V30 1435 H 157.707 1.47039 -2.09316 0
M  V30 1436 H 157.351 3.13957 -3.99241 0
M  V30 1437 H 157.281 4.46049 -2.79907 0
M  V30 1438 H 159.772 2.96812 -2.33904 0
M  V30 1439 H 160.085 5.66284 -5.25873 0
M  V30 1440 H 158.43 5.09747 -4.72422 0
M  V30 1441 H 161.621 3.62383 -2.96304 0
M  V30 1442 H 161.794 4.85279 -4.29427 0
M  V30 1443 N 155.201 0.870884 1.31352 0
M  V30 1444 C 156.426 0.495957 2.01383 0
M  V30 1445 C 156.851 -0.904324 1.64935 0
M  V30 1446 O 156.209 -1.59687 0.858466 0
M  V30 1447 C 156.257 0.661433 3.54482 0
M  V30 1448 O 155.361 -0.298851 4.11316 0
M  V30 1449 H 154.702 0.197158 0.634054 0
M  V30 1450 H 157.232 1.17455 1.67527 0
M  V30 1451 H 157.242 0.555072 4.04207 0
M  V30 1452 H 155.917 1.68246 3.8035 0
M  V30 1453 H 154.494 -0.147368 3.72609 0
M  V30 1454 N 156.679 -1.44442 0.630414 0
M  V30 1455 C 157.926 -2.02052 0.134617 0
M  V30 1456 C 158.254 -1.49576 -1.24327 0
M  V30 1457 O 157.509 -0.669806 -1.83881 0
M  V30 1458 C 157.808 -3.57332 0.0697835 0
M  V30 1459 C 157.474 -4.29058 1.38635 0
M  V30 1460 C 156.136 -4.4837 1.74694 0
M  V30 1461 C 158.488 -4.69872 2.25543 0
M  V30 1462 C 155.816 -5.05756 2.97369 0
M  V30 1463 C 158.168 -5.28616 3.47487 0
M  V30 1464 C 156.832 -5.46147 3.8377 0
M  V30 1465 H 156.102 -0.739361 0.0492598 0
M  V30 1466 H 158.749 -1.73217 0.816586 0
M  V30 1467 H 157.054 -3.85577 -0.695553 0
M  V30 1468 H 158.751 -3.99637 -0.330344 0
M  V30 1469 H 155.341 -4.14357 1.09574 0
M  V30 1470 H 159.525 -4.54666 1.98979 0
M  V30 1471 H 154.781 -5.17515 3.25558 0
M  V30 1472 H 158.955 -5.59192 4.15063 0
M  V30 1473 H 156.582 -5.9038 4.7891 0
M  V30 1474 N 158.157 -0.370918 -1.53173 0
M  V30 1475 C 159.067 0.480823 -2.2962 0
M  V30 1476 C 160.083 1.08789 -1.35798 0
M  V30 1477 O 161.259 1.09768 -1.68858 0
M  V30 1478 C 158.324 1.60227 -3.07454 0
M  V30 1479 C 157.385 1.0222 -4.16953 0
M  V30 1480 C 156.618 2.0902 -4.91066 0
M  V30 1481 O 156.841 3.30222 -4.65091 0
M  V30 1482 O 155.775 1.71778 -5.76867 0
M  V30 1483 H 159.601 -0.141421 -3.03371 0
M  V30 1484 H 157.186 -0.135146 -1.48787 0
M  V30 1485 H 159.068 2.25417 -3.56041 0
M  V30 1486 H 157.743 2.20982 -2.36535 0
M  V30 1487 H 156.65 0.334064 -3.72605 0
M  V30 1488 H 157.983 0.459131 -4.90054 0
M  V30 1489 N 159.635 1.57281 -0.100228 0
M  V30 1490 C 160.883 1.94153 0.561157 0
M  V30 1491 C 161.204 0.983157 1.68401 0
M  V30 1492 O 160.474 0.0361132 1.95867 0
M  V30 1493 H 159.054 0.716791 0.210283 0
M  V30 1494 H 161.716 1.94202 -0.164765 0
M  V30 1495 H 160.812 2.96709 0.968008 0
M  V30 1496 N 161.113 -0.173488 1.56642 0
M  V30 1497 C 162.36 -0.890465 1.81871 0
M  V30 1498 C 162.688 -1.82339 0.67696 0
M  V30 1499 O 161.943 -1.92795 -0.335926 0
M  V30 1500 C 162.242 -1.72069 3.13252 0
M  V30 1501 C 161.908 -0.936878 4.41059 0
M  V30 1502 C 160.57 -0.720545 4.75775 0
M  V30 1503 C 162.922 -0.386919 5.19762 0
M  V30 1504 C 160.25 0.0568829 5.86672 0
M  V30 1505 C 162.602 0.37741 6.31473 0
M  V30 1506 C 161.266 0.604563 6.64757 0
M  V30 1507 H 160.536 -0.325844 0.665512 0
M  V30 1508 H 163.183 -0.155527 1.90867 0
M  V30 1509 H 161.488 -2.52496 2.99588 0
M  V30 1510 H 163.185 -2.27844 3.29982 0
M  V30 1511 H 159.775 -1.11553 4.13828 0
M  V30 1512 H 163.959 -0.541398 4.93338 0
M  V30 1513 H 159.215 0.242635 6.10918 0
M  V30 1514 H 163.389 0.810825 6.91664 0
M  V30 1515 H 161.016 1.20885 7.50527 0
M  V30 1516 N 162.591 -1.51276 -0.441967 0
M  V30 1517 C 163.521 -1.752 -1.54361 0
M  V30 1518 C 164.502 -0.601682 -1.59103 0
M  V30 1519 O 165.687 -0.843913 -1.74905 0
M  V30 1520 C 162.817 -1.87282 -2.92477 0
M  V30 1521 C 161.771 -3.02687 -3.02596 0
M  V30 1522 C 161.097 -2.99947 -4.42647 0
M  V30 1523 C 162.397 -4.4273 -2.77106 0
M  V30 1524 H 164.091 -2.67442 -1.34592 0
M  V30 1525 H 161.637 -1.28694 -0.646048 0
M  V30 1526 H 163.59 -2.02602 -3.695 0
M  V30 1527 H 162.314 -0.916844 -3.13467 0
M  V30 1528 H 160.973 -2.87065 -2.28012 0
M  V30 1529 H 160.621 -2.02136 -4.60597 0
M  V30 1530 H 160.321 -3.77439 -4.50348 0
M  V30 1531 H 161.845 -3.17354 -5.2165 0
M  V30 1532 H 163.259 -4.58727 -3.43864 0
M  V30 1533 H 161.656 -5.21893 -2.96222 0
M  V30 1534 H 162.726 -4.53087 -1.72744 0
M  V30 1535 N 164.069 0.697108 -1.41344 0
M  V30 1536 C 165.316 1.45714 -1.40619 0
M  V30 1537 C 165.644 1.94494 -0.0147907 0
M  V30 1538 O 164.899 1.69794 0.973066 0
M  V30 1539 C 165.198 2.68553 -2.35826 0
M  V30 1540 C 164.864 2.38438 -3.82698 0
M  V30 1541 C 163.526 2.29936 -4.22709 0
M  V30 1542 C 165.878 2.13567 -4.75435 0
M  V30 1543 C 163.206 1.94656 -5.53467 0
M  V30 1544 C 165.558 1.79797 -6.06511 0
M  V30 1545 C 164.222 1.69789 -6.45545 0
M  V30 1546 H 163.492 0.533206 -0.51456 0
M  V30 1547 H 166.139 0.796901 -1.74131 0
M  V30 1548 H 164.444 3.39503 -1.95563 0
M  V30 1549 H 166.141 3.2669 -2.32539 0
M  V30 1550 H 162.731 2.4595 -3.51008 0
M  V30 1551 H 166.915 2.19082 -4.45328 0
M  V30 1552 H 162.171 1.8546 -5.82593 0
M  V30 1553 H 166.345 1.59572 -6.77872 0
M  V30 1554 H 163.972 1.4222 -7.46778 0
M  V30 1555 N 165.547 1.27147 0.931209 0
M  V30 1556 C 166.824 1.0401 1.65654 0
M  V30 1557 C 167.204 -0.426297 2.06751 0
M  V30 1558 O 166.552 -1.40879 1.79904 0
M  V30 1559 C 166.762 1.99834 2.86125 0
M  V30 1560 C 168.11 2.29007 3.57549 0
M  V30 1561 O 169.134 1.97779 2.96246 0
M  V30 1562 O 167.993 2.82222 4.67989 0
M  V30 1563 H 165.087 0.396239 0.725895 0
M  V30 1564 H 167.633 1.38397 0.982056 0
M  V30 1565 H 166.405 2.98744 2.52721 0
M  V30 1566 H 166.028 1.65987 3.61295 0
M  V30 1567 N 167.025 -1.13721 1.09112 0
M  V30 1568 C 168.273 -1.84559 0.823562 0
M  V30 1569 C 168.594 -1.83754 -0.652658 0
M  V30 1570 O 167.864 -1.29102 -1.47342 0
M  V30 1571 H 166.444 -0.683376 0.301673 0
M  V30 1572 H 169.106 -1.37771 1.37859 0
M  V30 1573 H 168.202 -2.8917 1.17419 0
M  V30 1574 N 168.503 -0.877838 -1.30888 0
M  V30 1575 C 169.731 -0.507414 -2.00581 0
M  V30 1576 C 170.146 0.902216 -1.65848 0
M  V30 1577 O 169.503 1.59225 -0.891831 0
M  V30 1578 C 169.554 -0.664162 -3.55347 0
M  V30 1579 O 169.275 -2.01829 -3.8884 0
M  V30 1580 C 170.776 -0.295787 -4.42312 0
M  V30 1581 H 167.996 -0.196866 -0.641471 0
M  V30 1582 H 170.54 -1.18117 -1.66939 0
M  V30 1583 H 168.695 -0.0378619 -3.87381 0
M  V30 1584 H 169.109 -2.03174 -4.8355 0
M  V30 1585 H 170.583 -0.456388 -5.5011 0
M  V30 1586 H 171.06 0.765663 -4.32475 0
M  V30 1587 H 171.666 -0.898113 -4.15709 0
M  V30 1588 N 169.982 1.44106 -0.638065 0
M  V30 1589 C 171.398 1.56672 -0.304286 0
M  V30 1590 C 171.598 1.6244 1.19228 0
M  V30 1591 O 170.654 1.57121 1.9766 0
M  V30 1592 C 171.967 2.83503 -1.00231 0
M  V30 1593 C 173.515 2.97226 -0.981116 0
M  V30 1594 C 173.99 4.26868 -1.65974 0
M  V30 1595 N 175.481 4.33698 -1.62666 0
M  V30 1596 C 176.216 5.32745 -2.12063 0
M  V30 1597 N 175.712 6.38157 -2.6968 0
M  V30 1598 N 177.505 5.24299 -2.02651 0
M  V30 1599 H 169.656 1.38605 -1.60942 0
M  V30 1600 H 171.919 0.664661 -0.675965 0
M  V30 1601 H 171.625 2.85251 -2.0573 0
M  V30 1602 H 171.499 3.73251 -0.54439 0
M  V30 1603 H 173.886 2.95027 0.0654188 0
M  V30 1604 H 173.967 2.08808 -1.47759 0
M  V30 1605 H 173.611 4.29826 -2.70576 0
M  V30 1606 H 173.541 5.14156 -1.13804 0
M  V30 1607 H 176.032 3.58138 -1.20606 0
M  V30 1608 H 176.345 7.10029 -3.05087 0
M  V30 1609 H 174.69 6.38823 -2.73734 0
M  V30 1610 H 177.881 4.4086 -1.57353 0
M  V30 1611 H 178.054 6.01334 -2.41457 0
M  V30 1612 N 171.46 0.379036 1.52974 0
M  V30 1613 C 172.706 -0.199244 2.02422 0
M  V30 1614 C 173.061 -1.4532 1.26095 0
M  V30 1615 O 172.354 -1.88377 0.34996 0
M  V30 1616 C 172.548 -0.53096 3.53434 0
M  V30 1617 C 172.377 0.689298 4.44386 0
M  V30 1618 C 171.147 1.20546 4.9071 0
M  V30 1619 C 173.345 1.55856 4.90116 0
M  V30 1620 N 171.327 2.38434 5.65705 0
M  V30 1621 C 172.698 2.58396 5.63588 0
M  V30 1622 C 174.753 1.57986 4.7217 0
M  V30 1623 C 173.456 3.62939 6.21022 0
M  V30 1624 C 175.482 2.6143 5.30479 0
M  V30 1625 C 174.844 3.62693 6.03849 0
M  V30 1626 H 170.943 -0.0352671 0.781204 0
M  V30 1627 H 173.527 0.526614 1.87443 0
M  V30 1628 H 171.698 -1.22588 3.68547 0
M  V30 1629 H 173.43 -1.0955 3.89591 0
M  V30 1630 H 170.185 0.768022 4.67331 0
M  V30 1631 H 170.609 2.98055 6.07859 0
M  V30 1632 H 175.251 0.810475 4.14959 0
M  V30 1633 H 172.969 4.40751 6.77321 0
M  V30 1634 H 176.555 2.63949 5.18481 0
M  V30 1635 H 175.435 4.41424 6.48163 0
M  V30 1636 N 172.938 -1.57226 0.108567 0
M  V30 1637 C 174.186 -1.94448 -0.550853 0
M  V30 1638 C 174.507 -0.992074 -1.67878 0
M  V30 1639 O 173.777 -0.0465 -1.95845 0
M  V30 1640 H 172.357 -0.717897 -0.206479 0
M  V30 1641 H 175.019 -1.94112 0.175062 0
M  V30 1642 H 174.115 -2.97218 -0.952259 0
M  V30 1643 N 174.416 0.165178 -1.56732 0
M  V30 1644 C 175.644 0.896218 -1.86482 0
M  V30 1645 C 176.059 1.75555 -0.694675 0
M  V30 1646 O 175.416 1.79379 0.33607 0
M  V30 1647 C 175.467 1.76792 -3.1532 0
M  V30 1648 O 175.188 0.943239 -4.27825 0
M  V30 1649 C 176.689 2.6081 -3.58459 0
M  V30 1650 H 173.909 0.260064 -0.618553 0
M  V30 1651 H 176.453 0.163428 -2.03846 0
M  V30 1652 H 174.608 2.45398 -2.99764 0
M  V30 1653 H 175.022 1.53998 -5.01383 0
M  V30 1654 H 176.496 3.17579 -4.51495 0
M  V30 1655 H 176.973 3.35977 -2.82872 0
M  V30 1656 H 177.579 1.97526 -3.76648 0
M  V30 1657 N 175.894 1.51508 0.433938 0
M  V30 1658 C 177.14 1.64588 1.18484 0
M  V30 1659 C 177.473 0.362666 1.90784 0
M  V30 1660 O 176.748 -0.637892 1.83742 0
M  V30 1661 C 177.031 2.85149 2.19913 0
M  V30 1662 C 176.884 4.23456 1.51674 0
M  V30 1663 C 178.203 3.01227 3.20858 0
M  V30 1664 H 175.322 0.598994 0.429389 0
M  V30 1665 H 177.964 1.84002 0.473647 0
M  V30 1666 H 176.114 2.68729 2.80566 0
M  V30 1667 H 177.786 4.51552 0.943322 0
M  V30 1668 H 176.029 4.25998 0.819035 0
M  V30 1669 H 176.7 5.03812 2.2556 0
M  V30 1670 H 179.176 3.16382 2.70263 0
M  V30 1671 H 178.052 3.87141 3.89118 0
M  V30 1672 H 178.313 2.13447 3.8716 0
M  V30 1673 N 177.372 -0.689602 1.41712 0
M  V30 1674 C 178.649 -1.44457 1.31877 0
M  V30 1675 C 179.029 -2.11039 -0.0508537 0
M  V30 1676 O 178.377 -2.02138 -1.06547 0
M  V30 1677 C 178.587 -2.45913 2.47645 0
M  V30 1678 C 179.935 -3.10991 2.89084 0
M  V30 1679 O 180.959 -2.56238 2.47428 0
M  V30 1680 O 179.818 -4.10174 3.61137 0
M  V30 1681 H 176.912 -0.64362 0.519309 0
M  V30 1682 H 179.458 -0.719576 1.53689 0
M  V30 1683 H 178.23 -1.95409 3.39015 0
M  V30 1684 H 177.853 -3.25913 2.27742 0
M  V30 1685 N 178.85 -1.27639 -0.924453 0
M  V30 1686 C 180.09 -1.15407 -1.68703 0
M  V30 1687 C 180.454 0.294581 -1.89727 0
M  V30 1688 O 181.655 0.539385 -2.63333 0
M  V30 1689 C 179.926 -1.9195 -3.0148 0
M  V30 1690 S 181.485 -1.95969 -3.92609 0
M  V30 1691 H 178.303 -0.411937 -0.579507 0
M  V30 1692 H 180.905 -1.61592 -1.10038 0
M  V30 1693 H 179.609 -2.96387 -2.83871 0
M  V30 1694 H 179.14 -1.46272 -3.65196 0
M  V30 1695 H 181.155 -1.05846 -4.84779 0
M  V30 1696 N 180.328 1.1314 -1.09713 0
M  V30 1697 C 181.556 1.88321 -0.856898 0
M  V30 1698 C 181.971 1.79276 0.592073 0
M  V30 1699 O 181.328 1.16142 1.40774 0
M  V30 1700 C 181.379 3.37812 -1.28706 0
M  V30 1701 O 181.1 3.46627 -2.67921 0
M  V30 1702 C 182.601 4.29952 -1.07964 0
M  V30 1703 H 179.821 0.596094 -0.308079 0
M  V30 1704 H 182.365 1.43205 -1.45988 0
M  V30 1705 H 180.52 3.805 -0.727912 0
M  V30 1706 H 180.934 4.39579 -2.8613 0
M  V30 1707 H 182.408 5.33159 -1.42986 0
M  V30 1708 H 182.885 4.39196 -0.0176577 0
M  V30 1709 H 183.491 3.93036 -1.62489 0
M  V30 1710 N 181.806 0.884767 1.30421 0
M  V30 1711 C 183.034 0.518044 2.0031 0
M  V30 1712 C 183.449 -0.893408 1.66324 0
M  V30 1713 O 182.806 -1.5875 0.900262 0
M  V30 1714 C 182.857 0.682997 3.54989 0
M  V30 1715 O 182.578 2.03888 3.87764 0
M  V30 1716 C 184.079 0.31924 4.42149 0
M  V30 1717 H 181.299 0.200265 0.640418 0
M  V30 1718 H 183.843 1.19001 1.6631 0
M  V30 1719 H 181.998 0.0584052 3.87356 0
M  V30 1720 H 182.412 2.05735 4.82466 0
M  V30 1721 H 183.886 0.485555 5.4986 0
M  V30 1722 H 184.363 -0.742717 4.32875 0
M  V30 1723 H 184.969 0.920147 4.15227 0
M  V30 1724 N 183.284 -1.43765 0.645699 0
M  V30 1725 C 184.247 -2.29163 -0.0409488 0
M  V30 1726 C 185.247 -1.41813 -0.757996 0
M  V30 1727 O 186.437 -1.63527 -0.600382 0
M  V30 1728 C 183.569 -3.23716 -1.06869 0
M  V30 1729 H 184.762 -2.91366 0.710345 0
M  V30 1730 H 182.315 -1.5092 0.406547 0
M  V30 1731 H 183.05 -2.66393 -1.84947 0
M  V30 1732 H 182.835 -3.88105 -0.558277 0
M  V30 1733 H 184.325 -3.87831 -1.54845 0
M  V30 1734 N 184.763 -0.387143 -1.52771 0
M  V30 1735 C 185.726 0.436939 -2.24997 0
M  V30 1736 C 186.726 0.991991 -1.26555 0
M  V30 1737 O 187.916 0.874335 -1.50669 0
M  V30 1738 C 185.048 1.61281 -3.00335 0
M  V30 1739 H 186.241 -0.195365 -2.99263 0
M  V30 1740 H 183.794 -0.139218 -1.55679 0
M  V30 1741 H 184.529 2.2826 -2.30364 0
M  V30 1742 H 184.314 1.22154 -3.72587 0
M  V30 1743 H 185.804 2.19629 -3.5518 0
M  V30 1744 N 186.241 1.57166 -0.116904 0
M  V30 1745 C 187.481 1.97008 0.544715 0
M  V30 1746 C 187.845 0.998713 1.63981 0
M  V30 1747 O 189.046 1.28644 2.36018 0
M  V30 1748 C 187.317 3.41145 1.06559 0
M  V30 1749 S 188.876 4.02998 1.73603 0
M  V30 1750 H 185.694 0.688587 0.177112 0
M  V30 1751 H 188.296 1.94459 -0.201487 0
M  V30 1752 H 187 4.09592 0.257374 0
M  V30 1753 H 186.531 3.4734 1.84712 0
M  V30 1754 H 188.546 3.93585 3.02168 0
M  V30 1755 N 187.719 -0.156864 1.56817 0
M  V30 1756 C 188.651 -1.21883 1.94106 0
M  V30 1757 C 189.664 -1.3971 0.835754 0
M  V30 1758 O 190.853 -1.39457 1.11418 0
M  V30 1759 C 187.953 -2.58527 2.19127 0
M  V30 1760 C 187.126 -2.61809 3.50393 0
M  V30 1761 C 186.185 -3.7992 3.64071 0
M  V30 1762 O 185.211 -3.65249 4.36557 0
M  V30 1763 N 186.413 -4.96973 2.99997 0
M  V30 1764 H 189.178 -0.901974 2.85805 0
M  V30 1765 H 186.739 -0.346513 1.58148 0
M  V30 1766 H 188.731 -3.36034 2.25529 0
M  V30 1767 H 187.301 -2.82545 1.33742 0
M  V30 1768 H 186.521 -1.7029 3.5552 0
M  V30 1769 H 187.809 -2.61024 4.36742 0
M  V30 1770 H 187.207 -5.11794 2.41004 0
M  V30 1771 H 185.764 -5.7229 3.11974 0
M  V30 1772 N 189.197 -1.51736 -0.425897 0
M  V30 1773 C 190.443 -1.65214 -1.1761 0
M  V30 1774 C 190.776 -0.372778 -1.90589 0
M  V30 1775 O 190.051 0.628139 -1.84078 0
M  V30 1776 C 190.334 -2.86312 -2.18398 0
M  V30 1777 C 190.187 -4.24254 -1.49426 0
M  V30 1778 C 191.506 -3.02925 -3.19256 0
M  V30 1779 H 188.625 -0.601263 -0.426206 0
M  V30 1780 H 191.267 -1.8425 -0.463882 0
M  V30 1781 H 189.417 -2.70213 -2.79137 0
M  V30 1782 H 191.089 -4.52046 -0.919362 0
M  V30 1783 H 189.332 -4.26426 -0.796432 0
M  V30 1784 H 190.003 -5.05001 -2.22885 0
M  V30 1785 H 192.479 -3.1781 -2.68581 0
M  V30 1786 H 191.355 -3.89199 -3.8706 0
M  V30 1787 H 191.616 -2.15497 -3.86023 0
M  V30 1788 N 190.675 0.682077 -1.42076 0
M  V30 1789 C 191.923 1.4393 -1.41876 0
M  V30 1790 C 192.244 1.94971 -0.0335599 0
M  V30 1791 O 191.514 1.72591 0.926773 0
M  V30 1792 H 190.094 0.534085 -0.522267 0
M  V30 1793 H 192.756 0.806427 -1.77434 0
M  V30 1794 H 191.852 2.29588 -2.11414 0
M  V30 1795 N 192.153 1.28127 0.917671 0
M  V30 1796 C 193.083 1.14248 2.03641 0
M  V30 1797 C 194.064 0.0412748 1.7005 0
M  V30 1798 O 195.249 0.217566 1.92977 0
M  V30 1799 C 192.379 0.799431 3.37974 0
M  V30 1800 C 191.333 1.85497 3.85713 0
M  V30 1801 C 190.659 1.36565 5.16966 0
M  V30 1802 C 191.959 3.26085 4.08002 0
M  V30 1803 H 193.653 2.07835 2.15511 0
M  V30 1804 H 191.199 1.00064 1.03553 0
M  V30 1805 H 193.152 0.689114 4.15727 0
M  V30 1806 H 191.876 -0.172145 3.26146 0
M  V30 1807 H 190.535 1.95437 3.10161 0
M  V30 1808 H 190.183 0.383253 5.01538 0
M  V30 1809 H 189.883 2.07143 5.49878 0
M  V30 1810 H 191.407 1.26848 5.97279 0
M  V30 1811 H 192.821 3.19089 4.76293 0
M  V30 1812 H 191.218 3.94462 4.52238 0
M  V30 1813 H 192.288 3.70394 3.12948 0
M  V30 1814 N 193.631 -1.12557 1.10312 0
M  V30 1815 C 194.856 -1.88405 0.867085 0
M  V30 1816 C 195.281 -1.79038 -0.576817 0
M  V30 1817 O 194.639 -1.14439 -1.40618 0
M  V30 1818 C 194.687 -3.3563 1.31851 0
M  V30 1819 O 193.791 -4.09565 0.482734 0
M  V30 1820 H 193.132 -0.585455 0.313271 0
M  V30 1821 H 195.662 -1.42352 1.4696 0
M  V30 1822 H 195.672 -3.86469 1.3079 0
M  V30 1823 H 194.347 -3.41765 2.37001 0
M  V30 1824 H 192.924 -3.68695 0.558448 0
M  V30 1825 N 195.109 -0.891671 -1.2995 0
M  V30 1826 C 196.386 -0.433307 -1.9074 0
M  V30 1827 C 196.766 1.08646 -1.80995 0
M  V30 1828 O 196.114 1.92476 -1.23147 0
M  V30 1829 C 196.324 -0.938895 -3.36134 0
M  V30 1830 C 197.672 -0.977829 -4.13187 0
M  V30 1831 O 198.696 -0.886015 -3.45005 0
M  V30 1832 O 197.555 -1.11453 -5.35015 0
M  V30 1833 H 194.649 -0.133699 -0.816121 0
M  V30 1834 H 197.195 -0.981011 -1.38471 0
M  V30 1835 H 195.967 -1.98281 -3.37343 0
M  V30 1836 H 195.59 -0.37074 -3.95868 0
M  V30 1837 N 196.587 1.43421 -0.653314 0
M  V30 1838 C 197.55 2.29182 0.0287951 0
M  V30 1839 C 198.55 1.42213 0.750465 0
M  V30 1840 O 199.74 1.63843 0.591701 0
M  V30 1841 C 196.872 3.24278 1.05151 0
M  V30 1842 H 198.065 2.90985 -0.725786 0
M  V30 1843 H 195.618 1.50702 -0.414545 0
M  V30 1844 H 196.353 2.6737 1.83532 0
M  V30 1845 H 196.138 3.88396 0.537687 0
M  V30 1846 H 197.628 3.88647 1.52786 0
M  V30 1847 N 198.065 0.39524 1.52563 0
M  V30 1848 C 199.028 -0.425001 2.25225 0
M  V30 1849 C 200.028 -0.985266 1.27079 0
M  V30 1850 O 201.218 -0.866332 1.5113 0
M  V30 1851 C 198.35 -1.59686 3.01186 0
M  V30 1852 H 199.543 0.211233 2.99155 0
M  V30 1853 H 197.096 0.147472 1.55603 0
M  V30 1854 H 197.831 -2.27035 2.31572 0
M  V30 1855 H 197.616 -1.20176 3.73229 0
M  V30 1856 H 199.106 -2.17743 3.5634 0
M  V30 1857 N 199.544 -1.57102 0.125237 0
M  V30 1858 C 200.792 -1.95021 -0.530198 0
M  V30 1859 C 201.113 -1.00982 -1.66816 0
M  V30 1860 O 200.383 -0.0672693 -1.95784 0
M  V30 1861 H 198.963 -0.720046 -0.198853 0
M  V30 1862 H 201.625 -1.93916 0.19564 0
M  V30 1863 H 200.721 -2.98211 -0.920681 0
M  V30 1864 N 201.022 0.148545 -1.56898 0
M  V30 1865 C 201.97 1.20265 -1.99096 0
M  V30 1866 C 202.964 1.44559 -0.883123 0
M  V30 1867 O 204.17 1.4487 -1.0683 0
M  V30 1868 H 200.545 0.404786 -0.63376 0
M  V30 1869 H 202.516 0.82004 -2.86911 0
M  V30 1870 C 201.265 2.52886 -2.3863 0
M  V30 1871 H 200.588 2.35021 -3.23427 0
M  V30 1872 H 202.028 3.25274 -2.7198 0
M  V30 1873 C 200.487 3.13315 -1.23837 0
M  V30 1874 O 201.017 3.98077 -0.538268 0
M  V30 1875 N 199.223 2.72742 -1.00301 0
M  V30 1876 H 198.77 2.03912 -1.5741 0
M  V30 1877 H 198.728 3.13507 -0.236838 0
M  V30 1878 N 202.5 1.5196 0.417844 0
M  V30 1879 C 203.748 1.65263 1.16329 0
M  V30 1880 C 204.069 0.380634 1.91249 0
M  V30 1881 O 203.339 -0.604214 1.86349 0
M  V30 1882 H 201.919 0.60912 0.432414 0
M  V30 1883 H 204.581 1.88969 0.477162 0
M  V30 1884 H 203.677 2.4896 1.88217 0
M  V30 1885 N 203.978 -0.674533 1.42435 0
M  V30 1886 C 205.389 -1.25514 1.38214 0
M  V30 1887 C 205.74 -1.96055 0.0755464 0
M  V30 1888 O 204.865 -2.00028 -0.8257 0
M  V30 1889 C 205.46 -2.28269 2.50357 0
M  V30 1890 C 204.019 -2.81856 2.49467 0
M  V30 1891 C 203.166 -1.56182 2.29134 0
M  V30 1892 H 206.117 -0.467902 1.51646 0
M  V30 1893 H 206.138 -3.10009 2.20624 0
M  V30 1894 H 205.65 -1.769 3.45439 0
M  V30 1895 H 203.751 -3.37346 1.58204 0
M  V30 1896 H 203.864 -3.30854 3.46515 0
M  V30 1897 H 202.228 -1.82761 1.774 0
M  V30 1898 H 203.011 -1.06778 3.26272 0
M  V30 1899 N 205.456 -1.28612 -0.910864 0
M  V30 1900 C 206.366 -1.14643 -2.0468 0
M  V30 1901 C 207.382 -0.0723121 -1.7385 0
M  V30 1902 O 208.558 -0.282178 -1.99413 0
M  V30 1903 C 205.623 -0.812561 -3.37044 0
M  V30 1904 C 204.684 -1.96935 -3.81465 0
M  V30 1905 C 203.917 -1.65131 -5.07511 0
M  V30 1906 O 204.14 -0.567013 -5.67575 0
M  V30 1907 O 203.074 -2.49585 -5.47714 0
M  V30 1908 H 206.9 -2.1001 -2.19384 0
M  V30 1909 H 204.485 -1.07958 -1.03274 0
M  V30 1910 H 206.367 -0.640441 -4.16505 0
M  V30 1911 H 205.042 0.111426 -3.23508 0
M  V30 1912 H 203.949 -2.19664 -3.02818 0
M  V30 1913 H 205.282 -2.87414 -3.99567 0
M  V30 1914 N 206.934 1.1197 -1.10907 0
M  V30 1915 C 208.182 1.83225 -0.852819 0
M  V30 1916 C 208.503 1.84769 0.623341 0
M  V30 1917 O 207.773 1.3143 1.45269 0
M  V30 1918 H 206.353 0.67849 -0.312507 0
M  V30 1919 H 209.015 1.3556 -1.40033 0
M  V30 1920 H 208.111 2.87265 -1.22005 0
M  V30 1921 N 208.412 0.89855 1.29475 0
M  V30 1922 C 209.658 0.524658 1.95896 0
M  V30 1923 C 209.991 -0.926468 1.70676 0
M  V30 1924 O 209.266 -1.65665 1.01908 0
M  V30 1925 C 209.549 0.81633 3.50725 0
M  V30 1926 C 209.402 2.31907 3.85408 0
M  V30 1927 C 210.721 0.302038 4.39062 0
M  V30 1928 H 207.84 0.19209 0.711527 0
M  V30 1929 H 210.482 1.12502 1.53112 0
M  V30 1930 H 208.632 0.305369 3.87298 0
M  V30 1931 H 210.304 2.89949 3.58786 0
M  V30 1932 H 208.547 2.78027 3.32992 0
M  V30 1933 H 209.218 2.47373 4.93468 0
M  V30 1934 H 211.694 0.739551 4.09475 0
M  V30 1935 H 210.57 0.535331 5.46283 0
M  V30 1936 H 210.831 -0.797216 4.34853 0
M  V30 1937 N 209.89 -1.43072 0.660911 0
M  V30 1938 C 210.853 -2.29194 -0.0166406 0
M  V30 1939 C 211.853 -1.42609 -0.742912 0
M  V30 1940 O 213.043 -1.64155 -0.583004 0
M  V30 1941 C 210.175 -3.24831 -1.0343 0
M  V30 1942 H 211.368 -2.90596 0.741208 0
M  V30 1943 H 208.921 -1.5048 0.422532 0
M  V30 1944 H 209.656 -2.68339 -1.82111 0
M  V30 1945 H 209.441 -3.88676 -0.517082 0
M  V30 1946 H 210.931 -3.89451 -1.50723 0
M  V30 1947 N 211.368 -0.403325 -1.52352 0
M  V30 1948 C 212.617 0.175668 -2.00934 0
M  V30 1949 C 212.93 1.46718 -1.29356 0
M  V30 1950 O 214.136 2.12708 -1.68724 0
M  V30 1951 C 212.592 0.363612 -3.58058 0
M  V30 1952 C 212.2 -0.915472 -4.38547 0
M  V30 1953 C 213.944 0.89821 -4.14888 0
M  V30 1954 C 211.851 -0.695035 -5.87302 0
M  V30 1955 H 210.781 0.0694234 -0.750797 0
M  V30 1956 H 213.432 -0.527879 -1.75743 0
M  V30 1957 H 211.814 1.12935 -3.79555 0
M  V30 1958 H 212.988 -1.68691 -4.28812 0
M  V30 1959 H 211.303 -1.37606 -3.93006 0
M  V30 1960 H 213.9 1.07907 -5.23699 0
M  V30 1961 H 214.243 1.87126 -3.71873 0
M  V30 1962 H 214.776 0.191681 -3.97338 0
M  V30 1963 H 211.515 -1.63948 -6.34666 0
M  V30 1964 H 211.035 0.0372116 -5.99788 0
M  V30 1965 H 212.714 -0.33497 -6.46132 0
M  V30 1966 N 212.846 1.57033 -0.133567 0
M  V30 1967 C 214.071 2.00475 0.531477 0
M  V30 1968 C 214.496 1.01291 1.58499 0
M  V30 1969 O 213.854 -0.0133279 1.81295 0
M  V30 1970 C 213.902 3.42729 1.12113 0
M  V30 1971 O 213.006 3.46498 2.23636 0
M  V30 1972 H 212.347 0.650876 0.131362 0
M  V30 1973 H 214.877 2.03344 -0.22634 0
M  V30 1974 H 214.887 3.81246 1.4531 0
M  V30 1975 H 213.562 4.14428 0.349557 0
M  V30 1976 H 212.139 3.19811 1.91769 0
M  V30 1977 N 214.325 -0.140222 1.56975 0
M  V30 1978 C 215.572 -0.851687 1.83719 0
M  V30 1979 C 215.9 -1.80862 0.715485 0
M  V30 1980 O 215.155 -1.93464 -0.294956 0
M  V30 1981 C 215.454 -1.65386 3.16832 0
M  V30 1982 C 215.12 -0.843112 4.42947 0
M  V30 1983 C 213.782 -0.619464 4.77196 0
M  V30 1984 C 216.134 -0.276582 5.20466 0
M  V30 1985 C 213.462 0.181312 5.8642 0
M  V30 1986 C 215.814 0.51127 6.30531 0
M  V30 1987 C 214.478 0.745432 6.63325 0
M  V30 1988 H 213.748 -0.311654 0.672274 0
M  V30 1989 H 216.395 -0.115006 1.91154 0
M  V30 1990 H 214.7 -2.46084 3.04877 0
M  V30 1991 H 216.397 -2.20793 3.34741 0
M  V30 1992 H 212.987 -1.0275 4.16101 0
M  V30 1993 H 217.171 -0.436632 4.94376 0
M  V30 1994 H 212.427 0.372165 6.10266 0
M  V30 1995 H 216.601 0.957354 6.89788 0
M  V30 1996 H 214.228 1.36778 7.47794 0
M  V30 1997 N 215.803 -1.52179 -0.40978 0
M  V30 1998 C 216.751 -1.76086 -1.51975 0
M  V30 1999 C 217.745 -0.627964 -1.57331 0
M  V30 2000 O 218.951 -0.809993 -1.60745 0
M  V30 2001 H 215.326 -0.556829 -0.505416 0
M  V30 2002 H 217.297 -2.69077 -1.28996 0
M  V30 2003 C 216.046 -1.92799 -2.8935 0
M  V30 2004 H 215.369 -2.79392 -2.85972 0
M  V30 2005 H 216.809 -2.13527 -3.66309 0
M  V30 2006 C 215.268 -0.694923 -3.29655 0
M  V30 2007 O 215.798 0.13751 -4.01465 0
M  V30 2008 N 214.004 -0.53101 -2.85707 0
M  V30 2009 H 213.551 -1.20952 -2.27439 0
M  V30 2010 H 213.509 0.292718 -3.13034 0
M  V30 2011 O 217.32 0.555659 -1.5164 0
M  V30 2012 H 218.011 1.21079 -1.51194 0
M  V30 END ATOM
M  V30 BEGIN BOND
M  V30 END BOND
M  V30 END CTAB
M  END
$$$$
