drugbank_target|H3BUU9 Cadherin-11 (DB00482)
 OpenBabel12092121203D

  0  0  0     0  0            999 V3000
M  V30 BEGIN CTAB
M  V30 COUNTS 10238 10350 0 0 0
M  V30 BEGIN ATOM
M  V30 1 H -0.908 1.98254 -0.117106 0
M  V30 2 N 0 1.576 0 0
M  V30 3 C 0.933 2.03868 1.02534 0
M  V30 4 C 1.911 0.928543 1.3348 0
M  V30 5 O 3.095 1.19667 1.45644 0
M  V30 6 C 0.222 2.43627 2.35294 0
M  V30 7 C -0.732 3.65373 2.2001 0
M  V30 8 S 0.101 5.13292 1.52614 0
M  V30 9 C 1.257 5.56322 2.86805 0
M  V30 10 H 1.49 2.90518 0.631377 0
M  V30 11 H -0.977 1.52953 0.210867 0
M  V30 12 H 0.981 2.67203 3.11629 0
M  V30 13 H -0.358 1.57376 2.7183 0
M  V30 14 H -1.165 3.90944 3.18086 0
M  V30 15 H -1.563 3.418 1.51819 0
M  V30 16 H 0.729 5.58782 3.83104 0
M  V30 17 H 1.672 6.56266 2.65933 0
M  V30 18 H 2.08 4.83886 2.90714 0
M  V30 19 N 1.4781 -0.272755 1.55222 0
M  V30 20 C 2.4411 -1.32041 1.87344 0
M  V30 21 C 3.4411 -1.42342 0.74803 0
M  V30 22 O 4.6311 -1.41488 1.0162 0
M  V30 23 C 1.7631 -2.70173 2.07893 0
M  V30 24 H 2.9561 -1.04789 2.80997 0
M  V30 25 H 0.5091 -0.51083 1.47717 0
M  V30 26 H 1.2441 -3.02605 1.16622 0
M  V30 27 H 1.0291 -2.64082 2.89833 0
M  V30 28 H 2.5191 -3.45869 2.34017 0
M  V30 29 N 2.9562 -1.48159 -0.537278 0
M  V30 30 C 3.8882 -1.58218 -1.65831 0
M  V30 31 C 4.9012 -0.466948 -1.5596 0
M  V30 32 O 6.0902 -0.73747 -1.62553 0
M  V30 33 C 3.1902 -1.48906 -3.04434 0
M  V30 34 C 2.3632 -2.75343 -3.3986 0
M  V30 35 C 1.4222 -2.59588 -4.57712 0
M  V30 36 O 0.4482 -3.33457 -4.61297 0
M  V30 37 N 1.6502 -1.68724 -5.55439 0
M  V30 38 H 4.4152 -2.54891 -1.57641 0
M  V30 39 H 1.9762 -1.4479 -0.724386 0
M  V30 40 H 3.9682 -1.36072 -3.81139 0
M  V30 41 H 2.5382 -0.602368 -3.06741 0
M  V30 42 H 1.7582 -3.02795 -2.52406 0
M  V30 43 H 3.0462 -3.5924 -3.60311 0
M  V30 44 H 2.4442 -1.07898 -5.55315 0
M  V30 45 H 1.0012 -1.61832 -6.3139 0
M  V30 46 N 4.4343 0.785586 -1.36625 0
M  V30 47 C 5.3973 1.87999 -1.31107 0
M  V30 48 C 6.3973 1.59316 -0.217959 0
M  V30 49 O 7.5873 1.67656 -0.472977 0
M  V30 50 C 4.7193 3.24861 -1.03334 0
M  V30 51 H 5.9123 1.94307 -2.2844 0
M  V30 52 H 3.4653 0.983813 -1.21453 0
M  V30 53 H 4.2003 3.24235 -0.0647432 0
M  V30 54 H 3.9853 3.4707 -1.82441 0
M  V30 55 H 5.4753 4.04929 -1.02088 0
M  V30 56 N 5.9124 1.20967 1.01018 0
M  V30 57 C 7.1584 1.02526 1.74975 0
M  V30 58 C 7.4914 -0.4408 1.89131 0
M  V30 59 O 6.7664 -1.32718 1.42184 0
M  V30 60 C 7.0494 1.71699 3.1653 0
M  V30 61 C 6.9024 3.25791 3.10129 0
M  V30 62 C 8.2214 1.45531 4.15342 0
M  V30 63 H 5.3404 0.373863 0.635134 0
M  V30 64 H 7.9824 1.49071 1.17805 0
M  V30 65 H 6.1324 1.32128 3.65341 0
M  V30 66 H 7.8044 3.74697 2.69072 0
M  V30 67 H 6.0474 3.56363 2.47362 0
M  V30 68 H 6.7184 3.69353 4.10222 0
M  V30 69 H 9.1944 1.79872 3.75213 0
M  V30 70 H 8.0704 1.96453 5.1254 0
M  V30 71 H 8.3314 0.384237 4.40427 0
M  V30 72 N 7.3905 -1.2043 1.01659 0
M  V30 73 C 8.6675 -1.8548 0.621004 0
M  V30 74 C 9.0475 -1.9091 -0.900919 0
M  V30 75 O 8.3955 -1.41694 -1.79263 0
M  V30 76 C 8.6055 -3.25119 1.2688 0
M  V30 77 C 9.9535 -4.01403 1.38423 0
M  V30 78 O 10.9775 -3.34473 1.22501 0
M  V30 79 O 9.8365 -5.21265 1.64151 0
M  V30 80 H 6.9305 -0.798761 0.214266 0
M  V30 81 H 9.4765 -1.28019 1.11396 0
M  V30 82 H 8.2485 -3.15932 2.30873 0
M  V30 83 H 7.8715 -3.90212 0.762917 0
M  V30 84 N 8.8686 -0.792821 -1.36206 0
M  V30 85 C 10.2846 -0.474903 -1.52371 0
M  V30 86 C 10.4846 1.00622 -1.74578 0
M  V30 87 O 9.5406 1.79162 -1.77924 0
M  V30 88 C 10.8536 -1.3083 -2.70747 0
M  V30 89 C 12.4016 -1.30234 -2.84619 0
M  V30 90 C 12.8766 -2.11956 -4.06004 0
M  V30 91 N 14.3676 -2.09419 -4.13156 0
M  V30 92 C 15.1026 -2.69419 -5.06163 0
M  V30 93 N 14.5986 -3.3829 -6.04592 0
M  V30 94 N 16.3916 -2.59134 -4.98804 0
M  V30 95 H 8.5426 -1.75222 -1.20046 0
M  V30 96 H 10.8056 -0.745024 -0.586211 0
M  V30 97 H 10.5116 -2.35881 -2.6087 0
M  V30 98 H 10.3856 -0.95196 -3.6499 0
M  V30 99 H 12.7726 -0.259748 -2.93955 0
M  V30 100 H 12.8536 -1.69847 -1.91274 0
M  V30 101 H 12.4976 -3.16248 -3.97429 0
M  V30 102 H 12.4276 -1.69711 -4.98503 0
M  V30 103 H 14.9186 -1.59297 -3.42685 0
M  V30 104 H 15.2316 -3.81394 -6.7213 0
M  V30 105 H 13.5766 -3.42393 -6.04807 0
M  V30 106 H 16.7676 -2.04927 -4.20859 0
M  V30 107 H 16.9406 -3.06185 -5.711 0
M  V30 108 N 10.3467 1.47872 -0.545128 0
M  V30 109 C 11.6237 1.9554 0.0485222 0
M  V30 110 C 12.0037 1.4876 1.49779 0
M  V30 111 O 11.3517 0.720925 2.16829 0
M  V30 112 C 11.5617 3.48898 -0.084417 0
M  V30 113 C 12.9097 4.24547 0.0671239 0
M  V30 114 O 13.9337 3.56198 -0.0113649 0
M  V30 115 O 12.7927 5.45999 0.233882 0
M  V30 116 H 9.8867 0.823957 0.0708773 0
M  V30 117 H 12.4327 1.58327 -0.610798 0
M  V30 118 H 11.2047 3.75714 -1.09337 0
M  V30 119 H 10.8277 3.92845 0.613066 0
M  V30 120 N 11.8248 0.280983 1.55075 0
M  V30 121 C 13.0528 -0.337293 2.04132 0
M  V30 122 C 13.4678 -1.4903 1.15912 0
M  V30 123 O 12.8248 -1.81606 0.180459 0
M  V30 124 C 12.8758 -0.812706 3.52246 0
M  V30 125 O 12.5968 0.294387 4.3711 0
M  V30 126 C 14.0978 -1.4982 4.17216 0
M  V30 127 H 11.3178 -0.0761638 0.666663 0
M  V30 128 H 13.8618 0.414787 2.00249 0
M  V30 129 H 12.0168 -1.51486 3.56554 0
M  V30 130 H 12.4308 -0.0721325 5.2445 0
M  V30 131 H 13.9048 -1.7822 5.22438 0
M  V30 132 H 14.3818 -2.43168 3.65741 0
M  V30 133 H 14.9878 -0.839742 4.16927 0
M  V30 134 N 13.3029 -1.57598 0.00835791 0
M  V30 135 C 14.2509 -2.10078 -0.998508 0
M  V30 136 C 15.2449 -1.02262 -1.35051 0
M  V30 137 O 16.4509 -1.20719 -1.33518 0
M  V30 138 H 12.8259 -0.670903 -0.339696 0
M  V30 139 H 14.7969 -2.93648 -0.530398 0
M  V30 140 C 13.5459 -2.62615 -2.27879 0
M  V30 141 H 12.8689 -3.45213 -2.01662 0
M  V30 142 H 14.3089 -3.03004 -2.96588 0
M  V30 143 C 12.7679 -1.54407 -2.99433 0
M  V30 144 O 13.2979 -0.931812 -3.90743 0
M  V30 145 N 11.5039 -1.2695 -2.61404 0
M  V30 146 H 11.0509 -1.76924 -1.87232 0
M  V30 147 H 11.0089 -0.547704 -3.09593 0
M  V30 148 N 14.781 0.264519 -1.55364 0
M  V30 149 C 16.197 0.61215 -1.47394 0
M  V30 150 C 16.397 1.89134 -0.695018 0
M  V30 151 O 15.453 2.51563 -0.217275 0
M  V30 152 C 16.766 0.731235 -2.91674 0
M  V30 153 C 18.314 0.82473 -3.01939 0
M  V30 154 C 18.789 0.975522 -4.4749 0
M  V30 155 N 20.28 1.04083 -4.51354 0
M  V30 156 C 21.015 1.17646 -5.61201 0
M  V30 157 N 20.511 1.27874 -6.80896 0
M  V30 158 N 22.304 1.20823 -5.48961 0
M  V30 159 H 14.455 -0.575456 -2.04456 0
M  V30 160 H 16.718 -0.196099 -0.927496 0
M  V30 161 H 16.424 -0.138392 -3.51428 0
M  V30 162 H 16.298 1.60883 -3.41169 0
M  V30 163 H 18.685 1.68482 -2.42276 0
M  V30 164 H 18.766 -0.0776479 -2.55682 0
M  V30 165 H 18.41 0.120058 -5.07758 0
M  V30 166 H 18.34 1.89268 -4.91412 0
M  V30 167 H 20.831 0.973846 -3.65136 0
M  V30 168 H 21.144 1.38081 -7.60364 0
M  V30 169 H 19.489 1.24863 -6.83692 0
M  V30 170 H 22.68 1.12469 -4.54388 0
M  V30 171 H 22.853 1.31049 -6.3461 0
M  V30 172 N 16.2591 1.48442 0.529413 0
M  V30 173 C 17.6701 1.5002 1.11134 0
M  V30 174 C 18.0211 0.27031 1.94329 0
M  V30 175 O 17.1461 -0.622507 2.07253 0
M  V30 176 C 17.7411 2.71834 2.02217 0
M  V30 177 C 16.3001 2.76283 2.55627 0
M  V30 178 C 15.4471 2.43542 1.326 0
M  V30 179 H 18.3981 1.5555 0.314641 0
M  V30 180 H 18.4191 2.50384 2.8651 0
M  V30 181 H 17.9311 3.61331 1.41639 0
M  V30 182 H 16.0321 1.90995 3.19924 0
M  V30 183 H 16.1451 3.77725 2.94721 0
M  V30 184 H 14.5091 1.94709 1.64196 0
M  V30 185 H 15.2921 3.3528 0.737734 0
M  V30 186 N 17.7372 -0.778329 1.37039 0
M  V30 187 C 18.6672 -1.90546 1.34962 0
M  V30 188 C 19.6482 -1.68681 0.219274 0
M  V30 189 O 20.8332 -1.89634 0.418624 0
M  V30 190 C 17.9632 -3.27734 1.14925 0
M  V30 191 C 16.9172 -3.64147 2.24902 0
M  V30 192 C 16.2432 -4.99806 1.89996 0
M  V30 193 C 17.5432 -3.71579 3.67051 0
M  V30 194 H 19.2372 -1.92541 2.29277 0
M  V30 195 H 16.7832 -0.924948 1.10366 0
M  V30 196 H 18.7362 -4.06215 1.12104 0
M  V30 197 H 17.4602 -3.26154 0.170631 0
M  V30 198 H 16.1192 -2.8797 2.26868 0
M  V30 199 H 15.7672 -4.94759 0.906796 0
M  V30 200 H 15.4672 -5.25139 2.63634 0
M  V30 201 H 16.9912 -5.80694 1.88749 0
M  V30 202 H 18.4052 -4.40227 3.67251 0
M  V30 203 H 16.8022 -4.08405 4.39688 0
M  V30 204 H 17.8722 -2.72404 4.01154 0
M  V30 205 N 19.2153 -1.21501 -1.00376 0
M  V30 206 C 20.1253 -0.991447 -2.12621 0
M  V30 207 C 21.1413 0.0568446 -1.73907 0
M  V30 208 O 22.3173 -0.13348 -2.00957 0
M  V30 209 C 19.3823 -0.560312 -3.42142 0
M  V30 210 C 18.4433 -1.68096 -3.95022 0
M  V30 211 C 17.6763 -1.2703 -5.18362 0
M  V30 212 O 17.8993 -0.144438 -5.70217 0
M  V30 213 O 16.8333 -2.08269 -5.64719 0
M  V30 214 H 20.6593 -1.93158 -2.34358 0
M  V30 215 H 18.2443 -0.999999 -1.10997 0
M  V30 216 H 20.1263 -0.329724 -4.20108 0
M  V30 217 H 18.8013 0.351089 -3.2179 0
M  V30 218 H 17.7083 -1.96597 -3.18278 0
M  V30 219 H 19.0413 -2.56983 -4.19786 0
M  V30 220 N 20.6934 1.19889 -1.02296 0
M  V30 221 C 22.1044 1.71124 -0.746568 0
M  V30 222 C 22.4554 1.81939 0.734335 0
M  V30 223 O 21.5804 1.48639 1.57275 0
M  V30 224 C 22.1754 3.10804 -1.34857 0
M  V30 225 C 20.7344 3.59323 -1.1209 0
M  V30 226 C 19.8814 2.3635 -1.45031 0
M  V30 227 H 22.8324 1.04813 -1.19163 0
M  V30 228 H 22.8534 3.73186 -0.742437 0
M  V30 229 H 22.3654 3.029 -2.42638 0
M  V30 230 H 20.4664 3.7255 -0.0610337 0
M  V30 231 H 20.5794 4.4378 -1.80544 0
M  V30 232 H 18.9434 2.39399 -0.869487 0
M  V30 233 H 19.7264 2.31081 -2.53883 0
M  V30 234 N 22.1715 0.800033 1.35784 0
M  V30 235 C 23.5825 0.439142 1.81462 0
M  V30 236 C 23.9335 -1.03813 1.66485 0
M  V30 237 O 23.0585 -1.80626 1.19177 0
M  V30 238 C 23.6535 0.790314 3.29453 0
M  V30 239 C 22.2125 0.482111 3.733 0
M  V30 240 C 21.3595 1.01938 2.57883 0
M  V30 241 H 24.3105 0.992254 1.23855 0
M  V30 242 H 24.3315 0.0853677 3.80404 0
M  V30 243 H 23.8435 1.86554 3.40322 0
M  V30 244 H 21.9445 -0.584652 3.67984 0
M  V30 245 H 22.0575 1.01015 4.6833 0
M  V30 246 H 20.4215 0.442043 2.50835 0
M  V30 247 H 21.2045 2.10059 2.71533 0
M  V30 248 N 23.6496 -1.47581 0.552962 0
M  V30 249 C 24.8746 -2.07378 0.0300593 0
M  V30 250 C 25.2996 -1.40355 -1.25229 0
M  V30 251 O 24.6576 -0.477099 -1.7491 0
M  V30 252 C 24.7056 -3.60274 -0.153231 0
M  V30 253 O 23.8096 -3.94041 -1.21678 0
M  V30 254 H 23.1506 -0.662158 0.0494182 0
M  V30 255 H 25.6806 -1.89662 0.767434 0
M  V30 256 H 25.6906 -4.0633 -0.368761 0
M  V30 257 H 24.3656 -4.08455 0.783397 0
M  V30 258 H 22.9426 -3.59735 -0.982079 0
M  V30 259 N 25.1277 -0.289203 -1.54924 0
M  V30 260 C 26.0377 0.601863 -2.26748 0
M  V30 261 C 27.0537 1.15834 -1.2984 0
M  V30 262 O 28.2297 1.18564 -1.62802 0
M  V30 263 C 25.2947 1.76299 -2.98529 0
M  V30 264 C 24.3557 1.24178 -4.10948 0
M  V30 265 C 23.5887 2.34757 -4.79296 0
M  V30 266 O 23.8117 3.54411 -4.46933 0
M  V30 267 O 22.7457 2.02115 -5.66951 0
M  V30 268 H 26.5717 0.0195879 -3.03694 0
M  V30 269 H 24.1567 -0.0560868 -1.49295 0
M  V30 270 H 26.0387 2.43973 -3.43592 0
M  V30 271 H 24.7137 2.33209 -2.24488 0
M  V30 272 H 23.6207 0.531104 -3.70311 0
M  V30 273 H 24.9537 0.718252 -4.86931 0
M  V30 274 N 26.6058 1.57591 -0.0167156 0
M  V30 275 C 27.8528 1.91283 0.664597 0
M  V30 276 C 28.1808 0.891949 1.72842 0
M  V30 277 O 27.4358 -0.100931 1.9544 0
M  V30 278 C 27.7348 3.3172 1.33029 0
M  V30 279 C 27.4008 4.4914 0.398047 0
M  V30 280 C 26.0628 4.80992 0.141421 0
M  V30 281 C 28.4148 5.20634 -0.242825 0
M  V30 282 C 25.7428 5.81703 -0.764092 0
M  V30 283 C 28.0948 6.22311 -1.13632 0
M  V30 284 C 26.7588 6.52611 -1.40196 0
M  V30 285 H 26.0288 0.699956 0.243193 0
M  V30 286 H 28.6758 1.9135 -0.0758267 0
M  V30 287 H 26.9808 3.27856 2.14517 0
M  V30 288 H 28.6778 3.55055 1.86379 0
M  V30 289 H 25.2678 4.24262 0.608238 0
M  V30 290 H 29.4518 4.96267 -0.0576019 0
M  V30 291 H 24.7078 6.03532 -0.977732 0
M  V30 292 H 28.8818 6.76834 -1.63917 0
M  V30 293 H 26.5088 7.30467 -2.10529 0
M  V30 294 N 28.0839 -0.256276 1.55502 0
M  V30 295 C 29.3329 -0.983486 1.76098 0
M  V30 296 C 29.6459 -1.86837 0.578896 0
M  V30 297 O 30.8519 -2.63163 0.667648 0
M  V30 298 C 29.3079 -1.79868 3.1173 0
M  V30 299 C 28.9159 -0.961648 4.37557 0
M  V30 300 C 30.6599 -2.51919 3.41668 0
M  V30 301 C 28.5669 -1.77219 5.64223 0
M  V30 302 H 27.4969 -0.370936 0.656447 0
M  V30 303 H 30.1479 -0.238492 1.81944 0
M  V30 304 H 28.5299 -2.58527 2.99966 0
M  V30 305 H 29.7039 -0.218048 4.60284 0
M  V30 306 H 28.0189 -0.354913 4.14885 0
M  V30 307 H 30.6159 -3.12998 4.33516 0
M  V30 308 H 30.9589 -3.23059 2.62562 0
M  V30 309 H 31.4919 -1.80278 3.54605 0
M  V30 310 H 28.2309 -1.10471 6.46124 0
M  V30 311 H 27.7509 -2.49132 5.45613 0
M  V30 312 H 29.4299 -2.34169 6.03137 0
M  V30 313 N 29.562 -1.4872 -0.521534 0
M  V30 314 C 30.808 -1.574 -1.27879 0
M  V30 315 C 31.141 -0.250817 -1.92573 0
M  V30 316 O 30.416 0.743934 -1.79711 0
M  V30 317 C 30.699 -2.71843 -2.36164 0
M  V30 318 C 30.552 -4.13893 -1.76105 0
M  V30 319 C 31.871 -2.82008 -3.37875 0
M  V30 320 H 28.99 -0.572941 -0.463581 0
M  V30 321 H 31.632 -1.80927 -0.580119 0
M  V30 322 H 29.782 -2.51914 -2.95756 0
M  V30 323 H 31.454 -4.45284 -1.20499 0
M  V30 324 H 29.697 -4.20498 -1.06601 0
M  V30 325 H 30.368 -4.89804 -2.5455 0
M  V30 326 H 32.844 -3.00086 -2.88249 0
M  V30 327 H 31.72 -3.63796 -4.11028 0
M  V30 328 H 31.981 -1.90511 -3.98946 0
M  V30 329 N 31.0401 0.771051 -1.3745 0
M  V30 330 C 31.9871 1.88435 -1.3327 0
M  V30 331 C 32.9571 1.64914 -0.198136 0
M  V30 332 O 34.1421 1.86821 -0.387606 0
M  V30 333 C 31.2821 3.25509 -1.14622 0
M  V30 334 C 30.3951 3.60979 -2.37314 0
M  V30 335 C 29.5301 4.87265 -2.11533 0
M  V30 336 C 28.5691 5.15469 -3.30088 0
M  V30 337 N 27.7061 6.32944 -3.03853 0
M  V30 338 H 32.5461 1.91344 -2.28455 0
M  V30 339 H 30.0831 0.935466 -1.13523 0
M  V30 340 H 32.0411 4.04582 -1.01831 0
M  V30 341 H 30.6711 3.21974 -0.230837 0
M  V30 342 H 29.7231 2.76885 -2.60842 0
M  V30 343 H 31.0351 3.77759 -3.25729 0
M  V30 344 H 30.1891 5.74244 -1.95777 0
M  V30 345 H 28.9281 4.7259 -1.20457 0
M  V30 346 H 27.9331 4.26966 -3.46382 0
M  V30 347 H 29.1581 5.32052 -4.22016 0
M  V30 348 H 27.1041 6.19625 -2.15407 0
M  V30 349 H 27.0211 6.50143 -3.85812 0
M  V30 350 H 28.2891 7.22857 -2.91716 0
M  V30 351 N 32.5182 1.22032 0.997298 0
M  V30 352 C 33.7642 1.04376 1.73878 0
M  V30 353 C 34.0972 -0.420716 1.89588 0
M  V30 354 O 33.3722 -1.31202 1.43583 0
M  V30 355 C 33.6552 1.75047 3.14691 0
M  V30 356 C 33.5082 3.29062 3.06656 0
M  V30 357 C 34.8272 1.49928 4.13775 0
M  V30 358 H 31.9462 0.380578 0.631133 0
M  V30 359 H 34.5882 1.50312 1.16217 0
M  V30 360 H 32.7382 1.35996 3.63919 0
M  V30 361 H 34.4102 3.7753 2.65083 0
M  V30 362 H 32.6532 3.58967 2.43568 0
M  V30 363 H 33.3242 3.73683 4.06282 0
M  V30 364 H 35.8002 1.83842 3.73285 0
M  V30 365 H 34.6762 2.01878 5.10428 0
M  V30 366 H 34.9372 0.430929 4.39995 0
M  V30 367 N 33.9963 -1.19345 1.0293 0
M  V30 368 C 34.9283 -2.22036 0.56857 0
M  V30 369 C 35.9413 -1.58865 -0.355779 0
M  V30 370 O 37.1303 -1.77851 -0.152103 0
M  V30 371 C 34.2303 -3.38363 -0.190752 0
M  V30 372 C 33.4033 -4.31118 0.738643 0
M  V30 373 C 32.4623 -5.26194 0.0246497 0
M  V30 374 O 31.4883 -5.65461 0.651354 0
M  V30 375 N 32.6903 -5.66971 -1.24594 0
M  V30 376 H 35.4553 -2.6219 1.45177 0
M  V30 377 H 33.0163 -1.34015 0.908381 0
M  V30 378 H 35.0083 -3.98981 -0.677961 0
M  V30 379 H 33.5783 -2.96994 -0.975366 0
M  V30 380 H 32.7983 -3.68276 1.40593 0
M  V30 381 H 34.0863 -4.90001 1.37029 0
M  V30 382 H 33.4843 -5.37104 -1.77583 0
M  V30 383 H 32.0413 -6.2984 -1.67764 0
M  V30 384 N 35.4744 -0.807222 -1.35358 0
M  V30 385 C 36.7514 -0.311126 -1.9311 0
M  V30 386 C 37.1314 1.19937 -1.73719 0
M  V30 387 O 36.4794 1.99918 -1.10657 0
M  V30 388 C 36.6894 -0.723226 -3.41424 0
M  V30 389 C 38.0374 -0.713078 -4.18569 0
M  V30 390 O 39.0614 -0.664811 -3.49941 0
M  V30 391 O 37.9204 -0.772022 -5.41019 0
M  V30 392 H 35.0144 -0.081526 -0.822972 0
M  V30 393 H 37.5604 -0.890962 -1.4443 0
M  V30 394 H 36.3324 -1.76426 -3.4927 0
M  V30 395 H 35.9554 -0.118232 -3.97424 0
M  V30 396 N 36.9525 1.47285 -0.560781 0
M  V30 397 C 38.2015 2.01668 -0.035895 0
M  V30 398 C 38.5145 1.44021 1.32353 0
M  V30 399 O 39.7205 1.90088 1.93853 0
M  V30 400 C 38.1765 3.59897 -0.0136659 0
M  V30 401 C 37.7845 4.26536 -1.37006 0
M  V30 402 C 39.5285 4.22017 0.458425 0
M  V30 403 C 37.4355 5.76782 -1.30675 0
M  V30 404 H 36.3655 0.753938 -0.00964879 0
M  V30 405 H 39.0165 1.69243 -0.709166 0
M  V30 406 H 37.3985 3.89301 0.725325 0
M  V30 407 H 38.5725 4.0877 -2.12705 0
M  V30 408 H 36.8875 3.76419 -1.78038 0
M  V30 409 H 39.4845 5.32124 0.524247 0
M  V30 410 H 39.8275 3.89437 1.4712 0
M  V30 411 H 40.3605 3.97159 -0.225818 0
M  V30 412 H 37.0995 6.13988 -2.29564 0
M  V30 413 H 36.6195 5.96875 -0.591622 0
M  V30 414 H 38.2985 6.39063 -1.01033 0
M  V30 415 N 38.4306 0.297415 1.54768 0
M  V30 416 C 39.3786 -0.596051 2.24833 0
M  V30 417 C 40.3726 -1.13992 1.25308 0
M  V30 418 O 41.5786 -1.09098 1.4317 0
M  V30 419 H 37.9536 -0.210814 0.721846 0
M  V30 420 H 39.9246 0.0174667 2.98395 0
M  V30 421 C 38.6736 -1.75818 2.99972 0
M  V30 422 H 37.9966 -1.3489 3.76357 0
M  V30 423 H 39.4366 -2.35949 3.52284 0
M  V30 424 C 37.8956 -2.66014 2.06732 0
M  V30 425 O 38.4256 -3.67009 1.63302 0
M  V30 426 N 36.6316 -2.33669 1.72763 0
M  V30 427 H 36.1786 -1.51586 2.08277 0
M  V30 428 H 36.1366 -2.94285 1.10652 0
M  V30 429 N 39.9087 -1.5758 0.0250728 0
M  V30 430 C 41.1857 -1.82917 -0.692873 0
M  V30 431 C 41.5657 -0.908137 -1.90568 0
M  V30 432 O 40.9137 0.0372298 -2.2847 0
M  V30 433 C 41.1237 -3.32034 -1.07492 0
M  V30 434 C 42.4717 -3.98406 -1.46826 0
M  V30 435 O 43.4957 -3.36505 -1.16801 0
M  V30 436 O 42.3547 -5.07497 -2.02754 0
M  V30 437 H 39.4487 -0.754079 -0.33955 0
M  V30 438 H 41.9947 -1.69619 0.0524456 0
M  V30 439 H 40.7667 -3.90728 -0.211552 0
M  V30 440 H 40.3897 -3.50424 -1.87854 0
M  V30 441 N 41.3868 0.248026 -1.55636 0
M  V30 442 C 42.3348 1.32683 -1.91045 0
M  V30 443 C 43.3288 1.49883 -0.789401 0
M  V30 444 O 44.5348 1.51371 -0.974007 0
M  V30 445 H 40.9098 0.444272 -0.606734 0
M  V30 446 H 42.8808 1.00085 -2.81115 0
M  V30 447 C 41.6298 2.6755 -2.22064 0
M  V30 448 H 40.9528 2.55114 -3.07826 0
M  V30 449 H 42.3928 3.41912 -2.50743 0
M  V30 450 C 40.8518 3.20556 -1.0366 0
M  V30 451 O 41.3818 4.00695 -0.284016 0
M  V30 452 N 39.5878 2.78568 -0.82753 0
M  V30 453 H 39.1348 2.1351 -1.44123 0
M  V30 454 H 39.0928 3.14378 -0.0369803 0
M  V30 455 N 42.8649 1.48995 0.513639 0
M  V30 456 C 44.2759 1.5119 1.09537 0
M  V30 457 C 44.6269 0.290906 1.94031 0
M  V30 458 O 43.7519 -0.60049 2.07902 0
M  V30 459 C 44.3469 2.73964 1.99322 0
M  V30 460 C 42.9059 2.78978 2.52682 0
M  V30 461 C 42.0529 2.44934 1.30009 0
M  V30 462 H 45.0039 1.55875 0.298125 0
M  V30 463 H 45.0249 2.53409 2.83838 0
M  V30 464 H 44.5369 3.62813 1.37799 0
M  V30 465 H 42.6379 1.94378 3.1788 0
M  V30 466 H 42.7509 3.8083 2.90698 0
M  V30 467 H 41.1149 1.9644 1.62122 0
M  V30 468 H 41.8979 3.36043 0.702131 0
M  V30 469 N 44.343 -0.763751 1.37857 0
M  V30 470 C 45.754 -1.3405 1.29952 0
M  V30 471 C 46.105 -1.96138 -0.0492898 0
M  V30 472 O 45.23 -1.94372 -0.951239 0
M  V30 473 C 45.825 -2.43729 2.35333 0
M  V30 474 C 44.384 -2.97151 2.31037 0
M  V30 475 C 43.531 -1.70438 2.18738 0
M  V30 476 H 46.482 -0.563396 1.48363 0
M  V30 477 H 46.503 -3.23412 2.00462 0
M  V30 478 H 46.015 -1.9851 3.33489 0
M  V30 479 H 44.116 -3.46724 1.3643 0
M  V30 480 H 44.229 -3.52221 3.24772 0
M  V30 481 H 42.593 -1.93673 1.65418 0
M  V30 482 H 43.376 -1.27312 3.18821 0
M  V30 483 N 45.8211 -1.22559 -0.990812 0
M  V30 484 C 46.7311 -1.01394 -2.11557 0
M  V30 485 C 47.7471 0.0383962 -1.73958 0
M  V30 486 O 48.9231 -0.154787 -2.00804 0
M  V30 487 C 45.9881 -0.596569 -3.41529 0
M  V30 488 C 45.0491 -1.72276 -3.93217 0
M  V30 489 C 44.2821 -1.32521 -5.16985 0
M  V30 490 O 44.5051 -0.204909 -5.70032 0
M  V30 491 O 43.4391 -2.14247 -5.62478 0
M  V30 492 H 47.2651 -1.95633 -2.32296 0
M  V30 493 H 44.8501 -1.01172 -1.0993 0
M  V30 494 H 46.7321 -0.374263 -4.19735 0
M  V30 495 H 45.4071 0.316939 -3.22145 0
M  V30 496 H 44.3141 -1.99961 -3.16174 0
M  V30 497 H 45.6471 -2.61421 -4.17037 0
M  V30 498 N 47.2992 1.18797 -1.03562 0
M  V30 499 C 48.5462 1.8865 -0.736023 0
M  V30 500 C 48.8742 1.80041 0.735889 0
M  V30 501 O 48.1292 1.19179 1.55225 0
M  V30 502 C 48.4282 3.38692 -1.14117 0
M  V30 503 C 48.0942 3.67504 -2.6125 0
M  V30 504 C 46.7562 3.75078 -3.01447 0
M  V30 505 C 49.1082 3.80293 -3.56408 0
M  V30 506 C 46.4362 3.92915 -4.35701 0
M  V30 507 C 48.7882 3.99645 -4.90374 0
M  V30 508 C 47.4522 4.05453 -5.30249 0
M  V30 509 H 46.7222 0.690321 -0.26933 0
M  V30 510 H 49.3692 1.40641 -1.29971 0
M  V30 511 H 47.6742 3.88645 -0.496202 0
M  V30 512 H 49.3712 3.91072 -0.886789 0
M  V30 513 H 45.9612 3.62223 -2.29113 0
M  V30 514 H 50.1452 3.73779 -3.26501 0
M  V30 515 H 45.4012 3.95653 -4.66121 0
M  V30 516 H 49.5752 4.08482 -5.64017 0
M  V30 517 H 47.2022 4.19027 -6.34288 0
M  V30 518 N 48.7773 0.814389 1.34928 0
M  V30 519 C 49.7073 0.244827 2.32213 0
M  V30 520 C 50.6883 -0.634024 1.57842 0
M  V30 521 O 51.8733 -0.562676 1.8587 0
M  V30 522 C 49.0033 -0.601106 3.42058 0
M  V30 523 C 47.9573 0.179896 4.27622 0
M  V30 524 C 47.2833 -0.788237 5.28858 0
M  V30 525 C 48.5833 1.38329 5.03649 0
M  V30 526 H 50.2773 1.05763 2.80097 0
M  V30 527 H 47.8233 0.510029 1.34665 0
M  V30 528 H 49.7763 -1.00968 4.09125 0
M  V30 529 H 48.5003 -1.44688 2.92802 0
M  V30 530 H 47.1593 0.569739 3.62146 0
M  V30 531 H 46.8073 -1.62973 4.75866 0
M  V30 532 H 46.5073 -0.269942 5.8698 0
M  V30 533 H 48.0313 -1.19485 5.98795 0
M  V30 534 H 49.4453 1.04918 5.63618 0
M  V30 535 H 47.8423 1.83662 5.71304 0
M  V30 536 H 48.9123 2.16592 4.33839 0
M  V30 537 N 50.2554 -1.46986 0.568584 0
M  V30 538 C 51.2054 -2.27179 -0.193339 0
M  V30 539 C 52.1894 -1.35035 -0.874895 0
M  V30 540 O 53.3814 -1.5931 -0.771322 0
M  V30 541 C 50.5104 -3.21063 -1.21546 0
M  V30 542 C 49.5964 -4.2069 -0.536738 0
M  V30 543 N 49.9874 -5.04218 0.399673 0
M  V30 544 C 48.2854 -4.38961 -0.789254 0
M  V30 545 C 48.9864 -5.76242 0.795017 0
M  V30 546 N 47.9624 -5.434 0.1473 0
M  V30 547 H 51.7644 -2.89146 0.526458 0
M  V30 548 H 49.2784 -1.57664 0.389342 0
M  V30 549 H 51.2754 -3.77209 -1.77536 0
M  V30 550 H 49.9354 -2.60654 -1.93623 0
M  V30 551 H 50.9464 -5.12077 0.774454 0
M  V30 552 H 47.6234 -3.89713 -1.49767 0
M  V30 553 H 49.0134 -6.53417 1.56513 0
M  V30 554 N 51.7335 -0.305618 -1.54608 0
M  V30 555 C 52.6435 0.57778 -2.27374 0
M  V30 556 C 53.6595 1.14451 -1.31061 0
M  V30 557 O 54.8355 1.16831 -1.6405 0
M  V30 558 C 51.9005 1.73123 -3.00382 0
M  V30 559 C 50.9615 1.19812 -4.12242 0
M  V30 560 C 50.1945 2.2966 -4.81759 0
M  V30 561 O 50.4175 3.49651 -4.50666 0
M  V30 562 O 49.3515 1.96091 -5.69062 0
M  V30 563 H 53.1775 -0.012624 -3.03697 0
M  V30 564 H 50.7625 -0.0719184 -1.49227 0
M  V30 565 H 52.6445 2.40315 -3.4616 0
M  V30 566 H 51.3195 2.30815 -2.26949 0
M  V30 567 H 50.2265 0.491798 -3.70853 0
M  V30 568 H 51.5595 0.666566 -4.87666 0
M  V30 569 N 53.2116 1.57565 -0.0334293 0
M  V30 570 C 54.4396 1.9628 0.654347 0
M  V30 571 C 54.8546 0.910138 1.65414 0
M  V30 572 O 54.2116 -0.107595 1.82183 0
M  V30 573 C 54.2626 3.35067 1.35693 0
M  V30 574 O 53.9836 4.36296 0.397191 0
M  V30 575 C 55.4846 3.88439 2.13613 0
M  V30 576 H 52.7046 0.646369 0.180132 0
M  V30 577 H 55.2486 2.04282 -0.0944721 0
M  V30 578 H 53.4036 3.2827 2.05712 0
M  V30 579 H 53.8176 5.1678 0.896597 0
M  V30 580 H 55.2916 4.8788 2.58219 0
M  V30 581 H 55.7686 3.22914 2.97696 0
M  V30 582 H 56.3746 3.98516 1.48543 0
M  V30 583 N 54.6897 -0.239769 1.55765 0
M  V30 584 C 55.9197 -0.982743 1.8173 0
M  V30 585 C 56.3277 -1.7917 0.607835 0
M  V30 586 O 55.6707 -1.78525 -0.432973 0
M  V30 587 C 55.7327 -1.96332 3.01155 0
M  V30 588 C 55.3967 -1.34062 4.36894 0
M  V30 589 C 56.3937 -0.739539 5.14613 0
M  V30 590 C 54.0787 -1.35784 4.83599 0
M  V30 591 C 56.0727 -0.163989 6.37189 0
M  V30 592 C 53.7597 -0.778441 6.06122 0
M  V30 593 C 54.7577 -0.182548 6.82756 0
M  V30 594 O 54.4457 0.387887 8.02964 0
M  V30 595 H 54.1777 -0.294481 0.608487 0
M  V30 596 H 56.7317 -0.26572 2.03674 0
M  V30 597 H 54.9617 -2.71884 2.74984 0
M  V30 598 H 56.6507 -2.57032 3.14149 0
M  V30 599 H 57.4167 -0.718687 4.79646 0
M  V30 600 H 53.2957 -1.81105 4.23936 0
M  V30 601 H 56.8397 0.301753 6.96947 0
M  V30 602 H 52.7367 -0.796645 6.40565 0
M  V30 603 H 53.5047 0.28044 8.18019 0
M  V30 604 N 56.1678 -1.49265 -0.50573 0
M  V30 605 C 57.1178 -1.6198 -1.60457 0
M  V30 606 C 58.1018 -0.47568 -1.53708 0
M  V30 607 O 59.2938 -0.728392 -1.61318 0
M  V30 608 C 56.4228 -1.68526 -2.99089 0
M  V30 609 C 55.5088 -2.885 -3.10852 0
M  V30 610 N 55.8998 -4.12635 -2.92517 0
M  V30 611 C 54.1978 -2.86338 -3.41945 0
M  V30 612 C 54.8988 -4.93258 -3.08337 0
M  V30 613 N 53.8748 -4.26533 -3.37003 0
M  V30 614 H 57.6768 -2.55681 -1.44928 0
M  V30 615 H 55.1908 -1.45972 -0.711752 0
M  V30 616 H 57.1878 -1.75732 -3.78053 0
M  V30 617 H 55.8478 -0.759584 -3.1569 0
M  V30 618 H 56.8588 -4.42689 -2.68787 0
M  V30 619 H 53.5358 -2.03129 -3.64753 0
M  V30 620 H 54.9258 -6.01856 -2.98695 0
M  V30 621 N 57.6459 0.756429 -1.3826 0
M  V30 622 C 58.6089 1.85176 -1.35065 0
M  V30 623 C 59.6089 1.58818 -0.251703 0
M  V30 624 O 60.7989 1.66615 -0.508433 0
M  V30 625 C 57.9309 3.22596 -1.10201 0
M  V30 626 H 59.1239 1.89417 -2.3251 0
M  V30 627 H 56.6769 0.95783 -1.23512 0
M  V30 628 H 57.4119 3.24025 -0.133504 0
M  V30 629 H 57.1969 3.43122 -1.89762 0
M  V30 630 H 58.6869 4.02673 -1.10654 0
M  V30 631 N 59.124 1.23083 0.984299 0
M  V30 632 C 60.072 1.00593 2.09723 0
M  V30 633 C 61.066 -0.0538014 1.69315 0
M  V30 634 O 62.272 0.0993719 1.79725 0
M  V30 635 H 58.647 0.30817 0.685956 0
M  V30 636 H 60.618 1.95012 2.2586 0
M  V30 637 C 59.367 0.609601 3.42314 0
M  V30 638 H 58.69 1.41675 3.73856 0
M  V30 639 H 60.13 0.491726 4.21139 0
M  V30 640 C 58.589 -0.681745 3.2993 0
M  V30 641 O 59.119 -1.73192 3.62446 0
M  V30 642 N 57.325 -0.656178 2.83095 0
M  V30 643 H 56.872 0.198759 2.56832 0
M  V30 644 H 56.83 -1.52044 2.75191 0
M  V30 645 N 60.6021 -1.18246 1.0419 0
M  V30 646 C 61.8481 -1.88536 0.747122 0
M  V30 647 C 62.1811 -1.80223 -0.723409 0
M  V30 648 O 61.4561 -1.20337 -1.52804 0
M  V30 649 C 61.7391 -3.38968 1.21544 0
M  V30 650 C 61.5921 -3.56084 2.74816 0
M  V30 651 C 62.9111 -4.32648 0.806482 0
M  V30 652 H 60.0301 -0.684619 0.272883 0
M  V30 653 H 62.6721 -1.39113 1.29413 0
M  V30 654 H 60.8221 -3.8119 0.750081 0
M  V30 655 H 62.4941 -3.22946 3.29399 0
M  V30 656 H 60.7371 -2.98699 3.14582 0
M  V30 657 H 61.4081 -4.61639 3.02644 0
M  V30 658 H 63.8841 -3.98211 1.20695 0
M  V30 659 H 62.7601 -5.36462 1.1619 0
M  V30 660 H 63.0211 -4.41146 -0.29029 0
M  V30 661 N 62.0802 -0.821533 -1.34494 0
M  V30 662 C 63.4912 -0.467956 -1.8074 0
M  V30 663 C 63.8422 1.01151 -1.68116 0
M  V30 664 O 62.9672 1.78707 -1.22036 0
M  V30 665 C 63.5622 -0.842627 -3.28154 0
M  V30 666 C 62.1212 -0.541439 -3.72485 0
M  V30 667 C 61.2682 -1.06028 -2.56229 0
M  V30 668 H 64.2192 -1.01183 -1.22261 0
M  V30 669 H 64.2402 -0.145876 -3.8022 0
M  V30 670 H 63.7522 -1.91945 -3.37311 0
M  V30 671 H 61.8532 0.526034 -3.68868 0
M  V30 672 H 61.9662 -1.08453 -4.66663 0
M  V30 673 H 60.3302 -0.481892 -2.501 0
M  V30 674 H 61.1132 -2.14352 -2.68157 0
M  V30 675 N 63.5583 1.46682 -0.576371 0
M  V30 676 C 64.4683 2.34032 0.163141 0
M  V30 677 C 65.4843 1.49367 0.892501 0
M  V30 678 O 66.6603 1.82252 0.857106 0
M  V30 679 C 63.7253 3.26435 1.16795 0
M  V30 680 C 62.7863 4.26998 0.443944 0
M  V30 681 C 62.0193 5.14986 1.40088 0
M  V30 682 O 62.2423 5.05785 2.637 0
M  V30 683 O 61.1763 5.94906 0.914917 0
M  V30 684 H 65.0023 2.98607 -0.55388 0
M  V30 685 H 62.5873 1.45554 -0.336821 0
M  V30 686 H 64.4693 3.83459 1.74748 0
M  V30 687 H 63.1443 2.64465 1.86655 0
M  V30 688 H 62.0513 3.7368 -0.177271 0
M  V30 689 H 63.3843 4.91736 -0.213566 0
M  V30 690 N 65.0364 0.313813 1.54444 0
M  V30 691 C 66.4524 -0.0391619 1.59552 0
M  V30 692 C 66.6524 -1.51322 1.33056 0
M  V30 693 O 65.7084 -2.26782 1.11022 0
M  V30 694 C 67.0214 0.370302 2.98411 0
M  V30 695 C 68.5694 0.320139 3.11358 0
M  V30 696 C 69.0444 0.704617 4.52547 0
M  V30 697 N 70.5354 0.657645 4.58508 0
M  V30 698 C 71.2704 0.927453 5.6585 0
M  V30 699 N 70.7664 1.26389 6.81174 0
M  V30 700 N 72.5594 0.853662 5.5558 0
M  V30 701 H 64.7104 1.27433 1.69925 0
M  V30 702 H 66.9734 0.517511 0.794284 0
M  V30 703 H 66.6794 1.39694 3.22767 0
M  V30 704 H 66.5534 -0.269619 3.76235 0
M  V30 705 H 68.9404 -0.697275 2.86744 0
M  V30 706 H 69.0214 0.99486 2.35661 0
M  V30 707 H 68.6654 1.7199 4.77893 0
M  V30 708 H 68.5954 0.00768843 5.26599 0
M  V30 709 H 71.0864 0.409067 3.75679 0
M  V30 710 H 71.3994 1.4554 7.58972 0
M  V30 711 H 69.7444 1.30206 6.82694 0
M  V30 712 H 72.9354 0.590383 4.64362 0
M  V30 713 H 73.1084 1.0673 6.3915 0
M  V30 714 N 66.5145 -1.57545 0.0417849 0
M  V30 715 C 67.7395 -1.97035 -0.647455 0
M  V30 716 C 68.1645 -0.918775 -1.64135 0
M  V30 717 O 67.5225 0.119006 -1.80909 0
M  V30 718 C 67.5705 -3.35609 -1.31905 0
M  V30 719 O 66.6745 -3.3287 -2.43457 0
M  V30 720 H 66.0155 -0.64211 -0.169086 0
M  V30 721 H 68.5455 -2.04318 0.107399 0
M  V30 722 H 68.5555 -3.72126 -1.67291 0
M  V30 723 H 67.2305 -4.11685 -0.590586 0
M  V30 724 H 65.8075 -3.08087 -2.10088 0
M  V30 725 N 67.9926 0.231505 -1.5589 0
M  V30 726 C 68.9406 1.30649 -1.92441 0
M  V30 727 C 69.9346 1.49037 -0.805254 0
M  V30 728 O 71.1406 1.50329 -0.990007 0
M  V30 729 H 67.5156 0.437812 -0.611412 0
M  V30 730 H 69.4866 0.970973 -2.82161 0
M  V30 731 C 68.2356 2.65179 -2.24889 0
M  V30 732 H 67.5586 2.51835 -3.10514 0
M  V30 733 H 68.9986 3.39234 -2.54355 0
M  V30 734 C 67.4576 3.19439 -1.07054 0
M  V30 735 O 67.9876 4.00371 -0.326499 0
M  V30 736 N 66.1936 2.77675 -0.85703 0
M  V30 737 H 65.7406 2.11969 -1.46379 0
M  V30 738 H 65.6986 3.14321 -0.0703223 0
M  V30 739 N 69.4707 1.49531 0.497807 0
M  V30 740 C 70.7167 1.59415 1.25358 0
M  V30 741 C 71.0497 0.281422 1.9215 0
M  V30 742 O 70.3247 -0.715249 1.80871 0
M  V30 743 C 70.6077 2.75566 2.3181 0
M  V30 744 C 70.4607 4.16642 1.69498 0
M  V30 745 C 71.7797 2.87347 3.33346 0
M  V30 746 H 68.8987 0.580244 0.454408 0
M  V30 747 H 71.5407 1.81827 0.551262 0
M  V30 748 H 69.6907 2.56587 2.91711 0
M  V30 749 H 71.3627 4.47145 1.13399 0
M  V30 750 H 69.6057 4.22141 0.998978 0
M  V30 751 H 70.2767 4.93792 2.46725 0
M  V30 752 H 72.7527 3.04634 2.83438 0
M  V30 753 H 71.6287 3.70289 4.05188 0
M  V30 754 H 71.8897 1.96834 3.95865 0
M  V30 755 N 70.9488 -0.749086 1.3866 0
M  V30 756 C 72.1968 -1.50535 1.34847 0
M  V30 757 C 72.5178 -1.94909 -0.0595016 0
M  V30 758 O 71.7878 -1.67973 -1.00806 0
M  V30 759 H 70.3678 -0.558395 0.49619 0
M  V30 760 H 73.0298 -0.890165 1.73384 0
M  V30 761 H 72.1258 -2.39413 2.00219 0
M  V30 762 N 72.4269 -1.23603 -0.977757 0
M  V30 763 C 73.6549 -1.09646 -1.75458 0
M  V30 764 C 74.0699 0.351859 -1.85492 0
M  V30 765 O 73.4269 1.24327 -1.336 0
M  V30 766 C 73.4779 -1.71895 -3.18016 0
M  V30 767 O 73.1989 -3.11063 -3.08498 0
M  V30 768 C 74.6999 -1.63415 -4.12081 0
M  V30 769 H 71.9199 -0.38359 -0.550545 0
M  V30 770 H 74.4639 -1.63507 -1.22824 0
M  V30 771 H 72.6189 -1.22061 -3.67668 0
M  V30 772 H 73.0329 -3.41305 -3.9826 0
M  V30 773 H 74.5069 -2.11669 -5.09804 0
M  V30 774 H 74.9839 -0.593462 -4.35172 0
M  V30 775 H 75.5899 -2.12628 -3.68334 0
M  V30 776 N 73.905 1.17692 -1.04816 0
M  V30 777 C 75.13 1.92327 -0.776207 0
M  V30 778 C 75.555 1.76082 0.661581 0
M  V30 779 O 74.913 1.076 1.45917 0
M  V30 780 C 74.961 3.41539 -1.15687 0
M  V30 781 O 74.065 4.11402 -0.286775 0
M  V30 782 H 73.406 0.599735 -0.284981 0
M  V30 783 H 75.936 1.49201 -1.4 0
M  V30 784 H 75.946 3.92269 -1.12202 0
M  V30 785 H 74.621 3.52684 -2.20425 0
M  V30 786 H 73.198 3.70939 -0.381903 0
M  V30 787 N 75.3831 0.828654 1.34056 0
M  V30 788 C 76.6291 0.42008 1.98402 0
M  V30 789 C 76.9621 -1.01564 1.65525 0
M  V30 790 O 76.2371 -1.70834 0.929831 0
M  V30 791 C 76.5201 0.62927 3.54559 0
M  V30 792 C 76.3731 2.11152 3.97159 0
M  V30 793 C 77.6921 0.0688756 4.40046 0
M  V30 794 H 74.8111 0.154104 0.720709 0
M  V30 795 H 77.4531 1.04228 1.5886 0
M  V30 796 H 75.6031 0.0996418 3.88372 0
M  V30 797 H 77.2751 2.70522 3.73651 0
M  V30 798 H 75.5181 2.59985 3.47261 0
M  V30 799 H 76.1891 2.20868 5.05887 0
M  V30 800 H 78.6651 0.521458 4.1282 0
M  V30 801 H 77.5411 0.245006 5.48353 0
M  V30 802 H 77.8021 -1.0266 4.30015 0
M  V30 803 N 76.8612 -1.46375 0.584142 0
M  V30 804 C 78.1102 -2.01585 0.0679741 0
M  V30 805 C 78.4232 -1.46109 -1.30045 0
M  V30 806 O 79.6292 -1.93148 -1.90804 0
M  V30 807 C 78.0852 -3.5983 0.0709207 0
M  V30 808 C 77.6932 -4.24303 1.43775 0
M  V30 809 C 79.4372 -4.22693 -0.391228 0
M  V30 810 C 77.3442 -5.74631 1.39834 0
M  V30 811 H 76.2742 -0.753689 0.0216421 0
M  V30 812 H 78.9252 -1.68093 0.736001 0
M  V30 813 H 77.3072 -3.90405 -0.663299 0
M  V30 814 H 78.4812 -4.05335 2.19181 0
M  V30 815 H 76.7962 -3.73539 1.84004 0
M  V30 816 H 79.3932 -5.3289 -0.439524 0
M  V30 817 H 79.7362 -3.91728 -1.40906 0
M  V30 818 H 80.2692 -3.96749 0.288974 0
M  V30 819 H 77.0082 -6.10258 2.39303 0
M  V30 820 H 76.5282 -5.95858 0.686505 0
M  V30 821 H 78.2072 -6.37375 1.11187 0
M  V30 822 N 78.3393 -0.321999 -1.54275 0
M  V30 823 C 79.2713 0.578671 -2.21775 0
M  V30 824 C 80.2843 1.08109 -1.21722 0
M  V30 825 O 81.4733 0.994938 -1.482 0
M  V30 826 C 78.5733 1.80661 -2.86731 0
M  V30 827 C 77.7463 1.44314 -4.12907 0
M  V30 828 C 76.8053 2.52845 -4.61472 0
M  V30 829 O 75.8313 2.17054 -5.2619 0
M  V30 830 N 77.0333 3.83748 -4.35566 0
M  V30 831 H 79.7983 0.000709447 -2.997 0
M  V30 832 H 77.3593 -0.145132 -1.61248 0
M  V30 833 H 79.3513 2.52655 -3.16145 0
M  V30 834 H 77.9213 2.29245 -2.12521 0
M  V30 835 H 77.1413 0.554906 -3.90275 0
M  V30 836 H 78.4293 1.17598 -4.95023 0
M  V30 837 H 77.8273 4.15625 -3.83761 0
M  V30 838 H 76.3843 4.51977 -4.69638 0
M  V30 839 N 79.8174 1.5752 -0.0501392 0
M  V30 840 C 81.0634 1.92936 0.624798 0
M  V30 841 C 81.3964 0.928685 1.70555 0
M  V30 842 O 80.6714 -0.0454779 1.94447 0
M  V30 843 C 80.9544 3.38737 1.22185 0
M  V30 844 C 80.8074 4.49552 0.149218 0
M  V30 845 C 82.1264 3.84913 2.13378 0
M  V30 846 H 79.2454 0.701604 0.225657 0
M  V30 847 H 81.8874 1.89671 -0.111693 0
M  V30 848 H 80.0374 3.4165 1.84953 0
M  V30 849 H 81.7094 4.58768 -0.482648 0
M  V30 850 H 79.9524 4.30638 -0.522841 0
M  V30 851 H 80.6234 5.48653 0.606966 0
M  V30 852 H 83.0994 3.8387 1.60572 0
M  V30 853 H 81.9754 4.87584 2.52097 0
M  V30 854 H 82.2364 3.21611 3.03346 0
M  V30 855 N 81.2955 -0.223234 1.56011 0
M  V30 856 C 82.5235 -0.964812 1.83027 0
M  V30 857 C 82.9385 -1.78013 0.62904 0
M  V30 858 O 82.2955 -1.78008 -0.402414 0
M  V30 859 C 82.3465 -1.88373 3.08542 0
M  V30 860 O 82.0675 -1.10137 4.2403 0
M  V30 861 C 83.5685 -2.73934 3.48533 0
M  V30 862 H 80.7885 -0.282842 0.608475 0
M  V30 863 H 83.3325 -0.238971 2.03099 0
M  V30 864 H 81.4875 -2.56354 2.9045 0
M  V30 865 H 81.9015 -1.72501 4.95322 0
M  V30 866 H 83.3755 -3.34117 4.39397 0
M  V30 867 H 83.8525 -3.46244 2.70207 0
M  V30 868 H 84.4585 -2.11369 3.69057 0
M  V30 869 N 82.7736 -1.49793 -0.48987 0
M  V30 870 C 83.7366 -1.66752 -1.57246 0
M  V30 871 C 84.7366 -0.538867 -1.51502 0
M  V30 872 O 85.9266 -0.805545 -1.54456 0
M  V30 873 C 83.0586 -1.67528 -2.96896 0
M  V30 874 H 84.2516 -2.63321 -1.43534 0
M  V30 875 H 81.8046 -1.38992 -0.714914 0
M  V30 876 H 82.5396 -0.725837 -3.16073 0
M  V30 877 H 82.3246 -2.49504 -3.02473 0
M  V30 878 H 83.8146 -1.82667 -3.7553 0
M  V30 879 N 84.2517 0.741722 -1.39055 0
M  V30 880 C 85.4767 1.53607 -1.39354 0
M  V30 881 C 85.9017 1.88096 0.0116905 0
M  V30 882 O 85.2597 1.5143 0.996924 0
M  V30 883 C 85.3077 2.80441 -2.26682 0
M  V30 884 O 84.4117 3.76088 -1.69208 0
M  V30 885 H 83.7527 0.464142 -0.474835 0
M  V30 886 H 86.2827 0.915665 -1.82967 0
M  V30 887 H 86.2927 3.29246 -2.40959 0
M  V30 888 H 84.9677 2.5467 -3.2881 0
M  V30 889 H 83.5447 3.34833 -1.64138 0
M  V30 890 N 85.7298 1.2412 0.971189 0
M  V30 891 C 87.0068 0.986867 1.6888 0
M  V30 892 C 87.3868 -0.491857 2.0529 0
M  V30 893 O 86.7348 -1.46531 1.75331 0
M  V30 894 C 86.9448 1.9063 2.92338 0
M  V30 895 C 88.2928 2.17515 3.64654 0
M  V30 896 O 89.3168 1.88254 3.02388 0
M  V30 897 O 88.1758 2.6719 4.7673 0
M  V30 898 H 85.2698 0.372944 0.738134 0
M  V30 899 H 87.8158 1.35203 1.02559 0
M  V30 900 H 86.5878 2.90552 2.62097 0
M  V30 901 H 86.2108 1.54408 3.66393 0
M  V30 902 N 87.2079 -1.17134 1.05439 0
M  V30 903 C 88.1709 -2.19439 0.661764 0
M  V30 904 C 89.1709 -1.58199 -0.288042 0
M  V30 905 O 90.3609 -1.74053 -0.0715803 0
M  V30 906 C 87.4929 -3.40889 -0.0276209 0
M  V30 907 H 88.6859 -2.55688 1.56728 0
M  V30 908 H 86.2389 -1.31259 0.848567 0
M  V30 909 H 86.9739 -3.10187 -0.94629 0
M  V30 910 H 86.7589 -3.86586 0.655238 0
M  V30 911 H 88.2489 -4.16603 -0.288342 0
M  V30 912 N 88.686 -0.835752 -1.33615 0
M  V30 913 C 89.963 -0.352017 -1.92406 0
M  V30 914 C 90.343 1.16225 -1.76224 0
M  V30 915 O 89.691 1.97526 -1.14873 0
M  V30 916 C 89.901 -0.795485 -3.39813 0
M  V30 917 C 91.249 -0.801703 -4.16963 0
M  V30 918 O 92.273 -0.738889 -3.48452 0
M  V30 919 O 91.132 -0.886607 -5.3926 0
M  V30 920 H 88.226 -0.0989641 -0.821057 0
M  V30 921 H 90.772 -0.921397 -1.42507 0
M  V30 922 H 89.544 -1.83795 -3.45449 0
M  V30 923 H 89.167 -0.202505 -3.97084 0
M  V30 924 N 90.1641 1.46063 -0.591896 0
M  V30 925 C 91.4411 1.95595 -0.0137119 0
M  V30 926 C 91.8211 1.5345 1.4497 0
M  V30 927 O 91.1691 0.789543 2.14426 0
M  V30 928 C 91.3791 3.48453 -0.195373 0
M  V30 929 C 92.7271 4.24546 -0.0679765 0
M  V30 930 O 93.7511 3.55982 -0.124681 0
M  V30 931 O 92.6101 5.46467 0.0600579 0
M  V30 932 H 89.7041 0.825795 0.0446279 0
M  V30 933 H 92.2501 1.56303 -0.660859 0
M  V30 934 H 91.0221 3.72045 -1.21235 0
M  V30 935 H 90.6451 3.94597 0.487775 0
M  V30 936 N 91.6422 0.330177 1.54103 0
M  V30 937 C 93.0532 -0.15652 1.86043 0
M  V30 938 C 93.4042 -1.51086 1.2517 0
M  V30 939 O 92.5292 -2.09023 0.560217 0
M  V30 940 C 93.1242 -0.290784 3.3755 0
M  V30 941 C 91.6832 -0.721705 3.69416 0
M  V30 942 C 90.8302 0.152622 2.7688 0
M  V30 943 H 93.7812 0.550237 1.48856 0
M  V30 944 H 93.8022 -1.12058 3.63625 0
M  V30 945 H 93.3142 0.695068 3.81825 0
M  V30 946 H 91.4152 -1.71706 3.30678 0
M  V30 947 H 91.5282 -0.520869 4.7626 0
M  V30 948 H 89.8922 -0.372894 2.51956 0
M  V30 949 H 90.6752 1.13536 3.23982 0
M  V30 950 N 93.1203 -1.57491 0.0584922 0
M  V30 951 C 94.3483 -1.97296 -0.623037 0
M  V30 952 C 94.7633 -0.936338 -1.63946 0
M  V30 953 O 94.1203 0.0785981 -1.82331 0
M  V30 954 C 94.1713 -3.37183 -1.30345 0
M  V30 955 O 93.8923 -4.36872 -0.32773 0
M  V30 956 C 95.3933 -3.91788 -2.07406 0
M  V30 957 H 92.6133 -0.649153 -0.169826 0
M  V30 958 H 95.1573 -2.04106 0.12696 0
M  V30 959 H 93.3123 -3.31502 -2.00463 0
M  V30 960 H 93.7263 -5.18141 -0.814269 0
M  V30 961 H 95.2003 -4.91926 -2.50425 0
M  V30 962 H 95.6773 -3.27609 -2.92521 0
M  V30 963 H 96.2833 -4.00829 -1.42184 0
M  V30 964 N 94.5984 0.214957 -1.56127 0
M  V30 965 C 95.8284 0.953707 -1.8327 0
M  V30 966 C 96.2364 1.78181 -0.636262 0
M  V30 967 O 95.5794 1.79191 0.404516 0
M  V30 968 C 95.6414 1.91516 -3.0424 0
M  V30 969 C 95.3054 1.27094 -4.38972 0
M  V30 970 C 96.3024 0.657575 -5.15725 0
M  V30 971 C 93.9874 1.28073 -4.85698 0
M  V30 972 C 95.9814 0.0625968 -6.37369 0
M  V30 973 C 93.6684 0.681914 -6.07283 0
M  V30 974 C 94.6664 0.0739046 -6.8296 0
M  V30 975 O 94.3544 -0.515582 -8.02245 0
M  V30 976 H 94.0864 0.284764 -0.613095 0
M  V30 977 H 96.6404 0.233283 -2.04071 0
M  V30 978 H 94.8704 2.67475 -2.79274 0
M  V30 979 H 96.5594 2.52001 -3.18198 0
M  V30 980 H 97.3254 0.642288 -4.80728 0
M  V30 981 H 93.2044 1.74337 -4.26764 0
M  V30 982 H 96.7484 -0.412593 -6.96379 0
M  V30 983 H 92.6454 0.694636 -6.41752 0
M  V30 984 H 93.4134 -0.410544 -8.1747 0
M  V30 985 N 96.0765 1.50051 0.48192 0
M  V30 986 C 97.3245 1.60181 1.23234 0
M  V30 987 C 97.6455 0.299176 1.92691 0
M  V30 988 O 96.9155 -0.682708 1.83619 0
M  V30 989 H 95.4955 0.590232 0.457859 0
M  V30 990 H 98.1575 1.86775 0.556881 0
M  V30 991 H 97.2535 2.40753 1.98607 0
M  V30 992 N 97.5546 -0.734337 1.39446 0
M  V30 993 C 98.5026 -1.86971 1.38364 0
M  V30 994 C 99.4966 -1.67288 0.266687 0
M  V30 995 O 100.703 -1.74621 0.436755 0
M  V30 996 H 97.0776 -0.615474 0.432082 0
M  V30 997 H 99.0486 -1.85 2.34132 0
M  V30 998 C 97.7976 -3.2466 1.24465 0
M  V30 999 H 97.1206 -3.40402 2.09682 0
M  V30 1000 H 98.5606 -4.04292 1.27764 0
M  V30 1001 C 97.0196 -3.36867 -0.0468674 0
M  V30 1002 O 97.5496 -3.88618 -1.01681 0
M  V30 1003 N 95.7556 -2.90391 -0.110145 0
M  V30 1004 H 95.3026 -2.48466 0.679868 0
M  V30 1005 H 95.2606 -2.98939 -0.973799 0
M  V30 1006 N 99.0327 -1.24633 -0.964593 0
M  V30 1007 C 100.258 -1.11596 -1.74818 0
M  V30 1008 C 100.683 0.32723 -1.85232 0
M  V30 1009 O 100.041 1.23695 -1.32549 0
M  V30 1010 C 100.089 -1.76397 -3.1451 0
M  V30 1011 O 99.1927 -1.03685 -3.99153 0
M  V30 1012 H 98.5337 -0.390196 -0.537255 0
M  V30 1013 H 101.064 -1.65002 -1.20977 0
M  V30 1014 H 101.074 -1.8228 -3.65018 0
M  V30 1015 H 99.7487 -2.81401 -3.06246 0
M  V30 1016 H 98.3257 -1.05611 -3.57632 0
M  V30 1017 N 100.511 1.16574 -1.06058 0
M  V30 1018 C 101.474 2.19085 -0.673392 0
M  V30 1019 C 102.474 1.5835 0.279648 0
M  V30 1020 O 103.664 1.74088 0.0623488 0
M  V30 1021 C 100.796 3.40899 0.00954234 0
M  V30 1022 H 101.989 2.54853 -1.58081 0
M  V30 1023 H 99.5418 1.30808 -0.855516 0
M  V30 1024 H 100.277 3.10684 0.929826 0
M  V30 1025 H 100.062 3.86233 -0.67573 0
M  V30 1026 H 101.552 4.1675 0.266245 0
M  V30 1027 N 101.989 0.842826 1.3317 0
M  V30 1028 C 102.936 0.276885 2.29133 0
M  V30 1029 C 103.906 -0.609527 1.54512 0
M  V30 1030 O 105.091 -0.546955 1.82792 0
M  V30 1031 C 102.231 -0.538707 3.40869 0
M  V30 1032 C 101.344 0.372169 4.30394 0
M  V30 1033 C 100.479 -0.454908 5.29249 0
M  V30 1034 C 99.5179 0.45411 6.10413 0
M  V30 1035 N 98.6549 -0.335075 7.013 0
M  V30 1036 H 103.495 1.10052 2.76934 0
M  V30 1037 H 101.032 0.554161 1.36262 0
M  V30 1038 H 102.99 -1.02709 4.0436 0
M  V30 1039 H 101.62 -1.32727 2.9425 0
M  V30 1040 H 100.672 0.97888 3.6759 0
M  V30 1041 H 101.984 1.0703 4.87182 0
M  V30 1042 H 101.138 -1.00695 5.98285 0
M  V30 1043 H 99.8769 -1.18646 4.73048 0
M  V30 1044 H 98.8819 1.01813 5.40291 0
M  V30 1045 H 100.107 1.18409 6.68697 0
M  V30 1046 H 98.0529 -1.04994 6.47543 0
M  V30 1047 H 97.9699 0.304262 7.55387 0
M  V30 1048 H 99.2379 -0.869224 7.74638 0
M  V30 1049 N 103.467 -1.45747 0.599634 0
M  V30 1050 C 104.397 -2.33235 -0.111306 0
M  V30 1051 C 105.378 -1.46359 -0.866781 0
M  V30 1052 O 106.563 -1.75146 -0.838904 0
M  V30 1053 C 103.693 -3.28932 -1.11451 0
M  V30 1054 C 102.647 -4.25381 -0.472772 0
M  V30 1055 C 101.973 -5.1071 -1.58365 0
M  V30 1056 C 103.273 -5.18831 0.600948 0
M  V30 1057 H 104.967 -2.92927 0.61919 0
M  V30 1058 H 102.513 -1.40857 0.299215 0
M  V30 1059 H 104.466 -3.89002 -1.62036 0
M  V30 1060 H 103.19 -2.67381 -1.8755 0
M  V30 1061 H 101.849 -3.66598 0.0121472 0
M  V30 1062 H 101.497 -4.45533 -2.33473 0
M  V30 1063 H 101.197 -5.7604 -1.15982 0
M  V30 1064 H 102.721 -5.73647 -2.09194 0
M  V30 1065 H 104.135 -5.73019 0.179491 0
M  V30 1066 H 102.532 -5.92595 0.946076 0
M  V30 1067 H 103.602 -4.6174 1.48068 0
M  V30 1068 N 104.945 -0.338344 -1.53925 0
M  V30 1069 C 106.191 0.260143 -2.01125 0
M  V30 1070 C 106.524 1.50617 -1.22589 0
M  V30 1071 O 105.799 1.91979 -0.312113 0
M  V30 1072 C 106.082 0.579499 -3.55407 0
M  V30 1073 C 105.935 -0.678264 -4.44657 0
M  V30 1074 C 107.254 1.39122 -4.17532 0
M  V30 1075 H 104.373 0.0930772 -0.731099 0
M  V30 1076 H 107.015 -0.457852 -1.84401 0
M  V30 1077 H 105.165 1.19118 -3.69788 0
M  V30 1078 H 106.837 -1.31631 -4.42121 0
M  V30 1079 H 105.08 -1.3042 -4.13731 0
M  V30 1080 H 105.751 -0.410143 -5.50474 0
M  V30 1081 H 108.227 0.874035 -4.06817 0
M  V30 1082 H 107.103 1.58342 -5.25565 0
M  V30 1083 H 107.364 2.39178 -3.71815 0
M  V30 1084 N 106.423 1.57458 -0.0668435 0
M  V30 1085 C 107.653 1.97337 0.611677 0
M  V30 1086 C 108.061 0.943744 1.63982 0
M  V30 1087 O 107.404 -0.0785584 1.83532 0
M  V30 1088 C 107.466 3.33511 1.34205 0
M  V30 1089 C 107.13 4.54598 0.467941 0
M  V30 1090 C 108.127 5.19186 -0.272439 0
M  V30 1091 C 105.812 5.0075 0.39427 0
M  V30 1092 C 107.806 6.28274 -1.07476 0
M  V30 1093 C 105.493 6.09711 -0.411729 0
M  V30 1094 C 106.491 6.73335 -1.14492 0
M  V30 1095 O 106.179 7.80199 -1.93763 0
M  V30 1096 H 105.911 0.654042 0.170893 0
M  V30 1097 H 108.465 2.04961 -0.134289 0
M  V30 1098 H 106.695 3.22487 2.13398 0
M  V30 1099 H 108.384 3.58029 1.91233 0
M  V30 1100 H 109.15 4.84477 -0.225086 0
M  V30 1101 H 105.029 4.51009 0.954569 0
M  V30 1102 H 108.573 6.77866 -1.64755 0
M  V30 1103 H 104.47 6.43854 -0.460664 0
M  V30 1104 H 105.238 7.97053 -1.86142 0
M  V30 1105 N 107.901 -0.206675 1.56239 0
M  V30 1106 C 109.126 -0.949474 1.8439 0
M  V30 1107 C 109.551 -1.76549 0.649016 0
M  V30 1108 O 108.909 -1.76782 -0.402231 0
M  V30 1109 C 108.957 -1.83078 3.10668 0
M  V30 1110 O 108.061 -2.9281 2.90407 0
M  V30 1111 H 107.402 -0.268033 0.607499 0
M  V30 1112 H 109.932 -0.215488 2.03462 0
M  V30 1113 H 109.942 -2.2377 3.41161 0
M  V30 1114 H 108.617 -1.23112 3.97261 0
M  V30 1115 H 107.194 -2.55956 2.71184 0
M  V30 1116 N 109.379 -1.50304 -0.473955 0
M  V30 1117 C 110.628 -1.60392 -1.22301 0
M  V30 1118 C 110.941 -0.308411 -1.93153 0
M  V30 1119 O 112.147 -0.288156 -2.69966 0
M  V30 1120 C 110.603 -2.83109 -2.2221 0
M  V30 1121 C 110.211 -4.19524 -1.57173 0
M  V30 1122 C 111.955 -3.0254 -2.97775 0
M  V30 1123 C 109.862 -5.33431 -2.55353 0
M  V30 1124 H 108.792 -0.597286 -0.460179 0
M  V30 1125 H 111.443 -1.76731 -0.493803 0
M  V30 1126 H 109.825 -2.60322 -2.9841 0
M  V30 1127 H 110.999 -4.52554 -0.867824 0
M  V30 1128 H 109.314 -4.05674 -0.939002 0
M  V30 1129 H 111.911 -3.84811 -3.71248 0
M  V30 1130 H 112.254 -2.14154 -3.56992 0
M  V30 1131 H 112.787 -3.25494 -2.28688 0
M  V30 1132 H 109.526 -6.23962 -2.00878 0
M  V30 1133 H 109.046 -5.04823 -3.23904 0
M  V30 1134 H 110.725 -5.63887 -3.17239 0
M  V30 1135 N 110.857 0.726932 -1.39834 0
M  V30 1136 C 111.787 1.85405 -1.41941 0
M  V30 1137 C 112.768 1.67751 -0.281728 0
M  V30 1138 O 113.953 1.8795 -0.488717 0
M  V30 1139 C 111.083 3.23243 -1.2701 0
M  V30 1140 C 110.037 3.55549 -2.38262 0
M  V30 1141 C 109.363 4.9241 -2.08415 0
M  V30 1142 C 110.663 3.577 -3.80589 0
M  V30 1143 H 112.357 1.83899 -2.36266 0
M  V30 1144 H 109.903 0.883349 -1.13723 0
M  V30 1145 H 111.856 4.01775 -1.27103 0
M  V30 1146 H 110.58 3.25296 -0.291564 0
M  V30 1147 H 109.239 2.79351 -2.37399 0
M  V30 1148 H 108.887 4.91052 -1.0898 0
M  V30 1149 H 108.587 5.14992 -2.82943 0
M  V30 1150 H 110.111 5.73289 -2.10171 0
M  V30 1151 H 111.525 4.26293 -3.83337 0
M  V30 1152 H 109.922 3.91804 -4.54543 0
M  V30 1153 H 110.992 2.57328 -4.10987 0
M  V30 1154 N 112.336 1.25143 0.95797 0
M  V30 1155 C 113.246 1.06968 2.08794 0
M  V30 1156 C 114.262 0.00773911 1.73998 0
M  V30 1157 O 115.438 0.207972 2.00323 0
M  V30 1158 C 112.503 0.68691 3.39827 0
M  V30 1159 C 111.564 1.82641 3.88511 0
M  V30 1160 C 110.797 1.46181 5.1329 0
M  V30 1161 O 111.02 0.355971 5.69288 0
M  V30 1162 O 109.954 2.29085 5.566 0
M  V30 1163 H 113.78 2.01723 2.27027 0
M  V30 1164 H 111.365 1.04051 1.07209 0
M  V30 1165 H 113.247 0.485417 4.18595 0
M  V30 1166 H 111.922 -0.231417 3.22872 0
M  V30 1167 H 110.829 2.08274 3.10762 0
M  V30 1168 H 112.162 2.72386 4.09959 0
M  V30 1169 N 113.814 -1.1601 1.06675 0
M  V30 1170 C 115.062 -1.86264 0.784229 0
M  V30 1171 C 115.383 -1.82328 -0.691488 0
M  V30 1172 O 114.653 -1.25947 -1.50047 0
M  V30 1173 H 113.233 -0.689621 0.28711 0
M  V30 1174 H 115.895 -1.40664 1.34906 0
M  V30 1175 H 114.991 -2.91595 1.11259 0
M  V30 1176 N 115.292 -0.849877 -1.32721 0
M  V30 1177 C 116.224 -0.248332 -2.27851 0
M  V30 1178 C 117.237 0.577218 -1.52224 0
M  V30 1179 O 118.426 0.402489 -1.73903 0
M  V30 1180 C 115.526 0.668107 -3.32249 0
M  V30 1181 C 114.699 -0.120534 -4.37234 0
M  V30 1182 C 113.758 0.720932 -5.21238 0
M  V30 1183 O 112.784 0.156166 -5.68986 0
M  V30 1184 N 113.986 2.03647 -5.43607 0
M  V30 1185 H 116.751 -1.06575 -2.80111 0
M  V30 1186 H 114.312 -0.709395 -1.45531 0
M  V30 1187 H 116.304 1.23627 -3.85355 0
M  V30 1188 H 114.874 1.38621 -2.80184 0
M  V30 1189 H 114.094 -0.870108 -3.84477 0
M  V30 1190 H 115.382 -0.662406 -5.0447 0
M  V30 1191 H 114.78 2.51871 -5.06535 0
M  V30 1192 H 113.337 2.55287 -5.99727 0
M  V30 1193 N 116.77 1.45427 -0.607355 0
M  V30 1194 C 118.181 1.85756 -0.187535 0
M  V30 1195 C 118.532 1.5077 1.25551 0
M  V30 1196 O 117.657 0.93427 1.95193 0
M  V30 1197 C 118.252 3.37154 -0.333572 0
M  V30 1198 C 116.811 3.76387 0.0315542 0
M  V30 1199 C 115.958 2.69377 -0.658117 0
M  V30 1200 H 118.909 1.36231 -0.81405 0
M  V30 1201 H 118.93 3.78014 0.43428 0
M  V30 1202 H 118.442 3.62586 -1.38393 0
M  V30 1203 H 116.543 3.56571 1.0811 0
M  V30 1204 H 116.656 4.77731 -0.361935 0
M  V30 1205 H 115.02 2.5452 -0.0957873 0
M  V30 1206 H 115.803 2.97646 -1.7106 0
M  V30 1207 N 118.248 0.346503 1.53744 0
M  V30 1208 C 119.478 -0.250047 2.05081 0
M  V30 1209 C 119.886 -1.44529 1.22098 0
M  V30 1210 O 119.229 -1.81992 0.249917 0
M  V30 1211 C 119.291 -0.725934 3.52094 0
M  V30 1212 C 118.955 0.350053 4.55657 0
M  V30 1213 C 119.952 1.19372 5.0601 0
M  V30 1214 C 117.637 0.504827 4.99757 0
M  V30 1215 C 119.631 2.17768 5.99046 0
M  V30 1216 C 117.318 1.49218 5.92602 0
M  V30 1217 C 118.316 2.32706 6.42135 0
M  V30 1218 O 118.004 3.2976 7.33153 0
M  V30 1219 H 117.736 -0.0515469 0.674032 0
M  V30 1220 H 120.29 0.497559 1.99282 0
M  V30 1221 H 118.52 -1.52483 3.55367 0
M  V30 1222 H 120.209 -1.24336 3.86388 0
M  V30 1223 H 120.975 1.08525 4.72702 0
M  V30 1224 H 116.854 -0.135178 4.60802 0
M  V30 1225 H 120.398 2.82971 6.37631 0
M  V30 1226 H 116.295 1.6012 6.25325 0
M  V30 1227 H 117.063 3.25265 7.51096 0
M  V30 1228 N 119.726 -1.57421 0.075193 0
M  V30 1229 C 120.973 -1.93618 -0.593146 0
M  V30 1230 C 121.301 -0.955484 -1.69413 0
M  V30 1231 O 120.556 0.0283251 -1.9568 0
M  V30 1232 C 120.855 -3.36428 -1.20626 0
M  V30 1233 C 120.521 -4.50307 -0.231078 0
M  V30 1234 C 119.183 -4.81186 0.0371936 0
M  V30 1235 C 121.535 -5.19374 0.435888 0
M  V30 1236 C 118.863 -5.78466 0.979461 0
M  V30 1237 C 121.215 -6.17665 1.3665 0
M  V30 1238 C 119.879 -6.46958 1.6432 0
M  V30 1239 H 119.149 -0.708499 -0.217047 0
M  V30 1240 H 121.796 -1.90937 0.146793 0
M  V30 1241 H 120.101 -3.35592 -2.02201 0
M  V30 1242 H 121.798 -3.61727 -1.73073 0
M  V30 1243 H 118.388 -4.26227 -0.450357 0
M  V30 1244 H 122.572 -4.95711 0.241748 0
M  V30 1245 H 117.828 -5.99487 1.20106 0
M  V30 1246 H 122.002 -6.70284 1.88924 0
M  V30 1247 H 119.629 -7.2215 2.37494 0
M  V30 1248 N 121.204 0.198386 -1.56346 0
M  V30 1249 C 122.429 0.939682 -1.84891 0
M  V30 1250 C 122.854 1.76202 -0.658369 0
M  V30 1251 O 122.212 1.76993 0.392851 0
M  V30 1252 C 122.26 1.81428 -3.11635 0
M  V30 1253 O 121.364 2.91265 -2.91956 0
M  V30 1254 H 120.705 0.264807 -0.608912 0
M  V30 1255 H 123.235 0.204695 -2.03573 0
M  V30 1256 H 123.245 2.21958 -3.42343 0
M  V30 1257 H 121.92 1.21004 -3.97908 0
M  V30 1258 H 120.497 2.54514 -2.72538 0
M  V30 1259 N 122.682 1.50554 0.465978 0
M  V30 1260 C 123.928 1.62038 1.21949 0
M  V30 1261 C 124.261 0.322116 1.9151 0
M  V30 1262 O 123.536 -0.676723 1.82348 0
M  V30 1263 C 123.819 2.80421 2.25912 0
M  V30 1264 C 123.672 4.20144 1.60622 0
M  V30 1265 C 124.991 2.94354 3.27176 0
M  V30 1266 H 122.11 0.589752 0.441998 0
M  V30 1267 H 124.752 1.82956 0.51257 0
M  V30 1268 H 122.902 2.62717 2.86203 0
M  V30 1269 H 124.574 4.49449 1.03889 0
M  V30 1270 H 122.817 4.24165 0.909211 0
M  V30 1271 H 123.488 4.98914 2.36196 0
M  V30 1272 H 125.964 3.10578 2.76913 0
M  V30 1273 H 124.84 3.788 3.97242 0
M  V30 1274 H 125.101 2.05186 3.916 0
M  V30 1275 N 124.16 -0.719506 1.40217 0
M  V30 1276 C 125.07 -1.86378 1.42479 0
M  V30 1277 C 126.086 -1.71073 0.317834 0
M  V30 1278 O 127.262 -1.93406 0.561794 0
M  V30 1279 C 124.327 -3.22136 1.28178 0
M  V30 1280 C 123.388 -3.49723 2.48982 0
M  V30 1281 C 122.621 -4.79004 2.35353 0
M  V30 1282 O 122.844 -5.53821 1.36524 0
M  V30 1283 O 121.778 -5.06839 3.2465 0
M  V30 1284 H 125.604 -1.87425 2.38968 0
M  V30 1285 H 123.189 -0.869405 1.21498 0
M  V30 1286 H 125.071 -4.03234 1.22395 0
M  V30 1287 H 123.746 -3.21825 0.347934 0
M  V30 1288 H 122.653 -2.6865 2.60342 0
M  V30 1289 H 123.986 -3.54828 3.41113 0
M  V30 1290 N 125.638 -1.25649 -0.95132 0
M  V30 1291 C 126.601 -1.06399 -2.03007 0
M  V30 1292 C 127.601 -0.0156794 -1.60792 0
M  V30 1293 O 128.791 -0.25817 -1.72276 0
M  V30 1294 C 125.923 -0.616184 -3.35285 0
M  V30 1295 H 127.116 -2.02164 -2.21517 0
M  V30 1296 H 124.669 -1.08103 -1.12887 0
M  V30 1297 H 125.404 0.343917 -3.22471 0
M  V30 1298 H 125.189 -1.37301 -3.67275 0
M  V30 1299 H 126.679 -0.503032 -4.14559 0
M  V30 1300 N 127.117 1.15442 -1.07289 0
M  V30 1301 C 128.049 2.19773 -0.650585 0
M  V30 1302 C 129.062 1.60076 0.296572 0
M  V30 1303 O 130.251 1.78293 0.0859905 0
M  V30 1304 C 127.351 3.38838 0.0650398 0
M  V30 1305 C 126.524 4.2808 -0.898141 0
M  V30 1306 C 125.583 5.2574 -0.219926 0
M  V30 1307 O 124.609 5.62654 -0.860773 0
M  V30 1308 N 125.811 5.71205 1.03466 0
M  V30 1309 H 128.576 2.56622 -1.54808 0
M  V30 1310 H 126.137 1.30551 -0.957494 0
M  V30 1311 H 128.129 4.01222 0.529415 0
M  V30 1312 H 126.699 3.00409 0.864466 0
M  V30 1313 H 125.919 3.62804 -1.54165 0
M  V30 1314 H 127.207 4.84577 -1.5512 0
M  V30 1315 H 126.605 5.43325 1.57526 0
M  V30 1316 H 125.162 6.35633 1.44272 0
M  V30 1317 N 128.595 0.856903 1.32268 0
M  V30 1318 C 129.823 0.475439 2.01363 0
M  V30 1319 C 130.238 -0.928486 1.64392 0
M  V30 1320 O 129.595 -1.60624 0.866387 0
M  V30 1321 C 129.646 0.607545 3.56358 0
M  V30 1322 O 129.367 1.95617 3.92002 0
M  V30 1323 C 130.868 0.225382 4.42727 0
M  V30 1324 H 128.088 0.186636 0.644521 0
M  V30 1325 H 130.632 1.15446 1.68797 0
M  V30 1326 H 128.787 -0.0237719 3.87393 0
M  V30 1327 H 129.201 1.95455 4.86721 0
M  V30 1328 H 130.675 0.368813 5.50767 0
M  V30 1329 H 131.152 -0.834369 4.31202 0
M  V30 1330 H 131.758 0.831864 4.17085 0
M  V30 1331 N 130.073 -1.45103 0.615059 0
M  V30 1332 C 131.321 -2.01784 0.112955 0
M  V30 1333 C 131.642 -1.48504 -1.26378 0
M  V30 1334 O 130.912 -0.682245 -1.83636 0
M  V30 1335 H 129.492 -0.745993 0.0387668 0
M  V30 1336 H 132.154 -1.77808 0.798141 0
M  V30 1337 H 131.25 -3.12025 0.0684069 0
M  V30 1338 N 131.551 -0.354651 -1.53558 0
M  V30 1339 C 132.8 0.239504 -2.00273 0
M  V30 1340 C 133.113 1.50759 -1.24623 0
M  V30 1341 O 134.319 2.17968 -1.61871 0
M  V30 1342 C 132.775 0.477341 -3.5672 0
M  V30 1343 C 132.383 -0.775488 -4.41237 0
M  V30 1344 C 134.127 1.02975 -4.11821 0
M  V30 1345 C 132.034 -0.507838 -5.89216 0
M  V30 1346 H 130.964 0.0932743 -0.748208 0
M  V30 1347 H 133.615 -0.471701 -1.77334 0
M  V30 1348 H 131.997 1.24953 -3.7577 0
M  V30 1349 H 133.171 -1.54963 -4.33962 0
M  V30 1350 H 131.486 -1.25033 -3.97185 0
M  V30 1351 H 134.083 1.24513 -5.2 0
M  V30 1352 H 134.426 1.98862 -3.65731 0
M  V30 1353 H 134.959 0.317994 -3.96527 0
M  V30 1354 H 131.698 -1.43674 -6.39561 0
M  V30 1355 H 131.218 0.228011 -5.99366 0
M  V30 1356 H 132.897 -0.129238 -6.46871 0
M  V30 1357 N 133.029 1.57378 -0.0835403 0
M  V30 1358 C 134.278 1.93106 0.582498 0
M  V30 1359 C 134.591 0.96651 1.70053 0
M  V30 1360 O 135.797 1.21705 2.42693 0
M  V30 1361 C 134.253 3.43076 1.08751 0
M  V30 1362 C 133.861 4.48 -0.000146404 0
M  V30 1363 C 135.605 3.87785 1.72694 0
M  V30 1364 C 133.512 5.89113 0.519568 0
M  V30 1365 H 132.442 0.720775 0.221358 0
M  V30 1366 H 135.093 1.82821 -0.157675 0
M  V30 1367 H 133.475 3.48474 1.88101 0
M  V30 1368 H 134.649 4.54233 -0.775199 0
M  V30 1369 H 132.964 4.1283 -0.54406 0
M  V30 1370 H 135.561 4.90604 2.1263 0
M  V30 1371 H 135.904 3.25796 2.59158 0
M  V30 1372 H 136.437 3.8504 0.999457 0
M  V30 1373 H 133.176 6.54775 -0.308186 0
M  V30 1374 H 132.696 5.86376 1.26188 0
M  V30 1375 H 134.375 6.39346 0.992237 0
M  V30 1376 N 134.507 -0.190092 1.56449 0
M  V30 1377 C 135.923 -0.54113 1.50146 0
M  V30 1378 C 136.123 -1.85603 0.784465 0
M  V30 1379 O 135.179 -2.5024 0.337051 0
M  V30 1380 C 136.492 -0.591241 2.9483 0
M  V30 1381 C 138.04 -0.679732 3.0553 0
M  V30 1382 C 138.515 -0.760908 4.51635 0
M  V30 1383 N 140.006 -0.824302 4.55806 0
M  V30 1384 C 140.741 -0.907365 5.66175 0
M  V30 1385 N 140.237 -0.952422 6.86222 0
M  V30 1386 N 142.03 -0.94494 5.541 0
M  V30 1387 H 134.181 0.67235 2.01478 0
M  V30 1388 H 136.444 0.240127 0.917084 0
M  V30 1389 H 136.15 0.305905 3.50367 0
M  V30 1390 H 136.024 -1.44422 3.48457 0
M  V30 1391 H 138.411 -1.56731 2.50039 0
M  V30 1392 H 138.492 0.199549 2.5502 0
M  V30 1393 H 138.136 0.122336 5.07753 0
M  V30 1394 H 138.066 -1.65606 4.99882 0
M  V30 1395 H 140.557 -0.798526 3.69367 0
M  V30 1396 H 140.87 -1.01645 7.66086 0
M  V30 1397 H 139.215 -0.921014 6.8887 0
M  V30 1398 H 142.406 -0.906612 4.59236 0
M  V30 1399 H 142.579 -1.00622 6.4014 0
M  V30 1400 N 135.985 -1.50799 -0.457987 0
M  V30 1401 C 137.213 -1.66218 -1.23203 0
M  V30 1402 C 137.628 -0.350894 -1.85511 0
M  V30 1403 O 136.985 0.668546 -1.69814 0
M  V30 1404 C 137.036 -2.76291 -2.33121 0
M  V30 1405 O 136.757 -4.02338 -1.73366 0
M  V30 1406 C 138.258 -3.028 -3.2377 0
M  V30 1407 H 135.478 -0.558361 -0.372121 0
M  V30 1408 H 138.022 -1.97099 -0.545179 0
M  V30 1409 H 136.177 -2.48068 -2.97558 0
M  V30 1410 H 136.591 -4.63312 -2.4585 0
M  V30 1411 H 138.065 -3.8345 -3.97077 0
M  V30 1412 H 138.542 -2.14385 -3.83322 0
M  V30 1413 H 139.148 -3.32604 -2.65056 0
M  V30 1414 N 137.463 0.71206 -1.40597 0
M  V30 1415 C 138.426 1.80785 -1.40888 0
M  V30 1416 C 139.426 1.57937 -0.302103 0
M  V30 1417 O 140.616 1.64913 -0.561182 0
M  V30 1418 C 137.748 3.18927 -1.20409 0
M  V30 1419 H 138.941 1.81924 -2.38419 0
M  V30 1420 H 136.494 0.91805 -1.26497 0
M  V30 1421 H 137.229 3.23436 -0.236522 0
M  V30 1422 H 137.014 3.36911 -2.00582 0
M  V30 1423 H 138.504 3.98949 -1.23408 0
M  V30 1424 N 138.941 1.26152 0.944643 0
M  V30 1425 C 139.871 1.09902 2.06019 0
M  V30 1426 C 140.852 0.00519538 1.70099 0
M  V30 1427 O 142.037 0.176583 1.93396 0
M  V30 1428 C 139.167 0.727562 3.39594 0
M  V30 1429 C 138.121 1.77274 3.89561 0
M  V30 1430 C 137.447 1.25569 5.19747 0
M  V30 1431 C 138.747 3.17357 4.14827 0
M  V30 1432 H 140.441 2.03217 2.19871 0
M  V30 1433 H 137.987 0.978452 1.05652 0
M  V30 1434 H 139.94 0.600777 4.17095 0
M  V30 1435 H 138.664 -0.241287 3.25707 0
M  V30 1436 H 137.323 1.88814 3.14237 0
M  V30 1437 H 136.971 0.276783 5.02238 0
M  V30 1438 H 136.671 1.95433 5.54148 0
M  V30 1439 H 138.195 1.1415 5.99835 0
M  V30 1440 H 139.609 3.08914 4.82954 0
M  V30 1441 H 138.006 3.84781 4.60504 0
M  V30 1442 H 139.076 3.63673 3.20734 0
M  V30 1443 N 140.419 -1.14872 1.07899 0
M  V30 1444 C 141.83 -1.67367 0.827363 0
M  V30 1445 C 142.181 -1.85236 -0.646693 0
M  V30 1446 O 141.306 -1.55974 -1.50004 0
M  V30 1447 C 141.901 -3.04016 1.49532 0
M  V30 1448 C 140.46 -3.53566 1.29106 0
M  V30 1449 C 139.607 -2.29161 1.56143 0
M  V30 1450 H 142.558 -0.990083 1.24028 0
M  V30 1451 H 142.579 -3.69219 0.919643 0
M  V30 1452 H 142.091 -2.90978 2.56814 0
M  V30 1453 H 140.192 -3.71835 0.238713 0
M  V30 1454 H 140.305 -4.34661 2.01511 0
M  V30 1455 H 138.669 -2.34978 0.982717 0
M  V30 1456 H 139.452 -2.18705 2.64619 0
M  V30 1457 N 141.898 -0.863906 -1.31812 0
M  V30 1458 C 142.846 -0.30422 -2.30602 0
M  V30 1459 C 143.84 0.577419 -1.59255 0
M  V30 1460 O 145.046 0.464194 -1.73912 0
M  V30 1461 H 141.421 -0.0796877 -0.747766 0
M  V30 1462 H 143.392 -1.15148 -2.75288 0
M  V30 1463 C 142.141 0.484617 -3.44306 0
M  V30 1464 H 141.464 -0.18451 -3.99374 0
M  V30 1465 H 142.904 0.841664 -4.15562 0
M  V30 1466 C 141.363 1.6735 -2.92396 0
M  V30 1467 O 141.893 2.77273 -2.90659 0
M  V30 1468 N 140.099 1.50362 -2.48676 0
M  V30 1469 H 139.646 0.609402 -2.50288 0
M  V30 1470 H 139.604 2.30051 -2.14299 0
M  V30 1471 N 143.376 1.44774 -0.622745 0
M  V30 1472 C 144.309 2.27792 0.136329 0
M  V30 1473 C 145.287 1.38041 0.859264 0
M  V30 1474 O 146.471 1.67478 0.86506 0
M  V30 1475 C 143.598 3.16776 1.19878 0
M  V30 1476 C 142.644 4.22575 0.57731 0
M  V30 1477 S 143.477 5.31825 -0.626294 0
M  V30 1478 C 144.633 6.24377 0.436378 0
M  V30 1479 H 144.866 2.91824 -0.567967 0
M  V30 1480 H 142.399 1.48838 -0.410677 0
M  V30 1481 H 144.357 3.68596 1.80686 0
M  V30 1482 H 143.018 2.5198 1.87523 0
M  V30 1483 H 142.211 4.84818 1.37721 0
M  V30 1484 H 141.813 3.73974 0.0440439 0
M  V30 1485 H 144.105 6.64689 1.31128 0
M  V30 1486 H 145.048 7.07941 -0.150271 0
M  V30 1487 H 145.456 5.59381 0.758513 0
M  V30 1488 N 144.854 0.36279 1.53368 0
M  V30 1489 C 146.131 -0.284021 1.93527 0
M  V30 1490 C 146.511 -1.66628 1.29608 0
M  V30 1491 O 145.859 -2.23942 0.45413 0
M  V30 1492 C 146.069 -0.337028 3.47369 0
M  V30 1493 C 147.417 -0.578708 4.20638 0
M  V30 1494 O 148.441 -0.418352 3.53735 0
M  V30 1495 O 147.3 -0.89074 5.39192 0
M  V30 1496 H 144.394 -0.169743 0.809393 0
M  V30 1497 H 146.94 0.41537 1.64538 0
M  V30 1498 H 145.712 0.632217 3.86159 0
M  V30 1499 H 145.335 -1.08243 3.82582 0
M  V30 1500 N 146.332 -1.57332 0.0918853 0
M  V30 1501 C 147.748 -1.57389 -0.264766 0
M  V30 1502 C 147.948 -1.10281 -1.68643 0
M  V30 1503 O 147.004 -0.777801 -2.40222 0
M  V30 1504 C 148.317 -3.00648 -0.0561195 0
M  V30 1505 C 149.865 -3.12754 -0.124116 0
M  V30 1506 C 150.34 -4.57965 0.0564972 0
M  V30 1507 N 151.831 -4.632 0.00155611 0
M  V30 1508 C 152.566 -5.73281 0.116598 0
M  V30 1509 N 152.062 -6.92208 0.286294 0
M  V30 1510 N 153.855 -5.6207 0.0580973 0
M  V30 1511 H 146.006 -1.86262 1.02079 0
M  V30 1512 H 148.269 -0.859579 0.399786 0
M  V30 1513 H 147.975 -3.393 0.925669 0
M  V30 1514 H 147.849 -3.68623 -0.799823 0
M  V30 1515 H 150.236 -2.73976 -1.09641 0
M  V30 1516 H 150.317 -2.47377 0.651024 0
M  V30 1517 H 149.961 -4.97436 1.02564 0
M  V30 1518 H 149.891 -5.21399 -0.738297 0
M  V30 1519 H 152.382 -3.77686 -0.127192 0
M  V30 1520 H 152.695 -7.71934 0.365676 0
M  V30 1521 H 151.04 -6.94254 0.32192 0
M  V30 1522 H 154.231 -4.68043 -0.0733204 0
M  V30 1523 H 154.404 -6.47824 0.151203 0
M  V30 1524 N 147.81 0.181792 -1.56548 0
M  V30 1525 C 148.72 1.24538 -1.98815 0
M  V30 1526 C 149.736 1.49045 -0.897861 0
M  V30 1527 O 150.912 1.61399 -1.20467 0
M  V30 1528 C 147.977 2.56683 -2.33055 0
M  V30 1529 C 147.038 2.40131 -3.55859 0
M  V30 1530 C 146.271 3.65975 -3.88456 0
M  V30 1531 O 146.494 4.70711 -3.22161 0
M  V30 1532 O 145.428 3.6071 -4.81842 0
M  V30 1533 H 149.254 0.916647 -2.89536 0
M  V30 1534 H 146.839 0.387842 -1.44278 0
M  V30 1535 H 148.721 3.34655 -2.56094 0
M  V30 1536 H 147.396 2.89157 -1.45498 0
M  V30 1537 H 146.303 1.60226 -3.38051 0
M  V30 1538 H 147.636 2.12585 -4.43924 0
M  V30 1539 N 149.288 1.51039 0.449983 0
M  V30 1540 C 150.251 1.70863 1.5277 0
M  V30 1541 C 151.251 0.578846 1.5002 0
M  V30 1542 O 152.441 0.846213 1.52266 0
M  V30 1543 C 149.573 1.75341 2.9235 0
M  V30 1544 H 150.766 2.67034 1.36502 0
M  V30 1545 H 148.319 1.40838 0.677812 0
M  V30 1546 H 149.054 0.809383 3.14037 0
M  V30 1547 H 148.839 2.57436 2.95752 0
M  V30 1548 H 150.329 1.92559 3.70555 0
M  V30 1549 N 150.766 -0.704594 1.40972 0
M  V30 1550 C 151.713 -1.81862 1.42109 0
M  V30 1551 C 152.683 -1.63781 0.276593 0
M  V30 1552 O 153.868 -1.84759 0.4763 0
M  V30 1553 C 151.008 -3.19669 1.30022 0
M  V30 1554 C 150.121 -3.49246 2.54267 0
M  V30 1555 C 149.256 -4.76618 2.3454 0
M  V30 1556 C 148.295 -4.99133 3.54306 0
M  V30 1557 N 147.432 -6.17726 3.33706 0
M  V30 1558 H 152.272 -1.80226 2.37324 0
M  V30 1559 H 149.809 -0.880238 1.17857 0
M  V30 1560 H 151.767 -3.99263 1.21018 0
M  V30 1561 H 150.397 -3.20506 0.384192 0
M  V30 1562 H 149.449 -2.64125 2.73756 0
M  V30 1563 H 150.761 -3.61788 3.43381 0
M  V30 1564 H 149.915 -5.64249 2.22952 0
M  V30 1565 H 148.654 -4.66305 1.42867 0
M  V30 1566 H 147.659 -4.09953 3.66359 0
M  V30 1567 H 148.884 -5.11311 4.4692 0
M  V30 1568 H 146.83 -6.08642 2.44725 0
M  V30 1569 H 146.747 -6.30995 4.16391 0
M  V30 1570 H 148.015 -7.08115 3.25873 0
M  V30 1571 N 152.244 -1.26651 -0.937939 0
M  V30 1572 C 153.154 -1.10276 -2.07066 0
M  V30 1573 C 154.17 -0.0354197 -1.73964 0
M  V30 1574 O 155.346 -0.239816 -1.99967 0
M  V30 1575 C 152.411 -0.740887 -3.38691 0
M  V30 1576 C 151.472 -1.88799 -3.85556 0
M  V30 1577 C 150.705 -1.54329 -5.10899 0
M  V30 1578 O 150.928 -0.446494 -5.6865 0
M  V30 1579 O 149.862 -2.37911 -5.52885 0
M  V30 1580 H 153.688 -2.05309 -2.23789 0
M  V30 1581 H 151.273 -1.05743 -1.0554 0
M  V30 1582 H 153.155 -0.55195 -4.1777 0
M  V30 1583 H 151.83 0.180022 -3.23199 0
M  V30 1584 H 150.737 -2.13191 -3.07409 0
M  V30 1585 H 152.07 -2.78874 -4.05574 0
M  V30 1586 N 153.722 1.14298 -1.08507 0
M  V30 1587 C 154.632 2.23027 -0.727753 0
M  V30 1588 C 155.648 1.71952 0.26619 0
M  V30 1589 O 156.824 2.011 0.109882 0
M  V30 1590 C 153.889 3.46403 -0.143541 0
M  V30 1591 C 152.95 4.12413 -1.19223 0
M  V30 1592 C 152.183 5.29899 -0.635798 0
M  V30 1593 O 152.406 5.67796 0.544393 0
M  V30 1594 O 151.34 5.85717 -1.38634 0
M  V30 1595 H 155.166 2.55945 -1.63481 0
M  V30 1596 H 152.751 1.22248 -0.858817 0
M  V30 1597 H 154.633 4.21018 0.179404 0
M  V30 1598 H 153.308 3.15206 0.736659 0
M  V30 1599 H 152.215 3.39667 -1.56772 0
M  V30 1600 H 153.548 4.47718 -2.04474 0
M  V30 1601 N 155.201 0.870884 1.31352 0
M  V30 1602 C 156.431 0.496049 2.00557 0
M  V30 1603 C 156.839 -0.916241 1.65534 0
M  V30 1604 O 156.182 -1.61188 0.881134 0
M  V30 1605 C 156.244 0.574418 3.54881 0
M  V30 1606 C 155.908 1.94849 4.1338 0
M  V30 1607 C 156.905 2.91611 4.30417 0
M  V30 1608 C 154.59 2.25005 4.49086 0
M  V30 1609 C 156.584 4.16672 4.82352 0
M  V30 1610 C 154.271 3.50315 5.00722 0
M  V30 1611 C 155.269 4.45964 5.17306 0
M  V30 1612 O 154.957 5.69052 5.67833 0
M  V30 1613 H 154.689 0.191664 0.64826 0
M  V30 1614 H 157.243 1.17409 1.68536 0
M  V30 1615 H 155.473 -0.160549 3.86367 0
M  V30 1616 H 157.162 0.212879 4.05341 0
M  V30 1617 H 157.928 2.69622 4.03149 0
M  V30 1618 H 153.807 1.51332 4.35453 0
M  V30 1619 H 157.351 4.91336 4.95211 0
M  V30 1620 H 153.248 3.72147 5.27424 0
M  V30 1621 H 154.016 5.71236 5.86201 0
M  V30 1622 N 156.679 -1.44442 0.630414 0
M  V30 1623 C 157.629 -2.27794 -0.0968103 0
M  V30 1624 C 158.613 -1.38624 -0.816834 0
M  V30 1625 O 159.805 -1.62438 -0.70306 0
M  V30 1626 C 156.934 -3.25929 -1.07819 0
M  V30 1627 C 156.02 -4.22588 -0.357826 0
M  V30 1628 N 156.411 -5.0207 0.613169 0
M  V30 1629 C 154.709 -4.41914 -0.602365 0
M  V30 1630 C 155.41 -5.72351 1.03871 0
M  V30 1631 N 154.386 -5.42287 0.377642 0
M  V30 1632 H 158.188 -2.86653 0.648621 0
M  V30 1633 H 155.702 -1.55871 0.455862 0
M  V30 1634 H 157.699 -3.84399 -1.61378 0
M  V30 1635 H 156.359 -2.68631 -1.82393 0
M  V30 1636 H 157.37 -5.08331 0.990947 0
M  V30 1637 H 154.047 -3.95714 -1.33103 0
M  V30 1638 H 155.437 -6.4619 1.84086 0
M  V30 1639 N 158.157 -0.370918 -1.53173 0
M  V30 1640 C 159.403 0.217423 -2.01631 0
M  V30 1641 C 159.736 1.47983 -1.25756 0
M  V30 1642 O 159.011 1.91274 -0.352764 0
M  V30 1643 C 159.294 0.503982 -3.56556 0
M  V30 1644 C 159.147 -0.77243 -4.43118 0
M  V30 1645 C 160.466 1.30234 -4.20389 0
M  V30 1646 H 157.585 0.0775486 -0.732909 0
M  V30 1647 H 160.227 -0.496863 -1.83388 0
M  V30 1648 H 158.377 1.11248 -3.72231 0
M  V30 1649 H 160.049 -1.4098 -4.39229 0
M  V30 1650 H 158.292 -1.39167 -4.10871 0
M  V30 1651 H 158.963 -0.526815 -5.4948 0
M  V30 1652 H 161.439 0.787546 -4.08579 0
M  V30 1653 H 160.315 1.47158 -5.28806 0
M  V30 1654 H 160.576 2.31237 -3.76805 0
M  V30 1655 N 159.635 1.57281 -0.100228 0
M  V30 1656 C 160.881 1.94826 0.563101 0
M  V30 1657 C 161.214 0.982475 1.67514 0
M  V30 1658 O 160.489 0.0164069 1.94493 0
M  V30 1659 C 160.772 3.42453 1.11346 0
M  V30 1660 C 160.625 4.498 0.00612081 0
M  V30 1661 C 161.944 3.91506 2.01024 0
M  V30 1662 H 159.063 0.708428 0.203221 0
M  V30 1663 H 161.705 1.8922 -0.171979 0
M  V30 1664 H 159.855 3.47361 1.7399 0
M  V30 1665 H 161.527 4.57 -0.628357 0
M  V30 1666 H 159.77 4.28756 -0.659581 0
M  V30 1667 H 160.441 5.50306 0.432109 0
M  V30 1668 H 162.917 3.88784 1.48278 0
M  V30 1669 H 161.793 4.95358 2.36457 0
M  V30 1670 H 162.054 3.31099 2.92961 0
M  V30 1671 N 161.113 -0.173488 1.56642 0
M  V30 1672 C 162.362 -0.888758 1.81063 0
M  V30 1673 C 162.675 -1.83506 0.67712 0
M  V30 1674 O 163.881 -2.59254 0.806206 0
M  V30 1675 C 162.337 -1.63091 3.20826 0
M  V30 1676 C 161.945 -0.728357 4.4204 0
M  V30 1677 C 163.689 -2.33454 3.54541 0
M  V30 1678 C 161.596 -1.47062 5.72823 0
M  V30 1679 H 160.526 -0.335618 0.675186 0
M  V30 1680 H 163.177 -0.141712 1.82952 0
M  V30 1681 H 161.559 -2.42263 3.13248 0
M  V30 1682 H 162.733 0.0262449 4.60793 0
M  V30 1683 H 161.048 -0.134492 4.16183 0
M  V30 1684 H 163.645 -2.89578 4.49498 0
M  V30 1685 H 163.988 -3.08687 2.79317 0
M  V30 1686 H 164.521 -1.61227 3.63663 0
M  V30 1687 H 161.26 -0.760658 6.51072 0
M  V30 1688 H 160.78 -2.1986 5.58052 0
M  V30 1689 H 162.459 -2.01868 6.14702 0
M  V30 1690 N 162.591 -1.51276 -0.441967 0
M  V30 1691 C 163.523 -1.68444 -1.55433 0
M  V30 1692 C 164.536 -0.565187 -1.52674 0
M  V30 1693 O 165.725 -0.839356 -1.57534 0
M  V30 1694 C 162.825 -1.67966 -2.94348 0
M  V30 1695 C 161.998 -2.964 -3.21661 0
M  V30 1696 C 161.057 -2.88171 -4.40277 0
M  V30 1697 O 160.083 -3.62119 -4.39157 0
M  V30 1698 N 161.285 -2.03706 -5.43584 0
M  V30 1699 H 164.05 -2.644 -1.41112 0
M  V30 1700 H 161.611 -1.49104 -0.630838 0
M  V30 1701 H 163.603 -1.60035 -3.71713 0
M  V30 1702 H 162.173 -0.796225 -3.0229 0
M  V30 1703 H 161.393 -3.18234 -2.32638 0
M  V30 1704 H 162.681 -3.81427 -3.36736 0
M  V30 1705 H 162.079 -1.42995 -5.47329 0
M  V30 1706 H 160.636 -2.01658 -6.1982 0
M  V30 1707 N 164.069 0.697108 -1.41344 0
M  V30 1708 C 165.032 1.79281 -1.42797 0
M  V30 1709 C 166.032 1.57607 -0.318837 0
M  V30 1710 O 167.222 1.64309 -0.578642 0
M  V30 1711 C 164.354 3.17632 -1.23785 0
M  V30 1712 H 165.547 1.79385 -2.40335 0
M  V30 1713 H 163.1 0.904582 -1.27464 0
M  V30 1714 H 163.835 3.23167 -0.270814 0
M  V30 1715 H 163.62 3.34765 -2.04144 0
M  V30 1716 H 165.11 3.97617 -1.27633 0
M  V30 1717 N 165.547 1.27147 0.931209 0
M  V30 1718 C 166.494 1.09568 2.03134 0
M  V30 1719 C 167.464 -0.00222433 1.661 0
M  V30 1720 O 168.649 0.159439 1.90133 0
M  V30 1721 C 165.789 0.745231 3.36957 0
M  V30 1722 C 164.902 1.92041 3.86968 0
M  V30 1723 C 164.037 1.51216 5.09222 0
M  V30 1724 C 163.076 2.65504 5.5152 0
M  V30 1725 N 162.213 2.25291 6.64972 0
M  V30 1726 H 167.053 2.03708 2.17502 0
M  V30 1727 H 164.59 1.01411 1.06556 0
M  V30 1728 H 166.548 0.522878 4.1391 0
M  V30 1729 H 165.178 -0.159202 3.22407 0
M  V30 1730 H 164.23 2.25541 3.06326 0
M  V30 1731 H 165.542 2.77787 4.1429 0
M  V30 1732 H 164.696 1.25084 5.93666 0
M  V30 1733 H 163.435 0.625749 4.83669 0
M  V30 1734 H 162.44 2.92354 4.65628 0
M  V30 1735 H 163.665 3.54761 5.7907 0
M  V30 1736 H 161.611 1.39098 6.41083 0
M  V30 1737 H 161.528 3.04577 6.91931 0
M  V30 1738 H 162.796 2.02398 7.52765 0
M  V30 1739 N 167.025 -1.13721 1.09112 0
M  V30 1740 C 168.302 -1.81155 0.737706 0
M  V30 1741 C 168.682 -1.96253 -0.777683 0
M  V30 1742 O 168.03 -1.52807 -1.69889 0
M  V30 1743 C 168.24 -3.16392 1.47299 0
M  V30 1744 C 169.588 -3.91787 1.63671 0
M  V30 1745 O 170.612 -3.26005 1.43524 0
M  V30 1746 O 169.471 -5.0977 1.96969 0
M  V30 1747 H 166.565 -0.783518 0.26463 0
M  V30 1748 H 169.111 -1.20676 1.19312 0
M  V30 1749 H 167.883 -3.0061 2.50498 0
M  V30 1750 H 167.506 -3.8457 1.00953 0
M  V30 1751 N 168.503 -0.877838 -1.30888 0
M  V30 1752 C 169.436 -0.283995 -2.26426 0
M  V30 1753 C 170.414 0.591361 -1.51465 0
M  V30 1754 O 171.598 0.54304 -1.80509 0
M  V30 1755 C 168.725 0.597129 -3.33395 0
M  V30 1756 C 167.771 -0.207937 -4.25993 0
M  V30 1757 S 168.604 -1.59158 -5.11301 0
M  V30 1758 C 169.76 -0.716791 -6.21782 0
M  V30 1759 H 169.993 -1.09383 -2.76446 0
M  V30 1760 H 167.526 -0.676828 -1.38775 0
M  V30 1761 H 169.484 1.09978 -3.95493 0
M  V30 1762 H 168.145 1.38099 -2.82113 0
M  V30 1763 H 167.338 0.464163 -5.01858 0
M  V30 1764 H 166.94 -0.642963 -3.68432 0
M  V30 1765 H 169.232 0.0692833 -6.77465 0
M  V30 1766 H 170.175 -1.44682 -6.93161 0
M  V30 1767 H 170.583 -0.280855 -5.63801 0
M  V30 1768 N 169.982 1.44106 -0.638065 0
M  V30 1769 C 171.23 2.01579 -0.145043 0
M  V30 1770 C 171.551 1.50496 1.24 0
M  V30 1771 O 170.821 0.711374 1.82527 0
M  V30 1772 H 169.401 0.745282 -0.05063 0
M  V30 1773 H 172.063 1.76516 -0.826327 0
M  V30 1774 H 171.159 3.11877 -0.118039 0
M  V30 1775 N 171.46 0.379036 1.52974 0
M  V30 1776 C 172.708 -0.206014 2.01047 0
M  V30 1777 C 173.029 -1.48175 1.26765 0
M  V30 1778 O 172.299 -1.92085 0.384743 0
M  V30 1779 H 170.879 -0.0791184 0.742798 0
M  V30 1780 H 173.541 0.508366 1.88153 0
M  V30 1781 H 172.637 -0.423501 3.09213 0
M  V30 1782 N 172.938 -1.57226 0.108567 0
M  V30 1783 C 173.888 -2.11305 -0.856396 0
M  V30 1784 C 174.872 -1.03129 -1.23504 0
M  V30 1785 O 176.064 -1.29381 -1.20787 0
M  V30 1786 C 173.193 -2.70771 -2.11041 0
M  V30 1787 C 172.279 -3.86011 -1.7566 0
M  V30 1788 N 172.67 -4.93492 -1.10902 0
M  V30 1789 C 170.968 -3.95999 -2.05185 0
M  V30 1790 C 171.669 -5.73984 -0.944308 0
M  V30 1791 N 170.645 -5.2346 -1.46596 0
M  V30 1792 H 174.447 -2.91784 -0.352002 0
M  V30 1793 H 171.961 -1.62126 -0.0942324 0
M  V30 1794 H 173.958 -3.07851 -2.81128 0
M  V30 1795 H 172.618 -1.91751 -2.62034 0
M  V30 1796 H 173.629 -5.1208 -0.774235 0
M  V30 1797 H 170.306 -3.28007 -2.58298 0
M  V30 1798 H 171.696 -6.70479 -0.436813 0
M  V30 1799 N 174.416 0.165178 -1.56732 0
M  V30 1800 C 175.349 1.23336 -1.91998 0
M  V30 1801 C 176.327 1.42476 -0.783531 0
M  V30 1802 O 177.511 1.57384 -1.03743 0
M  V30 1803 C 174.638 2.59533 -2.17625 0
M  V30 1804 C 173.684 2.57093 -3.40302 0
M  V30 1805 S 174.517 2.05571 -4.9447 0
M  V30 1806 C 175.673 3.43532 -5.23198 0
M  V30 1807 H 175.906 0.932387 -2.82301 0
M  V30 1808 H 173.439 0.370013 -1.49901 0
M  V30 1809 H 175.397 3.37918 -2.3307 0
M  V30 1810 H 174.058 2.86827 -1.28019 0
M  V30 1811 H 173.251 3.57308 -3.55453 0
M  V30 1812 H 172.853 1.86806 -3.24005 0
M  V30 1813 H 175.145 4.39559 -5.15552 0
M  V30 1814 H 176.088 3.33251 -6.2478 0
M  V30 1815 H 176.496 3.39828 -4.50752 0
M  V30 1816 N 175.894 1.51508 0.433938 0
M  V30 1817 C 177.142 1.6402 1.18075 0
M  V30 1818 C 177.463 0.360328 1.91642 0
M  V30 1819 O 176.733 -0.623945 1.85698 0
M  V30 1820 H 175.313 0.6045 0.43885 0
M  V30 1821 H 177.975 1.88452 0.497178 0
M  V30 1822 H 177.071 2.46949 1.90847 0
M  V30 1823 N 177.372 -0.689602 1.41712 0
M  V30 1824 C 178.62 -1.4468 1.4111 0
M  V30 1825 C 178.941 -1.94986 0.0232196 0
M  V30 1826 O 178.211 -1.72097 -0.935913 0
M  V30 1827 H 176.791 -0.536847 0.519427 0
M  V30 1828 H 179.453 -0.815825 1.77004 0
M  V30 1829 H 178.549 -2.30706 2.10193 0
M  V30 1830 N 178.85 -1.27639 -0.924453 0
M  V30 1831 C 179.78 -1.13166 -2.04244 0
M  V30 1832 C 180.761 -0.032256 -1.70069 0
M  V30 1833 O 181.946 -0.207328 -1.9309 0
M  V30 1834 C 179.076 -0.781496 -3.38393 0
M  V30 1835 C 178.03 -1.83449 -3.86692 0
M  V30 1836 C 177.356 -1.33822 -5.17683 0
M  V30 1837 C 178.656 -3.23917 -4.09726 0
M  V30 1838 H 180.35 -2.06689 -2.1661 0
M  V30 1839 H 177.896 -0.995136 -1.04082 0
M  V30 1840 H 179.849 -0.667057 -4.16087 0
M  V30 1841 H 178.573 0.189439 -3.2605 0
M  V30 1842 H 177.232 -1.93789 -3.11193 0
M  V30 1843 H 176.88 -0.35665 -5.01734 0
M  V30 1844 H 176.58 -2.04224 -5.50968 0
M  V30 1845 H 178.104 -1.23679 -5.97943 0
M  V30 1846 H 179.518 -3.16559 -4.77978 0
M  V30 1847 H 177.915 -3.92059 -4.54324 0
M  V30 1848 H 178.985 -3.68729 -3.14908 0
M  V30 1849 N 180.328 1.1314 -1.09713 0
M  V30 1850 C 181.553 1.88862 -0.857081 0
M  V30 1851 C 181.978 1.78729 0.586304 0
M  V30 1852 O 181.336 1.13692 1.41222 0
M  V30 1853 C 181.384 3.36325 -1.30069 0
M  V30 1854 O 180.488 4.09815 -0.461007 0
M  V30 1855 H 179.829 0.587108 -0.310162 0
M  V30 1856 H 182.359 1.43129 -1.46203 0
M  V30 1857 H 182.369 3.87157 -1.28738 0
M  V30 1858 H 181.044 3.43017 -2.35185 0
M  V30 1859 H 179.621 3.68986 -0.538888 0
M  V30 1860 N 181.806 0.884767 1.30421 0
M  V30 1861 C 183.054 0.502112 1.95763 0
M  V30 1862 C 183.375 -0.951815 1.70192 0
M  V30 1863 O 182.645 -1.6692 1.0254 0
M  V30 1864 H 181.225 0.182694 0.724315 0
M  V30 1865 H 183.887 1.1278 1.58955 0
M  V30 1866 H 182.983 0.672188 3.04775 0
M  V30 1867 N 183.284 -1.43765 0.645699 0
M  V30 1868 C 184.512 -2.06253 0.163556 0
M  V30 1869 C 184.927 -1.48352 -1.16778 0
M  V30 1870 O 184.284 -0.611932 -1.71935 0
M  V30 1871 C 184.335 -3.61453 0.0583186 0
M  V30 1872 O 184.056 -4.172 1.33702 0
M  V30 1873 C 185.557 -4.41002 -0.450795 0
M  V30 1874 H 182.777 -0.665413 0.0864077 0
M  V30 1875 H 185.321 -1.84396 0.884222 0
M  V30 1876 H 183.476 -3.82522 -0.612865 0
M  V30 1877 H 183.89 -5.10791 1.19131 0
M  V30 1878 H 185.364 -5.49966 -0.473403 0
M  V30 1879 H 185.841 -4.13488 -1.48068 0
M  V30 1880 H 186.447 -4.24886 0.187637 0
M  V30 1881 N 184.763 -0.387143 -1.52771 0
M  V30 1882 C 185.991 0.195869 -2.05971 0
M  V30 1883 C 186.406 1.40691 -1.25903 0
M  V30 1884 O 185.763 1.79931 -0.305134 0
M  V30 1885 C 185.814 0.56812 -3.57008 0
M  V30 1886 O 185.535 -0.594803 -4.34043 0
M  V30 1887 C 187.036 1.20723 -4.26545 0
M  V30 1888 H 184.256 0.0300578 -0.670326 0
M  V30 1889 H 186.8 -0.551749 -1.96916 0
M  V30 1890 H 184.955 1.26564 -3.66143 0
M  V30 1891 H 185.369 -0.289322 -5.23701 0
M  V30 1892 H 186.843 1.41807 -5.33474 0
M  V30 1893 H 187.32 2.17395 -3.81623 0
M  V30 1894 H 187.926 0.550535 -4.21722 0
M  V30 1895 N 186.241 1.57166 -0.116904 0
M  V30 1896 C 187.188 2.15202 0.83408 0
M  V30 1897 C 188.158 1.07644 1.26499 0
M  V30 1898 O 189.343 1.35541 1.34288 0
M  V30 1899 C 186.483 2.75405 2.07957 0
M  V30 1900 C 185.596 3.97264 1.69721 0
M  V30 1901 C 184.731 4.45561 2.89221 0
M  V30 1902 C 183.77 5.59956 2.47215 0
M  V30 1903 N 182.907 6.03006 3.59622 0
M  V30 1904 H 187.747 2.96141 0.332335 0
M  V30 1905 H 185.284 1.46309 0.152349 0
M  V30 1906 H 187.242 3.08439 2.80929 0
M  V30 1907 H 185.872 1.97159 2.55594 0
M  V30 1908 H 184.924 3.70404 0.866316 0
M  V30 1909 H 186.236 4.80226 1.34849 0
M  V30 1910 H 185.39 4.80493 3.7042 0
M  V30 1911 H 184.129 3.61544 3.27318 0
M  V30 1912 H 183.134 5.2463 1.64448 0
M  V30 1913 H 184.359 6.45738 2.10238 0
M  V30 1914 H 182.305 5.21931 3.97396 0
M  V30 1915 H 182.222 6.80819 3.28667 0
M  V30 1916 H 183.49 6.42576 4.41267 0
M  V30 1917 N 187.719 -0.156864 1.56817 0
M  V30 1918 C 188.965 -0.872416 1.83076 0
M  V30 1919 C 189.298 -1.81261 0.697001 0
M  V30 1920 O 188.573 -1.92171 -0.30008 0
M  V30 1921 C 188.856 -1.65551 3.19789 0
M  V30 1922 C 188.709 -0.737467 4.43713 0
M  V30 1923 C 190.028 -2.62012 3.53606 0
M  V30 1924 H 187.147 -0.315715 0.665953 0
M  V30 1925 H 189.789 -0.138004 1.89498 0
M  V30 1926 H 187.939 -2.28159 3.14445 0
M  V30 1927 H 189.611 -0.123143 4.61136 0
M  V30 1928 H 187.854 -0.0464067 4.33775 0
M  V30 1929 H 188.525 -1.32122 5.35955 0
M  V30 1930 H 191.001 -2.09525 3.59497 0
M  V30 1931 H 189.877 -3.13861 4.50314 0
M  V30 1932 H 190.138 -3.42902 2.79053 0
M  V30 1933 N 189.197 -1.51736 -0.425897 0
M  V30 1934 C 190.425 -1.68794 -1.1965 0
M  V30 1935 C 190.84 -0.390164 -1.84725 0
M  V30 1936 O 190.197 0.632376 -1.71194 0
M  V30 1937 C 190.248 -2.81174 -2.27208 0
M  V30 1938 O 189.969 -4.05925 -1.64793 0
M  V30 1939 C 191.47 -3.09599 -3.17275 0
M  V30 1940 H 188.69 -0.566128 -0.360194 0
M  V30 1941 H 191.234 -1.98211 -0.503249 0
M  V30 1942 H 189.389 -2.54324 -2.9223 0
M  V30 1943 H 189.803 -4.68423 -2.35967 0
M  V30 1944 H 191.277 -3.91786 -3.88854 0
M  V30 1945 H 191.754 -2.22468 -3.78688 0
M  V30 1946 H 192.36 -3.38151 -2.57941 0
M  V30 1947 N 190.675 0.682077 -1.42076 0
M  V30 1948 C 191.924 1.43786 -1.41451 0
M  V30 1949 C 192.237 1.95574 -0.0317074 0
M  V30 1950 O 193.443 2.71326 0.0971462 0
M  V30 1951 C 191.899 2.60071 -2.48779 0
M  V30 1952 C 191.507 2.15013 -3.93031 0
M  V30 1953 C 193.251 3.37626 -2.57311 0
M  V30 1954 C 191.158 3.28336 -4.91883 0
M  V30 1955 H 190.088 0.540143 -0.526082 0
M  V30 1956 H 192.739 0.739157 -1.67955 0
M  V30 1957 H 191.121 3.32275 -2.15429 0
M  V30 1958 H 192.295 1.5001 -4.35699 0
M  V30 1959 H 190.61 1.50416 -3.88284 0
M  V30 1960 H 193.207 4.22012 -3.28345 0
M  V30 1961 H 193.55 3.83727 -1.61429 0
M  V30 1962 H 194.083 2.72488 -2.89819 0
M  V30 1963 H 190.822 2.87234 -5.89217 0
M  V30 1964 H 190.342 3.92145 -4.53853 0
M  V30 1965 H 192.021 3.93913 -5.13265 0
M  V30 1966 N 192.153 1.28127 0.917671 0
M  V30 1967 C 193.381 1.17892 1.70026 0
M  V30 1968 C 193.796 -0.262958 1.8696 0
M  V30 1969 O 193.153 -1.17811 1.3938 0
M  V30 1970 C 193.204 1.86872 3.09453 0
M  V30 1971 O 192.925 3.25428 2.93306 0
M  V30 1972 C 194.426 1.8289 4.03815 0
M  V30 1973 H 191.646 0.40942 0.531617 0
M  V30 1974 H 194.19 1.69181 1.14883 0
M  V30 1975 H 192.345 1.39464 3.61426 0
M  V30 1976 H 192.759 3.59918 3.81523 0
M  V30 1977 H 194.233 2.35751 4.99125 0
M  V30 1978 H 194.71 0.800412 4.31845 0
M  V30 1979 H 195.316 2.29959 3.57769 0
M  V30 1980 N 193.631 -1.12557 1.10312 0
M  V30 1981 C 194.561 -2.20341 0.772798 0
M  V30 1982 C 195.542 -1.68198 -0.25365 0
M  V30 1983 O 196.727 -1.93831 -0.119699 0
M  V30 1984 C 193.857 -3.46709 0.202443 0
M  V30 1985 C 192.811 -4.11996 1.15943 0
M  V30 1986 C 192.137 -5.328 0.450345 0
M  V30 1987 C 193.437 -4.5828 2.50552 0
M  V30 1988 H 195.131 -2.48229 1.674 0
M  V30 1989 H 192.677 -1.19308 0.806326 0
M  V30 1990 H 194.63 -4.2138 -0.0407752 0
M  V30 1991 H 193.354 -3.18245 -0.734001 0
M  V30 1992 H 192.013 -3.39305 1.38808 0
M  V30 1993 H 191.661 -5.00602 -0.490531 0
M  V30 1994 H 191.361 -5.7743 1.08851 0
M  V30 1995 H 192.885 -6.10219 0.215642 0
M  V30 1996 H 194.299 -5.2433 2.31843 0
M  V30 1997 H 192.696 -5.13683 3.10242 0
M  V30 1998 H 193.766 -3.72329 3.10643 0
M  V30 1999 N 195.109 -0.891671 -1.2995 0
M  V30 2000 C 196.337 -0.52866 -2.00032 0
M  V30 2001 C 196.752 0.884574 -1.66795 0
M  V30 2002 O 196.109 1.5827 -0.908669 0
M  V30 2003 C 196.16 -0.701814 -3.54622 0
M  V30 2004 O 195.881 -2.05942 -3.86678 0
M  V30 2005 C 197.382 -0.342683 -4.41973 0
M  V30 2006 H 194.602 -0.203659 -0.639347 0
M  V30 2007 H 197.146 -1.19881 -1.65677 0
M  V30 2008 H 195.301 -0.0789468 -3.8732 0
M  V30 2009 H 195.715 -2.08291 -4.81368 0
M  V30 2010 H 197.189 -0.514709 -5.49595 0
M  V30 2011 H 197.666 0.71975 -4.33262 0
M  V30 2012 H 198.272 -0.942154 -4.14733 0
M  V30 2013 N 196.587 1.43421 -0.653314 0
M  V30 2014 C 197.864 1.95361 -0.0966581 0
M  V30 2015 C 198.244 1.59461 1.38331 0
M  V30 2016 O 197.592 0.879777 2.10884 0
M  V30 2017 C 197.802 3.47311 -0.342988 0
M  V30 2018 C 199.15 4.23875 -0.24798 0
M  V30 2019 O 200.174 3.55133 -0.275553 0
M  V30 2020 O 199.033 5.4623 -0.171771 0
M  V30 2021 H 196.127 0.826945 0.00956291 0
M  V30 2022 H 198.673 1.5336 -0.726558 0
M  V30 2023 H 197.445 3.66569 -1.36906 0
M  V30 2024 H 197.068 3.9631 0.319975 0
M  V30 2025 N 198.065 0.39524 1.52563 0
M  V30 2026 C 199.311 -0.185318 2.01952 0
M  V30 2027 C 199.644 -1.45964 1.28095 0
M  V30 2028 O 198.919 -1.90689 0.38315 0
M  V30 2029 C 199.202 -0.447193 3.57312 0
M  V30 2030 C 199.055 0.842828 4.41833 0
M  V30 2031 C 200.374 -1.23529 4.22408 0
M  V30 2032 H 197.493 -0.0658788 0.73405 0
M  V30 2033 H 200.135 0.525975 1.82575 0
M  V30 2034 H 198.285 -1.05312 3.73954 0
M  V30 2035 H 199.957 1.4795 4.36931 0
M  V30 2036 H 198.2 1.45686 4.08605 0
M  V30 2037 H 198.871 0.614165 5.48573 0
M  V30 2038 H 201.347 -0.722445 4.0978 0
M  V30 2039 H 200.223 -1.38727 5.3108 0
M  V30 2040 H 200.484 -2.25213 3.80436 0
M  V30 2041 N 199.544 -1.57102 0.125237 0
M  V30 2042 C 200.492 -2.16905 -0.839927 0
M  V30 2043 C 201.486 -1.11998 -1.27094 0
M  V30 2044 O 202.692 -1.3029 -1.24195 0
M  V30 2045 H 199.067 -0.694252 -0.288995 0
M  V30 2046 H 201.038 -2.96774 -0.311115 0
M  V30 2047 C 199.787 -2.78795 -2.07771 0
M  V30 2048 H 199.11 -3.59221 -1.755 0
M  V30 2049 H 200.55 -3.2417 -2.73295 0
M  V30 2050 C 199.009 -1.76193 -2.87155 0
M  V30 2051 O 199.539 -1.21909 -3.82755 0
M  V30 2052 N 197.745 -1.45991 -2.51267 0
M  V30 2053 H 197.292 -1.90325 -1.73592 0
M  V30 2054 H 197.25 -0.775844 -3.04677 0
M  V30 2055 N 201.022 0.148545 -1.56898 0
M  V30 2056 C 202.299 0.890019 -1.74178 0
M  V30 2057 C 202.679 1.99407 -0.692839 0
M  V30 2058 O 202.027 2.26671 0.288505 0
M  V30 2059 C 202.237 1.43389 -3.18183 0
M  V30 2060 C 203.585 1.89791 -3.79822 0
M  V30 2061 O 204.609 1.53134 -3.21603 0
M  V30 2062 O 203.468 2.57387 -4.82093 0
M  V30 2063 H 200.562 0.420496 -0.712118 0
M  V30 2064 H 203.108 0.134591 -1.69165 0
M  V30 2065 H 201.88 0.640383 -3.86024 0
M  V30 2066 H 201.503 2.25287 -3.27615 0
M  V30 2067 N 202.5 1.5196 0.417844 0
M  V30 2068 C 203.448 1.75278 1.52907 0
M  V30 2069 C 204.442 0.619611 1.57662 0
M  V30 2070 O 205.648 0.801457 1.61173 0
M  V30 2071 H 202.023 0.554141 0.508362 0
M  V30 2072 H 203.994 2.68389 1.30422 0
M  V30 2073 C 202.743 1.91262 2.90369 0
M  V30 2074 H 202.066 2.77872 2.8745 0
M  V30 2075 H 203.506 2.11581 3.67436 0
M  V30 2076 C 201.965 0.677431 3.30019 0
M  V30 2077 O 202.495 -0.158799 4.01386 0
M  V30 2078 N 200.701 0.515851 2.85985 0
M  V30 2079 H 200.248 1.19744 2.28077 0
M  V30 2080 H 200.206 -0.309315 3.12875 0
M  V30 2081 N 203.978 -0.674533 1.42435 0
M  V30 2082 C 205.389 -1.25514 1.38214 0
M  V30 2083 C 205.74 -1.96055 0.0755464 0
M  V30 2084 O 204.865 -2.00028 -0.8257 0
M  V30 2085 C 205.46 -2.28269 2.50357 0
M  V30 2086 C 204.019 -2.81856 2.49467 0
M  V30 2087 C 203.166 -1.56182 2.29134 0
M  V30 2088 H 206.117 -0.467902 1.51646 0
M  V30 2089 H 206.138 -3.10009 2.20624 0
M  V30 2090 H 205.65 -1.769 3.45439 0
M  V30 2091 H 203.751 -3.37346 1.58204 0
M  V30 2092 H 203.864 -3.30854 3.46515 0
M  V30 2093 H 202.228 -1.82761 1.774 0
M  V30 2094 H 203.011 -1.06778 3.26272 0
M  V30 2095 N 205.456 -1.28612 -0.910864 0
M  V30 2096 C 206.867 -1.14406 -1.47541 0
M  V30 2097 C 207.218 0.264901 -1.94403 0
M  V30 2098 O 206.343 1.15942 -1.82719 0
M  V30 2099 C 206.938 -2.07073 -2.68153 0
M  V30 2100 C 205.497 -1.96923 -3.20778 0
M  V30 2101 C 204.644 -1.98646 -1.93481 0
M  V30 2102 H 207.595 -1.41259 -0.723291 0
M  V30 2103 H 207.616 -1.63642 -3.43514 0
M  V30 2104 H 207.128 -3.09611 -2.34015 0
M  V30 2105 H 205.229 -0.97433 -3.59635 0
M  V30 2106 H 205.342 -2.84026 -3.85832 0
M  V30 2107 H 203.706 -1.43093 -2.10705 0
M  V30 2108 H 204.489 -3.02868 -1.61634 0
M  V30 2109 N 206.934 1.1197 -1.10907 0
M  V30 2110 C 207.881 2.17846 -0.762345 0
M  V30 2111 C 208.851 1.63995 0.263599 0
M  V30 2112 O 210.036 1.90273 0.141773 0
M  V30 2113 C 207.176 3.44487 -0.205651 0
M  V30 2114 C 206.289 4.12369 -1.28748 0
M  V30 2115 C 205.424 5.26674 -0.691919 0
M  V30 2116 C 204.463 5.86431 -1.75399 0
M  V30 2117 N 203.6 6.92142 -1.17833 0
M  V30 2118 H 208.44 2.46851 -1.6694 0
M  V30 2119 H 205.977 1.21188 -0.833776 0
M  V30 2120 H 207.935 4.16981 0.135037 0
M  V30 2121 H 206.565 3.15884 0.664613 0
M  V30 2122 H 205.617 3.38003 -1.74522 0
M  V30 2123 H 206.929 4.52844 -2.09125 0
M  V30 2124 H 206.083 6.05953 -0.300963 0
M  V30 2125 H 204.822 4.8749 0.143232 0
M  V30 2126 H 203.827 5.05835 -2.15432 0
M  V30 2127 H 205.052 6.27685 -2.59208 0
M  V30 2128 H 202.998 6.54985 -0.364725 0
M  V30 2129 H 202.915 7.31242 -1.91887 0
M  V30 2130 H 204.183 7.75237 -0.81408 0
M  V30 2131 N 208.412 0.89855 1.29475 0
M  V30 2132 C 209.659 0.523882 1.95606 0
M  V30 2133 C 209.987 -0.929608 1.70847 0
M  V30 2134 O 209.242 -1.67401 1.01367 0
M  V30 2135 C 209.541 0.761398 3.49195 0
M  V30 2136 C 209.207 2.19207 3.94029 0
M  V30 2137 C 207.869 2.58326 4.05982 0
M  V30 2138 C 210.221 3.12379 4.17216 0
M  V30 2139 C 207.549 3.898 4.38489 0
M  V30 2140 C 209.901 4.43401 4.51197 0
M  V30 2141 C 208.565 4.82394 4.61359 0
M  V30 2142 H 207.835 0.191702 0.715773 0
M  V30 2143 H 210.482 1.13699 1.54094 0
M  V30 2144 H 208.787 0.0653622 3.91745 0
M  V30 2145 H 210.484 0.450904 3.98457 0
M  V30 2146 H 207.074 1.87846 3.85242 0
M  V30 2147 H 211.258 2.83371 4.07449 0
M  V30 2148 H 206.514 4.19734 4.44559 0
M  V30 2149 H 210.688 5.15623 4.68087 0
M  V30 2150 H 208.315 5.84306 4.86303 0
M  V30 2151 N 209.89 -1.43072 0.660911 0
M  V30 2152 C 211.301 -1.84932 0.256348 0
M  V30 2153 C 211.652 -1.55325 -1.19868 0
M  V30 2154 O 210.777 -1.00607 -1.91591 0
M  V30 2155 C 211.372 -3.35684 0.458475 0
M  V30 2156 C 209.931 -3.76245 0.108161 0
M  V30 2157 C 209.078 -2.66749 0.757641 0
M  V30 2158 H 212.029 -1.33116 0.864051 0
M  V30 2159 H 212.05 -3.79365 -0.293683 0
M  V30 2160 H 211.562 -3.572 1.51755 0
M  V30 2161 H 209.663 -3.60338 -0.948014 0
M  V30 2162 H 209.776 -4.76058 0.538992 0
M  V30 2163 H 208.14 -2.53989 0.190185 0
M  V30 2164 H 208.923 -2.91092 1.81989 0
M  V30 2165 N 211.368 -0.403325 -1.52352 0
M  V30 2166 C 212.3 0.4603 -2.2453 0
M  V30 2167 C 213.313 1.01505 -1.27282 0
M  V30 2168 O 214.502 0.914982 -1.53266 0
M  V30 2169 C 211.602 1.65208 -2.95905 0
M  V30 2170 C 210.775 1.22224 -4.19976 0
M  V30 2171 C 209.834 2.28028 -4.74226 0
M  V30 2172 O 208.86 1.88857 -5.36956 0
M  V30 2173 N 210.062 3.6012 -4.55295 0
M  V30 2174 H 212.827 -0.158156 -2.99282 0
M  V30 2175 H 210.388 -0.230402 -1.60252 0
M  V30 2176 H 212.38 2.35541 -3.29093 0
M  V30 2177 H 210.95 2.17658 -2.24374 0
M  V30 2178 H 210.17 0.34725 -3.92668 0
M  V30 2179 H 211.458 0.911924 -5.00561 0
M  V30 2180 H 210.856 3.94698 -4.05253 0
M  V30 2181 H 209.413 4.26447 -4.92936 0
M  V30 2182 N 212.846 1.57033 -0.133567 0
M  V30 2183 C 214.071 2.00475 0.531477 0
M  V30 2184 C 214.496 1.01291 1.58499 0
M  V30 2185 O 213.854 -0.0133279 1.81295 0
M  V30 2186 C 213.902 3.42729 1.12113 0
M  V30 2187 O 213.006 3.46498 2.23636 0
M  V30 2188 H 212.347 0.650876 0.131362 0
M  V30 2189 H 214.877 2.03344 -0.22634 0
M  V30 2190 H 214.887 3.81246 1.4531 0
M  V30 2191 H 213.562 4.14428 0.349557 0
M  V30 2192 H 212.139 3.19811 1.91769 0
M  V30 2193 N 214.325 -0.140222 1.56975 0
M  V30 2194 C 215.571 -0.852949 1.83991 0
M  V30 2195 C 215.904 -1.80512 0.716187 0
M  V30 2196 O 215.179 -1.92479 -0.279681 0
M  V30 2197 C 215.462 -1.6215 3.21527 0
M  V30 2198 C 215.315 -0.690363 4.4447 0
M  V30 2199 C 216.634 -2.58247 3.56366 0
M  V30 2200 H 213.753 -0.308634 0.669264 0
M  V30 2201 H 216.395 -0.117898 1.89634 0
M  V30 2202 H 214.545 -2.24812 3.16847 0
M  V30 2203 H 216.217 -0.0742264 4.6124 0
M  V30 2204 H 214.46 -0.000396433 4.338 0
M  V30 2205 H 215.131 -1.2643 5.37326 0
M  V30 2206 H 217.607 -2.05701 3.61699 0
M  V30 2207 H 216.483 -3.09067 4.53617 0
M  V30 2208 H 216.744 -3.39923 2.82674 0
M  V30 2209 N 215.803 -1.52179 -0.40978 0
M  V30 2210 C 217.033 -1.69807 -1.17682 0
M  V30 2211 C 217.441 -0.406908 -1.84773 0
M  V30 2212 O 216.784 0.626863 -1.72673 0
M  V30 2213 C 216.846 -2.77712 -2.2829 0
M  V30 2214 C 216.51 -4.19481 -1.81341 0
M  V30 2215 C 217.507 -5.03345 -1.30154 0
M  V30 2216 C 215.192 -4.65713 -1.88194 0
M  V30 2217 C 217.186 -6.31511 -0.864416 0
M  V30 2218 C 214.873 -5.93869 -1.44093 0
M  V30 2219 C 215.871 -6.76597 -0.933023 0
M  V30 2220 O 215.559 -8.02354 -0.49838 0
M  V30 2221 H 215.291 -0.572372 -0.359675 0
M  V30 2222 H 217.845 -1.99511 -0.488311 0
M  V30 2223 H 216.075 -2.43383 -3.00502 0
M  V30 2224 H 217.764 -2.83946 -2.90051 0
M  V30 2225 H 218.53 -4.68819 -1.24232 0
M  V30 2226 H 214.409 -4.01424 -2.26671 0
M  V30 2227 H 217.953 -6.96033 -0.467286 0
M  V30 2228 H 213.85 -6.27903 -1.49694 0
M  V30 2229 H 214.618 -8.16135 -0.621747 0
M  V30 2230 N 217.281 0.66697 -1.42791 0
M  V30 2231 C 218.213 1.7925 -1.42836 0
M  V30 2232 C 219.226 1.59496 -0.326333 0
M  V30 2233 O 220.415 1.6847 -0.589916 0
M  V30 2234 C 217.515 3.16476 -1.21229 0
M  V30 2235 C 216.688 3.63011 -2.44013 0
M  V30 2236 C 215.747 4.78993 -2.17834 0
M  V30 2237 O 214.773 4.89137 -2.91091 0
M  V30 2238 N 215.975 5.68248 -1.18635 0
M  V30 2239 H 218.74 1.79695 -2.39854 0
M  V30 2240 H 216.301 0.850338 -1.37771 0
M  V30 2241 H 218.293 3.91734 -1.01621 0
M  V30 2242 H 216.863 3.10884 -0.32706 0
M  V30 2243 H 216.083 2.78346 -2.79137 0
M  V30 2244 H 217.371 3.90845 -3.25757 0
M  V30 2245 H 216.769 5.62712 -0.580615 0
M  V30 2246 H 215.326 6.43285 -1.05013 0
M  V30 2247 N 218.759 1.29093 0.90403 0
M  V30 2248 C 219.692 1.08176 2.00931 0
M  V30 2249 C 220.67 -0.005083 1.62599 0
M  V30 2250 O 221.854 0.144765 1.87943 0
M  V30 2251 C 218.981 0.645897 3.32484 0
M  V30 2252 C 218.027 1.73081 3.89801 0
M  V30 2253 S 218.86 3.32905 4.19446 0
M  V30 2254 C 220.016 2.91176 5.54046 0
M  V30 2255 H 220.249 2.01752 2.18365 0
M  V30 2256 H 217.782 1.13191 1.0501 0
M  V30 2257 H 219.74 0.401131 4.08535 0
M  V30 2258 H 218.401 -0.270188 3.12936 0
M  V30 2259 H 217.594 1.37768 4.84805 0
M  V30 2260 H 217.196 1.92888 3.20422 0
M  V30 2261 H 219.488 2.37952 6.34338 0
M  V30 2262 H 220.431 3.85014 5.94281 0
M  V30 2263 H 220.839 2.296 5.15698 0
M  V30 2264 N 220.237 -1.11381 1.11499 0
M  V30 2265 C 221.462 -1.87475 0.887019 0
M  V30 2266 C 221.887 -1.79639 -0.557796 0
M  V30 2267 O 221.245 -1.15924 -1.39396 0
M  V30 2268 C 221.293 -3.34213 1.35403 0
M  V30 2269 O 220.397 -4.0903 0.526146 0
M  V30 2270 H 219.738 -0.582099 0.319463 0
M  V30 2271 H 222.268 -1.40785 1.48461 0
M  V30 2272 H 222.278 -3.8506 1.34881 0
M  V30 2273 H 220.953 -3.39232 2.40612 0
M  V30 2274 H 219.53 -3.68082 0.597522 0
M  V30 2275 N 221.715 -0.905404 -1.28997 0
M  V30 2276 C 222.961 -0.535039 -1.95615 0
M  V30 2277 C 223.294 0.917404 -1.71165 0
M  V30 2278 O 222.569 1.65123 -1.02785 0
M  V30 2279 C 222.852 -0.834918 -3.50287 0
M  V30 2280 C 222.705 -2.33948 -3.84172 0
M  V30 2281 C 224.024 -0.325318 -4.38896 0
M  V30 2282 H 221.143 -0.195861 -0.710498 0
M  V30 2283 H 223.785 -1.13313 -1.52513 0
M  V30 2284 H 221.935 -0.325904 -3.87131 0
M  V30 2285 H 223.607 -2.91847 -3.57243 0
M  V30 2286 H 221.85 -2.79789 -3.31513 0
M  V30 2287 H 222.521 -2.49987 -4.92149 0
M  V30 2288 H 224.997 -0.761256 -4.09077 0
M  V30 2289 H 223.873 -0.564295 -5.45992 0
M  V30 2290 H 224.134 0.774144 -4.35269 0
M  V30 2291 N 223.193 1.4272 -0.668489 0
M  V30 2292 C 224.418 2.06484 -0.194758 0
M  V30 2293 C 224.843 1.49862 1.13679 0
M  V30 2294 O 224.201 0.614582 1.70565 0
M  V30 2295 C 224.249 3.60353 -0.133546 0
M  V30 2296 O 223.353 4.02464 0.899806 0
M  V30 2297 H 222.694 0.656137 -0.10188 0
M  V30 2298 H 225.224 1.82964 -0.915722 0
M  V30 2299 H 225.234 4.07976 0.0447041 0
M  V30 2300 H 223.909 4.00938 -1.1055 0
M  V30 2301 H 222.486 3.66402 0.693109 0
M  V30 2302 N 224.671 0.411399 1.52136 0
M  V30 2303 C 225.581 -0.419774 2.30814 0
M  V30 2304 C 226.597 -1.0515 1.38634 0
M  V30 2305 O 227.773 -1.05252 1.71709 0
M  V30 2306 C 224.838 -1.52019 3.11594 0
M  V30 2307 C 223.899 -0.91129 4.19516 0
M  V30 2308 C 223.132 -1.95927 4.96436 0
M  V30 2309 O 223.355 -3.17775 4.73683 0
M  V30 2310 O 222.289 -1.56423 5.81219 0
M  V30 2311 H 226.115 0.221805 3.02889 0
M  V30 2312 H 223.7 0.174547 1.48377 0
M  V30 2313 H 225.582 -2.15898 3.61892 0
M  V30 2314 H 224.257 -2.14633 2.42311 0
M  V30 2315 H 223.164 -0.235157 3.7336 0
M  V30 2316 H 224.497 -0.32904 4.91099 0
M  V30 2317 N 226.149 -1.5696 0.141893 0
M  V30 2318 C 227.112 -2.15316 -0.785587 0
M  V30 2319 C 228.112 -1.09366 -1.1788 0
M  V30 2320 O 229.302 -1.35031 -1.10056 0
M  V30 2321 C 226.434 -2.71211 -2.06537 0
M  V30 2322 H 227.627 -2.98608 -0.278041 0
M  V30 2323 H 225.18 -1.5593 -0.107519 0
M  V30 2324 H 225.915 -1.91571 -2.6167 0
M  V30 2325 H 225.7 -3.4872 -1.79268 0
M  V30 2326 H 227.19 -3.16189 -2.72789 0
M  V30 2327 N 227.627 0.131896 -1.57047 0
M  V30 2328 C 228.59 1.14638 -1.98471 0
M  V30 2329 C 229.59 1.35029 -0.873148 0
M  V30 2330 O 230.78 1.31764 -1.13946 0
M  V30 2331 C 227.912 2.50358 -2.31373 0
M  V30 2332 H 229.105 0.79064 -2.8929 0
M  V30 2333 H 226.658 0.375761 -1.51716 0
M  V30 2334 H 227.393 2.90876 -1.43393 0
M  V30 2335 H 227.178 2.36915 -3.12432 0
M  V30 2336 H 228.668 3.23395 -2.64207 0
M  V30 2337 N 229.106 1.52395 0.401703 0
M  V30 2338 C 230.352 1.67065 1.14966 0
M  V30 2339 C 230.685 0.403052 1.89971 0
M  V30 2340 O 229.96 -0.598774 1.85054 0
M  V30 2341 C 230.243 2.8975 2.13815 0
M  V30 2342 C 230.096 4.26578 1.42658 0
M  V30 2343 C 231.415 3.07965 3.14397 0
M  V30 2344 H 228.534 0.607968 0.416587 0
M  V30 2345 H 231.176 1.84965 0.434511 0
M  V30 2346 H 229.326 2.74619 2.74803 0
M  V30 2347 H 230.998 4.53451 0.847329 0
M  V30 2348 H 229.241 4.27639 0.72849 0
M  V30 2349 H 229.912 5.08483 2.14823 0
M  V30 2350 H 232.388 3.22043 2.63491 0
M  V30 2351 H 231.264 3.95308 3.80819 0
M  V30 2352 H 231.525 2.21611 3.82545 0
M  V30 2353 N 230.584 -0.659388 1.43143 0
M  V30 2354 C 231.995 -1.24041 1.39537 0
M  V30 2355 C 232.346 -1.95963 0.0963364 0
M  V30 2356 O 231.471 -2.00892 -0.804438 0
M  V30 2357 C 232.066 -2.25601 2.52764 0
M  V30 2358 C 230.625 -2.79195 2.52443 0
M  V30 2359 C 229.772 -1.53743 2.30778 0
M  V30 2360 H 232.723 -0.451792 1.52133 0
M  V30 2361 H 232.744 -3.07651 2.23899 0
M  V30 2362 H 232.256 -1.73226 3.47296 0
M  V30 2363 H 230.357 -3.35649 1.61773 0
M  V30 2364 H 230.47 -3.2716 3.50004 0
M  V30 2365 H 228.834 -1.80869 1.79328 0
M  V30 2366 H 229.617 -1.03312 3.27386 0
M  V30 2367 N 232.062 -1.29571 -0.897171 0
M  V30 2368 C 233.31 -1.17456 -1.64464 0
M  V30 2369 C 233.631 0.273698 -1.9307 0
M  V30 2370 O 232.901 1.18684 -1.55855 0
M  V30 2371 H 231.481 -0.431706 -0.609622 0
M  V30 2372 H 234.143 -1.62531 -1.07562 0
M  V30 2373 H 233.239 -1.72648 -2.59998 0
M  V30 2374 N 233.54 1.10788 -1.12088 0
M  V30 2375 C 234.45 2.20599 -0.798338 0
M  V30 2376 C 235.466 1.72712 0.21135 0
M  V30 2377 O 236.642 2.01348 0.0458477 0
M  V30 2378 C 233.707 3.45771 -0.253674 0
M  V30 2379 C 232.768 4.08411 -1.32283 0
M  V30 2380 C 232.001 5.27608 -0.80406 0
M  V30 2381 O 232.224 5.69241 0.363478 0
M  V30 2382 O 231.158 5.8101 -1.57198 0
M  V30 2383 H 234.984 2.50614 -1.7154 0
M  V30 2384 H 232.569 1.19454 -0.897275 0
M  V30 2385 H 234.451 4.21376 0.0453691 0
M  V30 2386 H 233.126 3.1739 0.636005 0
M  V30 2387 H 232.033 3.34507 -1.67499 0
M  V30 2388 H 233.366 4.40986 -2.18614 0
M  V30 2389 N 235.018 0.912232 1.28515 0
M  V30 2390 C 235.928 0.404506 2.31086 0
M  V30 2391 C 236.944 -0.50707 1.66448 0
M  V30 2392 O 238.12 -0.393624 1.97516 0
M  V30 2393 C 235.185 -0.348572 3.44943 0
M  V30 2394 C 234.246 0.59604 4.25142 0
M  V30 2395 C 233.479 -0.121194 5.33562 0
M  V30 2396 O 233.702 -1.34317 5.5436 0
M  V30 2397 O 232.636 0.542716 5.99448 0
M  V30 2398 H 236.462 1.25579 2.76521 0
M  V30 2399 H 234.047 0.676998 1.33181 0
M  V30 2400 H 235.929 -0.77395 4.14232 0
M  V30 2401 H 234.604 -1.17571 3.01594 0
M  V30 2402 H 233.511 1.07079 3.58448 0
M  V30 2403 H 234.844 1.38995 4.72167 0
M  V30 2404 N 236.496 -1.42363 0.676048 0
M  V30 2405 C 237.742 -2.0182 0.199125 0
M  V30 2406 C 238.075 -1.53339 -1.19168 0
M  V30 2407 O 237.35 -0.736124 -1.80032 0
M  V30 2408 C 237.633 -3.59331 0.235144 0
M  V30 2409 C 237.486 -4.17989 1.66149 0
M  V30 2410 C 238.805 -4.3813 -0.41595 0
M  V30 2411 H 235.924 -0.733293 0.0738311 0
M  V30 2412 H 238.566 -1.69368 0.86107 0
M  V30 2413 H 236.716 -3.87109 -0.328487 0
M  V30 2414 H 238.388 -4.0116 2.27747 0
M  V30 2415 H 236.631 -3.7377 2.20178 0
M  V30 2416 H 237.302 -5.27126 1.63837 0
M  V30 2417 H 239.778 -4.16051 0.0638529 0
M  V30 2418 H 238.654 -5.47717 -0.360115 0
M  V30 2419 H 238.915 -4.16101 -1.49373 0
M  V30 2420 N 237.974 -0.419461 -1.51915 0
M  V30 2421 C 239.222 0.152637 -2.01523 0
M  V30 2422 C 239.543 1.44762 -1.30649 0
M  V30 2423 O 238.813 1.90997 -0.435535 0
M  V30 2424 H 237.393 0.0593966 -0.744635 0
M  V30 2425 H 240.055 -0.558073 -1.86739 0
M  V30 2426 H 239.151 0.341369 -3.10227 0
M  V30 2427 N 239.452 1.56882 -0.150215 0
M  V30 2428 C 240.868 1.58263 0.20617 0
M  V30 2429 C 241.068 1.16464 1.64434 0
M  V30 2430 O 240.124 0.866422 2.3717 0
M  V30 2431 C 241.437 3.00649 -0.0555025 0
M  V30 2432 C 242.985 3.12999 0.00795388 0
M  V30 2433 C 243.46 4.5744 -0.226429 0
M  V30 2434 N 244.951 4.62875 -0.173469 0
M  V30 2435 C 245.686 5.72454 -0.329288 0
M  V30 2436 N 245.182 6.90669 -0.543005 0
M  V30 2437 N 246.975 5.61467 -0.266666 0
M  V30 2438 H 239.126 1.82345 -1.08922 0
M  V30 2439 H 241.389 0.844149 -0.431413 0
M  V30 2440 H 241.095 3.3563 -1.05096 0
M  V30 2441 H 240.969 3.71337 0.66246 0
M  V30 2442 H 243.356 2.77857 0.993966 0
M  V30 2443 H 243.437 2.4479 -0.742388 0
M  V30 2444 H 243.081 4.93287 -1.20956 0
M  V30 2445 H 243.011 5.2378 0.544274 0
M  V30 2446 H 245.502 3.77898 -0.0130709 0
M  V30 2447 H 245.815 7.70045 -0.651922 0
M  V30 2448 H 244.16 6.92581 -0.579366 0
M  V30 2449 H 247.351 4.67992 -0.100441 0
M  V30 2450 H 247.524 6.46816 -0.391535 0
M  V30 2451 N 240.93 -0.123565 1.57115 0
M  V30 2452 C 242.176 -0.833386 1.84885 0
M  V30 2453 C 242.509 -1.79742 0.735292 0
M  V30 2454 O 241.784 -1.92764 -0.25925 0
M  V30 2455 C 242.067 -1.5873 3.23228 0
M  V30 2456 C 241.92 -0.643183 4.45178 0
M  V30 2457 C 243.239 -2.54453 3.59085 0
M  V30 2458 H 240.358 -0.301518 0.6725 0
M  V30 2459 H 243 -0.097778 1.89748 0
M  V30 2460 H 241.15 -2.21438 3.19214 0
M  V30 2461 H 242.822 -0.0253015 4.61293 0
M  V30 2462 H 241.065 0.0456139 4.33776 0
M  V30 2463 H 241.736 -1.20724 5.38637 0
M  V30 2464 H 244.212 -2.01853 3.63861 0
M  V30 2465 H 243.088 -3.04238 4.5687 0
M  V30 2466 H 243.349 -3.36906 2.86264 0
M  V30 2467 N 242.408 -1.52605 -0.393616 0
M  V30 2468 C 243.355 -1.77055 -1.48054 0
M  V30 2469 C 244.325 -0.61358 -1.54352 0
M  V30 2470 O 245.51 -0.852806 -1.70681 0
M  V30 2471 C 242.65 -1.94108 -2.85335 0
M  V30 2472 C 241.763 -3.21792 -2.88226 0
M  V30 2473 C 240.898 -3.29188 -4.16904 0
M  V30 2474 C 239.937 -4.51013 -4.13828 0
M  V30 2475 N 239.074 -4.55716 -5.34105 0
M  V30 2476 H 243.914 -2.69815 -1.26506 0
M  V30 2477 H 241.451 -1.33683 -0.61379 0
M  V30 2478 H 243.409 -2.01979 -3.65049 0
M  V30 2479 H 242.039 -1.04713 -3.05344 0
M  V30 2480 H 241.091 -3.23015 -2.00911 0
M  V30 2481 H 242.403 -4.11557 -2.8182 0
M  V30 2482 H 241.557 -3.36216 -5.05018 0
M  V30 2483 H 240.296 -2.37389 -4.26026 0
M  V30 2484 H 239.301 -4.44115 -3.24102 0
M  V30 2485 H 240.526 -5.44123 -4.06333 0
M  V30 2486 H 238.472 -3.66807 -5.43865 0
M  V30 2487 H 238.389 -5.39346 -5.29756 0
M  V30 2488 H 239.657 -4.66993 -6.2413 0
M  V30 2489 N 243.887 0.651787 -1.4349 0
M  V30 2490 C 244.85 1.74647 -1.48429 0
M  V30 2491 C 245.85 1.56513 -0.368817 0
M  V30 2492 O 247.04 1.62385 -0.630623 0
M  V30 2493 C 244.172 3.13533 -1.33827 0
M  V30 2494 H 245.365 1.71649 -2.4592 0
M  V30 2495 H 242.918 0.863573 -1.30277 0
M  V30 2496 H 243.653 3.22142 -0.37349 0
M  V30 2497 H 243.438 3.28101 -2.14691 0
M  V30 2498 H 244.928 3.93356 -1.40218 0
M  V30 2499 N 245.365 1.30045 0.890287 0
M  V30 2500 C 246.312 1.15976 1.99545 0
M  V30 2501 C 247.282 0.0506202 1.66023 0
M  V30 2502 O 248.467 0.219847 1.89529 0
M  V30 2503 C 245.607 0.852054 3.34416 0
M  V30 2504 C 244.72 2.04255 3.80662 0
M  V30 2505 C 243.855 1.6734 5.04154 0
M  V30 2506 C 242.894 2.82916 5.42794 0
M  V30 2507 N 242.031 2.46333 6.57468 0
M  V30 2508 H 246.871 2.10524 2.10911 0
M  V30 2509 H 244.408 1.04749 1.03276 0
M  V30 2510 H 246.366 0.654296 4.12037 0
M  V30 2511 H 244.996 -0.0565502 3.2275 0
M  V30 2512 H 244.048 2.35172 2.98995 0
M  V30 2513 H 245.36 2.90826 4.05242 0
M  V30 2514 H 244.514 1.43908 5.89386 0
M  V30 2515 H 243.253 0.779308 4.81433 0
M  V30 2516 H 242.258 3.0702 4.56091 0
M  V30 2517 H 243.483 3.73004 5.6749 0
M  V30 2518 H 241.429 1.59423 6.36334 0
M  V30 2519 H 241.346 3.26436 6.81891 0
M  V30 2520 H 242.614 2.26244 7.45945 0
M  V30 2521 N 246.843 -1.10192 1.12674 0
M  V30 2522 C 248.12 -1.78717 0.794965 0
M  V30 2523 C 248.5 -1.98628 -0.714853 0
M  V30 2524 O 247.848 -1.58135 -1.64941 0
M  V30 2525 C 248.058 -3.11546 1.5729 0
M  V30 2526 C 249.406 -3.86382 1.76052 0
M  V30 2527 O 250.43 -3.21274 1.53823 0
M  V30 2528 O 249.289 -5.03246 2.13087 0
M  V30 2529 H 246.383 -0.774702 0.289423 0
M  V30 2530 H 248.929 -1.16819 1.23091 0
M  V30 2531 H 247.701 -2.92489 2.59935 0
M  V30 2532 H 247.324 -3.81164 1.13137 0
M  V30 2533 N 248.321 -0.919034 -1.28029 0
M  V30 2534 C 249.732 -0.600735 -1.76771 0
M  V30 2535 C 250.083 0.884024 -1.75156 0
M  V30 2536 O 249.208 1.69163 -1.34956 0
M  V30 2537 C 249.803 -1.08372 -3.21 0
M  V30 2538 C 248.362 -0.816248 -3.67443 0
M  V30 2539 C 247.509 -1.24742 -2.47658 0
M  V30 2540 H 250.46 -1.09974 -1.14418 0
M  V30 2541 H 250.481 -0.427512 -3.78091 0
M  V30 2542 H 249.993 -2.16437 -3.22144 0
M  V30 2543 H 248.094 0.250968 -3.71754 0
M  V30 2544 H 248.207 -1.4277 -4.57333 0
M  V30 2545 H 246.571 -0.666083 -2.45836 0
M  V30 2546 H 247.354 -2.33653 -2.51518 0
M  V30 2547 N 249.799 1.42003 -0.683588 0
M  V30 2548 C 251.076 1.95112 -0.138075 0
M  V30 2549 C 251.456 1.62359 1.34918 0
M  V30 2550 O 250.804 0.924311 2.08971 0
M  V30 2551 C 251.014 3.46505 -0.416581 0
M  V30 2552 C 252.362 4.23254 -0.337834 0
M  V30 2553 O 253.386 3.54468 -0.35082 0
M  V30 2554 O 252.245 5.45743 -0.287596 0
M  V30 2555 H 249.339 0.826961 -0.00797996 0
M  V30 2556 H 251.885 1.51784 -0.758924 0
M  V30 2557 H 250.657 3.63582 -1.4465 0
M  V30 2558 H 250.28 3.969 0.235839 0
M  V30 2559 N 251.277 0.427512 1.51691 0
M  V30 2560 C 252.526 -0.143679 2.01188 0
M  V30 2561 C 252.839 -1.44642 1.31674 0
M  V30 2562 O 254.045 -2.09997 1.72086 0
M  V30 2563 C 252.501 -0.306602 3.58592 0
M  V30 2564 C 252.109 0.985125 4.37035 0
M  V30 2565 C 253.853 -0.832091 4.16265 0
M  V30 2566 C 251.76 0.788382 5.86122 0
M  V30 2567 H 250.69 -0.0574701 0.751807 0
M  V30 2568 H 253.341 0.555772 1.74881 0
M  V30 2569 H 251.723 -1.06882 3.81303 0
M  V30 2570 H 252.897 1.75492 4.26074 0
M  V30 2571 H 251.212 1.4384 3.90767 0
M  V30 2572 H 253.809 -0.995617 5.25349 0
M  V30 2573 H 254.152 -1.81186 3.74803 0
M  V30 2574 H 254.685 -0.128444 3.97593 0
M  V30 2575 H 251.424 1.74025 6.31978 0
M  V30 2576 H 250.944 0.0582143 5.99772 0
M  V30 2577 H 252.623 0.437722 6.45518 0
M  V30 2578 N 252.755 -1.56801 0.158532 0
M  V30 2579 C 254.003 -1.96102 -0.488712 0
M  V30 2580 C 254.324 -1.04498 -1.64636 0
M  V30 2581 O 253.594 -0.108783 -1.95598 0
M  V30 2582 H 252.174 -0.724102 -0.183535 0
M  V30 2583 H 254.836 -1.93457 0.236728 0
M  V30 2584 H 253.932 -3.00097 -0.857219 0
M  V30 2585 N 254.233 0.115231 -1.57178 0
M  V30 2586 C 255.143 1.15994 -2.03918 0
M  V30 2587 C 256.159 1.45103 -0.960268 0
M  V30 2588 O 257.335 1.56144 -1.27204 0
M  V30 2589 C 254.4 2.46568 -2.43732 0
M  V30 2590 C 253.461 2.24822 -3.65723 0
M  V30 2591 C 252.694 3.4917 -4.03629 0
M  V30 2592 O 252.917 4.56623 -3.41835 0
M  V30 2593 O 251.851 3.39949 -4.96708 0
M  V30 2594 H 255.677 0.793019 -2.93164 0
M  V30 2595 H 253.262 0.3263 -1.45793 0
M  V30 2596 H 255.144 3.23492 -2.70057 0
M  V30 2597 H 253.819 2.82726 -1.57631 0
M  V30 2598 H 252.726 1.45744 -3.44542 0
M  V30 2599 H 254.059 1.93566 -4.52541 0
M  V30 2600 N 255.711 1.52812 0.385517 0
M  V30 2601 C 256.659 1.78482 1.49155 0
M  V30 2602 C 257.653 0.652914 1.56312 0
M  V30 2603 O 258.859 0.835464 1.59436 0
M  V30 2604 H 255.234 0.5648 0.496493 0
M  V30 2605 H 257.205 2.71095 1.24699 0
M  V30 2606 C 255.954 1.97378 2.86247 0
M  V30 2607 H 255.277 2.83907 2.81491 0
M  V30 2608 H 256.717 2.19327 3.62866 0
M  V30 2609 C 255.176 0.74728 3.28508 0
M  V30 2610 O 255.706 -0.0736232 4.01633 0
M  V30 2611 N 253.912 0.576396 2.84826 0
M  V30 2612 H 253.459 1.24555 2.25486 0
M  V30 2613 H 253.417 -0.24288 3.1346 0
M  V30 2614 N 257.189 -0.644168 1.43834 0
M  V30 2615 C 258.437 -1.40117 1.45642 0
M  V30 2616 C 258.758 -1.94814 0.0852413 0
M  V30 2617 O 258.028 -1.74988 -0.880688 0
M  V30 2618 H 256.608 -0.52005 0.536243 0
M  V30 2619 H 259.27 -0.7591 1.7951 0
M  V30 2620 H 258.366 -2.23902 2.17427 0
M  V30 2621 N 258.668 -1.30515 -0.883378 0
M  V30 2622 C 259.598 -1.19607 -2.00541 0
M  V30 2623 C 260.579 -0.086346 -1.69881 0
M  V30 2624 O 261.764 -0.268654 -1.92333 0
M  V30 2625 C 258.894 -0.888758 -3.35736 0
M  V30 2626 C 257.848 -1.95659 -3.8066 0
M  V30 2627 C 257.174 -1.50224 -5.13164 0
M  V30 2628 C 258.474 -3.36788 -3.99213 0
M  V30 2629 H 260.168 -2.13476 -2.09925 0
M  V30 2630 H 257.714 -1.02775 -1.00863 0
M  V30 2631 H 259.667 -0.799094 -4.13754 0
M  V30 2632 H 258.391 0.0856125 -3.26488 0
M  V30 2633 H 257.05 -2.03591 -3.04871 0
M  V30 2634 H 256.698 -0.516092 -5.00345 0
M  V30 2635 H 256.398 -2.2165 -5.44192 0
M  V30 2636 H 257.922 -1.42639 -5.93706 0
M  V30 2637 H 259.336 -3.31605 -4.67665 0
M  V30 2638 H 257.733 -4.06314 -4.41621 0
M  V30 2639 H 258.803 -3.78561 -3.03017 0
M  V30 2640 N 260.146 1.09593 -1.13257 0
M  V30 2641 C 261.392 1.82003 -0.89458 0
M  V30 2642 C 261.725 1.85402 0.577906 0
M  V30 2643 O 261 1.32099 1.42759 0
M  V30 2644 C 261.283 3.28237 -1.48096 0
M  V30 2645 C 261.136 3.3312 -3.02244 0
M  V30 2646 C 262.455 4.24871 -1.14774 0
M  V30 2647 H 259.574 0.66077 -0.326424 0
M  V30 2648 H 262.216 1.28389 -1.40058 0
M  V30 2649 H 260.366 3.74024 -1.05062 0
M  V30 2650 H 262.038 2.95748 -3.54021 0
M  V30 2651 H 260.281 2.72756 -3.37323 0
M  V30 2652 H 260.952 4.3613 -3.38371 0
M  V30 2653 H 263.428 3.87361 -1.51957 0
M  V30 2654 H 262.304 5.25532 -1.58452 0
M  V30 2655 H 262.565 4.42058 -0.0611849 0
M  V30 2656 N 261.624 0.925811 1.2754 0
M  V30 2657 C 262.852 0.581509 1.9856 0
M  V30 2658 C 263.267 -0.840041 1.69082 0
M  V30 2659 O 262.624 -1.55805 0.950312 0
M  V30 2660 C 262.675 0.795589 3.52637 0
M  V30 2661 O 262.396 2.16121 3.81082 0
M  V30 2662 C 263.897 0.459744 4.4091 0
M  V30 2663 H 261.117 0.220538 0.633722 0
M  V30 2664 H 263.661 1.24232 1.6244 0
M  V30 2665 H 261.816 0.18161 3.86974 0
M  V30 2666 H 262.23 2.2098 4.75676 0
M  V30 2667 H 263.704 0.660244 5.48037 0
M  V30 2668 H 264.181 -0.604625 4.35018 0
M  V30 2669 H 264.787 1.05178 4.12089 0
M  V30 2670 N 263.102 -1.41638 0.69111 0
M  V30 2671 C 264.332 -2.0533 0.228758 0
M  V30 2672 C 264.74 -1.52089 -1.12541 0
M  V30 2673 O 264.083 -0.662145 -1.71351 0
M  V30 2674 C 264.145 -3.59349 0.10407 0
M  V30 2675 C 263.809 -4.35362 1.38956 0
M  V30 2676 C 264.806 -4.64942 2.32648 0
M  V30 2677 C 262.491 -4.74714 1.64169 0
M  V30 2678 C 264.485 -5.32828 3.49818 0
M  V30 2679 C 262.172 -5.42338 2.81625 0
M  V30 2680 C 263.17 -5.71322 3.74273 0
M  V30 2681 O 262.858 -6.37554 4.89673 0
M  V30 2682 H 262.59 -0.667796 0.104997 0
M  V30 2683 H 265.144 -1.82477 0.942938 0
M  V30 2684 H 263.374 -3.80924 -0.665839 0
M  V30 2685 H 265.063 -4.04633 -0.320519 0
M  V30 2686 H 265.829 -4.35025 2.14425 0
M  V30 2687 H 261.708 -4.51538 0.929202 0
M  V30 2688 H 265.252 -5.55368 4.22152 0
M  V30 2689 H 261.149 -5.71673 2.99768 0
M  V30 2690 H 261.917 -6.56049 4.8943 0
M  V30 2691 N 264.58 -0.43555 -1.51462 0
M  V30 2692 C 265.528 0.391205 -2.29287 0
M  V30 2693 C 266.522 1.02247 -1.35062 0
M  V30 2694 O 267.728 0.957646 -1.52411 0
M  V30 2695 H 264.103 0.144968 -0.737895 0
M  V30 2696 H 266.074 -0.286051 -2.97026 0
M  V30 2697 C 264.823 1.48096 -3.14583 0
M  V30 2698 H 264.146 1.00457 -3.86973 0
M  V30 2699 H 265.586 2.03273 -3.72097 0
M  V30 2700 C 264.045 2.46321 -2.29843 0
M  V30 2701 O 264.575 3.50815 -1.95682 0
M  V30 2702 N 262.781 2.17166 -1.931 0
M  V30 2703 H 262.328 1.32218 -2.21079 0
M  V30 2704 H 262.286 2.83127 -1.36698 0
M  V30 2705 N 266.058 1.56714 -0.166846 0
M  V30 2706 C 267.307 1.95922 0.479318 0
M  V30 2707 C 267.62 1.05529 1.6469 0
M  V30 2708 O 268.826 1.34399 2.35901 0
M  V30 2709 C 267.282 3.48359 0.90412 0
M  V30 2710 C 266.89 4.47369 -0.237621 0
M  V30 2711 C 268.634 3.96394 1.51896 0
M  V30 2712 C 266.541 5.91039 0.206561 0
M  V30 2713 H 265.471 0.731495 0.18284 0
M  V30 2714 H 268.122 1.81728 -0.254363 0
M  V30 2715 H 266.504 3.57955 1.69365 0
M  V30 2716 H 267.678 4.49485 -1.01489 0
M  V30 2717 H 265.993 4.09366 -0.762128 0
M  V30 2718 H 268.59 5.01186 1.86325 0
M  V30 2719 H 268.933 3.39075 2.41524 0
M  V30 2720 H 269.466 3.89796 0.79395 0
M  V30 2721 H 266.205 6.52221 -0.654834 0
M  V30 2722 H 265.725 5.9224 0.949282 0
M  V30 2723 H 267.404 6.43707 0.651939 0
M  V30 2724 N 267.536 -0.106894 1.57237 0
M  V30 2725 C 268.782 -0.81373 1.85759 0
M  V30 2726 C 269.115 -1.78952 0.754315 0
M  V30 2727 O 268.39 -1.93029 -0.23879 0
M  V30 2728 C 268.673 -1.55293 3.24894 0
M  V30 2729 C 268.526 -0.595929 4.45835 0
M  V30 2730 C 269.845 -2.5063 3.61763 0
M  V30 2731 H 266.964 -0.294369 0.67566 0
M  V30 2732 H 269.606 -0.0776472 1.89841 0
M  V30 2733 H 267.756 -2.1804 3.21544 0
M  V30 2734 H 269.428 0.0236262 4.61294 0
M  V30 2735 H 267.671 0.0916191 4.33703 0
M  V30 2736 H 268.342 -1.15004 5.39887 0
M  V30 2737 H 270.818 -1.97982 3.65981 0
M  V30 2738 H 269.694 -2.99376 4.60071 0
M  V30 2739 H 269.955 -3.3385 2.89821 0
M  V30 2740 N 269.014 -1.53014 -0.377408 0
M  V30 2741 C 270.291 -1.59215 -1.13622 0
M  V30 2742 C 270.671 -0.392407 -2.07421 0
M  V30 2743 O 270.019 0.618342 -2.19975 0
M  V30 2744 C 270.229 -2.93669 -1.88573 0
M  V30 2745 C 271.577 -3.47822 -2.43526 0
M  V30 2746 O 272.601 -2.9562 -1.98715 0
M  V30 2747 O 271.46 -4.39055 -3.25412 0
M  V30 2748 H 268.554 -0.642625 -0.52054 0
M  V30 2749 H 271.1 -1.65353 -0.381625 0
M  V30 2750 H 269.872 -3.7243 -1.20048 0
M  V30 2751 H 269.495 -2.90968 -2.70968 0
M  V30 2752 N 270.492 0.636531 -1.44174 0
M  V30 2753 C 271.74 1.39343 -1.46383 0
M  V30 2754 C 272.061 1.94766 -0.0955715 0
M  V30 2755 O 271.331 1.75452 0.871395 0
M  V30 2756 H 269.911 0.517199 -0.538994 0
M  V30 2757 H 272.573 0.74957 -1.7991 0
M  V30 2758 H 271.669 2.22746 -2.18611 0
M  V30 2759 N 271.97 1.30982 0.876444 0
M  V30 2760 C 273.247 1.10942 1.61094 0
M  V30 2761 C 273.627 -0.338223 2.08373 0
M  V30 2762 O 272.975 -1.33122 1.85717 0
M  V30 2763 C 273.185 2.11789 2.77392 0
M  V30 2764 C 274.533 2.43965 3.47514 0
M  V30 2765 O 275.557 2.10166 2.87591 0
M  V30 2766 O 274.416 3.01817 4.55597 0
M  V30 2767 H 271.51 0.42667 0.708436 0
M  V30 2768 H 274.056 1.42438 0.922474 0
M  V30 2769 H 272.828 3.09194 2.39823 0
M  V30 2770 H 272.451 1.81161 3.5393 0
M  V30 2771 N 273.449 -1.08991 1.13837 0
M  V30 2772 C 274.697 -1.80899 0.901098 0
M  V30 2773 C 275.018 -1.86356 -0.574134 0
M  V30 2774 O 274.288 -1.35235 -1.41733 0
M  V30 2775 H 272.868 -0.669966 0.330386 0
M  V30 2776 H 275.53 -1.318 1.43578 0
M  V30 2777 H 274.626 -2.83929 1.29578 0
M  V30 2778 N 274.927 -0.932562 -1.27047 0
M  V30 2779 C 275.86 -0.379774 -2.25018 0
M  V30 2780 C 276.838 0.526587 -1.53837 0
M  V30 2781 O 278.022 0.465992 -1.82649 0
M  V30 2782 C 275.149 0.455187 -3.35627 0
M  V30 2783 C 274.195 -0.388428 -4.24728 0
M  V30 2784 S 275.028 -1.80701 -5.04091 0
M  V30 2785 C 276.184 -0.979865 -6.18182 0
M  V30 2786 H 276.417 -1.2101 -2.71558 0
M  V30 2787 H 273.95 -0.735078 -1.35779 0
M  V30 2788 H 275.908 0.931052 -3.99802 0
M  V30 2789 H 274.569 1.26009 -2.87716 0
M  V30 2790 H 273.762 0.25089 -5.03375 0
M  V30 2791 H 273.364 -0.798649 -3.65373 0
M  V30 2792 H 275.656 -0.218115 -6.77149 0
M  V30 2793 H 276.599 -1.73951 -6.86401 0
M  V30 2794 H 277.007 -0.51973 -5.62102 0
M  V30 2795 N 276.405 1.4127 -0.698611 0
M  V30 2796 C 277.315 2.34573 -0.0357891 0
M  V30 2797 C 278.331 1.56393 0.762701 0
M  V30 2798 O 279.507 1.8886 0.699564 0
M  V30 2799 C 276.572 3.35159 0.887089 0
M  V30 2800 C 275.633 4.29225 0.0804634 0
M  V30 2801 C 274.866 5.25006 0.959387 0
M  V30 2802 O 275.089 5.26314 2.19886 0
M  V30 2803 O 274.023 6.00519 0.407439 0
M  V30 2804 H 277.849 2.92838 -0.804957 0
M  V30 2805 H 275.434 1.42175 -0.458966 0
M  V30 2806 H 277.316 3.9689 1.41621 0
M  V30 2807 H 275.991 2.79333 1.6357 0
M  V30 2808 H 274.898 3.70833 -0.493328 0
M  V30 2809 H 276.231 4.88157 -0.629547 0
M  V30 2810 N 277.883 0.443576 1.51229 0
M  V30 2811 C 279.108 -0.121648 2.07043 0
M  V30 2812 C 279.533 -1.35156 1.30823 0
M  V30 2813 O 278.891 -1.7793 0.347934 0
M  V30 2814 C 278.939 -0.41624 3.5819 0
M  V30 2815 O 278.043 -1.50163 3.8409 0
M  V30 2816 H 277.384 0.000871367 0.663999 0
M  V30 2817 H 279.914 0.626706 1.94765 0
M  V30 2818 H 279.924 -0.664867 4.02546 0
M  V30 2819 H 278.599 0.482653 4.1309 0
M  V30 2820 H 277.176 -1.24248 3.51592 0
M  V30 2821 N 279.361 -1.56624 0.175154 0
M  V30 2822 C 280.608 -1.96999 -0.468811 0
M  V30 2823 C 280.936 -1.06129 -1.62994 0
M  V30 2824 O 280.191 -0.0961771 -1.95464 0
M  V30 2825 C 280.49 -3.43419 -0.989864 0
M  V30 2826 C 280.156 -4.50866 0.0557687 0
M  V30 2827 C 278.818 -4.79975 0.343134 0
M  V30 2828 C 281.17 -5.15551 0.765308 0
M  V30 2829 C 278.498 -5.71066 1.34536 0
M  V30 2830 C 280.85 -6.07724 1.75654 0
M  V30 2831 C 279.514 -6.35199 2.05132 0
M  V30 2832 H 278.784 -0.720869 -0.17155 0
M  V30 2833 H 281.431 -1.89616 0.267924 0
M  V30 2834 H 279.736 -3.47772 -1.80449 0
M  V30 2835 H 281.433 -3.72002 -1.49719 0
M  V30 2836 H 278.023 -4.28229 -0.178381 0
M  V30 2837 H 282.207 -4.9317 0.556513 0
M  V30 2838 H 277.463 -5.90635 1.57988 0
M  V30 2839 H 281.637 -6.56912 2.31169 0
M  V30 2840 H 279.264 -7.05584 2.8294 0
M  V30 2841 N 280.839 0.0985539 -1.57292 0
M  V30 2842 C 281.749 1.13824 -2.05137 0
M  V30 2843 C 282.765 1.44076 -0.975604 0
M  V30 2844 O 283.941 1.54786 -1.28853 0
M  V30 2845 C 281.006 2.43969 -2.46333 0
M  V30 2846 C 280.067 2.2093 -3.68087 0
M  V30 2847 C 279.3 3.44869 -4.0731 0
M  V30 2848 O 279.523 4.52972 -3.46659 0
M  V30 2849 O 278.457 3.34661 -5.00285 0
M  V30 2850 H 282.283 0.761881 -2.93988 0
M  V30 2851 H 279.868 0.310818 -1.46131 0
M  V30 2852 H 281.75 3.20609 -2.73473 0
M  V30 2853 H 280.425 2.81038 -1.60621 0
M  V30 2854 H 279.332 1.42081 -3.46069 0
M  V30 2855 H 280.665 1.88755 -4.54568 0
M  V30 2856 N 282.317 1.53212 0.369288 0
M  V30 2857 C 283.566 1.68436 1.10961 0
M  V30 2858 C 283.879 0.440738 1.9057 0
M  V30 2859 O 285.085 0.473446 2.6734 0
M  V30 2860 C 283.541 2.97744 2.0218 0
M  V30 2861 C 283.149 4.29355 1.279 0
M  V30 2862 C 284.893 3.22334 2.76226 0
M  V30 2863 C 282.8 5.49755 2.17999 0
M  V30 2864 H 281.73 0.627568 0.41794 0
M  V30 2865 H 284.381 1.79713 0.370884 0
M  V30 2866 H 282.763 2.8026 2.79768 0
M  V30 2867 H 283.937 4.57458 0.554007 0
M  V30 2868 H 282.252 4.11179 0.657311 0
M  V30 2869 H 284.849 4.09471 3.43857 0
M  V30 2870 H 285.192 2.38238 3.41392 0
M  V30 2871 H 285.725 3.40475 2.05723 0
M  V30 2872 H 282.464 6.36318 1.57417 0
M  V30 2873 H 281.984 5.25937 2.88359 0
M  V30 2874 H 283.663 5.84401 2.77641 0
M  V30 2875 N 283.795 -0.628877 1.44509 0
M  V30 2876 C 285.023 -1.41554 1.50897 0
M  V30 2877 C 285.438 -1.8832 0.134564 0
M  V30 2878 O 284.795 -1.60969 -0.859965 0
M  V30 2879 C 284.846 -2.63435 2.47556 0
M  V30 2880 O 284.567 -2.18619 3.79654 0
M  V30 2881 C 286.068 -3.56537 2.63431 0
M  V30 2882 H 283.288 -0.434044 0.511709 0
M  V30 2883 H 285.832 -0.768895 1.89495 0
M  V30 2884 H 283.987 -3.24187 2.12089 0
M  V30 2885 H 284.401 -2.97652 4.31861 0
M  V30 2886 H 285.875 -4.38657 3.35088 0
M  V30 2887 H 286.352 -4.05493 1.68738 0
M  V30 2888 H 286.958 -3.01653 2.9981 0
M  V30 2889 N 285.273 -1.31445 -0.869486 0
M  V30 2890 C 286.501 -1.24122 -1.65534 0
M  V30 2891 C 286.916 0.193387 -1.87807 0
M  V30 2892 O 286.273 1.12557 -1.43656 0
M  V30 2893 C 286.324 -1.98229 -3.02304 0
M  V30 2894 O 286.045 -3.3609 -2.81026 0
M  V30 2895 C 287.546 -1.97751 -3.96749 0
M  V30 2896 H 284.766 -0.428868 -0.516055 0
M  V30 2897 H 287.31 -1.73328 -1.08525 0
M  V30 2898 H 285.465 -1.52782 -3.56001 0
M  V30 2899 H 285.879 -3.7383 -3.67902 0
M  V30 2900 H 287.353 -2.54114 -4.90031 0
M  V30 2901 H 287.83 -0.960137 -4.28577 0
M  V30 2902 H 288.436 -2.43079 -3.48988 0
M  V30 2903 N 286.751 1.08385 -1.14413 0
M  V30 2904 C 288.028 1.77429 -0.823297 0
M  V30 2905 C 288.408 1.9974 0.683163 0
M  V30 2906 O 287.756 1.60739 1.62405 0
M  V30 2907 C 287.966 3.09004 -1.62227 0
M  V30 2908 C 289.314 3.83532 -1.82177 0
M  V30 2909 O 290.338 3.18786 -1.58915 0
M  V30 2910 O 289.197 4.99792 -2.21067 0
M  V30 2911 H 286.291 0.769999 -0.301712 0
M  V30 2912 H 288.837 1.14846 -1.24934 0
M  V30 2913 H 287.609 2.88316 -2.64555 0
M  V30 2914 H 287.232 3.79316 -1.19187 0
M  V30 2915 N 288.23 0.939286 1.26551 0
M  V30 2916 C 289.46 0.601663 1.97645 0
M  V30 2917 C 289.868 -0.827206 1.70159 0
M  V30 2918 O 289.211 -1.56291 0.965338 0
M  V30 2919 C 289.273 0.761725 3.51337 0
M  V30 2920 C 288.937 2.16487 4.0247 0
M  V30 2921 C 289.934 3.14016 4.14355 0
M  V30 2922 C 287.619 2.48494 4.36527 0
M  V30 2923 C 289.613 4.41654 4.59587 0
M  V30 2924 C 287.3 3.76364 4.81449 0
M  V30 2925 C 288.298 4.72758 4.92939 0
M  V30 2926 O 287.986 5.98352 5.36871 0
M  V30 2927 H 287.718 0.225758 0.637189 0
M  V30 2928 H 290.272 1.26178 1.62075 0
M  V30 2929 H 288.502 0.0444808 3.86674 0
M  V30 2930 H 290.191 0.427442 4.03643 0
M  V30 2931 H 290.957 2.90613 3.8829 0
M  V30 2932 H 286.836 1.74202 4.26819 0
M  V30 2933 H 290.38 5.16896 4.68471 0
M  V30 2934 H 286.277 3.99582 5.06956 0
M  V30 2935 H 287.045 6.01507 5.55096 0
M  V30 2936 N 289.708 -1.40897 0.706093 0
M  V30 2937 C 290.618 -2.3455 0.0482286 0
M  V30 2938 C 291.634 -1.56796 -0.754396 0
M  V30 2939 O 292.81 -1.89228 -0.689538 0
M  V30 2940 C 289.875 -3.35625 -0.869303 0
M  V30 2941 C 288.936 -4.29261 -0.0576994 0
M  V30 2942 C 288.169 -5.25508 -0.931531 0
M  V30 2943 O 288.392 -5.27472 -2.17092 0
M  V30 2944 O 287.326 -6.00727 -0.375587 0
M  V30 2945 H 291.152 -2.92407 0.820476 0
M  V30 2946 H 288.737 -1.4193 0.4665 0
M  V30 2947 H 290.619 -3.97635 -1.39514 0
M  V30 2948 H 289.294 -2.80196 -1.62086 0
M  V30 2949 H 288.201 -3.70566 0.512988 0
M  V30 2950 H 289.534 -4.87817 0.655426 0
M  V30 2951 N 291.186 -0.45159 -1.50991 0
M  V30 2952 C 292.414 0.108334 -2.06616 0
M  V30 2953 C 292.829 1.35224 -1.31757 0
M  V30 2954 O 292.186 1.78475 -0.381174 0
M  V30 2955 C 292.237 0.41619 -3.59096 0
M  V30 2956 O 291.958 -0.778361 -4.3113 0
M  V30 2957 C 293.459 1.02523 -4.31282 0
M  V30 2958 H 290.679 0.00159995 -0.670998 0
M  V30 2959 H 293.223 -0.634771 -1.94399 0
M  V30 2960 H 291.378 1.10921 -3.71181 0
M  V30 2961 H 291.792 -0.511181 -5.22003 0
M  V30 2962 H 293.266 1.19053 -5.39009 0
M  V30 2963 H 293.743 2.01013 -3.905 0
M  V30 2964 H 294.349 0.371173 -4.23677 0
M  V30 2965 N 292.664 1.56529 -0.183458 0
M  V30 2966 C 293.596 2.15747 0.773697 0
M  V30 2967 C 294.609 1.1162 1.1851 0
M  V30 2968 O 295.798 1.3876 1.12285 0
M  V30 2969 C 292.898 2.6952 2.05456 0
M  V30 2970 C 292.071 3.98429 1.8048 0
M  V30 2971 C 291.13 4.37145 2.92901 0
M  V30 2972 O 290.156 5.04791 2.6301 0
M  V30 2973 N 291.358 3.99695 4.2098 0
M  V30 2974 H 294.123 2.98505 0.26736 0
M  V30 2975 H 291.684 1.619 -0.0010878 0
M  V30 2976 H 293.676 2.92412 2.79781 0
M  V30 2977 H 292.246 1.91282 2.47245 0
M  V30 2978 H 291.466 3.8379 0.899947 0
M  V30 2979 H 292.754 4.82597 1.61175 0
M  V30 2980 H 292.152 3.4526 4.48121 0
M  V30 2981 H 290.709 4.27562 4.9197 0
M  V30 2982 N 294.142 -0.090211 1.57342 0
M  V30 2983 C 295.052 -1.12735 2.05738 0
M  V30 2984 C 296.068 -1.43557 0.983231 0
M  V30 2985 O 297.244 -1.54101 1.29672 0
M  V30 2986 C 294.309 -2.42659 2.47624 0
M  V30 2987 C 293.37 -2.18975 3.69254 0
M  V30 2988 C 292.603 -3.42704 4.09133 0
M  V30 2989 O 292.826 -4.51127 3.49057 0
M  V30 2990 O 291.76 -3.32003 5.02053 0
M  V30 2991 H 295.586 -0.746279 2.94388 0
M  V30 2992 H 293.171 -0.303064 1.46294 0
M  V30 2993 H 295.053 -3.19155 2.7517 0
M  V30 2994 H 293.728 -2.80182 1.62109 0
M  V30 2995 H 292.635 -1.40244 3.46818 0
M  V30 2996 H 293.968 -1.86342 4.55563 0
M  V30 2997 N 295.62 -1.53406 -0.361157 0
M  V30 2998 C 296.868 -1.69467 -1.10115 0
M  V30 2999 C 297.189 -0.451352 -1.89705 0
M  V30 3000 O 296.459 0.534636 -1.88463 0
M  V30 3001 H 295.039 -0.624749 -0.409508 0
M  V30 3002 H 297.701 -1.90609 -0.406699 0
M  V30 3003 H 296.797 -2.55774 -1.78847 0
M  V30 3004 N 297.098 0.621204 -1.44841 0
M  V30 3005 C 298.344 1.3826 -1.48365 0
M  V30 3006 C 298.677 1.93831 -0.119624 0
M  V30 3007 O 297.952 1.74251 0.864111 0
M  V30 3008 C 298.235 2.54058 -2.55199 0
M  V30 3009 C 298.088 2.03772 -4.00995 0
M  V30 3010 C 299.407 3.56225 -2.58442 0
M  V30 3011 H 296.526 0.501374 -0.540179 0
M  V30 3012 H 299.168 0.7015 -1.76576 0
M  V30 3013 H 297.318 3.12162 -2.31274 0
M  V30 3014 H 298.99 1.50423 -4.36086 0
M  V30 3015 H 297.233 1.34876 -4.12299 0
M  V30 3016 H 297.904 2.87185 -4.71411 0
M  V30 3017 H 300.38 3.07939 -2.79844 0
M  V30 3018 H 299.256 4.34756 -3.3508 0
M  V30 3019 H 299.517 4.10949 -1.63013 0
M  V30 3020 N 298.576 1.31904 0.862503 0
M  V30 3021 C 299.825 1.21373 1.61094 0
M  V30 3022 C 300.138 -0.22504 1.94301 0
M  V30 3023 O 301.344 -0.452121 2.67709 0
M  V30 3024 C 299.8 2.12525 2.9045 0
M  V30 3025 C 299.408 3.61441 2.64697 0
M  V30 3026 C 301.152 2.10813 3.68454 0
M  V30 3027 C 299.059 4.44578 3.90006 0
M  V30 3028 H 297.989 0.450705 0.604468 0
M  V30 3029 H 300.64 1.56811 0.953027 0
M  V30 3030 H 299.022 1.69994 3.57656 0
M  V30 3031 H 300.196 4.12264 2.05851 0
M  V30 3032 H 298.511 3.65205 2.00036 0
M  V30 3033 H 301.108 2.70167 4.61426 0
M  V30 3034 H 301.451 1.09713 4.01583 0
M  V30 3035 H 301.984 2.51583 3.08141 0
M  V30 3036 H 298.723 5.46461 3.62023 0
M  V30 3037 H 298.243 3.98508 4.48276 0
M  V30 3038 H 299.922 4.57176 4.5782 0
M  V30 3039 N 300.054 -1.07777 1.14986 0
M  V30 3040 C 301.001 -2.14867 0.842672 0
M  V30 3041 C 301.971 -1.6486 -0.202552 0
M  V30 3042 O 303.156 -1.90668 -0.0710568 0
M  V30 3043 C 300.296 -3.43486 0.333363 0
M  V30 3044 C 299.409 -4.07306 1.43965 0
M  V30 3045 C 298.544 -5.23744 0.886914 0
M  V30 3046 C 297.583 -5.79517 1.97043 0
M  V30 3047 N 296.72 -6.87291 1.4344 0
M  V30 3048 H 301.56 -2.40485 1.75986 0
M  V30 3049 H 299.097 -1.1801 0.878179 0
M  V30 3050 H 301.055 -4.17195 0.0198163 0
M  V30 3051 H 299.685 -3.18133 -0.546916 0
M  V30 3052 H 298.737 -3.31293 1.86946 0
M  V30 3053 H 300.049 -4.44771 2.25788 0
M  V30 3054 H 299.203 -6.04419 0.525651 0
M  V30 3055 H 297.942 -4.87685 0.0377957 0
M  V30 3056 H 296.947 -4.97491 2.34057 0
M  V30 3057 H 298.172 -6.17632 2.82325 0
M  V30 3058 H 296.118 -6.5318 0.607567 0
M  V30 3059 H 296.035 -7.23617 2.18895 0
M  V30 3060 H 297.303 -7.71682 1.10124 0
M  V30 3061 N 301.532 -0.945985 -1.26051 0
M  V30 3062 C 302.462 -0.477172 -2.28572 0
M  V30 3063 C 303.443 0.472032 -1.63419 0
M  V30 3064 O 304.628 0.372853 -1.90587 0
M  V30 3065 C 301.758 0.253975 -3.4637 0
M  V30 3066 C 300.712 -0.609135 -4.23643 0
M  V30 3067 C 300.038 0.252252 -5.34105 0
M  V30 3068 C 301.338 -1.8829 -4.8718 0
M  V30 3069 H 303.032 -1.33402 -2.68038 0
M  V30 3070 H 300.578 -0.642904 -1.28852 0
M  V30 3071 H 302.531 0.593016 -4.17207 0
M  V30 3072 H 301.255 1.145 -3.05871 0
M  V30 3073 H 299.914 -0.931138 -3.54578 0
M  V30 3074 H 299.562 1.14278 -4.89846 0
M  V30 3075 H 299.262 -0.32188 -5.86718 0
M  V30 3076 H 300.786 0.586454 -6.07777 0
M  V30 3077 H 302.2 -1.61081 -5.50205 0
M  V30 3078 H 300.597 -2.40199 -5.49931 0
M  V30 3079 H 301.667 -2.59134 -4.09851 0
M  V30 3080 N 303.011 1.40521 -0.713556 0
M  V30 3081 C 303.958 2.30723 -0.059684 0
M  V30 3082 C 304.928 1.48079 0.752448 0
M  V30 3083 O 306.113 1.76823 0.71681 0
M  V30 3084 C 303.253 3.34274 0.857594 0
M  V30 3085 C 302.366 4.31986 0.0351536 0
M  V30 3086 C 301.501 5.22605 0.951724 0
M  V30 3087 C 300.54 6.11976 0.123253 0
M  V30 3088 N 299.677 6.9502 0.99459 0
M  V30 3089 H 304.517 2.86074 -0.834596 0
M  V30 3090 H 302.054 1.40879 -0.42326 0
M  V30 3091 H 304.012 3.92879 1.40364 0
M  V30 3092 H 302.642 2.8043 1.59871 0
M  V30 3093 H 301.694 3.7518 -0.628052 0
M  V30 3094 H 303.006 4.95101 -0.606347 0
M  V30 3095 H 302.16 5.86131 1.56638 0
M  V30 3096 H 300.899 4.59759 1.62705 0
M  V30 3097 H 299.904 5.47482 -0.50435 0
M  V30 3098 H 301.129 6.76881 -0.548539 0
M  V30 3099 H 299.075 6.34764 1.6556 0
M  V30 3100 H 298.992 7.54892 0.40908 0
M  V30 3101 H 300.26 7.62997 1.59549 0
M  V30 3102 N 304.489 0.459591 1.5075 0
M  V30 3103 C 305.436 -0.340524 2.28274 0
M  V30 3104 C 306.406 -0.997371 1.32822 0
M  V30 3105 O 307.591 -1.01202 1.61749 0
M  V30 3106 C 304.731 -1.42317 3.14388 0
M  V30 3107 C 303.844 -0.782251 4.24859 0
M  V30 3108 C 302.979 -1.84182 4.98247 0
M  V30 3109 C 302.018 -1.18053 6.00608 0
M  V30 3110 N 301.155 -2.18244 6.67319 0
M  V30 3111 H 305.995 0.326899 2.96202 0
M  V30 3112 H 303.532 0.173057 1.46078 0
M  V30 3113 H 305.49 -2.06241 3.62658 0
M  V30 3114 H 304.12 -2.05992 2.4853 0
M  V30 3115 H 303.172 -0.0307404 3.80388 0
M  V30 3116 H 304.484 -0.259663 4.98124 0
M  V30 3117 H 303.638 -2.55714 5.50177 0
M  V30 3118 H 302.377 -2.39819 4.24662 0
M  V30 3119 H 301.382 -0.450776 5.47949 0
M  V30 3120 H 302.607 -0.631202 6.7616 0
M  V30 3121 H 300.553 -2.72919 5.96533 0
M  V30 3122 H 300.47 -1.70938 7.36421 0
M  V30 3123 H 301.738 -2.89191 7.23871 0
M  V30 3124 N 305.967 -1.56429 0.191757 0
M  V30 3125 C 307.378 -1.83912 -0.321428 0
M  V30 3126 C 307.729 -1.11231 -1.61623 0
M  V30 3127 O 306.854 -0.37202 -2.13178 0
M  V30 3128 C 307.449 -3.33624 -0.589961 0
M  V30 3129 C 306.008 -3.6153 -1.04753 0
M  V30 3130 C 305.155 -2.7714 -0.0943327 0
M  V30 3131 H 308.106 -1.53161 0.415612 0
M  V30 3132 H 308.127 -3.52213 -1.43966 0
M  V30 3133 H 307.639 -3.86495 0.352588 0
M  V30 3134 H 305.74 -3.14089 -2.00447 0
M  V30 3135 H 305.853 -4.69737 -0.942549 0
M  V30 3136 H 304.217 -2.47638 -0.595589 0
M  V30 3137 H 305 -3.32799 0.842601 0
M  V30 3138 N 307.445 0.0818655 -1.57387 0
M  V30 3139 C 308.691 0.784074 -1.8703 0
M  V30 3140 C 309.024 1.77729 -0.782689 0
M  V30 3141 O 308.299 1.93384 0.208051 0
M  V30 3142 C 308.582 1.50105 -3.27323 0
M  V30 3143 C 308.435 0.524925 -4.46727 0
M  V30 3144 C 309.754 2.44843 -3.65705 0
M  V30 3145 H 306.873 0.283582 -0.680257 0
M  V30 3146 H 309.515 0.0474352 -1.89941 0
M  V30 3147 H 307.665 2.12897 -3.24972 0
M  V30 3148 H 309.337 -0.0970111 -4.61198 0
M  V30 3149 H 307.58 -0.160606 -4.33503 0
M  V30 3150 H 308.251 1.064 -5.41648 0
M  V30 3151 H 310.727 1.92135 -3.69085 0
M  V30 3152 H 309.603 2.92018 -4.64776 0
M  V30 3153 H 309.864 3.29197 -2.95096 0
M  V30 3154 N 308.923 1.53595 0.353017 0
M  V30 3155 C 310.2 1.61002 1.11075 0
M  V30 3156 C 310.58 0.425356 2.0677 0
M  V30 3157 O 309.928 -0.583267 2.2093 0
M  V30 3158 C 310.138 2.96631 1.83877 0
M  V30 3159 C 311.486 3.51653 2.37961 0
M  V30 3160 O 312.51 2.98743 1.93987 0
M  V30 3161 O 311.369 4.44177 3.18386 0
M  V30 3162 H 308.463 0.650825 0.510251 0
M  V30 3163 H 311.009 1.6594 0.35527 0
M  V30 3164 H 309.781 3.74293 1.14108 0
M  V30 3165 H 309.404 2.95242 2.66304 0
M  V30 3166 N 310.401 -0.613514 1.45168 0
M  V30 3167 C 311.648 -1.37268 1.48875 0
M  V30 3168 C 311.976 -1.94077 0.128161 0
M  V30 3169 O 311.231 -1.75178 -0.872416 0
M  V30 3170 C 311.53 -2.54347 2.51083 0
M  V30 3171 C 311.196 -2.1572 3.95949 0
M  V30 3172 C 309.858 -2.04899 4.35396 0
M  V30 3173 C 312.21 -1.85485 4.87078 0
M  V30 3174 C 309.538 -1.62057 5.63875 0
M  V30 3175 C 311.89 -1.4413 6.15962 0
M  V30 3176 C 310.554 -1.31863 6.54346 0
M  V30 3177 H 309.824 -0.502299 0.544773 0
M  V30 3178 H 312.471 -0.694021 1.78481 0
M  V30 3179 H 310.776 -3.27524 2.15024 0
M  V30 3180 H 312.473 -3.12577 2.51191 0
M  V30 3181 H 309.063 -2.25066 3.64751 0
M  V30 3182 H 313.247 -1.92745 4.57343 0
M  V30 3183 H 308.503 -1.51177 5.92415 0
M  V30 3184 H 312.677 -1.19778 6.86022 0
M  V30 3185 H 310.304 -0.984392 7.538 0
M  V30 3186 N 311.879 -1.3236 -0.855495 0
M  V30 3187 C 312.789 -1.23221 -1.99634 0
M  V30 3188 C 313.805 -0.145983 -1.73387 0
M  V30 3189 O 314.981 -0.366502 -1.98037 0
M  V30 3190 C 312.046 -0.954782 -3.33294 0
M  V30 3191 C 311.107 -2.12937 -3.72769 0
M  V30 3192 C 310.34 -1.86508 -5.00051 0
M  V30 3193 O 310.563 -0.807231 -5.64659 0
M  V30 3194 O 309.497 -2.72591 -5.36636 0
M  V30 3195 H 313.323 -2.19126 -2.1028 0
M  V30 3196 H 310.908 -1.12241 -0.986018 0
M  V30 3197 H 312.79 -0.816519 -4.13414 0
M  V30 3198 H 311.465 -0.0258854 -3.2369 0
M  V30 3199 H 310.372 -2.3231 -2.93228 0
M  V30 3200 H 311.705 -3.04102 -3.87018 0
M  V30 3201 N 313.357 1.07166 -1.15556 0
M  V30 3202 C 314.585 1.83514 -0.955519 0
M  V30 3203 C 315 1.82163 0.49621 0
M  V30 3204 O 314.357 1.23441 1.34419 0
M  V30 3205 C 314.408 3.30515 -1.46432 0
M  V30 3206 O 314.129 3.31937 -2.85918 0
M  V30 3207 C 315.63 4.23625 -1.30603 0
M  V30 3208 H 312.85 0.578926 -0.339244 0
M  V30 3209 H 315.394 1.35265 -1.53374 0
M  V30 3210 H 313.549 3.76106 -0.928584 0
M  V30 3211 H 313.963 4.23794 -3.09029 0
M  V30 3212 H 315.437 5.24831 -1.71047 0
M  V30 3213 H 315.914 4.38485 -0.250441 0
M  V30 3214 H 316.52 3.83871 -1.83094 0
M  V30 3215 N 314.835 0.952656 1.25548 0
M  V30 3216 C 315.782 0.47008 2.25962 0
M  V30 3217 C 316.752 -0.476384 1.59122 0
M  V30 3218 O 317.937 -0.39007 1.8677 0
M  V30 3219 C 315.077 -0.247881 3.44209 0
M  V30 3220 C 314.19 0.735591 4.25691 0
M  V30 3221 C 313.325 -0.0047306 5.312 0
M  V30 3222 C 312.364 0.969805 6.04368 0
M  V30 3223 N 311.501 0.260486 7.01617 0
M  V30 3224 H 316.341 1.33126 2.66611 0
M  V30 3225 H 313.878 0.66765 1.31076 0
M  V30 3226 H 315.836 -0.680695 4.1161 0
M  V30 3227 H 314.466 -1.07312 3.0444 0
M  V30 3228 H 313.518 1.28689 3.57971 0
M  V30 3229 H 314.83 1.47934 4.76358 0
M  V30 3230 H 313.984 -0.496275 6.04667 0
M  V30 3231 H 312.723 -0.781282 4.81401 0
M  V30 3232 H 311.728 1.47237 5.29718 0
M  V30 3233 H 312.953 1.74655 6.56256 0
M  V30 3234 H 310.899 -0.497364 6.54112 0
M  V30 3235 H 310.816 0.943362 7.50091 0
M  V30 3236 H 312.084 -0.209587 7.79218 0
M  V30 3237 N 316.313 -1.40141 0.720998 0
M  V30 3238 C 317.729 -1.54632 0.395113 0
M  V30 3239 C 317.929 -1.69115 -1.09555 0
M  V30 3240 O 316.985 -1.68377 -1.88163 0
M  V30 3241 C 318.298 -2.77177 1.1659 0
M  V30 3242 C 319.846 -2.91 1.15274 0
M  V30 3243 C 320.321 -4.16465 1.90579 0
M  V30 3244 N 321.812 -4.23476 1.87675 0
M  V30 3245 C 322.547 -5.19475 2.42762 0
M  V30 3246 N 322.043 -6.21348 3.06428 0
M  V30 3247 N 323.836 -5.11592 2.32874 0
M  V30 3248 H 315.987 -1.28986 1.68749 0
M  V30 3249 H 318.25 -0.62412 0.713567 0
M  V30 3250 H 317.956 -2.72771 2.22011 0
M  V30 3251 H 317.83 -3.69442 0.76108 0
M  V30 3252 H 320.217 -2.94907 0.106702 0
M  V30 3253 H 320.298 -1.99838 1.59682 0
M  V30 3254 H 319.942 -4.1332 2.95176 0
M  V30 3255 H 319.872 -5.06646 1.43587 0
M  V30 3256 H 322.363 -3.50497 1.41281 0
M  V30 3257 H 322.676 -6.91034 3.45965 0
M  V30 3258 H 321.021 -6.21777 3.10514 0
M  V30 3259 H 324.212 -4.30936 1.82789 0
M  V30 3260 H 324.385 -5.86233 2.76106 0
M  V30 3261 N 317.792 -0.46758 -1.50504 0
M  V30 3262 C 318.755 0.317059 -2.26996 0
M  V30 3263 C 319.755 0.923513 -1.31635 0
M  V30 3264 O 320.945 0.793239 -1.55091 0
M  V30 3265 C 318.077 1.45134 -3.08462 0
M  V30 3266 H 319.27 -0.353723 -2.97807 0
M  V30 3267 H 316.823 -0.221545 -1.54722 0
M  V30 3268 H 317.558 2.15728 -2.4214 0
M  V30 3269 H 317.343 1.02232 -3.78538 0
M  V30 3270 H 318.833 2.00493 -3.66323 0
M  V30 3271 N 319.27 1.56325 -0.20005 0
M  V30 3272 C 320.5 2.01811 0.442232 0
M  V30 3273 C 320.908 1.07932 1.55394 0
M  V30 3274 O 320.251 0.0772685 1.83537 0
M  V30 3275 C 320.313 3.43685 1.05457 0
M  V30 3276 C 319.977 4.56928 0.0809833 0
M  V30 3277 C 320.974 5.15009 -0.711471 0
M  V30 3278 C 318.659 5.0229 -0.0315364 0
M  V30 3279 C 320.653 6.16904 -1.60336 0
M  V30 3280 C 318.34 6.04028 -0.926981 0
M  V30 3281 C 319.338 6.6121 -1.71146 0
M  V30 3282 O 319.026 7.60971 -2.59189 0
M  V30 3283 H 318.758 0.666173 0.114848 0
M  V30 3284 H 321.312 2.03085 -0.307511 0
M  V30 3285 H 319.542 3.39413 1.85299 0
M  V30 3286 H 321.231 3.72948 1.60201 0
M  V30 3287 H 321.997 4.80827 -0.634873 0
M  V30 3288 H 317.876 4.57476 0.568902 0
M  V30 3289 H 321.42 6.61464 -2.21611 0
M  V30 3290 H 317.317 6.37634 -1.00468 0
M  V30 3291 H 318.085 7.7841 -2.53023 0
M  V30 3292 N 320.748 -0.0735177 1.57428 0
M  V30 3293 C 321.973 -0.789787 1.91774 0
M  V30 3294 C 322.398 -1.70413 0.796306 0
M  V30 3295 O 321.756 -1.79555 -0.250961 0
M  V30 3296 C 321.804 -1.5609 3.25067 0
M  V30 3297 O 320.908 -2.67144 3.14178 0
M  V30 3298 H 320.249 -0.215582 0.628029 0
M  V30 3299 H 322.779 -0.0422781 2.04556 0
M  V30 3300 H 322.789 -1.94052 3.58898 0
M  V30 3301 H 321.464 -0.890015 4.06265 0
M  V30 3302 H 320.041 -2.32052 2.91901 0
M  V30 3303 N 322.226 -1.5378 -0.344866 0
M  V30 3304 C 323.156 -1.84662 -1.42906 0
M  V30 3305 C 324.137 -0.701648 -1.54955 0
M  V30 3306 O 325.322 -0.953438 -1.69184 0
M  V30 3307 C 322.452 -2.05503 -2.79974 0
M  V30 3308 C 321.406 -3.21318 -2.82734 0
M  V30 3309 C 320.732 -3.2749 -4.22675 0
M  V30 3310 C 322.032 -4.59456 -2.48389 0
M  V30 3311 H 323.726 -2.75461 -1.17311 0
M  V30 3312 H 321.272 -1.32542 -0.562896 0
M  V30 3313 H 323.225 -2.25691 -3.55867 0
M  V30 3314 H 321.949 -1.11434 -3.07002 0
M  V30 3315 H 320.608 -3.00984 -2.09294 0
M  V30 3316 H 320.256 -2.31019 -4.4681 0
M  V30 3317 H 319.956 -4.05316 -4.25433 0
M  V30 3318 H 321.48 -3.49887 -5.00412 0
M  V30 3319 H 322.894 -4.79667 -3.13995 0
M  V30 3320 H 321.291 -5.39675 -2.62432 0
M  V30 3321 H 322.361 -4.63155 -1.4358 0
M  V30 3322 N 323.704 0.605807 -1.45491 0
M  V30 3323 C 324.651 1.7164 -1.54299 0
M  V30 3324 C 325.621 1.61486 -0.388761 0
M  V30 3325 O 326.806 1.81039 -0.602445 0
M  V30 3326 C 323.946 3.09953 -1.51734 0
M  V30 3327 C 323.059 3.309 -2.77721 0
M  V30 3328 C 322.194 4.59329 -2.66816 0
M  V30 3329 C 321.233 4.7354 -3.87848 0
M  V30 3330 N 320.37 5.9327 -3.75467 0
M  V30 3331 H 325.21 1.63449 -2.49176 0
M  V30 3332 H 322.747 0.796957 -1.23641 0
M  V30 3333 H 324.705 3.89977 -1.48235 0
M  V30 3334 H 323.335 3.17098 -0.604068 0
M  V30 3335 H 322.387 2.44639 -2.913 0
M  V30 3336 H 323.699 3.37274 -3.67488 0
M  V30 3337 H 322.853 5.4755 -2.61292 0
M  V30 3338 H 321.592 4.55355 -1.74651 0
M  V30 3339 H 320.597 3.83741 -3.93729 0
M  V30 3340 H 321.822 4.79309 -4.81082 0
M  V30 3341 H 319.768 5.90338 -2.86072 0
M  V30 3342 H 319.685 6.00811 -4.5887 0
M  V30 3343 H 320.953 6.83984 -3.73879 0
M  V30 3344 N 325.182 1.32811 0.848464 0
M  V30 3345 C 326.428 1.23907 1.60546 0
M  V30 3346 C 326.761 -0.197161 1.93197 0
M  V30 3347 O 326.036 -1.13596 1.5788 0
M  V30 3348 C 326.319 2.10489 2.92175 0
M  V30 3349 C 326.172 3.62522 2.66266 0
M  V30 3350 C 327.491 1.97075 3.93509 0
M  V30 3351 H 324.61 0.451459 0.58254 0
M  V30 3352 H 327.252 1.62818 0.979296 0
M  V30 3353 H 325.402 1.77434 3.45614 0
M  V30 3354 H 327.074 4.05821 2.19334 0
M  V30 3355 H 325.317 3.84879 2.00126 0
M  V30 3356 H 325.988 4.18437 3.6002 0
M  V30 3357 H 328.464 2.26045 3.49346 0
M  V30 3358 H 327.34 2.59923 4.83457 0
M  V30 3359 H 327.601 0.940186 4.31987 0
M  V30 3360 N 326.66 -1.06551 1.16123 0
M  V30 3361 C 327.57 -2.17484 0.879662 0
M  V30 3362 C 328.586 -1.73377 -0.147104 0
M  V30 3363 O 329.762 -2.01379 0.0289128 0
M  V30 3364 C 326.827 -3.44591 0.381829 0
M  V30 3365 C 325.888 -4.0322 1.4735 0
M  V30 3366 C 325.121 -5.24261 0.999324 0
M  V30 3367 O 325.344 -5.70198 -0.151957 0
M  V30 3368 O 324.278 -5.74775 1.78653 0
M  V30 3369 H 328.104 -2.44075 1.80724 0
M  V30 3370 H 325.689 -1.16042 0.940992 0
M  V30 3371 H 327.571 -4.21254 0.111053 0
M  V30 3372 H 326.246 -3.19532 -0.51777 0
M  V30 3373 H 325.153 -3.2806 1.79798 0
M  V30 3374 H 326.486 -4.32568 2.34831 0
M  V30 3375 N 328.138 -0.959301 -1.25041 0
M  V30 3376 C 329.101 -0.487677 -2.23952 0
M  V30 3377 C 330.101 0.41119 -1.55454 0
M  V30 3378 O 331.291 0.207825 -1.72956 0
M  V30 3379 C 328.423 0.294807 -3.39623 0
M  V30 3380 H 329.616 -1.36198 -2.67189 0
M  V30 3381 H 327.169 -0.743042 -1.37508 0
M  V30 3382 H 327.904 1.18658 -3.01813 0
M  V30 3383 H 327.689 -0.35012 -3.90534 0
M  V30 3384 H 329.179 0.614089 -4.1306 0
M  V30 3385 N 329.616 1.39756 -0.72842 0
M  V30 3386 C 330.579 2.29012 -0.0927297 0
M  V30 3387 C 331.579 1.45992 0.674025 0
M  V30 3388 O 332.769 1.66749 0.50402 0
M  V30 3389 C 329.901 3.29396 0.878137 0
M  V30 3390 H 331.094 2.86729 -0.879011 0
M  V30 3391 H 328.647 1.48293 -0.493847 0
M  V30 3392 H 329.382 2.76722 1.69101 0
M  V30 3393 H 329.167 3.907 0.331051 0
M  V30 3394 H 330.657 3.96199 1.3197 0
M  V30 3395 N 331.094 0.475555 1.50254 0
M  V30 3396 C 332.042 -0.330276 2.30243 0
M  V30 3397 C 333.036 -0.986306 1.37726 0
M  V30 3398 O 334.242 -0.9169 1.54897 0
M  V30 3399 H 330.617 -0.125353 0.741479 0
M  V30 3400 H 332.588 0.364702 2.96163 0
M  V30 3401 C 331.337 -1.39704 3.18399 0
M  V30 3402 H 330.66 -0.901621 3.89501 0
M  V30 3403 H 332.1 -1.93336 3.77355 0
M  V30 3404 C 330.559 -2.4014 2.36293 0
M  V30 3405 O 331.089 -3.45504 2.04914 0
M  V30 3406 N 329.295 -2.1197 1.98789 0
M  V30 3407 H 328.842 -1.2631 2.24507 0
M  V30 3408 H 328.8 -2.79403 1.44157 0
M  V30 3409 N 332.573 -1.56217 0.208337 0
M  V30 3410 C 333.819 -1.98242 -0.427552 0
M  V30 3411 C 334.152 -1.09554 -1.60348 0
M  V30 3412 O 333.427 -0.15035 -1.93918 0
M  V30 3413 C 333.71 -3.4931 -0.874907 0
M  V30 3414 C 333.563 -4.48773 0.303751 0
M  V30 3415 C 334.882 -4.04424 -1.73577 0
M  V30 3416 H 332.001 -0.720744 -0.153936 0
M  V30 3417 H 334.643 -1.87586 0.30192 0
M  V30 3418 H 332.793 -3.58522 -1.49648 0
M  V30 3419 H 334.465 -4.51586 0.941682 0
M  V30 3420 H 332.708 -4.23194 0.953375 0
M  V30 3421 H 333.379 -5.51976 -0.0519883 0
M  V30 3422 H 335.855 -3.98075 -1.21143 0
M  V30 3423 H 334.731 -5.1047 -2.01771 0
M  V30 3424 H 334.992 -3.50494 -2.69456 0
M  V30 3425 N 334.051 0.0651679 -1.57465 0
M  V30 3426 C 335.001 1.0838 -2.00594 0
M  V30 3427 C 335.985 1.34106 -0.889071 0
M  V30 3428 O 337.177 1.34295 -1.15299 0
M  V30 3429 C 334.306 2.39565 -2.45894 0
M  V30 3430 C 333.392 2.17085 -3.64328 0
M  V30 3431 N 333.783 1.64553 -4.78285 0
M  V30 3432 C 332.081 2.4753 -3.71006 0
M  V30 3433 C 332.782 1.57042 -5.60101 0
M  V30 3434 N 331.758 2.03328 -5.04141 0
M  V30 3435 H 335.56 0.671062 -2.86136 0
M  V30 3436 H 333.074 0.27213 -1.60104 0
M  V30 3437 H 335.071 3.13308 -2.75034 0
M  V30 3438 H 333.731 2.81549 -1.61741 0
M  V30 3439 H 334.742 1.33323 -5.00445 0
M  V30 3440 H 331.419 2.92835 -2.9758 0
M  V30 3441 H 332.809 1.17223 -6.61595 0
M  V30 3442 N 335.529 1.53961 0.336706 0
M  V30 3443 C 336.778 1.70751 1.07363 0
M  V30 3444 C 337.091 0.481061 1.89592 0
M  V30 3445 O 338.297 0.530046 2.66276 0
M  V30 3446 C 336.753 3.01965 1.95818 0
M  V30 3447 C 336.361 4.31971 1.18764 0
M  V30 3448 C 338.105 3.28121 2.69327 0
M  V30 3449 C 336.012 5.54255 2.06289 0
M  V30 3450 H 334.942 0.636292 0.404535 0
M  V30 3451 H 337.593 1.80459 0.332681 0
M  V30 3452 H 335.975 2.86132 2.7376 0
M  V30 3453 H 337.149 4.5853 0.456849 0
M  V30 3454 H 335.464 4.12481 0.569946 0
M  V30 3455 H 338.061 4.16673 3.35094 0
M  V30 3456 H 338.404 2.45426 3.36261 0
M  V30 3457 H 338.937 3.44762 1.98454 0
M  V30 3458 H 335.676 6.39513 1.43885 0
M  V30 3459 H 335.196 5.31935 2.77138 0
M  V30 3460 H 336.875 5.90159 2.65182 0
M  V30 3461 N 337.007 -0.598083 1.45811 0
M  V30 3462 C 338.284 -1.35777 1.40797 0
M  V30 3463 C 338.664 -2.10935 0.083462 0
M  V30 3464 O 338.012 -2.08505 -0.934763 0
M  V30 3465 C 338.222 -2.29666 2.62783 0
M  V30 3466 C 339.57 -2.91977 3.08277 0
M  V30 3467 O 340.594 -2.39984 2.63223 0
M  V30 3468 O 339.453 -3.86376 3.86491 0
M  V30 3469 H 336.547 -0.609291 0.55919 0
M  V30 3470 H 339.093 -0.620379 1.57954 0
M  V30 3471 H 337.865 -1.73454 3.50756 0
M  V30 3472 H 337.488 -3.1077 2.48008 0
M  V30 3473 N 338.485 -1.33259 -0.841409 0
M  V30 3474 C 339.896 -1.22066 -1.41269 0
M  V30 3475 C 340.247 0.161479 -1.95534 0
M  V30 3476 O 339.372 1.06094 -1.88608 0
M  V30 3477 C 339.967 -2.20996 -2.568 0
M  V30 3478 C 338.526 -2.13649 -3.09888 0
M  V30 3479 C 337.673 -2.08623 -1.82679 0
M  V30 3480 H 340.624 -1.44895 -0.647395 0
M  V30 3481 H 340.645 -1.81621 -3.34356 0
M  V30 3482 H 340.157 -3.2158 -2.17274 0
M  V30 3483 H 338.258 -1.16359 -3.53965 0
M  V30 3484 H 338.371 -3.04079 -3.70234 0
M  V30 3485 H 336.735 -1.54061 -2.02824 0
M  V30 3486 H 337.518 -3.1101 -1.45353 0
M  V30 3487 N 339.963 1.05934 -1.16686 0
M  V30 3488 C 340.91 2.13499 -0.876748 0
M  V30 3489 C 341.88 1.65162 0.176299 0
M  V30 3490 O 343.065 1.90757 0.0407143 0
M  V30 3491 C 340.205 3.42912 -0.387967 0
M  V30 3492 C 339.318 4.04964 -1.50426 0
M  V30 3493 C 338.453 5.22266 -0.970125 0
M  V30 3494 C 337.492 5.76309 -2.06238 0
M  V30 3495 N 336.629 6.84922 -1.54356 0
M  V30 3496 H 341.469 2.37654 -1.7979 0
M  V30 3497 H 339.006 1.16598 -0.896843 0
M  V30 3498 H 340.964 4.17111 -0.086186 0
M  V30 3499 H 339.594 3.18963 0.496235 0
M  V30 3500 H 338.646 3.28277 -1.92193 0
M  V30 3501 H 339.958 4.41122 -2.32836 0
M  V30 3502 H 339.112 6.03506 -0.621743 0
M  V30 3503 H 337.851 4.87564 -0.115377 0
M  V30 3504 H 336.856 4.93704 -2.41942 0
M  V30 3505 H 338.081 6.13062 -2.92115 0
M  V30 3506 H 336.027 6.52131 -0.711406 0
M  V30 3507 H 335.944 7.20043 -2.30379 0
M  V30 3508 H 337.212 7.69832 -1.22387 0
M  V30 3509 N 341.441 0.965919 1.2453 0
M  V30 3510 C 342.688 0.626831 1.92554 0
M  V30 3511 C 343.016 -0.837739 1.75534 0
M  V30 3512 O 342.271 -1.61793 1.10098 0
M  V30 3513 C 342.57 0.945428 3.44669 0
M  V30 3514 C 342.236 2.39785 3.81856 0
M  V30 3515 C 340.898 2.79483 3.91718 0
M  V30 3516 C 343.25 3.34055 4.00071 0
M  V30 3517 C 340.578 4.12496 4.1721 0
M  V30 3518 C 342.93 4.66694 4.27059 0
M  V30 3519 C 341.594 5.06172 4.3514 0
M  V30 3520 H 340.864 0.229374 0.704605 0
M  V30 3521 H 343.511 1.21707 1.4785 0
M  V30 3522 H 341.816 0.272926 3.90848 0
M  V30 3523 H 343.513 0.661484 3.95507 0
M  V30 3524 H 340.103 2.08003 3.74743 0
M  V30 3525 H 344.287 3.04571 3.91855 0
M  V30 3526 H 339.543 4.42709 4.21685 0
M  V30 3527 H 343.717 5.3971 4.40097 0
M  V30 3528 H 341.344 6.09262 4.54646 0
M  V30 3529 N 342.919 -1.39368 0.735821 0
M  V30 3530 C 344.168 -1.99733 0.281004 0
M  V30 3531 C 344.481 -1.59055 -1.13846 0
M  V30 3532 O 345.687 -2.12262 -1.69284 0
M  V30 3533 C 344.143 -3.57057 0.451462 0
M  V30 3534 C 343.751 -4.06697 1.87886 0
M  V30 3535 C 345.495 -4.2446 0.0584616 0
M  V30 3536 C 343.402 -5.56598 1.99883 0
M  V30 3537 H 342.332 -0.747163 0.101311 0
M  V30 3538 H 344.983 -1.59357 0.909819 0
M  V30 3539 H 343.365 -3.95234 -0.246263 0
M  V30 3540 H 344.539 -3.79853 2.60861 0
M  V30 3541 H 342.854 -3.5196 2.22515 0
M  V30 3542 H 345.451 -5.34549 0.127099 0
M  V30 3543 H 345.794 -4.04444 -0.986433 0
M  V30 3544 H 346.327 -3.9146 0.707374 0
M  V30 3545 H 343.066 -5.81494 3.02564 0
M  V30 3546 H 342.586 -5.85242 1.31346 0
M  V30 3547 H 344.265 -6.22022 1.78039 0
M  V30 3548 N 344.397 -0.483516 -1.5 0
M  V30 3549 C 345.622 0.0667119 -2.07293 0
M  V30 3550 C 346.047 1.3164 -1.3436 0
M  V30 3551 O 345.405 1.76945 -0.394987 0
M  V30 3552 C 345.453 0.321126 -3.59167 0
M  V30 3553 O 344.557 1.39927 -3.87936 0
M  V30 3554 H 343.898 -0.0184758 -0.663743 0
M  V30 3555 H 346.428 -0.678125 -1.93035 0
M  V30 3556 H 346.438 0.557906 -4.04168 0
M  V30 3557 H 345.113 -0.592007 -4.11665 0
M  V30 3558 H 343.69 1.14882 -3.54763 0
M  V30 3559 N 345.875 1.56104 -0.216619 0
M  V30 3560 C 346.823 2.21434 0.712036 0
M  V30 3561 C 347.817 1.19218 1.20348 0
M  V30 3562 O 349.023 1.3731 1.16387 0
M  V30 3563 H 345.398 0.70992 0.248026 0
M  V30 3564 H 347.369 2.98083 0.137558 0
M  V30 3565 C 346.118 2.90434 1.91163 0
M  V30 3566 H 345.441 3.68842 1.54258 0
M  V30 3567 H 346.881 3.39552 2.5393 0
M  V30 3568 C 345.34 1.92635 2.76394 0
M  V30 3569 O 345.87 1.44017 3.74996 0
M  V30 3570 N 344.076 1.60392 2.42328 0
M  V30 3571 H 343.623 2.00122 1.622 0
M  V30 3572 H 343.581 0.952159 2.99635 0
M  V30 3573 N 347.353 -0.0568162 1.57498 0
M  V30 3574 C 348.601 -0.751617 1.87604 0
M  V30 3575 C 348.922 -1.77351 0.81066 0
M  V30 3576 O 348.192 -1.95254 -0.159018 0
M  V30 3577 H 346.772 -0.280583 0.692302 0
M  V30 3578 H 349.434 -0.0293483 1.94878 0
M  V30 3579 H 348.53 -1.25852 2.856 0
M  V30 3580 N 348.832 -1.54138 -0.328536 0
M  V30 3581 C 350.243 -1.63395 -0.903272 0
M  V30 3582 C 350.594 -0.524828 -1.8905 0
M  V30 3583 O 349.719 0.343068 -2.13663 0
M  V30 3584 C 350.314 -2.9618 -1.64507 0
M  V30 3585 C 348.873 -3.0765 -2.1686 0
M  V30 3586 C 348.02 -2.58933 -0.992416 0
M  V30 3587 H 350.971 -1.58344 -0.106253 0
M  V30 3588 H 350.992 -2.86061 -2.50897 0
M  V30 3589 H 350.504 -3.76884 -0.926302 0
M  V30 3590 H 348.605 -2.31611 -2.91868 0
M  V30 3591 H 348.718 -4.1337 -2.42202 0
M  V30 3592 H 347.082 -2.14706 -1.37016 0
M  V30 3593 H 347.865 -3.42089 -0.288041 0
M  V30 3594 N 350.31 0.590341 -1.46126 0
M  V30 3595 C 351.557 1.34882 -1.5104 0
M  V30 3596 C 351.885 1.93849 -0.159021 0
M  V30 3597 O 351.14 1.76544 0.844436 0
M  V30 3598 C 351.439 2.5032 -2.55097 0
M  V30 3599 C 351.105 2.09394 -3.99331 0
M  V30 3600 C 349.767 1.97947 -4.38601 0
M  V30 3601 C 352.119 1.77712 -4.89967 0
M  V30 3602 C 349.447 1.53065 -5.66381 0
M  V30 3603 C 351.799 1.34312 -6.18177 0
M  V30 3604 C 350.463 1.21436 -6.56361 0
M  V30 3605 H 349.733 0.493568 -0.552695 0
M  V30 3606 H 352.38 0.665539 -1.79563 0
M  V30 3607 H 350.685 3.24062 -2.20207 0
M  V30 3608 H 352.382 3.08541 -2.56132 0
M  V30 3609 H 348.972 2.19235 -3.68285 0
M  V30 3610 H 353.156 1.85445 -4.60352 0
M  V30 3611 H 348.412 1.41733 -5.94745 0
M  V30 3612 H 352.586 1.08849 -6.87841 0
M  V30 3613 H 350.213 0.864345 -7.5527 0
M  V30 3614 N 351.788 1.33704 0.83433 0
M  V30 3615 C 352.735 1.24335 1.94447 0
M  V30 3616 C 353.705 0.120991 1.65659 0
M  V30 3617 O 354.89 0.300035 1.88426 0
M  V30 3618 C 352.03 0.993124 3.30501 0
M  V30 3619 C 351.143 2.20217 3.71657 0
M  V30 3620 C 350.278 1.88572 4.96602 0
M  V30 3621 C 349.317 3.05683 5.30306 0
M  V30 3622 N 348.454 2.73997 6.46429 0
M  V30 3623 H 353.294 2.1928 2.01792 0
M  V30 3624 H 350.831 1.09035 0.987404 0
M  V30 3625 H 352.789 0.828467 4.08892 0
M  V30 3626 H 351.419 0.0803902 3.227 0
M  V30 3627 H 350.471 2.47642 2.88752 0
M  V30 3628 H 351.783 3.07752 3.92543 0
M  V30 3629 H 350.937 1.68776 5.82752 0
M  V30 3630 H 349.676 0.982799 4.77695 0
M  V30 3631 H 348.681 3.26088 4.42659 0
M  V30 3632 H 349.906 3.96737 5.51159 0
M  V30 3633 H 347.852 1.86268 6.28999 0
M  V30 3634 H 347.769 3.55064 6.67432 0
M  V30 3635 H 349.037 2.57679 7.35678 0
M  V30 3636 N 353.266 -1.05314 1.17247 0
M  V30 3637 C 354.543 -1.75184 0.87005 0
M  V30 3638 C 354.923 -2.01481 -0.629965 0
M  V30 3639 O 354.271 -1.64988 -1.58086 0
M  V30 3640 C 354.481 -3.04594 1.70363 0
M  V30 3641 C 355.829 -3.78567 1.92281 0
M  V30 3642 O 356.853 -3.14461 1.67311 0
M  V30 3643 O 355.712 -4.93755 2.3424 0
M  V30 3644 H 352.806 -0.761729 0.322021 0
M  V30 3645 H 355.352 -1.11493 1.27935 0
M  V30 3646 H 354.124 -2.81201 2.72106 0
M  V30 3647 H 353.747 -3.76022 1.29202 0
M  V30 3648 N 354.744 -0.972509 -1.24016 0
M  V30 3649 C 355.972 -0.654803 -1.96265 0
M  V30 3650 C 356.387 0.776708 -1.72083 0
M  V30 3651 O 355.744 1.52171 -1.00748 0
M  V30 3652 C 355.795 -0.92592 -3.49441 0
M  V30 3653 O 355.516 -2.30116 -3.72798 0
M  V30 3654 C 357.017 -0.623068 -4.38899 0
M  V30 3655 H 354.237 -0.243907 -0.6251 0
M  V30 3656 H 356.781 -1.30175 -1.57717 0
M  V30 3657 H 354.936 -0.325108 -3.86033 0
M  V30 3658 H 355.35 -2.38483 -4.67147 0
M  V30 3659 H 356.824 -0.863189 -5.45209 0
M  V30 3660 H 357.301 0.442754 -4.36963 0
M  V30 3661 H 357.907 -1.204 -4.07902 0
M  V30 3662 N 356.222 1.38976 -0.743202 0
M  V30 3663 C 357.468 2.0064 -0.295189 0
M  V30 3664 C 357.801 1.5885 1.11716 0
M  V30 3665 O 357.076 0.821181 1.76315 0
M  V30 3666 C 357.359 3.578 -0.406318 0
M  V30 3667 C 357.212 4.09586 -1.85903 0
M  V30 3668 C 358.531 4.39616 0.206439 0
M  V30 3669 H 355.65 0.728935 -0.108733 0
M  V30 3670 H 358.292 1.65067 -0.940897 0
M  V30 3671 H 356.442 3.88235 0.143419 0
M  V30 3672 H 358.114 3.89837 -2.46627 0
M  V30 3673 H 356.357 3.6284 -2.3776 0
M  V30 3674 H 357.028 5.18708 -1.888 0
M  V30 3675 H 359.504 4.15273 -0.262283 0
M  V30 3676 H 358.38 5.48812 0.0983819 0
M  V30 3677 H 358.641 4.22754 1.2935 0
M  V30 3678 N 357.7 0.491464 1.49741 0
M  V30 3679 C 358.928 -0.0535151 2.06831 0
M  V30 3680 C 359.343 -1.31683 1.35296 0
M  V30 3681 O 358.7 -1.77402 0.42836 0
M  V30 3682 C 358.751 -0.320835 3.60073 0
M  V30 3683 O 358.472 0.892394 4.28915 0
M  V30 3684 C 359.973 -0.910519 4.33848 0
M  V30 3685 H 357.193 0.0161909 0.670805 0
M  V30 3686 H 359.737 0.68609 1.92647 0
M  V30 3687 H 357.892 -1.0104 3.73991 0
M  V30 3688 H 358.306 0.649401 5.20464 0
M  V30 3689 H 359.78 -1.04721 5.41976 0
M  V30 3690 H 360.257 -1.90589 3.95692 0
M  V30 3691 H 360.863 -0.258712 4.24512 0
M  V30 3692 N 359.178 -1.55987 0.224894 0
M  V30 3693 C 360.424 -1.98684 -0.406502 0
M  V30 3694 C 360.757 -1.11248 -1.59177 0
M  V30 3695 O 360.032 -0.170909 -1.93748 0
M  V30 3696 C 360.315 -3.50218 -0.837808 0
M  V30 3697 C 360.168 -4.48426 0.351332 0
M  V30 3698 C 361.487 -4.06243 -1.69278 0
M  V30 3699 H 358.606 -0.722337 -0.146283 0
M  V30 3700 H 361.248 -1.87255 0.321799 0
M  V30 3701 H 359.398 -3.60089 -1.45837 0
M  V30 3702 H 361.07 -4.50562 0.989526 0
M  V30 3703 H 359.313 -4.22159 0.998207 0
M  V30 3704 H 359.984 -5.52 0.00655905 0
M  V30 3705 H 362.46 -3.99337 -1.16914 0
M  V30 3706 H 361.336 -5.12581 -1.96346 0
M  V30 3707 H 361.597 -3.53332 -2.65723 0
M  V30 3708 N 360.656 0.0484629 -1.57525 0
M  V30 3709 C 361.603 1.05504 -2.05275 0
M  V30 3710 C 362.573 1.37084 -0.937927 0
M  V30 3711 O 363.758 1.47754 -1.2072 0
M  V30 3712 C 360.898 2.35676 -2.52093 0
M  V30 3713 C 360.011 2.10423 -3.77288 0
M  V30 3714 C 359.146 3.34327 -4.12794 0
M  V30 3715 C 358.185 3.04542 -5.30962 0
M  V30 3716 N 357.322 4.20841 -5.61994 0
M  V30 3717 H 362.162 0.640885 -2.91027 0
M  V30 3718 H 359.699 0.304854 -1.43906 0
M  V30 3719 H 361.657 3.11709 -2.77297 0
M  V30 3720 H 360.287 2.7485 -1.69285 0
M  V30 3721 H 359.339 1.24976 -3.59284 0
M  V30 3722 H 360.651 1.84438 -4.63448 0
M  V30 3723 H 359.805 4.1874 -4.39024 0
M  V30 3724 H 358.544 3.63408 -3.25247 0
M  V30 3725 H 357.549 2.18528 -5.04505 0
M  V30 3726 H 358.774 2.76758 -6.20146 0
M  V30 3727 H 356.72 4.4991 -4.77406 0
M  V30 3728 H 356.637 3.98212 -6.42622 0
M  V30 3729 H 357.905 5.06184 -5.92789 0
M  V30 3730 N 362.134 1.5431 0.320358 0
M  V30 3731 C 363.383 1.7188 1.05546 0
M  V30 3732 C 363.696 0.501143 1.89071 0
M  V30 3733 O 364.902 0.558258 2.65699 0
M  V30 3734 C 363.358 3.04025 1.92605 0
M  V30 3735 C 362.966 4.33207 1.14176 0
M  V30 3736 C 364.71 3.30959 2.65832 0
M  V30 3737 C 362.617 5.56412 2.00399 0
M  V30 3738 H 361.547 0.640547 0.397763 0
M  V30 3739 H 364.198 1.80802 0.313522 0
M  V30 3740 H 362.58 2.89019 2.7071 0
M  V30 3741 H 363.754 4.58989 0.40819 0
M  V30 3742 H 362.069 4.13062 0.526165 0
M  V30 3743 H 364.666 4.20203 3.30656 0
M  V30 3744 H 365.009 2.48979 3.33639 0
M  V30 3745 H 365.542 3.46847 1.94787 0
M  V30 3746 H 362.281 6.41004 1.37094 0
M  V30 3747 H 361.801 5.34844 2.7148 0
M  V30 3748 H 363.48 5.92938 2.58908 0
M  V30 3749 N 363.613 -0.582584 1.46437 0
M  V30 3750 C 364.838 -1.37168 1.55563 0
M  V30 3751 C 365.263 -1.87061 0.19743 0
M  V30 3752 O 364.621 -1.61572 -0.822451 0
M  V30 3753 C 364.669 -2.53511 2.56446 0
M  V30 3754 O 363.773 -3.54953 2.09958 0
M  V30 3755 H 363.114 -0.408494 0.523477 0
M  V30 3756 H 365.644 -0.706646 1.9201 0
M  V30 3757 H 365.654 -3.00426 2.76058 0
M  V30 3758 H 364.329 -2.16549 3.55076 0
M  V30 3759 H 362.906 -3.14516 2.00334 0
M  V30 3760 N 365.091 -1.34144 -0.827227 0
M  V30 3761 C 366.337 -1.26446 -1.58554 0
M  V30 3762 C 366.67 0.1664 -1.93486 0
M  V30 3763 O 365.945 1.1107 -1.59667 0
M  V30 3764 C 366.228 -2.15111 -2.8879 0
M  V30 3765 C 366.081 -3.66712 -2.60465 0
M  V30 3766 C 367.4 -2.03311 -3.90324 0
M  V30 3767 H 364.519 -0.46067 -0.575284 0
M  V30 3768 H 367.161 -1.64356 -0.953269 0
M  V30 3769 H 365.311 -1.8291 -3.42748 0
M  V30 3770 H 366.983 -4.09259 -2.1285 0
M  V30 3771 H 365.226 -3.88014 -1.93978 0
M  V30 3772 H 365.897 -4.24112 -3.53317 0
M  V30 3773 H 368.373 -2.31574 -3.45706 0
M  V30 3774 H 367.249 -2.67582 -4.79261 0
M  V30 3775 H 367.51 -1.00879 -4.30437 0
M  V30 3776 N 366.569 1.04691 -1.17803 0
M  V30 3777 C 367.479 2.16057 -0.914151 0
M  V30 3778 C 368.495 1.73589 0.119503 0
M  V30 3779 O 369.671 2.01308 -0.0609468 0
M  V30 3780 C 366.736 3.4394 -0.436603 0
M  V30 3781 C 365.797 4.00825 -1.53746 0
M  V30 3782 C 365.03 5.22604 -1.0826 0
M  V30 3783 O 365.253 5.70367 0.0612244 0
M  V30 3784 O 364.187 5.7186 -1.87775 0
M  V30 3785 H 368.013 2.41169 -1.84584 0
M  V30 3786 H 365.598 1.1453 -0.959334 0
M  V30 3787 H 367.48 4.21024 -0.178057 0
M  V30 3788 H 366.155 3.20316 0.466869 0
M  V30 3789 H 365.062 3.25158 -1.84995 0
M  V30 3790 H 366.395 4.28778 -2.41683 0
M  V30 3791 N 368.047 0.979072 1.23499 0
M  V30 3792 C 369.324 0.563674 1.87302 0
M  V30 3793 C 369.704 -0.959199 1.88049 0
M  V30 3794 O 369.052 -1.83535 1.36114 0
M  V30 3795 C 369.262 1.16822 3.28867 0
M  V30 3796 C 370.61 1.26014 4.0547 0
M  V30 3797 O 371.634 1.12158 3.38082 0
M  V30 3798 O 370.493 1.48044 5.26066 0
M  V30 3799 H 367.587 0.189602 0.804972 0
M  V30 3800 H 370.133 1.07407 1.31384 0
M  V30 3801 H 368.905 2.21049 3.22883 0
M  V30 3802 H 368.528 0.642564 3.92373 0
M  V30 3803 N 369.525 -1.3858 0.750561 0
M  V30 3804 C 370.488 -2.28836 0.129152 0
M  V30 3805 C 371.488 -1.47045 -0.650714 0
M  V30 3806 O 372.678 -1.6753 -0.477428 0
M  V30 3807 C 369.81 -3.30751 -0.825622 0
M  V30 3808 H 371.003 -2.85294 0.924516 0
M  V30 3809 H 368.556 -1.47489 0.517376 0
M  V30 3810 H 369.291 -2.79378 -1.64677 0
M  V30 3811 H 369.076 -3.91177 -0.268852 0
M  V30 3812 H 370.566 -3.98249 -1.2565 0
M  V30 3813 N 371.003 -0.499398 -1.49478 0
M  V30 3814 C 372.28 0.108629 -1.95298 0
M  V30 3815 C 372.66 1.54282 -1.44084 0
M  V30 3816 O 372.008 2.18944 -0.653908 0
M  V30 3817 C 372.218 0.0229111 -3.48992 0
M  V30 3818 C 373.566 0.197643 -4.2414 0
M  V30 3819 O 374.59 0.0981735 -3.56065 0
M  V30 3820 O 373.449 0.401669 -5.45022 0
M  V30 3821 H 370.543 0.096181 -0.821388 0
M  V30 3822 H 373.089 -0.561822 -1.6013 0
M  V30 3823 H 371.861 -0.977321 -3.78899 0
M  V30 3824 H 371.484 0.733579 -3.90774 0
M  V30 3825 N 372.481 1.55866 -0.233164 0
M  V30 3826 C 373.391 2.24431 0.683217 0
M  V30 3827 C 374.407 1.2558 1.2044 0
M  V30 3828 O 375.583 1.58422 1.24356 0
M  V30 3829 C 372.648 2.91979 1.86947 0
M  V30 3830 C 371.709 4.06204 1.38912 0
M  V30 3831 C 370.942 4.70522 2.51883 0
M  V30 3832 O 371.165 4.33865 3.70293 0
M  V30 3833 O 370.099 5.59296 2.22423 0
M  V30 3834 H 373.925 3.03426 0.129059 0
M  V30 3835 H 371.51 1.494 -0.0022283 0
M  V30 3836 H 373.392 3.34573 2.56201 0
M  V30 3837 H 372.067 2.15935 2.41151 0
M  V30 3838 H 370.974 3.68155 0.664259 0
M  V30 3839 H 372.307 4.84025 0.893328 0
M  V30 3840 N 373.959 -0.0401083 1.57549 0
M  V30 3841 C 375.37 -0.588097 1.77196 0
M  V30 3842 C 375.721 -1.76209 0.862832 0
M  V30 3843 O 374.846 -2.16331 0.0548389 0
M  V30 3844 C 375.441 -1.07363 3.21339 0
M  V30 3845 C 374 -1.56723 3.42221 0
M  V30 3846 C 373.147 -0.50041 2.72747 0
M  V30 3847 H 376.098 0.186119 1.57605 0
M  V30 3848 H 376.119 -1.94143 3.27244 0
M  V30 3849 H 375.631 -0.218975 3.87482 0
M  V30 3850 H 373.732 -2.4441 2.81237 0
M  V30 3851 H 373.845 -1.62234 4.50796 0
M  V30 3852 H 372.209 -0.952894 2.36203 0
M  V30 3853 H 372.992 0.344599 3.41566 0
M  V30 3854 N 375.437 -1.54477 -0.31217 0
M  V30 3855 C 376.848 -1.64344 -0.885891 0
M  V30 3856 C 377.199 -0.54485 -1.88483 0
M  V30 3857 O 376.324 0.320387 -2.14015 0
M  V30 3858 C 376.919 -2.97908 -1.61357 0
M  V30 3859 C 375.478 -3.09933 -2.13585 0
M  V30 3860 C 374.625 -2.59971 -0.964897 0
M  V30 3861 H 377.576 -1.58448 -0.0894528 0
M  V30 3862 H 377.597 -2.88706 -2.47848 0
M  V30 3863 H 377.109 -3.77845 -0.886277 0
M  V30 3864 H 375.21 -2.34694 -2.89395 0
M  V30 3865 H 375.323 -4.15916 -2.37804 0
M  V30 3866 H 373.687 -2.16147 -1.34731 0
M  V30 3867 H 374.47 -3.42376 -0.251742 0
M  V30 3868 N 376.915 0.57481 -1.46744 0
M  V30 3869 C 377.848 1.69827 -1.52427 0
M  V30 3870 C 378.826 1.58151 -0.377744 0
M  V30 3871 O 380.01 1.79257 -0.58303 0
M  V30 3872 C 377.137 3.07943 -1.41027 0
M  V30 3873 C 376.183 3.38116 -2.59961 0
M  V30 3874 S 377.016 3.29313 -4.22272 0
M  V30 3875 C 378.172 4.69953 -4.13394 0
M  V30 3876 H 378.405 1.64748 -2.47478 0
M  V30 3877 H 375.938 0.754203 -1.34726 0
M  V30 3878 H 377.896 3.87619 -1.35137 0
M  V30 3879 H 376.557 3.10504 -0.473909 0
M  V30 3880 H 375.75 4.38762 -2.47999 0
M  V30 3881 H 375.352 2.66024 -2.62882 0
M  V30 3882 H 377.644 5.60517 -3.80562 0
M  V30 3883 H 378.587 4.86972 -5.14066 0
M  V30 3884 H 378.995 4.47174 -3.44522 0
M  V30 3885 N 378.394 1.34581 0.820102 0
M  V30 3886 C 379.641 1.27096 1.57648 0
M  V30 3887 C 379.969 -0.158317 1.93855 0
M  V30 3888 O 379.224 -1.12028 1.60463 0
M  V30 3889 C 379.523 2.10997 2.8847 0
M  V30 3890 C 379.189 3.59966 2.71543 0
M  V30 3891 C 377.851 4.00575 2.66634 0
M  V30 3892 C 380.203 4.54548 2.55021 0
M  V30 3893 C 377.531 5.33953 2.43128 0
M  V30 3894 C 379.883 5.88109 2.33047 0
M  V30 3895 C 378.547 6.27878 2.26552 0
M  V30 3896 H 377.817 0.465078 0.576874 0
M  V30 3897 H 380.464 1.6635 0.948671 0
M  V30 3898 H 378.769 1.6458 3.55557 0
M  V30 3899 H 380.466 2.0255 3.46084 0
M  V30 3900 H 377.056 3.27733 2.76205 0
M  V30 3901 H 381.24 4.24069 2.57835 0
M  V30 3902 H 376.496 5.63781 2.3656 0
M  V30 3903 H 380.67 6.60985 2.19251 0
M  V30 3904 H 378.297 7.31162 2.081 0
M  V30 3905 N 379.872 -1.04064 1.18357 0
M  V30 3906 C 380.802 -2.14001 0.934113 0
M  V30 3907 C 381.783 -1.69616 -0.128186 0
M  V30 3908 O 382.968 -1.94185 0.0244093 0
M  V30 3909 C 380.098 -3.44253 0.459066 0
M  V30 3910 C 379.052 -4.02261 1.46185 0
M  V30 3911 C 378.378 -5.27992 0.844322 0
M  V30 3912 C 379.678 -4.38432 2.83856 0
M  V30 3913 H 381.372 -2.35127 1.85352 0
M  V30 3914 H 378.918 -1.12998 0.892604 0
M  V30 3915 H 380.871 -4.20522 0.271907 0
M  V30 3916 H 379.595 -3.22813 -0.495912 0
M  V30 3917 H 378.254 -3.28074 1.63595 0
M  V30 3918 H 377.902 -5.02862 -0.117845 0
M  V30 3919 H 377.602 -5.67765 1.51384 0
M  V30 3920 H 379.126 -6.06938 0.667693 0
M  V30 3921 H 380.54 -5.05688 2.70098 0
M  V30 3922 H 378.937 -4.89254 3.47491 0
M  V30 3923 H 380.007 -3.4826 3.37406 0
M  V30 3924 N 381.35 -0.985608 -1.22978 0
M  V30 3925 C 382.313 -0.535071 -2.22867 0
M  V30 3926 C 383.313 0.378123 -1.56291 0
M  V30 3927 O 384.503 0.171092 -1.73358 0
M  V30 3928 C 381.635 0.222702 -3.40172 0
M  V30 3929 H 382.828 -1.41835 -2.6424 0
M  V30 3930 H 380.381 -0.772042 -1.35901 0
M  V30 3931 H 381.116 1.12229 -3.04262 0
M  V30 3932 H 380.901 -0.43288 -3.89703 0
M  V30 3933 H 382.391 0.526335 -4.1427 0
M  V30 3934 N 382.828 1.3818 -0.7579 0
M  V30 3935 C 384.239 1.82726 -0.383134 0
M  V30 3936 C 384.59 1.63214 1.08884 0
M  V30 3937 O 383.715 1.13566 1.84205 0
M  V30 3938 C 384.31 3.31728 -0.688631 0
M  V30 3939 C 382.869 3.74606 -0.367091 0
M  V30 3940 C 382.016 2.60896 -0.939599 0
M  V30 3941 H 384.967 1.26847 -0.953699 0
M  V30 3942 H 384.988 3.80487 0.0316492 0
M  V30 3943 H 384.5 3.45898 -1.76001 0
M  V30 3944 H 382.601 3.66013 0.697532 0
M  V30 3945 H 382.714 4.71215 -0.865658 0
M  V30 3946 H 381.078 2.52075 -0.3647 0
M  V30 3947 H 381.861 2.77864 -2.0161 0
M  V30 3948 N 384.306 0.507319 1.49211 0
M  V30 3949 C 385.531 -0.033725 2.07373 0
M  V30 3950 C 385.956 -1.29485 1.36437 0
M  V30 3951 O 385.314 -1.76294 0.423087 0
M  V30 3952 C 385.362 -0.263945 3.59633 0
M  V30 3953 O 384.466 -1.33737 3.90113 0
M  V30 3954 H 383.807 0.0290331 0.663365 0
M  V30 3955 H 386.337 0.708749 1.91932 0
M  V30 3956 H 386.347 -0.493536 4.05004 0
M  V30 3957 H 385.022 0.657424 4.10671 0
M  V30 3958 H 383.599 -1.09224 3.56545 0
M  V30 3959 N 385.784 -1.5574 0.241426 0
M  V30 3960 C 387.014 -2.02913 -0.38857 0
M  V30 3961 C 387.422 -1.12014 -1.52478 0
M  V30 3962 O 386.765 -0.125903 -1.83268 0
M  V30 3963 C 386.827 -3.4636 -0.963075 0
M  V30 3964 C 386.491 -4.56982 0.0401916 0
M  V30 3965 C 387.488 -5.12941 0.847766 0
M  V30 3966 C 385.173 -5.0203 0.164699 0
M  V30 3967 C 387.167 -6.12437 1.76636 0
M  V30 3968 C 384.854 -6.01358 1.0868 0
M  V30 3969 C 385.852 -6.5644 1.88616 0
M  V30 3970 O 385.54 -7.53831 2.79273 0
M  V30 3971 H 385.272 -0.668983 -0.0971452 0
M  V30 3972 H 387.826 -2.02198 0.361248 0
M  V30 3973 H 386.056 -3.44206 -1.76235 0
M  V30 3974 H 387.745 -3.77065 -1.50257 0
M  V30 3975 H 388.511 -4.78974 0.762133 0
M  V30 3976 H 384.39 -4.58824 -0.447411 0
M  V30 3977 H 387.934 -6.55355 2.39071 0
M  V30 3978 H 383.831 -6.34746 1.17338 0
M  V30 3979 H 384.599 -7.71428 2.73572 0
M  V30 3980 N 387.262 0.0317525 -1.57568 0
M  V30 3981 C 388.511 0.722131 -1.8833 0
M  V30 3982 C 388.824 1.76664 -0.839587 0
M  V30 3983 O 390.03 2.50942 -1.03635 0
M  V30 3984 C 388.486 1.33544 -3.34207 0
M  V30 3985 C 388.094 0.327415 -4.46802 0
M  V30 3986 C 389.838 2.00585 -3.7412 0
M  V30 3987 C 387.745 0.948915 -5.83738 0
M  V30 3988 H 386.675 0.273466 -0.702661 0
M  V30 3989 H 389.326 -0.0235811 -1.83485 0
M  V30 3990 H 387.708 2.13077 -3.33788 0
M  V30 3991 H 388.882 -0.441006 -4.58685 0
M  V30 3992 H 387.197 -0.240758 -4.15703 0
M  V30 3993 H 389.794 2.47932 -4.73744 0
M  V30 3994 H 390.137 2.82285 -3.05975 0
M  V30 3995 H 390.67 1.27831 -3.76702 0
M  V30 3996 H 387.409 0.171387 -6.55276 0
M  V30 3997 H 386.929 1.68724 -5.7558 0
M  V30 3998 H 388.608 1.45705 -6.3038 0
M  V30 3999 N 388.74 1.54641 0.303973 0
M  V30 4000 C 389.69 1.8177 1.37636 0
M  V30 4001 C 390.674 0.674697 1.46071 0
M  V30 4002 O 391.866 0.935251 1.50273 0
M  V30 4003 C 388.995 2.06584 2.74186 0
M  V30 4004 C 388.081 3.2706 2.69986 0
M  V30 4005 N 388.472 4.47682 2.35402 0
M  V30 4006 C 386.77 3.29028 3.01092 0
M  V30 4007 C 387.471 5.29689 2.40426 0
M  V30 4008 N 386.447 4.67339 2.7766 0
M  V30 4009 H 390.249 2.72596 1.09857 0
M  V30 4010 H 387.763 1.541 0.51254 0
M  V30 4011 H 389.76 2.24166 3.51504 0
M  V30 4012 H 388.42 1.17024 3.02879 0
M  V30 4013 H 389.431 4.74336 2.07908 0
M  V30 4014 H 386.108 2.49565 3.34699 0
M  V30 4015 H 387.498 6.3606 2.16512 0
M  V30 4016 N 390.218 -0.567019 1.47046 0
M  V30 4017 C 391.128 -1.70247 1.6141 0
M  V30 4018 C 392.144 -1.66746 0.497157 0
M  V30 4019 O 393.32 -1.86371 0.763389 0
M  V30 4020 C 390.385 -3.06756 1.61561 0
M  V30 4021 C 389.446 -3.21399 2.84607 0
M  V30 4022 C 388.679 -4.51396 2.84741 0
M  V30 4023 O 388.902 -5.36255 1.94388 0
M  V30 4024 O 387.836 -4.69621 3.76483 0
M  V30 4025 H 391.662 -1.61073 2.57467 0
M  V30 4026 H 389.247 -0.735894 1.30019 0
M  V30 4027 H 391.129 -3.8801 1.64396 0
M  V30 4028 H 389.804 -3.16333 0.686684 0
M  V30 4029 H 388.711 -2.39579 2.8732 0
M  V30 4030 H 390.044 -3.16721 3.76761 0
M  V30 4031 N 391.696 -1.35014 -0.812953 0
M  V30 4032 C 392.942 -1.2812 -1.57204 0
M  V30 4033 C 393.275 0.145869 -1.93651 0
M  V30 4034 O 392.55 1.0937 -1.60836 0
M  V30 4035 C 392.833 -2.18162 -2.86492 0
M  V30 4036 C 392.686 -3.69454 -2.56561 0
M  V30 4037 C 394.005 -2.07439 -3.88145 0
M  V30 4038 H 391.124 -0.466746 -0.570366 0
M  V30 4039 H 393.766 -1.65357 -0.935783 0
M  V30 4040 H 391.916 -1.86535 -3.40789 0
M  V30 4041 H 393.588 -4.11493 -2.08497 0
M  V30 4042 H 391.831 -3.9005 -1.89851 0
M  V30 4043 H 392.502 -4.27835 -3.48799 0
M  V30 4044 H 394.978 -2.35228 -3.4323 0
M  V30 4045 H 393.854 -2.7265 -4.76396 0
M  V30 4046 H 394.115 -1.05439 -4.29343 0
M  V30 4047 N 393.175 1.03435 -1.18907 0
M  V30 4048 C 394.107 2.1165 -0.879595 0
M  V30 4049 C 395.12 1.62316 0.125439 0
M  V30 4050 O 396.309 1.78201 -0.103245 0
M  V30 4051 C 393.409 3.37622 -0.294042 0
M  V30 4052 C 392.582 4.16166 -1.34629 0
M  V30 4053 C 391.641 5.20457 -0.775274 0
M  V30 4054 O 390.667 5.50379 -1.4516 0
M  V30 4055 N 391.869 5.78949 0.424126 0
M  V30 4056 H 394.634 2.38791 -1.81105 0
M  V30 4057 H 392.195 1.19681 -1.09032 0
M  V30 4058 H 394.187 4.04572 0.101679 0
M  V30 4059 H 392.757 3.07873 0.541575 0
M  V30 4060 H 391.977 3.44444 -1.91707 0
M  V30 4061 H 393.265 4.65432 -2.05549 0
M  V30 4062 H 392.663 5.56948 0.991209 0
M  V30 4063 H 391.22 6.47334 0.761691 0
M  V30 4064 N 394.653 0.992116 1.22453 0
M  V30 4065 C 395.563 0.55065 2.28046 0
M  V30 4066 C 396.579 -0.400189 1.69335 0
M  V30 4067 O 397.755 -0.267215 1.99619 0
M  V30 4068 C 394.82 -0.128496 3.46462 0
M  V30 4069 C 393.881 0.865208 4.20491 0
M  V30 4070 C 393.114 0.218377 5.33253 0
M  V30 4071 O 393.337 -0.987894 5.6178 0
M  V30 4072 O 392.271 0.922845 5.94783 0
M  V30 4073 H 396.097 1.4291 2.67975 0
M  V30 4074 H 393.682 0.760326 1.28606 0
M  V30 4075 H 395.564 -0.508947 4.18315 0
M  V30 4076 H 394.239 -0.981526 3.0846 0
M  V30 4077 H 393.146 1.29658 3.50913 0
M  V30 4078 H 394.479 1.68741 4.62371 0
M  V30 4079 N 396.131 -1.37776 0.765217 0
M  V30 4080 C 397.079 -2.32209 0.134798 0
M  V30 4081 C 398.073 -1.54607 -0.692315 0
M  V30 4082 O 399.279 -1.70052 -0.590109 0
M  V30 4083 H 395.654 -0.751591 0.0248005 0
M  V30 4084 H 397.625 -2.8297 0.947119 0
M  V30 4085 C 396.374 -3.39841 -0.735063 0
M  V30 4086 H 395.697 -3.99654 -0.107991 0
M  V30 4087 H 397.137 -4.08296 -1.14326 0
M  V30 4088 C 395.596 -2.79378 -1.88281 0
M  V30 4089 O 396.126 -2.69608 -2.97783 0
M  V30 4090 N 394.332 -2.37016 -1.68142 0
M  V30 4091 H 393.879 -2.45162 -0.790772 0
M  V30 4092 H 393.837 -1.96905 -2.45104 0
M  V30 4093 N 397.609 -0.515225 -1.4894 0
M  V30 4094 C 398.572 0.244681 -2.2789 0
M  V30 4095 C 399.572 0.881166 -1.34507 0
M  V30 4096 O 400.762 0.743497 -1.57537 0
M  V30 4097 C 397.894 1.35247 -3.12923 0
M  V30 4098 H 399.087 -0.448289 -2.96531 0
M  V30 4099 H 396.64 -0.270656 -1.53939 0
M  V30 4100 H 397.375 2.07916 -2.48881 0
M  V30 4101 H 397.16 0.901374 -3.81599 0
M  V30 4102 H 398.65 1.88737 -3.72516 0
M  V30 4103 N 399.087 1.5561 -0.249682 0
M  V30 4104 C 400.05 2.20217 0.635394 0
M  V30 4105 C 401.05 1.17227 1.10066 0
M  V30 4106 O 402.24 1.42292 1.00492 0
M  V30 4107 C 399.372 2.84794 1.87363 0
M  V30 4108 H 400.565 2.99814 0.0716752 0
M  V30 4109 H 398.118 1.563 -0.000153234 0
M  V30 4110 H 398.853 2.09142 2.47851 0
M  V30 4111 H 398.638 3.60241 1.5482 0
M  V30 4112 H 400.128 3.3423 2.5036 0
M  V30 4113 N 400.565 -0.0233959 1.57583 0
M  V30 4114 C 401.528 -1.00693 2.05897 0
M  V30 4115 C 402.528 -1.28693 0.964092 0
M  V30 4116 O 403.718 -1.23602 1.22753 0
M  V30 4117 C 400.85 -2.33825 2.4807 0
M  V30 4118 H 402.043 -0.589476 2.9405 0
M  V30 4119 H 399.596 -0.270354 1.53944 0
M  V30 4120 H 400.331 -2.80307 1.6309 0
M  V30 4121 H 400.116 -2.1483 3.2801 0
M  V30 4122 H 401.606 -3.04426 2.85857 0
M  V30 4123 N 402.043 -1.548 -0.295768 0
M  V30 4124 C 403.291 -1.73985 -1.02828 0
M  V30 4125 C 403.612 -0.531406 -1.87619 0
M  V30 4126 O 402.882 0.454221 -1.90561 0
M  V30 4127 H 401.462 -0.641556 -0.382642 0
M  V30 4128 H 404.124 -1.92163 -0.325489 0
M  V30 4129 H 403.22 -2.63129 -1.67838 0
M  V30 4130 N 403.521 0.559213 -1.47345 0
M  V30 4131 C 404.749 1.34194 -1.57479 0
M  V30 4132 C 405.164 1.87463 -0.224261 0
M  V30 4133 O 404.521 1.64888 0.782185 0
M  V30 4134 C 404.572 2.51324 -2.59843 0
M  V30 4135 O 404.293 2.00256 -3.89653 0
M  V30 4136 C 405.794 3.43563 -2.80142 0
M  V30 4137 H 403.014 0.409136 -0.531835 0
M  V30 4138 H 405.558 0.677609 -1.92947 0
M  V30 4139 H 403.713 3.13699 -2.27314 0
M  V30 4140 H 404.127 2.76708 -4.4557 0
M  V30 4141 H 405.601 4.2217 -3.55635 0
M  V30 4142 H 406.078 3.9698 -1.87892 0
M  V30 4143 H 406.684 2.87005 -3.1386 0
M  V30 4144 N 404.999 1.35443 0.805782 0
M  V30 4145 C 406.245 1.28952 1.56522 0
M  V30 4146 C 406.578 -0.135597 1.93726 0
M  V30 4147 O 405.853 -1.08516 1.61414 0
M  V30 4148 C 406.136 2.19678 2.85331 0
M  V30 4149 C 405.989 3.7081 2.54598 0
M  V30 4150 C 407.308 2.09495 3.8704 0
M  V30 4151 H 404.427 0.469764 0.567883 0
M  V30 4152 H 407.069 1.65851 0.927001 0
M  V30 4153 H 405.219 1.8834 3.39795 0
M  V30 4154 H 406.891 4.12593 2.06312 0
M  V30 4155 H 405.134 3.91051 1.8778 0
M  V30 4156 H 405.805 4.29679 3.46525 0
M  V30 4157 H 408.281 2.37045 3.41978 0
M  V30 4158 H 407.157 2.75173 4.74943 0
M  V30 4159 H 407.418 1.07714 4.28777 0
M  V30 4160 N 406.477 -1.02803 1.19454 0
M  V30 4161 C 407.723 -1.76478 0.999171 0
M  V30 4162 C 408.056 -1.88456 -0.468828 0
M  V30 4163 O 407.331 -1.40198 -1.34814 0
M  V30 4164 C 407.614 -3.19044 1.66981 0
M  V30 4165 C 407.467 -3.14932 3.21151 0
M  V30 4166 C 408.786 -4.17456 1.39349 0
M  V30 4167 H 405.905 -0.640614 0.364393 0
M  V30 4168 H 408.547 -1.20005 1.47305 0
M  V30 4169 H 406.697 -3.67263 1.2669 0
M  V30 4170 H 408.369 -2.74605 3.70661 0
M  V30 4171 H 406.612 -2.52625 3.52652 0
M  V30 4172 H 407.283 -4.1566 3.63223 0
M  V30 4173 H 409.759 -3.77842 1.74283 0
M  V30 4174 H 408.635 -5.154 1.88823 0
M  V30 4175 H 408.896 -4.40949 0.318813 0
M  V30 4176 N 407.956 -0.998596 -1.21925 0
M  V30 4177 C 409.204 -0.676325 -1.90448 0
M  V30 4178 C 409.525 0.794719 -1.78071 0
M  V30 4179 O 408.795 1.5701 -1.17152 0
M  V30 4180 H 407.375 -0.247165 -0.704925 0
M  V30 4181 H 410.037 -1.26633 -1.48156 0
M  V30 4182 H 409.133 -0.943858 -2.97486 0
M  V30 4183 N 409.434 1.37368 -0.772513 0
M  V30 4184 C 410.85 1.53059 -0.452231 0
M  V30 4185 C 411.05 1.73065 1.03203 0
M  V30 4186 O 410.106 1.75245 1.81784 0
M  V30 4187 C 411.419 2.72659 -1.26797 0
M  V30 4188 C 412.967 2.86521 -1.25995 0
M  V30 4189 C 413.442 4.09105 -2.05905 0
M  V30 4190 N 414.933 4.16219 -2.03263 0
M  V30 4191 C 415.668 5.10107 -2.61875 0
M  V30 4192 N 415.164 6.09547 -3.29278 0
M  V30 4193 N 416.957 5.02596 -2.51701 0
M  V30 4194 H 409.108 1.22634 -1.7342 0
M  V30 4195 H 411.371 0.597206 -0.736239 0
M  V30 4196 H 411.077 2.64343 -2.31982 0
M  V30 4197 H 410.951 3.66363 -0.897672 0
M  V30 4198 H 413.338 2.94308 -0.216081 0
M  V30 4199 H 413.419 1.93774 -1.66989 0
M  V30 4200 H 413.063 4.0208 -3.10313 0
M  V30 4201 H 412.993 5.00968 -1.62292 0
M  V30 4202 H 415.484 3.45012 -1.54192 0
M  V30 4203 H 415.797 6.77718 -3.71374 0
M  V30 4204 H 414.142 6.09824 -3.33377 0
M  V30 4205 H 417.333 4.23855 -1.98657 0
M  V30 4206 H 417.506 5.75582 -2.97673 0
M  V30 4207 N 410.912 0.523116 1.48665 0
M  V30 4208 C 412.158 -0.0134963 2.02796 0
M  V30 4209 C 412.491 -1.34582 1.40004 0
M  V30 4210 O 411.766 -1.86756 0.543381 0
M  V30 4211 C 412.049 -0.14276 3.59817 0
M  V30 4212 C 411.902 1.21425 4.331 0
M  V30 4213 C 413.221 -0.872856 4.31357 0
M  V30 4214 H 410.34 -0.00343074 0.736992 0
M  V30 4215 H 412.982 0.678816 1.7746 0
M  V30 4216 H 411.132 -0.732401 3.81534 0
M  V30 4217 H 412.804 1.84447 4.2282 0
M  V30 4218 H 411.047 1.79791 3.94788 0
M  V30 4219 H 411.718 1.07687 5.41394 0
M  V30 4220 H 414.194 -0.372555 4.14429 0
M  V30 4221 H 413.07 -0.932185 5.40927 0
M  V30 4222 H 413.331 -1.92161 3.98154 0
M  V30 4223 N 412.39 -1.55475 0.257931 0
M  V30 4224 C 413.34 -2.18506 -0.651094 0
M  V30 4225 C 414.324 -1.14431 -1.13112 0
M  V30 4226 O 415.516 -1.40305 -1.07905 0
M  V30 4227 C 412.645 -2.89653 -1.84272 0
M  V30 4228 C 411.731 -4.00996 -1.38068 0
M  V30 4229 N 412.122 -5.01816 -0.633609 0
M  V30 4230 C 410.42 -4.13753 -1.66506 0
M  V30 4231 C 411.121 -5.80371 -0.392922 0
M  V30 4232 N 410.097 -5.3505 -0.960359 0
M  V30 4233 H 413.899 -2.93811 -0.0722883 0
M  V30 4234 H 411.413 -1.62286 0.0607256 0
M  V30 4235 H 413.41 -3.33245 -2.50506 0
M  V30 4236 H 412.07 -2.15854 -2.42564 0
M  V30 4237 H 413.081 -5.17128 -0.282626 0
M  V30 4238 H 409.758 -3.51133 -2.25858 0
M  V30 4239 H 411.148 -6.7159 0.204235 0
M  V30 4240 N 413.868 0.0150385 -1.57593 0
M  V30 4241 C 414.831 0.995996 -2.06428 0
M  V30 4242 C 415.831 1.2818 -0.970903 0
M  V30 4243 O 417.021 1.22949 -1.23406 0
M  V30 4244 C 414.153 2.32506 -2.49307 0
M  V30 4245 H 415.346 0.573873 -2.94358 0
M  V30 4246 H 412.899 0.262186 -1.54085 0
M  V30 4247 H 413.634 2.79438 -1.64575 0
M  V30 4248 H 413.419 2.13087 -3.29145 0
M  V30 4249 H 414.909 3.02906 -2.87468 0
M  V30 4250 N 415.346 1.54954 0.287554 0
M  V30 4251 C 416.293 1.86834 1.35505 0
M  V30 4252 C 417.263 0.718452 1.49758 0
M  V30 4253 O 418.448 0.968358 1.644 0
M  V30 4254 C 415.588 2.13303 2.71286 0
M  V30 4255 C 414.701 3.40883 2.65373 0
M  V30 4256 C 413.836 3.57125 3.93236 0
M  V30 4257 C 412.875 4.78449 3.81776 0
M  V30 4258 N 412.012 4.91426 5.01443 0
M  V30 4259 H 416.852 2.77889 1.07619 0
M  V30 4260 H 414.389 1.37593 0.520241 0
M  V30 4261 H 416.347 2.26646 3.50267 0
M  V30 4262 H 414.977 1.25499 2.97405 0
M  V30 4263 H 414.029 3.36088 1.78182 0
M  V30 4264 H 415.341 4.29993 2.52799 0
M  V30 4265 H 414.495 3.70207 4.80658 0
M  V30 4266 H 413.234 2.66173 4.0866 0
M  V30 4267 H 412.239 4.65386 2.92738 0
M  V30 4268 H 413.464 5.70822 3.67884 0
M  V30 4269 H 411.41 4.03401 5.17304 0
M  V30 4270 H 411.327 5.74559 4.91343 0
M  V30 4271 H 412.595 5.08879 5.90477 0
M  V30 4272 N 416.824 -0.551391 1.4764 0
M  V30 4273 C 418.101 -1.31229 1.45046 0
M  V30 4274 C 418.481 -2.10563 0.150527 0
M  V30 4275 O 417.829 -2.11374 -0.867956 0
M  V30 4276 C 418.039 -2.21189 2.69956 0
M  V30 4277 C 419.387 -2.82021 3.1741 0
M  V30 4278 O 420.411 -2.31488 2.70724 0
M  V30 4279 O 419.27 -3.73885 3.98588 0
M  V30 4280 H 416.364 -0.591193 0.578291 0
M  V30 4281 H 418.91 -0.569813 1.59847 0
M  V30 4282 H 417.682 -1.62207 3.56096 0
M  V30 4283 H 417.305 -3.02722 2.57769 0
M  V30 4284 N 418.302 -1.35869 -0.798587 0
M  V30 4285 C 419.713 -1.26498 -1.37314 0
M  V30 4286 C 420.064 0.0991899 -1.95949 0
M  V30 4287 O 419.189 1.0004 -1.91888 0
M  V30 4288 C 419.784 -2.29054 -2.49639 0
M  V30 4289 C 418.343 -2.234 -3.02935 0
M  V30 4290 C 417.49 -2.14329 -1.75949 0
M  V30 4291 H 420.441 -1.46881 -0.600971 0
M  V30 4292 H 420.462 -1.92166 -3.28409 0
M  V30 4293 H 419.974 -3.2833 -2.06933 0
M  V30 4294 H 418.075 -1.27562 -3.50084 0
M  V30 4295 H 418.188 -3.15703 -3.60372 0
M  V30 4296 H 416.552 -1.60435 -1.9782 0
M  V30 4297 H 417.335 -3.15477 -1.35384 0
M  V30 4298 N 419.78 1.02168 -1.19998 0
M  V30 4299 C 421.057 1.72816 -0.916191 0
M  V30 4300 C 421.437 2.03081 0.576325 0
M  V30 4301 O 420.785 1.69122 1.53656 0
M  V30 4302 C 420.995 2.9997 -1.78378 0
M  V30 4303 C 422.343 3.73336 -2.02251 0
M  V30 4304 O 423.367 3.09914 -1.75589 0
M  V30 4305 O 422.226 4.87371 -2.47249 0
M  V30 4306 H 419.32 0.752924 -0.342103 0
M  V30 4307 H 421.866 1.08062 -1.30846 0
M  V30 4308 H 420.638 2.73888 -2.79466 0
M  V30 4309 H 420.261 3.72464 -1.39126 0
M  V30 4310 N 421.258 1.00505 1.21394 0
M  V30 4311 C 422.221 0.570459 2.21987 0
M  V30 4312 C 423.221 -0.353211 1.56873 0
M  V30 4313 O 424.411 -0.14349 1.73608 0
M  V30 4314 C 421.543 -0.168555 3.40483 0
M  V30 4315 H 422.736 1.46021 2.6195 0
M  V30 4316 H 420.289 0.793565 1.34656 0
M  V30 4317 H 421.024 -1.07374 3.06009 0
M  V30 4318 H 420.809 0.494823 3.88965 0
M  V30 4319 H 422.299 -0.460362 4.15055 0
M  V30 4320 N 422.737 -1.36956 0.779787 0
M  V30 4321 C 423.7 -2.2851 0.177662 0
M  V30 4322 C 424.7 -1.48393 -0.619377 0
M  V30 4323 O 425.89 -1.68505 -0.441785 0
M  V30 4324 C 423.022 -3.32428 -0.755279 0
M  V30 4325 H 424.215 -2.83269 0.984823 0
M  V30 4326 H 421.768 -1.46358 0.548544 0
M  V30 4327 H 422.503 -2.82808 -1.58714 0
M  V30 4328 H 422.288 -3.91659 -0.185817 0
M  V30 4329 H 423.778 -4.00824 -1.17174 0
M  V30 4330 N 424.215 -0.530993 -1.48385 0
M  V30 4331 C 425.163 0.244595 -2.3131 0
M  V30 4332 C 426.157 0.93451 -1.41291 0
M  V30 4333 O 427.363 0.85878 -1.58193 0
M  V30 4334 H 423.738 0.0977472 -0.74562 0
M  V30 4335 H 425.709 -0.474369 -2.94605 0
M  V30 4336 C 424.458 1.2779 -3.23365 0
M  V30 4337 H 423.781 0.756439 -3.92579 0
M  V30 4338 H 425.221 1.79198 -3.84271 0
M  V30 4339 C 423.68 2.31205 -2.45042 0
M  V30 4340 O 424.21 3.37661 -2.17596 0
M  V30 4341 N 422.416 2.04446 -2.0652 0
M  V30 4342 H 421.963 1.17891 -2.2904 0
M  V30 4343 H 421.921 2.73861 -1.54427 0
M  V30 4344 N 425.693 1.55336 -0.266172 0
M  V30 4345 C 426.918 2.04258 0.359661 0
M  V30 4346 C 427.343 1.14359 1.49344 0
M  V30 4347 O 426.701 0.140369 1.80756 0
M  V30 4348 C 426.749 3.50997 0.826635 0
M  V30 4349 O 425.853 3.64204 1.93466 0
M  V30 4350 H 425.194 0.659668 0.075727 0
M  V30 4351 H 427.724 2.00694 -0.39786 0
M  V30 4352 H 427.734 3.9219 1.12477 0
M  V30 4353 H 426.409 4.159 -0.00293032 0
M  V30 4354 H 424.986 3.34913 1.63974 0
M  V30 4355 N 427.171 -0.0066808 1.57599 0
M  V30 4356 C 428.582 -0.550379 1.78403 0
M  V30 4357 C 428.933 -1.74339 0.900014 0
M  V30 4358 O 428.058 -2.16166 0.100713 0
M  V30 4359 C 428.653 -1.00523 3.23544 0
M  V30 4360 C 427.212 -1.49428 3.45468 0
M  V30 4361 C 426.359 -0.442444 2.73748 0
M  V30 4362 H 429.31 0.219508 1.57175 0
M  V30 4363 H 429.331 -1.87157 3.31289 0
M  V30 4364 H 428.843 -0.136735 3.87859 0
M  V30 4365 H 426.944 -2.3839 2.86358 0
M  V30 4366 H 427.057 -1.52635 4.54136 0
M  V30 4367 H 425.421 -0.902578 2.38171 0
M  V30 4368 H 426.204 0.416973 3.40758 0
M  V30 4369 N 428.649 -1.55105 -0.279332 0
M  V30 4370 C 429.898 -1.74618 -1.00952 0
M  V30 4371 C 430.211 -0.551096 -1.87676 0
M  V30 4372 O 431.417 -0.628507 -2.64125 0
M  V30 4373 C 429.873 -3.09025 -1.84476 0
M  V30 4374 C 429.481 -4.36081 -1.0265 0
M  V30 4375 C 431.225 -3.37891 -2.56963 0
M  V30 4376 C 429.132 -5.6153 -1.85576 0
M  V30 4377 H 428.062 -0.650868 -0.38064 0
M  V30 4378 H 430.713 -1.81569 -0.265475 0
M  V30 4379 H 429.095 -2.96095 -2.62952 0
M  V30 4380 H 430.269 -4.59909 -0.286354 0
M  V30 4381 H 428.584 -4.14312 -0.416464 0
M  V30 4382 H 431.181 -4.28822 -3.19399 0
M  V30 4383 H 431.524 -2.57737 -3.26921 0
M  V30 4384 H 432.057 -3.5189 -1.85522 0
M  V30 4385 H 428.796 -6.44413 -1.2005 0
M  V30 4386 H 428.316 -5.41854 -2.57204 0
M  V30 4387 H 429.995 -5.99594 -2.43096 0
M  V30 4388 N 430.127 0.543554 -1.4793 0
M  V30 4389 C 431.543 0.870806 -1.3375 0
M  V30 4390 C 431.743 1.9864 -0.338261 0
M  V30 4391 O 430.799 2.51305 0.245371 0
M  V30 4392 C 432.112 1.25114 -2.73435 0
M  V30 4393 C 433.66 1.3618 -2.81823 0
M  V30 4394 C 434.135 1.77563 -4.22179 0
M  V30 4395 N 435.626 1.8469 -4.24787 0
M  V30 4396 C 436.361 2.18067 -5.30315 0
M  V30 4397 N 435.857 2.49963 -6.46135 0
M  V30 4398 N 437.65 2.18958 -5.17701 0
M  V30 4399 H 429.801 -0.19275 -2.11524 0
M  V30 4400 H 432.064 -0.0235777 -0.947707 0
M  V30 4401 H 431.77 0.50514 -3.48053 0
M  V30 4402 H 431.644 2.20431 -3.06088 0
M  V30 4403 H 434.031 2.09859 -2.07468 0
M  V30 4404 H 434.112 0.390169 -2.52807 0
M  V30 4405 H 433.756 1.04449 -4.97044 0
M  V30 4406 H 433.686 2.75753 -4.48629 0
M  V30 4407 H 436.177 1.62372 -3.41239 0
M  V30 4408 H 436.49 2.74497 -7.22406 0
M  V30 4409 H 434.835 2.47513 -6.49432 0
M  V30 4410 H 438.026 1.93488 -4.2624 0
M  V30 4411 H 438.199 2.44639 -6.00047 0
M  V30 4412 N 431.605 1.3629 0.791371 0
M  V30 4413 C 432.835 1.33368 1.57786 0
M  V30 4414 C 433.243 -0.0875188 1.88997 0
M  V30 4415 O 432.586 -1.05427 1.50435 0
M  V30 4416 C 432.648 2.08802 2.92646 0
M  V30 4417 C 432.312 3.57903 2.84174 0
M  V30 4418 C 433.309 4.52191 2.56553 0
M  V30 4419 C 430.994 4.00762 3.02812 0
M  V30 4420 C 432.988 5.87315 2.47669 0
M  V30 4421 C 430.675 5.35977 2.93551 0
M  V30 4422 C 431.673 6.29066 2.66017 0
M  V30 4423 O 431.361 7.61798 2.56746 0
M  V30 4424 H 431.093 0.459166 0.496128 0
M  V30 4425 H 433.647 1.79952 0.990269 0
M  V30 4426 H 431.877 1.56878 3.53449 0
M  V30 4427 H 433.566 1.98762 3.53904 0
M  V30 4428 H 434.332 4.20393 2.41858 0
M  V30 4429 H 430.211 3.2868 3.2325 0
M  V30 4430 H 433.755 6.59943 2.26099 0
M  V30 4431 H 429.652 5.67384 3.07808 0
M  V30 4432 H 430.42 7.71898 2.72242 0
M  V30 4433 N 433.083 -1.0153 1.20538 0
M  V30 4434 C 434.308 -1.79283 1.04271 0
M  V30 4435 C 434.733 -1.8372 -0.403544 0
M  V30 4436 O 434.091 -1.27321 -1.2907 0
M  V30 4437 C 434.139 -3.21535 1.63241 0
M  V30 4438 O 433.243 -4.03099 0.870908 0
M  V30 4439 H 432.584 -0.55293 0.367647 0
M  V30 4440 H 435.114 -1.27696 1.59859 0
M  V30 4441 H 435.124 -3.72243 1.6703 0
M  V30 4442 H 433.799 -3.1762 2.68497 0
M  V30 4443 H 432.376 -3.61693 0.907323 0
M  V30 4444 N 434.561 -1.01147 -1.20859 0
M  V30 4445 C 435.81 -0.693214 -1.89413 0
M  V30 4446 C 436.123 0.779969 -1.79376 0
M  V30 4447 O 437.329 1.21057 -2.43017 0
M  V30 4448 C 435.785 -1.18949 -3.39675 0
M  V30 4449 C 435.393 -2.68921 -3.58309 0
M  V30 4450 C 437.137 -0.94642 -4.13815 0
M  V30 4451 C 435.044 -3.12056 -5.0237 0
M  V30 4452 H 433.974 -0.255595 -0.709357 0
M  V30 4453 H 436.625 -1.22349 -1.36759 0
M  V30 4454 H 435.007 -0.587228 -3.91622 0
M  V30 4455 H 436.181 -3.34652 -3.16772 0
M  V30 4456 H 434.496 -2.91314 -2.97532 0
M  V30 4457 H 437.093 -1.24417 -5.20023 0
M  V30 4458 H 437.436 0.117219 -4.16135 0
M  V30 4459 H 437.969 -1.5118 -3.67953 0
M  V30 4460 H 434.708 -4.17674 -5.05202 0
M  V30 4461 H 434.228 -2.51041 -5.44737 0
M  V30 4462 H 435.907 -3.04403 -5.70918 0
M  V30 4463 N 436.039 1.36541 -0.78704 0
M  V30 4464 C 437.316 1.9355 -0.282424 0
M  V30 4465 C 437.696 1.71919 1.22503 0
M  V30 4466 O 437.044 1.07677 2.01539 0
M  V30 4467 C 437.254 3.4246 -0.672462 0
M  V30 4468 C 438.602 4.19582 -0.650863 0
M  V30 4469 O 439.626 3.50889 -0.612789 0
M  V30 4470 O 438.485 5.42106 -0.691623 0
M  V30 4471 H 435.579 0.824091 -0.0693 0
M  V30 4472 H 438.125 1.45736 -0.869423 0
M  V30 4473 H 436.897 3.51851 -1.71221 0
M  V30 4474 H 436.52 3.97556 -0.0592211 0
M  V30 4475 N 437.518 0.538854 1.48102 0
M  V30 4476 C 438.934 0.19732 1.58376 0
M  V30 4477 C 439.134 -1.29971 1.5398 0
M  V30 4478 O 438.19 -2.07861 1.43352 0
M  V30 4479 C 439.503 0.807716 2.89649 0
M  V30 4480 C 441.051 0.77726 3.03196 0
M  V30 4481 C 441.526 1.36639 4.37143 0
M  V30 4482 N 443.017 1.32875 4.43732 0
M  V30 4483 C 443.752 1.7544 5.45901 0
M  V30 4484 N 443.248 2.25776 6.54979 0
M  V30 4485 N 445.041 1.66623 5.36836 0
M  V30 4486 H 437.192 1.5117 1.49202 0
M  V30 4487 H 439.455 0.629327 0.708979 0
M  V30 4488 H 439.161 1.85909 2.98548 0
M  V30 4489 H 439.035 0.289975 3.76084 0
M  V30 4490 H 441.422 -0.265374 2.93904 0
M  V30 4491 H 441.503 1.33256 2.18349 0
M  V30 4492 H 441.147 2.408 4.47189 0
M  V30 4493 H 441.077 0.786689 5.20691 0
M  V30 4494 H 443.568 0.96037 3.65493 0
M  V30 4495 H 443.881 2.56226 7.29087 0
M  V30 4496 H 442.226 2.29775 6.55918 0
M  V30 4497 H 445.417 1.27089 4.50517 0
M  V30 4498 H 445.59 2.00115 6.16326 0
M  V30 4499 N 438.996 -1.55193 0.274407 0
M  V30 4500 C 439.946 -2.19184 -0.627882 0
M  V30 4501 C 440.93 -1.15625 -1.11892 0
M  V30 4502 O 442.122 -1.41441 -1.06411 0
M  V30 4503 C 439.251 -2.91591 -1.81189 0
M  V30 4504 C 438.337 -4.02438 -1.33807 0
M  V30 4505 N 438.728 -5.0246 -0.580349 0
M  V30 4506 C 437.026 -4.15496 -1.62109 0
M  V30 4507 C 437.727 -5.80756 -0.331344 0
M  V30 4508 N 436.703 -5.36038 -0.903556 0
M  V30 4509 H 440.505 -2.93871 -0.0411216 0
M  V30 4510 H 438.019 -1.62213 0.0779348 0
M  V30 4511 H 440.016 -3.35883 -2.46957 0
M  V30 4512 H 438.676 -2.18414 -2.40261 0
M  V30 4513 H 439.687 -5.17399 -0.227762 0
M  V30 4514 H 436.364 -3.53509 -2.22121 0
M  V30 4515 H 437.754 -6.71335 0.275454 0
M  V30 4516 N 440.474 -0.00167713 -1.576 0
M  V30 4517 C 441.702 0.693759 -1.94922 0
M  V30 4518 C 442.117 1.67215 -0.876626 0
M  V30 4519 O 441.474 1.81929 0.144279 0
M  V30 4520 C 441.525 1.42416 -3.32265 0
M  V30 4521 O 441.246 0.485014 -4.35407 0
M  V30 4522 C 442.747 2.21395 -3.84056 0
M  V30 4523 H 439.967 0.193118 -0.642609 0
M  V30 4524 H 442.511 -0.0532952 -2.04431 0
M  V30 4525 H 440.666 2.12284 -3.24059 0
M  V30 4526 H 441.08 1.00053 -5.14868 0
M  V30 4527 H 442.554 2.67996 -4.82578 0
M  V30 4528 H 443.031 3.04142 -3.16851 0
M  V30 4529 H 443.637 1.56542 -3.95443 0
M  V30 4530 N 441.952 1.55251 0.271103 0
M  V30 4531 C 443.229 1.66664 1.02384 0
M  V30 4532 C 443.609 0.534363 2.04225 0
M  V30 4533 O 442.957 -0.465337 2.23712 0
M  V30 4534 C 443.167 3.05961 1.67895 0
M  V30 4535 C 444.515 3.63772 2.18986 0
M  V30 4536 O 445.539 3.08606 1.77878 0
M  V30 4537 O 444.398 4.60429 2.94393 0
M  V30 4538 H 441.492 0.676957 0.475035 0
M  V30 4539 H 444.038 1.67589 0.26681 0
M  V30 4540 H 442.81 3.79815 0.941071 0
M  V30 4541 H 442.433 3.08943 2.5028 0
M  V30 4542 N 443.43 -0.535701 1.48216 0
M  V30 4543 C 444.36 -1.65014 1.65204 0
M  V30 4544 C 445.341 -1.62554 0.501011 0
M  V30 4545 O 446.526 -1.7984 0.732886 0
M  V30 4546 C 443.656 -3.03616 1.68626 0
M  V30 4547 C 442.61 -3.20932 2.83172 0
M  V30 4548 C 441.936 -4.60537 2.71679 0
M  V30 4549 C 443.236 -3.04249 4.24535 0
M  V30 4550 H 444.93 -1.51053 2.58502 0
M  V30 4551 H 442.476 -0.725262 1.24402 0
M  V30 4552 H 444.429 -3.81446 1.79099 0
M  V30 4553 H 443.153 -3.18587 0.719026 0
M  V30 4554 H 441.812 -2.45517 2.72244 0
M  V30 4555 H 441.46 -4.72336 1.72937 0
M  V30 4556 H 441.16 -4.73069 3.48538 0
M  V30 4557 H 442.684 -5.40475 2.84112 0
M  V30 4558 H 444.098 -3.71877 4.36326 0
M  V30 4559 H 442.495 -3.28278 5.02348 0
M  V30 4560 H 443.565 -2.00739 4.41397 0
M  V30 4561 N 444.908 -1.36708 -0.784132 0
M  V30 4562 C 446.185 -1.21776 -1.53069 0
M  V30 4563 C 446.565 0.193876 -2.10208 0
M  V30 4564 O 445.913 1.20012 -1.94446 0
M  V30 4565 C 446.123 -2.30395 -2.62143 0
M  V30 4566 C 447.471 -2.67325 -3.29882 0
M  V30 4567 O 448.495 -2.29478 -2.7243 0
M  V30 4568 O 447.354 -3.32485 -4.33724 0
M  V30 4569 H 444.448 -0.474459 -0.677361 0
M  V30 4570 H 446.994 -1.48454 -0.82216 0
M  V30 4571 H 445.766 -3.2498 -2.17953 0
M  V30 4572 H 445.389 -2.05112 -3.40609 0
M  V30 4573 N 446.386 1.0089 -1.21074 0
M  V30 4574 C 447.802 1.2695 -0.967257 0
M  V30 4575 C 448.002 1.9846 0.348673 0
M  V30 4576 O 447.058 2.28459 1.0753 0
M  V30 4577 C 448.371 2.09697 -2.15517 0
M  V30 4578 C 449.919 2.22937 -2.197 0
M  V30 4579 C 450.394 3.09064 -3.37999 0
M  V30 4580 N 451.885 3.16653 -3.38061 0
M  V30 4581 C 452.62 3.8354 -4.26245 0
M  V30 4582 N 452.116 4.52488 -5.2462 0
M  V30 4583 N 453.909 3.80141 -4.14064 0
M  V30 4584 H 446.06 0.529005 -2.05707 0
M  V30 4585 H 448.323 0.296148 -0.900556 0
M  V30 4586 H 448.029 1.64497 -3.10859 0
M  V30 4587 H 447.903 3.10444 -2.14253 0
M  V30 4588 H 450.29 2.67357 -1.24916 0
M  V30 4589 H 450.371 1.21673 -2.2501 0
M  V30 4590 H 450.015 2.65347 -4.33074 0
M  V30 4591 H 449.945 4.10433 -3.29928 0
M  V30 4592 H 452.436 2.67566 -2.66865 0
M  V30 4593 H 452.749 5.01219 -5.88217 0
M  V30 4594 H 451.094 4.51288 -5.28549 0
M  V30 4595 H 454.285 3.25427 -3.36474 0
M  V30 4596 H 454.458 4.31992 -4.82998 0
M  V30 4597 N 447.864 1.01787 1.20321 0
M  V30 4598 C 449.111 0.707936 1.89722 0
M  V30 4599 C 449.439 -0.762535 1.78929 0
M  V30 4600 O 448.694 -1.56977 1.16861 0
M  V30 4601 C 448.993 1.09076 3.40349 0
M  V30 4602 C 448.659 2.55765 3.71342 0
M  V30 4603 C 447.321 2.95845 3.79511 0
M  V30 4604 C 449.673 3.50723 3.85542 0
M  V30 4605 C 447.001 4.2982 3.99339 0
M  V30 4606 C 449.353 4.84387 4.06881 0
M  V30 4607 C 448.017 5.24172 4.1328 0
M  V30 4608 H 447.287 0.259052 0.694243 0
M  V30 4609 H 449.934 1.27868 1.42555 0
M  V30 4610 H 448.239 0.438453 3.89339 0
M  V30 4611 H 449.936 0.828636 3.92345 0
M  V30 4612 H 446.526 2.2371 3.65584 0
M  V30 4613 H 450.71 3.20916 3.78585 0
M  V30 4614 H 445.966 4.60196 4.02529 0
M  V30 4615 H 450.14 5.57891 4.1681 0
M  V30 4616 H 447.767 6.27997 4.28396 0
M  V30 4617 N 449.342 -1.36122 0.79427 0
M  V30 4618 C 450.589 -1.99111 0.368905 0
M  V30 4619 C 450.917 -1.63032 -1.0607 0
M  V30 4620 O 450.172 -0.879303 -1.74833 0
M  V30 4621 C 450.471 -3.5409 0.48527 0
M  V30 4622 C 450.137 -4.10003 1.87638 0
M  V30 4623 C 448.799 -4.24986 2.257 0
M  V30 4624 C 451.151 -4.40423 2.78706 0
M  V30 4625 C 448.479 -4.67701 3.54221 0
M  V30 4626 C 450.831 -4.84573 4.0666 0
M  V30 4627 C 449.495 -4.97761 4.44737 0
M  V30 4628 H 448.765 -0.7286 0.134992 0
M  V30 4629 H 451.412 -1.62534 1.01267 0
M  V30 4630 H 449.717 -3.91052 -0.241984 0
M  V30 4631 H 451.414 -4.00766 0.137109 0
M  V30 4632 H 448.004 -3.98784 1.57064 0
M  V30 4633 H 452.188 -4.28412 2.50553 0
M  V30 4634 H 447.444 -4.761 3.83587 0
M  V30 4635 H 451.618 -5.07074 4.77336 0
M  V30 4636 H 449.245 -5.30618 5.44379 0
M  V30 4637 N 450.82 -0.546701 -1.47814 0
M  V30 4638 C 452.048 -0.0232857 -2.06887 0
M  V30 4639 C 452.463 1.26571 -1.4009 0
M  V30 4640 O 451.82 1.7569 -0.493906 0
M  V30 4641 C 451.871 0.186975 -3.61016 0
M  V30 4642 O 451.592 -1.05097 -4.25307 0
M  V30 4643 C 453.093 0.748872 -4.36929 0
M  V30 4644 H 450.313 -0.0410763 -0.669742 0
M  V30 4645 H 452.857 -0.757117 -1.89968 0
M  V30 4646 H 451.012 0.870903 -3.77484 0
M  V30 4647 H 451.426 -0.842121 -5.17695 0
M  V30 4648 H 452.9 0.845334 -5.45489 0
M  V30 4649 H 453.377 1.75772 -4.02493 0
M  V30 4650 H 453.983 0.100979 -4.2518 0
M  V30 4651 N 452.299 1.55045 -0.282633 0
M  V30 4652 C 453.548 1.98938 0.332667 0
M  V30 4653 C 453.861 1.17455 1.56409 0
M  V30 4654 O 455.067 1.51527 2.25282 0
M  V30 4655 C 453.523 3.54105 0.643226 0
M  V30 4656 C 453.131 4.44374 -0.568814 0
M  V30 4657 C 454.875 4.06569 1.22074 0
M  V30 4658 C 452.782 5.90943 -0.232426 0
M  V30 4659 H 451.712 0.743043 0.128075 0
M  V30 4660 H 454.363 1.79341 -0.388464 0
M  V30 4661 H 452.745 3.69532 1.42346 0
M  V30 4662 H 453.919 4.40718 -1.34551 0
M  V30 4663 H 452.234 4.02585 -1.06369 0
M  V30 4664 H 454.831 5.13626 1.48635 0
M  V30 4665 H 455.174 3.56057 2.15707 0
M  V30 4666 H 455.707 3.94612 0.502621 0
M  V30 4667 H 452.446 6.45567 -1.13683 0
M  V30 4668 H 451.966 5.9765 0.507357 0
M  V30 4669 H 453.645 6.4677 0.172657 0
M  V30 4670 N 453.777 0.010035 1.57597 0
M  V30 4671 C 454.725 -0.996272 2.10184 0
M  V30 4672 C 455.719 -1.34942 1.02406 0
M  V30 4673 O 456.925 -1.33389 1.20861 0
M  V30 4674 H 453.3 -0.338982 0.671264 0
M  V30 4675 H 455.271 -0.527272 2.93705 0
M  V30 4676 C 454.02 -2.27599 2.62857 0
M  V30 4677 H 453.343 -2.01295 3.45428 0
M  V30 4678 H 454.783 -2.96265 3.0332 0
M  V30 4679 C 453.242 -2.99269 1.54725 0
M  V30 4680 O 453.772 -3.90644 0.93597 0
M  V30 4681 N 451.978 -2.61269 1.27228 0
M  V30 4682 H 451.525 -1.87043 1.77123 0
M  V30 4683 H 451.483 -3.09534 0.550999 0
M  V30 4684 N 455.255 -1.55392 -0.262866 0
M  V30 4685 C 456.666 -1.67079 -0.833158 0
M  V30 4686 C 457.017 -0.604539 -1.86654 0
M  V30 4687 O 456.142 0.252138 -2.14926 0
M  V30 4688 C 456.737 -3.02891 -1.51797 0
M  V30 4689 C 455.296 -3.16571 -2.03617 0
M  V30 4690 C 454.443 -2.62909 -0.881701 0
M  V30 4691 H 457.394 -1.58652 -0.0389986 0
M  V30 4692 H 457.415 -2.96445 -2.38538 0
M  V30 4693 H 456.927 -3.80473 -0.765619 0
M  V30 4694 H 455.028 -2.43782 -2.81782 0
M  V30 4695 H 455.141 -4.23271 -2.24452 0
M  V30 4696 H 453.505 -2.20324 -1.27786 0
M  V30 4697 H 454.288 -3.43003 -0.14269 0
M  V30 4698 N 456.733 0.527833 -1.48498 0
M  V30 4699 C 457.643 1.65907 -1.65867 0
M  V30 4700 C 458.659 1.6537 -0.541192 0
M  V30 4701 O 459.835 1.84282 -0.812534 0
M  V30 4702 C 456.9 3.02364 -1.69637 0
M  V30 4703 C 455.961 3.1374 -2.93028 0
M  V30 4704 C 455.194 4.43688 -2.96609 0
M  V30 4705 O 455.417 5.30913 -2.08538 0
M  V30 4706 O 454.351 4.59475 -3.88802 0
M  V30 4707 H 458.177 1.5419 -2.61647 0
M  V30 4708 H 455.762 0.701163 -1.31924 0
M  V30 4709 H 457.644 3.83515 -1.74625 0
M  V30 4710 H 456.319 3.14401 -0.770312 0
M  V30 4711 H 455.226 2.31877 -2.93571 0
M  V30 4712 H 456.559 3.06621 -3.85026 0
M  V30 4713 N 458.211 1.37122 0.776871 0
M  V30 4714 C 459.488 1.22586 1.52421 0
M  V30 4715 C 459.868 -0.182726 2.10308 0
M  V30 4716 O 459.216 -1.18979 1.9508 0
M  V30 4717 C 459.426 2.31782 2.60918 0
M  V30 4718 C 460.774 2.69071 3.2846 0
M  V30 4719 O 461.798 2.3092 2.71209 0
M  V30 4720 O 460.657 3.3478 4.31954 0
M  V30 4721 H 457.751 0.478045 0.674835 0
M  V30 4722 H 460.297 1.48888 0.814275 0
M  V30 4723 H 459.069 3.26131 2.16227 0
M  V30 4724 H 458.692 2.06916 3.39517 0
M  V30 4725 N 459.689 -1.00246 1.21608 0
M  V30 4726 C 460.937 -1.73717 1.0328 0
M  V30 4727 C 461.258 -1.90102 -0.434318 0
M  V30 4728 O 460.528 -1.45376 -1.31311 0
M  V30 4729 H 459.108 -0.643613 0.379172 0
M  V30 4730 H 461.77 -1.20787 1.52959 0
M  V30 4731 H 460.866 -2.73535 1.50283 0
M  V30 4732 N 461.167 -1.02423 -1.1978 0
M  V30 4733 C 462.414 -0.717988 -1.89344 0
M  V30 4734 C 462.742 0.753036 -1.79331 0
M  V30 4735 O 461.997 1.56355 -1.17692 0
M  V30 4736 C 462.296 -1.1088 -3.39765 0
M  V30 4737 C 461.962 -2.57731 -3.6998 0
M  V30 4738 C 460.624 -2.97854 -3.77937 0
M  V30 4739 C 462.976 -3.52763 -3.83677 0
M  V30 4740 C 460.304 -4.31931 -3.97054 0
M  V30 4741 C 462.656 -4.86538 -4.04306 0
M  V30 4742 C 461.32 -5.26356 -4.10494 0
M  V30 4743 H 460.59 -0.26273 -0.692859 0
M  V30 4744 H 463.237 -1.28623 -1.41875 0
M  V30 4745 H 461.542 -0.459094 -3.89101 0
M  V30 4746 H 463.239 -0.849432 -3.919 0
M  V30 4747 H 459.829 -2.25646 -3.64393 0
M  V30 4748 H 464.013 -3.2292 -3.76877 0
M  V30 4749 H 459.269 -4.62324 -4.00083 0
M  V30 4750 H 463.443 -5.60093 -4.13846 0
M  V30 4751 H 461.07 -6.3026 -4.2506 0
M  V30 4752 N 462.645 1.35699 -0.801477 0
M  V30 4753 C 463.894 1.98165 -0.375979 0
M  V30 4754 C 464.207 1.64306 1.06127 0
M  V30 4755 O 465.413 2.20097 1.58964 0
M  V30 4756 C 463.869 3.54497 -0.621305 0
M  V30 4757 C 463.477 3.9727 -2.07076 0
M  V30 4758 C 465.221 4.23697 -0.26091 0
M  V30 4759 C 463.128 5.46427 -2.26211 0
M  V30 4760 H 462.058 0.741478 -0.136844 0
M  V30 4761 H 464.709 1.54834 -0.984814 0
M  V30 4762 H 463.091 3.95958 0.0574112 0
M  V30 4763 H 464.265 3.66974 -2.78687 0
M  V30 4764 H 462.58 3.40943 -2.39054 0
M  V30 4765 H 465.177 5.33334 -0.381994 0
M  V30 4766 H 465.52 4.0869 0.792344 0
M  V30 4767 H 466.053 3.87639 -0.893339 0
M  V30 4768 H 462.792 5.66396 -3.29963 0
M  V30 4769 H 462.312 5.78309 -1.59119 0
M  V30 4770 H 463.991 6.12819 -2.07513 0
M  V30 4771 N 464.123 0.554532 1.47522 0
M  V30 4772 C 465.07 -0.19466 2.29978 0
M  V30 4773 C 466.04 -0.910882 1.38896 0
M  V30 4774 O 467.225 -0.907102 1.67858 0
M  V30 4775 C 464.365 -1.22035 3.22802 0
M  V30 4776 C 463.478 -0.510474 4.28973 0
M  V30 4777 C 462.613 -1.52123 5.08952 0
M  V30 4778 C 461.652 -0.796173 6.069 0
M  V30 4779 N 460.789 -1.75363 6.79847 0
M  V30 4780 H 465.629 0.51461 2.93523 0
M  V30 4781 H 463.166 0.265607 1.44682 0
M  V30 4782 H 465.124 -1.8276 3.7504 0
M  V30 4783 H 463.754 -1.89769 2.61127 0
M  V30 4784 H 462.806 0.211234 3.79813 0
M  V30 4785 H 464.118 0.0576503 4.98767 0
M  V30 4786 H 463.272 -2.20207 5.65326 0
M  V30 4787 H 462.011 -2.12327 4.39054 0
M  V30 4788 H 461.016 -0.101388 5.49707 0
M  V30 4789 H 462.241 -0.199911 6.78806 0
M  V30 4790 H 460.187 -2.3443 6.12682 0
M  V30 4791 H 460.104 -1.23759 7.45801 0
M  V30 4792 H 461.372 -2.4257 7.40797 0
M  V30 4793 N 465.601 -1.54893 0.290851 0
M  V30 4794 C 466.829 -2.04343 -0.324288 0
M  V30 4795 C 467.244 -1.16859 -1.48289 0
M  V30 4796 O 466.601 -0.192018 -1.81487 0
M  V30 4797 C 466.652 -3.52756 -0.79026 0
M  V30 4798 O 466.373 -4.36913 0.322213 0
M  V30 4799 C 467.874 -4.18161 -1.4716 0
M  V30 4800 H 465.094 -0.667135 -0.0719173 0
M  V30 4801 H 467.638 -1.99981 0.427529 0
M  V30 4802 H 465.793 -3.57511 -1.49213 0
M  V30 4803 H 466.207 -5.24486 -0.0387372 0
M  V30 4804 H 467.681 -5.23562 -1.7489 0
M  V30 4805 H 468.158 -3.67282 -2.40834 0
M  V30 4806 H 468.764 -4.17454 -0.813178 0
M  V30 4807 N 467.08 -0.0183926 -1.57589 0
M  V30 4808 C 468.308 0.673046 -1.95647 0
M  V30 4809 C 468.723 1.66275 -0.894312 0
M  V30 4810 O 468.08 1.82072 0.124975 0
M  V30 4811 C 468.131 1.38884 -3.33756 0
M  V30 4812 O 467.852 0.438806 -4.35897 0
M  V30 4813 C 469.353 2.1731 -3.86383 0
M  V30 4814 H 466.573 0.186292 -0.644621 0
M  V30 4815 H 469.117 -0.0749748 -2.04363 0
M  V30 4816 H 467.272 2.08835 -3.26293 0
M  V30 4817 H 467.686 0.945869 -5.15901 0
M  V30 4818 H 469.16 2.62863 -4.85394 0
M  V30 4819 H 469.637 3.00764 -3.20059 0
M  V30 4820 H 470.243 1.52339 -3.97081 0
M  V30 4821 N 468.558 1.5553 0.254621 0
M  V30 4822 C 469.505 1.89666 1.31512 0
M  V30 4823 C 470.475 0.750057 1.482 0
M  V30 4824 O 471.66 1.00301 1.62309 0
M  V30 4825 C 468.8 2.19009 2.667 0
M  V30 4826 C 467.913 3.46435 2.58083 0
M  V30 4827 C 467.048 3.65386 3.85573 0
M  V30 4828 C 466.087 4.8644 3.71541 0
M  V30 4829 N 465.224 5.01952 4.90906 0
M  V30 4830 H 470.064 2.80109 1.017 0
M  V30 4831 H 467.601 1.38666 0.490938 0
M  V30 4832 H 469.559 2.34025 3.45381 0
M  V30 4833 H 468.189 1.31779 2.94676 0
M  V30 4834 H 467.241 3.39792 1.71013 0
M  V30 4835 H 468.553 4.35258 2.43622 0
M  V30 4836 H 467.707 3.80319 4.72697 0
M  V30 4837 H 466.446 2.74781 4.02922 0
M  V30 4838 H 465.451 4.71491 2.82801 0
M  V30 4839 H 466.676 5.78497 3.55694 0
M  V30 4840 H 464.622 4.14283 5.08631 0
M  V30 4841 H 464.539 5.84851 4.79046 0
M  V30 4842 H 465.807 5.21289 5.7955 0
M  V30 4843 N 470.036 -0.519951 1.48776 0
M  V30 4844 C 471.447 -1.10177 1.50725 0
M  V30 4845 C 471.798 -1.94153 0.282678 0
M  V30 4846 O 470.923 -2.07645 -0.609298 0
M  V30 4847 C 471.518 -2.00482 2.73116 0
M  V30 4848 C 470.077 -2.53862 2.77905 0
M  V30 4849 C 469.224 -1.31047 2.44381 0
M  V30 4850 H 472.175 -0.30473 1.55747 0
M  V30 4851 H 472.196 -2.8491 2.52203 0
M  V30 4852 H 471.708 -1.39335 3.62225 0
M  V30 4853 H 469.809 -3.18702 1.93029 0
M  V30 4854 H 469.922 -2.9231 3.79594 0
M  V30 4855 H 468.286 -1.62953 1.95751 0
M  V30 4856 H 469.069 -0.71637 3.35743 0
M  V30 4857 N 471.514 -1.37532 -0.769588 0
M  V30 4858 C 472.444 -1.36172 -1.89682 0
M  V30 4859 C 473.425 -0.23001 -1.68538 0
M  V30 4860 O 474.61 -0.43069 -1.89364 0
M  V30 4861 C 471.74 -1.1701 -3.26995 0
M  V30 4862 C 470.694 -2.27216 -3.62708 0
M  V30 4863 C 470.02 -1.93174 -4.98586 0
M  V30 4864 C 471.32 -3.6941 -3.69234 0
M  V30 4865 H 473.014 -2.30499 -1.91078 0
M  V30 4866 H 470.56 -1.10953 -0.917902 0
M  V30 4867 H 472.513 -1.14688 -4.05493 0
M  V30 4868 H 471.237 -0.191395 -3.26039 0
M  V30 4869 H 469.896 -2.28697 -2.86519 0
M  V30 4870 H 469.544 -0.938281 -4.94171 0
M  V30 4871 H 469.244 -2.66973 -5.23449 0
M  V30 4872 H 470.768 -1.92443 -5.79481 0
M  V30 4873 H 472.182 -3.70047 -4.37879 0
M  V30 4874 H 470.579 -4.4228 -4.05597 0
M  V30 4875 H 471.649 -4.0288 -2.69844 0
M  V30 4876 N 472.992 0.995999 -1.22138 0
M  V30 4877 C 474.269 1.70834 -0.952642 0
M  V30 4878 C 474.649 2.04257 0.533119 0
M  V30 4879 O 473.997 1.72343 1.50034 0
M  V30 4880 C 474.207 2.96119 -1.84701 0
M  V30 4881 C 475.555 3.68962 -2.10124 0
M  V30 4882 O 476.579 3.0612 -1.82124 0
M  V30 4883 O 475.438 4.82017 -2.57531 0
M  V30 4884 H 472.532 0.745498 -0.357997 0
M  V30 4885 H 475.078 1.05262 -1.33109 0
M  V30 4886 H 473.85 2.67898 -2.85213 0
M  V30 4887 H 473.473 3.6943 -1.46995 0
M  V30 4888 N 474.47 1.03057 1.19235 0
M  V30 4889 C 475.886 0.747947 1.40989 0
M  V30 4890 C 476.086 -0.666752 1.90149 0
M  V30 4891 O 475.142 -1.43249 2.07933 0
M  V30 4892 C 476.455 1.7855 2.41951 0
M  V30 4893 C 478.003 1.80524 2.55695 0
M  V30 4894 C 478.478 2.83243 3.59913 0
M  V30 4895 N 479.969 2.8207 3.67411 0
M  V30 4896 C 480.704 3.58204 4.47747 0
M  V30 4897 N 480.2 4.44057 5.31775 0
M  V30 4898 N 481.993 3.46738 4.42413 0
M  V30 4899 H 474.144 1.94367 0.856468 0
M  V30 4900 H 476.407 0.840412 0.438647 0
M  V30 4901 H 476.113 2.79973 2.12857 0
M  V30 4902 H 475.987 1.6092 3.41152 0
M  V30 4903 H 478.374 0.79778 2.84112 0
M  V30 4904 H 478.455 2.02229 1.56643 0
M  V30 4905 H 478.099 3.84161 3.32239 0
M  V30 4906 H 478.029 2.58795 4.5862 0
M  V30 4907 H 480.52 2.19803 3.074 0
M  V30 4908 H 480.833 4.98884 5.90199 0
M  V30 4909 H 479.178 4.48129 5.3123 0
M  V30 4910 H 482.369 2.79077 3.75811 0
M  V30 4911 H 482.542 4.06322 5.04783 0
M  V30 4912 N 475.948 -1.35272 0.808662 0
M  V30 4913 C 476.858 -2.33546 0.222079 0
M  V30 4914 C 477.874 -1.6196 -0.636011 0
M  V30 4915 O 479.05 -1.93822 -0.547274 0
M  V30 4916 C 476.115 -3.41148 -0.61795 0
M  V30 4917 C 475.176 -4.28507 0.260875 0
M  V30 4918 C 474.409 -5.3097 -0.539156 0
M  V30 4919 O 474.632 -5.42123 -1.77367 0
M  V30 4920 O 473.566 -6.01858 0.0710526 0
M  V30 4921 H 477.392 -2.85515 1.03512 0
M  V30 4922 H 474.977 -1.38079 0.570495 0
M  V30 4923 H 476.859 -4.06889 -1.09634 0
M  V30 4924 H 475.534 -2.91447 -1.40855 0
M  V30 4925 H 474.441 -3.6574 0.786451 0
M  V30 4926 H 475.774 -4.81611 1.01547 0
M  V30 4927 N 477.426 -0.562348 -1.47226 0
M  V30 4928 C 478.336 0.185466 -2.33866 0
M  V30 4929 C 479.352 0.906713 -1.48508 0
M  V30 4930 O 480.528 0.874458 -1.81425 0
M  V30 4931 C 477.593 1.19904 -3.25306 0
M  V30 4932 C 476.654 0.484669 -4.26555 0
M  V30 4933 C 475.887 1.44996 -5.13626 0
M  V30 4934 O 476.11 2.68515 -5.03245 0
M  V30 4935 O 475.044 0.971642 -5.94006 0
M  V30 4936 H 478.87 -0.525361 -2.99121 0
M  V30 4937 H 476.455 -0.322916 -1.45868 0
M  V30 4938 H 478.337 1.78399 -3.81774 0
M  V30 4939 H 477.012 1.8917 -2.62672 0
M  V30 4940 H 475.919 -0.141605 -3.73832 0
M  V30 4941 H 477.252 -0.166634 -4.91918 0
M  V30 4942 N 478.904 1.54736 -0.299062 0
M  V30 4943 C 480.132 2.04512 0.313447 0
M  V30 4944 C 480.547 1.17643 1.47667 0
M  V30 4945 O 479.904 0.20164 1.81383 0
M  V30 4946 C 479.955 3.53171 0.771542 0
M  V30 4947 O 479.676 4.36736 -0.345379 0
M  V30 4948 C 481.177 4.18936 1.4494 0
M  V30 4949 H 478.397 0.667507 0.0683784 0
M  V30 4950 H 480.941 1.99752 -0.438129 0
M  V30 4951 H 479.096 3.58298 1.47314 0
M  V30 4952 H 479.51 5.24499 0.0109219 0
M  V30 4953 H 480.984 5.24482 1.72111 0
M  V30 4954 H 481.461 3.68554 2.38883 0
M  V30 4955 H 482.067 4.17879 0.791028 0
M  V30 4956 N 480.382 0.0267497 1.57577 0
M  V30 4957 C 481.345 -0.940916 2.08996 0
M  V30 4958 C 482.345 -1.25561 1.00455 0
M  V30 4959 O 483.535 -1.19634 1.26623 0
M  V30 4960 C 480.667 -2.25814 2.55384 0
M  V30 4961 H 481.86 -0.495628 2.95776 0
M  V30 4962 H 479.413 -0.221241 1.54726 0
M  V30 4963 H 480.148 -2.74976 1.71926 0
M  V30 4964 H 479.933 -2.04285 3.34679 0
M  V30 4965 H 481.423 -2.95178 2.95398 0
M  V30 4966 N 481.861 -1.55662 -0.24637 0
M  V30 4967 C 483.107 -1.78698 -0.971525 0
M  V30 4968 C 483.462 -0.59577 -1.82944 0
M  V30 4969 O 482.755 0.41097 -1.87141 0
M  V30 4970 C 482.949 -3.04885 -1.86494 0
M  V30 4971 C 482.778 -4.36165 -1.09501 0
M  V30 4972 C 481.548 -4.98929 -0.799895 0
M  V30 4973 C 483.746 -5.12126 -0.472334 0
M  V30 4974 N 481.728 -6.139 -0.00595299 0
M  V30 4975 C 483.099 -6.1972 0.18616 0
M  V30 4976 C 485.154 -4.96426 -0.382854 0
M  V30 4977 C 483.857 -7.13321 0.925542 0
M  V30 4978 C 485.883 -5.90405 0.342999 0
M  V30 4979 C 485.245 -6.97407 0.990128 0
M  V30 4980 H 481.344 -0.705852 -0.336597 0
M  V30 4981 H 483.928 -1.93157 -0.244615 0
M  V30 4982 H 482.099 -2.91753 -2.56388 0
M  V30 4983 H 483.831 -3.16212 -2.5257 0
M  V30 4984 H 480.586 -4.60365 -1.11181 0
M  V30 4985 H 481.01 -6.75938 0.379127 0
M  V30 4986 H 485.652 -4.13777 -0.868834 0
M  V30 4987 H 483.37 -7.9547 1.42312 0
M  V30 4988 H 486.956 -5.80333 0.412907 0
M  V30 4989 H 485.836 -7.68874 1.54282 0
M  V30 4990 N 483.339 0.512053 -1.4905 0
M  V30 4991 C 484.269 1.62365 -1.67809 0
M  V30 4992 C 485.25 1.61737 -0.526809 0
M  V30 4993 O 486.435 1.78651 -0.761404 0
M  V30 4994 C 483.565 3.00895 -1.73435 0
M  V30 4995 C 482.519 3.16387 -2.88242 0
M  V30 4996 C 481.845 4.56157 -2.78971 0
M  V30 4997 C 483.145 2.97457 -4.29321 0
M  V30 4998 H 484.839 1.46921 -2.60873 0
M  V30 4999 H 482.385 0.705379 -1.2554 0
M  V30 5000 H 484.338 3.78549 -1.85145 0
M  V30 5001 H 483.062 3.17403 -0.769619 0
M  V30 5002 H 481.721 2.41155 -2.76116 0
M  V30 5003 H 481.369 4.69525 -1.8043 0
M  V30 5004 H 481.069 4.67465 -3.5602 0
M  V30 5005 H 482.593 5.35886 -2.92675 0
M  V30 5006 H 484.007 3.64888 -4.42187 0
M  V30 5007 H 482.404 3.20245 -5.07507 0
M  V30 5008 H 483.474 1.93692 -4.44535 0
M  V30 5009 N 484.817 1.37938 0.762283 0
M  V30 5010 C 485.765 1.34569 1.89721 0
M  V30 5011 C 486.759 0.232929 1.67791 0
M  V30 5012 O 487.965 0.401485 1.75465 0
M  V30 5013 H 484.34 0.419594 0.624055 0
M  V30 5014 H 486.311 2.30357 1.8968 0
M  V30 5015 C 485.06 1.17898 3.27101 0
M  V30 5016 H 484.383 2.02781 3.44558 0
M  V30 5017 H 485.823 1.19593 4.06784 0
M  V30 5018 C 484.282 -0.114728 3.36705 0
M  V30 5019 O 484.812 -1.0949 3.8649 0
M  V30 5020 N 483.018 -0.16863 2.9011 0
M  V30 5021 H 482.565 0.62967 2.49786 0
M  V30 5022 H 482.523 -1.03383 2.96916 0
M  V30 5023 N 486.295 -0.989507 1.22664 0
M  V30 5024 C 487.544 -1.72375 1.04737 0
M  V30 5025 C 487.857 -1.91096 -0.417316 0
M  V30 5026 O 489.063 -2.6188 -0.716334 0
M  V30 5027 C 487.519 -3.10161 1.82561 0
M  V30 5028 C 487.127 -2.99358 3.333 0
M  V30 5029 C 488.871 -3.87607 1.73093 0
M  V30 5030 C 486.778 -4.32319 4.03552 0
M  V30 5031 H 485.708 -0.646326 0.388302 0
M  V30 5032 H 488.359 -1.10437 1.46546 0
M  V30 5033 H 486.741 -3.728 1.33552 0
M  V30 5034 H 487.915 -2.45863 3.89728 0
M  V30 5035 H 486.23 -2.35392 3.43481 0
M  V30 5036 H 488.827 -4.86025 2.22899 0
M  V30 5037 H 489.17 -4.10509 0.691976 0
M  V30 5038 H 489.703 -3.31652 2.19663 0
M  V30 5039 H 486.442 -4.14616 5.07714 0
M  V30 5040 H 485.962 -4.85714 3.51911 0
M  V30 5041 H 487.641 -5.01051 4.09337 0
M  V30 5042 N 487.773 -1.03688 -1.18687 0
M  V30 5043 C 489.001 -0.757918 -1.92518 0
M  V30 5044 C 489.416 0.684398 -1.75959 0
M  V30 5045 O 488.773 1.46617 -1.08673 0
M  V30 5046 C 488.824 -1.10985 -3.44042 0
M  V30 5047 O 488.545 -2.49554 -3.60076 0
M  V30 5048 C 490.046 -0.854844 -4.3498 0
M  V30 5049 H 487.266 -0.276699 -0.611293 0
M  V30 5050 H 489.81 -1.38352 -1.50595 0
M  V30 5051 H 487.965 -0.529279 -3.83767 0
M  V30 5052 H 488.379 -2.6291 -4.53849 0
M  V30 5053 H 489.853 -1.15098 -5.39867 0
M  V30 5054 H 490.33 0.210507 -4.38695 0
M  V30 5055 H 490.936 -1.41853 -4.00946 0
M  V30 5056 N 489.251 1.34841 -0.815825 0
M  V30 5057 C 490.497 1.98793 -0.401129 0
M  V30 5058 C 490.83 1.64548 1.03139 0
M  V30 5059 O 490.105 0.913487 1.71714 0
M  V30 5060 C 490.388 3.55143 -0.595409 0
M  V30 5061 C 490.241 3.99155 -2.07352 0
M  V30 5062 C 491.56 4.40092 -0.0268823 0
M  V30 5063 H 488.679 0.722146 -0.14722 0
M  V30 5064 H 491.321 1.59847 -1.02707 0
M  V30 5065 H 489.471 3.8845 -0.0625779 0
M  V30 5066 H 491.143 3.76216 -2.66945 0
M  V30 5067 H 489.386 3.49726 -2.56659 0
M  V30 5068 H 490.057 5.07971 -2.1603 0
M  V30 5069 H 492.533 4.13298 -0.482042 0
M  V30 5070 H 491.409 5.48562 -0.19267 0
M  V30 5071 H 491.67 4.29016 1.06759 0
M  V30 5072 N 490.729 0.570148 1.46925 0
M  V30 5073 C 491.976 0.0509529 2.02436 0
M  V30 5074 C 492.304 -1.30405 1.44308 0
M  V30 5075 O 491.559 -1.86493 0.593198 0
M  V30 5076 C 491.858 -0.0780336 3.57315 0
M  V30 5077 C 491.524 1.20775 4.34424 0
M  V30 5078 C 490.186 1.56004 4.5521 0
M  V30 5079 C 492.538 2.0592 4.78797 0
M  V30 5080 C 489.866 2.76201 5.17619 0
M  V30 5081 C 492.218 3.25332 5.42533 0
M  V30 5082 C 490.882 3.60859 5.61549 0
M  V30 5083 H 490.152 0.018645 0.740765 0
M  V30 5084 H 492.799 0.744262 1.76445 0
M  V30 5085 H 491.104 -0.854394 3.82371 0
M  V30 5086 H 492.801 -0.495312 3.97929 0
M  V30 5087 H 489.391 0.923469 4.18533 0
M  V30 5088 H 493.575 1.80008 4.62505 0
M  V30 5089 H 488.831 3.0388 5.30535 0
M  V30 5090 H 493.005 3.91586 5.75876 0
M  V30 5091 H 490.632 4.54088 6.09678 0
M  V30 5092 N 492.207 -1.54576 0.307264 0
M  V30 5093 C 493.17 -2.22423 -0.553224 0
M  V30 5094 C 494.17 -1.21231 -1.05639 0
M  V30 5095 O 495.36 -1.45923 -0.951419 0
M  V30 5096 C 492.492 -2.91552 -1.76664 0
M  V30 5097 H 493.685 -2.99874 0.0396484 0
M  V30 5098 H 491.238 -1.56192 0.0581629 0
M  V30 5099 H 491.973 -2.18196 -2.39918 0
M  V30 5100 H 491.758 -3.65738 -1.41343 0
M  V30 5101 H 493.248 -3.43292 -2.37783 0
M  V30 5102 N 493.685 -0.035106 -1.57561 0
M  V30 5103 C 494.648 0.929819 -2.09492 0
M  V30 5104 C 495.648 1.25026 -1.01119 0
M  V30 5105 O 496.838 1.18961 -1.27255 0
M  V30 5106 C 493.97 2.24457 -2.56577 0
M  V30 5107 H 495.163 0.479935 -2.96035 0
M  V30 5108 H 492.716 0.213033 -1.54841 0
M  V30 5109 H 493.451 2.74061 -1.73382 0
M  V30 5110 H 493.236 2.02508 -3.35757 0
M  V30 5111 H 494.726 2.93607 -2.96959 0
M  V30 5112 N 495.163 1.55791 0.238111 0
M  V30 5113 C 496.073 1.94196 1.31625 0
M  V30 5114 C 497.089 0.843545 1.52185 0
M  V30 5115 O 498.265 1.1457 1.65637 0
M  V30 5116 C 495.33 2.2365 2.64918 0
M  V30 5117 C 494.391 3.46971 2.52804 0
M  V30 5118 C 493.624 3.7501 3.79741 0
M  V30 5119 O 493.847 3.04982 4.82019 0
M  V30 5120 O 492.781 4.68525 3.77846 0
M  V30 5121 H 496.607 2.86044 1.02043 0
M  V30 5122 H 494.192 1.42786 0.439603 0
M  V30 5123 H 496.074 2.43863 3.4367 0
M  V30 5124 H 494.749 1.34979 2.94215 0
M  V30 5125 H 493.656 3.32055 1.72309 0
M  V30 5126 H 494.989 4.35971 2.28451 0
M  V30 5127 N 496.642 -0.504142 1.49319 0
M  V30 5128 C 497.891 -1.25507 1.57895 0
M  V30 5129 C 498.204 -1.93735 0.269433 0
M  V30 5130 O 499.41 -2.70492 0.233706 0
M  V30 5131 C 497.866 -2.27869 2.78574 0
M  V30 5132 C 497.474 -1.65594 4.16272 0
M  V30 5133 C 499.218 -3.0381 2.96479 0
M  V30 5134 C 497.125 -2.66048 5.28178 0
M  V30 5135 H 496.055 -0.47212 0.587894 0
M  V30 5136 H 498.706 -0.52931 1.757 0
M  V30 5137 H 497.088 -3.03594 2.54257 0
M  V30 5138 H 498.262 -0.958826 4.50714 0
M  V30 5139 H 496.577 -1.02055 4.037 0
M  V30 5140 H 499.174 -3.78925 3.77253 0
M  V30 5141 H 499.517 -3.61235 2.06918 0
M  V30 5142 H 500.05 -2.352 3.20821 0
M  V30 5143 H 496.789 -2.13408 6.19788 0
M  V30 5144 H 496.309 -3.34009 4.98195 0
M  V30 5145 H 497.988 -3.28536 5.57381 0
M  V30 5146 N 498.12 -1.38341 -0.754957 0
M  V30 5147 C 499.07 -1.31964 -1.85929 0
M  V30 5148 C 500.054 -0.204181 -1.59599 0
M  V30 5149 O 501.246 -0.440036 -1.71443 0
M  V30 5150 C 498.375 -1.14565 -3.2362 0
M  V30 5151 C 497.461 -2.30727 -3.55846 0
M  V30 5152 N 497.852 -3.56165 -3.59138 0
M  V30 5153 C 496.15 -2.23249 -3.86104 0
M  V30 5154 C 496.851 -4.32865 -3.88591 0
M  V30 5155 N 495.827 -3.62203 -4.05351 0
M  V30 5156 H 499.629 -2.2694 -1.8675 0
M  V30 5157 H 497.143 -1.31553 -0.952243 0
M  V30 5158 H 499.14 -1.0808 -4.02647 0
M  V30 5159 H 497.8 -0.205212 -3.24051 0
M  V30 5160 H 498.811 -3.89854 -3.40932 0
M  V30 5161 H 495.488 -1.37357 -3.94258 0
M  V30 5162 H 496.878 -5.41504 -3.97773 0
M  V30 5163 N 499.598 0.982988 -1.23187 0
M  V30 5164 C 500.546 2.09616 -1.00817 0
M  V30 5165 C 501.54 1.6932 0.0519995 0
M  V30 5166 O 502.746 1.79715 -0.101284 0
M  V30 5167 H 499.121 0.685628 -0.308899 0
M  V30 5168 H 501.092 2.25652 -1.95253 0
M  V30 5169 C 499.841 3.42249 -0.613243 0
M  V30 5170 H 499.164 3.73705 -1.42073 0
M  V30 5171 H 500.604 4.21086 -0.496208 0
M  V30 5172 C 499.063 3.30002 0.678233 0
M  V30 5173 O 499.593 3.6263 1.72807 0
M  V30 5174 N 497.799 2.83164 0.653165 0
M  V30 5175 H 497.346 2.56811 -0.201492 0
M  V30 5176 H 497.304 2.75352 1.51752 0
M  V30 5177 N 501.076 1.04316 1.18135 0
M  V30 5178 C 502.492 0.762858 1.40188 0
M  V30 5179 C 502.692 -0.646547 1.90846 0
M  V30 5180 O 501.748 -1.41036 2.0944 0
M  V30 5181 C 503.061 1.81106 2.40044 0
M  V30 5182 C 504.609 1.83226 2.53766 0
M  V30 5183 C 505.084 2.87044 3.56889 0
M  V30 5184 N 506.575 2.85951 3.64398 0
M  V30 5185 C 507.31 3.62932 4.43923 0
M  V30 5186 N 506.806 4.49672 5.27036 0
M  V30 5187 N 508.599 3.51411 4.38711 0
M  V30 5188 H 500.75 1.95264 0.835805 0
M  V30 5189 H 503.013 0.845017 0.429709 0
M  V30 5190 H 502.719 2.82214 2.09876 0
M  V30 5191 H 502.593 1.64529 3.39426 0
M  V30 5192 H 504.98 0.827869 2.8325 0
M  V30 5193 H 505.061 2.03879 1.54489 0
M  V30 5194 H 504.705 3.87663 3.28145 0
M  V30 5195 H 504.635 2.63645 4.5585 0
M  V30 5196 H 507.126 2.23051 3.05052 0
M  V30 5197 H 507.439 5.05116 5.84874 0
M  V30 5198 H 505.784 4.53738 5.26447 0
M  V30 5199 H 508.975 2.83047 3.72829 0
M  V30 5200 H 509.148 4.11654 5.00445 0
M  V30 5201 N 502.554 -1.34406 0.822964 0
M  V30 5202 C 503.504 -2.26963 0.217208 0
M  V30 5203 C 504.488 -1.48536 -0.618545 0
M  V30 5204 O 505.68 -1.7056 -0.473118 0
M  V30 5205 C 502.809 -3.37655 -0.619973 0
M  V30 5206 C 501.895 -4.23495 0.226411 0
M  V30 5207 N 502.286 -4.88876 1.29744 0
M  V30 5208 C 500.584 -4.45999 0.0107554 0
M  V30 5209 C 501.285 -5.52642 1.81553 0
M  V30 5210 N 500.261 -5.31949 1.11942 0
M  V30 5211 H 504.063 -2.75017 1.03647 0
M  V30 5212 H 501.577 -1.48126 0.665777 0
M  V30 5213 H 503.574 -4.02932 -1.07011 0
M  V30 5214 H 502.234 -2.91151 -1.43739 0
M  V30 5215 H 503.245 -4.89886 1.68024 0
M  V30 5216 H 499.922 -4.10253 -0.774495 0
M  V30 5217 H 501.312 -6.14755 2.71156 0
M  V30 5218 N 504.032 -0.577932 -1.46621 0
M  V30 5219 C 504.964 0.195801 -2.28362 0
M  V30 5220 C 505.977 0.859983 -1.38232 0
M  V30 5221 O 507.166 0.730349 -1.62875 0
M  V30 5222 C 504.266 1.29639 -3.13124 0
M  V30 5223 C 503.439 0.725049 -4.31349 0
M  V30 5224 C 502.498 1.71274 -4.97546 0
M  V30 5225 O 501.524 1.25067 -5.5529 0
M  V30 5226 N 502.726 3.04672 -4.94121 0
M  V30 5227 H 505.491 -0.505468 -2.95407 0
M  V30 5228 H 503.052 -0.415381 -1.56481 0
M  V30 5229 H 505.044 1.95631 -3.54275 0
M  V30 5230 H 503.614 1.90059 -2.48186 0
M  V30 5231 H 502.834 -0.112205 -3.9404 0
M  V30 5232 H 504.122 0.323034 -5.07774 0
M  V30 5233 H 503.52 3.4484 -4.48444 0
M  V30 5234 H 502.077 3.66166 -5.39227 0
M  V30 5235 N 505.51 1.54411 -0.315457 0
M  V30 5236 C 506.42 2.27737 0.56329 0
M  V30 5237 C 507.436 1.31787 1.13614 0
M  V30 5238 O 508.612 1.64791 1.15784 0
M  V30 5239 C 505.677 3.01478 1.71207 0
M  V30 5240 C 504.738 4.12997 1.17185 0
M  V30 5241 C 503.971 4.83212 2.26588 0
M  V30 5242 O 504.194 4.52884 3.46775 0
M  V30 5243 O 503.128 5.70299 1.92463 0
M  V30 5244 H 506.954 3.03683 -0.0319614 0
M  V30 5245 H 504.539 1.49178 -0.0814188 0
M  V30 5246 H 506.421 3.47683 2.38106 0
M  V30 5247 H 505.096 2.28414 2.29366 0
M  V30 5248 H 504.003 3.71159 0.468174 0
M  V30 5249 H 505.336 4.8808 0.635501 0
M  V30 5250 N 506.988 0.0434614 1.5754 0
M  V30 5251 C 507.951 -0.918696 2.09982 0
M  V30 5252 C 508.951 -1.24488 1.01781 0
M  V30 5253 O 510.141 -1.18284 1.27885 0
M  V30 5254 C 507.273 -2.23093 2.57764 0
M  V30 5255 H 508.466 -0.464229 2.96285 0
M  V30 5256 H 506.019 -0.204818 1.54952 0
M  V30 5257 H 506.754 -2.73137 1.74832 0
M  V30 5258 H 506.539 -2.00724 3.36827 0
M  V30 5259 H 508.029 -2.92028 2.98512 0
M  V30 5260 N 508.466 -1.55915 -0.229846 0
M  V30 5261 C 509.413 -1.91734 -1.28478 0
M  V30 5262 C 510.383 -0.773539 -1.46988 0
M  V30 5263 O 511.568 -1.02871 -1.60693 0
M  V30 5264 C 508.708 -2.23224 -2.63182 0
M  V30 5265 C 507.821 -3.50497 -2.52539 0
M  V30 5266 C 506.956 -3.71474 -3.79711 0
M  V30 5267 C 505.995 -4.92289 -3.63755 0
M  V30 5268 N 505.132 -5.09698 -4.82858 0
M  V30 5269 H 509.972 -2.81692 -0.972308 0
M  V30 5270 H 507.509 -1.39429 -0.468815 0
M  V30 5271 H 509.467 -2.3949 -3.41614 0
M  V30 5272 H 508.097 -1.36451 -2.92542 0
M  V30 5273 H 507.149 -3.4247 -1.65585 0
M  V30 5274 H 508.461 -4.39079 -2.36666 0
M  V30 5275 H 507.615 -3.87791 -4.66586 0
M  V30 5276 H 506.354 -2.81157 -3.985 0
M  V30 5277 H 505.359 -4.7593 -2.75264 0
M  V30 5278 H 506.584 -5.84083 -3.46445 0
M  V30 5279 H 504.53 -4.22322 -5.01976 0
M  V30 5280 H 504.447 -5.92399 -4.69681 0
M  V30 5281 H 505.715 -5.30443 -5.71183 0
M  V30 5282 N 509.944 0.496216 -1.49584 0
M  V30 5283 C 511.19 1.25189 -1.59548 0
M  V30 5284 C 511.523 1.9212 -0.283466 0
M  V30 5285 O 510.798 1.80947 0.713324 0
M  V30 5286 C 511.081 2.31516 -2.75812 0
M  V30 5287 C 510.934 1.69054 -4.16822 0
M  V30 5288 C 512.253 3.3304 -2.87702 0
M  V30 5289 H 509.372 0.45379 -0.580727 0
M  V30 5290 H 512.014 0.549327 -1.81886 0
M  V30 5291 H 510.164 2.91438 -2.56897 0
M  V30 5292 H 511.836 1.12923 -4.47265 0
M  V30 5293 H 510.079 0.994485 -4.22247 0
M  V30 5294 H 510.75 2.462 -4.94054 0
M  V30 5295 H 513.226 2.83114 -3.04936 0
M  V30 5296 H 512.102 4.04794 -3.7072 0
M  V30 5297 H 512.363 3.95655 -1.97255 0
M  V30 5298 N 511.423 1.38739 0.74761 0
M  V30 5299 C 512.834 1.31507 1.32524 0
M  V30 5300 C 513.185 -0.0263963 1.96182 0
M  V30 5301 O 512.31 -0.92849 1.95469 0
M  V30 5302 C 512.905 2.38162 2.40966 0
M  V30 5303 C 511.464 2.34489 2.94434 0
M  V30 5304 C 510.611 2.20712 1.67873 0
M  V30 5305 H 513.562 1.4901 0.546043 0
M  V30 5306 H 513.583 2.04222 3.21051 0
M  V30 5307 H 513.095 3.35783 1.94605 0
M  V30 5308 H 511.196 1.40467 3.45108 0
M  V30 5309 H 511.309 3.28861 3.48407 0
M  V30 5310 H 509.673 1.67667 1.91729 0
M  V30 5311 H 510.456 3.20285 1.23582 0
M  V30 5312 N 512.901 -0.976442 1.23707 0
M  V30 5313 C 514.147 -1.72081 1.07312 0
M  V30 5314 C 514.48 -1.90275 -0.388476 0
M  V30 5315 O 513.755 -1.4579 -1.28746 0
M  V30 5316 C 514.038 -3.11675 1.80363 0
M  V30 5317 C 513.891 -3.01027 3.3422 0
M  V30 5318 C 515.21 -4.1117 1.5693 0
M  V30 5319 H 512.329 -0.624583 0.391236 0
M  V30 5320 H 514.971 -1.13649 1.52263 0
M  V30 5321 H 513.121 -3.61559 1.42153 0
M  V30 5322 H 514.793 -2.58637 3.81975 0
M  V30 5323 H 513.036 -2.3744 3.63049 0
M  V30 5324 H 513.707 -3.9988 3.80525 0
M  V30 5325 H 516.183 -3.7011 1.90151 0
M  V30 5326 H 515.059 -5.06928 2.10513 0
M  V30 5327 H 515.32 -4.392 0.505548 0
M  V30 5328 N 514.379 -1.04941 -1.1758 0
M  V30 5329 C 515.342 -0.652456 -2.19717 0
M  V30 5330 C 516.342 0.294745 -1.58076 0
M  V30 5331 O 517.532 0.0789579 -1.74021 0
M  V30 5332 C 514.664 0.0420712 -3.40874 0
M  V30 5333 H 515.857 -1.55642 -2.5635 0
M  V30 5334 H 513.41 -0.842995 -1.31618 0
M  V30 5335 H 514.145 0.95943 -3.09783 0
M  V30 5336 H 513.93 -0.638844 -3.86861 0
M  V30 5337 H 515.42 0.306 -4.16477 0
M  V30 5338 N 515.857 1.33968 -0.830081 0
M  V30 5339 C 517.106 1.97323 -0.417928 0
M  V30 5340 C 517.419 1.6652 1.02618 0
M  V30 5341 O 518.625 2.2342 1.54259 0
M  V30 5342 C 517.081 3.53099 -0.696359 0
M  V30 5343 C 516.689 3.92788 -2.15457 0
M  V30 5344 C 518.433 4.23049 -0.350724 0
M  V30 5345 C 516.34 5.41506 -2.37751 0
M  V30 5346 H 515.27 0.738409 -0.152541 0
M  V30 5347 H 517.921 1.52711 -1.01744 0
M  V30 5348 H 516.303 3.95991 -0.0265904 0
M  V30 5349 H 517.477 3.6098 -2.86408 0
M  V30 5350 H 515.792 3.35795 -2.46232 0
M  V30 5351 H 518.389 5.32403 -0.495036 0
M  V30 5352 H 518.732 4.10279 0.705476 0
M  V30 5353 H 519.265 3.85657 -0.975362 0
M  V30 5354 H 516.004 5.5927 -3.41903 0
M  V30 5355 H 515.524 5.74804 -1.7135 0
M  V30 5356 H 517.203 6.0828 -2.20465 0
M  V30 5357 N 517.335 0.585699 1.46312 0
M  V30 5358 C 518.751 0.247607 1.57668 0
M  V30 5359 C 518.951 -1.25007 1.58037 0
M  V30 5360 O 518.007 -2.03196 1.49893 0
M  V30 5361 C 519.32 0.899456 2.86933 0
M  V30 5362 C 520.868 0.873326 3.00569 0
M  V30 5363 C 521.343 1.50477 4.32574 0
M  V30 5364 N 522.834 1.46925 4.3928 0
M  V30 5365 C 523.569 1.92719 5.40044 0
M  V30 5366 N 523.065 2.46499 6.47464 0
M  V30 5367 N 524.858 1.83617 5.31264 0
M  V30 5368 H 517.009 1.55841 1.44317 0
M  V30 5369 H 519.272 0.651564 0.688599 0
M  V30 5370 H 518.978 1.95313 2.92482 0
M  V30 5371 H 518.852 0.409476 3.74971 0
M  V30 5372 H 521.239 -0.171736 2.946 0
M  V30 5373 H 521.32 1.40136 2.13999 0
M  V30 5374 H 520.964 2.54905 4.39302 0
M  V30 5375 H 520.894 0.951944 5.17924 0
M  V30 5376 H 523.385 1.07616 3.62253 0
M  V30 5377 H 523.698 2.79291 7.20567 0
M  V30 5378 H 522.043 2.50526 6.48276 0
M  V30 5379 H 525.234 1.41358 4.46246 0
M  V30 5380 H 525.407 2.19622 6.09648 0
M  V30 5381 N 518.813 -1.54241 0.323641 0
M  V30 5382 C 520.059 -2.00867 -0.279323 0
M  V30 5383 C 520.392 -1.21146 -1.5178 0
M  V30 5384 O 519.667 -0.29378 -1.92269 0
M  V30 5385 C 519.95 -3.54837 -0.613387 0
M  V30 5386 C 519.803 -4.45284 0.635803 0
M  V30 5387 C 521.122 -4.16186 -1.43099 0
M  V30 5388 H 518.241 -0.730177 -0.100049 0
M  V30 5389 H 520.883 -1.84829 0.440235 0
M  V30 5390 H 519.033 -3.68634 -1.22641 0
M  V30 5391 H 520.705 -4.43357 1.27406 0
M  V30 5392 H 518.948 -4.14956 1.26466 0
M  V30 5393 H 519.619 -5.5084 0.357597 0
M  V30 5394 H 522.095 -4.05964 -0.912814 0
M  V30 5395 H 520.971 -5.24031 -1.6335 0
M  V30 5396 H 521.232 -3.69516 -2.42715 0
M  V30 5397 N 520.291 -0.0518155 -1.57515 0
M  V30 5398 C 521.221 0.920283 -2.146 0
M  V30 5399 C 522.202 1.32406 -1.06783 0
M  V30 5400 O 523.387 1.39866 -1.34726 0
M  V30 5401 C 520.517 2.1949 -2.6915 0
M  V30 5402 C 519.471 1.93116 -3.81956 0
M  V30 5403 C 518.797 3.27037 -4.23026 0
M  V30 5404 C 520.097 1.25225 -5.07066 0
M  V30 5405 H 521.791 0.444801 -2.96077 0
M  V30 5406 H 519.337 0.212508 -1.42423 0
M  V30 5407 H 521.29 2.87894 -3.07725 0
M  V30 5408 H 520.014 2.69244 -1.84865 0
M  V30 5409 H 518.673 1.27123 -3.43854 0
M  V30 5410 H 518.321 3.74595 -3.3569 0
M  V30 5411 H 518.021 3.10189 -4.99056 0
M  V30 5412 H 519.545 3.96673 -4.64202 0
M  V30 5413 H 520.959 1.83666 -5.43083 0
M  V30 5414 H 519.356 1.18702 -5.88243 0
M  V30 5415 H 520.426 0.228382 -4.84362 0
M  V30 5416 N 521.769 1.56035 0.221574 0
M  V30 5417 C 523.046 1.69837 0.970301 0
M  V30 5418 C 523.426 0.599065 2.02421 0
M  V30 5419 O 522.774 -0.393929 2.25079 0
M  V30 5420 C 522.984 3.11148 1.58076 0
M  V30 5421 C 524.332 3.70555 2.07302 0
M  V30 5422 O 525.356 3.14109 1.6797 0
M  V30 5423 O 524.215 4.69562 2.79596 0
M  V30 5424 H 521.309 0.691727 0.453257 0
M  V30 5425 H 523.855 1.68353 0.213358 0
M  V30 5426 H 522.627 3.82617 0.819759 0
M  V30 5427 H 522.25 3.16749 2.40324 0
M  V30 5428 N 523.247 -0.488276 1.49845 0
M  V30 5429 C 524.493 -1.24341 1.6021 0
M  V30 5430 C 524.826 -1.91967 0.293651 0
M  V30 5431 O 524.101 -1.81323 -0.703718 0
M  V30 5432 C 524.384 -2.3005 2.77036 0
M  V30 5433 C 524.237 -1.66842 4.17713 0
M  V30 5434 C 525.556 -3.31509 2.89464 0
M  V30 5435 H 522.675 -0.450704 0.583125 0
M  V30 5436 H 525.317 -0.539673 1.82174 0
M  V30 5437 H 523.467 -2.90071 2.58439 0
M  V30 5438 H 525.139 -1.1055 4.47858 0
M  V30 5439 H 523.382 -0.972079 4.22768 0
M  V30 5440 H 524.053 -2.43576 4.95353 0
M  V30 5441 H 526.529 -2.81493 3.06433 0
M  V30 5442 H 525.405 -4.02822 3.72861 0
M  V30 5443 H 525.666 -3.94603 1.99351 0
M  V30 5444 N 524.725 -1.39134 -0.740242 0
M  V30 5445 C 525.673 -1.3757 -1.87556 0
M  V30 5446 C 526.667 -0.259593 -1.67399 0
M  V30 5447 O 527.873 -0.429349 -1.74804 0
M  V30 5448 H 524.248 -0.42947 -0.6173 0
M  V30 5449 H 526.219 -2.33345 -1.85991 0
M  V30 5450 C 524.968 -1.23087 -3.25184 0
M  V30 5451 H 524.291 -2.08237 -3.41288 0
M  V30 5452 H 525.731 -1.26049 -4.0483 0
M  V30 5453 C 524.19 0.0611471 -3.36845 0
M  V30 5454 O 524.72 1.03328 -3.88183 0
M  V30 5455 N 522.926 0.122454 -2.90342 0
M  V30 5456 H 522.473 -0.669329 -2.48752 0
M  V30 5457 H 522.431 0.986463 -2.98523 0
M  V30 5458 N 526.204 0.969867 -1.24223 0
M  V30 5459 C 527.481 1.68774 -0.988664 0
M  V30 5460 C 527.861 2.05342 0.489673 0
M  V30 5461 O 527.209 1.75486 1.46345 0
M  V30 5462 C 527.419 2.92135 -1.90941 0
M  V30 5463 C 528.767 3.64422 -2.17903 0
M  V30 5464 O 529.791 3.02188 -1.88576 0
M  V30 5465 O 528.65 4.76446 -2.67697 0
M  V30 5466 H 525.744 0.737736 -0.37373 0
M  V30 5467 H 528.29 1.02415 -1.35312 0
M  V30 5468 H 527.062 2.61788 -2.90831 0
M  V30 5469 H 526.685 3.66228 -1.54798 0
M  V30 5470 N 527.682 1.05563 1.17022 0
M  V30 5471 C 528.63 0.653887 2.2322 0
M  V30 5472 C 529.624 -0.326642 1.66221 0
M  V30 5473 O 530.83 -0.192301 1.7897 0
M  V30 5474 H 527.205 0.193297 0.726733 0
M  V30 5475 H 529.176 1.5596 2.54399 0
M  V30 5476 C 527.925 0.0485434 3.47666 0
M  V30 5477 H 527.248 0.79413 3.91834 0
M  V30 5478 H 528.688 -0.195133 4.23551 0
M  V30 5479 C 527.147 -1.20583 3.14581 0
M  V30 5480 O 527.677 -2.29475 3.29703 0
M  V30 5481 N 525.883 -1.10493 2.68774 0
M  V30 5482 H 525.43 -0.218795 2.56669 0
M  V30 5483 H 525.388 -1.94507 2.47011 0
M  V30 5484 N 529.16 -1.33526 0.837174 0
M  V30 5485 C 530.123 -2.27551 0.274421 0
M  V30 5486 C 531.123 -1.50886 -0.555881 0
M  V30 5487 O 532.313 -1.70227 -0.369918 0
M  V30 5488 C 529.445 -3.35332 -0.613605 0
M  V30 5489 H 530.638 -2.78837 1.10408 0
M  V30 5490 H 528.191 -1.439 0.610126 0
M  V30 5491 H 528.926 -2.89285 -1.46577 0
M  V30 5492 H 528.711 -3.92095 -0.0195341 0
M  V30 5493 H 530.201 -4.05433 -1.00068 0
M  V30 5494 N 530.638 -0.59345 -1.46 0
M  V30 5495 C 532.049 -0.169801 -1.85926 0
M  V30 5496 C 532.4 1.26984 -1.49565 0
M  V30 5497 O 531.525 1.96076 -0.915602 0
M  V30 5498 C 532.12 -0.301385 -3.37457 0
M  V30 5499 C 530.679 0.0674684 -3.7634 0
M  V30 5500 C 529.826 -0.632383 -2.69993 0
M  V30 5501 H 532.777 -0.801014 -1.37002 0
M  V30 5502 H 532.798 0.470331 -3.77582 0
M  V30 5503 H 532.31 -1.34927 -3.63891 0
M  V30 5504 H 530.411 1.11507 -3.55523 0
M  V30 5505 H 530.524 -0.316332 -4.78055 0
M  V30 5506 H 528.888 -0.0714961 -2.546 0
M  V30 5507 H 529.671 -1.68212 -2.99265 0
M  V30 5508 N 532.116 1.54067 -0.331816 0
M  V30 5509 C 533.063 2.24623 0.530372 0
M  V30 5510 C 534.033 1.24009 1.10503 0
M  V30 5511 O 535.218 1.52712 1.14384 0
M  V30 5512 C 532.358 3.01374 1.68129 0
M  V30 5513 C 531.471 4.16821 1.13507 0
M  V30 5514 C 530.606 4.81085 2.25234 0
M  V30 5515 C 529.645 5.88621 1.67903 0
M  V30 5516 N 528.782 6.46713 2.73326 0
M  V30 5517 H 533.622 2.97898 -0.0778607 0
M  V30 5518 H 531.159 1.47014 -0.0501965 0
M  V30 5519 H 533.117 3.44125 2.35868 0
M  V30 5520 H 531.747 2.30419 2.26069 0
M  V30 5521 H 530.799 3.78796 0.348979 0
M  V30 5522 H 532.111 4.94203 0.675633 0
M  V30 5523 H 531.265 5.26846 3.00862 0
M  V30 5524 H 530.004 4.03102 2.74518 0
M  V30 5525 H 529.009 5.42254 0.907773 0
M  V30 5526 H 530.234 6.68506 1.19487 0
M  V30 5527 H 528.18 5.71599 3.21886 0
M  V30 5528 H 528.097 7.19532 2.3197 0
M  V30 5529 H 529.365 6.97129 3.48758 0
M  V30 5530 N 533.594 0.0601682 1.57485 0
M  V30 5531 C 534.841 -0.611594 1.93043 0
M  V30 5532 C 535.169 -1.70317 0.939274 0
M  V30 5533 O 534.424 -1.95644 -0.046996 0
M  V30 5534 C 534.723 -1.23831 3.35262 0
M  V30 5535 C 534.389 -0.274037 4.50066 0
M  V30 5536 C 533.051 -0.00872394 4.81199 0
M  V30 5537 C 535.403 0.386308 5.19766 0
M  V30 5538 C 532.731 0.924218 5.79375 0
M  V30 5539 C 535.083 1.3075 6.1894 0
M  V30 5540 C 533.747 1.58139 6.48497 0
M  V30 5541 H 533.017 -0.223798 0.706396 0
M  V30 5542 H 535.664 0.128566 1.91068 0
M  V30 5543 H 533.969 -2.05394 3.33647 0
M  V30 5544 H 535.666 -1.76517 3.60059 0
M  V30 5545 H 532.256 -0.491008 4.25778 0
M  V30 5546 H 536.44 0.194436 4.95919 0
M  V30 5547 H 531.696 1.1438 6.00606 0
M  V30 5548 H 535.87 1.82519 6.72056 0
M  V30 5549 H 533.497 2.30593 7.24383 0
M  V30 5550 N 535.072 -1.5615 -0.213296 0
M  V30 5551 C 536.035 -1.92249 -1.24792 0
M  V30 5552 C 537.035 -0.801828 -1.39382 0
M  V30 5553 O 538.225 -1.06948 -1.37506 0
M  V30 5554 C 535.357 -2.18056 -2.62039 0
M  V30 5555 H 536.55 -2.84793 -0.939845 0
M  V30 5556 H 534.103 -1.49559 -0.454062 0
M  V30 5557 H 534.838 -1.2809 -2.97932 0
M  V30 5558 H 534.623 -2.99703 -2.52825 0
M  V30 5559 H 536.113 -2.47051 -3.36683 0
M  V30 5560 N 536.55 0.480323 -1.50102 0
M  V30 5561 C 537.513 1.56181 -1.6775 0
M  V30 5562 C 538.513 1.51156 -0.548503 0
M  V30 5563 O 539.703 1.5394 -0.815363 0
M  V30 5564 C 536.835 2.95823 -1.69415 0
M  V30 5565 H 538.028 1.41855 -2.6423 0
M  V30 5566 H 535.581 0.70605 -1.39444 0
M  V30 5567 H 536.316 3.15604 -0.745948 0
M  V30 5568 H 536.101 3.00878 -2.51425 0
M  V30 5569 H 537.591 3.74359 -1.85054 0
M  V30 5570 N 538.028 1.39524 0.732853 0
M  V30 5571 C 539.439 1.32905 1.31122 0
M  V30 5572 C 539.79 -0.00558708 1.96199 0
M  V30 5573 O 538.915 -0.907706 1.96443 0
M  V30 5574 C 539.51 2.40704 2.38426 0
M  V30 5575 C 538.069 2.37599 2.91931 0
M  V30 5576 C 537.216 2.2248 1.65523 0
M  V30 5577 H 540.167 1.49581 0.530207 0
M  V30 5578 H 540.188 2.07616 3.18867 0
M  V30 5579 H 539.7 3.37829 1.91033 0
M  V30 5580 H 537.801 1.44119 3.43599 0
M  V30 5581 H 537.914 3.32538 3.44899 0
M  V30 5582 H 536.278 1.69691 1.8994 0
M  V30 5583 H 537.061 3.21577 1.20178 0
M  V30 5584 N 539.506 -0.963266 1.24736 0
M  V30 5585 C 540.736 -1.73913 1.11524 0
M  V30 5586 C 541.144 -1.86218 -0.334612 0
M  V30 5587 O 540.487 -1.3531 -1.24245 0
M  V30 5588 C 540.549 -3.17501 1.68622 0
M  V30 5589 C 540.213 -3.28655 3.17546 0
M  V30 5590 C 541.21 -3.13637 4.14642 0
M  V30 5591 C 538.895 -3.52753 3.5759 0
M  V30 5592 C 540.889 -3.2255 5.49764 0
M  V30 5593 C 538.576 -3.61303 4.92852 0
M  V30 5594 C 539.574 -3.46214 5.88748 0
M  V30 5595 O 539.262 -3.5443 7.2155 0
M  V30 5596 H 538.994 -0.552057 0.390139 0
M  V30 5597 H 541.548 -1.2177 1.65412 0
M  V30 5598 H 539.778 -3.70969 1.09172 0
M  V30 5599 H 541.467 -3.76914 1.50635 0
M  V30 5600 H 542.233 -2.94899 3.85045 0
M  V30 5601 H 538.112 -3.63561 2.83451 0
M  V30 5602 H 541.656 -3.1069 6.24594 0
M  V30 5603 H 537.553 -3.79556 5.22118 0
M  V30 5604 H 538.321 -3.71116 7.29531 0
M  V30 5605 N 540.985 -1.06182 -1.16461 0
M  V30 5606 C 541.895 -0.682671 -2.24448 0
M  V30 5607 C 542.911 0.30078 -1.71381 0
M  V30 5608 O 544.087 0.150376 -2.00838 0
M  V30 5609 C 541.152 -0.0737202 -3.46622 0
M  V30 5610 C 540.213 -1.10889 -4.14731 0
M  V30 5611 C 539.446 -0.528908 -5.31073 0
M  V30 5612 O 539.669 0.65868 -5.66584 0
M  V30 5613 O 538.603 -1.26805 -5.88391 0
M  V30 5614 H 542.429 -1.58291 -2.59187 0
M  V30 5615 H 540.014 -0.834013 -1.23954 0
M  V30 5616 H 541.896 0.264192 -4.20571 0
M  V30 5617 H 540.571 0.800015 -3.13658 0
M  V30 5618 H 539.478 -1.49896 -3.42756 0
M  V30 5619 H 540.811 -1.95412 -4.51747 0
M  V30 5620 N 542.463 1.3308 -0.844243 0
M  V30 5621 C 543.711 1.97215 -0.441676 0
M  V30 5622 C 544.032 1.67185 1.0037 0
M  V30 5623 O 543.302 0.973588 1.69994 0
M  V30 5624 H 541.882 0.72959 -0.160335 0
M  V30 5625 H 544.544 1.62348 -1.07838 0
M  V30 5626 H 543.64 3.06698 -0.57815 0
M  V30 5627 N 543.941 0.601185 1.45683 0
M  V30 5628 C 545.188 0.0938811 2.02282 0
M  V30 5629 C 545.516 -1.27315 1.47041 0
M  V30 5630 O 544.771 -1.85193 0.632623 0
M  V30 5631 C 545.07 -0.00222425 3.574 0
M  V30 5632 C 544.736 1.29963 4.31764 0
M  V30 5633 C 543.398 1.65625 4.51798 0
M  V30 5634 C 545.75 2.1603 4.74321 0
M  V30 5635 C 543.078 2.87119 5.11644 0
M  V30 5636 C 545.43 3.36766 5.3551 0
M  V30 5637 C 544.094 3.72689 5.53768 0
M  V30 5638 H 543.364 0.0343535 0.740203 0
M  V30 5639 H 546.011 0.781522 1.74827 0
M  V30 5640 H 544.316 -0.773096 3.84097 0
M  V30 5641 H 546.013 -0.410794 3.9889 0
M  V30 5642 H 542.603 1.01204 4.1648 0
M  V30 5643 H 546.787 1.89778 4.58582 0
M  V30 5644 H 542.043 3.15065 5.2397 0
M  V30 5645 H 546.217 4.03713 5.67441 0
M  V30 5646 H 543.844 4.66918 5.99909 0
M  V30 5647 N 545.419 -1.53889 0.339982 0
M  V30 5648 C 546.668 -2.00035 -0.258604 0
M  V30 5649 C 546.981 -1.23179 -1.51942 0
M  V30 5650 O 548.187 -1.59784 -2.19503 0
M  V30 5651 C 546.643 -3.56249 -0.511359 0
M  V30 5652 C 546.251 -4.41957 0.733349 0
M  V30 5653 C 547.995 -4.1082 -1.069 0
M  V30 5654 C 545.902 -5.89673 0.451591 0
M  V30 5655 H 544.832 -0.747284 -0.10041 0
M  V30 5656 H 547.483 -1.77776 0.454758 0
M  V30 5657 H 545.865 -3.7456 -1.28533 0
M  V30 5658 H 547.039 -4.35421 1.50815 0
M  V30 5659 H 545.354 -3.9836 1.21237 0
M  V30 5660 H 547.951 -5.18789 -1.2947 0
M  V30 5661 H 548.294 -3.63817 -2.02343 0
M  V30 5662 H 548.827 -3.96205 -0.355817 0
M  V30 5663 H 545.566 -6.40903 1.37565 0
M  V30 5664 H 545.086 -5.99122 -0.285193 0
M  V30 5665 H 546.765 -6.46965 0.0675067 0
M  V30 5666 N 546.897 -0.0685191 -1.57451 0
M  V30 5667 C 548.137 0.605038 -1.9524 0
M  V30 5668 C 548.501 1.66974 -0.947816 0
M  V30 5669 O 549.702 2.39862 -1.21325 0
M  V30 5670 C 547.973 1.16999 -3.37707 0
M  V30 5671 S 549.532 1.85913 -3.97469 0
M  V30 5672 H 546.35 0.198203 -0.682815 0
M  V30 5673 H 548.952 -0.141594 -1.94987 0
M  V30 5674 H 547.656 0.383205 -4.08607 0
M  V30 5675 H 547.187 1.95305 -3.41496 0
M  V30 5676 H 549.202 3.14128 -3.84107 0
M  V30 5677 N 548.375 1.56261 0.205012 0
M  V30 5678 C 549.285 1.96944 1.27476 0
M  V30 5679 C 550.301 0.875636 1.50362 0
M  V30 5680 O 551.477 1.18058 1.6317 0
M  V30 5681 C 548.542 2.29219 2.60115 0
M  V30 5682 C 547.603 3.52255 2.45387 0
M  V30 5683 C 546.836 3.8298 3.71701 0
M  V30 5684 O 547.059 3.15138 4.75441 0
M  V30 5685 O 545.993 4.76435 3.67823 0
M  V30 5686 H 549.819 2.88144 0.959527 0
M  V30 5687 H 547.404 1.43686 0.409217 0
M  V30 5688 H 549.286 2.51098 3.3842 0
M  V30 5689 H 547.961 1.4119 2.91285 0
M  V30 5690 H 546.868 3.35635 1.65227 0
M  V30 5691 H 548.201 4.40719 2.19152 0
M  V30 5692 N 549.853 -0.472356 1.50355 0
M  V30 5693 C 551.078 -1.25251 1.65309 0
M  V30 5694 C 551.503 -1.85081 0.335643 0
M  V30 5695 O 550.861 -1.67227 -0.700335 0
M  V30 5696 C 550.909 -2.3379 2.74544 0
M  V30 5697 O 550.013 -3.38401 2.35709 0
M  V30 5698 H 549.354 -0.368539 0.552336 0
M  V30 5699 H 551.884 -0.562271 1.96722 0
M  V30 5700 H 551.894 -2.79121 2.97583 0
M  V30 5701 H 550.569 -1.89614 3.70161 0
M  V30 5702 H 549.146 -2.9879 2.23112 0
M  V30 5703 N 551.331 -1.39911 -0.725443 0
M  V30 5704 C 552.608 -1.28158 -1.47766 0
M  V30 5705 C 552.988 0.104545 -2.10841 0
M  V30 5706 O 552.336 1.11657 -1.99361 0
M  V30 5707 C 552.546 -2.41306 -2.52135 0
M  V30 5708 C 553.894 -2.81076 -3.18247 0
M  V30 5709 O 554.918 -2.40827 -2.62452 0
M  V30 5710 O 553.777 -3.50581 -4.19231 0
M  V30 5711 H 550.871 -0.502761 -0.656628 0
M  V30 5712 H 553.417 -1.51808 -0.758456 0
M  V30 5713 H 552.189 -3.33932 -2.03974 0
M  V30 5714 H 551.812 -2.19374 -3.31603 0
M  V30 5715 N 552.809 0.956637 -1.25245 0
M  V30 5716 C 553.741 2.05628 -1.01242 0
M  V30 5717 C 554.754 1.62785 0.0219579 0
M  V30 5718 O 555.943 1.77184 -0.216365 0
M  V30 5719 C 553.043 3.35069 -0.508161 0
M  V30 5720 C 552.216 4.06761 -1.60823 0
M  V30 5721 C 551.275 5.14473 -1.1047 0
M  V30 5722 O 550.301 5.40033 -1.79868 0
M  V30 5723 N 551.503 5.80474 0.0550773 0
M  V30 5724 H 554.268 2.2679 -1.95925 0
M  V30 5725 H 551.829 1.12505 -1.16423 0
M  V30 5726 H 553.821 4.044 -0.155819 0
M  V30 5727 H 552.391 3.10694 0.344683 0
M  V30 5728 H 551.611 3.31555 -2.13224 0
M  V30 5729 H 552.899 4.51418 -2.34733 0
M  V30 5730 H 552.297 5.62125 0.635004 0
M  V30 5731 H 550.854 6.50868 0.348469 0
M  V30 5732 N 554.287 1.06798 1.15896 0
M  V30 5733 C 555.515 0.808694 1.90441 0
M  V30 5734 C 555.93 -0.637506 1.77711 0
M  V30 5735 O 555.287 -1.43684 1.12522 0
M  V30 5736 C 555.338 1.20068 3.40978 0
M  V30 5737 O 555.059 2.59013 3.53333 0
M  V30 5738 C 556.56 0.96987 4.3256 0
M  V30 5739 H 553.78 0.292809 0.603742 0
M  V30 5740 H 556.324 1.42296 1.46874 0
M  V30 5741 H 554.479 0.630842 3.82229 0
M  V30 5742 H 554.893 2.7485 4.46719 0
M  V30 5743 H 556.367 1.29371 5.36626 0
M  V30 5744 H 556.844 -0.0941209 4.39099 0
M  V30 5745 H 557.45 1.52433 3.97044 0
M  V30 5746 N 555.766 -1.3263 0.851289 0
M  V30 5747 C 556.713 -2.28952 0.291469 0
M  V30 5748 C 557.683 -1.54897 -0.599676 0
M  V30 5749 O 558.868 -1.83137 -0.535305 0
M  V30 5750 C 556.008 -3.41206 -0.516992 0
M  V30 5751 C 555.121 -4.30148 0.399566 0
M  V30 5752 C 554.256 -5.29527 -0.4212 0
M  V30 5753 C 553.295 -6.10112 0.492969 0
M  V30 5754 N 552.432 -7.01499 -0.290414 0
M  V30 5755 H 557.272 -2.76228 1.11813 0
M  V30 5756 H 554.809 -1.35907 0.562826 0
M  V30 5757 H 556.767 -4.05005 -1.00132 0
M  V30 5758 H 555.397 -2.9509 -1.30851 0
M  V30 5759 H 554.449 -3.66959 1.00227 0
M  V30 5760 H 555.761 -4.8649 1.1013 0
M  V30 5761 H 554.915 -5.98914 -0.968832 0
M  V30 5762 H 553.654 -4.73794 -1.15632 0
M  V30 5763 H 552.659 -5.39632 1.05251 0
M  V30 5764 H 553.884 -6.6793 1.22664 0
M  V30 5765 H 551.83 -6.48199 -1.00868 0
M  V30 5766 H 551.747 -7.55178 0.352354 0
M  V30 5767 H 553.015 -7.75176 -0.819882 0
M  V30 5768 N 557.244 -0.608902 -1.45362 0
M  V30 5769 C 558.655 -0.189511 -1.85736 0
M  V30 5770 C 559.006 1.2539 -1.50903 0
M  V30 5771 O 558.131 1.95094 -0.936347 0
M  V30 5772 C 558.726 -0.33716 -3.37118 0
M  V30 5773 C 557.285 0.0275487 -3.7639 0
M  V30 5774 C 556.432 -0.660983 -2.69307 0
M  V30 5775 H 559.383 -0.815499 -1.36144 0
M  V30 5776 H 559.404 0.430257 -3.7806 0
M  V30 5777 H 558.916 -1.38779 -3.62439 0
M  V30 5778 H 557.017 1.0773 -3.56686 0
M  V30 5779 H 557.13 -0.367018 -4.77692 0
M  V30 5780 H 555.494 -0.0984958 -2.54509 0
M  V30 5781 H 556.277 -1.71377 -2.97464 0
M  V30 5782 N 558.722 1.53707 -0.348139 0
M  V30 5783 C 559.652 2.28111 0.498766 0
M  V30 5784 C 560.633 1.29851 1.09876 0
M  V30 5785 O 561.818 1.587 1.11928 0
M  V30 5786 C 558.948 3.05735 1.64753 0
M  V30 5787 C 557.902 4.11537 1.17565 0
M  V30 5788 C 557.228 4.77142 2.4133 0
M  V30 5789 C 558.528 5.21587 0.272844 0
M  V30 5790 H 560.222 2.99152 -0.121934 0
M  V30 5791 H 557.768 1.43875 -0.0600842 0
M  V30 5792 H 559.721 3.56526 2.24649 0
M  V30 5793 H 558.445 2.32354 2.2952 0
M  V30 5794 H 557.104 3.61665 0.599483 0
M  V30 5795 H 556.752 4.0035 3.04514 0
M  V30 5796 H 556.452 5.48626 2.10436 0
M  V30 5797 H 557.976 5.30719 3.01943 0
M  V30 5798 H 559.39 5.67986 0.778779 0
M  V30 5799 H 557.787 6.00074 0.0555849 0
M  V30 5800 H 558.857 4.79969 -0.689785 0
M  V30 5801 N 560.2 0.0768682 1.57412 0
M  V30 5802 C 561.425 -0.603404 1.98428 0
M  V30 5803 C 561.85 -1.62047 0.955108 0
M  V30 5804 O 561.208 -1.81129 -0.0786778 0
M  V30 5805 C 561.256 -1.24396 3.38464 0
M  V30 5806 O 560.36 -2.35982 3.3821 0
M  V30 5807 H 559.701 -0.154741 0.645718 0
M  V30 5808 H 562.231 0.152885 2.04028 0
M  V30 5809 H 562.241 -1.5896 3.7576 0
M  V30 5810 H 560.916 -0.498735 4.12899 0
M  V30 5811 H 559.493 -2.03173 3.1269 0
M  V30 5812 N 561.678 -1.56367 -0.196722 0
M  V30 5813 C 562.626 -1.95304 -1.2633 0
M  V30 5814 C 563.62 -0.838252 -1.47206 0
M  V30 5815 O 564.826 -1.02325 -1.48087 0
M  V30 5816 H 561.201 -0.621013 -0.424083 0
M  V30 5817 H 563.172 -2.84254 -0.907879 0
M  V30 5818 C 561.921 -2.3074 -2.60104 0
M  V30 5819 H 561.244 -3.16047 -2.44856 0
M  V30 5820 H 562.684 -2.61849 -3.33484 0
M  V30 5821 C 561.143 -1.14143 -3.16975 0
M  V30 5822 O 561.673 -0.415602 -3.99544 0
M  V30 5823 N 559.879 -0.91867 -2.75697 0
M  V30 5824 H 559.426 -1.51065 -2.08656 0
M  V30 5825 H 559.384 -0.140321 -3.14087 0
M  V30 5826 N 563.156 0.464375 -1.50603 0
M  V30 5827 C 564.088 1.57916 -1.66118 0
M  V30 5828 C 565.101 1.53497 -0.54246 0
M  V30 5829 O 566.29 1.58763 -0.815877 0
M  V30 5830 C 563.39 2.96809 -1.63577 0
M  V30 5831 C 562.563 3.26026 -2.91592 0
M  V30 5832 C 561.622 4.44506 -2.81604 0
M  V30 5833 O 560.648 4.44484 -3.55559 0
M  V30 5834 N 561.85 5.46549 -1.95614 0
M  V30 5835 H 564.615 1.45022 -2.62276 0
M  V30 5836 H 562.176 0.652903 -1.48151 0
M  V30 5837 H 564.168 3.74048 -1.54499 0
M  V30 5838 H 562.738 3.03438 -0.751262 0
M  V30 5839 H 561.958 2.37337 -3.14746 0
M  V30 5840 H 563.246 3.42361 -3.76386 0
M  V30 5841 H 562.644 5.49391 -1.34854 0
M  V30 5842 H 561.201 6.22746 -1.92435 0
M  V30 5843 N 564.634 1.40294 0.718013 0
M  V30 5844 C 566.045 1.34289 1.29705 0
M  V30 5845 C 566.396 0.0152228 1.96194 0
M  V30 5846 O 565.521 -0.88682 1.97394 0
M  V30 5847 C 566.116 2.43219 2.3586 0
M  V30 5848 C 564.675 2.40682 2.89394 0
M  V30 5849 C 563.822 2.24223 1.63154 0
M  V30 5850 H 566.773 1.50135 0.514312 0
M  V30 5851 H 566.794 2.10986 3.16647 0
M  V30 5852 H 566.306 3.39836 1.87439 0
M  V30 5853 H 564.407 1.47756 3.42051 0
M  V30 5854 H 564.52 3.36177 3.41353 0
M  V30 5855 H 562.884 1.71696 1.88129 0
M  V30 5856 H 563.667 3.22834 1.16761 0
M  V30 5857 N 566.112 -0.949982 1.2575 0
M  V30 5858 C 567.361 -1.68956 1.10168 0
M  V30 5859 C 567.674 -1.92327 -0.356309 0
M  V30 5860 O 568.88 -2.64026 -0.632657 0
M  V30 5861 C 567.336 -3.04196 1.92336 0
M  V30 5862 C 566.944 -2.88603 3.42655 0
M  V30 5863 C 568.688 -3.81904 1.85336 0
M  V30 5864 C 566.595 -4.19262 4.17101 0
M  V30 5865 H 565.525 -0.633645 0.408668 0
M  V30 5866 H 568.176 -1.05719 1.49986 0
M  V30 5867 H 566.558 -3.68363 1.45344 0
M  V30 5868 H 567.732 -2.3334 3.97353 0
M  V30 5869 H 566.047 -2.24345 3.50796 0
M  V30 5870 H 568.644 -4.78688 2.38248 0
M  V30 5871 H 568.987 -4.08099 0.822226 0
M  V30 5872 H 569.52 -3.24495 2.30104 0
M  V30 5873 H 566.259 -3.98254 5.20648 0
M  V30 5874 H 565.779 -4.74273 3.67186 0
M  V30 5875 H 567.458 -4.87775 4.25071 0
M  V30 5876 N 567.59 -1.07411 -1.15328 0
M  V30 5877 C 568.836 -0.798831 -1.86404 0
M  V30 5878 C 569.169 0.673433 -1.8215 0
M  V30 5879 O 568.444 1.49428 -1.24505 0
M  V30 5880 C 568.727 -1.30846 -3.35487 0
M  V30 5881 C 568.58 -2.84532 -3.4837 0
M  V30 5882 C 569.899 -0.925486 -4.30259 0
M  V30 5883 H 567.018 -0.291659 -0.676834 0
M  V30 5884 H 569.66 -1.332 -1.35491 0
M  V30 5885 H 567.81 -0.854916 -3.78977 0
M  V30 5886 H 569.482 -3.3818 -3.13739 0
M  V30 5887 H 567.725 -3.22699 -2.8991 0
M  V30 5888 H 568.396 -3.15259 -4.53118 0
M  V30 5889 H 570.872 -1.3163 -3.94731 0
M  V30 5890 H 569.748 -1.3094 -5.33053 0
M  V30 5891 H 570.009 0.168525 -4.41779 0
M  V30 5892 N 569.068 1.32177 -0.85831 0
M  V30 5893 C 570.296 2.01313 -0.477582 0
M  V30 5894 C 570.711 1.6449 0.926736 0
M  V30 5895 O 570.068 0.868096 1.60531 0
M  V30 5896 C 570.119 3.56293 -0.611337 0
M  V30 5897 O 569.84 3.91794 -1.96034 0
M  V30 5898 C 571.341 4.42702 -0.230093 0
M  V30 5899 H 568.561 0.644323 -0.187322 0
M  V30 5900 H 571.105 1.68674 -1.15626 0
M  V30 5901 H 569.26 3.87395 0.0196494 0
M  V30 5902 H 569.674 4.86513 -1.95973 0
M  V30 5903 H 571.148 5.50727 -0.374674 0
M  V30 5904 H 571.625 4.3129 0.829779 0
M  V30 5905 H 572.231 4.16997 -0.836302 0
M  V30 5906 N 570.547 0.616602 1.45037 0
M  V30 5907 C 571.796 0.112861 2.01384 0
M  V30 5908 C 572.109 -1.26758 1.48969 0
M  V30 5909 O 573.315 -1.86454 1.9735 0
M  V30 5910 C 571.771 0.151057 3.59583 0
M  V30 5911 C 571.379 1.53191 4.20995 0
M  V30 5912 C 573.123 -0.296974 4.2346 0
M  V30 5913 C 571.03 1.526 5.71373 0
M  V30 5914 H 569.96 0.0384254 0.75302 0
M  V30 5915 H 572.611 0.773262 1.66412 0
M  V30 5916 H 570.993 -0.57617 3.91786 0
M  V30 5917 H 572.167 2.28156 4.00352 0
M  V30 5918 H 570.482 1.92279 3.69348 0
M  V30 5919 H 573.079 -0.320712 5.33737 0
M  V30 5920 H 573.422 -1.32145 3.9477 0
M  V30 5921 H 573.955 0.377279 3.96007 0
M  V30 5922 H 570.694 2.52837 6.04776 0
M  V30 5923 H 570.214 0.819064 5.94181 0
M  V30 5924 H 571.893 1.25357 6.3474 0
M  V30 5925 N 572.025 -1.5352 0.356285 0
M  V30 5926 C 573.25 -2.06007 -0.239961 0
M  V30 5927 C 573.675 -1.22872 -1.42422 0
M  V30 5928 O 573.033 -0.245516 -1.7963 0
M  V30 5929 C 573.081 -3.5522 -0.620587 0
M  V30 5930 O 572.185 -3.74864 -1.71902 0
M  V30 5931 H 571.526 -0.662961 -0.0371377 0
M  V30 5932 H 574.056 -1.98033 0.514194 0
M  V30 5933 H 574.066 -3.98081 -0.894197 0
M  V30 5934 H 572.741 -4.15175 0.245407 0
M  V30 5935 H 571.318 -3.43904 -1.44169 0
M  V30 5936 N 573.503 -0.0852151 -1.57369 0
M  V30 5937 C 574.466 0.8627 -2.12344 0
M  V30 5938 C 575.466 1.21746 -1.05046 0
M  V30 5939 O 576.656 1.14852 -1.30976 0
M  V30 5940 C 573.788 2.1618 -2.63589 0
M  V30 5941 H 574.981 0.385511 -2.97412 0
M  V30 5942 H 572.534 0.163663 -1.55441 0
M  V30 5943 H 573.269 2.68406 -1.82013 0
M  V30 5944 H 573.054 1.91723 -3.4203 0
M  V30 5945 H 574.544 2.84011 -3.06149 0
M  V30 5946 N 574.981 1.5647 0.188427 0
M  V30 5947 C 576.258 1.71857 0.934058 0
M  V30 5948 C 576.638 0.641867 2.01105 0
M  V30 5949 O 575.986 -0.346098 2.25864 0
M  V30 5950 C 576.196 3.14431 1.5144 0
M  V30 5951 C 577.544 3.74869 1.99396 0
M  V30 5952 O 578.568 3.17601 1.61269 0
M  V30 5953 O 577.427 4.75387 2.69573 0
M  V30 5954 H 574.521 0.701186 0.438483 0
M  V30 5955 H 577.067 1.68768 0.177599 0
M  V30 5956 H 575.839 3.8427 0.738416 0
M  V30 5957 H 575.462 3.21775 2.33552 0
M  V30 5958 N 576.459 -0.456382 1.50847 0
M  V30 5959 C 577.736 -1.21739 1.53098 0
M  V30 5960 C 578.116 -2.09179 0.284132 0
M  V30 5961 O 577.464 -2.16466 -0.731773 0
M  V30 5962 C 577.674 -2.03573 2.83477 0
M  V30 5963 C 579.022 -2.61264 3.34703 0
M  V30 5964 O 580.046 -2.13802 2.84898 0
M  V30 5965 O 578.905 -3.47779 4.21559 0
M  V30 5966 H 575.999 -0.553219 0.614718 0
M  V30 5967 H 578.545 -0.467003 1.63148 0
M  V30 5968 H 577.317 -1.39232 3.65691 0
M  V30 5969 H 576.94 -2.85716 2.76499 0
M  V30 5970 N 577.937 -1.40673 -0.710563 0
M  V30 5971 C 578.884 -1.41336 -1.82463 0
M  V30 5972 C 579.854 -0.269648 -1.63897 0
M  V30 5973 O 581.039 -0.468463 -1.8496 0
M  V30 5974 C 578.179 -1.28665 -3.20218 0
M  V30 5975 C 577.292 -2.52784 -3.5032 0
M  V30 5976 C 576.427 -2.32517 -4.77608 0
M  V30 5977 C 575.466 -3.52187 -5.0063 0
M  V30 5978 N 574.603 -3.31084 -6.19135 0
M  V30 5979 H 579.443 -2.36558 -1.8123 0
M  V30 5980 H 576.98 -1.17483 -0.885226 0
M  V30 5981 H 578.938 -1.19324 -3.99772 0
M  V30 5982 H 577.568 -0.370602 -3.20666 0
M  V30 5983 H 576.62 -2.72634 -2.65283 0
M  V30 5984 H 577.932 -3.41845 -3.63241 0
M  V30 5985 H 577.086 -2.20558 -5.65189 0
M  V30 5986 H 575.825 -1.40889 -4.66906 0
M  V30 5987 H 574.83 -3.64617 -4.11502 0
M  V30 5988 H 576.055 -4.44749 -5.13201 0
M  V30 5989 H 574.001 -2.42143 -6.09674 0
M  V30 5990 H 573.918 -4.13713 -6.32754 0
M  V30 5991 H 575.186 -3.22868 -7.0949 0
M  V30 5992 N 579.415 0.9433 -1.26252 0
M  V30 5993 C 580.692 1.66639 -1.02424 0
M  V30 5994 C 581.072 2.06335 0.446006 0
M  V30 5995 O 580.42 1.78551 1.42589 0
M  V30 5996 C 580.63 2.88019 -1.97094 0
M  V30 5997 C 581.978 3.59718 -2.25584 0
M  V30 5998 O 583.002 2.9812 -1.94943 0
M  V30 5999 O 581.861 4.7066 -2.77743 0
M  V30 6000 H 578.955 0.729643 -0.389294 0
M  V30 6001 H 581.501 0.995218 -1.37454 0
M  V30 6002 H 580.273 2.5556 -2.96319 0
M  V30 6003 H 579.896 3.62863 -1.62532 0
M  V30 6004 N 580.893 1.08022 1.14757 0
M  V30 6005 C 582.17 0.720386 1.81851 0
M  V30 6006 C 582.55 -0.796375 1.95502 0
M  V30 6007 O 581.898 -1.71339 1.51179 0
M  V30 6008 C 582.108 1.44273 3.17783 0
M  V30 6009 C 583.456 1.59925 3.93331 0
M  V30 6010 O 584.48 1.40407 3.2736 0
M  V30 6011 O 583.339 1.92096 5.11626 0
M  V30 6012 H 580.433 0.257142 0.786007 0
M  V30 6013 H 582.979 1.18155 1.21809 0
M  V30 6014 H 581.751 2.47618 3.02987 0
M  V30 6015 H 581.374 0.97279 3.85516 0
M  V30 6016 N 582.371 -1.3172 0.865308 0
M  V30 6017 C 583.599 -2.01057 0.488251 0
M  V30 6018 C 584.014 -1.64979 -0.918 0
M  V30 6019 O 583.371 -0.876597 -1.60069 0
M  V30 6020 C 583.422 -3.55964 0.630224 0
M  V30 6021 O 583.143 -3.90749 1.98109 0
M  V30 6022 C 584.644 -4.42574 0.253567 0
M  V30 6023 H 581.864 -0.64332 0.190736 0
M  V30 6024 H 584.408 -1.68058 1.16519 0
M  V30 6025 H 582.563 -3.874 0.000895422 0
M  V30 6026 H 582.977 -4.85467 1.9855 0
M  V30 6027 H 584.451 -5.50521 0.403875 0
M  V30 6028 H 584.928 -4.31724 -0.806895 0
M  V30 6029 H 585.534 -4.16547 0.858404 0
M  V30 6030 N 583.85 -0.624285 -1.44708 0
M  V30 6031 C 584.812 0.0749638 -2.29077 0
M  V30 6032 C 585.812 0.778965 -1.40673 0
M  V30 6033 O 587.003 0.624591 -1.62618 0
M  V30 6034 C 584.135 1.11663 -3.22094 0
M  V30 6035 H 585.327 -0.667013 -2.92388 0
M  V30 6036 H 582.88 -0.384098 -1.51507 0
M  V30 6037 H 583.615 1.88881 -2.63618 0
M  V30 6038 H 583.401 0.61583 -3.87234 0
M  V30 6039 H 584.891 1.60585 -3.8549 0
M  V30 6040 N 585.328 1.53329 -0.364422 0
M  V30 6041 C 586.276 2.27212 0.497737 0
M  V30 6042 C 587.27 1.30146 1.08437 0
M  V30 6043 O 588.476 1.47778 1.0277 0
M  V30 6044 H 584.851 0.730329 0.179232 0
M  V30 6045 H 586.822 2.98037 -0.147182 0
M  V30 6046 C 585.571 3.07333 1.6261 0
M  V30 6047 H 584.894 3.81866 1.184 0
M  V30 6048 H 586.334 3.62209 2.20409 0
M  V30 6049 C 584.793 2.18102 2.56775 0
M  V30 6050 O 585.323 1.79104 3.59562 0
M  V30 6051 N 583.529 1.82759 2.25937 0
M  V30 6052 H 583.076 2.14671 1.42387 0
M  V30 6053 H 583.034 1.23342 2.89196 0
M  V30 6054 N 586.806 0.0935595 1.57322 0
M  V30 6055 C 588.054 -0.569383 1.93913 0
M  V30 6056 C 588.375 -1.68817 0.976009 0
M  V30 6057 O 587.645 -1.9588 0.0278099 0
M  V30 6058 H 586.225 -0.21332 0.715894 0
M  V30 6059 H 588.887 0.156531 1.9427 0
M  V30 6060 H 587.983 -0.980577 2.96296 0
M  V30 6061 N 588.284 -1.56567 -0.180126 0
M  V30 6062 C 589.695 -1.7126 -0.743422 0
M  V30 6063 C 590.046 -0.70263 -1.83187 0
M  V30 6064 O 589.171 0.137856 -2.1596 0
M  V30 6065 C 589.766 -3.10512 -1.35528 0
M  V30 6066 C 588.325 -3.26919 -1.8655 0
M  V30 6067 C 587.472 -2.67213 -0.741099 0
M  V30 6068 H 590.423 -1.58636 0.0451543 0
M  V30 6069 H 590.444 -3.08673 -2.22489 0
M  V30 6070 H 589.956 -3.83997 -0.562862 0
M  V30 6071 H 588.057 -2.58376 -2.68464 0
M  V30 6072 H 588.17 -4.34574 -2.01699 0
M  V30 6073 H 586.534 -2.26788 -1.15927 0
M  V30 6074 H 587.317 -3.43277 0.0393291 0
M  V30 6075 N 589.762 0.448376 -1.51087 0
M  V30 6076 C 591.178 0.783984 -1.39017 0
M  V30 6077 C 591.378 1.96087 -0.463904 0
M  V30 6078 O 590.434 2.52357 0.0850534 0
M  V30 6079 C 591.747 1.07471 -2.80839 0
M  V30 6080 C 593.295 1.17981 -2.89913 0
M  V30 6081 C 593.77 1.50354 -4.32617 0
M  V30 6082 N 595.261 1.57301 -4.35673 0
M  V30 6083 C 595.996 1.839 -5.4311 0
M  V30 6084 N 595.492 2.08365 -6.60724 0
M  V30 6085 N 597.285 1.8559 -5.30578 0
M  V30 6086 H 589.436 -0.326881 -2.0987 0
M  V30 6087 H 591.699 -0.0838006 -0.944289 0
M  V30 6088 H 591.405 0.282768 -3.50561 0
M  V30 6089 H 591.279 2.00519 -3.19487 0
M  V30 6090 H 593.666 1.9624 -2.20395 0
M  V30 6091 H 593.747 0.228603 -2.54776 0
M  V30 6092 H 593.391 0.726273 -5.0268 0
M  V30 6093 H 593.321 2.46663 -4.65258 0
M  V30 6094 H 595.812 1.40342 -3.50874 0
M  V30 6095 H 596.125 2.27999 -7.38401 0
M  V30 6096 H 594.47 2.0571 -6.63859 0
M  V30 6097 H 597.661 1.65989 -4.37682 0
M  V30 6098 H 597.834 2.05983 -6.1439 0
M  V30 6099 N 591.24 1.41047 0.703093 0
M  V30 6100 C 592.487 1.4 1.46309 0
M  V30 6101 C 592.815 0.00654574 1.94499 0
M  V30 6102 O 592.07 -0.980255 1.6938 0
M  V30 6103 C 592.369 2.34686 2.6955 0
M  V30 6104 C 592.035 3.81684 2.40058 0
M  V30 6105 C 590.697 4.21731 2.31725 0
M  V30 6106 C 593.049 4.74525 2.15581 0
M  V30 6107 C 590.377 5.52637 1.97001 0
M  V30 6108 C 592.729 6.05744 1.82366 0
M  V30 6109 C 591.393 6.44819 1.72524 0
M  V30 6110 H 590.663 0.512295 0.535382 0
M  V30 6111 H 593.31 1.73792 0.804275 0
M  V30 6112 H 591.615 1.94122 3.40329 0
M  V30 6113 H 593.312 2.31152 3.27673 0
M  V30 6114 H 589.902 3.49963 2.47435 0
M  V30 6115 H 594.086 4.44395 2.20968 0
M  V30 6116 H 589.342 5.81802 1.87928 0
M  V30 6117 H 593.516 6.77189 1.62444 0
M  V30 6118 H 591.143 7.46168 1.45385 0
M  V30 6119 N 592.718 -0.936591 1.26751 0
M  V30 6120 C 593.967 -1.67778 1.11953 0
M  V30 6121 C 594.28 -1.92694 -0.33589 0
M  V30 6122 O 595.486 -2.64682 -0.604618 0
M  V30 6123 C 593.942 -3.02138 1.95551 0
M  V30 6124 C 593.55 -2.84953 3.45696 0
M  V30 6125 C 595.294 -3.79917 1.89377 0
M  V30 6126 C 593.201 -4.14814 4.21525 0
M  V30 6127 H 592.131 -0.629275 0.415366 0
M  V30 6128 H 594.782 -1.04122 1.51099 0
M  V30 6129 H 593.164 -3.668 1.49243 0
M  V30 6130 H 594.338 -2.29112 3.99805 0
M  V30 6131 H 592.653 -2.20612 3.53156 0
M  V30 6132 H 595.25 -4.76134 2.43312 0
M  V30 6133 H 595.593 -4.07204 0.865464 0
M  V30 6134 H 596.126 -3.22037 2.33532 0
M  V30 6135 H 592.865 -3.92709 5.24843 0
M  V30 6136 H 592.385 -4.70352 3.72195 0
M  V30 6137 H 594.064 -4.83239 4.3022 0
M  V30 6138 N 594.196 -1.08629 -1.14182 0
M  V30 6139 C 595.443 -0.817345 -1.85272 0
M  V30 6140 C 595.771 0.656917 -1.83071 0
M  V30 6141 O 595.026 1.49897 -1.25815 0
M  V30 6142 C 595.325 -1.28734 -3.3341 0
M  V30 6143 C 594.991 -2.76981 -3.55798 0
M  V30 6144 C 593.653 -3.17469 -3.61617 0
M  V30 6145 C 596.005 -3.72605 -3.64438 0
M  V30 6146 C 593.333 -4.52371 -3.736 0
M  V30 6147 C 595.685 -5.07286 -3.77947 0
M  V30 6148 C 594.349 -5.47376 -3.82016 0
M  V30 6149 H 593.619 -0.299088 -0.677958 0
M  V30 6150 H 596.266 -1.35962 -1.34857 0
M  V30 6151 H 594.571 -0.664702 -3.8612 0
M  V30 6152 H 596.268 -1.05598 -3.86846 0
M  V30 6153 H 592.858 -2.44644 -3.51919 0
M  V30 6154 H 597.042 -3.42443 -3.5923 0
M  V30 6155 H 592.298 -4.82882 -3.75013 0
M  V30 6156 H 596.472 -5.81243 -3.83575 0
M  V30 6157 H 594.099 -6.51906 -3.91054 0
M  V30 6158 N 595.674 1.31259 -0.872281 0
M  V30 6159 C 596.899 2.0133 -0.498099 0
M  V30 6160 C 597.324 1.65031 0.902568 0
M  V30 6161 O 596.682 0.860164 1.59596 0
M  V30 6162 C 596.73 3.54411 -0.665205 0
M  V30 6163 O 595.834 4.11347 0.294473 0
M  V30 6164 H 595.175 0.633844 -0.197832 0
M  V30 6165 H 597.705 1.67402 -1.17633 0
M  V30 6166 H 597.715 4.04147 -0.559373 0
M  V30 6167 H 596.39 3.80171 -1.68651 0
M  V30 6168 H 594.967 3.72624 0.143403 0
M  V30 6169 N 597.152 0.631951 1.44375 0
M  V30 6170 C 598.082 -0.0593243 2.33425 0
M  V30 6171 C 599.063 -0.833964 1.48253 0
M  V30 6172 O 600.248 -0.799682 1.76971 0
M  V30 6173 C 597.378 -1.04096 3.31333 0
M  V30 6174 C 596.332 -0.377899 4.26328 0
M  V30 6175 C 595.658 -1.4695 5.14111 0
M  V30 6176 C 596.958 0.716371 5.17364 0
M  V30 6177 H 598.652 0.684287 2.91475 0
M  V30 6178 H 596.198 0.330518 1.40156 0
M  V30 6179 H 598.151 -1.53331 3.92514 0
M  V30 6180 H 596.875 -1.81547 2.71493 0
M  V30 6181 H 595.534 0.0938054 3.6648 0
M  V30 6182 H 595.182 -2.2349 4.50623 0
M  V30 6183 H 594.882 -1.03121 5.78481 0
M  V30 6184 H 596.406 -1.96363 5.78164 0
M  V30 6185 H 597.82 0.307089 5.72477 0
M  V30 6186 H 596.217 1.07784 5.90341 0
M  V30 6187 H 597.287 1.58316 4.58327 0
M  V30 6188 N 598.631 -1.53133 0.372548 0
M  V30 6189 C 600.042 -1.86404 -0.105155 0
M  V30 6190 C 600.393 -1.29289 -1.47576 0
M  V30 6191 O 599.518 -0.617646 -2.07398 0
M  V30 6192 C 600.113 -3.38223 -0.197588 0
M  V30 6193 C 598.672 -3.71266 -0.619556 0
M  V30 6194 C 597.819 -2.76353 0.228919 0
M  V30 6195 H 600.77 -1.47282 0.591077 0
M  V30 6196 H 600.791 -3.66577 -1.01987 0
M  V30 6197 H 600.303 -3.79763 0.800099 0
M  V30 6198 H 598.404 -3.35287 -1.62522 0
M  V30 6199 H 598.517 -4.77515 -0.389332 0
M  V30 6200 H 596.881 -2.52888 -0.303271 0
M  V30 6201 H 597.664 -3.20728 1.22428 0
M  V30 6202 N 600.109 -0.101901 -1.5727 0
M  V30 6203 C 601.52 0.426173 -1.81771 0
M  V30 6204 C 601.871 1.67725 -1.01797 0
M  V30 6205 O 600.996 2.14958 -0.249386 0
M  V30 6206 C 601.591 0.779962 -3.297 0
M  V30 6207 C 600.15 1.25275 -3.54941 0
M  V30 6208 C 599.297 0.252814 -2.76145 0
M  V30 6209 H 602.248 -0.32726 -1.55289 0
M  V30 6210 H 602.269 1.63891 -3.43395 0
M  V30 6211 H 601.781 -0.130778 -3.8788 0
M  V30 6212 H 599.882 2.18097 -3.021 0
M  V30 6213 H 599.995 1.20988 -4.63572 0
M  V30 6214 H 598.359 0.736362 -2.43823 0
M  V30 6215 H 599.142 -0.650724 -3.37076 0
M  V30 6216 N 601.587 1.56661 0.17182 0
M  V30 6217 C 602.497 1.99604 1.2327 0
M  V30 6218 C 603.513 0.907333 1.4847 0
M  V30 6219 O 604.689 1.21492 1.60629 0
M  V30 6220 C 601.754 2.34685 2.55194 0
M  V30 6221 C 600.815 3.57381 2.3786 0
M  V30 6222 C 600.048 3.90779 3.63494 0
M  V30 6223 O 600.271 3.25152 4.6865 0
M  V30 6224 O 599.205 4.84129 3.57634 0
M  V30 6225 H 603.031 2.90114 0.898192 0
M  V30 6226 H 600.616 1.44522 0.378647 0
M  V30 6227 H 602.498 2.5822 3.33017 0
M  V30 6228 H 601.173 1.47336 2.88225 0
M  V30 6229 H 600.08 3.39064 1.5807 0
M  V30 6230 H 601.413 4.45268 2.09754 0
M  V30 6231 N 603.065 -0.440357 1.51323 0
M  V30 6232 C 604.314 -1.18697 1.63076 0
M  V30 6233 C 604.627 -1.92418 0.35136 0
M  V30 6234 O 605.833 -2.69258 0.348221 0
M  V30 6235 C 604.289 -2.15849 2.87988 0
M  V30 6236 C 603.897 -1.47789 4.22921 0
M  V30 6237 C 605.641 -2.90962 3.09098 0
M  V30 6238 C 603.548 -2.43407 5.38987 0
M  V30 6239 H 602.478 -0.44676 0.607389 0
M  V30 6240 H 605.129 -0.454313 1.77787 0
M  V30 6241 H 603.511 -2.92537 2.66905 0
M  V30 6242 H 604.685 -0.7668 4.54375 0
M  V30 6243 H 603 -0.848404 4.07665 0
M  V30 6244 H 605.597 -3.62584 3.92985 0
M  V30 6245 H 605.94 -3.52133 2.22053 0
M  V30 6246 H 606.473 -2.21381 3.30507 0
M  V30 6247 H 603.212 -1.86929 6.28282 0
M  V30 6248 H 602.732 -3.12579 5.11913 0
M  V30 6249 H 604.411 -3.046 5.70813 0
M  V30 6250 N 604.543 -1.41418 -0.695603 0
M  V30 6251 C 605.792 -1.40073 -1.4513 0
M  V30 6252 C 606.105 -0.0130439 -1.95596 0
M  V30 6253 O 607.311 0.123032 -2.71221 0
M  V30 6254 C 605.767 -2.46286 -2.62433 0
M  V30 6255 C 605.375 -3.90962 -2.18753 0
M  V30 6256 C 607.119 -2.54077 -3.40066 0
M  V30 6257 C 605.026 -4.88728 -3.33015 0
M  V30 6258 H 603.956 -0.520903 -0.545138 0
M  V30 6259 H 606.607 -1.67242 -0.75515 0
M  V30 6260 H 604.989 -2.12248 -3.34315 0
M  V30 6261 H 606.163 -4.34248 -1.54161 0
M  V30 6262 H 604.478 -3.86831 -1.54114 0
M  V30 6263 H 607.075 -3.24303 -4.25125 0
M  V30 6264 H 607.418 -1.5776 -3.8525 0
M  V30 6265 H 607.951 -2.87206 -2.75241 0
M  V30 6266 H 604.69 -5.86449 -2.92844 0
M  V30 6267 H 604.21 -4.50091 -3.96457 0
M  V30 6268 H 605.889 -5.09483 -3.98793 0
M  V30 6269 N 606.021 0.929856 -1.27246 0
M  V30 6270 C 606.971 2.01629 -1.06442 0
M  V30 6271 C 607.955 1.60899 0.00687842 0
M  V30 6272 O 609.147 1.75733 -0.211407 0
M  V30 6273 C 606.276 3.35849 -0.711361 0
M  V30 6274 C 605.362 3.8303 -1.82069 0
M  V30 6275 N 605.753 4.02743 -3.05993 0
M  V30 6276 C 604.051 4.12046 -1.70687 0
M  V30 6277 C 604.752 4.42001 -3.78167 0
M  V30 6278 N 603.728 4.4935 -3.05918 0
M  V30 6279 H 607.53 2.14898 -2.00489 0
M  V30 6280 H 605.044 1.11654 -1.17929 0
M  V30 6281 H 607.041 4.13343 -0.543442 0
M  V30 6282 H 605.701 3.23944 0.221517 0
M  V30 6283 H 606.712 3.89112 -3.41778 0
M  V30 6284 H 603.389 4.08866 -0.844681 0
M  V30 6285 H 604.779 4.6535 -4.84664 0
M  V30 6286 N 607.499 1.09233 1.13605 0
M  V30 6287 C 608.447 0.724572 2.21027 0
M  V30 6288 C 609.441 -0.273595 1.67176 0
M  V30 6289 O 610.647 -0.135266 1.79491 0
M  V30 6290 H 607.022 0.216319 0.720215 0
M  V30 6291 H 608.993 1.63975 2.49309 0
M  V30 6292 C 607.742 0.159126 3.47336 0
M  V30 6293 H 607.065 0.918387 3.89109 0
M  V30 6294 H 608.505 -0.0602851 4.23957 0
M  V30 6295 C 606.964 -1.10514 3.18258 0
M  V30 6296 O 607.494 -2.18869 3.36837 0
M  V30 6297 N 605.7 -1.01886 2.72154 0
M  V30 6298 H 605.247 -0.137027 2.57235 0
M  V30 6299 H 605.205 -1.8655 2.53074 0
M  V30 6300 N 608.977 -1.30795 0.87923 0
M  V30 6301 C 610.388 -1.78535 0.546093 0
M  V30 6302 C 610.739 -1.72354 -0.937467 0
M  V30 6303 O 609.864 -1.2969 -1.73233 0
M  V30 6304 C 610.459 -3.24181 0.9845 0
M  V30 6305 C 609.018 -3.69779 0.702871 0
M  V30 6306 C 608.165 -2.51377 1.17068 0
M  V30 6307 H 611.116 -1.17746 1.06403 0
M  V30 6308 H 611.137 -3.79227 0.311045 0
M  V30 6309 H 610.649 -3.28647 2.06429 0
M  V30 6310 H 608.75 -3.70806 -0.365166 0
M  V30 6311 H 608.863 -4.61507 1.28639 0
M  V30 6312 H 607.227 -2.47768 0.590172 0
M  V30 6313 H 608.01 -2.58584 2.25808 0
M  V30 6314 N 610.455 -0.639598 -1.44038 0
M  V30 6315 C 611.403 0.0723409 -2.32487 0
M  V30 6316 C 612.397 0.827129 -1.47834 0
M  V30 6317 O 613.603 0.73907 -1.64127 0
M  V30 6318 H 609.978 0.0421696 -0.750817 0
M  V30 6319 H 611.949 -0.691593 -2.90275 0
M  V30 6320 C 610.698 1.03452 -3.31953 0
M  V30 6321 H 610.021 0.46315 -3.97108 0
M  V30 6322 H 611.461 1.502 -3.96505 0
M  V30 6323 C 609.92 2.12392 -2.61518 0
M  V30 6324 O 610.45 3.2059 -2.42044 0
M  V30 6325 N 608.656 1.88563 -2.21116 0
M  V30 6326 H 608.203 1.00577 -2.37154 0
M  V30 6327 H 608.161 2.61651 -1.74316 0
M  V30 6328 N 611.933 1.52934 -0.380664 0
M  V30 6329 C 613.18 2.01467 0.204278 0
M  V30 6330 C 613.508 1.26744 1.47533 0
M  V30 6331 O 612.763 0.353723 1.92477 0
M  V30 6332 C 613.062 3.5349 0.527199 0
M  V30 6333 C 612.728 4.46171 -0.651295 0
M  V30 6334 C 611.39 4.71227 -0.974619 0
M  V30 6335 C 613.742 5.00909 -1.44012 0
M  V30 6336 C 611.07 5.4827 -2.08847 0
M  V30 6337 C 613.422 5.7917 -2.5445 0
M  V30 6338 C 612.086 6.02507 -2.87301 0
M  V30 6339 H 611.356 0.73722 0.0747504 0
M  V30 6340 H 614.003 1.84411 -0.516234 0
M  V30 6341 H 612.308 3.68574 1.32892 0
M  V30 6342 H 614.005 3.88529 0.992283 0
M  V30 6343 H 610.595 4.26829 -0.389276 0
M  V30 6344 H 614.779 4.81485 -1.20357 0
M  V30 6345 H 610.035 5.64567 -2.34679 0
M  V30 6346 H 614.209 6.20588 -3.1598 0
M  V30 6347 H 611.836 6.61989 -3.7373 0
M  V30 6348 N 613.412 0.11024 1.57214 0
M  V30 6349 C 614.64 -0.557834 1.99238 0
M  V30 6350 C 615.055 -1.60778 0.989734 0
M  V30 6351 O 614.412 -1.82491 -0.0186092 0
M  V30 6352 C 614.463 -1.19189 3.41286 0
M  V30 6353 O 614.184 -0.183919 4.37714 0
M  V30 6354 C 615.685 -1.94413 3.98395 0
M  V30 6355 H 612.905 -0.148392 0.654386 0
M  V30 6356 H 615.449 0.193996 2.03578 0
M  V30 6357 H 613.604 -1.89456 3.37913 0
M  V30 6358 H 614.018 -0.643475 5.20538 0
M  V30 6359 H 615.492 -2.34116 4.99894 0
M  V30 6360 H 615.969 -2.81592 3.3705 0
M  V30 6361 H 616.575 -1.28928 4.05287 0
M  V30 6362 N 614.89 -1.56749 -0.16351 0
M  V30 6363 C 616.136 -1.82704 -0.880168 0
M  V30 6364 C 616.469 -0.689311 -1.81555 0
M  V30 6365 O 615.744 0.308224 -1.92042 0
M  V30 6366 C 616.027 -3.19084 -1.66905 0
M  V30 6367 C 615.88 -4.43397 -0.756269 0
M  V30 6368 C 617.199 -3.52493 -2.63509 0
M  V30 6369 H 614.318 -0.664608 -0.318535 0
M  V30 6370 H 616.96 -1.89438 -0.146036 0
M  V30 6371 H 615.11 -3.13475 -2.2949 0
M  V30 6372 H 616.782 -4.61079 -0.14269 0
M  V30 6373 H 615.025 -4.33752 -0.0647944 0
M  V30 6374 H 615.696 -5.3539 -1.34393 0
M  V30 6375 H 618.172 -3.58606 -2.11047 0
M  V30 6376 H 617.048 -4.48979 -3.15767 0
M  V30 6377 H 617.309 -2.77597 -3.44082 0
M  V30 6378 N 616.368 0.432326 -1.51554 0
M  V30 6379 C 617.784 0.769195 -1.39841 0
M  V30 6380 C 617.984 1.95584 -0.484675 0
M  V30 6381 O 617.04 2.52433 0.0582829 0
M  V30 6382 C 618.353 1.04487 -2.81963 0
M  V30 6383 C 619.901 1.149 -2.91148 0
M  V30 6384 C 620.376 1.45758 -4.34187 0
M  V30 6385 N 621.867 1.52671 -4.37317 0
M  V30 6386 C 622.602 1.78129 -5.4503 0
M  V30 6387 N 622.098 2.01345 -6.62897 0
M  V30 6388 N 623.891 1.79953 -5.32516 0
M  V30 6389 H 616.042 -0.349122 -2.09511 0
M  V30 6390 H 618.305 -0.0938113 -0.943347 0
M  V30 6391 H 618.011 0.24557 -3.50842 0
M  V30 6392 H 617.885 1.97119 -3.21596 0
M  V30 6393 H 620.272 1.93891 -2.22464 0
M  V30 6394 H 620.353 0.201568 -2.55005 0
M  V30 6395 H 619.997 0.672917 -5.03423 0
M  V30 6396 H 619.927 2.41715 -4.67848 0
M  V30 6397 H 622.418 1.36612 -3.52343 0
M  V30 6398 H 622.731 2.20155 -7.40778 0
M  V30 6399 H 621.076 1.98657 -6.66003 0
M  V30 6400 H 624.267 1.61337 -4.39418 0
M  V30 6401 H 624.44 1.99455 -6.1654 0
M  V30 6402 N 617.846 1.41785 0.688094 0
M  V30 6403 C 619.123 1.32031 1.44316 0
M  V30 6404 C 619.503 -0.0486079 2.11044 0
M  V30 6405 O 618.851 -1.06332 2.02252 0
M  V30 6406 C 619.061 2.47906 2.45649 0
M  V30 6407 C 620.409 2.89415 3.10683 0
M  V30 6408 O 621.433 2.477 2.55975 0
M  V30 6409 O 620.292 3.61573 4.09789 0
M  V30 6410 H 617.386 0.519994 0.643067 0
M  V30 6411 H 619.932 1.53765 0.71794 0
M  V30 6412 H 618.704 3.39222 1.95048 0
M  V30 6413 H 618.327 2.28089 3.25671 0
M  V30 6414 N 619.324 -0.923095 1.27737 0
M  V30 6415 C 620.272 -2.04567 1.10703 0
M  V30 6416 C 621.266 -1.69375 0.0288445 0
M  V30 6417 O 622.472 -1.79027 0.186913 0
M  V30 6418 H 618.847 -0.670109 0.34126 0
M  V30 6419 H 620.818 -2.1608 2.05796 0
M  V30 6420 C 619.567 -3.38934 0.775837 0
M  V30 6421 H 618.89 -3.66501 1.59741 0
M  V30 6422 H 620.33 -4.18239 0.696548 0
M  V30 6423 C 618.789 -3.32863 -0.520012 0
M  V30 6424 O 619.319 -3.70462 -1.55308 0
M  V30 6425 N 617.525 -2.85958 -0.51732 0
M  V30 6426 H 617.072 -2.55557 0.32379 0
M  V30 6427 H 617.03 -2.82279 -1.38441 0
M  V30 6428 N 620.802 -1.09834 -1.13024 0
M  V30 6429 C 622.218 -0.828875 -1.36388 0
M  V30 6430 C 622.418 0.554756 -1.93713 0
M  V30 6431 O 621.474 1.30882 -2.15931 0
M  V30 6432 C 622.787 -1.92352 -2.3113 0
M  V30 6433 C 624.335 -1.95124 -2.44735 0
M  V30 6434 C 624.81 -3.03745 -3.42787 0
M  V30 6435 N 626.301 -3.03012 -3.5034 0
M  V30 6436 C 627.036 -3.83699 -4.26101 0
M  V30 6437 N 626.532 -4.74306 -5.04981 0
M  V30 6438 N 628.325 -3.71942 -4.21445 0
M  V30 6439 H 620.476 -1.99029 -0.74169 0
M  V30 6440 H 622.739 -0.864557 -0.388903 0
M  V30 6441 H 622.445 -2.91906 -1.96172 0
M  V30 6442 H 622.319 -1.80536 -3.3119 0
M  V30 6443 H 624.706 -0.962069 -2.78977 0
M  V30 6444 H 624.787 -2.11018 -1.44586 0
M  V30 6445 H 624.431 -4.02878 -3.09276 0
M  V30 6446 H 624.361 -2.85094 -4.42752 0
M  V30 6447 H 626.852 -2.37352 -2.94062 0
M  V30 6448 H 627.165 -5.32446 -5.60108 0
M  V30 6449 H 625.51 -4.78339 -5.04199 0
M  V30 6450 H 628.701 -3.00513 -3.589 0
M  V30 6451 H 628.874 -4.35062 -4.80235 0
M  V30 6452 N 622.28 1.30327 -0.886154 0
M  V30 6453 C 623.557 1.90922 -0.425217 0
M  V30 6454 C 623.937 1.80533 1.09413 0
M  V30 6455 O 623.285 1.2233 1.92996 0
M  V30 6456 C 623.495 3.36529 -0.924638 0
M  V30 6457 C 624.843 4.13598 -0.960305 0
M  V30 6458 O 625.867 3.45377 -0.871382 0
M  V30 6459 O 624.726 5.35482 -1.09184 0
M  V30 6460 H 621.82 0.81668 -0.130238 0
M  V30 6461 H 624.366 1.38886 -0.975132 0
M  V30 6462 H 623.138 3.38181 -1.96849 0
M  V30 6463 H 622.761 3.96021 -0.353955 0
M  V30 6464 N 623.758 0.647228 1.43697 0
M  V30 6465 C 624.706 -0.0600105 2.32523 0
M  V30 6466 C 625.7 -0.819277 1.48271 0
M  V30 6467 O 626.906 -0.730356 1.64517 0
M  V30 6468 H 623.281 -0.0381872 0.75103 0
M  V30 6469 H 625.252 0.706978 2.89904 0
M  V30 6470 C 624.001 -1.0169 3.32497 0
M  V30 6471 H 623.324 -0.442083 3.97348 0
M  V30 6472 H 624.764 -1.48095 3.97296 0
M  V30 6473 C 623.223 -2.11002 2.6264 0
M  V30 6474 O 623.753 -3.19302 2.4374 0
M  V30 6475 N 621.959 -1.87388 2.22113 0
M  V30 6476 H 621.506 -0.993174 2.37684 0
M  V30 6477 H 621.464 -2.60723 1.75701 0
M  V30 6478 N 625.236 -1.5273 0.388769 0
M  V30 6479 C 626.464 -2.05992 -0.193677 0
M  V30 6480 C 626.879 -1.26053 -1.40557 0
M  V30 6481 O 626.236 -0.307049 -1.79898 0
M  V30 6482 C 626.287 -3.57068 -0.564321 0
M  V30 6483 O 626.008 -4.3398 0.599422 0
M  V30 6484 C 627.509 -4.26674 -1.20269 0
M  V30 6485 H 624.729 -0.670358 -0.0293445 0
M  V30 6486 H 627.273 -1.96857 0.553844 0
M  V30 6487 H 625.428 -3.66277 -1.26174 0
M  V30 6488 H 625.842 -5.2367 0.294895 0
M  V30 6489 H 627.316 -5.33625 -1.4124 0
M  V30 6490 H 627.793 -3.81854 -2.16989 0
M  V30 6491 H 628.399 -4.2178 -0.546047 0
M  V30 6492 N 626.714 -0.118576 -1.57153 0
M  V30 6493 C 627.677 0.817464 -2.14127 0
M  V30 6494 C 628.677 1.1949 -1.07604 0
M  V30 6495 O 629.867 1.12048 -1.33382 0
M  V30 6496 C 626.999 2.10541 -2.68115 0
M  V30 6497 H 628.192 0.322339 -2.98163 0
M  V30 6498 H 625.745 0.130655 -1.55753 0
M  V30 6499 H 626.48 2.64485 -1.87665 0
M  V30 6500 H 626.265 1.84425 -3.4602 0
M  V30 6501 H 627.755 2.77453 -3.12105 0
M  V30 6502 N 628.193 1.56834 0.155195 0
M  V30 6503 C 629.441 1.82536 0.867462 0
M  V30 6504 C 629.762 0.698168 1.82073 0
M  V30 6505 O 629.032 -0.280807 1.93877 0
M  V30 6506 H 627.612 0.673401 0.323327 0
M  V30 6507 H 630.274 1.94313 0.151156 0
M  V30 6508 H 629.37 2.77171 1.43466 0
M  V30 6509 N 629.671 -0.424282 1.51781 0
M  V30 6510 C 630.917 -1.17434 1.6534 0
M  V30 6511 C 631.25 -1.90549 0.374806 0
M  V30 6512 O 630.525 -1.84145 -0.626179 0
M  V30 6513 C 630.808 -2.18093 2.86544 0
M  V30 6514 C 630.661 -1.48975 4.24413 0
M  V30 6515 C 631.98 -3.18934 3.03264 0
M  V30 6516 H 629.099 -0.425566 0.601716 0
M  V30 6517 H 631.741 -0.461921 1.84299 0
M  V30 6518 H 629.891 -2.78849 2.7051 0
M  V30 6519 H 631.563 -0.914551 4.52143 0
M  V30 6520 H 629.806 -0.791893 4.26511 0
M  V30 6521 H 630.477 -2.22347 5.05238 0
M  V30 6522 H 632.953 -2.68243 3.18096 0
M  V30 6523 H 631.829 -3.86645 3.89611 0
M  V30 6524 H 632.09 -3.85793 2.15908 0
M  V30 6525 N 631.149 -1.42148 -0.680565 0
M  V30 6526 C 632.379 -1.45485 -1.46689 0
M  V30 6527 C 632.787 -0.0629451 -1.89095 0
M  V30 6528 O 632.13 0.931397 -1.58337 0
M  V30 6529 C 632.192 -2.31397 -2.75129 0
M  V30 6530 C 631.856 -3.79353 -2.54834 0
M  V30 6531 C 632.853 -4.71148 -2.19808 0
M  V30 6532 C 630.538 -4.23557 -2.70008 0
M  V30 6533 C 632.532 -6.05139 -2.00215 0
M  V30 6534 C 630.219 -5.57609 -2.50031 0
M  V30 6535 C 631.217 -6.48216 -2.15187 0
M  V30 6536 O 630.905 -7.79792 -1.95397 0
M  V30 6537 H 630.637 -0.497139 -0.458071 0
M  V30 6538 H 633.191 -1.87252 -0.844139 0
M  V30 6539 H 631.421 -1.84468 -3.39865 0
M  V30 6540 H 633.11 -2.26257 -3.36991 0
M  V30 6541 H 633.876 -4.38282 -2.07686 0
M  V30 6542 H 629.755 -3.53327 -2.96109 0
M  V30 6543 H 633.299 -6.75823 -1.72941 0
M  V30 6544 H 629.196 -5.9005 -2.61748 0
M  V30 6545 H 629.964 -7.91091 -2.10042 0
M  V30 6546 N 632.627 0.916307 -1.28225 0
M  V30 6547 C 633.59 1.99996 -1.11957 0
M  V30 6548 C 634.59 1.60688 -0.0600152 0
M  V30 6549 O 635.78 1.71499 -0.30558 0
M  V30 6550 C 632.912 3.33458 -0.708411 0
M  V30 6551 H 634.105 2.15858 -2.08196 0
M  V30 6552 H 631.658 1.09863 -1.11175 0
M  V30 6553 H 632.393 3.23297 0.254859 0
M  V30 6554 H 632.178 3.63349 -1.47377 0
M  V30 6555 H 633.668 4.13014 -0.617164 0
M  V30 6556 N 634.105 1.10431 1.1244 0
M  V30 6557 C 635.521 0.836096 1.35947 0
M  V30 6558 C 635.721 -0.544475 1.94004 0
M  V30 6559 O 634.777 -1.29735 2.16622 0
M  V30 6560 C 636.09 1.93575 2.30107 0
M  V30 6561 C 637.638 1.9642 2.43697 0
M  V30 6562 C 638.113 3.05559 3.41171 0
M  V30 6563 N 639.604 3.04865 3.48728 0
M  V30 6564 C 640.339 3.85954 4.24061 0
M  V30 6565 N 639.835 4.76977 5.02458 0
M  V30 6566 N 641.628 3.74172 4.19466 0
M  V30 6567 H 633.779 1.9942 0.731124 0
M  V30 6568 H 636.042 0.866607 0.384312 0
M  V30 6569 H 635.748 2.92943 1.94621 0
M  V30 6570 H 635.622 1.8229 3.30227 0
M  V30 6571 H 638.009 0.97685 2.78463 0
M  V30 6572 H 638.09 2.11782 1.43465 0
M  V30 6573 H 637.734 4.04513 3.07135 0
M  V30 6574 H 637.664 2.87438 4.41234 0
M  V30 6575 H 640.155 2.38908 2.92799 0
M  V30 6576 H 640.468 5.35409 5.57277 0
M  V30 6577 H 638.813 4.81006 5.01655 0
M  V30 6578 H 642.004 3.02412 3.57302 0
M  V30 6579 H 642.177 4.37602 4.77921 0
M  V30 6580 N 635.583 -1.29855 0.893053 0
M  V30 6581 C 636.999 -1.48366 0.588199 0
M  V30 6582 C 637.199 -1.81654 -0.872018 0
M  V30 6583 O 636.255 -1.909 -1.65268 0
M  V30 6584 C 637.568 -2.60136 1.5083 0
M  V30 6585 C 639.116 -2.74014 1.51279 0
M  V30 6586 C 639.591 -3.88905 2.41902 0
M  V30 6587 N 641.082 -3.96228 2.39911 0
M  V30 6588 C 641.817 -4.84458 3.06738 0
M  V30 6589 N 641.313 -5.77426 3.8282 0
M  V30 6590 N 643.106 -4.77894 2.95929 0
M  V30 6591 H 635.257 -1.06522 1.83757 0
M  V30 6592 H 637.52 -0.528495 0.787018 0
M  V30 6593 H 637.226 -2.42383 2.54839 0
M  V30 6594 H 637.1 -3.56793 1.22388 0
M  V30 6595 H 639.487 -2.91167 0.480179 0
M  V30 6596 H 639.568 -1.77952 1.83757 0
M  V30 6597 H 639.212 -3.72508 3.45253 0
M  V30 6598 H 639.142 -4.84322 2.06737 0
M  V30 6599 H 641.633 -3.29728 1.84629 0
M  V30 6600 H 641.946 -6.41529 4.30883 0
M  V30 6601 H 640.291 -5.77332 3.86927 0
M  V30 6602 H 643.482 -4.04248 2.36012 0
M  V30 6603 H 643.655 -5.46444 3.48286 0
M  V30 6604 N 637.061 -0.65484 -1.43351 0
M  V30 6605 C 638.309 -0.168559 -2.01396 0
M  V30 6606 C 638.63 1.22235 -1.51933 0
M  V30 6607 O 637.9 1.81685 -0.732627 0
M  V30 6608 H 636.48 -0.0593244 -0.744641 0
M  V30 6609 H 639.142 -0.846871 -1.75539 0
M  V30 6610 H 638.238 -0.154428 -3.11718 0
M  V30 6611 N 638.539 1.52521 -0.396863 0
M  V30 6612 C 639.787 2.01274 0.182536 0
M  V30 6613 C 640.108 1.28485 1.46685 0
M  V30 6614 O 639.378 0.407134 1.91623 0
M  V30 6615 H 637.958 0.743671 0.0704442 0
M  V30 6616 H 640.62 1.87547 -0.530289 0
M  V30 6617 H 639.716 3.09687 0.387385 0
M  V30 6618 N 640.017 0.126909 1.57088 0
M  V30 6619 C 641.264 -0.529168 1.95464 0
M  V30 6620 C 641.592 -1.6618 1.01067 0
M  V30 6621 O 640.847 -1.95667 0.0360254 0
M  V30 6622 C 641.146 -1.095 3.40212 0
M  V30 6623 C 640.812 -0.0829015 4.50824 0
M  V30 6624 C 639.474 0.195377 4.80803 0
M  V30 6625 C 641.826 0.606411 5.1766 0
M  V30 6626 C 639.154 1.16912 5.74933 0
M  V30 6627 C 641.506 1.56884 6.12838 0
M  V30 6628 C 640.17 1.85502 6.41206 0
M  V30 6629 H 639.44 -0.193636 0.715252 0
M  V30 6630 H 642.087 0.209489 1.90351 0
M  V30 6631 H 640.392 -1.91058 3.42059 0
M  V30 6632 H 642.089 -1.61087 3.67222 0
M  V30 6633 H 638.679 -0.309979 4.27478 0
M  V30 6634 H 642.863 0.404597 4.94648 0
M  V30 6635 H 638.119 1.3975 5.95214 0
M  V30 6636 H 642.293 2.10859 6.6371 0
M  V30 6637 H 639.92 2.61109 7.13951 0
M  V30 6638 N 641.495 -1.56914 -0.146875 0
M  V30 6639 C 642.72 -1.87881 -0.878386 0
M  V30 6640 C 643.145 -0.715945 -1.73942 0
M  V30 6641 O 642.503 0.334447 -1.78189 0
M  V30 6642 C 642.551 -3.17431 -1.71084 0
M  V30 6643 O 641.655 -3.01374 -2.81509 0
M  V30 6644 H 640.996 -0.617289 -0.244644 0
M  V30 6645 H 643.526 -2.04136 -0.137654 0
M  V30 6646 H 643.536 -3.49455 -2.10582 0
M  V30 6647 H 642.211 -4.01671 -1.07856 0
M  V30 6648 H 640.788 -2.80758 -2.45416 0
M  V30 6649 N 642.974 0.416227 -1.52004 0
M  V30 6650 C 644.39 0.754319 -1.40649 0
M  V30 6651 C 644.59 1.95059 -0.505392 0
M  V30 6652 O 643.646 2.5248 0.0315057 0
M  V30 6653 C 644.959 1.0149 -2.83055 0
M  V30 6654 C 646.507 1.11805 -2.9235 0
M  V30 6655 C 646.982 1.41144 -4.35709 0
M  V30 6656 N 648.473 1.48024 -4.38911 0
M  V30 6657 C 649.208 1.72338 -5.46889 0
M  V30 6658 N 648.704 1.94303 -6.64995 0
M  V30 6659 N 650.497 1.74294 -5.34395 0
M  V30 6660 H 642.648 -0.371324 -2.09129 0
M  V30 6661 H 644.911 -0.103811 -0.942299 0
M  V30 6662 H 644.617 0.208345 -3.51082 0
M  V30 6663 H 644.491 1.93697 -3.23668 0
M  V30 6664 H 646.878 1.91521 -2.24508 0
M  V30 6665 H 646.959 0.17451 -2.55204 0
M  V30 6666 H 646.603 0.619484 -5.04108 0
M  V30 6667 H 646.533 2.36739 -4.70385 0
M  V30 6668 H 649.024 1.32868 -3.53772 0
M  V30 6669 H 649.337 2.12286 -7.43071 0
M  V30 6670 H 647.682 1.91582 -6.68073 0
M  V30 6671 H 650.873 1.56667 -4.41104 0
M  V30 6672 H 651.046 1.92904 -6.18621 0
M  V30 6673 N 644.452 1.42507 0.673017 0
M  V30 6674 C 645.384 1.42074 1.79854 0
M  V30 6675 C 646.397 0.319569 1.59633 0
M  V30 6676 O 647.586 0.582769 1.68719 0
M  V30 6677 C 644.686 1.19886 3.16987 0
M  V30 6678 C 643.859 2.42471 3.64042 0
M  V30 6679 C 642.918 2.15802 4.79913 0
M  V30 6680 O 641.944 2.89015 4.90366 0
M  V30 6681 N 643.146 1.16225 5.68746 0
M  V30 6682 H 645.911 2.3909 1.8071 0
M  V30 6683 H 643.472 1.37409 0.856171 0
M  V30 6684 H 645.464 0.999591 3.92161 0
M  V30 6685 H 644.034 0.313879 3.1102 0
M  V30 6686 H 643.254 2.77954 2.79526 0
M  V30 6687 H 644.542 3.24097 3.92223 0
M  V30 6688 H 643.94 0.556756 5.62954 0
M  V30 6689 H 642.497 1.02285 6.43724 0
M  V30 6690 N 645.93 -0.909495 1.28709 0
M  V30 6691 C 646.877 -2.01245 1.13 0
M  V30 6692 C 647.847 -1.6608 0.0259684 0
M  V30 6693 O 649.032 -1.89835 0.191687 0
M  V30 6694 C 646.172 -3.35644 0.802315 0
M  V30 6695 C 645.285 -3.83653 1.98582 0
M  V30 6696 C 644.42 -5.06582 1.59837 0
M  V30 6697 C 643.459 -5.46934 2.74827 0
M  V30 6698 N 642.596 -6.61053 2.36546 0
M  V30 6699 H 647.436 -2.14013 2.0737 0
M  V30 6700 H 644.973 -1.0482 1.03205 0
M  V30 6701 H 646.931 -4.12963 0.593057 0
M  V30 6702 H 645.561 -3.22631 -0.104457 0
M  V30 6703 H 644.613 -3.02454 2.30708 0
M  V30 6704 H 645.925 -4.09515 2.84779 0
M  V30 6705 H 645.079 -5.91457 1.35143 0
M  V30 6706 H 643.818 -4.82537 0.707753 0
M  V30 6707 H 642.823 -4.60599 3.00215 0
M  V30 6708 H 644.048 -5.72965 3.64538 0
M  V30 6709 H 641.994 -6.3863 1.49959 0
M  V30 6710 H 641.911 -6.86662 3.16277 0
M  V30 6711 H 643.179 -7.49221 2.15146 0
M  V30 6712 N 647.408 -1.11026 -1.11852 0
M  V30 6713 C 648.34 -0.72249 -2.17515 0
M  V30 6714 C 649.353 0.243782 -1.60964 0
M  V30 6715 O 650.542 0.0273252 -1.78479 0
M  V30 6716 C 647.642 -0.0463979 -3.38868 0
M  V30 6717 C 646.815 -1.0384 -4.24895 0
M  V30 6718 C 645.874 -0.392659 -5.24733 0
M  V30 6719 O 644.9 -1.0453 -5.5952 0
M  V30 6720 N 646.102 0.846296 -5.74298 0
M  V30 6721 H 648.867 -1.63161 -2.51393 0
M  V30 6722 H 646.428 -0.999899 -1.27333 0
M  V30 6723 H 648.42 0.397215 -4.02746 0
M  V30 6724 H 646.99 0.765231 -3.03089 0
M  V30 6725 H 646.21 -1.6601 -3.57539 0
M  V30 6726 H 647.498 -1.70968 -4.79215 0
M  V30 6727 H 646.896 1.39578 -5.4821 0
M  V30 6728 H 645.453 1.23296 -6.40032 0
M  V30 6729 N 648.886 1.2938 -0.899927 0
M  V30 6730 C 650.163 1.9046 -0.445443 0
M  V30 6731 C 650.543 1.81683 1.07492 0
M  V30 6732 O 649.891 1.24371 1.91688 0
M  V30 6733 C 650.101 3.35529 -0.960279 0
M  V30 6734 C 651.449 4.12556 -1.00412 0
M  V30 6735 O 652.473 3.44434 -0.907965 0
M  V30 6736 O 651.332 5.34294 -1.14857 0
M  V30 6737 H 648.426 0.815253 -0.138893 0
M  V30 6738 H 650.972 1.37844 -0.989808 0
M  V30 6739 H 649.744 3.36074 -2.00425 0
M  V30 6740 H 649.367 3.95624 -0.395939 0
M  V30 6741 N 650.364 0.662433 1.43002 0
M  V30 6742 C 651.294 -0.00979809 2.33498 0
M  V30 6743 C 652.275 -0.802329 1.49989 0
M  V30 6744 O 653.46 -0.761964 1.78627 0
M  V30 6745 C 650.59 -0.970446 3.33466 0
M  V30 6746 C 649.544 -0.287383 4.27034 0
M  V30 6747 C 648.87 -1.36012 5.17112 0
M  V30 6748 C 650.17 0.82595 5.15728 0
M  V30 6749 H 651.864 0.745959 2.89958 0
M  V30 6750 H 649.41 0.360172 1.39423 0
M  V30 6751 H 651.363 -1.44971 3.95679 0
M  V30 6752 H 650.087 -1.75748 2.75282 0
M  V30 6753 H 648.746 0.17152 3.66199 0
M  V30 6754 H 648.394 -2.13882 4.55262 0
M  V30 6755 H 648.094 -0.908276 5.80538 0
M  V30 6756 H 649.618 -1.84056 5.82199 0
M  V30 6757 H 651.032 0.42845 5.71697 0
M  V30 6758 H 649.429 1.20282 5.87922 0
M  V30 6759 H 650.499 1.68003 4.54866 0
M  V30 6760 N 651.842 -1.52309 0.404946 0
M  V30 6761 C 653.072 -2.05886 -0.171569 0
M  V30 6762 C 653.48 -1.27527 -1.39762 0
M  V30 6763 O 652.823 -0.319215 -1.80905 0
M  V30 6764 C 652.885 -3.54609 -0.590983 0
M  V30 6765 C 652.549 -4.53989 0.523757 0
M  V30 6766 C 653.546 -5.01084 1.38604 0
M  V30 6767 C 651.231 -4.97465 0.695255 0
M  V30 6768 C 653.225 -5.90295 2.4048 0
M  V30 6769 C 650.912 -5.86473 1.71733 0
M  V30 6770 C 651.91 -6.32782 2.57051 0
M  V30 6771 O 651.598 -7.20029 3.57509 0
M  V30 6772 H 651.33 -0.675508 -0.0257763 0
M  V30 6773 H 653.884 -1.97238 0.573278 0
M  V30 6774 H 652.114 -3.60929 -1.38805 0
M  V30 6775 H 653.803 -3.90853 -1.09494 0
M  V30 6776 H 654.569 -4.68214 1.26492 0
M  V30 6777 H 650.448 -4.60982 0.0408447 0
M  V30 6778 H 653.992 -6.26363 3.07108 0
M  V30 6779 H 649.889 -6.18756 1.83877 0
M  V30 6780 H 650.657 -7.3813 3.53703 0
M  V30 6781 N 653.32 -0.135238 -1.57019 0
M  V30 6782 C 654.25 0.805235 -2.19176 0
M  V30 6783 C 655.231 1.2656 -1.13651 0
M  V30 6784 O 656.416 1.32528 -1.4195 0
M  V30 6785 C 653.546 2.04914 -2.80406 0
M  V30 6786 C 652.5 1.72598 -3.91655 0
M  V30 6787 C 651.826 3.04154 -4.39766 0
M  V30 6788 C 653.126 0.981709 -5.12991 0
M  V30 6789 H 654.82 0.287232 -2.98019 0
M  V30 6790 H 652.366 0.136714 -1.4335 0
M  V30 6791 H 654.319 2.71178 -3.22553 0
M  V30 6792 H 653.043 2.59067 -1.98877 0
M  V30 6793 H 651.702 1.08717 -3.50109 0
M  V30 6794 H 651.35 3.56274 -3.55075 0
M  V30 6795 H 651.05 2.83299 -5.14796 0
M  V30 6796 H 652.574 3.71509 -4.84576 0
M  V30 6797 H 653.988 1.5462 -5.52056 0
M  V30 6798 H 652.385 0.873533 -5.93708 0
M  V30 6799 H 653.455 -0.0286887 -4.84892 0
M  V30 6800 N 654.798 1.5699 0.138552 0
M  V30 6801 C 655.728 2.01933 1.17241 0
M  V30 6802 C 656.709 0.90033 1.44319 0
M  V30 6803 O 657.894 1.16872 1.55095 0
M  V30 6804 C 655.024 2.40711 2.50351 0
M  V30 6805 C 653.978 3.55874 2.37776 0
M  V30 6806 C 653.304 3.80491 3.75674 0
M  V30 6807 C 654.604 4.8826 1.85472 0
M  V30 6808 H 656.298 2.88551 0.798672 0
M  V30 6809 H 653.844 1.3882 0.382743 0
M  V30 6810 H 655.797 2.70754 3.22909 0
M  V30 6811 H 654.521 1.5104 2.89576 0
M  V30 6812 H 653.18 3.2601 1.67669 0
M  V30 6813 H 652.828 2.88057 4.12349 0
M  V30 6814 H 652.528 4.57998 3.68119 0
M  V30 6815 H 654.052 4.12967 4.49767 0
M  V30 6816 H 655.466 5.16965 2.4783 0
M  V30 6817 H 653.863 5.69631 1.88787 0
M  V30 6818 H 654.933 4.78071 0.810935 0
M  V30 6819 N 656.276 -0.40816 1.52223 0
M  V30 6820 C 657.687 -0.986929 1.58482 0
M  V30 6821 C 658.038 -1.91521 0.425917 0
M  V30 6822 O 657.163 -2.11593 -0.453593 0
M  V30 6823 C 657.758 -1.7967 2.87235 0
M  V30 6824 C 656.317 -2.32549 2.9597 0
M  V30 6825 C 655.464 -1.12558 2.53428 0
M  V30 6826 H 658.415 -0.188362 1.57578 0
M  V30 6827 H 658.436 -2.65417 2.72642 0
M  V30 6828 H 657.948 -1.12082 3.71563 0
M  V30 6829 H 656.049 -3.03505 2.16137 0
M  V30 6830 H 656.162 -2.63348 4.00231 0
M  V30 6831 H 654.526 -1.47984 2.07299 0
M  V30 6832 H 655.309 -0.465351 3.40131 0
M  V30 6833 N 657.755 -1.42862 -0.66545 0
M  V30 6834 C 659.004 -1.43119 -1.42126 0
M  V30 6835 C 659.317 -0.0545297 -1.95524 0
M  V30 6836 O 660.523 0.0654747 -2.71421 0
M  V30 6837 C 658.979 -2.51797 -2.5715 0
M  V30 6838 C 658.587 -3.95514 -2.10411 0
M  V30 6839 C 660.331 -2.61233 -3.346 0
M  V30 6840 C 658.238 -4.95682 -3.22573 0
M  V30 6841 H 657.168 -0.532349 -0.533966 0
M  V30 6842 H 659.819 -1.68806 -0.719506 0
M  V30 6843 H 658.201 -2.19292 -3.29738 0
M  V30 6844 H 659.375 -4.3742 -1.44915 0
M  V30 6845 H 657.69 -3.90012 -1.45874 0
M  V30 6846 H 660.287 -3.33248 -4.18151 0
M  V30 6847 H 660.63 -1.65896 -3.81817 0
M  V30 6848 H 661.163 -2.9298 -2.69087 0
M  V30 6849 H 657.902 -5.92529 -2.80338 0
M  V30 6850 H 657.422 -4.58399 -3.86821 0
M  V30 6851 H 659.101 -5.17828 -3.87896 0
M  V30 6852 N 659.233 0.902656 -1.29189 0
M  V30 6853 C 660.479 1.65532 -1.17163 0
M  V30 6854 C 660.812 1.92216 0.276879 0
M  V30 6855 O 660.087 1.53048 1.20027 0
M  V30 6856 C 660.37 3.00629 -1.98228 0
M  V30 6857 C 660.223 2.81029 -3.51202 0
M  V30 6858 C 661.542 4.01321 -1.80635 0
M  V30 6859 H 658.661 0.60071 -0.426985 0
M  V30 6860 H 661.303 1.04578 -1.5863 0
M  V30 6861 H 659.453 3.52656 -1.62991 0
M  V30 6862 H 661.125 2.35927 -3.96404 0
M  V30 6863 H 659.368 2.1587 -3.76275 0
M  V30 6864 H 660.039 3.77014 -4.03192 0
M  V30 6865 H 662.515 3.58394 -2.11406 0
M  V30 6866 H 661.391 4.93792 -2.3971 0
M  V30 6867 H 661.652 4.35505 -0.760754 0
M  V30 6868 N 660.711 1.11618 1.11262 0
M  V30 6869 C 661.96 0.860934 1.82403 0
M  V30 6870 C 662.273 -0.615303 1.8567 0
M  V30 6871 O 663.479 -0.986861 2.52929 0
M  V30 6872 C 661.935 1.49048 3.27586 0
M  V30 6873 C 661.543 3.00089 3.32642 0
M  V30 6874 C 663.287 1.31515 4.03614 0
M  V30 6875 C 661.194 3.56019 4.72234 0
M  V30 6876 H 660.124 0.318423 0.683464 0
M  V30 6877 H 662.775 1.34165 1.25188 0
M  V30 6878 H 661.157 0.937434 3.84744 0
M  V30 6879 H 662.331 3.61813 2.85356 0
M  V30 6880 H 660.646 3.16919 2.70096 0
M  V30 6881 H 663.243 1.70732 5.0671 0
M  V30 6882 H 663.586 0.257917 4.155 0
M  V30 6883 H 664.119 1.83694 3.52848 0
M  V30 6884 H 660.858 4.61463 4.65545 0
M  V30 6885 H 660.378 2.99066 5.19923 0
M  V30 6886 H 662.057 3.54568 5.41193 0
M  V30 6887 N 662.189 -1.289 0.906776 0
M  V30 6888 C 663.414 -1.99939 0.551303 0
M  V30 6889 C 663.839 -1.67366 -0.858496 0
M  V30 6890 O 663.197 -0.902176 -1.57259 0
M  V30 6891 C 663.245 -3.52523 0.758937 0
M  V30 6892 O 662.349 -4.11983 -0.185308 0
M  V30 6893 H 661.69 -0.628376 0.214568 0
M  V30 6894 H 664.22 -1.64225 1.2203 0
M  V30 6895 H 664.23 -4.02522 0.666329 0
M  V30 6896 H 662.905 -3.75566 1.78671 0
M  V30 6897 H 661.482 -3.72873 -0.0445577 0
M  V30 6898 N 663.667 -0.670007 -1.42649 0
M  V30 6899 C 664.944 -0.119451 -1.95235 0
M  V30 6900 C 665.324 1.36461 -1.61064 0
M  V30 6901 O 664.672 2.09843 -0.904329 0
M  V30 6902 C 664.882 -0.383498 -3.46887 0
M  V30 6903 C 666.23 -0.297431 -4.23557 0
M  V30 6904 O 667.254 -0.31698 -3.54787 0
M  V30 6905 O 666.113 -0.235507 -5.45992 0
M  V30 6906 H 663.207 -8.85474e-05 -0.827 0
M  V30 6907 H 665.753 -0.744406 -1.52501 0
M  V30 6908 H 664.525 -1.41174 -3.64946 0
M  V30 6909 H 664.148 0.273702 -3.96657 0
M  V30 6910 N 665.145 1.52092 -0.413018 0
M  V30 6911 C 666.393 2.01456 0.161178 0
M  V30 6912 C 666.714 1.30034 1.45314 0
M  V30 6913 O 665.984 0.427435 1.9118 0
M  V30 6914 H 664.564 0.744376 0.0625526 0
M  V30 6915 H 667.226 1.86974 -0.550151 0
M  V30 6916 H 666.322 3.1008 0.354517 0
M  V30 6917 N 666.623 0.143563 1.56945 0
M  V30 6918 C 667.871 -0.507402 1.95627 0
M  V30 6919 C 668.192 -1.65626 1.02922 0
M  V30 6920 O 667.462 -1.95693 0.0901136 0
M  V30 6921 H 666.042 -0.190436 0.722318 0
M  V30 6922 H 668.704 0.218257 1.93674 0
M  V30 6923 H 667.8 -0.885816 2.99265 0
M  V30 6924 N 668.101 -1.57061 -0.130224 0
M  V30 6925 C 669.35 -1.83446 -0.838488 0
M  V30 6926 C 669.663 -0.727468 -1.81569 0
M  V30 6927 O 670.869 -0.877394 -2.56932 0
M  V30 6928 C 669.325 -3.25201 -1.54182 0
M  V30 6929 C 668.933 -4.4388 -0.606178 0
M  V30 6930 C 670.677 -3.60844 -2.23588 0
M  V30 6931 C 668.584 -5.76661 -1.31209 0
M  V30 6932 H 667.514 -0.684185 -0.316871 0
M  V30 6933 H 670.165 -1.83273 -0.0912059 0
M  V30 6934 H 668.547 -3.1981 -2.33533 0
M  V30 6935 H 669.721 -4.60545 0.153308 0
M  V30 6936 H 668.036 -4.16395 -0.0196705 0
M  V30 6937 H 670.633 -4.57313 -2.77072 0
M  V30 6938 H 670.976 -2.87724 -3.00867 0
M  V30 6939 H 671.509 -3.67971 -1.51137 0
M  V30 6940 H 668.248 -6.52922 -0.580823 0
M  V30 6941 H 667.768 -5.63902 -2.04387 0
M  V30 6942 H 669.447 -6.20035 -1.8484 0
M  V30 6943 N 669.579 0.400081 -1.52437 0
M  V30 6944 C 670.99 0.97851 -1.59003 0
M  V30 6945 C 671.341 1.91293 -0.436068 0
M  V30 6946 O 670.466 2.1183 0.442365 0
M  V30 6947 C 671.061 1.78145 -2.88184 0
M  V30 6948 C 669.62 2.30976 -2.97199 0
M  V30 6949 C 668.767 1.11212 -2.54022 0
M  V30 6950 H 671.718 0.180002 -1.57676 0
M  V30 6951 H 671.739 2.63968 -2.74046 0
M  V30 6952 H 671.251 1.1011 -3.72152 0
M  V30 6953 H 669.352 3.02355 -2.17744 0
M  V30 6954 H 669.465 2.61221 -4.01622 0
M  V30 6955 H 667.829 1.46882 -2.08081 0
M  V30 6956 H 668.612 0.447307 -3.40373 0
M  V30 6957 N 671.057 1.43213 0.657864 0
M  V30 6958 C 672.468 1.39669 1.23893 0
M  V30 6959 C 672.819 0.0984217 1.95953 0
M  V30 6960 O 671.944 -0.8023 2.00978 0
M  V30 6961 C 672.539 2.53004 2.25332 0
M  V30 6962 C 671.098 2.5274 2.78926 0
M  V30 6963 C 670.245 2.30941 1.53497 0
M  V30 6964 H 673.196 1.52181 0.450172 0
M  V30 6965 H 673.217 2.24226 3.07413 0
M  V30 6966 H 672.729 3.4748 1.72856 0
M  V30 6967 H 670.83 1.6213 3.35477 0
M  V30 6968 H 670.943 3.50352 3.26787 0
M  V30 6969 H 669.307 1.7952 1.80678 0
M  V30 6970 H 670.09 3.27496 1.02963 0
M  V30 6971 N 672.536 -0.895792 1.29666 0
M  V30 6972 C 673.469 -2.00238 1.09453 0
M  V30 6973 C 674.447 -1.62599 0.00527044 0
M  V30 6974 O 675.631 -1.87847 0.156729 0
M  V30 6975 C 672.758 -3.32066 0.667054 0
M  V30 6976 C 671.804 -3.88691 1.7556 0
M  V30 6977 S 672.637 -4.17317 3.35569 0
M  V30 6978 C 673.793 -5.52181 2.94698 0
M  V30 6979 H 674.026 -2.17076 2.03138 0
M  V30 6980 H 671.559 -1.04287 1.13858 0
M  V30 6981 H 673.517 -4.08272 0.427136 0
M  V30 6982 H 672.178 -3.13101 -0.250256 0
M  V30 6983 H 671.371 -4.83918 1.40853 0
M  V30 6984 H 670.973 -3.19187 1.94924 0
M  V30 6985 H 673.265 -6.3281 2.41986 0
M  V30 6986 H 674.208 -5.91817 3.88791 0
M  V30 6987 H 674.616 -5.14225 2.32879 0
M  V30 6988 N 674.014 -1.12206 -1.10668 0
M  V30 6989 C 675.239 -0.898938 -1.86906 0
M  V30 6990 C 675.664 0.546346 -1.79991 0
M  V30 6991 O 675.022 1.38655 -1.1681 0
M  V30 6992 C 675.07 -1.37529 -3.33344 0
M  V30 6993 O 674.174 -0.55218 -4.08687 0
M  V30 6994 H 673.515 -0.323163 -0.580053 0
M  V30 6995 H 676.045 -1.49355 -1.39837 0
M  V30 6996 H 676.055 -1.3733 -3.84193 0
M  V30 6997 H 674.73 -2.42767 -3.37693 0
M  V30 6998 H 673.307 -0.620947 -3.67694 0
M  V30 6999 N 675.492 1.28418 -0.913599 0
M  V30 7000 C 676.717 1.99643 -0.561899 0
M  V30 7001 C 677.142 1.67819 0.849608 0
M  V30 7002 O 676.5 0.910503 1.56779 0
M  V30 7003 C 676.548 3.52116 -0.777622 0
M  V30 7004 O 675.652 4.12076 0.163457 0
M  V30 7005 H 674.993 0.627229 -0.217898 0
M  V30 7006 H 677.523 1.63575 -1.229 0
M  V30 7007 H 677.533 4.02163 -0.687666 0
M  V30 7008 H 676.208 3.74613 -1.8066 0
M  V30 7009 H 674.785 3.72892 0.0247827 0
M  V30 7010 N 676.97 0.677563 1.42291 0
M  V30 7011 C 678.198 0.209459 2.05837 0
M  V30 7012 C 678.613 -1.13444 1.50917 0
M  V30 7013 O 677.97 -1.70529 0.65008 0
M  V30 7014 C 678.021 0.138819 3.61233 0
M  V30 7015 O 677.742 1.42962 4.14118 0
M  V30 7016 C 679.243 -0.352449 4.41897 0
M  V30 7017 H 676.463 0.101209 0.663323 0
M  V30 7018 H 679.007 0.925077 1.8238 0
M  V30 7019 H 677.162 -0.527505 3.83792 0
M  V30 7020 H 677.576 1.3048 5.08011 0
M  V30 7021 H 679.05 -0.350778 5.50884 0
M  V30 7022 H 679.527 -1.3882 4.16684 0
M  V30 7023 H 680.133 0.282236 4.24362 0
M  V30 7024 N 678.448 -1.51871 0.421078 0
M  V30 7025 C 679.396 -2.28903 -0.413066 0
M  V30 7026 C 680.39 -1.3408 -1.03532 0
M  V30 7027 O 681.596 -1.5149 -0.972146 0
M  V30 7028 H 677.971 -0.736478 -0.152003 0
M  V30 7029 H 679.942 -2.97285 0.257695 0
M  V30 7030 C 678.691 -3.13156 -1.51091 0
M  V30 7031 H 678.014 -3.85997 -1.04145 0
M  V30 7032 H 679.454 -3.7014 -2.06814 0
M  V30 7033 C 677.913 -2.27482 -2.48503 0
M  V30 7034 O 678.443 -1.92325 -3.52667 0
M  V30 7035 N 676.649 -1.91019 -2.18998 0
M  V30 7036 H 676.196 -2.19808 -1.34322 0
M  V30 7037 H 676.154 -1.3399 -2.84419 0
M  V30 7038 N 679.926 -0.151884 -1.56866 0
M  V30 7039 C 681.154 0.504813 -2.00647 0
M  V30 7040 C 681.569 1.58098 -1.03201 0
M  V30 7041 O 680.926 1.82476 -0.0297814 0
M  V30 7042 C 680.977 1.10099 -3.44326 0
M  V30 7043 O 680.698 0.0678021 -4.38048 0
M  V30 7044 C 682.199 1.83782 -4.03409 0
M  V30 7045 H 679.419 0.130989 -0.65809 0
M  V30 7046 H 681.963 -0.247903 -2.02992 0
M  V30 7047 H 680.118 1.8043 -3.42817 0
M  V30 7048 H 680.532 0.505237 -5.22061 0
M  V30 7049 H 682.006 2.2078 -5.05925 0
M  V30 7050 H 682.483 2.72557 -3.44397 0
M  V30 7051 H 683.089 1.18138 -4.08563 0
M  V30 7052 N 681.404 1.57128 0.121893 0
M  V30 7053 C 682.334 2.03165 1.15092 0
M  V30 7054 C 683.315 0.915587 1.43356 0
M  V30 7055 O 684.5 1.1851 1.53847 0
M  V30 7056 C 681.63 2.43352 2.47784 0
M  V30 7057 C 680.584 3.58376 2.33989 0
M  V30 7058 C 679.91 3.84454 3.71617 0
M  V30 7059 C 681.21 4.90199 1.80283 0
M  V30 7060 H 682.904 2.89382 0.768023 0
M  V30 7061 H 680.45 1.39218 0.367998 0
M  V30 7062 H 682.403 2.74163 3.20019 0
M  V30 7063 H 681.127 1.54103 2.87958 0
M  V30 7064 H 679.786 3.2777 1.64202 0
M  V30 7065 H 679.434 2.92414 4.09271 0
M  V30 7066 H 679.134 4.61877 3.6324 0
M  V30 7067 H 680.658 4.17714 4.45362 0
M  V30 7068 H 682.072 5.19565 2.42333 0
M  V30 7069 H 680.469 5.71601 1.82735 0
M  V30 7070 H 681.539 4.78904 0.760184 0
M  V30 7071 N 682.882 -0.391992 1.52647 0
M  V30 7072 C 684.11 -1.1586 1.71418 0
M  V30 7073 C 684.525 -1.8381 0.431216 0
M  V30 7074 O 683.882 -1.7256 -0.594085 0
M  V30 7075 C 683.933 -2.20888 2.86165 0
M  V30 7076 O 683.654 -1.5571 4.09495 0
M  V30 7077 C 685.155 -3.103 3.1659 0
M  V30 7078 H 682.375 -0.347494 0.574011 0
M  V30 7079 H 684.919 -0.458972 1.99283 0
M  V30 7080 H 683.074 -2.86492 2.6077 0
M  V30 7081 H 683.488 -2.25474 4.73563 0
M  V30 7082 H 684.962 -3.8003 4.00351 0
M  V30 7083 H 685.439 -3.73639 2.30848 0
M  V30 7084 H 686.045 -2.50345 3.43813 0
M  V30 7085 N 684.36 -1.4356 -0.65026 0
M  V30 7086 C 685.609 -1.44619 -1.406 0
M  V30 7087 C 685.922 -0.0752645 -1.95455 0
M  V30 7088 O 687.128 0.0366832 -2.71475 0
M  V30 7089 C 685.584 -2.54511 -2.54465 0
M  V30 7090 C 685.192 -3.97723 -2.06204 0
M  V30 7091 C 686.936 -2.64768 -3.31811 0
M  V30 7092 C 684.843 -4.99075 -3.17298 0
M  V30 7093 H 683.773 -0.537983 -0.52829 0
M  V30 7094 H 686.424 -1.69559 -0.701561 0
M  V30 7095 H 684.806 -2.22777 -3.27393 0
M  V30 7096 H 685.98 -4.38932 -1.40267 0
M  V30 7097 H 684.295 -3.91538 -1.41729 0
M  V30 7098 H 686.892 -3.37664 -4.14593 0
M  V30 7099 H 687.235 -1.69936 -3.80036 0
M  V30 7100 H 687.768 -2.95817 -2.65964 0
M  V30 7101 H 684.507 -5.95469 -2.74038 0
M  V30 7102 H 684.027 -4.62476 -3.81937 0
M  V30 7103 H 685.706 -5.21913 -3.82382 0
M  V30 7104 N 685.838 0.888903 -1.30139 0
M  V30 7105 C 686.785 1.99422 -1.16188 0
M  V30 7106 C 687.755 1.66017 -0.0523869 0
M  V30 7107 O 688.94 1.89506 -0.221864 0
M  V30 7108 C 686.08 3.34325 -0.855612 0
M  V30 7109 C 685.193 3.80445 -2.0466 0
M  V30 7110 C 684.328 5.03975 -1.67876 0
M  V30 7111 C 683.367 5.42492 -2.83493 0
M  V30 7112 N 682.504 6.57206 -2.47032 0
M  V30 7113 H 687.344 2.10687 -2.10749 0
M  V30 7114 H 684.881 1.03165 -1.04859 0
M  V30 7115 H 686.839 4.11968 -0.658681 0
M  V30 7116 H 685.469 3.22756 0.0531155 0
M  V30 7117 H 684.521 2.98745 -2.3549 0
M  V30 7118 H 685.833 4.04933 -2.91257 0
M  V30 7119 H 684.987 5.89232 -1.44535 0
M  V30 7120 H 683.726 4.8135 -0.784431 0
M  V30 7121 H 682.731 4.55764 -3.07505 0
M  V30 7122 H 683.956 5.67093 -3.73607 0
M  V30 7123 H 681.902 6.36164 -1.601 0
M  V30 7124 H 681.819 6.81543 -3.27161 0
M  V30 7125 H 683.087 7.45704 -2.27038 0
M  V30 7126 N 687.317 1.12792 1.10072 0
M  V30 7127 C 688.563 0.886857 1.82381 0
M  V30 7128 C 688.896 -0.58576 1.85155 0
M  V30 7129 O 688.171 -1.43317 1.31493 0
M  V30 7130 C 688.454 1.46703 3.28862 0
M  V30 7131 C 688.307 3.00829 3.34398 0
M  V30 7132 C 689.626 1.12971 4.25353 0
M  V30 7133 H 686.745 0.32362 0.662148 0
M  V30 7134 H 689.387 1.39513 1.28982 0
M  V30 7135 H 687.537 1.03476 3.74466 0
M  V30 7136 H 689.209 3.52764 2.97247 0
M  V30 7137 H 687.452 3.36164 2.74183 0
M  V30 7138 H 688.123 3.36519 4.3756 0
M  V30 7139 H 690.599 1.50313 3.88001 0
M  V30 7140 H 689.475 1.56223 5.26199 0
M  V30 7141 H 689.736 0.0424452 4.4208 0
M  V30 7142 N 688.795 -1.27931 0.920396 0
M  V30 7143 C 690.035 -1.96459 0.564198 0
M  V30 7144 C 690.399 -1.70802 -0.876967 0
M  V30 7145 O 691.6 -2.32956 -1.34107 0
M  V30 7146 C 689.871 -3.46583 0.872641 0
M  V30 7147 S 691.43 -4.34343 0.623859 0
M  V30 7148 H 688.248 -0.679735 0.208523 0
M  V30 7149 H 690.85 -1.55319 1.18727 0
M  V30 7150 H 689.554 -3.62753 1.91933 0
M  V30 7151 H 689.085 -3.92677 0.238479 0
M  V30 7152 H 691.1 -4.93449 -0.521744 0
M  V30 7153 N 690.273 -0.685099 -1.4193 0
M  V30 7154 C 691.521 -0.21124 -2.00993 0
M  V30 7155 C 691.842 1.18985 -1.54491 0
M  V30 7156 O 691.112 1.8009 -0.771 0
M  V30 7157 H 689.692 -0.0751059 -0.743215 0
M  V30 7158 H 692.354 -0.883915 -1.73704 0
M  V30 7159 H 691.45 -0.220513 -3.1132 0
M  V30 7160 N 691.751 1.51645 -0.429126 0
M  V30 7161 C 692.991 2.03924 0.139354 0
M  V30 7162 C 693.355 1.30673 1.40672 0
M  V30 7163 O 694.556 1.73282 2.05491 0
M  V30 7164 C 692.827 3.5557 0.361179 0
M  V30 7165 S 694.386 4.29591 0.894241 0
M  V30 7166 H 691.204 0.710103 0.0356986 0
M  V30 7167 H 693.806 1.86491 -0.586644 0
M  V30 7168 H 692.51 4.06455 -0.567686 0
M  V30 7169 H 692.041 3.77283 1.11449 0
M  V30 7170 H 694.056 4.46102 2.17272 0
M  V30 7171 N 693.229 0.160201 1.56784 0
M  V30 7172 C 694.506 -0.533355 1.88188 0
M  V30 7173 C 694.886 -1.82072 1.06831 0
M  V30 7174 O 694.234 -2.27946 0.158959 0
M  V30 7175 C 694.444 -0.786034 3.40033 0
M  V30 7176 C 695.792 -1.12097 4.09536 0
M  V30 7177 O 696.816 -0.874949 3.45287 0
M  V30 7178 O 695.675 -1.58457 5.23023 0
M  V30 7179 H 692.769 -0.273589 0.780434 0
M  V30 7180 H 695.315 0.197803 1.68543 0
M  V30 7181 H 694.087 0.124515 3.91102 0
M  V30 7182 H 693.71 -1.57091 3.65251 0
M  V30 7183 N 694.707 -1.5719 -0.113559 0
M  V30 7184 C 695.953 -1.85412 -0.821597 0
M  V30 7185 C 696.286 -0.746722 -1.7927 0
M  V30 7186 O 695.561 0.246971 -1.92926 0
M  V30 7187 C 695.844 -3.24233 -1.56669 0
M  V30 7188 C 695.697 -4.45578 -0.614823 0
M  V30 7189 C 697.016 -3.60697 -2.52161 0
M  V30 7190 H 694.135 -0.674406 -0.29723 0
M  V30 7191 H 696.777 -1.89807 -0.085694 0
M  V30 7192 H 694.927 -3.20617 -2.19401 0
M  V30 7193 H 696.599 -4.613 0.00407137 0
M  V30 7194 H 694.842 -4.33738 0.0732332 0
M  V30 7195 H 695.513 -5.39395 -1.17292 0
M  V30 7196 H 697.989 -3.65139 -1.99532 0
M  V30 7197 H 696.865 -4.58798 -3.01323 0
M  V30 7198 H 697.126 -2.88403 -3.35076 0
M  V30 7199 N 696.185 0.383891 -1.52853 0
M  V30 7200 C 697.133 1.48965 -1.7864 0
M  V30 7201 C 698.127 1.56242 -0.654577 0
M  V30 7202 O 699.333 1.59347 -0.83716 0
M  V30 7203 H 695.708 0.495892 -0.565328 0
M  V30 7204 H 697.679 1.24411 -2.71228 0
M  V30 7205 C 696.428 2.86036 -1.97683 0
M  V30 7206 H 695.751 2.81188 -2.84206 0
M  V30 7207 H 697.191 3.62632 -2.19713 0
M  V30 7208 C 695.65 3.28428 -0.750776 0
M  V30 7209 O 696.18 4.0164 0.0693491 0
M  V30 7210 N 694.386 2.84765 -0.579427 0
M  V30 7211 H 693.933 2.25353 -1.24795 0
M  V30 7212 H 693.891 3.13486 0.239544 0
M  V30 7213 N 697.663 1.43903 0.642637 0
M  V30 7214 C 698.911 1.45791 1.39962 0
M  V30 7215 C 699.232 0.0873144 1.94804 0
M  V30 7216 O 698.502 -0.878825 1.75081 0
M  V30 7217 H 697.082 0.536797 0.519479 0
M  V30 7218 H 699.744 1.7959 0.757189 0
M  V30 7219 H 698.84 2.17665 2.2367 0
M  V30 7220 N 699.141 -0.881989 1.30609 0
M  V30 7221 C 700.104 -1.96957 1.1722 0
M  V30 7222 C 701.104 -1.60472 0.102598 0
M  V30 7223 O 702.294 -1.70628 0.350943 0
M  V30 7224 C 699.426 -3.31463 0.796572 0
M  V30 7225 H 700.619 -2.10262 2.13846 0
M  V30 7226 H 698.172 -1.06877 1.14048 0
M  V30 7227 H 698.907 -3.23859 -0.169053 0
M  V30 7228 H 698.692 -3.59314 1.56959 0
M  V30 7229 H 700.182 -4.11233 0.72645 0
M  V30 7230 N 700.619 -1.13374 -1.09472 0
M  V30 7231 C 701.549 -0.833268 -2.18126 0
M  V30 7232 C 702.53 0.207169 -1.68834 0
M  V30 7233 O 703.715 0.0662012 -1.94087 0
M  V30 7234 C 700.845 -0.297979 -3.46019 0
M  V30 7235 C 699.799 -1.27261 -4.08642 0
M  V30 7236 C 699.125 -0.597104 -5.31356 0
M  V30 7237 C 700.425 -2.63095 -4.51197 0
M  V30 7238 H 702.119 -1.74182 -2.43518 0
M  V30 7239 H 699.665 -0.838921 -1.17039 0
M  V30 7240 H 701.618 -0.0754444 -4.21332 0
M  V30 7241 H 700.342 0.645959 -3.20148 0
M  V30 7242 H 699.001 -1.48113 -3.35348 0
M  V30 7243 H 698.649 0.352293 -5.01765 0
M  V30 7244 H 698.349 -1.24734 -5.74208 0
M  V30 7245 H 699.873 -0.38384 -6.09392 0
M  V30 7246 H 701.287 -2.46214 -5.17737 0
M  V30 7247 H 699.684 -3.2429 -5.04932 0
M  V30 7248 H 700.754 -3.20793 -3.6362 0
M  V30 7249 N 702.098 1.27442 -0.927168 0
M  V30 7250 C 703.028 2.29256 -0.443188 0
M  V30 7251 C 704.009 1.62701 0.49624 0
M  V30 7252 O 705.194 1.90013 0.401105 0
M  V30 7253 C 702.324 3.45955 0.305366 0
M  V30 7254 C 701.278 4.24501 -0.546178 0
M  V30 7255 C 700.604 5.33671 0.331512 0
M  V30 7256 C 701.904 4.89921 -1.81037 0
M  V30 7257 H 703.598 2.69988 -1.29409 0
M  V30 7258 H 701.144 1.29792 -0.623705 0
M  V30 7259 H 703.097 4.1628 0.654885 0
M  V30 7260 H 701.821 3.04138 1.19029 0
M  V30 7261 H 700.48 3.55921 -0.878398 0
M  V30 7262 H 700.128 4.88096 1.21537 0
M  V30 7263 H 699.828 5.87131 -0.234746 0
M  V30 7264 H 701.352 6.0684 0.676614 0
M  V30 7265 H 702.766 5.52536 -1.52895 0
M  V30 7266 H 701.163 5.53436 -2.32009 0
M  V30 7267 H 702.233 4.13652 -2.53021 0
M  V30 7268 N 703.576 0.692616 1.41565 0
M  V30 7269 C 704.801 0.229776 2.06123 0
M  V30 7270 C 705.226 -1.11119 1.5177 0
M  V30 7271 O 704.584 -1.69498 0.643444 0
M  V30 7272 C 704.632 0.19469 3.60074 0
M  V30 7273 O 703.736 -0.831366 4.03933 0
M  V30 7274 H 703.077 0.113002 0.654314 0
M  V30 7275 H 705.607 0.946645 1.81383 0
M  V30 7276 H 705.617 0.0245487 4.07993 0
M  V30 7277 H 704.292 1.17339 3.99004 0
M  V30 7278 H 702.869 -0.630819 3.67526 0
M  V30 7279 N 705.054 -1.51416 0.437162 0
M  V30 7280 C 706.294 -2.03995 -0.128538 0
M  V30 7281 C 706.658 -1.31417 -1.39977 0
M  V30 7282 O 707.859 -1.74369 -2.0457 0
M  V30 7283 C 706.13 -3.55757 -0.342317 0
M  V30 7284 S 707.689 -4.3006 -0.871446 0
M  V30 7285 H 704.507 -0.710283 -0.0319322 0
M  V30 7286 H 707.109 -1.86177 0.596526 0
M  V30 7287 H 705.813 -4.06148 0.589233 0
M  V30 7288 H 705.344 -3.77869 -1.09447 0
M  V30 7289 H 707.359 -4.47248 -2.14903 0
M  V30 7290 N 706.532 -0.168513 -1.56696 0
M  V30 7291 C 707.48 0.779791 -2.19139 0
M  V30 7292 C 708.474 1.23957 -1.1546 0
M  V30 7293 O 709.68 1.20555 -1.33666 0
M  V30 7294 H 706.055 0.269739 -0.701958 0
M  V30 7295 H 708.026 0.229156 -2.97519 0
M  V30 7296 C 706.775 2.00003 -2.84419 0
M  V30 7297 H 706.098 1.65527 -3.63924 0
M  V30 7298 H 707.538 2.64251 -3.31583 0
M  V30 7299 C 705.997 2.82187 -1.84044 0
M  V30 7300 O 706.527 3.79247 -1.32418 0
M  V30 7301 N 704.733 2.47145 -1.52864 0
M  V30 7302 H 704.28 1.68277 -1.9504 0
M  V30 7303 H 704.238 3.02422 -0.859569 0
M  V30 7304 N 708.01 1.57248 0.105221 0
M  V30 7305 C 708.973 2.00388 1.11252 0
M  V30 7306 C 709.973 0.89594 1.33527 0
M  V30 7307 O 711.163 1.16166 1.29811 0
M  V30 7308 C 708.295 2.35589 2.46395 0
M  V30 7309 H 709.488 2.90591 0.741424 0
M  V30 7310 H 707.041 1.52332 0.349956 0
M  V30 7311 H 707.776 1.4831 2.884 0
M  V30 7312 H 707.561 3.16408 2.31578 0
M  V30 7313 H 709.051 2.69658 3.18864 0
M  V30 7314 N 709.488 -0.375779 1.53054 0
M  V30 7315 C 710.398 -1.48381 1.81715 0
M  V30 7316 C 711.414 -1.59087 0.704795 0
M  V30 7317 O 712.59 -1.75174 0.993785 0
M  V30 7318 C 709.655 -2.83767 1.99192 0
M  V30 7319 C 708.716 -2.82673 3.23102 0
M  V30 7320 C 707.949 -4.11601 3.39736 0
M  V30 7321 O 708.172 -5.07243 2.60885 0
M  V30 7322 O 707.106 -4.18034 4.33049 0
M  V30 7323 H 710.932 -1.27089 2.7583 0
M  V30 7324 H 708.517 -0.564902 1.38308 0
M  V30 7325 H 710.399 -3.64004 2.12318 0
M  V30 7326 H 709.074 -3.05057 1.08267 0
M  V30 7327 H 707.981 -2.0117 3.15407 0
M  V30 7328 H 709.314 -2.66335 4.13916 0
M  V30 7329 N 710.966 -1.44241 -0.634997 0
M  V30 7330 C 711.929 -1.50457 -1.72903 0
M  V30 7331 C 712.929 -0.387058 -1.56072 0
M  V30 7332 O 714.119 -0.649531 -1.61638 0
M  V30 7333 C 711.251 -1.37477 -3.1195 0
M  V30 7334 H 712.444 -2.47907 -1.68767 0
M  V30 7335 H 709.997 -1.31276 -0.84831 0
M  V30 7336 H 710.732 -0.41106 -3.21684 0
M  V30 7337 H 710.517 -2.18506 -3.25573 0
M  V30 7338 H 712.007 -1.44799 -3.91692 0
M  V30 7339 N 712.444 0.87505 -1.31075 0
M  V30 7340 C 713.674 1.65818 -1.2324 0
M  V30 7341 C 714.082 1.8808 0.205536 0
M  V30 7342 O 713.425 1.43548 1.14628 0
M  V30 7343 C 713.487 3.05131 -1.90093 0
M  V30 7344 C 713.151 3.05999 -3.39432 0
M  V30 7345 C 714.148 2.84328 -4.35263 0
M  V30 7346 C 711.833 3.27281 -3.81041 0
M  V30 7347 C 713.827 2.83912 -5.70678 0
M  V30 7348 C 711.514 3.26493 -5.16571 0
M  V30 7349 C 712.512 3.04834 -6.112 0
M  V30 7350 O 712.2 3.03882 -7.44252 0
M  V30 7351 H 711.932 0.52387 -0.427242 0
M  V30 7352 H 714.486 1.10086 -1.73408 0
M  V30 7353 H 712.716 3.62568 -1.34468 0
M  V30 7354 H 714.405 3.65641 -1.76242 0
M  V30 7355 H 715.171 2.67673 -4.04445 0
M  V30 7356 H 711.05 3.43171 -3.07822 0
M  V30 7357 H 714.594 2.66925 -6.44513 0
M  V30 7358 H 710.491 3.42687 -5.47025 0
M  V30 7359 H 711.259 3.19979 -7.53363 0
M  V30 7360 N 713.922 1.13953 1.08869 0
M  V30 7361 C 715.171 0.899431 1.80536 0
M  V30 7362 C 715.484 -0.575781 1.86933 0
M  V30 7363 O 716.69 -0.932988 2.54966 0
M  V30 7364 C 715.146 1.55963 3.24351 0
M  V30 7365 C 714.754 3.07077 3.26202 0
M  V30 7366 C 716.498 1.40046 4.00733 0
M  V30 7367 C 714.405 3.65955 4.64576 0
M  V30 7368 H 713.335 0.332849 0.676556 0
M  V30 7369 H 715.986 1.3679 1.22314 0
M  V30 7370 H 714.368 1.01883 3.82669 0
M  V30 7371 H 715.542 3.67785 2.77617 0
M  V30 7372 H 713.857 3.22576 2.63312 0
M  V30 7373 H 716.454 1.81441 5.02974 0
M  V30 7374 H 716.797 0.345993 4.1486 0
M  V30 7375 H 717.33 1.91137 3.48872 0
M  V30 7376 H 714.069 4.71234 4.55652 0
M  V30 7377 H 713.589 3.10027 5.13462 0
M  V30 7378 H 715.268 3.65968 5.33551 0
M  V30 7379 N 715.4 -1.26948 0.933913 0
M  V30 7380 C 716.33 -2.29017 0.45534 0
M  V30 7381 C 717.311 -1.62961 -0.487605 0
M  V30 7382 O 718.496 -1.90223 -0.391022 0
M  V30 7383 C 715.626 -3.46112 -0.287015 0
M  V30 7384 C 714.58 -4.24205 0.568682 0
M  V30 7385 C 713.906 -5.3384 -0.303206 0
M  V30 7386 C 715.206 -4.88954 1.83633 0
M  V30 7387 H 716.9 -2.69298 1.30839 0
M  V30 7388 H 714.446 -1.29459 0.630579 0
M  V30 7389 H 716.399 -4.16622 -0.6328 0
M  V30 7390 H 715.123 -3.04765 -1.17414 0
M  V30 7391 H 713.782 -3.5545 0.897261 0
M  V30 7392 H 713.43 -4.88734 -1.18947 0
M  V30 7393 H 713.13 -5.86998 0.265879 0
M  V30 7394 H 714.654 -6.0719 -0.644423 0
M  V30 7395 H 716.068 -5.51717 1.55823 0
M  V30 7396 H 714.465 -5.52198 2.34941 0
M  V30 7397 H 715.535 -4.12305 2.55211 0
M  V30 7398 N 716.879 -0.700114 -1.41195 0
M  V30 7399 C 717.827 -0.0263301 -2.32585 0
M  V30 7400 C 718.821 0.763683 -1.51209 0
M  V30 7401 O 720.027 0.668793 -1.67114 0
M  V30 7402 H 716.402 0.0102869 -0.75193 0
M  V30 7403 H 718.373 -0.814087 -2.8708 0
M  V30 7404 C 717.122 0.892793 -3.36042 0
M  V30 7405 H 716.445 0.294306 -3.98715 0
M  V30 7406 H 717.885 1.33247 -4.02518 0
M  V30 7407 C 716.344 2.01109 -2.7029 0
M  V30 7408 O 716.874 3.10035 -2.55423 0
M  V30 7409 N 715.08 1.79015 -2.28915 0
M  V30 7410 H 714.627 0.904275 -2.41207 0
M  V30 7411 H 714.585 2.54022 -1.85257 0
M  V30 7412 N 718.357 1.51182 -0.445186 0
M  V30 7413 C 719.32 2.26501 0.350722 0
M  V30 7414 C 720.32 1.3025 0.942952 0
M  V30 7415 O 721.51 1.53897 0.816175 0
M  V30 7416 C 718.642 3.06274 1.49697 0
M  V30 7417 H 719.835 2.98299 -0.309474 0
M  V30 7418 H 717.388 1.55034 -0.198551 0
M  V30 7419 H 718.123 2.38911 2.19299 0
M  V30 7420 H 717.908 3.76979 1.0784 0
M  V30 7421 H 719.398 3.63306 2.05909 0
M  V30 7422 N 719.835 0.176821 1.56605 0
M  V30 7423 C 721.083 -0.465793 1.96659 0
M  V30 7424 C 721.404 -1.63406 1.06412 0
M  V30 7425 O 720.674 -1.95457 0.131603 0
M  V30 7426 H 719.254 -0.175072 0.726195 0
M  V30 7427 H 721.916 0.25929 1.93168 0
M  V30 7428 H 721.012 -0.822138 3.01077 0
M  V30 7429 N 721.313 -1.57302 -0.09688 0
M  V30 7430 C 722.243 -2.0497 -1.11846 0
M  V30 7431 C 723.224 -0.938278 -1.41882 0
M  V30 7432 O 724.409 -1.20943 -1.51942 0
M  V30 7433 C 721.539 -2.47264 -2.43881 0
M  V30 7434 C 720.493 -3.62053 -2.28257 0
M  V30 7435 C 719.819 -3.90318 -3.65453 0
M  V30 7436 C 721.119 -4.93005 -1.72461 0
M  V30 7437 H 722.813 -2.90567 -0.721888 0
M  V30 7438 H 720.359 -1.39786 -0.345803 0
M  V30 7439 H 722.312 -2.7922 -3.15617 0
M  V30 7440 H 721.036 -1.58664 -2.8547 0
M  V30 7441 H 719.695 -3.30341 -1.58967 0
M  V30 7442 H 719.343 -2.98889 -4.04567 0
M  V30 7443 H 719.043 -4.67597 -3.55846 0
M  V30 7444 H 720.567 -4.24747 -4.3866 0
M  V30 7445 H 721.981 -5.23354 -2.34036 0
M  V30 7446 H 720.378 -5.74436 -1.73618 0
M  V30 7447 H 721.448 -4.80053 -0.683898 0
M  V30 7448 N 722.791 0.367657 -1.53252 0
M  V30 7449 C 724.016 1.13566 -1.73544 0
M  V30 7450 C 724.441 1.82329 -0.462344 0
M  V30 7451 O 723.799 1.71655 0.583472 0
M  V30 7452 C 723.847 2.14322 -2.89997 0
M  V30 7453 O 722.951 3.21359 -2.58461 0
M  V30 7454 H 722.292 0.329614 -0.576412 0
M  V30 7455 H 724.822 0.425417 -2.00128 0
M  V30 7456 H 724.832 2.57958 -3.16104 0
M  V30 7457 H 723.507 1.63664 -3.82344 0
M  V30 7458 H 722.084 2.8271 -2.43165 0
M  V30 7459 N 724.269 1.44576 0.627338 0
M  V30 7460 C 725.497 1.51048 1.41394 0
M  V30 7461 C 725.912 0.136568 1.88305 0
M  V30 7462 O 725.269 -0.858251 1.6106 0
M  V30 7463 C 725.32 2.47837 2.63172 0
M  V30 7464 O 725.041 3.79887 2.18215 0
M  V30 7465 C 726.542 2.63811 3.56257 0
M  V30 7466 H 723.762 0.512171 0.4335 0
M  V30 7467 H 726.306 1.89576 0.766878 0
M  V30 7468 H 724.461 2.12433 3.23961 0
M  V30 7469 H 724.875 4.32177 2.97192 0
M  V30 7470 H 726.349 3.35554 4.38301 0
M  V30 7471 H 726.826 1.69169 4.05313 0
M  V30 7472 H 727.432 3.0013 3.01333 0
M  V30 7473 N 725.747 -0.868086 1.31537 0
M  V30 7474 C 726.995 -1.61807 1.21091 0
M  V30 7475 C 727.316 -1.93631 -0.230623 0
M  V30 7476 O 726.586 -1.5846 -1.15183 0
M  V30 7477 H 725.166 -0.599854 0.445178 0
M  V30 7478 H 727.828 -1.03915 1.64887 0
M  V30 7479 H 726.924 -2.56088 1.78396 0
M  V30 7480 N 727.225 -1.14528 -1.08264 0
M  V30 7481 C 728.188 -0.83632 -2.13397 0
M  V30 7482 C 729.188 0.159715 -1.60005 0
M  V30 7483 O 730.378 -0.0688098 -1.74064 0
M  V30 7484 C 727.51 -0.246973 -3.40004 0
M  V30 7485 H 728.703 -1.76808 -2.42237 0
M  V30 7486 H 726.256 -0.951509 -1.24 0
M  V30 7487 H 726.991 0.693436 -3.168 0
M  V30 7488 H 726.776 -0.964412 -3.80055 0
M  V30 7489 H 728.266 -0.0480679 -4.17572 0
M  V30 7490 N 728.703 1.26451 -0.940633 0
M  V30 7491 C 729.633 2.28773 -0.467479 0
M  V30 7492 C 730.614 1.63218 0.478955 0
M  V30 7493 O 731.799 1.90427 0.380929 0
M  V30 7494 C 728.929 3.46259 0.268656 0
M  V30 7495 C 727.883 4.23898 -0.591171 0
M  V30 7496 C 727.209 5.33993 0.274891 0
M  V30 7497 C 728.509 4.87974 -1.86223 0
M  V30 7498 H 730.203 2.68601 -1.32265 0
M  V30 7499 H 727.749 1.29123 -0.637436 0
M  V30 7500 H 729.702 4.16951 0.610696 0
M  V30 7501 H 728.426 3.05383 1.15796 0
M  V30 7502 H 727.085 3.54969 -0.916098 0
M  V30 7503 H 726.733 4.89358 1.16353 0
M  V30 7504 H 726.433 5.86849 -0.297006 0
M  V30 7505 H 727.957 6.07523 0.612213 0
M  V30 7506 H 729.371 5.50883 -1.58747 0
M  V30 7507 H 727.768 5.50945 -2.37866 0
M  V30 7508 H 728.838 4.10945 -2.57394 0
M  V30 7509 N 730.181 0.707592 1.40822 0
M  V30 7510 C 731.43 0.240705 2.00259 0
M  V30 7511 C 731.743 -1.17027 1.56729 0
M  V30 7512 O 732.949 -1.73526 2.08809 0
M  V30 7513 C 731.405 0.379432 3.57894 0
M  V30 7514 C 731.013 1.79654 4.104 0
M  V30 7515 C 732.757 -0.0270684 4.24491 0
M  V30 7516 C 730.664 1.88628 5.60512 0
M  V30 7517 H 729.594 0.0862369 0.749052 0
M  V30 7518 H 732.245 0.877528 1.61157 0
M  V30 7519 H 730.627 -0.325842 3.94657 0
M  V30 7520 H 731.801 2.53155 3.85032 0
M  V30 7521 H 730.116 2.15379 3.56372 0
M  V30 7522 H 732.713 0.0193743 5.34696 0
M  V30 7523 H 733.056 -1.06772 4.02375 0
M  V30 7524 H 733.589 0.628361 3.92806 0
M  V30 7525 H 730.328 2.90787 5.87472 0
M  V30 7526 H 729.848 1.19528 5.8777 0
M  V30 7527 H 731.527 1.6547 6.25483 0
M  V30 7528 N 731.66 -1.50943 0.453197 0
M  V30 7529 C 732.623 -2.26684 -0.338705 0
M  V30 7530 C 733.623 -1.30748 -0.936032 0
M  V30 7531 O 734.813 -1.54327 -0.808002 0
M  V30 7532 C 731.945 -3.07063 -1.48071 0
M  V30 7533 H 733.138 -2.98131 0.325289 0
M  V30 7534 H 730.691 -1.54926 0.206771 0
M  V30 7535 H 731.426 -2.4007 -2.18029 0
M  V30 7536 H 731.211 -3.77545 -1.0584 0
M  V30 7537 H 732.701 -3.64393 -2.0398 0
M  V30 7538 N 733.138 -0.185124 -1.56509 0
M  V30 7539 C 734.387 0.456421 -1.96468 0
M  V30 7540 C 734.7 1.63448 -1.07444 0
M  V30 7541 O 735.906 2.34316 -1.37143 0
M  V30 7542 C 734.362 0.863404 -3.4939 0
M  V30 7543 C 733.97 -0.289815 -4.47062 0
M  V30 7544 C 735.714 1.47259 -3.98139 0
M  V30 7545 C 733.621 0.137571 -5.9124 0
M  V30 7546 H 732.551 0.17429 -0.733579 0
M  V30 7547 H 735.202 -0.275554 -1.81419 0
M  V30 7548 H 733.584 1.65176 -3.59907 0
M  V30 7549 H 734.758 -1.06728 -4.4827 0
M  V30 7550 H 733.073 -0.809851 -4.08449 0
M  V30 7551 H 735.67 1.80463 -5.03326 0
M  V30 7552 H 736.013 2.3755 -3.41871 0
M  V30 7553 H 736.546 0.748405 -3.90696 0
M  V30 7554 H 733.285 -0.730907 -6.51412 0
M  V30 7555 H 732.805 0.8801 -5.93308 0
M  V30 7556 H 734.484 0.576771 -6.44424 0
M  V30 7557 N 734.616 1.57351 0.0885366 0
M  V30 7558 C 735.546 2.05561 1.10757 0
M  V30 7559 C 736.527 0.945789 1.41382 0
M  V30 7560 O 737.712 1.21747 1.51299 0
M  V30 7561 C 734.842 2.48554 2.42566 0
M  V30 7562 C 733.796 3.63259 2.26334 0
M  V30 7563 C 733.122 3.9225 3.63378 0
M  V30 7564 C 734.422 4.93913 1.69844 0
M  V30 7565 H 736.116 2.90946 0.706468 0
M  V30 7566 H 733.662 1.39968 0.338385 0
M  V30 7567 H 735.615 2.8089 3.14132 0
M  V30 7568 H 734.339 1.60176 2.84625 0
M  V30 7569 H 732.998 3.31179 1.57213 0
M  V30 7570 H 732.646 3.0103 4.02976 0
M  V30 7571 H 732.346 4.69478 3.53362 0
M  V30 7572 H 733.87 4.27067 4.36401 0
M  V30 7573 H 735.284 5.24588 2.31258 0
M  V30 7574 H 733.681 5.75349 1.70569 0
M  V30 7575 H 734.751 4.80409 0.65843 0
M  V30 7576 N 736.094 -0.359525 1.53444 0
M  V30 7577 C 737.057 -1.42357 1.7963 0
M  V30 7578 C 738.057 -1.46319 0.666884 0
M  V30 7579 O 739.247 -1.46974 0.935113 0
M  V30 7580 C 736.379 -2.81425 1.92387 0
M  V30 7581 H 737.572 -1.20409 2.74666 0
M  V30 7582 H 735.125 -0.593007 1.44614 0
M  V30 7583 H 735.86 -3.08679 0.994384 0
M  V30 7584 H 735.645 -2.79947 2.74539 0
M  V30 7585 H 737.135 -3.5847 2.14218 0
M  V30 7586 N 737.572 -1.44907 -0.619662 0
M  V30 7587 C 738.812 -1.49822 -1.39042 0
M  V30 7588 C 739.176 -0.131803 -1.91547 0
M  V30 7589 O 740.377 -0.0556413 -2.68742 0
M  V30 7590 C 738.648 -2.53805 -2.5163 0
M  V30 7591 S 740.207 -2.77855 -3.3962 0
M  V30 7592 H 737.025 -0.529774 -0.474195 0
M  V30 7593 H 739.627 -1.81907 -0.716236 0
M  V30 7594 H 738.331 -3.51772 -2.11387 0
M  V30 7595 H 737.862 -2.23331 -3.23863 0
M  V30 7596 H 739.877 -2.10319 -4.49422 0
M  V30 7597 N 739.05 0.861098 -1.31996 0
M  V30 7598 C 740.299 1.60965 -1.21545 0
M  V30 7599 C 740.612 1.94325 0.222972 0
M  V30 7600 O 741.818 2.67757 0.449272 0
M  V30 7601 C 740.274 2.90223 -2.12834 0
M  V30 7602 C 739.882 2.64313 -3.61722 0
M  V30 7603 C 741.626 3.68229 -2.11205 0
M  V30 7604 C 739.533 3.89532 -4.44993 0
M  V30 7605 H 738.463 0.603988 -0.451348 0
M  V30 7606 H 741.114 0.951358 -1.56912 0
M  V30 7607 H 739.496 3.57475 -1.70375 0
M  V30 7608 H 740.67 2.05413 -4.12483 0
M  V30 7609 H 738.985 1.99647 -3.65418 0
M  V30 7610 H 741.582 4.61138 -2.70658 0
M  V30 7611 H 741.925 4.01466 -1.1014 0
M  V30 7612 H 742.458 3.07873 -2.51911 0
M  V30 7613 H 739.197 3.61441 -5.46846 0
M  V30 7614 H 738.717 4.47851 -3.98985 0
M  V30 7615 H 740.396 4.57334 -4.57663 0
M  V30 7616 N 740.528 1.15101 1.07655 0
M  V30 7617 C 741.774 0.925343 1.80458 0
M  V30 7618 C 742.107 -0.546354 1.86356 0
M  V30 7619 O 741.382 -1.40496 1.34503 0
M  V30 7620 C 741.665 1.53646 3.25676 0
M  V30 7621 C 741.518 3.07854 3.27942 0
M  V30 7622 C 742.837 1.21968 4.22861 0
M  V30 7623 H 739.956 0.337592 0.655134 0
M  V30 7624 H 742.598 1.42217 1.25993 0
M  V30 7625 H 740.748 1.11395 3.72187 0
M  V30 7626 H 742.42 3.58989 2.89697 0
M  V30 7627 H 740.663 3.41904 2.66991 0
M  V30 7628 H 741.334 3.45725 4.30324 0
M  V30 7629 H 743.81 1.5851 3.84726 0
M  V30 7630 H 742.686 1.67349 5.22767 0
M  V30 7631 H 742.947 0.136207 4.4189 0
M  V30 7632 N 742.006 -1.2595 0.947325 0
M  V30 7633 C 743.255 -1.92759 0.593887 0
M  V30 7634 C 743.568 -1.75083 -0.872093 0
M  V30 7635 O 744.774 -2.36401 -1.33518 0
M  V30 7636 C 743.23 -3.45395 1.01144 0
M  V30 7637 C 742.838 -3.71795 2.49946 0
M  V30 7638 C 744.582 -4.18173 0.730185 0
M  V30 7639 C 742.489 -5.17901 2.85539 0
M  V30 7640 H 741.419 -0.721676 0.218403 0
M  V30 7641 H 744.07 -1.4293 1.15079 0
M  V30 7642 H 742.452 -3.94143 0.383007 0
M  V30 7643 H 743.626 -3.33728 3.17746 0
M  V30 7644 H 741.941 -3.12263 2.75465 0
M  V30 7645 H 744.538 -5.25784 0.972367 0
M  V30 7646 H 744.881 -4.14964 -0.333223 0
M  V30 7647 H 745.414 -3.75309 1.31862 0
M  V30 7648 H 742.153 -5.26216 3.90867 0
M  V30 7649 H 741.673 -5.57042 2.22406 0
M  V30 7650 H 743.352 -5.8596 2.74336 0
M  V30 7651 N 743.484 -0.715051 -1.40445 0
M  V30 7652 C 744.414 -0.0768699 -2.33373 0
M  V30 7653 C 745.395 0.746109 -1.52863 0
M  V30 7654 O 746.58 0.695142 -1.81332 0
M  V30 7655 C 743.71 0.846014 -3.36838 0
M  V30 7656 C 742.664 0.128694 -4.27806 0
M  V30 7657 C 741.99 1.16726 -5.21804 0
M  V30 7658 C 743.29 -1.01679 -5.12307 0
M  V30 7659 H 744.984 -0.853061 -2.8699 0
M  V30 7660 H 742.53 -0.41167 -1.3799 0
M  V30 7661 H 744.483 1.30185 -4.00786 0
M  V30 7662 H 743.207 1.6541 -2.81615 0
M  V30 7663 H 741.866 -0.307314 -3.6531 0
M  V30 7664 H 741.514 1.96838 -4.62887 0
M  V30 7665 H 741.214 0.692188 -5.83509 0
M  V30 7666 H 742.738 1.62321 -5.88629 0
M  V30 7667 H 744.152 -0.640337 -5.69713 0
M  V30 7668 H 742.549 -1.4202 -5.83053 0
M  V30 7669 H 743.619 -1.84769 -4.48317 0
M  V30 7670 N 744.962 1.50701 -0.461195 0
M  V30 7671 C 745.892 2.31182 0.328184 0
M  V30 7672 C 746.873 1.37644 0.999408 0
M  V30 7673 O 748.058 1.66565 0.99848 0
M  V30 7674 C 745.188 3.17113 1.41621 0
M  V30 7675 C 744.142 4.19124 0.867148 0
M  V30 7676 C 743.468 4.93728 2.05272 0
M  V30 7677 C 744.768 5.22174 -0.114808 0
M  V30 7678 H 746.462 2.97423 -0.343501 0
M  V30 7679 H 744.008 1.43033 -0.166641 0
M  V30 7680 H 745.961 3.72208 1.97584 0
M  V30 7681 H 744.685 2.48739 2.11652 0
M  V30 7682 H 743.344 3.65116 0.329557 0
M  V30 7683 H 742.992 4.21835 2.73978 0
M  V30 7684 H 742.692 5.62724 1.69161 0
M  V30 7685 H 744.216 5.51654 2.61744 0
M  V30 7686 H 745.63 5.72198 0.355316 0
M  V30 7687 H 744.027 5.98833 -0.389689 0
M  V30 7688 H 745.097 4.7353 -1.04391 0
M  V30 7689 N 746.441 0.193421 1.56409 0
M  V30 7690 C 747.687 -0.446449 1.97825 0
M  V30 7691 C 748.02 -1.61386 1.08019 0
M  V30 7692 O 747.295 -1.94053 0.131839 0
M  V30 7693 C 747.578 -0.908199 3.48459 0
M  V30 7694 C 747.431 0.260914 4.49043 0
M  V30 7695 C 748.75 -1.77428 4.0275 0
M  V30 7696 H 745.869 -0.160807 0.719243 0
M  V30 7697 H 748.511 0.284006 1.87865 0
M  V30 7698 H 746.661 -1.53062 3.57077 0
M  V30 7699 H 748.333 0.898548 4.52464 0
M  V30 7700 H 746.576 0.912949 4.24085 0
M  V30 7701 H 747.247 -0.104657 5.51901 0
M  V30 7702 H 749.723 -1.24936 3.96901 0
M  V30 7703 H 748.599 -2.06633 5.08521 0
M  V30 7704 H 748.86 -2.72788 3.47907 0
M  V30 7705 N 747.919 -1.57396 -0.0801906 0
M  V30 7706 C 749.168 -1.8602 -0.779702 0
M  V30 7707 C 749.481 -0.784864 -1.79163 0
M  V30 7708 O 750.687 -0.958691 -2.54011 0
M  V30 7709 C 749.143 -3.29942 -1.43758 0
M  V30 7710 C 748.751 -4.45584 -0.464654 0
M  V30 7711 C 750.495 -3.67775 -2.11995 0
M  V30 7712 C 748.402 -5.80544 -1.12797 0
M  V30 7713 H 747.332 -0.69392 -0.294943 0
M  V30 7714 H 749.983 -1.83471 -0.0328527 0
M  V30 7715 H 748.365 -3.27078 -2.2324 0
M  V30 7716 H 749.539 -4.59824 0.299749 0
M  V30 7717 H 747.854 -4.16247 0.112813 0
M  V30 7718 H 750.451 -4.65896 -2.62383 0
M  V30 7719 H 750.794 -2.9715 -2.91561 0
M  V30 7720 H 751.327 -3.72593 -1.39354 0
M  V30 7721 H 748.066 -6.54439 -0.372807 0
M  V30 7722 H 747.586 -5.70119 -1.86344 0
M  V30 7723 H 749.265 -6.25602 -1.6502 0
M  V30 7724 N 749.397 0.351382 -1.53633 0
M  V30 7725 C 750.643 1.09411 -1.70754 0
M  V30 7726 C 750.976 1.88544 -0.465293 0
M  V30 7727 O 750.251 1.86923 0.537608 0
M  V30 7728 C 750.534 2.04173 -2.96623 0
M  V30 7729 C 750.387 1.28556 -4.31038 0
M  V30 7730 C 751.706 3.04102 -3.18136 0
M  V30 7731 H 748.825 0.396373 -0.621335 0
M  V30 7732 H 751.467 0.373464 -1.86293 0
M  V30 7733 H 749.617 2.65625 -2.83506 0
M  V30 7734 H 751.289 0.697786 -4.55992 0
M  V30 7735 H 749.532 0.587498 -4.29803 0
M  V30 7736 H 750.203 1.97989 -5.15271 0
M  V30 7737 H 752.679 2.5276 -3.30532 0
M  V30 7738 H 751.555 3.67616 -4.07615 0
M  V30 7739 H 751.816 3.75053 -2.34068 0
M  V30 7740 N 750.875 1.45233 0.611969 0
M  V30 7741 C 752.121 1.49242 1.37312 0
M  V30 7742 C 752.454 0.131963 1.93751 0
M  V30 7743 O 751.729 -0.852999 1.74798 0
M  V30 7744 C 752.012 2.56811 2.52428 0
M  V30 7745 C 751.865 4.02284 2.01215 0
M  V30 7746 C 753.184 2.60705 3.54572 0
M  V30 7747 H 750.303 0.54336 0.497925 0
M  V30 7748 H 752.945 1.77019 0.690242 0
M  V30 7749 H 751.095 2.33256 3.10683 0
M  V30 7750 H 752.767 4.37035 1.47643 0
M  V30 7751 H 751.01 4.1315 1.32248 0
M  V30 7752 H 751.681 4.7323 2.84178 0
M  V30 7753 H 754.157 2.81799 3.06151 0
M  V30 7754 H 753.033 3.37841 4.32614 0
M  V30 7755 H 753.294 1.65627 4.09903 0
M  V30 7756 N 752.353 -0.854086 1.3245 0
M  V30 7757 C 753.283 -1.97827 1.24044 0
M  V30 7758 C 754.264 -1.69646 0.124166 0
M  V30 7759 O 755.449 -1.91687 0.31143 0
M  V30 7760 C 752.579 -3.33673 0.963324 0
M  V30 7761 C 751.533 -3.76207 2.04089 0
M  V30 7762 C 750.859 -5.0969 1.61618 0
M  V30 7763 C 752.159 -3.91612 3.45597 0
M  V30 7764 H 753.853 -2.05118 2.18099 0
M  V30 7765 H 751.399 -0.985489 1.04996 0
M  V30 7766 H 753.352 -4.11871 0.891061 0
M  V30 7767 H 752.076 -3.26597 -0.0128649 0
M  V30 7768 H 750.735 -3.0026 2.10332 0
M  V30 7769 H 750.383 -4.99072 0.627418 0
M  V30 7770 H 750.083 -5.3912 2.33717 0
M  V30 7771 H 751.607 -5.90381 1.55829 0
M  V30 7772 H 753.021 -4.60163 3.4194 0
M  V30 7773 H 751.418 -4.3246 4.16051 0
M  V30 7774 H 752.488 -2.9451 3.85217 0
M  V30 7775 N 753.831 -1.1567 -1.07043 0
M  V30 7776 C 755.078 -0.933517 -1.79699 0
M  V30 7777 C 755.406 0.539162 -1.86878 0
M  V30 7778 O 754.661 1.41592 -1.35093 0
M  V30 7779 C 754.96 -1.49677 -3.24548 0
M  V30 7780 C 754.626 -2.99047 -3.37463 0
M  V30 7781 C 753.288 -3.39824 -3.40695 0
M  V30 7782 C 755.64 -3.95027 -3.40004 0
M  V30 7783 C 752.968 -4.75215 -3.44075 0
M  V30 7784 C 755.32 -5.30295 -3.44921 0
M  V30 7785 C 753.984 -5.70562 -3.46432 0
M  V30 7786 H 753.254 -0.341598 -0.657565 0
M  V30 7787 H 755.901 -1.44263 -1.25938 0
M  V30 7788 H 754.206 -0.908915 -3.81111 0
M  V30 7789 H 755.903 -1.29986 -3.79348 0
M  V30 7790 H 752.493 -2.6653 -3.35648 0
M  V30 7791 H 756.677 -3.64596 -3.36725 0
M  V30 7792 H 751.933 -5.05754 -3.43545 0
M  V30 7793 H 756.107 -6.0446 -3.45833 0
M  V30 7794 H 753.734 -6.75456 -3.48803 0
M  V30 7795 N 755.309 1.25446 -0.953992 0
M  V30 7796 C 756.555 1.9343 -0.60933 0
M  V30 7797 C 756.888 1.74542 0.851388 0
M  V30 7798 O 756.163 1.09014 1.61078 0
M  V30 7799 C 756.446 3.46844 -0.968041 0
M  V30 7800 C 756.299 3.74961 -2.48444 0
M  V30 7801 C 757.618 4.37334 -0.492641 0
M  V30 7802 H 754.737 0.702502 -0.222844 0
M  V30 7803 H 757.379 1.48076 -1.19053 0
M  V30 7804 H 755.529 3.85604 -0.473465 0
M  V30 7805 H 757.201 3.45841 -3.05273 0
M  V30 7806 H 755.444 3.20589 -2.92241 0
M  V30 7807 H 756.115 4.82246 -2.68594 0
M  V30 7808 H 758.591 4.05873 -0.916878 0
M  V30 7809 H 757.467 5.43439 -0.772331 0
M  V30 7810 H 757.728 4.37908 0.607403 0
M  V30 7811 N 756.787 0.722489 1.40064 0
M  V30 7812 C 758.015 0.274838 2.05066 0
M  V30 7813 C 758.43 -1.08586 1.54449 0
M  V30 7814 O 757.787 -1.68375 0.704003 0
M  V30 7815 C 757.838 0.253673 3.60609 0
M  V30 7816 O 757.559 1.56064 4.0936 0
M  V30 7817 C 759.06 -0.211684 4.42794 0
M  V30 7818 H 756.28 0.12226 0.659768 0
M  V30 7819 H 758.824 0.982632 1.79345 0
M  V30 7820 H 756.979 -0.405137 3.85276 0
M  V30 7821 H 757.393 1.46576 5.03603 0
M  V30 7822 H 758.867 -0.175341 5.51721 0
M  V30 7823 H 759.344 -1.25493 4.2089 0
M  V30 7824 H 759.95 0.4171 4.2325 0
M  V30 7825 N 758.265 -1.50454 0.469181 0
M  V30 7826 C 759.195 -2.31353 -0.31592 0
M  V30 7827 C 760.176 -1.38172 -0.992094 0
M  V30 7828 O 761.361 -1.67093 -0.989633 0
M  V30 7829 C 758.491 -3.1786 -1.39937 0
M  V30 7830 C 757.445 -4.19578 -0.844909 0
M  V30 7831 C 756.771 -4.9481 -2.0265 0
M  V30 7832 C 758.071 -5.22106 0.142499 0
M  V30 7833 H 759.765 -2.97237 0.359269 0
M  V30 7834 H 757.311 -1.42942 0.174224 0
M  V30 7835 H 759.264 -3.7325 -1.95607 0
M  V30 7836 H 757.988 -2.49858 -2.1033 0
M  V30 7837 H 756.647 -3.65285 -0.310189 0
M  V30 7838 H 756.295 -4.23282 -2.71737 0
M  V30 7839 H 755.995 -5.63613 -1.66174 0
M  V30 7840 H 757.519 -5.53035 -2.58815 0
M  V30 7841 H 758.933 -5.72378 -0.324966 0
M  V30 7842 H 757.33 -5.98618 0.421441 0
M  V30 7843 H 758.4 -4.7297 1.06901 0
M  V30 7844 N 759.743 -0.201713 -1.56304 0
M  V30 7845 C 761.159 0.154025 -1.58855 0
M  V30 7846 C 761.359 1.60516 -1.21807 0
M  V30 7847 O 760.415 2.34193 -0.94393 0
M  V30 7848 C 761.728 -0.154319 -3.00304 0
M  V30 7849 C 763.276 -0.0949578 -3.12856 0
M  V30 7850 C 763.751 -0.376703 -4.56448 0
M  V30 7851 N 765.242 -0.325558 -4.62054 0
M  V30 7852 C 765.977 -0.51732 -5.71062 0
M  V30 7853 N 765.473 -0.769789 -6.8851 0
M  V30 7854 N 767.266 -0.45112 -5.60287 0
M  V30 7855 H 759.417 -1.14858 -1.78666 0
M  V30 7856 H 761.68 -0.458934 -0.829508 0
M  V30 7857 H 761.386 -1.16074 -3.31994 0
M  V30 7858 H 761.26 0.540014 -3.73314 0
M  V30 7859 H 763.647 0.902075 -2.80974 0
M  V30 7860 H 763.728 -0.822468 -2.42217 0
M  V30 7861 H 763.372 -1.37108 -4.89044 0
M  V30 7862 H 763.302 0.371772 -5.25286 0
M  V30 7863 H 765.793 -0.137308 -3.7765 0
M  V30 7864 H 766.106 -0.904744 -7.67486 0
M  V30 7865 H 764.451 -0.806758 -6.90302 0
M  V30 7866 H 767.642 -0.254253 -4.67409 0
M  V30 7867 H 767.815 -0.603982 -6.45179 0
M  V30 7868 N 761.222 1.57436 0.0718424 0
M  V30 7869 C 762.638 1.53792 0.426628 0
M  V30 7870 C 762.838 0.921887 1.79174 0
M  V30 7871 O 761.894 0.524374 2.46995 0
M  V30 7872 C 763.207 2.98443 0.367739 0
M  V30 7873 C 764.755 3.09778 0.447928 0
M  V30 7874 C 765.23 4.5608 0.418946 0
M  V30 7875 N 766.721 4.60716 0.479022 0
M  V30 7876 C 767.456 5.71397 0.47881 0
M  V30 7877 N 766.952 6.91443 0.433417 0
M  V30 7878 N 768.745 5.59639 0.525364 0
M  V30 7879 H 760.896 1.95848 -0.822033 0
M  V30 7880 H 763.159 0.896418 -0.308447 0
M  V30 7881 H 762.865 3.47072 -0.56865 0
M  V30 7882 H 762.739 3.58335 1.17795 0
M  V30 7883 H 765.126 2.61122 1.37474 0
M  V30 7884 H 765.207 2.52796 -0.390857 0
M  V30 7885 H 764.851 5.05393 -0.504016 0
M  V30 7886 H 764.781 5.10925 1.27526 0
M  V30 7887 H 767.272 3.74328 0.518355 0
M  V30 7888 H 767.585 7.71562 0.43718 0
M  V30 7889 H 765.93 6.93847 0.400106 0
M  V30 7890 H 769.121 4.64756 0.558519 0
M  V30 7891 H 769.294 6.45896 0.52173 0
M  V30 7892 N 762.7 -0.34323 1.53817 0
M  V30 7893 C 763.632 -1.44216 1.78141 0
M  V30 7894 C 764.645 -1.48701 0.662721 0
M  V30 7895 O 765.834 -1.51778 0.939458 0
M  V30 7896 C 762.934 -2.82872 1.86646 0
M  V30 7897 C 762.107 -3.01824 3.16577 0
M  V30 7898 C 761.166 -4.20723 3.16036 0
M  V30 7899 O 760.192 -4.14824 3.89756 0
M  V30 7900 N 761.394 -5.29276 2.38427 0
M  V30 7901 H 764.159 -1.23721 2.72971 0
M  V30 7902 H 761.72 -0.53311 1.52871 0
M  V30 7903 H 763.712 -3.60588 1.83735 0
M  V30 7904 H 762.282 -2.96509 0.990014 0
M  V30 7905 H 761.502 -2.11575 3.3261 0
M  V30 7906 H 762.79 -3.11369 4.02402 0
M  V30 7907 H 762.188 -5.36938 1.78085 0
M  V30 7908 H 760.745 -6.05484 2.41313 0
M  V30 7909 N 764.178 -1.45556 -0.604258 0
M  V30 7910 C 765.125 -1.54482 -1.71476 0
M  V30 7911 C 766.095 -0.390479 -1.61445 0
M  V30 7912 O 767.28 -0.604371 -1.80975 0
M  V30 7913 C 764.42 -1.52064 -3.09791 0
M  V30 7914 C 763.533 -2.78073 -3.30604 0
M  V30 7915 C 762.668 -2.67304 -4.59044 0
M  V30 7916 C 761.707 -3.88352 -4.73127 0
M  V30 7917 N 760.844 -3.76098 -5.9287 0
M  V30 7918 H 765.684 -2.49349 -1.63184 0
M  V30 7919 H 763.221 -1.23725 -0.795641 0
M  V30 7920 H 765.179 -1.48649 -3.89819 0
M  V30 7921 H 763.809 -0.607442 -3.17033 0
M  V30 7922 H 762.861 -2.91561 -2.44329 0
M  V30 7923 H 764.173 -3.67847 -3.36883 0
M  V30 7924 H 763.327 -2.61875 -5.47272 0
M  V30 7925 H 762.066 -1.75135 -4.55169 0
M  V30 7926 H 761.071 -3.94137 -3.83322 0
M  V30 7927 H 762.296 -4.81591 -4.78797 0
M  V30 7928 H 760.242 -2.867 -5.90033 0
M  V30 7929 H 760.159 -4.59509 -6.00323 0
M  V30 7930 H 761.427 -3.74607 -6.83586 0
M  V30 7931 N 765.656 0.84705 -1.32902 0
M  V30 7932 C 766.603 1.95624 -1.22473 0
M  V30 7933 C 767.573 1.65767 -0.105178 0
M  V30 7934 O 768.758 1.88704 -0.282042 0
M  V30 7935 C 765.898 3.31434 -0.961542 0
M  V30 7936 C 765.011 3.73741 -2.1666 0
M  V30 7937 C 764.146 4.98379 -1.83825 0
M  V30 7938 C 763.185 5.33199 -3.00609 0
M  V30 7939 N 762.322 6.49014 -2.67816 0
M  V30 7940 H 767.162 2.03875 -2.17345 0
M  V30 7941 H 764.699 0.997764 -1.08088 0
M  V30 7942 H 766.657 4.09663 -0.789411 0
M  V30 7943 H 765.287 3.22762 -0.0495938 0
M  V30 7944 H 764.339 2.91102 -2.44875 0
M  V30 7945 H 765.651 3.95462 -3.03993 0
M  V30 7946 H 764.805 5.84336 -1.63208 0
M  V30 7947 H 763.544 4.78611 -0.937172 0
M  V30 7948 H 762.549 4.4575 -3.21849 0
M  V30 7949 H 763.774 5.5492 -3.9146 0
M  V30 7950 H 761.72 6.30748 -1.80258 0
M  V30 7951 H 761.637 6.7079 -3.48679 0
M  V30 7952 H 762.905 7.38103 -2.50647 0
M  V30 7953 N 767.134 1.16236 1.06428 0
M  V30 7954 C 768.044 0.881976 2.1739 0
M  V30 7955 C 769.06 -0.145259 1.73393 0
M  V30 7956 O 770.236 0.0310558 2.01376 0
M  V30 7957 C 767.301 0.385496 3.4455 0
M  V30 7958 C 766.362 1.47779 4.03063 0
M  V30 7959 C 765.595 1.0049 5.24154 0
M  V30 7960 O 765.818 -0.145889 5.70213 0
M  V30 7961 O 764.752 1.79265 5.74585 0
M  V30 7962 H 768.578 1.80983 2.43883 0
M  V30 7963 H 766.163 0.942226 1.15942 0
M  V30 7964 H 768.045 0.115536 4.21242 0
M  V30 7965 H 766.72 -0.514369 3.19587 0
M  V30 7966 H 765.627 1.80147 3.27869 0
M  V30 7967 H 766.96 2.35291 4.32318 0
M  V30 7968 N 768.612 -1.24939 0.960631 0
M  V30 7969 C 770.023 -1.74701 0.658529 0
M  V30 7970 C 770.374 -1.77967 -0.825959 0
M  V30 7971 O 769.499 -1.40444 -1.64634 0
M  V30 7972 C 770.094 -3.17263 1.18867 0
M  V30 7973 C 768.653 -3.64561 0.936614 0
M  V30 7974 C 767.8 -2.43423 1.32817 0
M  V30 7975 H 770.751 -1.10741 1.13676 0
M  V30 7976 H 770.772 -3.76481 0.551589 0
M  V30 7977 H 770.284 -3.14854 2.26912 0
M  V30 7978 H 768.385 -3.72378 -0.128608 0
M  V30 7979 H 768.498 -4.52392 1.57729 0
M  V30 7980 H 766.862 -2.43513 0.746548 0
M  V30 7981 H 767.645 -2.437 2.41796 0
M  V30 7982 N 770.09 -0.729906 -1.39679 0
M  V30 7983 C 771.02 -0.101618 -2.33279 0
M  V30 7984 C 772.001 0.729854 -1.53646 0
M  V30 7985 O 773.186 0.67587 -1.82059 0
M  V30 7986 C 770.316 0.81024 -3.37716 0
M  V30 7987 C 769.27 0.0833126 -4.27919 0
M  V30 7988 C 768.596 1.11185 -5.23012 0
M  V30 7989 C 769.896 -1.07107 -5.112 0
M  V30 7990 H 771.59 -0.883452 -2.86069 0
M  V30 7991 H 769.136 -0.426283 -1.37546 0
M  V30 7992 H 771.089 1.25927 -4.02145 0
M  V30 7993 H 769.813 1.62413 -2.83354 0
M  V30 7994 H 768.472 -0.346043 -3.64963 0
M  V30 7995 H 768.12 1.91917 -4.64948 0
M  V30 7996 H 767.82 0.63026 -5.8421 0
M  V30 7997 H 769.344 1.56068 -5.90318 0
M  V30 7998 H 770.758 -0.700726 -5.69002 0
M  V30 7999 H 769.155 -1.48196 -5.81514 0
M  V30 8000 H 770.225 -1.89513 -4.46332 0
M  V30 8001 N 771.568 1.50203 -0.477153 0
M  V30 8002 C 772.817 2.01551 0.0774548 0
M  V30 8003 C 773.13 1.36359 1.40234 0
M  V30 8004 O 774.336 1.78898 2.04225 0
M  V30 8005 C 772.792 3.59406 0.188539 0
M  V30 8006 C 772.4 4.3356 -1.12828 0
M  V30 8007 C 774.144 4.18776 0.694782 0
M  V30 8008 C 772.051 5.83213 -0.98066 0
M  V30 8009 H 770.981 0.75329 0.0327212 0
M  V30 8010 H 773.632 1.72959 -0.612969 0
M  V30 8011 H 772.014 3.84611 0.942881 0
M  V30 8012 H 773.188 4.20074 -1.89405 0
M  V30 8013 H 771.503 3.85827 -1.5661 0
M  V30 8014 H 774.1 5.28338 0.822356 0
M  V30 8015 H 774.443 3.80557 1.68766 0
M  V30 8016 H 774.976 3.978 -0.00234519 0
M  V30 8017 H 771.715 6.25914 -1.94709 0
M  V30 8018 H 771.235 5.99256 -0.255375 0
M  V30 8019 H 772.914 6.4373 -0.649717 0
M  V30 8020 N 773.046 0.209999 1.56195 0
M  V30 8021 C 774.292 -0.425442 1.98287 0
M  V30 8022 C 774.625 -1.60232 1.09724 0
M  V30 8023 O 773.9 -1.93902 0.152414 0
M  V30 8024 C 774.183 -0.871189 3.49403 0
M  V30 8025 C 774.036 0.308527 4.48741 0
M  V30 8026 C 775.355 -1.73146 4.04609 0
M  V30 8027 H 772.474 -0.153169 0.720908 0
M  V30 8028 H 775.116 0.303916 1.87554 0
M  V30 8029 H 773.266 -1.49266 3.58681 0
M  V30 8030 H 774.938 0.946487 4.51486 0
M  V30 8031 H 773.181 0.957878 4.23092 0
M  V30 8032 H 773.852 -0.0461143 5.51981 0
M  V30 8033 H 776.328 -1.2072 3.98203 0
M  V30 8034 H 775.204 -2.01228 5.10684 0
M  V30 8035 H 775.465 -2.69083 3.5078 0
M  V30 8036 N 774.524 -1.57472 -0.0634922 0
M  V30 8037 C 775.771 -1.87654 -0.761066 0
M  V30 8038 C 776.099 -0.802847 -1.77157 0
M  V30 8039 O 775.354 0.200244 -1.94673 0
M  V30 8040 C 775.653 -3.24521 -1.49736 0
M  V30 8041 C 775.319 -4.46532 -0.626065 0
M  V30 8042 C 773.981 -4.7965 -0.385978 0
M  V30 8043 C 776.333 -5.21195 -0.0224001 0
M  V30 8044 C 773.661 -5.84837 0.467118 0
M  V30 8045 C 776.013 -6.27286 0.818198 0
M  V30 8046 C 774.677 -6.58899 1.06808 0
M  V30 8047 H 773.947 -0.686675 -0.278494 0
M  V30 8048 H 776.594 -1.91488 -0.0216348 0
M  V30 8049 H 774.899 -3.16516 -2.30921 0
M  V30 8050 H 776.596 -3.45111 -2.04204 0
M  V30 8051 H 773.186 -4.20618 -0.823325 0
M  V30 8052 H 777.37 -4.95917 -0.194985 0
M  V30 8053 H 772.626 -6.07725 0.669375 0
M  V30 8054 H 776.8 -6.84298 1.29265 0
M  V30 8055 H 774.427 -7.40233 1.73088 0
M  V30 8056 N 776.003 0.335068 -1.53997 0
M  V30 8057 C 776.913 1.43511 -1.85585 0
M  V30 8058 C 777.929 1.57162 -0.746726 0
M  V30 8059 O 779.105 1.72477 -1.03988 0
M  V30 8060 C 776.17 2.78386 -2.06646 0
M  V30 8061 C 775.231 2.74007 -3.30483 0
M  V30 8062 C 774.464 4.02449 -3.50529 0
M  V30 8063 O 774.687 5.00147 -2.74242 0
M  V30 8064 O 773.621 4.06405 -4.4398 0
M  V30 8065 H 777.447 1.19731 -2.79102 0
M  V30 8066 H 775.032 0.528033 -1.39758 0
M  V30 8067 H 776.914 3.58247 -2.21894 0
M  V30 8068 H 775.589 3.0208 -1.16317 0
M  V30 8069 H 774.496 1.92736 -3.2063 0
M  V30 8070 H 775.829 2.55267 -4.20832 0
M  V30 8071 N 777.481 1.45874 0.596531 0
M  V30 8072 C 778.391 1.57947 1.73464 0
M  V30 8073 C 779.407 0.463461 1.67714 0
M  V30 8074 O 780.583 0.725685 1.87872 0
M  V30 8075 C 777.648 1.55348 3.09948 0
M  V30 8076 C 776.709 2.78074 3.27068 0
M  V30 8077 C 775.942 2.75589 4.57041 0
M  V30 8078 O 776.165 1.83545 5.40063 0
M  V30 8079 O 775.099 3.66945 4.77111 0
M  V30 8080 H 778.925 2.54169 1.66228 0
M  V30 8081 H 776.51 1.2851 0.76194 0
M  V30 8082 H 778.392 1.56545 3.91244 0
M  V30 8083 H 777.067 0.622811 3.17652 0
M  V30 8084 H 775.974 2.82435 2.45319 0
M  V30 8085 H 777.307 3.70303 3.24248 0
M  V30 8086 N 778.959 -0.83999 1.33349 0
M  V30 8087 C 779.869 -1.98182 1.25543 0
M  V30 8088 C 780.885 -1.73204 0.166208 0
M  V30 8089 O 782.061 -1.97596 0.389589 0
M  V30 8090 C 779.126 -3.32157 0.993614 0
M  V30 8091 C 778.187 -3.70258 2.17273 0
M  V30 8092 C 777.42 -4.9784 1.92331 0
M  V30 8093 O 777.643 -5.63679 0.873074 0
M  V30 8094 O 776.577 -5.33418 2.78835 0
M  V30 8095 H 780.403 -2.07708 2.21565 0
M  V30 8096 H 777.988 -0.972852 1.13384 0
M  V30 8097 H 779.87 -4.12433 0.864711 0
M  V30 8098 H 778.545 -3.23637 0.0636596 0
M  V30 8099 H 777.452 -2.90497 2.35716 0
M  V30 8100 H 778.785 -3.83442 3.08598 0
M  V30 8101 N 780.437 -1.16799 -1.0581 0
M  V30 8102 C 781.714 -0.862616 -1.75551 0
M  V30 8103 C 782.094 0.6385 -2.01212 0
M  V30 8104 O 781.442 1.58784 -1.64317 0
M  V30 8105 C 781.652 -1.6907 -3.05314 0
M  V30 8106 C 783 -1.90675 -3.79379 0
M  V30 8107 O 784.024 -1.65976 -3.15167 0
M  V30 8108 O 782.883 -2.32145 -4.94743 0
M  V30 8109 H 779.977 -0.318789 -0.763088 0
M  V30 8110 H 782.523 -1.27461 -1.12034 0
M  V30 8111 H 781.295 -2.70912 -2.82352 0
M  V30 8112 H 780.918 -1.27606 -3.76567 0
M  V30 8113 N 781.915 1.24427 -0.967243 0
M  V30 8114 C 783.161 1.92772 -0.629812 0
M  V30 8115 C 783.494 1.75436 0.832827 0
M  V30 8116 O 782.769 1.10716 1.59913 0
M  V30 8117 C 783.052 3.45798 -1.00477 0
M  V30 8118 C 782.905 3.72304 -2.52407 0
M  V30 8119 C 784.224 4.36787 -0.538999 0
M  V30 8120 H 781.343 0.700099 -0.230282 0
M  V30 8121 H 783.985 1.46805 -1.20616 0
M  V30 8122 H 782.135 3.8508 -0.514336 0
M  V30 8123 H 783.807 3.42584 -3.08924 0
M  V30 8124 H 782.05 3.17472 -2.95625 0
M  V30 8125 H 782.721 4.7937 -2.73693 0
M  V30 8126 H 785.197 4.04877 -0.959874 0
M  V30 8127 H 784.073 5.4259 -0.829926 0
M  V30 8128 H 784.334 4.38527 0.560923 0
M  V30 8129 N 783.393 0.737304 1.3929 0
M  V30 8130 C 784.809 0.413132 1.5416 0
M  V30 8131 C 785.009 -1.07574 1.70382 0
M  V30 8132 O 784.065 -1.86185 1.70562 0
M  V30 8133 C 785.378 1.19817 2.75798 0
M  V30 8134 C 786.926 1.18662 2.89635 0
M  V30 8135 C 787.401 1.95427 4.14213 0
M  V30 8136 N 788.892 1.92605 4.21257 0
M  V30 8137 C 789.627 2.48808 5.16606 0
M  V30 8138 N 789.123 3.13659 6.1773 0
M  V30 8139 N 790.916 2.38829 5.08839 0
M  V30 8140 H 783.067 1.70243 1.27008 0
M  V30 8141 H 785.33 0.720802 0.61575 0
M  V30 8142 H 785.036 2.25179 2.70161 0
M  V30 8143 H 784.91 0.804144 3.68529 0
M  V30 8144 H 787.297 0.141112 2.94762 0
M  V30 8145 H 787.378 1.62003 1.97961 0
M  V30 8146 H 787.022 2.9998 4.09847 0
M  V30 8147 H 786.952 1.4949 5.04936 0
M  V30 8148 H 789.443 1.45362 3.48824 0
M  V30 8149 H 789.756 3.54006 6.8695 0
M  V30 8150 H 788.101 3.17749 6.1811 0
M  V30 8151 H 791.292 1.87806 4.28773 0
M  V30 8152 H 791.465 2.82929 5.82971 0
M  V30 8153 N 784.871 -1.49948 0.485112 0
M  V30 8154 C 785.781 -2.32587 -0.306697 0
M  V30 8155 C 786.797 -1.43598 -0.982632 0
M  V30 8156 O 787.973 -1.76638 -0.967519 0
M  V30 8157 C 785.038 -3.18638 -1.3664 0
M  V30 8158 C 784.099 -4.23462 -0.705589 0
M  V30 8159 C 783.332 -5.05401 -1.7148 0
M  V30 8160 O 783.555 -4.88618 -2.94293 0
M  V30 8161 O 782.489 -5.88157 -1.27889 0
M  V30 8162 H 786.315 -3.01447 0.369272 0
M  V30 8163 H 783.9 -1.47349 0.246709 0
M  V30 8164 H 785.782 -3.71992 -1.9799 0
M  V30 8165 H 784.457 -2.52491 -2.02559 0
M  V30 8166 H 783.364 -3.74063 -0.0527733 0
M  V30 8167 H 784.697 -4.92119 -0.0891187 0
M  V30 8168 N 786.349 -0.21828 -1.56081 0
M  V30 8169 C 787.297 0.709679 -2.21509 0
M  V30 8170 C 788.291 1.20221 -1.19346 0
M  V30 8171 O 789.497 1.16241 -1.37433 0
M  V30 8172 H 785.872 0.247271 -0.710184 0
M  V30 8173 H 787.843 0.134386 -2.98097 0
M  V30 8174 C 786.592 1.90853 -2.90638 0
M  V30 8175 H 785.915 1.53865 -3.69006 0
M  V30 8176 H 787.355 2.53568 -3.39822 0
M  V30 8177 C 785.814 2.76189 -1.92929 0
M  V30 8178 O 786.344 3.74842 -1.44416 0
M  V30 8179 N 784.55 2.42157 -1.6065 0
M  V30 8180 H 784.097 1.61987 -2.00294 0
M  V30 8181 H 784.055 2.99534 -0.955347 0
M  V30 8182 N 787.827 1.57504 0.0551401 0
M  V30 8183 C 789.076 1.87237 0.750009 0
M  V30 8184 C 789.389 0.813268 1.77891 0
M  V30 8185 O 790.595 0.99898 2.52453 0
M  V30 8186 C 789.051 3.32187 1.38491 0
M  V30 8187 C 788.659 4.46267 0.393707 0
M  V30 8188 C 790.403 3.71101 2.06117 0
M  V30 8189 C 788.31 5.82265 1.03547 0
M  V30 8190 H 787.24 0.698524 0.283866 0
M  V30 8191 H 789.891 1.835 0.00365997 0
M  V30 8192 H 788.273 3.30588 2.18008 0
M  V30 8193 H 789.447 4.59289 -0.372865 0
M  V30 8194 H 787.762 4.16015 -0.17902 0
M  V30 8195 H 790.359 4.70012 2.54937 0
M  V30 8196 H 790.702 3.01751 2.86796 0
M  V30 8197 H 791.235 3.74762 1.33409 0
M  V30 8198 H 787.974 6.54949 0.268644 0
M  V30 8199 H 787.494 5.73012 1.7725 0
M  V30 8200 H 789.173 6.28148 1.55047 0
M  V30 8201 N 789.305 -0.326896 1.54172 0
M  V30 8202 C 790.554 -1.06274 1.71431 0
M  V30 8203 C 790.867 -1.89282 0.493123 0
M  V30 8204 O 792.073 -2.65933 0.54699 0
M  V30 8205 C 790.529 -1.93892 3.03206 0
M  V30 8206 C 790.137 -1.16011 4.32719 0
M  V30 8207 C 791.881 -2.67232 3.29829 0
M  V30 8208 C 789.788 -2.02755 5.55558 0
M  V30 8209 H 788.718 -0.400475 0.638855 0
M  V30 8210 H 791.369 -0.321184 1.80667 0
M  V30 8211 H 789.751 -2.71933 2.87869 0
M  V30 8212 H 790.925 -0.427643 4.58811 0
M  V30 8213 H 789.24 -0.54367 4.12836 0
M  V30 8214 H 791.837 -3.32434 4.18798 0
M  V30 8215 H 792.18 -3.34692 2.47562 0
M  V30 8216 H 792.713 -1.96255 3.46018 0
M  V30 8217 H 789.452 -1.3981 6.40417 0
M  V30 8218 H 788.972 -2.73745 5.33689 0
M  V30 8219 H 790.651 -2.61419 5.91835 0
M  V30 8220 N 790.784 -1.46188 -0.588786 0
M  V30 8221 C 792.012 -1.54743 -1.37339 0
M  V30 8222 C 792.427 -0.186446 -1.87877 0
M  V30 8223 O 791.784 0.815247 -1.63279 0
M  V30 8224 C 791.835 -2.54727 -2.56508 0
M  V30 8225 O 791.556 -3.85539 -2.08066 0
M  V30 8226 C 793.057 -2.73163 -3.49137 0
M  V30 8227 H 790.277 -0.523484 -0.419768 0
M  V30 8228 H 792.821 -1.91543 -0.716345 0
M  V30 8229 H 790.976 -2.20948 -3.18215 0
M  V30 8230 H 791.39 -4.39905 -2.85629 0
M  V30 8231 H 792.864 -3.47057 -4.2925 0
M  V30 8232 H 793.341 -1.79856 -4.00685 0
M  V30 8233 H 793.947 -3.08014 -2.9327 0
M  V30 8234 N 792.262 0.832906 -1.33792 0
M  V30 8235 C 793.492 1.61813 -1.28453 0
M  V30 8236 C 793.9 1.88639 0.145595 0
M  V30 8237 O 793.243 1.47122 1.10004 0
M  V30 8238 C 793.305 2.98929 -1.99704 0
M  V30 8239 C 792.969 2.95045 -3.48995 0
M  V30 8240 C 793.966 2.70337 -4.44088 0
M  V30 8241 C 791.651 3.14993 -3.91261 0
M  V30 8242 C 793.645 2.65612 -5.79421 0
M  V30 8243 C 791.332 3.09893 -5.26697 0
M  V30 8244 C 792.33 2.85235 -6.20588 0
M  V30 8245 O 792.018 2.8005 -7.53543 0
M  V30 8246 H 791.75 0.510013 -0.443693 0
M  V30 8247 H 794.304 1.04514 -1.76822 0
M  V30 8248 H 792.534 3.58106 -1.45935 0
M  V30 8249 H 794.223 3.59849 -1.87786 0
M  V30 8250 H 794.989 2.54671 -4.12756 0
M  V30 8251 H 790.868 3.33204 -3.18584 0
M  V30 8252 H 794.412 2.46285 -6.52679 0
M  V30 8253 H 790.309 3.2511 -5.5765 0
M  V30 8254 H 791.077 2.95849 -7.63162 0
M  V30 8255 N 793.74 1.17359 1.05189 0
M  V30 8256 C 795.017 0.871914 1.75091 0
M  V30 8257 C 795.397 -0.627821 2.01548 0
M  V30 8258 O 794.745 -1.5791 1.65156 0
M  V30 8259 C 794.955 1.70687 3.04413 0
M  V30 8260 C 796.303 1.92684 3.78362 0
M  V30 8261 O 797.327 1.67645 3.14282 0
M  V30 8262 O 796.186 2.34765 4.93505 0
M  V30 8263 H 793.28 0.322831 0.761386 0
M  V30 8264 H 795.826 1.28054 1.11357 0
M  V30 8265 H 794.598 2.72405 2.80911 0
M  V30 8266 H 794.221 1.29602 3.75884 0
M  V30 8267 N 795.218 -1.23913 0.973828 0
M  V30 8268 C 796.495 -1.87539 0.555729 0
M  V30 8269 C 796.875 -1.87641 -0.967162 0
M  V30 8270 O 796.223 -1.35335 -1.84111 0
M  V30 8271 C 796.433 -3.29359 1.15427 0
M  V30 8272 C 797.781 -4.06 1.24294 0
M  V30 8273 O 798.805 -3.38554 1.10723 0
M  V30 8274 O 797.664 -5.26689 1.45813 0
M  V30 8275 H 794.758 -0.805769 0.186188 0
M  V30 8276 H 797.304 -1.31838 1.06849 0
M  V30 8277 H 796.076 -3.23817 2.19678 0
M  V30 8278 H 795.699 -3.92642 0.625925 0
M  V30 8279 N 796.696 -0.74468 -1.38897 0
M  V30 8280 C 797.606 -0.112892 -2.34328 0
M  V30 8281 C 798.622 0.71087 -1.58816 0
M  V30 8282 O 799.798 0.637092 -1.91058 0
M  V30 8283 C 796.863 0.776417 -3.37894 0
M  V30 8284 C 795.924 -0.0606999 -4.29257 0
M  V30 8285 C 795.157 0.786258 -5.27877 0
M  V30 8286 O 795.38 2.02463 -5.33259 0
M  V30 8287 O 794.314 0.209781 -6.01534 0
M  V30 8288 H 798.14 -0.900801 -2.90033 0
M  V30 8289 H 795.725 -0.505462 -1.4059 0
M  V30 8290 H 797.607 1.28496 -4.01331 0
M  V30 8291 H 796.282 1.54297 -2.84559 0
M  V30 8292 H 795.189 -0.614984 -3.69011 0
M  V30 8293 H 796.522 -0.789702 -4.85824 0
M  V30 8294 N 798.174 1.49689 -0.493057 0
M  V30 8295 C 799.422 2.02027 0.0541642 0
M  V30 8296 C 799.743 1.37554 1.38217 0
M  V30 8297 O 799.013 0.528174 1.88646 0
M  V30 8298 H 797.593 0.746646 0.0230069 0
M  V30 8299 H 800.255 1.83795 -0.648489 0
M  V30 8300 H 799.351 3.11523 0.189652 0
M  V30 8301 N 799.652 0.226554 1.55963 0
M  V30 8302 C 800.9 -0.402991 1.98041 0
M  V30 8303 C 801.221 -1.59938 1.11557 0
M  V30 8304 O 800.491 -1.9494 0.193719 0
M  V30 8305 H 799.071 -0.15188 0.731397 0
M  V30 8306 H 801.733 0.320613 1.92245 0
M  V30 8307 H 800.829 -0.725937 3.0354 0
M  V30 8308 N 801.13 -1.57531 -0.0467866 0
M  V30 8309 C 802.378 -1.88078 -0.739656 0
M  V30 8310 C 802.699 -0.821936 -1.76831 0
M  V30 8311 O 801.969 0.146582 -1.95351 0
M  V30 8312 H 800.549 -0.694075 -0.276169 0
M  V30 8313 H 803.211 -1.94893 -0.0169391 0
M  V30 8314 H 802.307 -2.86396 -1.24031 0
M  V30 8315 N 802.608 0.318715 -1.54344 0
M  V30 8316 C 803.518 1.41535 -1.87097 0
M  V30 8317 C 804.534 1.56361 -0.763353 0
M  V30 8318 O 805.71 1.71365 -1.05811 0
M  V30 8319 C 802.775 2.76178 -2.09587 0
M  V30 8320 C 801.836 2.70486 -3.3337 0
M  V30 8321 C 801.069 3.98708 -3.54778 0
M  V30 8322 O 801.292 4.9721 -2.79532 0
M  V30 8323 O 800.226 4.01674 -4.48266 0
M  V30 8324 H 804.052 1.16764 -2.80357 0
M  V30 8325 H 801.637 0.51318 -1.4031 0
M  V30 8326 H 803.519 3.55873 -2.25682 0
M  V30 8327 H 802.194 3.00829 -1.19514 0
M  V30 8328 H 801.101 1.89325 -3.22656 0
M  V30 8329 H 802.434 2.50789 -4.23516 0
M  V30 8330 N 804.086 1.46499 0.581025 0
M  V30 8331 C 804.996 1.59778 1.71779 0
M  V30 8332 C 806.012 0.481223 1.67213 0
M  V30 8333 O 807.188 0.74557 1.87091 0
M  V30 8334 C 804.253 1.58626 3.08283 0
M  V30 8335 C 803.314 2.81527 3.241 0
M  V30 8336 C 802.547 2.80421 4.54092 0
M  V30 8337 O 802.77 1.89262 5.38085 0
M  V30 8338 O 801.704 3.71984 4.73193 0
M  V30 8339 H 805.53 2.55918 1.63523 0
M  V30 8340 H 803.115 1.29311 0.748267 0
M  V30 8341 H 804.997 1.60686 3.89561 0
M  V30 8342 H 803.672 0.656467 3.16973 0
M  V30 8343 H 802.579 2.85021 2.42309 0
M  V30 8344 H 803.912 3.73721 3.20302 0
M  V30 8345 N 805.565 -0.825799 1.34232 0
M  V30 8346 C 806.842 -1.56741 1.17011 0
M  V30 8347 C 807.222 -2.09512 -0.258425 0
M  V30 8348 O 806.57 -1.90664 -1.25935 0
M  V30 8349 C 806.78 -2.69104 2.22225 0
M  V30 8350 C 808.128 -3.37947 2.57055 0
M  V30 8351 O 809.152 -2.79358 2.20992 0
M  V30 8352 O 808.011 -4.43743 3.1899 0
M  V30 8353 H 805.105 -0.69163 0.453405 0
M  V30 8354 H 807.651 -0.867422 1.45856 0
M  V30 8355 H 806.423 -2.27844 3.18124 0
M  V30 8356 H 806.046 -3.46756 1.94541 0
M  V30 8357 N 807.043 -1.17915 -1.04565 0
M  V30 8358 C 808.271 -0.99616 -1.8134 0
M  V30 8359 C 808.686 0.455509 -1.83223 0
M  V30 8360 O 808.043 1.31636 -1.26405 0
M  V30 8361 C 808.094 -1.53758 -3.27171 0
M  V30 8362 O 807.815 -2.93241 -3.25486 0
M  V30 8363 C 809.316 -1.40007 -4.2061 0
M  V30 8364 H 806.536 -0.352055 -0.571225 0
M  V30 8365 H 809.08 -1.56349 -1.31815 0
M  V30 8366 H 807.235 -1.01213 -3.73945 0
M  V30 8367 H 807.649 -3.18392 -4.16805 0
M  V30 8368 H 809.123 -1.82695 -5.2089 0
M  V30 8369 H 809.6 -0.348054 -4.37819 0
M  V30 8370 H 810.206 -1.916 -3.79697 0
M  V30 8371 N 808.521 1.23394 -0.980386 0
M  V30 8372 C 809.431 2.28561 -0.528864 0
M  V30 8373 C 810.447 1.68946 0.416329 0
M  V30 8374 O 811.623 1.99355 0.286251 0
M  V30 8375 C 808.688 3.46323 0.16155 0
M  V30 8376 C 807.749 4.21297 -0.825044 0
M  V30 8377 C 806.982 5.33437 -0.167483 0
M  V30 8378 O 807.205 5.60812 1.04146 0
M  V30 8379 O 806.139 5.95637 -0.866047 0
M  V30 8380 H 809.965 2.69326 -1.40346 0
M  V30 8381 H 807.55 1.29325 -0.748019 0
M  V30 8382 H 809.432 4.17811 0.548841 0
M  V30 8383 H 808.107 3.0751 1.01092 0
M  V30 8384 H 807.014 3.52134 -1.26303 0
M  V30 8385 H 808.347 4.6396 -1.64322 0
M  V30 8386 N 809.999 0.752036 1.385 0
M  V30 8387 C 810.962 0.131587 2.28822 0
M  V30 8388 C 811.962 -0.649149 1.47115 0
M  V30 8389 O 813.152 -0.475645 1.67581 0
M  V30 8390 C 810.284 -0.822101 3.30839 0
M  V30 8391 H 811.477 0.927551 2.85196 0
M  V30 8392 H 809.03 0.518945 1.47434 0
M  V30 8393 H 809.765 -1.6438 2.79553 0
M  V30 8394 H 809.55 -0.264689 3.91206 0
M  V30 8395 H 811.04 -1.25226 3.98382 0
M  V30 8396 N 811.477 -1.49425 0.500989 0
M  V30 8397 C 812.724 -2.02453 -0.0435355 0
M  V30 8398 C 813.052 -1.38067 -1.36995 0
M  V30 8399 O 812.307 -0.505557 -1.89057 0
M  V30 8400 C 812.606 -3.56562 -0.24463 0
M  V30 8401 C 812.272 -4.39585 1.00379 0
M  V30 8402 C 810.934 -4.61992 1.346 0
M  V30 8403 C 813.286 -4.87881 1.83361 0
M  V30 8404 C 810.614 -5.2994 2.51755 0
M  V30 8405 C 812.966 -5.57119 2.99669 0
M  V30 8406 C 811.63 -5.77771 3.3427 0
M  V30 8407 H 810.9 -0.740829 -0.0159308 0
M  V30 8408 H 813.547 -1.79725 0.661143 0
M  V30 8409 H 811.852 -3.77969 -1.03183 0
M  V30 8410 H 813.549 -3.95185 -0.6804 0
M  V30 8411 H 810.139 -4.22385 0.727225 0
M  V30 8412 H 814.323 -4.70398 1.58237 0
M  V30 8413 H 809.579 -5.44133 2.788 0
M  V30 8414 H 813.753 -5.93516 3.64296 0
M  V30 8415 H 811.38 -6.30197 4.25154 0
M  V30 8416 N 812.955 -0.234822 -1.55841 0
M  V30 8417 C 814.232 0.442961 -1.90518 0
M  V30 8418 C 814.612 1.76768 -1.15397 0
M  V30 8419 O 813.96 2.26928 -0.267534 0
M  V30 8420 C 814.17 0.622905 -3.43396 0
M  V30 8421 C 815.518 0.9243 -4.14417 0
M  V30 8422 O 816.542 0.709211 -3.49068 0
M  V30 8423 O 815.401 1.33323 -5.29988 0
M  V30 8424 H 812.495 0.236042 -0.792599 0
M  V30 8425 H 815.041 -0.277992 -1.67408 0
M  V30 8426 H 813.813 -0.310973 -3.90062 0
M  V30 8427 H 813.436 1.39485 -3.7233 0
M  V30 8428 N 814.433 1.57553 0.0384317 0
M  V30 8429 C 815.682 1.88022 0.730108 0
M  V30 8430 C 815.995 0.83209 1.77019 0
M  V30 8431 O 817.201 1.0257 2.51379 0
M  V30 8432 C 815.657 3.33637 1.3496 0
M  V30 8433 C 815.265 4.46659 0.346352 0
M  V30 8434 C 817.009 3.73266 2.02169 0
M  V30 8435 C 814.916 5.8333 0.973652 0
M  V30 8436 H 813.846 0.701496 0.276442 0
M  V30 8437 H 816.497 1.83493 -0.0158028 0
M  V30 8438 H 814.879 3.32882 2.1449 0
M  V30 8439 H 816.053 4.58868 -0.421558 0
M  V30 8440 H 814.368 4.15802 -0.223133 0
M  V30 8441 H 816.965 4.72689 2.49938 0
M  V30 8442 H 817.308 3.04776 2.8358 0
M  V30 8443 H 817.841 3.76156 1.29427 0
M  V30 8444 H 814.58 6.55197 0.199163 0
M  V30 8445 H 814.1 5.7486 1.71162 0
M  V30 8446 H 815.779 6.29757 1.48376 0
M  V30 8447 N 815.911 -0.310526 1.54511 0
M  V30 8448 C 816.874 -1.3657 1.84068 0
M  V30 8449 C 817.874 -1.44123 0.713097 0
M  V30 8450 O 819.064 -1.43924 0.981399 0
M  V30 8451 C 816.196 -2.75162 2.01243 0
M  V30 8452 H 817.389 -1.1161 2.78358 0
M  V30 8453 H 814.942 -0.546699 1.46427 0
M  V30 8454 H 815.677 -3.05359 1.09208 0
M  V30 8455 H 815.462 -2.71071 2.83307 0
M  V30 8456 H 816.952 -3.51473 2.25514 0
M  V30 8457 N 817.389 -1.46805 -0.573248 0
M  V30 8458 C 818.617 -1.56191 -1.3569 0
M  V30 8459 C 819.032 -0.206362 -1.87669 0
M  V30 8460 O 818.389 0.797883 -1.64134 0
M  V30 8461 C 818.44 -2.57433 -2.53792 0
M  V30 8462 O 818.161 -3.87724 -2.03965 0
M  V30 8463 C 819.662 -2.76851 -3.4622 0
M  V30 8464 H 816.882 -0.527907 -0.414192 0
M  V30 8465 H 819.426 -1.92292 -0.695989 0
M  V30 8466 H 817.581 -2.24311 -3.15854 0
M  V30 8467 H 817.995 -4.42909 -2.80948 0
M  V30 8468 H 819.469 -3.5159 -4.25545 0
M  V30 8469 H 819.946 -1.84095 -3.98755 0
M  V30 8470 H 820.552 -3.11107 -2.89987 0
M  V30 8471 N 818.867 0.818669 -1.34668 0
M  V30 8472 C 819.797 1.94468 -1.29245 0
M  V30 8473 C 820.778 1.69257 -0.169101 0
M  V30 8474 O 821.963 1.90794 -0.362143 0
M  V30 8475 C 819.093 3.31001 -1.05145 0
M  V30 8476 C 818.047 3.70663 -2.13992 0
M  V30 8477 C 817.373 5.05226 -1.75074 0
M  V30 8478 C 818.673 3.82312 -3.55858 0
M  V30 8479 H 820.367 1.99263 -2.2346 0
M  V30 8480 H 817.913 0.957304 -1.07572 0
M  V30 8481 H 819.866 4.09364 -0.999949 0
M  V30 8482 H 818.59 3.26517 -0.0737312 0
M  V30 8483 H 817.249 2.94578 -2.18219 0
M  V30 8484 H 816.897 4.97233 -0.759518 0
M  V30 8485 H 816.597 5.32734 -2.47928 0
M  V30 8486 H 818.121 5.86042 -1.71427 0
M  V30 8487 H 819.535 4.50935 -3.5402 0
M  V30 8488 H 817.932 4.21278 -4.2737 0
M  V30 8489 H 819.002 2.84193 -3.9289 0
M  V30 8490 N 820.346 1.18468 1.03938 0
M  V30 8491 C 821.278 0.870615 2.12021 0
M  V30 8492 C 822.291 -0.132318 1.62261 0
M  V30 8493 O 823.48 0.0956901 1.78243 0
M  V30 8494 C 820.58 0.279727 3.37744 0
M  V30 8495 C 819.753 1.32863 4.16733 0
M  V30 8496 C 818.812 0.753204 5.20781 0
M  V30 8497 O 817.838 1.42825 5.5099 0
M  V30 8498 N 819.04 -0.448664 5.78764 0
M  V30 8499 H 821.805 1.80091 2.39556 0
M  V30 8500 H 819.366 1.08524 1.20142 0
M  V30 8501 H 821.358 -0.118829 4.04526 0
M  V30 8502 H 819.928 -0.554621 3.07641 0
M  V30 8503 H 819.148 1.90245 3.45254 0
M  V30 8504 H 820.436 2.03574 4.66299 0
M  V30 8505 H 819.834 -1.01481 5.56523 0
M  V30 8506 H 818.391 -0.789125 6.47005 0
M  V30 8507 N 821.824 -1.22873 0.986916 0
M  V30 8508 C 822.772 -2.26597 0.525043 0
M  V30 8509 C 823.766 -1.64079 -0.421252 0
M  V30 8510 O 824.972 -1.77576 -0.294429 0
M  V30 8511 H 821.347 -0.736606 0.151381 0
M  V30 8512 H 823.318 -2.62909 1.41142 0
M  V30 8513 C 822.067 -3.47374 -0.150542 0
M  V30 8514 H 821.39 -3.95737 0.568541 0
M  V30 8515 H 822.83 -4.21739 -0.437256 0
M  V30 8516 C 821.289 -3.07163 -1.38392 0
M  V30 8517 O 821.819 -3.16028 -2.47971 0
M  V30 8518 N 820.025 -2.62009 -1.25697 0
M  V30 8519 H 819.572 -2.54996 -0.365355 0
M  V30 8520 H 819.53 -2.35472 -2.08327 0
M  V30 8521 N 823.302 -0.75937 -1.38099 0
M  V30 8522 C 824.713 -0.385078 -1.82686 0
M  V30 8523 C 825.064 1.0871 -1.6333 0
M  V30 8524 O 824.189 1.84084 -1.13762 0
M  V30 8525 C 824.784 -0.692161 -3.31654 0
M  V30 8526 C 823.343 -0.371077 -3.74566 0
M  V30 8527 C 822.49 -0.942375 -2.60796 0
M  V30 8528 H 825.441 -0.955048 -1.26746 0
M  V30 8529 H 825.462 0.0276001 -3.8049 0
M  V30 8530 H 824.974 -1.76369 -3.4571 0
M  V30 8531 H 823.075 0.693637 -3.66087 0
M  V30 8532 H 823.188 -0.870672 -4.71122 0
M  V30 8533 H 821.552 -0.367383 -2.52036 0
M  V30 8534 H 822.335 -2.01905 -2.77649 0
M  V30 8535 N 824.78 1.49157 -0.508906 0
M  V30 8536 C 826.057 1.95363 0.0961913 0
M  V30 8537 C 826.437 1.45064 1.53362 0
M  V30 8538 O 825.785 0.667835 2.18523 0
M  V30 8539 C 825.995 3.49 0.000688881 0
M  V30 8540 C 827.343 4.24257 0.170632 0
M  V30 8541 O 828.367 3.5612 0.0754994 0
M  V30 8542 O 827.226 5.45267 0.366957 0
M  V30 8543 H 824.32 0.821984 0.0909489 0
M  V30 8544 H 826.866 1.59769 -0.572007 0
M  V30 8545 H 825.638 3.78269 -1.00143 0
M  V30 8546 H 825.261 3.91233 0.708682 0
M  V30 8547 N 826.258 0.243083 1.55714 0
M  V30 8548 C 827.506 -0.381964 1.98458 0
M  V30 8549 C 827.827 -1.58745 1.13247 0
M  V30 8550 O 827.097 -1.94723 0.214384 0
M  V30 8551 H 825.677 -0.144114 0.732967 0
M  V30 8552 H 828.339 0.340985 1.91894 0
M  V30 8553 H 827.435 -0.693702 3.04293 0
M  V30 8554 N 827.736 -1.57571 -0.0300757 0
M  V30 8555 C 828.985 -1.88407 -0.720126 0
M  V30 8556 C 829.298 -0.841466 -1.76575 0
M  V30 8557 O 830.504 -1.03902 -2.50832 0
M  V30 8558 C 828.96 -3.34348 -1.33188 0
M  V30 8559 C 828.568 -4.46837 -0.32266 0
M  V30 8560 C 830.312 -3.74333 -2.00187 0
M  V30 8561 C 828.219 -5.83838 -0.942703 0
M  V30 8562 H 827.149 -0.702952 -0.272718 0
M  V30 8563 H 829.8 -1.83482 0.0255337 0
M  V30 8564 H 828.182 -3.34014 -2.12721 0
M  V30 8565 H 829.356 -4.58638 0.445887 0
M  V30 8566 H 827.671 -4.15678 0.245181 0
M  V30 8567 H 830.268 -4.74008 -2.47428 0
M  V30 8568 H 830.611 -3.06275 -2.81959 0
M  V30 8569 H 831.144 -3.76837 -1.2743 0
M  V30 8570 H 827.883 -6.55294 -0.164413 0
M  V30 8571 H 827.403 -5.75759 -1.68111 0
M  V30 8572 H 829.082 -6.30535 -1.45034 0
M  V30 8573 N 829.214 0.302327 -1.54673 0
M  V30 8574 C 830.162 1.39286 -1.86285 0
M  V30 8575 C 831.156 1.52553 -0.736478 0
M  V30 8576 O 832.362 1.54686 -0.92045 0
M  V30 8577 H 828.737 0.465228 -0.590819 0
M  V30 8578 H 830.708 1.09859 -2.77441 0
M  V30 8579 C 829.457 2.75155 -2.12567 0
M  V30 8580 H 828.78 2.65728 -2.98712 0
M  V30 8581 H 830.22 3.50476 -2.38627 0
M  V30 8582 C 828.679 3.23987 -0.923813 0
M  V30 8583 O 829.209 4.01443 -0.143649 0
M  V30 8584 N 827.415 2.81293 -0.72956 0
M  V30 8585 H 826.962 2.18421 -1.36565 0
M  V30 8586 H 826.92 3.14315 0.0730351 0
M  V30 8587 N 830.692 1.47107 0.565454 0
M  V30 8588 C 831.94 1.53005 1.32038 0
M  V30 8589 C 832.261 0.190453 1.94068 0
M  V30 8590 O 831.531 -0.784783 1.79494 0
M  V30 8591 H 830.111 0.563578 0.490294 0
M  V30 8592 H 832.773 1.83351 0.660928 0
M  V30 8593 H 831.869 2.29215 2.11818 0
M  V30 8594 N 832.17 -0.811516 1.35101 0
M  V30 8595 C 833.417 -1.56835 1.28098 0
M  V30 8596 C 833.745 -1.93951 -0.14597 0
M  V30 8597 O 833 -1.61173 -1.11004 0
M  V30 8598 C 833.299 -2.87121 2.1283 0
M  V30 8599 C 832.965 -2.69245 3.61688 0
M  V30 8600 C 831.627 -2.64078 4.02264 0
M  V30 8601 C 833.979 -2.52122 4.56162 0
M  V30 8602 C 831.307 -2.39724 5.3549 0
M  V30 8603 C 833.659 -2.29298 5.89581 0
M  V30 8604 C 832.323 -2.2255 6.29307 0
M  V30 8605 H 831.593 -0.5739 0.468742 0
M  V30 8606 H 834.24 -0.93806 1.66951 0
M  V30 8607 H 832.545 -3.54502 1.66841 0
M  V30 8608 H 834.242 -3.44788 2.0475 0
M  V30 8609 H 830.832 -2.74112 3.29485 0
M  V30 8610 H 835.016 -2.5513 4.25702 0
M  V30 8611 H 830.272 -2.32965 5.65276 0
M  V30 8612 H 834.446 -2.15038 6.62368 0
M  V30 8613 H 832.073 -2.0344 7.32473 0
M  V30 8614 N 833.648 -1.19017 -1.03309 0
M  V30 8615 C 834.897 -0.984542 -1.76039 0
M  V30 8616 C 835.21 0.485937 -1.89468 0
M  V30 8617 O 836.416 0.810278 -2.59127 0
M  V30 8618 C 834.872 -1.71261 -3.1654 0
M  V30 8619 C 834.48 -3.22291 -3.11179 0
M  V30 8620 C 836.224 -1.59007 -3.93595 0
M  V30 8621 C 834.131 -3.87704 -4.46587 0
M  V30 8622 H 833.061 -0.364749 -0.659905 0
M  V30 8623 H 835.712 -1.4247 -1.15649 0
M  V30 8624 H 834.094 -1.20025 -3.77373 0
M  V30 8625 H 835.268 -3.80611 -2.59753 0
M  V30 8626 H 833.583 -3.34772 -2.47622 0
M  V30 8627 H 836.18 -2.05232 -4.93745 0
M  V30 8628 H 836.523 -0.543534 -4.12736 0
M  V30 8629 H 837.056 -2.07564 -3.39355 0
M  V30 8630 H 833.795 -4.92437 -4.3265 0
M  V30 8631 H 833.315 -3.34172 -4.98085 0
M  V30 8632 H 834.994 -3.91008 -5.15482 0
M  V30 8633 N 835.127 1.22348 -0.993418 0
M  V30 8634 C 836.538 1.72893 -0.704616 0
M  V30 8635 C 836.889 1.80095 0.778483 0
M  V30 8636 O 836.014 1.4476 1.60853 0
M  V30 8637 C 836.609 3.14 -1.27237 0
M  V30 8638 C 835.168 3.61949 -1.03294 0
M  V30 8639 C 834.315 2.39816 -1.39225 0
M  V30 8640 H 837.266 1.07688 -1.16572 0
M  V30 8641 H 837.287 3.74886 -0.651212 0
M  V30 8642 H 836.799 3.08727 -2.3518 0
M  V30 8643 H 834.9 3.72588 0.0298329 0
M  V30 8644 H 835.013 4.48051 -1.69668 0
M  V30 8645 H 833.377 2.41448 -0.810849 0
M  V30 8646 H 834.16 2.37203 -2.48172 0
M  V30 8647 N 836.605 0.766683 1.37694 0
M  V30 8648 C 838.021 0.445739 1.53249 0
M  V30 8649 C 838.221 -1.03935 1.72626 0
M  V30 8650 O 837.277 -1.82525 1.74473 0
M  V30 8651 C 838.59 1.2564 2.73194 0
M  V30 8652 C 840.138 1.24779 2.87053 0
M  V30 8653 C 840.613 2.04169 4.09974 0
M  V30 8654 N 842.104 2.01497 4.17077 0
M  V30 8655 C 842.839 2.5971 5.11212 0
M  V30 8656 N 842.335 3.26691 6.10938 0
M  V30 8657 N 844.128 2.49568 5.03659 0
M  V30 8658 H 836.279 1.72899 1.23368 0
M  V30 8659 H 838.542 0.733701 0.600322 0
M  V30 8660 H 838.248 2.30859 2.65324 0
M  V30 8661 H 838.122 0.882133 3.6674 0
M  V30 8662 H 840.509 0.203603 2.94397 0
M  V30 8663 H 840.59 1.66166 1.9448 0
M  V30 8664 H 840.234 3.08606 4.03392 0
M  V30 8665 H 840.164 1.60167 5.01651 0
M  V30 8666 H 842.655 1.52728 3.45662 0
M  V30 8667 H 842.968 3.68497 6.79286 0
M  V30 8668 H 841.313 3.30789 6.11231 0
M  V30 8669 H 844.504 1.96859 4.24693 0
M  V30 8670 H 844.677 2.95231 5.76839 0
M  V30 8671 N 838.083 -1.48885 0.516809 0
M  V30 8672 C 839.03 -2.29408 -0.253125 0
M  V30 8673 C 840 -1.36533 -0.945935 0
M  V30 8674 O 841.185 -1.65495 -0.949527 0
M  V30 8675 C 838.325 -3.19592 -1.30211 0
M  V30 8676 C 837.438 -4.27535 -0.61948 0
M  V30 8677 C 836.573 -5.04916 -1.65026 0
M  V30 8678 C 835.612 -6.04677 -0.950368 0
M  V30 8679 N 834.749 -6.75164 -1.92608 0
M  V30 8680 H 839.589 -2.94738 0.439744 0
M  V30 8681 H 837.126 -1.45311 0.2287 0
M  V30 8682 H 839.084 -3.70267 -1.92245 0
M  V30 8683 H 837.714 -2.56213 -1.96353 0
M  V30 8684 H 836.766 -3.80228 0.114505 0
M  V30 8685 H 838.078 -4.98752 -0.0693016 0
M  V30 8686 H 837.232 -5.59539 -2.34523 0
M  V30 8687 H 835.971 -4.33508 -2.23432 0
M  V30 8688 H 834.976 -5.4927 -0.241252 0
M  V30 8689 H 836.201 -6.78077 -0.372599 0
M  V30 8690 H 834.147 -6.06517 -2.49946 0
M  V30 8691 H 834.064 -7.4241 -1.42699 0
M  V30 8692 H 835.332 -7.34384 -2.61345 0
M  V30 8693 N 839.561 -0.251338 -1.55583 0
M  V30 8694 C 840.838 0.422729 -1.90977 0
M  V30 8695 C 841.218 1.75534 -1.17265 0
M  V30 8696 O 840.566 2.26632 -0.291588 0
M  V30 8697 C 840.776 0.586448 -3.44037 0
M  V30 8698 C 842.124 0.880294 -4.15375 0
M  V30 8699 O 843.148 0.672148 -3.49801 0
M  V30 8700 O 842.007 1.27694 -5.31372 0
M  V30 8701 H 839.101 0.227622 -0.795058 0
M  V30 8702 H 841.647 -0.295733 -1.67103 0
M  V30 8703 H 840.419 -0.352327 -3.89711 0
M  V30 8704 H 840.042 1.35528 -3.73789 0
M  V30 8705 N 841.039 1.57585 0.0217189 0
M  V30 8706 C 842.288 1.88786 0.710125 0
M  V30 8707 C 842.601 0.850819 1.76126 0
M  V30 8708 O 843.807 1.0523 2.50277 0
M  V30 8709 C 842.263 3.3505 1.31413 0
M  V30 8710 C 841.871 4.47001 0.298959 0
M  V30 8711 C 843.615 3.7539 1.98199 0
M  V30 8712 C 841.522 5.8433 0.911727 0
M  V30 8713 H 840.452 0.704388 0.268986 0
M  V30 8714 H 843.103 1.83466 -0.0352638 0
M  V30 8715 H 841.485 3.35138 2.10947 0
M  V30 8716 H 842.659 4.58395 -0.470203 0
M  V30 8717 H 840.974 4.15542 -0.267222 0
M  V30 8718 H 843.571 4.75314 2.4491 0
M  V30 8719 H 843.914 3.07766 2.80331 0
M  V30 8720 H 844.447 3.77508 1.2543 0
M  V30 8721 H 841.186 6.55372 0.129659 0
M  V30 8722 H 840.706 5.76643 1.65056 0
M  V30 8723 H 842.385 6.31295 1.41688 0
M  V30 8724 N 842.517 -0.29412 1.54831 0
M  V30 8725 C 843.464 -1.36296 1.86258 0
M  V30 8726 C 844.434 -1.50061 0.712097 0
M  V30 8727 O 845.619 -1.64809 0.961381 0
M  V30 8728 C 842.759 -2.72187 2.12151 0
M  V30 8729 C 841.872 -2.66816 3.39755 0
M  V30 8730 C 841.007 -3.94747 3.55455 0
M  V30 8731 C 840.046 -3.838 4.76827 0
M  V30 8732 N 839.183 -5.03521 4.89296 0
M  V30 8733 H 844.023 -1.08796 2.7743 0
M  V30 8734 H 841.56 -0.526069 1.37371 0
M  V30 8735 H 843.518 -3.51225 2.25159 0
M  V30 8736 H 842.148 -2.97934 1.24237 0
M  V30 8737 H 841.2 -1.79605 3.3533 0
M  V30 8738 H 842.512 -2.5462 4.28917 0
M  V30 8739 H 841.666 -4.82223 3.68166 0
M  V30 8740 H 840.405 -4.09785 2.64438 0
M  V30 8741 H 839.41 -2.94708 4.64141 0
M  V30 8742 H 840.635 -3.70301 5.69258 0
M  V30 8743 H 838.581 -5.1901 4.01204 0
M  V30 8744 H 838.498 -4.93775 5.72471 0
M  V30 8745 H 839.766 -5.92629 5.06371 0
M  V30 8746 N 843.995 -1.47404 -0.557645 0
M  V30 8747 C 845.406 -1.47872 -1.13977 0
M  V30 8748 C 845.757 -0.233176 -1.94809 0
M  V30 8749 O 844.882 0.661945 -2.06027 0
M  V30 8750 C 845.477 -2.67926 -2.07368 0
M  V30 8751 C 844.036 -2.71354 -2.60852 0
M  V30 8752 C 843.183 -2.40967 -1.37223 0
M  V30 8753 H 846.134 -1.54921 -0.344268 0
M  V30 8754 H 846.155 -2.44871 -2.91236 0
M  V30 8755 H 845.667 -3.58562 -1.48509 0
M  V30 8756 H 843.768 -1.84855 -3.23511 0
M  V30 8757 H 843.881 -3.72032 -3.01876 0
M  V30 8758 H 842.245 -1.91541 -1.67882 0
M  V30 8759 H 843.028 -3.33811 -0.801583 0
M  V30 8760 N 845.473 0.80434 -1.35529 0
M  V30 8761 C 846.383 1.94784 -1.30753 0
M  V30 8762 C 847.399 1.72703 -0.212071 0
M  V30 8763 O 848.575 1.96494 -0.441841 0
M  V30 8764 C 845.64 3.29406 -1.08133 0
M  V30 8765 C 844.701 3.64367 -2.27013 0
M  V30 8766 C 843.934 4.92566 -2.05463 0
M  V30 8767 O 844.157 5.61166 -1.02222 0
M  V30 8768 O 843.091 5.25838 -2.92879 0
M  V30 8769 H 846.917 2.01761 -2.26994 0
M  V30 8770 H 844.502 0.942448 -1.15924 0
M  V30 8771 H 846.384 4.09995 -0.973756 0
M  V30 8772 H 845.059 3.23355 -0.149444 0
M  V30 8773 H 843.966 2.84146 -2.43335 0
M  V30 8774 H 845.299 3.75125 -3.18656 0
M  V30 8775 N 846.951 1.19563 1.02676 0
M  V30 8776 C 848.181 1.0234 1.79472 0
M  V30 8777 C 848.589 -0.430891 1.84228 0
M  V30 8778 O 847.932 -1.31106 1.28674 0
M  V30 8779 C 847.994 1.51901 3.25832 0
M  V30 8780 C 847.658 3.00045 3.44706 0
M  V30 8781 C 848.655 3.9779 3.34752 0
M  V30 8782 C 846.34 3.38784 3.70851 0
M  V30 8783 C 848.334 5.32267 3.50672 0
M  V30 8784 C 846.021 4.73419 3.86416 0
M  V30 8785 C 847.019 5.69969 3.7633 0
M  V30 8786 O 846.707 7.02165 3.91432 0
M  V30 8787 H 846.439 0.360936 0.571578 0
M  V30 8788 H 848.993 1.58863 1.30198 0
M  V30 8789 H 847.223 0.897546 3.7614 0
M  V30 8790 H 848.912 1.30853 3.84229 0
M  V30 8791 H 849.678 3.69207 3.14502 0
M  V30 8792 H 845.557 2.64183 3.77794 0
M  V30 8793 H 849.101 6.07612 3.42715 0
M  V30 8794 H 844.998 5.01697 4.06165 0
M  V30 8795 H 845.766 7.09268 4.08511 0
M  V30 8796 N 848.429 -1.21819 0.999893 0
M  V30 8797 C 849.361 -2.23356 0.514256 0
M  V30 8798 C 850.374 -1.5795 -0.394413 0
M  V30 8799 O 851.563 -1.77427 -0.195428 0
M  V30 8800 C 848.663 -3.37797 -0.273207 0
M  V30 8801 C 847.836 -4.32791 0.633293 0
M  V30 8802 C 846.895 -5.26098 -0.103673 0
M  V30 8803 O 845.921 -5.66881 0.513269 0
M  V30 8804 N 847.123 -5.63764 -1.38383 0
M  V30 8805 H 849.888 -2.65653 1.3874 0
M  V30 8806 H 847.449 -1.3619 0.875431 0
M  V30 8807 H 849.441 -3.97209 -0.775053 0
M  V30 8808 H 848.011 -2.94527 -1.0475 0
M  V30 8809 H 847.231 -3.71595 1.31571 0
M  V30 8810 H 848.519 -4.93196 1.25039 0
M  V30 8811 H 847.917 -5.32614 -1.90627 0
M  V30 8812 H 846.474 -6.25562 -1.83073 0
M  V30 8813 N 849.908 -0.773975 -1.37286 0
M  V30 8814 C 851.138 -0.350249 -2.03609 0
M  V30 8815 C 851.546 1.03313 -1.58502 0
M  V30 8816 O 850.889 1.67118 -0.7627 0
M  V30 8817 C 850.951 -0.317215 -3.58098 0
M  V30 8818 C 850.615 -1.64556 -4.26345 0
M  V30 8819 C 851.612 -2.59839 -4.50311 0
M  V30 8820 C 849.297 -1.92061 -4.64131 0
M  V30 8821 C 851.291 -3.80833 -5.11122 0
M  V30 8822 C 848.978 -3.13325 -5.24663 0
M  V30 8823 C 849.976 -4.0753 -5.48095 0
M  V30 8824 O 849.664 -5.26658 -6.0736 0
M  V30 8825 H 849.396 -0.144456 -0.660385 0
M  V30 8826 H 851.95 -1.0496 -1.76557 0
M  V30 8827 H 850.18 0.438528 -3.84205 0
M  V30 8828 H 851.869 0.0797428 -4.05822 0
M  V30 8829 H 852.635 -2.39872 -4.21529 0
M  V30 8830 H 848.514 -1.19562 -4.45226 0
M  V30 8831 H 852.058 -4.54377 -5.29327 0
M  V30 8832 H 847.955 -3.33177 -5.52869 0
M  V30 8833 H 848.723 -5.27513 -6.25837 0
M  V30 8834 N 851.386 1.48609 -0.524698 0
M  V30 8835 C 852.319 2.26374 0.288109 0
M  V30 8836 C 853.297 1.31997 0.949509 0
M  V30 8837 O 854.481 1.61329 0.974946 0
M  V30 8838 C 851.608 3.08065 1.4076 0
M  V30 8839 C 850.654 4.17777 0.858152 0
M  V30 8840 S 851.487 5.3482 -0.269827 0
M  V30 8841 C 852.643 6.2007 0.852266 0
M  V30 8842 H 852.876 2.94965 -0.371865 0
M  V30 8843 H 850.409 1.51248 -0.31039 0
M  V30 8844 H 852.367 3.5571 2.04892 0
M  V30 8845 H 851.028 2.38898 2.03928 0
M  V30 8846 H 850.221 4.74542 1.69783 0
M  V30 8847 H 849.823 3.72846 0.293627 0
M  V30 8848 H 852.115 6.54451 1.75213 0
M  V30 8849 H 853.058 7.07364 0.322717 0
M  V30 8850 H 853.466 5.53068 1.13029 0
M  V30 8851 N 852.864 0.259585 1.55447 0
M  V30 8852 C 854.275 -0.241165 1.85136 0
M  V30 8853 C 854.626 -1.56634 1.18153 0
M  V30 8854 O 853.751 -2.11359 0.464351 0
M  V30 8855 C 854.346 -0.444355 3.35873 0
M  V30 8856 C 852.905 -0.889354 3.65742 0
M  V30 8857 C 852.052 0.0262474 2.77288 0
M  V30 8858 H 855.003 0.481808 1.51209 0
M  V30 8859 H 855.024 -1.28517 3.58139 0
M  V30 8860 H 854.536 0.520289 3.84597 0
M  V30 8861 H 852.637 -1.86602 3.22507 0
M  V30 8862 H 852.75 -0.737432 4.73391 0
M  V30 8863 H 851.114 -0.487361 2.49994 0
M  V30 8864 H 851.897 0.986494 3.28821 0
M  V30 8865 N 854.342 -1.57594 -0.0133615 0
M  V30 8866 C 855.758 -1.5527 -0.369255 0
M  V30 8867 C 855.958 -0.987751 -1.7563 0
M  V30 8868 O 855.014 -0.615683 -2.44879 0
M  V30 8869 C 856.327 -2.99602 -0.25672 0
M  V30 8870 C 857.875 -3.11227 -0.332647 0
M  V30 8871 C 858.35 -4.57321 -0.249387 0
M  V30 8872 N 859.841 -4.62177 -0.3077 0
M  V30 8873 C 860.576 -5.72781 -0.26641 0
M  V30 8874 N 860.072 -6.92575 -0.176494 0
M  V30 8875 N 861.865 -5.61204 -0.317295 0
M  V30 8876 H 854.016 -1.92662 0.894154 0
M  V30 8877 H 856.279 -0.884352 0.341505 0
M  V30 8878 H 855.985 -3.44723 0.697072 0
M  V30 8879 H 855.859 -3.6246 -1.04415 0
M  V30 8880 H 858.246 -2.66045 -1.27688 0
M  V30 8881 H 858.327 -2.51171 0.484412 0
M  V30 8882 H 857.971 -5.03174 0.691242 0
M  V30 8883 H 857.901 -5.15306 -1.08476 0
M  V30 8884 H 860.392 -3.75994 -0.379069 0
M  V30 8885 H 860.705 -7.72653 -0.150518 0
M  V30 8886 H 859.05 -6.94854 -0.142314 0
M  V30 8887 H 862.241 -4.66509 -0.385643 0
M  V30 8888 H 862.414 -6.47388 -0.28165 0
M  V30 8889 N 855.82 0.285905 -1.54985 0
M  V30 8890 C 857.231 0.857869 -1.65824 0
M  V30 8891 C 857.582 1.87531 -0.576763 0
M  V30 8892 O 856.707 2.14528 0.284016 0
M  V30 8893 C 857.302 1.56277 -3.00604 0
M  V30 8894 C 855.861 2.08294 -3.13513 0
M  V30 8895 C 855.008 0.920633 -2.61571 0
M  V30 8896 H 857.959 0.0625463 -1.58577 0
M  V30 8897 H 857.98 2.42912 -2.92872 0
M  V30 8898 H 857.492 0.822017 -3.79295 0
M  V30 8899 H 855.593 2.8537 -2.39572 0
M  V30 8900 H 855.706 2.3071 -4.19892 0
M  V30 8901 H 854.07 1.31043 -2.18403 0
M  V30 8902 H 854.853 0.193594 -3.42754 0
M  V30 8903 N 857.298 1.47698 0.54982 0
M  V30 8904 C 858.546 1.54397 1.30407 0
M  V30 8905 C 858.867 0.211026 1.93855 0
M  V30 8906 O 858.137 -0.765701 1.80316 0
M  V30 8907 H 856.717 0.568747 0.484289 0
M  V30 8908 H 859.379 1.84042 0.641444 0
M  V30 8909 H 858.475 2.31449 2.09375 0
M  V30 8910 N 858.776 -0.797141 1.35954 0
M  V30 8911 C 859.706 -1.92387 1.32323 0
M  V30 8912 C 860.687 -1.68967 0.196007 0
M  V30 8913 O 861.872 -1.90193 0.39245 0
M  V30 8914 C 859.002 -3.29286 1.10398 0
M  V30 8915 C 857.956 -3.67212 2.19862 0
M  V30 8916 C 857.282 -5.02377 1.8309 0
M  V30 8917 C 858.582 -3.76602 3.61896 0
M  V30 8918 H 860.276 -1.95683 2.26602 0
M  V30 8919 H 857.822 -0.94007 1.09081 0
M  V30 8920 H 859.775 -4.07721 1.06495 0
M  V30 8921 H 858.499 -3.26358 0.125668 0
M  V30 8922 H 857.158 -2.91069 2.22878 0
M  V30 8923 H 856.806 -4.95961 0.838527 0
M  V30 8924 H 856.506 -5.28722 2.56372 0
M  V30 8925 H 858.03 -5.8324 1.80729 0
M  V30 8926 H 859.444 -4.45246 3.6115 0
M  V30 8927 H 857.841 -4.14425 4.34018 0
M  V30 8928 H 858.911 -2.77906 3.97361 0
M  V30 8929 N 860.254 -1.20106 -1.0204 0
M  V30 8930 C 861.67 -0.955099 -1.27867 0
M  V30 8931 C 861.87 0.367595 -1.98119 0
M  V30 8932 O 860.926 1.09705 -2.27423 0
M  V30 8933 C 862.239 -2.13507 -2.11744 0
M  V30 8934 C 863.787 -2.17563 -2.25023 0
M  V30 8935 C 864.262 -3.35035 -3.12275 0
M  V30 8936 N 865.753 -3.35024 -3.19864 0
M  V30 8937 C 866.488 -4.22566 -3.8759 0
M  V30 8938 N 865.984 -5.20278 -4.57474 0
M  V30 8939 N 867.777 -4.10418 -3.84075 0
M  V30 8940 H 859.928 -2.05193 -0.54861 0
M  V30 8941 H 862.191 -0.897689 -0.304728 0
M  V30 8942 H 861.897 -3.09275 -1.67456 0
M  V30 8943 H 861.771 -2.11281 -3.12474 0
M  V30 8944 H 864.158 -1.22359 -2.68537 0
M  V30 8945 H 864.239 -2.23838 -1.23815 0
M  V30 8946 H 863.883 -4.30522 -2.69468 0
M  V30 8947 H 863.813 -3.25996 -4.13563 0
M  V30 8948 H 866.304 -2.64299 -2.701 0
M  V30 8949 H 866.617 -5.83408 -5.06809 0
M  V30 8950 H 864.962 -5.24219 -4.56311 0
M  V30 8951 H 868.153 -3.33353 -3.28623 0
M  V30 8952 H 868.326 -4.78854 -4.36581 0
M  V30 8953 N 861.732 1.21287 -1.00634 0
M  V30 8954 C 863.143 1.72136 -0.722914 0
M  V30 8955 C 863.494 1.8091 0.759338 0
M  V30 8956 O 862.619 1.46458 1.59308 0
M  V30 8957 C 863.214 3.12633 -1.30561 0
M  V30 8958 C 861.773 3.60833 -1.07127 0
M  V30 8959 C 860.92 2.38326 -1.4176 0
M  V30 8960 H 863.871 1.06445 -1.17708 0
M  V30 8961 H 863.892 3.74174 -0.690937 0
M  V30 8962 H 863.404 3.06215 -2.38441 0
M  V30 8963 H 861.505 3.72599 -0.00968671 0
M  V30 8964 H 861.618 4.46226 -1.74411 0
M  V30 8965 H 859.982 2.40575 -0.836412 0
M  V30 8966 H 860.765 2.34558 -2.50674 0
M  V30 8967 N 863.21 0.781244 1.36873 0
M  V30 8968 C 864.173 0.180094 2.28491 0
M  V30 8969 C 865.173 -0.617798 1.48458 0
M  V30 8970 O 866.363 -0.439991 1.68552 0
M  V30 8971 C 863.495 -0.751741 3.32508 0
M  V30 8972 H 864.688 0.987837 2.83164 0
M  V30 8973 H 862.241 0.550102 1.463 0
M  V30 8974 H 862.976 -1.58413 2.82977 0
M  V30 8975 H 862.761 -0.181649 3.91679 0
M  V30 8976 H 864.251 -1.16748 4.00949 0
M  V30 8977 N 864.689 -1.48329 0.532571 0
M  V30 8978 C 866.1 -1.86469 0.0927749 0
M  V30 8979 C 866.451 -1.44186 -1.3306 0
M  V30 8980 O 865.576 -0.833741 -1.99694 0
M  V30 8981 C 866.171 -3.38414 0.161588 0
M  V30 8982 C 864.73 -3.75739 -0.223028 0
M  V30 8983 C 863.877 -2.72377 0.520199 0
M  V30 8984 H 866.828 -1.40197 0.743678 0
M  V30 8985 H 866.849 -3.75314 -0.626059 0
M  V30 8986 H 866.361 -3.69159 1.19765 0
M  V30 8987 H 864.462 -3.50608 -1.26113 0
M  V30 8988 H 864.575 -4.78954 0.118385 0
M  V30 8989 H 862.939 -2.54678 -0.0338425 0
M  V30 8990 H 863.722 -3.05965 1.55694 0
M  V30 8991 N 866.167 -0.267825 -1.55308 0
M  V30 8992 C 867.115 0.638848 -2.23655 0
M  V30 8993 C 868.109 1.16363 -1.2311 0
M  V30 8994 O 869.315 1.1181 -1.41062 0
M  V30 8995 H 865.69 0.224551 -0.717691 0
M  V30 8996 H 867.661 0.0394809 -2.98374 0
M  V30 8997 C 866.41 1.8151 -2.96562 0
M  V30 8998 H 865.733 1.42048 -3.73715 0
M  V30 8999 H 867.173 2.42629 -3.47717 0
M  V30 9000 C 865.632 2.69911 -2.01618 0
M  V30 9001 O 866.162 3.70058 -1.56268 0
M  V30 9002 N 864.368 2.36924 -1.68272 0
M  V30 9003 H 863.915 1.55533 -2.05347 0
M  V30 9004 H 863.873 2.96343 -1.05016 0
M  V30 9005 N 867.645 1.57599 0.00500368 0
M  V30 9006 C 868.87 1.95026 0.705663 0
M  V30 9007 C 869.295 0.869643 1.6679 0
M  V30 9008 O 868.653 -0.172659 1.80476 0
M  V30 9009 C 868.701 3.31545 1.4181 0
M  V30 9010 O 867.805 3.25495 2.53232 0
M  V30 9011 H 867.146 0.636808 0.188074 0
M  V30 9012 H 869.676 2.04547 -0.046696 0
M  V30 9013 H 869.686 3.66996 1.78265 0
M  V30 9014 H 868.361 4.09751 0.712543 0
M  V30 9015 H 866.938 3.01714 2.19142 0
M  V30 9016 N 869.123 -0.277682 1.55134 0
M  V30 9017 C 870.369 -1.0114 1.7578 0
M  V30 9018 C 870.702 -1.86109 0.554719 0
M  V30 9019 O 869.977 -1.89275 -0.447813 0
M  V30 9020 C 870.26 -1.89789 3.06027 0
M  V30 9021 C 870.113 -1.07844 4.3668 0
M  V30 9022 C 871.432 -2.88577 3.32282 0
M  V30 9023 H 868.551 -0.366277 0.639539 0
M  V30 9024 H 871.193 -0.284155 1.87863 0
M  V30 9025 H 869.343 -2.51796 2.95856 0
M  V30 9026 H 871.015 -0.479432 4.58802 0
M  V30 9027 H 869.258 -0.381764 4.32117 0
M  V30 9028 H 869.929 -1.73179 5.24131 0
M  V30 9029 H 872.405 -2.36702 3.42215 0
M  V30 9030 H 871.281 -3.47749 4.2469 0
M  V30 9031 H 871.542 -3.63458 2.51696 0
M  V30 9032 N 870.601 -1.47988 -0.541979 0
M  V30 9033 C 871.878 -1.45878 -1.30303 0
M  V30 9034 C 872.258 -0.163931 -2.10463 0
M  V30 9035 O 871.606 0.854479 -2.11922 0
M  V30 9036 C 871.816 -2.71359 -2.19466 0
M  V30 9037 C 873.164 -3.19199 -2.79995 0
M  V30 9038 O 874.188 -2.72193 -2.2976 0
M  V30 9039 O 873.047 -4.00961 -3.71339 0
M  V30 9040 H 870.141 -0.582043 -0.587498 0
M  V30 9041 H 872.687 -1.60207 -0.559623 0
M  V30 9042 H 871.459 -3.57122 -1.59936 0
M  V30 9043 H 871.082 -2.59692 -3.01075 0
M  V30 9044 N 872.079 0.78992 -1.36375 0
M  V30 9045 C 873.325 1.55007 -1.3077 0
M  V30 9046 C 873.658 1.93871 0.112979 0
M  V30 9047 O 872.933 1.6267 1.06625 0
M  V30 9048 C 873.216 2.82748 -2.22993 0
M  V30 9049 C 873.069 2.50253 -3.73756 0
M  V30 9050 C 874.388 3.84569 -2.13998 0
M  V30 9051 H 871.507 0.562362 -0.476359 0
M  V30 9052 H 874.149 0.907582 -1.66922 0
M  V30 9053 H 872.299 3.37573 -1.92292 0
M  V30 9054 H 873.971 2.01482 -4.14973 0
M  V30 9055 H 872.214 1.83203 -3.93216 0
M  V30 9056 H 872.885 3.41487 -4.33694 0
M  V30 9057 H 875.361 3.39188 -2.4102 0
M  V30 9058 H 874.237 4.717 -2.80697 0
M  V30 9059 H 874.498 4.27491 -1.12711 0
M  V30 9060 N 873.557 1.20646 1.01402 0
M  V30 9061 C 874.834 0.927176 1.72229 0
M  V30 9062 C 875.214 -0.563382 2.03443 0
M  V30 9063 O 874.562 -1.52576 1.70096 0
M  V30 9064 C 874.772 1.80285 2.98828 0
M  V30 9065 C 876.12 2.04624 3.72041 0
M  V30 9066 O 877.144 1.77559 3.0879 0
M  V30 9067 O 876.003 2.50347 4.85787 0
M  V30 9068 H 873.097 0.346891 0.75073 0
M  V30 9069 H 875.643 1.31532 1.07227 0
M  V30 9070 H 874.415 2.81204 2.72102 0
M  V30 9071 H 874.038 1.41495 3.71571 0
M  V30 9072 N 875.035 -1.20752 1.01276 0
M  V30 9073 C 876.312 -1.85676 0.615112 0
M  V30 9074 C 876.692 -1.90623 -0.906976 0
M  V30 9075 O 876.04 -1.41124 -1.79712 0
M  V30 9076 C 876.25 -3.2552 1.25847 0
M  V30 9077 C 877.598 -4.0184 1.37148 0
M  V30 9078 O 878.622 -3.3486 1.21438 0
M  V30 9079 O 877.481 -5.21783 1.62495 0
M  V30 9080 H 874.575 -0.799437 0.211729 0
M  V30 9081 H 877.121 -1.28372 1.10989 0
M  V30 9082 H 875.893 -3.16664 2.29869 0
M  V30 9083 H 875.516 -3.90452 0.750524 0
M  V30 9084 N 876.513 -0.788492 -1.36457 0
M  V30 9085 C 877.76 -0.360461 -1.99266 0
M  V30 9086 C 878.088 1.0676 -1.62581 0
M  V30 9087 O 877.343 1.75205 -0.871884 0
M  V30 9088 C 877.642 -0.470255 -3.54293 0
M  V30 9089 C 877.308 -1.85899 -4.10795 0
M  V30 9090 C 875.97 -2.23896 -4.25939 0
M  V30 9091 C 878.322 -2.76836 -4.41601 0
M  V30 9092 C 875.65 -3.52235 -4.69199 0
M  V30 9093 C 878.002 -4.04602 -4.86292 0
M  V30 9094 C 876.666 -4.42623 -4.99641 0
M  V30 9095 H 875.936 -0.131902 -0.729166 0
M  V30 9096 H 878.583 -1.00577 -1.62962 0
M  V30 9097 H 876.888 0.258559 -3.90946 0
M  V30 9098 H 878.585 -0.120119 -4.0082 0
M  V30 9099 H 875.175 -1.55372 -3.99447 0
M  V30 9100 H 879.359 -2.48735 -4.2947 0
M  V30 9101 H 874.615 -3.81565 -4.77722 0
M  V30 9102 H 878.789 -4.75182 -5.09092 0
M  V30 9103 H 876.416 -5.42125 -5.32921 0
M  V30 9104 N 877.991 1.48044 -0.54043 0
M  V30 9105 C 879.24 2.01698 -0.00809961 0
M  V30 9106 C 879.553 1.42184 1.34325 0
M  V30 9107 O 880.759 1.87398 1.96454 0
M  V30 9108 C 879.215 3.59882 0.035933 0
M  V30 9109 C 878.823 4.28384 -1.31115 0
M  V30 9110 C 880.567 4.21346 0.51654 0
M  V30 9111 C 878.474 5.78529 -1.22714 0
M  V30 9112 H 877.404 0.754 0.000742174 0
M  V30 9113 H 880.055 1.70204 -0.685775 0
M  V30 9114 H 878.437 3.88264 0.778906 0
M  V30 9115 H 879.611 4.11663 -2.07051 0
M  V30 9116 H 877.926 3.78837 -1.72834 0
M  V30 9117 H 880.523 5.31351 0.597529 0
M  V30 9118 H 880.866 3.87373 1.52473 0
M  V30 9119 H 881.399 3.97432 -0.171064 0
M  V30 9120 H 878.138 6.17093 -2.21081 0
M  V30 9121 H 877.658 5.97634 -0.50931 0
M  V30 9122 H 879.337 6.40395 -0.92216 0
M  V30 9123 N 879.47 0.276058 1.55163 0
M  V30 9124 C 880.418 -0.626978 2.2399 0
M  V30 9125 C 881.412 -1.15708 1.23725 0
M  V30 9126 O 882.618 -1.1106 1.41653 0
M  V30 9127 H 878.993 -0.220742 0.718872 0
M  V30 9128 H 880.964 -0.0236569 2.98391 0
M  V30 9129 C 879.713 -1.79935 2.97521 0
M  V30 9130 H 879.036 -1.40064 3.74463 0
M  V30 9131 H 880.476 -2.40781 3.48999 0
M  V30 9132 C 878.935 -2.68838 2.03046 0
M  V30 9133 O 879.465 -3.69224 1.58229 0
M  V30 9134 N 877.671 -2.36028 1.69527 0
M  V30 9135 H 877.218 -1.54442 2.06169 0
M  V30 9136 H 877.176 -2.95782 1.06586 0
M  V30 9137 N 880.948 -1.576 0.00335426 0
M  V30 9138 C 882.176 -1.94996 -0.691685 0
M  V30 9139 C 882.591 -0.878405 -1.67121 0
M  V30 9140 O 881.948 0.142343 -1.81944 0
M  V30 9141 C 881.999 -3.32416 -1.42063 0
M  V30 9142 O 881.72 -4.35458 -0.48038 0
M  V30 9143 C 883.221 -3.84291 -2.20987 0
M  V30 9144 H 880.441 -0.642814 -0.192434 0
M  V30 9145 H 882.985 -2.04425 0.0554706 0
M  V30 9146 H 881.14 -3.24285 -2.11939 0
M  V30 9147 H 881.554 -5.14975 -0.995054 0
M  V30 9148 H 883.028 -4.82863 -2.67483 0
M  V30 9149 H 883.505 -3.17174 -3.03805 0
M  V30 9150 H 884.111 -3.95609 -1.56121 0
M  V30 9151 N 882.426 0.269451 -1.5528 0
M  V30 9152 C 883.842 0.616827 -1.47199 0
M  V30 9153 C 884.042 1.89354 -0.68901 0
M  V30 9154 O 883.098 2.51631 -0.209287 0
M  V30 9155 C 884.411 0.740492 -2.9144 0
M  V30 9156 C 885.959 0.834312 -3.01676 0
M  V30 9157 C 886.434 0.989725 -4.47178 0
M  V30 9158 N 887.925 1.05516 -4.51022 0
M  V30 9159 C 888.66 1.19427 -5.60825 0
M  V30 9160 N 888.156 1.30035 -6.80487 0
M  V30 9161 N 889.949 1.22566 -5.48575 0
M  V30 9162 H 882.1 -0.568962 -2.04638 0
M  V30 9163 H 884.363 -0.193153 -0.928114 0
M  V30 9164 H 884.069 -0.127234 -3.5147 0
M  V30 9165 H 883.943 1.61965 -3.40657 0
M  V30 9166 H 886.33 1.6925 -2.4174 0
M  V30 9167 H 886.411 -0.0695298 -2.55705 0
M  V30 9168 H 886.055 0.136179 -5.07717 0
M  V30 9169 H 885.985 1.90827 -4.90808 0
M  V30 9170 H 888.476 0.985434 -3.64825 0
M  V30 9171 H 888.789 1.40494 -7.59922 0
M  V30 9172 H 887.134 1.27033 -6.83292 0
M  V30 9173 H 890.325 1.13911 -4.54029 0
M  V30 9174 H 890.498 1.33063 -6.34191 0
M  V30 9175 N 883.904 1.48273 0.534124 0
M  V30 9176 C 885.153 1.55334 1.28663 0
M  V30 9177 C 885.466 0.230345 1.94239 0
M  V30 9178 O 886.672 0.179161 2.70908 0
M  V30 9179 C 885.128 2.73927 2.33435 0
M  V30 9180 C 884.736 4.12852 1.73947 0
M  V30 9181 C 886.48 2.90298 3.09722 0
M  V30 9182 C 884.387 5.22711 2.76636 0
M  V30 9183 H 883.317 0.578262 0.483869 0
M  V30 9184 H 885.968 1.74598 0.564602 0
M  V30 9185 H 884.35 2.48089 3.08655 0
M  V30 9186 H 885.524 4.48691 1.04944 0
M  V30 9187 H 883.839 4.01562 1.10167 0
M  V30 9188 H 886.436 3.69542 3.86449 0
M  V30 9189 H 886.779 1.99598 3.6533 0
M  V30 9190 H 887.312 3.16017 2.41616 0
M  V30 9191 H 884.051 6.15362 2.25852 0
M  V30 9192 H 883.571 4.91364 3.43979 0
M  V30 9193 H 885.25 5.50648 3.39699 0
M  V30 9194 N 885.382 -0.782676 1.36792 0
M  V30 9195 C 886.314 -1.9044 1.27536 0
M  V30 9196 C 887.327 -1.61647 0.193426 0
M  V30 9197 O 888.516 -1.72769 0.448692 0
M  V30 9198 C 885.616 -3.2541 0.946641 0
M  V30 9199 C 884.789 -3.81932 2.13183 0
M  V30 9200 C 883.848 -4.95355 1.7751 0
M  V30 9201 O 882.874 -5.11517 2.49678 0
M  V30 9202 N 884.076 -5.76108 0.712755 0
M  V30 9203 H 886.841 -1.98899 2.24186 0
M  V30 9204 H 884.402 -0.96127 1.30274 0
M  V30 9205 H 886.394 -3.98791 0.689043 0
M  V30 9206 H 884.964 -3.12524 0.0690591 0
M  V30 9207 H 884.184 -3.00459 2.55183 0
M  V30 9208 H 885.472 -4.16426 2.92347 0
M  V30 9209 H 884.87 -5.65586 0.113662 0
M  V30 9210 H 883.427 -6.49762 0.514995 0
M  V30 9211 N 886.86 -1.21182 -1.00761 0
M  V30 9212 C 887.77 -0.984691 -2.12934 0
M  V30 9213 C 888.786 0.0623657 -1.73888 0
M  V30 9214 O 889.962 -0.1271 -2.00999 0
M  V30 9215 C 887.027 -0.549447 -3.42319 0
M  V30 9216 C 886.088 -1.66841 -3.95553 0
M  V30 9217 C 885.321 -1.25384 -5.18763 0
M  V30 9218 O 885.544 -0.126333 -5.7026 0
M  V30 9219 O 884.478 -2.06475 -5.65377 0
M  V30 9220 H 888.304 -1.92413 -2.3497 0
M  V30 9221 H 885.889 -0.99647 -1.11314 0
M  V30 9222 H 887.771 -0.316384 -4.20211 0
M  V30 9223 H 886.446 0.361304 -3.21677 0
M  V30 9224 H 885.353 -1.95585 -3.189 0
M  V30 9225 H 886.686 -2.55649 -4.206 0
M  V30 9226 N 888.338 1.20213 -1.01915 0
M  V30 9227 C 889.301 2.21307 -0.596327 0
M  V30 9228 C 890.301 1.57274 0.334879 0
M  V30 9229 O 891.491 1.73764 0.12322 0
M  V30 9230 C 888.623 3.40657 0.128808 0
M  V30 9231 H 889.816 2.60228 -1.49068 0
M  V30 9232 H 887.369 1.33721 -0.809226 0
M  V30 9233 H 888.104 3.07241 1.03796 0
M  V30 9234 H 887.889 3.88361 -0.540183 0
M  V30 9235 H 889.379 4.15564 0.411892 0
M  V30 9236 N 889.816 0.795718 1.36037 0
M  V30 9237 C 891.093 0.294743 1.93367 0
M  V30 9238 C 891.473 -1.21406 1.72696 0
M  V30 9239 O 890.821 -2.00849 1.08959 0
M  V30 9240 C 891.031 0.694254 3.42025 0
M  V30 9241 C 892.379 0.677566 4.19159 0
M  V30 9242 O 893.403 0.635119 3.50492 0
M  V30 9243 O 892.262 0.726127 5.41655 0
M  V30 9244 H 889.356 0.0745459 0.823633 0
M  V30 9245 H 891.902 0.878685 1.4518 0
M  V30 9246 H 890.674 1.73458 3.50753 0
M  V30 9247 H 890.297 0.0845338 3.9751 0
M  V30 9248 N 891.294 -1.47756 0.548274 0
M  V30 9249 C 892.242 -2.3158 -0.217584 0
M  V30 9250 C 893.236 -1.42372 -0.917957 0
M  V30 9251 O 894.442 -1.59184 -0.840259 0
M  V30 9252 H 890.817 -0.74671 -0.0890388 0
M  V30 9253 H 892.788 -2.94032 0.508719 0
M  V30 9254 C 891.537 -3.24834 -1.24008 0
M  V30 9255 H 890.86 -3.93435 -0.710572 0
M  V30 9256 H 892.3 -3.86336 -1.74701 0
M  V30 9257 C 890.759 -2.47724 -2.2833 0
M  V30 9258 O 891.289 -2.21522 -3.35098 0
M  V30 9259 N 889.495 -2.08891 -2.02022 0
M  V30 9260 H 889.042 -2.30401 -1.1521 0
M  V30 9261 H 889 -1.57613 -2.7204 0
M  V30 9262 N 892.772 -0.284283 -1.55015 0
M  V30 9263 C 894.049 0.382125 -1.91831 0
M  V30 9264 C 894.429 1.73007 -1.20962 0
M  V30 9265 O 893.777 2.25962 -0.339594 0
M  V30 9266 C 893.987 0.513341 -3.45204 0
M  V30 9267 C 895.335 0.791989 -4.17148 0
M  V30 9268 O 896.359 0.597799 -3.51148 0
M  V30 9269 O 895.218 1.16394 -5.33961 0
M  V30 9270 H 892.312 0.210707 -0.799707 0
M  V30 9271 H 894.858 -0.331111 -1.66438 0
M  V30 9272 H 893.63 -0.434911 -3.88876 0
M  V30 9273 H 893.253 1.27569 -3.76579 0
M  V30 9274 N 894.251 1.57596 -0.0117121 0
M  V30 9275 C 895.662 1.79033 0.529521 0
M  V30 9276 C 896.013 0.920299 1.73277 0
M  V30 9277 O 895.138 0.125934 2.16033 0
M  V30 9278 C 895.733 3.24695 0.967405 0
M  V30 9279 C 894.292 3.47188 1.45387 0
M  V30 9280 C 893.439 2.74245 0.410466 0
M  V30 9281 H 896.39 1.56908 -0.237836 0
M  V30 9282 H 896.411 3.33451 1.83278 0
M  V30 9283 H 895.923 3.87992 0.0914605 0
M  V30 9284 H 894.024 2.89121 2.35032 0
M  V30 9285 H 894.137 4.55886 1.47325 0
M  V30 9286 H 892.501 2.39209 0.874721 0
M  V30 9287 H 893.284 3.40248 -0.456713 0
M  V30 9288 N 895.729 -0.261212 1.5542 0
M  V30 9289 C 896.957 -1.00916 1.8062 0
M  V30 9290 C 897.372 -1.79494 0.585444 0
M  V30 9291 O 896.729 -1.76974 -0.445702 0
M  V30 9292 C 896.78 -1.95841 3.03856 0
M  V30 9293 O 896.501 -1.20445 4.21218 0
M  V30 9294 C 898.002 -2.82352 3.41749 0
M  V30 9295 H 895.222 -0.297596 0.601397 0
M  V30 9296 H 897.766 -0.288427 2.02456 0
M  V30 9297 H 895.921 -2.63361 2.84112 0
M  V30 9298 H 896.335 -1.84528 4.90968 0
M  V30 9299 H 897.809 -3.44733 4.31118 0
M  V30 9300 H 898.286 -3.5273 2.61683 0
M  V30 9301 H 898.892 -2.20306 3.63793 0
M  V30 9302 N 897.207 -1.48554 -0.526253 0
M  V30 9303 C 898.17 -1.62868 -1.61266 0
M  V30 9304 C 899.17 -0.501762 -1.52771 0
M  V30 9305 O 900.36 -0.76764 -1.56374 0
M  V30 9306 C 897.492 -1.60238 -3.00893 0
M  V30 9307 H 898.685 -2.59742 -1.49913 0
M  V30 9308 H 896.238 -1.37207 -0.748595 0
M  V30 9309 H 896.973 -0.648545 -3.17749 0
M  V30 9310 H 896.758 -2.42054 -3.08468 0
M  V30 9311 H 898.248 -1.73455 -3.79872 0
M  V30 9312 N 898.685 0.775411 -1.37205 0
M  V30 9313 C 900.096 1.35147 -1.28811 0
M  V30 9314 C 900.447 1.96089 0.0659168 0
M  V30 9315 O 899.572 1.93558 0.967684 0
M  V30 9316 C 900.167 2.45715 -2.33258 0
M  V30 9317 C 898.726 2.99099 -2.2851 0
M  V30 9318 C 897.873 1.72286 -2.17285 0
M  V30 9319 H 900.824 0.575954 -1.4788 0
M  V30 9320 H 900.845 3.251 -1.97712 0
M  V30 9321 H 900.357 2.01331 -3.31795 0
M  V30 9322 H 898.458 3.47868 -1.33485 0
M  V30 9323 H 898.571 3.54962 -3.21774 0
M  V30 9324 H 896.935 1.95068 -1.6377 0
M  V30 9325 H 897.718 1.3001 -3.1773 0
M  V30 9326 N 900.163 1.21714 1.00117 0
M  V30 9327 C 901.574 1.03477 1.55401 0
M  V30 9328 C 901.925 -0.40429 1.91989 0
M  V30 9329 O 901.05 -1.28807 1.7389 0
M  V30 9330 C 901.645 1.87213 2.82377 0
M  V30 9331 C 900.204 1.73297 3.34133 0
M  V30 9332 C 899.351 1.84189 2.07291 0
M  V30 9333 H 902.302 1.3568 0.823195 0
M  V30 9334 H 902.323 1.38465 3.54412 0
M  V30 9335 H 901.835 2.91944 2.55715 0
M  V30 9336 H 899.936 0.712662 3.65721 0
M  V30 9337 H 900.049 2.55486 4.05294 0
M  V30 9338 H 898.413 1.27538 2.20468 0
M  V30 9339 H 899.196 2.90435 1.83037 0
M  V30 9340 N 901.641 -1.19671 1.02551 0
M  V30 9341 C 902.871 -1.92952 0.738441 0
M  V30 9342 C 903.279 -1.75528 -0.706155 0
M  V30 9343 O 902.622 -1.0723 -1.49156 0
M  V30 9344 C 902.684 -3.45149 1.00562 0
M  V30 9345 C 902.348 -3.86341 2.44109 0
M  V30 9346 C 903.345 -3.91374 3.42231 0
M  V30 9347 C 901.03 -4.18076 2.7842 0
M  V30 9348 C 903.024 -4.27568 4.7272 0
M  V30 9349 C 900.711 -4.53943 4.0912 0
M  V30 9350 C 901.709 -4.58663 5.06081 0
M  V30 9351 O 901.397 -4.93701 6.3444 0
M  V30 9352 H 901.129 -0.619836 0.269776 0
M  V30 9353 H 903.683 -1.52852 1.37206 0
M  V30 9354 H 901.913 -3.85416 0.314849 0
M  V30 9355 H 903.602 -3.99664 0.708742 0
M  V30 9356 H 904.368 -3.67011 3.17061 0
M  V30 9357 H 900.247 -4.13589 2.03631 0
M  V30 9358 H 903.791 -4.31166 5.48399 0
M  V30 9359 H 899.688 -4.77764 4.34064 0
M  V30 9360 H 900.456 -5.11662 6.38862 0
M  V30 9361 N 903.119 -0.802921 -1.35613 0
M  V30 9362 C 904.396 -0.304993 -1.93208 0
M  V30 9363 C 904.776 1.20488 -1.73337 0
M  V30 9364 O 904.124 2.00268 -1.10022 0
M  V30 9365 C 904.334 -0.712383 -3.41652 0
M  V30 9366 C 905.682 -0.699785 -4.18794 0
M  V30 9367 O 906.706 -0.653698 -3.5015 0
M  V30 9368 O 905.565 -0.754842 -5.41262 0
M  V30 9369 H 902.659 -0.0789127 -0.823226 0
M  V30 9370 H 905.205 -0.886372 -1.44712 0
M  V30 9371 H 903.977 -1.75316 -3.49829 0
M  V30 9372 H 903.6 -0.105614 -3.9746 0
M  V30 9373 N 904.597 1.47463 -0.556102 0
M  V30 9374 C 905.822 2.07371 -0.0344729 0
M  V30 9375 C 906.247 1.40621 1.2493 0
M  V30 9376 O 905.605 0.48082 1.74808 0
M  V30 9377 C 905.653 3.60306 0.145563 0
M  V30 9378 O 904.757 3.94299 1.20839 0
M  V30 9379 H 904.098 0.662052 -0.0508274 0
M  V30 9380 H 906.628 1.89498 -0.771469 0
M  V30 9381 H 906.638 4.06408 0.360112 0
M  V30 9382 H 905.313 4.08288 -0.792089 0
M  V30 9383 H 903.89 3.59944 0.97442 0
M  V30 9384 N 906.075 0.2925 1.54862 0
M  V30 9385 C 907.324 -0.319994 1.99146 0
M  V30 9386 C 907.637 -1.55658 1.18448 0
M  V30 9387 O 908.843 -2.24312 1.52959 0
M  V30 9388 C 907.299 -0.620665 3.54508 0
M  V30 9389 C 906.907 0.597098 4.44003 0
M  V30 9390 C 908.651 -1.19482 4.07338 0
M  V30 9391 C 906.558 0.270049 5.90783 0
M  V30 9392 H 905.488 -0.123342 0.743843 0
M  V30 9393 H 908.139 0.399876 1.7909 0
M  V30 9394 H 906.521 -1.3999 3.7043 0
M  V30 9395 H 907.695 1.37354 4.39853 0
M  V30 9396 H 906.01 1.0893 4.019 0
M  V30 9397 H 908.607 -1.45362 5.14562 0
M  V30 9398 H 908.95 -2.13435 3.57423 0
M  V30 9399 H 909.483 -0.477485 3.94924 0
M  V30 9400 H 906.222 1.17791 6.4483 0
M  V30 9401 H 905.742 -0.469292 5.97961 0
M  V30 9402 H 907.421 -0.131471 6.46866 0
M  V30 9403 N 907.553 -1.57587 0.0200696 0
M  V30 9404 C 908.485 -2.06555 -0.993359 0
M  V30 9405 C 909.498 -0.987227 -1.29451 0
M  V30 9406 O 910.687 -1.26361 -1.26075 0
M  V30 9407 C 907.787 -2.4675 -2.3231 0
M  V30 9408 C 906.96 -3.77554 -2.20843 0
M  V30 9409 C 906.019 -4.04397 -3.36674 0
M  V30 9410 O 905.045 -4.7478 -3.13963 0
M  V30 9411 N 906.247 -3.53861 -4.60176 0
M  V30 9412 H 909.012 -2.9412 -0.575617 0
M  V30 9413 H 906.573 -1.61038 -0.166889 0
M  V30 9414 H 908.565 -2.61806 -3.08609 0
M  V30 9415 H 907.135 -1.64598 -2.65756 0
M  V30 9416 H 906.355 -3.72382 -1.29327 0
M  V30 9417 H 907.643 -4.63271 -2.10375 0
M  V30 9418 H 907.041 -2.96904 -4.81523 0
M  V30 9419 H 905.598 -3.74213 -5.33674 0
M  V30 9420 N 909.032 0.252966 -1.55557 0
M  V30 9421 C 910.281 0.979736 -1.76307 0
M  V30 9422 C 910.594 1.86714 -0.582871 0
M  V30 9423 O 911.8 2.6302 -0.673247 0
M  V30 9424 C 910.256 1.79205 -3.12112 0
M  V30 9425 C 909.864 0.952333 -4.37761 0
M  V30 9426 C 911.608 2.51191 -3.42203 0
M  V30 9427 C 909.515 1.76018 -5.64599 0
M  V30 9428 H 908.445 0.369538 -0.657235 0
M  V30 9429 H 911.096 0.234619 -1.81994 0
M  V30 9430 H 909.478 2.57888 -3.00515 0
M  V30 9431 H 910.652 0.208251 -4.60329 0
M  V30 9432 H 908.967 0.346082 -4.14959 0
M  V30 9433 H 911.564 3.12074 -4.34182 0
M  V30 9434 H 911.907 3.22499 -2.63249 0
M  V30 9435 H 912.44 1.79523 -3.54988 0
M  V30 9436 H 909.179 1.09095 -6.46358 0
M  V30 9437 H 908.699 2.4797 -5.46142 0
M  V30 9438 H 910.378 2.32884 -6.03634 0
M  V30 9439 N 910.51 1.48831 0.518367 0
M  V30 9440 C 911.74 1.60886 1.29612 0
M  V30 9441 C 912.148 0.272713 1.87224 0
M  V30 9442 O 911.491 -0.749653 1.67708 0
M  V30 9443 C 911.553 2.60541 2.47707 0
M  V30 9444 C 911.217 4.05324 2.11095 0
M  V30 9445 C 912.214 4.92658 1.66084 0
M  V30 9446 C 909.899 4.50942 2.21262 0
M  V30 9447 C 911.893 6.23641 1.3172 0
M  V30 9448 C 909.58 5.81943 1.8651 0
M  V30 9449 C 910.578 6.68116 1.41812 0
M  V30 9450 O 910.266 7.96677 1.07522 0
M  V30 9451 H 909.998 0.544968 0.399982 0
M  V30 9452 H 912.552 1.95474 0.630799 0
M  V30 9453 H 910.782 2.21098 3.17258 0
M  V30 9454 H 912.471 2.62308 3.09757 0
M  V30 9455 H 913.237 4.58649 1.5769 0
M  V30 9456 H 909.116 3.84048 2.55007 0
M  V30 9457 H 912.66 6.90857 0.967598 0
M  V30 9458 H 908.557 6.15484 1.94549 0
M  V30 9459 H 909.325 8.09534 1.2082 0
M  V30 9460 N 911.988 -0.768124 1.37614 0
M  V30 9461 C 913.236 -1.52379 1.3276 0
M  V30 9462 C 913.557 -1.94809 -0.0863564 0
M  V30 9463 O 912.827 -1.66568 -1.03112 0
M  V30 9464 H 911.407 -0.565179 0.488448 0
M  V30 9465 H 914.069 -0.913974 1.72141 0
M  V30 9466 H 913.165 -2.4215 1.96901 0
M  V30 9467 N 913.466 -1.22244 -0.994698 0
M  V30 9468 C 914.696 -1.07062 -1.76695 0
M  V30 9469 C 915.104 0.381895 -1.85306 0
M  V30 9470 O 914.447 1.27648 -1.32105 0
M  V30 9471 C 914.509 -1.60487 -3.2169 0
M  V30 9472 C 914.173 -3.09079 -3.36629 0
M  V30 9473 C 915.17 -4.06526 -3.24088 0
M  V30 9474 C 912.855 -3.48497 -3.61739 0
M  V30 9475 C 914.849 -5.41377 -3.36437 0
M  V30 9476 C 912.536 -4.83498 -3.73729 0
M  V30 9477 C 913.534 -5.79747 -3.61086 0
M  V30 9478 O 913.222 -7.12297 -3.72678 0
M  V30 9479 H 912.954 -0.375963 -0.561807 0
M  V30 9480 H 915.508 -1.62259 -1.25941 0
M  V30 9481 H 913.738 -0.996957 -3.73628 0
M  V30 9482 H 915.427 -1.40994 -3.80625 0
M  V30 9483 H 916.193 -3.77415 -3.04602 0
M  V30 9484 H 912.072 -2.74106 -3.70657 0
M  V30 9485 H 915.616 -6.16485 -3.26485 0
M  V30 9486 H 911.513 -5.1229 -3.92721 0
M  V30 9487 H 912.281 -7.1985 -3.89562 0
M  V30 9488 N 914.944 1.19125 -1.03184 0
M  V30 9489 C 915.854 2.26112 -0.625329 0
M  V30 9490 C 916.87 1.7056 0.344298 0
M  V30 9491 O 918.046 2.0039 0.20144 0
M  V30 9492 C 915.111 3.46697 0.0145169 0
M  V30 9493 C 914.172 4.17419 -1.00299 0
M  V30 9494 C 913.405 5.32247 -0.393581 0
M  V30 9495 O 913.628 5.64724 0.802659 0
M  V30 9496 O 912.562 5.91428 -1.1179 0
M  V30 9497 H 916.388 2.63131 -1.51643 0
M  V30 9498 H 913.973 1.26036 -0.802197 0
M  V30 9499 H 915.855 4.19762 0.371139 0
M  V30 9500 H 914.53 3.11521 0.879581 0
M  V30 9501 H 913.437 3.4646 -1.41125 0
M  V30 9502 H 914.77 4.56573 -1.83852 0
M  V30 9503 N 916.422 0.810101 1.35185 0
M  V30 9504 C 917.67 0.391343 1.98275 0
M  V30 9505 C 917.991 -1.04592 1.64577 0
M  V30 9506 O 917.261 -1.72417 0.93001 0
M  V30 9507 H 915.841 0.141715 0.733434 0
M  V30 9508 H 918.503 1.03672 1.6504 0
M  V30 9509 H 917.599 0.49991 3.0807 0
M  V30 9510 N 917.9 -1.47166 0.563914 0
M  V30 9511 C 919.316 -1.58018 0.224173 0
M  V30 9512 C 919.516 -1.56163 -1.27339 0
M  V30 9513 O 918.572 -1.4686 -2.05398 0
M  V30 9514 C 919.885 -2.88236 0.856762 0
M  V30 9515 C 921.433 -3.01833 0.82861 0
M  V30 9516 C 921.908 -4.34761 1.44039 0
M  V30 9517 N 923.399 -4.41413 1.40388 0
M  V30 9518 C 924.134 -5.42845 1.84681 0
M  V30 9519 N 923.63 -6.51052 2.3686 0
M  V30 9520 N 925.423 -5.33931 1.75711 0
M  V30 9521 H 917.574 -1.46615 1.53681 0
M  V30 9522 H 919.837 -0.698195 0.64127 0
M  V30 9523 H 919.543 -2.95349 1.90949 0
M  V30 9524 H 919.417 -3.75537 0.353766 0
M  V30 9525 H 921.804 -2.94312 -0.215451 0
M  V30 9526 H 921.885 -2.16056 1.36943 0
M  V30 9527 H 921.529 -4.43037 2.48355 0
M  V30 9528 H 921.459 -5.1928 0.874953 0
M  V30 9529 H 923.95 -3.63811 1.02227 0
M  V30 9530 H 924.263 -7.24633 2.68564 0
M  V30 9531 H 922.608 -6.51924 2.40875 0
M  V30 9532 H 925.799 -4.48295 1.34718 0
M  V30 9533 H 925.972 -6.12841 2.10547 0
M  V30 9534 N 919.378 -0.300708 -1.54705 0
M  V30 9535 C 920.626 0.308044 -1.99739 0
M  V30 9536 C 920.947 1.54433 -1.19061 0
M  V30 9537 O 920.217 1.93794 -0.286507 0
M  V30 9538 H 918.797 0.116811 -0.73781 0
M  V30 9539 H 921.459 -0.41197 -1.90496 0
M  V30 9540 H 920.555 0.580287 -3.06658 0
M  V30 9541 N 920.856 1.57574 -0.0284266 0
M  V30 9542 C 922.081 1.96479 0.664137 0
M  V30 9543 C 922.506 0.904826 1.64908 0
M  V30 9544 O 921.864 -0.134339 1.80802 0
M  V30 9545 C 921.912 3.34479 1.34745 0
M  V30 9546 O 921.016 3.30794 2.46271 0
M  V30 9547 H 920.357 0.640654 0.174524 0
M  V30 9548 H 922.887 2.04402 -0.0900729 0
M  V30 9549 H 922.897 3.70694 1.7044 0
M  V30 9550 H 921.572 4.1117 0.625468 0
M  V30 9551 H 920.149 3.06294 2.12693 0
M  V30 9552 N 922.334 -0.244713 1.55689 0
M  V30 9553 C 923.58 -0.973886 1.77886 0
M  V30 9554 C 923.913 -1.8489 0.594071 0
M  V30 9555 O 923.188 -1.90182 -0.407564 0
M  V30 9556 C 923.471 -1.83255 3.09983 0
M  V30 9557 C 923.324 -0.985571 4.3887 0
M  V30 9558 C 924.643 -2.81464 3.38329 0
M  V30 9559 H 921.762 -0.352629 0.647165 0
M  V30 9560 H 924.404 -0.244243 1.88424 0
M  V30 9561 H 922.554 -2.45464 3.01131 0
M  V30 9562 H 924.226 -0.382005 4.59716 0
M  V30 9563 H 922.469 -0.29002 4.32829 0
M  V30 9564 H 923.14 -1.62022 5.27686 0
M  V30 9565 H 925.616 -2.2939 3.47159 0
M  V30 9566 H 924.492 -3.38663 4.31971 0
M  V30 9567 H 924.753 -3.58037 2.59349 0
M  V30 9568 N 923.813 -1.49104 -0.510467 0
M  V30 9569 C 924.776 -1.64569 -1.59529 0
M  V30 9570 C 925.776 -0.517937 -1.5223 0
M  V30 9571 O 926.966 -0.784183 -1.55551 0
M  V30 9572 C 924.098 -1.6342 -2.99177 0
M  V30 9573 H 925.291 -2.61318 -1.4715 0
M  V30 9574 H 922.844 -1.37993 -0.734001 0
M  V30 9575 H 923.579 -0.68221 -3.17043 0
M  V30 9576 H 923.364 -2.45312 -3.05883 0
M  V30 9577 H 924.854 -1.77474 -3.78011 0
M  V30 9578 N 925.291 0.760815 -1.38019 0
M  V30 9579 C 926.539 1.51673 -1.33566 0
M  V30 9580 C 926.86 1.94852 0.076024 0
M  V30 9581 O 926.13 1.67112 1.02227 0
M  V30 9582 H 924.71 0.562581 -0.491438 0
M  V30 9583 H 927.372 0.904832 -1.72623 0
M  V30 9584 H 926.468 2.41102 -1.98182 0
M  V30 9585 N 926.769 1.22769 0.988202 0
M  V30 9586 C 927.994 1.08239 1.76915 0
M  V30 9587 C 928.419 -0.362519 1.84574 0
M  V30 9588 O 927.777 -1.26202 1.30165 0
M  V30 9589 C 927.825 1.70363 3.17819 0
M  V30 9590 O 926.929 0.960484 4.01059 0
M  V30 9591 H 926.27 0.379872 0.544604 0
M  V30 9592 H 928.8 1.62663 1.24104 0
M  V30 9593 H 928.81 1.7528 3.6843 0
M  V30 9594 H 927.485 2.75505 3.1156 0
M  V30 9595 H 926.062 0.987667 3.59582 0
M  V30 9596 N 928.247 -1.18576 1.03814 0
M  V30 9597 C 929.177 -2.24334 0.647795 0
M  V30 9598 C 930.158 -1.66508 -0.34774 0
M  V30 9599 O 931.343 -1.92852 -0.228401 0
M  V30 9600 C 928.473 -3.47299 0.00734922 0
M  V30 9601 C 927.427 -4.17859 0.926152 0
M  V30 9602 C 926.753 -5.34489 0.150317 0
M  V30 9603 C 928.053 -4.71632 2.24411 0
M  V30 9604 H 929.747 -2.57241 1.53191 0
M  V30 9605 H 927.293 -1.23649 0.738028 0
M  V30 9606 H 929.246 -4.20486 -0.277434 0
M  V30 9607 H 927.97 -3.13619 -0.911626 0
M  V30 9608 H 926.629 -3.46567 1.19528 0
M  V30 9609 H 926.277 -4.97056 -0.770985 0
M  V30 9610 H 925.977 -5.82633 0.762407 0
M  V30 9611 H 927.501 -6.10467 -0.127508 0
M  V30 9612 H 928.915 -5.36526 2.02021 0
M  V30 9613 H 927.312 -5.303 2.80894 0
M  V30 9614 H 928.382 -3.89192 2.89236 0
M  V30 9615 N 929.725 -0.817259 -1.34754 0
M  V30 9616 C 930.95 -0.414423 -2.03217 0
M  V30 9617 C 931.375 0.970037 -1.61158 0
M  V30 9618 O 930.733 1.63016 -0.793436 0
M  V30 9619 C 930.781 -0.518087 -3.56859 0
M  V30 9620 O 929.885 0.464314 -4.09778 0
M  V30 9621 H 929.226 -0.171454 -0.641482 0
M  V30 9622 H 931.756 -1.10611 -1.72123 0
M  V30 9623 H 931.766 -0.391779 -4.06115 0
M  V30 9624 H 930.441 -1.52786 -3.86819 0
M  V30 9625 H 929.018 0.297361 -3.71712 0
M  V30 9626 N 931.203 1.46865 -0.571711 0
M  V30 9627 C 932.428 2.07323 -0.0564655 0
M  V30 9628 C 932.853 1.41938 1.23431 0
M  V30 9629 O 932.211 0.499334 1.74288 0
M  V30 9630 C 932.259 3.6044 0.107339 0
M  V30 9631 O 931.363 3.95558 1.1665 0
M  V30 9632 H 930.704 0.661475 -0.0578465 0
M  V30 9633 H 933.234 1.88669 -0.791524 0
M  V30 9634 H 933.244 4.06767 0.316987 0
M  V30 9635 H 931.919 4.07425 -0.835348 0
M  V30 9636 H 930.496 3.60957 0.936189 0
M  V30 9637 N 932.681 0.308908 1.54543 0
M  V30 9638 C 933.611 -0.556657 2.26768 0
M  V30 9639 C 934.592 -1.13145 1.27013 0
M  V30 9640 O 935.777 -1.15931 1.558 0
M  V30 9641 C 932.907 -1.72481 3.01443 0
M  V30 9642 C 931.861 -1.28001 4.08411 0
M  V30 9643 C 931.187 -2.53395 4.70845 0
M  V30 9644 C 932.487 -0.405497 5.20724 0
M  V30 9645 H 934.181 0.0457618 2.99365 0
M  V30 9646 H 931.727 0.0234495 1.43981 0
M  V30 9647 H 933.68 -2.3365 3.50693 0
M  V30 9648 H 932.404 -2.35359 2.26437 0
M  V30 9649 H 931.063 -0.69133 3.60022 0
M  V30 9650 H 930.711 -3.14604 3.92471 0
M  V30 9651 H 930.411 -2.2433 5.43093 0
M  V30 9652 H 931.935 -3.15352 5.22863 0
M  V30 9653 H 933.349 -0.923076 5.6582 0
M  V30 9654 H 931.746 -0.208282 5.99738 0
M  V30 9655 H 932.816 0.567412 4.81569 0
M  V30 9656 N 934.159 -1.57557 0.0367827 0
M  V30 9657 C 935.069 -2.14148 -0.958017 0
M  V30 9658 C 936.085 -1.09564 -1.35173 0
M  V30 9659 O 937.261 -1.4166 -1.43158 0
M  V30 9660 C 934.326 -2.6636 -2.21931 0
M  V30 9661 C 933.387 -3.85688 -1.8853 0
M  V30 9662 C 932.62 -4.35401 -3.08645 0
M  V30 9663 O 932.843 -3.8425 -4.21554 0
M  V30 9664 O 931.777 -5.27158 -2.90497 0
M  V30 9665 H 935.603 -2.99442 -0.506797 0
M  V30 9666 H 933.188 -1.48259 -0.184275 0
M  V30 9667 H 935.07 -2.99976 -2.9596 0
M  V30 9668 H 933.745 -1.84145 -2.66219 0
M  V30 9669 H 932.652 -3.56985 -1.11861 0
M  V30 9670 H 933.985 -4.69089 -1.49052 0
M  V30 9671 N 935.637 0.236453 -1.55816 0
M  V30 9672 C 936.862 0.98449 -1.82545 0
M  V30 9673 C 937.287 1.77755 -0.615206 0
M  V30 9674 O 936.645 1.75982 0.435895 0
M  V30 9675 C 936.693 1.88973 -3.07118 0
M  V30 9676 O 935.797 2.98298 -2.84766 0
M  V30 9677 H 935.138 0.279577 -0.602273 0
M  V30 9678 H 937.668 0.254277 -2.03014 0
M  V30 9679 H 937.678 2.3024 -3.36829 0
M  V30 9680 H 936.353 1.30671 -3.94839 0
M  V30 9681 H 934.93 2.61085 -2.6625 0
M  V30 9682 N 937.115 1.49373 0.502552 0
M  V30 9683 C 938.078 1.65413 1.58654 0
M  V30 9684 C 939.078 0.526003 1.51953 0
M  V30 9685 O 940.268 0.792421 1.55133 0
M  V30 9686 C 937.4 1.65005 2.98306 0
M  V30 9687 H 938.593 2.62095 1.45762 0
M  V30 9688 H 936.146 1.38381 0.726672 0
M  V30 9689 H 936.881 0.699014 3.16677 0
M  V30 9690 H 936.666 2.46931 3.04578 0
M  V30 9691 H 938.156 1.79477 3.77065 0
M  V30 9692 N 938.594 -0.753485 1.38421 0
M  V30 9693 C 939.822 -1.54272 1.37868 0
M  V30 9694 C 940.237 -1.88774 -0.0315155 0
M  V30 9695 O 939.594 -1.52785 -0.998148 0
M  V30 9696 C 939.645 -2.84179 2.23438 0
M  V30 9697 O 939.366 -2.51149 3.58965 0
M  V30 9698 C 940.867 -3.78316 2.31067 0
M  V30 9699 H 938.087 -0.47735 0.47157 0
M  V30 9700 H 940.631 -0.932509 1.82001 0
M  V30 9701 H 938.786 -3.41577 1.82767 0
M  V30 9702 H 939.2 -3.34466 4.04021 0
M  V30 9703 H 940.674 -4.66418 2.95226 0
M  V30 9704 H 941.151 -4.18757 1.32436 0
M  V30 9705 H 941.757 -3.26842 2.72129 0
M  V30 9706 N 940.072 -1.23292 -0.981677 0
M  V30 9707 C 941.3 -1.09088 -1.75805 0
M  V30 9708 C 941.715 0.357746 -1.8538 0
M  V30 9709 O 941.072 1.24751 -1.33205 0
M  V30 9710 C 941.123 -1.70885 -3.1856 0
M  V30 9711 O 940.844 -3.10082 -3.09484 0
M  V30 9712 C 942.345 -1.62106 -4.12597 0
M  V30 9713 H 939.565 -0.38184 -0.55176 0
M  V30 9714 H 942.109 -1.63116 -1.23342 0
M  V30 9715 H 940.264 -1.20893 -3.68054 0
M  V30 9716 H 940.678 -3.40039 -3.99342 0
M  V30 9717 H 942.152 -2.10049 -5.10474 0
M  V30 9718 H 942.629 -0.579642 -4.35358 0
M  V30 9719 H 943.235 -2.11457 -3.69007 0
M  V30 9720 N 941.55 1.18024 -1.04442 0
M  V30 9721 C 942.827 1.8398 -0.664125 0
M  V30 9722 C 943.207 1.92961 0.856116 0
M  V30 9723 O 942.555 1.45839 1.75907 0
M  V30 9724 C 942.765 3.22069 -1.34433 0
M  V30 9725 C 944.113 3.98063 -1.47754 0
M  V30 9726 O 945.137 3.31523 -1.30274 0
M  V30 9727 O 943.996 5.17291 -1.76272 0
M  V30 9728 H 941.09 0.793543 -0.23285 0
M  V30 9729 H 943.636 1.25385 -1.14354 0
M  V30 9730 H 942.408 3.10458 -2.38184 0
M  V30 9731 H 942.031 3.88325 -0.853782 0
M  V30 9732 N 943.028 0.824394 1.34319 0
M  V30 9733 C 944.253 0.425194 2.02995 0
M  V30 9734 C 944.678 -0.961476 1.6167 0
M  V30 9735 O 944.036 -1.62593 0.80207 0
M  V30 9736 C 944.084 0.537004 3.56579 0
M  V30 9737 O 943.188 -0.442576 4.10018 0
M  V30 9738 H 942.529 0.174853 0.640564 0
M  V30 9739 H 945.059 1.11522 1.71534 0
M  V30 9740 H 945.069 0.413311 4.05901 0
M  V30 9741 H 943.744 1.54836 3.86004 0
M  V30 9742 H 942.321 -0.277644 3.71865 0
M  V30 9743 N 944.506 -1.46559 0.579492 0
M  V30 9744 C 945.783 -1.956 -0.00287136 0
M  V30 9745 C 946.163 -1.52215 -1.46266 0
M  V30 9746 O 945.511 -0.771335 -2.15088 0
M  V30 9747 C 945.721 -3.48606 0.165824 0
M  V30 9748 C 947.069 -4.24588 0.0319807 0
M  V30 9749 O 948.093 -3.56075 0.094496 0
M  V30 9750 O 946.952 -5.46396 -0.106386 0
M  V30 9751 H 944.046 -0.825387 -0.0516274 0
M  V30 9752 H 946.592 -1.56858 0.647584 0
M  V30 9753 H 945.364 -3.7306 1.18076 0
M  V30 9754 H 944.987 -3.94169 -0.521212 0
M  V30 9755 N 945.984 -0.3171 -1.54377 0
M  V30 9756 C 946.914 0.544623 -2.2706 0
M  V30 9757 C 947.895 1.12469 -1.27611 0
M  V30 9758 O 949.08 1.15103 -1.56413 0
M  V30 9759 C 946.21 1.70879 -3.02353 0
M  V30 9760 C 945.164 1.25833 -4.09084 0
M  V30 9761 C 944.49 2.50894 -4.72182 0
M  V30 9762 C 945.79 0.377876 -5.20931 0
M  V30 9763 H 947.484 -0.0616372 -2.99337 0
M  V30 9764 H 945.03 -0.0310848 -1.43966 0
M  V30 9765 H 946.983 2.31787 -3.51927 0
M  V30 9766 H 945.707 2.34155 -2.27682 0
M  V30 9767 H 944.366 0.672228 -3.60384 0
M  V30 9768 H 944.014 3.12518 -3.94134 0
M  V30 9769 H 943.714 2.21447 -5.44275 0
M  V30 9770 H 945.238 3.12575 -5.24528 0
M  V30 9771 H 946.652 0.893056 -5.66302 0
M  V30 9772 H 945.049 0.176474 -5.9984 0
M  V30 9773 H 946.119 -0.592943 -4.81261 0
M  V30 9774 N 947.462 1.57535 -0.0451378 0
M  V30 9775 C 948.739 1.83785 0.669523 0
M  V30 9776 C 949.119 0.932331 1.89396 0
M  V30 9777 O 948.467 -0.00813229 2.28499 0
M  V30 9778 C 948.677 3.33376 1.03255 0
M  V30 9779 C 950.025 4.00243 1.41741 0
M  V30 9780 O 951.049 3.37965 1.12507 0
M  V30 9781 O 949.908 5.10038 1.96275 0
M  V30 9782 H 947.002 0.758342 0.329919 0
M  V30 9783 H 949.548 1.69538 -0.0740415 0
M  V30 9784 H 948.32 3.90965 0.161777 0
M  V30 9785 H 947.943 3.52787 1.83376 0
M  V30 9786 N 948.94 -0.228186 1.55939 0
M  V30 9787 C 950.17 -0.969211 1.82455 0
M  V30 9788 C 950.578 -1.78714 0.621133 0
M  V30 9789 O 949.921 -1.78841 -0.419694 0
M  V30 9790 C 949.983 -1.94088 3.02605 0
M  V30 9791 C 949.647 -1.30811 4.37878 0
M  V30 9792 C 950.644 -0.701275 5.15149 0
M  V30 9793 C 948.329 -1.32187 4.84595 0
M  V30 9794 C 950.323 -0.116631 6.37293 0
M  V30 9795 C 948.01 -0.733375 6.06683 0
M  V30 9796 C 949.008 -0.131804 6.82873 0
M  V30 9797 O 948.696 0.447549 8.02653 0
M  V30 9798 H 948.428 -0.289951 0.610659 0
M  V30 9799 H 950.982 -0.250576 2.03866 0
M  V30 9800 H 949.212 -2.69833 2.76996 0
M  V30 9801 H 950.901 -2.5469 3.1605 0
M  V30 9802 H 951.667 -0.683022 4.80166 0
M  V30 9803 H 947.546 -1.77949 4.25271 0
M  V30 9804 H 951.09 0.353539 6.96704 0
M  V30 9805 H 946.987 -0.749019 6.4114 0
M  V30 9806 H 947.755 0.341224 8.17788 0
M  V30 9807 N 950.418 -1.49637 -0.494624 0
M  V30 9808 C 951.695 -1.4995 -1.25596 0
M  V30 9809 C 952.075 -0.230805 -2.09834 0
M  V30 9810 O 951.423 0.786625 -2.14533 0
M  V30 9811 C 951.633 -2.78204 -2.10721 0
M  V30 9812 C 952.981 -3.27946 -2.69698 0
M  V30 9813 O 954.005 -2.79365 -2.20984 0
M  V30 9814 O 952.864 -4.12571 -3.58395 0
M  V30 9815 H 949.958 -0.60044 -0.568684 0
M  V30 9816 H 952.504 -1.61906 -0.508371 0
M  V30 9817 H 951.276 -3.62029 -1.48494 0
M  V30 9818 H 950.899 -2.69139 -2.92661 0
M  V30 9819 N 951.896 0.746133 -1.38819 0
M  V30 9820 C 953.126 1.53316 -1.38484 0
M  V30 9821 C 953.534 1.89183 0.0253332 0
M  V30 9822 O 952.877 1.5382 1.00424 0
M  V30 9823 C 952.939 2.85623 -2.18311 0
M  V30 9824 C 952.603 2.72253 -3.67052 0
M  V30 9825 C 953.6 2.41547 -4.60381 0
M  V30 9826 C 951.285 2.89472 -4.10501 0
M  V30 9827 C 953.279 2.28226 -5.9514 0
M  V30 9828 C 950.966 2.7577 -5.45338 0
M  V30 9829 C 951.964 2.45191 -6.37472 0
M  V30 9830 O 951.652 2.31561 -7.69828 0
M  V30 9831 H 951.384 0.480763 -0.475229 0
M  V30 9832 H 953.938 0.93057 -1.83111 0
M  V30 9833 H 952.168 3.481 -1.68414 0
M  V30 9834 H 953.857 3.47178 -2.10291 0
M  V30 9835 H 954.623 2.27905 -4.28117 0
M  V30 9836 H 950.502 3.12269 -3.3913 0
M  V30 9837 H 954.046 2.04279 -6.6702 0
M  V30 9838 H 949.943 2.88987 -5.77197 0
M  V30 9839 H 950.711 2.46716 -7.80432 0
M  V30 9840 N 953.375 1.23811 0.975125 0
M  V30 9841 C 954.305 1.04846 2.08638 0
M  V30 9842 C 955.286 -0.0362859 1.70061 0
M  V30 9843 O 956.471 0.12937 1.93769 0
M  V30 9844 C 953.601 0.644534 3.41267 0
M  V30 9845 C 952.555 1.67722 3.93768 0
M  V30 9846 C 951.881 1.12857 5.22654 0
M  V30 9847 C 953.181 3.07147 4.22443 0
M  V30 9848 H 954.875 1.97795 2.24761 0
M  V30 9849 H 952.421 0.952397 1.08006 0
M  V30 9850 H 954.374 0.498887 4.18436 0
M  V30 9851 H 953.098 -0.320641 3.25022 0
M  V30 9852 H 951.757 1.81095 3.18748 0
M  V30 9853 H 951.405 0.154227 5.02764 0
M  V30 9854 H 951.105 1.81862 5.58749 0
M  V30 9855 H 952.629 0.994891 6.0244 0
M  V30 9856 H 954.043 2.97045 4.90344 0
M  V30 9857 H 952.44 3.73437 4.6975 0
M  V30 9858 H 953.51 3.55743 3.29507 0
M  V30 9859 N 954.853 -1.17469 1.05066 0
M  V30 9860 C 955.785 -2.20974 0.608526 0
M  V30 9861 C 956.798 -1.59481 -0.327066 0
M  V30 9862 O 957.987 -1.78096 -0.12 0
M  V30 9863 C 955.087 -3.38652 -0.12969 0
M  V30 9864 C 954.26 -4.29716 0.816285 0
M  V30 9865 C 953.319 -5.26064 0.119556 0
M  V30 9866 O 952.345 -5.64194 0.753241 0
M  V30 9867 N 953.547 -5.69126 -1.14347 0
M  V30 9868 H 956.312 -2.59529 1.49882 0
M  V30 9869 H 953.873 -1.32355 0.932406 0
M  V30 9870 H 955.865 -4.00139 -0.605886 0
M  V30 9871 H 954.435 -2.98705 -0.921638 0
M  V30 9872 H 953.655 -3.6568 1.47213 0
M  V30 9873 H 954.943 -4.87449 1.45845 0
M  V30 9874 H 954.341 -5.4022 -1.67866 0
M  V30 9875 H 952.898 -6.32764 -1.56376 0
M  V30 9876 N 956.331 -0.831506 -1.3388 0
M  V30 9877 C 957.279 -0.247896 -2.31275 0
M  V30 9878 C 958.273 0.616083 -1.578 0
M  V30 9879 O 959.479 0.506465 -1.72728 0
M  V30 9880 H 955.854 -0.0614293 -0.749487 0
M  V30 9881 H 957.825 -1.08401 -2.78014 0
M  V30 9882 C 956.574 0.568434 -3.43022 0
M  V30 9883 H 955.897 -0.0870654 -3.99705 0
M  V30 9884 H 957.337 0.942751 -4.13386 0
M  V30 9885 C 955.796 1.74431 -2.88228 0
M  V30 9886 O 956.326 2.84278 -2.83811 0
M  V30 9887 N 954.532 1.56382 -2.44935 0
M  V30 9888 H 954.079 0.670255 -2.48727 0
M  V30 9889 H 954.037 2.35208 -2.08625 0
M  V30 9890 N 957.809 1.4625 -0.587256 0
M  V30 9891 C 959.055 2.0323 -0.0830359 0
M  V30 9892 C 959.41 1.45007 1.26455 0
M  V30 9893 O 958.703 0.607494 1.81714 0
M  V30 9894 C 958.897 3.57382 0.036328 0
M  V30 9895 C 958.726 4.30556 -1.29814 0
M  V30 9896 C 957.496 4.69285 -1.87349 0
M  V30 9897 C 959.694 4.63806 -2.22236 0
M  V30 9898 N 957.676 5.27229 -3.14488 0
M  V30 9899 C 959.047 5.22368 -3.33964 0
M  V30 9900 C 961.102 4.45738 -2.2186 0
M  V30 9901 C 959.805 5.64769 -4.45454 0
M  V30 9902 C 961.831 4.89158 -3.32383 0
M  V30 9903 C 961.193 5.47795 -4.42832 0
M  V30 9904 H 957.292 0.77856 -0.0732716 0
M  V30 9905 H 959.876 1.78343 -0.781152 0
M  V30 9906 H 958.047 3.81973 0.703621 0
M  V30 9907 H 959.779 4.01009 0.545347 0
M  V30 9908 H 956.534 4.5219 -1.40789 0
M  V30 9909 H 956.958 5.60719 -3.79372 0
M  V30 9910 H 961.6 3.99735 -1.37739 0
M  V30 9911 H 959.318 6.09748 -5.30314 0
M  V30 9912 H 962.904 4.76926 -3.33216 0
M  V30 9913 H 961.784 5.80778 -5.26941 0
M  V30 9914 N 959.287 0.325282 1.54207 0
M  V30 9915 C 960.535 -0.276229 2.00203 0
M  V30 9916 C 960.856 -1.52519 1.21503 0
M  V30 9917 O 960.126 -1.93313 0.317302 0
M  V30 9918 H 958.706 -0.105059 0.739575 0
M  V30 9919 H 961.368 0.442225 1.89817 0
M  V30 9920 H 960.464 -0.531427 3.07542 0
M  V30 9921 N 960.765 -1.57509 0.0534917 0
M  V30 9922 C 962.176 -1.80374 -0.481867 0
M  V30 9923 C 962.527 -0.965917 -1.70776 0
M  V30 9924 O 961.652 -0.183167 -2.15623 0
M  V30 9925 C 962.247 -3.27146 -0.880978 0
M  V30 9926 C 960.806 -3.50921 -1.3613 0
M  V30 9927 C 959.953 -2.75237 -0.337611 0
M  V30 9928 H 962.904 -1.56222 0.279353 0
M  V30 9929 H 962.925 -3.38193 -1.74373 0
M  V30 9930 H 962.437 -3.88098 0.011441 0
M  V30 9931 H 960.538 -2.95251 -2.27283 0
M  V30 9932 H 960.651 -4.59632 -1.35186 0
M  V30 9933 H 959.015 -2.41444 -0.810991 0
M  V30 9934 H 959.798 -3.38918 0.546763 0
M  V30 9935 N 962.243 0.219913 -1.56058 0
M  V30 9936 C 963.659 0.569685 -1.49086 0
M  V30 9937 C 963.859 1.87066 -0.748903 0
M  V30 9938 O 962.915 2.50838 -0.289235 0
M  V30 9939 C 964.228 0.647397 -2.93648 0
M  V30 9940 C 965.776 0.737914 -3.04177 0
M  V30 9941 C 966.251 0.846957 -4.50101 0
M  V30 9942 N 967.742 0.911136 -4.5415 0
M  V30 9943 C 968.477 1.01525 -5.64341 0
M  V30 9944 N 967.973 1.0832 -6.8428 0
M  V30 9945 N 969.766 1.05051 -5.52196 0
M  V30 9946 H 961.917 -0.633778 -2.02724 0
M  V30 9947 H 964.18 -0.222583 -0.921499 0
M  V30 9948 H 963.886 -0.238987 -3.50887 0
M  V30 9949 H 963.76 1.51046 -3.45637 0
M  V30 9950 H 966.147 1.61474 -2.47002 0
M  V30 9951 H 966.228 -0.150845 -2.55355 0
M  V30 9952 H 965.872 -0.0254166 -5.07894 0
M  V30 9953 H 965.802 1.75116 -4.96631 0
M  V30 9954 H 968.293 0.868869 -3.67776 0
M  V30 9955 H 968.606 1.16247 -7.64007 0
M  V30 9956 H 966.951 1.05231 -6.86987 0
M  V30 9957 H 970.142 0.994086 -4.57423 0
M  V30 9958 H 970.315 1.12819 -6.38103 0
M  V30 9959 N 963.721 1.49897 0.486681 0
M  V30 9960 C 964.968 1.60105 1.23986 0
M  V30 9961 C 965.296 0.294228 1.92262 0
M  V30 9962 O 964.551 -0.718876 1.82018 0
M  V30 9963 C 964.85 2.71982 2.31863 0
M  V30 9964 C 964.516 4.13 1.80948 0
M  V30 9965 C 963.178 4.51373 1.66782 0
M  V30 9966 C 965.53 5.01198 1.43004 0
M  V30 9967 C 962.858 5.75701 1.13072 0
M  V30 9968 C 965.21 6.26058 0.90742 0
M  V30 9969 C 963.874 6.63247 0.752269 0
M  V30 9970 H 963.144 0.585866 0.453698 0
M  V30 9971 H 965.791 1.83778 0.538305 0
M  V30 9972 H 964.096 2.42336 3.07865 0
M  V30 9973 H 965.793 2.77087 2.89869 0
M  V30 9974 H 962.383 3.82718 1.92937 0
M  V30 9975 H 966.567 4.72196 1.52789 0
M  V30 9976 H 961.823 6.03202 0.997842 0
M  V30 9977 H 965.997 6.9377 0.604684 0
M  V30 9978 H 963.624 7.59466 0.33392 0
M  V30 9979 N 965.199 -0.738761 1.39212 0
M  V30 9980 C 966.146 -1.85273 1.37631 0
M  V30 9981 C 967.116 -1.64407 0.236572 0
M  V30 9982 O 968.301 -1.85866 0.431104 0
M  V30 9983 C 965.441 -3.22745 1.22188 0
M  V30 9984 C 964.554 -3.55342 2.45674 0
M  V30 9985 C 963.689 -4.82195 2.22847 0
M  V30 9986 C 962.728 -5.07625 3.42029 0
M  V30 9987 N 961.865 -6.25679 3.18543 0
M  V30 9988 H 966.705 -1.85959 2.32859 0
M  V30 9989 H 964.242 -0.908716 1.15675 0
M  V30 9990 H 966.2 -4.02095 1.11245 0
M  V30 9991 H 964.83 -3.21347 0.30592 0
M  V30 9992 H 963.882 -2.70722 2.67233 0
M  V30 9993 H 965.194 -3.70054 3.34457 0
M  V30 9994 H 964.348 -5.69518 2.09126 0
M  V30 9995 H 963.087 -4.6965 1.31454 0
M  V30 9996 H 962.092 -4.18765 3.56253 0
M  V30 9997 H 963.317 -5.22058 4.34319 0
M  V30 9998 H 961.263 -6.14429 2.2981 0
M  V30 9999 H 961.18 -6.40961 4.0088 0
M  V30 10000 H 962.448 -7.15851 3.08508 0
M  V30 10001 N 966.677 -1.24326 -0.968545 0
M  V30 10002 C 967.624 -1.0349 -2.06297 0
M  V30 10003 C 968.594 0.0515333 -1.6602 0
M  V30 10004 O 969.779 -0.102924 -1.90522 0
M  V30 10005 C 966.919 -0.64487 -3.39021 0
M  V30 10006 C 966.032 -1.80469 -3.92498 0
M  V30 10007 C 965.167 -1.36032 -5.13487 0
M  V30 10008 C 964.206 -2.49014 -5.59159 0
M  V30 10009 N 963.343 -2.05451 -6.71367 0
M  V30 10010 H 968.183 -1.97161 -2.23454 0
M  V30 10011 H 965.72 -0.982028 -1.0952 0
M  V30 10012 H 967.678 -0.399771 -4.1528 0
M  V30 10013 H 966.308 0.254845 -3.21792 0
M  V30 10014 H 965.36 -2.16348 -3.12886 0
M  V30 10015 H 966.672 -2.65365 -4.22354 0
M  V30 10016 H 965.826 -1.07405 -5.97117 0
M  V30 10017 H 964.565 -0.481887 -4.85313 0
M  V30 10018 H 963.57 -2.78402 -4.74102 0
M  V30 10019 H 964.795 -3.37413 -5.89346 0
M  V30 10020 H 962.741 -1.20004 -6.4493 0
M  V30 10021 H 962.658 -2.83901 -7.00668 0
M  V30 10022 H 963.926 -1.79962 -7.58442 0
M  V30 10023 N 968.156 1.1691 -1.05688 0
M  V30 10024 C 969.086 2.23275 -0.683402 0
M  V30 10025 C 970.067 1.6704 0.321206 0
M  V30 10026 O 971.252 1.93191 0.197691 0
M  V30 10027 C 968.382 3.47244 -0.0626006 0
M  V30 10028 C 967.336 4.16333 -0.992513 0
M  V30 10029 C 966.662 5.34182 -0.23533 0
M  V30 10030 C 967.962 4.68002 -2.31886 0
M  V30 10031 H 969.656 2.54771 -1.57264 0
M  V30 10032 H 967.202 1.2246 -0.757606 0
M  V30 10033 H 969.155 4.20874 0.210503 0
M  V30 10034 H 967.879 3.1503 0.861616 0
M  V30 10035 H 966.538 3.44622 -1.25026 0
M  V30 10036 H 966.186 4.9822 0.69181 0
M  V30 10037 H 965.886 5.81346 -0.855002 0
M  V30 10038 H 967.41 6.10592 0.0303717 0
M  V30 10039 H 968.824 5.33244 -2.10531 0
M  V30 10040 H 967.221 5.25764 -2.89296 0
M  V30 10041 H 968.291 3.84541 -2.95391 0
M  V30 10042 N 969.634 0.838594 1.33437 0
M  V30 10043 C 970.597 0.276843 2.27522 0
M  V30 10044 C 971.597 -0.554275 1.50945 0
M  V30 10045 O 972.787 -0.368107 1.70266 0
M  V30 10046 C 969.919 -0.610036 3.35397 0
M  V30 10047 H 971.112 1.10705 2.78719 0
M  V30 10048 H 968.665 0.611657 1.43835 0
M  V30 10049 H 969.4 -1.46269 2.89441 0
M  V30 10050 H 969.185 -0.0153615 3.92097 0
M  V30 10051 H 970.675 -0.996368 4.05539 0
M  V30 10052 N 971.112 -1.45937 0.595003 0
M  V30 10053 C 972.389 -1.95592 0.0178748 0
M  V30 10054 C 972.769 -1.53758 -1.44643 0
M  V30 10055 O 972.117 -0.794104 -2.14257 0
M  V30 10056 C 972.327 -3.4841 0.202789 0
M  V30 10057 C 973.675 -4.2453 0.0770121 0
M  V30 10058 O 974.699 -3.55954 0.132257 0
M  V30 10059 O 973.558 -5.46479 -0.0484271 0
M  V30 10060 H 970.652 -0.825888 -0.0428702 0
M  V30 10061 H 973.198 -1.56162 0.664184 0
M  V30 10062 H 971.97 -3.71787 1.22027 0
M  V30 10063 H 971.593 -3.947 -0.479376 0
M  V30 10064 N 972.59 -0.333456 -1.54032 0
M  V30 10065 C 973.52 0.52051 -2.27625 0
M  V30 10066 C 974.501 1.1111 -1.28797 0
M  V30 10067 O 975.686 1.13438 -1.57625 0
M  V30 10068 C 972.816 1.67663 -3.04149 0
M  V30 10069 C 971.77 1.21487 -4.10396 0
M  V30 10070 C 971.096 2.45872 -4.74817 0
M  V30 10071 C 972.396 0.322603 -5.21303 0
M  V30 10072 H 974.09 -0.0933823 -2.99254 0
M  V30 10073 H 971.636 -0.0463526 -1.43925 0
M  V30 10074 H 973.589 2.28041 -3.54366 0
M  V30 10075 H 972.313 2.31727 -2.30153 0
M  V30 10076 H 970.972 0.633966 -3.61077 0
M  V30 10077 H 970.62 3.0832 -3.97426 0
M  V30 10078 H 970.32 2.15662 -5.46593 0
M  V30 10079 H 971.844 3.06994 -5.27814 0
M  V30 10080 H 973.258 0.832942 -5.67217 0
M  V30 10081 H 971.655 0.112843 -5.99994 0
M  V30 10082 H 972.725 -0.643954 -4.80605 0
M  V30 10083 N 974.068 1.57479 -0.061844 0
M  V30 10084 C 975.298 1.97142 0.61794 0
M  V30 10085 C 975.706 0.938533 1.64281 0
M  V30 10086 O 975.049 -0.084385 1.83506 0
M  V30 10087 C 975.111 3.33083 1.35263 0
M  V30 10088 C 974.775 4.54447 0.482372 0
M  V30 10089 C 975.772 5.1927 -0.255954 0
M  V30 10090 C 973.457 5.00623 0.410167 0
M  V30 10091 C 975.451 6.28612 -1.05481 0
M  V30 10092 C 973.138 6.09839 -0.392369 0
M  V30 10093 C 974.136 6.73696 -1.12354 0
M  V30 10094 O 973.824 7.80811 -1.91285 0
M  V30 10095 H 973.556 0.653497 0.172969 0
M  V30 10096 H 976.11 2.05002 -0.127781 0
M  V30 10097 H 974.34 3.21808 2.14421 0
M  V30 10098 H 976.029 3.5742 1.92368 0
M  V30 10099 H 976.795 4.84546 -0.209703 0
M  V30 10100 H 972.674 4.50704 0.968883 0
M  V30 10101 H 976.218 6.78385 -1.62602 0
M  V30 10102 H 972.115 6.43997 -0.44022 0
M  V30 10103 H 972.883 7.9764 -1.83611 0
M  V30 10104 N 975.546 -0.211634 1.56173 0
M  V30 10105 C 976.794 -0.932704 1.7929 0
M  V30 10106 C 977.115 -1.84472 0.632076 0
M  V30 10107 O 976.385 -1.92739 -0.350519 0
M  V30 10108 H 974.965 -0.347393 0.661307 0
M  V30 10109 H 977.627 -0.22111 1.93642 0
M  V30 10110 H 976.723 -1.53365 2.71819 0
M  V30 10111 N 977.024 -1.50153 -0.478725 0
M  V30 10112 C 978.249 -1.64776 -1.2595 0
M  V30 10113 C 978.674 -0.327794 -1.85222 0
M  V30 10114 O 978.032 0.707418 -1.66929 0
M  V30 10115 C 978.08 -2.73551 -2.34952 0
M  V30 10116 O 977.184 -2.34273 -3.39397 0
M  V30 10117 H 976.525 -0.550769 -0.370877 0
M  V30 10118 H 979.055 -1.96482 -0.570605 0
M  V30 10119 H 979.065 -2.96397 -2.8038 0
M  V30 10120 H 977.74 -3.69354 -1.91181 0
M  V30 10121 H 976.317 -2.21844 -2.99733 0
M  V30 10122 N 978.502 0.731368 -1.39602 0
M  V30 10123 C 979.449 1.84541 -1.38612 0
M  V30 10124 C 980.419 1.64279 -0.245287 0
M  V30 10125 O 981.604 1.85635 -0.440954 0
M  V30 10126 C 978.744 3.22092 -1.23897 0
M  V30 10127 C 977.857 3.54034 -2.47555 0
M  V30 10128 C 976.992 4.81007 -2.25402 0
M  V30 10129 C 976.031 5.05804 -3.44716 0
M  V30 10130 N 975.168 6.23981 -3.21857 0
M  V30 10131 H 980.008 1.84722 -2.33841 0
M  V30 10132 H 977.545 0.902569 -1.16156 0
M  V30 10133 H 979.503 4.01499 -1.13376 0
M  V30 10134 H 978.133 3.2118 -0.322958 0
M  V30 10135 H 977.185 2.69301 -2.68665 0
M  V30 10136 H 978.497 3.68275 -3.36415 0
M  V30 10137 H 977.651 5.68401 -2.12143 0
M  V30 10138 H 976.39 4.68946 -1.33943 0
M  V30 10139 H 975.395 4.1687 -3.58468 0
M  V30 10140 H 976.62 5.19747 -4.37081 0
M  V30 10141 H 974.566 6.13202 -2.33065 0
M  V30 10142 H 974.483 6.38826 -4.04274 0
M  V30 10143 H 975.751 7.14205 -3.123 0
M  V30 10144 N 979.98 1.24838 0.961938 0
M  V30 10145 C 981.257 0.99939 1.68141 0
M  V30 10146 C 981.637 -0.476588 2.0565 0
M  V30 10147 O 980.985 -1.45224 1.76415 0
M  V30 10148 C 981.195 1.92797 2.90913 0
M  V30 10149 C 982.543 2.20219 3.63027 0
M  V30 10150 O 983.567 1.90496 3.00981 0
M  V30 10151 O 982.426 2.70725 4.74731 0
M  V30 10152 H 979.52 0.37842 0.735342 0
M  V30 10153 H 982.066 1.35961 1.01551 0
M  V30 10154 H 980.838 2.92492 2.59931 0
M  V30 10155 H 980.461 1.57127 3.65235 0
M  V30 10156 N 981.458 -1.16348 1.06306 0
M  V30 10157 C 982.686 -1.90782 0.800614 0
M  V30 10158 C 983.101 -1.77439 -0.645033 0
M  V30 10159 O 982.458 -1.11912 -1.4416 0
M  V30 10160 C 982.509 -3.41484 1.18621 0
M  V30 10161 O 982.23 -3.54428 2.57512 0
M  V30 10162 C 983.731 -4.32968 0.951525 0
M  V30 10163 H 980.951 -0.604977 0.290247 0
M  V30 10164 H 983.495 -1.47476 1.41672 0
M  V30 10165 H 981.65 -3.82493 0.614633 0
M  V30 10166 H 982.064 -4.4788 2.72954 0
M  V30 10167 H 983.538 -5.37169 1.27095 0
M  V30 10168 H 984.015 -4.39055 -0.112734 0
M  V30 10169 H 984.621 -3.97687 1.50749 0
M  V30 10170 N 982.937 -0.845659 -1.3299 0
M  V30 10171 C 984.184 -0.444653 -1.97558 0
M  V30 10172 C 984.512 0.997682 -1.66963 0
M  V30 10173 O 983.767 1.71349 -0.94541 0
M  V30 10174 C 984.066 -0.6201 -3.51979 0
M  V30 10175 C 983.732 -2.03155 -4.02541 0
M  V30 10176 C 982.394 -2.4176 -4.16059 0
M  V30 10177 C 984.746 -2.95317 -4.29462 0
M  V30 10178 C 982.074 -3.71818 -4.53837 0
M  V30 10179 C 984.426 -4.24863 -4.68694 0
M  V30 10180 C 983.09 -4.63416 -4.80419 0
M  V30 10181 H 982.36 -0.16271 -0.722915 0
M  V30 10182 H 985.007 -1.07399 -1.58549 0
M  V30 10183 H 983.312 0.092513 -3.91691 0
M  V30 10184 H 985.009 -0.290012 -3.9995 0
M  V30 10185 H 981.599 -1.72174 -3.92497 0
M  V30 10186 H 985.783 -2.66726 -4.18534 0
M  V30 10187 H 981.039 -4.01484 -4.61108 0
M  V30 10188 H 985.213 -4.96347 -4.8848 0
M  V30 10189 H 982.84 -5.6424 -5.09448 0
M  V30 10190 N 984.415 1.45619 -0.602734 0
M  V30 10191 C 985.692 1.9558 -0.0282472 0
M  V30 10192 C 986.072 1.54523 1.43826 0
M  V30 10193 O 985.42 0.805456 2.13833 0
M  V30 10194 C 985.63 3.48298 -0.221263 0
M  V30 10195 C 986.978 4.24483 -0.0995249 0
M  V30 10196 O 988.002 3.55879 -0.151132 0
M  V30 10197 O 986.861 5.46497 0.0194454 0
M  V30 10198 H 983.955 0.826104 0.0384897 0
M  V30 10199 H 986.501 1.55808 -0.672456 0
M  V30 10200 H 985.273 3.71134 -1.23997 0
M  V30 10201 H 984.896 3.94948 0.458437 0
M  V30 10202 N 985.893 0.34162 1.53853 0
M  V30 10203 C 987.17 -0.310664 1.93117 0
M  V30 10204 C 987.55 -1.68398 1.273 0
M  V30 10205 O 986.898 -2.24546 0.423225 0
M  V30 10206 C 987.108 -0.384867 3.46871 0
M  V30 10207 C 988.456 -0.636621 4.198 0
M  V30 10208 O 989.48 -0.467061 3.53125 0
M  V30 10209 O 988.339 -0.964962 5.37913 0
M  V30 10210 H 985.433 -0.180881 0.806977 0
M  V30 10211 H 987.979 0.392656 1.65095 0
M  V30 10212 H 986.751 0.57894 3.86994 0
M  V30 10213 H 986.374 -1.13505 3.81054 0
M  V30 10214 N 987.371 -1.57444 0.0701946 0
M  V30 10215 C 988.648 -1.84826 -0.6402 0
M  V30 10216 C 989.028 -0.962344 -1.87889 0
M  V30 10217 O 988.376 -0.0282209 -2.28483 0
M  V30 10218 C 988.586 -3.34976 -0.979382 0
M  V30 10219 C 989.934 -4.02448 -1.35355 0
M  V30 10220 O 990.958 -3.39713 -1.07116 0
M  V30 10221 O 989.817 -5.13096 -1.88136 0
M  V30 10222 H 986.911 -0.763494 -0.317813 0
M  V30 10223 H 989.457 -1.69399 0.101004 0
M  V30 10224 H 988.229 -3.91173 -0.0995576 0
M  V30 10225 H 987.852 -3.5566 -1.7774 0
M  V30 10226 N 988.849 0.203349 -1.56283 0
M  V30 10227 C 990.074 0.945548 -1.84592 0
M  V30 10228 C 990.499 1.7641 -0.652772 0
M  V30 10229 O 989.857 1.76867 0.398468 0
M  V30 10230 C 989.905 1.82416 -3.11057 0
M  V30 10231 O 989.009 2.92191 -2.9103 0
M  V30 10232 H 988.35 0.266739 -0.608068 0
M  V30 10233 H 990.88 0.211158 -2.03507 0
M  V30 10234 H 990.89 2.23044 -3.41636 0
M  V30 10235 H 989.565 1.22267 -3.97522 0
M  V30 10236 H 988.142 2.55378 -2.71728 0
M  V30 10237 O 990.366 1.57692 0.348646 0
M  V30 10238 H 991.057 1.65979 0.998527 0
M  V30 END ATOM
M  V30 BEGIN BOND
M  V30 END BOND
M  V30 END CTAB
M  END
$$$$
