drugbank_target|Q14032 Bile acid-CoA:amino acid N-acyltransferase (DB00145)
 OpenBabel12092120083D

  0  0  0     0  0            999 V3000
M  V30 BEGIN CTAB
M  V30 COUNTS 6540 6626 0 0 0
M  V30 BEGIN ATOM
M  V30 1 H -0.908 1.98254 -0.117106 0
M  V30 2 N 0 1.576 0 0
M  V30 3 C 0.933 2.03868 1.02534 0
M  V30 4 C 1.911 0.928543 1.3348 0
M  V30 5 O 3.095 1.19667 1.45644 0
M  V30 6 C 0.222 2.43627 2.35294 0
M  V30 7 C -0.732 3.65373 2.2001 0
M  V30 8 S 0.101 5.13292 1.52614 0
M  V30 9 C 1.257 5.56322 2.86805 0
M  V30 10 H 1.49 2.90518 0.631377 0
M  V30 11 H -0.977 1.52953 0.210867 0
M  V30 12 H 0.981 2.67203 3.11629 0
M  V30 13 H -0.358 1.57376 2.7183 0
M  V30 14 H -1.165 3.90944 3.18086 0
M  V30 15 H -1.563 3.418 1.51819 0
M  V30 16 H 0.729 5.58782 3.83104 0
M  V30 17 H 1.672 6.56266 2.65933 0
M  V30 18 H 2.08 4.83886 2.90714 0
M  V30 19 N 1.4781 -0.272755 1.55222 0
M  V30 20 C 2.7271 -1.00211 1.75045 0
M  V30 21 C 3.0401 -1.87441 0.559046 0
M  V30 22 O 4.2461 -2.63856 0.639698 0
M  V30 23 C 2.7021 -1.83165 3.09804 0
M  V30 24 C 2.3101 -1.008 4.36513 0
M  V30 25 C 4.0541 -2.55529 3.38977 0
M  V30 26 C 1.9611 -1.83194 5.62311 0
M  V30 27 H 0.8911 -0.377878 0.652476 0
M  V30 28 H 3.5421 -0.257776 1.8168 0
M  V30 29 H 1.9241 -2.61694 2.97207 0
M  V30 30 H 3.0981 -0.266855 4.60027 0
M  V30 31 H 1.4131 -0.398897 4.14485 0
M  V30 32 H 4.0101 -3.17578 4.30172 0
M  V30 33 H 4.3531 -3.25825 2.59121 0
M  V30 34 H 4.8861 -1.84029 3.52673 0
M  V30 35 H 1.6251 -1.17318 6.44916 0
M  V30 36 H 1.1451 -2.54905 5.4294 0
M  V30 37 H 2.8241 -2.40552 6.00619 0
M  V30 38 N 2.9562 -1.48159 -0.537278 0
M  V30 39 C 3.8882 -1.58218 -1.65831 0
M  V30 40 C 4.9012 -0.466948 -1.5596 0
M  V30 41 O 6.0902 -0.73747 -1.62553 0
M  V30 42 C 3.1902 -1.48906 -3.04434 0
M  V30 43 C 2.3632 -2.75343 -3.3986 0
M  V30 44 C 1.4222 -2.59588 -4.57712 0
M  V30 45 O 0.4482 -3.33457 -4.61297 0
M  V30 46 N 1.6502 -1.68724 -5.55439 0
M  V30 47 H 4.4152 -2.54891 -1.57641 0
M  V30 48 H 1.9762 -1.4479 -0.724386 0
M  V30 49 H 3.9682 -1.36072 -3.81139 0
M  V30 50 H 2.5382 -0.602368 -3.06741 0
M  V30 51 H 1.7582 -3.02795 -2.52406 0
M  V30 52 H 3.0462 -3.5924 -3.60311 0
M  V30 53 H 2.4442 -1.07898 -5.55315 0
M  V30 54 H 1.0012 -1.61832 -6.3139 0
M  V30 55 N 4.4343 0.785586 -1.36625 0
M  V30 56 C 5.3643 1.91259 -1.33949 0
M  V30 57 C 6.3453 1.68795 -0.210325 0
M  V30 58 O 7.5303 1.89854 -0.408561 0
M  V30 59 C 4.6603 3.28339 -1.13186 0
M  V30 60 C 3.6143 3.65335 -2.22967 0
M  V30 61 C 2.9403 5.00806 -1.87342 0
M  V30 62 C 4.2403 3.7352 -3.65075 0
M  V30 63 H 5.9343 1.93755 -2.28253 0
M  V30 64 H 3.4803 0.930788 -1.09874 0
M  V30 65 H 5.4333 4.06804 -1.09948 0
M  V30 66 H 4.1573 3.2624 -0.153332 0
M  V30 67 H 2.8163 2.89169 -2.25337 0
M  V30 68 H 2.4643 4.95233 -0.880545 0
M  V30 69 H 2.1643 5.26529 -2.60846 0
M  V30 70 H 3.6883 5.81687 -1.85667 0
M  V30 71 H 5.1023 4.42168 -3.64911 0
M  V30 72 H 3.4993 4.10731 -4.37516 0
M  V30 73 H 4.5693 2.74527 -3.99703 0
M  V30 74 N 5.9124 1.20967 1.01018 0
M  V30 75 C 7.1404 1.04956 1.78303 0
M  V30 76 C 7.5554 -0.400915 1.84494 0
M  V30 77 O 6.9124 -1.27826 1.30257 0
M  V30 78 C 6.9634 1.63403 3.22462 0
M  V30 79 O 6.6844 3.02775 3.16637 0
M  V30 80 C 8.1854 1.52432 4.16268 0
M  V30 81 H 5.4054 0.368858 0.560522 0
M  V30 82 H 7.9494 1.60193 1.27116 0
M  V30 83 H 6.1044 1.1227 3.70775 0
M  V30 84 H 6.5184 3.30626 4.07169 0
M  V30 85 H 7.9924 1.98078 5.15237 0
M  V30 86 H 8.4694 0.477875 4.36592 0
M  V30 87 H 9.0754 2.02787 3.73841 0
M  V30 88 N 7.3905 -1.2043 1.01659 0
M  V30 89 C 8.3535 -2.21433 0.591616 0
M  V30 90 C 9.3535 -1.57203 -0.338226 0
M  V30 91 O 10.5435 -1.73737 -0.126918 0
M  V30 92 C 7.6755 -3.40628 -0.136058 0
M  V30 93 H 8.8685 -2.60545 1.48514 0
M  V30 94 H 6.4215 -1.33893 0.806379 0
M  V30 95 H 7.1565 -3.07019 -1.04449 0
M  V30 96 H 6.9415 -3.88475 0.531917 0
M  V30 97 H 8.4315 -4.15475 -0.420735 0
M  V30 98 N 8.8686 -0.792821 -1.36206 0
M  V30 99 C 10.0966 -0.378825 -2.03402 0
M  V30 100 C 10.5116 1.00586 -1.59774 0
M  V30 101 O 9.8686 1.64574 -0.788764 0
M  V30 102 C 9.9196 -0.43683 -3.58851 0
M  V30 103 O 9.6406 -1.76691 -4.00889 0
M  V30 104 C 11.1416 -0.0138943 -4.43298 0
M  V30 105 H 8.3616 -0.155673 -0.652692 0
M  V30 106 H 10.9056 -1.07261 -1.74113 0
M  V30 107 H 9.0606 0.208575 -3.86838 0
M  V30 108 H 9.4746 -1.72011 -4.95492 0
M  V30 109 H 10.9486 -0.105615 -5.51899 0
M  V30 110 H 11.4256 1.03915 -4.2673 0
M  V30 111 H 12.0316 -0.63192 -4.20579 0
M  V30 112 N 10.3467 1.47872 -0.545128 0
M  V30 113 C 11.7577 1.86384 -0.108581 0
M  V30 114 C 12.1087 1.45309 1.31832 0
M  V30 115 O 11.2337 0.850641 1.9898 0
M  V30 116 C 11.8287 3.38265 -0.190274 0
M  V30 117 C 10.3877 3.75914 0.191164 0
M  V30 118 C 9.5347 2.71926 -0.543273 0
M  V30 119 H 12.4857 1.39561 -0.755537 0
M  V30 120 H 12.5067 3.75831 0.594217 0
M  V30 121 H 12.0187 3.6813 -1.2289 0
M  V30 122 H 10.1197 3.51665 1.23136 0
M  V30 123 H 10.2327 4.78836 -0.158987 0
M  V30 124 H 8.5967 2.54697 0.0122495 0
M  V30 125 H 9.3797 3.04634 -1.58282 0
M  V30 126 N 11.8248 0.280983 1.55075 0
M  V30 127 C 13.0708 -0.33461 2.00021 0
M  V30 128 C 13.4038 -1.55063 1.16915 0
M  V30 129 O 12.6788 -1.93006 0.240646 0
M  V30 130 C 12.9618 -0.711007 3.53011 0
M  V30 131 C 12.8148 0.512766 4.46868 0
M  V30 132 C 14.1338 -1.54522 4.12081 0
M  V30 133 H 11.2528 -0.120147 0.727141 0
M  V30 134 H 13.8948 0.389097 1.85973 0
M  V30 135 H 12.0448 -1.32761 3.65112 0
M  V30 136 H 13.7168 1.15131 4.46702 0
M  V30 137 H 11.9598 1.14975 4.18286 0
M  V30 138 H 12.6308 0.205556 5.51617 0
M  V30 139 H 15.1068 -1.02442 4.03293 0
M  V30 140 H 13.9828 -1.77739 5.19327 0
M  V30 141 H 14.2438 -2.52813 3.62682 0
M  V30 142 N 13.3029 -1.57598 0.00835791 0
M  V30 143 C 14.5279 -1.95617 -0.689103 0
M  V30 144 C 14.9529 -0.883753 -1.66046 0
M  V30 145 O 14.3109 0.157352 -1.80616 0
M  V30 146 C 14.3589 -3.32736 -1.38994 0
M  V30 147 O 13.4629 -3.27631 -2.50463 0
M  V30 148 H 12.8039 -0.638379 -0.182668 0
M  V30 149 H 15.3339 -2.045 0.064036 0
M  V30 150 H 15.3439 -3.68494 -1.75147 0
M  V30 151 H 14.0189 -4.1034 -0.677778 0
M  V30 152 H 12.5959 -3.03561 -2.16576 0
M  V30 153 N 14.781 0.264519 -1.55364 0
M  V30 154 C 15.744 1.31046 -1.88042 0
M  V30 155 C 16.744 1.41943 -0.755569 0
M  V30 156 O 17.934 1.40947 -1.02369 0
M  V30 157 C 15.066 2.69067 -2.09323 0
M  V30 158 H 16.259 1.03297 -2.81549 0
M  V30 159 H 13.812 0.502989 -1.47986 0
M  V30 160 H 14.547 3.01982 -1.18226 0
M  V30 161 H 14.332 2.62542 -2.91229 0
M  V30 162 H 15.822 3.44623 -2.35848 0
M  V30 163 N 16.2591 1.48442 0.529413 0
M  V30 164 C 17.1891 1.65902 1.64313 0
M  V30 165 C 18.1701 0.507897 1.6234 0
M  V30 166 O 19.3551 0.740503 1.79528 0
M  V30 167 C 16.4851 1.69911 3.02898 0
M  V30 168 C 15.4391 2.8453 3.19729 0
M  V30 169 C 14.7651 2.73629 4.59381 0
M  V30 170 C 16.0651 4.25821 3.02447 0
M  V30 171 H 17.7591 2.5914 1.49955 0
M  V30 172 H 15.3051 1.24709 0.719982 0
M  V30 173 H 17.2581 1.80715 3.80684 0
M  V30 174 H 15.9821 0.732524 3.18279 0
M  V30 175 H 14.6411 2.73283 2.44361 0
M  V30 176 H 14.2891 1.74938 4.71599 0
M  V30 177 H 13.9891 3.50541 4.71588 0
M  V30 178 H 15.5131 2.86401 5.39265 0
M  V30 179 H 16.9271 4.37898 3.70024 0
M  V30 180 H 15.3241 5.03735 3.26146 0
M  V30 181 H 16.3941 4.42244 1.98867 0
M  V30 182 N 17.7372 -0.778329 1.37039 0
M  V30 183 C 18.9832 -1.53892 1.32079 0
M  V30 184 C 19.3162 -1.9396 -0.0965386 0
M  V30 185 O 18.5912 -1.63568 -1.05242 0
M  V30 186 C 18.8742 -2.80847 2.25382 0
M  V30 187 C 18.7272 -2.47076 3.75864 0
M  V30 188 C 20.0462 -3.82741 2.1725 0
M  V30 189 H 17.1652 -0.558303 0.48111 0
M  V30 190 H 19.8072 -0.893397 1.67685 0
M  V30 191 H 17.9572 -3.35931 1.95148 0
M  V30 192 H 19.6292 -1.97957 4.16666 0
M  V30 193 H 17.8722 -1.79863 3.94755 0
M  V30 194 H 18.5432 -3.37798 4.36574 0
M  V30 195 H 21.0192 -3.37133 2.43887 0
M  V30 196 H 19.8952 -4.69303 2.84686 0
M  V30 197 H 20.1562 -4.2652 1.16331 0
M  V30 198 N 19.2153 -1.21501 -1.00376 0
M  V30 199 C 20.4923 -0.941745 -1.71437 0
M  V30 200 C 20.8723 0.546114 -2.03914 0
M  V30 201 O 20.2203 1.51128 -1.71384 0
M  V30 202 C 20.4303 -1.82812 -2.97289 0
M  V30 203 C 21.7783 -2.07771 -3.70292 0
M  V30 204 O 22.8023 -1.80171 -3.07273 0
M  V30 205 O 21.6613 -2.54456 -4.83647 0
M  V30 206 H 18.7553 -0.353243 -0.747762 0
M  V30 207 H 21.3013 -1.32436 -1.06108 0
M  V30 208 H 20.0733 -2.83501 -2.69709 0
M  V30 209 H 19.6963 -1.4464 -3.70358 0
M  V30 210 N 20.6934 1.19889 -1.02296 0
M  V30 211 C 21.6034 2.26571 -0.608508 0
M  V30 212 C 22.6194 1.70299 0.356964 0
M  V30 213 O 23.7954 2.00235 0.216326 0
M  V30 214 C 20.8604 3.46677 0.0402814 0
M  V30 215 C 19.9214 4.18153 -0.97194 0
M  V30 216 C 19.1544 5.32525 -0.354016 0
M  V30 217 O 19.3774 5.64112 0.844604 0
M  V30 218 O 18.3114 5.92242 -1.07391 0
M  V30 219 H 22.1374 2.64251 -1.49684 0
M  V30 220 H 19.7224 1.26629 -0.792809 0
M  V30 221 H 21.6044 4.19475 0.402324 0
M  V30 222 H 20.2794 3.10858 0.902707 0
M  V30 223 H 19.1864 3.47499 -1.38546 0
M  V30 224 H 20.5194 4.57927 -1.80454 0
M  V30 225 N 22.1715 0.800033 1.35784 0
M  V30 226 C 23.5825 0.439142 1.81462 0
M  V30 227 C 23.9335 -1.03813 1.66485 0
M  V30 228 O 23.0585 -1.80626 1.19177 0
M  V30 229 C 23.6535 0.790314 3.29453 0
M  V30 230 C 22.2125 0.482111 3.733 0
M  V30 231 C 21.3595 1.01938 2.57883 0
M  V30 232 H 24.3105 0.992254 1.23855 0
M  V30 233 H 24.3315 0.0853677 3.80404 0
M  V30 234 H 23.8435 1.86554 3.40322 0
M  V30 235 H 21.9445 -0.584652 3.67984 0
M  V30 236 H 22.0575 1.01015 4.6833 0
M  V30 237 H 20.4215 0.442043 2.50835 0
M  V30 238 H 21.2045 2.10059 2.71533 0
M  V30 239 N 23.6496 -1.47581 0.552962 0
M  V30 240 C 24.8956 -2.02782 0.0273648 0
M  V30 241 C 25.2286 -1.42687 -1.31734 0
M  V30 242 O 24.5036 -0.580897 -1.85623 0
M  V30 243 C 24.7866 -3.60031 -0.0702371 0
M  V30 244 C 24.6396 -4.30566 1.30126 0
M  V30 245 C 25.9586 -4.33028 -0.785771 0
M  V30 246 H 23.0776 -0.736912 0.0114185 0
M  V30 247 H 25.7196 -1.76056 0.714432 0
M  V30 248 H 23.8696 -3.82932 -0.655382 0
M  V30 249 H 25.5416 -4.19018 1.92929 0
M  V30 250 H 23.7846 -3.91086 1.87709 0
M  V30 251 H 24.4556 -5.39114 1.18573 0
M  V30 252 H 26.9316 -4.15095 -0.288982 0
M  V30 253 H 25.8076 -5.42695 -0.823013 0
M  V30 254 H 26.0686 -4.01945 -1.841 0
M  V30 255 N 25.1277 -0.289203 -1.54924 0
M  V30 256 C 26.0777 0.606939 -2.19773 0
M  V30 257 C 27.0617 1.10783 -1.16687 0
M  V30 258 O 28.2537 1.05057 -1.4245 0
M  V30 259 C 25.3827 1.78398 -2.93307 0
M  V30 260 C 24.4687 1.29961 -4.03697 0
M  V30 261 N 24.8597 0.532377 -5.0299 0
M  V30 262 C 23.1577 1.58136 -4.17024 0
M  V30 263 C 23.8587 0.275912 -5.81045 0
M  V30 264 N 22.8347 0.852365 -5.36876 0
M  V30 265 H 26.6367 0.0130779 -2.93897 0
M  V30 266 H 24.1507 -0.09341 -1.62131 0
M  V30 267 H 26.1477 2.43741 -3.38225 0
M  V30 268 H 24.8077 2.38166 -2.20697 0
M  V30 269 H 25.8187 0.17838 -5.17593 0
M  V30 270 H 22.4957 2.18738 -3.55612 0
M  V30 271 H 23.8857 -0.339502 -6.71042 0
M  V30 272 N 26.6058 1.57591 -0.0167156 0
M  V30 273 C 27.8548 1.90461 0.663877 0
M  V30 274 C 28.1678 0.893515 1.73999 0
M  V30 275 O 29.3738 1.11302 2.47637 0
M  V30 276 C 27.8298 3.38155 1.23204 0
M  V30 277 C 27.4378 4.47597 0.189866 0
M  V30 278 C 29.1818 3.80111 1.88986 0
M  V30 279 C 27.0888 5.86379 0.768964 0
M  V30 280 H 26.0188 0.710738 0.251729 0
M  V30 281 H 28.6698 1.83326 -0.0799926 0
M  V30 282 H 27.0518 3.40182 2.02712 0
M  V30 283 H 28.2258 4.57112 -0.581846 0
M  V30 284 H 26.5408 4.14766 -0.368475 0
M  V30 285 H 29.1378 4.81145 2.33247 0
M  V30 286 H 29.4808 3.14511 2.72743 0
M  V30 287 H 30.0138 3.80454 1.16187 0
M  V30 288 H 26.7528 6.55493 -0.0301957 0
M  V30 289 H 26.2728 5.80496 1.50945 0
M  V30 290 H 27.9518 6.34563 1.26251 0
M  V30 291 N 28.0839 -0.256276 1.55502 0
M  V30 292 C 29.4999 -0.604325 1.47716 0
M  V30 293 C 29.6999 -1.88763 0.705039 0
M  V30 294 O 28.7559 -2.51445 0.230613 0
M  V30 295 C 30.0689 -0.715756 2.92057 0
M  V30 296 C 31.6169 -0.808706 3.02372 0
M  V30 297 C 32.0919 -0.951777 4.48001 0
M  V30 298 N 33.5829 -1.01688 4.519 0
M  V30 299 C 34.3179 -1.14668 5.61817 0
M  V30 300 N 33.8139 -1.24261 6.81565 0
M  V30 301 N 35.6069 -1.1791 5.49594 0
M  V30 302 H 27.7579 0.586291 2.04148 0
M  V30 303 H 30.0209 0.201015 0.926443 0
M  V30 304 H 29.7269 0.157027 3.51349 0
M  V30 305 H 29.6009 -1.59071 3.42018 0
M  V30 306 H 31.9879 -1.67195 2.43166 0
M  V30 307 H 32.0689 0.0912063 2.55637 0
M  V30 308 H 31.7129 -0.0931291 5.07815 0
M  V30 309 H 31.6429 -1.86659 4.92408 0
M  V30 310 H 34.1339 -0.954468 3.65648 0
M  V30 311 H 34.4469 -1.34046 7.61086 0
M  V30 312 H 32.7919 -1.21236 6.84344 0
M  V30 313 H 35.9829 -1.10057 4.54978 0
M  V30 314 H 36.1559 -1.27681 6.35296 0
M  V30 315 N 29.562 -1.4872 -0.521534 0
M  V30 316 C 30.525 -1.63379 -1.60748 0
M  V30 317 C 31.525 -0.50661 -1.52611 0
M  V30 318 O 32.715 -0.772601 -1.5613 0
M  V30 319 C 29.847 -1.61192 -3.00383 0
M  V30 320 H 31.04 -2.60217 -1.49087 0
M  V30 321 H 28.593 -1.37444 -0.744235 0
M  V30 322 H 29.328 -0.65863 -3.17541 0
M  V30 323 H 29.113 -2.43032 -3.07698 0
M  V30 324 H 30.603 -1.7466 -3.7932 0
M  V30 325 N 31.0401 0.771051 -1.3745 0
M  V30 326 C 32.2681 1.56015 -1.35893 0
M  V30 327 C 32.6831 1.88718 0.0555523 0
M  V30 328 O 32.0401 1.51502 1.01752 0
M  V30 329 C 32.0911 2.87001 -2.19801 0
M  V30 330 O 31.8121 2.557 -3.55738 0
M  V30 331 C 33.3131 3.81228 -2.26231 0
M  V30 332 H 30.5331 0.483317 -0.465453 0
M  V30 333 H 33.0771 0.955611 -1.80799 0
M  V30 334 H 31.2321 3.43877 -1.78402 0
M  V30 335 H 31.6461 3.39584 -3.99729 0
M  V30 336 H 33.1201 4.70139 -2.89263 0
M  V30 337 H 33.5971 4.20409 -1.27093 0
M  V30 338 H 34.2031 3.30281 -2.67945 0
M  V30 339 N 32.5182 1.22032 0.997298 0
M  V30 340 C 33.7662 1.04016 1.73278 0
M  V30 341 C 34.0872 -0.426255 1.90284 0
M  V30 342 O 33.3572 -1.30694 1.45931 0
M  V30 343 H 31.9372 0.381897 0.642 0
M  V30 344 H 34.5992 1.5347 1.20137 0
M  V30 345 H 33.6952 1.51441 2.72896 0
M  V30 346 N 33.9963 -1.19345 1.0293 0
M  V30 347 C 34.9263 -2.2481 0.631105 0
M  V30 348 C 35.9073 -1.66245 -0.360104 0
M  V30 349 O 37.0923 -1.92677 -0.242726 0
M  V30 350 C 34.2223 -3.47295 -0.0184607 0
M  V30 351 C 33.1763 -4.18536 0.895073 0
M  V30 352 C 32.5023 -5.34586 0.110592 0
M  V30 353 C 33.8023 -4.73287 2.209 0
M  V30 354 H 35.4963 -2.58372 1.51275 0
M  V30 355 H 33.0423 -1.24194 0.728818 0
M  V30 356 H 34.9953 -4.20268 -0.308675 0
M  V30 357 H 33.7193 -3.12933 -0.934907 0
M  V30 358 H 32.3783 -3.47446 1.16949 0
M  V30 359 H 32.0263 -4.96469 -0.807902 0
M  V30 360 H 31.7263 -5.83183 0.719087 0
M  V30 361 H 33.2503 -6.10355 -0.172871 0
M  V30 362 H 34.6643 -5.38013 1.98028 0
M  V30 363 H 33.0613 -5.32373 2.76946 0
M  V30 364 H 34.1313 -3.91331 2.86336 0
M  V30 365 N 35.4744 -0.807222 -1.35358 0
M  V30 366 C 36.7234 -0.384376 -1.98004 0
M  V30 367 C 37.0364 1.0543 -1.64754 0
M  V30 368 O 38.2424 1.58029 -2.20769 0
M  V30 369 C 36.6984 -0.636326 -3.5423 0
M  V30 370 C 36.3064 -2.08759 -3.96388 0
M  V30 371 C 38.0504 -0.278869 -4.23583 0
M  V30 372 C 35.9574 -2.28525 -5.45463 0
M  V30 373 H 34.8874 -0.139986 -0.740891 0
M  V30 374 H 37.5384 -0.991369 -1.54415 0
M  V30 375 H 35.9204 0.0406256 -3.95979 0
M  V30 376 H 37.0944 -2.8024 -3.6579 0
M  V30 377 H 35.4094 -2.40497 -3.39926 0
M  V30 378 H 38.0064 -0.404599 -5.33167 0
M  V30 379 H 38.3494 0.775012 -4.09022 0
M  V30 380 H 38.8824 -0.909764 -3.87257 0
M  V30 381 H 35.6214 -3.32361 -5.64992 0
M  V30 382 H 35.1414 -1.61569 -5.77629 0
M  V30 383 H 36.8204 -2.10109 -6.11934 0
M  V30 384 N 36.9525 1.47285 -0.560781 0
M  V30 385 C 38.3635 1.86258 -0.128343 0
M  V30 386 C 38.7145 1.46699 1.30284 0
M  V30 387 O 37.8395 0.871698 1.98067 0
M  V30 388 C 38.4345 3.38044 -0.22614 0
M  V30 389 C 36.9935 3.76096 0.151283 0
M  V30 390 C 36.1405 2.71335 -0.572084 0
M  V30 391 H 39.0915 1.38752 -0.770297 0
M  V30 392 H 39.1125 3.76441 0.554322 0
M  V30 393 H 38.6245 3.66806 -1.26788 0
M  V30 394 H 36.7255 3.52951 1.19399 0
M  V30 395 H 36.8385 4.78641 -0.209765 0
M  V30 396 H 35.2025 2.54696 -0.0147653 0
M  V30 397 H 35.9855 3.02938 -1.61504 0
M  V30 398 N 38.4306 0.297415 1.54768 0
M  V30 399 C 39.6776 -0.312913 2.00068 0
M  V30 400 C 40.0056 -1.54171 1.18582 0
M  V30 401 O 39.2606 -1.94108 0.249133 0
M  V30 402 C 39.5596 -0.717561 3.50123 0
M  V30 403 C 39.2256 0.409095 4.4904 0
M  V30 404 C 37.8876 0.718399 4.75807 0
M  V30 405 C 40.2396 1.16717 5.07963 0
M  V30 406 C 37.5676 1.78896 5.5876 0
M  V30 407 C 39.9196 2.22762 5.92081 0
M  V30 408 C 38.5836 2.54303 6.1716 0
M  V30 409 H 37.8536 -0.114503 0.7321 0
M  V30 410 H 40.5006 0.415767 1.86932 0
M  V30 411 H 38.8056 -1.52627 3.60849 0
M  V30 412 H 40.5026 -1.20091 3.82595 0
M  V30 413 H 37.0926 0.157918 4.28309 0
M  V30 414 H 41.2766 0.941466 4.87289 0
M  V30 415 H 36.5326 2.0381 5.7643 0
M  V30 416 H 40.7066 2.81962 6.36765 0
M  V30 417 H 38.3336 3.3739 6.81229 0
M  V30 418 N 39.9087 -1.5758 0.0250728 0
M  V30 419 C 40.8407 -2.06869 -0.986796 0
M  V30 420 C 41.8537 -0.991332 -1.29137 0
M  V30 421 O 43.0427 -1.26761 -1.25674 0
M  V30 422 C 40.1427 -2.47486 -2.31525 0
M  V30 423 C 39.3157 -3.78253 -2.19643 0
M  V30 424 C 38.3747 -4.05464 -3.35388 0
M  V30 425 O 37.4007 -4.75774 -3.12454 0
M  V30 426 N 38.6027 -3.55321 -4.59051 0
M  V30 427 H 41.3677 -2.94302 -0.566276 0
M  V30 428 H 38.9287 -1.6109 -0.161776 0
M  V30 429 H 40.9207 -2.62785 -3.07776 0
M  V30 430 H 39.4907 -1.65441 -2.65232 0
M  V30 431 H 38.7107 -3.7279 -1.28144 0
M  V30 432 H 39.9987 -4.63936 -2.08903 0
M  V30 433 H 39.3967 -2.98431 -4.80578 0
M  V30 434 H 37.9537 -3.75905 -5.32483 0
M  V30 435 N 41.3868 0.248026 -1.55636 0
M  V30 436 C 42.3198 1.3334 -1.85191 0
M  V30 437 C 43.2978 1.46429 -0.706906 0
M  V30 438 O 44.4818 1.62662 -0.952544 0
M  V30 439 C 41.6088 2.70703 -2.03562 0
M  V30 440 C 40.6548 2.7477 -3.26196 0
M  V30 441 S 41.4878 2.31493 -4.82878 0
M  V30 442 C 42.6438 3.70783 -5.04253 0
M  V30 443 H 42.8768 1.08072 -2.76962 0
M  V30 444 H 40.4098 0.448952 -1.47729 0
M  V30 445 H 42.3678 3.49798 -2.1483 0
M  V30 446 H 41.0288 2.9321 -1.12635 0
M  V30 447 H 40.2218 3.75648 -3.36013 0
M  V30 448 H 39.8238 2.03719 -3.13647 0
M  V30 449 H 42.1158 4.6627 -4.91527 0
M  V30 450 H 43.0588 3.65901 -6.06236 0
M  V30 451 H 43.4668 3.63244 -4.32105 0
M  V30 452 N 42.8649 1.48995 0.513639 0
M  V30 453 C 44.1109 1.58076 1.27042 0
M  V30 454 C 44.4439 0.261026 1.92438 0
M  V30 455 O 43.7189 -0.734393 1.80103 0
M  V30 456 C 44.0019 2.73091 2.34719 0
M  V30 457 C 43.8549 4.14821 1.73907 0
M  V30 458 C 45.1739 2.83796 3.36375 0
M  V30 459 H 42.2929 0.575391 0.460536 0
M  V30 460 H 44.9349 1.81232 0.570516 0
M  V30 461 H 43.0849 2.53479 2.94416 0
M  V30 462 H 44.7569 4.45917 1.18135 0
M  V30 463 H 42.9999 4.21058 1.0437 0
M  V30 464 H 43.6709 4.91147 2.51949 0
M  V30 465 H 46.1469 3.01611 2.86653 0
M  V30 466 H 45.0229 3.65971 4.09093 0
M  V30 467 H 45.2839 1.92624 3.9793 0
M  V30 468 N 44.343 -0.763751 1.37857 0
M  V30 469 C 45.568 -1.55805 1.36893 0
M  V30 470 C 45.993 -1.88054 -0.0416135 0
M  V30 471 O 45.351 -1.49825 -1.02089 0
M  V30 472 C 45.399 -2.84012 2.22192 0
M  V30 473 O 44.503 -3.78732 1.63204 0
M  V30 474 H 43.844 -0.471638 0.46739 0
M  V30 475 H 46.374 -0.944657 1.81487 0
M  V30 476 H 46.384 -3.33037 2.35691 0
M  V30 477 H 45.059 -2.59869 3.24716 0
M  V30 478 H 43.636 -3.37402 1.58791 0
M  V30 479 N 45.8211 -1.22559 -0.990812 0
M  V30 480 C 47.0681 -1.05141 -1.73065 0
M  V30 481 C 47.3961 0.413191 -1.9006 0
M  V30 482 O 46.6511 1.32257 -1.44245 0
M  V30 483 C 46.9501 -1.71011 -3.13831 0
M  V30 484 C 46.6161 -3.20911 -3.16745 0
M  V30 485 C 45.2781 -3.61812 -3.17247 0
M  V30 486 C 47.6301 -4.16846 -3.12872 0
M  V30 487 C 44.9581 -4.97127 -3.1158 0
M  V30 488 C 47.3101 -5.5214 -3.08746 0
M  V30 489 C 45.9741 -5.92419 -3.07565 0
M  V30 490 H 45.2441 -0.384738 -0.633291 0
M  V30 491 H 47.8911 -1.5235 -1.16025 0
M  V30 492 H 46.1961 -1.16133 -3.74193 0
M  V30 493 H 47.8931 -1.55023 -3.69823 0
M  V30 494 H 44.4831 -2.88344 -3.17105 0
M  V30 495 H 48.6671 -3.86263 -3.11632 0
M  V30 496 H 43.9231 -5.27562 -3.09012 0
M  V30 497 H 48.0971 -6.26201 -3.04705 0
M  V30 498 H 45.7241 -6.97236 -3.02929 0
M  V30 499 N 47.2992 1.18797 -1.03562 0
M  V30 500 C 48.2312 2.21731 -0.580337 0
M  V30 501 C 49.2442 1.59051 0.347349 0
M  V30 502 O 50.4332 1.77929 0.142669 0
M  V30 503 C 47.5332 3.38459 0.172805 0
M  V30 504 C 46.7062 4.3072 -0.761496 0
M  V30 505 C 45.7652 5.26174 -0.0525547 0
M  V30 506 O 44.7912 5.65108 -0.681333 0
M  V30 507 N 45.9932 5.67624 1.21586 0
M  V30 508 H 48.7582 2.61417 -1.46565 0
M  V30 509 H 46.3192 1.33531 -0.915476 0
M  V30 510 H 48.3112 3.99335 0.656793 0
M  V30 511 H 46.8812 2.97507 0.959602 0
M  V30 512 H 46.1012 3.67525 -1.42544 0
M  V30 513 H 47.3892 4.89267 -1.39626 0
M  V30 514 H 46.7872 5.38038 1.74732 0
M  V30 515 H 45.3442 6.30721 1.64421 0
M  V30 516 N 48.7773 0.814389 1.34928 0
M  V30 517 C 49.7403 0.235759 2.27984 0
M  V30 518 C 50.7403 -0.581412 1.49921 0
M  V30 519 O 51.9303 -0.398758 1.69575 0
M  V30 520 C 49.0623 -0.670433 3.34242 0
M  V30 521 H 50.2553 1.05659 2.80671 0
M  V30 522 H 47.8083 0.585614 1.44915 0
M  V30 523 H 48.5433 -1.51466 2.86755 0
M  V30 524 H 48.3283 -0.0860822 3.92005 0
M  V30 525 H 49.8183 -1.06935 4.03676 0
M  V30 526 N 50.2554 -1.46986 0.568584 0
M  V30 527 C 51.4804 -2.07335 0.0520528 0
M  V30 528 C 51.9054 -1.41675 -1.23733 0
M  V30 529 O 51.2634 -0.495623 -1.74394 0
M  V30 530 C 51.3114 -3.60417 -0.11501 0
M  V30 531 O 50.4154 -3.95309 -1.17492 0
M  V30 532 H 49.7564 -0.661597 0.0564385 0
M  V30 533 H 52.2864 -1.88837 0.787507 0
M  V30 534 H 52.2964 -4.06698 -0.325644 0
M  V30 535 H 50.9714 -4.07601 0.826675 0
M  V30 536 H 49.5484 -3.60757 -0.943869 0
M  V30 537 N 51.7335 -0.305618 -1.54608 0
M  V30 538 C 52.6635 0.561482 -2.26649 0
M  V30 539 C 53.6445 1.13415 -1.26772 0
M  V30 540 O 54.8295 1.16262 -1.55553 0
M  V30 541 C 51.9595 1.73122 -3.01075 0
M  V30 542 C 50.9135 1.2887 -4.08138 0
M  V30 543 C 50.2395 2.54396 -4.70305 0
M  V30 544 C 51.5395 0.416578 -5.20636 0
M  V30 545 H 53.2335 -0.0393902 -2.99374 0
M  V30 546 H 50.7795 -0.020385 -1.43986 0
M  V30 547 H 52.7325 2.34396 -3.50195 0
M  V30 548 H 51.4565 2.3584 -2.25936 0
M  V30 549 H 50.1155 0.698991 -3.59875 0
M  V30 550 H 49.7635 3.15439 -3.918 0
M  V30 551 H 49.4635 2.25486 -5.42614 0
M  V30 552 H 50.9875 3.16464 -5.2219 0
M  V30 553 H 52.4015 0.935116 -5.65622 0
M  V30 554 H 50.7985 0.221046 -5.99693 0
M  V30 555 H 51.8685 -0.557162 -4.81688 0
M  V30 556 N 53.2116 1.57565 -0.0334293 0
M  V30 557 C 54.1216 2.13943 0.962572 0
M  V30 558 C 55.1376 1.09276 1.35406 0
M  V30 559 O 56.3136 1.41355 1.4346 0
M  V30 560 C 53.3786 2.65887 2.22497 0
M  V30 561 C 52.4396 3.85286 1.8935 0
M  V30 562 C 51.6726 4.34743 3.09571 0
M  V30 563 O 51.8956 3.83352 4.22371 0
M  V30 564 O 50.8296 5.26538 2.91618 0
M  V30 565 H 54.6556 2.99333 0.513169 0
M  V30 566 H 52.2406 1.4822 0.18743 0
M  V30 567 H 54.1226 2.99346 2.96598 0
M  V30 568 H 52.7976 1.83578 2.6661 0
M  V30 569 H 51.7046 3.56746 1.1262 0
M  V30 570 H 53.0376 4.68771 1.5005 0
M  V30 571 N 54.6897 -0.239769 1.55765 0
M  V30 572 C 55.9667 -0.990056 1.68693 0
M  V30 573 C 56.3467 -2.03107 0.5754 0
M  V30 574 O 55.6947 -2.24604 -0.42017 0
M  V30 575 C 55.9047 -1.61696 3.09282 0
M  V30 576 C 57.2527 -2.11613 3.6811 0
M  V30 577 O 58.2767 -1.71624 3.12127 0
M  V30 578 O 57.1357 -2.85057 4.66267 0
M  V30 579 H 54.2297 -0.461299 0.686391 0
M  V30 580 H 56.7757 -0.232991 1.68093 0
M  V30 581 H 55.5477 -0.864357 3.81634 0
M  V30 582 H 55.1707 -2.44005 3.13923 0
M  V30 583 N 56.1678 -1.49265 -0.50573 0
M  V30 584 C 57.0778 -1.68312 -1.63427 0
M  V30 585 C 58.0938 -0.565682 -1.64548 0
M  V30 586 O 59.2698 -0.839801 -1.83055 0
M  V30 587 C 56.3348 -1.74107 -2.99813 0
M  V30 588 C 55.3958 -2.97653 -3.09356 0
M  V30 589 C 54.6288 -3.03163 -4.39236 0
M  V30 590 O 54.8518 -2.16396 -5.27758 0
M  V30 591 O 53.7858 -3.9558 -4.53652 0
M  V30 592 H 57.6118 -2.63907 -1.50289 0
M  V30 593 H 55.1968 -1.32951 -0.681502 0
M  V30 594 H 57.0788 -1.803 -3.80881 0
M  V30 595 H 55.7538 -0.816901 -3.13223 0
M  V30 596 H 54.6608 -2.96981 -2.27493 0
M  V30 597 H 55.9938 -3.89535 -3.00871 0
M  V30 598 N 57.6459 0.756429 -1.3826 0
M  V30 599 C 58.5939 1.89149 -1.35372 0
M  V30 600 C 59.5879 1.67691 -0.24004 0
M  V30 601 O 60.7939 1.75294 -0.408919 0
M  V30 602 H 57.1689 0.622271 -0.422236 0
M  V30 603 H 59.1399 1.88701 -2.31159 0
M  V30 604 C 57.8889 3.26599 -1.19284 0
M  V30 605 H 57.2119 3.43695 -2.0424 0
M  V30 606 H 58.6519 4.06274 -1.21316 0
M  V30 607 C 57.1109 3.3675 0.100454 0
M  V30 608 O 57.6409 3.86951 1.07851 0
M  V30 609 N 55.8469 2.90179 0.15633 0
M  V30 610 H 55.3939 2.49517 -0.640253 0
M  V30 611 H 55.3519 2.97352 1.02123 0
M  V30 612 N 59.124 1.23083 0.984299 0
M  V30 613 C 60.372 1.05848 1.72165 0
M  V30 614 C 60.693 -0.406049 1.90726 0
M  V30 615 O 59.963 -1.29139 1.47309 0
M  V30 616 H 58.543 0.388685 0.637913 0
M  V30 617 H 61.205 1.54736 1.18503 0
M  V30 618 H 60.301 1.54327 2.71274 0
M  V30 619 N 60.6021 -1.18246 1.0419 0
M  V30 620 C 61.8791 -1.84121 0.660208 0
M  V30 621 C 62.2591 -1.92778 -0.860221 0
M  V30 622 O 61.6071 -1.45464 -1.76217 0
M  V30 623 C 61.8171 -3.22355 1.33747 0
M  V30 624 C 63.1651 -3.98376 1.46906 0
M  V30 625 O 64.1891 -3.31799 1.29568 0
M  V30 626 O 63.0481 -5.17665 1.75171 0
M  V30 627 H 60.1421 -0.794036 0.231161 0
M  V30 628 H 62.6881 -1.25628 1.14087 0
M  V30 629 H 61.4601 -3.10964 2.37522 0
M  V30 630 H 61.0831 -3.88506 0.845515 0
M  V30 631 N 62.0802 -0.821533 -1.34494 0
M  V30 632 C 63.0132 -0.187704 -2.27427 0
M  V30 633 C 63.9912 0.65507 -1.48821 0
M  V30 634 O 65.1752 0.619111 -1.78043 0
M  V30 635 C 62.3022 0.737996 -3.30562 0
M  V30 636 C 61.3482 -0.0270713 -4.26491 0
M  V30 637 S 62.1812 -1.37329 -5.17592 0
M  V30 638 C 63.3372 -0.452427 -6.24263 0
M  V30 639 H 63.5702 -0.975598 -2.80837 0
M  V30 640 H 61.1032 -0.61736 -1.4152 0
M  V30 641 H 63.0612 1.26654 -3.90473 0
M  V30 642 H 61.7222 1.4994 -2.76001 0
M  V30 643 H 60.9152 0.6766 -4.99438 0
M  V30 644 H 60.5172 -0.48612 -3.70827 0
M  V30 645 H 62.8092 0.356557 -6.76561 0
M  V30 646 H 63.7522 -1.15153 -6.98674 0
M  V30 647 H 64.1602 -0.0414755 -5.64485 0
M  V30 648 N 63.5583 1.46682 -0.576371 0
M  V30 649 C 64.8053 2.02412 -0.0595339 0
M  V30 650 C 65.1333 1.44859 1.29793 0
M  V30 651 O 64.3883 0.601099 1.8624 0
M  V30 652 C 64.6873 3.57345 0.062886 0
M  V30 653 C 64.3533 4.33908 -1.22616 0
M  V30 654 C 63.0153 4.54544 -1.57933 0
M  V30 655 C 65.3673 4.77919 -2.07948 0
M  V30 656 C 62.6953 5.16444 -2.78393 0
M  V30 657 C 65.0473 5.41149 -3.27629 0
M  V30 658 C 63.7113 5.60014 -3.63236 0
M  V30 659 H 62.9813 0.74068 -0.021785 0
M  V30 660 H 65.6283 1.76128 -0.751735 0
M  V30 661 H 63.9333 3.82729 0.838178 0
M  V30 662 H 65.6303 3.98136 0.478439 0
M  V30 663 H 62.2203 4.18138 -0.941202 0
M  V30 664 H 66.4043 4.61738 -1.81967 0
M  V30 665 H 61.6603 5.29242 -3.06126 0
M  V30 666 H 65.8343 5.74211 -3.94023 0
M  V30 667 H 63.4613 6.07748 -4.56669 0
M  V30 668 N 65.0364 0.313813 1.54444 0
M  V30 669 C 66.2664 -0.293491 2.04505 0
M  V30 670 C 66.6744 -1.47086 1.19005 0
M  V30 671 O 66.0174 -1.82481 0.211257 0
M  V30 672 C 66.0794 -0.800455 3.50475 0
M  V30 673 C 65.7434 0.253322 4.56297 0
M  V30 674 C 66.7404 1.08612 5.08428 0
M  V30 675 C 64.4254 0.398708 5.00715 0
M  V30 676 C 66.4194 2.05013 6.0353 0
M  V30 677 C 64.1064 1.36614 5.95634 0
M  V30 678 C 65.1044 2.19033 6.46926 0
M  V30 679 O 64.7924 3.14134 7.39983 0
M  V30 680 H 64.5244 -0.0658325 0.672787 0
M  V30 681 H 67.0784 0.455177 2.00293 0
M  V30 682 H 65.3084 -1.59987 3.52053 0
M  V30 683 H 66.9974 -1.32504 3.83663 0
M  V30 684 H 67.7634 0.984736 4.74898 0
M  V30 685 H 63.6424 -0.23289 4.60411 0
M  V30 686 H 67.1864 2.69382 6.4349 0
M  V30 687 H 63.0834 1.4682 6.28581 0
M  V30 688 H 63.8514 3.0926 7.57826 0
M  V30 689 N 66.5145 -1.57545 0.0417849 0
M  V30 690 C 67.7395 -1.97035 -0.647455 0
M  V30 691 C 68.1645 -0.918775 -1.64135 0
M  V30 692 O 67.5225 0.119006 -1.80909 0
M  V30 693 C 67.5705 -3.35609 -1.31905 0
M  V30 694 O 66.6745 -3.3287 -2.43457 0
M  V30 695 H 66.0155 -0.64211 -0.169086 0
M  V30 696 H 68.5455 -2.04318 0.107399 0
M  V30 697 H 68.5555 -3.72126 -1.67291 0
M  V30 698 H 67.2305 -4.11685 -0.590586 0
M  V30 699 H 65.8075 -3.08087 -2.10088 0
M  V30 700 N 67.9926 0.231505 -1.5589 0
M  V30 701 C 68.9246 1.31006 -1.8807 0
M  V30 702 C 69.9376 1.43539 -0.768145 0
M  V30 703 O 71.1266 1.44614 -1.04638 0
M  V30 704 C 68.2266 2.68688 -2.06543 0
M  V30 705 C 67.3996 2.78228 -3.37502 0
M  V30 706 C 66.4586 3.96857 -3.4553 0
M  V30 707 O 65.4846 3.85662 -4.18633 0
M  V30 708 N 66.6866 5.1072 -2.75944 0
M  V30 709 H 69.4516 1.03731 -2.81176 0
M  V30 710 H 67.0126 0.421573 -1.56315 0
M  V30 711 H 69.0046 3.46412 -2.09239 0
M  V30 712 H 67.5746 2.88605 -1.20109 0
M  V30 713 H 66.7946 1.87059 -3.46991 0
M  V30 714 H 68.0826 2.81564 -4.23791 0
M  V30 715 H 67.4806 5.2271 -2.16311 0
M  V30 716 H 66.0376 5.86523 -2.84314 0
M  V30 717 N 69.4707 1.49531 0.497807 0
M  V30 718 C 70.4337 1.65916 1.58128 0
M  V30 719 C 71.4337 0.530825 1.51786 0
M  V30 720 O 72.6237 0.797342 1.54881 0
M  V30 721 C 69.7557 1.65951 2.9778 0
M  V30 722 H 70.9487 2.62556 1.44929 0
M  V30 723 H 68.5017 1.38611 0.722275 0
M  V30 724 H 69.2367 0.709065 3.16453 0
M  V30 725 H 69.0217 2.47897 3.03792 0
M  V30 726 H 70.5117 1.80673 3.76493 0
M  V30 727 N 70.9488 -0.749086 1.3866 0
M  V30 728 C 71.8988 -1.85368 1.32751 0
M  V30 729 C 72.8828 -1.59511 0.210945 0
M  V30 730 O 74.0748 -1.71255 0.447299 0
M  V30 731 C 71.2038 -3.23131 1.15935 0
M  V30 732 C 70.2898 -3.54864 2.32233 0
M  V30 733 N 70.6808 -3.57625 3.57684 0
M  V30 734 C 68.9788 -3.85154 2.24883 0
M  V30 735 C 69.6798 -3.86753 4.34508 0
M  V30 736 N 68.6558 -4.03812 3.63918 0
M  V30 737 H 72.4578 -1.85787 2.27729 0
M  V30 738 H 69.9718 -0.946658 1.31955 0
M  V30 739 H 71.9688 -4.02185 1.09786 0
M  V30 740 H 70.6288 -3.23961 0.218947 0
M  V30 741 H 71.6398 -3.39276 3.91295 0
M  V30 742 H 68.3168 -3.93672 1.39027 0
M  V30 743 H 69.7068 -3.95474 5.43185 0
M  V30 744 N 72.4269 -1.23603 -0.977757 0
M  V30 745 C 73.6569 -1.09487 -1.75203 0
M  V30 746 C 74.0649 0.356321 -1.85814 0
M  V30 747 O 73.4079 1.25816 -1.33851 0
M  V30 748 C 73.4699 -1.64905 -3.19447 0
M  V30 749 C 73.1339 -3.13688 -3.32338 0
M  V30 750 C 74.1309 -4.10953 -3.18455 0
M  V30 751 C 71.8159 -3.53449 -3.56902 0
M  V30 752 C 73.8099 -5.45962 -3.28944 0
M  V30 753 C 71.4969 -4.88602 -3.6703 0
M  V30 754 C 72.4949 -5.84668 -3.53062 0
M  V30 755 O 72.1829 -7.17365 -3.62826 0
M  V30 756 H 71.9149 -0.38367 -0.556573 0
M  V30 757 H 74.4689 -1.6398 -1.23693 0
M  V30 758 H 72.6989 -1.04835 -3.72218 0
M  V30 759 H 74.3879 -1.46226 -3.78646 0
M  V30 760 H 75.1539 -3.81577 -2.99372 0
M  V30 761 H 71.0329 -2.79188 -3.66844 0
M  V30 762 H 74.5769 -6.20925 -3.17958 0
M  V30 763 H 70.4739 -5.17653 -3.85623 0
M  V30 764 H 71.2419 -7.2515 -3.79605 0
M  V30 765 N 73.905 1.17692 -1.04816 0
M  V30 766 C 75.321 1.39863 -0.768794 0
M  V30 767 C 75.521 1.91118 0.638451 0
M  V30 768 O 74.577 2.10036 1.40146 0
M  V30 769 C 75.89 2.39274 -1.82122 0
M  V30 770 C 77.438 2.52987 -1.843 0
M  V30 771 C 77.913 3.55669 -2.88555 0
M  V30 772 N 79.404 3.63183 -2.87493 0
M  V30 773 C 80.139 4.42381 -3.64811 0
M  V30 774 N 79.635 5.25125 -4.51903 0
M  V30 775 N 81.428 4.37217 -3.53267 0
M  V30 776 H 73.579 0.82752 -1.95617 0
M  V30 777 H 75.842 0.426123 -0.846831 0
M  V30 778 H 75.548 2.08678 -2.83102 0
M  V30 779 H 75.422 3.38725 -1.65967 0
M  V30 780 H 77.809 2.82896 -0.839869 0
M  V30 781 H 77.89 1.53623 -2.04532 0
M  V30 782 H 77.534 3.26499 -3.89051 0
M  V30 783 H 77.464 4.54728 -2.65575 0
M  V30 784 H 79.955 3.04103 -2.24343 0
M  V30 785 H 80.268 5.82728 -5.07591 0
M  V30 786 H 78.613 5.24519 -4.55966 0
M  V30 787 H 81.804 3.71626 -2.84625 0
M  V30 788 H 81.977 4.98696 -4.13771 0
M  V30 789 N 75.3831 0.828654 1.34056 0
M  V30 790 C 76.3461 0.259927 2.27721 0
M  V30 791 C 77.3461 -0.565478 1.50529 0
M  V30 792 O 78.5361 -0.38075 1.69988 0
M  V30 793 C 75.6681 -0.634944 3.34935 0
M  V30 794 H 76.8611 1.0863 2.79534 0
M  V30 795 H 74.4141 0.600951 1.44285 0
M  V30 796 H 75.1491 -1.48416 2.88346 0
M  V30 797 H 74.9341 -0.0444999 3.92075 0
M  V30 798 H 76.4241 -1.02648 4.04788 0
M  V30 799 N 76.8612 -1.46375 0.584142 0
M  V30 800 C 77.8092 -2.32042 -0.161047 0
M  V30 801 C 78.8032 -1.44569 -0.882966 0
M  V30 802 O 80.0092 -1.61186 -0.801191 0
M  V30 803 H 76.3842 -0.748659 -0.0708033 0
M  V30 804 H 78.3552 -2.92704 0.580269 0
M  V30 805 C 77.1042 -3.27762 -1.1605 0
M  V30 806 H 76.4272 -3.95051 -0.614419 0
M  V30 807 H 77.8672 -3.90481 -1.65228 0
M  V30 808 C 76.3262 -2.53218 -2.22221 0
M  V30 809 O 76.8562 -2.29628 -3.29597 0
M  V30 810 N 75.0622 -2.13756 -1.96868 0
M  V30 811 H 74.6092 -2.33142 -1.09557 0
M  V30 812 H 74.5672 -1.642 -2.68115 0
M  V30 813 N 78.3393 -0.321999 -1.54275 0
M  V30 814 C 79.2493 0.553631 -2.27974 0
M  V30 815 C 80.2653 1.13054 -1.32268 0
M  V30 816 O 81.4413 1.15084 -1.6528 0
M  V30 817 C 78.5063 1.69927 -3.02201 0
M  V30 818 C 77.5673 1.15433 -4.1349 0
M  V30 819 C 76.8003 2.24537 -4.84168 0
M  V30 820 O 77.0233 3.44852 -4.5435 0
M  V30 821 O 75.9573 1.90044 -5.7111 0
M  V30 822 H 79.7833 -0.0448345 -3.03667 0
M  V30 823 H 77.3683 -0.0877418 -1.49142 0
M  V30 824 H 79.2503 2.3663 -3.48689 0
M  V30 825 H 77.9253 2.28395 -2.29385 0
M  V30 826 H 76.8323 0.452436 -3.71354 0
M  V30 827 H 78.1653 0.614805 -4.88345 0
M  V30 828 N 79.8174 1.5752 -0.0501392 0
M  V30 829 C 81.0644 1.9265 0.623874 0
M  V30 830 C 81.3924 0.928411 1.70912 0
M  V30 831 O 80.6474 -0.0594525 1.9561 0
M  V30 832 C 80.9464 3.34467 1.25963 0
M  V30 833 C 80.6124 4.49883 0.302689 0
M  V30 834 C 79.2744 4.81184 0.0393636 0
M  V30 835 C 81.6264 5.20002 -0.353205 0
M  V30 836 C 78.9544 5.79951 -0.887308 0
M  V30 837 C 81.3064 6.1976 -1.26806 0
M  V30 838 C 79.9704 6.49491 -1.54007 0
M  V30 839 H 79.2404 0.704957 0.228292 0
M  V30 840 H 81.8874 1.91146 -0.116398 0
M  V30 841 H 80.1924 3.32333 2.07514 0
M  V30 842 H 81.8894 3.58928 1.78806 0
M  V30 843 H 78.4794 4.25457 0.518109 0
M  V30 844 H 82.6634 4.96033 -0.162854 0
M  V30 845 H 77.9194 6.01322 -1.10553 0
M  V30 846 H 82.0934 6.73205 -1.78236 0
M  V30 847 H 79.7204 7.25837 -2.25976 0
M  V30 848 N 81.2955 -0.223234 1.56011 0
M  V30 849 C 82.5435 -0.946003 1.78592 0
M  V30 850 C 82.8645 -1.84936 0.618349 0
M  V30 851 O 82.1345 -1.92473 -0.364833 0
M  V30 852 H 80.7145 -0.352298 0.658707 0
M  V30 853 H 83.3765 -0.235494 1.93472 0
M  V30 854 H 82.4725 -1.55381 2.70672 0
M  V30 855 N 82.7736 -1.49793 -0.48987 0
M  V30 856 C 83.6836 -1.70036 -1.61632 0
M  V30 857 C 84.6996 -0.583102 -1.63939 0
M  V30 858 O 85.8756 -0.859169 -1.82154 0
M  V30 859 C 82.9406 -1.77277 -2.97949 0
M  V30 860 C 82.0016 -3.00918 -3.06181 0
M  V30 861 C 81.2346 -3.07804 -4.35996 0
M  V30 862 O 81.4576 -2.21982 -5.25433 0
M  V30 863 O 80.3916 -4.00369 -4.49431 0
M  V30 864 H 84.2176 -2.65486 -1.47482 0
M  V30 865 H 81.8026 -1.33666 -0.667362 0
M  V30 866 H 83.6846 -1.84329 -3.78947 0
M  V30 867 H 82.3596 -0.850076 -3.12339 0
M  V30 868 H 81.2666 -2.99377 -2.2433 0
M  V30 869 H 82.5996 -3.92704 -2.96723 0
M  V30 870 N 84.2517 0.741722 -1.39055 0
M  V30 871 C 85.4977 1.50336 -1.36113 0
M  V30 872 C 85.8307 1.94148 0.0450796 0
M  V30 873 O 85.1057 1.66301 1.00868 0
M  V30 874 C 85.3887 2.74773 -2.32749 0
M  V30 875 C 85.2417 2.37023 -3.82283 0
M  V30 876 C 86.5607 3.76846 -2.27322 0
M  V30 877 H 83.6797 0.545351 -0.495743 0
M  V30 878 H 86.3217 0.848624 -1.69995 0
M  V30 879 H 84.4717 3.30639 -2.03986 0
M  V30 880 H 86.1437 1.8684 -4.21768 0
M  V30 881 H 84.3867 1.69334 -3.99385 0
M  V30 882 H 85.0577 3.26104 -4.45376 0
M  V30 883 H 87.5337 3.30548 -2.5274 0
M  V30 884 H 86.4097 4.6159 -2.97028 0
M  V30 885 H 86.6707 4.23286 -1.27599 0
M  V30 886 N 85.7298 1.2412 0.971189 0
M  V30 887 C 87.0068 0.986867 1.6888 0
M  V30 888 C 87.3868 -0.491857 2.0529 0
M  V30 889 O 86.7348 -1.46531 1.75331 0
M  V30 890 C 86.9448 1.9063 2.92338 0
M  V30 891 C 88.2928 2.17515 3.64654 0
M  V30 892 O 89.3168 1.88254 3.02388 0
M  V30 893 O 88.1758 2.6719 4.7673 0
M  V30 894 H 85.2698 0.372944 0.738134 0
M  V30 895 H 87.8158 1.35203 1.02559 0
M  V30 896 H 86.5878 2.90552 2.62097 0
M  V30 897 H 86.2108 1.54408 3.66393 0
M  V30 898 N 87.2079 -1.17134 1.05439 0
M  V30 899 C 88.1379 -2.2342 0.678649 0
M  V30 900 C 89.1189 -1.66971 -0.32476 0
M  V30 901 O 90.3039 -1.93149 -0.201802 0
M  V30 902 C 87.4339 -3.47256 0.0552099 0
M  V30 903 C 86.3879 -4.16543 0.98365 0
M  V30 904 C 85.7139 -5.34231 0.223961 0
M  V30 905 C 87.0139 -4.68495 2.3089 0
M  V30 906 H 88.7079 -2.55105 1.56722 0
M  V30 907 H 86.2539 -1.2262 0.754998 0
M  V30 908 H 88.2069 -4.20828 -0.21946 0
M  V30 909 H 86.9309 -3.14846 -0.868319 0
M  V30 910 H 85.5899 -3.44887 1.24293 0
M  V30 911 H 85.2379 -4.98071 -0.702412 0
M  V30 912 H 84.9379 -5.81527 0.842627 0
M  V30 913 H 86.4619 -6.10585 -0.0433671 0
M  V30 914 H 87.8759 -5.33691 2.09396 0
M  V30 915 H 86.2729 -5.26379 2.88176 0
M  V30 916 H 87.3429 -3.85169 2.94572 0
M  V30 917 N 88.686 -0.835752 -1.33615 0
M  V30 918 C 89.634 -0.255238 -2.31195 0
M  V30 919 C 90.628 0.61107 -1.57995 0
M  V30 920 O 91.834 0.500979 -1.72888 0
M  V30 921 H 88.209 -0.0638085 -0.749288 0
M  V30 922 H 90.18 -1.09283 -2.77669 0
M  V30 923 C 88.929 0.55754 -3.43201 0
M  V30 924 H 88.252 -0.0997553 -3.99676 0
M  V30 925 H 89.692 0.929622 -4.13683 0
M  V30 926 C 88.151 1.73515 -2.88781 0
M  V30 927 O 88.681 2.83376 -2.84712 0
M  V30 928 N 86.887 1.55603 -2.4543 0
M  V30 929 H 86.434 0.662354 -2.48939 0
M  V30 930 H 86.392 2.34545 -2.09371 0
M  V30 931 N 90.1641 1.46063 -0.591896 0
M  V30 932 C 91.1141 2.27458 0.157172 0
M  V30 933 C 92.0981 1.3641 0.853301 0
M  V30 934 O 93.2901 1.60517 0.74588 0
M  V30 935 C 90.4191 3.22956 1.16423 0
M  V30 936 C 89.5051 4.2149 0.469742 0
M  V30 937 N 89.8961 5.03519 -0.479839 0
M  V30 938 C 88.1941 4.40161 0.719319 0
M  V30 939 C 88.8951 5.74904 -0.886591 0
M  V30 940 N 87.8711 5.43097 -0.233731 0
M  V30 941 H 91.6731 2.88272 -0.572392 0
M  V30 942 H 89.1871 1.57024 -0.414375 0
M  V30 943 H 91.1841 3.79986 1.71513 0
M  V30 944 H 89.8441 2.63701 1.89451 0
M  V30 945 H 90.8551 5.1078 -0.855823 0
M  V30 946 H 87.5321 3.92046 1.43548 0
M  V30 947 H 88.9221 6.50844 -1.66888 0
M  V30 948 N 91.6422 0.330177 1.54103 0
M  V30 949 C 92.6052 -0.520144 2.2322 0
M  V30 950 C 93.6052 -1.03828 1.22786 0
M  V30 951 O 94.7952 -0.929652 1.4732 0
M  V30 952 C 91.9272 -1.72317 2.94142 0
M  V30 953 H 93.1202 0.0841605 2.99782 0
M  V30 954 H 90.6732 0.0813433 1.56088 0
M  V30 955 H 91.4082 -2.36653 2.21734 0
M  V30 956 H 91.1932 -1.35898 3.67796 0
M  V30 957 H 92.6832 -2.3266 3.46784 0
M  V30 958 N 93.1203 -1.57491 0.0584922 0
M  V30 959 C 94.3453 -1.97711 -0.62652 0
M  V30 960 C 94.7703 -0.936132 -1.63151 0
M  V30 961 O 94.1283 0.099811 -1.81025 0
M  V30 962 C 94.1763 -3.36989 -1.28338 0
M  V30 963 O 93.2803 -3.35433 -2.39913 0
M  V30 964 H 92.6213 -0.643868 -0.162266 0
M  V30 965 H 95.1513 -2.04193 0.129064 0
M  V30 966 H 95.1613 -3.73879 -1.63335 0
M  V30 967 H 93.8363 -4.12289 -0.546889 0
M  V30 968 H 92.4133 -3.10298 -2.06809 0
M  V30 969 N 94.5984 0.214957 -1.56127 0
M  V30 970 C 95.8234 0.95924 -1.83884 0
M  V30 971 C 96.2484 1.7689 -0.639644 0
M  V30 972 O 95.6064 1.76566 0.411601 0
M  V30 973 C 95.6544 1.84723 -3.09693 0
M  V30 974 O 94.7584 2.94346 -2.8885 0
M  V30 975 H 94.0994 0.27125 -0.606069 0
M  V30 976 H 96.6294 0.226276 -2.03345 0
M  V30 977 H 96.6394 2.25576 -3.39969 0
M  V30 978 H 95.3144 1.25218 -3.96602 0
M  V30 979 H 93.8914 2.57391 -2.69823 0
M  V30 980 N 96.0765 1.50051 0.48192 0
M  V30 981 C 97.0065 1.71046 1.58951 0
M  V30 982 C 97.9875 0.559288 1.60642 0
M  V30 983 O 99.1725 0.797243 1.77081 0
M  V30 984 C 96.3025 1.79462 2.97339 0
M  V30 985 C 95.2565 2.94558 3.10515 0
M  V30 986 C 94.5825 2.88105 4.50444 0
M  V30 987 C 95.8825 4.35227 2.88747 0
M  V30 988 H 97.5765 2.6378 1.41635 0
M  V30 989 H 95.1225 1.26936 0.679942 0
M  V30 990 H 97.0755 1.92734 3.74742 0
M  V30 991 H 95.7995 0.833412 3.15788 0
M  V30 992 H 94.4585 2.80918 2.35543 0
M  V30 993 H 94.1065 1.89853 4.65795 0
M  V30 994 H 93.8065 3.65366 4.60197 0
M  V30 995 H 95.3305 3.03412 5.29881 0
M  V30 996 H 96.7445 4.49449 3.55905 0
M  V30 997 H 95.1415 5.13856 3.09955 0
M  V30 998 H 96.2115 4.48347 1.84696 0
M  V30 999 N 97.5546 -0.734337 1.39446 0
M  V30 1000 C 98.8026 -1.49096 1.36436 0
M  V30 1001 C 99.1236 -1.94961 -0.0388255 0
M  V30 1002 O 98.3936 -1.69033 -0.990191 0
M  V30 1003 H 96.9736 -0.5531 0.502085 0
M  V30 1004 H 99.6356 -0.871725 1.74319 0
M  V30 1005 H 98.7316 -2.37276 2.02747 0
M  V30 1006 N 99.0327 -1.24633 -0.964593 0
M  V30 1007 C 100.281 -1.08573 -1.70459 0
M  V30 1008 C 100.602 0.375655 -1.91347 0
M  V30 1009 O 99.8717 1.26779 -1.49345 0
M  V30 1010 H 98.4517 -0.398784 -0.631649 0
M  V30 1011 H 101.114 -1.56601 -1.16026 0
M  V30 1012 H 100.21 -1.58623 -2.68785 0
M  V30 1013 N 100.511 1.16574 -1.06058 0
M  V30 1014 C 101.788 1.83048 -0.689416 0
M  V30 1015 C 102.168 1.94122 0.829443 0
M  V30 1016 O 101.516 1.48249 1.7388 0
M  V30 1017 C 101.726 3.20186 -1.38859 0
M  V30 1018 C 103.074 3.95989 -1.53226 0
M  V30 1019 O 104.098 3.29696 -1.3483 0
M  V30 1020 O 102.957 5.14813 -1.83384 0
M  V30 1021 H 100.051 0.790258 -0.243764 0
M  V30 1022 H 102.597 1.23797 -1.16071 0
M  V30 1023 H 101.369 3.07146 -2.4244 0
M  V30 1024 H 100.992 3.87112 -0.907216 0
M  V30 1025 N 101.989 0.842826 1.3317 0
M  V30 1026 C 103.219 0.453397 2.01564 0
M  V30 1027 C 103.627 -0.951147 1.63554 0
M  V30 1028 O 102.97 -1.63021 0.846746 0
M  V30 1029 C 103.032 0.499013 3.5602 0
M  V30 1030 C 102.696 1.86037 4.1742 0
M  V30 1031 C 103.693 2.82416 4.36506 0
M  V30 1032 C 101.378 2.15428 4.53757 0
M  V30 1033 C 103.372 4.06346 4.91082 0
M  V30 1034 C 101.059 3.39615 5.0804 0
M  V30 1035 C 102.057 4.3489 5.26649 0
M  V30 1036 O 101.745 5.5688 5.79776 0
M  V30 1037 H 101.477 0.177871 0.652179 0
M  V30 1038 H 104.031 1.13808 1.70988 0
M  V30 1039 H 102.261 -0.242467 3.85939 0
M  V30 1040 H 103.95 0.126852 4.05702 0
M  V30 1041 H 104.716 2.6101 4.08777 0
M  V30 1042 H 100.595 1.42061 4.38565 0
M  V30 1043 H 104.139 4.80722 5.05522 0
M  V30 1044 H 100.036 3.60876 5.352 0
M  V30 1045 H 100.804 5.58674 5.98185 0
M  V30 1046 N 103.467 -1.45747 0.599634 0
M  V30 1047 C 104.4 -2.27547 -0.172552 0
M  V30 1048 C 105.378 -1.36657 -0.881116 0
M  V30 1049 O 106.562 -1.66081 -0.891595 0
M  V30 1050 C 103.689 -3.14829 -1.24903 0
M  V30 1051 C 102.735 -4.21603 -0.644465 0
M  V30 1052 S 103.568 -5.32754 0.541606 0
M  V30 1053 C 104.724 -6.23604 -0.535656 0
M  V30 1054 H 104.957 -2.92691 0.521468 0
M  V30 1055 H 102.49 -1.49473 0.386947 0
M  V30 1056 H 104.448 -3.65675 -1.86527 0
M  V30 1057 H 103.109 -2.48965 -1.91508 0
M  V30 1058 H 102.302 -4.82566 -1.45417 0
M  V30 1059 H 101.904 -3.73857 -0.103534 0
M  V30 1060 H 104.196 -6.62519 -1.41686 0
M  V30 1061 H 105.139 -7.0809 0.0376246 0
M  V30 1062 H 105.547 -5.58103 -0.84741 0
M  V30 1063 N 104.945 -0.338344 -1.53925 0
M  V30 1064 C 106.193 0.259245 -2.0043 0
M  V30 1065 C 106.514 1.51484 -1.22791 0
M  V30 1066 O 105.784 1.93037 -0.33368 0
M  V30 1067 H 104.364 0.0987845 -0.740439 0
M  V30 1068 H 107.026 -0.458302 -1.89435 0
M  V30 1069 H 106.122 0.505334 -3.07982 0
M  V30 1070 N 106.423 1.57458 -0.0668435 0
M  V30 1071 C 107.669 1.93587 0.6043 0
M  V30 1072 C 108.002 0.946722 1.69561 0
M  V30 1073 O 107.277 -0.0248516 1.94484 0
M  V30 1074 C 107.56 3.40014 1.18585 0
M  V30 1075 C 107.413 4.49685 0.101529 0
M  V30 1076 C 108.732 3.87154 2.09284 0
M  V30 1077 H 105.851 0.703958 0.218202 0
M  V30 1078 H 108.493 1.89542 -0.131804 0
M  V30 1079 H 106.643 3.43592 1.81319 0
M  V30 1080 H 108.315 4.5823 -0.531279 0
M  V30 1081 H 106.558 4.30059 -0.568487 0
M  V30 1082 H 107.229 5.49266 0.54874 0
M  V30 1083 H 109.705 3.85551 1.56491 0
M  V30 1084 H 108.581 4.90231 2.46911 0
M  V30 1085 H 108.842 3.2481 2.99918 0
M  V30 1086 N 107.901 -0.206675 1.56239 0
M  V30 1087 C 108.851 -1.26 1.90021 0
M  V30 1088 C 109.835 -1.41566 0.764721 0
M  V30 1089 O 111.027 -1.44131 1.02739 0
M  V30 1090 C 108.156 -2.6073 2.23326 0
M  V30 1091 C 107.242 -2.49005 3.43304 0
M  V30 1092 N 107.633 -2.06946 4.61527 0
M  V30 1093 C 105.931 -2.79927 3.47213 0
M  V30 1094 C 106.632 -2.06832 5.43687 0
M  V30 1095 N 105.608 -2.47892 4.83788 0
M  V30 1096 H 109.41 -0.925955 2.78932 0
M  V30 1097 H 106.924 -0.415172 1.57003 0
M  V30 1098 H 108.921 -3.36798 2.45708 0
M  V30 1099 H 107.581 -2.94968 1.35735 0
M  V30 1100 H 108.592 -1.77839 4.86409 0
M  V30 1101 H 105.269 -3.18438 2.70006 0
M  V30 1102 H 106.659 -1.76312 6.48354 0
M  V30 1103 N 109.379 -1.50304 -0.473955 0
M  V30 1104 C 110.79 -1.54042 -1.0549 0
M  V30 1105 C 111.141 -0.342248 -1.93192 0
M  V30 1106 O 110.266 0.545157 -2.09421 0
M  V30 1107 C 110.861 -2.79152 -1.91989 0
M  V30 1108 C 109.42 -2.8558 -2.45196 0
M  V30 1109 C 108.567 -2.48295 -1.2347 0
M  V30 1110 H 111.518 -1.5661 -0.256693 0
M  V30 1111 H 111.539 -2.60845 -2.7702 0
M  V30 1112 H 111.051 -3.66339 -1.28131 0
M  V30 1113 H 109.152 -2.02738 -3.12615 0
M  V30 1114 H 109.265 -3.88403 -2.80499 0
M  V30 1115 H 107.629 -2.00669 -1.56856 0
M  V30 1116 H 108.412 -3.37787 -0.612789 0
M  V30 1117 N 110.857 0.726932 -1.39834 0
M  V30 1118 C 111.79 1.8501 -1.33592 0
M  V30 1119 C 112.768 1.61262 -0.208191 0
M  V30 1120 O 113.952 1.84422 -0.389981 0
M  V30 1121 C 111.079 3.21143 -1.07633 0
M  V30 1122 C 110.125 3.63737 -2.22705 0
M  V30 1123 S 110.958 3.72167 -3.85035 0
M  V30 1124 C 112.114 5.11077 -3.61318 0
M  V30 1125 H 112.347 1.90022 -2.28646 0
M  V30 1126 H 109.88 0.892595 -1.25985 0
M  V30 1127 H 111.838 3.99747 -0.933415 0
M  V30 1128 H 110.499 3.13776 -0.142526 0
M  V30 1129 H 109.692 4.62551 -2.00155 0
M  V30 1130 H 109.294 2.9236 -2.33242 0
M  V30 1131 H 111.586 5.97656 -3.19083 0
M  V30 1132 H 112.529 5.38658 -4.59623 0
M  V30 1133 H 112.937 4.81135 -2.95245 0
M  V30 1134 N 112.336 1.25143 0.95797 0
M  V30 1135 C 113.584 1.09476 1.69881 0
M  V30 1136 C 113.905 -0.365502 1.91544 0
M  V30 1137 O 113.175 -1.25985 1.50015 0
M  V30 1138 H 111.755 0.402128 0.629525 0
M  V30 1139 H 114.417 1.57214 1.15194 0
M  V30 1140 H 113.513 1.60046 2.6794 0
M  V30 1141 N 113.814 -1.1601 1.06675 0
M  V30 1142 C 114.744 -2.22688 0.702307 0
M  V30 1143 C 115.725 -1.67306 -0.307032 0
M  V30 1144 O 116.91 -1.93352 -0.181305 0
M  V30 1145 C 114.04 -3.47178 0.092038 0
M  V30 1146 C 112.994 -4.15477 1.02777 0
M  V30 1147 C 112.32 -5.33963 0.28061 0
M  V30 1148 C 113.62 -4.66019 2.35846 0
M  V30 1149 H 115.314 -2.53429 1.59419 0
M  V30 1150 H 112.86 -1.21813 0.767961 0
M  V30 1151 H 114.813 -4.21037 -0.174814 0
M  V30 1152 H 113.537 -3.15749 -0.834877 0
M  V30 1153 H 112.196 -3.43549 1.27944 0
M  V30 1154 H 111.844 -4.98788 -0.649545 0
M  V30 1155 H 111.544 -5.806 0.904258 0
M  V30 1156 H 113.068 -6.10596 0.021396 0
M  V30 1157 H 114.482 -5.3144 2.15045 0
M  V30 1158 H 112.879 -5.23293 2.93743 0
M  V30 1159 H 113.949 -3.82023 2.98641 0
M  V30 1160 N 115.292 -0.849877 -1.32721 0
M  V30 1161 C 116.539 -0.450923 -1.97416 0
M  V30 1162 C 116.867 0.992376 -1.67279 0
M  V30 1163 O 116.122 1.71048 -0.950845 0
M  V30 1164 C 116.421 -0.631272 -3.51781 0
M  V30 1165 C 116.087 -2.04432 -4.01894 0
M  V30 1166 C 114.749 -2.4308 -4.1529 0
M  V30 1167 C 117.101 -2.96679 -4.28522 0
M  V30 1168 C 114.429 -3.73257 -4.52654 0
M  V30 1169 C 116.781 -4.26349 -4.67343 0
M  V30 1170 C 115.445 -4.64939 -4.78945 0
M  V30 1171 H 114.715 -0.165004 -0.722395 0
M  V30 1172 H 117.362 -1.07901 -1.58207 0
M  V30 1173 H 115.667 0.0800767 -3.91718 0
M  V30 1174 H 117.364 -0.302709 -3.99856 0
M  V30 1175 H 113.954 -1.73419 -3.91949 0
M  V30 1176 H 118.138 -2.68054 -4.17685 0
M  V30 1177 H 113.394 -4.02946 -4.59831 0
M  V30 1178 H 117.568 -4.97895 -4.86902 0
M  V30 1179 H 115.195 -5.65855 -5.07654 0
M  V30 1180 N 116.77 1.45427 -0.607355 0
M  V30 1181 C 118.016 2.03097 -0.111035 0
M  V30 1182 C 118.371 1.46735 1.24445 0
M  V30 1183 O 117.664 0.632478 1.8086 0
M  V30 1184 C 117.858 3.57398 -0.0129263 0
M  V30 1185 C 117.687 4.28726 -1.35735 0
M  V30 1186 C 116.457 4.66659 -1.93798 0
M  V30 1187 C 118.655 4.60699 -2.28607 0
M  V30 1188 N 116.637 5.22845 -3.21723 0
M  V30 1189 C 118.008 5.17716 -3.41131 0
M  V30 1190 C 120.063 4.42638 -2.27982 0
M  V30 1191 C 118.766 5.58576 -4.53194 0
M  V30 1192 C 120.792 4.84531 -3.39093 0
M  V30 1193 C 120.154 5.4164 -4.50339 0
M  V30 1194 H 116.253 0.777476 -0.083994 0
M  V30 1195 H 118.837 1.77249 -0.805655 0
M  V30 1196 H 117.008 3.82907 0.650914 0
M  V30 1197 H 118.74 4.01722 0.490033 0
M  V30 1198 H 115.495 4.50207 -1.47007 0
M  V30 1199 H 115.919 5.55438 -3.87063 0
M  V30 1200 H 120.561 3.97798 -1.43235 0
M  V30 1201 H 118.279 6.02382 -5.38667 0
M  V30 1202 H 121.865 4.72289 -3.39757 0
M  V30 1203 H 120.745 5.73461 -5.34895 0
M  V30 1204 N 118.248 0.346503 1.53744 0
M  V30 1205 C 119.473 -0.253074 2.0585 0
M  V30 1206 C 119.898 -1.43202 1.21962 0
M  V30 1207 O 119.256 -1.79783 0.234073 0
M  V30 1208 C 119.304 -0.643193 3.54817 0
M  V30 1209 O 118.408 -1.74286 3.73762 0
M  V30 1210 H 117.749 -0.0413583 0.662711 0
M  V30 1211 H 120.279 0.501574 1.98357 0
M  V30 1212 H 120.289 -0.919526 3.97503 0
M  V30 1213 H 118.964 0.218966 4.15323 0
M  V30 1214 H 117.541 -1.46356 3.42979 0
M  V30 1215 N 119.726 -1.57421 0.075193 0
M  V30 1216 C 120.656 -2.15942 -0.888324 0
M  V30 1217 C 121.637 -1.08737 -1.30806 0
M  V30 1218 O 122.822 -1.36787 -1.37851 0
M  V30 1219 C 119.952 -2.72379 -2.1547 0
M  V30 1220 C 118.906 -3.8478 -1.87425 0
M  V30 1221 C 118.232 -4.27834 -3.20721 0
M  V30 1222 C 119.532 -5.08869 -1.17684 0
M  V30 1223 H 121.226 -2.96705 -0.400799 0
M  V30 1224 H 118.772 -1.42723 -0.191342 0
M  V30 1225 H 120.725 -3.11965 -2.83295 0
M  V30 1226 H 119.449 -1.88841 -2.6647 0
M  V30 1227 H 118.108 -3.45703 -1.22004 0
M  V30 1228 H 117.756 -3.41214 -3.6957 0
M  V30 1229 H 117.456 -5.03605 -3.02746 0
M  V30 1230 H 118.98 -4.70039 -3.89738 0
M  V30 1231 H 120.394 -5.4575 -1.75584 0
M  V30 1232 H 118.791 -5.8994 -1.09956 0
M  V30 1233 H 119.861 -4.84648 -0.156453 0
M  V30 1234 N 121.204 0.198386 -1.56346 0
M  V30 1235 C 122.151 1.24589 -1.94284 0
M  V30 1236 C 123.121 1.454 -0.802997 0
M  V30 1237 O 124.306 1.58588 -1.06087 0
M  V30 1238 C 121.446 2.58631 -2.28482 0
M  V30 1239 C 120.559 2.45426 -3.55514 0
M  V30 1240 C 119.694 3.7215 -3.79049 0
M  V30 1241 C 118.733 3.53763 -4.99518 0
M  V30 1242 N 117.87 4.72491 -5.19323 0
M  V30 1243 H 122.71 0.915356 -2.83593 0
M  V30 1244 H 120.247 0.440629 -1.40346 0
M  V30 1245 H 122.205 3.3672 -2.46324 0
M  V30 1246 H 120.835 2.89734 -1.42317 0
M  V30 1247 H 119.887 1.58652 -3.45737 0
M  V30 1248 H 121.199 2.27772 -4.43758 0
M  V30 1249 H 120.353 4.58679 -3.97113 0
M  V30 1250 H 119.092 3.92754 -2.89129 0
M  V30 1251 H 118.097 2.65619 -4.8138 0
M  V30 1252 H 119.322 3.34607 -5.90944 0
M  V30 1253 H 117.268 4.93365 -4.3235 0
M  V30 1254 H 117.185 4.5765 -6.01741 0
M  V30 1255 H 118.453 5.6038 -5.41843 0
M  V30 1256 N 122.682 1.50554 0.465978 0
M  V30 1257 C 124.093 1.54599 1.04671 0
M  V30 1258 C 124.444 0.352488 1.93008 0
M  V30 1259 O 123.569 -0.534044 2.09707 0
M  V30 1260 C 124.164 2.80166 1.90505 0
M  V30 1261 C 122.723 2.86876 2.43678 0
M  V30 1262 C 121.87 2.48947 1.22151 0
M  V30 1263 H 124.821 1.56744 0.248384 0
M  V30 1264 H 124.842 2.62311 2.75633 0
M  V30 1265 H 124.354 3.67013 1.26186 0
M  V30 1266 H 122.455 2.04393 3.11536 0
M  V30 1267 H 122.568 3.89885 2.78436 0
M  V30 1268 H 120.932 2.01498 1.5579 0
M  V30 1269 H 121.715 3.38107 0.594866 0
M  V30 1270 N 124.16 -0.719506 1.40217 0
M  V30 1271 C 125.07 -1.86378 1.42479 0
M  V30 1272 C 126.086 -1.71073 0.317834 0
M  V30 1273 O 127.262 -1.93406 0.561794 0
M  V30 1274 C 124.327 -3.22136 1.28178 0
M  V30 1275 C 123.388 -3.49723 2.48982 0
M  V30 1276 C 122.621 -4.79004 2.35353 0
M  V30 1277 O 122.844 -5.53821 1.36524 0
M  V30 1278 O 121.778 -5.06839 3.2465 0
M  V30 1279 H 125.604 -1.87425 2.38968 0
M  V30 1280 H 123.189 -0.869405 1.21498 0
M  V30 1281 H 125.071 -4.03234 1.22395 0
M  V30 1282 H 123.746 -3.21825 0.347934 0
M  V30 1283 H 122.653 -2.6865 2.60342 0
M  V30 1284 H 123.986 -3.54828 3.41113 0
M  V30 1285 N 125.638 -1.25649 -0.95132 0
M  V30 1286 C 126.585 -1.06323 -2.04851 0
M  V30 1287 C 127.555 0.0286491 -1.66075 0
M  V30 1288 O 128.74 -0.12917 -1.90362 0
M  V30 1289 C 125.88 -0.691529 -3.381 0
M  V30 1290 C 124.993 -1.85861 -3.89974 0
M  V30 1291 C 124.128 -1.43096 -5.11563 0
M  V30 1292 C 123.167 -2.56696 -5.55674 0
M  V30 1293 N 122.304 -2.14684 -6.68472 0
M  V30 1294 H 127.144 -2.00222 -2.20715 0
M  V30 1295 H 124.681 -0.997027 -1.08156 0
M  V30 1296 H 126.639 -0.456963 -4.1469 0
M  V30 1297 H 125.269 0.210474 -3.22113 0
M  V30 1298 H 124.321 -2.20639 -3.09875 0
M  V30 1299 H 125.633 -2.71161 -4.18657 0
M  V30 1300 H 124.787 -1.15624 -5.9558 0
M  V30 1301 H 123.526 -0.548722 -4.84603 0
M  V30 1302 H 122.531 -2.84909 -4.7022 0
M  V30 1303 H 123.756 -3.45503 -5.8464 0
M  V30 1304 H 121.702 -1.28881 -6.43215 0
M  V30 1305 H 121.619 -2.9353 -6.96689 0
M  V30 1306 H 122.887 -1.90397 -7.5589 0
M  V30 1307 N 127.117 1.15442 -1.07289 0
M  V30 1308 C 128.047 2.22312 -0.714107 0
M  V30 1309 C 129.028 1.67467 0.298155 0
M  V30 1310 O 130.213 1.93445 0.171048 0
M  V30 1311 C 127.343 3.47124 -0.110448 0
M  V30 1312 C 126.297 4.14926 -1.04979 0
M  V30 1313 C 125.623 5.33807 -0.308924 0
M  V30 1314 C 126.923 4.64762 -2.38314 0
M  V30 1315 H 128.617 2.5258 -1.6076 0
M  V30 1316 H 126.163 1.21404 -0.77441 0
M  V30 1317 H 128.116 4.21124 0.152482 0
M  V30 1318 H 126.84 3.16187 0.81812 0
M  V30 1319 H 125.499 3.42866 -1.29764 0
M  V30 1320 H 125.147 4.99126 0.623084 0
M  V30 1321 H 124.847 5.80113 -0.935036 0
M  V30 1322 H 126.371 6.10576 -0.0537771 0
M  V30 1323 H 127.785 5.30292 -2.1786 0
M  V30 1324 H 126.182 5.21728 -2.96514 0
M  V30 1325 H 127.252 3.80434 -3.00663 0
M  V30 1326 N 128.595 0.856903 1.32268 0
M  V30 1327 C 129.525 0.31858 2.31316 0
M  V30 1328 C 130.506 -0.583487 1.59779 0
M  V30 1329 O 131.691 -0.503259 1.87566 0
M  V30 1330 C 128.821 -0.491979 3.43798 0
M  V30 1331 C 127.775 0.315849 4.26833 0
M  V30 1332 C 127.101 -0.619586 5.31098 0
M  V30 1333 C 128.401 1.54282 4.98993 0
M  V30 1334 H 130.095 1.14621 2.76591 0
M  V30 1335 H 127.641 0.552613 1.32974 0
M  V30 1336 H 129.594 -0.879012 4.1213 0
M  V30 1337 H 128.318 -1.35299 2.97257 0
M  V30 1338 H 126.977 0.684664 3.6015 0
M  V30 1339 H 126.625 -1.47751 4.8081 0
M  V30 1340 H 126.325 -0.0830621 5.87541 0
M  V30 1341 H 127.849 -1.00375 6.02293 0
M  V30 1342 H 129.263 1.22796 5.59995 0
M  V30 1343 H 127.66 2.01745 5.65172 0
M  V30 1344 H 128.73 2.30285 4.26728 0
M  V30 1345 N 130.073 -1.45103 0.615059 0
M  V30 1346 C 131.301 -2.06553 0.11977 0
M  V30 1347 C 131.716 -1.45842 -1.19898 0
M  V30 1348 O 131.073 -0.575325 -1.73194 0
M  V30 1349 C 131.124 -3.61495 -0.018364 0
M  V30 1350 O 130.845 -4.19942 1.24822 0
M  V30 1351 C 132.346 -4.39947 -0.544237 0
M  V30 1352 H 129.566 -0.667096 0.0722739 0
M  V30 1353 H 132.11 -1.8623 0.84491 0
M  V30 1354 H 130.265 -3.81135 -0.693865 0
M  V30 1355 H 130.679 -5.13204 1.0827 0
M  V30 1356 H 132.153 -5.48838 -0.589953 0
M  V30 1357 H 132.63 -4.10255 -1.56805 0
M  V30 1358 H 133.236 -4.25188 0.0974703 0
M  V30 1359 N 131.551 -0.354651 -1.53558 0
M  V30 1360 C 132.967 -0.00315426 -1.596 0
M  V30 1361 C 133.167 1.47741 -1.37021 0
M  V30 1362 O 132.223 2.23759 -1.16996 0
M  V30 1363 C 133.536 -0.44929 -2.97325 0
M  V30 1364 C 135.084 -0.402578 -3.104 0
M  V30 1365 C 135.559 -0.824355 -4.5052 0
M  V30 1366 N 137.05 -0.778979 -4.56603 0
M  V30 1367 C 137.785 -1.07715 -5.63192 0
M  V30 1368 N 137.281 -1.44405 -6.77583 0
M  V30 1369 N 139.074 -1.00066 -5.53121 0
M  V30 1370 H 131.225 -1.31893 -1.66487 0
M  V30 1371 H 133.488 -0.538388 -0.780284 0
M  V30 1372 H 133.194 -1.48202 -3.1895 0
M  V30 1373 H 133.068 0.169772 -3.76818 0
M  V30 1374 H 135.455 0.621004 -2.88492 0
M  V30 1375 H 135.536 -1.05699 -2.32941 0
M  V30 1376 H 135.18 -1.846 -4.73165 0
M  V30 1377 H 135.11 -0.147304 -5.26394 0
M  V30 1378 H 137.601 -0.508528 -3.74463 0
M  V30 1379 H 137.914 -1.65612 -7.54846 0
M  V30 1380 H 136.259 -1.4826 -6.79002 0
M  V30 1381 H 139.45 -0.713293 -4.62633 0
M  V30 1382 H 139.623 -1.23638 -6.36096 0
M  V30 1383 N 133.029 1.57378 -0.0835403 0
M  V30 1384 C 133.959 2.1641 0.87686 0
M  V30 1385 C 134.94 1.09429 1.30228 0
M  V30 1386 O 136.125 1.37516 1.37124 0
M  V30 1387 C 133.255 2.73517 2.14022 0
M  V30 1388 C 132.209 3.85769 1.85381 0
M  V30 1389 C 131.535 4.29529 3.18448 0
M  V30 1390 C 132.835 5.09486 1.14984 0
M  V30 1391 H 134.529 2.96914 0.385059 0
M  V30 1392 H 132.075 1.42823 0.18377 0
M  V30 1393 H 134.028 3.13463 2.81636 0
M  V30 1394 H 132.752 1.90252 2.65465 0
M  V30 1395 H 131.411 3.46345 1.20169 0
M  V30 1396 H 131.059 3.43169 3.67755 0
M  V30 1397 H 130.759 5.05204 3.00071 0
M  V30 1398 H 132.283 4.72099 3.8724 0
M  V30 1399 H 133.697 5.46674 1.72687 0
M  V30 1400 H 132.094 5.90515 1.06826 0
M  V30 1401 H 133.164 4.84724 0.130749 0
M  V30 1402 N 134.507 -0.190092 1.56449 0
M  V30 1403 C 135.437 -1.23816 1.97969 0
M  V30 1404 C 136.418 -1.47201 0.852395 0
M  V30 1405 O 137.603 -1.58854 1.1171 0
M  V30 1406 C 134.733 -2.5813 2.3235 0
M  V30 1407 C 133.687 -2.49348 3.47864 0
M  V30 1408 C 133.013 -3.8798 3.67934 0
M  V30 1409 C 134.313 -2.01424 4.81898 0
M  V30 1410 H 136.007 -0.89311 2.85769 0
M  V30 1411 H 133.553 -0.428177 1.37487 0
M  V30 1412 H 135.506 -3.31637 2.59991 0
M  V30 1413 H 134.23 -2.94386 1.41438 0
M  V30 1414 H 132.889 -1.78297 3.20321 0
M  V30 1415 H 132.537 -4.21597 2.74344 0
M  V30 1416 H 132.237 -3.82978 4.45648 0
M  V30 1417 H 133.761 -4.63101 3.97957 0
M  V30 1418 H 135.175 -2.64693 5.08538 0
M  V30 1419 H 133.572 -2.07413 5.63116 0
M  V30 1420 H 134.642 -0.967677 4.75146 0
M  V30 1421 N 135.985 -1.50799 -0.457987 0
M  V30 1422 C 136.932 -1.70617 -1.5543 0
M  V30 1423 C 137.902 -0.547562 -1.56815 0
M  V30 1424 O 139.087 -0.779647 -1.74144 0
M  V30 1425 C 136.227 -1.81831 -2.93311 0
M  V30 1426 C 135.34 -3.09278 -3.01615 0
M  V30 1427 C 134.475 -3.11209 -4.30491 0
M  V30 1428 C 133.514 -4.33055 -4.32585 0
M  V30 1429 N 132.651 -4.32652 -5.52952 0
M  V30 1430 H 137.491 -2.64207 -1.37836 0
M  V30 1431 H 135.028 -1.30959 -0.669937 0
M  V30 1432 H 136.986 -1.86314 -3.73287 0
M  V30 1433 H 135.616 -0.916685 -3.0951 0
M  V30 1434 H 134.668 -3.14203 -2.1443 0
M  V30 1435 H 135.98 -3.99233 -2.99022 0
M  V30 1436 H 135.134 -3.14494 -5.18824 0
M  V30 1437 H 133.873 -2.19106 -4.35711 0
M  V30 1438 H 132.878 -4.29969 -3.42647 0
M  V30 1439 H 134.103 -5.264 -4.29046 0
M  V30 1440 H 132.049 -3.43409 -5.58933 0
M  V30 1441 H 131.966 -5.16392 -5.52155 0
M  V30 1442 H 133.234 -4.40101 -6.43375 0
M  V30 1443 N 137.463 0.71206 -1.40597 0
M  V30 1444 C 138.879 1.02058 -1.22704 0
M  V30 1445 C 139.079 2.01228 -0.104729 0
M  V30 1446 O 138.135 2.4674 0.53624 0
M  V30 1447 C 139.448 1.56094 -2.57012 0
M  V30 1448 C 140.996 1.6806 -2.64054 0
M  V30 1449 C 141.471 2.25501 -3.9864 0
M  V30 1450 N 142.962 2.32882 -4.004 0
M  V30 1451 C 143.697 2.78317 -5.01325 0
M  V30 1452 N 143.193 3.23478 -6.12645 0
M  V30 1453 N 144.986 2.77733 -4.88693 0
M  V30 1454 H 137.137 0.0547896 -2.12329 0
M  V30 1455 H 139.4 0.0869027 -0.944008 0
M  V30 1456 H 139.106 0.906865 -3.39807 0
M  V30 1457 H 138.98 2.54564 -2.78347 0
M  V30 1458 H 141.367 2.32583 -1.81629 0
M  V30 1459 H 141.448 0.681802 -2.46546 0
M  V30 1460 H 141.092 1.61598 -4.81506 0
M  V30 1461 H 141.022 3.26102 -4.13479 0
M  V30 1462 H 143.513 2.00991 -3.20017 0
M  V30 1463 H 143.826 3.56725 -6.85542 0
M  V30 1464 H 142.171 3.21429 -6.16205 0
M  V30 1465 H 145.362 2.4179 -4.00818 0
M  V30 1466 H 145.535 3.12826 -5.67489 0
M  V30 1467 N 138.941 1.26152 0.944643 0
M  V30 1468 C 140.218 1.02247 1.66748 0
M  V30 1469 C 140.598 -0.448202 2.06287 0
M  V30 1470 O 139.946 -1.42779 1.78399 0
M  V30 1471 C 140.156 1.96788 2.88228 0
M  V30 1472 C 141.504 2.25201 3.59958 0
M  V30 1473 O 142.528 1.94626 2.98327 0
M  V30 1474 O 141.387 2.77242 4.70956 0
M  V30 1475 H 138.481 0.388517 0.730057 0
M  V30 1476 H 141.027 1.37348 0.99668 0
M  V30 1477 H 139.799 2.96047 2.55875 0
M  V30 1478 H 139.422 1.62145 3.63035 0
M  V30 1479 N 140.419 -1.14872 1.07899 0
M  V30 1480 C 141.665 -1.86064 0.806725 0
M  V30 1481 C 141.998 -1.82434 -0.665706 0
M  V30 1482 O 141.273 -1.25138 -1.48899 0
M  V30 1483 C 141.556 -3.34929 1.32267 0
M  V30 1484 C 141.409 -3.47161 2.86006 0
M  V30 1485 C 142.728 -4.29863 0.943717 0
M  V30 1486 H 139.847 -0.675591 0.294526 0
M  V30 1487 H 142.489 -1.34925 1.33773 0
M  V30 1488 H 140.639 -3.78611 0.870974 0
M  V30 1489 H 142.311 -3.12302 3.39507 0
M  V30 1490 H 140.554 -2.88539 3.23925 0
M  V30 1491 H 141.225 -4.51777 3.17177 0
M  V30 1492 H 143.701 -3.9417 1.33302 0
M  V30 1493 H 142.577 -5.32494 1.33198 0
M  V30 1494 H 142.838 -4.41846 -0.149796 0
M  V30 1495 N 141.898 -0.863906 -1.31812 0
M  V30 1496 C 142.831 -0.259963 -2.26714 0
M  V30 1497 C 143.809 0.607392 -1.50829 0
M  V30 1498 O 144.993 0.562155 -1.79922 0
M  V30 1499 C 142.12 0.632456 -3.32743 0
M  V30 1500 C 141.166 -0.162743 -4.26189 0
M  V30 1501 S 141.999 -1.53726 -5.12961 0
M  V30 1502 C 143.155 -0.650803 -6.22507 0
M  V30 1503 H 143.388 -1.06445 -2.77591 0
M  V30 1504 H 140.921 -0.662071 -1.39485 0
M  V30 1505 H 142.879 1.14167 -3.94305 0
M  V30 1506 H 141.54 1.41083 -2.80632 0
M  V30 1507 H 140.733 0.517366 -5.01338 0
M  V30 1508 H 140.335 -0.60385 -3.69093 0
M  V30 1509 H 142.627 0.141134 -6.77353 0
M  V30 1510 H 143.57 -1.37322 -6.94657 0
M  V30 1511 H 143.978 -0.221041 -5.64067 0
M  V30 1512 N 143.376 1.44774 -0.622745 0
M  V30 1513 C 144.324 2.32387 0.0994683 0
M  V30 1514 C 145.318 1.46859 0.844326 0
M  V30 1515 O 146.524 1.63254 0.758174 0
M  V30 1516 H 142.899 0.750273 0.0509291 0
M  V30 1517 H 144.87 2.91062 -0.65767 0
M  V30 1518 C 143.619 3.30723 1.07319 0
M  V30 1519 H 142.942 3.96541 0.509462 0
M  V30 1520 H 144.382 3.94725 1.54817 0
M  V30 1521 C 142.841 2.59021 2.15429 0
M  V30 1522 O 143.371 2.38286 3.23393 0
M  V30 1523 N 141.577 2.189 1.91131 0
M  V30 1524 H 141.124 2.35964 1.03337 0
M  V30 1525 H 141.082 1.71251 2.63668 0
M  V30 1526 N 144.854 0.36279 1.53368 0
M  V30 1527 C 146.27 0.0116182 1.59596 0
M  V30 1528 C 146.47 -1.47012 1.37803 0
M  V30 1529 O 145.526 -2.23136 1.18181 0
M  V30 1530 C 146.839 0.465052 2.97082 0
M  V30 1531 C 148.387 0.419033 3.10182 0
M  V30 1532 C 148.862 0.848235 4.50077 0
M  V30 1533 N 150.353 0.803183 4.56183 0
M  V30 1534 C 151.088 1.107 5.62613 0
M  V30 1535 N 150.584 1.47996 6.76808 0
M  V30 1536 N 152.377 1.02998 5.52583 0
M  V30 1537 H 144.528 1.32775 1.65785 0
M  V30 1538 H 146.791 0.542518 0.777417 0
M  V30 1539 H 146.497 1.49892 3.18159 0
M  V30 1540 H 146.371 -0.149786 3.76902 0
M  V30 1541 H 148.758 -0.605696 2.88817 0
M  V30 1542 H 148.839 1.06933 2.32377 0
M  V30 1543 H 148.483 1.87107 4.7218 0
M  V30 1544 H 148.413 0.175218 5.26308 0
M  V30 1545 H 150.904 0.52838 3.74188 0
M  V30 1546 H 151.217 1.69613 7.53957 0
M  V30 1547 H 149.562 1.51859 6.78206 0
M  V30 1548 H 152.753 0.737817 4.62249 0
M  V30 1549 H 152.926 1.2701 6.35431 0
M  V30 1550 N 146.332 -1.57332 0.0918853 0
M  V30 1551 C 147.743 -1.81496 -0.437739 0
M  V30 1552 C 148.094 -1.00727 -1.6837 0
M  V30 1553 O 147.219 -0.235694 -2.15113 0
M  V30 1554 C 147.814 -3.29197 -0.800939 0
M  V30 1555 C 146.373 -3.54136 -1.27532 0
M  V30 1556 C 145.52 -2.75979 -0.270392 0
M  V30 1557 H 148.471 -1.55494 0.317366 0
M  V30 1558 H 148.492 -3.42344 -1.66074 0
M  V30 1559 H 148.004 -3.87955 0.106078 0
M  V30 1560 H 146.105 -3.00705 -2.20016 0
M  V30 1561 H 146.218 -4.62792 -1.23938 0
M  V30 1562 H 144.582 -2.43349 -0.751872 0
M  V30 1563 H 145.365 -3.37484 0.629248 0
M  V30 1564 N 147.81 0.181792 -1.56548 0
M  V30 1565 C 149.057 0.900097 -1.81396 0
M  V30 1566 C 149.385 1.82695 -0.667281 0
M  V30 1567 O 148.64 1.92614 0.346146 0
M  V30 1568 C 148.939 1.73728 -3.12335 0
M  V30 1569 C 148.605 0.960255 -4.40556 0
M  V30 1570 C 147.267 0.745766 -4.75386 0
M  V30 1571 C 149.619 0.414477 -5.19549 0
M  V30 1572 C 146.947 -0.0257694 -5.86694 0
M  V30 1573 C 149.299 -0.343916 -6.31664 0
M  V30 1574 C 147.963 -0.569301 -6.65068 0
M  V30 1575 H 147.233 0.329369 -0.663775 0
M  V30 1576 H 149.88 0.165647 -1.90782 0
M  V30 1577 H 148.185 2.54081 -2.98245 0
M  V30 1578 H 149.882 2.29591 -3.28769 0
M  V30 1579 H 146.472 1.13746 -4.13231 0
M  V30 1580 H 150.656 0.567554 -4.93044 0
M  V30 1581 H 145.912 -0.210233 -6.11038 0
M  V30 1582 H 150.086 -0.774133 -6.92084 0
M  V30 1583 H 147.713 -1.16903 -7.51158 0
M  V30 1584 N 149.288 1.51039 0.449983 0
M  V30 1585 C 150.22 1.67617 1.56324 0
M  V30 1586 C 151.233 0.557083 1.52972 0
M  V30 1587 O 152.422 0.830989 1.57977 0
M  V30 1588 C 149.522 1.66402 2.95235 0
M  V30 1589 C 148.695 2.9469 3.23229 0
M  V30 1590 C 147.754 2.85832 4.41799 0
M  V30 1591 O 146.78 3.59785 4.41071 0
M  V30 1592 N 147.982 2.00821 5.44657 0
M  V30 1593 H 150.747 2.63648 1.42512 0
M  V30 1594 H 148.308 1.48767 0.638737 0
M  V30 1595 H 150.3 1.58062 3.72557 0
M  V30 1596 H 148.87 0.780182 3.02708 0
M  V30 1597 H 148.09 3.16996 2.34323 0
M  V30 1598 H 149.378 3.79636 3.38754 0
M  V30 1599 H 148.776 1.40091 5.48079 0
M  V30 1600 H 147.333 1.98368 6.20881 0
M  V30 1601 N 150.766 -0.704594 1.40972 0
M  V30 1602 C 152.012 -1.46675 1.40051 0
M  V30 1603 C 152.345 -1.94199 0.00641102 0
M  V30 1604 O 151.62 -1.68916 -0.964235 0
M  V30 1605 C 151.903 -2.68505 2.39952 0
M  V30 1606 C 151.756 -2.26805 3.88432 0
M  V30 1607 C 153.075 -3.70686 2.37233 0
M  V30 1608 H 150.194 -0.532015 0.510028 0
M  V30 1609 H 152.836 -0.803255 1.72185 0
M  V30 1610 H 150.986 -3.25114 2.1268 0
M  V30 1611 H 152.658 -1.75592 4.26574 0
M  V30 1612 H 150.901 -1.58685 4.03734 0
M  V30 1613 H 151.572 -3.14181 4.53866 0
M  V30 1614 H 154.048 -3.23731 2.61415 0
M  V30 1615 H 152.924 -4.53553 3.09162 0
M  V30 1616 H 153.185 -4.19754 1.38777 0
M  V30 1617 N 152.244 -1.26651 -0.937939 0
M  V30 1618 C 153.176 -1.04283 -2.04102 0
M  V30 1619 C 154.189 -0.00221014 -1.628 0
M  V30 1620 O 155.378 -0.242645 -1.76843 0
M  V30 1621 C 152.478 -0.557846 -3.34277 0
M  V30 1622 C 151.651 -1.66843 -4.04329 0
M  V30 1623 C 150.71 -1.18095 -5.12777 0
M  V30 1624 O 149.736 -1.87865 -5.37304 0
M  V30 1625 N 150.938 -0.0311006 -5.80492 0
M  V30 1626 H 153.703 -1.9927 -2.23856 0
M  V30 1627 H 151.264 -1.1808 -1.10764 0
M  V30 1628 H 153.256 -0.215836 -4.04124 0
M  V30 1629 H 151.826 0.298523 -3.11171 0
M  V30 1630 H 151.046 -2.18123 -3.28353 0
M  V30 1631 H 152.334 -2.41408 -4.47883 0
M  V30 1632 H 151.732 0.551486 -5.63005 0
M  V30 1633 H 150.289 0.251809 -6.51313 0
M  V30 1634 N 153.722 1.14298 -1.08507 0
M  V30 1635 C 154.968 1.85633 -0.816581 0
M  V30 1636 C 155.301 1.82784 0.656021 0
M  V30 1637 O 154.576 1.25926 1.48233 0
M  V30 1638 C 154.859 3.34223 -1.34041 0
M  V30 1639 C 154.712 3.45639 -2.87843 0
M  V30 1640 C 156.031 4.29356 -0.9665 0
M  V30 1641 H 153.15 0.67402 -0.298104 0
M  V30 1642 H 155.792 1.34214 -1.34487 0
M  V30 1643 H 153.942 3.78144 -0.89104 0
M  V30 1644 H 155.614 3.10498 -3.41158 0
M  V30 1645 H 153.857 2.86817 -3.25451 0
M  V30 1646 H 154.528 4.50089 -3.19569 0
M  V30 1647 H 157.004 3.93457 -1.35391 0
M  V30 1648 H 155.88 5.3178 -1.3602 0
M  V30 1649 H 156.141 4.41919 0.126362 0
M  V30 1650 N 155.201 0.870884 1.31352 0
M  V30 1651 C 156.148 0.325425 2.28494 0
M  V30 1652 C 157.118 -0.576615 1.5577 0
M  V30 1653 O 158.303 -0.508059 1.83911 0
M  V30 1654 C 155.443 -0.466283 3.41935 0
M  V30 1655 C 154.556 0.463378 4.29508 0
M  V30 1656 C 153.691 -0.342544 5.30094 0
M  V30 1657 C 152.73 0.583486 6.09313 0
M  V30 1658 N 151.867 -0.186244 7.01853 0
M  V30 1659 H 156.707 1.15901 2.74538 0
M  V30 1660 H 154.244 0.58294 1.35056 0
M  V30 1661 H 156.202 -0.941085 4.06447 0
M  V30 1662 H 154.832 -1.26456 2.97 0
M  V30 1663 H 153.884 1.05663 3.65431 0
M  V30 1664 H 155.196 1.1734 4.84802 0
M  V30 1665 H 154.35 -0.879816 6.00287 0
M  V30 1666 H 153.089 -1.08585 4.75458 0
M  V30 1667 H 152.094 1.13251 5.3801 0
M  V30 1668 H 153.319 1.32566 6.66035 0
M  V30 1669 H 151.265 -0.912348 6.49625 0
M  V30 1670 H 151.182 0.464422 7.54572 0
M  V30 1671 H 152.45 -0.704716 7.76308 0
M  V30 1672 N 156.679 -1.44442 0.630414 0
M  V30 1673 C 157.609 -2.33418 -0.0618083 0
M  V30 1674 C 158.59 -1.48165 -0.835541 0
M  V30 1675 O 159.775 -1.76886 -0.801564 0
M  V30 1676 C 156.905 -3.31222 -1.04449 0
M  V30 1677 C 155.859 -4.26288 -0.382436 0
M  V30 1678 C 155.185 -5.13954 -1.47497 0
M  V30 1679 C 156.485 -5.1744 0.710865 0
M  V30 1680 H 158.179 -2.91548 0.681184 0
M  V30 1681 H 155.725 -1.40191 0.329026 0
M  V30 1682 H 157.678 -3.92351 -1.53748 0
M  V30 1683 H 156.402 -2.71299 -1.81836 0
M  V30 1684 H 155.061 -3.6649 0.0899054 0
M  V30 1685 H 154.709 -4.50385 -2.2397 0
M  V30 1686 H 154.409 -5.7837 -1.03737 0
M  V30 1687 H 155.933 -5.77955 -1.96979 0
M  V30 1688 H 157.347 -5.72509 0.300996 0
M  V30 1689 H 155.744 -5.90455 1.07156 0
M  V30 1690 H 156.814 -4.58496 1.57829 0
M  V30 1691 N 158.157 -0.370918 -1.53173 0
M  V30 1692 C 159.387 0.217389 -2.05453 0
M  V30 1693 C 159.795 1.42568 -1.24382 0
M  V30 1694 O 159.138 1.81571 -0.278839 0
M  V30 1695 C 159.2 0.669827 -3.53205 0
M  V30 1696 C 158.864 -0.4225 -4.55043 0
M  V30 1697 C 159.861 -1.27407 -5.04047 0
M  V30 1698 C 157.546 -0.58427 -4.9889 0
M  V30 1699 C 159.54 -2.27271 -5.95505 0
M  V30 1700 C 157.227 -1.58627 -5.90153 0
M  V30 1701 C 158.225 -2.42892 -6.38351 0
M  V30 1702 O 157.913 -3.41382 -7.27814 0
M  V30 1703 H 157.645 0.0408171 -0.674767 0
M  V30 1704 H 160.199 -0.5292 -1.98466 0
M  V30 1705 H 158.429 1.4681 -3.57748 0
M  V30 1706 H 160.118 1.18173 -3.88317 0
M  V30 1707 H 160.884 -1.16031 -4.70916 0
M  V30 1708 H 156.763 0.061851 -4.60959 0
M  V30 1709 H 160.307 -2.93079 -6.33049 0
M  V30 1710 H 156.204 -1.70048 -6.22699 0
M  V30 1711 H 156.972 -3.37173 -7.45826 0
M  V30 1712 N 159.635 1.57281 -0.100228 0
M  V30 1713 C 160.912 1.86014 0.604812 0
M  V30 1714 C 161.292 0.998025 1.86018 0
M  V30 1715 O 160.64 0.0718184 2.28387 0
M  V30 1716 C 160.85 3.36784 0.915278 0
M  V30 1717 C 162.198 4.04957 1.27651 0
M  V30 1718 O 163.222 3.41695 1.00613 0
M  V30 1719 O 162.081 5.16593 1.7831 0
M  V30 1720 H 159.175 0.76942 0.303185 0
M  V30 1721 H 161.721 1.69176 -0.133313 0
M  V30 1722 H 160.493 3.91292 0.0248896 0
M  V30 1723 H 160.116 3.58987 1.70921 0
M  V30 1724 N 161.113 -0.173488 1.56642 0
M  V30 1725 C 162.043 -1.2171 1.99271 0
M  V30 1726 C 163.024 -1.46289 0.867959 0
M  V30 1727 O 164.209 -1.5766 1.13388 0
M  V30 1728 C 161.339 -2.55651 2.35074 0
M  V30 1729 C 160.293 -2.45645 3.50489 0
M  V30 1730 C 159.619 -3.84056 3.72028 0
M  V30 1731 C 160.919 -1.96302 4.84007 0
M  V30 1732 H 162.613 -0.86275 2.867 0
M  V30 1733 H 160.159 -0.413571 1.37933 0
M  V30 1734 H 162.112 -3.2886 2.63494 0
M  V30 1735 H 160.836 -2.92869 1.44552 0
M  V30 1736 H 159.495 -1.7489 3.22194 0
M  V30 1737 H 159.143 -4.18664 2.788 0
M  V30 1738 H 158.843 -3.7823 4.49684 0
M  V30 1739 H 160.367 -4.58854 4.02846 0
M  V30 1740 H 161.781 -2.59284 5.11317 0
M  V30 1741 H 160.178 -2.01429 5.65284 0
M  V30 1742 H 161.248 -0.917226 4.76146 0
M  V30 1743 N 162.591 -1.51276 -0.441967 0
M  V30 1744 C 163.501 -1.75092 -1.56141 0
M  V30 1745 C 164.517 -0.634963 -1.62001 0
M  V30 1746 O 165.693 -0.916686 -1.79329 0
M  V30 1747 C 162.758 -1.86666 -2.92158 0
M  V30 1748 C 161.819 -3.10506 -2.96453 0
M  V30 1749 C 161.052 -3.21519 -4.25982 0
M  V30 1750 O 161.275 -2.38586 -5.18105 0
M  V30 1751 O 160.209 -4.14465 -4.36466 0
M  V30 1752 H 164.035 -2.70044 -1.38961 0
M  V30 1753 H 161.62 -1.35722 -0.624499 0
M  V30 1754 H 163.502 -1.96292 -3.72891 0
M  V30 1755 H 162.177 -0.949014 -3.09476 0
M  V30 1756 H 161.084 -3.06363 -2.14692 0
M  V30 1757 H 162.417 -4.01945 -2.84079 0
M  V30 1758 N 164.069 0.697108 -1.41344 0
M  V30 1759 C 164.999 1.82353 -1.45841 0
M  V30 1760 C 165.98 1.67115 -0.317247 0
M  V30 1761 O 167.165 1.86871 -0.528474 0
M  V30 1762 C 164.295 3.20476 -1.33838 0
M  V30 1763 C 163.249 3.50415 -2.4575 0
M  V30 1764 C 162.575 4.87878 -2.18813 0
M  V30 1765 C 163.875 3.49546 -3.88091 0
M  V30 1766 H 165.569 1.78846 -2.40113 0
M  V30 1767 H 163.115 0.859028 -1.15571 0
M  V30 1768 H 165.068 3.98988 -1.35596 0
M  V30 1769 H 163.792 3.24604 -0.360498 0
M  V30 1770 H 162.451 2.74253 -2.43271 0
M  V30 1771 H 162.099 4.8863 -1.19371 0
M  V30 1772 H 161.799 5.08875 -2.93803 0
M  V30 1773 H 163.323 5.68702 -2.22284 0
M  V30 1774 H 164.737 4.18066 -3.92293 0
M  V30 1775 H 163.134 3.82075 -4.62751 0
M  V30 1776 H 164.204 2.48552 -4.16353 0
M  V30 1777 N 165.547 1.27147 0.931209 0
M  V30 1778 C 166.796 1.12664 1.67302 0
M  V30 1779 C 167.109 -0.327718 1.92835 0
M  V30 1780 O 168.315 -0.593392 2.64936 0
M  V30 1781 C 166.771 1.9683 3.01307 0
M  V30 1782 C 166.379 3.46901 2.83485 0
M  V30 1783 C 168.123 1.90985 3.79111 0
M  V30 1784 C 166.03 4.23279 4.13024 0
M  V30 1785 H 164.96 0.41803 0.627509 0
M  V30 1786 H 167.611 1.51539 1.03481 0
M  V30 1787 H 165.993 1.50797 3.66164 0
M  V30 1788 H 167.167 4.00773 2.27415 0
M  V30 1789 H 165.482 3.54088 2.19113 0
M  V30 1790 H 168.079 2.45328 4.75098 0
M  V30 1791 H 168.422 0.882718 4.06834 0
M  V30 1792 H 168.955 2.34895 3.21044 0
M  V30 1793 H 165.694 5.26503 3.90481 0
M  V30 1794 H 165.214 3.74186 4.6877 0
M  V30 1795 H 166.893 4.32265 4.81411 0
M  V30 1796 N 167.025 -1.13721 1.09112 0
M  V30 1797 C 168.271 -1.85198 0.826414 0
M  V30 1798 C 168.604 -1.83129 -0.646319 0
M  V30 1799 O 167.879 -1.2671 -1.47563 0
M  V30 1800 C 168.162 -3.33507 1.35812 0
M  V30 1801 C 168.015 -3.44108 2.89672 0
M  V30 1802 C 169.334 -4.28838 0.989256 0
M  V30 1803 H 166.453 -0.67243 0.301675 0
M  V30 1804 H 169.095 -1.33499 1.35197 0
M  V30 1805 H 167.245 -3.77666 0.911082 0
M  V30 1806 H 168.917 -3.08684 3.428 0
M  V30 1807 H 167.16 -2.85087 3.26967 0
M  V30 1808 H 167.831 -4.48388 3.21951 0
M  V30 1809 H 170.307 -3.92734 1.37475 0
M  V30 1810 H 169.183 -5.31051 1.38838 0
M  V30 1811 H 169.444 -4.4198 -0.102924 0
M  V30 1812 N 168.503 -0.877838 -1.30888 0
M  V30 1813 C 169.451 -0.328662 -2.30266 0
M  V30 1814 C 170.445 0.560496 -1.59859 0
M  V30 1815 O 171.651 0.445722 -1.74394 0
M  V30 1816 H 168.026 -0.0876142 -0.746879 0
M  V30 1817 H 169.997 -1.18061 -2.74051 0
M  V30 1818 C 168.746 0.448071 -3.44801 0
M  V30 1819 H 168.069 -0.226859 -3.99156 0
M  V30 1820 H 169.509 0.797541 -4.16432 0
M  V30 1821 C 167.968 1.64239 -2.94155 0
M  V30 1822 O 168.498 2.74175 -2.93583 0
M  V30 1823 N 166.704 1.47716 -2.50256 0
M  V30 1824 H 166.251 0.582821 -2.5092 0
M  V30 1825 H 166.209 2.27765 -2.16727 0
M  V30 1826 N 169.982 1.44106 -0.638065 0
M  V30 1827 C 170.93 2.3248 0.0748149 0
M  V30 1828 C 171.924 1.47746 0.828702 0
M  V30 1829 O 173.13 1.64049 0.740816 0
M  V30 1830 H 169.505 0.750771 0.0429686 0
M  V30 1831 H 171.476 2.90348 -0.688504 0
M  V30 1832 C 170.225 3.31843 1.03805 0
M  V30 1833 H 169.548 3.97059 0.467375 0
M  V30 1834 H 170.988 3.96345 1.50622 0
M  V30 1835 C 169.447 2.61291 2.1267 0
M  V30 1836 O 169.977 2.41702 3.20847 0
M  V30 1837 N 168.183 2.20915 1.88798 0
M  V30 1838 H 167.73 2.37047 1.00829 0
M  V30 1839 H 167.688 1.74038 2.61836 0
M  V30 1840 N 171.46 0.379036 1.52974 0
M  V30 1841 C 172.407 -0.461048 2.26148 0
M  V30 1842 C 173.377 -1.06637 1.27349 0
M  V30 1843 O 174.562 -1.09633 1.56157 0
M  V30 1844 C 171.702 -1.58782 3.06402 0
M  V30 1845 C 170.815 -1.00636 4.20115 0
M  V30 1846 C 169.95 -2.10334 4.87784 0
M  V30 1847 C 168.989 -1.49724 5.93506 0
M  V30 1848 N 168.126 -2.5331 6.54812 0
M  V30 1849 H 172.966 0.169429 2.97518 0
M  V30 1850 H 170.503 0.0953806 1.4679 0
M  V30 1851 H 172.461 -2.25174 3.51215 0
M  V30 1852 H 171.091 -2.18876 2.37261 0
M  V30 1853 H 170.143 -0.232332 3.7969 0
M  V30 1854 H 171.455 -0.523343 4.96047 0
M  V30 1855 H 170.609 -2.84519 5.35849 0
M  V30 1856 H 169.348 -2.61992 4.11353 0
M  V30 1857 H 168.353 -0.740598 5.44789 0
M  V30 1858 H 169.578 -0.988732 6.71864 0
M  V30 1859 H 167.524 -3.04156 5.81227 0
M  V30 1860 H 167.441 -2.09734 7.26325 0
M  V30 1861 H 168.709 -3.27155 7.07524 0
M  V30 1862 N 172.938 -1.57226 0.108567 0
M  V30 1863 C 174.184 -1.95121 -0.552761 0
M  V30 1864 C 174.517 -0.991345 -1.66991 0
M  V30 1865 O 173.792 -0.0267211 -1.94482 0
M  V30 1866 C 174.075 -3.43039 -1.09528 0
M  V30 1867 C 173.928 -4.49797 0.0177332 0
M  V30 1868 C 175.247 -3.92567 -1.98945 0
M  V30 1869 H 172.366 -0.709496 -0.199461 0
M  V30 1870 H 175.008 -1.89126 0.182011 0
M  V30 1871 H 173.158 -3.48279 -1.72146 0
M  V30 1872 H 174.83 -4.56661 0.652584 0
M  V30 1873 H 173.073 -4.284 0.682309 0
M  V30 1874 H 173.744 -5.50528 -0.402919 0
M  V30 1875 H 176.22 -3.89565 -1.46214 0
M  V30 1876 H 175.096 -4.96605 -2.33827 0
M  V30 1877 H 175.357 -3.32648 -2.91201 0
M  V30 1878 N 174.416 0.165178 -1.56732 0
M  V30 1879 C 175.379 1.18822 -1.95995 0
M  V30 1880 C 176.379 1.3685 -0.84431 0
M  V30 1881 O 177.569 1.34152 -1.11126 0
M  V30 1882 C 174.701 2.5521 -2.26011 0
M  V30 1883 H 175.894 0.851825 -2.87548 0
M  V30 1884 H 173.447 0.407857 -1.50885 0
M  V30 1885 H 174.182 2.93852 -1.37191 0
M  V30 1886 H 173.967 2.43489 -3.07336 0
M  V30 1887 H 175.457 3.28927 -2.57288 0
M  V30 1888 N 175.894 1.51508 0.433938 0
M  V30 1889 C 177.119 1.68443 1.21003 0
M  V30 1890 C 177.544 0.382636 1.84167 0
M  V30 1891 O 176.902 -0.65755 1.68956 0
M  V30 1892 C 176.95 2.80405 2.26727 0
M  V30 1893 O 176.054 2.44245 3.32292 0
M  V30 1894 H 175.395 0.561536 0.354363 0
M  V30 1895 H 177.925 1.9809 0.512024 0
M  V30 1896 H 177.935 3.0459 2.71457 0
M  V30 1897 H 176.61 3.74867 1.80132 0
M  V30 1898 H 175.187 2.30644 2.93015 0
M  V30 1899 N 177.372 -0.689602 1.41712 0
M  V30 1900 C 178.335 -1.78521 1.43746 0
M  V30 1901 C 179.335 -1.57436 0.327191 0
M  V30 1902 O 180.525 -1.64 0.587348 0
M  V30 1903 C 177.657 -3.16971 1.25467 0
M  V30 1904 H 178.85 -1.78108 2.41283 0
M  V30 1905 H 176.403 -0.89781 1.27942 0
M  V30 1906 H 177.138 -3.23019 0.287948 0
M  V30 1907 H 176.923 -3.33678 2.05917 0
M  V30 1908 H 178.413 -3.96935 1.2974 0
M  V30 1909 N 178.85 -1.27639 -0.924453 0
M  V30 1910 C 180.261 -1.12834 -1.48746 0
M  V30 1911 C 180.612 0.285505 -1.94112 0
M  V30 1912 O 179.737 1.17874 -1.81479 0
M  V30 1913 C 180.332 -2.04217 -2.70334 0
M  V30 1914 C 178.891 -1.93509 -3.22848 0
M  V30 1915 C 178.038 -1.96583 -1.95577 0
M  V30 1916 H 180.989 -1.40484 -0.738233 0
M  V30 1917 H 181.01 -1.59989 -3.4523 0
M  V30 1918 H 180.522 -3.07111 -2.37285 0
M  V30 1919 H 178.623 -0.936131 -3.60649 0
M  V30 1920 H 178.736 -2.79917 -3.88823 0
M  V30 1921 H 177.1 -1.4085 -2.12211 0
M  V30 1922 H 177.883 -3.01137 -1.64837 0
M  V30 1923 N 180.328 1.1314 -1.09713 0
M  V30 1924 C 181.275 2.18642 -0.739196 0
M  V30 1925 C 182.245 1.63706 0.280978 0
M  V30 1926 O 183.43 1.90111 0.161946 0
M  V30 1927 C 180.57 3.44685 -0.169102 0
M  V30 1928 C 179.683 4.13711 -1.24367 0
M  V30 1929 C 178.818 5.27379 -0.636019 0
M  V30 1930 C 177.857 5.88259 -1.69169 0
M  V30 1931 N 176.994 6.93352 -1.10485 0
M  V30 1932 H 181.834 2.48607 -1.64312 0
M  V30 1933 H 179.371 1.22066 -0.820875 0
M  V30 1934 H 181.329 4.16815 0.179256 0
M  V30 1935 H 179.959 3.15161 0.698079 0
M  V30 1936 H 179.011 3.39835 -1.70927 0
M  V30 1937 H 180.323 4.55037 -2.04311 0
M  V30 1938 H 179.477 6.06238 -0.236677 0
M  V30 1939 H 178.216 4.8731 0.194928 0
M  V30 1940 H 177.221 5.08092 -2.10055 0
M  V30 1941 H 178.446 6.30399 -2.52536 0
M  V30 1942 H 176.392 6.55335 -0.295234 0
M  V30 1943 H 176.309 7.33236 -1.84121 0
M  V30 1944 H 177.577 7.76057 -0.73181 0
M  V30 1945 N 181.806 0.884767 1.30421 0
M  V30 1946 C 182.769 0.356277 2.26414 0
M  V30 1947 C 183.769 -0.501124 1.52792 0
M  V30 1948 O 184.959 -0.30831 1.7145 0
M  V30 1949 C 182.091 -0.492316 3.37326 0
M  V30 1950 H 183.284 1.20389 2.74675 0
M  V30 1951 H 180.837 0.661607 1.41607 0
M  V30 1952 H 181.572 -1.36052 2.94381 0
M  V30 1953 H 181.357 0.121832 3.91911 0
M  V30 1954 H 182.847 -0.853871 4.08777 0
M  V30 1955 N 183.284 -1.43765 0.645699 0
M  V30 1956 C 184.509 -2.06767 0.161883 0
M  V30 1957 C 184.934 -1.48034 -1.16049 0
M  V30 1958 O 184.292 -0.587369 -1.71522 0
M  V30 1959 C 184.34 -3.60519 0.0762003 0
M  V30 1960 O 183.444 -4.00982 -0.963721 0
M  V30 1961 H 182.785 -0.657675 0.091429 0
M  V30 1962 H 185.315 -1.84397 0.886499 0
M  V30 1963 H 185.325 -4.07853 -0.109604 0
M  V30 1964 H 184 -4.02646 1.04157 0
M  V30 1965 H 182.577 -3.65253 -0.751312 0
M  V30 1966 N 184.763 -0.387143 -1.52771 0
M  V30 1967 C 185.693 0.440551 -2.29306 0
M  V30 1968 C 186.674 1.06535 -1.32606 0
M  V30 1969 O 187.859 1.07853 -1.61497 0
M  V30 1970 C 184.989 1.56919 -3.09829 0
M  V30 1971 C 183.943 1.07054 -4.14395 0
M  V30 1972 C 183.269 2.29109 -4.83129 0
M  V30 1973 C 184.569 0.140015 -5.22112 0
M  V30 1974 H 186.263 -0.198026 -2.98744 0
M  V30 1975 H 183.809 -0.09668 -1.43675 0
M  V30 1976 H 185.762 2.15503 -3.62128 0
M  V30 1977 H 184.486 2.23532 -2.3812 0
M  V30 1978 H 183.145 0.507247 -3.63074 0
M  V30 1979 H 182.793 2.94227 -4.0797 0
M  V30 1980 H 182.493 1.96406 -5.53804 0
M  V30 1981 H 184.017 2.88339 -5.38231 0
M  V30 1982 H 185.431 0.633978 -5.69784 0
M  V30 1983 H 183.828 -0.0971485 -6.00021 0
M  V30 1984 H 184.898 -0.811711 -4.78058 0
M  V30 1985 N 186.241 1.57166 -0.116904 0
M  V30 1986 C 187.469 1.99473 0.549383 0
M  V30 1987 C 187.884 0.996541 1.60357 0
M  V30 1988 O 187.241 -0.0108731 1.82497 0
M  V30 1989 C 187.292 3.41788 1.17741 0
M  V30 1990 O 187.013 4.37788 0.165362 0
M  V30 1991 C 188.514 3.99216 1.92722 0
M  V30 1992 H 185.734 0.655009 0.145616 0
M  V30 1993 H 188.278 2.03494 -0.202625 0
M  V30 1994 H 186.433 3.38713 1.88021 0
M  V30 1995 H 186.847 5.20806 0.621403 0
M  V30 1996 H 188.321 5.00882 2.31995 0
M  V30 1997 H 188.798 3.3824 2.80161 0
M  V30 1998 H 189.404 4.0583 1.27209 0
M  V30 1999 N 187.719 -0.156864 1.56817 0
M  V30 2000 C 188.649 -1.19589 2.00551 0
M  V30 2001 C 189.63 -1.4536 0.883426 0
M  V30 2002 O 190.815 -1.56449 1.15054 0
M  V30 2003 C 187.945 -2.53143 2.37773 0
M  V30 2004 C 186.899 -2.41913 3.53075 0
M  V30 2005 C 186.225 -3.80088 3.76081 0
M  V30 2006 C 187.525 -1.91157 4.86062 0
M  V30 2007 H 189.219 -0.832293 2.87599 0
M  V30 2008 H 186.765 -0.398918 1.38364 0
M  V30 2009 H 188.718 -3.26047 2.66967 0
M  V30 2010 H 187.442 -2.91319 1.4765 0
M  V30 2011 H 186.101 -1.71462 3.24031 0
M  V30 2012 H 185.749 -4.15683 2.83225 0
M  V30 2013 H 185.449 -3.73439 4.53671 0
M  V30 2014 H 186.973 -4.54556 4.0769 0
M  V30 2015 H 188.387 -2.53846 5.14038 0
M  V30 2016 H 186.784 -1.95422 5.67389 0
M  V30 2017 H 187.854 -0.866673 4.77092 0
M  V30 2018 N 189.197 -1.51736 -0.425897 0
M  V30 2019 C 190.107 -1.76738 -1.54275 0
M  V30 2020 C 191.123 -0.65211 -1.61318 0
M  V30 2021 O 192.299 -0.935654 -1.78346 0
M  V30 2022 C 189.364 -1.89755 -2.90162 0
M  V30 2023 C 188.425 -3.13633 -2.93143 0
M  V30 2024 C 187.658 -3.2602 -4.22548 0
M  V30 2025 O 187.881 -2.44067 -5.15546 0
M  V30 2026 O 186.815 -4.19071 -4.32046 0
M  V30 2027 H 190.641 -2.71502 -1.36089 0
M  V30 2028 H 188.226 -1.36376 -0.610069 0
M  V30 2029 H 190.108 -2.00236 -3.70788 0
M  V30 2030 H 188.783 -0.981785 -3.08452 0
M  V30 2031 H 187.69 -3.08622 -2.11431 0
M  V30 2032 H 189.023 -4.04936 -2.798 0
M  V30 2033 N 190.675 0.682077 -1.42076 0
M  V30 2034 C 192.091 0.994324 -1.24841 0
M  V30 2035 C 192.291 2.0096 -0.147389 0
M  V30 2036 O 191.347 2.47822 0.483782 0
M  V30 2037 C 192.66 1.50607 -2.60265 0
M  V30 2038 C 194.208 1.62421 -2.6756 0
M  V30 2039 C 194.683 2.16994 -4.03333 0
M  V30 2040 N 196.174 2.24337 -4.0525 0
M  V30 2041 C 196.909 2.67621 -5.07116 0
M  V30 2042 N 196.405 3.1041 -6.19368 0
M  V30 2043 N 198.198 2.67305 -4.94474 0
M  V30 2044 H 190.349 0.00973908 -2.12398 0
M  V30 2045 H 192.612 0.0668593 -0.945639 0
M  V30 2046 H 192.318 0.834583 -3.41654 0
M  V30 2047 H 192.192 2.48602 -2.83684 0
M  V30 2048 H 194.579 2.28678 -1.86521 0
M  V30 2049 H 194.66 0.629352 -2.47937 0
M  V30 2050 H 194.304 1.51349 -4.84826 0
M  V30 2051 H 194.234 3.17258 -4.20304 0
M  V30 2052 H 196.725 1.94158 -3.24209 0
M  V30 2053 H 197.038 3.42103 -6.92954 0
M  V30 2054 H 195.383 3.08286 -6.22884 0
M  V30 2055 H 198.574 2.33233 -4.05857 0
M  V30 2056 H 198.747 3.00718 -5.73997 0
M  V30 2057 N 192.153 1.28127 0.917671 0
M  V30 2058 C 193.399 1.16232 1.66918 0
M  V30 2059 C 193.754 -0.28701 1.90247 0
M  V30 2060 O 193.047 -1.20586 1.48895 0
M  V30 2061 C 193.241 1.89018 3.03327 0
M  V30 2062 C 193.07 3.4088 2.9331 0
M  V30 2063 C 191.84 4.10214 2.95047 0
M  V30 2064 C 194.038 4.36689 2.71675 0
M  V30 2065 N 192.02 5.48571 2.75577 0
M  V30 2066 C 193.391 5.62382 2.6101 0
M  V30 2067 C 195.446 4.26661 2.56641 0
M  V30 2068 C 194.149 6.79189 2.36843 0
M  V30 2069 C 196.175 5.432 2.33853 0
M  V30 2070 C 195.537 6.67855 2.23939 0
M  V30 2071 H 191.636 0.48024 0.617166 0
M  V30 2072 H 194.22 1.61727 1.08409 0
M  V30 2073 H 192.391 1.45963 3.59929 0
M  V30 2074 H 194.123 1.69541 3.67475 0
M  V30 2075 H 190.878 3.61762 3.05655 0
M  V30 2076 H 191.302 6.21287 2.68945 0
M  V30 2077 H 195.944 3.30998 2.63059 0
M  V30 2078 H 193.662 7.74926 2.29164 0
M  V30 2079 H 197.248 5.37328 2.23091 0
M  V30 2080 H 196.128 7.56511 2.06546 0
M  V30 2081 N 193.631 -1.12557 1.10312 0
M  V30 2082 C 194.861 -1.87592 0.865617 0
M  V30 2083 C 195.269 -1.79851 -0.587389 0
M  V30 2084 O 194.612 -1.16949 -1.41664 0
M  V30 2085 C 194.674 -3.37665 1.23381 0
M  V30 2086 C 194.338 -3.69181 2.69359 0
M  V30 2087 C 195.335 -3.67652 3.67597 0
M  V30 2088 C 193.02 -3.98555 3.05711 0
M  V30 2089 C 195.014 -3.95053 5.00212 0
M  V30 2090 C 192.701 -4.25616 4.38514 0
M  V30 2091 C 193.699 -4.23851 5.35574 0
M  V30 2092 O 193.387 -4.50242 6.65986 0
M  V30 2093 H 193.119 -0.600442 0.310557 0
M  V30 2094 H 195.673 -1.4335 1.47105 0
M  V30 2095 H 193.903 -3.82454 0.571467 0
M  V30 2096 H 195.592 -3.94041 0.973994 0
M  V30 2097 H 196.358 -3.45024 3.40857 0
M  V30 2098 H 192.237 -3.99071 2.30789 0
M  V30 2099 H 195.781 -3.93591 5.75962 0
M  V30 2100 H 191.678 -4.47718 4.64994 0
M  V30 2101 H 192.446 -4.67867 6.71597 0
M  V30 2102 N 195.109 -0.891671 -1.2995 0
M  V30 2103 C 196.355 -0.514261 -1.96171 0
M  V30 2104 C 196.688 0.935506 -1.70182 0
M  V30 2105 O 195.963 1.66204 -1.01028 0
M  V30 2106 C 196.246 -0.797719 -3.51153 0
M  V30 2107 C 196.099 -2.2986 -3.86632 0
M  V30 2108 C 197.418 -0.278749 -4.39216 0
M  V30 2109 H 194.537 -0.188314 -0.712535 0
M  V30 2110 H 197.179 -1.11689 -1.53706 0
M  V30 2111 H 195.329 -0.284826 -3.87455 0
M  V30 2112 H 197.001 -2.88042 -3.60319 0
M  V30 2113 H 195.244 -2.76257 -3.34462 0
M  V30 2114 H 195.915 -2.44753 -4.94773 0
M  V30 2115 H 198.391 -0.717825 -4.09862 0
M  V30 2116 H 197.267 -0.506353 -5.46559 0
M  V30 2117 H 197.528 0.820266 -4.34424 0
M  V30 2118 N 196.587 1.43421 -0.653314 0
M  V30 2119 C 197.55 2.29182 0.0287951 0
M  V30 2120 C 198.55 1.42213 0.750465 0
M  V30 2121 O 199.74 1.63843 0.591701 0
M  V30 2122 C 196.872 3.24278 1.05151 0
M  V30 2123 H 198.065 2.90985 -0.725786 0
M  V30 2124 H 195.618 1.50702 -0.414545 0
M  V30 2125 H 196.353 2.6737 1.83532 0
M  V30 2126 H 196.138 3.88396 0.537687 0
M  V30 2127 H 197.628 3.88647 1.52786 0
M  V30 2128 N 198.065 0.39524 1.52563 0
M  V30 2129 C 199.476 -0.0774719 1.86539 0
M  V30 2130 C 199.827 -1.45641 1.31466 0
M  V30 2131 O 198.952 -2.06459 0.648367 0
M  V30 2132 C 199.547 -0.147356 3.38479 0
M  V30 2133 C 198.106 -0.564373 3.72145 0
M  V30 2134 C 197.253 0.269919 2.75983 0
M  V30 2135 H 200.204 0.612876 1.46388 0
M  V30 2136 H 200.225 -0.965343 3.68051 0
M  V30 2137 H 199.737 0.856387 3.78534 0
M  V30 2138 H 197.838 -1.57527 3.37663 0
M  V30 2139 H 197.951 -0.318402 4.78041 0
M  V30 2140 H 196.315 -0.265696 2.5331 0
M  V30 2141 H 197.098 1.27175 3.18875 0
M  V30 2142 N 199.544 -1.57102 0.125237 0
M  V30 2143 C 200.792 -1.95021 -0.530198 0
M  V30 2144 C 201.113 -1.00982 -1.66816 0
M  V30 2145 O 200.383 -0.0672693 -1.95784 0
M  V30 2146 H 198.963 -0.720046 -0.198853 0
M  V30 2147 H 201.625 -1.93916 0.19564 0
M  V30 2148 H 200.721 -2.98211 -0.920681 0
M  V30 2149 N 201.022 0.148545 -1.56898 0
M  V30 2150 C 202.268 0.862694 -1.83536 0
M  V30 2151 C 202.601 1.80889 -0.706604 0
M  V30 2152 O 201.876 1.92328 0.289885 0
M  V30 2153 C 202.159 1.63853 -3.20662 0
M  V30 2154 C 202.012 0.713925 -4.44098 0
M  V30 2155 C 203.331 2.60133 -3.54991 0
M  V30 2156 H 200.45 0.312179 -0.667618 0
M  V30 2157 H 203.092 0.127953 -1.89569 0
M  V30 2158 H 201.242 2.26489 -3.1565 0
M  V30 2159 H 202.914 0.098686 -4.61194 0
M  V30 2160 H 201.157 0.0234019 -4.33794 0
M  V30 2161 H 201.828 1.29278 -5.36648 0
M  V30 2162 H 204.304 2.07616 -3.60603 0
M  V30 2163 H 203.18 3.11468 -4.51972 0
M  V30 2164 H 203.441 3.41417 -2.80868 0
M  V30 2165 N 202.5 1.5196 0.417844 0
M  V30 2166 C 203.728 1.69426 1.18753 0
M  V30 2167 C 204.143 0.399955 1.84515 0
M  V30 2168 O 203.5 -0.623288 1.71527 0
M  V30 2169 C 203.551 2.82375 2.25714 0
M  V30 2170 O 203.272 4.06793 1.62638 0
M  V30 2171 C 204.773 3.11277 3.15628 0
M  V30 2172 H 201.993 0.568031 0.357186 0
M  V30 2173 H 204.537 1.98475 0.49273 0
M  V30 2174 H 202.692 2.5587 2.90877 0
M  V30 2175 H 203.106 4.69667 2.3348 0
M  V30 2176 H 204.58 3.93843 3.86771 0
M  V30 2177 H 205.057 2.24473 3.77503 0
M  V30 2178 H 205.663 3.39515 2.56144 0
M  V30 2179 N 203.978 -0.674533 1.42435 0
M  V30 2180 C 205.394 -0.98769 1.25367 0
M  V30 2181 C 205.594 -2.00879 0.158044 0
M  V30 2182 O 204.65 -2.48075 -0.470633 0
M  V30 2183 C 205.963 -1.49224 2.6106 0
M  V30 2184 C 207.511 -1.61 2.68417 0
M  V30 2185 C 207.986 -2.14852 4.04478 0
M  V30 2186 N 209.477 -2.22185 4.06434 0
M  V30 2187 C 210.212 -2.64928 5.08528 0
M  V30 2188 N 209.708 -3.07121 6.21006 0
M  V30 2189 N 211.501 -2.64679 4.95885 0
M  V30 2190 H 203.652 0.00152503 2.124 0
M  V30 2191 H 205.915 -0.0618434 0.945981 0
M  V30 2192 H 205.621 -0.816453 3.42092 0
M  V30 2193 H 205.495 -2.47094 2.84999 0
M  V30 2194 H 207.882 -2.27686 1.87732 0
M  V30 2195 H 207.963 -0.616195 2.48267 0
M  V30 2196 H 207.607 -1.48775 4.85622 0
M  V30 2197 H 207.537 -3.15024 4.2198 0
M  V30 2198 H 210.028 -1.92435 3.25234 0
M  V30 2199 H 210.341 -3.38423 6.94759 0
M  V30 2200 H 208.686 -3.04978 6.24511 0
M  V30 2201 H 211.877 -2.31078 4.07088 0
M  V30 2202 H 212.05 -2.9767 5.75584 0
M  V30 2203 N 205.456 -1.28612 -0.910864 0
M  V30 2204 C 206.705 -1.15311 -1.65488 0
M  V30 2205 C 207.018 0.296999 -1.93332 0
M  V30 2206 O 208.224 0.551168 -2.65847 0
M  V30 2207 C 206.68 -2.01599 -2.98137 0
M  V30 2208 C 206.288 -3.51367 -2.7793 0
M  V30 2209 C 208.032 -1.96993 -3.76024 0
M  V30 2210 C 205.939 -4.29797 -4.06237 0
M  V30 2211 H 204.869 -0.42796 -0.620779 0
M  V30 2212 H 207.52 -1.53166 -1.01057 0
M  V30 2213 H 205.902 -1.56603 -3.63719 0
M  V30 2214 H 207.076 -4.0434 -2.21011 0
M  V30 2215 H 205.391 -3.57529 -2.13452 0
M  V30 2216 H 207.988 -2.52856 -4.71135 0
M  V30 2217 H 208.331 -0.94733 -4.05378 0
M  V30 2218 H 208.864 -2.39973 -3.17266 0
M  V30 2219 H 205.603 -5.32648 -3.82055 0
M  V30 2220 H 205.123 -3.81596 -4.62757 0
M  V30 2221 H 206.802 -4.39869 -4.74473 0
M  V30 2222 N 206.934 1.1197 -1.10907 0
M  V30 2223 C 207.881 2.17846 -0.762345 0
M  V30 2224 C 208.851 1.63995 0.263599 0
M  V30 2225 O 210.036 1.90273 0.141773 0
M  V30 2226 C 207.176 3.44487 -0.205651 0
M  V30 2227 C 206.289 4.12369 -1.28748 0
M  V30 2228 C 205.424 5.26674 -0.691919 0
M  V30 2229 C 204.463 5.86431 -1.75399 0
M  V30 2230 N 203.6 6.92142 -1.17833 0
M  V30 2231 H 208.44 2.46851 -1.6694 0
M  V30 2232 H 205.977 1.21188 -0.833776 0
M  V30 2233 H 207.935 4.16981 0.135037 0
M  V30 2234 H 206.565 3.15884 0.664613 0
M  V30 2235 H 205.617 3.38003 -1.74522 0
M  V30 2236 H 206.929 4.52844 -2.09125 0
M  V30 2237 H 206.083 6.05953 -0.300963 0
M  V30 2238 H 204.822 4.8749 0.143232 0
M  V30 2239 H 203.827 5.05835 -2.15432 0
M  V30 2240 H 205.052 6.27685 -2.59208 0
M  V30 2241 H 202.998 6.54985 -0.364725 0
M  V30 2242 H 202.915 7.31242 -1.91887 0
M  V30 2243 H 204.183 7.75237 -0.81408 0
M  V30 2244 N 208.412 0.89855 1.29475 0
M  V30 2245 C 209.658 0.524658 1.95896 0
M  V30 2246 C 209.991 -0.926468 1.70676 0
M  V30 2247 O 209.266 -1.65665 1.01908 0
M  V30 2248 C 209.549 0.81633 3.50725 0
M  V30 2249 C 209.402 2.31907 3.85408 0
M  V30 2250 C 210.721 0.302038 4.39062 0
M  V30 2251 H 207.84 0.19209 0.711527 0
M  V30 2252 H 210.482 1.12502 1.53112 0
M  V30 2253 H 208.632 0.305369 3.87298 0
M  V30 2254 H 210.304 2.89949 3.58786 0
M  V30 2255 H 208.547 2.78027 3.32992 0
M  V30 2256 H 209.218 2.47373 4.93468 0
M  V30 2257 H 211.694 0.739551 4.09475 0
M  V30 2258 H 210.57 0.535331 5.46283 0
M  V30 2259 H 210.831 -0.797216 4.34853 0
M  V30 2260 N 209.89 -1.43072 0.660911 0
M  V30 2261 C 211.306 -1.56169 0.329173 0
M  V30 2262 C 211.506 -1.64317 -1.16629 0
M  V30 2263 O 210.562 -1.60245 -1.95135 0
M  V30 2264 C 211.875 -2.81873 1.04729 0
M  V30 2265 C 213.423 -2.95627 1.02828 0
M  V30 2266 C 213.898 -4.24174 1.72744 0
M  V30 2267 N 215.389 -4.31055 1.69545 0
M  V30 2268 C 216.124 -5.29304 2.20511 0
M  V30 2269 N 215.62 -6.33786 2.79799 0
M  V30 2270 N 217.413 -5.21008 2.10966 0
M  V30 2271 H 209.564 -1.36027 1.63127 0
M  V30 2272 H 211.827 -0.653823 0.686454 0
M  V30 2273 H 211.533 -2.81942 2.10242 0
M  V30 2274 H 211.407 -3.72338 0.603702 0
M  V30 2275 H 213.794 -2.95094 -0.0184742 0
M  V30 2276 H 213.875 -2.06431 1.51063 0
M  V30 2277 H 213.519 -4.25467 2.7738 0
M  V30 2278 H 213.449 -5.1228 1.2197 0
M  V30 2279 H 215.94 -3.56174 1.26288 0
M  V30 2280 H 216.253 -7.05086 3.16344 0
M  V30 2281 H 214.598 -6.34387 2.83863 0
M  V30 2282 H 217.789 -4.38301 1.64347 0
M  V30 2283 H 217.962 -5.97416 2.50993 0
M  V30 2284 N 211.368 -0.403325 -1.52352 0
M  V30 2285 C 212.278 0.432009 -2.30588 0
M  V30 2286 C 213.294 1.05884 -1.38075 0
M  V30 2287 O 214.47 1.06161 -1.71148 0
M  V30 2288 C 211.535 1.53669 -3.10784 0
M  V30 2289 C 210.596 0.933525 -4.19027 0
M  V30 2290 C 209.829 1.98557 -4.9539 0
M  V30 2291 O 210.052 3.20283 -4.71991 0
M  V30 2292 O 208.986 1.59504 -5.80381 0
M  V30 2293 H 212.812 -0.205739 -3.03002 0
M  V30 2294 H 210.397 -0.166675 -1.48467 0
M  V30 2295 H 212.279 2.17814 -3.60742 0
M  V30 2296 H 210.954 2.15915 -2.41169 0
M  V30 2297 H 209.861 0.254954 -3.7323 0
M  V30 2298 H 211.194 0.35508 -4.90918 0
M  V30 2299 N 212.846 1.57033 -0.133567 0
M  V30 2300 C 214.094 1.953 0.519848 0
M  V30 2301 C 214.415 1.01866 1.66278 0
M  V30 2302 O 213.685 0.0776513 1.95746 0
M  V30 2303 H 212.265 0.721091 0.195032 0
M  V30 2304 H 214.927 1.93809 -0.205921 0
M  V30 2305 H 214.023 2.98695 0.904854 0
M  V30 2306 N 214.325 -0.140222 1.56975 0
M  V30 2307 C 215.741 -0.493088 1.51792 0
M  V30 2308 C 215.941 -1.83013 0.843116 0
M  V30 2309 O 214.997 -2.49041 0.416493 0
M  V30 2310 C 216.31 -0.497144 2.96562 0
M  V30 2311 C 217.858 -0.582186 3.07538 0
M  V30 2312 C 218.333 -0.616838 4.53827 0
M  V30 2313 N 219.824 -0.678873 4.58198 0
M  V30 2314 C 220.559 -0.726782 5.68775 0
M  V30 2315 N 220.055 -0.733623 6.88905 0
M  V30 2316 N 221.848 -0.768179 5.56826 0
M  V30 2317 H 213.999 0.736108 1.99237 0
M  V30 2318 H 216.262 0.269182 0.90898 0
M  V30 2319 H 215.968 0.417217 3.49217 0
M  V30 2320 H 215.842 -1.33263 3.52875 0
M  V30 2321 H 218.229 -1.48697 2.54899 0
M  V30 2322 H 218.31 0.280581 2.54257 0
M  V30 2323 H 217.954 0.283812 5.07106 0
M  V30 2324 H 217.884 -1.49619 5.04898 0
M  V30 2325 H 220.375 -0.68061 3.7172 0
M  V30 2326 H 220.688 -0.772215 7.68932 0
M  V30 2327 H 219.033 -0.701389 6.91452 0
M  V30 2328 H 222.224 -0.760051 4.61888 0
M  V30 2329 H 222.397 -0.80205 6.43017 0
M  V30 2330 N 215.803 -1.52179 -0.40978 0
M  V30 2331 C 216.733 -1.78435 -1.5061 0
M  V30 2332 C 217.714 -0.635295 -1.57791 0
M  V30 2333 O 218.899 -0.880823 -1.73076 0
M  V30 2334 C 216.029 -1.93444 -2.88439 0
M  V30 2335 C 214.983 -3.09038 -2.96108 0
M  V30 2336 C 214.309 -3.09268 -4.36185 0
M  V30 2337 C 215.609 -4.48508 -2.67652 0
M  V30 2338 H 217.303 -2.70237 -1.28889 0
M  V30 2339 H 214.849 -1.30036 -0.618605 0
M  V30 2340 H 216.802 -2.10394 -3.65119 0
M  V30 2341 H 215.526 -0.983129 -3.11452 0
M  V30 2342 H 214.185 -2.91837 -2.21872 0
M  V30 2343 H 213.833 -2.11861 -4.56206 0
M  V30 2344 H 213.533 -3.86907 -4.42241 0
M  V30 2345 H 215.057 -3.28348 -5.14801 0
M  V30 2346 H 216.471 -4.65918 -3.34056 0
M  V30 2347 H 214.868 -5.28059 -2.85085 0
M  V30 2348 H 215.938 -4.56649 -1.63095 0
M  V30 2349 N 217.281 0.66697 -1.42791 0
M  V30 2350 C 218.697 0.981027 -1.25889 0
M  V30 2351 C 218.897 2.00793 -0.168695 0
M  V30 2352 O 217.953 2.48321 0.45747 0
M  V30 2353 C 219.266 1.47838 -2.61848 0
M  V30 2354 C 220.814 1.59575 -2.69267 0
M  V30 2355 C 221.289 2.12704 -4.05612 0
M  V30 2356 N 222.78 2.20026 -4.07606 0
M  V30 2357 C 223.515 2.62227 -5.09926 0
M  V30 2358 N 223.011 3.03824 -6.22626 0
M  V30 2359 N 224.804 2.62045 -4.97281 0
M  V30 2360 H 216.955 -0.0127891 -2.12396 0
M  V30 2361 H 219.218 0.0568258 -0.946295 0
M  V30 2362 H 218.924 0.798299 -3.4252 0
M  V30 2363 H 218.798 2.45579 -2.86305 0
M  V30 2364 H 221.185 2.26687 -1.88936 0
M  V30 2365 H 221.266 0.60302 -2.48591 0
M  V30 2366 H 220.91 1.46198 -4.86404 0
M  V30 2367 H 220.84 3.12782 -4.23645 0
M  V30 2368 H 223.331 1.90708 -3.2625 0
M  V30 2369 H 223.644 3.34734 -6.96544 0
M  V30 2370 H 221.989 3.01662 -6.26119 0
M  V30 2371 H 225.18 2.28916 -4.08308 0
M  V30 2372 H 225.353 2.94613 -5.77154 0
M  V30 2373 N 218.759 1.29093 0.90403 0
M  V30 2374 C 220.007 1.16583 1.65085 0
M  V30 2375 C 220.328 -0.283933 1.92922 0
M  V30 2376 O 219.598 -1.19509 1.55224 0
M  V30 2377 H 218.178 0.428467 0.611903 0
M  V30 2378 H 220.84 1.61959 1.08422 0
M  V30 2379 H 219.936 1.71266 2.6091 0
M  V30 2380 N 220.237 -1.11381 1.11499 0
M  V30 2381 C 221.2 -2.15622 0.777153 0
M  V30 2382 C 222.2 -1.59504 -0.203779 0
M  V30 2383 O 223.39 -1.74188 0.020782 0
M  V30 2384 C 220.522 -3.40556 0.153116 0
M  V30 2385 H 221.715 -2.47021 1.70061 0
M  V30 2386 H 219.268 -1.26577 0.916952 0
M  V30 2387 H 220.003 -3.14767 -0.780536 0
M  V30 2388 H 219.788 -3.8257 0.859238 0
M  V30 2389 H 221.278 -4.17546 -0.0671044 0
M  V30 2390 N 221.715 -0.905404 -1.28997 0
M  V30 2391 C 222.645 -0.404212 -2.29975 0
M  V30 2392 C 223.626 0.523784 -1.61835 0
M  V30 2393 O 224.811 0.433298 -1.89304 0
M  V30 2394 C 221.941 0.364042 -3.45387 0
M  V30 2395 C 220.895 -0.474048 -4.25367 0
M  V30 2396 C 220.221 0.422045 -5.33032 0
M  V30 2397 C 221.521 -1.72696 -4.92923 0
M  V30 2398 H 223.215 -1.24807 -2.72146 0
M  V30 2399 H 220.761 -0.601585 -1.30832 0
M  V30 2400 H 222.714 0.725447 -4.15109 0
M  V30 2401 H 221.438 1.24174 -3.02074 0
M  V30 2402 H 220.097 -0.81786 -3.57361 0
M  V30 2403 H 219.745 1.29804 -4.85963 0
M  V30 2404 H 219.445 -0.135057 -5.87445 0
M  V30 2405 H 220.969 0.779517 -6.05604 0
M  V30 2406 H 222.383 -1.43495 -5.55051 0
M  V30 2407 H 220.78 -2.22582 -5.57295 0
M  V30 2408 H 221.85 -2.45964 -4.17887 0
M  V30 2409 N 223.193 1.4272 -0.668489 0
M  V30 2410 C 224.44 2.01624 -0.18814 0
M  V30 2411 C 224.768 1.5282 1.20317 0
M  V30 2412 O 224.023 0.718323 1.8204 0
M  V30 2413 C 224.322 3.57021 -0.164499 0
M  V30 2414 C 223.988 4.25232 -1.49962 0
M  V30 2415 C 222.65 4.4358 -1.8652 0
M  V30 2416 C 225.002 4.63727 -2.37921 0
M  V30 2417 C 222.33 4.97694 -3.10674 0
M  V30 2418 C 224.682 5.19218 -3.6138 0
M  V30 2419 C 223.346 5.3578 -3.98115 0
M  V30 2420 H 222.616 0.737795 -0.0688454 0
M  V30 2421 H 225.263 1.70991 -0.862225 0
M  V30 2422 H 223.568 3.87285 0.593079 0
M  V30 2423 H 225.265 4.00372 0.224271 0
M  V30 2424 H 221.855 4.11306 -1.20522 0
M  V30 2425 H 226.039 4.4923 -2.10964 0
M  V30 2426 H 221.295 5.08702 -3.39164 0
M  V30 2427 H 225.469 5.4799 -4.29743 0
M  V30 2428 H 223.096 5.77475 -4.94395 0
M  V30 2429 N 224.671 0.411399 1.52136 0
M  V30 2430 C 225.601 -0.404015 2.29978 0
M  V30 2431 C 226.582 -1.04412 1.34284 0
M  V30 2432 O 227.767 -1.0527 1.63192 0
M  V30 2433 C 224.897 -1.5197 3.12286 0
M  V30 2434 C 223.851 -1.00448 4.16046 0
M  V30 2435 C 223.177 -2.21393 4.86712 0
M  V30 2436 C 224.477 -0.0569336 5.22269 0
M  V30 2437 H 226.171 0.245529 2.98392 0
M  V30 2438 H 223.717 0.119525 1.43503 0
M  V30 2439 H 225.67 -2.09715 3.6551 0
M  V30 2440 H 224.394 -2.19716 2.41646 0
M  V30 2441 H 223.053 -0.449421 3.63835 0
M  V30 2442 H 222.701 -2.87699 4.12599 0
M  V30 2443 H 222.401 -1.87571 5.56858 0
M  V30 2444 H 223.925 -2.7974 5.4275 0
M  V30 2445 H 225.339 -0.54325 5.7072 0
M  V30 2446 H 223.736 0.192594 5.99791 0
M  V30 2447 H 224.806 0.887663 4.76706 0
M  V30 2448 N 226.149 -1.5696 0.141893 0
M  V30 2449 C 227.56 -1.82797 -0.379776 0
M  V30 2450 C 227.911 -1.06033 -1.6508 0
M  V30 2451 O 227.036 -0.304011 -2.14254 0
M  V30 2452 C 227.631 -3.31578 -0.695802 0
M  V30 2453 C 226.19 -3.58014 -1.16201 0
M  V30 2454 C 225.337 -2.76699 -0.182455 0
M  V30 2455 H 228.288 -1.54406 0.366675 0
M  V30 2456 H 228.309 -3.47454 -1.55099 0
M  V30 2457 H 227.821 -3.87421 0.229449 0
M  V30 2458 H 225.922 -3.07553 -2.10338 0
M  V30 2459 H 226.035 -4.66501 -1.09151 0
M  V30 2460 H 224.399 -2.45618 -0.674072 0
M  V30 2461 H 225.182 -3.35311 0.736297 0
M  V30 2462 N 227.627 0.131896 -1.57047 0
M  V30 2463 C 229.038 0.690407 -1.73465 0
M  V30 2464 C 229.389 1.8094 -0.758629 0
M  V30 2465 O 228.514 2.16282 0.0713813 0
M  V30 2466 C 229.109 1.25916 -3.14532 0
M  V30 2467 C 227.668 1.76409 -3.32501 0
M  V30 2468 C 226.815 0.658579 -2.69366 0
M  V30 2469 H 229.766 -0.0939144 -1.58422 0
M  V30 2470 H 229.787 2.12892 -3.15369 0
M  V30 2471 H 229.299 0.444515 -3.85546 0
M  V30 2472 H 227.4 2.60391 -2.66509 0
M  V30 2473 H 227.513 1.88241 -4.4057 0
M  V30 2474 H 225.877 1.08899 -2.30246 0
M  V30 2475 H 226.66 -0.14487 -3.42994 0
M  V30 2476 N 229.106 1.52395 0.401703 0
M  V30 2477 C 230.354 1.66488 1.14569 0
M  V30 2478 C 230.675 0.400897 1.90835 0
M  V30 2479 O 229.945 -0.584415 1.8698 0
M  V30 2480 H 228.525 0.613672 0.425929 0
M  V30 2481 H 231.187 1.89464 0.457093 0
M  V30 2482 H 230.283 2.50942 1.85566 0
M  V30 2483 N 230.584 -0.659388 1.43143 0
M  V30 2484 C 231.494 -1.80167 1.50256 0
M  V30 2485 C 232.51 -1.69571 0.390106 0
M  V30 2486 O 233.686 -1.90849 0.643319 0
M  V30 2487 C 230.751 -3.16409 1.41725 0
M  V30 2488 C 229.812 -3.38848 2.63591 0
M  V30 2489 C 229.045 -4.68591 2.55458 0
M  V30 2490 O 229.268 -5.47532 1.59891 0
M  V30 2491 O 228.202 -4.92614 3.45854 0
M  V30 2492 H 232.028 -1.77121 2.46702 0
M  V30 2493 H 229.613 -0.817092 1.25076 0
M  V30 2494 H 231.495 -3.9768 1.39387 0
M  V30 2495 H 230.17 -3.20059 0.484118 0
M  V30 2496 H 229.077 -2.57366 2.71502 0
M  V30 2497 H 230.41 -3.4004 3.55856 0
M  V30 2498 N 232.062 -1.29571 -0.897171 0
M  V30 2499 C 233.31 -1.17456 -1.64464 0
M  V30 2500 C 233.631 0.273698 -1.9307 0
M  V30 2501 O 232.901 1.18684 -1.55855 0
M  V30 2502 H 231.481 -0.431706 -0.609622 0
M  V30 2503 H 234.143 -1.62531 -1.07562 0
M  V30 2504 H 233.239 -1.72648 -2.59998 0
M  V30 2505 N 233.54 1.10788 -1.12088 0
M  V30 2506 C 234.47 2.19083 -0.807755 0
M  V30 2507 C 235.451 1.6858 0.226859 0
M  V30 2508 O 236.636 1.93997 0.0888475 0
M  V30 2509 C 233.766 3.46344 -0.257576 0
M  V30 2510 C 232.72 4.101 -1.22483 0
M  V30 2511 C 232.046 5.32016 -0.535052 0
M  V30 2512 C 233.346 4.54236 -2.57811 0
M  V30 2513 H 235.04 2.45534 -1.71328 0
M  V30 2514 H 232.586 1.1801 -0.825205 0
M  V30 2515 H 234.539 4.21392 -0.0262679 0
M  V30 2516 H 233.263 3.19373 0.683278 0
M  V30 2517 H 231.922 3.37054 -1.44189 0
M  V30 2518 H 231.57 5.01319 0.410827 0
M  V30 2519 H 231.27 5.75625 -1.18024 0
M  V30 2520 H 232.794 6.09799 -0.312695 0
M  V30 2521 H 234.208 5.20575 -2.40155 0
M  V30 2522 H 232.605 5.08682 -3.18375 0
M  V30 2523 H 233.675 3.6734 -3.16528 0
M  V30 2524 N 235.018 0.912232 1.28515 0
M  V30 2525 C 236.265 0.544599 1.95039 0
M  V30 2526 C 236.593 -0.911435 1.71823 0
M  V30 2527 O 235.848 -1.66317 1.03137 0
M  V30 2528 C 236.147 0.798392 3.48368 0
M  V30 2529 C 235.813 2.23374 3.91682 0
M  V30 2530 C 234.475 2.62617 4.03219 0
M  V30 2531 C 236.827 3.16786 4.13879 0
M  V30 2532 C 234.155 3.94429 4.3433 0
M  V30 2533 C 236.507 4.48161 4.46469 0
M  V30 2534 C 235.171 4.8726 4.56217 0
M  V30 2535 H 234.441 0.199283 0.7137 0
M  V30 2536 H 237.088 1.15327 1.52879 0
M  V30 2537 H 235.393 0.106908 3.91654 0
M  V30 2538 H 237.09 0.493141 3.97956 0
M  V30 2539 H 233.68 1.91922 3.83228 0
M  V30 2540 H 237.864 2.87677 4.0442 0
M  V30 2541 H 233.12 4.24426 4.40082 0
M  V30 2542 H 237.294 5.20559 4.62592 0
M  V30 2543 H 234.921 5.89431 4.80078 0
M  V30 2544 N 236.496 -1.42363 0.676048 0
M  V30 2545 C 237.907 -1.84649 0.275948 0
M  V30 2546 C 238.258 -1.56588 -1.18214 0
M  V30 2547 O 237.383 -1.02634 -1.90513 0
M  V30 2548 C 237.978 -3.35178 0.494053 0
M  V30 2549 C 236.537 -3.76109 0.148061 0
M  V30 2550 C 235.684 -2.65931 0.785891 0
M  V30 2551 H 238.635 -1.32192 0.878121 0
M  V30 2552 H 238.656 -3.79655 -0.25343 0
M  V30 2553 H 238.168 -3.55571 1.55535 0
M  V30 2554 H 236.269 -3.61323 -0.909742 0
M  V30 2555 H 236.382 -4.7546 0.589454 0
M  V30 2556 H 234.746 -2.53773 0.217113 0
M  V30 2557 H 235.529 -2.89146 1.85067 0
M  V30 2558 N 237.974 -0.419461 -1.51915 0
M  V30 2559 C 239.222 0.152637 -2.01523 0
M  V30 2560 C 239.543 1.44762 -1.30649 0
M  V30 2561 O 238.813 1.90997 -0.435535 0
M  V30 2562 H 237.393 0.0593966 -0.744635 0
M  V30 2563 H 240.055 -0.558073 -1.86739 0
M  V30 2564 H 239.151 0.341369 -3.10227 0
M  V30 2565 N 239.452 1.56882 -0.150215 0
M  V30 2566 C 240.698 1.96518 0.500834 0
M  V30 2567 C 241.031 1.03527 1.64304 0
M  V30 2568 O 240.306 0.0782751 1.94342 0
M  V30 2569 C 240.589 3.45822 1.00395 0
M  V30 2570 C 240.442 4.49591 -0.136983 0
M  V30 2571 C 241.761 3.97704 1.88467 0
M  V30 2572 H 238.88 0.714535 0.18058 0
M  V30 2573 H 241.522 1.88577 -0.232091 0
M  V30 2574 H 239.672 3.5272 1.62851 0
M  V30 2575 H 241.344 4.5477 -0.77343 0
M  V30 2576 H 239.587 4.26441 -0.795652 0
M  V30 2577 H 240.258 5.51402 0.256815 0
M  V30 2578 H 242.734 3.93304 1.35834 0
M  V30 2579 H 241.61 5.0263 2.20578 0
M  V30 2580 H 241.871 3.40252 2.82279 0
M  V30 2581 N 240.93 -0.123565 1.57115 0
M  V30 2582 C 242.179 -0.830704 1.83799 0
M  V30 2583 C 242.492 -1.81259 0.735158 0
M  V30 2584 O 243.698 -2.56558 0.888278 0
M  V30 2585 C 242.154 -1.52802 3.25852 0
M  V30 2586 C 241.762 -0.587356 4.44133 0
M  V30 2587 C 243.506 -2.22056 3.61789 0
M  V30 2588 C 241.413 -1.28764 5.77212 0
M  V30 2589 H 240.343 -0.313967 0.685522 0
M  V30 2590 H 242.994 -0.0834359 1.8331 0
M  V30 2591 H 241.376 -2.32175 3.20797 0
M  V30 2592 H 242.55 0.172829 4.60476 0
M  V30 2593 H 240.865 -0.00201892 4.164 0
M  V30 2594 H 243.462 -2.75131 4.58483 0
M  V30 2595 H 243.805 -2.99644 2.88997 0
M  V30 2596 H 244.338 -1.49576 3.68608 0
M  V30 2597 H 241.077 -0.55314 6.53162 0
M  V30 2598 H 240.597 -2.01995 5.64764 0
M  V30 2599 H 242.276 -1.8221 6.20813 0
M  V30 2600 N 242.408 -1.52605 -0.393616 0
M  V30 2601 C 243.685 -1.58001 -1.15304 0
M  V30 2602 C 244.065 -0.370385 -2.07825 0
M  V30 2603 O 243.413 0.641638 -2.19306 0
M  V30 2604 C 243.623 -2.91652 -1.91677 0
M  V30 2605 C 244.971 -3.4522 -2.47201 0
M  V30 2606 O 245.995 -2.93495 -2.01839 0
M  V30 2607 O 244.854 -4.35579 -3.3005 0
M  V30 2608 H 241.948 -0.637068 -0.527327 0
M  V30 2609 H 244.494 -1.64939 -0.399141 0
M  V30 2610 H 243.266 -3.71136 -1.23992 0
M  V30 2611 H 242.889 -2.88077 -2.74039 0
M  V30 2612 N 243.887 0.651787 -1.4349 0
M  V30 2613 C 244.817 1.77621 -1.51569 0
M  V30 2614 C 245.798 1.66022 -0.370253 0
M  V30 2615 O 246.983 1.85095 -0.587658 0
M  V30 2616 C 244.113 3.16056 -1.43966 0
M  V30 2617 C 243.067 3.4242 -2.56774 0
M  V30 2618 C 242.393 4.8067 -2.34223 0
M  V30 2619 C 243.693 3.37023 -3.99015 0
M  V30 2620 H 245.387 1.71117 -2.45681 0
M  V30 2621 H 242.933 0.821825 -1.18246 0
M  V30 2622 H 244.886 3.94472 -1.48221 0
M  V30 2623 H 243.61 3.23293 -0.463586 0
M  V30 2624 H 242.269 2.66375 -2.51873 0
M  V30 2625 H 241.917 4.84585 -1.34856 0
M  V30 2626 H 241.617 4.9927 -3.09844 0
M  V30 2627 H 243.141 5.61342 -2.40265 0
M  V30 2628 H 244.555 4.05374 -4.05395 0
M  V30 2629 H 242.952 3.67159 -4.74673 0
M  V30 2630 H 244.022 2.3518 -4.2405 0
M  V30 2631 N 245.365 1.30045 0.890287 0
M  V30 2632 C 246.612 1.18561 1.64163 0
M  V30 2633 C 246.94 -0.260852 1.92743 0
M  V30 2634 O 246.195 -1.20376 1.54299 0
M  V30 2635 C 246.494 1.95409 2.99249 0
M  V30 2636 C 246.16 3.45066 2.90242 0
M  V30 2637 C 244.822 3.85878 2.87492 0
M  V30 2638 C 247.174 4.4039 2.78758 0
M  V30 2639 C 244.502 5.20314 2.7109 0
M  V30 2640 C 246.854 5.74928 2.63894 0
M  V30 2641 C 245.518 6.14986 2.59516 0
M  V30 2642 H 244.788 0.433846 0.600715 0
M  V30 2643 H 247.435 1.61088 1.03552 0
M  V30 2644 H 245.74 1.45501 3.63781 0
M  V30 2645 H 247.437 1.8392 3.56334 0
M  V30 2646 H 244.027 3.12631 2.93189 0
M  V30 2647 H 248.211 4.09806 2.79952 0
M  V30 2648 H 243.467 5.50449 2.66112 0
M  V30 2649 H 247.641 6.48434 2.53981 0
M  V30 2650 H 245.268 7.19104 2.46565 0
M  V30 2651 N 246.843 -1.10192 1.12674 0
M  V30 2652 C 248.091 -1.81845 0.881861 0
M  V30 2653 C 248.412 -1.85737 -0.593867 0
M  V30 2654 O 247.682 -1.33724 -1.4316 0
M  V30 2655 H 246.262 -0.673432 0.323261 0
M  V30 2656 H 248.924 -1.33316 1.42172 0
M  V30 2657 H 248.02 -2.85288 1.2656 0
M  V30 2658 N 248.321 -0.919034 -1.28029 0
M  V30 2659 C 249.569 -0.553838 -1.94363 0
M  V30 2660 C 249.89 0.906357 -1.72656 0
M  V30 2661 O 249.16 1.64143 -1.0693 0
M  V30 2662 H 247.74 -0.201834 -0.719216 0
M  V30 2663 H 250.402 -1.16954 -1.55909 0
M  V30 2664 H 249.498 -0.752758 -3.02886 0
M  V30 2665 N 249.799 1.42003 -0.683588 0
M  V30 2666 C 250.729 2.33487 -0.024866 0
M  V30 2667 C 251.71 1.51163 0.779975 0
M  V30 2668 O 252.895 1.79739 0.735362 0
M  V30 2669 C 250.025 3.3487 0.920836 0
M  V30 2670 C 248.979 4.27414 0.223958 0
M  V30 2671 C 248.305 5.19074 1.2832 0
M  V30 2672 C 249.605 5.14445 -0.90242 0
M  V30 2673 H 251.299 2.88819 -0.788921 0
M  V30 2674 H 248.845 1.38873 -0.38083 0
M  V30 2675 H 250.798 3.97787 1.39081 0
M  V30 2676 H 249.522 2.77861 1.71642 0
M  V30 2677 H 248.181 3.65904 -0.225864 0
M  V30 2678 H 247.829 4.58387 2.071 0
M  V30 2679 H 247.529 5.81822 0.821995 0
M  V30 2680 H 249.053 5.84867 1.75392 0
M  V30 2681 H 250.467 5.70998 -0.513272 0
M  V30 2682 H 248.864 5.86072 -1.28997 0
M  V30 2683 H 249.934 4.52322 -1.74737 0
M  V30 2684 N 251.277 0.427512 1.51691 0
M  V30 2685 C 252.525 -0.141948 2.01601 0
M  V30 2686 C 252.846 -1.44067 1.31414 0
M  V30 2687 O 252.116 -1.90763 0.445658 0
M  V30 2688 H 250.696 -0.0554468 0.744939 0
M  V30 2689 H 253.358 0.567968 1.86441 0
M  V30 2690 H 252.454 -0.324913 3.10404 0
M  V30 2691 N 252.755 -1.56801 0.158532 0
M  V30 2692 C 254.003 -1.96102 -0.488712 0
M  V30 2693 C 254.324 -1.04498 -1.64636 0
M  V30 2694 O 253.594 -0.108783 -1.95598 0
M  V30 2695 H 252.174 -0.724102 -0.183535 0
M  V30 2696 H 254.836 -1.93457 0.236728 0
M  V30 2697 H 253.932 -3.00097 -0.857219 0
M  V30 2698 N 254.233 0.115231 -1.57178 0
M  V30 2699 C 255.163 1.1423 -2.03651 0
M  V30 2700 C 256.144 1.42967 -0.921655 0
M  V30 2701 O 257.329 1.53343 -1.19162 0
M  V30 2702 C 254.459 2.4675 -2.44401 0
M  V30 2703 C 253.413 2.32467 -3.59365 0
M  V30 2704 C 252.739 3.69984 -3.86026 0
M  V30 2705 C 254.039 1.78203 -4.90959 0
M  V30 2706 H 255.733 0.755749 -2.89705 0
M  V30 2707 H 253.279 0.362093 -1.39373 0
M  V30 2708 H 255.232 3.18854 -2.75517 0
M  V30 2709 H 253.956 2.87302 -1.55322 0
M  V30 2710 H 252.615 1.62811 -3.28463 0
M  V30 2711 H 252.263 4.08028 -2.94147 0
M  V30 2712 H 251.963 3.61279 -4.63412 0
M  V30 2713 H 253.487 4.43587 -4.19599 0
M  V30 2714 H 254.901 2.40128 -5.20587 0
M  V30 2715 H 253.298 1.8031 -5.72371 0
M  V30 2716 H 254.368 0.739876 -4.79222 0
M  V30 2717 N 255.711 1.52812 0.385517 0
M  V30 2718 C 256.641 1.80808 1.47752 0
M  V30 2719 C 257.622 0.660318 1.5676 0
M  V30 2720 O 258.807 0.908246 1.71652 0
M  V30 2721 C 255.937 1.98008 2.85324 0
M  V30 2722 C 254.891 3.13709 2.91154 0
M  V30 2723 C 254.217 3.16169 4.31209 0
M  V30 2724 C 255.517 4.52709 2.60483 0
M  V30 2725 H 257.211 2.72253 1.24573 0
M  V30 2726 H 254.757 1.31003 0.597839 0
M  V30 2727 H 256.71 2.16176 3.61726 0
M  V30 2728 H 255.434 1.03255 3.09848 0
M  V30 2729 H 254.093 2.95329 2.17201 0
M  V30 2730 H 253.741 2.19092 4.52778 0
M  V30 2731 H 253.441 3.93894 4.36029 0
M  V30 2732 H 254.965 3.36496 5.09512 0
M  V30 2733 H 256.379 4.71173 3.26602 0
M  V30 2734 H 254.776 5.32528 2.76648 0
M  V30 2735 H 255.846 4.59186 1.55809 0
M  V30 2736 N 257.189 -0.644168 1.43834 0
M  V30 2737 C 258.099 -1.78563 1.52159 0
M  V30 2738 C 259.115 -1.69147 0.408069 0
M  V30 2739 O 260.291 -1.90156 0.663524 0
M  V30 2740 C 257.356 -3.14888 1.45073 0
M  V30 2741 C 256.417 -3.36034 2.6717 0
M  V30 2742 C 255.65 -4.65855 2.60413 0
M  V30 2743 O 255.873 -5.45805 1.65689 0
M  V30 2744 O 254.807 -4.88918 3.5106 0
M  V30 2745 H 258.633 -1.74494 2.48567 0
M  V30 2746 H 256.218 -0.80378 1.25935 0
M  V30 2747 H 258.1 -3.96179 1.43597 0
M  V30 2748 H 256.775 -3.19528 0.518037 0
M  V30 2749 H 255.682 -2.54472 2.74217 0
M  V30 2750 H 257.015 -3.36247 3.59442 0
M  V30 2751 N 258.668 -1.30515 -0.883378 0
M  V30 2752 C 259.915 -1.1943 -1.63532 0
M  V30 2753 C 260.243 0.250627 -1.92878 0
M  V30 2754 O 259.498 1.19556 -1.54935 0
M  V30 2755 C 259.797 -1.96994 -2.98209 0
M  V30 2756 C 259.463 -3.466 -2.88408 0
M  V30 2757 C 258.125 -3.87397 -2.85442 0
M  V30 2758 C 260.477 -4.41863 -2.76418 0
M  V30 2759 C 257.805 -5.21745 -2.68327 0
M  V30 2760 C 260.157 -5.7632 -2.60841 0
M  V30 2761 C 258.821 -6.16354 -2.56251 0
M  V30 2762 H 258.091 -0.437025 -0.598406 0
M  V30 2763 H 260.738 -1.61635 -1.02696 0
M  V30 2764 H 259.043 -1.47429 -3.63004 0
M  V30 2765 H 260.74 -1.85808 -3.55354 0
M  V30 2766 H 257.33 -3.14182 -2.91527 0
M  V30 2767 H 261.514 -4.11285 -2.77775 0
M  V30 2768 H 256.77 -5.51853 -2.63189 0
M  V30 2769 H 260.944 -6.49772 -2.50538 0
M  V30 2770 H 258.571 -7.20401 -2.42748 0
M  V30 2771 N 260.146 1.09593 -1.13257 0
M  V30 2772 C 261.562 1.33775 -0.870423 0
M  V30 2773 C 261.762 1.95327 0.494926 0
M  V30 2774 O 260.818 2.19853 1.2418 0
M  V30 2775 C 262.131 2.25106 -1.99369 0
M  V30 2776 C 263.679 2.3862 -2.02558 0
M  V30 2777 C 264.154 3.33285 -3.14142 0
M  V30 2778 N 265.645 3.40857 -3.13641 0
M  V30 2779 C 266.38 4.14101 -3.96621 0
M  V30 2780 N 265.876 4.90157 -4.8961 0
M  V30 2781 N 267.669 4.09808 -3.84726 0
M  V30 2782 H 259.82 0.680136 -2.01216 0
M  V30 2783 H 262.083 0.362133 -0.876107 0
M  V30 2784 H 261.789 1.87103 -2.97801 0
M  V30 2785 H 261.663 3.25481 -1.90635 0
M  V30 2786 H 264.05 2.75887 -1.0474 0
M  V30 2787 H 264.131 1.38028 -2.15364 0
M  V30 2788 H 263.775 2.96741 -4.12198 0
M  V30 2789 H 263.705 4.33776 -2.98574 0
M  V30 2790 H 266.196 2.86624 -2.46282 0
M  V30 2791 H 266.509 5.4347 -5.49418 0
M  V30 2792 H 264.854 4.89251 -4.93617 0
M  V30 2793 H 268.045 3.4949 -3.11408 0
M  V30 2794 H 268.218 4.66629 -4.49623 0
M  V30 2795 N 261.624 0.925811 1.2754 0
M  V30 2796 C 262.587 0.428129 2.25166 0
M  V30 2797 C 263.587 -0.452261 1.54309 0
M  V30 2798 O 264.777 -0.253608 1.72344 0
M  V30 2799 C 261.909 -0.384749 3.38722 0
M  V30 2800 H 263.102 1.29066 2.70706 0
M  V30 2801 H 260.655 0.706323 1.3943 0
M  V30 2802 H 261.39 -1.26618 2.98561 0
M  V30 2803 H 261.175 0.246454 3.91325 0
M  V30 2804 H 262.665 -0.723389 4.11287 0
M  V30 2805 N 263.102 -1.41638 0.69111 0
M  V30 2806 C 264.327 -2.06148 0.227583 0
M  V30 2807 C 264.752 -1.51652 -1.11281 0
M  V30 2808 O 264.11 -0.64164 -1.69566 0
M  V30 2809 C 264.158 -3.60095 0.190858 0
M  V30 2810 O 263.262 -4.03845 -0.835664 0
M  V30 2811 H 262.603 -0.654434 0.112306 0
M  V30 2812 H 265.133 -1.81484 0.944714 0
M  V30 2813 H 265.143 -4.07995 0.020207 0
M  V30 2814 H 263.818 -3.99129 1.16915 0
M  V30 2815 H 262.395 -3.67458 -0.63473 0
M  V30 2816 N 264.58 -0.43555 -1.51462 0
M  V30 2817 C 265.51 0.367376 -2.30592 0
M  V30 2818 C 266.491 1.02263 -1.35928 0
M  V30 2819 O 267.676 1.02661 -1.64847 0
M  V30 2820 C 264.806 1.46983 -3.14664 0
M  V30 2821 C 263.76 0.938161 -4.17591 0
M  V30 2822 C 263.086 2.13622 -4.90173 0
M  V30 2823 C 264.386 -0.0261621 -5.22293 0
M  V30 2824 H 266.08 -0.292969 -2.97963 0
M  V30 2825 H 263.626 -0.14234 -1.43295 0
M  V30 2826 H 265.579 2.03873 -3.688 0
M  V30 2827 H 264.303 2.15843 -2.4511 0
M  V30 2828 H 262.962 0.391481 -3.64504 0
M  V30 2829 H 262.61 2.81098 -4.17124 0
M  V30 2830 H 262.31 1.78688 -5.59772 0
M  V30 2831 H 263.834 2.7107 -5.47132 0
M  V30 2832 H 265.248 0.452384 -5.71512 0
M  V30 2833 H 263.645 -0.287992 -5.99409 0
M  V30 2834 H 264.715 -0.963391 -4.75233 0
M  V30 2835 N 266.058 1.56714 -0.166846 0
M  V30 2836 C 266.988 2.20754 0.760913 0
M  V30 2837 C 267.969 1.16178 1.24244 0
M  V30 2838 O 269.154 1.44592 1.29641 0
M  V30 2839 C 266.284 2.84478 1.99223 0
M  V30 2840 C 265.238 3.95053 1.64672 0
M  V30 2841 C 264.564 4.45805 2.95232 0
M  V30 2842 C 265.864 5.14865 0.878155 0
M  V30 2843 H 267.558 2.98537 0.22713 0
M  V30 2844 H 265.104 1.43596 0.107805 0
M  V30 2845 H 267.057 3.27951 2.64624 0
M  V30 2846 H 265.781 2.04056 2.55007 0
M  V30 2847 H 264.44 3.52228 1.01641 0
M  V30 2848 H 264.088 3.62181 3.49047 0
M  V30 2849 H 263.788 5.204 2.7287 0
M  V30 2850 H 265.312 4.91962 3.6167 0
M  V30 2851 H 266.726 5.55059 1.43466 0
M  V30 2852 H 265.123 5.95348 0.753738 0
M  V30 2853 H 266.193 4.84735 -0.126377 0
M  V30 2854 N 267.536 -0.106894 1.57237 0
M  V30 2855 C 268.499 -1.11466 2.0027 0
M  V30 2856 C 269.499 -1.33623 0.894519 0
M  V30 2857 O 270.689 -1.29935 1.16028 0
M  V30 2858 C 267.821 -2.46646 2.35327 0
M  V30 2859 H 269.014 -0.744516 2.90512 0
M  V30 2860 H 266.567 -0.351576 1.52295 0
M  V30 2861 H 267.302 -2.88558 1.48003 0
M  V30 2862 H 267.087 -2.31915 3.16161 0
M  V30 2863 H 268.577 -3.19151 2.69318 0
M  V30 2864 N 269.014 -1.53014 -0.377408 0
M  V30 2865 C 270.239 -1.72818 -1.14668 0
M  V30 2866 C 270.664 -0.450725 -1.8262 0
M  V30 2867 O 270.022 0.59439 -1.7128 0
M  V30 2868 C 270.07 -2.88627 -2.16164 0
M  V30 2869 O 269.174 -2.56409 -3.22998 0
M  V30 2870 H 268.515 -0.574301 -0.333278 0
M  V30 2871 H 271.045 -1.99853 -0.438152 0
M  V30 2872 H 271.055 -3.14455 -2.59966 0
M  V30 2873 H 269.73 -3.81294 -1.66095 0
M  V30 2874 H 268.307 -2.4136 -2.84253 0
M  V30 2875 N 270.492 0.636531 -1.44174 0
M  V30 2876 C 271.908 0.954104 -1.27941 0
M  V30 2877 C 272.108 2.0039 -0.211248 0
M  V30 2878 O 271.164 2.49236 0.404695 0
M  V30 2879 C 272.477 1.4225 -2.64925 0
M  V30 2880 C 274.025 1.53827 -2.72592 0
M  V30 2881 C 274.5 2.04053 -4.10032 0
M  V30 2882 N 275.991 2.11331 -4.12182 0
M  V30 2883 C 276.726 2.51352 -5.15374 0
M  V30 2884 N 276.222 2.90549 -6.2893 0
M  V30 2885 N 278.015 2.51438 -5.02728 0
M  V30 2886 H 270.166 -0.0578386 -2.12321 0
M  V30 2887 H 272.429 0.0367406 -0.947288 0
M  V30 2888 H 272.135 0.725466 -3.44136 0
M  V30 2889 H 272.009 2.39451 -2.9145 0
M  V30 2890 H 274.396 2.22628 -1.93702 0
M  V30 2891 H 274.477 0.550154 -2.49814 0
M  V30 2892 H 274.121 1.35848 -4.89395 0
M  V30 2893 H 274.051 3.03726 -4.30184 0
M  V30 2894 H 276.542 1.83745 -3.30222 0
M  V30 2895 H 276.855 3.19884 -7.03487 0
M  V30 2896 H 275.2 2.88313 -6.32377 0
M  V30 2897 H 278.391 2.20203 -4.13072 0
M  V30 2898 H 278.564 2.82304 -5.83274 0
M  V30 2899 N 271.97 1.30982 0.876444 0
M  V30 2900 C 273.218 1.20058 1.62575 0
M  V30 2901 C 273.539 -0.242947 1.93481 0
M  V30 2902 O 272.809 -1.1619 1.57724 0
M  V30 2903 H 271.389 0.44135 0.602677 0
M  V30 2904 H 274.051 1.64222 1.04962 0
M  V30 2905 H 273.147 1.76762 2.57219 0
M  V30 2906 N 273.449 -1.08991 1.13837 0
M  V30 2907 C 274.696 -1.81258 0.902882 0
M  V30 2908 C 275.024 -1.85936 -0.570803 0
M  V30 2909 O 274.279 -1.3267 -1.43865 0
M  V30 2910 C 274.578 -3.27042 1.44147 0
M  V30 2911 C 274.244 -3.4249 2.93276 0
M  V30 2912 C 272.906 -3.46414 3.33992 0
M  V30 2913 C 275.258 -3.4666 3.892 0
M  V30 2914 C 272.586 -3.52091 4.69307 0
M  V30 2915 C 274.938 -3.53872 5.24364 0
M  V30 2916 C 273.602 -3.56066 5.646 0
M  V30 2917 H 272.872 -0.663268 0.330388 0
M  V30 2918 H 275.519 -1.28368 1.42105 0
M  V30 2919 H 273.824 -3.82599 0.844097 0
M  V30 2920 H 275.521 -3.81499 1.23528 0
M  V30 2921 H 272.111 -3.40124 2.60794 0
M  V30 2922 H 276.295 -3.42865 3.58828 0
M  V30 2923 H 271.551 -3.52079 4.9985 0
M  V30 2924 H 275.725 -3.56043 5.98503 0
M  V30 2925 H 273.352 -3.60218 6.69438 0
M  V30 2926 N 274.927 -0.932562 -1.27047 0
M  V30 2927 C 275.89 -0.440064 -2.24936 0
M  V30 2928 C 276.89 0.444071 -1.54547 0
M  V30 2929 O 278.08 0.244465 -1.72476 0
M  V30 2930 C 275.212 0.36678 -3.38921 0
M  V30 2931 H 276.405 -1.305 -2.70018 0
M  V30 2932 H 273.958 -0.713707 -1.39054 0
M  V30 2933 H 274.693 1.25033 -2.99228 0
M  V30 2934 H 274.478 -0.267204 -3.91188 0
M  V30 2935 H 275.968 0.701567 -4.11665 0
M  V30 2936 N 276.405 1.4127 -0.698611 0
M  V30 2937 C 277.63 2.06024 -0.238512 0
M  V30 2938 C 278.055 1.5224 1.10475 0
M  V30 2939 O 277.413 0.650623 1.69223 0
M  V30 2940 C 277.461 3.59988 -0.209952 0
M  V30 2941 O 276.565 4.04282 0.814235 0
M  V30 2942 H 275.906 0.653829 -0.115775 0
M  V30 2943 H 278.436 1.8098 -0.954326 0
M  V30 2944 H 278.446 4.07979 -0.0418436 0
M  V30 2945 H 277.121 3.98503 -1.1903 0
M  V30 2946 H 275.698 3.6779 0.615234 0
M  V30 2947 N 277.883 0.443576 1.51229 0
M  V30 2948 C 278.813 -0.355142 2.30783 0
M  V30 2949 C 279.794 -1.0154 1.36468 0
M  V30 2950 O 280.979 -1.01785 1.65389 0
M  V30 2951 C 278.109 -1.45312 3.15439 0
M  V30 2952 C 277.063 -0.916002 4.18083 0
M  V30 2953 C 276.389 -2.1102 4.91299 0
M  V30 2954 C 277.689 0.0538602 5.22272 0
M  V30 2955 H 279.383 0.308767 2.97804 0
M  V30 2956 H 276.929 0.149937 1.43217 0
M  V30 2957 H 278.882 -2.01914 3.69876 0
M  V30 2958 H 277.606 -2.14541 2.46252 0
M  V30 2959 H 276.265 -0.372145 3.64706 0
M  V30 2960 H 275.913 -2.78882 4.18609 0
M  V30 2961 H 275.613 -1.75717 5.60712 0
M  V30 2962 H 277.137 -2.68164 5.48562 0
M  V30 2963 H 278.551 -0.422069 5.71744 0
M  V30 2964 H 276.948 0.319776 5.99247 0
M  V30 2965 H 278.018 0.98858 4.74716 0
M  V30 2966 N 279.361 -1.56624 0.175154 0
M  V30 2967 C 280.324 -2.16934 -0.739738 0
M  V30 2968 C 281.324 -1.11842 -1.15533 0
M  V30 2969 O 282.514 -1.37335 -1.07167 0
M  V30 2970 C 279.646 -2.75531 -2.00738 0
M  V30 2971 H 280.839 -2.99131 -0.214639 0
M  V30 2972 H 278.392 -1.56123 -0.0744197 0
M  V30 2973 H 279.127 -1.97078 -2.57548 0
M  V30 2974 H 278.912 -3.52444 -1.71831 0
M  V30 2975 H 280.402 -3.21904 -2.66021 0
M  V30 2976 N 280.839 0.0985539 -1.57292 0
M  V30 2977 C 281.769 1.12064 -2.04851 0
M  V30 2978 C 282.75 1.41981 -0.936767 0
M  V30 2979 O 283.935 1.52071 -1.20781 0
M  V30 2980 C 281.065 2.44144 -2.47004 0
M  V30 2981 C 280.019 2.28643 -3.6181 0
M  V30 2982 C 279.345 3.65869 -3.89929 0
M  V30 2983 C 280.645 1.72986 -4.92822 0
M  V30 2984 H 282.339 0.724979 -2.9049 0
M  V30 2985 H 279.885 0.34729 -1.39749 0
M  V30 2986 H 281.838 3.15914 -2.78884 0
M  V30 2987 H 280.562 2.85639 -1.5836 0
M  V30 2988 H 279.221 1.59318 -3.30172 0
M  V30 2989 H 278.869 4.04885 -2.98458 0
M  V30 2990 H 278.569 3.56344 -4.67218 0
M  V30 2991 H 280.093 4.39112 -4.2428 0
M  V30 2992 H 281.507 2.34593 -5.23105 0
M  V30 2993 H 279.904 1.74229 -5.74251 0
M  V30 2994 H 280.974 0.689007 -4.7998 0
M  V30 2995 N 282.317 1.53212 0.369288 0
M  V30 2996 C 283.28 1.7872 1.43498 0
M  V30 2997 C 284.28 0.657554 1.46741 0
M  V30 2998 O 285.47 0.925736 1.47566 0
M  V30 2999 C 282.602 1.90591 2.82645 0
M  V30 3000 H 283.795 2.73894 1.22156 0
M  V30 3001 H 281.348 1.44233 0.602203 0
M  V30 3002 H 282.083 0.974709 3.09306 0
M  V30 3003 H 281.868 2.72751 2.8169 0
M  V30 3004 H 283.358 2.11931 3.59826 0
M  V30 3005 N 283.795 -0.628877 1.44509 0
M  V30 3006 C 285.025 -1.41349 1.50678 0
M  V30 3007 C 285.433 -1.88745 0.131075 0
M  V30 3008 O 284.776 -1.61592 -0.87371 0
M  V30 3009 C 284.838 -2.66608 2.41165 0
M  V30 3010 C 284.502 -2.40993 3.88293 0
M  V30 3011 C 285.499 -2.0268 4.78766 0
M  V30 3012 C 283.184 -2.54563 4.33016 0
M  V30 3013 C 285.178 -1.78269 6.11963 0
M  V30 3014 C 282.865 -2.29766 5.6626 0
M  V30 3015 C 283.863 -1.91678 6.55552 0
M  V30 3016 O 283.551 -1.67158 7.86329 0
M  V30 3017 H 283.283 -0.439851 0.51333 0
M  V30 3018 H 285.837 -0.776084 1.90174 0
M  V30 3019 H 284.067 -3.32994 1.96601 0
M  V30 3020 H 285.756 -3.28615 2.38259 0
M  V30 3021 H 286.522 -1.91751 4.45485 0
M  V30 3022 H 282.401 -2.83179 3.63773 0
M  V30 3023 H 285.945 -1.48465 6.81619 0
M  V30 3024 H 281.842 -2.40306 5.99102 0
M  V30 3025 H 282.61 -1.81386 7.98149 0
M  V30 3026 N 285.273 -1.31445 -0.869486 0
M  V30 3027 C 286.223 -1.15731 -1.96444 0
M  V30 3028 C 287.207 -0.0681855 -1.60755 0
M  V30 3029 O 288.399 -0.293154 -1.74555 0
M  V30 3030 C 285.528 -0.867255 -3.32165 0
M  V30 3031 C 284.614 -1.99738 -3.74119 0
M  V30 3032 N 285.005 -3.24447 -3.88031 0
M  V30 3033 C 283.303 -1.89723 -4.03635 0
M  V30 3034 C 284.004 -3.98374 -4.23879 0
M  V30 3035 N 282.98 -3.26547 -4.3459 0
M  V30 3036 H 286.782 -2.10296 -2.05312 0
M  V30 3037 H 284.296 -1.23009 -1.06031 0
M  V30 3038 H 286.293 -0.735668 -4.10358 0
M  V30 3039 H 284.953 0.0701614 -3.24624 0
M  V30 3040 H 285.964 -3.59557 -3.72746 0
M  V30 3041 H 282.641 -1.03449 -4.04481 0
M  V30 3042 H 284.031 -5.05844 -4.42235 0
M  V30 3043 N 286.751 1.08385 -1.14413 0
M  V30 3044 C 287.699 2.17406 -0.826888 0
M  V30 3045 C 288.693 1.6827 0.195312 0
M  V30 3046 O 289.899 1.79927 0.0513892 0
M  V30 3047 H 286.274 0.70934 -0.249681 0
M  V30 3048 H 288.245 2.41388 -1.75426 0
M  V30 3049 C 286.994 3.46215 -0.320979 0
M  V30 3050 H 286.317 3.84401 -1.0989 0
M  V30 3051 H 287.757 4.23777 -0.137549 0
M  V30 3052 C 286.216 3.23067 0.955472 0
M  V30 3053 O 286.746 3.4668 2.02918 0
M  V30 3054 N 284.952 2.7661 0.890798 0
M  V30 3055 H 284.499 2.57594 0.0168815 0
M  V30 3056 H 284.457 2.61501 1.74542 0
M  V30 3057 N 288.23 0.939286 1.26551 0
M  V30 3058 C 289.46 0.601663 1.97645 0
M  V30 3059 C 289.868 -0.827206 1.70159 0
M  V30 3060 O 289.211 -1.56291 0.965338 0
M  V30 3061 C 289.273 0.761725 3.51337 0
M  V30 3062 C 288.937 2.16487 4.0247 0
M  V30 3063 C 289.934 3.14016 4.14355 0
M  V30 3064 C 287.619 2.48494 4.36527 0
M  V30 3065 C 289.613 4.41654 4.59587 0
M  V30 3066 C 287.3 3.76364 4.81449 0
M  V30 3067 C 288.298 4.72758 4.92939 0
M  V30 3068 O 287.986 5.98352 5.36871 0
M  V30 3069 H 287.718 0.225758 0.637189 0
M  V30 3070 H 290.272 1.26178 1.62075 0
M  V30 3071 H 288.502 0.0444808 3.86674 0
M  V30 3072 H 290.191 0.427442 4.03643 0
M  V30 3073 H 290.957 2.90613 3.8829 0
M  V30 3074 H 286.836 1.74202 4.26819 0
M  V30 3075 H 290.38 5.16896 4.68471 0
M  V30 3076 H 286.277 3.99582 5.06956 0
M  V30 3077 H 287.045 6.01507 5.55096 0
M  V30 3078 N 289.708 -1.40897 0.706093 0
M  V30 3079 C 290.618 -2.3455 0.0482286 0
M  V30 3080 C 291.634 -1.56796 -0.754396 0
M  V30 3081 O 292.81 -1.89228 -0.689538 0
M  V30 3082 C 289.875 -3.35625 -0.869303 0
M  V30 3083 C 288.936 -4.29261 -0.0576994 0
M  V30 3084 C 288.169 -5.25508 -0.931531 0
M  V30 3085 O 288.392 -5.27472 -2.17092 0
M  V30 3086 O 287.326 -6.00727 -0.375587 0
M  V30 3087 H 291.152 -2.92407 0.820476 0
M  V30 3088 H 288.737 -1.4193 0.4665 0
M  V30 3089 H 290.619 -3.97635 -1.39514 0
M  V30 3090 H 289.294 -2.80196 -1.62086 0
M  V30 3091 H 288.201 -3.70566 0.512988 0
M  V30 3092 H 289.534 -4.87817 0.655426 0
M  V30 3093 N 291.186 -0.45159 -1.50991 0
M  V30 3094 C 292.463 0.170707 -1.94854 0
M  V30 3095 C 292.843 1.58788 -1.39103 0
M  V30 3096 O 292.191 2.20913 -0.583921 0
M  V30 3097 C 292.401 0.133929 -3.48743 0
M  V30 3098 C 293.749 0.33248 -4.23296 0
M  V30 3099 O 294.773 0.211403 -3.55572 0
M  V30 3100 O 293.632 0.57486 -5.43468 0
M  V30 3101 H 290.726 0.122264 -0.817912 0
M  V30 3102 H 293.272 -0.510594 -1.61836 0
M  V30 3103 H 292.044 -0.856283 -3.81816 0
M  V30 3104 H 291.667 0.857529 -3.88242 0
M  V30 3105 N 292.664 1.56529 -0.183458 0
M  V30 3106 C 293.594 2.21549 0.737456 0
M  V30 3107 C 294.575 1.17489 1.23005 0
M  V30 3108 O 295.76 1.45959 1.281 0
M  V30 3109 C 292.89 2.86575 1.96194 0
M  V30 3110 C 291.844 3.96778 1.60473 0
M  V30 3111 C 291.17 4.48911 2.90487 0
M  V30 3112 C 292.47 5.15767 0.823497 0
M  V30 3113 H 294.164 2.98761 0.195453 0
M  V30 3114 H 291.71 1.43702 0.0925686 0
M  V30 3115 H 293.663 3.30739 2.61131 0
M  V30 3116 H 292.387 2.06749 2.52828 0
M  V30 3117 H 291.046 3.53286 0.978997 0
M  V30 3118 H 290.694 3.65862 3.45186 0
M  V30 3119 H 290.394 5.23265 2.67335 0
M  V30 3120 H 291.918 4.95771 3.56432 0
M  V30 3121 H 293.332 5.56549 1.37571 0
M  V30 3122 H 291.729 5.96114 0.690551 0
M  V30 3123 H 292.799 4.84574 -0.177782 0
M  V30 3124 N 294.142 -0.090211 1.57342 0
M  V30 3125 C 295.553 -0.644173 1.75235 0
M  V30 3126 C 295.904 -1.78865 0.806335 0
M  V30 3127 O 295.029 -2.16395 -0.0140128 0
M  V30 3128 C 295.624 -1.17532 3.1776 0
M  V30 3129 C 294.183 -1.67531 3.37061 0
M  V30 3130 C 293.33 -0.58693 2.71017 0
M  V30 3131 H 296.281 0.135884 1.58117 0
M  V30 3132 H 296.302 -2.04455 3.20902 0
M  V30 3133 H 295.814 -0.342138 3.86589 0
M  V30 3134 H 293.915 -2.53234 2.73319 0
M  V30 3135 H 294.028 -1.76493 4.45406 0
M  V30 3136 H 292.392 -1.02756 2.33052 0
M  V30 3137 H 293.175 0.235758 3.4249 0
M  V30 3138 N 295.62 -1.53406 -0.361157 0
M  V30 3139 C 297.036 -1.43277 -0.703124 0
M  V30 3140 C 297.236 -0.575384 -1.9311 0
M  V30 3141 O 296.292 -0.0595362 -2.5243 0
M  V30 3142 C 297.605 -2.8653 -0.9122 0
M  V30 3143 C 299.153 -2.96191 -1.01193 0
M  V30 3144 C 299.628 -4.40514 -1.25345 0
M  V30 3145 N 301.119 -4.43962 -1.32105 0
M  V30 3146 C 301.854 -5.52746 -1.5251 0
M  V30 3147 N 301.35 -6.71567 -1.70203 0
M  V30 3148 N 303.143 -5.40331 -1.54916 0
M  V30 3149 H 295.294 -2.07654 0.446475 0
M  V30 3150 H 297.557 -0.937944 0.137715 0
M  V30 3151 H 297.263 -3.51605 -0.0816414 0
M  V30 3152 H 297.137 -3.30441 -1.81903 0
M  V30 3153 H 299.524 -2.31266 -1.83303 0
M  V30 3154 H 299.605 -2.55667 -0.0823929 0
M  V30 3155 H 299.249 -5.06014 -0.437346 0
M  V30 3156 H 299.179 -4.78614 -2.19627 0
M  V30 3157 H 301.67 -3.58332 -1.20028 0
M  V30 3158 H 301.983 -7.50241 -1.85359 0
M  V30 3159 H 300.328 -6.74545 -1.67373 0
M  V30 3160 H 303.519 -4.46465 -1.40663 0
M  V30 3161 H 303.692 -6.25173 -1.70477 0
M  V30 3162 N 297.098 0.621204 -1.44841 0
M  V30 3163 C 298.045 1.73267 -1.5247 0
M  V30 3164 C 299.015 1.6189 -0.371611 0
M  V30 3165 O 300.2 1.81668 -0.58321 0
M  V30 3166 C 297.34 3.11545 -1.48438 0
M  V30 3167 C 296.453 3.33827 -2.74196 0
M  V30 3168 C 295.588 4.62133 -2.61929 0
M  V30 3169 C 294.627 4.77627 -3.82804 0
M  V30 3170 N 293.764 5.97219 -3.69153 0
M  V30 3171 H 298.604 1.66082 -2.47428 0
M  V30 3172 H 296.141 0.810026 -1.22788 0
M  V30 3173 H 298.099 3.91528 -1.4409 0
M  V30 3174 H 296.729 3.1772 -0.570402 0
M  V30 3175 H 295.781 2.47715 -2.88689 0
M  V30 3176 H 297.093 3.41153 -3.6389 0
M  V30 3177 H 296.247 5.50291 -2.5547 0
M  V30 3178 H 294.986 4.57182 -1.69811 0
M  V30 3179 H 293.991 3.87896 -3.89637 0
M  V30 3180 H 295.216 4.84385 -4.75971 0
M  V30 3181 H 293.162 5.93339 -2.79794 0
M  V30 3182 H 293.079 6.05644 -4.52472 0
M  V30 3183 H 294.347 6.87912 -3.66603 0
M  V30 3184 N 298.576 1.31904 0.862503 0
M  V30 3185 C 299.987 1.19803 1.43193 0
M  V30 3186 C 300.338 -0.192567 1.95253 0
M  V30 3187 O 299.463 -1.09081 1.86896 0
M  V30 3188 C 300.058 2.16883 2.60283 0
M  V30 3189 C 298.617 2.08692 3.13248 0
M  V30 3190 C 297.764 2.05691 1.85975 0
M  V30 3191 H 300.715 1.43846 0.670365 0
M  V30 3192 H 300.736 1.76278 3.37204 0
M  V30 3193 H 300.248 3.18083 2.22363 0
M  V30 3194 H 298.349 1.10713 3.55771 0
M  V30 3195 H 298.462 2.9815 3.75025 0
M  V30 3196 H 296.826 1.50814 2.05249 0
M  V30 3197 H 297.609 3.08659 1.50282 0
M  V30 3198 N 300.054 -1.07777 1.14986 0
M  V30 3199 C 300.964 -2.18404 0.856546 0
M  V30 3200 C 301.98 -1.73211 -0.165485 0
M  V30 3201 O 303.156 -2.01399 0.00755219 0
M  V30 3202 C 300.221 -3.44977 0.34526 0
M  V30 3203 C 299.282 -4.0476 1.43065 0
M  V30 3204 C 298.515 -5.25291 0.943663 0
M  V30 3205 O 298.738 -5.70004 -0.212426 0
M  V30 3206 O 297.672 -5.76638 1.72547 0
M  V30 3207 H 301.498 -2.45978 1.78125 0
M  V30 3208 H 299.083 -1.17033 0.928631 0
M  V30 3209 H 300.965 -4.21348 0.0663671 0
M  V30 3210 H 299.64 -3.18965 -0.551631 0
M  V30 3211 H 298.547 -3.29949 1.76309 0
M  V30 3212 H 299.88 -4.35035 2.30229 0
M  V30 3213 N 301.532 -0.945985 -1.26051 0
M  V30 3214 C 302.778 -0.597002 -1.93814 0
M  V30 3215 C 303.111 0.862484 -1.73997 0
M  V30 3216 O 302.386 1.61769 -1.07986 0
M  V30 3217 C 302.669 -0.945937 -3.47454 0
M  V30 3218 C 302.522 -2.46052 -3.76535 0
M  V30 3219 C 303.841 -0.464785 -4.37639 0
M  V30 3220 H 300.96 -0.218366 -0.703907 0
M  V30 3221 H 303.602 -1.18107 -1.48831 0
M  V30 3222 H 301.752 -0.448902 -3.85898 0
M  V30 3223 H 303.424 -3.03065 -3.47778 0
M  V30 3224 H 301.667 -2.90194 -3.22444 0
M  V30 3225 H 302.338 -2.65517 -4.83947 0
M  V30 3226 H 304.814 -0.891016 -4.06448 0
M  V30 3227 H 303.69 -0.737712 -5.4392 0
M  V30 3228 H 303.951 0.635274 -4.37512 0
M  V30 3229 N 303.011 1.40521 -0.713556 0
M  V30 3230 C 304.239 2.05237 -0.261775 0
M  V30 3231 C 304.654 1.53755 1.09567 0
M  V30 3232 O 304.011 0.693268 1.6882 0
M  V30 3233 C 304.062 3.60763 -0.230706 0
M  V30 3234 O 303.783 4.10345 -1.53455 0
M  V30 3235 C 305.284 4.42651 0.239874 0
M  V30 3236 H 302.504 0.660533 -0.118057 0
M  V30 3237 H 305.048 1.79967 -0.971192 0
M  V30 3238 H 303.203 3.8501 0.429661 0
M  V30 3239 H 303.617 5.04526 -1.43366 0
M  V30 3240 H 305.091 5.51599 0.210468 0
M  V30 3241 H 305.568 4.20082 1.28171 0
M  V30 3242 H 306.174 4.23507 -0.390142 0
M  V30 3243 N 304.489 0.459591 1.5075 0
M  V30 3244 C 305.766 -0.160371 1.94941 0
M  V30 3245 C 306.146 -1.58048 1.39943 0
M  V30 3246 O 305.494 -2.206 0.595629 0
M  V30 3247 C 305.704 -0.115432 3.48809 0
M  V30 3248 C 307.052 -0.310026 4.23467 0
M  V30 3249 O 308.076 -0.192543 3.55679 0
M  V30 3250 O 306.935 -0.546031 5.43765 0
M  V30 3251 H 304.029 -0.117925 0.818549 0
M  V30 3252 H 306.575 0.519169 1.61563 0
M  V30 3253 H 305.347 0.87652 3.81357 0
M  V30 3254 H 304.97 -0.836928 3.88692 0
M  V30 3255 N 305.967 -1.56429 0.191757 0
M  V30 3256 C 306.897 -2.21937 -0.725696 0
M  V30 3257 C 307.878 -1.1814 -1.2238 0
M  V30 3258 O 309.063 -1.46636 -1.27325 0
M  V30 3259 C 306.193 -2.87611 -1.94672 0
M  V30 3260 C 305.147 -3.97623 -1.58366 0
M  V30 3261 C 304.473 -4.50446 -2.88102 0
M  V30 3262 C 305.773 -5.16197 -0.796133 0
M  V30 3263 H 307.467 -2.98861 -0.179606 0
M  V30 3264 H 305.013 -1.43749 -0.0849464 0
M  V30 3265 H 306.966 -3.3212 -2.59373 0
M  V30 3266 H 305.69 -2.08087 -2.51728 0
M  V30 3267 H 304.349 -3.53801 -0.960247 0
M  V30 3268 H 303.997 -3.67688 -3.43241 0
M  V30 3269 H 303.697 -5.24675 -2.64556 0
M  V30 3270 H 305.221 -4.97654 -3.53798 0
M  V30 3271 H 306.635 -5.57271 -1.34618 0
M  V30 3272 H 305.032 -5.96471 -0.658928 0
M  V30 3273 H 306.102 -4.84473 0.203478 0
M  V30 3274 N 307.445 0.0818655 -1.57387 0
M  V30 3275 C 308.355 1.11642 -2.06333 0
M  V30 3276 C 309.371 1.43033 -0.99083 0
M  V30 3277 O 310.547 1.53411 -1.30488 0
M  V30 3278 C 307.612 2.41342 -2.48907 0
M  V30 3279 C 306.673 2.17014 -3.7041 0
M  V30 3280 C 305.906 3.4053 -4.10944 0
M  V30 3281 O 306.129 4.4927 -3.51444 0
M  V30 3282 O 305.063 3.29336 -5.03807 0
M  V30 3283 H 308.889 0.730657 -2.9478 0
M  V30 3284 H 306.474 0.295301 -1.46452 0
M  V30 3285 H 308.356 3.17691 -2.76858 0
M  V30 3286 H 307.031 2.79319 -1.63593 0
M  V30 3287 H 305.938 1.38403 -3.47556 0
M  V30 3288 H 307.271 1.83923 -4.56545 0
M  V30 3289 N 308.923 1.53595 0.353017 0
M  V30 3290 C 310.153 1.74058 1.11299 0
M  V30 3291 C 310.561 0.475205 1.83135 0
M  V30 3292 O 309.904 -0.562344 1.74881 0
M  V30 3293 C 309.966 2.85994 2.17825 0
M  V30 3294 C 309.63 4.25923 1.65647 0
M  V30 3295 C 310.627 5.07829 1.11383 0
M  V30 3296 C 308.312 4.72377 1.7078 0
M  V30 3297 C 310.306 6.34285 0.629439 0
M  V30 3298 C 307.993 5.98808 1.21953 0
M  V30 3299 C 308.991 6.79594 0.681265 0
M  V30 3300 O 308.679 8.03651 0.200248 0
M  V30 3301 H 308.411 0.585327 0.338183 0
M  V30 3302 H 310.965 2.01186 0.413927 0
M  V30 3303 H 309.195 2.54368 2.91262 0
M  V30 3304 H 310.884 2.94515 2.79313 0
M  V30 3305 H 311.65 4.73107 1.06746 0
M  V30 3306 H 307.529 4.0956 2.11617 0
M  V30 3307 H 311.073 6.97288 0.208636 0
M  V30 3308 H 306.97 6.33026 1.26287 0
M  V30 3309 H 307.738 8.1788 0.318416 0
M  V30 3310 N 310.401 -0.613514 1.45168 0
M  V30 3311 C 311.648 -1.37268 1.48875 0
M  V30 3312 C 311.976 -1.94077 0.128161 0
M  V30 3313 O 311.231 -1.75178 -0.872416 0
M  V30 3314 C 311.53 -2.54347 2.51083 0
M  V30 3315 C 311.196 -2.1572 3.95949 0
M  V30 3316 C 309.858 -2.04899 4.35396 0
M  V30 3317 C 312.21 -1.85485 4.87078 0
M  V30 3318 C 309.538 -1.62057 5.63875 0
M  V30 3319 C 311.89 -1.4413 6.15962 0
M  V30 3320 C 310.554 -1.31863 6.54346 0
M  V30 3321 H 309.824 -0.502299 0.544773 0
M  V30 3322 H 312.471 -0.694021 1.78481 0
M  V30 3323 H 310.776 -3.27524 2.15024 0
M  V30 3324 H 312.473 -3.12577 2.51191 0
M  V30 3325 H 309.063 -2.25066 3.64751 0
M  V30 3326 H 313.247 -1.92745 4.57343 0
M  V30 3327 H 308.503 -1.51177 5.92415 0
M  V30 3328 H 312.677 -1.19778 6.86022 0
M  V30 3329 H 310.304 -0.984392 7.538 0
M  V30 3330 N 311.879 -1.3236 -0.855495 0
M  V30 3331 C 312.789 -1.23221 -1.99634 0
M  V30 3332 C 313.805 -0.145983 -1.73387 0
M  V30 3333 O 314.981 -0.366502 -1.98037 0
M  V30 3334 C 312.046 -0.954782 -3.33294 0
M  V30 3335 C 311.107 -2.12937 -3.72769 0
M  V30 3336 C 310.34 -1.86508 -5.00051 0
M  V30 3337 O 310.563 -0.807231 -5.64659 0
M  V30 3338 O 309.497 -2.72591 -5.36636 0
M  V30 3339 H 313.323 -2.19126 -2.1028 0
M  V30 3340 H 310.908 -1.12241 -0.986018 0
M  V30 3341 H 312.79 -0.816519 -4.13414 0
M  V30 3342 H 311.465 -0.0258854 -3.2369 0
M  V30 3343 H 310.372 -2.3231 -2.93228 0
M  V30 3344 H 311.705 -3.04102 -3.87018 0
M  V30 3345 N 313.357 1.07166 -1.15556 0
M  V30 3346 C 314.267 2.17947 -0.868116 0
M  V30 3347 C 315.283 1.73297 0.156297 0
M  V30 3348 O 316.459 2.01392 -0.0182327 0
M  V30 3349 C 313.524 3.44789 -0.36355 0
M  V30 3350 C 312.585 4.03996 -1.45209 0
M  V30 3351 C 311.818 5.24783 -0.971508 0
M  V30 3352 O 312.041 5.70109 0.182194 0
M  V30 3353 O 310.975 5.75715 -1.75603 0
M  V30 3354 H 314.801 2.4503 -1.79427 0
M  V30 3355 H 312.386 1.16539 -0.934824 0
M  V30 3356 H 314.268 4.21307 -0.0887113 0
M  V30 3357 H 312.943 3.19253 0.534708 0
M  V30 3358 H 311.85 3.29009 -1.78056 0
M  V30 3359 H 313.183 4.33808 -2.32533 0
M  V30 3360 N 314.835 0.952656 1.25548 0
M  V30 3361 C 315.798 0.475794 2.24207 0
M  V30 3362 C 316.798 -0.419428 1.55234 0
M  V30 3363 O 317.988 -0.216994 1.72843 0
M  V30 3364 C 315.12 -0.312814 3.39462 0
M  V30 3365 H 316.313 1.34779 2.67908 0
M  V30 3366 H 313.866 0.735739 1.37901 0
M  V30 3367 H 314.601 -1.20257 3.01179 0
M  V30 3368 H 314.386 0.329404 3.90714 0
M  V30 3369 H 315.876 -0.635986 4.12729 0
M  V30 3370 N 316.313 -1.40141 0.720998 0
M  V30 3371 C 317.276 -2.29058 0.0805834 0
M  V30 3372 C 318.276 -1.45632 -0.681758 0
M  V30 3373 O 319.466 -1.6648 -0.512856 0
M  V30 3374 C 316.598 -3.28925 -0.895593 0
M  V30 3375 H 317.791 -2.87191 0.863793 0
M  V30 3376 H 315.344 -1.48553 0.485975 0
M  V30 3377 H 316.079 -2.75822 -1.70566 0
M  V30 3378 H 315.864 -3.90519 -0.351766 0
M  V30 3379 H 317.354 -3.95494 -1.34069 0
M  V30 3380 N 317.792 -0.46758 -1.50504 0
M  V30 3381 C 318.74 0.342482 -2.30065 0
M  V30 3382 C 319.734 0.993596 -1.37201 0
M  V30 3383 O 320.94 0.925102 -1.54408 0
M  V30 3384 H 317.315 0.129283 -0.740803 0
M  V30 3385 H 319.286 -0.34899 -2.96352 0
M  V30 3386 C 318.035 1.4139 -3.17654 0
M  V30 3387 H 317.358 0.922264 -3.89017 0
M  V30 3388 H 318.798 1.95335 -3.76325 0
M  V30 3389 C 317.257 2.4139 -2.35016 0
M  V30 3390 O 317.787 3.46586 -2.03079 0
M  V30 3391 N 315.993 2.13021 -1.97662 0
M  V30 3392 H 315.54 1.27499 -2.23834 0
M  V30 3393 H 315.498 2.80164 -1.42673 0
M  V30 3394 N 319.27 1.56325 -0.20005 0
M  V30 3395 C 320.517 1.97719 0.437411 0
M  V30 3396 C 320.845 1.08709 1.61284 0
M  V30 3397 O 320.1 0.127261 1.95286 0
M  V30 3398 C 320.399 3.4495 0.935103 0
M  V30 3399 C 320.065 4.5072 -0.12749 0
M  V30 3400 C 318.727 4.79368 -0.419451 0
M  V30 3401 C 321.079 5.14268 -0.847231 0
M  V30 3402 C 318.407 5.68854 -1.43604 0
M  V30 3403 C 320.759 6.04852 -1.85301 0
M  V30 3404 C 319.423 6.31855 -2.15211 0
M  V30 3405 H 318.693 0.723507 0.16006 0
M  V30 3406 H 321.34 1.89166 -0.298056 0
M  V30 3407 H 319.645 3.50599 1.74894 0
M  V30 3408 H 321.342 3.74337 1.43781 0
M  V30 3409 H 317.932 4.28458 0.11023 0
M  V30 3410 H 322.116 4.92222 -0.634901 0
M  V30 3411 H 317.372 5.88047 -1.67364 0
M  V30 3412 H 321.546 6.53152 -2.41591 0
M  V30 3413 H 319.173 7.00994 -2.94129 0
M  V30 3414 N 320.748 -0.0735177 1.57428 0
M  V30 3415 C 321.678 -1.0879 2.06608 0
M  V30 3416 C 322.659 -1.40473 0.959237 0
M  V30 3417 O 323.844 -1.5013 1.23185 0
M  V30 3418 C 320.974 -2.40183 2.50857 0
M  V30 3419 C 319.928 -2.22858 3.65402 0
M  V30 3420 C 319.254 -3.59619 3.957 0
M  V30 3421 C 320.554 -1.65123 4.95511 0
M  V30 3422 H 322.248 -0.678673 2.91607 0
M  V30 3423 H 319.794 -0.325013 1.40284 0
M  V30 3424 H 321.747 -3.11437 2.83874 0
M  V30 3425 H 320.471 -2.83083 1.62885 0
M  V30 3426 H 319.13 -1.54045 3.32664 0
M  V30 3427 H 318.778 -4.00086 3.04861 0
M  V30 3428 H 318.478 -3.48866 4.72828 0
M  V30 3429 H 320.002 -4.32306 4.31212 0
M  V30 3430 H 321.416 -2.26241 5.26771 0
M  V30 3431 H 319.813 -1.65071 5.7695 0
M  V30 3432 H 320.883 -0.612559 4.81015 0
M  V30 3433 N 322.226 -1.5378 -0.344866 0
M  V30 3434 C 323.156 -1.84662 -1.42906 0
M  V30 3435 C 324.137 -0.701648 -1.54955 0
M  V30 3436 O 325.322 -0.953438 -1.69184 0
M  V30 3437 C 322.452 -2.05503 -2.79974 0
M  V30 3438 C 321.406 -3.21318 -2.82734 0
M  V30 3439 C 320.732 -3.2749 -4.22675 0
M  V30 3440 C 322.032 -4.59456 -2.48389 0
M  V30 3441 H 323.726 -2.75461 -1.17311 0
M  V30 3442 H 321.272 -1.32542 -0.562896 0
M  V30 3443 H 323.225 -2.25691 -3.55867 0
M  V30 3444 H 321.949 -1.11434 -3.07002 0
M  V30 3445 H 320.608 -3.00984 -2.09294 0
M  V30 3446 H 320.256 -2.31019 -4.4681 0
M  V30 3447 H 319.956 -4.05316 -4.25433 0
M  V30 3448 H 321.48 -3.49887 -5.00412 0
M  V30 3449 H 322.894 -4.79667 -3.13995 0
M  V30 3450 H 321.291 -5.39675 -2.62432 0
M  V30 3451 H 322.361 -4.63155 -1.4358 0
M  V30 3452 N 323.704 0.605807 -1.45491 0
M  V30 3453 C 325.12 0.926751 -1.29936 0
M  V30 3454 C 325.32 1.99896 -0.253706 0
M  V30 3455 O 324.376 2.50038 0.351737 0
M  V30 3456 C 325.689 1.36599 -2.67883 0
M  V30 3457 C 327.237 1.4801 -2.75793 0
M  V30 3458 C 327.712 1.95309 -4.14268 0
M  V30 3459 N 329.203 2.0254 -4.16571 0
M  V30 3460 C 329.938 2.40363 -5.20589 0
M  V30 3461 N 329.434 2.77143 -6.34952 0
M  V30 3462 N 331.227 2.40718 -5.07948 0
M  V30 3463 H 323.378 -0.102862 -2.12151 0
M  V30 3464 H 325.641 0.016639 -0.947854 0
M  V30 3465 H 325.347 0.652306 -3.45598 0
M  V30 3466 H 325.221 2.33215 -2.96463 0
M  V30 3467 H 327.608 2.1847 -1.98381 0
M  V30 3468 H 327.689 0.497041 -2.50925 0
M  V30 3469 H 327.333 1.25436 -4.92167 0
M  V30 3470 H 327.263 2.94532 -4.3653 0
M  V30 3471 H 329.754 1.76699 -3.34045 0
M  V30 3472 H 330.067 3.0489 -7.10114 0
M  V30 3473 H 328.412 2.74834 -6.3835 0
M  V30 3474 H 331.603 2.11392 -4.1765 0
M  V30 3475 H 331.776 2.69869 -5.89131 0
M  V30 3476 N 325.182 1.32811 0.848464 0
M  V30 3477 C 326.132 1.18842 1.94578 0
M  V30 3478 C 327.116 0.0937517 1.60627 0
M  V30 3479 O 328.308 0.320887 1.74067 0
M  V30 3480 C 325.437 0.91999 3.30743 0
M  V30 3481 C 324.523 2.05665 3.70894 0
M  V30 3482 N 324.914 3.30579 3.8282 0
M  V30 3483 C 323.212 1.9612 4.00566 0
M  V30 3484 C 323.913 4.05067 4.17487 0
M  V30 3485 N 322.889 3.33419 4.2934 0
M  V30 3486 H 326.691 2.13536 2.0194 0
M  V30 3487 H 324.205 1.2468 1.0406 0
M  V30 3488 H 326.202 0.800859 4.09136 0
M  V30 3489 H 324.862 -0.0185076 3.24695 0
M  V30 3490 H 325.873 3.65441 3.66978 0
M  V30 3491 H 322.55 1.09871 4.02784 0
M  V30 3492 H 323.94 5.12815 4.34131 0
M  V30 3493 N 326.66 -1.06551 1.16123 0
M  V30 3494 C 328.071 -1.60768 0.949232 0
M  V30 3495 C 328.422 -1.89523 -0.507508 0
M  V30 3496 O 327.547 -1.66671 -1.38021 0
M  V30 3497 C 328.142 -2.92086 1.71671 0
M  V30 3498 C 326.701 -3.43015 1.54977 0
M  V30 3499 C 325.848 -2.16947 1.72711 0
M  V30 3500 H 328.799 -0.895354 1.31031 0
M  V30 3501 H 328.82 -3.6138 1.19099 0
M  V30 3502 H 328.332 -2.71127 2.7769 0
M  V30 3503 H 326.433 -3.69039 0.513873 0
M  V30 3504 H 326.546 -4.18516 2.33198 0
M  V30 3505 H 324.91 -2.27041 1.15431 0
M  V30 3506 H 325.693 -1.98473 2.80113 0
M  V30 3507 N 328.138 -0.959301 -1.25041 0
M  V30 3508 C 329.085 -0.482057 -2.2571 0
M  V30 3509 C 330.055 0.467939 -1.59372 0
M  V30 3510 O 331.24 0.380159 -1.86974 0
M  V30 3511 C 328.38 0.229623 -3.44335 0
M  V30 3512 C 327.493 -0.758156 -4.25295 0
M  V30 3513 C 326.628 -0.0234403 -5.31195 0
M  V30 3514 C 325.667 -1.00184 -6.03846 0
M  V30 3515 N 324.804 -0.29769 -7.01469 0
M  V30 3516 H 329.644 -1.34538 -2.65901 0
M  V30 3517 H 327.181 -0.674592 -1.3072 0
M  V30 3518 H 329.139 0.658856 -4.11965 0
M  V30 3519 H 327.769 1.05696 -3.05005 0
M  V30 3520 H 326.821 -1.30586 -3.57284 0
M  V30 3521 H 328.133 -1.50458 -4.75567 0
M  V30 3522 H 327.287 0.464201 -6.04922 0
M  V30 3523 H 326.026 0.755741 -4.81809 0
M  V30 3524 H 325.031 -1.50044 -5.2893 0
M  V30 3525 H 326.256 -1.78133 -6.55321 0
M  V30 3526 H 324.202 0.462668 -6.54366 0
M  V30 3527 H 324.119 -0.983128 -7.4958 0
M  V30 3528 H 325.387 0.16826 -7.79318 0
M  V30 3529 N 329.616 1.39756 -0.72842 0
M  V30 3530 C 330.862 2.00942 -0.273892 0
M  V30 3531 C 331.195 1.57656 1.13394 0
M  V30 3532 O 330.47 0.802434 1.77176 0
M  V30 3533 C 330.753 3.58211 -0.368346 0
M  V30 3534 C 330.606 4.11534 -1.81548 0
M  V30 3535 C 331.925 4.39372 0.253054 0
M  V30 3536 H 329.044 0.730047 -0.100996 0
M  V30 3537 H 331.686 1.66056 -0.923337 0
M  V30 3538 H 329.836 3.88061 0.184588 0
M  V30 3539 H 331.508 3.92431 -2.42478 0
M  V30 3540 H 329.751 3.65341 -2.33898 0
M  V30 3541 H 330.422 5.20682 -1.83288 0
M  V30 3542 H 332.898 4.15527 -0.218224 0
M  V30 3543 H 331.774 5.48677 0.156585 0
M  V30 3544 H 332.035 4.21358 1.33826 0
M  V30 3545 N 331.094 0.475555 1.50254 0
M  V30 3546 C 332.341 -0.0778919 2.0235 0
M  V30 3547 C 332.669 -1.39319 1.35722 0
M  V30 3548 O 331.924 -1.89888 0.473395 0
M  V30 3549 C 332.223 -0.305114 3.56095 0
M  V30 3550 C 331.889 0.92903 4.41225 0
M  V30 3551 C 330.551 1.26739 4.6421 0
M  V30 3552 C 332.903 1.75054 4.90923 0
M  V30 3553 C 330.231 2.42724 5.34137 0
M  V30 3554 C 332.583 2.9017 5.62125 0
M  V30 3555 C 331.247 3.24416 5.83362 0
M  V30 3556 H 330.517 -0.0285027 0.740452 0
M  V30 3557 H 333.164 0.630543 1.80821 0
M  V30 3558 H 331.469 -1.09584 3.76163 0
M  V30 3559 H 333.166 -0.747377 3.93974 0
M  V30 3560 H 329.756 0.655428 4.23559 0
M  V30 3561 H 333.94 1.50231 4.73016 0
M  V30 3562 H 329.196 2.69525 5.48786 0
M  V30 3563 H 333.37 3.54169 5.99614 0
M  V30 3564 H 330.997 4.14396 6.37323 0
M  V30 3565 N 332.573 -1.56217 0.208337 0
M  V30 3566 C 333.821 -1.97558 -0.426076 0
M  V30 3567 C 334.142 -1.09683 -1.61229 0
M  V30 3568 O 333.412 -0.170956 -1.95153 0
M  V30 3569 H 331.992 -0.729575 -0.160405 0
M  V30 3570 H 334.654 -1.92606 0.298155 0
M  V30 3571 H 333.75 -3.02672 -0.761312 0
M  V30 3572 N 334.051 0.0651679 -1.57465 0
M  V30 3573 C 335.276 0.779605 -1.9219 0
M  V30 3574 C 335.701 1.69988 -0.805333 0
M  V30 3575 O 335.059 1.79685 0.241435 0
M  V30 3576 C 335.107 1.54364 -3.2589 0
M  V30 3577 O 334.211 2.65474 -3.1559 0
M  V30 3578 H 333.552 0.212249 -0.629163 0
M  V30 3579 H 336.082 0.0314294 -2.04576 0
M  V30 3580 H 336.092 1.92146 -3.59922 0
M  V30 3581 H 334.767 0.868457 -4.06732 0
M  V30 3582 H 333.344 2.30501 -2.93128 0
M  V30 3583 N 335.529 1.53961 0.336706 0
M  V30 3584 C 336.777 1.71197 1.07405 0
M  V30 3585 C 337.098 0.481475 1.88962 0
M  V30 3586 O 336.368 -0.504585 1.8929 0
M  V30 3587 H 334.948 0.631185 0.399517 0
M  V30 3588 H 337.61 1.91232 0.376323 0
M  V30 3589 H 336.706 2.58587 1.74755 0
M  V30 3590 N 337.007 -0.598083 1.45811 0
M  V30 3591 C 338.253 -1.35882 1.50545 0
M  V30 3592 C 338.586 -1.93616 0.150445 0
M  V30 3593 O 337.861 -1.75604 -0.83628 0
M  V30 3594 C 338.144 -2.49966 2.59208 0
M  V30 3595 C 337.997 -1.97367 4.04186 0
M  V30 3596 C 339.316 -3.52068 2.64076 0
M  V30 3597 H 336.435 -0.492717 0.548087 0
M  V30 3598 H 339.077 -0.673319 1.77669 0
M  V30 3599 H 337.227 -3.08443 2.3621 0
M  V30 3600 H 338.899 -1.43466 4.38423 0
M  V30 3601 H 337.142 -1.283 4.14393 0
M  V30 3602 H 337.813 -2.79649 4.75921 0
M  V30 3603 H 340.289 -3.03448 2.84708 0
M  V30 3604 H 339.165 -4.2937 3.41954 0
M  V30 3605 H 339.426 -4.08304 1.69531 0
M  V30 3606 N 338.485 -1.33259 -0.841409 0
M  V30 3607 C 339.733 -1.24326 -1.59334 0
M  V30 3608 C 340.054 0.191564 -1.94057 0
M  V30 3609 O 339.324 1.11967 -1.60749 0
M  V30 3610 H 337.904 -0.457174 -0.590763 0
M  V30 3611 H 340.566 -1.66947 -1.00571 0
M  V30 3612 H 339.662 -1.8352 -2.52442 0
M  V30 3613 N 339.963 1.05934 -1.16686 0
M  V30 3614 C 341.209 1.79065 -0.95203 0
M  V30 3615 C 341.542 1.87147 0.518629 0
M  V30 3616 O 340.817 1.36574 1.38484 0
M  V30 3617 C 341.1 3.23359 -1.58464 0
M  V30 3618 C 340.953 3.23336 -3.12689 0
M  V30 3619 C 342.272 4.21004 -1.28232 0
M  V30 3620 H 339.391 0.65005 -0.34728 0
M  V30 3621 H 342.033 1.23868 -1.44072 0
M  V30 3622 H 340.183 3.70493 -1.16908 0
M  V30 3623 H 341.855 2.84336 -3.6325 0
M  V30 3624 H 340.098 2.61886 -3.4583 0
M  V30 3625 H 340.769 4.25144 -3.52075 0
M  V30 3626 H 343.245 3.8233 -1.64203 0
M  V30 3627 H 342.121 5.20225 -1.75092 0
M  V30 3628 H 342.382 4.41639 -0.201791 0
M  V30 3629 N 341.441 0.965919 1.2453 0
M  V30 3630 C 342.687 0.62776 1.92839 0
M  V30 3631 C 343.02 -0.834694 1.75347 0
M  V30 3632 O 342.295 -1.60031 1.10546 0
M  V30 3633 C 342.578 1.00109 3.45905 0
M  V30 3634 C 342.431 2.52011 3.72573 0
M  V30 3635 C 343.75 0.53435 4.36844 0
M  V30 3636 H 340.869 0.229537 0.700344 0
M  V30 3637 H 343.511 1.2046 1.46933 0
M  V30 3638 H 341.661 0.510238 3.85135 0
M  V30 3639 H 343.333 3.08559 3.42912 0
M  V30 3640 H 341.576 2.95287 3.17786 0
M  V30 3641 H 342.247 2.73183 4.79661 0
M  V30 3642 H 344.723 0.955565 4.04979 0
M  V30 3643 H 343.599 0.824152 5.42678 0
M  V30 3644 H 343.86 -0.565589 4.38467 0
M  V30 3645 N 342.919 -1.39368 0.735821 0
M  V30 3646 C 344.144 -2.05319 0.293052 0
M  V30 3647 C 344.569 -1.55115 -1.064 0
M  V30 3648 O 343.927 -0.695261 -1.67439 0
M  V30 3649 C 343.975 -3.59305 0.305323 0
M  V30 3650 O 343.079 -4.06299 -0.706761 0
M  V30 3651 H 342.42 -0.650529 0.13307 0
M  V30 3652 H 344.95 -1.78386 1.00197 0
M  V30 3653 H 344.96 -4.07724 0.149997 0
M  V30 3654 H 343.635 -3.95207 1.29553 0
M  V30 3655 H 342.212 -3.69292 -0.517504 0
M  V30 3656 N 344.397 -0.483516 -1.5 0
M  V30 3657 C 345.643 0.0672592 -2.02688 0
M  V30 3658 C 345.976 1.38247 -1.36387 0
M  V30 3659 O 345.251 1.88131 -0.493675 0
M  V30 3660 C 345.534 0.238109 -3.59312 0
M  V30 3661 C 345.387 -1.099 -4.36168 0
M  V30 3662 C 346.706 0.986916 -4.28892 0
M  V30 3663 H 343.825 0.0229696 -0.736642 0
M  V30 3664 H 346.467 -0.631527 -1.79197 0
M  V30 3665 H 344.617 0.8333 -3.79458 0
M  V30 3666 H 346.289 -1.73172 -4.27562 0
M  V30 3667 H 344.532 -1.69261 -3.99416 0
M  V30 3668 H 345.203 -0.932954 -5.44059 0
M  V30 3669 H 347.679 0.482302 -4.13295 0
M  V30 3670 H 346.555 1.07527 -5.38265 0
M  V30 3671 H 346.816 2.0265 -3.92919 0
M  V30 3672 N 345.875 1.56104 -0.216619 0
M  V30 3673 C 347.115 2.00074 0.418322 0
M  V30 3674 C 347.479 1.10098 1.57297 0
M  V30 3675 O 348.68 1.43393 2.27359 0
M  V30 3676 C 346.951 3.47231 0.846477 0
M  V30 3677 S 348.51 4.13223 1.47622 0
M  V30 3678 H 345.328 0.698457 0.132962 0
M  V30 3679 H 347.93 1.92784 -0.324748 0
M  V30 3680 H 346.634 4.104 -0.0036319 0
M  V30 3681 H 346.165 3.58384 1.62248 0
M  V30 3682 H 348.18 4.12005 2.76526 0
M  V30 3683 N 347.353 -0.0568162 1.57498 0
M  V30 3684 C 348.285 -1.09292 2.01464 0
M  V30 3685 C 349.298 -1.34112 0.922913 0
M  V30 3686 O 350.487 -1.32089 1.20062 0
M  V30 3687 C 347.587 -2.44068 2.35125 0
M  V30 3688 C 346.76 -2.38995 3.66333 0
M  V30 3689 C 345.819 -3.55997 3.87495 0
M  V30 3690 O 344.845 -3.36746 4.58901 0
M  V30 3691 N 346.047 -4.76888 3.30996 0
M  V30 3692 H 348.812 -0.718386 2.90963 0
M  V30 3693 H 346.373 -0.245235 1.60032 0
M  V30 3694 H 348.365 -3.21011 2.46443 0
M  V30 3695 H 346.935 -2.73468 1.5144 0
M  V30 3696 H 346.155 -1.47336 3.65631 0
M  V30 3697 H 347.443 -2.3272 4.52458 0
M  V30 3698 H 346.841 -4.95431 2.73065 0
M  V30 3699 H 345.398 -5.51291 3.47738 0
M  V30 3700 N 348.832 -1.54138 -0.328536 0
M  V30 3701 C 350.08 -1.71765 -1.06496 0
M  V30 3702 C 350.401 -0.49149 -1.88704 0
M  V30 3703 O 349.671 0.494539 -1.89555 0
M  V30 3704 H 348.251 -0.633295 -0.396164 0
M  V30 3705 H 350.913 -1.91429 -0.366176 0
M  V30 3706 H 350.009 -2.5951 -1.73381 0
M  V30 3707 N 350.31 0.590341 -1.46126 0
M  V30 3708 C 351.556 1.35082 -1.51264 0
M  V30 3709 C 351.889 1.93534 -0.160711 0
M  V30 3710 O 351.164 1.76045 0.826956 0
M  V30 3711 C 351.447 2.48588 -2.6053 0
M  V30 3712 C 351.3 1.95221 -4.05227 0
M  V30 3713 C 352.619 3.50662 -2.6594 0
M  V30 3714 H 349.738 0.489803 -0.550692 0
M  V30 3715 H 352.38 0.663887 -1.78024 0
M  V30 3716 H 350.53 3.07186 -2.37843 0
M  V30 3717 H 352.202 1.41139 -4.39178 0
M  V30 3718 H 350.445 1.26101 -4.15068 0
M  V30 3719 H 351.116 2.77121 -4.77397 0
M  V30 3720 H 353.592 3.01934 -2.86313 0
M  V30 3721 H 352.468 4.27551 -3.44226 0
M  V30 3722 H 352.729 4.07399 -1.71694 0
M  V30 3723 N 351.788 1.33704 0.83433 0
M  V30 3724 C 352.72 1.20172 1.9517 0
M  V30 3725 C 353.733 0.131572 1.62267 0
M  V30 3726 O 354.922 0.382406 1.74356 0
M  V30 3727 C 352.022 0.821716 3.28787 0
M  V30 3728 C 351.195 1.98446 3.89792 0
M  V30 3729 C 350.254 1.58469 5.01771 0
M  V30 3730 O 349.28 2.29968 5.20676 0
M  V30 3731 N 350.482 0.492291 5.78409 0
M  V30 3732 H 353.247 2.16429 2.07313 0
M  V30 3733 H 350.808 1.26509 1.0103 0
M  V30 3734 H 352.8 0.536291 4.01131 0
M  V30 3735 H 351.37 -0.0503058 3.1256 0
M  V30 3736 H 350.59 2.43526 3.09982 0
M  V30 3737 H 351.878 2.76236 4.27283 0
M  V30 3738 H 351.276 -0.102349 5.65607 0
M  V30 3739 H 349.833 0.266555 6.51255 0
M  V30 3740 N 353.266 -1.05314 1.17247 0
M  V30 3741 C 354.515 -1.77685 0.954521 0
M  V30 3742 C 354.828 -1.88616 -0.518025 0
M  V30 3743 O 356.034 -2.57714 -0.854144 0
M  V30 3744 C 354.49 -3.19402 1.65863 0
M  V30 3745 C 354.098 -3.16605 3.16963 0
M  V30 3746 C 355.842 -3.96237 1.52303 0
M  V30 3747 C 353.749 -4.53103 3.80068 0
M  V30 3748 H 352.679 -0.666 0.353496 0
M  V30 3749 H 355.33 -1.1805 1.40486 0
M  V30 3750 H 353.712 -3.79355 1.13602 0
M  V30 3751 H 354.886 -2.66176 3.76148 0
M  V30 3752 H 353.201 -2.53268 3.30521 0
M  V30 3753 H 355.798 -4.97157 1.96822 0
M  V30 3754 H 356.141 -4.136 0.473401 0
M  V30 3755 H 356.674 -3.42829 2.01775 0
M  V30 3756 H 353.413 -4.40946 4.85023 0
M  V30 3757 H 352.933 -5.03686 3.2567 0
M  V30 3758 H 354.612 -5.22045 3.82202 0
M  V30 3759 N 354.744 -0.972509 -1.24016 0
M  V30 3760 C 355.992 -0.635776 -1.91839 0
M  V30 3761 C 356.313 0.832312 -1.76345 0
M  V30 3762 O 355.583 1.5946 -1.13795 0
M  V30 3763 H 354.163 -0.232157 -0.710009 0
M  V30 3764 H 356.825 -1.23462 -1.50809 0
M  V30 3765 H 355.921 -0.880545 -2.99421 0
M  V30 3766 N 356.222 1.38976 -0.743202 0
M  V30 3767 C 357.152 2.33171 -0.123873 0
M  V30 3768 C 358.133 1.54336 0.71516 0
M  V30 3769 O 359.318 1.82696 0.658467 0
M  V30 3770 C 356.448 3.38474 0.777978 0
M  V30 3771 C 355.402 4.27979 0.0424758 0
M  V30 3772 C 354.728 5.2405 1.06189 0
M  V30 3773 C 356.028 5.10155 -1.1198 0
M  V30 3774 H 357.722 2.85213 -0.910709 0
M  V30 3775 H 355.268 1.37133 -0.439388 0
M  V30 3776 H 357.221 4.03328 1.22084 0
M  V30 3777 H 355.945 2.84891 1.59702 0
M  V30 3778 H 354.604 3.64616 -0.380853 0
M  V30 3779 H 354.252 4.66758 1.87472 0
M  V30 3780 H 353.952 5.84785 0.574485 0
M  V30 3781 H 355.476 5.9178 1.50428 0
M  V30 3782 H 356.89 5.68307 -0.75499 0
M  V30 3783 H 355.287 5.80073 -1.53738 0
M  V30 3784 H 356.357 4.44504 -1.93764 0
M  V30 3785 N 357.7 0.491464 1.49741 0
M  V30 3786 C 358.925 -0.0557177 2.07325 0
M  V30 3787 C 359.35 -1.30925 1.35056 0
M  V30 3788 O 358.708 -1.76733 0.404365 0
M  V30 3789 C 358.756 -0.302074 3.59333 0
M  V30 3790 O 357.86 -1.37868 3.88672 0
M  V30 3791 H 357.201 0.0219956 0.663636 0
M  V30 3792 H 359.731 0.688352 1.92673 0
M  V30 3793 H 359.741 -0.536464 4.04458 0
M  V30 3794 H 358.416 0.61383 4.11345 0
M  V30 3795 H 356.993 -1.12999 3.55367 0
M  V30 3796 N 359.178 -1.55987 0.224894 0
M  V30 3797 C 360.111 -2.16413 -0.723929 0
M  V30 3798 C 361.089 -1.10952 -1.18863 0
M  V30 3799 O 362.273 -1.39225 -1.27077 0
M  V30 3800 C 359.4 -2.74711 -1.98121 0
M  V30 3801 C 358.446 -3.9303 -1.6562 0
M  V30 3802 S 359.279 -5.29817 -0.778058 0
M  V30 3803 C 360.435 -5.91555 -2.04483 0
M  V30 3804 H 360.668 -2.96555 -0.210347 0
M  V30 3805 H 358.201 -1.54397 0.00955457 0
M  V30 3806 H 360.159 -3.08938 -2.70311 0
M  V30 3807 H 358.82 -1.94555 -2.46591 0
M  V30 3808 H 358.013 -4.32334 -2.59043 0
M  V30 3809 H 357.615 -3.59966 -1.01491 0
M  V30 3810 H 359.907 -6.07732 -2.99446 0
M  V30 3811 H 360.85 -6.87498 -1.69563 0
M  V30 3812 H 361.258 -5.20419 -2.18688 0
M  V30 3813 N 360.656 0.0484629 -1.57525 0
M  V30 3814 C 361.619 1.03956 -2.04269 0
M  V30 3815 C 362.619 1.30211 -0.943496 0
M  V30 3816 O 363.809 1.25539 -1.20771 0
M  V30 3817 C 360.941 2.37742 -2.44319 0
M  V30 3818 H 362.134 0.636182 -2.93075 0
M  V30 3819 H 359.687 0.294811 -1.53494 0
M  V30 3820 H 360.422 2.82866 -1.5861 0
M  V30 3821 H 360.207 2.20021 -3.24551 0
M  V30 3822 H 361.697 3.08936 -2.80978 0
M  V30 3823 N 362.134 1.5431 0.320358 0
M  V30 3824 C 363.383 1.7188 1.05546 0
M  V30 3825 C 363.696 0.501143 1.89071 0
M  V30 3826 O 364.902 0.558258 2.65699 0
M  V30 3827 C 363.358 3.04025 1.92605 0
M  V30 3828 C 362.966 4.33207 1.14176 0
M  V30 3829 C 364.71 3.30959 2.65832 0
M  V30 3830 C 362.617 5.56412 2.00399 0
M  V30 3831 H 361.547 0.640547 0.397763 0
M  V30 3832 H 364.198 1.80802 0.313522 0
M  V30 3833 H 362.58 2.89019 2.7071 0
M  V30 3834 H 363.754 4.58989 0.40819 0
M  V30 3835 H 362.069 4.13062 0.526165 0
M  V30 3836 H 364.666 4.20203 3.30656 0
M  V30 3837 H 365.009 2.48979 3.33639 0
M  V30 3838 H 365.542 3.46847 1.94787 0
M  V30 3839 H 362.281 6.41004 1.37094 0
M  V30 3840 H 361.801 5.34844 2.7148 0
M  V30 3841 H 363.48 5.92938 2.58908 0
M  V30 3842 N 363.613 -0.582584 1.46437 0
M  V30 3843 C 364.843 -1.36484 1.55099 0
M  V30 3844 C 365.251 -1.88233 0.191056 0
M  V30 3845 O 364.594 -1.6429 -0.821858 0
M  V30 3846 C 364.656 -2.588 2.49525 0
M  V30 3847 C 364.32 -2.28517 3.95764 0
M  V30 3848 C 365.317 -1.87346 4.84972 0
M  V30 3849 C 363.002 -2.40658 4.40896 0
M  V30 3850 C 364.996 -1.5871 6.17325 0
M  V30 3851 C 362.683 -2.11635 5.73284 0
M  V30 3852 C 363.681 -1.70725 6.61318 0
M  V30 3853 O 363.369 -1.42057 7.91249 0
M  V30 3854 H 363.101 -0.423297 0.527063 0
M  V30 3855 H 365.655 -0.715188 1.92547 0
M  V30 3856 H 363.885 -3.26571 2.07095 0
M  V30 3857 H 365.574 -3.20868 2.48593 0
M  V30 3858 H 366.34 -1.77481 4.5136 0
M  V30 3859 H 362.219 -2.71463 3.72598 0
M  V30 3860 H 365.763 -1.26704 6.85997 0
M  V30 3861 H 361.66 -2.21124 6.06444 0
M  V30 3862 H 362.428 -1.55901 8.03515 0
M  V30 3863 N 365.091 -1.34144 -0.827227 0
M  V30 3864 C 366.021 -1.28005 -1.95287 0
M  V30 3865 C 367.002 -0.158321 -1.69362 0
M  V30 3866 O 368.187 -0.349987 -1.9102 0
M  V30 3867 C 365.317 -1.03036 -3.31664 0
M  V30 3868 C 364.271 -2.11628 -3.72019 0
M  V30 3869 C 363.597 -1.71854 -5.0633 0
M  V30 3870 C 364.897 -3.53417 -3.8457 0
M  V30 3871 H 366.591 -2.22187 -2.00682 0
M  V30 3872 H 364.137 -1.0696 -0.964135 0
M  V30 3873 H 366.09 -0.973863 -4.09993 0
M  V30 3874 H 364.814 -0.0529391 -3.26557 0
M  V30 3875 H 363.473 -2.16339 -2.95961 0
M  V30 3876 H 363.121 -0.727841 -4.97706 0
M  V30 3877 H 362.821 -2.44531 -5.34302 0
M  V30 3878 H 364.345 -1.67692 -5.87122 0
M  V30 3879 H 365.759 -3.51142 -4.5318 0
M  V30 3880 H 364.156 -4.24679 -4.2399 0
M  V30 3881 H 365.226 -3.91072 -2.86689 0
M  V30 3882 N 366.569 1.04691 -1.17803 0
M  V30 3883 C 367.516 2.12557 -0.899343 0
M  V30 3884 C 368.486 1.65339 0.158771 0
M  V30 3885 O 369.671 1.90789 0.0204797 0
M  V30 3886 C 366.811 3.42481 -0.424315 0
M  V30 3887 C 365.924 4.03346 -1.54713 0
M  V30 3888 C 365.059 5.21208 -1.02546 0
M  V30 3889 C 364.098 5.74089 -2.12339 0
M  V30 3890 N 363.235 6.83247 -1.61612 0
M  V30 3891 H 368.075 2.35734 -1.823 0
M  V30 3892 H 365.612 1.1564 -0.909159 0
M  V30 3893 H 367.57 4.16996 -0.130421 0
M  V30 3894 H 366.2 3.19471 0.462377 0
M  V30 3895 H 365.252 3.2622 -1.95664 0
M  V30 3896 H 366.564 4.38628 -2.37501 0
M  V30 3897 H 365.718 6.02812 -0.685718 0
M  V30 3898 H 364.457 4.87414 -0.167084 0
M  V30 3899 H 363.462 4.91111 -2.47165 0
M  V30 3900 H 364.687 6.0993 -2.98601 0
M  V30 3901 H 362.633 6.5134 -0.780533 0
M  V30 3902 H 362.55 7.17559 -2.38003 0
M  V30 3903 H 363.818 7.68491 -1.30545 0
M  V30 3904 N 368.047 0.979072 1.23499 0
M  V30 3905 C 368.979 0.476271 2.24197 0
M  V30 3906 C 369.992 -0.421166 1.57258 0
M  V30 3907 O 371.181 -0.225515 1.7707 0
M  V30 3908 C 368.281 -0.330503 3.37285 0
M  V30 3909 C 367.454 0.559744 4.33804 0
M  V30 3910 C 366.513 -0.192954 5.25846 0
M  V30 3911 O 365.539 0.416978 5.67671 0
M  V30 3912 N 366.741 -1.47932 5.61334 0
M  V30 3913 H 369.506 1.34211 2.67969 0
M  V30 3914 H 367.067 0.852189 1.37657 0
M  V30 3915 H 369.059 -0.842361 3.95836 0
M  V30 3916 H 367.629 -1.09734 2.92707 0
M  V30 3917 H 366.849 1.25245 3.73775 0
M  V30 3918 H 368.137 1.1665 4.95248 0
M  V30 3919 H 367.535 -1.9964 5.29302 0
M  V30 3920 H 366.092 -1.93664 6.22364 0
M  V30 3921 N 369.525 -1.3858 0.750561 0
M  V30 3922 C 370.771 -2.00481 0.305825 0
M  V30 3923 C 371.104 -1.5944 -1.10872 0
M  V30 3924 O 370.379 -0.83052 -1.75877 0
M  V30 3925 C 370.662 -3.5758 0.425287 0
M  V30 3926 C 370.515 -4.08594 1.88072 0
M  V30 3927 C 371.834 -4.39719 -0.183122 0
M  V30 3928 H 368.953 -0.728348 0.112598 0
M  V30 3929 H 371.595 -1.64566 0.949638 0
M  V30 3930 H 369.745 -3.88306 -0.122828 0
M  V30 3931 H 371.417 -3.88523 2.48691 0
M  V30 3932 H 369.66 -3.61574 2.39681 0
M  V30 3933 H 370.331 -5.177 1.91548 0
M  V30 3934 H 372.807 -4.15128 0.284303 0
M  V30 3935 H 371.683 -5.48856 -0.0692757 0
M  V30 3936 H 371.944 -4.23434 -1.27106 0
M  V30 3937 N 371.003 -0.499398 -1.49478 0
M  V30 3938 C 372.231 0.0425456 -2.06856 0
M  V30 3939 C 372.646 1.30964 -1.35992 0
M  V30 3940 O 372.003 1.77172 -0.437762 0
M  V30 3941 C 372.054 0.301735 -3.60239 0
M  V30 3942 O 371.775 -0.915127 -4.28436 0
M  V30 3943 C 373.276 0.887499 -4.34325 0
M  V30 3944 H 370.496 -0.0197482 -0.670709 0
M  V30 3945 H 373.04 -0.696297 -1.92281 0
M  V30 3946 H 371.195 0.990556 -3.74522 0
M  V30 3947 H 371.609 -0.676993 -5.20113 0
M  V30 3948 H 373.083 1.01845 -5.42523 0
M  V30 3949 H 373.56 1.88488 -3.96698 0
M  V30 3950 H 374.166 0.236196 -4.24644 0
M  V30 3951 N 372.481 1.55866 -0.233164 0
M  V30 3952 C 373.444 2.1953 0.658715 0
M  V30 3953 C 374.444 1.16053 1.11303 0
M  V30 3954 O 375.634 1.41218 1.01996 0
M  V30 3955 C 372.766 2.82791 1.90373 0
M  V30 3956 H 373.959 2.99721 0.10347 0
M  V30 3957 H 371.512 1.56291 0.0164245 0
M  V30 3958 H 372.247 2.06501 2.50056 0
M  V30 3959 H 372.032 3.58578 1.58632 0
M  V30 3960 H 373.522 3.31556 2.53891 0
M  V30 3961 N 373.959 -0.0401083 1.57549 0
M  V30 3962 C 375.187 -0.745196 1.93014 0
M  V30 3963 C 375.602 -1.6948 0.831984 0
M  V30 3964 O 374.959 -1.81482 -0.192463 0
M  V30 3965 C 375.01 -1.51176 3.28372 0
M  V30 3966 O 374.731 -0.600284 4.33968 0
M  V30 3967 C 376.232 -2.315 3.78051 0
M  V30 3968 H 373.452 -0.210088 0.637263 0
M  V30 3969 H 375.996 -0.000924689 2.045 0
M  V30 3970 H 374.151 -2.20801 3.18317 0
M  V30 3971 H 374.565 -1.13669 5.12035 0
M  V30 3972 H 376.039 -2.80697 4.75303 0
M  V30 3973 H 376.516 -3.12436 3.08675 0
M  V30 3974 H 377.122 -1.66971 3.91153 0
M  V30 3975 N 375.437 -1.54477 -0.31217 0
M  V30 3976 C 376.683 -1.73483 -1.0503 0
M  V30 3977 C 377.016 -0.513125 -1.87298 0
M  V30 3978 O 376.291 0.489864 -1.8823 0
M  V30 3979 C 376.574 -3.01723 -1.96558 0
M  V30 3980 C 376.427 -4.3417 -1.17545 0
M  V30 3981 C 377.746 -3.25772 -2.95907 0
M  V30 3982 H 374.865 -0.631222 -0.380432 0
M  V30 3983 H 377.507 -1.87184 -0.325932 0
M  V30 3984 H 375.657 -2.90174 -2.58324 0
M  V30 3985 H 377.329 -4.5762 -0.581513 0
M  V30 3986 H 375.572 -4.31159 -0.477925 0
M  V30 3987 H 376.243 -5.20143 -1.84811 0
M  V30 3988 H 378.719 -3.36857 -2.44267 0
M  V30 3989 H 377.595 -4.16838 -3.57123 0
M  V30 3990 H 377.856 -2.43537 -3.68974 0
M  V30 3991 N 376.915 0.57481 -1.46744 0
M  V30 3992 C 377.845 1.69337 -1.60771 0
M  V30 3993 C 378.826 1.63825 -0.457736 0
M  V30 3994 O 380.011 1.8172 -0.684947 0
M  V30 3995 C 377.141 3.0798 -1.60517 0
M  V30 3996 C 376.095 3.28327 -2.74564 0
M  V30 3997 C 375.421 4.67578 -2.59373 0
M  V30 3998 C 376.721 3.15398 -4.16319 0
M  V30 3999 H 378.415 1.57853 -2.54407 0
M  V30 4000 H 375.961 0.75799 -1.22436 0
M  V30 4001 H 377.914 3.86061 -1.68923 0
M  V30 4002 H 376.638 3.20381 -0.634305 0
M  V30 4003 H 375.297 2.52649 -2.65639 0
M  V30 4004 H 374.945 4.76755 -1.60353 0
M  V30 4005 H 374.645 4.82144 -3.35873 0
M  V30 4006 H 376.169 5.47817 -2.69682 0
M  V30 4007 H 377.583 3.83315 -4.26313 0
M  V30 4008 H 375.98 3.41482 -4.93468 0
M  V30 4009 H 377.05 2.12372 -4.3592 0
M  V30 4010 N 378.394 1.34581 0.820102 0
M  V30 4011 C 379.643 1.26437 1.57151 0
M  V30 4012 C 379.956 -0.163111 1.94919 0
M  V30 4013 O 381.162 -0.366722 2.69012 0
M  V30 4014 C 379.618 2.21658 2.83541 0
M  V30 4015 C 379.226 3.69679 2.53065 0
M  V30 4016 C 380.97 2.22428 3.61561 0
M  V30 4017 C 378.877 4.56761 3.75664 0
M  V30 4018 H 377.807 0.469707 0.589823 0
M  V30 4019 H 380.458 1.59763 0.902656 0
M  V30 4020 H 378.84 1.81287 3.52067 0
M  V30 4021 H 380.014 4.18605 1.92631 0
M  V30 4022 H 378.329 3.71384 1.88316 0
M  V30 4023 H 380.926 2.8471 4.52597 0
M  V30 4024 H 381.269 1.22434 3.97889 0
M  V30 4025 H 381.802 2.61259 2.99981 0
M  V30 4026 H 378.541 5.57702 3.44454 0
M  V30 4027 H 378.061 4.12568 4.35371 0
M  V30 4028 H 379.74 4.71509 4.43044 0
M  V30 4029 N 379.872 -1.04064 1.18357 0
M  V30 4030 C 380.82 -2.14187 0.907007 0
M  V30 4031 C 381.814 -1.68879 -0.132725 0
M  V30 4032 O 383.02 -1.79993 0.0154248 0
M  V30 4033 H 379.395 -0.699585 0.275835 0
M  V30 4034 H 381.366 -2.34711 1.84264 0
M  V30 4035 C 380.115 -3.44785 0.449254 0
M  V30 4036 H 379.438 -3.80058 1.24081 0
M  V30 4037 H 380.878 -4.22974 0.294737 0
M  V30 4038 C 379.337 -3.26391 -0.834909 0
M  V30 4039 O 379.867 -3.53973 -1.89911 0
M  V30 4040 N 378.073 -2.79726 -0.787523 0
M  V30 4041 H 377.62 -2.5748 0.0787347 0
M  V30 4042 H 377.578 -2.67798 -1.64716 0
M  V30 4043 N 381.35 -0.985608 -1.22978 0
M  V30 4044 C 382.598 -0.656087 -1.91154 0
M  V30 4045 C 382.919 0.813561 -1.77218 0
M  V30 4046 O 382.189 1.58244 -1.1548 0
M  V30 4047 H 380.769 -0.239674 -0.707506 0
M  V30 4048 H 383.431 -1.25054 -1.49491 0
M  V30 4049 H 382.527 -0.912253 -2.9847 0
M  V30 4050 N 382.828 1.3818 -0.7579 0
M  V30 4051 C 384.056 2.04301 -0.326937 0
M  V30 4052 C 384.471 1.57163 1.0462 0
M  V30 4053 O 383.828 0.746626 1.66529 0
M  V30 4054 C 383.879 3.59846 -0.345363 0
M  V30 4055 O 383.6 4.05256 -1.66432 0
M  V30 4056 C 385.101 4.4319 0.098927 0
M  V30 4057 H 382.321 0.656443 -0.139012 0
M  V30 4058 H 384.865 1.76786 -1.02796 0
M  V30 4059 H 383.02 3.86182 0.306955 0
M  V30 4060 H 383.434 4.99709 -1.59345 0
M  V30 4061 H 384.908 5.51989 0.0348745 0
M  V30 4062 H 385.385 4.23947 1.14741 0
M  V30 4063 H 385.991 4.22051 -0.52468 0
M  V30 4064 N 384.306 0.507319 1.49211 0
M  V30 4065 C 385.254 -0.281364 2.30892 0
M  V30 4066 C 386.248 -0.95687 1.39787 0
M  V30 4067 O 387.454 -0.883838 1.56807 0
M  V30 4068 H 383.829 -0.109597 0.743971 0
M  V30 4069 H 385.8 0.42744 2.95323 0
M  V30 4070 C 384.549 -1.32918 3.21291 0
M  V30 4071 H 383.872 -0.818799 3.91326 0
M  V30 4072 H 385.312 -1.85288 3.81372 0
M  V30 4073 C 383.771 -2.35074 2.41333 0
M  V30 4074 O 384.301 -3.4108 2.12197 0
M  V30 4075 N 382.507 -2.07705 2.03241 0
M  V30 4076 H 382.054 -1.2152 2.27136 0
M  V30 4077 H 382.012 -2.76283 1.50051 0
M  V30 4078 N 385.784 -1.5574 0.241426 0
M  V30 4079 C 387.031 -1.9881 -0.384836 0
M  V30 4080 C 387.359 -1.12947 -1.58346 0
M  V30 4081 O 386.614 -0.178993 -1.9488 0
M  V30 4082 C 386.913 -3.47308 -0.843317 0
M  V30 4083 C 386.579 -4.50223 0.246946 0
M  V30 4084 C 385.241 -4.78088 0.546399 0
M  V30 4085 C 387.593 -5.11841 0.983282 0
M  V30 4086 C 384.921 -5.64846 1.58636 0
M  V30 4087 C 387.273 -5.99727 2.01272 0
M  V30 4088 C 385.937 -6.25927 2.31888 0
M  V30 4089 H 385.207 -0.727496 -0.140821 0
M  V30 4090 H 387.854 -1.8831 0.348106 0
M  V30 4091 H 386.159 -3.55112 -1.65537 0
M  V30 4092 H 387.856 -3.78017 -1.33806 0
M  V30 4093 H 384.446 -4.286 0.00340639 0
M  V30 4094 H 388.63 -4.90366 0.765182 0
M  V30 4095 H 383.886 -5.83403 1.82896 0
M  V30 4096 H 388.06 -6.46517 2.58823 0
M  V30 4097 H 385.687 -6.92949 3.12611 0
M  V30 4098 N 387.262 0.0317525 -1.57568 0
M  V30 4099 C 388.673 0.578692 -1.77505 0
M  V30 4100 C 389.024 1.75749 -0.872164 0
M  V30 4101 O 388.149 2.16298 -0.0663106 0
M  V30 4102 C 388.744 1.05658 -3.21904 0
M  V30 4103 C 387.303 1.54906 -3.43047 0
M  V30 4104 C 386.45 0.485939 -2.73009 0
M  V30 4105 H 389.401 -0.194475 -1.57504 0
M  V30 4106 H 389.422 1.92404 -3.28269 0
M  V30 4107 H 388.934 0.198422 -3.87592 0
M  V30 4108 H 387.035 2.42915 -2.82529 0
M  V30 4109 H 387.148 1.59841 -4.5165 0
M  V30 4110 H 385.512 0.940354 -2.36705 0
M  V30 4111 H 386.295 -0.362709 -3.41379 0
M  V30 4112 N 388.74 1.54641 0.303973 0
M  V30 4113 C 389.987 1.7378 1.03955 0
M  V30 4114 C 390.315 0.521986 1.87365 0
M  V30 4115 O 389.57 -0.496099 1.89308 0
M  V30 4116 C 389.869 2.97753 1.97681 0
M  V30 4117 C 389.535 4.31671 1.30271 0
M  V30 4118 C 388.197 4.68075 1.11619 0
M  V30 4119 C 390.549 5.147 0.82055 0
M  V30 4120 C 387.877 5.8509 0.434304 0
M  V30 4121 C 390.229 6.32416 0.152395 0
M  V30 4122 C 388.893 6.67484 -0.0461067 0
M  V30 4123 H 388.163 0.635908 0.380398 0
M  V30 4124 H 390.81 1.88896 0.314718 0
M  V30 4125 H 389.115 2.77406 2.76682 0
M  V30 4126 H 390.812 3.09756 2.54661 0
M  V30 4127 H 387.402 4.03041 1.45795 0
M  V30 4128 H 391.586 4.87077 0.952374 0
M  V30 4129 H 386.842 6.10806 0.269495 0
M  V30 4130 H 391.016 6.96023 -0.229126 0
M  V30 4131 H 388.643 7.58011 -0.576494 0
M  V30 4132 N 390.218 -0.567019 1.47046 0
M  V30 4133 C 391.466 -1.322 1.52864 0
M  V30 4134 C 391.787 -1.94088 0.188388 0
M  V30 4135 O 391.057 -1.7941 -0.786693 0
M  V30 4136 H 389.637 -0.490894 0.563056 0
M  V30 4137 H 392.299 -0.662879 1.83281 0
M  V30 4138 H 391.395 -2.12062 2.2899 0
M  V30 4139 N 391.696 -1.35014 -0.812953 0
M  V30 4140 C 392.945 -1.27269 -1.56479 0
M  V30 4141 C 393.258 0.152771 -1.95002 0
M  V30 4142 O 394.464 0.352451 -2.69203 0
M  V30 4143 C 392.92 -2.23159 -2.82362 0
M  V30 4144 C 392.528 -3.71016 -2.511 0
M  V30 4145 C 394.272 -2.24342 -3.60376 0
M  V30 4146 C 392.179 -4.58746 -3.73237 0
M  V30 4147 H 391.109 -0.472829 -0.587324 0
M  V30 4148 H 393.76 -1.6024 -0.894171 0
M  V30 4149 H 392.142 -1.83151 -3.51101 0
M  V30 4150 H 393.316 -4.1962 -1.90409 0
M  V30 4151 H 391.631 -3.72378 -1.86343 0
M  V30 4152 H 394.228 -2.87107 -4.51081 0
M  V30 4153 H 394.571 -1.24542 -3.97234 0
M  V30 4154 H 395.104 -2.62846 -2.98591 0
M  V30 4155 H 391.843 -5.59521 -3.41492 0
M  V30 4156 H 391.363 -4.14871 -4.33176 0
M  V30 4157 H 393.042 -4.73852 -4.40537 0
M  V30 4158 N 393.175 1.03435 -1.18907 0
M  V30 4159 C 394.586 1.58195 -0.991523 0
M  V30 4160 C 394.937 1.90801 0.457081 0
M  V30 4161 O 394.062 1.70272 1.33553 0
M  V30 4162 C 394.657 2.87432 -1.79355 0
M  V30 4163 C 393.216 3.38785 -1.64017 0
M  V30 4164 C 392.363 2.12292 -1.78402 0
M  V30 4165 H 395.314 0.860299 -1.33359 0
M  V30 4166 H 395.335 3.58096 -1.28638 0
M  V30 4167 H 394.847 2.63669 -2.84781 0
M  V30 4168 H 392.948 3.67547 -0.611536 0
M  V30 4169 H 393.061 4.12186 -2.44212 0
M  V30 4170 H 391.425 2.23901 -1.2141 0
M  V30 4171 H 392.208 1.90977 -2.85277 0
M  V30 4172 N 394.653 0.992116 1.22453 0
M  V30 4173 C 395.585 0.500024 2.23679 0
M  V30 4174 C 396.598 -0.404463 1.57696 0
M  V30 4175 O 397.787 -0.206722 1.77299 0
M  V30 4176 C 394.887 -0.294711 3.37616 0
M  V30 4177 C 394.06 0.605723 4.33186 0
M  V30 4178 C 393.119 -0.13717 5.26021 0
M  V30 4179 O 392.145 0.477164 5.67196 0
M  V30 4180 N 393.347 -1.4197 5.62872 0
M  V30 4181 H 396.112 1.37045 2.66531 0
M  V30 4182 H 393.673 0.866741 1.36745 0
M  V30 4183 H 395.665 -0.800329 3.96707 0
M  V30 4184 H 394.235 -1.06623 2.93854 0
M  V30 4185 H 393.455 1.29202 3.72425 0
M  V30 4186 H 394.743 1.21896 4.93983 0
M  V30 4187 H 394.141 -1.94015 5.31389 0
M  V30 4188 H 392.698 -1.87052 6.24383 0
M  V30 4189 N 396.131 -1.37776 0.765217 0
M  V30 4190 C 397.377 -2.00145 0.327072 0
M  V30 4191 C 397.71 -1.60607 -1.09175 0
M  V30 4192 O 396.985 -0.849127 -1.74986 0
M  V30 4193 C 397.268 -3.57109 0.46319 0
M  V30 4194 C 397.121 -4.06576 1.92395 0
M  V30 4195 C 398.44 -4.39888 -0.136473 0
M  V30 4196 H 395.559 -0.727113 0.120316 0
M  V30 4197 H 398.201 -1.63549 0.967039 0
M  V30 4198 H 396.351 -3.88414 -0.0816358 0
M  V30 4199 H 398.023 -3.85864 2.52798 0
M  V30 4200 H 396.266 -3.59011 2.43503 0
M  V30 4201 H 396.937 -5.15639 1.97028 0
M  V30 4202 H 399.413 -4.14803 0.328317 0
M  V30 4203 H 398.289 -5.48899 -0.0110582 0
M  V30 4204 H 398.55 -4.24758 -1.22608 0
M  V30 4205 N 397.609 -0.515225 -1.4894 0
M  V30 4206 C 398.839 0.0205735 -2.0659 0
M  V30 4207 C 399.247 1.30064 -1.37405 0
M  V30 4208 O 398.59 1.78087 -0.450632 0
M  V30 4209 C 398.652 0.330124 -3.57981 0
M  V30 4210 C 398.316 -0.854295 -4.48944 0
M  V30 4211 C 399.313 -1.7487 -4.89609 0
M  V30 4212 C 396.998 -1.05712 -4.9105 0
M  V30 4213 C 398.992 -2.82996 -5.71132 0
M  V30 4214 C 396.679 -2.14154 -5.72347 0
M  V30 4215 C 397.677 -3.0263 -6.12294 0
M  V30 4216 O 397.365 -4.09198 -6.91962 0
M  V30 4217 H 397.097 -0.0236833 -0.675585 0
M  V30 4218 H 399.651 -0.715956 -1.92518 0
M  V30 4219 H 397.881 1.12044 -3.70112 0
M  V30 4220 H 399.57 0.806233 -3.97812 0
M  V30 4221 H 400.336 -1.60388 -4.57712 0
M  V30 4222 H 396.215 -0.377788 -4.59449 0
M  V30 4223 H 399.759 -3.52083 -6.02232 0
M  V30 4224 H 395.656 -2.28626 -6.03656 0
M  V30 4225 H 396.424 -4.06726 -7.10293 0
M  V30 4226 N 399.087 1.5561 -0.249682 0
M  V30 4227 C 400.037 2.18157 0.662673 0
M  V30 4228 C 401.021 1.1383 1.13717 0
M  V30 4229 O 402.213 1.39731 1.08648 0
M  V30 4230 C 399.342 2.88672 1.85805 0
M  V30 4231 C 398.428 4.00258 1.40193 0
M  V30 4232 N 398.819 5.01473 0.660213 0
M  V30 4233 C 397.117 4.12864 1.68698 0
M  V30 4234 C 397.818 5.80155 0.423695 0
M  V30 4235 N 396.794 5.34533 0.988721 0
M  V30 4236 H 400.596 2.93769 0.0878688 0
M  V30 4237 H 398.11 1.62316 -0.0521183 0
M  V30 4238 H 400.107 3.31912 2.5227 0
M  V30 4239 H 398.767 2.14564 2.43705 0
M  V30 4240 H 399.778 5.16971 0.310047 0
M  V30 4241 H 396.455 3.4993 2.27717 0
M  V30 4242 H 397.845 6.71688 -0.168616 0
M  V30 4243 N 400.565 -0.0233959 1.57583 0
M  V30 4244 C 401.813 -0.711654 1.89156 0
M  V30 4245 C 402.134 -1.75591 0.848096 0
M  V30 4246 O 401.404 -1.95547 -0.117566 0
M  V30 4247 H 399.984 -0.265835 0.698098 0
M  V30 4248 H 402.646 0.0119948 1.94896 0
M  V30 4249 H 401.742 -1.19766 2.88206 0
M  V30 4250 N 402.043 -1.548 -0.295768 0
M  V30 4251 C 402.975 -1.82492 -1.3867 0
M  V30 4252 C 403.988 -0.708134 -1.46592 0
M  V30 4253 O 405.177 -0.985686 -1.48817 0
M  V30 4254 C 402.277 -1.95256 -2.76999 0
M  V30 4255 C 401.45 -3.25709 -2.91946 0
M  V30 4256 C 400.509 -3.28824 -4.10806 0
M  V30 4257 O 399.535 -4.02328 -4.02643 0
M  V30 4258 N 400.737 -2.5459 -5.21694 0
M  V30 4259 H 403.502 -2.76646 -1.15269 0
M  V30 4260 H 401.063 -1.54438 -0.485849 0
M  V30 4261 H 403.055 -1.94736 -3.54768 0
M  V30 4262 H 401.625 -1.08072 -2.93324 0
M  V30 4263 H 400.845 -3.38959 -2.01247 0
M  V30 4264 H 402.133 -4.11786 -2.98847 0
M  V30 4265 H 401.531 -1.94512 -5.31208 0
M  V30 4266 H 400.088 -2.59818 -5.97778 0
M  V30 4267 N 403.521 0.559213 -1.47345 0
M  V30 4268 C 404.77 1.31281 -1.53128 0
M  V30 4269 C 405.083 1.94602 -0.197344 0
M  V30 4270 O 406.289 2.71173 -0.133154 0
M  V30 4271 C 404.745 2.38051 -2.69925 0
M  V30 4272 C 404.353 1.8093 -4.0984 0
M  V30 4273 C 406.097 3.14604 -2.84999 0
M  V30 4274 C 404.004 2.85468 -5.1794 0
M  V30 4275 H 402.934 0.493614 -0.569966 0
M  V30 4276 H 405.585 0.594155 -1.73615 0
M  V30 4277 H 403.967 3.12822 -2.42814 0
M  V30 4278 H 405.141 1.12544 -4.46845 0
M  V30 4279 H 403.456 1.16967 -3.99634 0
M  V30 4280 H 406.053 3.92666 -3.62929 0
M  V30 4281 H 406.396 3.68665 -1.93369 0
M  V30 4282 H 406.929 2.46945 -3.1187 0
M  V30 4283 H 403.668 2.36264 -6.1144 0
M  V30 4284 H 403.188 3.52269 -4.85455 0
M  V30 4285 H 404.867 3.48996 -5.44803 0
M  V30 4286 N 404.999 1.35443 0.805782 0
M  V30 4287 C 405.949 1.24972 1.90699 0
M  V30 4288 C 406.933 0.144806 1.60247 0
M  V30 4289 O 408.125 0.376102 1.72958 0
M  V30 4290 C 405.254 1.02475 3.27649 0
M  V30 4291 C 404.34 2.17361 3.64164 0
M  V30 4292 N 404.731 3.42591 3.72109 0
M  V30 4293 C 403.029 2.08765 3.94123 0
M  V30 4294 C 403.73 4.18144 4.04389 0
M  V30 4295 N 402.706 3.4691 4.18515 0
M  V30 4296 H 406.508 2.19852 1.95044 0
M  V30 4297 H 404.022 1.27928 1.00041 0
M  V30 4298 H 406.019 0.930617 4.06381 0
M  V30 4299 H 404.679 0.0848009 3.24589 0
M  V30 4300 H 405.69 3.76932 3.55166 0
M  V30 4301 H 402.367 1.22629 3.99084 0
M  V30 4302 H 403.757 5.26367 4.17597 0
M  V30 4303 N 406.477 -1.02803 1.19454 0
M  V30 4304 C 407.409 -2.11181 0.890807 0
M  V30 4305 C 408.422 -1.6238 -0.116829 0
M  V30 4306 O 409.611 -1.78144 0.112694 0
M  V30 4307 C 406.711 -3.37461 0.311942 0
M  V30 4308 C 405.884 -4.15446 1.36834 0
M  V30 4309 C 404.943 -5.20039 0.802864 0
M  V30 4310 O 403.969 -5.49602 1.48077 0
M  V30 4311 N 405.171 -5.79165 -0.393417 0
M  V30 4312 H 407.936 -2.37827 1.82369 0
M  V30 4313 H 405.497 -1.19101 1.09666 0
M  V30 4314 H 407.489 -4.0462 -0.0802225 0
M  V30 4315 H 406.059 -3.08156 -0.52524 0
M  V30 4316 H 405.279 -3.43423 1.93531 0
M  V30 4317 H 406.567 -4.64335 2.08015 0
M  V30 4318 H 405.965 -5.57466 -0.961658 0
M  V30 4319 H 404.522 -6.47729 -0.727351 0
M  V30 4320 N 407.956 -0.998596 -1.21925 0
M  V30 4321 C 409.367 -0.711939 -1.72593 0
M  V30 4322 C 409.718 0.770842 -1.80423 0
M  V30 4323 O 408.843 1.60237 -1.4544 0
M  V30 4324 C 409.438 -1.28567 -3.13458 0
M  V30 4325 C 407.997 -1.04828 -3.61508 0
M  V30 4326 C 407.144 -1.4024 -2.39224 0
M  V30 4327 H 410.095 -1.17027 -1.07193 0
M  V30 4328 H 410.116 -0.667098 -3.74607 0
M  V30 4329 H 409.628 -2.36486 -3.07727 0
M  V30 4330 H 407.729 0.0140383 -3.72597 0
M  V30 4331 H 407.842 -1.71566 -4.47328 0
M  V30 4332 H 406.206 -0.821077 -2.41103 0
M  V30 4333 H 406.989 -2.49176 -2.36149 0
M  V30 4334 N 409.434 1.37368 -0.772513 0
M  V30 4335 C 410.364 2.32856 -0.173304 0
M  V30 4336 C 411.345 1.55818 0.682262 0
M  V30 4337 O 412.53 1.84052 0.619566 0
M  V30 4338 C 409.66 3.40048 0.706007 0
M  V30 4339 C 408.614 4.27973 -0.0483144 0
M  V30 4340 C 407.94 5.26184 0.950491 0
M  V30 4341 C 409.24 5.07665 -1.22776 0
M  V30 4342 H 410.934 2.83217 -0.971002 0
M  V30 4343 H 408.48 1.3617 -0.468377 0
M  V30 4344 H 410.433 4.05827 1.13501 0
M  V30 4345 H 409.157 2.88214 1.53623 0
M  V30 4346 H 407.816 3.63726 -0.458107 0
M  V30 4347 H 407.464 4.7063 1.77529 0
M  V30 4348 H 407.164 5.85872 0.450314 0
M  V30 4349 H 408.688 5.94838 1.37842 0
M  V30 4350 H 410.102 5.66578 -0.875366 0
M  V30 4351 H 408.499 5.76681 -1.66007 0
M  V30 4352 H 409.569 4.40294 -2.03149 0
M  V30 4353 N 410.912 0.523116 1.48665 0
M  V30 4354 C 412.323 0.0808997 1.86525 0
M  V30 4355 C 412.674 -1.33975 1.43336 0
M  V30 4356 O 411.799 -2.00221 0.821009 0
M  V30 4357 C 412.394 0.140037 3.3851 0
M  V30 4358 C 410.953 -0.246948 3.75589 0
M  V30 4359 C 410.1 0.502845 2.72703 0
M  V30 4360 H 413.051 0.734736 1.40667 0
M  V30 4361 H 413.072 -0.649945 3.74908 0
M  V30 4362 H 412.584 1.17412 3.69914 0
M  V30 4363 H 410.685 -1.28343 3.49798 0
M  V30 4364 H 410.798 0.0878859 4.79019 0
M  V30 4365 H 409.162 -0.0500581 2.54651 0
M  V30 4366 H 409.945 1.53743 3.0695 0
M  V30 4367 N 412.39 -1.55475 0.257931 0
M  V30 4368 C 413.34 -2.18506 -0.651094 0
M  V30 4369 C 414.324 -1.14431 -1.13112 0
M  V30 4370 O 415.516 -1.40305 -1.07905 0
M  V30 4371 C 412.645 -2.89653 -1.84272 0
M  V30 4372 C 411.731 -4.00996 -1.38068 0
M  V30 4373 N 412.122 -5.01816 -0.633609 0
M  V30 4374 C 410.42 -4.13753 -1.66506 0
M  V30 4375 C 411.121 -5.80371 -0.392922 0
M  V30 4376 N 410.097 -5.3505 -0.960359 0
M  V30 4377 H 413.899 -2.93811 -0.0722883 0
M  V30 4378 H 411.413 -1.62286 0.0607256 0
M  V30 4379 H 413.41 -3.33245 -2.50506 0
M  V30 4380 H 412.07 -2.15854 -2.42564 0
M  V30 4381 H 413.081 -5.17128 -0.282626 0
M  V30 4382 H 409.758 -3.51133 -2.25858 0
M  V30 4383 H 411.148 -6.7159 0.204235 0
M  V30 4384 N 413.868 0.0150385 -1.57593 0
M  V30 4385 C 415.093 0.718067 -1.94573 0
M  V30 4386 C 415.518 1.6734 -0.859005 0
M  V30 4387 O 414.876 1.80362 0.184147 0
M  V30 4388 C 414.924 1.43918 -3.30636 0
M  V30 4389 O 414.028 2.55299 -3.23876 0
M  V30 4390 H 413.369 0.192125 -0.635597 0
M  V30 4391 H 415.899 -0.0336708 -2.04572 0
M  V30 4392 H 415.909 1.80598 -3.65853 0
M  V30 4393 H 414.584 0.738619 -4.09289 0
M  V30 4394 H 413.161 2.21058 -3.00312 0
M  V30 4395 N 415.346 1.54954 0.287554 0
M  V30 4396 C 416.309 1.86076 1.33823 0
M  V30 4397 C 417.309 0.734414 1.43049 0
M  V30 4398 O 418.499 1.00266 1.42452 0
M  V30 4399 C 415.631 2.05305 2.72144 0
M  V30 4400 H 416.824 2.79984 1.07465 0
M  V30 4401 H 414.377 1.47223 0.524902 0
M  V30 4402 H 415.112 1.1373 3.03704 0
M  V30 4403 H 414.897 2.873 2.66836 0
M  V30 4404 H 416.387 2.30706 3.48087 0
M  V30 4405 N 416.824 -0.551391 1.4764 0
M  V30 4406 C 417.756 -1.67333 1.56628 0
M  V30 4407 C 418.769 -1.56398 0.452045 0
M  V30 4408 O 419.958 -1.6325 0.721926 0
M  V30 4409 C 417.058 -3.05841 1.45994 0
M  V30 4410 C 416.231 -3.42472 2.72088 0
M  V30 4411 C 415.29 -4.60168 2.55209 0
M  V30 4412 O 414.316 -4.64458 3.2904 0
M  V30 4413 N 415.518 -5.57024 1.63416 0
M  V30 4414 H 418.283 -1.60066 2.53375 0
M  V30 4415 H 415.844 -0.738169 1.44093 0
M  V30 4416 H 417.836 -3.8242 1.32428 0
M  V30 4417 H 416.406 -3.07302 0.573071 0
M  V30 4418 H 415.626 -2.55284 3.00373 0
M  V30 4419 H 416.914 -3.63723 3.55785 0
M  V30 4420 H 416.312 -5.56319 1.02594 0
M  V30 4421 H 414.869 -6.32906 1.558 0
M  V30 4422 N 418.302 -1.35869 -0.798587 0
M  V30 4423 C 419.232 -1.32118 -1.92528 0
M  V30 4424 C 420.213 -0.194209 -1.68988 0
M  V30 4425 O 421.398 -0.390426 -1.90235 0
M  V30 4426 C 418.528 -1.10047 -3.29404 0
M  V30 4427 C 417.482 -2.19471 -3.67446 0
M  V30 4428 C 416.808 -1.82555 -5.02571 0
M  V30 4429 C 418.108 -3.61495 -3.76987 0
M  V30 4430 H 419.802 -2.26394 -1.95924 0
M  V30 4431 H 417.348 -1.08981 -0.94123 0
M  V30 4432 H 419.301 -1.06061 -4.07835 0
M  V30 4433 H 418.025 -0.122195 -3.26371 0
M  V30 4434 H 416.684 -2.22568 -2.91306 0
M  V30 4435 H 416.332 -0.833249 -4.9605 0
M  V30 4436 H 416.032 -2.5581 -5.28995 0
M  V30 4437 H 417.556 -1.80108 -5.83432 0
M  V30 4438 H 418.97 -3.60676 -4.4563 0
M  V30 4439 H 417.367 -4.33577 -4.14887 0
M  V30 4440 H 418.437 -3.97065 -2.78329 0
M  V30 4441 N 419.78 1.02168 -1.19998 0
M  V30 4442 C 421.029 1.75091 -1.0013 0
M  V30 4443 C 421.342 1.89923 0.467835 0
M  V30 4444 O 422.548 2.59888 0.785515 0
M  V30 4445 C 421.004 3.14892 -1.74273 0
M  V30 4446 C 420.612 3.0809 -3.25245 0
M  V30 4447 C 422.356 3.9206 -1.62755 0
M  V30 4448 C 420.263 4.42867 -3.91948 0
M  V30 4449 H 419.193 0.656394 -0.37103 0
M  V30 4450 H 421.844 1.14284 -1.43567 0
M  V30 4451 H 420.226 3.7621 -1.2362 0
M  V30 4452 H 421.4 2.5611 -3.83072 0
M  V30 4453 H 419.715 2.44416 -3.3712 0
M  V30 4454 H 422.312 4.91764 -2.09934 0
M  V30 4455 H 422.655 4.12199 -0.582894 0
M  V30 4456 H 423.188 3.37359 -2.10793 0
M  V30 4457 H 419.927 4.27931 -4.96543 0
M  V30 4458 H 419.447 4.94874 -3.3891 0
M  V30 4459 H 421.126 5.11728 -3.95909 0
M  V30 4460 N 421.258 1.00505 1.21394 0
M  V30 4461 C 422.483 0.706367 1.95001 0
M  V30 4462 C 422.908 -0.72463 1.73582 0
M  V30 4463 O 422.266 -1.49702 1.0227 0
M  V30 4464 C 422.314 1.03299 3.45487 0
M  V30 4465 O 421.418 0.138275 4.12168 0
M  V30 4466 H 420.759 0.263175 0.609619 0
M  V30 4467 H 423.289 1.34531 1.54151 0
M  V30 4468 H 423.299 0.979872 3.96059 0
M  V30 4469 H 421.974 2.07567 3.60401 0
M  V30 4470 H 420.551 0.247928 3.72075 0
M  V30 4471 N 422.737 -1.36956 0.779787 0
M  V30 4472 C 423.965 -2.03755 0.359398 0
M  V30 4473 C 424.38 -1.58807 -1.02106 0
M  V30 4474 O 423.737 -0.773024 -1.6532 0
M  V30 4475 C 423.788 -3.59251 0.402568 0
M  V30 4476 O 423.509 -4.02557 1.72858 0
M  V30 4477 C 425.01 -4.43291 -0.0284068 0
M  V30 4478 H 422.23 -0.654148 0.149437 0
M  V30 4479 H 424.774 -1.75128 1.05595 0
M  V30 4480 H 422.929 -3.86621 -0.245478 0
M  V30 4481 H 423.343 -4.97111 1.67275 0
M  V30 4482 H 424.817 -5.51975 0.0529466 0
M  V30 4483 H 425.294 -4.25719 -1.07982 0
M  V30 4484 H 425.9 -4.21163 0.591758 0
M  V30 4485 N 424.215 -0.530993 -1.48385 0
M  V30 4486 C 425.163 0.244595 -2.3131 0
M  V30 4487 C 426.157 0.93451 -1.41291 0
M  V30 4488 O 427.363 0.85878 -1.58193 0
M  V30 4489 H 423.738 0.0977472 -0.74562 0
M  V30 4490 H 425.709 -0.474369 -2.94605 0
M  V30 4491 C 424.458 1.2779 -3.23365 0
M  V30 4492 H 423.781 0.756439 -3.92579 0
M  V30 4493 H 425.221 1.79198 -3.84271 0
M  V30 4494 C 423.68 2.31205 -2.45042 0
M  V30 4495 O 424.21 3.37661 -2.17596 0
M  V30 4496 N 422.416 2.04446 -2.0652 0
M  V30 4497 H 421.963 1.17891 -2.2904 0
M  V30 4498 H 421.921 2.73861 -1.54427 0
M  V30 4499 N 425.693 1.55336 -0.266172 0
M  V30 4500 C 426.656 2.20878 0.612001 0
M  V30 4501 C 427.656 1.18388 1.08816 0
M  V30 4502 O 428.846 1.4335 0.989774 0
M  V30 4503 C 425.978 2.86765 1.84332 0
M  V30 4504 H 427.171 2.99873 0.0398718 0
M  V30 4505 H 424.724 1.56291 -0.0167309 0
M  V30 4506 H 425.459 2.11759 2.45619 0
M  V30 4507 H 425.244 3.61862 1.5099 0
M  V30 4508 H 426.734 3.36867 2.46801 0
M  V30 4509 N 427.171 -0.0066808 1.57599 0
M  V30 4510 C 428.101 -0.999296 2.11036 0
M  V30 4511 C 429.082 -1.36278 1.01795 0
M  V30 4512 O 430.267 -1.4477 1.29442 0
M  V30 4513 C 427.397 -2.29328 2.60818 0
M  V30 4514 C 426.351 -2.07159 3.74525 0
M  V30 4515 C 425.677 -3.42512 4.10596 0
M  V30 4516 C 426.977 -1.43959 5.02069 0
M  V30 4517 H 428.671 -0.554382 2.94223 0
M  V30 4518 H 426.217 -0.265221 1.41536 0
M  V30 4519 H 428.17 -2.99117 2.96828 0
M  V30 4520 H 426.894 -2.7592 1.74745 0
M  V30 4521 H 425.553 -1.39797 3.38899 0
M  V30 4522 H 425.201 -3.86795 3.21556 0
M  V30 4523 H 424.901 -3.28498 4.87199 0
M  V30 4524 H 426.425 -4.13628 4.4916 0
M  V30 4525 H 427.839 -2.03696 5.35893 0
M  V30 4526 H 426.236 -1.40452 5.83432 0
M  V30 4527 H 427.306 -0.407992 4.83181 0
M  V30 4528 N 428.649 -1.55105 -0.279332 0
M  V30 4529 C 429.897 -1.75066 -1.00977 0
M  V30 4530 C 430.218 -0.551276 -1.87045 0
M  V30 4531 O 429.488 0.433984 -1.91032 0
M  V30 4532 H 428.068 -0.645578 -0.375816 0
M  V30 4533 H 430.73 -1.92497 -0.305089 0
M  V30 4534 H 429.826 -2.64894 -1.65038 0
M  V30 4535 N 430.127 0.543554 -1.4793 0
M  V30 4536 C 431.057 1.65888 -1.64327 0
M  V30 4537 C 432.038 1.62818 -0.492383 0
M  V30 4538 O 433.223 1.80226 -0.723338 0
M  V30 4539 C 430.353 3.04506 -1.67013 0
M  V30 4540 C 429.307 3.2243 -2.81466 0
M  V30 4541 C 428.633 4.61972 -2.69233 0
M  V30 4542 C 429.933 3.06496 -4.22915 0
M  V30 4543 H 431.627 1.52421 -2.57698 0
M  V30 4544 H 429.173 0.731849 -1.24016 0
M  V30 4545 H 431.126 3.82391 -1.77074 0
M  V30 4546 H 429.85 3.18964 -0.70212 0
M  V30 4547 H 428.509 2.46957 -2.70938 0
M  V30 4548 H 428.157 4.73247 -1.7043 0
M  V30 4549 H 427.857 4.74911 -3.46025 0
M  V30 4550 H 429.381 5.41974 -2.81242 0
M  V30 4551 H 430.795 3.74186 -4.34348 0
M  V30 4552 H 429.192 3.30938 -5.006 0
M  V30 4553 H 430.262 2.03077 -4.40327 0
M  V30 4554 N 431.605 1.3629 0.791371 0
M  V30 4555 C 432.535 1.33137 1.91825 0
M  V30 4556 C 433.516 0.203168 1.68882 0
M  V30 4557 O 434.701 0.400509 1.90025 0
M  V30 4558 C 431.831 1.11793 3.28816 0
M  V30 4559 C 430.785 2.21417 3.66277 0
M  V30 4560 C 430.111 1.85218 5.01596 0
M  V30 4561 C 431.411 3.63489 3.75064 0
M  V30 4562 H 433.105 2.2743 1.9472 0
M  V30 4563 H 430.651 1.09479 0.935437 0
M  V30 4564 H 432.604 1.08222 4.07266 0
M  V30 4565 H 431.328 0.139501 3.26302 0
M  V30 4566 H 429.987 2.2411 2.90121 0
M  V30 4567 H 429.635 0.859544 4.95602 0
M  V30 4568 H 429.335 2.58611 5.27631 0
M  V30 4569 H 430.859 1.832 5.82469 0
M  V30 4570 H 432.273 3.63034 4.43711 0
M  V30 4571 H 430.67 4.35771 4.12582 0
M  V30 4572 H 431.74 3.98536 2.76219 0
M  V30 4573 N 433.083 -1.0153 1.20538 0
M  V30 4574 C 433.993 -2.13557 0.971113 0
M  V30 4575 C 435.009 -1.73845 -0.0734366 0
M  V30 4576 O 436.185 -2.01075 0.114299 0
M  V30 4577 C 433.25 -3.42661 0.527639 0
M  V30 4578 C 432.311 -3.96608 1.64319 0
M  V30 4579 C 431.544 -5.1955 1.22078 0
M  V30 4580 O 431.767 -5.70329 0.0900198 0
M  V30 4581 O 430.701 -5.66681 2.02871 0
M  V30 4582 H 434.527 -2.3619 1.90913 0
M  V30 4583 H 432.112 -1.11946 0.989362 0
M  V30 4584 H 433.994 -4.20404 0.289621 0
M  V30 4585 H 432.669 -3.21441 -0.381779 0
M  V30 4586 H 431.576 -3.20139 1.93551 0
M  V30 4587 H 432.909 -4.22219 2.52966 0
M  V30 4588 N 434.561 -1.01147 -1.20859 0
M  V30 4589 C 435.491 -0.597663 -2.25722 0
M  V30 4590 C 436.472 0.384744 -1.65692 0
M  V30 4591 O 437.657 0.271303 -1.92296 0
M  V30 4592 C 434.787 0.0700149 -3.47229 0
M  V30 4593 C 433.741 -0.832843 -4.19819 0
M  V30 4594 C 433.067 -0.0312202 -5.34691 0
M  V30 4595 C 434.367 -2.1385 -4.76514 0
M  V30 4596 H 436.061 -1.47423 -2.60589 0
M  V30 4597 H 433.607 -0.710301 -1.25263 0
M  V30 4598 H 435.56 0.37103 -4.19763 0
M  V30 4599 H 434.284 0.981259 -3.11511 0
M  V30 4600 H 432.943 -1.11778 -3.49144 0
M  V30 4601 H 432.591 0.881515 -4.95215 0
M  V30 4602 H 432.291 -0.632434 -5.84187 0
M  V30 4603 H 433.815 0.26346 -6.10031 0
M  V30 4604 H 435.229 -1.9002 -5.40893 0
M  V30 4605 H 433.626 -2.69012 -5.36426 0
M  V30 4606 H 434.696 -2.80495 -3.95538 0
M  V30 4607 N 436.039 1.36541 -0.78704 0
M  V30 4608 C 437.269 2.03266 -0.369662 0
M  V30 4609 C 437.677 1.59481 1.01796 0
M  V30 4610 O 437.02 0.778612 1.66383 0
M  V30 4611 C 437.082 3.57779 -0.351371 0
M  V30 4612 C 436.746 4.24756 -1.68617 0
M  V30 4613 C 437.743 4.47811 -2.64124 0
M  V30 4614 C 435.428 4.62277 -1.96481 0
M  V30 4615 C 437.422 5.07464 -3.85693 0
M  V30 4616 C 435.109 5.21649 -3.18317 0
M  V30 4617 C 436.107 5.44182 -4.12741 0
M  V30 4618 O 435.795 6.02307 -5.32429 0
M  V30 4619 H 435.527 0.658977 -0.150751 0
M  V30 4620 H 438.081 1.75548 -1.0664 0
M  V30 4621 H 436.311 3.84606 0.401847 0
M  V30 4622 H 438 4.05879 0.0410147 0
M  V30 4623 H 438.766 4.19221 -2.43883 0
M  V30 4624 H 434.645 4.44065 -1.23805 0
M  V30 4625 H 438.189 5.24968 -4.59407 0
M  V30 4626 H 434.086 5.49664 -3.38437 0
M  V30 4627 H 434.854 6.20775 -5.33461 0
M  V30 4628 N 437.518 0.538854 1.48102 0
M  V30 4629 C 438.934 0.19732 1.58376 0
M  V30 4630 C 439.134 -1.29971 1.5398 0
M  V30 4631 O 438.19 -2.07861 1.43352 0
M  V30 4632 C 439.503 0.807716 2.89649 0
M  V30 4633 C 441.051 0.77726 3.03196 0
M  V30 4634 C 441.526 1.36639 4.37143 0
M  V30 4635 N 443.017 1.32875 4.43732 0
M  V30 4636 C 443.752 1.7544 5.45901 0
M  V30 4637 N 443.248 2.25776 6.54979 0
M  V30 4638 N 445.041 1.66623 5.36836 0
M  V30 4639 H 437.192 1.5117 1.49202 0
M  V30 4640 H 439.455 0.629327 0.708979 0
M  V30 4641 H 439.161 1.85909 2.98548 0
M  V30 4642 H 439.035 0.289975 3.76084 0
M  V30 4643 H 441.422 -0.265374 2.93904 0
M  V30 4644 H 441.503 1.33256 2.18349 0
M  V30 4645 H 441.147 2.408 4.47189 0
M  V30 4646 H 441.077 0.786689 5.20691 0
M  V30 4647 H 443.568 0.96037 3.65493 0
M  V30 4648 H 443.881 2.56226 7.29087 0
M  V30 4649 H 442.226 2.29775 6.55918 0
M  V30 4650 H 445.417 1.27089 4.50517 0
M  V30 4651 H 445.59 2.00115 6.16326 0
M  V30 4652 N 438.996 -1.55193 0.274407 0
M  V30 4653 C 440.224 -2.03987 -0.345943 0
M  V30 4654 C 440.639 -1.15279 -1.4952 0
M  V30 4655 O 439.996 -0.172759 -1.8168 0
M  V30 4656 C 440.047 -3.51898 -0.827631 0
M  V30 4657 O 439.768 -4.37231 0.275855 0
M  V30 4658 C 441.269 -4.16577 -1.51587 0
M  V30 4659 H 438.489 -0.666335 -0.0789892 0
M  V30 4660 H 441.033 -2.00423 0.406294 0
M  V30 4661 H 439.188 -3.55909 -1.52996 0
M  V30 4662 H 439.602 -5.24415 -0.0943638 0
M  V30 4663 H 441.076 -5.21678 -1.80433 0
M  V30 4664 H 441.553 -3.64707 -2.44716 0
M  V30 4665 H 442.159 -4.16568 -0.857409 0
M  V30 4666 N 440.474 -0.00167713 -1.576 0
M  V30 4667 C 441.721 0.68282 -1.90641 0
M  V30 4668 C 442.049 1.73686 -0.875415 0
M  V30 4669 O 441.304 1.95334 0.119575 0
M  V30 4670 C 441.603 1.36189 -3.30435 0
M  V30 4671 C 441.269 0.440887 -4.48739 0
M  V30 4672 C 439.931 0.187312 -4.80835 0
M  V30 4673 C 442.283 -0.193134 -5.20842 0
M  V30 4674 C 439.611 -0.70855 -5.82406 0
M  V30 4675 C 441.963 -1.07688 -6.23367 0
M  V30 4676 C 440.627 -1.33962 -6.53919 0
M  V30 4677 H 439.897 0.249862 -0.697603 0
M  V30 4678 H 442.544 -0.0575642 -1.91413 0
M  V30 4679 H 440.849 2.17636 -3.25794 0
M  V30 4680 H 442.546 1.89759 -3.5326 0
M  V30 4681 H 439.136 0.648694 -4.23663 0
M  V30 4682 H 443.32 -0.0102445 -4.96299 0
M  V30 4683 H 438.576 -0.920097 -6.04437 0
M  V30 4684 H 442.75 -1.57451 -6.78367 0
M  V30 4685 H 440.377 -2.03549 -7.32442 0
M  V30 4686 N 441.952 1.55251 0.271103 0
M  V30 4687 C 442.862 1.9136 1.35714 0
M  V30 4688 C 443.878 0.811075 1.5394 0
M  V30 4689 O 445.054 1.11031 1.6803 0
M  V30 4690 C 442.119 2.1798 2.69603 0
M  V30 4691 C 441.18 3.4153 2.60107 0
M  V30 4692 C 440.413 3.66871 3.8761 0
M  V30 4693 O 440.636 2.94689 4.8838 0
M  V30 4694 O 439.57 4.60405 3.87699 0
M  V30 4695 H 443.396 2.83815 1.08088 0
M  V30 4696 H 440.981 1.41821 0.469792 0
M  V30 4697 H 442.863 2.36518 3.48765 0
M  V30 4698 H 441.538 1.28708 2.97012 0
M  V30 4699 H 440.445 3.28325 1.79314 0
M  V30 4700 H 441.778 4.31027 2.37647 0
M  V30 4701 N 443.43 -0.535701 1.48216 0
M  V30 4702 C 444.658 -1.31671 1.59594 0
M  V30 4703 C 445.073 -1.87083 0.254056 0
M  V30 4704 O 444.43 -1.66112 -0.755854 0
M  V30 4705 C 444.481 -2.47158 2.63809 0
M  V30 4706 O 444.202 -1.94032 3.92789 0
M  V30 4707 C 445.703 -3.39062 2.85573 0
M  V30 4708 H 442.923 -0.400623 0.538277 0
M  V30 4709 H 445.467 -0.646827 1.94001 0
M  V30 4710 H 443.622 -3.10043 2.32276 0
M  V30 4711 H 444.036 -2.69585 4.49916 0
M  V30 4712 H 445.51 -4.16459 3.62306 0
M  V30 4713 H 445.987 -3.93941 1.94184 0
M  V30 4714 H 446.593 -2.81975 3.18387 0
M  V30 4715 N 444.908 -1.36708 -0.784132 0
M  V30 4716 C 446.136 -1.34398 -1.57305 0
M  V30 4717 C 446.551 0.0735577 -1.88657 0
M  V30 4718 O 445.908 1.03193 -1.50524 0
M  V30 4719 C 445.959 -2.17053 -2.89085 0
M  V30 4720 O 445.68 -3.53281 -2.59083 0
M  V30 4721 C 447.181 -2.22583 -3.83369 0
M  V30 4722 H 444.401 -0.460819 -0.487736 0
M  V30 4723 H 446.945 -1.79879 -0.972819 0
M  V30 4724 H 445.1 -1.75113 -3.45564 0
M  V30 4725 H 445.514 -3.9647 -3.43383 0
M  V30 4726 H 446.988 -2.84763 -4.72878 0
M  V30 4727 H 447.465 -1.23075 -4.21603 0
M  V30 4728 H 448.071 -2.64781 -3.32823 0
M  V30 4729 N 446.386 1.0089 -1.21074 0
M  V30 4730 C 447.318 2.09737 -0.924291 0
M  V30 4731 C 448.331 1.62546 0.0909809 0
M  V30 4732 O 449.52 1.77942 -0.141021 0
M  V30 4733 C 446.62 3.36922 -0.36559 0
M  V30 4734 C 445.793 4.13216 -1.43426 0
M  V30 4735 C 444.852 5.18696 -0.885496 0
M  V30 4736 O 443.878 5.47176 -1.56801 0
M  V30 4737 N 445.08 5.79718 0.301227 0
M  V30 4738 H 447.845 2.34895 -1.8613 0
M  V30 4739 H 445.406 1.17341 -1.11546 0
M  V30 4740 H 447.398 4.04697 0.0158407 0
M  V30 4741 H 445.968 3.08952 0.476149 0
M  V30 4742 H 445.188 3.40301 -1.9897 0
M  V30 4743 H 446.476 4.60967 -2.15376 0
M  V30 4744 H 445.874 5.58926 0.872849 0
M  V30 4745 H 444.431 6.48804 0.624211 0
M  V30 4746 N 447.864 1.01787 1.20321 0
M  V30 4747 C 449.11 0.708985 1.90003 0
M  V30 4748 C 449.443 -0.759572 1.78729 0
M  V30 4749 O 448.718 -1.55198 1.17234 0
M  V30 4750 C 449.001 1.1469 3.41348 0
M  V30 4751 C 448.854 2.67586 3.61549 0
M  V30 4752 C 450.173 0.71915 4.34185 0
M  V30 4753 H 447.292 0.259034 0.689978 0
M  V30 4754 H 449.934 1.26584 1.41692 0
M  V30 4755 H 448.084 0.673128 3.82624 0
M  V30 4756 H 449.756 3.22826 3.29517 0
M  V30 4757 H 447.999 3.085 3.04976 0
M  V30 4758 H 448.67 2.93281 4.67643 0
M  V30 4759 H 451.146 1.12647 4.00562 0
M  V30 4760 H 450.022 1.05358 5.38694 0
M  V30 4761 H 450.283 -0.379111 4.40472 0
M  V30 4762 N 449.342 -1.36122 0.79427 0
M  V30 4763 C 450.59 -1.98718 0.368177 0
M  V30 4764 C 450.911 -1.63345 -1.06506 0
M  V30 4765 O 450.181 -0.909825 -1.73491 0
M  V30 4766 H 448.761 -0.735038 0.133146 0
M  V30 4767 H 451.423 -1.66239 1.01739 0
M  V30 4768 H 450.519 -3.08633 0.463923 0
M  V30 4769 N 450.82 -0.546701 -1.47814 0
M  V30 4770 C 451.783 0.196287 -2.28358 0
M  V30 4771 C 452.783 0.852437 -1.36346 0
M  V30 4772 O 453.973 0.709913 -1.59078 0
M  V30 4773 C 451.105 1.28579 -3.15722 0
M  V30 4774 H 452.298 -0.511086 -2.95513 0
M  V30 4775 H 449.851 -0.303248 -1.5333 0
M  V30 4776 H 450.586 2.0259 -2.53235 0
M  V30 4777 H 450.371 0.820229 -3.83425 0
M  V30 4778 H 451.861 1.80793 -3.76435 0
M  V30 4779 N 452.299 1.55045 -0.282633 0
M  V30 4780 C 453.524 2.04628 0.337977 0
M  V30 4781 C 453.949 1.15937 1.48123 0
M  V30 4782 O 453.307 0.159532 1.80597 0
M  V30 4783 C 453.355 3.51854 0.78936 0
M  V30 4784 O 452.459 3.66236 1.89592 0
M  V30 4785 H 451.8 0.660434 0.0687261 0
M  V30 4786 H 454.33 2.00261 -0.419124 0
M  V30 4787 H 454.34 3.93361 1.08311 0
M  V30 4788 H 453.015 4.15873 -0.0470419 0
M  V30 4789 H 451.592 3.36633 1.60413 0
M  V30 4790 N 453.777 0.010035 1.57597 0
M  V30 4791 C 454.709 -1.00649 2.05918 0
M  V30 4792 C 455.722 -1.30077 0.978964 0
M  V30 4793 O 456.911 -1.26878 1.25556 0
M  V30 4794 C 454.011 -2.33876 2.45265 0
M  V30 4795 C 453.184 -2.23242 3.7614 0
M  V30 4796 C 452.243 -3.39242 4.02245 0
M  V30 4797 O 451.269 -3.1698 4.72771 0
M  V30 4798 N 452.471 -4.6242 3.50924 0
M  V30 4799 H 455.236 -0.594333 2.93748 0
M  V30 4800 H 452.797 -0.17714 1.60928 0
M  V30 4801 H 454.789 -3.1027 2.59836 0
M  V30 4802 H 453.359 -2.66799 1.62902 0
M  V30 4803 H 452.579 -1.31696 3.71551 0
M  V30 4804 H 453.867 -2.13321 4.61922 0
M  V30 4805 H 453.265 -4.83404 2.93832 0
M  V30 4806 H 451.822 -5.36046 3.70807 0
M  V30 4807 N 455.255 -1.55392 -0.262866 0
M  V30 4808 C 456.485 -1.80251 -1.00961 0
M  V30 4809 C 456.893 -0.58117 -1.80053 0
M  V30 4810 O 456.236 0.459427 -1.77862 0
M  V30 4811 C 456.298 -2.98207 -2.00781 0
M  V30 4812 C 455.962 -4.34856 -1.40533 0
M  V30 4813 C 456.959 -5.13459 -0.815853 0
M  V30 4814 C 454.644 -4.8153 -1.42948 0
M  V30 4815 C 456.638 -6.36875 -0.258562 0
M  V30 4816 C 454.325 -6.04899 -0.868334 0
M  V30 4817 C 455.323 -6.8241 -0.283884 0
M  V30 4818 O 455.011 -8.03451 0.268644 0
M  V30 4819 H 454.743 -0.604049 -0.303482 0
M  V30 4820 H 457.297 -2.03257 -0.295926 0
M  V30 4821 H 455.527 -2.70917 -2.75936 0
M  V30 4822 H 457.216 -3.10299 -2.61667 0
M  V30 4823 H 457.982 -4.78526 -0.789812 0
M  V30 4824 H 453.861 -4.21201 -1.87378 0
M  V30 4825 H 457.405 -6.97318 0.198257 0
M  V30 4826 H 453.302 -6.39312 -0.891649 0
M  V30 4827 H 454.07 -8.18346 0.158974 0
M  V30 4828 N 456.733 0.527833 -1.48498 0
M  V30 4829 C 457.663 1.64136 -1.66077 0
M  V30 4830 C 458.644 1.62286 -0.509625 0
M  V30 4831 O 459.829 1.79449 -0.742413 0
M  V30 4832 C 456.959 3.02717 -1.70234 0
M  V30 4833 C 455.913 3.19426 -2.8487 0
M  V30 4834 C 455.239 4.5909 -2.74118 0
M  V30 4835 C 456.539 3.01993 -4.26142 0
M  V30 4836 H 458.233 1.4968 -2.593 0
M  V30 4837 H 455.779 0.718654 -1.24785 0
M  V30 4838 H 457.732 3.80491 -1.8112 0
M  V30 4839 H 456.456 3.18201 -0.735911 0
M  V30 4840 H 455.115 2.4407 -2.73542 0
M  V30 4841 H 454.763 4.71413 -1.7544 0
M  V30 4842 H 454.463 4.71214 -3.51042 0
M  V30 4843 H 455.987 5.3896 -2.86974 0
M  V30 4844 H 457.401 3.69558 -4.38292 0
M  V30 4845 H 455.798 3.2561 -5.04082 0
M  V30 4846 H 456.868 1.98396 -4.42456 0
M  V30 4847 N 458.211 1.37122 0.776871 0
M  V30 4848 C 459.458 1.32047 1.53524 0
M  V30 4849 C 459.786 -0.0965631 1.9426 0
M  V30 4850 O 459.041 -1.06866 1.63945 0
M  V30 4851 C 459.34 2.20068 2.81611 0
M  V30 4852 C 459.006 3.68423 2.59953 0
M  V30 4853 C 457.668 4.08854 2.53755 0
M  V30 4854 C 460.02 4.62431 2.40431 0
M  V30 4855 C 457.348 5.41417 2.26018 0
M  V30 4856 C 459.7 5.95225 2.14219 0
M  V30 4857 C 458.364 6.34767 2.06462 0
M  V30 4858 H 457.634 0.483196 0.561785 0
M  V30 4859 H 460.281 1.69284 0.895268 0
M  V30 4860 H 458.586 1.75809 3.50141 0
M  V30 4861 H 460.283 2.13458 3.39465 0
M  V30 4862 H 456.873 3.36354 2.65638 0
M  V30 4863 H 461.057 4.32057 2.44213 0
M  V30 4864 H 456.313 5.71022 2.18504 0
M  V30 4865 H 460.487 6.67626 1.98112 0
M  V30 4866 H 458.114 7.37413 1.84733 0
M  V30 4867 N 459.689 -1.00246 1.21608 0
M  V30 4868 C 461.1 -1.55511 1.03312 0
M  V30 4869 C 461.451 -1.91946 -0.406332 0
M  V30 4870 O 460.576 -1.73753 -1.28992 0
M  V30 4871 C 461.171 -2.82576 1.86913 0
M  V30 4872 C 459.73 -3.34318 1.72941 0
M  V30 4873 C 458.877 -2.07487 1.83968 0
M  V30 4874 H 461.828 -0.824638 1.35593 0
M  V30 4875 H 461.849 -3.54559 1.38087 0
M  V30 4876 H 461.361 -2.56026 2.91672 0
M  V30 4877 H 459.462 -3.65797 0.70877 0
M  V30 4878 H 459.575 -4.05566 2.55055 0
M  V30 4879 H 457.939 -2.20603 1.27304 0
M  V30 4880 H 458.722 -1.83346 2.9024 0
M  V30 4881 N 461.167 -1.02423 -1.1978 0
M  V30 4882 C 462.416 -0.713265 -1.88667 0
M  V30 4883 C 462.729 0.7609 -1.80193 0
M  V30 4884 O 463.935 1.18473 -2.44288 0
M  V30 4885 C 462.391 -1.22545 -3.38394 0
M  V30 4886 C 461.999 -2.72706 -3.55437 0
M  V30 4887 C 463.743 -0.990257 -4.12788 0
M  V30 4888 C 461.65 -3.17367 -4.99031 0
M  V30 4889 H 460.58 -0.263105 -0.706606 0
M  V30 4890 H 463.231 -1.23792 -1.35454 0
M  V30 4891 H 461.613 -0.628732 -3.90977 0
M  V30 4892 H 462.787 -3.37993 -3.13205 0
M  V30 4893 H 461.102 -2.94453 -2.94425 0
M  V30 4894 H 463.699 -1.29926 -5.18675 0
M  V30 4895 H 464.042 0.0730761 -4.16236 0
M  V30 4896 H 464.575 -1.55074 -3.66329 0
M  V30 4897 H 461.314 -4.23009 -5.00743 0
M  V30 4898 H 460.834 -2.56805 -5.42044 0
M  V30 4899 H 462.513 -3.10441 -5.67658 0
M  V30 4900 N 462.645 1.35699 -0.801477 0
M  V30 4901 C 463.555 2.33661 -0.209691 0
M  V30 4902 C 464.571 1.6162 0.644591 0
M  V30 4903 O 465.747 1.93529 0.557545 0
M  V30 4904 C 462.812 3.40816 0.636033 0
M  V30 4905 C 461.873 4.28639 -0.238147 0
M  V30 4906 C 461.106 5.30676 0.567307 0
M  V30 4907 O 461.329 5.41174 1.8024 0
M  V30 4908 O 460.263 6.01887 -0.0391336 0
M  V30 4909 H 464.089 2.8606 -1.01996 0
M  V30 4910 H 461.674 1.38379 -0.563164 0
M  V30 4911 H 463.556 4.06301 1.11791 0
M  V30 4912 H 462.231 2.90696 1.42399 0
M  V30 4913 H 461.138 3.66152 -0.767044 0
M  V30 4914 H 462.471 4.82143 -0.989915 0
M  V30 4915 N 464.123 0.554532 1.47522 0
M  V30 4916 C 465.033 -0.197865 2.33764 0
M  V30 4917 C 466.049 -0.914576 1.48025 0
M  V30 4918 O 467.225 -0.884067 1.80959 0
M  V30 4919 C 464.29 -1.21628 3.24665 0
M  V30 4920 C 463.351 -0.507283 4.26292 0
M  V30 4921 C 462.584 -1.47718 5.1285 0
M  V30 4922 O 462.807 -2.7118 5.01814 0
M  V30 4923 O 461.741 -1.00313 5.93482 0
M  V30 4924 H 465.567 0.50949 2.99396 0
M  V30 4925 H 463.152 0.315176 1.46038 0
M  V30 4926 H 465.034 -1.80421 3.80823 0
M  V30 4927 H 463.709 -1.9056 2.61665 0
M  V30 4928 H 462.616 0.121778 3.73902 0
M  V30 4929 H 463.949 0.140544 4.91999 0
M  V30 4930 N 465.601 -1.54893 0.290851 0
M  V30 4931 C 466.564 -2.21824 -0.576784 0
M  V30 4932 C 467.564 -1.20104 -1.06919 0
M  V30 4933 O 468.754 -1.44906 -0.966843 0
M  V30 4934 C 465.886 -2.89662 -1.79747 0
M  V30 4935 H 467.079 -2.99899 0.00784051 0
M  V30 4936 H 464.632 -1.56245 0.0415934 0
M  V30 4937 H 465.367 -2.15639 -2.42219 0
M  V30 4938 H 465.152 -3.64219 -1.45214 0
M  V30 4939 H 466.642 -3.4075 -2.4141 0
M  V30 4940 N 467.08 -0.0183926 -1.57589 0
M  V30 4941 C 468.012 0.995557 -2.06449 0
M  V30 4942 C 469.025 1.29556 -0.985849 0
M  V30 4943 O 470.214 1.2621 -1.26227 0
M  V30 4944 C 467.314 2.32572 -2.46502 0
M  V30 4945 C 466.487 2.21245 -3.77319 0
M  V30 4946 C 465.546 3.37104 -4.04039 0
M  V30 4947 O 464.572 3.14468 -4.74445 0
M  V30 4948 N 465.774 4.60553 -3.53372 0
M  V30 4949 H 468.539 0.578746 -2.94059 0
M  V30 4950 H 466.1 0.168603 -1.6102 0
M  V30 4951 H 468.092 3.08887 -2.61478 0
M  V30 4952 H 466.662 2.65931 -1.64315 0
M  V30 4953 H 465.882 1.29723 -3.72244 0
M  V30 4954 H 467.17 2.10868 -4.63047 0
M  V30 4955 H 466.568 4.81839 -2.96391 0
M  V30 4956 H 465.125 5.34072 -3.73644 0
M  V30 4957 N 468.558 1.5553 0.254621 0
M  V30 4958 C 469.806 1.7665 0.981793 0
M  V30 4959 C 470.127 0.580963 1.86145 0
M  V30 4960 O 469.397 -0.403537 1.91699 0
M  V30 4961 H 467.977 0.651475 0.365498 0
M  V30 4962 H 470.639 1.92958 0.274426 0
M  V30 4963 H 469.735 2.67486 1.60802 0
M  V30 4964 N 470.036 -0.519951 1.48776 0
M  V30 4965 C 470.968 -1.63973 1.60142 0
M  V30 4966 C 471.981 -1.55404 0.485117 0
M  V30 4967 O 473.17 -1.61682 0.756391 0
M  V30 4968 C 470.27 -3.02676 1.52449 0
M  V30 4969 C 469.443 -3.36624 2.79291 0
M  V30 4970 C 468.502 -4.54652 2.64912 0
M  V30 4971 O 467.528 -4.57374 3.38818 0
M  V30 4972 N 468.73 -5.53432 1.75195 0
M  V30 4973 H 471.495 -1.54656 2.56713 0
M  V30 4974 H 469.056 -0.707439 1.45626 0
M  V30 4975 H 471.048 -3.79525 1.4051 0
M  V30 4976 H 469.618 -3.06018 0.638125 0
M  V30 4977 H 468.838 -2.48855 3.0572 0
M  V30 4978 H 470.126 -3.56094 3.6342 0
M  V30 4979 H 469.524 -5.54018 1.14371 0
M  V30 4980 H 468.081 -6.29459 1.69189 0
M  V30 4981 N 471.514 -1.37532 -0.769588 0
M  V30 4982 C 472.761 -1.3286 -1.52822 0
M  V30 4983 C 473.089 0.0862597 -1.94309 0
M  V30 4984 O 472.344 1.05995 -1.6451 0
M  V30 4985 C 472.643 -2.21558 -2.8044 0
M  V30 4986 C 472.309 -3.69796 -2.57996 0
M  V30 4987 C 470.971 -4.10194 -2.51583 0
M  V30 4988 C 473.323 -4.63699 -2.37976 0
M  V30 4989 C 470.651 -5.42608 -2.23144 0
M  V30 4990 C 473.003 -5.96353 -2.1106 0
M  V30 4991 C 471.667 -6.35853 -2.03093 0
M  V30 4992 H 470.937 -0.486168 -0.559215 0
M  V30 4993 H 473.584 -1.69757 -0.886277 0
M  V30 4994 H 471.889 -1.77663 -3.49204 0
M  V30 4995 H 473.586 -2.15256 -3.38328 0
M  V30 4996 H 470.176 -3.37759 -2.63851 0
M  V30 4997 H 474.36 -4.33346 -2.41919 0
M  V30 4998 H 469.616 -5.72173 -2.15472 0
M  V30 4999 H 473.79 -6.68667 -1.94568 0
M  V30 5000 H 471.417 -7.38382 -1.8082 0
M  V30 5001 N 472.992 0.995999 -1.22138 0
M  V30 5002 C 473.922 2.10387 -1.01289 0
M  V30 5003 C 474.903 1.69975 0.0651454 0
M  V30 5004 O 476.088 1.9396 -0.0964628 0
M  V30 5005 C 473.218 3.42312 -0.586517 0
M  V30 5006 C 472.172 3.96558 -1.61014 0
M  V30 5007 C 471.498 5.24494 -1.0397 0
M  V30 5008 C 472.798 4.27595 -2.99933 0
M  V30 5009 H 474.492 2.28086 -1.93951 0
M  V30 5010 H 472.038 1.09607 -0.933928 0
M  V30 5011 H 473.991 4.19223 -0.427793 0
M  V30 5012 H 472.715 3.24431 0.375761 0
M  V30 5013 H 471.374 3.21776 -1.75658 0
M  V30 5014 H 471.022 5.02953 -0.0688703 0
M  V30 5015 H 470.722 5.61755 -1.72352 0
M  V30 5016 H 472.246 6.04042 -0.892494 0
M  V30 5017 H 473.66 4.95315 -2.8868 0
M  V30 5018 H 472.057 4.76021 -3.6541 0
M  V30 5019 H 473.127 3.35498 -3.50099 0
M  V30 5020 N 474.47 1.03057 1.19235 0
M  V30 5021 C 475.717 0.728019 1.88961 0
M  V30 5022 C 476.045 -0.743515 1.79728 0
M  V30 5023 O 475.3 -1.55729 1.1852 0
M  V30 5024 C 475.599 1.1268 3.39172 0
M  V30 5025 C 475.265 2.5969 3.68608 0
M  V30 5026 C 473.927 2.99854 3.76352 0
M  V30 5027 C 476.279 3.54793 3.81801 0
M  V30 5028 C 473.607 4.34031 3.94758 0
M  V30 5029 C 475.959 4.88675 4.0172 0
M  V30 5030 C 474.623 5.28526 4.07697 0
M  V30 5031 H 473.893 0.266401 0.691456 0
M  V30 5032 H 476.54 1.29373 1.41191 0
M  V30 5033 H 474.845 0.479722 3.88852 0
M  V30 5034 H 476.542 0.870203 3.91444 0
M  V30 5035 H 473.132 2.27575 3.63191 0
M  V30 5036 H 477.316 3.24914 3.7516 0
M  V30 5037 H 472.572 4.6444 3.97625 0
M  V30 5038 H 476.746 5.6228 4.1087 0
M  V30 5039 H 474.373 6.32506 4.21712 0
M  V30 5040 N 475.948 -1.35272 0.808662 0
M  V30 5041 C 477.197 -1.97963 0.386483 0
M  V30 5042 C 477.51 -1.64866 -1.05255 0
M  V30 5043 O 478.716 -2.20937 -1.57794 0
M  V30 5044 C 477.172 -3.54162 0.640096 0
M  V30 5045 C 476.78 -3.96166 2.0918 0
M  V30 5046 C 478.524 -4.23553 0.283376 0
M  V30 5047 C 476.431 -5.4522 2.29106 0
M  V30 5048 H 475.361 -0.740742 0.140774 0
M  V30 5049 H 478.012 -1.5431 0.993012 0
M  V30 5050 H 476.394 -3.95983 -0.0364117 0
M  V30 5051 H 477.568 -3.65491 2.80629 0
M  V30 5052 H 475.883 -3.3967 2.40859 0
M  V30 5053 H 478.48 -5.33124 0.410273 0
M  V30 5054 H 478.823 -4.09105 -0.770659 0
M  V30 5055 H 479.356 -3.8716 0.913884 0
M  V30 5056 H 476.095 -5.64638 3.32962 0
M  V30 5057 H 475.615 -5.77457 1.62184 0
M  V30 5058 H 477.294 -6.1171 2.1076 0
M  V30 5059 N 477.426 -0.562348 -1.47226 0
M  V30 5060 C 478.672 -0.0402761 -2.0276 0
M  V30 5061 C 479.005 1.30823 -1.43523 0
M  V30 5062 O 478.28 1.85249 -0.592705 0
M  V30 5063 C 478.563 0.047311 -3.60069 0
M  V30 5064 C 478.416 -1.32865 -4.29729 0
M  V30 5065 C 479.735 0.758182 -4.3352 0
M  V30 5066 H 476.854 -0.0161105 -0.736824 0
M  V30 5067 H 479.496 -0.725628 -1.75598 0
M  V30 5068 H 477.646 0.630986 -3.83342 0
M  V30 5069 H 479.318 -1.95593 -4.17781 0
M  V30 5070 H 477.561 -1.90195 -3.89882 0
M  V30 5071 H 478.232 -1.22004 -5.38349 0
M  V30 5072 H 480.708 0.262546 -4.15271 0
M  V30 5073 H 479.584 0.78844 -5.43208 0
M  V30 5074 H 479.845 1.81537 -4.03109 0
M  V30 5075 N 478.904 1.54736 -0.299062 0
M  V30 5076 C 480.152 1.99706 0.31017 0
M  V30 5077 C 480.473 1.18896 1.54559 0
M  V30 5078 O 479.743 0.284445 1.93824 0
M  V30 5079 H 478.323 0.737686 0.117596 0
M  V30 5080 H 480.985 1.9054 -0.409943 0
M  V30 5081 H 480.081 3.06596 0.58355 0
M  V30 5082 N 480.382 0.0267497 1.57577 0
M  V30 5083 C 481.292 -0.971633 2.13533 0
M  V30 5084 C 482.308 -1.35868 1.08701 0
M  V30 5085 O 483.484 -1.44058 1.40746 0
M  V30 5086 C 480.549 -2.23622 2.64941 0
M  V30 5087 C 479.61 -1.90982 3.8448 0
M  V30 5088 C 478.843 -3.11411 4.33427 0
M  V30 5089 O 479.066 -4.23992 3.81558 0
M  V30 5090 O 478 -2.93848 5.25297 0
M  V30 5091 H 481.826 -0.525853 2.99113 0
M  V30 5092 H 479.411 -0.193712 1.48139 0
M  V30 5093 H 481.293 -2.97864 2.98086 0
M  V30 5094 H 479.968 -2.67386 1.82446 0
M  V30 5095 H 478.875 -1.14132 3.56265 0
M  V30 5096 H 480.208 -1.52036 4.6813 0
M  V30 5097 N 481.861 -1.55662 -0.24637 0
M  V30 5098 C 483.109 -1.77168 -0.972411 0
M  V30 5099 C 483.43 -0.590827 -1.85834 0
M  V30 5100 O 482.7 0.393365 -1.9191 0
M  V30 5101 H 481.28 -0.653405 -0.362038 0
M  V30 5102 H 483.942 -1.93101 -0.264189 0
M  V30 5103 H 483.038 -2.68335 -1.59382 0
M  V30 5104 N 483.339 0.512053 -1.4905 0
M  V30 5105 C 484.616 1.27337 -1.48474 0
M  V30 5106 C 484.996 2.1009 -0.206301 0
M  V30 5107 O 484.344 2.136 0.811609 0
M  V30 5108 C 484.554 2.13954 -2.75726 0
M  V30 5109 C 485.902 2.73507 -3.24776 0
M  V30 5110 O 486.926 2.24229 -2.76767 0
M  V30 5111 O 485.785 3.63186 -4.08361 0
M  V30 5112 H 482.879 0.575652 -0.593762 0
M  V30 5113 H 485.425 0.527232 -1.61302 0
M  V30 5114 H 484.197 1.52709 -3.60272 0
M  V30 5115 H 483.82 2.95782 -2.65705 0
M  V30 5116 N 484.817 1.37938 0.762283 0
M  V30 5117 C 485.764 1.34467 1.87583 0
M  V30 5118 C 486.734 0.208633 1.64785 0
M  V30 5119 O 487.919 0.399494 1.86571 0
M  V30 5120 C 485.059 1.16692 3.24772 0
M  V30 5121 C 484.172 2.39608 3.59461 0
M  V30 5122 C 483.307 2.14631 4.85908 0
M  V30 5123 C 482.346 3.33364 5.13357 0
M  V30 5124 N 481.483 3.07877 6.30996 0
M  V30 5125 H 486.323 2.29669 1.89885 0
M  V30 5126 H 483.86 1.14116 0.928219 0
M  V30 5127 H 485.818 1.04405 4.03925 0
M  V30 5128 H 484.448 0.251333 3.2182 0
M  V30 5129 H 483.5 2.626 2.75219 0
M  V30 5130 H 484.812 3.28128 3.75678 0
M  V30 5131 H 483.966 1.99429 5.72986 0
M  V30 5132 H 482.705 1.23463 4.71814 0
M  V30 5133 H 481.71 3.49094 4.24751 0
M  V30 5134 H 482.935 4.25395 5.29354 0
M  V30 5135 H 480.881 2.19348 6.18241 0
M  V30 5136 H 480.798 3.89944 6.47673 0
M  V30 5137 H 482.066 2.96313 7.20985 0
M  V30 5138 N 486.295 -0.989507 1.22664 0
M  V30 5139 C 487.523 -1.76496 1.07967 0
M  V30 5140 C 487.938 -1.85148 -0.369543 0
M  V30 5141 O 487.295 -1.32408 -1.25596 0
M  V30 5142 C 487.346 -3.19642 1.68853 0
M  V30 5143 O 487.067 -3.11453 3.08105 0
M  V30 5144 C 488.568 -4.13621 1.59475 0
M  V30 5145 H 485.788 -0.55418 0.378319 0
M  V30 5146 H 488.332 -1.24378 1.62328 0
M  V30 5147 H 486.487 -3.68816 1.18547 0
M  V30 5148 H 486.901 -4.01499 3.37489 0
M  V30 5149 H 488.375 -5.11801 2.06795 0
M  V30 5150 H 488.852 -4.35718 0.55191 0
M  V30 5151 H 489.458 -3.70346 2.09103 0
M  V30 5152 N 487.773 -1.03688 -1.18687 0
M  V30 5153 C 489.022 -0.733235 -1.879 0
M  V30 5154 C 489.335 0.741745 -1.8099 0
M  V30 5155 O 490.541 1.15875 -2.4553 0
M  V30 5156 C 488.997 -1.26127 -3.37076 0
M  V30 5157 C 488.605 -2.76461 -3.52524 0
M  V30 5158 C 490.349 -1.03398 -4.11715 0
M  V30 5159 C 488.256 -3.22642 -4.95637 0
M  V30 5160 H 487.186 -0.270584 -0.703776 0
M  V30 5161 H 489.837 -1.25222 -1.34133 0
M  V30 5162 H 488.219 -0.670165 -3.90288 0
M  V30 5163 H 489.393 -3.41296 -3.09602 0
M  V30 5164 H 487.708 -2.97559 -2.91286 0
M  V30 5165 H 490.305 -1.3542 -5.17267 0
M  V30 5166 H 490.648 0.0289246 -4.1629 0
M  V30 5167 H 491.181 -1.5895 -3.64664 0
M  V30 5168 H 487.92 -4.28296 -4.96228 0
M  V30 5169 H 487.44 -2.62539 -5.39289 0
M  V30 5170 H 489.119 -3.16444 -5.64333 0
M  V30 5171 N 489.251 1.34841 -0.815825 0
M  V30 5172 C 490.199 2.31549 -0.220888 0
M  V30 5173 C 491.193 1.5707 0.634457 0
M  V30 5174 O 492.399 1.72125 0.526589 0
M  V30 5175 H 488.774 0.750153 -0.0526782 0
M  V30 5176 H 490.745 2.7926 -1.05149 0
M  V30 5177 C 489.494 3.42335 0.608427 0
M  V30 5178 H 488.817 3.9978 -0.0404121 0
M  V30 5179 H 490.257 4.12258 0.990931 0
M  V30 5180 C 488.716 2.86173 1.77782 0
M  V30 5181 O 489.246 2.80474 2.87571 0
M  V30 5182 N 487.452 2.43093 1.59229 0
M  V30 5183 H 486.999 2.47928 0.699237 0
M  V30 5184 H 486.957 2.05866 2.37627 0
M  V30 5185 N 490.729 0.570148 1.46925 0
M  V30 5186 C 491.954 0.0542592 2.07329 0
M  V30 5187 C 492.379 -1.23582 1.41806 0
M  V30 5188 O 491.737 -1.74341 0.497479 0
M  V30 5189 C 491.785 -0.111175 3.60429 0
M  V30 5190 O 490.889 -1.17071 3.95434 0
M  V30 5191 H 490.23 0.0571425 0.661537 0
M  V30 5192 H 492.76 0.789516 1.88753 0
M  V30 5193 H 492.77 -0.321315 4.06733 0
M  V30 5194 H 491.445 0.831012 4.07513 0
M  V30 5195 H 490.022 -0.940029 3.60857 0
M  V30 5196 N 492.207 -1.54576 0.307264 0
M  V30 5197 C 493.154 -2.23751 -0.56604 0
M  V30 5198 C 494.124 -1.22235 -1.12462 0
M  V30 5199 O 495.309 -1.50873 -1.16799 0
M  V30 5200 C 492.449 -2.98661 -1.72903 0
M  V30 5201 C 491.562 -4.14963 -1.20124 0
M  V30 5202 C 490.697 -4.77441 -2.3286 0
M  V30 5203 C 489.736 -5.85875 -1.77247 0
M  V30 5204 N 488.873 -6.42282 -2.8358 0
M  V30 5205 H 493.713 -2.97984 0.0304578 0
M  V30 5206 H 491.25 -1.47076 0.0268015 0
M  V30 5207 H 493.208 -3.40329 -2.41313 0
M  V30 5208 H 491.838 -2.26793 -2.29706 0
M  V30 5209 H 490.89 -3.78193 -0.409198 0
M  V30 5210 H 492.202 -4.93066 -0.754171 0
M  V30 5211 H 491.356 -5.21993 -3.09205 0
M  V30 5212 H 490.095 -3.98684 -2.80896 0
M  V30 5213 H 489.1 -5.40741 -0.993926 0
M  V30 5214 H 490.325 -6.6652 -1.30107 0
M  V30 5215 H 488.271 -5.66406 -3.30939 0
M  V30 5216 H 488.188 -7.1575 -2.43388 0
M  V30 5217 H 489.456 -6.91492 -3.59804 0
M  V30 5218 N 493.685 -0.035106 -1.57561 0
M  V30 5219 C 494.648 0.929819 -2.09492 0
M  V30 5220 C 495.648 1.25026 -1.01119 0
M  V30 5221 O 496.838 1.18961 -1.27255 0
M  V30 5222 C 493.97 2.24457 -2.56577 0
M  V30 5223 H 495.163 0.479935 -2.96035 0
M  V30 5224 H 492.716 0.213033 -1.54841 0
M  V30 5225 H 493.451 2.74061 -1.73382 0
M  V30 5226 H 493.236 2.02508 -3.35757 0
M  V30 5227 H 494.726 2.93607 -2.96959 0
M  V30 5228 N 495.163 1.55791 0.238111 0
M  V30 5229 C 496.113 1.87444 1.29803 0
M  V30 5230 C 497.097 0.736043 1.43078 0
M  V30 5231 O 498.289 0.998146 1.46171 0
M  V30 5232 C 495.418 2.18028 2.65177 0
M  V30 5233 C 494.504 3.38217 2.55871 0
M  V30 5234 N 494.895 4.57264 2.16202 0
M  V30 5235 C 493.193 3.41502 2.86866 0
M  V30 5236 C 493.894 5.3941 2.17744 0
M  V30 5237 N 492.87 4.78695 2.57589 0
M  V30 5238 H 496.672 2.7701 0.981965 0
M  V30 5239 H 494.186 1.56135 0.44672 0
M  V30 5240 H 496.183 2.38873 3.4168 0
M  V30 5241 H 494.843 1.29765 2.97643 0
M  V30 5242 H 495.854 4.82727 1.87602 0
M  V30 5243 H 492.531 2.63536 3.23813 0
M  V30 5244 H 493.921 6.44671 1.89339 0
M  V30 5245 N 496.642 -0.504142 1.49319 0
M  V30 5246 C 497.605 -1.5883 1.65244 0
M  V30 5247 C 498.605 -1.52009 0.524386 0
M  V30 5248 O 499.795 -1.55218 0.79077 0
M  V30 5249 C 496.927 -2.98481 1.64687 0
M  V30 5250 H 498.12 -1.4604 2.61939 0
M  V30 5251 H 495.673 -0.728144 1.38303 0
M  V30 5252 H 496.408 -3.16751 0.695644 0
M  V30 5253 H 496.193 -3.0484 2.46607 0
M  V30 5254 H 497.683 -3.77256 1.79075 0
M  V30 5255 N 498.12 -1.38341 -0.754957 0
M  V30 5256 C 499.03 -1.3769 -1.89944 0
M  V30 5257 C 500.046 -0.274194 -1.71826 0
M  V30 5258 O 501.222 -0.512391 -1.94773 0
M  V30 5259 C 498.287 -1.19938 -3.25293 0
M  V30 5260 C 497.348 -2.40001 -3.55946 0
M  V30 5261 C 496.581 -2.23087 -4.84838 0
M  V30 5262 O 496.804 -1.22386 -5.57116 0
M  V30 5263 O 495.738 -3.11646 -5.14937 0
M  V30 5264 H 499.564 -2.3412 -1.93446 0
M  V30 5265 H 497.149 -1.19246 -0.900044 0
M  V30 5266 H 499.031 -1.12093 -4.06218 0
M  V30 5267 H 497.706 -0.265919 -3.22606 0
M  V30 5268 H 496.613 -2.53421 -2.75188 0
M  V30 5269 H 497.946 -3.31973 -3.63394 0
M  V30 5270 N 499.598 0.982988 -1.23187 0
M  V30 5271 C 500.53 2.07729 -0.968572 0
M  V30 5272 C 501.543 1.62702 0.0564821 0
M  V30 5273 O 502.732 1.77603 -0.178733 0
M  V30 5274 C 499.832 3.36071 -0.436974 0
M  V30 5275 C 499.005 4.10081 -1.52159 0
M  V30 5276 C 498.064 5.16701 -0.99532 0
M  V30 5277 O 497.09 5.43727 -1.68373 0
M  V30 5278 N 498.292 5.80226 0.178192 0
M  V30 5279 H 501.057 2.30894 -1.9107 0
M  V30 5280 H 498.618 1.14949 -1.1401 0
M  V30 5281 H 500.61 4.04639 -0.0700051 0
M  V30 5282 H 499.18 3.09893 0.410509 0
M  V30 5283 H 498.4 3.36004 -2.06144 0
M  V30 5284 H 499.688 4.56295 -2.25105 0
M  V30 5285 H 499.086 5.60651 0.754096 0
M  V30 5286 H 497.643 6.49982 0.486449 0
M  V30 5287 N 501.076 1.04316 1.18135 0
M  V30 5288 C 502.039 0.640794 2.2006 0
M  V30 5289 C 503.039 -0.303124 1.57917 0
M  V30 5290 O 504.229 -0.0881855 1.73977 0
M  V30 5291 C 501.361 -0.060148 3.40847 0
M  V30 5292 H 502.554 1.54281 2.57172 0
M  V30 5293 H 500.107 0.836004 1.32063 0
M  V30 5294 H 500.842 -0.975845 3.0927 0
M  V30 5295 H 500.627 0.618319 3.87194 0
M  V30 5296 H 502.117 -0.328082 4.16309 0
M  V30 5297 N 502.554 -1.34406 0.822964 0
M  V30 5298 C 503.803 -1.97542 0.407458 0
M  V30 5299 C 504.116 -1.65973 -1.035 0
M  V30 5300 O 505.322 -2.22598 -1.55442 0
M  V30 5301 C 503.778 -3.53463 0.677623 0
M  V30 5302 C 503.386 -3.93925 2.1337 0
M  V30 5303 C 505.13 -4.23229 0.328284 0
M  V30 5304 C 503.037 -5.42759 2.34876 0
M  V30 5305 H 501.967 -0.739207 0.148623 0
M  V30 5306 H 504.618 -1.53248 1.00932 0
M  V30 5307 H 503 -3.96 0.00558965 0
M  V30 5308 H 504.174 -3.62494 2.8449 0
M  V30 5309 H 502.489 -3.37097 2.44448 0
M  V30 5310 H 505.086 -5.32659 0.466794 0
M  V30 5311 H 505.429 -4.09899 -0.727224 0
M  V30 5312 H 505.962 -3.86169 0.954896 0
M  V30 5313 H 502.701 -5.61075 3.38932 0
M  V30 5314 H 502.221 -5.75704 1.68299 0
M  V30 5315 H 503.9 -6.0944 2.17236 0
M  V30 5316 N 504.032 -0.577932 -1.46621 0
M  V30 5317 C 505.28 -0.061566 -2.02006 0
M  V30 5318 C 505.601 1.30117 -1.4524 0
M  V30 5319 O 504.871 1.85313 -0.63529 0
M  V30 5320 H 503.451 -0.0197692 -0.746738 0
M  V30 5321 H 506.113 -0.752631 -1.79782 0
M  V30 5322 H 505.209 0.0110238 -3.12098 0
M  V30 5323 N 505.51 1.54411 -0.315457 0
M  V30 5324 C 506.442 2.21527 0.588067 0
M  V30 5325 C 507.455 1.21263 1.08624 0
M  V30 5326 O 508.644 1.47777 1.00121 0
M  V30 5327 C 505.744 2.85963 1.81875 0
M  V30 5328 C 504.917 4.12291 1.46063 0
M  V30 5329 C 503.976 4.60396 2.54799 0
M  V30 5330 O 503.002 5.25265 2.19283 0
M  V30 5331 N 504.204 4.33935 3.85591 0
M  V30 5332 H 506.969 2.99697 0.013414 0
M  V30 5333 H 504.53 1.61308 -0.138295 0
M  V30 5334 H 506.522 3.15071 2.53993 0
M  V30 5335 H 505.092 2.11548 2.30144 0
M  V30 5336 H 504.312 3.90036 0.571445 0
M  V30 5337 H 505.6 4.9452 1.19695 0
M  V30 5338 H 504.998 3.81996 4.17248 0
M  V30 5339 H 503.555 4.67718 4.53964 0
M  V30 5340 N 506.988 0.0434614 1.5754 0
M  V30 5341 C 507.918 -0.931651 2.14109 0
M  V30 5342 C 508.899 -1.32971 1.06079 0
M  V30 5343 O 510.084 -1.40579 1.33982 0
M  V30 5344 C 507.214 -2.20914 2.67982 0
M  V30 5345 C 506.168 -1.95139 3.80926 0
M  V30 5346 C 505.494 -3.29276 4.21285 0
M  V30 5347 C 506.794 -1.27913 5.06395 0
M  V30 5348 H 508.488 -0.460497 2.95837 0
M  V30 5349 H 506.034 -0.220058 1.42309 0
M  V30 5350 H 507.987 -2.89522 3.06194 0
M  V30 5351 H 506.711 -2.70221 1.83434 0
M  V30 5352 H 505.37 -1.28945 3.43175 0
M  V30 5353 H 505.018 -3.76369 3.33699 0
M  V30 5354 H 504.718 -3.12831 4.97404 0
M  V30 5355 H 506.242 -3.99129 4.62091 0
M  V30 5356 H 507.656 -1.86544 5.42102 0
M  V30 5357 H 506.053 -1.2182 5.87605 0
M  V30 5358 H 507.123 -0.254066 4.84234 0
M  V30 5359 N 508.466 -1.55915 -0.229846 0
M  V30 5360 C 509.413 -1.91734 -1.28478 0
M  V30 5361 C 510.383 -0.773539 -1.46988 0
M  V30 5362 O 511.568 -1.02871 -1.60693 0
M  V30 5363 C 508.708 -2.23224 -2.63182 0
M  V30 5364 C 507.821 -3.50497 -2.52539 0
M  V30 5365 C 506.956 -3.71474 -3.79711 0
M  V30 5366 C 505.995 -4.92289 -3.63755 0
M  V30 5367 N 505.132 -5.09698 -4.82858 0
M  V30 5368 H 509.972 -2.81692 -0.972308 0
M  V30 5369 H 507.509 -1.39429 -0.468815 0
M  V30 5370 H 509.467 -2.3949 -3.41614 0
M  V30 5371 H 508.097 -1.36451 -2.92542 0
M  V30 5372 H 507.149 -3.4247 -1.65585 0
M  V30 5373 H 508.461 -4.39079 -2.36666 0
M  V30 5374 H 507.615 -3.87791 -4.66586 0
M  V30 5375 H 506.354 -2.81157 -3.985 0
M  V30 5376 H 505.359 -4.7593 -2.75264 0
M  V30 5377 H 506.584 -5.84083 -3.46445 0
M  V30 5378 H 504.53 -4.22322 -5.01976 0
M  V30 5379 H 504.447 -5.92399 -4.69681 0
M  V30 5380 H 505.715 -5.30443 -5.71183 0
M  V30 5381 N 509.944 0.496216 -1.49584 0
M  V30 5382 C 511.36 0.827814 -1.36453 0
M  V30 5383 C 511.56 1.97464 -0.401285 0
M  V30 5384 O 510.616 2.51958 0.165296 0
M  V30 5385 C 511.929 1.16352 -2.77277 0
M  V30 5386 C 513.477 1.27145 -2.86013 0
M  V30 5387 C 513.952 1.64042 -4.27615 0
M  V30 5388 N 515.443 1.71082 -4.30448 0
M  V30 5389 C 516.178 2.01085 -5.36984 0
M  V30 5390 N 515.674 2.2928 -6.5376 0
M  V30 5391 N 517.467 2.02376 -5.24405 0
M  V30 5392 H 509.618 -0.259947 -2.10803 0
M  V30 5393 H 511.881 -0.0537163 -0.946477 0
M  V30 5394 H 511.587 0.394153 -3.49484 0
M  V30 5395 H 511.461 2.10582 -3.12946 0
M  V30 5396 H 513.848 2.03152 -2.1404 0
M  V30 5397 H 513.929 0.309542 -2.5392 0
M  V30 5398 H 513.573 0.88583 -5.00115 0
M  V30 5399 H 513.503 2.6134 -4.57175 0
M  V30 5400 H 515.994 1.51434 -3.46232 0
M  V30 5401 H 516.307 2.51376 -7.30774 0
M  V30 5402 H 514.652 2.26726 -6.56978 0
M  V30 5403 H 517.843 1.79829 -4.32179 0
M  V30 5404 H 518.016 2.25425 -6.07526 0
M  V30 5405 N 511.423 1.38739 0.74761 0
M  V30 5406 C 512.373 1.32948 1.85226 0
M  V30 5407 C 513.357 0.212642 1.59489 0
M  V30 5408 O 514.549 0.449121 1.71207 0
M  V30 5409 C 511.678 1.16279 3.23008 0
M  V30 5410 C 510.764 2.32611 3.54617 0
M  V30 5411 N 511.155 3.58065 3.57244 0
M  V30 5412 C 509.453 2.25293 3.84914 0
M  V30 5413 C 510.154 4.34919 3.8629 0
M  V30 5414 N 509.13 3.64348 4.03425 0
M  V30 5415 H 512.932 2.27927 1.85544 0
M  V30 5416 H 510.446 1.32056 0.945253 0
M  V30 5417 H 512.443 1.10214 4.02068 0
M  V30 5418 H 511.103 0.222394 3.23937 0
M  V30 5419 H 512.114 3.91656 3.3886 0
M  V30 5420 H 508.791 1.39446 3.93524 0
M  V30 5421 H 510.181 5.43605 3.94896 0
M  V30 5422 N 512.901 -0.976442 1.23707 0
M  V30 5423 C 514.149 -1.71487 1.06942 0
M  V30 5424 C 514.47 -1.9098 -0.393897 0
M  V30 5425 O 513.74 -1.48128 -1.28198 0
M  V30 5426 H 512.32 -0.635425 0.392739 0
M  V30 5427 H 514.982 -1.17515 1.55487 0
M  V30 5428 H 514.078 -2.70286 1.56051 0
M  V30 5429 N 514.379 -1.04941 -1.1758 0
M  V30 5430 C 515.326 -0.648155 -2.21512 0
M  V30 5431 C 516.296 0.348431 -1.62404 0
M  V30 5432 O 517.481 0.240419 -1.89279 0
M  V30 5433 C 514.621 -0.0264291 -3.4509 0
M  V30 5434 C 513.734 -1.07154 -4.185 0
M  V30 5435 C 512.869 -0.417403 -5.29558 0
M  V30 5436 C 511.908 -1.447 -5.94751 0
M  V30 5437 N 511.045 -0.817203 -6.97328 0
M  V30 5438 H 515.885 -1.53891 -2.55189 0
M  V30 5439 H 513.422 -0.769699 -1.25356 0
M  V30 5440 H 515.38 0.351456 -4.15717 0
M  V30 5441 H 514.01 0.827802 -3.12005 0
M  V30 5442 H 513.062 -1.56728 -3.46613 0
M  V30 5443 H 514.374 -1.8532 -4.63096 0
M  V30 5444 H 513.528 0.0142061 -6.06698 0
M  V30 5445 H 512.267 0.396265 -4.86087 0
M  V30 5446 H 511.272 -1.88865 -5.16343 0
M  V30 5447 H 512.497 -2.26252 -6.40302 0
M  V30 5448 H 510.443 -0.0239995 -6.55996 0
M  V30 5449 H 510.36 -1.53644 -7.40223 0
M  V30 5450 H 511.628 -0.410283 -7.7842 0
M  V30 5451 N 515.857 1.33968 -0.830081 0
M  V30 5452 C 516.805 2.31301 -0.245435 0
M  V30 5453 C 517.799 1.57734 0.617762 0
M  V30 5454 O 519.005 1.72674 0.508303 0
M  V30 5455 H 515.38 0.749552 -0.0606316 0
M  V30 5456 H 517.351 2.78129 -1.08105 0
M  V30 5457 C 516.1 3.42961 0.572084 0
M  V30 5458 H 515.423 3.99714 -0.0828118 0
M  V30 5459 H 516.863 4.13286 0.94715 0
M  V30 5460 C 515.322 2.88043 1.74737 0
M  V30 5461 O 515.852 2.83508 2.8458 0
M  V30 5462 N 514.058 2.44768 1.56642 0
M  V30 5463 H 513.605 2.48656 0.672901 0
M  V30 5464 H 513.563 2.08375 2.3543 0
M  V30 5465 N 517.335 0.585699 1.46312 0
M  V30 5466 C 518.283 -0.158577 2.32059 0
M  V30 5467 C 519.277 -0.881427 1.44662 0
M  V30 5468 O 520.483 -0.799476 1.61271 0
M  V30 5469 H 516.858 -0.0700066 0.748734 0
M  V30 5470 H 518.829 0.583383 2.92642 0
M  V30 5471 C 517.578 -1.15701 3.27885 0
M  V30 5472 H 516.901 -0.610215 3.95116 0
M  V30 5473 H 518.341 -1.64812 3.90657 0
M  V30 5474 C 516.8 -2.21951 2.53455 0
M  V30 5475 O 517.33 -3.29352 2.29978 0
M  V30 5476 N 515.536 -1.9664 2.13965 0
M  V30 5477 H 515.083 -1.09309 2.33258 0
M  V30 5478 H 515.041 -2.6794 1.64485 0
M  V30 5479 N 518.813 -1.54241 0.323641 0
M  V30 5480 C 520.059 -2.01572 -0.272089 0
M  V30 5481 C 520.414 -1.20774 -1.49771 0
M  V30 5482 O 519.707 -0.281821 -1.89516 0
M  V30 5483 C 519.901 -3.5129 -0.658031 0
M  V30 5484 C 519.73 -4.46582 0.528645 0
M  V30 5485 C 518.5 -4.94737 1.02777 0
M  V30 5486 C 520.698 -4.95416 1.38086 0
M  V30 5487 N 518.68 -5.73933 2.17885 0
M  V30 5488 C 520.051 -5.72537 2.3791 0
M  V30 5489 C 522.106 -4.77559 1.40861 0
M  V30 5490 C 520.809 -6.33702 3.40314 0
M  V30 5491 C 522.835 -5.39559 2.42136 0
M  V30 5492 C 522.197 -6.16532 3.40688 0
M  V30 5493 H 518.296 -0.779425 -0.0634072 0
M  V30 5494 H 520.88 -1.8922 0.458697 0
M  V30 5495 H 519.051 -3.63888 -1.35795 0
M  V30 5496 H 520.783 -3.85388 -1.23524 0
M  V30 5497 H 517.538 -4.69796 0.599046 0
M  V30 5498 H 517.962 -6.18209 2.75947 0
M  V30 5499 H 522.604 -4.17611 0.660352 0
M  V30 5500 H 520.322 -6.9277 4.16047 0
M  V30 5501 H 523.908 -5.27659 2.45086 0
M  V30 5502 H 522.788 -6.63655 4.1777 0
M  V30 5503 N 520.291 -0.0518155 -1.57515 0
M  V30 5504 C 521.519 0.631395 -1.9703 0
M  V30 5505 C 521.934 1.64341 -0.92938 0
M  V30 5506 O 521.291 1.82296 0.0863266 0
M  V30 5507 C 521.342 1.31774 -3.36627 0
M  V30 5508 O 521.063 0.346247 -4.3673 0
M  V30 5509 C 522.564 2.09065 -3.90905 0
M  V30 5510 H 519.784 0.172576 -0.648428 0
M  V30 5511 H 522.328 -0.118306 -2.04158 0
M  V30 5512 H 520.483 2.01867 -3.30649 0
M  V30 5513 H 520.897 0.836226 -5.17791 0
M  V30 5514 H 522.371 2.52508 -4.9086 0
M  V30 5515 H 522.848 2.93908 -3.26366 0
M  V30 5516 H 523.454 1.43882 -4.00223 0
M  V30 5517 N 521.769 1.56035 0.221574 0
M  V30 5518 C 522.699 1.95434 1.2778 0
M  V30 5519 C 523.68 0.822564 1.48889 0
M  V30 5520 O 524.865 1.08486 1.61072 0
M  V30 5521 C 521.995 2.27102 2.62759 0
M  V30 5522 C 520.949 3.4277 2.56306 0
M  V30 5523 C 520.275 3.60043 3.95314 0
M  V30 5524 C 521.575 4.77742 2.11093 0
M  V30 5525 H 523.269 2.83912 0.950504 0
M  V30 5526 H 520.815 1.36596 0.455791 0
M  V30 5527 H 522.768 2.53256 3.36807 0
M  V30 5528 H 521.492 1.35478 2.97176 0
M  V30 5529 H 520.151 3.16664 1.84715 0
M  V30 5530 H 519.799 2.65794 4.27039 0
M  V30 5531 H 519.499 4.37841 3.91879 0
M  V30 5532 H 521.023 3.88545 4.71025 0
M  V30 5533 H 522.437 5.03102 2.74885 0
M  V30 5534 H 520.834 5.58823 2.18716 0
M  V30 5535 H 521.904 4.731 1.06321 0
M  V30 5536 N 523.247 -0.488276 1.49845 0
M  V30 5537 C 524.177 -1.59675 1.70371 0
M  V30 5538 C 525.158 -1.60878 0.552473 0
M  V30 5539 O 526.343 -1.77417 0.78973 0
M  V30 5540 C 523.473 -2.98098 1.782 0
M  V30 5541 C 522.427 -3.11761 2.93239 0
M  V30 5542 C 521.753 -4.51661 2.86193 0
M  V30 5543 C 523.053 -2.90589 4.33999 0
M  V30 5544 H 524.747 -1.42752 2.63177 0
M  V30 5545 H 522.293 -0.685317 1.26647 0
M  V30 5546 H 524.246 -3.75555 1.91144 0
M  V30 5547 H 522.97 -3.16138 0.820018 0
M  V30 5548 H 521.629 -2.36732 2.79917 0
M  V30 5549 H 521.277 -4.66595 1.87877 0
M  V30 5550 H 520.977 -4.61742 3.63412 0
M  V30 5551 H 522.501 -5.31162 3.01163 0
M  V30 5552 H 523.915 -3.57807 4.47936 0
M  V30 5553 H 522.312 -3.1213 5.12538 0
M  V30 5554 H 523.382 -1.86595 4.4756 0
M  V30 5555 N 524.725 -1.39134 -0.740242 0
M  V30 5556 C 525.95 -1.39518 -1.53459 0
M  V30 5557 C 526.375 0.00968883 -1.88098 0
M  V30 5558 O 525.733 0.995312 -1.51536 0
M  V30 5559 C 525.781 -2.26981 -2.802 0
M  V30 5560 O 524.885 -1.69609 -3.75908 0
M  V30 5561 H 524.226 -0.475328 -0.463637 0
M  V30 5562 H 526.756 -1.83064 -0.913717 0
M  V30 5563 H 526.766 -2.41309 -3.28989 0
M  V30 5564 H 525.441 -3.29081 -2.5432 0
M  V30 5565 H 524.018 -1.64495 -3.34658 0
M  V30 5566 N 526.204 0.969867 -1.24223 0
M  V30 5567 C 527.434 1.74502 -1.106 0
M  V30 5568 C 527.842 1.86038 0.344483 0
M  V30 5569 O 527.185 1.3465 1.24961 0
M  V30 5570 C 527.247 3.18391 -1.66935 0
M  V30 5571 C 526.911 3.30334 -3.15798 0
M  V30 5572 C 527.908 3.15832 -4.12973 0
M  V30 5573 C 525.593 3.54644 -3.55715 0
M  V30 5574 C 527.587 3.25461 -5.48045 0
M  V30 5575 C 525.274 3.63912 -4.90929 0
M  V30 5576 C 526.272 3.49332 -5.86904 0
M  V30 5577 O 525.96 3.58251 -7.1966 0
M  V30 5578 H 525.692 0.554119 -0.387206 0
M  V30 5579 H 528.246 1.22646 -1.64764 0
M  V30 5580 H 526.476 3.71543 -1.07203 0
M  V30 5581 H 528.165 3.77707 -1.48634 0
M  V30 5582 H 528.931 2.96937 -3.83476 0
M  V30 5583 H 524.81 3.65059 -2.81519 0
M  V30 5584 H 528.354 3.13998 -6.22937 0
M  V30 5585 H 524.251 3.82319 -5.20098 0
M  V30 5586 H 525.019 3.7498 -7.27552 0
M  V30 5587 N 527.682 1.05563 1.17022 0
M  V30 5588 C 529.093 0.793475 1.69 0
M  V30 5589 C 529.444 -0.683882 1.83895 0
M  V30 5590 O 528.569 -1.53116 1.5292 0
M  V30 5591 C 529.164 1.43376 3.06967 0
M  V30 5592 C 527.723 1.21956 3.56095 0
M  V30 5593 C 526.87 1.51494 2.3226 0
M  V30 5594 H 529.821 1.22008 1.01487 0
M  V30 5595 H 529.842 0.845068 3.70997 0
M  V30 5596 H 529.354 2.50899 2.96093 0
M  V30 5597 H 527.455 0.163749 3.7224 0
M  V30 5598 H 527.568 1.92713 4.38633 0
M  V30 5599 H 525.932 0.935175 2.3691 0
M  V30 5600 H 526.715 2.60159 2.23992 0
M  V30 5601 N 529.16 -1.33526 0.837174 0
M  V30 5602 C 530.408 -1.97446 0.431211 0
M  V30 5603 C 530.729 -1.6665 -1.01255 0
M  V30 5604 O 529.999 -0.964559 -1.70508 0
M  V30 5605 H 528.579 -0.73043 0.156463 0
M  V30 5606 H 531.241 -1.62918 1.06976 0
M  V30 5607 H 530.337 -3.07001 0.561877 0
M  V30 5608 N 530.638 -0.59345 -1.46 0
M  V30 5609 C 531.601 0.123538 -2.28867 0
M  V30 5610 C 532.601 0.808628 -1.38989 0
M  V30 5611 O 533.791 0.658945 -1.61256 0
M  V30 5612 C 530.923 1.1847 -3.19653 0
M  V30 5613 H 532.116 -0.604843 -2.93737 0
M  V30 5614 H 529.669 -0.351875 -1.52288 0
M  V30 5615 H 530.404 1.94431 -2.59552 0
M  V30 5616 H 530.189 0.69783 -3.8584 0
M  V30 5617 H 531.679 1.68726 -3.81997 0
M  V30 5618 N 532.116 1.54067 -0.331816 0
M  V30 5619 C 533.364 2.00319 0.267739 0
M  V30 5620 C 533.685 1.22148 1.52003 0
M  V30 5621 O 532.955 0.325494 1.93177 0
M  V30 5622 H 531.535 0.740014 0.101922 0
M  V30 5623 H 534.197 1.89628 -0.450267 0
M  V30 5624 H 533.293 3.07765 0.518385 0
M  V30 5625 N 533.594 0.0601682 1.57485 0
M  V30 5626 C 534.544 -0.920969 2.08572 0
M  V30 5627 C 535.528 -1.26617 0.992827 0
M  V30 5628 O 536.72 -1.24708 1.25606 0
M  V30 5629 C 533.849 -2.19267 2.64153 0
M  V30 5630 C 532.935 -1.87447 3.80427 0
M  V30 5631 N 533.326 -1.26025 4.89848 0
M  V30 5632 C 531.624 -2.17265 3.89502 0
M  V30 5633 C 532.325 -1.12036 5.70809 0
M  V30 5634 N 531.301 -1.62624 5.18705 0
M  V30 5635 H 535.103 -0.441561 2.90564 0
M  V30 5636 H 532.617 -0.144043 1.6176 0
M  V30 5637 H 534.614 -2.90462 2.99061 0
M  V30 5638 H 533.274 -2.67806 1.83603 0
M  V30 5639 H 534.285 -0.931336 5.09457 0
M  V30 5640 H 530.962 -2.68262 3.19909 0
M  V30 5641 H 532.352 -0.642783 6.68818 0
M  V30 5642 N 535.072 -1.5615 -0.213296 0
M  V30 5643 C 536.002 -1.96109 -1.26742 0
M  V30 5644 C 536.983 -0.830448 -1.48451 0
M  V30 5645 O 538.168 -1.09339 -1.60495 0
M  V30 5646 C 535.298 -2.28492 -2.61551 0
M  V30 5647 C 534.252 -3.44124 -2.54485 0
M  V30 5648 C 533.578 -3.62134 -3.93399 0
M  V30 5649 C 534.878 -4.78855 -2.08556 0
M  V30 5650 H 536.572 -2.84412 -0.935434 0
M  V30 5651 H 534.118 -1.36836 -0.44854 0
M  V30 5652 H 536.071 -2.55039 -3.3546 0
M  V30 5653 H 534.795 -1.37052 -2.96453 0
M  V30 5654 H 533.454 -3.17639 -1.83033 0
M  V30 5655 H 533.102 -2.68055 -4.25623 0
M  V30 5656 H 532.802 -4.39913 -3.89551 0
M  V30 5657 H 534.326 -3.91038 -4.68958 0
M  V30 5658 H 535.74 -5.04552 -2.72213 0
M  V30 5659 H 534.137 -5.59975 -2.1575 0
M  V30 5660 H 535.207 -4.73657 -1.03811 0
M  V30 5661 N 536.55 0.480323 -1.50102 0
M  V30 5662 C 537.799 1.22979 -1.59872 0
M  V30 5663 C 538.112 1.93282 -0.30022 0
M  V30 5664 O 539.318 2.70086 -0.276709 0
M  V30 5665 C 537.774 2.23408 -2.82164 0
M  V30 5666 C 537.382 1.5895 -4.18854 0
M  V30 5667 C 539.126 2.99055 -3.01275 0
M  V30 5668 C 537.033 2.57611 -5.32344 0
M  V30 5669 H 535.963 0.462707 -0.59533 0
M  V30 5670 H 538.614 0.501291 -1.7652 0
M  V30 5671 H 536.996 2.99511 -2.59055 0
M  V30 5672 H 538.17 0.887 -4.52182 0
M  V30 5673 H 536.485 0.956191 -4.05273 0
M  V30 5674 H 539.082 3.72876 -3.83233 0
M  V30 5675 H 539.425 3.57897 -2.12639 0
M  V30 5676 H 539.958 2.30066 -3.24522 0
M  V30 5677 H 536.697 2.03521 -6.23105 0
M  V30 5678 H 536.217 3.26041 -5.03445 0
M  V30 5679 H 537.896 3.19627 -5.62537 0
M  V30 5680 N 538.028 1.39524 0.732853 0
M  V30 5681 C 538.938 1.40695 1.87729 0
M  V30 5682 C 539.954 0.301496 1.71368 0
M  V30 5683 O 541.13 0.543313 1.93933 0
M  V30 5684 C 538.195 1.25098 3.23344 0
M  V30 5685 C 537.256 2.45634 3.52083 0
M  V30 5686 C 536.489 2.30772 4.81228 0
M  V30 5687 O 536.712 1.31233 5.55098 0
M  V30 5688 O 535.646 3.19799 5.09914 0
M  V30 5689 H 539.472 2.37168 1.89697 0
M  V30 5690 H 537.057 1.20663 0.880959 0
M  V30 5691 H 538.939 1.18541 4.04383 0
M  V30 5692 H 537.614 0.317209 3.22142 0
M  V30 5693 H 536.521 2.57767 2.71122 0
M  V30 5694 H 537.854 3.37712 3.58066 0
M  V30 5695 N 539.506 -0.963266 1.24736 0
M  V30 5696 C 540.917 -1.52145 1.08207 0
M  V30 5697 C 541.268 -1.93142 -0.345061 0
M  V30 5698 O 540.393 -1.77769 -1.23399 0
M  V30 5699 C 540.988 -2.76486 1.95808 0
M  V30 5700 C 539.547 -3.28646 1.8349 0
M  V30 5701 C 538.694 -2.01529 1.90476 0
M  V30 5702 H 541.645 -0.781083 1.38148 0
M  V30 5703 H 541.666 -3.49986 1.49297 0
M  V30 5704 H 541.178 -2.46617 2.99669 0
M  V30 5705 H 539.279 -3.63357 0.824787 0
M  V30 5706 H 539.392 -3.97246 2.67829 0
M  V30 5707 H 537.756 -2.16442 1.34258 0
M  V30 5708 H 538.539 -1.7402 2.95926 0
M  V30 5709 N 540.985 -1.06182 -1.16461 0
M  V30 5710 C 542.396 -0.802426 -1.68576 0
M  V30 5711 C 542.747 0.67412 -1.84255 0
M  V30 5712 O 541.872 1.52303 -1.5373 0
M  V30 5713 C 542.467 -1.45002 -3.06202 0
M  V30 5714 C 541.026 -1.23843 -3.55443 0
M  V30 5715 C 540.173 -1.52724 -2.31454 0
M  V30 5716 H 543.124 -1.22545 -1.00839 0
M  V30 5717 H 543.145 -0.864731 -3.70544 0
M  V30 5718 H 542.657 -2.52466 -2.94759 0
M  V30 5719 H 540.758 -0.183487 -3.72148 0
M  V30 5720 H 540.871 -1.95036 -4.37604 0
M  V30 5721 H 539.235 -0.947726 -2.36411 0
M  V30 5722 H 540.018 -2.61343 -2.22609 0
M  V30 5723 N 542.463 1.3308 -0.844243 0
M  V30 5724 C 543.693 2.01515 -0.455541 0
M  V30 5725 C 544.101 1.63655 0.949406 0
M  V30 5726 O 543.444 0.84848 1.62931 0
M  V30 5727 C 543.506 3.55967 -0.502801 0
M  V30 5728 C 543.17 4.17222 -1.86481 0
M  V30 5729 C 544.167 4.36205 -2.8288 0
M  V30 5730 C 541.852 4.53528 -2.15911 0
M  V30 5731 C 543.846 4.90649 -4.06869 0
M  V30 5732 C 541.533 5.07679 -3.40155 0
M  V30 5733 C 542.531 5.26186 -4.35451 0
M  V30 5734 O 542.219 5.79183 -5.57496 0
M  V30 5735 H 541.951 0.65199 -0.178565 0
M  V30 5736 H 544.505 1.70867 -1.1399 0
M  V30 5737 H 542.735 3.85965 0.23836 0
M  V30 5738 H 544.424 4.05688 -0.131169 0
M  V30 5739 H 545.19 4.085 -2.61444 0
M  V30 5740 H 541.069 4.38414 -1.42528 0
M  V30 5741 H 544.613 5.0501 -4.81259 0
M  V30 5742 H 540.51 5.34815 -3.61446 0
M  V30 5743 H 541.278 5.97591 -5.5931 0
M  V30 5744 N 543.941 0.601185 1.45683 0
M  V30 5745 C 545.166 0.0982245 2.07167 0
M  V30 5746 C 545.591 -1.20546 1.44396 0
M  V30 5747 O 544.949 -1.73247 0.534347 0
M  V30 5748 C 544.997 -0.0346976 3.60583 0
M  V30 5749 O 544.101 -1.08657 3.97828 0
M  V30 5750 H 543.442 0.0711618 0.660176 0
M  V30 5751 H 545.972 0.829376 1.87036 0
M  V30 5752 H 545.982 -0.234969 4.07323 0
M  V30 5753 H 544.657 0.917265 4.05659 0
M  V30 5754 H 543.234 -0.863275 3.6277 0
M  V30 5755 N 545.419 -1.53889 0.339982 0
M  V30 5756 C 546.83 -1.86139 -0.144671 0
M  V30 5757 C 547.181 -1.2613 -1.50285 0
M  V30 5758 O 546.306 -0.573515 -2.08662 0
M  V30 5759 C 546.901 -3.37728 -0.269285 0
M  V30 5760 C 545.46 -3.69868 -0.698168 0
M  V30 5761 C 544.607 -2.76777 0.170249 0
M  V30 5762 H 547.558 -1.48503 0.559704 0
M  V30 5763 H 547.579 -3.64331 -1.0974 0
M  V30 5764 H 547.091 -3.81375 0.719366 0
M  V30 5765 H 545.192 -3.31764 -1.69597 0
M  V30 5766 H 545.305 -4.76582 -0.490533 0
M  V30 5767 H 543.669 -2.52188 -0.356844 0
M  V30 5768 H 544.452 -3.23253 1.15597 0
M  V30 5769 N 546.897 -0.0685191 -1.57451 0
M  V30 5770 C 547.827 0.89747 -2.15564 0
M  V30 5771 C 548.808 1.31266 -1.08181 0
M  V30 5772 O 549.993 1.38429 -1.36202 0
M  V30 5773 C 547.123 2.16623 -2.71463 0
M  V30 5774 C 546.077 1.89054 -3.83982 0
M  V30 5775 C 545.403 3.22532 -4.26471 0
M  V30 5776 C 546.703 1.1984 -5.08366 0
M  V30 5777 H 548.397 0.413373 -2.96533 0
M  V30 5778 H 545.943 0.197391 -1.42641 0
M  V30 5779 H 547.896 2.84614 -3.10761 0
M  V30 5780 H 546.62 2.67269 -1.8771 0
M  V30 5781 H 545.279 1.23469 -3.45183 0
M  V30 5782 H 544.927 3.71013 -3.39644 0
M  V30 5783 H 544.627 3.04879 -5.02317 0
M  V30 5784 H 546.151 3.91727 -4.68383 0
M  V30 5785 H 547.565 1.77896 -5.45001 0
M  V30 5786 H 545.962 1.12456 -5.89469 0
M  V30 5787 H 547.032 0.176996 -4.84577 0
M  V30 5788 N 548.375 1.56261 0.205012 0
M  V30 5789 C 549.615 1.81823 0.933806 0
M  V30 5790 C 549.979 0.644534 1.80858 0
M  V30 5791 O 551.18 0.779819 2.5724 0
M  V30 5792 C 549.451 3.12362 1.7368 0
M  V30 5793 S 551.01 3.59296 2.51897 0
M  V30 5794 H 547.828 0.638209 0.313386 0
M  V30 5795 H 550.43 1.94495 0.198001 0
M  V30 5796 H 549.134 3.95809 1.08459 0
M  V30 5797 H 548.665 3.02542 2.5146 0
M  V30 5798 H 550.68 3.23945 3.75864 0
M  V30 5799 N 549.853 -0.472356 1.50355 0
M  V30 5800 C 551.093 -1.23439 1.62918 0
M  V30 5801 C 551.457 -1.89284 0.321801 0
M  V30 5802 O 552.658 -2.66854 0.322852 0
M  V30 5803 C 550.929 -2.25119 2.7759 0
M  V30 5804 S 552.488 -3.10278 3.10279 0
M  V30 5805 H 549.306 -0.41911 0.574341 0
M  V30 5806 H 551.908 -0.531621 1.88133 0
M  V30 5807 H 550.612 -1.75324 3.71066 0
M  V30 5808 H 550.143 -3.00026 2.54457 0
M  V30 5809 H 552.158 -4.26257 2.54007 0
M  V30 5810 N 551.331 -1.39911 -0.725443 0
M  V30 5811 C 552.294 -1.39156 -1.82121 0
M  V30 5812 C 553.294 -0.287018 -1.58218 0
M  V30 5813 O 554.484 -0.545421 -1.65441 0
M  V30 5814 C 551.616 -1.1736 -3.20062 0
M  V30 5815 H 552.809 -2.36672 -1.84191 0
M  V30 5816 H 550.362 -1.25615 -0.930079 0
M  V30 5817 H 551.097 -0.205648 -3.23647 0
M  V30 5818 H 550.882 -1.97358 -3.3881 0
M  V30 5819 H 552.372 -1.19596 -4.00108 0
M  V30 5820 N 552.809 0.956637 -1.25245 0
M  V30 5821 C 554.034 1.74104 -1.12706 0
M  V30 5822 C 554.459 1.85436 0.315429 0
M  V30 5823 O 553.817 1.33334 1.22848 0
M  V30 5824 C 553.865 3.1338 -1.78396 0
M  V30 5825 O 552.969 3.98485 -1.06224 0
M  V30 5826 H 552.31 0.53476 -0.393609 0
M  V30 5827 H 554.84 1.19924 -1.65769 0
M  V30 5828 H 554.85 3.6385 -1.846 0
M  V30 5829 H 553.525 3.04448 -2.83345 0
M  V30 5830 H 552.102 3.56952 -1.07886 0
M  V30 5831 N 554.287 1.06798 1.15896 0
M  V30 5832 C 555.515 0.808694 1.90441 0
M  V30 5833 C 555.93 -0.637506 1.77711 0
M  V30 5834 O 555.287 -1.43684 1.12522 0
M  V30 5835 C 555.338 1.20068 3.40978 0
M  V30 5836 O 555.059 2.59013 3.53333 0
M  V30 5837 C 556.56 0.96987 4.3256 0
M  V30 5838 H 553.78 0.292809 0.603742 0
M  V30 5839 H 556.324 1.42296 1.46874 0
M  V30 5840 H 554.479 0.630842 3.82229 0
M  V30 5841 H 554.893 2.7485 4.46719 0
M  V30 5842 H 556.367 1.29371 5.36626 0
M  V30 5843 H 556.844 -0.0941209 4.39099 0
M  V30 5844 H 557.45 1.52433 3.97044 0
M  V30 5845 N 555.766 -1.3263 0.851289 0
M  V30 5846 C 556.994 -2.01563 0.466899 0
M  V30 5847 C 557.409 -1.63996 -0.935447 0
M  V30 5848 O 556.766 -0.85957 -1.6099 0
M  V30 5849 C 556.817 -3.56613 0.592433 0
M  V30 5850 O 556.538 -3.92828 1.93954 0
M  V30 5851 C 558.039 -4.42818 0.206612 0
M  V30 5852 H 555.259 -0.645307 0.183902 0
M  V30 5853 H 557.803 -1.69285 1.1473 0
M  V30 5854 H 555.958 -3.87379 -0.0401936 0
M  V30 5855 H 556.372 -4.87545 1.9339 0
M  V30 5856 H 557.846 -5.50918 0.345462 0
M  V30 5857 H 558.323 -4.30844 -0.85264 0
M  V30 5858 H 558.929 -4.17434 0.814176 0
M  V30 5859 N 557.244 -0.608902 -1.45362 0
M  V30 5860 C 558.194 0.130616 -2.27626 0
M  V30 5861 C 559.178 0.837323 -1.37396 0
M  V30 5862 O 560.37 0.727096 -1.61376 0
M  V30 5863 C 557.499 1.12646 -3.24293 0
M  V30 5864 C 556.585 0.42052 -4.2201 0
M  V30 5865 N 556.976 -0.538569 -5.02925 0
M  V30 5866 C 555.274 0.667901 -4.40971 0
M  V30 5867 C 555.975 -0.953625 -5.7383 0
M  V30 5868 N 554.951 -0.297097 -5.42788 0
M  V30 5869 H 558.753 -0.605996 -2.87585 0
M  V30 5870 H 556.267 -0.432672 -1.5653 0
M  V30 5871 H 558.264 1.67066 -3.81961 0
M  V30 5872 H 556.924 1.86361 -2.65894 0
M  V30 5873 H 557.935 -0.915375 -5.09746 0
M  V30 5874 H 554.612 1.38963 -3.93695 0
M  V30 5875 H 556.002 -1.74473 -6.48852 0
M  V30 5876 N 558.722 1.53707 -0.348139 0
M  V30 5877 C 559.999 1.93247 0.302475 0
M  V30 5878 C 560.379 1.28012 1.67857 0
M  V30 5879 O 559.727 0.43274 2.24365 0
M  V30 5880 C 559.937 3.47031 0.370159 0
M  V30 5881 C 561.285 4.20066 0.61882 0
M  V30 5882 O 562.309 3.53319 0.452087 0
M  V30 5883 O 561.168 5.38318 0.94215 0
M  V30 5884 H 558.262 0.807736 0.177458 0
M  V30 5885 H 560.808 1.64927 -0.399651 0
M  V30 5886 H 559.58 3.86745 -0.59534 0
M  V30 5887 H 559.203 3.81532 1.11888 0
M  V30 5888 N 560.2 0.0768682 1.57412 0
M  V30 5889 C 561.13 -0.886026 2.16037 0
M  V30 5890 C 562.111 -1.30691 1.08876 0
M  V30 5891 O 563.296 -1.37705 1.36934 0
M  V30 5892 C 560.426 -2.1518 2.72608 0
M  V30 5893 C 559.38 -1.87015 3.8498 0
M  V30 5894 C 558.706 -3.20266 4.28175 0
M  V30 5895 C 560.006 -1.17143 5.08994 0
M  V30 5896 H 561.7 -0.397642 2.96748 0
M  V30 5897 H 559.246 -0.189823 1.42743 0
M  V30 5898 H 561.199 -2.82962 3.12266 0
M  V30 5899 H 559.923 -2.66269 1.89125 0
M  V30 5900 H 558.582 -1.21636 3.45833 0
M  V30 5901 H 558.23 -3.69207 3.41607 0
M  V30 5902 H 557.93 -3.0221 5.03927 0
M  V30 5903 H 559.454 -3.89237 4.70454 0
M  V30 5904 H 560.868 -1.75003 5.45937 0
M  V30 5905 H 559.265 -1.09328 5.90057 0
M  V30 5906 H 560.335 -0.151295 4.84664 0
M  V30 5907 N 561.678 -1.56367 -0.196722 0
M  V30 5908 C 563.094 -1.49916 -0.54749 0
M  V30 5909 C 563.294 -0.77659 -1.85934 0
M  V30 5910 O 562.35 -0.32644 -2.50381 0
M  V30 5911 C 563.663 -2.94577 -0.603734 0
M  V30 5912 C 565.211 -3.05239 -0.692677 0
M  V30 5913 C 565.686 -4.51308 -0.780046 0
M  V30 5914 N 567.177 -4.55453 -0.843616 0
M  V30 5915 C 567.912 -5.65786 -0.931358 0
M  V30 5916 N 567.408 -6.85812 -0.981503 0
M  V30 5917 N 569.201 -5.53695 -0.968421 0
M  V30 5918 H 561.352 -2.01761 0.663803 0
M  V30 5919 H 563.615 -0.918094 0.236238 0
M  V30 5920 H 563.321 -3.50494 0.29105 0
M  V30 5921 H 563.195 -3.47841 -1.45898 0
M  V30 5922 H 565.582 -2.49372 -1.57789 0
M  V30 5923 H 565.663 -2.55103 0.188736 0
M  V30 5924 H 565.307 -5.078 0.100811 0
M  V30 5925 H 565.237 -4.99176 -1.67724 0
M  V30 5926 H 567.728 -3.69025 -0.814176 0
M  V30 5927 H 568.041 -7.65648 -1.04892 0
M  V30 5928 H 566.386 -6.88474 -0.950208 0
M  V30 5929 H 569.577 -4.58848 -0.926072 0
M  V30 5930 H 569.75 -6.39708 -1.03334 0
M  V30 5931 N 563.156 0.464375 -1.50603 0
M  V30 5932 C 564.086 1.56944 -1.72889 0
M  V30 5933 C 565.067 1.59979 -0.577997 0
M  V30 5934 O 566.252 1.76138 -0.817855 0
M  V30 5935 C 563.382 2.95225 -1.8292 0
M  V30 5936 C 562.336 3.07056 -2.98162 0
M  V30 5937 C 561.662 4.47051 -2.93343 0
M  V30 5938 C 562.962 2.83648 -4.38567 0
M  V30 5939 H 564.656 1.38547 -2.65415 0
M  V30 5940 H 562.202 0.665082 -1.27721 0
M  V30 5941 H 564.155 3.72467 -1.97095 0
M  V30 5942 H 562.879 3.14793 -0.870209 0
M  V30 5943 H 561.538 2.32248 -2.83648 0
M  V30 5944 H 561.186 4.63547 -1.95276 0
M  V30 5945 H 560.886 4.55902 -3.70712 0
M  V30 5946 H 562.41 5.26304 -3.09575 0
M  V30 5947 H 563.824 3.50636 -4.53572 0
M  V30 5948 H 562.221 3.03937 -5.17438 0
M  V30 5949 H 563.291 1.79451 -4.50472 0
M  V30 5950 N 564.634 1.40294 0.718013 0
M  V30 5951 C 565.584 1.36847 1.82365 0
M  V30 5952 C 566.568 0.246424 1.59002 0
M  V30 5953 O 567.76 0.485336 1.70216 0
M  V30 5954 C 564.889 1.23105 3.20469 0
M  V30 5955 C 563.975 2.4008 3.49603 0
M  V30 5956 N 564.366 3.65562 3.49568 0
M  V30 5957 C 562.664 2.33407 3.80049 0
M  V30 5958 C 563.365 4.43015 3.76978 0
M  V30 5959 N 562.341 3.72823 3.95606 0
M  V30 5960 H 566.143 2.31811 1.80668 0
M  V30 5961 H 563.657 1.34031 0.91703 0
M  V30 5962 H 565.654 1.18718 3.9964 0
M  V30 5963 H 564.314 0.291056 3.23393 0
M  V30 5964 H 565.325 3.98756 3.30476 0
M  V30 5965 H 562.002 1.47762 3.90478 0
M  V30 5966 H 563.392 5.51859 3.83276 0
M  V30 5967 N 566.112 -0.949982 1.2575 0
M  V30 5968 C 567.358 -1.69822 1.11947 0
M  V30 5969 C 567.713 -1.89455 -0.335334 0
M  V30 5970 O 567.006 -1.45778 -1.24336 0
M  V30 5971 C 567.2 -3.08039 1.81237 0
M  V30 5972 C 567.029 -3.0189 3.33305 0
M  V30 5973 C 565.799 -3.05391 4.02573 0
M  V30 5974 C 567.997 -2.827 4.29634 0
M  V30 5975 N 565.979 -2.89449 5.4138 0
M  V30 5976 C 567.35 -2.75237 5.55558 0
M  V30 5977 C 569.405 -2.67416 4.19992 0
M  V30 5978 C 568.108 -2.54051 6.72942 0
M  V30 5979 C 570.134 -2.47602 5.37073 0
M  V30 5980 C 569.496 -2.40863 6.6194 0
M  V30 5981 H 565.595 -0.629188 0.464378 0
M  V30 5982 H 568.179 -1.1249 1.58916 0
M  V30 5983 H 566.35 -3.63528 1.36756 0
M  V30 5984 H 568.082 -3.71671 1.60134 0
M  V30 5985 H 564.837 -3.14763 3.53866 0
M  V30 5986 H 565.261 -2.84669 6.14241 0
M  V30 5987 H 569.903 -2.71398 3.24196 0
M  V30 5988 H 567.621 -2.48811 7.68842 0
M  V30 5989 H 571.207 -2.36694 5.31477 0
M  V30 5990 H 570.087 -2.25732 7.51009 0
M  V30 5991 N 567.59 -1.07411 -1.15328 0
M  V30 5992 C 568.838 -0.796073 -1.85761 0
M  V30 5993 C 569.159 0.679864 -1.82764 0
M  V30 5994 O 568.429 1.49242 -1.269 0
M  V30 5995 H 567.009 -0.291495 -0.687779 0
M  V30 5996 H 569.671 -1.35799 -1.39802 0
M  V30 5997 H 568.767 -1.13114 -2.90881 0
M  V30 5998 N 569.068 1.32177 -0.85831 0
M  V30 5999 C 570.316 1.96735 -0.462568 0
M  V30 6000 C 570.637 1.6824 0.985911 0
M  V30 6001 O 569.907 0.991564 1.68952 0
M  V30 6002 H 568.487 0.727849 -0.168064 0
M  V30 6003 H 571.149 1.61195 -1.09554 0
M  V30 6004 H 570.245 3.06068 -0.610647 0
M  V30 6005 N 570.547 0.616602 1.45037 0
M  V30 6006 C 571.457 -0.0985401 2.34393 0
M  V30 6007 C 572.473 -0.850971 1.51771 0
M  V30 6008 O 573.649 -0.806521 1.84546 0
M  V30 6009 C 570.714 -1.07748 3.29532 0
M  V30 6010 C 569.775 -0.326022 4.2806 0
M  V30 6011 C 569.008 -1.25833 5.18654 0
M  V30 6012 O 569.231 -2.49652 5.12864 0
M  V30 6013 O 568.165 -0.750512 5.97203 0
M  V30 6014 H 571.991 0.636016 2.96966 0
M  V30 6015 H 569.576 0.376832 1.44569 0
M  V30 6016 H 571.458 -1.64107 3.88133 0
M  V30 6017 H 570.133 -1.79291 2.69512 0
M  V30 6018 H 569.04 0.280253 3.73049 0
M  V30 6019 H 570.373 0.349091 4.9096 0
M  V30 6020 N 572.025 -1.5352 0.356285 0
M  V30 6021 C 573.271 -2.01414 -0.236653 0
M  V30 6022 C 573.604 -1.24339 -1.49176 0
M  V30 6023 O 572.879 -0.334496 -1.91602 0
M  V30 6024 C 573.162 -3.56059 -0.537982 0
M  V30 6025 C 573.015 -4.43835 0.730112 0
M  V30 6026 C 574.334 -4.19127 -1.34239 0
M  V30 6027 H 571.453 -0.732135 -0.0845386 0
M  V30 6028 H 574.095 -1.83854 0.479341 0
M  V30 6029 H 572.245 -3.71153 -1.14795 0
M  V30 6030 H 573.917 -4.40555 1.36782 0
M  V30 6031 H 572.16 -4.1218 1.3524 0
M  V30 6032 H 572.831 -5.49958 0.474358 0
M  V30 6033 H 575.307 -4.07809 -0.826498 0
M  V30 6034 H 574.183 -5.27378 -1.52198 0
M  V30 6035 H 574.444 -3.74581 -2.34822 0
M  V30 6036 N 573.503 -0.0852151 -1.57369 0
M  V30 6037 C 574.752 0.580443 -1.93168 0
M  V30 6038 C 575.065 1.6995 -0.968319 0
M  V30 6039 O 576.271 2.42564 -1.21963 0
M  V30 6040 C 574.727 1.08386 -3.43192 0
M  V30 6041 C 574.335 -0.00491388 -4.48 0
M  V30 6042 C 576.079 1.72281 -3.87968 0
M  V30 6043 C 573.986 0.513299 -5.89168 0
M  V30 6044 H 572.916 0.22059 -0.72101 0
M  V30 6045 H 575.567 -0.159621 -1.82804 0
M  V30 6046 H 573.949 1.8773 -3.48674 0
M  V30 6047 H 575.123 -0.780032 -4.5415 0
M  V30 6048 H 573.438 -0.548453 -4.12772 0
M  V30 6049 H 576.035 2.12108 -4.9083 0
M  V30 6050 H 576.378 2.58811 -3.26071 0
M  V30 6051 H 576.911 0.995359 -3.85146 0
M  V30 6052 H 573.65 -0.315153 -6.54742 0
M  V30 6053 H 573.17 1.25564 -5.8651 0
M  V30 6054 H 574.849 0.985433 -6.39451 0
M  V30 6055 N 574.981 1.5647 0.188427 0
M  V30 6056 C 576.392 1.70864 0.752494 0
M  V30 6057 C 576.743 0.692905 1.83557 0
M  V30 6058 O 575.868 -0.149307 2.15884 0
M  V30 6059 C 576.463 3.09789 1.37173 0
M  V30 6060 C 575.022 3.25925 1.88281 0
M  V30 6061 C 574.169 2.66817 0.755259 0
M  V30 6062 H 577.12 1.58657 -0.0367408 0
M  V30 6063 H 577.141 3.07489 2.24122 0
M  V30 6064 H 576.653 3.83693 0.583219 0
M  V30 6065 H 574.754 2.56948 2.6983 0
M  V30 6066 H 574.867 4.33498 2.04001 0
M  V30 6067 H 573.231 2.2617 1.17128 0
M  V30 6068 H 574.014 3.43294 -0.0211237 0
M  V30 6069 N 576.459 -0.456382 1.50847 0
M  V30 6070 C 577.409 -1.55045 1.67168 0
M  V30 6071 C 578.393 -1.52061 0.525958 0
M  V30 6072 O 579.585 -1.58836 0.781036 0
M  V30 6073 C 576.714 -2.93386 1.78268 0
M  V30 6074 C 575.8 -3.01198 2.98564 0
M  V30 6075 N 576.191 -2.78792 4.22029 0
M  V30 6076 C 574.489 -3.32346 2.97426 0
M  V30 6077 C 575.19 -2.91953 5.03128 0
M  V30 6078 N 574.166 -3.22797 4.37382 0
M  V30 6079 H 577.968 -1.36444 2.60308 0
M  V30 6080 H 575.482 -0.663375 1.48233 0
M  V30 6081 H 577.479 -3.72071 1.88067 0
M  V30 6082 H 576.139 -3.13022 0.862965 0
M  V30 6083 H 577.15 -2.54087 4.51287 0
M  V30 6084 H 573.827 -3.57877 2.15012 0
M  V30 6085 H 575.217 -2.78745 6.11351 0
M  V30 6086 N 577.937 -1.40673 -0.710563 0
M  V30 6087 C 578.9 -1.4108 -1.80635 0
M  V30 6088 C 579.9 -0.303783 -1.57904 0
M  V30 6089 O 581.09 -0.562937 -1.64853 0
M  V30 6090 C 578.222 -1.20748 -3.18799 0
M  V30 6091 H 579.415 -2.38612 -1.81671 0
M  V30 6092 H 576.968 -1.26595 -0.916704 0
M  V30 6093 H 577.703 -0.239964 -3.23411 0
M  V30 6094 H 577.488 -2.00941 -3.36698 0
M  V30 6095 H 578.978 -1.23833 -3.98817 0
M  V30 6096 N 579.415 0.9433 -1.26252 0
M  V30 6097 C 580.378 2.02326 -1.07689 0
M  V30 6098 C 581.378 1.60779 -0.0259174 0
M  V30 6099 O 582.568 1.72108 -0.269134 0
M  V30 6100 C 579.7 3.34886 -0.63752 0
M  V30 6101 H 580.893 2.20225 -2.0357 0
M  V30 6102 H 578.446 1.12197 -1.08819 0
M  V30 6103 H 579.181 3.22684 0.323377 0
M  V30 6104 H 578.966 3.66393 -1.39637 0
M  V30 6105 H 580.456 4.14231 -0.529418 0
M  V30 6106 N 580.893 1.08022 1.14757 0
M  V30 6107 C 581.856 0.71048 2.1791 0
M  V30 6108 C 582.856 -0.252731 1.58801 0
M  V30 6109 O 584.046 -0.0327915 1.74169 0
M  V30 6110 C 581.178 0.0483203 3.40866 0
M  V30 6111 H 582.371 1.62384 2.52134 0
M  V30 6112 H 579.924 0.877595 1.29337 0
M  V30 6113 H 580.659 -0.876959 3.12218 0
M  V30 6114 H 580.444 0.741189 3.85031 0
M  V30 6115 H 581.934 -0.195471 4.17142 0
M  V30 6116 N 582.371 -1.3172 0.865308 0
M  V30 6117 C 583.303 -2.27545 0.274906 0
M  V30 6118 C 584.316 -1.52887 -0.559413 0
M  V30 6119 O 585.505 -1.74361 -0.382166 0
M  V30 6120 C 582.605 -3.33006 -0.629286 0
M  V30 6121 C 581.778 -4.37063 0.171553 0
M  V30 6122 C 580.837 -5.22044 -0.660052 0
M  V30 6123 O 579.863 -5.69129 -0.0897527 0
M  V30 6124 N 581.065 -5.45946 -1.97289 0
M  V30 6125 H 583.83 -2.78848 1.09836 0
M  V30 6126 H 581.391 -1.44693 0.726331 0
M  V30 6127 H 583.383 -3.86772 -1.19121 0
M  V30 6128 H 581.953 -2.81782 -1.35342 0
M  V30 6129 H 581.173 -3.83436 0.914919 0
M  V30 6130 H 582.461 -5.03662 0.721235 0
M  V30 6131 H 581.859 -5.0944 -2.45942 0
M  V30 6132 H 580.416 -6.02665 -2.4827 0
M  V30 6133 N 583.85 -0.624285 -1.44708 0
M  V30 6134 C 584.76 0.0861083 -2.34442 0
M  V30 6135 C 585.776 0.84291 -1.5222 0
M  V30 6136 O 586.952 0.796723 -1.84971 0
M  V30 6137 C 584.017 1.05999 -3.30099 0
M  V30 6138 C 583.077 0.303316 -4.28227 0
M  V30 6139 C 582.311 1.23081 -5.19314 0
M  V30 6140 O 582.534 2.46929 -5.14181 0
M  V30 6141 O 581.468 0.71883 -5.97592 0
M  V30 6142 H 585.293 -0.651756 -2.96624 0
M  V30 6143 H 582.879 -0.384493 -1.44368 0
M  V30 6144 H 584.76 1.62046 -3.88997 0
M  V30 6145 H 583.436 1.77859 -2.70459 0
M  V30 6146 H 582.343 -0.300033 -3.72895 0
M  V30 6147 H 583.676 -0.375123 -4.90768 0
M  V30 6148 N 585.328 1.53329 -0.364422 0
M  V30 6149 C 586.278 2.22472 0.499024 0
M  V30 6150 C 587.262 1.21952 1.0496 0
M  V30 6151 O 588.454 1.47405 0.979836 0
M  V30 6152 C 585.583 3.01659 1.6388 0
M  V30 6153 C 584.669 4.09555 1.10116 0
M  V30 6154 N 585.06 5.04988 0.286414 0
M  V30 6155 C 583.358 4.2424 1.37608 0
M  V30 6156 C 584.059 5.81699 -0.00781682 0
M  V30 6157 N 583.035 5.40394 0.589494 0
M  V30 6158 H 586.837 2.93611 -0.130284 0
M  V30 6159 H 584.351 1.61483 -0.172377 0
M  V30 6160 H 586.348 3.4971 2.26954 0
M  V30 6161 H 585.008 2.32051 2.27118 0
M  V30 6162 H 586.019 5.17847 -0.0742839 0
M  V30 6163 H 582.696 3.65858 2.01133 0
M  V30 6164 H 584.086 6.68587 -0.666394 0
M  V30 6165 N 586.806 0.0935595 1.57322 0
M  V30 6166 C 587.769 -0.851426 2.12799 0
M  V30 6167 C 588.769 -1.21187 1.0569 0
M  V30 6168 O 589.959 -1.14156 1.31583 0
M  V30 6169 C 587.091 -2.14779 2.64731 0
M  V30 6170 H 588.284 -0.369733 2.97612 0
M  V30 6171 H 585.837 -0.155417 1.55525 0
M  V30 6172 H 586.572 -2.67437 1.83434 0
M  V30 6173 H 586.357 -1.89907 3.43042 0
M  V30 6174 H 587.847 -2.82383 3.07651 0
M  V30 6175 N 588.284 -1.56567 -0.180126 0
M  V30 6176 C 589.53 -1.82658 -0.894859 0
M  V30 6177 C 589.885 -0.672826 -1.80252 0
M  V30 6178 O 589.178 0.331227 -1.88715 0
M  V30 6179 C 589.372 -3.1252 -1.73395 0
M  V30 6180 C 589.201 -4.40417 -0.909028 0
M  V30 6181 C 587.971 -5.01872 -0.587562 0
M  V30 6182 C 590.169 -5.13669 -0.254698 0
M  V30 6183 N 588.151 -6.13373 0.254428 0
M  V30 6184 C 589.522 -6.18373 0.448837 0
M  V30 6185 C 591.577 -4.97603 -0.171958 0
M  V30 6186 C 590.28 -7.08753 1.22725 0
M  V30 6187 C 592.306 -5.88418 0.593101 0
M  V30 6188 C 591.668 -6.92579 1.28503 0
M  V30 6189 H 587.767 -0.719493 -0.306356 0
M  V30 6190 H 590.351 -1.94021 -0.16247 0
M  V30 6191 H 588.522 -3.02365 -2.43783 0
M  V30 6192 H 590.254 -3.2664 -2.38931 0
M  V30 6193 H 587.009 -4.64666 -0.915557 0
M  V30 6194 H 587.433 -6.73721 0.665474 0
M  V30 6195 H 592.075 -4.17089 -0.692555 0
M  V30 6196 H 589.793 -7.88718 1.75923 0
M  V30 6197 H 593.379 -5.78059 0.658674 0
M  V30 6198 H 592.259 -7.61638 1.86754 0
M  V30 6199 N 589.762 0.448376 -1.51087 0
M  V30 6200 C 590.709 1.54341 -1.71603 0
M  V30 6201 C 591.679 1.56463 -0.557536 0
M  V30 6202 O 592.864 1.73644 -0.79072 0
M  V30 6203 C 590.004 2.92148 -1.83695 0
M  V30 6204 C 589.117 2.99639 -3.11192 0
M  V30 6205 C 588.252 4.285 -3.13944 0
M  V30 6206 C 587.291 4.29819 -4.35801 0
M  V30 6207 N 586.428 5.50186 -4.36164 0
M  V30 6208 H 591.268 1.36151 -2.65079 0
M  V30 6209 H 588.805 0.661585 -1.31383 0
M  V30 6210 H 590.763 3.72093 -1.88687 0
M  V30 6211 H 589.393 3.0892 -0.936374 0
M  V30 6212 H 588.445 2.12425 -3.15562 0
M  V30 6213 H 589.757 2.96474 -4.01129 0
M  V30 6214 H 588.911 5.16811 -3.17791 0
M  V30 6215 H 587.65 4.34307 -2.21876 0
M  V30 6216 H 586.655 3.39902 -4.32142 0
M  V30 6217 H 587.88 4.25685 -5.29121 0
M  V30 6218 H 585.826 5.56735 -3.46961 0
M  V30 6219 H 585.743 5.48856 -5.19897 0
M  V30 6220 H 587.011 6.40559 -4.44189 0
M  V30 6221 N 591.24 1.41047 0.703093 0
M  V30 6222 C 592.15 1.44645 1.84703 0
M  V30 6223 C 593.166 0.337778 1.7069 0
M  V30 6224 O 594.342 0.584327 1.92737 0
M  V30 6225 C 591.407 1.31928 3.20618 0
M  V30 6226 C 590.468 2.53047 3.46794 0
M  V30 6227 C 589.701 2.40927 4.76224 0
M  V30 6228 O 589.924 1.42978 5.5219 0
M  V30 6229 O 588.858 3.30543 5.03016 0
M  V30 6230 H 592.684 2.41139 1.84624 0
M  V30 6231 H 590.269 1.22504 0.855167 0
M  V30 6232 H 592.151 1.27092 4.01778 0
M  V30 6233 H 590.826 0.385469 3.21397 0
M  V30 6234 H 589.733 2.6346 2.65593 0
M  V30 6235 H 591.066 3.45231 3.50822 0
M  V30 6236 N 592.718 -0.936591 1.26751 0
M  V30 6237 C 593.967 -1.67778 1.11953 0
M  V30 6238 C 594.28 -1.92694 -0.33589 0
M  V30 6239 O 595.486 -2.64682 -0.604618 0
M  V30 6240 C 593.942 -3.02138 1.95551 0
M  V30 6241 C 593.55 -2.84953 3.45696 0
M  V30 6242 C 595.294 -3.79917 1.89377 0
M  V30 6243 C 593.201 -4.14814 4.21525 0
M  V30 6244 H 592.131 -0.629275 0.415366 0
M  V30 6245 H 594.782 -1.04122 1.51099 0
M  V30 6246 H 593.164 -3.668 1.49243 0
M  V30 6247 H 594.338 -2.29112 3.99805 0
M  V30 6248 H 592.653 -2.20612 3.53156 0
M  V30 6249 H 595.25 -4.76134 2.43312 0
M  V30 6250 H 595.593 -4.07204 0.865464 0
M  V30 6251 H 596.126 -3.22037 2.33532 0
M  V30 6252 H 592.865 -3.92709 5.24843 0
M  V30 6253 H 592.385 -4.70352 3.72195 0
M  V30 6254 H 594.064 -4.83239 4.3022 0
M  V30 6255 N 594.196 -1.08629 -1.14182 0
M  V30 6256 C 595.128 -0.676189 -2.18998 0
M  V30 6257 C 596.141 0.277871 -1.60411 0
M  V30 6258 O 597.33 0.0651771 -1.78381 0
M  V30 6259 C 594.43 0.0254916 -3.3889 0
M  V30 6260 C 593.603 -0.948039 -4.27002 0
M  V30 6261 C 592.662 -0.281268 -5.25448 0
M  V30 6262 O 591.688 -0.926378 -5.61611 0
M  V30 6263 N 592.89 0.967923 -5.72374 0
M  V30 6264 H 595.655 -1.57792 -2.54798 0
M  V30 6265 H 593.216 -0.972665 -1.29425 0
M  V30 6266 H 595.208 0.482554 -4.01813 0
M  V30 6267 H 593.778 0.829348 -3.01398 0
M  V30 6268 H 592.998 -1.58388 -3.6098 0
M  V30 6269 H 594.286 -1.60765 -4.82734 0
M  V30 6270 H 593.684 1.51175 -5.45126 0
M  V30 6271 H 592.241 1.36844 -6.37273 0
M  V30 6272 N 595.674 1.31259 -0.872281 0
M  V30 6273 C 597.09 1.49283 -0.564521 0
M  V30 6274 C 597.29 1.80243 0.900807 0
M  V30 6275 O 596.346 1.88246 1.68284 0
M  V30 6276 C 597.659 2.62503 -1.46673 0
M  V30 6277 C 599.207 2.76386 -1.46901 0
M  V30 6278 C 599.682 3.92705 -2.35684 0
M  V30 6279 N 601.173 3.99995 -2.33577 0
M  V30 6280 C 601.908 4.89276 -2.98992 0
M  V30 6281 N 601.404 5.83443 -3.73585 0
M  V30 6282 N 603.197 4.82541 -2.88289 0
M  V30 6283 H 595.348 1.09432 -1.82039 0
M  V30 6284 H 597.611 0.540949 -0.77851 0
M  V30 6285 H 597.317 2.46407 -2.50951 0
M  V30 6286 H 597.191 3.58695 -1.16696 0
M  V30 6287 H 599.578 2.91894 -0.433796 0
M  V30 6288 H 599.659 1.80853 -1.80903 0
M  V30 6289 H 599.303 3.77954 -3.39283 0
M  V30 6290 H 599.233 4.87549 -1.99006 0
M  V30 6291 H 601.724 3.32624 -1.7936 0
M  V30 6292 H 602.037 6.48303 -4.20622 0
M  V30 6293 H 600.382 5.83415 -3.77694 0
M  V30 6294 H 603.573 4.07951 -2.2955 0
M  V30 6295 H 603.746 5.51916 -3.39549 0
M  V30 6296 N 597.152 0.631951 1.44375 0
M  V30 6297 C 598.399 0.136767 2.02038 0
M  V30 6298 C 598.727 -1.24168 1.49709 0
M  V30 6299 O 597.982 -1.83809 0.671763 0
M  V30 6300 C 598.281 0.0735861 3.57324 0
M  V30 6301 C 597.947 1.39092 4.28911 0
M  V30 6302 C 596.609 1.75171 4.48184 0
M  V30 6303 C 598.961 2.26042 4.69632 0
M  V30 6304 C 596.289 2.97907 5.05439 0
M  V30 6305 C 598.641 3.4805 5.28246 0
M  V30 6306 C 597.305 3.84351 5.45738 0
M  V30 6307 H 596.575 0.0500466 0.739308 0
M  V30 6308 H 599.222 0.818429 1.7313 0
M  V30 6309 H 597.527 -0.691449 3.8565 0
M  V30 6310 H 599.224 -0.326091 3.99672 0
M  V30 6311 H 595.814 1.10015 4.1424 0
M  V30 6312 H 599.998 1.99463 4.54454 0
M  V30 6313 H 595.254 3.26108 5.17169 0
M  V30 6314 H 599.428 4.15658 5.5875 0
M  V30 6315 H 597.055 4.79538 5.8987 0
M  V30 6316 N 598.631 -1.53133 0.372548 0
M  V30 6317 C 599.561 -2.28876 -0.462412 0
M  V30 6318 C 600.542 -1.31583 -1.07796 0
M  V30 6319 O 601.727 -1.60461 -1.09389 0
M  V30 6320 C 598.857 -3.08317 -1.59868 0
M  V30 6321 C 597.811 -4.13355 -1.11003 0
M  V30 6322 C 597.137 -4.8092 -2.33708 0
M  V30 6323 C 598.437 -5.21955 -0.18983 0
M  V30 6324 H 600.131 -2.9892 0.169511 0
M  V30 6325 H 597.677 -1.43761 0.0829658 0
M  V30 6326 H 599.63 -3.60055 -2.18949 0
M  V30 6327 H 598.354 -2.35976 -2.25794 0
M  V30 6328 H 597.013 -3.62573 -0.541869 0
M  V30 6329 H 596.661 -4.05144 -2.98106 0
M  V30 6330 H 596.361 -5.51904 -2.01682 0
M  V30 6331 H 597.885 -5.35455 -2.93462 0
M  V30 6332 H 599.299 -5.69153 -0.688319 0
M  V30 6333 H 597.696 -6.00087 0.0398887 0
M  V30 6334 H 598.766 -4.78811 0.766057 0
M  V30 6335 N 600.109 -0.101901 -1.5727 0
M  V30 6336 C 601.525 0.254739 -1.57554 0
M  V30 6337 C 601.725 1.67937 -1.11352 0
M  V30 6338 O 600.781 2.39722 -0.793081 0
M  V30 6339 C 602.094 0.036975 -3.00677 0
M  V30 6340 C 603.642 0.104199 -3.12827 0
M  V30 6341 C 604.117 -0.0856565 -4.5792 0
M  V30 6342 N 605.608 -0.0310498 -4.6319 0
M  V30 6343 C 606.343 -0.153099 -5.73196 0
M  V30 6344 N 605.839 -0.330364 -6.92012 0
M  V30 6345 N 607.632 -0.0938854 -5.62022 0
M  V30 6346 H 599.783 -1.03263 -1.85609 0
M  V30 6347 H 602.046 -0.405251 -0.857016 0
M  V30 6348 H 601.752 -0.947254 -3.38703 0
M  V30 6349 H 601.626 0.776335 -3.69124 0
M  V30 6350 H 604.013 1.07894 -2.74669 0
M  V30 6351 H 604.094 -0.666762 -2.46957 0
M  V30 6352 H 603.738 -1.05729 -4.96773 0
M  V30 6353 H 603.668 0.705082 -5.21858 0
M  V30 6354 H 606.159 0.103141 -3.77759 0
M  V30 6355 H 606.472 -0.41482 -7.71686 0
M  V30 6356 H 604.817 -0.366119 -6.94035 0
M  V30 6357 H 608.008 0.0435168 -4.6808 0
M  V30 6358 H 608.181 -0.19245 -6.47714 0
M  V30 6359 N 601.587 1.56661 0.17182 0
M  V30 6360 C 602.534 1.96371 1.21273 0
M  V30 6361 C 603.504 0.82756 1.44016 0
M  V30 6362 O 604.689 1.08764 1.56764 0
M  V30 6363 C 601.829 2.32838 2.54716 0
M  V30 6364 C 600.942 3.59628 2.39356 0
M  V30 6365 C 600.077 3.85311 3.65662 0
M  V30 6366 C 599.116 5.0545 3.45234 0
M  V30 6367 N 598.253 5.27268 4.63608 0
M  V30 6368 H 603.093 2.85106 0.86709 0
M  V30 6369 H 600.63 1.41073 0.416744 0
M  V30 6370 H 602.588 2.52004 3.3249 0
M  V30 6371 H 601.218 1.47214 2.87277 0
M  V30 6372 H 600.27 3.4838 1.52761 0
M  V30 6373 H 601.582 4.4756 2.20207 0
M  V30 6374 H 600.736 4.04841 4.51872 0
M  V30 6375 H 599.475 2.95753 3.8779 0
M  V30 6376 H 598.48 4.85819 2.5741 0
M  V30 6377 H 599.705 5.96538 3.24529 0
M  V30 6378 H 597.651 4.40662 4.85956 0
M  V30 6379 H 597.568 6.09422 4.4737 0
M  V30 6380 H 598.836 5.51277 5.51103 0
M  V30 6381 N 603.065 -0.440357 1.51323 0
M  V30 6382 C 604.015 -1.53263 1.68803 0
M  V30 6383 C 604.999 -1.51494 0.542057 0
M  V30 6384 O 606.191 -1.57999 0.797839 0
M  V30 6385 C 603.32 -2.91479 1.8137 0
M  V30 6386 C 602.406 -2.98015 3.01742 0
M  V30 6387 N 602.797 -2.743 4.24962 0
M  V30 6388 C 601.095 -3.29173 3.00934 0
M  V30 6389 C 601.796 -2.86601 5.06197 0
M  V30 6390 N 600.772 -3.1814 4.40781 0
M  V30 6391 H 604.574 -1.33675 2.61741 0
M  V30 6392 H 602.088 -0.647616 1.48929 0
M  V30 6393 H 604.085 -3.70055 1.92002 0
M  V30 6394 H 602.745 -3.12089 0.896117 0
M  V30 6395 H 603.756 -2.49287 4.53957 0
M  V30 6396 H 600.433 -3.55577 2.18796 0
M  V30 6397 H 601.823 -2.72246 6.14274 0
M  V30 6398 N 604.543 -1.41418 -0.695603 0
M  V30 6399 C 605.473 -1.46035 -1.82197 0
M  V30 6400 C 606.454 -0.319025 -1.67082 0
M  V30 6401 O 607.639 -0.530462 -1.86815 0
M  V30 6402 C 604.769 -1.34179 -3.20333 0
M  V30 6403 C 603.723 -2.46123 -3.50154 0
M  V30 6404 C 603.049 -2.19332 -4.87645 0
M  V30 6405 C 604.349 -3.88463 -3.49133 0
M  V30 6406 H 606.043 -2.40303 -1.78591 0
M  V30 6407 H 603.589 -1.15663 -0.857797 0
M  V30 6408 H 605.542 -1.36021 -3.98844 0
M  V30 6409 H 604.266 -0.363952 -3.24566 0
M  V30 6410 H 602.925 -2.43563 -2.73994 0
M  V30 6411 H 602.573 -1.19891 -4.88503 0
M  V30 6412 H 602.273 -2.94344 -5.08562 0
M  V30 6413 H 603.797 -2.22889 -5.68465 0
M  V30 6414 H 605.211 -3.92738 -4.17648 0
M  V30 6415 H 603.608 -4.63158 -3.81582 0
M  V30 6416 H 604.678 -4.16617 -2.48109 0
M  V30 6417 N 606.021 0.929856 -1.27246 0
M  V30 6418 C 607.27 1.67182 -1.12842 0
M  V30 6419 C 607.583 1.9287 0.325666 0
M  V30 6420 O 608.789 2.64999 0.590572 0
M  V30 6421 C 607.245 3.01097 -1.97151 0
M  V30 6422 C 606.853 2.83115 -3.47203 0
M  V30 6423 C 608.597 3.78907 -1.91389 0
M  V30 6424 C 606.504 4.12573 -4.23719 0
M  V30 6425 H 605.434 0.627064 -0.418697 0
M  V30 6426 H 608.085 1.0332 -1.51649 0
M  V30 6427 H 606.467 3.66004 -1.51186 0
M  V30 6428 H 607.641 2.26989 -4.01015 0
M  V30 6429 H 605.956 2.18736 -3.54321 0
M  V30 6430 H 608.553 4.74837 -2.45834 0
M  V30 6431 H 608.896 4.0674 -0.887047 0
M  V30 6432 H 609.429 3.20794 -2.35237 0
M  V30 6433 H 606.168 3.8992 -5.26918 0
M  V30 6434 H 605.688 4.68371 -3.74685 0
M  V30 6435 H 607.367 4.8095 -4.32777 0
M  V30 6436 N 607.499 1.09233 1.13605 0
M  V30 6437 C 608.91 0.846839 1.6639 0
M  V30 6438 C 609.261 -0.625031 1.85978 0
M  V30 6439 O 608.386 -1.48173 1.57714 0
M  V30 6440 C 608.981 1.5307 3.0225 0
M  V30 6441 C 607.54 1.33223 3.52035 0
M  V30 6442 C 606.687 1.58806 2.27323 0
M  V30 6443 H 609.638 1.25175 0.975541 0
M  V30 6444 H 609.659 0.96267 3.68121 0
M  V30 6445 H 609.171 2.60192 2.87961 0
M  V30 6446 H 607.272 0.282091 3.71531 0
M  V30 6447 H 607.385 2.0657 4.32279 0
M  V30 6448 H 605.749 1.01007 2.33815 0
M  V30 6449 H 606.532 2.67153 2.15602 0
M  V30 6450 N 608.977 -1.30795 0.87923 0
M  V30 6451 C 610.254 -1.91145 0.415086 0
M  V30 6452 C 610.634 -1.7995 -1.10368 0
M  V30 6453 O 609.982 -1.21305 -1.93642 0
M  V30 6454 C 610.192 -3.37014 0.906778 0
M  V30 6455 C 611.54 -4.14101 0.938358 0
M  V30 6456 O 612.564 -3.45834 0.853053 0
M  V30 6457 O 611.423 -5.36054 1.06342 0
M  V30 6458 H 608.517 -0.81736 0.125905 0
M  V30 6459 H 611.063 -1.39401 0.967753 0
M  V30 6460 H 609.835 -3.3922 1.95053 0
M  V30 6461 H 609.458 -3.96204 0.332948 0
M  V30 6462 N 610.455 -0.639598 -1.44038 0
M  V30 6463 C 611.701 -0.147698 -2.02261 0
M  V30 6464 C 612.034 1.23031 -1.50256 0
M  V30 6465 O 611.309 1.81847 -0.690068 0
M  V30 6466 C 611.592 -0.14362 -3.59813 0
M  V30 6467 C 611.445 -1.55458 -4.22082 0
M  V30 6468 C 612.764 0.527317 -4.36929 0
M  V30 6469 H 609.883 -0.0551453 -0.734934 0
M  V30 6470 H 612.525 -0.817688 -1.71505 0
M  V30 6471 H 610.675 0.426898 -3.86147 0
M  V30 6472 H 612.347 -2.17464 -4.06826 0
M  V30 6473 H 610.59 -2.10594 -3.79253 0
M  V30 6474 H 611.261 -1.50369 -5.31124 0
M  V30 6475 H 613.737 0.0420504 -4.16079 0
M  V30 6476 H 612.613 0.499389 -5.46624 0
M  V30 6477 H 612.874 1.59914 -4.12165 0
M  V30 6478 N 611.933 1.52934 -0.380664 0
M  V30 6479 C 613.161 2.05886 0.204599 0
M  V30 6480 C 613.576 1.25305 1.41223 0
M  V30 6481 O 612.933 0.297504 1.80059 0
M  V30 6482 C 612.984 3.56764 0.583249 0
M  V30 6483 O 612.705 4.34292 -0.576398 0
M  V30 6484 C 614.206 4.2603 1.2253 0
M  V30 6485 H 611.426 0.670193 0.0328991 0
M  V30 6486 H 613.97 1.97148 -0.543397 0
M  V30 6487 H 612.125 3.65603 1.28115 0
M  V30 6488 H 612.539 5.23819 -0.267119 0
M  V30 6489 H 614.013 5.32868 1.44068 0
M  V30 6490 H 614.49 3.80698 2.19011 0
M  V30 6491 H 615.096 4.21485 0.568407 0
M  V30 6492 N 613.412 0.11024 1.57214 0
M  V30 6493 C 614.637 -0.561179 1.99664 0
M  V30 6494 C 615.062 -1.59985 0.989266 0
M  V30 6495 O 614.42 -1.81255 -0.0402399 0
M  V30 6496 C 614.468 -1.17189 3.41027 0
M  V30 6497 O 613.572 -2.28755 3.4314 0
M  V30 6498 H 612.913 -0.14101 0.648855 0
M  V30 6499 H 615.443 0.196128 2.03658 0
M  V30 6500 H 615.453 -1.50954 3.79047 0
M  V30 6501 H 614.128 -0.411041 4.13864 0
M  V30 6502 H 612.705 -1.96495 3.16929 0
M  V30 6503 N 614.89 -1.56749 -0.16351 0
M  V30 6504 C 615.822 -1.93587 -1.22705 0
M  V30 6505 C 616.835 -0.829824 -1.40063 0
M  V30 6506 O 618.024 -1.10826 -1.39928 0
M  V30 6507 C 615.124 -2.1803 -2.59454 0
M  V30 6508 C 614.297 -3.4928 -2.63292 0
M  V30 6509 C 613.356 -3.62457 -3.8146 0
M  V30 6510 O 612.382 -4.35004 -3.67096 0
M  V30 6511 N 613.584 -2.97888 -4.9824 0
M  V30 6512 H 616.349 -2.8542 -0.914081 0
M  V30 6513 H 613.91 -1.58 -0.353214 0
M  V30 6514 H 615.902 -2.24102 -3.36987 0
M  V30 6515 H 614.472 -1.32543 -2.8311 0
M  V30 6516 H 613.692 -3.54795 -1.71796 0
M  V30 6517 H 614.98 -4.35632 -2.62873 0
M  V30 6518 H 614.378 -2.38833 -5.12811 0
M  V30 6519 H 612.935 -3.09545 -5.73607 0
M  V30 6520 N 616.368 0.432326 -1.51554 0
M  V30 6521 C 617.298 1.53242 -1.76179 0
M  V30 6522 C 618.279 1.58717 -0.611801 0
M  V30 6523 O 619.464 1.74364 -0.855033 0
M  V30 6524 C 616.594 2.91278 -1.89141 0
M  V30 6525 C 615.548 3.00663 -3.04608 0
M  V30 6526 C 614.874 4.40728 -3.02759 0
M  V30 6527 C 616.174 2.74281 -4.44485 0
M  V30 6528 H 617.868 1.32886 -2.68294 0
M  V30 6529 H 615.414 0.637841 -1.29103 0
M  V30 6530 H 617.367 3.68203 -2.04951 0
M  V30 6531 H 616.091 3.12877 -0.936785 0
M  V30 6532 H 614.75 2.26179 -2.88511 0
M  V30 6533 H 614.398 4.59301 -2.05065 0
M  V30 6534 H 614.098 4.47936 -3.80299 0
M  V30 6535 H 615.622 5.19619 -3.20669 0
M  V30 6536 H 617.036 3.40936 -4.60907 0
M  V30 6537 H 615.433 2.92893 -5.23769 0
M  V30 6538 H 616.503 1.69856 -4.54177 0
M  V30 6539 O 617.885 1.50798 0.578109 0
M  V30 6540 H 618.576 1.4938 1.2331 0
M  V30 END ATOM
M  V30 BEGIN BOND
M  V30 END BOND
M  V30 END CTAB
M  END
$$$$
