drugbank_target|P03897 NADH-ubiquinone oxidoreductase chain 3 (DB00157)
 OpenBabel12092119263D

  0  0  0     0  0            999 V3000
M  V30 BEGIN CTAB
M  V30 COUNTS 1905 1931 0 0 0
M  V30 BEGIN ATOM
M  V30 1 H -0.908 1.98254 -0.117106 0
M  V30 2 N 0 1.576 0 0
M  V30 3 C 0.933 2.03868 1.02534 0
M  V30 4 C 1.911 0.928543 1.3348 0
M  V30 5 O 3.095 1.19667 1.45644 0
M  V30 6 C 0.222 2.43627 2.35294 0
M  V30 7 C -0.732 3.65373 2.2001 0
M  V30 8 S 0.101 5.13292 1.52614 0
M  V30 9 C 1.257 5.56322 2.86805 0
M  V30 10 H 1.49 2.90518 0.631377 0
M  V30 11 H -0.977 1.52953 0.210867 0
M  V30 12 H 0.981 2.67203 3.11629 0
M  V30 13 H -0.358 1.57376 2.7183 0
M  V30 14 H -1.165 3.90944 3.18086 0
M  V30 15 H -1.563 3.418 1.51819 0
M  V30 16 H 0.729 5.58782 3.83104 0
M  V30 17 H 1.672 6.56266 2.65933 0
M  V30 18 H 2.08 4.83886 2.90714 0
M  V30 19 N 1.4781 -0.272755 1.55222 0
M  V30 20 C 2.4261 -1.35705 1.88909 0
M  V30 21 C 3.4201 -1.5112 0.765456 0
M  V30 22 O 4.6261 -1.52901 0.949802 0
M  V30 23 H 1.0011 -0.453868 0.59959 0
M  V30 24 H 2.9721 -1.04544 2.79487 0
M  V30 25 C 1.7211 -2.71049 2.17779 0
M  V30 26 H 1.0441 -2.59979 3.03728 0
M  V30 27 H 2.4841 -3.45858 2.45272 0
M  V30 28 C 0.9431 -3.22165 0.985473 0
M  V30 29 O 1.4731 -4.01096 0.220233 0
M  V30 30 N -0.3209 -2.7985 0.783108 0
M  V30 31 H -0.7739 -2.15775 1.40708 0
M  V30 32 H -0.8159 -3.14397 -0.0130392 0
M  V30 33 N 2.9562 -1.48159 -0.537278 0
M  V30 34 C 4.2032 -1.55804 -1.29349 0
M  V30 35 C 4.5312 -0.228802 -1.9315 0
M  V30 36 O 3.7862 0.780242 -1.79473 0
M  V30 37 C 4.0852 -2.63956 -2.40961 0
M  V30 38 C 3.7512 -4.0662 -1.94861 0
M  V30 39 C 2.4132 -4.45452 -1.82006 0
M  V30 40 C 4.7652 -4.96055 -1.59933 0
M  V30 41 C 2.0932 -5.71531 -1.32547 0
M  V30 42 C 4.4452 -6.22617 -1.11939 0
M  V30 43 C 3.1092 -6.60312 -0.976951 0
M  V30 44 H 2.3792 -0.570129 -0.473322 0
M  V30 45 H 5.0262 -1.81845 -0.600372 0
M  V30 46 H 3.3312 -2.31747 -3.15912 0
M  V30 47 H 5.0282 -2.67089 -2.99107 0
M  V30 48 H 1.6182 -3.75949 -2.05815 0
M  V30 49 H 5.8022 -4.66738 -1.68728 0
M  V30 50 H 1.0582 -5.99468 -1.202 0
M  V30 51 H 5.2322 -6.91318 -0.839811 0
M  V30 52 H 2.8592 -7.57895 -0.591501 0
M  V30 53 N 4.4343 0.785586 -1.36625 0
M  V30 54 C 5.3973 1.87999 -1.31107 0
M  V30 55 C 6.3973 1.59316 -0.217959 0
M  V30 56 O 7.5873 1.67656 -0.472977 0
M  V30 57 C 4.7193 3.24861 -1.03334 0
M  V30 58 H 5.9123 1.94307 -2.2844 0
M  V30 59 H 3.4653 0.983813 -1.21453 0
M  V30 60 H 4.2003 3.24235 -0.0647432 0
M  V30 61 H 3.9853 3.4707 -1.82441 0
M  V30 62 H 5.4753 4.04929 -1.02088 0
M  V30 63 N 5.9124 1.20967 1.01018 0
M  V30 64 C 6.8424 0.988272 2.11555 0
M  V30 65 C 7.8234 -0.0849778 1.69888 0
M  V30 66 O 9.0084 0.0738202 1.9406 0
M  V30 67 C 6.1384 0.546528 3.42973 0
M  V30 68 C 5.0924 1.56375 3.9841 0
M  V30 69 C 4.4184 0.97842 5.25672 0
M  V30 70 C 5.7184 2.94922 4.31066 0
M  V30 71 H 7.4124 1.91276 2.30334 0
M  V30 72 H 4.9584 0.921073 1.1069 0
M  V30 73 H 6.9114 0.378839 4.19694 0
M  V30 74 H 5.6354 -0.413598 3.23971 0
M  V30 75 H 4.2944 1.71891 3.23804 0
M  V30 76 H 3.9424 0.0101688 5.02999 0
M  V30 77 H 3.6424 1.65784 5.63728 0
M  V30 78 H 5.1664 0.821939 6.05043 0
M  V30 79 H 6.5804 2.8288 4.9865 0
M  V30 80 H 4.9774 3.5983 4.80253 0
M  V30 81 H 6.0474 3.4616 3.39561 0
M  V30 82 N 7.3905 -1.2043 1.01659 0
M  V30 83 C 8.6395 -1.89118 0.701237 0
M  V30 84 C 8.9525 -1.79705 -0.772358 0
M  V30 85 O 10.1585 -2.43528 -1.20026 0
M  V30 86 C 8.6145 -3.39168 1.20388 0
M  V30 87 C 8.2225 -3.57166 2.70438 0
M  V30 88 C 9.9665 -4.1341 0.963953 0
M  V30 89 C 7.8735 -5.01042 3.14183 0
M  V30 90 H 6.8035 -0.708267 0.2586 0
M  V30 91 H 9.4545 -1.36239 1.22927 0
M  V30 92 H 7.8365 -3.91369 0.603824 0
M  V30 93 H 9.0105 -3.15351 3.35992 0
M  V30 94 H 7.3255 -2.96294 2.92572 0
M  V30 95 H 9.9225 -5.19491 1.26621 0
M  V30 96 H 10.2655 -4.16181 -0.099578 0
M  V30 97 H 10.7985 -3.67309 1.52738 0
M  V30 98 H 7.5375 -5.03426 4.19812 0
M  V30 99 H 7.0575 -5.43668 2.53348 0
M  V30 100 H 8.7365 -5.69623 3.0682 0
M  V30 101 N 8.8686 -0.792821 -1.36206 0
M  V30 102 C 9.7986 -0.207853 -2.32573 0
M  V30 103 C 10.7796 0.659055 -1.56813 0
M  V30 104 O 11.9646 0.592176 -1.84951 0
M  V30 105 C 9.0946 0.655449 -3.41059 0
M  V30 106 C 8.0486 -0.111842 -4.27854 0
M  V30 107 C 7.3746 0.872274 -5.27537 0
M  V30 108 C 8.6746 -1.30299 -5.05786 0
M  V30 109 H 10.3686 -1.01294 -2.81744 0
M  V30 110 H 7.9146 -0.48854 -1.3546 0
M  V30 111 H 9.8676 1.07464 -4.07467 0
M  V30 112 H 8.5916 1.49328 -2.90463 0
M  V30 113 H 7.2506 -0.512053 -3.63006 0
M  V30 114 H 6.8986 1.70523 -4.73214 0
M  V30 115 H 6.5986 0.363291 -5.86476 0
M  V30 116 H 8.1226 1.28996 -5.96818 0
M  V30 117 H 9.5366 -0.959379 -5.65216 0
M  V30 118 H 7.9336 -1.7455 -5.74154 0
M  V30 119 H 9.0036 -2.09663 -4.37229 0
M  V30 120 N 10.3467 1.47872 -0.545128 0
M  V30 121 C 11.2797 2.2675 0.256885 0
M  V30 122 C 12.2577 1.33293 0.931228 0
M  V30 123 O 13.4417 1.62657 0.95262 0
M  V30 124 C 10.5687 3.09976 1.36501 0
M  V30 125 C 9.6147 4.1892 0.800496 0
M  V30 126 S 10.4477 5.34397 -0.343505 0
M  V30 127 C 11.6037 6.21186 0.766733 0
M  V30 128 H 11.8367 2.94425 -0.412479 0
M  V30 129 H 9.3697 1.50806 -0.331204 0
M  V30 130 H 11.3277 3.585 1.9997 0
M  V30 131 H 9.9887 2.41686 2.00616 0
M  V30 132 H 9.1817 4.76836 1.63227 0
M  V30 133 H 8.7837 3.73215 0.242217 0
M  V30 134 H 11.0757 6.56804 1.66178 0
M  V30 135 H 12.0187 7.07742 0.225204 0
M  V30 136 H 12.4267 5.54574 1.05396 0
M  V30 137 N 11.8248 0.280983 1.55075 0
M  V30 138 C 13.0738 -0.334784 1.98902 0
M  V30 139 C 13.3868 -1.56534 1.17288 0
M  V30 140 O 14.5928 -2.25443 1.51287 0
M  V30 141 C 13.0488 -0.646994 3.54037 0
M  V30 142 C 12.6568 0.564085 4.44435 0
M  V30 143 C 14.4008 -1.22506 4.06439 0
M  V30 144 C 12.3078 0.226137 5.90967 0
M  V30 145 H 11.2378 -0.128866 0.742906 0
M  V30 146 H 13.8888 0.386556 1.79382 0
M  V30 147 H 12.2708 -1.42739 3.6938 0
M  V30 148 H 13.4448 1.34082 4.40861 0
M  V30 149 H 11.7598 1.0594 4.02698 0
M  V30 150 H 14.3568 -1.49182 5.13468 0
M  V30 151 H 14.6998 -2.16085 3.55827 0
M  V30 152 H 15.2328 -0.50682 3.94558 0
M  V30 153 H 11.9718 1.12996 6.45687 0
M  V30 154 H 11.4918 -0.513717 5.97596 0
M  V30 155 H 13.1708 -0.179539 6.46751 0
M  V30 156 N 13.3029 -1.57598 0.00835791 0
M  V30 157 C 14.2509 -2.10078 -0.998508 0
M  V30 158 C 15.2449 -1.02262 -1.35051 0
M  V30 159 O 16.4509 -1.20719 -1.33518 0
M  V30 160 H 12.8259 -0.670903 -0.339696 0
M  V30 161 H 14.7969 -2.93648 -0.530398 0
M  V30 162 C 13.5459 -2.62615 -2.27879 0
M  V30 163 H 12.8689 -3.45213 -2.01662 0
M  V30 164 H 14.3089 -3.03004 -2.96588 0
M  V30 165 C 12.7679 -1.54407 -2.99433 0
M  V30 166 O 13.2979 -0.931812 -3.90743 0
M  V30 167 N 11.5039 -1.2695 -2.61404 0
M  V30 168 H 11.0509 -1.76924 -1.87232 0
M  V30 169 H 11.0089 -0.547704 -3.09593 0
M  V30 170 N 14.781 0.264519 -1.55364 0
M  V30 171 C 16.009 1.013 -1.80405 0
M  V30 172 C 16.424 1.79618 -0.581622 0
M  V30 173 O 15.781 1.76879 0.449468 0
M  V30 174 C 15.832 1.96487 -3.03439 0
M  V30 175 O 15.553 1.21341 -4.20961 0
M  V30 176 C 17.054 2.83079 -3.41147 0
M  V30 177 H 14.274 0.298875 -0.600762 0
M  V30 178 H 16.818 0.292736 -2.02394 0
M  V30 179 H 14.973 2.63965 -2.83551 0
M  V30 180 H 15.387 1.85573 -4.90574 0
M  V30 181 H 16.861 3.4565 -4.30384 0
M  V30 182 H 17.338 3.53286 -2.60932 0
M  V30 183 H 17.944 2.2108 -3.63323 0
M  V30 184 N 16.2591 1.48442 0.529413 0
M  V30 185 C 17.1891 1.65902 1.64313 0
M  V30 186 C 18.1701 0.507897 1.6234 0
M  V30 187 O 19.3551 0.740503 1.79528 0
M  V30 188 C 16.4851 1.69911 3.02898 0
M  V30 189 C 15.4391 2.8453 3.19729 0
M  V30 190 C 14.7651 2.73629 4.59381 0
M  V30 191 C 16.0651 4.25821 3.02447 0
M  V30 192 H 17.7591 2.5914 1.49955 0
M  V30 193 H 15.3051 1.24709 0.719982 0
M  V30 194 H 17.2581 1.80715 3.80684 0
M  V30 195 H 15.9821 0.732524 3.18279 0
M  V30 196 H 14.6411 2.73283 2.44361 0
M  V30 197 H 14.2891 1.74938 4.71599 0
M  V30 198 H 13.9891 3.50541 4.71588 0
M  V30 199 H 15.5131 2.86401 5.39265 0
M  V30 200 H 16.9271 4.37898 3.70024 0
M  V30 201 H 15.3241 5.03735 3.26146 0
M  V30 202 H 16.3941 4.42244 1.98867 0
M  V30 203 N 17.7372 -0.778329 1.37039 0
M  V30 204 C 18.6672 -1.90546 1.34962 0
M  V30 205 C 19.6482 -1.68681 0.219274 0
M  V30 206 O 20.8332 -1.89634 0.418624 0
M  V30 207 C 17.9632 -3.27734 1.14925 0
M  V30 208 C 16.9172 -3.64147 2.24902 0
M  V30 209 C 16.2432 -4.99806 1.89996 0
M  V30 210 C 17.5432 -3.71579 3.67051 0
M  V30 211 H 19.2372 -1.92541 2.29277 0
M  V30 212 H 16.7832 -0.924948 1.10366 0
M  V30 213 H 18.7362 -4.06215 1.12104 0
M  V30 214 H 17.4602 -3.26154 0.170631 0
M  V30 215 H 16.1192 -2.8797 2.26868 0
M  V30 216 H 15.7672 -4.94759 0.906796 0
M  V30 217 H 15.4672 -5.25139 2.63634 0
M  V30 218 H 16.9912 -5.80694 1.88749 0
M  V30 219 H 18.4052 -4.40227 3.67251 0
M  V30 220 H 16.8022 -4.08405 4.39688 0
M  V30 221 H 17.8722 -2.72404 4.01154 0
M  V30 222 N 19.2153 -1.21501 -1.00376 0
M  V30 223 C 20.1783 -0.976927 -2.07337 0
M  V30 224 C 21.1783 0.0525322 -1.60714 0
M  V30 225 O 22.3683 -0.184869 -1.73216 0
M  V30 226 C 19.5003 -0.473423 -3.37597 0
M  V30 227 H 20.6933 -1.92587 -2.29892 0
M  V30 228 H 18.2463 -1.03217 -1.17371 0
M  V30 229 H 18.9813 0.480379 -3.20722 0
M  V30 230 H 18.7663 -1.216 -3.72768 0
M  V30 231 H 20.2563 -0.32675 -4.1632 0
M  V30 232 N 20.6934 1.19889 -1.02296 0
M  V30 233 C 21.6234 2.25141 -0.619174 0
M  V30 234 C 22.6044 1.66051 0.368915 0
M  V30 235 O 23.7894 1.92546 0.252941 0
M  V30 236 C 20.9194 3.4728 0.0368783 0
M  V30 237 C 19.8734 4.19005 -0.872865 0
M  V30 238 C 19.1994 5.34637 -0.0822402 0
M  V30 239 C 20.4994 4.74452 -2.18387 0
M  V30 240 H 22.1934 2.59171 -1.49903 0
M  V30 241 H 19.7394 1.24579 -0.722222 0
M  V30 242 H 21.6924 4.20098 0.330958 0
M  V30 243 H 20.4164 3.12433 0.95149 0
M  V30 244 H 19.0754 3.48061 -1.15105 0
M  V30 245 H 18.7234 4.96034 0.83422 0
M  V30 246 H 18.4234 5.83557 -0.688149 0
M  V30 247 H 19.9474 6.10255 0.205238 0
M  V30 248 H 21.3614 5.39055 -1.95172 0
M  V30 249 H 19.7584 5.33834 -2.74119 0
M  V30 250 H 20.8284 3.92844 -2.84257 0
M  V30 251 N 22.1715 0.800033 1.35784 0
M  V30 252 C 23.1015 0.220184 2.3246 0
M  V30 253 C 24.0825 -0.65073 1.57161 0
M  V30 254 O 25.2675 -0.582359 1.85263 0
M  V30 255 C 22.3975 -0.637353 3.41402 0
M  V30 256 C 21.3515 0.134531 4.27789 0
M  V30 257 C 20.6775 -0.844285 5.27992 0
M  V30 258 C 21.9775 1.32979 5.05088 0
M  V30 259 H 23.6715 1.02787 2.81203 0
M  V30 260 H 21.2175 0.495717 1.35199 0
M  V30 261 H 23.1705 -1.05302 4.08031 0
M  V30 262 H 21.8945 -1.47785 2.91251 0
M  V30 263 H 20.5535 0.531296 3.6273 0
M  V30 264 H 20.2015 -1.68011 4.74111 0
M  V30 265 H 19.9015 -0.332184 5.8666 0
M  V30 266 H 21.4255 -1.2583 5.97494 0
M  V30 267 H 22.8395 0.98934 5.64699 0
M  V30 268 H 21.2365 1.77593 5.7322 0
M  V30 269 H 22.3065 2.11978 4.36111 0
M  V30 270 N 23.6496 -1.47581 0.552962 0
M  V30 271 C 24.5796 -2.32762 -0.185451 0
M  V30 272 C 25.5606 -1.43527 -0.912905 0
M  V30 273 O 26.7456 -1.72388 -0.894201 0
M  V30 274 C 23.8756 -3.25219 -1.21859 0
M  V30 275 C 22.8296 -4.23661 -0.607864 0
M  V30 276 C 22.1556 -5.05413 -1.74533 0
M  V30 277 C 23.4556 -5.20481 0.435582 0
M  V30 278 H 25.1496 -2.94749 0.525684 0
M  V30 279 H 22.6956 -1.41738 0.254251 0
M  V30 280 H 24.6486 -3.8365 -1.7433 0
M  V30 281 H 23.3726 -2.61279 -1.95961 0
M  V30 282 H 22.0316 -3.66451 -0.104489 0
M  V30 283 H 21.6796 -4.3788 -2.47529 0
M  V30 284 H 21.3796 -5.72059 -1.34249 0
M  V30 285 H 22.9036 -5.66701 -2.27338 0
M  V30 286 H 24.3176 -5.733 -0.00290157 0
M  V30 287 H 22.7146 -5.95305 0.757067 0
M  V30 288 H 23.7846 -4.66217 1.33303 0
M  V30 289 N 25.1277 -0.289203 -1.54924 0
M  V30 290 C 26.0607 0.633823 -2.19221 0
M  V30 291 C 27.0387 1.14174 -1.15772 0
M  V30 292 O 28.2227 1.21211 -1.44361 0
M  V30 293 C 25.3497 1.86592 -2.82668 0
M  V30 294 C 24.3957 1.49227 -3.99542 0
M  V30 295 S 25.2287 0.558312 -5.32582 0
M  V30 296 C 26.3847 1.79847 -5.99505 0
M  V30 297 H 26.6177 0.0875416 -2.97171 0
M  V30 298 H 24.1507 -0.0733899 -1.54225 0
M  V30 299 H 26.1087 2.57305 -3.19851 0
M  V30 300 H 24.7697 2.38335 -2.04585 0
M  V30 301 H 23.9627 2.40945 -4.42676 0
M  V30 302 H 23.5647 0.865193 -3.63855 0
M  V30 303 H 25.8567 2.7406 -6.19595 0
M  V30 304 H 26.7997 1.4099 -6.93922 0
M  V30 305 H 27.2077 1.96982 -5.29016 0
M  V30 306 N 26.6058 1.57591 -0.0167156 0
M  V30 307 C 27.8548 1.90461 0.663877 0
M  V30 308 C 28.1678 0.893515 1.73999 0
M  V30 309 O 29.3738 1.11302 2.47637 0
M  V30 310 C 27.8298 3.38155 1.23204 0
M  V30 311 C 27.4378 4.47597 0.189866 0
M  V30 312 C 29.1818 3.80111 1.88986 0
M  V30 313 C 27.0888 5.86379 0.768964 0
M  V30 314 H 26.0188 0.710738 0.251729 0
M  V30 315 H 28.6698 1.83326 -0.0799926 0
M  V30 316 H 27.0518 3.40182 2.02712 0
M  V30 317 H 28.2258 4.57112 -0.581846 0
M  V30 318 H 26.5408 4.14766 -0.368475 0
M  V30 319 H 29.1378 4.81145 2.33247 0
M  V30 320 H 29.4808 3.14511 2.72743 0
M  V30 321 H 30.0138 3.80454 1.16187 0
M  V30 322 H 26.7528 6.55493 -0.0301957 0
M  V30 323 H 26.2728 5.80496 1.50945 0
M  V30 324 H 27.9518 6.34563 1.26251 0
M  V30 325 N 28.0839 -0.256276 1.55502 0
M  V30 326 C 29.3329 -0.983486 1.76098 0
M  V30 327 C 29.6459 -1.86837 0.578896 0
M  V30 328 O 30.8519 -2.63163 0.667648 0
M  V30 329 C 29.3079 -1.79868 3.1173 0
M  V30 330 C 28.9159 -0.961648 4.37557 0
M  V30 331 C 30.6599 -2.51919 3.41668 0
M  V30 332 C 28.5669 -1.77219 5.64223 0
M  V30 333 H 27.4969 -0.370936 0.656447 0
M  V30 334 H 30.1479 -0.238492 1.81944 0
M  V30 335 H 28.5299 -2.58527 2.99966 0
M  V30 336 H 29.7039 -0.218048 4.60284 0
M  V30 337 H 28.0189 -0.354913 4.14885 0
M  V30 338 H 30.6159 -3.12998 4.33516 0
M  V30 339 H 30.9589 -3.23059 2.62562 0
M  V30 340 H 31.4919 -1.80278 3.54605 0
M  V30 341 H 28.2309 -1.10471 6.46124 0
M  V30 342 H 27.7509 -2.49132 5.45613 0
M  V30 343 H 29.4299 -2.34169 6.03137 0
M  V30 344 N 29.562 -1.4872 -0.521534 0
M  V30 345 C 30.79 -1.60843 -1.30142 0
M  V30 346 C 31.205 -0.271897 -1.86832 0
M  V30 347 O 30.562 0.739969 -1.66825 0
M  V30 348 C 30.613 -2.66155 -2.4463 0
M  V30 349 O 30.334 -3.94623 -1.90275 0
M  V30 350 C 31.835 -2.88795 -3.36322 0
M  V30 351 H 29.055 -0.542075 -0.395468 0
M  V30 352 H 31.599 -1.94609 -0.628285 0
M  V30 353 H 29.754 -2.35224 -3.07812 0
M  V30 354 H 30.168 -4.52468 -2.65279 0
M  V30 355 H 31.642 -3.66264 -4.12983 0
M  V30 356 H 32.119 -1.97934 -3.9207 0
M  V30 357 H 32.725 -3.21063 -2.78924 0
M  V30 358 N 31.0401 0.771051 -1.3745 0
M  V30 359 C 32.2871 1.52963 -1.32697 0
M  V30 360 C 32.6151 1.94299 0.0883274 0
M  V30 361 O 31.8701 1.64397 1.0617 0
M  V30 362 C 32.1691 2.80676 -2.2126 0
M  V30 363 C 31.8351 2.58389 -3.69521 0
M  V30 364 C 30.4971 2.52019 -4.09927 0
M  V30 365 C 32.8491 2.38469 -4.63446 0
M  V30 366 C 30.1771 2.23721 -5.42371 0
M  V30 367 C 32.5291 2.11694 -5.96128 0
M  V30 368 C 31.1931 2.03769 -6.35637 0
M  V30 369 H 30.4631 0.559732 -0.485573 0
M  V30 370 H 33.1101 0.888083 -1.69662 0
M  V30 371 H 31.4151 3.49392 -1.77291 0
M  V30 372 H 33.1121 3.38557 -2.14895 0
M  V30 373 H 29.7021 2.6421 -3.37478 0
M  V30 374 H 33.8861 2.4238 -4.33089 0
M  V30 375 H 29.1421 2.16081 -5.71943 0
M  V30 376 H 33.3161 1.9528 -6.6846 0
M  V30 377 H 30.9431 1.81606 -7.38189 0
M  V30 378 N 32.5182 1.22032 0.997298 0
M  V30 379 C 33.7642 1.05382 1.73972 0
M  V30 380 C 34.1192 -0.407419 1.88037 0
M  V30 381 O 33.4122 -1.29811 1.40924 0
M  V30 382 C 33.6062 1.69345 3.14733 0
M  V30 383 C 33.4352 3.21537 3.14395 0
M  V30 384 C 32.2052 3.9062 3.20537 0
M  V30 385 C 34.4032 4.18527 2.98897 0
M  V30 386 N 32.3852 5.29935 3.09906 0
M  V30 387 C 33.7562 5.44645 2.96247 0
M  V30 388 C 35.8112 4.09476 2.83255 0
M  V30 389 C 34.5142 6.62752 2.79557 0
M  V30 390 C 36.5402 5.27228 2.67926 0
M  V30 391 C 35.9022 6.52262 2.65959 0
M  V30 392 H 32.0012 0.440018 0.646458 0
M  V30 393 H 34.5852 1.54505 1.18475 0
M  V30 394 H 32.7562 1.22778 3.68484 0
M  V30 395 H 34.4882 1.45828 3.77513 0
M  V30 396 H 31.2432 3.41592 3.28043 0
M  V30 397 H 31.6672 6.02926 3.07912 0
M  V30 398 H 36.3092 3.13598 2.83577 0
M  V30 399 H 34.0272 7.58783 2.77982 0
M  V30 400 H 37.6132 5.22053 2.56812 0
M  V30 401 H 36.4932 7.41844 2.54239 0
M  V30 402 N 33.9963 -1.19345 1.0293 0
M  V30 403 C 34.9263 -2.2481 0.631105 0
M  V30 404 C 35.9073 -1.66245 -0.360104 0
M  V30 405 O 37.0923 -1.92677 -0.242726 0
M  V30 406 C 34.2223 -3.47295 -0.0184607 0
M  V30 407 C 33.1763 -4.18536 0.895073 0
M  V30 408 C 32.5023 -5.34586 0.110592 0
M  V30 409 C 33.8023 -4.73287 2.209 0
M  V30 410 H 35.4963 -2.58372 1.51275 0
M  V30 411 H 33.0423 -1.24194 0.728818 0
M  V30 412 H 34.9953 -4.20268 -0.308675 0
M  V30 413 H 33.7193 -3.12933 -0.934907 0
M  V30 414 H 32.3783 -3.47446 1.16949 0
M  V30 415 H 32.0263 -4.96469 -0.807902 0
M  V30 416 H 31.7263 -5.83183 0.719087 0
M  V30 417 H 33.2503 -6.10355 -0.172871 0
M  V30 418 H 34.6643 -5.38013 1.98028 0
M  V30 419 H 33.0613 -5.32373 2.76946 0
M  V30 420 H 34.1313 -3.91331 2.86336 0
M  V30 421 N 35.4744 -0.807222 -1.35358 0
M  V30 422 C 36.8854 -0.44876 -1.81226 0
M  V30 423 C 37.2364 1.02929 -1.67033 0
M  V30 424 O 36.3614 1.79991 -1.20133 0
M  V30 425 C 36.9564 -0.807774 -3.2903 0
M  V30 426 C 35.5154 -0.501901 -3.73039 0
M  V30 427 C 34.6624 -1.03304 -2.57339 0
M  V30 428 H 37.6134 -0.998808 -1.23327 0
M  V30 429 H 37.6344 -0.10554 -3.80354 0
M  V30 430 H 37.1464 -1.88357 -3.39328 0
M  V30 431 H 35.2474 0.565128 -3.68289 0
M  V30 432 H 35.3604 -1.03497 -4.67787 0
M  V30 433 H 33.7244 -0.455339 -2.50597 0
M  V30 434 H 34.5074 -2.11496 -2.70415 0
M  V30 435 N 36.9525 1.47285 -0.560781 0
M  V30 436 C 37.8845 2.28118 0.222438 0
M  V30 437 C 38.8975 1.37219 0.876056 0
M  V30 438 O 40.0865 1.62011 0.749307 0
M  V30 439 C 37.1865 3.1159 1.33285 0
M  V30 440 C 36.3595 4.30473 0.77534 0
M  V30 441 C 35.4185 4.95513 1.77069 0
M  V30 442 O 34.4445 5.53792 1.31539 0
M  V30 443 N 35.6465 4.90531 3.10418 0
M  V30 444 H 38.4115 2.95976 -0.470958 0
M  V30 445 H 35.9725 1.56955 -0.39709 0
M  V30 446 H 37.9645 3.51967 1.99752 0
M  V30 447 H 36.5345 2.45951 1.92943 0
M  V30 448 H 35.7545 3.94144 -0.0662113 0
M  V30 449 H 37.0425 5.07362 0.382272 0
M  V30 450 H 36.4405 4.44389 3.5005 0
M  V30 451 H 34.9975 5.34917 3.72434 0
M  V30 452 N 38.4306 0.297415 1.54768 0
M  V30 453 C 39.3606 -0.573494 2.26348 0
M  V30 454 C 40.3416 -1.14085 1.26169 0
M  V30 455 O 41.5266 -1.17086 1.54934 0
M  V30 456 C 38.6566 -1.74716 3.00153 0
M  V30 457 C 37.6106 -1.31032 4.07449 0
M  V30 458 C 36.9366 -2.56887 4.68949 0
M  V30 459 C 38.2366 -0.444183 5.20408 0
M  V30 460 H 39.9306 0.0235131 2.99391 0
M  V30 461 H 37.4766 0.0127488 1.43994 0
M  V30 462 H 39.4296 -2.3625 3.48947 0
M  V30 463 H 38.1536 -2.37035 2.24682 0
M  V30 464 H 36.8126 -0.718066 3.59499 0
M  V30 465 H 36.4606 -3.17512 3.90122 0
M  V30 466 H 36.1606 -2.2836 5.41411 0
M  V30 467 H 37.6846 -3.19229 5.20505 0
M  V30 468 H 39.0986 -0.9651 5.65118 0
M  V30 469 H 37.4956 -0.252846 5.99567 0
M  V30 470 H 38.5656 0.531609 4.81977 0
M  V30 471 N 39.9087 -1.5758 0.0250728 0
M  V30 472 C 40.8567 -2.11125 -0.97617 0
M  V30 473 C 41.8507 -1.03689 -1.33959 0
M  V30 474 O 43.0567 -1.22128 -1.3223 0
M  V30 475 H 39.4317 -0.674468 -0.332561 0
M  V30 476 H 41.4027 -2.94194 -0.499223 0
M  V30 477 C 40.1517 -2.65017 -2.2508 0
M  V30 478 H 39.4747 -3.47333 -1.9799 0
M  V30 479 H 40.9147 -3.06133 -2.93357 0
M  V30 480 C 39.3737 -1.57574 -2.97779 0
M  V30 481 O 39.9037 -0.973203 -3.89733 0
M  V30 482 N 38.1097 -1.29716 -2.60043 0
M  V30 483 H 37.6567 -1.789 -1.85345 0
M  V30 484 H 37.6147 -0.58051 -3.08994 0
M  V30 485 N 41.3868 0.248026 -1.55636 0
M  V30 486 C 42.6348 0.974295 -1.77065 0
M  V30 487 C 42.9558 1.85897 -0.588849 0
M  V30 488 O 42.2258 1.91868 0.395407 0
M  V30 489 H 40.8058 0.362733 -0.653019 0
M  V30 490 H 43.4678 0.266244 -1.93073 0
M  V30 491 H 42.5638 1.59667 -2.68166 0
M  V30 492 N 42.8649 1.48995 0.513639 0
M  V30 493 C 44.0949 1.61297 1.291 0
M  V30 494 C 44.5029 0.278656 1.87137 0
M  V30 495 O 43.8459 -0.744325 1.67945 0
M  V30 496 C 43.9079 2.61326 2.46879 0
M  V30 497 C 43.5719 4.05993 2.09807 0
M  V30 498 C 44.5689 4.93183 1.64519 0
M  V30 499 C 42.2539 4.51642 2.19829 0
M  V30 500 C 44.2479 6.24056 1.2974 0
M  V30 501 C 41.9349 5.82532 1.84662 0
M  V30 502 C 42.9329 6.68562 1.3969 0
M  V30 503 O 42.6209 7.97014 1.04992 0
M  V30 504 H 42.3529 0.546236 0.39825 0
M  V30 505 H 44.9069 1.95673 0.62459 0
M  V30 506 H 43.1369 2.22104 3.16554 0
M  V30 507 H 44.8259 2.6329 3.08923 0
M  V30 508 H 45.5919 4.59147 1.56233 0
M  V30 509 H 41.4709 3.84855 2.53786 0
M  V30 510 H 45.0149 6.91161 0.945659 0
M  V30 511 H 40.9119 6.16099 1.92594 0
M  V30 512 H 41.6799 8.09913 1.18249 0
M  V30 513 N 44.343 -0.763751 1.37857 0
M  V30 514 C 45.276 -1.88486 1.28639 0
M  V30 515 C 46.254 -1.61757 0.165363 0
M  V30 516 O 47.438 -1.85391 0.340948 0
M  V30 517 C 44.565 -3.23884 0.990811 0
M  V30 518 C 43.611 -3.69514 2.12983 0
M  V30 519 S 44.444 -3.82244 3.75033 0
M  V30 520 C 45.6 -5.20477 3.47641 0
M  V30 521 H 45.833 -1.96017 2.23527 0
M  V30 522 H 43.366 -0.925684 1.23574 0
M  V30 523 H 45.324 -4.02081 0.827101 0
M  V30 524 H 43.985 -3.14044 0.0592832 0
M  V30 525 H 43.178 -4.67696 1.87821 0
M  V30 526 H 42.78 -2.98441 2.25408 0
M  V30 527 H 45.072 -6.05905 3.03125 0
M  V30 528 H 46.015 -5.50655 4.4518 0
M  V30 529 H 46.423 -4.88793 2.82385 0
M  V30 530 N 45.8211 -1.22559 -0.990812 0
M  V30 531 C 46.7311 -1.01394 -2.11557 0
M  V30 532 C 47.7471 0.0383962 -1.73958 0
M  V30 533 O 48.9231 -0.154787 -2.00804 0
M  V30 534 C 45.9881 -0.596569 -3.41529 0
M  V30 535 C 45.0491 -1.72276 -3.93217 0
M  V30 536 C 44.2821 -1.32521 -5.16985 0
M  V30 537 O 44.5051 -0.204909 -5.70032 0
M  V30 538 O 43.4391 -2.14247 -5.62478 0
M  V30 539 H 47.2651 -1.95633 -2.32296 0
M  V30 540 H 44.8501 -1.01172 -1.0993 0
M  V30 541 H 46.7321 -0.374263 -4.19735 0
M  V30 542 H 45.4071 0.316939 -3.22145 0
M  V30 543 H 44.3141 -1.99961 -3.16174 0
M  V30 544 H 45.6471 -2.61421 -4.17037 0
M  V30 545 N 47.2992 1.18797 -1.03562 0
M  V30 546 C 48.2462 2.22253 -0.622259 0
M  V30 547 C 49.2162 1.61987 0.36736 0
M  V30 548 O 50.4012 1.88986 0.262492 0
M  V30 549 C 47.5412 3.45097 0.0138462 0
M  V30 550 C 46.6542 4.19722 -1.02263 0
M  V30 551 C 45.7892 5.30009 -0.355573 0
M  V30 552 C 44.8282 5.96399 -1.37749 0
M  V30 553 N 43.9652 6.98234 -0.735766 0
M  V30 554 H 48.8052 2.56968 -1.50903 0
M  V30 555 H 46.3422 1.26245 -0.755017 0
M  V30 556 H 48.3002 4.15279 0.399948 0
M  V30 557 H 46.9302 3.11018 0.864158 0
M  V30 558 H 45.9822 3.48418 -1.52673 0
M  V30 559 H 47.2942 4.65227 -1.79903 0
M  V30 560 H 46.4482 6.0664 0.0850095 0
M  V30 561 H 45.1872 4.85592 0.452967 0
M  V30 562 H 44.1922 5.18512 -1.82826 0
M  V30 563 H 45.4172 6.42899 -2.18764 0
M  V30 564 H 43.3632 6.55979 0.0525597 0
M  V30 565 H 43.2802 7.41965 -1.44995 0
M  V30 566 H 44.5482 7.78845 -0.31941 0
M  V30 567 N 48.7773 0.814389 1.34928 0
M  V30 568 C 50.0023 0.410097 2.03305 0
M  V30 569 C 50.4273 -0.973464 1.60951 0
M  V30 570 O 49.7853 -1.63185 0.789964 0
M  V30 571 C 49.8333 0.51049 3.56968 0
M  V30 572 O 48.9373 -0.473035 4.09678 0
M  V30 573 H 48.2783 0.170088 0.641846 0
M  V30 574 H 50.8083 1.10244 1.72358 0
M  V30 575 H 50.8183 0.383135 4.06197 0
M  V30 576 H 49.4933 1.51963 3.87144 0
M  V30 577 H 48.0703 -0.305272 3.71648 0
M  V30 578 N 50.2554 -1.46986 0.568584 0
M  V30 579 C 51.4834 -2.0683 0.0539956 0
M  V30 580 C 51.8984 -1.41953 -1.24478 0
M  V30 581 O 51.2554 -0.519933 -1.74937 0
M  V30 582 C 51.3064 -3.61254 -0.133362 0
M  V30 583 O 51.0274 -4.237 1.11399 0
M  V30 584 C 52.5284 -4.37992 -0.683927 0
M  V30 585 H 49.7484 -0.669058 0.0510141 0
M  V30 586 H 52.2924 -1.88824 0.785234 0
M  V30 587 H 50.4474 -3.78735 -0.81477 0
M  V30 588 H 50.8614 -5.16388 0.91888 0
M  V30 589 H 52.3354 -5.46684 -0.764263 0
M  V30 590 H 52.8124 -4.05058 -1.69778 0
M  V30 591 H 53.4184 -4.25283 -0.0378494 0
M  V30 592 N 51.7335 -0.305618 -1.54608 0
M  V30 593 C 53.1445 0.186098 -1.8577 0
M  V30 594 C 53.4955 1.53058 -1.22751 0
M  V30 595 O 52.6205 2.09888 -0.526893 0
M  V30 596 C 53.2155 0.344449 -3.37044 0
M  V30 597 C 51.7745 0.780384 -3.68221 0
M  V30 598 C 50.9215 -0.108554 -2.77087 0
M  V30 599 H 53.8725 -0.526485 -1.49712 0
M  V30 600 H 53.8935 1.17828 -3.61796 0
M  V30 601 H 53.4055 -0.634235 -3.82883 0
M  V30 602 H 51.5065 1.76945 -3.27904 0
M  V30 603 H 51.6195 0.596572 -4.75371 0
M  V30 604 H 49.9835 0.412931 -2.5133 0
M  V30 605 H 50.7665 -1.08368 -3.25747 0
M  V30 606 N 53.2116 1.57565 -0.0334293 0
M  V30 607 C 54.4416 1.95996 0.653398 0
M  V30 608 C 54.8496 0.908749 1.65947 0
M  V30 609 O 54.1926 -0.117471 1.83324 0
M  V30 610 C 54.2546 3.30589 1.41249 0
M  V30 611 C 53.9186 4.53503 0.564263 0
M  V30 612 C 54.9156 5.19647 -0.16225 0
M  V30 613 C 52.6006 4.99801 0.500398 0
M  V30 614 C 54.5946 6.30412 -0.941255 0
M  V30 615 C 52.2816 6.10448 -0.282308 0
M  V30 616 C 53.2796 6.75612 -1.00184 0
M  V30 617 O 52.9676 7.84134 -1.77171 0
M  V30 618 H 52.6996 0.65027 0.184728 0
M  V30 619 H 55.2536 2.05199 -0.0907841 0
M  V30 620 H 53.4836 3.17888 2.20191 0
M  V30 621 H 55.1726 3.53892 1.98784 0
M  V30 622 H 55.9386 4.84846 -0.12227 0
M  V30 623 H 51.8176 4.48883 1.05002 0
M  V30 624 H 55.3616 6.81208 -1.50339 0
M  V30 625 H 51.2586 6.44686 -0.323989 0
M  V30 626 H 52.0266 8.00822 -1.69194 0
M  V30 627 N 54.6897 -0.239769 1.55765 0
M  V30 628 C 55.5997 -1.31831 1.94056 0
M  V30 629 C 56.6157 -1.52275 0.841925 0
M  V30 630 O 57.7917 -1.65759 1.14394 0
M  V30 631 C 54.8567 -2.65156 2.23368 0
M  V30 632 C 53.9177 -2.53173 3.46701 0
M  V30 633 C 53.1507 -3.8014 3.74606 0
M  V30 634 O 53.3737 -4.82343 3.04469 0
M  V30 635 O 52.3077 -3.78344 4.68123 0
M  V30 636 H 56.1337 -1.02347 2.85935 0
M  V30 637 H 53.7187 -0.441123 1.42739 0
M  V30 638 H 55.6007 -3.43929 2.43497 0
M  V30 639 H 54.2757 -2.94358 1.34666 0
M  V30 640 H 53.1827 -1.72662 3.31871 0
M  V30 641 H 54.5157 -2.28915 4.35728 0
M  V30 642 N 56.1678 -1.49265 -0.50573 0
M  V30 643 C 57.4078 -1.60128 -1.27038 0
M  V30 644 C 57.7718 -0.279557 -1.89954 0
M  V30 645 O 58.9728 -0.263329 -2.67507 0
M  V30 646 C 57.2438 -2.72507 -2.31246 0
M  V30 647 S 58.8028 -3.0329 -3.17113 0
M  V30 648 H 55.6208 -0.564863 -0.4318 0
M  V30 649 H 58.2228 -1.86902 -0.573397 0
M  V30 650 H 56.9268 -3.67068 -1.83546 0
M  V30 651 H 56.4578 -2.4771 -3.05619 0
M  V30 652 H 58.4728 -2.44448 -4.31809 0
M  V30 653 N 57.6459 0.756429 -1.3826 0
M  V30 654 C 58.8939 1.51248 -1.34047 0
M  V30 655 C 59.2149 1.94875 0.0698372 0
M  V30 656 O 58.4849 1.67436 1.01696 0
M  V30 657 H 57.0649 0.561018 -0.493222 0
M  V30 658 H 59.7269 0.899347 -1.7291 0
M  V30 659 H 58.8229 2.40472 -1.98947 0
M  V30 660 N 59.124 1.23083 0.984299 0
M  V30 661 C 60.371 1.06057 1.72505 0
M  V30 662 C 60.699 -0.403105 1.90277 0
M  V30 663 O 59.954 -1.3149 1.44944 0
M  V30 664 C 60.253 1.72673 3.1292 0
M  V30 665 C 59.919 3.22586 3.15038 0
M  V30 666 C 58.581 3.63489 3.15324 0
M  V30 667 C 60.933 4.185 3.10657 0
M  V30 668 C 58.261 4.98772 3.08939 0
M  V30 669 C 60.613 5.53769 3.05814 0
M  V30 670 C 59.277 5.94041 3.04419 0
M  V30 671 H 58.547 0.388091 0.631242 0
M  V30 672 H 61.194 1.52963 1.15215 0
M  V30 673 H 59.499 1.18116 3.73572 0
M  V30 674 H 61.196 1.56982 3.68996 0
M  V30 675 H 57.786 2.90022 3.15571 0
M  V30 676 H 61.97 3.87911 3.09579 0
M  V30 677 H 57.226 5.29193 3.0621 0
M  V30 678 H 61.4 6.27808 3.0138 0
M  V30 679 H 59.027 6.98833 2.99227 0
M  V30 680 N 60.6021 -1.18246 1.0419 0
M  V30 681 C 61.8791 -1.84121 0.660208 0
M  V30 682 C 62.2591 -1.92778 -0.860221 0
M  V30 683 O 61.6071 -1.45464 -1.76217 0
M  V30 684 C 61.8171 -3.22355 1.33747 0
M  V30 685 C 63.1651 -3.98376 1.46906 0
M  V30 686 O 64.1891 -3.31799 1.29568 0
M  V30 687 O 63.0481 -5.17665 1.75171 0
M  V30 688 H 60.1421 -0.794036 0.231161 0
M  V30 689 H 62.6881 -1.25628 1.14087 0
M  V30 690 H 61.4601 -3.10964 2.37522 0
M  V30 691 H 61.0831 -3.88506 0.845515 0
M  V30 692 N 62.0802 -0.821533 -1.34494 0
M  V30 693 C 63.4912 -0.467956 -1.8074 0
M  V30 694 C 63.8422 1.01151 -1.68116 0
M  V30 695 O 62.9672 1.78707 -1.22036 0
M  V30 696 C 63.5622 -0.842627 -3.28154 0
M  V30 697 C 62.1212 -0.541439 -3.72485 0
M  V30 698 C 61.2682 -1.06028 -2.56229 0
M  V30 699 H 64.2192 -1.01183 -1.22261 0
M  V30 700 H 64.2402 -0.145876 -3.8022 0
M  V30 701 H 63.7522 -1.91945 -3.37311 0
M  V30 702 H 61.8532 0.526034 -3.68868 0
M  V30 703 H 61.9662 -1.08453 -4.66663 0
M  V30 704 H 60.3302 -0.481892 -2.501 0
M  V30 705 H 61.1132 -2.14352 -2.68157 0
M  V30 706 N 63.5583 1.46682 -0.576371 0
M  V30 707 C 64.4913 2.27243 0.208731 0
M  V30 708 C 65.4693 1.35238 0.902746 0
M  V30 709 O 66.6533 1.64641 0.917904 0
M  V30 710 C 63.7803 3.12802 1.29896 0
M  V30 711 C 62.8263 4.20524 0.711457 0
M  V30 712 S 63.6593 5.33548 -0.456781 0
M  V30 713 C 64.8153 6.22673 0.634798 0
M  V30 714 H 65.0483 2.93484 -0.474838 0
M  V30 715 H 62.5813 1.50069 -0.363118 0
M  V30 716 H 64.5393 3.62661 1.92321 0
M  V30 717 H 63.2003 2.45887 1.95444 0
M  V30 718 H 62.3933 4.80191 1.53076 0
M  V30 719 H 61.9953 3.73645 0.162999 0
M  V30 720 H 64.2873 6.60181 1.52209 0
M  V30 721 H 65.2303 7.0806 0.0750311 0
M  V30 722 H 65.6383 5.56684 0.936092 0
M  V30 723 N 65.0364 0.313813 1.54444 0
M  V30 724 C 66.2614 -0.296681 2.05267 0
M  V30 725 C 66.6864 -1.45757 1.18897 0
M  V30 726 O 66.0444 -1.80239 0.195886 0
M  V30 727 C 66.0924 -0.71831 3.53373 0
M  V30 728 O 65.1964 -1.82175 3.69981 0
M  V30 729 H 64.5374 -0.0554061 0.661684 0
M  V30 730 H 67.0674 0.459387 1.99376 0
M  V30 731 H 67.0774 -1.00364 3.95463 0
M  V30 732 H 65.7524 0.130821 4.15694 0
M  V30 733 H 64.3294 -1.53598 3.39797 0
M  V30 734 N 66.5145 -1.57545 0.0417849 0
M  V30 735 C 67.9255 -1.80011 -0.495259 0
M  V30 736 C 68.2765 -0.953199 -1.71489 0
M  V30 737 O 67.4015 -0.167138 -2.15754 0
M  V30 738 C 67.9965 -3.26482 -0.905265 0
M  V30 739 C 66.5555 -3.499 -1.38734 0
M  V30 740 C 65.7025 -2.74979 -0.358056 0
M  V30 741 H 68.6535 -1.56425 0.267736 0
M  V30 742 H 68.6745 -3.36887 -1.76882 0
M  V30 743 H 68.1865 -3.88096 -0.017401 0
M  V30 744 H 66.2875 -2.93553 -2.29471 0
M  V30 745 H 66.4005 -4.58615 -1.38598 0
M  V30 746 H 64.7645 -2.40834 -0.828912 0
M  V30 747 H 65.5475 -3.39315 0.521561 0
M  V30 748 N 67.9926 0.231505 -1.5589 0
M  V30 749 C 68.9556 1.27028 -1.90779 0
M  V30 750 C 69.9556 1.40308 -0.785507 0
M  V30 751 O 71.1456 1.38744 -1.05336 0
M  V30 752 C 68.2776 2.64566 -2.14983 0
M  V30 753 H 69.4706 0.973017 -2.83677 0
M  V30 754 H 67.0236 0.471486 -1.49019 0
M  V30 755 H 67.7586 2.99406 -1.24604 0
M  V30 756 H 67.5436 2.56305 -2.96732 0
M  V30 757 H 69.0336 3.39543 -2.43105 0
M  V30 758 N 69.4707 1.49531 0.497807 0
M  V30 759 C 70.8867 1.36365 0.829266 0
M  V30 760 C 71.0867 0.399184 1.97506 0
M  V30 761 O 70.1427 -0.167977 2.51941 0
M  V30 762 C 71.4557 2.77153 1.16647 0
M  V30 763 C 73.0037 2.85877 1.27449 0
M  V30 764 C 73.4787 4.2744 1.64497 0
M  V30 765 N 74.9697 4.30265 1.7154 0
M  V30 766 C 75.7047 5.3677 2.01656 0
M  V30 767 N 75.2007 6.53516 2.29976 0
M  V30 768 N 76.9937 5.24189 2.02934 0
M  V30 769 H 69.1447 2.10831 -0.257703 0
M  V30 770 H 71.4077 0.946534 -0.0527091 0
M  V30 771 H 71.1137 3.49442 0.397872 0
M  V30 772 H 70.9877 3.12722 2.10915 0
M  V30 773 H 73.3747 2.13824 2.0338 0
M  V30 774 H 73.4557 2.53887 0.312244 0
M  V30 775 H 73.0997 5.00021 0.891151 0
M  V30 776 H 73.0297 4.56896 2.61827 0
M  V30 777 H 75.5207 3.4607 1.51802 0
M  V30 778 H 75.8337 7.30506 2.52153 0
M  V30 779 H 74.1787 6.56737 2.27425 0
M  V30 780 H 77.3697 4.31988 1.80289 0
M  V30 781 H 77.5427 6.07286 2.26071 0
M  V30 782 N 70.9488 -0.749086 1.3866 0
M  V30 783 C 72.1948 -1.51056 1.35314 0
M  V30 784 C 72.5278 -1.94121 -0.0553751 0
M  V30 785 O 71.8028 -1.65763 -1.01749 0
M  V30 786 C 72.0858 -2.76003 2.31288 0
M  V30 787 C 71.9388 -2.39047 3.8102 0
M  V30 788 C 73.2578 -3.78046 2.2532 0
M  V30 789 H 70.3768 -0.547972 0.492844 0
M  V30 790 H 73.0188 -0.857628 1.69543 0
M  V30 791 H 71.1688 -3.31716 2.02229 0
M  V30 792 H 72.8408 -1.89074 4.20771 0
M  V30 793 H 71.0838 -1.71449 3.98482 0
M  V30 794 H 71.7548 -3.28462 4.4364 0
M  V30 795 H 74.2308 -3.31884 2.50983 0
M  V30 796 H 73.1068 -4.63159 2.94576 0
M  V30 797 H 73.3678 -4.23957 1.25352 0
M  V30 798 N 72.4269 -1.23603 -0.977757 0
M  V30 799 C 73.8379 -1.06424 -1.53398 0
M  V30 800 C 74.1889 0.367578 -1.92726 0
M  V30 801 O 73.3139 1.25465 -1.76316 0
M  V30 802 C 73.9089 -1.92568 -2.78753 0
M  V30 803 C 72.4679 -1.79642 -3.30765 0
M  V30 804 C 71.6149 -1.88111 -2.03739 0
M  V30 805 H 74.5659 -1.37227 -0.797152 0
M  V30 806 H 74.5869 -1.45203 -3.51705 0
M  V30 807 H 74.0989 -2.96771 -2.50098 0
M  V30 808 H 72.1999 -0.782325 -3.64294 0
M  V30 809 H 72.3129 -2.63174 -4.00345 0
M  V30 810 H 70.6769 -1.31723 -2.17994 0
M  V30 811 H 71.4599 -2.93875 -1.77461 0
M  V30 812 N 73.905 1.17692 -1.04816 0
M  V30 813 C 75.152 1.87859 -0.75599 0
M  V30 814 C 75.48 1.80812 0.716752 0
M  V30 815 O 74.735 1.20819 1.53952 0
M  V30 816 C 75.034 3.37462 -1.17703 0
M  V30 817 C 74.7 3.64713 -2.65133 0
M  V30 818 C 73.362 3.71859 -3.05408 0
M  V30 819 C 75.714 3.76492 -3.60421 0
M  V30 820 C 73.042 3.88271 -4.39843 0
M  V30 821 C 75.394 3.94421 -4.94585 0
M  V30 822 C 74.058 3.99806 -5.3452 0
M  V30 823 H 73.328 0.687425 -0.276636 0
M  V30 824 H 75.975 1.39255 -1.31455 0
M  V30 825 H 74.28 3.88097 -0.537395 0
M  V30 826 H 75.977 3.90109 -0.928218 0
M  V30 827 H 72.567 3.59772 -2.32942 0
M  V30 828 H 76.751 3.70295 -3.30447 0
M  V30 829 H 72.007 3.90687 -4.70291 0
M  V30 830 H 76.181 4.02477 -5.68318 0
M  V30 831 H 73.808 4.12276 -6.38696 0
M  V30 832 N 75.3831 0.828654 1.34056 0
M  V30 833 C 76.6081 0.431637 2.02859 0
M  V30 834 C 77.0331 -0.956339 1.61975 0
M  V30 835 O 76.3911 -1.62338 0.807228 0
M  V30 836 C 76.4391 0.548323 3.56407 0
M  V30 837 O 75.5431 -0.429556 4.10157 0
M  V30 838 H 74.8841 0.176886 0.640006 0
M  V30 839 H 77.4141 1.12066 1.71179 0
M  V30 840 H 77.4241 0.426196 4.05768 0
M  V30 841 H 76.0991 1.5606 3.8551 0
M  V30 842 H 74.6761 -0.265836 3.71951 0
M  V30 843 N 76.8612 -1.46375 0.584142 0
M  V30 844 C 77.7942 -2.27351 -0.196676 0
M  V30 845 C 78.7722 -1.35715 -0.895561 0
M  V30 846 O 79.9562 -1.65126 -0.90916 0
M  V30 847 C 77.0832 -3.13486 -1.28235 0
M  V30 848 C 76.1292 -4.20896 -0.689145 0
M  V30 849 S 76.9622 -5.33299 0.48507 0
M  V30 850 C 78.1182 -6.23 -0.601767 0
M  V30 851 H 78.3512 -2.93228 0.490395 0
M  V30 852 H 75.8842 -1.49875 0.371071 0
M  V30 853 H 77.8422 -3.63676 -1.90395 0
M  V30 854 H 76.5032 -2.4692 -1.94138 0
M  V30 855 H 75.6962 -4.80997 -1.50527 0
M  V30 856 H 75.2982 -3.73726 -0.143181 0
M  V30 857 H 77.5902 -6.60979 -1.48705 0
M  V30 858 H 78.5332 -7.0809 -0.0374799 0
M  V30 859 H 78.9412 -5.57173 -0.906557 0
M  V30 860 N 78.3393 -0.321999 -1.54275 0
M  V30 861 C 79.2863 0.544664 -2.24281 0
M  V30 862 C 80.2563 1.1129 -1.23303 0
M  V30 863 O 81.4413 1.15354 -1.51981 0
M  V30 864 C 78.5813 1.70045 -3.00298 0
M  V30 865 C 77.6943 1.16159 -4.1609 0
M  V30 866 C 76.8293 2.28293 -4.79641 0
M  V30 867 C 75.8683 1.71648 -5.8754 0
M  V30 868 N 75.0053 2.77438 -6.44959 0
M  V30 869 H 79.8453 -0.0588907 -2.97942 0
M  V30 870 H 77.3823 -0.0408345 -1.47043 0
M  V30 871 H 79.3403 2.38054 -3.42616 0
M  V30 872 H 77.9703 2.27531 -2.28975 0
M  V30 873 H 77.0223 0.373092 -3.78566 0
M  V30 874 H 78.3343 0.707087 -4.93763 0
M  V30 875 H 77.4883 3.0421 -5.2492 0
M  V30 876 H 76.2273 2.77079 -4.01346 0
M  V30 877 H 75.2323 0.942282 -5.41665 0
M  V30 878 H 76.4573 1.23741 -6.67731 0
M  V30 879 H 74.4033 3.25519 -5.69538 0
M  V30 880 H 74.3203 2.36547 -7.1804 0
M  V30 881 H 75.5883 3.53189 -6.94894 0
M  V30 882 N 79.8174 1.5752 -0.0501392 0
M  V30 883 C 81.0644 1.9265 0.623874 0
M  V30 884 C 81.3924 0.928411 1.70912 0
M  V30 885 O 80.6474 -0.0594525 1.9561 0
M  V30 886 C 80.9464 3.34467 1.25963 0
M  V30 887 C 80.6124 4.49883 0.302689 0
M  V30 888 C 79.2744 4.81184 0.0393636 0
M  V30 889 C 81.6264 5.20002 -0.353205 0
M  V30 890 C 78.9544 5.79951 -0.887308 0
M  V30 891 C 81.3064 6.1976 -1.26806 0
M  V30 892 C 79.9704 6.49491 -1.54007 0
M  V30 893 H 79.2404 0.704957 0.228292 0
M  V30 894 H 81.8874 1.91146 -0.116398 0
M  V30 895 H 80.1924 3.32333 2.07514 0
M  V30 896 H 81.8894 3.58928 1.78806 0
M  V30 897 H 78.4794 4.25457 0.518109 0
M  V30 898 H 82.6634 4.96033 -0.162854 0
M  V30 899 H 77.9194 6.01322 -1.10553 0
M  V30 900 H 82.0934 6.73205 -1.78236 0
M  V30 901 H 79.7204 7.25837 -2.25976 0
M  V30 902 N 81.2955 -0.223234 1.56011 0
M  V30 903 C 82.5425 -0.947875 1.78946 0
M  V30 904 C 82.8705 -1.844 0.618608 0
M  V30 905 O 82.1255 -1.91629 -0.397093 0
M  V30 906 C 82.4245 -1.81948 3.0762 0
M  V30 907 C 82.0905 -1.07672 4.37856 0
M  V30 908 C 80.7525 -0.871544 4.73242 0
M  V30 909 C 83.1045 -0.552081 5.18268 0
M  V30 910 C 80.4325 -0.129791 5.86556 0
M  V30 911 C 82.7845 0.17632 6.32354 0
M  V30 912 C 81.4485 0.39277 6.66343 0
M  V30 913 H 80.7185 -0.346852 0.654809 0
M  V30 914 H 83.3655 -0.216171 1.90276 0
M  V30 915 H 81.6705 -2.61899 2.91404 0
M  V30 916 H 83.3675 -2.38227 3.22566 0
M  V30 917 H 79.9575 -1.24662 4.1007 0
M  V30 918 H 84.1415 -0.698076 4.91366 0
M  V30 919 H 79.3975 0.048153 6.11381 0
M  V30 920 H 83.5715 0.590367 6.93893 0
M  V30 921 H 81.1985 0.969466 7.53993 0
M  V30 922 N 82.7736 -1.49793 -0.48987 0
M  V30 923 C 83.7036 -1.70201 -1.59856 0
M  V30 924 C 84.6846 -0.55076 -1.60937 0
M  V30 925 O 85.8696 -0.787841 -1.77501 0
M  V30 926 C 82.9996 -1.77882 -2.98287 0
M  V30 927 C 81.9536 -2.92907 -3.12073 0
M  V30 928 C 81.2796 -2.85712 -4.51965 0
M  V30 929 C 82.5796 -4.3369 -2.91051 0
M  V30 930 H 84.2736 -2.63025 -1.43032 0
M  V30 931 H 81.8196 -1.26574 -0.686664 0
M  V30 932 H 83.7726 -1.90744 -3.75759 0
M  V30 933 H 82.4966 -0.816653 -3.16225 0
M  V30 934 H 81.1556 -2.79665 -2.37029 0
M  V30 935 H 80.8036 -1.8738 -4.66795 0
M  V30 936 H 80.5036 -3.62921 -4.62128 0
M  V30 937 H 82.0276 -3.00598 -5.31482 0
M  V30 938 H 83.4416 -4.47555 -3.58284 0
M  V30 939 H 81.8386 -5.12205 -3.12675 0
M  V30 940 H 82.9086 -4.47362 -1.87071 0
M  V30 941 N 84.2517 0.741722 -1.39055 0
M  V30 942 C 85.4977 1.50336 -1.36113 0
M  V30 943 C 85.8307 1.94148 0.0450796 0
M  V30 944 O 85.1057 1.66301 1.00868 0
M  V30 945 C 85.3887 2.74773 -2.32749 0
M  V30 946 C 85.2417 2.37023 -3.82283 0
M  V30 947 C 86.5607 3.76846 -2.27322 0
M  V30 948 H 83.6797 0.545351 -0.495743 0
M  V30 949 H 86.3217 0.848624 -1.69995 0
M  V30 950 H 84.4717 3.30639 -2.03986 0
M  V30 951 H 86.1437 1.8684 -4.21768 0
M  V30 952 H 84.3867 1.69334 -3.99385 0
M  V30 953 H 85.0577 3.26104 -4.45376 0
M  V30 954 H 87.5337 3.30548 -2.5274 0
M  V30 955 H 86.4097 4.6159 -2.97028 0
M  V30 956 H 86.6707 4.23286 -1.27599 0
M  V30 957 N 85.7298 1.2412 0.971189 0
M  V30 958 C 86.6928 1.03156 2.04674 0
M  V30 959 C 87.6928 -0.00990322 1.60797 0
M  V30 960 O 88.8828 0.230729 1.72665 0
M  V30 961 C 86.0148 0.562765 3.36223 0
M  V30 962 H 87.2078 1.98614 2.24705 0
M  V30 963 H 84.7608 1.06293 1.14593 0
M  V30 964 H 85.4958 -0.395176 3.21883 0
M  V30 965 H 85.2808 1.31441 3.69413 0
M  V30 966 H 86.7708 0.437015 4.15307 0
M  V30 967 N 87.2079 -1.17134 1.05439 0
M  V30 968 C 88.4569 -1.86791 0.761049 0
M  V30 969 C 88.7699 -1.82072 -0.714795 0
M  V30 970 O 89.9759 -2.47223 -1.12218 0
M  V30 971 C 88.4319 -3.35166 1.31117 0
M  V30 972 C 88.0399 -3.48381 2.81664 0
M  V30 973 C 89.7839 -4.10134 1.09499 0
M  V30 974 C 87.6909 -4.90793 3.29964 0
M  V30 975 H 86.6209 -0.699681 0.281002 0
M  V30 976 H 89.2719 -1.3226 1.27199 0
M  V30 977 H 87.6539 -3.8925 0.72803 0
M  V30 978 H 88.8279 -3.04502 3.45855 0
M  V30 979 H 87.1429 -2.86836 3.01851 0
M  V30 980 H 89.7399 -5.152 1.43084 0
M  V30 981 H 90.0829 -4.16287 0.0328772 0
M  V30 982 H 90.6159 -3.62264 1.64346 0
M  V30 983 H 87.3549 -4.89816 4.35616 0
M  V30 984 H 86.8749 -5.35333 2.70516 0
M  V30 985 H 88.5539 -5.59573 3.24787 0
M  V30 986 N 88.686 -0.835752 -1.33615 0
M  V30 987 C 89.914 -0.443344 -2.02094 0
M  V30 988 C 90.329 0.954522 -1.62894 0
M  V30 989 O 89.686 1.61982 -0.840723 0
M  V30 990 C 89.737 -0.550775 -3.5728 0
M  V30 991 O 89.458 -1.89356 -3.95065 0
M  V30 992 C 90.959 -0.154919 -4.43029 0
M  V30 993 H 88.179 -0.176359 -0.647409 0
M  V30 994 H 90.723 -1.12746 -1.70612 0
M  V30 995 H 88.878 0.0853997 -3.87306 0
M  V30 996 H 89.292 -1.87687 -4.89769 0
M  V30 997 H 90.766 -0.281144 -5.51284 0
M  V30 998 H 91.243 0.902863 -4.2982 0
M  V30 999 H 91.849 -0.765404 -4.18356 0
M  V30 1000 N 90.1641 1.46063 -0.591896 0
M  V30 1001 C 91.4111 2.02338 -0.0809991 0
M  V30 1002 C 91.7391 1.46228 1.28249 0
M  V30 1003 O 90.9941 0.620818 1.85592 0
M  V30 1004 C 91.2931 3.57391 0.0249813 0
M  V30 1005 C 90.9591 4.32583 -1.27211 0
M  V30 1006 C 89.6211 4.52844 -1.62745 0
M  V30 1007 C 91.9731 4.75687 -2.13005 0
M  V30 1008 C 89.3011 5.13462 -2.83855 0
M  V30 1009 C 91.6531 5.37644 -3.3335 0
M  V30 1010 C 90.3171 5.5613 -3.69155 0
M  V30 1011 H 89.5871 0.740407 -0.0296397 0
M  V30 1012 H 92.2341 1.75321 -0.770374 0
M  V30 1013 H 90.5391 3.83597 0.797537 0
M  V30 1014 H 92.2361 3.98621 0.436184 0
M  V30 1015 H 88.8261 4.17116 -0.985499 0
M  V30 1016 H 93.0101 4.59782 -1.86855 0
M  V30 1017 H 88.2661 5.25965 -3.11722 0
M  V30 1018 H 92.4401 5.7 -4.00092 0
M  V30 1019 H 90.0671 6.0287 -4.63089 0
M  V30 1020 N 91.6422 0.330177 1.54103 0
M  V30 1021 C 92.5722 -0.525353 2.27513 0
M  V30 1022 C 93.5532 -1.11383 1.2856 0
M  V30 1023 O 94.7382 -1.13773 1.57383 0
M  V30 1024 C 91.8682 -1.6831 3.03791 0
M  V30 1025 C 90.8222 -1.2236 4.10137 0
M  V30 1026 C 90.1482 -2.46882 4.74293 0
M  V30 1027 C 91.4482 -0.333697 5.21233 0
M  V30 1028 H 93.1422 0.087013 2.99274 0
M  V30 1029 H 90.6882 0.0432893 1.43935 0
M  V30 1030 H 92.6412 -2.28795 3.5388 0
M  V30 1031 H 91.3652 -2.32216 2.29659 0
M  V30 1032 H 90.0242 -0.64165 3.60941 0
M  V30 1033 H 89.6722 -3.09165 3.96769 0
M  V30 1034 H 89.3722 -2.16825 5.46133 0
M  V30 1035 H 90.8962 -3.08117 5.27159 0
M  V30 1036 H 92.3102 -0.845013 5.67038 0
M  V30 1037 H 90.7072 -0.125612 5.99969 0
M  V30 1038 H 91.7772 0.633724 4.80741 0
M  V30 1039 N 93.1203 -1.57491 0.0584922 0
M  V30 1040 C 94.0503 -2.14988 -0.911178 0
M  V30 1041 C 95.0313 -1.07343 -1.31952 0
M  V30 1042 O 96.2163 -1.35318 -1.39294 0
M  V30 1043 C 93.3463 -2.70078 -2.18347 0
M  V30 1044 C 92.3003 -3.82771 -1.91495 0
M  V30 1045 C 91.6263 -4.24408 -3.25241 0
M  V30 1046 C 92.9263 -5.07592 -1.23075 0
M  V30 1047 H 94.6203 -2.96263 -0.432246 0
M  V30 1048 H 92.1663 -1.42512 -0.206469 0
M  V30 1049 H 94.1193 -3.08943 -2.86587 0
M  V30 1050 H 92.8433 -1.86005 -2.68458 0
M  V30 1051 H 91.5023 -3.44389 -1.25664 0
M  V30 1052 H 91.1503 -3.37275 -3.73168 0
M  V30 1053 H 90.8503 -5.00366 -3.08071 0
M  V30 1054 H 92.3743 -4.65879 -3.94701 0
M  V30 1055 H 93.7883 -5.43857 -1.81362 0
M  V30 1056 H 92.1853 -5.88741 -1.16207 0
M  V30 1057 H 93.2553 -4.84454 -0.207847 0
M  V30 1058 N 94.5984 0.214957 -1.56127 0
M  V30 1059 C 95.8454 0.938372 -1.79446 0
M  V30 1060 C 96.1734 1.8407 -0.628378 0
M  V30 1061 O 95.4284 1.91837 0.386925 0
M  V30 1062 C 95.7274 1.80314 -3.0858 0
M  V30 1063 C 95.3934 1.05349 -4.3842 0
M  V30 1064 C 94.0554 0.846435 -4.73697 0
M  V30 1065 C 96.4074 0.524588 -5.18553 0
M  V30 1066 C 93.7354 0.098683 -5.86617 0
M  V30 1067 C 96.0874 -0.209853 -6.32252 0
M  V30 1068 C 94.7514 -0.428102 -6.66126 0
M  V30 1069 H 94.0214 0.343375 -0.656639 0
M  V30 1070 H 96.6684 0.206077 -1.90388 0
M  V30 1071 H 94.9734 2.6035 -2.92789 0
M  V30 1072 H 96.6704 2.36513 -3.23825 0
M  V30 1073 H 93.2604 1.22486 -4.10725 0
M  V30 1074 H 97.4444 0.672008 -4.91729 0
M  V30 1075 H 92.7004 -0.0805753 -6.11347 0
M  V30 1076 H 96.8744 -0.627157 -6.9357 0
M  V30 1077 H 94.5014 -1.00944 -7.53468 0
M  V30 1078 N 96.0765 1.50051 0.48192 0
M  V30 1079 C 97.3535 1.51009 1.2432 0
M  V30 1080 C 97.7335 0.248587 2.09631 0
M  V30 1081 O 97.0815 -0.768409 2.15192 0
M  V30 1082 C 97.2915 2.79981 2.08355 0
M  V30 1083 C 98.6395 3.3022 2.66908 0
M  V30 1084 O 99.6635 2.81228 2.18607 0
M  V30 1085 O 98.5225 4.15595 3.54884 0
M  V30 1086 H 95.6165 0.605239 0.563573 0
M  V30 1087 H 98.1625 1.62332 0.494627 0
M  V30 1088 H 96.9345 3.63275 1.45419 0
M  V30 1089 H 96.5575 2.7161 2.90368 0
M  V30 1090 N 97.5546 -0.734337 1.39446 0
M  V30 1091 C 98.4846 -1.86155 1.40955 0
M  V30 1092 C 99.4656 -1.67898 0.272827 0
M  V30 1093 O 100.651 -1.88207 0.478743 0
M  V30 1094 C 97.7806 -3.23912 1.25294 0
M  V30 1095 C 96.7346 -3.56808 2.36373 0
M  V30 1096 C 96.0606 -4.93508 2.058 0
M  V30 1097 C 97.3606 -3.59713 3.78687 0
M  V30 1098 H 99.0546 -1.8515 2.35287 0
M  V30 1099 H 96.6006 -0.889367 1.13253 0
M  V30 1100 H 98.5536 -4.02443 1.2497 0
M  V30 1101 H 97.2776 -3.25446 0.274308 0
M  V30 1102 H 95.9366 -2.80606 2.35914 0
M  V30 1103 H 95.5846 -4.91623 1.06374 0
M  V30 1104 H 95.2846 -5.16486 2.80208 0
M  V30 1105 H 96.8086 -5.74396 2.07128 0
M  V30 1106 H 98.2226 -4.2832 3.81071 0
M  V30 1107 H 96.6196 -3.94209 4.52459 0
M  V30 1108 H 97.6896 -2.59504 4.09617 0
M  V30 1109 N 99.0327 -1.24633 -0.964593 0
M  V30 1110 C 99.9427 -1.05859 -2.09359 0
M  V30 1111 C 100.959 0.00148855 -1.74 0
M  V30 1112 O 102.135 -0.197346 -2.00431 0
M  V30 1113 C 99.1997 -0.668879 -3.40187 0
M  V30 1114 C 98.2607 -1.80578 -3.89474 0
M  V30 1115 C 97.4937 -1.43457 -5.14058 0
M  V30 1116 O 97.7167 -0.325775 -5.69469 0
M  V30 1117 O 96.6507 -2.2613 -5.57807 0
M  V30 1118 H 100.477 -2.00516 -2.28094 0
M  V30 1119 H 98.0617 -1.03481 -1.0776 0
M  V30 1120 H 99.9437 -0.463211 -4.18846 0
M  V30 1121 H 98.6187 0.248536 -3.22744 0
M  V30 1122 H 97.5257 -2.06623 -3.11862 0
M  V30 1123 H 98.8587 -2.70208 -4.11398 0
M  V30 1124 N 100.511 1.16574 -1.06058 0
M  V30 1125 C 101.76 1.86385 -0.770944 0
M  V30 1126 C 102.073 1.82448 0.705129 0
M  V30 1127 O 103.279 2.47815 1.10905 0
M  V30 1128 C 101.735 3.34466 -1.32893 0
M  V30 1129 C 101.343 3.46883 -2.83507 0
M  V30 1130 C 103.087 4.09548 -1.11672 0
M  V30 1131 C 100.994 4.89036 -3.32562 0
M  V30 1132 H 99.9238 0.698181 -0.284709 0
M  V30 1133 H 102.575 1.31583 -1.27899 0
M  V30 1134 H 100.957 3.88859 -0.748662 0
M  V30 1135 H 102.131 3.02663 -3.47465 0
M  V30 1136 H 100.446 2.85232 -3.03368 0
M  V30 1137 H 103.043 5.14434 -1.45814 0
M  V30 1138 H 103.386 4.16264 -0.0549535 0
M  V30 1139 H 103.919 3.61387 -1.66265 0
M  V30 1140 H 100.658 4.87499 -4.38207 0
M  V30 1141 H 100.178 5.3389 -2.73351 0
M  V30 1142 H 101.857 5.57843 -3.2775 0
M  V30 1143 N 101.989 0.842826 1.3317 0
M  V30 1144 C 102.952 0.284065 2.27433 0
M  V30 1145 C 103.952 -0.54948 1.5112 0
M  V30 1146 O 105.142 -0.362699 1.70382 0
M  V30 1147 C 102.274 -0.599384 3.35589 0
M  V30 1148 H 103.467 1.11589 2.78366 0
M  V30 1149 H 101.02 0.616221 1.4364 0
M  V30 1150 H 101.755 -1.45349 2.89904 0
M  V30 1151 H 101.54 -0.00291266 3.921 0
M  V30 1152 H 103.03 -0.983488 4.05854 0
M  V30 1153 N 103.467 -1.45747 0.599634 0
M  V30 1154 C 104.397 -2.33235 -0.111306 0
M  V30 1155 C 105.378 -1.46359 -0.866781 0
M  V30 1156 O 106.563 -1.75146 -0.838904 0
M  V30 1157 C 103.693 -3.28932 -1.11451 0
M  V30 1158 C 102.647 -4.25381 -0.472772 0
M  V30 1159 C 101.973 -5.1071 -1.58365 0
M  V30 1160 C 103.273 -5.18831 0.600948 0
M  V30 1161 H 104.967 -2.92927 0.61919 0
M  V30 1162 H 102.513 -1.40857 0.299215 0
M  V30 1163 H 104.466 -3.89002 -1.62036 0
M  V30 1164 H 103.19 -2.67381 -1.8755 0
M  V30 1165 H 101.849 -3.66598 0.0121472 0
M  V30 1166 H 101.497 -4.45533 -2.33473 0
M  V30 1167 H 101.197 -5.7604 -1.15982 0
M  V30 1168 H 102.721 -5.73647 -2.09194 0
M  V30 1169 H 104.135 -5.73019 0.179491 0
M  V30 1170 H 102.532 -5.92595 0.946076 0
M  V30 1171 H 103.602 -4.6174 1.48068 0
M  V30 1172 N 104.945 -0.338344 -1.53925 0
M  V30 1173 C 105.875 0.51328 -2.27789 0
M  V30 1174 C 106.856 1.107 -1.29149 0
M  V30 1175 O 108.041 1.12937 -1.57984 0
M  V30 1176 C 105.171 1.66697 -3.04679 0
M  V30 1177 C 104.125 1.20183 -4.1078 0
M  V30 1178 C 103.451 2.44363 -4.75595 0
M  V30 1179 C 104.751 0.30605 -5.21403 0
M  V30 1180 H 106.445 -0.102883 -2.99223 0
M  V30 1181 H 103.991 -0.0509219 -1.4391 0
M  V30 1182 H 105.944 2.26915 -3.55088 0
M  V30 1183 H 104.668 2.30995 -2.30887 0
M  V30 1184 H 103.327 0.622499 -3.61276 0
M  V30 1185 H 102.975 3.07057 -3.98403 0
M  V30 1186 H 102.675 2.13925 -5.47275 0
M  V30 1187 H 104.199 3.05317 -5.28786 0
M  V30 1188 H 105.613 0.814929 -5.67478 0
M  V30 1189 H 104.01 0.0937929 -6.00027 0
M  V30 1190 H 105.08 -0.65921 -4.80398 0
M  V30 1191 N 106.423 1.57458 -0.0668435 0
M  V30 1192 C 107.353 2.15468 0.899764 0
M  V30 1193 C 108.334 1.08042 1.31381 0
M  V30 1194 O 109.519 1.36054 1.38574 0
M  V30 1195 C 106.649 2.71232 2.16911 0
M  V30 1196 C 105.603 3.83781 1.89463 0
M  V30 1197 C 104.929 4.26127 3.22986 0
M  V30 1198 C 106.229 5.08238 1.20381 0
M  V30 1199 H 107.923 2.96488 0.416529 0
M  V30 1200 H 105.469 1.4262 0.198908 0
M  V30 1201 H 107.422 3.10458 2.84945 0
M  V30 1202 H 106.146 1.87426 2.67468 0
M  V30 1203 H 104.805 3.45051 1.23836 0
M  V30 1204 H 104.453 3.39249 3.71374 0
M  V30 1205 H 104.153 5.01993 3.05413 0
M  V30 1206 H 105.677 4.67966 3.92225 0
M  V30 1207 H 107.091 5.44811 1.78475 0
M  V30 1208 H 105.488 5.89349 1.13083 0
M  V30 1209 H 106.558 4.84558 0.182153 0
M  V30 1210 N 107.901 -0.206675 1.56239 0
M  V30 1211 C 109.312 -0.772383 1.69974 0
M  V30 1212 C 109.663 -1.84353 0.671436 0
M  V30 1213 O 108.788 -2.15695 -0.174491 0
M  V30 1214 C 109.383 -1.40779 3.08167 0
M  V30 1215 C 107.942 -1.92072 3.23706 0
M  V30 1216 C 107.089 -0.786347 2.65917 0
M  V30 1217 H 110.04 0.0182223 1.5869 0
M  V30 1218 H 110.061 -2.27696 3.04852 0
M  V30 1219 H 109.573 -0.627958 3.82986 0
M  V30 1220 H 107.674 -2.7281 2.53782 0
M  V30 1221 H 107.787 -2.09046 4.31087 0
M  V30 1222 H 106.151 -1.1976 2.24788 0
M  V30 1223 H 106.934 -0.0189416 3.43295 0
M  V30 1224 N 109.379 -1.50304 -0.473955 0
M  V30 1225 C 110.309 -1.71886 -1.58042 0
M  V30 1226 C 111.29 -0.567799 -1.60344 0
M  V30 1227 O 112.475 -0.806623 -1.76656 0
M  V30 1228 C 109.605 -1.81036 -2.96384 0
M  V30 1229 C 108.559 -2.962 -3.08949 0
M  V30 1230 C 107.885 -2.9049 -4.48909 0
M  V30 1231 C 109.185 -4.36752 -2.86434 0
M  V30 1232 H 110.879 -2.64527 -1.40234 0
M  V30 1233 H 108.425 -1.27295 -0.673201 0
M  V30 1234 H 110.378 -1.94719 -3.73714 0
M  V30 1235 H 109.102 -0.850147 -3.15341 0
M  V30 1236 H 107.761 -2.82164 -2.3405 0
M  V30 1237 H 107.409 -1.92321 -4.64781 0
M  V30 1238 H 107.109 -3.67802 -4.58253 0
M  V30 1239 H 108.633 -3.06218 -5.28264 0
M  V30 1240 H 110.047 -4.5133 -3.53517 0
M  V30 1241 H 108.444 -5.15493 -3.07225 0
M  V30 1242 H 109.514 -4.49321 -1.82316 0
M  V30 1243 N 110.857 0.726932 -1.39834 0
M  V30 1244 C 112.268 1.30558 -1.3346 0
M  V30 1245 C 112.619 1.962 -0.00273003 0
M  V30 1246 O 111.744 1.96826 0.899371 0
M  V30 1247 C 112.339 2.37404 -2.41713 0
M  V30 1248 C 110.898 2.90921 -2.38835 0
M  V30 1249 C 110.045 1.64578 -2.2318 0
M  V30 1250 H 112.996 0.523862 -1.49804 0
M  V30 1251 H 113.017 3.17984 -2.08966 0
M  V30 1252 H 112.529 1.89599 -3.38635 0
M  V30 1253 H 110.63 3.42985 -1.45575 0
M  V30 1254 H 110.743 3.43487 -3.33997 0
M  V30 1255 H 109.107 1.89219 -1.70494 0
M  V30 1256 H 109.89 1.18814 -3.22084 0
M  V30 1257 N 112.336 1.25143 0.95797 0
M  V30 1258 C 113.582 1.10863 1.70531 0
M  V30 1259 C 113.937 -0.347391 1.89238 0
M  V30 1260 O 113.23 -1.25262 1.44983 0
M  V30 1261 C 113.424 1.79272 3.09187 0
M  V30 1262 C 113.253 3.31376 3.04006 0
M  V30 1263 C 112.023 4.0062 3.07948 0
M  V30 1264 C 114.221 4.27825 2.8543 0
M  V30 1265 N 112.203 5.39526 2.9289 0
M  V30 1266 C 113.574 5.53794 2.78769 0
M  V30 1267 C 115.629 4.1828 2.70085 0
M  V30 1268 C 114.332 6.7131 2.58331 0
M  V30 1269 C 116.358 5.35485 2.51017 0
M  V30 1270 C 115.72 6.60393 2.45073 0
M  V30 1271 H 111.819 0.460362 0.632132 0
M  V30 1272 H 114.403 1.58196 1.13499 0
M  V30 1273 H 112.574 1.34439 3.64391 0
M  V30 1274 H 114.306 1.57764 3.72683 0
M  V30 1275 H 111.061 3.51855 3.17009 0
M  V30 1276 H 111.485 6.12416 2.88574 0
M  V30 1277 H 116.127 3.22461 2.73457 0
M  V30 1278 H 113.845 7.67243 2.53701 0
M  V30 1279 H 117.431 5.29959 2.40073 0
M  V30 1280 H 116.311 7.49557 2.30509 0
M  V30 1281 N 113.814 -1.1601 1.06675 0
M  V30 1282 C 114.777 -2.18724 0.685001 0
M  V30 1283 C 115.777 -1.58496 -0.271246 0
M  V30 1284 O 116.967 -1.74119 -0.0531156 0
M  V30 1285 C 114.099 -3.40899 0.00853648 0
M  V30 1286 H 115.292 -2.54011 1.59431 0
M  V30 1287 H 112.845 -1.30352 0.862441 0
M  V30 1288 H 113.58 -3.11173 -0.913337 0
M  V30 1289 H 113.365 -3.8587 0.696204 0
M  V30 1290 H 114.855 -4.16886 -0.24414 0
M  V30 1291 N 115.292 -0.849877 -1.32721 0
M  V30 1292 C 116.222 -0.306308 -2.31482 0
M  V30 1293 C 117.203 0.591952 -1.59468 0
M  V30 1294 O 118.388 0.513199 -1.87296 0
M  V30 1295 C 115.518 0.510204 -3.43532 0
M  V30 1296 C 114.472 -0.293209 -4.26994 0
M  V30 1297 C 113.798 0.647743 -5.30762 0
M  V30 1298 C 115.098 -1.51634 -4.99804 0
M  V30 1299 H 116.792 -1.13153 -2.77195 0
M  V30 1300 H 114.338 -0.545553 -1.33266 0
M  V30 1301 H 116.291 0.900856 -4.11658 0
M  V30 1302 H 115.015 1.36874 -2.96535 0
M  V30 1303 H 113.674 -0.665555 -3.60508 0
M  V30 1304 H 113.322 1.50299 -4.8002 0
M  V30 1305 H 113.022 0.11422 -5.87489 0
M  V30 1306 H 114.546 1.03567 -6.01753 0
M  V30 1307 H 115.96 -1.19824 -5.60638 0
M  V30 1308 H 114.357 -1.98745 -5.66234 0
M  V30 1309 H 115.427 -2.28018 -4.27943 0
M  V30 1310 N 116.77 1.45427 -0.607355 0
M  V30 1311 C 117.702 2.2871 0.149752 0
M  V30 1312 C 118.715 1.39937 0.831958 0
M  V30 1313 O 119.904 1.64313 0.697385 0
M  V30 1314 C 117.004 3.15673 1.23304 0
M  V30 1315 C 116.177 4.32722 0.637996 0
M  V30 1316 C 115.236 5.00895 1.61215 0
M  V30 1317 O 114.262 5.57697 1.13854 0
M  V30 1318 N 115.464 5.00159 2.94655 0
M  V30 1319 H 118.229 2.94328 -0.564882 0
M  V30 1320 H 115.79 1.55612 -0.446823 0
M  V30 1321 H 117.782 3.58144 1.88454 0
M  V30 1322 H 116.352 2.51965 1.8502 0
M  V30 1323 H 115.572 3.93734 -0.191572 0
M  V30 1324 H 116.86 5.08321 0.220665 0
M  V30 1325 H 116.258 4.553 3.35735 0
M  V30 1326 H 114.815 5.46495 3.55228 0
M  V30 1327 N 118.248 0.346503 1.53744 0
M  V30 1328 C 119.476 -0.25041 2.05379 0
M  V30 1329 C 119.891 -1.43979 1.22129 0
M  V30 1330 O 119.248 -1.80677 0.257321 0
M  V30 1331 C 119.299 -0.662575 3.55376 0
M  V30 1332 O 119.02 0.479515 4.35468 0
M  V30 1333 C 120.521 -1.31989 4.23195 0
M  V30 1334 H 117.741 -0.0478198 0.669294 0
M  V30 1335 H 120.285 0.499346 1.9831 0
M  V30 1336 H 118.44 -1.36227 3.62658 0
M  V30 1337 H 118.854 0.15037 5.24284 0
M  V30 1338 H 120.328 -1.55902 5.29527 0
M  V30 1339 H 120.805 -2.27436 3.75725 0
M  V30 1340 H 121.411 -0.662154 4.20114 0
M  V30 1341 N 119.726 -1.57421 0.075193 0
M  V30 1342 C 120.954 -1.97946 -0.602076 0
M  V30 1343 C 121.369 -0.953674 -1.62943 0
M  V30 1344 O 120.726 0.0592551 -1.82404 0
M  V30 1345 C 120.777 -3.38546 -1.26762 0
M  V30 1346 O 120.498 -4.37195 -0.281376 0
M  V30 1347 C 121.999 -3.93966 -2.03239 0
M  V30 1348 H 119.219 -0.650918 -0.162931 0
M  V30 1349 H 121.763 -2.03959 0.148601 0
M  V30 1350 H 119.918 -3.33609 -1.96936 0
M  V30 1351 H 120.332 -5.18975 -0.759267 0
M  V30 1352 H 121.806 -4.94555 -2.45193 0
M  V30 1353 H 122.283 -3.30693 -2.8903 0
M  V30 1354 H 122.889 -4.02315 -1.37924 0
M  V30 1355 N 121.204 0.198386 -1.56346 0
M  V30 1356 C 122.152 1.26538 -1.95169 0
M  V30 1357 C 123.146 1.47295 -0.836685 0
M  V30 1358 O 124.352 1.48195 -1.02167 0
M  V30 1359 H 120.727 0.424744 -0.620561 0
M  V30 1360 H 122.698 0.910904 -2.84157 0
M  V30 1361 C 121.447 2.6035 -2.30463 0
M  V30 1362 H 120.77 2.45192 -3.15786 0
M  V30 1363 H 122.21 3.33762 -2.61494 0
M  V30 1364 C 120.669 3.17096 -1.13806 0
M  V30 1365 O 121.199 3.99588 -0.41135 0
M  V30 1366 N 119.405 2.75795 -0.915736 0
M  V30 1367 H 118.952 2.08816 -1.50843 0
M  V30 1368 H 118.91 3.14101 -0.136979 0
M  V30 1369 N 122.682 1.50554 0.465978 0
M  V30 1370 C 123.612 1.72722 1.57128 0
M  V30 1371 C 124.593 0.576294 1.6004 0
M  V30 1372 O 125.778 0.81598 1.76225 0
M  V30 1373 C 122.908 1.82605 2.95419 0
M  V30 1374 C 121.862 2.97835 3.07373 0
M  V30 1375 C 121.188 2.92867 4.47363 0
M  V30 1376 C 122.488 4.38265 2.84114 0
M  V30 1377 H 124.182 2.65267 1.38829 0
M  V30 1378 H 121.728 1.2765 0.666441 0
M  V30 1379 H 123.681 1.96698 3.72677 0
M  V30 1380 H 122.405 0.866858 3.14886 0
M  V30 1381 H 121.064 2.83401 2.3255 0
M  V30 1382 H 120.712 1.94783 4.63755 0
M  V30 1383 H 120.412 3.70227 4.56296 0
M  V30 1384 H 121.936 3.09015 5.26633 0
M  V30 1385 H 123.35 4.53198 3.51118 0
M  V30 1386 H 121.747 5.17115 3.04487 0
M  V30 1387 H 122.817 4.50281 1.7993 0
M  V30 1388 N 124.16 -0.719506 1.40217 0
M  V30 1389 C 125.571 -1.29848 1.34151 0
M  V30 1390 C 125.922 -1.96196 0.0131349 0
M  V30 1391 O 125.047 -1.973 -0.88892 0
M  V30 1392 C 125.642 -2.36118 2.42968 0
M  V30 1393 C 124.201 -2.8965 2.40374 0
M  V30 1394 C 123.348 -1.63393 2.24049 0
M  V30 1395 H 126.299 -0.51591 1.5008 0
M  V30 1396 H 126.32 -3.16871 2.10649 0
M  V30 1397 H 125.832 -1.878 3.39636 0
M  V30 1398 H 123.933 -3.42208 1.47392 0
M  V30 1399 H 124.046 -3.4171 3.35814 0
M  V30 1400 H 122.41 -1.88312 1.71495 0
M  V30 1401 H 123.193 -1.17104 3.2271 0
M  V30 1402 N 125.638 -1.25649 -0.95132 0
M  V30 1403 C 126.568 -1.08808 -2.06599 0
M  V30 1404 C 127.549 0.00382547 -1.701 0
M  V30 1405 O 128.734 -0.166325 -1.93486 0
M  V30 1406 C 125.864 -0.709542 -3.39975 0
M  V30 1407 C 124.818 -1.75206 -3.90496 0
M  V30 1408 C 124.144 -1.22811 -5.20405 0
M  V30 1409 C 125.444 -3.15153 -4.16504 0
M  V30 1410 H 127.138 -2.02048 -2.20946 0
M  V30 1411 H 124.684 -0.972835 -1.06169 0
M  V30 1412 H 126.637 -0.578649 -4.17408 0
M  V30 1413 H 125.361 0.258556 -3.25575 0
M  V30 1414 H 124.02 -1.87145 -3.15234 0
M  V30 1415 H 123.668 -0.250145 -5.02378 0
M  V30 1416 H 123.368 -1.92492 -5.55176 0
M  V30 1417 H 124.892 -1.10968 -6.00432 0
M  V30 1418 H 126.306 -3.06349 -4.84586 0
M  V30 1419 H 124.703 -3.82333 -4.62538 0
M  V30 1420 H 125.773 -3.61966 -3.22658 0
M  V30 1421 N 127.117 1.15442 -1.07289 0
M  V30 1422 C 128.05 2.19135 -0.636798 0
M  V30 1423 C 129.028 1.58884 0.34562 0
M  V30 1424 O 130.212 1.86805 0.252195 0
M  V30 1425 C 127.339 3.38638 0.0650014 0
M  V30 1426 C 126.385 4.17412 -0.87576 0
M  V30 1427 S 127.218 4.79882 -2.37642 0
M  V30 1428 C 128.374 6.02753 -1.6864 0
M  V30 1429 H 128.607 2.55787 -1.51526 0
M  V30 1430 H 126.14 1.26394 -0.886793 0
M  V30 1431 H 128.098 4.07873 0.463664 0
M  V30 1432 H 126.759 3.00331 0.919801 0
M  V30 1433 H 125.952 5.02909 -0.33143 0
M  V30 1434 H 125.554 3.53722 -1.21478 0
M  V30 1435 H 127.846 6.70113 -0.997753 0
M  V30 1436 H 128.789 6.61754 -2.51967 0
M  V30 1437 H 129.197 5.52355 -1.16465 0
M  V30 1438 N 128.595 0.856903 1.32268 0
M  V30 1439 C 129.841 0.462069 1.97466 0
M  V30 1440 C 130.174 -0.980298 1.67642 0
M  V30 1441 O 129.449 -1.68824 0.965858 0
M  V30 1442 C 129.732 0.704336 3.53145 0
M  V30 1443 C 129.585 2.19529 3.9259 0
M  V30 1444 C 130.904 0.1622 4.39801 0
M  V30 1445 H 128.023 0.169357 0.717278 0
M  V30 1446 H 130.665 1.07574 1.56614 0
M  V30 1447 H 128.815 0.181999 3.88073 0
M  V30 1448 H 130.487 2.78387 3.67829 0
M  V30 1449 H 128.73 2.67292 3.41668 0
M  V30 1450 H 129.401 2.31549 5.01088 0
M  V30 1451 H 131.877 0.608905 4.11621 0
M  V30 1452 H 130.753 0.361265 5.4771 0
M  V30 1453 H 131.014 -0.935158 4.32096 0
M  V30 1454 N 130.073 -1.45103 0.615059 0
M  V30 1455 C 131.006 -2.27717 -0.148408 0
M  V30 1456 C 131.984 -1.37584 -0.866572 0
M  V30 1457 O 133.168 -1.67017 -0.87393 0
M  V30 1458 C 130.295 -3.16136 -1.21557 0
M  V30 1459 C 129.341 -4.22263 -0.599712 0
M  V30 1460 S 130.174 -5.3215 0.598081 0
M  V30 1461 C 131.33 -6.24137 -0.469484 0
M  V30 1462 H 131.563 -2.92121 0.552483 0
M  V30 1463 H 129.096 -1.49054 0.402778 0
M  V30 1464 H 131.054 -3.67633 -1.82638 0
M  V30 1465 H 129.715 -2.50982 -1.88857 0
M  V30 1466 H 128.908 -4.84081 -1.4029 0
M  V30 1467 H 128.51 -3.73945 -0.063876 0
M  V30 1468 H 130.802 -6.63984 -1.34652 0
M  V30 1469 H 131.745 -7.0801 0.112725 0
M  V30 1470 H 132.153 -5.58971 -0.788168 0
M  V30 1471 N 131.551 -0.354651 -1.53558 0
M  V30 1472 C 132.776 0.242153 -2.05981 0
M  V30 1473 C 133.201 1.42553 -1.2272 0
M  V30 1474 O 132.559 1.79656 -0.243604 0
M  V30 1475 C 132.607 0.624367 -3.55154 0
M  V30 1476 O 131.711 1.72301 -3.74681 0
M  V30 1477 H 131.052 0.0378432 -0.662921 0
M  V30 1478 H 133.582 -0.512087 -1.98088 0
M  V30 1479 H 133.592 0.898433 -3.97985 0
M  V30 1480 H 132.267 -0.240989 -4.15201 0
M  V30 1481 H 130.844 1.44535 -3.4375 0
M  V30 1482 N 133.029 1.57378 -0.0835403 0
M  V30 1483 C 134.254 1.98682 0.594987 0
M  V30 1484 C 134.679 0.961969 1.61641 0
M  V30 1485 O 134.037 -0.0709989 1.81161 0
M  V30 1486 C 134.085 3.38988 1.2296 0
M  V30 1487 O 133.189 3.39208 2.34546 0
M  V30 1488 H 132.53 0.646368 0.152002 0
M  V30 1489 H 135.06 2.03961 -0.161533 0
M  V30 1490 H 135.07 3.76431 1.57366 0
M  V30 1491 H 133.745 4.13107 0.481228 0
M  V30 1492 H 132.322 3.13548 2.01846 0
M  V30 1493 N 134.507 -0.190092 1.56449 0
M  V30 1494 C 135.437 -1.23816 1.97969 0
M  V30 1495 C 136.418 -1.47201 0.852395 0
M  V30 1496 O 137.603 -1.58854 1.1171 0
M  V30 1497 C 134.733 -2.5813 2.3235 0
M  V30 1498 C 133.687 -2.49348 3.47864 0
M  V30 1499 C 133.013 -3.8798 3.67934 0
M  V30 1500 C 134.313 -2.01424 4.81898 0
M  V30 1501 H 136.007 -0.89311 2.85769 0
M  V30 1502 H 133.553 -0.428177 1.37487 0
M  V30 1503 H 135.506 -3.31637 2.59991 0
M  V30 1504 H 134.23 -2.94386 1.41438 0
M  V30 1505 H 132.889 -1.78297 3.20321 0
M  V30 1506 H 132.537 -4.21597 2.74344 0
M  V30 1507 H 132.237 -3.82978 4.45648 0
M  V30 1508 H 133.761 -4.63101 3.97957 0
M  V30 1509 H 135.175 -2.64693 5.08538 0
M  V30 1510 H 133.572 -2.07413 5.63116 0
M  V30 1511 H 134.642 -0.967677 4.75146 0
M  V30 1512 N 135.985 -1.50799 -0.457987 0
M  V30 1513 C 136.915 -1.73553 -1.5621 0
M  V30 1514 C 137.896 -0.584774 -1.59732 0
M  V30 1515 O 139.081 -0.825314 -1.7579 0
M  V30 1516 C 136.211 -1.84169 -2.94447 0
M  V30 1517 C 135.165 -2.99461 -3.0579 0
M  V30 1518 C 134.491 -2.95235 -4.45803 0
M  V30 1519 C 135.791 -4.39766 -2.81786 0
M  V30 1520 H 137.485 -2.66 -1.37421 0
M  V30 1521 H 135.031 -1.28002 -0.659662 0
M  V30 1522 H 136.984 -1.98672 -3.71628 0
M  V30 1523 H 135.708 -0.883545 -3.14422 0
M  V30 1524 H 134.367 -2.8463 -2.31044 0
M  V30 1525 H 134.015 -1.97239 -4.62715 0
M  V30 1526 H 133.715 -3.72642 -4.54326 0
M  V30 1527 H 135.239 -3.11803 -5.24987 0
M  V30 1528 H 136.653 -4.55054 -3.4871 0
M  V30 1529 H 135.05 -5.18722 -3.0174 0
M  V30 1530 H 136.12 -4.51229 -1.7754 0
M  V30 1531 N 137.463 0.71206 -1.40597 0
M  V30 1532 C 138.393 1.83889 -1.43899 0
M  V30 1533 C 139.374 1.67442 -0.299504 0
M  V30 1534 O 140.559 1.87421 -0.508624 0
M  V30 1535 C 137.689 3.21877 -1.30431 0
M  V30 1536 C 136.643 3.53002 -2.42019 0
M  V30 1537 C 135.969 4.90172 -2.13626 0
M  V30 1538 C 137.269 3.53643 -3.84362 0
M  V30 1539 H 138.963 1.81383 -2.38203 0
M  V30 1540 H 136.509 0.871237 -1.14654 0
M  V30 1541 H 138.462 4.00404 -1.31357 0
M  V30 1542 H 137.186 3.24968 -0.326049 0
M  V30 1543 H 135.845 2.76818 -2.40349 0
M  V30 1544 H 135.493 4.89869 -1.14182 0
M  V30 1545 H 135.193 5.11962 -2.88389 0
M  V30 1546 H 136.717 5.71028 -2.1624 0
M  V30 1547 H 138.131 4.22203 -3.87837 0
M  V30 1548 H 136.528 3.86961 -4.58673 0
M  V30 1549 H 137.598 2.52954 -4.13693 0
M  V30 1550 N 138.941 1.26152 0.944643 0
M  V30 1551 C 140.19 1.10883 1.68487 0
M  V30 1552 C 140.503 -0.348153 1.92477 0
M  V30 1553 O 141.709 -0.621459 2.64292 0
M  V30 1554 C 140.165 1.93624 3.03377 0
M  V30 1555 C 139.773 3.43875 2.87148 0
M  V30 1556 C 141.517 1.86954 3.81115 0
M  V30 1557 C 139.424 4.18875 4.1749 0
M  V30 1558 H 138.354 0.41135 0.631907 0
M  V30 1559 H 141.005 1.50433 1.05082 0
M  V30 1560 H 139.387 1.46904 3.67743 0
M  V30 1561 H 140.561 3.98338 2.31653 0
M  V30 1562 H 138.876 3.51744 2.22856 0
M  V30 1563 H 141.473 2.40275 4.77673 0
M  V30 1564 H 141.816 0.839518 4.07747 0
M  V30 1565 H 142.349 2.31477 3.23517 0
M  V30 1566 H 139.088 5.22332 3.96043 0
M  V30 1567 H 138.608 3.69193 4.72712 0
M  V30 1568 H 140.287 4.27134 4.85968 0
M  V30 1569 N 140.419 -1.14872 1.07899 0
M  V30 1570 C 141.668 -1.85135 0.800499 0
M  V30 1571 C 141.981 -1.83547 -0.676014 0
M  V30 1572 O 143.187 -2.49548 -1.06948 0
M  V30 1573 C 141.643 -3.3231 1.38197 0
M  V30 1574 C 141.251 -3.42329 2.8899 0
M  V30 1575 C 142.995 -4.0772 1.18174 0
M  V30 1576 C 140.902 -4.83684 3.403 0
M  V30 1577 H 139.832 -0.693563 0.29578 0
M  V30 1578 H 142.483 -1.29532 1.29976 0
M  V30 1579 H 140.865 -3.87618 0.810431 0
M  V30 1580 H 142.039 -2.97097 3.52236 0
M  V30 1581 H 140.354 -2.80369 3.07867 0
M  V30 1582 H 142.951 -5.12049 1.5398 0
M  V30 1583 H 143.294 -4.16124 0.12117 0
M  V30 1584 H 143.827 -3.58696 1.71994 0
M  V30 1585 H 140.566 -4.80465 4.45907 0
M  V30 1586 H 140.086 -5.29474 2.81811 0
M  V30 1587 H 141.765 -5.52558 3.36584 0
M  V30 1588 N 141.898 -0.863906 -1.31812 0
M  V30 1589 C 143.147 -0.46801 -1.96195 0
M  V30 1590 C 143.46 0.983474 -1.69077 0
M  V30 1591 O 144.666 1.48523 -2.27273 0
M  V30 1592 C 143.122 -0.785995 -3.51212 0
M  V30 1593 C 142.73 -2.25383 -3.87178 0
M  V30 1594 C 144.474 -0.458274 -4.22019 0
M  V30 1595 C 142.381 -2.51455 -5.3528 0
M  V30 1596 H 141.311 -0.171283 -0.734287 0
M  V30 1597 H 143.962 -1.05597 -1.50072 0
M  V30 1598 H 142.344 -0.127359 -3.95795 0
M  V30 1599 H 143.518 -2.95502 -3.53575 0
M  V30 1600 H 141.833 -2.54698 -3.2942 0
M  V30 1601 H 144.43 -0.630369 -5.30971 0
M  V30 1602 H 144.773 0.600834 -4.11941 0
M  V30 1603 H 145.306 -1.07319 -3.8305 0
M  V30 1604 H 142.045 -3.56025 -5.50387 0
M  V30 1605 H 141.565 -1.85923 -5.70257 0
M  V30 1606 H 143.244 -2.35874 -6.02472 0
M  V30 1607 N 143.376 1.44774 -0.622745 0
M  V30 1608 C 144.306 2.33382 0.0741861 0
M  V30 1609 C 145.287 1.47719 0.843387 0
M  V30 1610 O 146.472 1.76458 0.810934 0
M  V30 1611 C 143.602 3.30663 1.06204 0
M  V30 1612 C 142.556 4.26079 0.405037 0
M  V30 1613 C 141.882 5.13165 1.5022 0
M  V30 1614 C 143.182 5.1781 -0.683414 0
M  V30 1615 H 144.876 2.91905 -0.665713 0
M  V30 1616 H 142.422 1.40363 -0.321587 0
M  V30 1617 H 144.375 3.9153 1.55827 0
M  V30 1618 H 143.099 2.70331 1.83272 0
M  V30 1619 H 141.758 3.66532 -0.0704683 0
M  V30 1620 H 141.406 4.49191 2.26355 0
M  V30 1621 H 141.106 5.77812 1.06803 0
M  V30 1622 H 142.63 5.76902 2.00041 0
M  V30 1623 H 144.044 5.72661 -0.270631 0
M  V30 1624 H 142.441 5.91015 -1.04023 0
M  V30 1625 H 143.511 4.59326 -1.55395 0
M  V30 1626 N 144.854 0.36279 1.53368 0
M  V30 1627 C 145.817 -0.472679 2.24273 0
M  V30 1628 C 146.817 -1.012 1.24961 0
M  V30 1629 O 148.007 -0.898194 1.49259 0
M  V30 1630 C 145.139 -1.66039 2.97731 0
M  V30 1631 H 146.332 0.14773 2.99536 0
M  V30 1632 H 143.885 0.114434 1.55881 0
M  V30 1633 H 144.62 -2.31896 2.26704 0
M  V30 1634 H 144.405 -1.28066 3.70596 0
M  V30 1635 H 145.895 -2.25252 3.51641 0
M  V30 1636 N 146.332 -1.57332 0.0918853 0
M  V30 1637 C 147.262 -2.16872 -0.865371 0
M  V30 1638 C 148.243 -1.10118 -1.29646 0
M  V30 1639 O 149.428 -1.38242 -1.36392 0
M  V30 1640 C 146.558 -2.74649 -2.12569 0
M  V30 1641 C 145.512 -3.86747 -1.83333 0
M  V30 1642 C 144.838 -4.31212 -3.16166 0
M  V30 1643 C 146.138 -5.10089 -1.1228 0
M  V30 1644 H 147.832 -2.97114 -0.369307 0
M  V30 1645 H 145.378 -1.42918 -0.176194 0
M  V30 1646 H 147.331 -3.14952 -2.7997 0
M  V30 1647 H 146.055 -1.91657 -2.64452 0
M  V30 1648 H 144.714 -3.46978 -1.18331 0
M  V30 1649 H 144.362 -3.45115 -3.6593 0
M  V30 1650 H 144.062 -5.06788 -2.97388 0
M  V30 1651 H 145.586 -4.74146 -3.84731 0
M  V30 1652 H 147 -5.47582 -1.69785 0
M  V30 1653 H 145.397 -5.91073 -1.03693 0
M  V30 1654 H 146.467 -4.84786 -0.105041 0
M  V30 1655 N 147.81 0.181792 -1.56548 0
M  V30 1656 C 149.035 0.920019 -1.85877 0
M  V30 1657 C 149.46 1.75494 -0.677021 0
M  V30 1658 O 148.818 1.77399 0.374056 0
M  V30 1659 C 148.866 1.78112 -3.13542 0
M  V30 1660 O 147.97 2.88152 -2.95029 0
M  V30 1661 H 147.311 0.258334 -0.611686 0
M  V30 1662 H 149.841 0.183092 -2.03779 0
M  V30 1663 H 149.851 2.18314 -3.44678 0
M  V30 1664 H 148.526 1.16777 -3.99169 0
M  V30 1665 H 147.103 2.51609 -2.75222 0
M  V30 1666 N 149.288 1.51039 0.449983 0
M  V30 1667 C 150.218 1.74379 1.55288 0
M  V30 1668 C 151.199 0.593236 1.5942 0
M  V30 1669 O 152.384 0.834625 1.7535 0
M  V30 1670 C 149.514 1.85728 2.93466 0
M  V30 1671 C 148.468 3.01078 3.04197 0
M  V30 1672 C 147.794 2.97595 4.44231 0
M  V30 1673 C 149.094 4.41254 2.7945 0
M  V30 1674 H 150.788 2.66725 1.36008 0
M  V30 1675 H 148.334 1.2835 0.652864 0
M  V30 1676 H 150.287 2.0064 3.70569 0
M  V30 1677 H 149.011 0.900207 3.13949 0
M  V30 1678 H 147.67 2.85851 2.29531 0
M  V30 1679 H 147.318 1.99691 4.61663 0
M  V30 1680 H 147.018 3.75046 4.52343 0
M  V30 1681 H 148.542 3.14583 5.23326 0
M  V30 1682 H 149.956 4.56897 3.46292 0
M  V30 1683 H 148.353 5.20315 2.98985 0
M  V30 1684 H 149.423 4.52164 1.75144 0
M  V30 1685 N 150.766 -0.704594 1.40972 0
M  V30 1686 C 151.729 -1.80035 1.41845 0
M  V30 1687 C 152.729 -1.57774 0.310474 0
M  V30 1688 O 153.919 -1.64613 0.56992 0
M  V30 1689 C 151.051 -3.18284 1.22098 0
M  V30 1690 H 152.244 -1.80658 2.3938 0
M  V30 1691 H 149.797 -0.911329 1.26982 0
M  V30 1692 H 150.532 -3.23306 0.253672 0
M  V30 1693 H 150.317 -3.35843 2.02366 0
M  V30 1694 H 151.807 -3.98289 1.25522 0
M  V30 1695 N 152.244 -1.26651 -0.937939 0
M  V30 1696 C 153.474 -1.15006 -1.71631 0
M  V30 1697 C 153.882 0.297026 -1.86854 0
M  V30 1698 O 153.225 1.21493 -1.37786 0
M  V30 1699 C 153.287 -1.74984 -3.14039 0
M  V30 1700 C 152.951 -3.24103 -3.2219 0
M  V30 1701 C 153.948 -4.20877 -3.05219 0
M  V30 1702 C 151.633 -3.64625 -3.45476 0
M  V30 1703 C 153.627 -5.56151 -3.11408 0
M  V30 1704 C 151.314 -5.00032 -3.513 0
M  V30 1705 C 152.312 -5.95604 -3.34282 0
M  V30 1706 O 152 -7.28545 -3.3982 0
M  V30 1707 H 151.732 -0.401183 -0.544085 0
M  V30 1708 H 154.286 -1.67832 -1.18413 0
M  V30 1709 H 152.516 -1.16624 -3.68695 0
M  V30 1710 H 154.205 -1.58199 -3.73802 0
M  V30 1711 H 154.971 -3.90908 -2.87081 0
M  V30 1712 H 150.85 -2.90718 -3.57777 0
M  V30 1713 H 154.394 -6.30727 -2.98043 0
M  V30 1714 H 150.291 -5.29659 -3.68959 0
M  V30 1715 H 151.059 -7.3686 -3.56343 0
M  V30 1716 N 153.722 1.14298 -1.08507 0
M  V30 1717 C 154.632 2.23027 -0.727753 0
M  V30 1718 C 155.648 1.71952 0.26619 0
M  V30 1719 O 156.824 2.011 0.109882 0
M  V30 1720 C 153.889 3.46403 -0.143541 0
M  V30 1721 C 152.95 4.12413 -1.19223 0
M  V30 1722 C 152.183 5.29899 -0.635798 0
M  V30 1723 O 152.406 5.67796 0.544393 0
M  V30 1724 O 151.34 5.85717 -1.38634 0
M  V30 1725 H 155.166 2.55945 -1.63481 0
M  V30 1726 H 152.751 1.22248 -0.858817 0
M  V30 1727 H 154.633 4.21018 0.179404 0
M  V30 1728 H 153.308 3.15206 0.736659 0
M  V30 1729 H 152.215 3.39667 -1.56772 0
M  V30 1730 H 153.548 4.47718 -2.04474 0
M  V30 1731 N 155.201 0.870884 1.31352 0
M  V30 1732 C 156.447 0.492314 1.97352 0
M  V30 1733 C 156.802 -0.945174 1.67583 0
M  V30 1734 O 156.095 -1.65674 0.962423 0
M  V30 1735 C 156.289 0.687157 3.50732 0
M  V30 1736 C 156.118 2.14203 3.95407 0
M  V30 1737 C 154.888 2.78382 4.21701 0
M  V30 1738 C 157.086 3.1144 4.09279 0
M  V30 1739 N 155.068 4.14611 4.52737 0
M  V30 1740 C 156.439 4.32702 4.44037 0
M  V30 1741 C 158.494 3.07418 3.91661 0
M  V30 1742 C 157.197 5.50463 4.63015 0
M  V30 1743 C 159.223 4.24438 4.11833 0
M  V30 1744 C 158.585 5.44463 4.46923 0
M  V30 1745 H 154.684 0.229206 0.747655 0
M  V30 1746 H 157.268 1.12568 1.5886 0
M  V30 1747 H 155.439 0.083384 3.8831 0
M  V30 1748 H 157.171 0.276883 4.03752 0
M  V30 1749 H 153.926 2.29326 4.14375 0
M  V30 1750 H 154.35 4.84928 4.72413 0
M  V30 1751 H 158.992 2.15732 3.6362 0
M  V30 1752 H 156.71 6.42666 4.89904 0
M  V30 1753 H 160.296 4.2278 3.99685 0
M  V30 1754 H 159.176 6.33504 4.62214 0
M  V30 1755 N 156.679 -1.44442 0.630414 0
M  V30 1756 C 157.609 -2.33418 -0.0618083 0
M  V30 1757 C 158.59 -1.48165 -0.835541 0
M  V30 1758 O 159.775 -1.76886 -0.801564 0
M  V30 1759 C 156.905 -3.31222 -1.04449 0
M  V30 1760 C 155.859 -4.26288 -0.382436 0
M  V30 1761 C 155.185 -5.13954 -1.47497 0
M  V30 1762 C 156.485 -5.1744 0.710865 0
M  V30 1763 H 158.179 -2.91548 0.681184 0
M  V30 1764 H 155.725 -1.40191 0.329026 0
M  V30 1765 H 157.678 -3.92351 -1.53748 0
M  V30 1766 H 156.402 -2.71299 -1.81836 0
M  V30 1767 H 155.061 -3.6649 0.0899054 0
M  V30 1768 H 154.709 -4.50385 -2.2397 0
M  V30 1769 H 154.409 -5.7837 -1.03737 0
M  V30 1770 H 155.933 -5.77955 -1.96979 0
M  V30 1771 H 157.347 -5.72509 0.300996 0
M  V30 1772 H 155.744 -5.90455 1.07156 0
M  V30 1773 H 156.814 -4.58496 1.57829 0
M  V30 1774 N 158.157 -0.370918 -1.53173 0
M  V30 1775 C 159.089 0.507823 -2.23503 0
M  V30 1776 C 160.102 1.04182 -1.251 0
M  V30 1777 O 161.291 0.947286 -1.5129 0
M  V30 1778 C 158.391 1.71447 -2.92334 0
M  V30 1779 C 157.564 1.31105 -4.17289 0
M  V30 1780 C 156.623 2.38035 -4.69282 0
M  V30 1781 O 155.649 2.00204 -5.32829 0
M  V30 1782 N 156.851 3.69697 -4.47554 0
M  V30 1783 H 159.616 -0.0946382 -2.99551 0
M  V30 1784 H 157.177 -0.196358 -1.60705 0
M  V30 1785 H 159.169 2.42469 -3.24023 0
M  V30 1786 H 157.739 2.22368 -2.19707 0
M  V30 1787 H 156.959 0.430462 -3.91843 0
M  V30 1788 H 158.247 1.0179 -4.98514 0
M  V30 1789 H 157.645 4.03205 -3.9679 0
M  V30 1790 H 156.202 4.36807 -4.8378 0
M  V30 1791 N 159.635 1.57281 -0.100228 0
M  V30 1792 C 160.582 2.14305 0.856858 0
M  V30 1793 C 161.552 1.06296 1.27634 0
M  V30 1794 O 162.737 1.34109 1.35718 0
M  V30 1795 C 159.877 2.73184 2.10866 0
M  V30 1796 C 158.99 3.95442 1.73925 0
M  V30 1797 C 158.125 4.42468 2.93931 0
M  V30 1798 C 157.164 5.57303 2.5314 0
M  V30 1799 N 156.301 5.99158 3.65997 0
M  V30 1800 H 161.141 2.95772 0.363726 0
M  V30 1801 H 158.678 1.46139 0.167858 0
M  V30 1802 H 160.636 3.05442 2.84185 0
M  V30 1803 H 159.266 1.94437 2.57671 0
M  V30 1804 H 158.318 3.69464 0.905554 0
M  V30 1805 H 159.63 4.78769 1.39935 0
M  V30 1806 H 158.784 4.76537 3.75496 0
M  V30 1807 H 157.523 3.58052 3.31134 0
M  V30 1808 H 156.528 5.22857 1.70003 0
M  V30 1809 H 157.753 6.43471 2.17075 0
M  V30 1810 H 155.699 5.17687 4.02909 0
M  V30 1811 H 155.616 6.77295 3.35869 0
M  V30 1812 H 156.884 6.3786 4.48057 0
M  V30 1813 N 161.113 -0.173488 1.56642 0
M  V30 1814 C 162.361 -0.888706 1.81512 0
M  V30 1815 C 162.682 -1.82875 0.676872 0
M  V30 1816 O 161.952 -1.93536 -0.303414 0
M  V30 1817 H 160.532 -0.331164 0.669582 0
M  V30 1818 H 163.194 -0.173823 1.94123 0
M  V30 1819 H 162.29 -1.46691 2.75478 0
M  V30 1820 N 162.591 -1.51276 -0.441967 0
M  V30 1821 C 163.521 -1.752 -1.54361 0
M  V30 1822 C 164.502 -0.601682 -1.59103 0
M  V30 1823 O 165.687 -0.843913 -1.74905 0
M  V30 1824 C 162.817 -1.87282 -2.92477 0
M  V30 1825 C 161.771 -3.02687 -3.02596 0
M  V30 1826 C 161.097 -2.99947 -4.42647 0
M  V30 1827 C 162.397 -4.4273 -2.77106 0
M  V30 1828 H 164.091 -2.67442 -1.34592 0
M  V30 1829 H 161.637 -1.28694 -0.646048 0
M  V30 1830 H 163.59 -2.02602 -3.695 0
M  V30 1831 H 162.314 -0.916844 -3.13467 0
M  V30 1832 H 160.973 -2.87065 -2.28012 0
M  V30 1833 H 160.621 -2.02136 -4.60597 0
M  V30 1834 H 160.321 -3.77439 -4.50348 0
M  V30 1835 H 161.845 -3.17354 -5.2165 0
M  V30 1836 H 163.259 -4.58727 -3.43864 0
M  V30 1837 H 161.656 -5.21893 -2.96222 0
M  V30 1838 H 162.726 -4.53087 -1.72744 0
M  V30 1839 N 164.069 0.697108 -1.41344 0
M  V30 1840 C 165.346 1.45154 -1.31109 0
M  V30 1841 C 165.726 2.11009 0.0620449 0
M  V30 1842 O 165.074 2.01571 1.07618 0
M  V30 1843 C 165.284 2.47223 -2.46337 0
M  V30 1844 C 166.632 3.1252 -2.87431 0
M  V30 1845 O 167.656 2.57547 -2.46065 0
M  V30 1846 O 166.515 4.12083 -3.58957 0
M  V30 1847 H 163.609 0.646365 -0.515889 0
M  V30 1848 H 166.155 0.727716 -1.53305 0
M  V30 1849 H 164.927 1.97204 -3.37974 0
M  V30 1850 H 164.55 3.27116 -2.2601 0
M  V30 1851 N 165.547 1.27147 0.931209 0
M  V30 1852 C 166.793 1.14455 1.68141 0
M  V30 1853 C 167.148 -0.307172 1.89932 0
M  V30 1854 O 166.441 -1.22158 1.47607 0
M  V30 1855 C 166.635 1.8579 3.05314 0
M  V30 1856 C 166.464 3.3775 2.96909 0
M  V30 1857 C 165.234 4.07062 2.99381 0
M  V30 1858 C 167.432 4.33783 2.76291 0
M  V30 1859 N 165.414 5.45618 2.8138 0
M  V30 1860 C 166.785 5.59582 2.6696 0
M  V30 1861 C 168.84 4.23915 2.61152 0
M  V30 1862 C 167.543 6.76639 2.44033 0
M  V30 1863 C 169.569 5.40689 2.39602 0
M  V30 1864 C 168.931 6.65443 2.3101 0
M  V30 1865 H 165.03 0.473667 0.622225 0
M  V30 1866 H 167.614 1.60568 1.10118 0
M  V30 1867 H 165.785 1.42138 3.61457 0
M  V30 1868 H 167.517 1.65634 3.69253 0
M  V30 1869 H 164.272 3.585 3.09475 0
M  V30 1870 H 164.696 6.184 2.75519 0
M  V30 1871 H 169.338 3.28189 2.66555 0
M  V30 1872 H 167.056 7.72451 2.3737 0
M  V30 1873 H 170.642 5.34932 2.28778 0
M  V30 1874 H 169.522 7.54277 2.14558 0
M  V30 1875 N 167.025 -1.13721 1.09112 0
M  V30 1876 C 168.253 -1.88773 0.846899 0
M  V30 1877 C 168.668 -1.7896 -0.601572 0
M  V30 1878 O 168.025 -1.15394 -1.41388 0
M  V30 1879 C 168.076 -3.3849 1.26913 0
M  V30 1880 O 167.797 -3.48043 2.66079 0
M  V30 1881 C 169.298 -4.30518 1.05682 0
M  V30 1882 H 166.518 -0.59772 0.304914 0
M  V30 1883 H 169.062 -1.43977 1.45227 0
M  V30 1884 H 167.217 -3.80881 0.707723 0
M  V30 1885 H 167.631 -4.4109 2.83795 0
M  V30 1886 H 169.105 -5.3391 1.40156 0
M  V30 1887 H 169.582 -4.392 -0.00563416 0
M  V30 1888 H 170.188 -3.93893 1.60402 0
M  V30 1889 N 168.503 -0.877838 -1.30888 0
M  V30 1890 C 169.413 -0.343096 -2.32078 0
M  V30 1891 C 170.429 0.551022 -1.65045 0
M  V30 1892 O 171.605 0.445854 -1.96403 0
M  V30 1893 C 168.67 0.439905 -3.43898 0
M  V30 1894 C 167.731 -0.483111 -4.26573 0
M  V30 1895 C 166.964 0.262616 -5.33053 0
M  V30 1896 O 167.187 1.48967 -5.50604 0
M  V30 1897 O 166.121 -0.383593 -6.00676 0
M  V30 1898 H 169.947 -1.18203 -2.79753 0
M  V30 1899 H 167.532 -0.64145 -1.34929 0
M  V30 1900 H 169.414 0.883504 -4.12034 0
M  V30 1901 H 168.089 1.25526 -2.98371 0
M  V30 1902 H 166.996 -0.975374 -3.61161 0
M  V30 1903 H 168.329 -1.26427 -4.75686 0
M  V30 1904 O 170.02 1.4153 -0.777912 0
M  V30 1905 H 170.711 1.9062 -0.344054 0
M  V30 END ATOM
M  V30 BEGIN BOND
M  V30 END BOND
M  V30 END CTAB
M  END
$$$$
