drugbank_target|P06280 Alpha-galactosidase A (DB05018)
 OpenBabel12092120143D

  0  0  0     0  0            999 V3000
M  V30 BEGIN CTAB
M  V30 COUNTS 6746 6839 0 0 0
M  V30 BEGIN ATOM
M  V30 1 H -0.908 1.98254 -0.117106 0
M  V30 2 N 0 1.576 0 0
M  V30 3 C 0.933 2.03868 1.02534 0
M  V30 4 C 1.911 0.928543 1.3348 0
M  V30 5 O 3.095 1.19667 1.45644 0
M  V30 6 C 0.222 2.43627 2.35294 0
M  V30 7 C -0.732 3.65373 2.2001 0
M  V30 8 S 0.101 5.13292 1.52614 0
M  V30 9 C 1.257 5.56322 2.86805 0
M  V30 10 H 1.49 2.90518 0.631377 0
M  V30 11 H -0.977 1.52953 0.210867 0
M  V30 12 H 0.981 2.67203 3.11629 0
M  V30 13 H -0.358 1.57376 2.7183 0
M  V30 14 H -1.165 3.90944 3.18086 0
M  V30 15 H -1.563 3.418 1.51819 0
M  V30 16 H 0.729 5.58782 3.83104 0
M  V30 17 H 1.672 6.56266 2.65933 0
M  V30 18 H 2.08 4.83886 2.90714 0
M  V30 19 N 1.4781 -0.272755 1.55222 0
M  V30 20 C 2.4101 -1.35946 1.8453 0
M  V30 21 C 3.4231 -1.45525 0.729818 0
M  V30 22 O 4.6121 -1.47337 1.00767 0
M  V30 23 C 1.7121 -2.74069 1.99347 0
M  V30 24 C 0.8851 -2.87079 3.30007 0
M  V30 25 C -0.0559 -4.05879 3.34886 0
M  V30 26 O -1.0299 -3.96626 4.08261 0
M  V30 27 N 0.1721 -5.17857 2.62307 0
M  V30 28 H 2.9371 -1.11149 2.78327 0
M  V30 29 H 0.4981 -0.462869 1.55142 0
M  V30 30 H 2.4901 -3.51838 1.99981 0
M  V30 31 H 1.0601 -2.91688 1.12415 0
M  V30 32 H 0.2801 -1.96193 3.41909 0
M  V30 33 H 1.5681 -2.92701 4.16177 0
M  V30 34 H 0.9661 -5.28261 2.02377 0
M  V30 35 H -0.4769 -5.93855 2.68663 0
M  V30 36 N 2.9562 -1.48159 -0.537278 0
M  V30 37 C 3.8862 -1.65029 -1.6519 0
M  V30 38 C 4.8672 -0.499281 -1.62607 0
M  V30 39 O 6.0522 -0.730972 -1.79918 0
M  V30 40 C 3.1822 -1.68303 -3.03795 0
M  V30 41 C 2.1362 -2.8283 -3.21234 0
M  V30 42 C 1.4622 -2.71189 -4.60826 0
M  V30 43 C 2.7622 -4.24211 -3.04701 0
M  V30 44 H 4.4562 -2.58341 -1.51328 0
M  V30 45 H 2.0022 -1.24325 -0.726585 0
M  V30 46 H 3.9552 -1.78693 -3.81637 0
M  V30 47 H 2.6792 -0.715635 -3.18663 0
M  V30 48 H 1.3382 -2.71983 -2.45807 0
M  V30 49 H 0.9862 -1.72435 -4.7252 0
M  V30 50 H 0.6862 -3.48035 -4.7344 0
M  V30 51 H 2.2102 -2.83537 -5.40777 0
M  V30 52 H 3.6242 -4.3593 -3.72341 0
M  V30 53 H 2.0212 -5.01998 -3.28813 0
M  V30 54 H 3.0912 -4.41184 -2.01209 0
M  V30 55 N 4.4343 0.785586 -1.36625 0
M  V30 56 C 5.8503 1.08419 -1.17122 0
M  V30 57 C 6.0503 2.015 0.00208491 0
M  V30 58 O 5.1063 2.43551 0.666278 0
M  V30 59 C 6.4193 1.69498 -2.48377 0
M  V30 60 C 7.9673 1.81821 -2.54775 0
M  V30 61 C 8.4423 2.46315 -3.86126 0
M  V30 62 N 9.9333 2.53779 -3.87492 0
M  V30 63 C 10.6683 3.045 -4.85868 0
M  V30 64 N 10.1643 3.55499 -5.94637 0
M  V30 65 N 11.9573 3.03247 -4.73284 0
M  V30 66 H 4.1083 0.167264 -2.1174 0
M  V30 67 H 6.3713 0.13682 -0.938075 0
M  V30 68 H 6.0773 1.08571 -3.34522 0
M  V30 69 H 5.9513 2.6896 -2.64462 0
M  V30 70 H 8.3383 2.41884 -1.69045 0
M  V30 71 H 8.4193 0.811532 -2.42586 0
M  V30 72 H 8.0633 1.86895 -4.72263 0
M  V30 73 H 7.9933 3.47561 -3.95612 0
M  V30 74 H 10.4843 2.17672 -3.08913 0
M  V30 75 H 10.7973 3.92562 -6.65669 0
M  V30 76 H 9.1423 3.5364 -5.98301 0
M  V30 77 H 12.3333 2.62696 -3.87438 0
M  V30 78 H 12.5063 3.42467 -5.50109 0
M  V30 79 N 5.9124 1.20967 1.01018 0
M  V30 80 C 6.8604 0.961223 2.1181 0
M  V30 81 C 7.8544 -0.0897034 1.69162 0
M  V30 82 O 9.0604 0.0612271 1.79896 0
M  V30 83 H 5.4354 0.29355 0.692338 0
M  V30 84 H 7.4064 1.90178 2.29946 0
M  V30 85 C 6.1554 0.536854 3.4353 0
M  V30 86 H 5.4784 1.33713 3.76777 0
M  V30 87 H 6.9184 0.402286 4.22087 0
M  V30 88 C 5.3774 -0.751574 3.2841 0
M  V30 89 O 5.9074 -1.80841 3.58691 0
M  V30 90 N 4.1134 -0.716079 2.81639 0
M  V30 91 H 3.6604 0.144236 2.57196 0
M  V30 92 H 3.6184 -1.57847 2.71904 0
M  V30 93 N 7.3905 -1.2043 1.01659 0
M  V30 94 C 8.8015 -1.71517 0.737482 0
M  V30 95 C 9.1525 -1.81547 -0.743973 0
M  V30 96 O 8.2775 -1.47803 -1.58061 0
M  V30 97 C 8.8725 -3.11515 1.33206 0
M  V30 98 C 7.4315 -3.59912 1.10183 0
M  V30 99 C 6.5785 -2.37116 1.43776 0
M  V30 100 H 9.5295 -1.05444 1.18606 0
M  V30 101 H 9.5505 -3.73575 0.722636 0
M  V30 102 H 9.0625 -3.04182 2.41028 0
M  V30 103 H 7.1635 -3.72577 0.0412756 0
M  V30 104 H 7.2765 -4.44731 1.78188 0
M  V30 105 H 5.6405 -2.39857 0.856778 0
M  V30 106 H 6.4235 -2.32424 2.52654 0
M  V30 107 N 8.8686 -0.792821 -1.36206 0
M  V30 108 C 9.7786 -0.194808 -2.3379 0
M  V30 109 C 10.7946 0.654869 -1.61206 0
M  V30 110 O 11.9706 0.569856 -1.9317 0
M  V30 111 C 9.0356 0.657721 -3.40404 0
M  V30 112 C 8.0966 -0.210849 -4.28782 0
M  V30 113 C 7.3296 0.601086 -5.30304 0
M  V30 114 O 7.5526 1.83682 -5.40016 0
M  V30 115 O 6.4866 -0.000808277 -6.019 0
M  V30 116 H 10.3126 -1.00172 -2.86704 0
M  V30 117 H 7.8976 -0.554341 -1.38735 0
M  V30 118 H 9.7796 1.14375 -4.05581 0
M  V30 119 H 8.4546 1.44247 -2.89784 0
M  V30 120 H 7.3616 -0.743714 -3.66633 0
M  V30 121 H 8.6946 -0.959195 -4.82763 0
M  V30 122 N 10.3467 1.47872 -0.545128 0
M  V30 123 C 11.2767 2.32661 0.197793 0
M  V30 124 C 12.2577 1.43041 0.920504 0
M  V30 125 O 13.4427 1.71912 0.90333 0
M  V30 126 C 10.5727 3.24569 1.23582 0
M  V30 127 C 9.5267 4.23333 0.630323 0
M  V30 128 C 8.8527 5.0448 1.77211 0
M  V30 129 C 10.1527 5.20704 -0.407974 0
M  V30 130 H 11.8467 2.95024 -0.510045 0
M  V30 131 H 9.3927 1.4187 -0.246731 0
M  V30 132 H 11.3457 3.8272 1.76362 0
M  V30 133 H 10.0697 2.60236 1.97344 0
M  V30 134 H 8.7287 3.6639 0.123922 0
M  V30 135 H 8.3767 4.36561 2.49847 0
M  V30 136 H 8.0767 5.71339 1.37281 0
M  V30 137 H 9.6007 5.65487 2.3034 0
M  V30 138 H 11.0147 5.7329 0.033305 0
M  V30 139 H 9.4117 5.95699 -0.725486 0
M  V30 140 H 10.4817 4.66917 -1.30828 0
M  V30 141 N 11.8248 0.280983 1.55075 0
M  V30 142 C 12.7748 -0.618585 2.19448 0
M  V30 143 C 13.7588 -1.11401 1.16098 0
M  V30 144 O 14.9508 -1.0581 1.41891 0
M  V30 145 C 12.0798 -1.79951 2.92357 0
M  V30 146 C 11.1658 -1.321 4.03002 0
M  V30 147 N 11.5568 -0.559044 5.02701 0
M  V30 148 C 9.8548 -1.60346 4.16179 0
M  V30 149 C 10.5558 -0.306722 5.80891 0
M  V30 150 N 9.5318 -0.880825 5.36416 0
M  V30 151 H 13.3338 -0.0286638 2.93886 0
M  V30 152 H 10.8478 0.0848104 1.62178 0
M  V30 153 H 12.8448 -2.45531 3.36927 0
M  V30 154 H 11.5048 -2.39333 2.19431 0
M  V30 155 H 12.5158 -0.205827 5.17491 0
M  V30 156 H 9.1928 -2.20621 3.54447 0
M  V30 157 H 10.5828 0.30391 6.71212 0
M  V30 158 N 13.3029 -1.57598 0.00835791 0
M  V30 159 C 14.2329 -2.1198 -0.979113 0
M  V30 160 C 15.2139 -1.03091 -1.35301 0
M  V30 161 O 16.3989 -1.30818 -1.43528 0
M  V30 162 C 13.5289 -2.62995 -2.26828 0
M  V30 163 C 12.4829 -3.76485 -2.03576 0
M  V30 164 C 11.8089 -4.13846 -3.38579 0
M  V30 165 C 13.1089 -5.0342 -1.39161 0
M  V30 166 H 14.8029 -2.94738 -0.526281 0
M  V30 167 H 12.3489 -1.41783 -0.251704 0
M  V30 168 H 14.3019 -2.99669 -2.96271 0
M  V30 169 H 13.0259 -1.7737 -2.7424 0
M  V30 170 H 11.6849 -3.40217 -1.36557 0
M  V30 171 H 11.3329 -3.25232 -3.83709 0
M  V30 172 H 11.0329 -4.90312 -3.23834 0
M  V30 173 H 12.5569 -4.53086 -4.09323 0
M  V30 174 H 13.9709 -5.37812 -1.98573 0
M  V30 175 H 12.3679 -5.84746 -1.34878 0
M  V30 176 H 13.4379 -4.83548 -0.361868 0
M  V30 177 N 14.781 0.264519 -1.55364 0
M  V30 178 C 16.029 0.993021 -1.76021 0
M  V30 179 C 16.35 1.86511 -0.569099 0
M  V30 180 O 15.62 1.91438 0.415735 0
M  V30 181 H 14.2 0.369639 -0.649135 0
M  V30 182 H 16.862 0.286707 -1.9278 0
M  V30 183 H 15.958 1.62502 -2.66457 0
M  V30 184 N 16.2591 1.48442 0.529413 0
M  V30 185 C 17.4991 1.58086 1.29569 0
M  V30 186 C 17.8631 0.249302 1.90375 0
M  V30 187 O 19.0641 0.220738 2.67892 0
M  V30 188 C 17.3351 2.68793 2.35552 0
M  V30 189 S 18.8941 2.98207 3.21898 0
M  V30 190 H 15.7121 0.557922 0.440732 0
M  V30 191 H 18.3141 1.85966 0.603059 0
M  V30 192 H 17.0181 3.64102 1.89363 0
M  V30 193 H 16.5491 2.42817 3.09522 0
M  V30 194 H 18.5641 2.37548 4.35644 0
M  V30 195 N 17.7372 -0.778329 1.37039 0
M  V30 196 C 18.7002 -1.87301 1.32102 0
M  V30 197 C 19.7002 -1.59198 0.226405 0
M  V30 198 O 20.8902 -1.67403 0.481861 0
M  V30 199 C 18.0222 -3.24309 1.05055 0
M  V30 200 H 19.2152 -1.93093 2.29467 0
M  V30 201 H 16.7682 -0.977358 1.21973 0
M  V30 202 H 17.5032 -3.24196 0.0819373 0
M  V30 203 H 17.2882 -3.46098 1.84279 0
M  V30 204 H 18.7782 -4.04382 1.04234 0
M  V30 205 N 19.2153 -1.21501 -1.00376 0
M  V30 206 C 20.1453 -0.999478 -2.11028 0
M  V30 207 C 21.1263 0.0759671 -1.6993 0
M  V30 208 O 22.3113 -0.0841106 -1.94018 0
M  V30 209 C 19.4413 -0.564709 -3.42678 0
M  V30 210 C 18.3953 -1.58486 -3.97576 0
M  V30 211 C 17.7213 -1.00628 -5.25146 0
M  V30 212 C 19.0213 -2.97204 -4.29496 0
M  V30 213 H 20.7153 -1.92495 -2.29317 0
M  V30 214 H 18.2613 -0.92693 -1.102 0
M  V30 215 H 20.2143 -0.401091 -4.19487 0
M  V30 216 H 18.9383 0.396411 -3.24185 0
M  V30 217 H 17.5973 -1.73606 -3.22888 0
M  V30 218 H 17.2453 -0.0368439 -5.02987 0
M  V30 219 H 16.9453 -1.68771 -5.62841 0
M  V30 220 H 18.4693 -0.854015 -6.04598 0
M  V30 221 H 19.8833 -2.8552 -4.97143 0
M  V30 222 H 18.2803 -3.62372 -4.78338 0
M  V30 223 H 19.3503 -3.47956 -3.3772 0
M  V30 224 N 20.6934 1.19889 -1.02296 0
M  V30 225 C 21.6564 2.21116 -0.603351 0
M  V30 226 C 22.6564 1.5738 0.329884 0
M  V30 227 O 23.8464 1.73802 0.117702 0
M  V30 228 C 20.9784 3.40696 0.117992 0
M  V30 229 H 22.1714 2.59754 -1.49893 0
M  V30 230 H 19.7244 1.33463 -0.813468 0
M  V30 231 H 20.4594 3.07569 1.0282 0
M  V30 232 H 20.2444 3.88188 -0.552511 0
M  V30 233 H 21.7344 4.15692 0.398696 0
M  V30 234 N 22.1715 0.800033 1.35784 0
M  V30 235 C 23.1015 0.220184 2.3246 0
M  V30 236 C 24.0825 -0.65073 1.57161 0
M  V30 237 O 25.2675 -0.582359 1.85263 0
M  V30 238 C 22.3975 -0.637353 3.41402 0
M  V30 239 C 21.3515 0.134531 4.27789 0
M  V30 240 C 20.6775 -0.844285 5.27992 0
M  V30 241 C 21.9775 1.32979 5.05088 0
M  V30 242 H 23.6715 1.02787 2.81203 0
M  V30 243 H 21.2175 0.495717 1.35199 0
M  V30 244 H 23.1705 -1.05302 4.08031 0
M  V30 245 H 21.8945 -1.47785 2.91251 0
M  V30 246 H 20.5535 0.531296 3.6273 0
M  V30 247 H 20.2015 -1.68011 4.74111 0
M  V30 248 H 19.9015 -0.332184 5.8666 0
M  V30 249 H 21.4255 -1.2583 5.97494 0
M  V30 250 H 22.8395 0.98934 5.64699 0
M  V30 251 H 21.2365 1.77593 5.7322 0
M  V30 252 H 22.3065 2.11978 4.36111 0
M  V30 253 N 23.6496 -1.47581 0.552962 0
M  V30 254 C 25.0656 -1.5818 0.212424 0
M  V30 255 C 25.2656 -1.55213 -1.28496 0
M  V30 256 O 24.3216 -1.45329 -2.06484 0
M  V30 257 C 25.6346 -2.88865 0.835318 0
M  V30 258 C 27.1826 -3.0244 0.806156 0
M  V30 259 C 27.6576 -4.35819 1.40804 0
M  V30 260 N 29.1486 -4.42444 1.37103 0
M  V30 261 C 29.8836 -5.44202 1.80641 0
M  V30 262 N 29.3796 -6.52795 2.32015 0
M  V30 263 N 31.1726 -5.35222 1.71738 0
M  V30 264 H 23.3236 -1.47753 1.52587 0
M  V30 265 H 25.5866 -0.702941 0.636064 0
M  V30 266 H 25.2926 -2.9676 1.88749 0
M  V30 267 H 25.1666 -3.7579 0.325848 0
M  V30 268 H 27.5536 -2.94144 -0.237317 0
M  V30 269 H 27.6346 -2.17068 1.35334 0
M  V30 270 H 27.2786 -4.44871 2.45056 0
M  V30 271 H 27.2086 -5.19916 0.836338 0
M  V30 272 H 29.6996 -3.6456 0.995202 0
M  V30 273 H 30.0126 -7.26609 2.63171 0
M  V30 274 H 28.3576 -6.53696 2.36023 0
M  V30 275 H 31.5486 -4.49284 1.31382 0
M  V30 276 H 31.7216 -6.14389 2.05987 0
M  V30 277 N 25.1277 -0.289203 -1.54924 0
M  V30 278 C 26.3747 0.323519 -1.99899 0
M  V30 279 C 26.7027 1.54797 -1.17762 0
M  V30 280 O 25.9577 1.94237 -0.238835 0
M  V30 281 C 26.2567 0.736119 -3.49737 0
M  V30 282 C 25.9227 -0.385276 -4.49251 0
M  V30 283 C 24.5847 -0.693156 -4.76181 0
M  V30 284 C 26.9367 -1.14021 -5.08575 0
M  V30 285 C 24.2647 -1.7593 -5.59701 0
M  V30 286 C 26.6167 -2.19619 -5.93254 0
M  V30 287 C 25.2807 -2.51026 -6.185 0
M  V30 288 H 24.5507 0.118384 -0.731482 0
M  V30 289 H 27.1977 -0.405847 -1.8715 0
M  V30 290 H 25.5027 1.54539 -3.60035 0
M  V30 291 H 27.1997 1.22118 -3.81953 0
M  V30 292 H 23.7897 -0.135202 -4.28387 0
M  V30 293 H 27.9737 -0.915611 -4.87781 0
M  V30 294 H 23.2297 -2.0075 -5.77503 0
M  V30 295 H 27.4037 -2.78581 -6.38252 0
M  V30 296 H 25.0307 -3.33772 -6.83008 0
M  V30 297 N 26.6058 1.57591 -0.0167156 0
M  V30 298 C 27.5358 2.12496 0.967858 0
M  V30 299 C 28.5168 1.03807 1.34752 0
M  V30 300 O 29.7018 1.31577 1.42833 0
M  V30 301 C 26.8318 2.64194 2.25431 0
M  V30 302 C 25.7858 3.77559 2.01576 0
M  V30 303 C 25.1118 4.15636 3.36379 0
M  V30 304 C 26.4118 5.04151 1.36489 0
M  V30 305 H 28.1058 2.95013 0.510643 0
M  V30 306 H 25.6518 1.41915 0.244181 0
M  V30 307 H 27.6048 3.01236 2.94678 0
M  V30 308 H 26.3288 1.78821 2.73296 0
M  V30 309 H 24.9878 3.40937 1.34751 0
M  V30 310 H 24.6358 3.27263 3.81979 0
M  V30 311 H 24.3358 4.92022 3.21229 0
M  V30 312 H 25.8598 4.5525 4.06915 0
M  V30 313 H 27.2738 5.38857 1.95718 0
M  V30 314 H 25.6708 5.85453 1.31776 0
M  V30 315 H 26.7408 4.83733 0.336219 0
M  V30 316 N 28.0839 -0.256276 1.55502 0
M  V30 317 C 29.0469 -1.30047 1.88734 0
M  V30 318 C 30.0469 -1.4154 0.763086 0
M  V30 319 O 31.2369 -1.40403 1.03115 0
M  V30 320 C 28.3689 -2.67953 2.10747 0
M  V30 321 H 29.5619 -1.01802 2.82093 0
M  V30 322 H 27.1149 -0.495134 1.4825 0
M  V30 323 H 27.8499 -3.01351 1.19825 0
M  V30 324 H 27.6349 -2.60993 2.92617 0
M  V30 325 H 29.1249 -3.43368 2.37673 0
M  V30 326 N 29.562 -1.4872 -0.521534 0
M  V30 327 C 30.492 -1.66771 -1.63431 0
M  V30 328 C 31.473 -0.516499 -1.62069 0
M  V30 329 O 32.658 -0.750013 -1.79132 0
M  V30 330 C 29.788 -1.71515 -3.01993 0
M  V30 331 C 28.742 -2.86222 -3.18216 0
M  V30 332 C 28.068 -2.76061 -4.57924 0
M  V30 333 C 29.368 -4.27419 -3.00184 0
M  V30 334 H 31.062 -2.59932 -1.48579 0
M  V30 335 H 28.608 -1.25089 -0.713358 0
M  V30 336 H 30.561 -1.82731 -3.7972 0
M  V30 337 H 29.285 -0.749393 -3.17886 0
M  V30 338 H 27.944 -2.74575 -2.42908 0
M  V30 339 H 27.592 -1.77437 -4.70665 0
M  V30 340 H 27.292 -3.53037 -4.69722 0
M  V30 341 H 28.816 -2.89256 -5.37739 0
M  V30 342 H 30.23 -4.39855 -3.67697 0
M  V30 343 H 28.627 -5.05458 -3.2347 0
M  V30 344 H 29.697 -4.43293 -1.96518 0
M  V30 345 N 31.0401 0.771051 -1.3745 0
M  V30 346 C 32.2861 1.5319 -1.32894 0
M  V30 347 C 32.6191 1.94008 0.0862511 0
M  V30 348 O 31.8941 1.64124 1.04373 0
M  V30 349 C 32.1771 2.79648 -2.26868 0
M  V30 350 C 32.0301 2.45079 -3.77169 0
M  V30 351 C 33.3491 3.81583 -2.19277 0
M  V30 352 H 30.4681 0.555744 -0.484064 0
M  V30 353 H 33.1101 0.884492 -1.68157 0
M  V30 354 H 31.2601 3.34891 -1.96926 0
M  V30 355 H 32.9321 1.95745 -4.1771 0
M  V30 356 H 31.1751 1.77767 -3.95704 0
M  V30 357 H 31.8461 3.35478 -4.38359 0
M  V30 358 H 34.3221 3.35835 -2.45671 0
M  V30 359 H 33.1981 4.67787 -2.87171 0
M  V30 360 H 33.4591 4.25897 -1.18592 0
M  V30 361 N 32.5182 1.22032 0.997298 0
M  V30 362 C 33.7432 1.06921 1.77715 0
M  V30 363 C 34.1682 -0.376226 1.84299 0
M  V30 364 O 33.5262 -1.27165 1.29223 0
M  V30 365 C 33.5742 1.67996 3.19076 0
M  V30 366 O 32.6782 0.930653 4.01762 0
M  V30 367 H 32.0192 0.375814 0.547412 0
M  V30 368 H 34.5492 1.61737 1.25309 0
M  V30 369 H 34.5592 1.72538 3.69723 0
M  V30 370 H 33.2342 2.73182 3.13599 0
M  V30 371 H 31.8112 0.960917 3.60307 0
M  V30 372 N 33.9963 -1.19345 1.0293 0
M  V30 373 C 35.2423 -1.89585 0.736824 0
M  V30 374 C 35.5973 -1.78148 -0.726703 0
M  V30 375 O 34.8903 -1.16332 -1.52242 0
M  V30 376 C 35.0843 -3.39292 1.12319 0
M  V30 377 C 34.9133 -3.65298 2.62273 0
M  V30 378 C 33.6833 -3.83304 3.29251 0
M  V30 379 C 35.8813 -3.6682 3.60482 0
M  V30 380 N 33.8633 -3.96944 4.68304 0
M  V30 381 C 35.2343 -3.86037 4.85155 0
M  V30 382 C 37.2893 -3.49848 3.54275 0
M  V30 383 C 35.9923 -3.9004 6.04369 0
M  V30 384 C 38.0183 -3.55129 4.72903 0
M  V30 385 C 37.3803 -3.74831 5.9639 0
M  V30 386 H 33.4793 -0.712856 0.321497 0
M  V30 387 H 36.0633 -1.43427 1.31669 0
M  V30 388 H 34.2343 -3.84172 0.571524 0
M  V30 389 H 35.9663 -3.97055 0.78292 0
M  V30 390 H 32.7213 -3.82211 2.79663 0
M  V30 391 H 33.1453 -4.07613 5.40538 0
M  V30 392 H 37.7873 -3.33572 2.59788 0
M  V30 393 H 35.5053 -4.05108 6.99223 0
M  V30 394 H 39.0913 -3.43287 4.69729 0
M  V30 395 H 37.9713 -3.78792 6.86649 0
M  V30 396 N 35.4744 -0.807222 -1.35358 0
M  V30 397 C 36.7514 -0.311126 -1.9311 0
M  V30 398 C 37.1314 1.19937 -1.73719 0
M  V30 399 O 36.4794 1.99918 -1.10657 0
M  V30 400 C 36.6894 -0.723226 -3.41424 0
M  V30 401 C 38.0374 -0.713078 -4.18569 0
M  V30 402 O 39.0614 -0.664811 -3.49941 0
M  V30 403 O 37.9204 -0.772022 -5.41019 0
M  V30 404 H 35.0144 -0.081526 -0.822972 0
M  V30 405 H 37.5604 -0.890962 -1.4443 0
M  V30 406 H 36.3324 -1.76426 -3.4927 0
M  V30 407 H 35.9554 -0.118232 -3.97424 0
M  V30 408 N 36.9525 1.47285 -0.560781 0
M  V30 409 C 38.2015 2.01668 -0.035895 0
M  V30 410 C 38.5145 1.44021 1.32353 0
M  V30 411 O 39.7205 1.90088 1.93853 0
M  V30 412 C 38.1765 3.59897 -0.0136659 0
M  V30 413 C 37.7845 4.26536 -1.37006 0
M  V30 414 C 39.5285 4.22017 0.458425 0
M  V30 415 C 37.4355 5.76782 -1.30675 0
M  V30 416 H 36.3655 0.753938 -0.00964879 0
M  V30 417 H 39.0165 1.69243 -0.709166 0
M  V30 418 H 37.3985 3.89301 0.725325 0
M  V30 419 H 38.5725 4.0877 -2.12705 0
M  V30 420 H 36.8875 3.76419 -1.78038 0
M  V30 421 H 39.4845 5.32124 0.524247 0
M  V30 422 H 39.8275 3.89437 1.4712 0
M  V30 423 H 40.3605 3.97159 -0.225818 0
M  V30 424 H 37.0995 6.13988 -2.29564 0
M  V30 425 H 36.6195 5.96875 -0.591622 0
M  V30 426 H 38.2985 6.39063 -1.01033 0
M  V30 427 N 38.4306 0.297415 1.54768 0
M  V30 428 C 39.8416 -0.195947 1.85669 0
M  V30 429 C 40.1926 -1.53707 1.21937 0
M  V30 430 O 39.3176 -2.10164 0.515754 0
M  V30 431 C 39.9126 -0.362318 3.36857 0
M  V30 432 C 38.4716 -0.799901 3.67802 0
M  V30 433 C 37.6186 0.0938578 2.77141 0
M  V30 434 H 40.5696 0.518538 1.4999 0
M  V30 435 H 40.5906 -1.19745 3.61167 0
M  V30 436 H 40.1026 0.613921 3.83214 0
M  V30 437 H 38.2036 -1.78682 3.26961 0
M  V30 438 H 38.3166 -0.621773 4.75048 0
M  V30 439 H 36.6806 -0.426254 2.51108 0
M  V30 440 H 37.4636 1.06639 3.26318 0
M  V30 441 N 39.9087 -1.5758 0.0250728 0
M  V30 442 C 41.1567 -1.91255 -0.653151 0
M  V30 443 C 41.4777 -0.901691 -1.729 0
M  V30 444 O 40.7477 0.0573785 -1.95816 0
M  V30 445 H 39.3277 -0.705942 -0.244243 0
M  V30 446 H 41.9897 -1.94767 0.0719209 0
M  V30 447 H 41.0857 -2.91752 -1.10847 0
M  V30 448 N 41.3868 0.248026 -1.55636 0
M  V30 449 C 42.3498 1.29044 -1.89421 0
M  V30 450 C 43.3498 1.41134 -0.770581 0
M  V30 451 O 44.5398 1.39854 -1.03858 0
M  V30 452 C 41.6718 2.66831 -2.12165 0
M  V30 453 H 42.8648 1.00305 -2.82629 0
M  V30 454 H 40.4178 0.487265 -1.48511 0
M  V30 455 H 41.1528 3.00711 -1.21422 0
M  V30 456 H 40.9378 2.59438 -2.93997 0
M  V30 457 H 42.4278 3.42103 -2.3949 0
M  V30 458 N 42.8649 1.48995 0.513639 0
M  V30 459 C 44.2809 1.35478 0.843682 0
M  V30 460 C 44.4809 0.378213 1.97919 0
M  V30 461 O 43.5369 -0.194689 2.51748 0
M  V30 462 C 44.8499 2.75901 1.1958 0
M  V30 463 C 46.3979 2.84509 1.30474 0
M  V30 464 C 46.8729 4.25671 1.69021 0
M  V30 465 N 48.3639 4.28422 1.76094 0
M  V30 466 C 49.0989 5.34601 2.07338 0
M  V30 467 N 48.5949 6.5104 2.36894 0
M  V30 468 N 50.3879 5.22007 2.08483 0
M  V30 469 H 42.5389 2.11092 -0.235328 0
M  V30 470 H 44.8019 0.947039 -0.0426669 0
M  V30 471 H 44.5079 3.49001 0.434913 0
M  V30 472 H 44.3819 3.10467 2.1422 0
M  V30 473 H 46.7689 2.11655 2.05637 0
M  V30 474 H 46.8499 2.53542 0.339155 0
M  V30 475 H 46.4939 4.99048 0.944135 0
M  V30 476 H 46.4239 4.54094 2.66658 0
M  V30 477 H 48.9149 3.44441 1.55464 0
M  V30 478 H 49.2279 7.2779 2.59887 0
M  V30 479 H 47.5729 6.54287 2.34378 0
M  V30 480 H 50.7639 4.30051 1.84861 0
M  V30 481 H 50.9369 6.04854 2.325 0
M  V30 482 N 44.343 -0.763751 1.37857 0
M  V30 483 C 45.306 -1.85889 1.34081 0
M  V30 484 C 46.306 -1.58949 0.243277 0
M  V30 485 O 47.496 -1.66882 0.499589 0
M  V30 486 C 44.628 -3.23176 1.08489 0
M  V30 487 H 45.821 -1.90648 2.31502 0
M  V30 488 H 43.374 -0.964367 1.23003 0
M  V30 489 H 44.109 -3.24091 0.116318 0
M  V30 490 H 43.894 -3.44124 1.8794 0
M  V30 491 H 45.384 -4.03254 1.08517 0
M  V30 492 N 45.8211 -1.22559 -0.990812 0
M  V30 493 C 46.7511 -1.0218 -2.09956 0
M  V30 494 C 47.7321 0.0579394 -1.70001 0
M  V30 495 O 48.9171 -0.104684 -1.93918 0
M  V30 496 C 46.0471 -0.601023 -3.4206 0
M  V30 497 C 45.0011 -1.62694 -3.95872 0
M  V30 498 C 44.3271 -1.06193 -5.24049 0
M  V30 499 C 45.6271 -3.01743 -4.2632 0
M  V30 500 H 47.3211 -1.94916 -2.27262 0
M  V30 501 H 44.8671 -0.938566 -1.09211 0
M  V30 502 H 46.8201 -0.445561 -4.19038 0
M  V30 503 H 45.5441 0.362005 -3.24588 0
M  V30 504 H 44.2031 -1.77021 -3.21028 0
M  V30 505 H 43.8511 -0.0901903 -5.02919 0
M  V30 506 H 43.5511 -1.74732 -5.61019 0
M  V30 507 H 45.0751 -0.918092 -6.03658 0
M  V30 508 H 46.4891 -2.90777 -4.94087 0
M  V30 509 H 44.8861 -3.67425 -4.74467 0
M  V30 510 H 45.9561 -3.51518 -3.34011 0
M  V30 511 N 47.2992 1.18797 -1.03562 0
M  V30 512 C 48.5762 1.84469 -0.650434 0
M  V30 513 C 48.9562 1.92319 0.870433 0
M  V30 514 O 48.3042 1.44528 1.76986 0
M  V30 515 C 48.5142 3.2306 -1.32036 0
M  V30 516 C 49.8622 3.9915 -1.44792 0
M  V30 517 O 50.8862 3.32481 -1.27806 0
M  V30 518 O 49.7452 5.18587 -1.72423 0
M  V30 519 H 46.8392 0.795251 -0.226946 0
M  V30 520 H 49.3852 1.26231 -1.13419 0
M  V30 521 H 48.1572 3.1222 -2.3587 0
M  V30 522 H 47.7802 3.88949 -0.8249 0
M  V30 523 N 48.7773 0.814389 1.34928 0
M  V30 524 C 49.7253 0.218424 2.31572 0
M  V30 525 C 50.7193 -0.636128 1.57002 0
M  V30 526 O 51.9253 -0.52842 1.72069 0
M  V30 527 H 48.3003 0.0518799 0.750208 0
M  V30 528 H 50.2713 1.04852 2.79372 0
M  V30 529 C 49.0203 -0.61207 3.4227 0
M  V30 530 H 48.3433 0.0361578 3.99784 0
M  V30 531 H 49.7833 -0.995317 4.12152 0
M  V30 532 C 48.2423 -1.78087 2.85984 0
M  V30 533 O 48.7723 -2.8787 2.80168 0
M  V30 534 N 46.9783 -1.59488 2.42924 0
M  V30 535 H 46.5253 -0.701874 2.47854 0
M  V30 536 H 46.4833 -2.37846 2.05613 0
M  V30 537 N 50.2554 -1.46986 0.568584 0
M  V30 538 C 51.5034 -2.02041 0.0487022 0
M  V30 539 C 51.8244 -1.44408 -1.31039 0
M  V30 540 O 51.0944 -0.623477 -1.85714 0
M  V30 541 H 49.6744 -0.746849 0.015014 0
M  V30 542 H 52.3364 -1.80257 0.741168 0
M  V30 543 H 51.4324 -3.12085 -0.0308961 0
M  V30 544 N 51.7335 -0.305618 -1.54608 0
M  V30 545 C 52.6635 0.561482 -2.26649 0
M  V30 546 C 53.6445 1.13415 -1.26772 0
M  V30 547 O 54.8295 1.16262 -1.55553 0
M  V30 548 C 51.9595 1.73122 -3.01075 0
M  V30 549 C 50.9135 1.2887 -4.08138 0
M  V30 550 C 50.2395 2.54396 -4.70305 0
M  V30 551 C 51.5395 0.416578 -5.20636 0
M  V30 552 H 53.2335 -0.0393902 -2.99374 0
M  V30 553 H 50.7795 -0.020385 -1.43986 0
M  V30 554 H 52.7325 2.34396 -3.50195 0
M  V30 555 H 51.4565 2.3584 -2.25936 0
M  V30 556 H 50.1155 0.698991 -3.59875 0
M  V30 557 H 49.7635 3.15439 -3.918 0
M  V30 558 H 49.4635 2.25486 -5.42614 0
M  V30 559 H 50.9875 3.16464 -5.2219 0
M  V30 560 H 52.4015 0.935116 -5.65622 0
M  V30 561 H 50.7985 0.221046 -5.99693 0
M  V30 562 H 51.8685 -0.557162 -4.81688 0
M  V30 563 N 53.2116 1.57565 -0.0334293 0
M  V30 564 C 54.1746 2.09393 0.932048 0
M  V30 565 C 55.1746 1.00986 1.25134 0
M  V30 566 O 56.3646 1.27129 1.19096 0
M  V30 567 C 53.4966 2.56338 2.2473 0
M  V30 568 H 54.6896 2.95984 0.483085 0
M  V30 569 H 52.2426 1.54819 0.21468 0
M  V30 570 H 52.9776 1.7309 2.74245 0
M  V30 571 H 52.7626 3.35542 2.02865 0
M  V30 572 H 54.2526 2.96646 2.93923 0
M  V30 573 N 54.6897 -0.239769 1.55765 0
M  V30 574 C 56.1057 -0.588624 1.48349 0
M  V30 575 C 56.3057 -1.88005 0.72502 0
M  V30 576 O 55.3617 -2.51186 0.257269 0
M  V30 577 C 56.6747 -0.68474 2.928 0
M  V30 578 C 58.2227 -0.77659 3.03213 0
M  V30 579 C 58.6977 -0.904207 4.48986 0
M  V30 580 N 60.1887 -0.968896 4.52953 0
M  V30 581 C 60.9237 -1.08703 5.63002 0
M  V30 582 N 60.4197 -1.17026 6.82845 0
M  V30 583 N 62.2127 -1.12074 5.50814 0
M  V30 584 H 54.3637 0.607911 2.03515 0
M  V30 585 H 56.6267 0.21083 0.924259 0
M  V30 586 H 56.3327 0.194284 3.51163 0
M  V30 587 H 56.2067 -1.55435 3.43686 0
M  V30 588 H 58.5937 -1.64606 2.44926 0
M  V30 589 H 58.6747 0.118315 2.55526 0
M  V30 590 H 58.3187 -0.0392633 5.07885 0
M  V30 591 H 58.2487 -1.81426 4.9436 0
M  V30 592 H 60.7397 -0.915633 3.6664 0
M  V30 593 H 61.0527 -1.25966 7.62465 0
M  V30 594 H 59.3977 -1.13971 6.85591 0
M  V30 595 H 62.5887 -1.05226 4.5612 0
M  V30 596 H 62.7617 -1.20936 6.36615 0
M  V30 597 N 56.1678 -1.49265 -0.50573 0
M  V30 598 C 57.3958 -1.62215 -1.28429 0
M  V30 599 C 57.8108 -0.291697 -1.86533 0
M  V30 600 O 57.1678 0.722233 -1.67601 0
M  V30 601 C 57.2188 -2.68735 -2.41793 0
M  V30 602 O 56.9398 -3.96619 -1.86078 0
M  V30 603 C 58.4408 -2.92346 -3.3324 0
M  V30 604 H 55.6608 -0.546239 -0.389697 0
M  V30 605 H 58.2048 -1.95265 -0.607609 0
M  V30 606 H 56.3598 -2.38476 -3.053 0
M  V30 607 H 56.7738 -4.55256 -2.60465 0
M  V30 608 H 58.2478 -3.70623 -4.09075 0
M  V30 609 H 58.7248 -2.02081 -3.89948 0
M  V30 610 H 59.3308 -3.24003 -2.75503 0
M  V30 611 N 57.6459 0.756429 -1.3826 0
M  V30 612 C 59.0569 1.33359 -1.30661 0
M  V30 613 C 59.4079 1.96161 0.0388875 0
M  V30 614 O 58.5329 1.94874 0.940918 0
M  V30 615 C 59.1279 2.42477 -2.36622 0
M  V30 616 C 57.6869 2.95922 -2.3261 0
M  V30 617 C 56.8339 1.69275 -2.19639 0
M  V30 618 H 59.7849 0.55552 -1.4866 0
M  V30 619 H 59.8059 3.22345 -2.02174 0
M  V30 620 H 59.3179 1.96739 -3.34538 0
M  V30 621 H 57.4189 3.45996 -1.38267 0
M  V30 622 H 57.5319 3.50494 -3.26636 0
M  V30 623 H 55.8959 1.92793 -1.66442 0
M  V30 624 H 56.6789 1.25619 -3.19491 0
M  V30 625 N 59.124 1.23083 0.984299 0
M  V30 626 C 60.352 1.08714 1.76037 0
M  V30 627 C 60.767 -0.361691 1.85303 0
M  V30 628 O 60.124 -1.25034 1.32939 0
M  V30 629 C 60.175 1.70206 3.18923 0
M  V30 630 O 59.896 3.09423 3.10144 0
M  V30 631 C 61.397 1.61227 4.12941 0
M  V30 632 H 58.617 0.380664 0.552572 0
M  V30 633 H 61.161 1.62853 1.23689 0
M  V30 634 H 59.316 1.20109 3.6831 0
M  V30 635 H 59.73 3.39188 4.00065 0
M  V30 636 H 61.204 2.08962 5.10919 0
M  V30 637 H 61.681 0.570375 4.35481 0
M  V30 638 H 62.287 2.10671 3.69456 0
M  V30 639 N 60.6021 -1.18246 1.0419 0
M  V30 640 C 61.5351 -2.20746 0.578474 0
M  V30 641 C 62.5131 -1.57912 -0.387624 0
M  V30 642 O 63.6971 -1.86071 -0.301634 0
M  V30 643 C 60.8241 -3.38346 -0.154762 0
M  V30 644 C 59.8701 -4.19587 0.764782 0
M  V30 645 S 60.7031 -4.86014 2.24835 0
M  V30 646 C 61.8591 -6.07012 1.526 0
M  V30 647 H 62.0921 -2.59715 1.44691 0
M  V30 648 H 59.6251 -1.287 0.85297 0
M  V30 649 H 61.5831 -4.065 -0.571641 0
M  V30 650 H 60.2441 -2.97786 -0.999105 0
M  V30 651 H 59.4371 -5.03611 0.197976 0
M  V30 652 H 59.0391 -3.56818 1.12057 0
M  V30 653 H 61.3311 -6.72523 0.819733 0
M  V30 654 H 62.2741 -6.68202 2.34333 0
M  V30 655 H 62.6821 -5.55249 1.01779 0
M  V30 656 N 62.0802 -0.821533 -1.34494 0
M  V30 657 C 63.3282 -0.408139 -1.97936 0
M  V30 658 C 63.6492 1.03193 -1.65457 0
M  V30 659 O 62.9192 1.71622 -0.944595 0
M  V30 660 H 61.4992 -0.147928 -0.732206 0
M  V30 661 H 64.1612 -1.05067 -1.64155 0
M  V30 662 H 63.2572 -0.52601 -3.07635 0
M  V30 663 N 63.5583 1.46682 -0.576371 0
M  V30 664 C 64.8043 2.03287 -0.0679305 0
M  V30 665 C 65.1593 1.44063 1.27529 0
M  V30 666 O 64.4523 0.593973 1.82161 0
M  V30 667 C 64.6463 3.57345 0.062886 0
M  V30 668 C 64.4753 4.31509 -1.26611 0
M  V30 669 C 63.2453 4.70664 -1.83856 0
M  V30 670 C 65.4433 4.65444 -2.18783 0
M  V30 671 N 63.4253 5.29552 -3.10561 0
M  V30 672 C 64.7963 5.24835 -3.30072 0
M  V30 673 C 66.8513 4.47375 -2.18542 0
M  V30 674 C 65.5543 5.68063 -4.41244 0
M  V30 675 C 67.5803 4.91614 -3.28739 0
M  V30 676 C 66.9423 5.51071 -4.38748 0
M  V30 677 H 63.0413 0.779083 -0.0674836 0
M  V30 678 H 65.6253 1.78918 -0.767877 0
M  V30 679 H 63.7963 3.8144 0.731988 0
M  V30 680 H 65.5283 4.00592 0.575134 0
M  V30 681 H 62.2833 4.53224 -1.37424 0
M  V30 682 H 62.7073 5.63523 -3.75195 0
M  V30 683 H 67.3493 4.00747 -1.34765 0
M  V30 684 H 65.0673 6.13672 -5.25768 0
M  V30 685 H 68.6533 4.79389 -3.29662 0
M  V30 686 H 67.5333 5.84678 -5.22611 0
M  V30 687 N 65.0364 0.313813 1.54444 0
M  V30 688 C 65.9664 -0.549454 2.26943 0
M  V30 689 C 66.9474 -1.12741 1.27372 0
M  V30 690 O 68.1324 -1.15436 1.56167 0
M  V30 691 C 65.2624 -1.71523 3.01989 0
M  V30 692 C 64.2164 -1.26703 4.08816 0
M  V30 693 C 63.5424 -2.51898 4.71647 0
M  V30 694 C 64.8424 -0.388962 5.2085 0
M  V30 695 H 66.5364 0.0552661 2.99349 0
M  V30 696 H 64.0824 0.0280207 1.43973 0
M  V30 697 H 66.0354 -2.32535 3.51433 0
M  V30 698 H 64.7594 -2.34639 2.27183 0
M  V30 699 H 63.4184 -0.679896 3.6024 0
M  V30 700 H 63.0664 -3.13356 3.93468 0
M  V30 701 H 62.7664 -2.22605 5.43802 0
M  V30 702 H 64.2904 -3.1369 5.23861 0
M  V30 703 H 65.7044 -0.905107 5.6611 0
M  V30 704 H 64.1014 -0.18924 5.99802 0
M  V30 705 H 65.1714 0.582699 4.81386 0
M  V30 706 N 66.5145 -1.57545 0.0417849 0
M  V30 707 C 67.4645 -2.07483 -0.945247 0
M  V30 708 C 68.4485 -0.977983 -1.27767 0
M  V30 709 O 69.6405 -1.24142 -1.26166 0
M  V30 710 C 66.7695 -2.61576 -2.22335 0
M  V30 711 C 65.8555 -3.78213 -1.91874 0
M  V30 712 N 66.2465 -4.88344 -1.31733 0
M  V30 713 C 64.5445 -3.8694 -2.21796 0
M  V30 714 C 65.2455 -5.69462 -1.1869 0
M  V30 715 N 64.2215 -5.16771 -1.68666 0
M  V30 716 H 68.0235 -2.90029 -0.475441 0
M  V30 717 H 65.5375 -1.61581 -0.162911 0
M  V30 718 H 67.5345 -2.95651 -2.93932 0
M  V30 719 H 66.1945 -1.80465 -2.69931 0
M  V30 720 H 67.2055 -5.08335 -0.990729 0
M  V30 721 H 63.8825 -3.16757 -2.71977 0
M  V30 722 H 65.2725 -6.68023 -0.720793 0
M  V30 723 N 67.9926 0.231505 -1.5589 0
M  V30 724 C 69.2386 0.954429 -1.79617 0
M  V30 725 C 69.5936 1.82367 -0.613199 0
M  V30 726 O 68.8866 1.87524 0.393094 0
M  V30 727 C 69.0806 1.83577 -3.0665 0
M  V30 728 C 68.9096 1.05334 -4.3719 0
M  V30 729 C 67.6796 0.75225 -4.99669 0
M  V30 730 C 69.8776 0.423444 -5.12554 0
M  V30 731 N 67.8596 -0.052627 -6.13877 0
M  V30 732 C 69.2306 -0.245287 -6.19515 0
M  V30 733 C 71.2856 0.335466 -4.96769 0
M  V30 734 C 69.9886 -0.993566 -7.12405 0
M  V30 735 C 72.0146 -0.399321 -5.9005 0
M  V30 736 C 71.3766 -1.05663 -6.9643 0
M  V30 737 H 67.4756 0.329846 -0.709031 0
M  V30 738 H 70.0596 0.226172 -1.93382 0
M  V30 739 H 68.2306 2.53592 -2.94186 0
M  V30 740 H 69.9626 2.49541 -3.18608 0
M  V30 741 H 66.7176 1.06783 -4.61405 0
M  V30 742 H 67.1416 -0.443609 -6.75545 0
M  V30 743 H 71.7836 0.829311 -4.14587 0
M  V30 744 H 69.5016 -1.49896 -7.94076 0
M  V30 745 H 73.0876 -0.468265 -5.79913 0
M  V30 746 H 71.9676 -1.61612 -7.67366 0
M  V30 747 N 69.4707 1.49531 0.497807 0
M  V30 748 C 70.3807 1.69176 1.62532 0
M  V30 749 C 71.3967 0.5744 1.64246 0
M  V30 750 O 72.5727 0.849497 1.82608 0
M  V30 751 C 69.6377 1.75695 2.98885 0
M  V30 752 C 68.6987 2.9929 3.07773 0
M  V30 753 C 67.9317 3.05488 4.37622 0
M  V30 754 O 68.1547 2.19192 5.26603 0
M  V30 755 O 67.0887 3.9798 4.51548 0
M  V30 756 H 70.9147 2.647 1.48887 0
M  V30 757 H 68.4997 1.3331 0.674441 0
M  V30 758 H 70.3817 1.82317 3.79919 0
M  V30 759 H 69.0567 0.8335 3.12785 0
M  V30 760 H 67.9637 2.98183 2.25915 0
M  V30 761 H 69.2967 3.91125 2.98801 0
M  V30 762 N 70.9488 -0.749086 1.3866 0
M  V30 763 C 72.3648 -1.05276 1.19955 0
M  V30 764 C 72.5648 -2.01435 0.05134 0
M  V30 765 O 71.6208 -2.45232 -0.60147 0
M  V30 766 C 72.9338 -1.62853 2.52783 0
M  V30 767 C 74.4818 -1.75002 2.59506 0
M  V30 768 C 74.9568 -2.35991 3.92521 0
M  V30 769 N 76.4478 -2.43416 3.94085 0
M  V30 770 C 77.1828 -2.91511 4.9377 0
M  V30 771 N 76.6788 -3.39608 6.03853 0
M  V30 772 N 78.4718 -2.90592 4.81157 0
M  V30 773 H 70.6228 -0.111066 2.12109 0
M  V30 774 H 72.8858 -0.111901 0.941373 0
M  V30 775 H 72.5918 -0.99664 3.37283 0
M  V30 776 H 72.4658 -2.61854 2.715 0
M  V30 777 H 74.8528 -2.37317 1.75398 0
M  V30 778 H 74.9338 -0.74693 2.44652 0
M  V30 779 H 74.5778 -1.74308 4.77053 0
M  V30 780 H 74.5078 -3.3695 4.04688 0
M  V30 781 H 76.9988 -2.09405 3.14576 0
M  V30 782 H 77.3118 -3.74775 6.75843 0
M  V30 783 H 75.6568 -3.37653 6.07466 0
M  V30 784 H 78.8478 -2.52332 3.94267 0
M  V30 785 H 79.0208 -3.27762 5.58996 0
M  V30 786 N 72.4269 -1.23603 -0.977757 0
M  V30 787 C 73.6739 -1.06971 -1.71941 0
M  V30 788 C 74.0019 0.393009 -1.90488 0
M  V30 789 O 73.2569 1.30719 -1.4564 0
M  V30 790 C 73.5559 -1.7433 -3.11999 0
M  V30 791 C 73.2219 -3.24252 -3.13323 0
M  V30 792 C 71.8839 -3.65156 -3.13392 0
M  V30 793 C 74.2359 -4.20141 -3.08433 0
M  V30 794 C 71.5639 -5.00403 -3.0629 0
M  V30 795 C 73.9159 -5.55384 -3.02873 0
M  V30 796 C 72.5799 -5.95647 -3.01265 0
M  V30 797 H 71.8499 -0.391433 -0.629175 0
M  V30 798 H 74.4969 -1.53572 -1.14403 0
M  V30 799 H 72.8019 -1.20096 -3.7294 0
M  V30 800 H 74.4989 -1.58936 -3.68158 0
M  V30 801 H 71.0889 -2.91692 -3.14029 0
M  V30 802 H 75.2729 -3.89547 -3.07517 0
M  V30 803 H 70.5289 -5.3081 -3.03399 0
M  V30 804 H 74.7029 -6.29398 -2.98046 0
M  V30 805 H 72.3299 -7.0041 -2.95516 0
M  V30 806 N 73.905 1.17692 -1.04816 0
M  V30 807 C 74.838 2.20436 -0.590173 0
M  V30 808 C 75.816 1.58115 0.379244 0
M  V30 809 O 77 1.86228 0.291762 0
M  V30 810 C 74.127 3.38424 0.136817 0
M  V30 811 C 73.173 4.19176 -0.787023 0
M  V30 812 S 74.006 4.84815 -2.27409 0
M  V30 813 C 75.162 6.06195 -1.55817 0
M  V30 814 H 75.395 2.58944 -1.46067 0
M  V30 815 H 72.928 1.28246 -0.859784 0
M  V30 816 H 74.886 4.06798 0.550076 0
M  V30 817 H 73.547 2.98312 0.983299 0
M  V30 818 H 72.74 5.03499 -0.224681 0
M  V30 819 H 72.342 3.56219 -1.13947 0
M  V30 820 H 74.634 6.72078 -0.855387 0
M  V30 821 H 75.577 6.6695 -2.37873 0
M  V30 822 H 75.985 5.54701 -1.04722 0
M  V30 823 N 75.3831 0.828654 1.34056 0
M  V30 824 C 76.6231 0.425394 1.99924 0
M  V30 825 C 76.9871 -0.994294 1.64249 0
M  V30 826 O 78.1881 -1.50074 2.23005 0
M  V30 827 C 76.4591 0.628071 3.51838 0
M  V30 828 S 78.0181 0.318511 4.37642 0
M  V30 829 H 74.8361 0.160465 0.692656 0
M  V30 830 H 77.4381 1.07572 1.63244 0
M  V30 831 H 76.1421 1.66089 3.7529 0
M  V30 832 H 75.6731 -0.0367799 3.93383 0
M  V30 833 H 77.6881 -0.865632 4.88591 0
M  V30 834 N 76.8612 -1.46375 0.584142 0
M  V30 835 C 77.8092 -2.32042 -0.161047 0
M  V30 836 C 78.8032 -1.44569 -0.882966 0
M  V30 837 O 80.0092 -1.61186 -0.801191 0
M  V30 838 H 76.3842 -0.748659 -0.0708033 0
M  V30 839 H 78.3552 -2.92704 0.580269 0
M  V30 840 C 77.1042 -3.27762 -1.1605 0
M  V30 841 H 76.4272 -3.95051 -0.614419 0
M  V30 842 H 77.8672 -3.90481 -1.65228 0
M  V30 843 C 76.3262 -2.53218 -2.22221 0
M  V30 844 O 76.8562 -2.29628 -3.29597 0
M  V30 845 N 75.0622 -2.13756 -1.96868 0
M  V30 846 H 74.6092 -2.33142 -1.09557 0
M  V30 847 H 74.5672 -1.642 -2.68115 0
M  V30 848 N 78.3393 -0.321999 -1.54275 0
M  V30 849 C 79.2693 0.537411 -2.27231 0
M  V30 850 C 80.2503 1.12064 -1.27968 0
M  V30 851 O 81.4353 1.14606 -1.56777 0
M  V30 852 C 78.5653 1.69919 -3.02894 0
M  V30 853 C 77.5193 1.24534 -4.09482 0
M  V30 854 C 76.8453 2.49394 -4.72977 0
M  V30 855 C 78.1453 0.361335 -5.21049 0
M  V30 856 H 79.8393 -0.0711406 -2.99315 0
M  V30 857 H 77.3853 -0.0356555 -1.43956 0
M  V30 858 H 79.3383 2.30668 -3.52662 0
M  V30 859 H 78.0623 2.33431 -2.28424 0
M  V30 860 H 76.7213 0.660782 -3.60596 0
M  V30 861 H 76.3693 3.11265 -3.95124 0
M  V30 862 H 76.0693 2.19718 -5.44975 0
M  V30 863 H 77.5933 3.10908 -5.25517 0
M  V30 864 H 79.0073 0.875072 -5.66582 0
M  V30 865 H 77.4043 0.157428 -5.99893 0
M  V30 866 H 78.4743 -0.60822 -4.8107 0
M  V30 867 N 79.8174 1.5752 -0.0501392 0
M  V30 868 C 81.0944 1.83996 0.663685 0
M  V30 869 C 81.4744 0.938339 1.89099 0
M  V30 870 O 80.8224 -0.00087759 2.285 0
M  V30 871 C 81.0324 3.33702 1.02196 0
M  V30 872 C 82.3804 4.00691 1.40469 0
M  V30 873 O 83.4044 3.38321 1.11433 0
M  V30 874 O 82.2634 5.10658 1.94654 0
M  V30 875 H 79.3574 0.759385 0.32751 0
M  V30 876 H 81.9034 1.69514 -0.0794238 0
M  V30 877 H 80.6754 3.91015 0.149364 0
M  V30 878 H 80.2984 3.53368 1.82255 0
M  V30 879 N 81.2955 -0.223234 1.56011 0
M  V30 880 C 82.5355 -0.954962 1.8072 0
M  V30 881 C 82.8995 -1.81598 0.623384 0
M  V30 882 O 84.1005 -2.58132 0.749745 0
M  V30 883 C 82.3715 -1.77313 3.10314 0
M  V30 884 S 83.9305 -2.56073 3.56332 0
M  V30 885 H 80.7485 -0.320812 0.634508 0
M  V30 886 H 83.3505 -0.220686 1.9425 0
M  V30 887 H 82.0545 -1.13071 3.94516 0
M  V30 888 H 81.5855 -2.54974 2.99586 0
M  V30 889 H 83.6005 -3.79619 3.19536 0
M  V30 890 N 82.7736 -1.49793 -0.48987 0
M  V30 891 C 83.7056 -1.63413 -1.60713 0
M  V30 892 C 84.7186 -0.516329 -1.54395 0
M  V30 893 O 85.9076 -0.788812 -1.60125 0
M  V30 894 C 83.0076 -1.58516 -2.99543 0
M  V30 895 C 82.1806 -2.86016 -3.30928 0
M  V30 896 C 81.2396 -2.74018 -4.49222 0
M  V30 897 O 80.2656 -3.47964 -4.50455 0
M  V30 898 N 81.4676 -1.86309 -5.4979 0
M  V30 899 H 84.2326 -2.59777 -1.49452 0
M  V30 900 H 81.7936 -1.47022 -0.677955 0
M  V30 901 H 83.7856 -1.48128 -3.76617 0
M  V30 902 H 82.3556 -0.69965 -3.0467 0
M  V30 903 H 81.5756 -3.10672 -2.42645 0
M  V30 904 H 82.8636 -3.70521 -3.487 0
M  V30 905 H 82.2616 -1.2551 -5.51601 0
M  V30 906 H 80.8186 -1.81837 -6.25922 0
M  V30 907 N 84.2517 0.741722 -1.39055 0
M  V30 908 C 85.1617 1.88621 -1.39496 0
M  V30 909 C 86.1777 1.71557 -0.290578 0
M  V30 910 O 87.3537 1.94275 -0.530954 0
M  V30 911 C 84.4187 3.24134 -1.23037 0
M  V30 912 C 83.4797 3.5364 -2.43387 0
M  V30 913 C 82.7127 4.82687 -2.27703 0
M  V30 914 O 82.9357 5.55922 -1.27696 0
M  V30 915 O 81.8697 5.1194 -3.16545 0
M  V30 916 H 85.6957 1.91203 -2.35956 0
M  V30 917 H 83.2807 0.888625 -1.20099 0
M  V30 918 H 85.1627 4.0513 -1.15964 0
M  V30 919 H 83.8377 3.22337 -0.296691 0
M  V30 920 H 82.7447 2.72758 -2.56035 0
M  V30 921 H 84.0777 3.60209 -3.35425 0
M  V30 922 N 85.7298 1.2412 0.971189 0
M  V30 923 C 86.6398 1.04747 2.09917 0
M  V30 924 C 87.6558 -0.0107162 1.73997 0
M  V30 925 O 88.8318 0.186714 2.00533 0
M  V30 926 C 85.8968 0.650828 3.40537 0
M  V30 927 C 84.9578 1.7851 3.90426 0
M  V30 928 C 84.1908 1.40729 5.14812 0
M  V30 929 O 84.4138 0.29557 5.69634 0
M  V30 930 O 83.3478 2.23168 5.58999 0
M  V30 931 H 87.1738 1.99304 2.29154 0
M  V30 932 H 84.7588 1.02908 1.08307 0
M  V30 933 H 86.6408 0.440992 4.19086 0
M  V30 934 H 85.3158 -0.265649 3.22608 0
M  V30 935 H 84.2228 2.04966 3.12953 0
M  V30 936 H 85.5558 2.68023 4.12825 0
M  V30 937 N 87.2079 -1.17134 1.05439 0
M  V30 938 C 88.6189 -1.69084 0.791676 0
M  V30 939 C 88.9699 -1.83822 -0.685839 0
M  V30 940 O 88.0949 -1.52757 -1.53278 0
M  V30 941 C 88.6899 -3.07119 1.4305 0
M  V30 942 C 87.2489 -3.56225 1.21577 0
M  V30 943 C 86.3959 -2.32421 1.51247 0
M  V30 944 H 89.3469 -1.01617 1.219 0
M  V30 945 H 89.3679 -3.71087 0.84112 0
M  V30 946 H 88.8799 -2.9636 2.50584 0
M  V30 947 H 86.9809 -3.72257 0.159787 0
M  V30 948 H 87.0939 -4.38837 1.92246 0
M  V30 949 H 85.4579 -2.3701 0.932653 0
M  V30 950 H 86.2409 -2.24268 2.5992 0
M  V30 951 N 88.686 -0.835752 -1.33615 0
M  V30 952 C 89.963 -0.352017 -1.92406 0
M  V30 953 C 90.343 1.16225 -1.76224 0
M  V30 954 O 89.691 1.97526 -1.14873 0
M  V30 955 C 89.901 -0.795485 -3.39813 0
M  V30 956 C 91.249 -0.801703 -4.16963 0
M  V30 957 O 92.273 -0.738889 -3.48452 0
M  V30 958 O 91.132 -0.886607 -5.3926 0
M  V30 959 H 88.226 -0.0989641 -0.821057 0
M  V30 960 H 90.772 -0.921397 -1.42507 0
M  V30 961 H 89.544 -1.83795 -3.45449 0
M  V30 962 H 89.167 -0.202505 -3.97084 0
M  V30 963 N 90.1641 1.46063 -0.591896 0
M  V30 964 C 91.3891 2.07226 -0.0850314 0
M  V30 965 C 91.8141 1.43625 1.21463 0
M  V30 966 O 91.1721 0.523305 1.73583 0
M  V30 967 C 91.2201 3.60554 0.0576567 0
M  V30 968 O 90.3241 3.97128 1.11188 0
M  V30 969 H 89.6651 0.660615 -0.0669568 0
M  V30 970 H 92.1951 1.8756 -0.81745 0
M  V30 971 H 92.2051 4.07165 0.2609 0
M  V30 972 H 90.8801 4.06235 -0.891416 0
M  V30 973 H 89.4571 3.62213 0.886356 0
M  V30 974 N 91.6422 0.330177 1.54103 0
M  V30 975 C 92.8822 -0.270916 2.02597 0
M  V30 976 C 93.2462 -1.48826 1.21304 0
M  V30 977 O 94.4472 -2.16266 1.59633 0
M  V30 978 C 92.7182 -0.590328 3.52491 0
M  V30 979 S 94.2772 -1.17014 4.2291 0
M  V30 980 H 91.0952 -0.0815379 0.706309 0
M  V30 981 H 93.6972 0.464835 1.89893 0
M  V30 982 H 92.4012 0.303691 4.09275 0
M  V30 983 H 91.9322 -1.3561 3.69288 0
M  V30 984 H 93.9472 -2.45662 4.3112 0
M  V30 985 N 93.1203 -1.57491 0.0584922 0
M  V30 986 C 94.3693 -1.92155 -0.613146 0
M  V30 987 C 94.6823 -0.939334 -1.71569 0
M  V30 988 O 95.8883 -1.17829 -2.44599 0
M  V30 989 C 94.3443 -3.41303 -1.14195 0
M  V30 990 C 93.9523 -4.47944 -0.0711265 0
M  V30 991 C 95.6963 -3.84988 -1.78841 0
M  V30 992 C 93.6033 -5.88212 -0.613225 0
M  V30 993 H 92.5333 -0.717162 -0.232796 0
M  V30 994 H 95.1843 -1.83049 0.12857 0
M  V30 995 H 93.5663 -3.45437 -1.93621 0
M  V30 996 H 94.7403 -4.55408 0.702836 0
M  V30 997 H 93.0553 -4.13644 0.478313 0
M  V30 998 H 95.6523 -4.87159 -2.20408 0
M  V30 999 H 95.9953 -3.21632 -2.64308 0
M  V30 1000 H 96.5283 -3.83401 -1.06059 0
M  V30 1001 H 93.2673 -6.55183 0.203978 0
M  V30 1002 H 92.7873 -5.84294 -1.35501 0
M  V30 1003 H 94.4663 -6.37687 -1.09383 0
M  V30 1004 N 94.5984 0.214957 -1.56127 0
M  V30 1005 C 95.8234 0.95924 -1.83884 0
M  V30 1006 C 96.2484 1.7689 -0.639644 0
M  V30 1007 O 95.6064 1.76566 0.411601 0
M  V30 1008 C 95.6544 1.84723 -3.09693 0
M  V30 1009 O 94.7584 2.94346 -2.8885 0
M  V30 1010 H 94.0994 0.27125 -0.606069 0
M  V30 1011 H 96.6294 0.226276 -2.03345 0
M  V30 1012 H 96.6394 2.25576 -3.39969 0
M  V30 1013 H 95.3144 1.25218 -3.96602 0
M  V30 1014 H 93.8914 2.57391 -2.69823 0
M  V30 1015 N 96.0765 1.50051 0.48192 0
M  V30 1016 C 96.9865 1.7089 1.60728 0
M  V30 1017 C 98.0025 0.591788 1.63627 0
M  V30 1018 O 99.1785 0.868817 1.81696 0
M  V30 1019 C 96.2435 1.78855 2.97005 0
M  V30 1020 C 95.3045 3.02537 3.04581 0
M  V30 1021 C 94.5375 3.10112 4.34357 0
M  V30 1022 O 94.7605 2.24765 5.24249 0
M  V30 1023 O 93.6945 4.02747 4.47301 0
M  V30 1024 H 97.5205 2.66264 1.46072 0
M  V30 1025 H 95.1055 1.34018 0.660264 0
M  V30 1026 H 96.9875 1.86336 3.77964 0
M  V30 1027 H 95.6625 0.866628 3.11883 0
M  V30 1028 H 94.5695 3.00563 2.22739 0
M  V30 1029 H 95.9025 3.94272 2.94636 0
M  V30 1030 N 97.5546 -0.734337 1.39446 0
M  V30 1031 C 98.5016 -1.84835 1.38219 0
M  V30 1032 C 99.4716 -1.64331 0.24179 0
M  V30 1033 O 100.657 -1.85728 0.437002 0
M  V30 1034 C 97.7966 -3.22355 1.23212 0
M  V30 1035 C 96.9096 -3.5456 2.46801 0
M  V30 1036 C 96.0446 -4.81485 2.24377 0
M  V30 1037 C 95.0836 -5.06536 3.43639 0
M  V30 1038 N 94.2206 -6.24665 3.20528 0
M  V30 1039 H 99.0606 -1.85219 2.33448 0
M  V30 1040 H 96.5976 -0.905039 1.15963 0
M  V30 1041 H 98.5556 -4.0174 1.12522 0
M  V30 1042 H 97.1856 -3.21248 0.316121 0
M  V30 1043 H 96.2376 -2.69872 2.68092 0
M  V30 1044 H 97.5496 -3.6899 3.3563 0
M  V30 1045 H 96.7036 -5.68852 2.10933 0
M  V30 1046 H 95.4426 -4.6923 1.32944 0
M  V30 1047 H 94.4476 -4.17632 3.5758 0
M  V30 1048 H 95.6726 -5.20676 4.35974 0
M  V30 1049 H 93.6186 -6.13696 2.3176 0
M  V30 1050 H 93.5356 -6.39685 4.02913 0
M  V30 1051 H 94.8036 -7.14868 3.10779 0
M  V30 1052 N 99.0327 -1.24633 -0.964593 0
M  V30 1053 C 99.9627 -1.06611 -2.07741 0
M  V30 1054 C 100.944 0.0218666 -1.70086 0
M  V30 1055 O 102.129 -0.145793 -1.93652 0
M  V30 1056 C 99.2587 -0.673444 -3.40708 0
M  V30 1057 C 98.2127 -1.71054 -3.92332 0
M  V30 1058 C 97.5387 -1.17285 -5.21678 0
M  V30 1059 C 98.8387 -3.10718 -4.19824 0
M  V30 1060 H 100.533 -1.99693 -2.23076 0
M  V30 1061 H 98.0787 -0.96152 -1.07195 0
M  V30 1062 H 100.032 -0.534345 -4.17998 0
M  V30 1063 H 98.7557 0.293073 -3.25282 0
M  V30 1064 H 97.4147 -1.83791 -3.17201 0
M  V30 1065 H 97.0627 -0.196847 -5.02615 0
M  V30 1066 H 96.7627 -1.86592 -5.57187 0
M  V30 1067 H 98.2867 -1.04593 -6.01575 0
M  V30 1068 H 99.7007 -3.01192 -4.87808 0
M  V30 1069 H 98.0977 -3.77406 -4.66567 0
M  V30 1070 H 99.1677 -3.58524 -3.26479 0
M  V30 1071 N 100.511 1.16574 -1.06058 0
M  V30 1072 C 101.758 1.87047 -0.775873 0
M  V30 1073 C 102.086 1.81562 0.697534 0
M  V30 1074 O 101.341 1.22445 1.52662 0
M  V30 1075 C 101.64 3.36195 -1.21275 0
M  V30 1076 C 101.306 3.6188 -2.68986 0
M  V30 1077 C 99.9678 3.68599 -3.09335 0
M  V30 1078 C 102.32 3.72648 -3.64394 0
M  V30 1079 C 99.6478 3.83584 -4.43937 0
M  V30 1080 C 102 3.89154 -4.98741 0
M  V30 1081 C 100.664 3.94114 -5.3873 0
M  V30 1082 H 99.9338 0.684452 -0.283912 0
M  V30 1083 H 102.581 1.37853 -1.32925 0
M  V30 1084 H 100.886 3.87505 -0.578528 0
M  V30 1085 H 102.583 3.89103 -0.969542 0
M  V30 1086 H 99.1728 3.57281 -2.36744 0
M  V30 1087 H 103.357 3.66769 -3.34356 0
M  V30 1088 H 98.6128 3.85677 -4.74409 0
M  V30 1089 H 102.787 3.96427 -5.72554 0
M  V30 1090 H 100.414 4.05478 -6.43033 0
M  V30 1091 N 101.989 0.842826 1.3317 0
M  V30 1092 C 102.922 0.223862 2.27099 0
M  V30 1093 C 103.9 -0.631311 1.49844 0
M  V30 1094 O 105.084 -0.590708 1.79005 0
M  V30 1095 C 102.211 -0.685313 3.31694 0
M  V30 1096 C 101.257 0.094919 4.26394 0
M  V30 1097 S 102.09 1.45546 5.15341 0
M  V30 1098 C 103.246 0.551685 6.23464 0
M  V30 1099 H 103.479 1.02015 2.79249 0
M  V30 1100 H 101.012 0.639797 1.4052 0
M  V30 1101 H 102.97 -1.20426 3.92438 0
M  V30 1102 H 101.631 -1.4553 2.78352 0
M  V30 1103 H 100.824 -0.597059 5.00451 0
M  V30 1104 H 100.426 0.545054 3.70007 0
M  V30 1105 H 102.718 -0.248877 6.77043 0
M  V30 1106 H 103.661 1.26253 6.96754 0
M  V30 1107 H 104.069 0.131275 5.64347 0
M  V30 1108 N 103.467 -1.45747 0.599634 0
M  V30 1109 C 104.377 -2.34262 -0.125888 0
M  V30 1110 C 105.393 -1.50768 -0.868625 0
M  V30 1111 O 106.569 -1.83592 -0.828003 0
M  V30 1112 C 103.634 -3.28252 -1.11587 0
M  V30 1113 C 102.695 -4.27651 -0.375956 0
M  V30 1114 C 101.928 -5.1715 -1.31877 0
M  V30 1115 O 102.151 -5.09916 -2.55621 0
M  V30 1116 O 101.085 -5.96286 -0.820157 0
M  V30 1117 H 104.911 -2.97688 0.601315 0
M  V30 1118 H 102.496 -1.44999 0.359934 0
M  V30 1119 H 104.378 -3.86191 -1.68626 0
M  V30 1120 H 103.053 -2.67401 -1.82424 0
M  V30 1121 H 101.96 -3.7335 0.236698 0
M  V30 1122 H 103.293 -4.91334 0.29177 0
M  V30 1123 N 104.945 -0.338344 -1.53925 0
M  V30 1124 C 105.878 0.563758 -2.21127 0
M  V30 1125 C 106.856 1.10433 -1.19345 0
M  V30 1126 O 108.04 1.16557 -1.48144 0
M  V30 1127 C 105.167 1.77505 -2.88461 0
M  V30 1128 C 104.213 1.3644 -4.04087 0
M  V30 1129 S 105.046 0.388593 -5.34088 0
M  V30 1130 C 106.202 1.60683 -6.04923 0
M  V30 1131 H 106.435 -0.00704546 -2.97299 0
M  V30 1132 H 103.968 -0.122418 -1.53914 0
M  V30 1133 H 105.926 2.46999 -3.27875 0
M  V30 1134 H 104.587 2.31706 -2.12064 0
M  V30 1135 H 103.78 2.26739 -4.50117 0
M  V30 1136 H 103.382 0.748998 -3.66423 0
M  V30 1137 H 105.674 2.54209 -6.28 0
M  V30 1138 H 106.617 1.18842 -6.98056 0
M  V30 1139 H 107.025 1.80052 -5.35015 0
M  V30 1140 N 106.423 1.57458 -0.0668435 0
M  V30 1141 C 107.386 2.11323 0.887422 0
M  V30 1142 C 108.386 1.03618 1.22964 0
M  V30 1143 O 109.576 1.29626 1.16373 0
M  V30 1144 C 106.708 2.61048 2.19242 0
M  V30 1145 H 107.901 2.96942 0.420194 0
M  V30 1146 H 105.454 1.55239 0.181793 0
M  V30 1147 H 106.189 1.78868 2.70512 0
M  V30 1148 H 105.974 3.39769 1.95702 0
M  V30 1149 H 107.464 3.02814 2.87565 0
M  V30 1150 N 107.901 -0.206675 1.56239 0
M  V30 1151 C 108.811 -1.27686 1.96808 0
M  V30 1152 C 109.827 -1.50455 0.874035 0
M  V30 1153 O 111.003 -1.63295 1.17884 0
M  V30 1154 C 108.068 -2.60358 2.28942 0
M  V30 1155 C 107.129 -2.45762 3.51994 0
M  V30 1156 C 106.362 -3.72108 3.82585 0
M  V30 1157 O 106.585 -4.75776 3.14631 0
M  V30 1158 O 105.519 -3.6833 4.76043 0
M  V30 1159 H 109.345 -0.962593 2.88041 0
M  V30 1160 H 106.93 -0.410746 1.43643 0
M  V30 1161 H 108.812 -3.38687 2.50737 0
M  V30 1162 H 107.487 -2.91435 1.4088 0
M  V30 1163 H 106.394 -1.65584 3.35459 0
M  V30 1164 H 107.727 -2.19621 4.40486 0
M  V30 1165 N 109.379 -1.50304 -0.473955 0
M  V30 1166 C 110.309 -1.71886 -1.58042 0
M  V30 1167 C 111.29 -0.567799 -1.60344 0
M  V30 1168 O 112.475 -0.806623 -1.76656 0
M  V30 1169 C 109.605 -1.81036 -2.96384 0
M  V30 1170 C 108.559 -2.962 -3.08949 0
M  V30 1171 C 107.885 -2.9049 -4.48909 0
M  V30 1172 C 109.185 -4.36752 -2.86434 0
M  V30 1173 H 110.879 -2.64527 -1.40234 0
M  V30 1174 H 108.425 -1.27295 -0.673201 0
M  V30 1175 H 110.378 -1.94719 -3.73714 0
M  V30 1176 H 109.102 -0.850147 -3.15341 0
M  V30 1177 H 107.761 -2.82164 -2.3405 0
M  V30 1178 H 107.409 -1.92321 -4.64781 0
M  V30 1179 H 107.109 -3.67802 -4.58253 0
M  V30 1180 H 108.633 -3.06218 -5.28264 0
M  V30 1181 H 110.047 -4.5133 -3.53517 0
M  V30 1182 H 108.444 -5.15493 -3.07225 0
M  V30 1183 H 109.514 -4.49321 -1.82316 0
M  V30 1184 N 110.857 0.726932 -1.39834 0
M  V30 1185 C 111.79 1.8501 -1.33592 0
M  V30 1186 C 112.768 1.61262 -0.208191 0
M  V30 1187 O 113.952 1.84422 -0.389981 0
M  V30 1188 C 111.079 3.21143 -1.07633 0
M  V30 1189 C 110.125 3.63737 -2.22705 0
M  V30 1190 S 110.958 3.72167 -3.85035 0
M  V30 1191 C 112.114 5.11077 -3.61318 0
M  V30 1192 H 112.347 1.90022 -2.28646 0
M  V30 1193 H 109.88 0.892595 -1.25985 0
M  V30 1194 H 111.838 3.99747 -0.933415 0
M  V30 1195 H 110.499 3.13776 -0.142526 0
M  V30 1196 H 109.692 4.62551 -2.00155 0
M  V30 1197 H 109.294 2.9236 -2.33242 0
M  V30 1198 H 111.586 5.97656 -3.19083 0
M  V30 1199 H 112.529 5.38658 -4.59623 0
M  V30 1200 H 112.937 4.81135 -2.95245 0
M  V30 1201 N 112.336 1.25143 0.95797 0
M  V30 1202 C 113.582 1.09855 1.70469 0
M  V30 1203 C 113.915 -0.360187 1.90831 0
M  V30 1204 O 113.19 -1.26568 1.47685 0
M  V30 1205 C 113.473 1.8497 3.08963 0
M  V30 1206 C 113.326 3.38652 2.96032 0
M  V30 1207 C 114.645 1.63016 4.08795 0
M  V30 1208 H 111.764 0.400465 0.618706 0
M  V30 1209 H 114.406 1.53933 1.11376 0
M  V30 1210 H 112.556 1.47505 3.59409 0
M  V30 1211 H 114.228 3.85772 2.52938 0
M  V30 1212 H 112.471 3.66534 2.32025 0
M  V30 1213 H 113.142 3.8642 3.94187 0
M  V30 1214 H 115.618 1.95625 3.67247 0
M  V30 1215 H 114.494 2.18015 5.03747 0
M  V30 1216 H 114.755 0.570692 4.38401 0
M  V30 1217 N 113.814 -1.1601 1.06675 0
M  V30 1218 C 115.039 -1.91068 0.806706 0
M  V30 1219 C 115.464 -1.77112 -0.633485 0
M  V30 1220 O 114.822 -1.09908 -1.44187 0
M  V30 1221 C 114.87 -3.39655 1.21106 0
M  V30 1222 O 113.974 -4.10893 0.352189 0
M  V30 1223 H 113.315 -0.595125 0.294486 0
M  V30 1224 H 115.845 -1.46955 1.42356 0
M  V30 1225 H 115.855 -3.90434 1.18428 0
M  V30 1226 H 114.53 -3.49132 2.26008 0
M  V30 1227 H 113.107 -3.70285 0.440868 0
M  V30 1228 N 115.292 -0.849877 -1.32721 0
M  V30 1229 C 116.202 -0.293791 -2.32753 0
M  V30 1230 C 117.218 0.585906 -1.63839 0
M  V30 1231 O 118.394 0.487413 -1.95413 0
M  V30 1232 C 115.459 0.512752 -3.42887 0
M  V30 1233 C 114.52 -0.39252 -4.27502 0
M  V30 1234 C 113.753 0.375625 -5.32377 0
M  V30 1235 O 113.976 1.60613 -5.4732 0
M  V30 1236 O 112.91 -0.256094 -6.01355 0
M  V30 1237 H 116.736 -1.12242 -2.82197 0
M  V30 1238 H 114.321 -0.612685 -1.36259 0
M  V30 1239 H 116.203 0.970704 -4.10067 0
M  V30 1240 H 114.878 1.31826 -2.95641 0
M  V30 1241 H 113.785 -0.898547 -3.63149 0
M  V30 1242 H 115.118 -1.16309 -4.7826 0
M  V30 1243 N 116.77 1.45427 -0.607355 0
M  V30 1244 C 118.018 2.01841 -0.102253 0
M  V30 1245 C 118.339 1.47832 1.27164 0
M  V30 1246 O 117.609 0.672497 1.83995 0
M  V30 1247 H 116.189 0.746188 -0.0348101 0
M  V30 1248 H 118.851 1.78229 -0.7887 0
M  V30 1249 H 117.947 3.12057 -0.0518585 0
M  V30 1250 N 118.248 0.346503 1.53744 0
M  V30 1251 C 119.494 -0.242135 2.01954 0
M  V30 1252 C 119.849 -1.47962 1.22984 0
M  V30 1253 O 119.142 -1.89077 0.309924 0
M  V30 1254 C 119.336 -0.605809 3.52228 0
M  V30 1255 C 119.165 0.594882 4.45748 0
M  V30 1256 C 117.935 1.1011 4.93157 0
M  V30 1257 C 120.133 1.45425 4.93311 0
M  V30 1258 N 118.115 2.26381 5.70636 0
M  V30 1259 C 119.486 2.46383 5.68942 0
M  V30 1260 C 121.541 1.47935 4.75415 0
M  V30 1261 C 120.244 3.49684 6.28581 0
M  V30 1262 C 122.27 2.50119 5.35905 0
M  V30 1263 C 121.632 3.49803 6.11406 0
M  V30 1264 H 117.731 -0.0518296 0.780281 0
M  V30 1265 H 120.315 0.486736 1.88518 0
M  V30 1266 H 118.486 -1.30378 3.65864 0
M  V30 1267 H 120.218 -1.17789 3.87179 0
M  V30 1268 H 116.973 0.668721 4.68855 0
M  V30 1269 H 117.397 2.85094 6.14044 0
M  V30 1270 H 122.039 0.722274 4.16585 0
M  V30 1271 H 119.757 4.26285 6.86518 0
M  V30 1272 H 123.343 2.52892 5.23963 0
M  V30 1273 H 122.223 4.27576 6.5738 0
M  V30 1274 N 119.726 -1.57421 0.075193 0
M  V30 1275 C 120.673 -2.12915 -0.890843 0
M  V30 1276 C 121.643 -1.04252 -1.29309 0
M  V30 1277 O 122.828 -1.31933 -1.37834 0
M  V30 1278 C 119.968 -2.69795 -2.15186 0
M  V30 1279 C 119.081 -3.92624 -1.80194 0
M  V30 1280 C 118.216 -4.37736 -3.00933 0
M  V30 1281 C 117.255 -5.53205 -2.61974 0
M  V30 1282 N 116.392 -5.9326 -3.75483 0
M  V30 1283 H 121.232 -2.95156 -0.410735 0
M  V30 1284 H 118.769 -1.45854 -0.191086 0
M  V30 1285 H 120.727 -3.00883 -2.89008 0
M  V30 1286 H 119.357 -1.90313 -2.60731 0
M  V30 1287 H 118.409 -3.67977 -0.964218 0
M  V30 1288 H 119.721 -4.76482 -1.47534 0
M  V30 1289 H 118.875 -4.70503 -3.8303 0
M  V30 1290 H 117.614 -3.52739 -3.36789 0
M  V30 1291 H 116.619 -5.20086 -1.783 0
M  V30 1292 H 117.844 -6.39936 -2.27284 0
M  V30 1293 H 115.79 -5.11212 -4.11094 0
M  V30 1294 H 115.707 -6.71865 -3.46602 0
M  V30 1295 H 116.975 -6.30651 -4.58148 0
M  V30 1296 N 121.204 0.198386 -1.56346 0
M  V30 1297 C 122.481 0.944982 -1.71258 0
M  V30 1298 C 122.861 2.0151 -0.629048 0
M  V30 1299 O 122.209 2.25639 0.360473 0
M  V30 1300 C 122.419 1.5344 -3.1346 0
M  V30 1301 C 123.767 2.01778 -3.73591 0
M  V30 1302 O 124.791 1.63288 -3.16568 0
M  V30 1303 O 123.65 2.72594 -4.73661 0
M  V30 1304 H 120.744 0.442939 -0.69838 0
M  V30 1305 H 123.29 0.188342 -1.68652 0
M  V30 1306 H 122.062 0.762869 -3.83792 0
M  V30 1307 H 121.685 2.35596 -3.20282 0
M  V30 1308 N 122.682 1.50554 0.465978 0
M  V30 1309 C 123.645 1.69233 1.54574 0
M  V30 1310 C 124.645 0.562901 1.50626 0
M  V30 1311 O 125.835 0.830016 1.53155 0
M  V30 1312 C 122.967 1.7223 2.94193 0
M  V30 1313 H 124.16 2.65571 1.39327 0
M  V30 1314 H 121.713 1.40111 0.692711 0
M  V30 1315 H 122.448 0.77603 3.14878 0
M  V30 1316 H 122.233 2.54285 2.98466 0
M  V30 1317 H 123.723 1.88618 3.72576 0
M  V30 1318 N 124.16 -0.719506 1.40217 0
M  V30 1319 C 125.408 -1.47641 1.3801 0
M  V30 1320 C 125.729 -1.94992 -0.018145 0
M  V30 1321 O 124.999 -1.70073 -0.972207 0
M  V30 1322 H 123.579 -0.547744 0.507923 0
M  V30 1323 H 126.241 -0.853187 1.75233 0
M  V30 1324 H 125.337 -2.35112 2.05253 0
M  V30 1325 N 125.638 -1.25649 -0.95132 0
M  V30 1326 C 126.868 -1.13179 -1.72841 0
M  V30 1327 C 127.276 0.316827 -1.86528 0
M  V30 1328 O 126.619 1.22948 -1.3649 0
M  V30 1329 C 126.681 -1.71644 -3.15878 0
M  V30 1330 C 126.345 -3.20667 -3.25609 0
M  V30 1331 C 127.342 -4.17616 -3.09666 0
M  V30 1332 C 125.027 -3.6094 -3.49324 0
M  V30 1333 C 127.021 -5.52817 -3.17289 0
M  V30 1334 C 124.708 -4.96278 -3.56584 0
M  V30 1335 C 125.706 -5.92025 -3.40581 0
M  V30 1336 O 125.394 -7.24899 -3.47528 0
M  V30 1337 H 125.126 -0.395389 -0.54831 0
M  V30 1338 H 127.68 -1.66566 -1.20187 0
M  V30 1339 H 125.91 -1.12707 -3.69911 0
M  V30 1340 H 127.599 -1.54225 -3.75459 0
M  V30 1341 H 128.365 -3.87842 -2.91211 0
M  V30 1342 H 124.244 -2.86907 -3.6084 0
M  V30 1343 H 127.788 -6.2753 -3.04716 0
M  V30 1344 H 123.685 -5.25716 -3.74556 0
M  V30 1345 H 124.453 -7.33039 -3.64138 0
M  V30 1346 N 127.117 1.15442 -1.07289 0
M  V30 1347 C 128.027 2.23786 -0.704057 0
M  V30 1348 C 129.043 1.7166 0.284413 0
M  V30 1349 O 130.219 2.00972 0.131205 0
M  V30 1350 C 127.284 3.46535 -0.106792 0
M  V30 1351 C 126.345 4.13654 -1.14842 0
M  V30 1352 C 125.578 5.30544 -0.57956 0
M  V30 1353 O 125.801 5.67187 0.604585 0
M  V30 1354 O 124.735 5.87154 -1.32414 0
M  V30 1355 H 128.561 2.57664 -1.60757 0
M  V30 1356 H 126.146 1.23152 -0.845803 0
M  V30 1357 H 128.028 4.20804 0.224048 0
M  V30 1358 H 126.703 3.14407 0.770049 0
M  V30 1359 H 125.61 3.4131 -1.5316 0
M  V30 1360 H 126.943 4.49861 -1.99714 0
M  V30 1361 N 128.595 0.856903 1.32268 0
M  V30 1362 C 129.825 0.47475 2.01071 0
M  V30 1363 C 130.233 -0.933746 1.64553 0
M  V30 1364 O 129.576 -1.62114 0.863989 0
M  V30 1365 C 129.638 0.536746 3.55471 0
M  V30 1366 C 129.302 1.90453 4.15423 0
M  V30 1367 C 130.299 2.87029 4.33486 0
M  V30 1368 C 127.984 2.20229 4.51447 0
M  V30 1369 C 129.978 4.11532 4.86744 0
M  V30 1370 C 127.665 3.44984 5.0441 0
M  V30 1371 C 128.663 4.40452 5.22007 0
M  V30 1372 O 128.351 5.62998 5.73837 0
M  V30 1373 H 128.083 0.184778 0.650256 0
M  V30 1374 H 130.637 1.15615 1.69771 0
M  V30 1375 H 128.867 -0.20152 3.86175 0
M  V30 1376 H 130.556 0.169875 4.05544 0
M  V30 1377 H 131.322 2.6533 4.05986 0
M  V30 1378 H 127.201 1.46705 4.37034 0
M  V30 1379 H 130.745 4.86056 5.00395 0
M  V30 1380 H 126.642 3.66532 5.31342 0
M  V30 1381 H 127.41 5.64987 5.92226 0
M  V30 1382 N 130.073 -1.45103 0.615059 0
M  V30 1383 C 131.003 -2.33339 -0.0865619 0
M  V30 1384 C 131.984 -1.4727 -0.851209 0
M  V30 1385 O 133.169 -1.76026 -0.820281 0
M  V30 1386 C 130.299 -3.30095 -1.07956 0
M  V30 1387 C 129.253 -4.25858 -0.427628 0
M  V30 1388 C 128.579 -5.12361 -1.5294 0
M  V30 1389 C 129.879 -5.18165 0.655944 0
M  V30 1390 H 131.573 -2.92254 0.650224 0
M  V30 1391 H 129.119 -1.40532 0.314138 0
M  V30 1392 H 131.072 -3.90698 -1.57901 0
M  V30 1393 H 129.796 -2.69355 -1.84703 0
M  V30 1394 H 128.455 -3.66564 0.0510292 0
M  V30 1395 H 128.103 -4.47984 -2.28734 0
M  V30 1396 H 127.803 -5.77238 -1.09865 0
M  V30 1397 H 129.327 -5.75833 -2.03098 0
M  V30 1398 H 130.741 -5.72796 0.240257 0
M  V30 1399 H 129.138 -5.91559 1.00888 0
M  V30 1400 H 130.208 -4.60144 1.52957 0
M  V30 1401 N 131.551 -0.354651 -1.53558 0
M  V30 1402 C 132.791 0.238651 -2.03002 0
M  V30 1403 C 133.155 1.46878 -1.23656 0
M  V30 1404 O 134.356 2.13699 -1.63053 0
M  V30 1405 C 132.627 0.534175 -3.53386 0
M  V30 1406 S 134.186 1.10271 -4.24719 0
M  V30 1407 H 131.004 0.0702908 -0.707517 0
M  V30 1408 H 133.606 -0.494987 -1.8913 0
M  V30 1409 H 132.31 -0.368765 -4.0874 0
M  V30 1410 H 131.841 1.29718 -3.71398 0
M  V30 1411 H 133.856 2.38772 -4.34974 0
M  V30 1412 N 133.029 1.57378 -0.0835403 0
M  V30 1413 C 134.278 1.93106 0.582498 0
M  V30 1414 C 134.591 0.96651 1.70053 0
M  V30 1415 O 135.797 1.21705 2.42693 0
M  V30 1416 C 134.253 3.43076 1.08751 0
M  V30 1417 C 133.861 4.48 -0.000146404 0
M  V30 1418 C 135.605 3.87785 1.72694 0
M  V30 1419 C 133.512 5.89113 0.519568 0
M  V30 1420 H 132.442 0.720775 0.221358 0
M  V30 1421 H 135.093 1.82821 -0.157675 0
M  V30 1422 H 133.475 3.48474 1.88101 0
M  V30 1423 H 134.649 4.54233 -0.775199 0
M  V30 1424 H 132.964 4.1283 -0.54406 0
M  V30 1425 H 135.561 4.90604 2.1263 0
M  V30 1426 H 135.904 3.25796 2.59158 0
M  V30 1427 H 136.437 3.8504 0.999457 0
M  V30 1428 H 133.176 6.54775 -0.308186 0
M  V30 1429 H 132.696 5.86376 1.26188 0
M  V30 1430 H 134.375 6.39346 0.992237 0
M  V30 1431 N 134.507 -0.190092 1.56449 0
M  V30 1432 C 135.784 -0.935886 1.71757 0
M  V30 1433 C 136.164 -2.01173 0.639726 0
M  V30 1434 O 135.512 -2.25827 -0.348502 0
M  V30 1435 C 135.722 -1.51775 3.1427 0
M  V30 1436 C 137.07 -1.99794 3.74656 0
M  V30 1437 O 138.094 -1.61607 3.1743 0
M  V30 1438 O 136.953 -2.70079 4.751 0
M  V30 1439 H 134.047 -0.439229 0.700719 0
M  V30 1440 H 136.593 -0.179395 1.68749 0
M  V30 1441 H 135.365 -0.742505 3.84191 0
M  V30 1442 H 134.988 -2.33894 3.21527 0
M  V30 1443 N 135.985 -1.50799 -0.457987 0
M  V30 1444 C 137.262 -1.52968 -1.21902 0
M  V30 1445 C 137.642 -0.281906 -2.09209 0
M  V30 1446 O 136.99 0.734076 -2.16388 0
M  V30 1447 C 137.2 -2.8326 -2.03875 0
M  V30 1448 C 138.548 -3.34425 -2.6162 0
M  V30 1449 O 139.572 -2.8467 -2.14106 0
M  V30 1450 O 138.431 -4.21188 -3.48228 0
M  V30 1451 H 135.525 -0.614129 -0.553873 0
M  V30 1452 H 138.071 -1.63098 -0.468739 0
M  V30 1453 H 136.843 -3.65543 -1.39621 0
M  V30 1454 H 136.466 -2.76195 -2.8601 0
M  V30 1455 N 137.463 0.71206 -1.40597 0
M  V30 1456 C 138.703 1.48438 -1.40519 0
M  V30 1457 C 139.067 1.91998 -0.00767611 0
M  V30 1458 O 140.268 2.6854 0.118239 0
M  V30 1459 C 138.539 2.67514 -2.37004 0
M  V30 1460 S 140.098 3.56875 -2.55315 0
M  V30 1461 H 136.916 0.507457 -0.498005 0
M  V30 1462 H 139.518 0.832355 -1.76896 0
M  V30 1463 H 138.222 2.33689 -3.37368 0
M  V30 1464 H 137.753 3.37625 -2.01923 0
M  V30 1465 H 139.768 4.62081 -1.8082 0
M  V30 1466 N 138.941 1.26152 0.944643 0
M  V30 1467 C 140.187 1.12665 1.69346 0
M  V30 1468 C 140.542 -0.3273 1.89596 0
M  V30 1469 O 139.835 -1.23717 1.46303 0
M  V30 1470 C 140.029 1.82541 3.07268 0
M  V30 1471 C 139.858 3.34582 3.00475 0
M  V30 1472 C 138.628 4.03863 3.03681 0
M  V30 1473 C 140.826 4.30828 2.80877 0
M  V30 1474 N 138.808 5.42603 2.87151 0
M  V30 1475 C 140.179 5.5672 2.7288 0
M  V30 1476 C 142.234 4.21122 2.65633 0
M  V30 1477 C 140.937 6.74013 2.51196 0
M  V30 1478 C 142.963 5.38118 2.45323 0
M  V30 1479 C 142.325 6.62955 2.38055 0
M  V30 1480 H 138.424 0.467041 0.627214 0
M  V30 1481 H 141.008 1.59391 1.11815 0
M  V30 1482 H 139.179 1.38296 3.62945 0
M  V30 1483 H 140.911 1.61708 3.70989 0
M  V30 1484 H 137.666 3.55198 3.1326 0
M  V30 1485 H 138.09 6.15443 2.82063 0
M  V30 1486 H 142.732 3.25344 2.70021 0
M  V30 1487 H 140.45 7.6989 2.4555 0
M  V30 1488 H 144.036 5.32475 2.34439 0
M  V30 1489 H 142.916 7.51959 2.22546 0
M  V30 1490 N 140.419 -1.14872 1.07899 0
M  V30 1491 C 141.352 -2.18794 0.64841 0
M  V30 1492 C 142.33 -1.59065 -0.337189 0
M  V30 1493 O 143.514 -1.86936 -0.242284 0
M  V30 1494 C 140.641 -3.38667 -0.0470417 0
M  V30 1495 C 139.687 -4.16942 0.897884 0
M  V30 1496 S 140.52 -4.78615 2.40183 0
M  V30 1497 C 141.676 -6.0185 1.71834 0
M  V30 1498 H 141.909 -2.5498 1.52881 0
M  V30 1499 H 139.442 -1.25922 0.893484 0
M  V30 1500 H 141.4 -4.08113 -0.442027 0
M  V30 1501 H 140.061 -3.00814 -0.903861 0
M  V30 1502 H 139.254 -5.02726 0.358096 0
M  V30 1503 H 138.856 -3.53073 1.23352 0
M  V30 1504 H 141.148 -6.69574 1.03328 0
M  V30 1505 H 142.091 -6.60408 2.55473 0
M  V30 1506 H 142.499 -5.5173 1.19392 0
M  V30 1507 N 141.898 -0.863906 -1.31812 0
M  V30 1508 C 142.861 -0.320212 -2.26952 0
M  V30 1509 C 143.861 0.525369 -1.51975 0
M  V30 1510 O 145.051 0.335547 -1.70938 0
M  V30 1511 C 142.183 0.545919 -3.365 0
M  V30 1512 H 143.376 -1.16004 -2.76556 0
M  V30 1513 H 140.929 -0.638995 -1.42641 0
M  V30 1514 H 141.664 1.40718 -2.92179 0
M  V30 1515 H 141.449 -0.0594674 -3.92055 0
M  V30 1516 H 142.939 0.918796 -4.07367 0
M  V30 1517 N 143.376 1.44774 -0.622745 0
M  V30 1518 C 144.787 1.85546 -0.207226 0
M  V30 1519 C 145.138 1.52093 1.23944 0
M  V30 1520 O 144.263 0.95492 1.94191 0
M  V30 1521 C 144.858 3.36781 -0.369313 0
M  V30 1522 C 143.417 3.76399 -0.00836847 0
M  V30 1523 C 142.564 2.68664 -0.686651 0
M  V30 1524 H 145.515 1.3536 -0.828454 0
M  V30 1525 H 145.536 3.78453 0.394162 0
M  V30 1526 H 145.048 3.61098 -1.42231 0
M  V30 1527 H 143.149 3.57698 1.04322 0
M  V30 1528 H 143.262 4.7732 -0.412584 0
M  V30 1529 H 141.626 2.54404 -0.122777 0
M  V30 1530 H 142.409 2.95815 -1.74208 0
M  V30 1531 N 144.854 0.36279 1.53368 0
M  V30 1532 C 145.786 -0.519668 2.23231 0
M  V30 1533 C 146.799 -1.04844 1.24546 0
M  V30 1534 O 147.988 -0.955296 1.50786 0
M  V30 1535 C 145.088 -1.72995 2.9142 0
M  V30 1536 C 144.261 -1.33316 4.16588 0
M  V30 1537 C 143.32 -2.40521 4.68013 0
M  V30 1538 O 142.346 -2.03027 5.3176 0
M  V30 1539 N 143.548 -3.72065 4.45587 0
M  V30 1540 H 146.313 0.078751 2.99597 0
M  V30 1541 H 143.874 0.187833 1.60807 0
M  V30 1542 H 145.866 -2.44184 3.22733 0
M  V30 1543 H 144.436 -2.2353 2.18525 0
M  V30 1544 H 143.656 -0.451236 3.91609 0
M  V30 1545 H 144.944 -1.04432 4.97967 0
M  V30 1546 H 144.342 -4.05304 3.94646 0
M  V30 1547 H 142.899 -4.39366 4.81457 0
M  V30 1548 N 146.332 -1.57332 0.0918853 0
M  V30 1549 C 147.748 -1.57389 -0.264766 0
M  V30 1550 C 147.948 -1.10281 -1.68643 0
M  V30 1551 O 147.004 -0.777801 -2.40222 0
M  V30 1552 C 148.317 -3.00648 -0.0561195 0
M  V30 1553 C 149.865 -3.12754 -0.124116 0
M  V30 1554 C 150.34 -4.57965 0.0564972 0
M  V30 1555 N 151.831 -4.632 0.00155611 0
M  V30 1556 C 152.566 -5.73281 0.116598 0
M  V30 1557 N 152.062 -6.92208 0.286294 0
M  V30 1558 N 153.855 -5.6207 0.0580973 0
M  V30 1559 H 146.006 -1.86262 1.02079 0
M  V30 1560 H 148.269 -0.859579 0.399786 0
M  V30 1561 H 147.975 -3.393 0.925669 0
M  V30 1562 H 147.849 -3.68623 -0.799823 0
M  V30 1563 H 150.236 -2.73976 -1.09641 0
M  V30 1564 H 150.317 -2.47377 0.651024 0
M  V30 1565 H 149.961 -4.97436 1.02564 0
M  V30 1566 H 149.891 -5.21399 -0.738297 0
M  V30 1567 H 152.382 -3.77686 -0.127192 0
M  V30 1568 H 152.695 -7.71934 0.365676 0
M  V30 1569 H 151.04 -6.94254 0.32192 0
M  V30 1570 H 154.231 -4.68043 -0.0733204 0
M  V30 1571 H 154.404 -6.47824 0.151203 0
M  V30 1572 N 147.81 0.181792 -1.56548 0
M  V30 1573 C 149.087 0.926765 -1.72251 0
M  V30 1574 C 149.467 2.00831 -0.650386 0
M  V30 1575 O 148.815 2.26008 0.336521 0
M  V30 1576 C 149.025 1.50106 -3.1507 0
M  V30 1577 C 150.373 1.97805 -3.75711 0
M  V30 1578 O 151.397 1.59922 -3.18282 0
M  V30 1579 O 150.256 2.67555 -4.76525 0
M  V30 1580 H 147.35 0.435506 -0.703039 0
M  V30 1581 H 149.896 0.170443 -1.68842 0
M  V30 1582 H 148.668 0.72212 -3.84579 0
M  V30 1583 H 148.291 2.32186 -3.22763 0
M  V30 1584 N 149.288 1.51039 0.449983 0
M  V30 1585 C 150.513 1.6715 1.22783 0
M  V30 1586 C 150.938 0.363081 1.84563 0
M  V30 1587 O 150.296 -0.675433 1.68249 0
M  V30 1588 C 150.344 2.77985 2.29689 0
M  V30 1589 O 149.448 2.40707 3.34864 0
M  V30 1590 H 148.789 0.557746 0.360299 0
M  V30 1591 H 151.319 1.97535 0.533005 0
M  V30 1592 H 151.329 3.01693 2.74673 0
M  V30 1593 H 150.004 3.72935 1.84098 0
M  V30 1594 H 148.581 2.27523 2.95445 0
M  V30 1595 N 150.766 -0.704594 1.40972 0
M  V30 1596 C 151.676 -1.84856 1.44448 0
M  V30 1597 C 152.692 -1.70726 0.335961 0
M  V30 1598 O 153.868 -1.92799 0.582276 0
M  V30 1599 C 150.933 -3.20758 1.31587 0
M  V30 1600 C 149.994 -3.47063 2.52677 0
M  V30 1601 C 149.227 -4.76481 2.4042 0
M  V30 1602 O 149.45 -5.52341 1.42391 0
M  V30 1603 O 148.384 -5.03367 3.30007 0
M  V30 1604 H 152.21 -1.8488 2.40942 0
M  V30 1605 H 149.795 -0.85647 1.22413 0
M  V30 1606 H 151.677 -4.01913 1.26665 0
M  V30 1607 H 150.352 -3.21438 0.382049 0
M  V30 1608 H 149.259 -2.65873 2.63177 0
M  V30 1609 H 150.592 -3.5119 3.44858 0
M  V30 1610 N 152.244 -1.26651 -0.937939 0
M  V30 1611 C 153.492 -1.12165 -1.68118 0
M  V30 1612 C 153.813 0.334983 -1.92101 0
M  V30 1613 O 153.083 1.23583 -1.52 0
M  V30 1614 H 151.663 -0.412093 -0.623048 0
M  V30 1615 H 154.325 -1.59027 -1.12678 0
M  V30 1616 H 153.421 -1.64289 -2.6536 0
M  V30 1617 N 153.722 1.14298 -1.08507 0
M  V30 1618 C 155.138 1.37347 -0.812901 0
M  V30 1619 C 155.338 1.93052 0.577325 0
M  V30 1620 O 154.394 2.14389 1.33393 0
M  V30 1621 C 155.707 2.33359 -1.89642 0
M  V30 1622 C 157.255 2.46996 -1.92255 0
M  V30 1623 C 157.73 3.46309 -2.99724 0
M  V30 1624 N 159.221 3.53853 -2.98902 0
M  V30 1625 C 159.956 4.3055 -3.787 0
M  V30 1626 N 159.452 5.10482 -4.6838 0
M  V30 1627 N 161.245 4.25757 -3.66998 0
M  V30 1628 H 153.396 0.764867 -1.9815 0
M  V30 1629 H 155.659 0.398966 -0.859959 0
M  V30 1630 H 155.365 1.99565 -2.89597 0
M  V30 1631 H 155.239 3.33274 -1.76659 0
M  V30 1632 H 157.626 2.80081 -0.929445 0
M  V30 1633 H 157.707 1.47039 -2.09316 0
M  V30 1634 H 157.351 3.13957 -3.99241 0
M  V30 1635 H 157.281 4.46049 -2.79907 0
M  V30 1636 H 159.772 2.96812 -2.33904 0
M  V30 1637 H 160.085 5.66284 -5.25873 0
M  V30 1638 H 158.43 5.09747 -4.72422 0
M  V30 1639 H 161.621 3.62383 -2.96304 0
M  V30 1640 H 161.794 4.85279 -4.29427 0
M  V30 1641 N 155.201 0.870884 1.31352 0
M  V30 1642 C 156.131 0.343096 2.30966 0
M  V30 1643 C 157.112 -0.566507 1.60389 0
M  V30 1644 O 158.297 -0.483336 1.88089 0
M  V30 1645 C 155.427 -0.455487 3.443 0
M  V30 1646 C 154.381 0.361103 4.26474 0
M  V30 1647 C 153.707 -0.563221 5.31725 0
M  V30 1648 C 155.007 1.59566 4.97329 0
M  V30 1649 H 156.701 1.17548 2.75359 0
M  V30 1650 H 154.247 0.566686 1.32381 0
M  V30 1651 H 156.2 -0.83525 4.13039 0
M  V30 1652 H 154.924 -1.32139 2.98675 0
M  V30 1653 H 153.583 0.722825 3.59403 0
M  V30 1654 H 153.231 -1.42643 4.82351 0
M  V30 1655 H 152.931 -0.0207409 5.87596 0
M  V30 1656 H 154.455 -0.939808 6.03324 0
M  V30 1657 H 155.869 1.28728 5.58661 0
M  V30 1658 H 154.266 2.07728 5.63 0
M  V30 1659 H 155.336 2.34798 4.24262 0
M  V30 1660 N 156.679 -1.44442 0.630414 0
M  V30 1661 C 157.611 -2.2892 -0.113347 0
M  V30 1662 C 158.624 -1.41243 -0.80959 0
M  V30 1663 O 159.813 -1.65402 -0.671156 0
M  V30 1664 C 156.913 -3.17594 -1.18266 0
M  V30 1665 C 156.086 -4.33682 -0.569073 0
M  V30 1666 C 155.145 -5.03397 -1.53226 0
M  V30 1667 O 154.171 -5.59438 -1.04967 0
M  V30 1668 N 155.373 -5.04783 -2.86661 0
M  V30 1669 H 158.138 -2.93392 0.611636 0
M  V30 1670 H 155.699 -1.54881 0.471523 0
M  V30 1671 H 157.691 -3.61097 -1.82732 0
M  V30 1672 H 156.261 -2.54876 -1.80988 0
M  V30 1673 H 155.481 -3.9338 0.254187 0
M  V30 1674 H 156.769 -5.08608 -0.139767 0
M  V30 1675 H 156.167 -4.60584 -3.28449 0
M  V30 1676 H 154.724 -5.52077 -3.46489 0
M  V30 1677 N 158.157 -0.370918 -1.53173 0
M  V30 1678 C 159.12 0.460778 -2.24521 0
M  V30 1679 C 160.12 1.00536 -1.25496 0
M  V30 1680 O 161.31 0.890266 -1.49733 0
M  V30 1681 C 158.442 1.64457 -2.98608 0
M  V30 1682 H 159.635 -0.163613 -2.99453 0
M  V30 1683 H 157.188 -0.122699 -1.55818 0
M  V30 1684 H 157.923 2.30691 -2.2793 0
M  V30 1685 H 157.708 1.26099 -3.7127 0
M  V30 1686 H 159.198 2.23384 -3.5283 0
M  V30 1687 N 159.635 1.57281 -0.100228 0
M  V30 1688 C 160.912 1.86014 0.604812 0
M  V30 1689 C 161.292 0.998025 1.86018 0
M  V30 1690 O 160.64 0.0718184 2.28387 0
M  V30 1691 C 160.85 3.36784 0.915278 0
M  V30 1692 C 162.198 4.04957 1.27651 0
M  V30 1693 O 163.222 3.41695 1.00613 0
M  V30 1694 O 162.081 5.16593 1.7831 0
M  V30 1695 H 159.175 0.76942 0.303185 0
M  V30 1696 H 161.721 1.69176 -0.133313 0
M  V30 1697 H 160.493 3.91292 0.0248896 0
M  V30 1698 H 160.116 3.58987 1.70921 0
M  V30 1699 N 161.113 -0.173488 1.56642 0
M  V30 1700 C 162.524 -0.736155 1.71574 0
M  V30 1701 C 162.875 -1.82888 0.710389 0
M  V30 1702 O 162 -2.16017 -0.1287 0
M  V30 1703 C 162.595 -1.34211 3.11083 0
M  V30 1704 C 161.154 -1.85162 3.27707 0
M  V30 1705 C 160.301 -0.729765 2.67525 0
M  V30 1706 H 163.252 0.0518786 1.58615 0
M  V30 1707 H 163.273 -2.21178 3.09613 0
M  V30 1708 H 162.785 -0.546579 3.84232 0
M  V30 1709 H 160.886 -2.67366 2.59512 0
M  V30 1710 H 160.999 -1.99855 4.35425 0
M  V30 1711 H 159.363 -1.14965 2.27278 0
M  V30 1712 H 160.146 0.0538806 3.43258 0
M  V30 1713 N 162.591 -1.51276 -0.441967 0
M  V30 1714 C 163.523 -1.68444 -1.55433 0
M  V30 1715 C 164.536 -0.565187 -1.52674 0
M  V30 1716 O 165.725 -0.839356 -1.57534 0
M  V30 1717 C 162.825 -1.67966 -2.94348 0
M  V30 1718 C 161.998 -2.964 -3.21661 0
M  V30 1719 C 161.057 -2.88171 -4.40277 0
M  V30 1720 O 160.083 -3.62119 -4.39157 0
M  V30 1721 N 161.285 -2.03706 -5.43584 0
M  V30 1722 H 164.05 -2.644 -1.41112 0
M  V30 1723 H 161.611 -1.49104 -0.630838 0
M  V30 1724 H 163.603 -1.60035 -3.71713 0
M  V30 1725 H 162.173 -0.796225 -3.0229 0
M  V30 1726 H 161.393 -3.18234 -2.32638 0
M  V30 1727 H 162.681 -3.81427 -3.36736 0
M  V30 1728 H 162.079 -1.42995 -5.47329 0
M  V30 1729 H 160.636 -2.01658 -6.1982 0
M  V30 1730 N 164.069 0.697108 -1.41344 0
M  V30 1731 C 165.485 1.00751 -1.2378 0
M  V30 1732 C 165.685 2.01105 -0.126066 0
M  V30 1733 O 164.741 2.47295 0.51004 0
M  V30 1734 C 166.054 1.53359 -2.58653 0
M  V30 1735 C 167.602 1.6525 -2.65822 0
M  V30 1736 C 168.077 2.2126 -4.01009 0
M  V30 1737 N 169.568 2.28622 -4.02847 0
M  V30 1738 C 170.303 2.72984 -5.04249 0
M  V30 1739 N 169.799 3.16962 -6.16041 0
M  V30 1740 N 171.592 2.72534 -4.91611 0
M  V30 1741 H 163.743 0.0322662 -2.12375 0
M  V30 1742 H 166.006 0.0768853 -0.944877 0
M  V30 1743 H 165.712 0.870773 -3.4075 0
M  V30 1744 H 165.586 2.51597 -2.81032 0
M  V30 1745 H 167.973 2.30644 -1.84086 0
M  V30 1746 H 168.054 0.655614 -2.47256 0
M  V30 1747 H 167.698 1.56482 -4.83193 0
M  V30 1748 H 167.628 3.21698 -4.16915 0
M  V30 1749 H 170.119 1.97585 -3.22131 0
M  V30 1750 H 170.432 3.49434 -6.89287 0
M  V30 1751 H 168.777 3.14875 -6.1958 0
M  V30 1752 H 171.968 2.37525 -4.0336 0
M  V30 1753 H 172.141 3.06789 -5.70775 0
M  V30 1754 N 165.547 1.27147 0.931209 0
M  V30 1755 C 166.794 1.13278 1.67852 0
M  V30 1756 C 167.122 -0.32204 1.91815 0
M  V30 1757 O 166.377 -1.25224 1.50391 0
M  V30 1758 C 166.676 1.8579 3.05314 0
M  V30 1759 C 166.342 3.35657 3.01073 0
M  V30 1760 C 165.004 3.76536 2.99623 0
M  V30 1761 C 167.356 4.31299 2.92627 0
M  V30 1762 C 164.684 5.11426 2.87506 0
M  V30 1763 C 167.036 5.66242 2.82051 0
M  V30 1764 C 165.7 6.06418 2.7895 0
M  V30 1765 H 164.97 0.414515 0.614214 0
M  V30 1766 H 167.617 1.57712 1.08624 0
M  V30 1767 H 165.922 1.33854 3.68226 0
M  V30 1768 H 167.619 1.72491 3.62005 0
M  V30 1769 H 164.209 3.03146 3.02986 0
M  V30 1770 H 168.393 4.00692 2.92848 0
M  V30 1771 H 163.649 5.41705 2.83489 0
M  V30 1772 H 167.823 6.40026 2.74481 0
M  V30 1773 H 165.45 7.10895 2.69318 0
M  V30 1774 N 167.025 -1.13721 1.09112 0
M  V30 1775 C 168.436 -1.6648 0.845068 0
M  V30 1776 C 168.787 -1.85911 -0.62701 0
M  V30 1777 O 167.912 -1.57556 -1.48341 0
M  V30 1778 C 168.507 -3.02413 1.52748 0
M  V30 1779 C 167.066 -3.52176 1.32849 0
M  V30 1780 C 166.213 -2.27492 1.58564 0
M  V30 1781 H 169.164 -0.976872 1.25072 0
M  V30 1782 H 169.185 -3.68223 0.958752 0
M  V30 1783 H 168.697 -2.88238 2.59885 0
M  V30 1784 H 166.798 -3.7156 0.278137 0
M  V30 1785 H 166.911 -4.32499 2.0611 0
M  V30 1786 H 165.275 -2.33923 1.00758 0
M  V30 1787 H 166.058 -2.15886 2.66924 0
M  V30 1788 N 168.503 -0.877838 -1.30888 0
M  V30 1789 C 169.453 -0.310872 -2.25871 0
M  V30 1790 C 170.437 0.556596 -1.50966 0
M  V30 1791 O 171.629 0.402187 -1.7237 0
M  V30 1792 C 168.758 0.479821 -3.3993 0
M  V30 1793 C 167.844 -0.401333 -4.22197 0
M  V30 1794 N 168.235 -1.49848 -4.83093 0
M  V30 1795 C 166.533 -0.195167 -4.45573 0
M  V30 1796 C 167.234 -2.0425 -5.44662 0
M  V30 1797 N 166.21 -1.33843 -5.26865 0
M  V30 1798 H 170.012 -1.1493 -2.70496 0
M  V30 1799 H 167.526 -0.726458 -1.45246 0
M  V30 1800 H 169.523 0.902582 -4.07012 0
M  V30 1801 H 168.183 1.31577 -2.96846 0
M  V30 1802 H 169.194 -1.88137 -4.82519 0
M  V30 1803 H 165.871 0.604192 -4.13105 0
M  V30 1804 H 167.261 -2.96345 -6.03017 0
M  V30 1805 N 169.982 1.44106 -0.638065 0
M  V30 1806 C 171.23 2.01579 -0.145043 0
M  V30 1807 C 171.551 1.50496 1.24 0
M  V30 1808 O 170.821 0.711374 1.82527 0
M  V30 1809 H 169.401 0.745282 -0.05063 0
M  V30 1810 H 172.063 1.76516 -0.826327 0
M  V30 1811 H 171.159 3.11877 -0.118039 0
M  V30 1812 N 171.46 0.379036 1.52974 0
M  V30 1813 C 172.709 -0.207612 2.00629 0
M  V30 1814 C 173.022 -1.48758 1.27006 0
M  V30 1815 O 174.228 -2.15365 1.65318 0
M  V30 1816 C 172.684 -0.42053 3.57435 0
M  V30 1817 C 172.292 0.845587 4.39948 0
M  V30 1818 C 174.036 -0.964102 4.13407 0
M  V30 1819 C 171.943 0.601513 5.88333 0
M  V30 1820 H 170.873 -0.0813591 0.749598 0
M  V30 1821 H 173.524 0.499853 1.76561 0
M  V30 1822 H 171.906 -1.18959 3.7771 0
M  V30 1823 H 173.08 1.61848 4.31442 0
M  V30 1824 H 171.395 1.31336 3.95145 0
M  V30 1825 H 173.992 -1.16225 5.21916 0
M  V30 1826 H 174.335 -1.93019 3.68849 0
M  V30 1827 H 174.868 -0.25487 3.96983 0
M  V30 1828 H 171.607 1.53831 6.37194 0
M  V30 1829 H 171.127 -0.132628 5.99653 0
M  V30 1830 H 172.806 0.232134 6.46583 0
M  V30 1831 N 172.938 -1.57226 0.108567 0
M  V30 1832 C 174.354 -1.5766 -0.248058 0
M  V30 1833 C 174.554 -1.12063 -1.67464 0
M  V30 1834 O 173.61 -0.803236 -2.39383 0
M  V30 1835 C 174.923 -3.0069 -0.0242287 0
M  V30 1836 C 176.471 -3.12868 -0.0909372 0
M  V30 1837 C 176.946 -4.57879 0.105067 0
M  V30 1838 N 178.437 -4.63172 0.0506846 0
M  V30 1839 C 179.172 -5.73126 0.177396 0
M  V30 1840 N 178.668 -6.91866 0.359696 0
M  V30 1841 N 180.461 -5.61977 0.117709 0
M  V30 1842 H 172.612 -1.85169 1.04049 0
M  V30 1843 H 174.875 -0.85529 0.40888 0
M  V30 1844 H 174.581 -3.38299 0.961604 0
M  V30 1845 H 174.455 -3.6945 -0.76068 0
M  V30 1846 H 176.842 -2.75124 -1.06729 0
M  V30 1847 H 176.923 -2.46672 0.677225 0
M  V30 1848 H 176.567 -4.96321 1.07834 0
M  V30 1849 H 176.497 -5.22153 -0.682954 0
M  V30 1850 H 178.988 -3.778 -0.0871266 0
M  V30 1851 H 179.301 -7.71503 0.447529 0
M  V30 1852 H 177.646 -6.93874 0.395536 0
M  V30 1853 H 180.837 -4.68094 -0.0236741 0
M  V30 1854 H 181.01 -6.47627 0.219905 0
M  V30 1855 N 174.416 0.165178 -1.56732 0
M  V30 1856 C 175.348 1.22911 -1.93457 0
M  V30 1857 C 176.361 1.40152 -0.828333 0
M  V30 1858 O 177.55 1.40046 -1.10677 0
M  V30 1859 C 174.65 2.59686 -2.17753 0
M  V30 1860 C 173.823 2.63663 -3.48999 0
M  V30 1861 C 172.882 3.81845 -3.62051 0
M  V30 1862 O 171.908 3.67559 -4.34613 0
M  V30 1863 N 173.11 4.98557 -2.97357 0
M  V30 1864 H 175.875 0.917118 -2.85323 0
M  V30 1865 H 173.436 0.354895 -1.57962 0
M  V30 1866 H 175.428 3.37225 -2.23743 0
M  V30 1867 H 173.998 2.83251 -1.32242 0
M  V30 1868 H 173.218 1.72173 -3.54612 0
M  V30 1869 H 174.506 2.63336 -4.35352 0
M  V30 1870 H 173.904 5.13065 -2.38287 0
M  V30 1871 H 172.461 5.73936 -3.08934 0
M  V30 1872 N 175.894 1.51508 0.433938 0
M  V30 1873 C 176.824 1.76016 1.53429 0
M  V30 1874 C 177.805 0.610112 1.58782 0
M  V30 1875 O 178.99 0.853177 1.74455 0
M  V30 1876 C 176.12 1.88831 2.9148 0
M  V30 1877 C 175.074 3.04288 3.00987 0
M  V30 1878 C 174.4 3.0229 4.4105 0
M  V30 1879 C 175.7 4.44193 2.74754 0
M  V30 1880 H 177.394 2.68152 1.33171 0
M  V30 1881 H 174.94 1.29035 0.639214 0
M  V30 1882 H 176.893 2.04559 3.6842 0
M  V30 1883 H 175.617 0.933455 3.12976 0
M  V30 1884 H 174.276 2.8827 2.26486 0
M  V30 1885 H 173.924 2.04576 4.59519 0
M  V30 1886 H 173.624 3.79822 4.4834 0
M  V30 1887 H 175.148 3.20116 5.1996 0
M  V30 1888 H 176.562 4.60544 3.41426 0
M  V30 1889 H 174.959 5.23457 2.9345 0
M  V30 1890 H 176.029 4.53996 1.70339 0
M  V30 1891 N 177.372 -0.689602 1.41712 0
M  V30 1892 C 178.335 -1.78521 1.43746 0
M  V30 1893 C 179.335 -1.57436 0.327191 0
M  V30 1894 O 180.525 -1.64 0.587348 0
M  V30 1895 C 177.657 -3.16971 1.25467 0
M  V30 1896 H 178.85 -1.78108 2.41283 0
M  V30 1897 H 176.403 -0.89781 1.27942 0
M  V30 1898 H 177.138 -3.23019 0.287948 0
M  V30 1899 H 176.923 -3.33678 2.05917 0
M  V30 1900 H 178.413 -3.96935 1.2974 0
M  V30 1901 N 178.85 -1.27639 -0.924453 0
M  V30 1902 C 179.798 -1.10485 -2.04685 0
M  V30 1903 C 180.792 -0.0270421 -1.69378 0
M  V30 1904 O 181.998 -0.185008 -1.79047 0
M  V30 1905 H 178.373 -0.340546 -0.670472 0
M  V30 1906 H 180.344 -2.05566 -2.16298 0
M  V30 1907 C 179.093 -0.772229 -3.39016 0
M  V30 1908 H 178.416 -1.59351 -3.66671 0
M  V30 1909 H 179.856 -0.692097 -4.18313 0
M  V30 1910 C 178.315 0.523554 -3.32807 0
M  V30 1911 O 178.845 1.55702 -3.70297 0
M  V30 1912 N 177.051 0.520363 -2.85903 0
M  V30 1913 H 176.598 -0.32107 -2.55591 0
M  V30 1914 H 176.556 1.38742 -2.82131 0
M  V30 1915 N 180.328 1.1314 -1.09713 0
M  V30 1916 C 181.558 1.88048 -0.855656 0
M  V30 1917 C 181.966 1.79537 0.596919 0
M  V30 1918 O 181.309 1.16196 1.42282 0
M  V30 1919 C 181.371 3.38314 -1.21589 0
M  V30 1920 C 181.035 3.70605 -2.67397 0
M  V30 1921 C 182.032 3.69596 -3.65643 0
M  V30 1922 C 179.717 4.0017 -3.03593 0
M  V30 1923 C 181.711 3.977 -4.9811 0
M  V30 1924 C 179.398 4.27935 -4.36251 0
M  V30 1925 C 180.396 4.26685 -5.33318 0
M  V30 1926 O 180.084 4.53767 -6.63589 0
M  V30 1927 H 179.816 0.60208 -0.307368 0
M  V30 1928 H 182.37 1.44128 -1.46343 0
M  V30 1929 H 180.6 3.82752 -0.551177 0
M  V30 1930 H 182.289 3.94552 -0.953083 0
M  V30 1931 H 183.055 3.46826 -3.39023 0
M  V30 1932 H 178.934 4.00289 -2.2867 0
M  V30 1933 H 182.478 3.9664 -5.73866 0
M  V30 1934 H 178.375 4.50178 -4.62613 0
M  V30 1935 H 179.143 4.71422 -6.69107 0
M  V30 1936 N 181.806 0.884767 1.30421 0
M  V30 1937 C 183.052 0.503851 1.96441 0
M  V30 1938 C 183.385 -0.944518 1.69684 0
M  V30 1939 O 182.66 -1.66737 1.00145 0
M  V30 1940 C 182.943 0.779085 3.51571 0
M  V30 1941 C 182.796 2.27807 3.87846 0
M  V30 1942 C 184.115 0.255452 4.39358 0
M  V30 1943 H 181.234 0.184533 0.713524 0
M  V30 1944 H 183.876 1.10872 1.54297 0
M  V30 1945 H 182.026 0.264274 3.876 0
M  V30 1946 H 183.698 2.86127 3.61841 0
M  V30 1947 H 181.941 2.74479 3.35922 0
M  V30 1948 H 182.612 2.42125 4.96064 0
M  V30 1949 H 185.088 0.696079 4.10236 0
M  V30 1950 H 183.964 0.477361 5.4682 0
M  V30 1951 H 184.225 -0.843293 4.33983 0
M  V30 1952 N 183.284 -1.43765 0.645699 0
M  V30 1953 C 184.234 -2.27884 -0.0726442 0
M  V30 1954 C 185.218 -1.39483 -0.802086 0
M  V30 1955 O 186.41 -1.63174 -0.685791 0
M  V30 1956 C 183.539 -3.27055 -1.04356 0
M  V30 1957 C 182.625 -4.22944 -0.312985 0
M  V30 1958 N 183.016 -5.01391 0.666386 0
M  V30 1959 C 181.314 -4.42528 -0.55546 0
M  V30 1960 C 182.015 -5.71217 1.09935 0
M  V30 1961 N 180.991 -5.41856 0.435137 0
M  V30 1962 H 184.793 -2.85949 0.678988 0
M  V30 1963 H 182.307 -1.55378 0.472368 0
M  V30 1964 H 184.304 -3.86089 -1.57292 0
M  V30 1965 H 182.964 -2.70551 -1.79534 0
M  V30 1966 H 183.975 -5.07252 1.04481 0
M  V30 1967 H 180.652 -3.97104 -1.28899 0
M  V30 1968 H 182.042 -6.44202 1.90929 0
M  V30 1969 N 184.763 -0.387143 -1.52771 0
M  V30 1970 C 185.988 0.198407 -2.06449 0
M  V30 1971 C 186.413 1.39918 -1.25716 0
M  V30 1972 O 185.771 1.79099 -0.281657 0
M  V30 1973 C 185.819 0.548893 -3.56398 0
M  V30 1974 O 184.923 1.64315 -3.78252 0
M  V30 1975 H 184.264 0.0237731 -0.663574 0
M  V30 1976 H 186.794 -0.553989 -1.96957 0
M  V30 1977 H 186.804 0.813812 -3.99801 0
M  V30 1978 H 185.479 -0.329005 -4.14597 0
M  V30 1979 H 184.056 1.37211 -3.46738 0
M  V30 1980 N 186.241 1.57166 -0.116904 0
M  V30 1981 C 187.188 2.15202 0.83408 0
M  V30 1982 C 188.158 1.07644 1.26499 0
M  V30 1983 O 189.343 1.35541 1.34288 0
M  V30 1984 C 186.483 2.75405 2.07957 0
M  V30 1985 C 185.596 3.97264 1.69721 0
M  V30 1986 C 184.731 4.45561 2.89221 0
M  V30 1987 C 183.77 5.59956 2.47215 0
M  V30 1988 N 182.907 6.03006 3.59622 0
M  V30 1989 H 187.747 2.96141 0.332335 0
M  V30 1990 H 185.284 1.46309 0.152349 0
M  V30 1991 H 187.242 3.08439 2.80929 0
M  V30 1992 H 185.872 1.97159 2.55594 0
M  V30 1993 H 184.924 3.70404 0.866316 0
M  V30 1994 H 186.236 4.80226 1.34849 0
M  V30 1995 H 185.39 4.80493 3.7042 0
M  V30 1996 H 184.129 3.61544 3.27318 0
M  V30 1997 H 183.134 5.2463 1.64448 0
M  V30 1998 H 184.359 6.45738 2.10238 0
M  V30 1999 H 182.305 5.21931 3.97396 0
M  V30 2000 H 182.222 6.80819 3.28667 0
M  V30 2001 H 183.49 6.42576 4.41267 0
M  V30 2002 N 187.719 -0.156864 1.56817 0
M  V30 2003 C 188.967 -0.869404 1.82444 0
M  V30 2004 C 189.288 -1.82147 0.69623 0
M  V30 2005 O 188.558 -1.93847 -0.28287 0
M  V30 2006 H 187.138 -0.324043 0.673056 0
M  V30 2007 H 189.8 -0.153224 1.94297 0
M  V30 2008 H 188.896 -1.43761 2.77019 0
M  V30 2009 N 189.197 -1.51736 -0.425897 0
M  V30 2010 C 190.127 -1.76827 -1.52494 0
M  V30 2011 C 191.108 -0.618524 -1.58456 0
M  V30 2012 O 192.293 -0.862416 -1.74 0
M  V30 2013 C 189.423 -1.90374 -2.90474 0
M  V30 2014 C 188.377 -3.0588 -2.99369 0
M  V30 2015 C 187.703 -3.04625 -4.3944 0
M  V30 2016 C 189.003 -4.45644 -2.72394 0
M  V30 2017 H 190.697 -2.68855 -1.31748 0
M  V30 2018 H 188.243 -1.29372 -0.632362 0
M  V30 2019 H 190.196 -2.0651 -3.6733 0
M  V30 2020 H 188.92 -0.95004 -3.12477 0
M  V30 2021 H 187.579 -2.89467 -2.24954 0
M  V30 2022 H 187.227 -2.0701 -4.58428 0
M  V30 2023 H 186.927 -3.82195 -4.46319 0
M  V30 2024 H 188.451 -3.22869 -5.18255 0
M  V30 2025 H 189.865 -4.62348 -3.38979 0
M  V30 2026 H 188.262 -5.25006 -2.9067 0
M  V30 2027 H 189.332 -4.54893 -1.67929 0
M  V30 2028 N 190.675 0.682077 -1.42076 0
M  V30 2029 C 191.622 1.79578 -1.44984 0
M  V30 2030 C 192.592 1.6332 -0.302614 0
M  V30 2031 O 193.777 1.83978 -0.505633 0
M  V30 2032 C 190.917 3.1756 -1.35091 0
M  V30 2033 C 190.03 3.45156 -2.59791 0
M  V30 2034 C 189.165 4.72826 -2.42093 0
M  V30 2035 C 188.204 4.93433 -3.62202 0
M  V30 2036 N 187.341 6.12338 -3.43491 0
M  V30 2037 H 192.181 1.76427 -2.40161 0
M  V30 2038 H 189.718 0.861376 -1.19242 0
M  V30 2039 H 191.676 3.97287 -1.27354 0
M  V30 2040 H 190.306 3.19854 -0.435133 0
M  V30 2041 H 189.358 2.59736 -2.77923 0
M  V30 2042 H 190.67 3.5628 -3.49094 0
M  V30 2043 H 189.824 5.60631 -2.319 0
M  V30 2044 H 188.563 4.63973 -1.50268 0
M  V30 2045 H 187.568 4.04073 -3.72834 0
M  V30 2046 H 188.793 5.04136 -4.54998 0
M  V30 2047 H 186.739 6.04672 -2.54377 0
M  V30 2048 H 186.656 6.2429 -4.26377 0
M  V30 2049 H 187.924 7.02841 -3.37097 0
M  V30 2050 N 192.153 1.28127 0.917671 0
M  V30 2051 C 193.083 1.14248 2.03641 0
M  V30 2052 C 194.064 0.0412748 1.7005 0
M  V30 2053 O 195.249 0.217566 1.92977 0
M  V30 2054 C 192.379 0.799431 3.37974 0
M  V30 2055 C 191.333 1.85497 3.85713 0
M  V30 2056 C 190.659 1.36565 5.16966 0
M  V30 2057 C 191.959 3.26085 4.08002 0
M  V30 2058 H 193.653 2.07835 2.15511 0
M  V30 2059 H 191.199 1.00064 1.03553 0
M  V30 2060 H 193.152 0.689114 4.15727 0
M  V30 2061 H 191.876 -0.172145 3.26146 0
M  V30 2062 H 190.535 1.95437 3.10161 0
M  V30 2063 H 190.183 0.383253 5.01538 0
M  V30 2064 H 189.883 2.07143 5.49878 0
M  V30 2065 H 191.407 1.26848 5.97279 0
M  V30 2066 H 192.821 3.19089 4.76293 0
M  V30 2067 H 191.218 3.94462 4.52238 0
M  V30 2068 H 192.288 3.70394 3.12948 0
M  V30 2069 N 193.631 -1.12557 1.10312 0
M  V30 2070 C 194.879 -1.83675 0.843091 0
M  V30 2071 C 195.2 -1.84435 -0.633131 0
M  V30 2072 O 194.47 -1.30657 -1.45964 0
M  V30 2073 H 193.05 -0.680138 0.308904 0
M  V30 2074 H 195.712 -1.36301 1.39313 0
M  V30 2075 H 194.808 -2.87908 1.2048 0
M  V30 2076 N 195.109 -0.891671 -1.2995 0
M  V30 2077 C 196.358 -0.509521 -1.95158 0
M  V30 2078 C 196.671 0.947388 -1.71125 0
M  V30 2079 O 197.877 1.43669 -2.30372 0
M  V30 2080 C 196.333 -0.860315 -3.49466 0
M  V30 2081 C 195.941 -2.33545 -3.8231 0
M  V30 2082 C 197.685 -0.547687 -4.20952 0
M  V30 2083 C 195.592 -2.62752 -5.29826 0
M  V30 2084 H 194.522 -0.18682 -0.730489 0
M  V30 2085 H 197.173 -1.08756 -1.47798 0
M  V30 2086 H 195.555 -0.211285 -3.95436 0
M  V30 2087 H 196.729 -3.02936 -3.47227 0
M  V30 2088 H 195.044 -2.61629 -3.23944 0
M  V30 2089 H 197.641 -0.742854 -5.29515 0
M  V30 2090 H 197.984 0.51332 -4.13123 0
M  V30 2091 H 198.517 -1.1542 -3.80688 0
M  V30 2092 H 195.256 -3.6762 -5.42712 0
M  V30 2093 H 194.776 -1.97977 -5.66185 0
M  V30 2094 H 196.455 -2.48601 -5.97333 0
M  V30 2095 N 196.587 1.43421 -0.653314 0
M  V30 2096 C 197.817 2.05864 -0.174238 0
M  V30 2097 C 198.225 1.49052 1.16534 0
M  V30 2098 O 197.568 0.616481 1.73047 0
M  V30 2099 C 197.63 3.59499 -0.00875873 0
M  V30 2100 C 197.294 4.38893 -1.27364 0
M  V30 2101 C 198.291 4.70947 -2.20239 0
M  V30 2102 C 195.976 4.789 -1.51525 0
M  V30 2103 C 197.97 5.41916 -3.35568 0
M  V30 2104 C 195.657 5.49614 -2.67147 0
M  V30 2105 C 196.655 5.81044 -3.58994 0
M  V30 2106 O 196.343 6.50313 -4.72597 0
M  V30 2107 H 196.075 0.670345 -0.0872549 0
M  V30 2108 H 198.629 1.84913 -0.894226 0
M  V30 2109 H 196.859 3.79025 0.7666 0
M  V30 2110 H 198.548 4.0364 0.427687 0
M  V30 2111 H 199.314 4.40558 -2.02815 0
M  V30 2112 H 195.193 4.53843 -0.809158 0
M  V30 2113 H 198.737 5.66365 -4.07279 0
M  V30 2114 H 194.634 5.79419 -2.84505 0
M  V30 2115 H 195.402 6.68795 -4.71864 0
M  V30 2116 N 198.065 0.39524 1.52563 0
M  V30 2117 C 199.028 -0.425001 2.25225 0
M  V30 2118 C 200.028 -0.985266 1.27079 0
M  V30 2119 O 201.218 -0.866332 1.5113 0
M  V30 2120 C 198.35 -1.59686 3.01186 0
M  V30 2121 H 199.543 0.211233 2.99155 0
M  V30 2122 H 197.096 0.147472 1.55603 0
M  V30 2123 H 197.831 -2.27035 2.31572 0
M  V30 2124 H 197.616 -1.20176 3.73229 0
M  V30 2125 H 199.106 -2.17743 3.5634 0
M  V30 2126 N 199.544 -1.57102 0.125237 0
M  V30 2127 C 200.821 -1.86953 -0.575142 0
M  V30 2128 C 201.201 -1.02749 -1.84407 0
M  V30 2129 O 200.549 -0.108144 -2.28244 0
M  V30 2130 C 200.759 -3.38198 -0.861583 0
M  V30 2131 C 202.107 -4.06937 -1.21192 0
M  V30 2132 O 203.131 -3.43252 -0.951645 0
M  V30 2133 O 201.99 -5.19364 -1.70068 0
M  V30 2134 H 199.084 -0.774147 -0.290906 0
M  V30 2135 H 201.63 -1.68942 0.160211 0
M  V30 2136 H 200.402 -3.91282 0.0373647 0
M  V30 2137 H 200.025 -3.61661 -1.65188 0
M  V30 2138 N 201.022 0.148545 -1.56898 0
M  V30 2139 C 202.268 0.862694 -1.83536 0
M  V30 2140 C 202.601 1.80889 -0.706604 0
M  V30 2141 O 201.876 1.92328 0.289885 0
M  V30 2142 C 202.159 1.63853 -3.20662 0
M  V30 2143 C 202.012 0.713925 -4.44098 0
M  V30 2144 C 203.331 2.60133 -3.54991 0
M  V30 2145 H 200.45 0.312179 -0.667618 0
M  V30 2146 H 203.092 0.127953 -1.89569 0
M  V30 2147 H 201.242 2.26489 -3.1565 0
M  V30 2148 H 202.914 0.098686 -4.61194 0
M  V30 2149 H 201.157 0.0234019 -4.33794 0
M  V30 2150 H 201.828 1.29278 -5.36648 0
M  V30 2151 H 204.304 2.07616 -3.60603 0
M  V30 2152 H 203.18 3.11468 -4.51972 0
M  V30 2153 H 203.441 3.41417 -2.80868 0
M  V30 2154 N 202.5 1.5196 0.417844 0
M  V30 2155 C 203.748 1.65263 1.16329 0
M  V30 2156 C 204.069 0.380634 1.91249 0
M  V30 2157 O 203.339 -0.604214 1.86349 0
M  V30 2158 H 201.919 0.60912 0.432414 0
M  V30 2159 H 204.581 1.88969 0.477162 0
M  V30 2160 H 203.677 2.4896 1.88217 0
M  V30 2161 N 203.978 -0.674533 1.42435 0
M  V30 2162 C 204.926 -1.80934 1.46169 0
M  V30 2163 C 205.92 -1.66006 0.3374 0
M  V30 2164 O 207.126 -1.72611 0.510425 0
M  V30 2165 H 203.501 -0.596594 0.457798 0
M  V30 2166 H 205.472 -1.74903 2.41767 0
M  V30 2167 C 204.221 -3.19088 1.38123 0
M  V30 2168 H 203.544 -3.31203 2.23931 0
M  V30 2169 H 204.984 -3.9851 1.44797 0
M  V30 2170 C 203.443 -3.36763 0.0960517 0
M  V30 2171 O 203.973 -3.92581 -0.851073 0
M  V30 2172 N 202.179 -2.90597 0.0131186 0
M  V30 2173 H 201.726 -2.45359 0.784639 0
M  V30 2174 H 201.684 -3.028 -0.846133 0
M  V30 2175 N 205.456 -1.28612 -0.910864 0
M  V30 2176 C 206.403 -1.12786 -2.01365 0
M  V30 2177 C 207.373 -0.024201 -1.66082 0
M  V30 2178 O 208.558 -0.189667 -1.89855 0
M  V30 2179 C 205.698 -0.798743 -3.35729 0
M  V30 2180 C 204.811 -1.98173 -3.83864 0
M  V30 2181 C 203.946 -1.59298 -5.06752 0
M  V30 2182 C 202.985 -2.74245 -5.47226 0
M  V30 2183 N 202.122 -2.35842 -6.61304 0
M  V30 2184 H 206.962 -2.07142 -2.14234 0
M  V30 2185 H 204.499 -1.03093 -1.0493 0
M  V30 2186 H 206.457 -0.588662 -4.13026 0
M  V30 2187 H 205.087 0.10789 -3.2262 0
M  V30 2188 H 204.139 -2.30386 -3.02699 0
M  V30 2189 H 205.451 -2.84343 -4.09818 0
M  V30 2190 H 204.605 -1.34513 -5.916 0
M  V30 2191 H 203.344 -0.702618 -4.82612 0
M  V30 2192 H 202.349 -2.99725 -4.60918 0
M  V30 2193 H 203.574 -3.63928 -5.73353 0
M  V30 2194 H 201.52 -1.49279 -6.38789 0
M  V30 2195 H 201.437 -3.15546 -6.86998 0
M  V30 2196 H 202.705 -2.14348 -7.4945 0
M  V30 2197 N 206.934 1.1197 -1.10907 0
M  V30 2198 C 208.162 1.87402 -0.876824 0
M  V30 2199 C 208.577 1.79894 0.573025 0
M  V30 2200 O 207.934 1.17629 1.39534 0
M  V30 2201 C 207.985 3.36428 -1.32282 0
M  V30 2202 O 207.706 3.43765 -2.71582 0
M  V30 2203 C 209.207 4.28783 -1.12518 0
M  V30 2204 H 206.427 0.592793 -0.314384 0
M  V30 2205 H 208.971 1.41649 -1.47499 0
M  V30 2206 H 207.126 3.79706 -0.768229 0
M  V30 2207 H 207.54 4.3652 -2.90776 0
M  V30 2208 H 209.014 5.31613 -1.48633 0
M  V30 2209 H 209.491 4.39153 -0.0642394 0
M  V30 2210 H 210.097 3.91291 -1.66648 0
M  V30 2211 N 208.412 0.89855 1.29475 0
M  V30 2212 C 209.652 0.530771 1.97388 0
M  V30 2213 C 210.016 -0.905832 1.69289 0
M  V30 2214 O 211.217 -1.38042 2.30646 0
M  V30 2215 C 209.488 0.81369 3.48014 0
M  V30 2216 S 211.047 0.550048 4.35339 0
M  V30 2217 H 207.865 0.196956 0.683176 0
M  V30 2218 H 210.467 1.16074 1.57312 0
M  V30 2219 H 209.171 1.85749 3.65958 0
M  V30 2220 H 208.702 0.171795 3.93025 0
M  V30 2221 H 210.717 -0.605423 4.92493 0
M  V30 2222 N 209.89 -1.43072 0.660911 0
M  V30 2223 C 210.853 -2.29194 -0.0166406 0
M  V30 2224 C 211.853 -1.42609 -0.742912 0
M  V30 2225 O 213.043 -1.64155 -0.583004 0
M  V30 2226 C 210.175 -3.24831 -1.0343 0
M  V30 2227 H 211.368 -2.90596 0.741208 0
M  V30 2228 H 208.921 -1.5048 0.422532 0
M  V30 2229 H 209.656 -2.68339 -1.82111 0
M  V30 2230 H 209.441 -3.88676 -0.517082 0
M  V30 2231 H 210.931 -3.89451 -1.50723 0
M  V30 2232 N 211.368 -0.403325 -1.52352 0
M  V30 2233 C 212.616 0.174003 -2.0135 0
M  V30 2234 C 212.937 1.46139 -1.29106 0
M  V30 2235 O 212.207 1.91448 -0.415253 0
M  V30 2236 H 210.787 0.0672911 -0.743963 0
M  V30 2237 H 213.449 -0.538235 -1.87321 0
M  V30 2238 H 212.545 0.374254 -3.09848 0
M  V30 2239 N 212.846 1.57033 -0.133567 0
M  V30 2240 C 214.093 1.95686 0.520877 0
M  V30 2241 C 214.421 1.0177 1.6575 0
M  V30 2242 O 213.676 0.0443195 1.9565 0
M  V30 2243 C 213.975 3.40674 1.08057 0
M  V30 2244 C 213.641 4.50855 0.0637899 0
M  V30 2245 C 212.303 4.80716 -0.215757 0
M  V30 2246 C 214.655 5.17398 -0.62835 0
M  V30 2247 C 211.983 5.74433 -1.19348 0
M  V30 2248 C 214.335 6.12167 -1.5948 0
M  V30 2249 C 212.999 6.40414 -1.88218 0
M  V30 2250 H 212.269 0.716067 0.190602 0
M  V30 2251 H 214.916 1.9026 -0.217556 0
M  V30 2252 H 213.221 3.42865 1.89606 0
M  V30 2253 H 214.918 3.67902 1.59529 0
M  V30 2254 H 211.508 4.27605 0.291855 0
M  V30 2255 H 215.692 4.94472 -0.425562 0
M  V30 2256 H 210.948 5.94616 -1.42272 0
M  V30 2257 H 215.122 6.6281 -2.13671 0
M  V30 2258 H 212.749 7.12838 -2.64133 0
M  V30 2259 N 214.325 -0.140222 1.56975 0
M  V30 2260 C 215.736 -0.699596 1.73097 0
M  V30 2261 C 216.087 -1.8134 0.749022 0
M  V30 2262 O 215.212 -2.16241 -0.0828503 0
M  V30 2263 C 215.807 -1.27582 3.1386 0
M  V30 2264 C 214.366 -1.78169 3.31561 0
M  V30 2265 C 213.513 -0.672855 2.69013 0
M  V30 2266 H 216.464 0.0855115 1.58469 0
M  V30 2267 H 216.485 -2.14561 3.14235 0
M  V30 2268 H 215.997 -0.464955 3.85305 0
M  V30 2269 H 214.098 -2.61801 2.65124 0
M  V30 2270 H 214.211 -1.90574 4.39566 0
M  V30 2271 H 212.575 -1.10118 2.29665 0
M  V30 2272 H 213.358 0.126679 3.43066 0
M  V30 2273 N 215.803 -1.52179 -0.40978 0
M  V30 2274 C 217.051 -1.65878 -1.15451 0
M  V30 2275 C 217.372 -0.390771 -1.91044 0
M  V30 2276 O 216.642 0.594323 -1.86667 0
M  V30 2277 H 215.222 -0.611405 -0.429177 0
M  V30 2278 H 217.884 -1.89219 -0.467134 0
M  V30 2279 H 216.98 -2.49954 -1.86894 0
M  V30 2280 N 217.281 0.66697 -1.42791 0
M  V30 2281 C 218.506 1.46004 -1.47301 0
M  V30 2282 C 218.931 1.87894 -0.0880317 0
M  V30 2283 O 218.289 1.56502 0.915253 0
M  V30 2284 C 218.337 2.68031 -2.41229 0
M  V30 2285 O 217.441 3.6659 -1.88906 0
M  V30 2286 H 216.782 0.43832 -0.49877 0
M  V30 2287 H 219.312 0.817391 -1.87563 0
M  V30 2288 H 219.322 3.1601 -2.58073 0
M  V30 2289 H 217.997 2.36883 -3.41847 0
M  V30 2290 H 216.574 3.25661 -1.81656 0
M  V30 2291 N 218.759 1.29093 0.90403 0
M  V30 2292 C 220.006 1.16813 1.65411 0
M  V30 2293 C 220.334 -0.28128 1.92455 0
M  V30 2294 O 219.589 -1.22006 1.53013 0
M  V30 2295 C 219.888 1.92224 3.01305 0
M  V30 2296 C 219.554 3.41968 2.93885 0
M  V30 2297 C 218.216 3.82807 2.91569 0
M  V30 2298 C 220.568 4.37409 2.83413 0
M  V30 2299 C 217.896 5.1741 2.76594 0
M  V30 2300 C 220.248 5.72097 2.69977 0
M  V30 2301 C 218.912 6.12199 2.66024 0
M  V30 2302 H 218.182 0.42745 0.605283 0
M  V30 2303 H 220.829 1.59981 1.05254 0
M  V30 2304 H 219.134 1.41635 3.65304 0
M  V30 2305 H 220.831 1.80131 3.58265 0
M  V30 2306 H 217.421 3.09504 2.96488 0
M  V30 2307 H 221.605 4.06813 2.84283 0
M  V30 2308 H 216.861 5.47596 2.71935 0
M  V30 2309 H 221.035 6.45704 2.60844 0
M  V30 2310 H 218.662 7.16448 2.54178 0
M  V30 2311 N 220.237 -1.11381 1.11499 0
M  V30 2312 C 221.485 -1.8277 0.862524 0
M  V30 2313 C 221.806 -1.85097 -0.613534 0
M  V30 2314 O 221.076 -1.32198 -1.4457 0
M  V30 2315 H 219.656 -0.676823 0.316101 0
M  V30 2316 H 222.318 -1.34816 1.4075 0
M  V30 2317 H 221.414 -2.86614 1.23527 0
M  V30 2318 N 221.715 -0.905404 -1.28997 0
M  V30 2319 C 222.945 -0.549049 -1.99171 0
M  V30 2320 C 223.353 0.87203 -1.67906 0
M  V30 2321 O 222.696 1.58796 -0.923561 0
M  V30 2322 C 222.758 -0.668306 -3.53234 0
M  V30 2323 C 222.422 -2.0574 -4.08069 0
M  V30 2324 C 223.419 -3.0292 -4.22534 0
M  V30 2325 C 221.104 -2.36833 -4.42962 0
M  V30 2326 C 223.098 -4.29314 -4.71135 0
M  V30 2327 C 220.785 -3.63467 -4.91258 0
M  V30 2328 C 221.783 -4.59522 -5.053 0
M  V30 2329 O 221.471 -5.83907 -5.52546 0
M  V30 2330 H 221.203 -0.208784 -0.64295 0
M  V30 2331 H 223.757 -1.21836 -1.65363 0
M  V30 2332 H 221.987 0.0580547 -3.86656 0
M  V30 2333 H 223.676 -0.320273 -4.04634 0
M  V30 2334 H 224.442 -2.80216 -3.95859 0
M  V30 2335 H 220.321 -1.62824 -4.31288 0
M  V30 2336 H 223.865 -5.04293 -4.8201 0
M  V30 2337 H 219.762 -3.86 -5.17372 0
M  V30 2338 H 220.53 -5.86578 -5.70849 0
M  V30 2339 N 223.193 1.4272 -0.668489 0
M  V30 2340 C 224.423 2.05668 -0.196063 0
M  V30 2341 C 224.831 1.5028 1.14946 0
M  V30 2342 O 224.174 0.6348 1.72383 0
M  V30 2343 C 224.236 3.59469 -0.0468879 0
M  V30 2344 C 223.9 4.37518 -1.32012 0
M  V30 2345 C 224.897 4.68584 -2.25222 0
M  V30 2346 C 222.582 4.77266 -1.56596 0
M  V30 2347 C 224.576 5.38326 -3.41297 0
M  V30 2348 C 222.263 5.4675 -2.72962 0
M  V30 2349 C 223.261 5.77204 -3.65137 0
M  V30 2350 O 222.949 6.45264 -4.79468 0
M  V30 2351 H 222.681 0.669382 -0.0943599 0
M  V30 2352 H 225.235 1.83954 -0.913788 0
M  V30 2353 H 223.465 3.79817 0.726357 0
M  V30 2354 H 225.154 4.04071 0.384852 0
M  V30 2355 H 225.92 4.38382 -2.07477 0
M  V30 2356 H 221.799 4.52959 -0.857249 0
M  V30 2357 H 225.343 5.62014 -4.13263 0
M  V30 2358 H 221.24 5.76369 -2.90635 0
M  V30 2359 H 222.008 6.63753 -4.78931 0
M  V30 2360 N 224.671 0.411399 1.52136 0
M  V30 2361 C 225.948 -0.222308 1.94333 0
M  V30 2362 C 226.328 -1.6242 1.34844 0
M  V30 2363 O 225.676 -2.22384 0.525145 0
M  V30 2364 C 225.886 -0.226345 3.48265 0
M  V30 2365 C 227.234 -0.444592 4.22266 0
M  V30 2366 O 228.258 -0.305602 3.54887 0
M  V30 2367 O 227.117 -0.718749 5.41753 0
M  V30 2368 H 224.211 -0.143907 0.814383 0
M  V30 2369 H 226.757 0.467506 1.63133 0
M  V30 2370 H 225.529 0.75475 3.83952 0
M  V30 2371 H 225.152 -0.960163 3.85832 0
M  V30 2372 N 226.149 -1.5696 0.141893 0
M  V30 2373 C 227.398 -1.95135 -0.510427 0
M  V30 2374 C 227.711 -1.02896 -1.66348 0
M  V30 2375 O 228.917 -1.30629 -2.38009 0
M  V30 2376 C 227.373 -3.46876 -0.959427 0
M  V30 2377 C 226.981 -4.47691 0.166419 0
M  V30 2378 C 228.725 -3.93927 -1.58183 0
M  V30 2379 C 226.632 -5.90636 -0.300565 0
M  V30 2380 H 225.562 -0.728494 -0.194454 0
M  V30 2381 H 228.213 -1.8211 0.22542 0
M  V30 2382 H 226.595 -3.55215 -1.75038 0
M  V30 2383 H 227.769 -4.51043 0.94325 0
M  V30 2384 H 226.084 -4.10527 0.696905 0
M  V30 2385 H 228.681 -4.98158 -1.94275 0
M  V30 2386 H 229.024 -3.3519 -2.46888 0
M  V30 2387 H 229.557 -3.88484 -0.855863 0
M  V30 2388 H 226.296 -6.5318 0.550989 0
M  V30 2389 H 225.816 -5.90655 -1.04338 0
M  V30 2390 H 227.495 -6.42588 -0.754265 0
M  V30 2391 N 227.627 0.131896 -1.57047 0
M  V30 2392 C 228.904 0.871495 -1.75112 0
M  V30 2393 C 229.284 1.9866 -0.713949 0
M  V30 2394 O 228.632 2.26965 0.264447 0
M  V30 2395 C 228.842 1.40007 -3.19686 0
M  V30 2396 C 230.19 1.85752 -3.81813 0
M  V30 2397 O 231.214 1.49715 -3.23209 0
M  V30 2398 O 230.073 2.5226 -4.84796 0
M  V30 2399 H 227.167 0.412919 -0.716538 0
M  V30 2400 H 229.713 0.116641 -1.69299 0
M  V30 2401 H 228.485 0.599404 -3.86682 0
M  V30 2402 H 228.108 2.218 -3.29986 0
M  V30 2403 N 229.106 1.52395 0.401703 0
M  V30 2404 C 230.069 1.75636 1.47257 0
M  V30 2405 C 231.069 0.62628 1.48103 0
M  V30 2406 O 232.259 0.894227 1.49497 0
M  V30 2407 C 229.391 1.84553 2.86624 0
M  V30 2408 H 230.584 2.71241 1.27938 0
M  V30 2409 H 228.137 1.42923 0.632662 0
M  V30 2410 H 228.872 0.908882 3.11303 0
M  V30 2411 H 228.657 2.66715 2.87412 0
M  V30 2412 H 230.147 2.04251 3.64241 0
M  V30 2413 N 230.584 -0.659388 1.43143 0
M  V30 2414 C 231.516 -1.7849 1.43784 0
M  V30 2415 C 232.529 -1.5932 0.334787 0
M  V30 2416 O 233.718 -1.68155 0.598842 0
M  V30 2417 C 230.818 -3.15828 1.22906 0
M  V30 2418 C 229.991 -3.61711 2.45934 0
M  V30 2419 C 229.05 -4.77831 2.20371 0
M  V30 2420 O 228.076 -4.87586 2.93681 0
M  V30 2421 N 229.278 -5.67611 1.21647 0
M  V30 2422 H 232.043 -1.7842 2.40803 0
M  V30 2423 H 229.604 -0.84302 1.3822 0
M  V30 2424 H 231.596 -3.91189 1.03697 0
M  V30 2425 H 230.166 -3.10707 0.343542 0
M  V30 2426 H 229.386 -2.76861 2.80609 0
M  V30 2427 H 230.674 -3.89112 3.27825 0
M  V30 2428 H 230.072 -5.62397 0.610449 0
M  V30 2429 H 228.629 -6.42719 1.08423 0
M  V30 2430 N 232.062 -1.29571 -0.897171 0
M  V30 2431 C 233.29 -1.20583 -1.68129 0
M  V30 2432 C 233.705 0.233181 -1.87354 0
M  V30 2433 O 233.062 1.15579 -1.41236 0
M  V30 2434 C 233.113 -1.91772 -3.06441 0
M  V30 2435 O 232.834 -3.30053 -2.88091 0
M  V30 2436 C 234.335 -1.89291 -4.00854 0
M  V30 2437 H 231.555 -0.417826 -0.525036 0
M  V30 2438 H 234.099 -1.70987 -1.12177 0
M  V30 2439 H 232.254 -1.45196 -3.59161 0
M  V30 2440 H 232.668 -3.65942 -3.75748 0
M  V30 2441 H 234.142 -2.43662 -4.95311 0
M  V30 2442 H 234.619 -0.869014 -4.30517 0
M  V30 2443 H 235.225 -2.35622 -3.54066 0
M  V30 2444 N 233.54 1.10788 -1.12088 0
M  V30 2445 C 234.787 1.82671 -0.873931 0
M  V30 2446 C 235.115 1.85004 0.600311 0
M  V30 2447 O 234.37 1.30365 1.45957 0
M  V30 2448 C 234.669 3.29294 -1.38926 0
M  V30 2449 C 234.335 3.47113 -2.87791 0
M  V30 2450 C 232.997 3.51684 -3.28439 0
M  V30 2451 C 235.349 3.52808 -3.83635 0
M  V30 2452 C 232.677 3.59513 -4.63646 0
M  V30 2453 C 235.029 3.62169 -5.18668 0
M  V30 2454 C 233.693 3.65003 -5.58864 0
M  V30 2455 H 232.963 0.668441 -0.319794 0
M  V30 2456 H 235.61 1.30613 -1.40045 0
M  V30 2457 H 233.915 3.83894 -0.783122 0
M  V30 2458 H 235.612 3.83416 -1.17443 0
M  V30 2459 H 232.202 3.4423 -2.5535 0
M  V30 2460 H 236.386 3.4853 -3.53328 0
M  V30 2461 H 231.642 3.59987 -4.94185 0
M  V30 2462 H 235.816 3.6552 -5.92763 0
M  V30 2463 H 233.443 3.70822 -6.63623 0
M  V30 2464 N 235.018 0.912232 1.28515 0
M  V30 2465 C 235.981 0.404223 2.25607 0
M  V30 2466 C 236.981 -0.468602 1.53821 0
M  V30 2467 O 238.171 -0.271873 1.72065 0
M  V30 2468 C 235.303 -0.420653 3.38295 0
M  V30 2469 H 236.496 1.26188 2.7206 0
M  V30 2470 H 234.049 0.691495 1.40171 0
M  V30 2471 H 234.784 -1.29777 2.97201 0
M  V30 2472 H 234.569 0.204935 3.91564 0
M  V30 2473 H 236.059 -0.766971 4.10496 0
M  V30 2474 N 236.496 -1.42363 0.676048 0
M  V30 2475 C 237.773 -1.95183 0.127726 0
M  V30 2476 C 238.153 -1.61641 -1.35777 0
M  V30 2477 O 237.501 -0.913216 -2.09458 0
M  V30 2478 C 237.711 -3.46721 0.398199 0
M  V30 2479 C 239.059 -4.23427 0.315383 0
M  V30 2480 O 240.083 -3.54649 0.332016 0
M  V30 2481 O 238.942 -5.45888 0.25865 0
M  V30 2482 H 236.036 -0.826992 0.00359427 0
M  V30 2483 H 238.582 -1.52184 0.750864 0
M  V30 2484 H 237.354 -3.64344 1.4272 0
M  V30 2485 H 236.977 -3.96769 -0.256885 0
M  V30 2486 N 237.974 -0.419461 -1.51915 0
M  V30 2487 C 239.22 0.145505 -2.02879 0
M  V30 2488 C 239.575 1.41926 -1.29903 0
M  V30 2489 O 238.868 1.87383 -0.399782 0
M  V30 2490 C 239.062 0.437067 -3.54717 0
M  V30 2491 C 238.891 -0.806877 -4.42402 0
M  V30 2492 C 237.661 -1.33514 -4.87342 0
M  V30 2493 C 239.859 -1.68796 -4.85811 0
M  V30 2494 N 237.841 -2.53349 -5.59185 0
M  V30 2495 C 239.212 -2.73247 -5.56539 0
M  V30 2496 C 241.267 -1.70449 -4.67816 0
M  V30 2497 C 239.97 -3.79276 -6.11181 0
M  V30 2498 C 241.996 -2.75403 -5.23361 0
M  V30 2499 C 241.358 -3.78575 -5.9402 0
M  V30 2500 H 237.457 0.0145424 -0.781865 0
M  V30 2501 H 240.041 -0.576126 -1.85981 0
M  V30 2502 H 238.212 1.12774 -3.71667 0
M  V30 2503 H 239.944 0.99182 -3.92358 0
M  V30 2504 H 236.699 -0.891657 -4.65131 0
M  V30 2505 H 237.123 -3.14066 -5.99743 0
M  V30 2506 H 241.765 -0.920209 -4.12664 0
M  V30 2507 H 239.483 -4.58554 -6.65397 0
M  V30 2508 H 243.069 -2.77603 -5.113 0
M  V30 2509 H 241.949 -4.58453 -6.36231 0
M  V30 2510 N 239.452 1.56882 -0.150215 0
M  V30 2511 C 240.7 1.9584 0.499105 0
M  V30 2512 C 241.021 1.03623 1.65188 0
M  V30 2513 O 240.291 0.0984084 1.95653 0
M  V30 2514 H 238.871 0.723119 0.187373 0
M  V30 2515 H 241.533 1.9358 -0.226466 0
M  V30 2516 H 240.629 2.99638 0.873122 0
M  V30 2517 N 240.93 -0.123565 1.57115 0
M  V30 2518 C 242.176 -0.833386 1.84885 0
M  V30 2519 C 242.509 -1.79742 0.735292 0
M  V30 2520 O 241.784 -1.92764 -0.25925 0
M  V30 2521 C 242.067 -1.5873 3.23228 0
M  V30 2522 C 241.92 -0.643183 4.45178 0
M  V30 2523 C 243.239 -2.54453 3.59085 0
M  V30 2524 H 240.358 -0.301518 0.6725 0
M  V30 2525 H 243 -0.097778 1.89748 0
M  V30 2526 H 241.15 -2.21438 3.19214 0
M  V30 2527 H 242.822 -0.0253015 4.61293 0
M  V30 2528 H 241.065 0.0456139 4.33776 0
M  V30 2529 H 241.736 -1.20724 5.38637 0
M  V30 2530 H 244.212 -2.01853 3.63861 0
M  V30 2531 H 243.088 -3.04238 4.5687 0
M  V30 2532 H 243.349 -3.36906 2.86264 0
M  V30 2533 N 242.408 -1.52605 -0.393616 0
M  V30 2534 C 243.685 -1.58001 -1.15304 0
M  V30 2535 C 244.065 -0.370385 -2.07825 0
M  V30 2536 O 243.413 0.641638 -2.19306 0
M  V30 2537 C 243.623 -2.91652 -1.91677 0
M  V30 2538 C 244.971 -3.4522 -2.47201 0
M  V30 2539 O 245.995 -2.93495 -2.01839 0
M  V30 2540 O 244.854 -4.35579 -3.3005 0
M  V30 2541 H 241.948 -0.637068 -0.527327 0
M  V30 2542 H 244.494 -1.64939 -0.399141 0
M  V30 2543 H 243.266 -3.71136 -1.23992 0
M  V30 2544 H 242.889 -2.88077 -2.74039 0
M  V30 2545 N 243.887 0.651787 -1.4349 0
M  V30 2546 C 244.817 1.77621 -1.51569 0
M  V30 2547 C 245.798 1.66022 -0.370253 0
M  V30 2548 O 246.983 1.85095 -0.587658 0
M  V30 2549 C 244.113 3.16056 -1.43966 0
M  V30 2550 C 243.067 3.4242 -2.56774 0
M  V30 2551 C 242.393 4.8067 -2.34223 0
M  V30 2552 C 243.693 3.37023 -3.99015 0
M  V30 2553 H 245.387 1.71117 -2.45681 0
M  V30 2554 H 242.933 0.821825 -1.18246 0
M  V30 2555 H 244.886 3.94472 -1.48221 0
M  V30 2556 H 243.61 3.23293 -0.463586 0
M  V30 2557 H 242.269 2.66375 -2.51873 0
M  V30 2558 H 241.917 4.84585 -1.34856 0
M  V30 2559 H 241.617 4.9927 -3.09844 0
M  V30 2560 H 243.141 5.61342 -2.40265 0
M  V30 2561 H 244.555 4.05374 -4.05395 0
M  V30 2562 H 242.952 3.67159 -4.74673 0
M  V30 2563 H 244.022 2.3518 -4.2405 0
M  V30 2564 N 245.365 1.30045 0.890287 0
M  V30 2565 C 246.295 1.18541 2.01172 0
M  V30 2566 C 247.276 0.0773356 1.69924 0
M  V30 2567 O 248.461 0.25845 1.92473 0
M  V30 2568 C 245.591 0.870941 3.36202 0
M  V30 2569 C 244.545 1.93637 3.81692 0
M  V30 2570 C 243.871 1.475 5.13953 0
M  V30 2571 C 245.171 3.34666 4.00994 0
M  V30 2572 H 246.865 2.12359 2.11054 0
M  V30 2573 H 244.411 1.02238 1.01407 0
M  V30 2574 H 246.364 0.777141 4.14172 0
M  V30 2575 H 245.088 -0.102926 3.26438 0
M  V30 2576 H 243.747 2.01972 3.05946 0
M  V30 2577 H 243.395 0.489551 5.00612 0
M  V30 2578 H 243.095 2.1876 5.4536 0
M  V30 2579 H 244.619 1.39489 5.94454 0
M  V30 2580 H 246.033 3.2912 4.69417 0
M  V30 2581 H 244.43 4.03966 4.43769 0
M  V30 2582 H 245.5 3.76949 3.05021 0
M  V30 2583 N 246.843 -1.10192 1.12674 0
M  V30 2584 C 247.79 -2.16606 0.796906 0
M  V30 2585 C 248.76 -1.64394 -0.237476 0
M  V30 2586 O 249.945 -1.90474 -0.111484 0
M  V30 2587 C 247.085 -3.44116 0.26043 0
M  V30 2588 C 246.198 -4.10268 1.35293 0
M  V30 2589 C 245.333 -5.25507 0.775621 0
M  V30 2590 C 244.372 -5.83567 1.84706 0
M  V30 2591 N 243.509 -6.90179 1.28829 0
M  V30 2592 H 248.349 -2.44163 1.70846 0
M  V30 2593 H 245.886 -1.19846 0.85295 0
M  V30 2594 H 247.844 -4.17143 -0.0686814 0
M  V30 2595 H 246.474 -3.16901 -0.614274 0
M  V30 2596 H 245.526 -3.35184 1.79877 0
M  V30 2597 H 246.838 -4.4946 2.16303 0
M  V30 2598 H 245.992 -6.05398 0.397327 0
M  V30 2599 H 244.731 -4.87656 -0.0656581 0
M  V30 2600 H 243.736 -5.02344 2.23452 0
M  V30 2601 H 244.961 -6.23482 2.69161 0
M  V30 2602 H 242.907 -6.54322 0.468881 0
M  V30 2603 H 242.824 -7.28097 2.03497 0
M  V30 2604 H 244.092 -7.73844 0.937311 0
M  V30 2605 N 248.321 -0.919034 -1.28029 0
M  V30 2606 C 249.568 -0.554934 -1.94748 0
M  V30 2607 C 249.896 0.90231 -1.72304 0
M  V30 2608 O 249.151 1.65767 -1.04018 0
M  V30 2609 C 249.45 -0.816855 -3.4794 0
M  V30 2610 C 249.116 -2.25448 -3.90492 0
M  V30 2611 C 247.778 -2.64752 -4.01821 0
M  V30 2612 C 250.13 -3.18977 -4.12193 0
M  V30 2613 C 247.458 -3.96727 -4.32232 0
M  V30 2614 C 249.81 -4.50523 -4.44086 0
M  V30 2615 C 248.474 -4.89673 -4.53626 0
M  V30 2616 H 247.744 -0.203065 -0.712633 0
M  V30 2617 H 250.391 -1.16136 -1.52265 0
M  V30 2618 H 248.696 -0.127677 -3.91592 0
M  V30 2619 H 250.393 -0.514238 -3.97689 0
M  V30 2620 H 246.983 -1.93952 -3.82205 0
M  V30 2621 H 251.167 -2.89817 -4.02889 0
M  V30 2622 H 246.423 -4.26754 -4.37825 0
M  V30 2623 H 250.597 -5.23005 -4.59825 0
M  V30 2624 H 248.224 -5.91969 -4.76946 0
M  V30 2625 N 249.799 1.42003 -0.683588 0
M  V30 2626 C 251.076 1.95112 -0.138075 0
M  V30 2627 C 251.456 1.62359 1.34918 0
M  V30 2628 O 250.804 0.924311 2.08971 0
M  V30 2629 C 251.014 3.46505 -0.416581 0
M  V30 2630 C 252.362 4.23254 -0.337834 0
M  V30 2631 O 253.386 3.54468 -0.35082 0
M  V30 2632 O 252.245 5.45743 -0.287596 0
M  V30 2633 H 249.339 0.826961 -0.00797996 0
M  V30 2634 H 251.885 1.51784 -0.758924 0
M  V30 2635 H 250.657 3.63582 -1.4465 0
M  V30 2636 H 250.28 3.969 0.235839 0
M  V30 2637 N 251.277 0.427512 1.51691 0
M  V30 2638 C 252.525 -0.141948 2.01601 0
M  V30 2639 C 252.846 -1.44067 1.31414 0
M  V30 2640 O 252.116 -1.90763 0.445658 0
M  V30 2641 H 250.696 -0.0554468 0.744939 0
M  V30 2642 H 253.358 0.567968 1.86441 0
M  V30 2643 H 252.454 -0.324913 3.10404 0
M  V30 2644 N 252.755 -1.56801 0.158532 0
M  V30 2645 C 253.995 -1.98383 -0.49229 0
M  V30 2646 C 254.359 -1.04184 -1.61275 0
M  V30 2647 O 255.56 -1.34856 -2.32524 0
M  V30 2648 C 253.831 -3.4385 -0.974766 0
M  V30 2649 S 255.39 -4.07459 -1.62857 0
M  V30 2650 H 252.208 -0.693041 -0.158794 0
M  V30 2651 H 254.81 -1.93856 0.252974 0
M  V30 2652 H 253.514 -4.10131 -0.148688 0
M  V30 2653 H 253.045 -3.52115 -1.75438 0
M  V30 2654 H 255.06 -4.01458 -2.91627 0
M  V30 2655 N 254.233 0.115231 -1.57178 0
M  V30 2656 C 255.463 0.835224 -1.88964 0
M  V30 2657 C 255.871 1.73774 -0.74829 0
M  V30 2658 O 255.214 1.81401 0.289739 0
M  V30 2659 C 255.276 1.7178 -3.15804 0
M  V30 2660 C 254.94 0.989198 -4.46166 0
M  V30 2661 C 255.937 0.328263 -5.18863 0
M  V30 2662 C 253.622 0.969256 -4.9286 0
M  V30 2663 C 255.616 -0.342873 -6.36477 0
M  V30 2664 C 253.303 0.294324 -6.10391 0
M  V30 2665 C 254.301 -0.360582 -6.82048 0
M  V30 2666 O 253.989 -1.02474 -7.97342 0
M  V30 2667 H 253.721 0.245197 -0.629964 0
M  V30 2668 H 256.275 0.10303 -2.05141 0
M  V30 2669 H 254.505 2.49173 -2.95719 0
M  V30 2670 H 256.194 2.31255 -3.33581 0
M  V30 2671 H 256.96 0.335263 -4.8384 0
M  V30 2672 H 252.839 1.46844 -4.36987 0
M  V30 2673 H 256.383 -0.854629 -6.92345 0
M  V30 2674 H 252.28 0.285099 -6.4487 0
M  V30 2675 H 253.048 -0.929594 -8.13204 0
M  V30 2676 N 255.711 1.52812 0.385517 0
M  V30 2677 C 256.951 1.69716 1.13911 0
M  V30 2678 C 257.315 0.42962 1.87132 0
M  V30 2679 O 258.516 0.475071 2.64569 0
M  V30 2680 C 256.787 2.90021 2.0886 0
M  V30 2681 S 258.346 3.27531 2.92009 0
M  V30 2682 H 255.164 0.59739 0.385547 0
M  V30 2683 H 257.766 1.90868 0.423061 0
M  V30 2684 H 256.47 3.80493 1.53797 0
M  V30 2685 H 256.001 2.71213 2.84969 0
M  V30 2686 H 258.016 2.77989 4.11019 0
M  V30 2687 N 257.189 -0.644168 1.43834 0
M  V30 2688 C 258.466 -1.40188 1.36406 0
M  V30 2689 C 258.846 -2.11094 0.0163124 0
M  V30 2690 O 258.194 -2.05426 -1.00062 0
M  V30 2691 C 258.404 -2.3791 2.55343 0
M  V30 2692 C 259.752 -3.01637 2.98832 0
M  V30 2693 O 260.776 -2.48237 2.55455 0
M  V30 2694 O 259.635 -3.98477 3.74003 0
M  V30 2695 H 256.729 -0.626773 0.539523 0
M  V30 2696 H 259.275 -0.670317 1.559 0
M  V30 2697 H 258.047 -1.84525 3.4506 0
M  V30 2698 H 257.67 -3.18503 2.37995 0
M  V30 2699 N 258.668 -1.30515 -0.883378 0
M  V30 2700 C 259.893 -1.22487 -1.67367 0
M  V30 2701 C 260.318 0.208767 -1.86938 0
M  V30 2702 O 259.676 1.15015 -1.40148 0
M  V30 2703 C 259.724 -1.96041 -3.02655 0
M  V30 2704 O 258.828 -1.28859 -3.91751 0
M  V30 2705 H 258.169 -0.423573 -0.511353 0
M  V30 2706 H 260.699 -1.72362 -1.10239 0
M  V30 2707 H 260.709 -2.05124 -3.52687 0
M  V30 2708 H 259.384 -3.00307 -2.8773 0
M  V30 2709 H 257.961 -1.28141 -3.50192 0
M  V30 2710 N 260.146 1.09593 -1.13257 0
M  V30 2711 C 261.076 2.18214 -0.830946 0
M  V30 2712 C 262.057 1.68812 0.208966 0
M  V30 2713 O 263.242 1.9408 0.0682666 0
M  V30 2714 C 260.372 3.46051 -0.294296 0
M  V30 2715 C 259.326 4.08778 -1.26826 0
M  V30 2716 C 258.652 5.31419 -0.591449 0
M  V30 2717 C 259.952 4.51476 -2.62615 0
M  V30 2718 H 261.646 2.43703 -1.73923 0
M  V30 2719 H 259.192 1.17128 -0.837675 0
M  V30 2720 H 261.145 4.2134 -0.0709606 0
M  V30 2721 H 259.869 3.20079 0.649366 0
M  V30 2722 H 258.528 3.35505 -1.47756 0
M  V30 2723 H 258.176 5.01727 0.357633 0
M  V30 2724 H 257.876 5.74341 -1.24123 0
M  V30 2725 H 259.4 6.09433 -0.377355 0
M  V30 2726 H 260.814 5.17999 -2.45663 0
M  V30 2727 H 259.211 5.05277 -3.23752 0
M  V30 2728 H 260.281 3.63962 -3.20406 0
M  V30 2729 N 261.624 0.925811 1.2754 0
M  V30 2730 C 262.534 0.428993 2.30644 0
M  V30 2731 C 263.55 -0.489387 1.66976 0
M  V30 2732 O 264.726 -0.372653 1.97922 0
M  V30 2733 C 261.791 -0.311967 3.45294 0
M  V30 2734 C 260.852 0.641098 4.24486 0
M  V30 2735 C 260.085 -0.0645955 5.33661 0
M  V30 2736 O 260.308 -1.28429 5.55754 0
M  V30 2737 O 259.242 0.606265 5.98839 0
M  V30 2738 H 263.068 1.28504 2.75173 0
M  V30 2739 H 260.653 0.691086 1.32455 0
M  V30 2740 H 262.535 -0.729972 4.15029 0
M  V30 2741 H 261.21 -1.14365 3.02824 0
M  V30 2742 H 260.117 1.10874 3.57292 0
M  V30 2743 H 261.45 1.43995 4.70666 0
M  V30 2744 N 263.102 -1.41638 0.69111 0
M  V30 2745 C 264.05 -2.32597 0.0115199 0
M  V30 2746 C 265.044 -1.5072 -0.773296 0
M  V30 2747 O 266.25 -1.66685 -0.67942 0
M  V30 2748 H 262.625 -0.751849 -0.0150746 0
M  V30 2749 H 264.596 -2.87593 0.795791 0
M  V30 2750 C 263.345 -3.35467 -0.914172 0
M  V30 2751 H 262.668 -3.9852 -0.319687 0
M  V30 2752 H 264.108 -4.01662 -1.35808 0
M  V30 2753 C 262.567 -2.69004 -2.02826 0
M  V30 2754 O 263.097 -2.53444 -3.11655 0
M  V30 2755 N 261.303 -2.2777 -1.80469 0
M  V30 2756 H 260.85 -2.40626 -0.919615 0
M  V30 2757 H 260.808 -1.83635 -2.55197 0
M  V30 2758 N 264.58 -0.43555 -1.51462 0
M  V30 2759 C 265.51 0.367376 -2.30592 0
M  V30 2760 C 266.491 1.02263 -1.35928 0
M  V30 2761 O 267.676 1.02661 -1.64847 0
M  V30 2762 C 264.806 1.46983 -3.14664 0
M  V30 2763 C 263.76 0.938161 -4.17591 0
M  V30 2764 C 263.086 2.13622 -4.90173 0
M  V30 2765 C 264.386 -0.0261621 -5.22293 0
M  V30 2766 H 266.08 -0.292969 -2.97963 0
M  V30 2767 H 263.626 -0.14234 -1.43295 0
M  V30 2768 H 265.579 2.03873 -3.688 0
M  V30 2769 H 264.303 2.15843 -2.4511 0
M  V30 2770 H 262.962 0.391481 -3.64504 0
M  V30 2771 H 262.61 2.81098 -4.17124 0
M  V30 2772 H 262.31 1.78688 -5.59772 0
M  V30 2773 H 263.834 2.7107 -5.47132 0
M  V30 2774 H 265.248 0.452384 -5.71512 0
M  V30 2775 H 263.645 -0.287992 -5.99409 0
M  V30 2776 H 264.715 -0.963391 -4.75233 0
M  V30 2777 N 266.058 1.56714 -0.166846 0
M  V30 2778 C 267.021 2.16539 0.751232 0
M  V30 2779 C 268.021 1.11228 1.16125 0
M  V30 2780 O 269.211 1.36765 1.07894 0
M  V30 2781 C 266.343 2.74462 2.02196 0
M  V30 2782 H 267.536 2.99013 0.230499 0
M  V30 2783 H 265.089 1.56081 0.0826982 0
M  V30 2784 H 265.824 1.95709 2.58589 0
M  V30 2785 H 265.609 3.51527 1.73698 0
M  V30 2786 H 267.099 3.20489 2.67725 0
M  V30 2787 N 267.536 -0.106894 1.57237 0
M  V30 2788 C 268.813 -0.843526 1.76477 0
M  V30 2789 C 269.193 -1.97499 0.745464 0
M  V30 2790 O 268.541 -2.27357 -0.228306 0
M  V30 2791 C 268.751 -1.34903 3.21873 0
M  V30 2792 C 270.099 -1.79654 3.8472 0
M  V30 2793 O 271.123 -1.44554 3.2555 0
M  V30 2794 O 269.982 -2.44515 4.88748 0
M  V30 2795 H 267.076 -0.401468 0.723016 0
M  V30 2796 H 269.622 -0.0896927 1.69463 0
M  V30 2797 H 268.394 -0.53781 3.87586 0
M  V30 2798 H 268.017 -2.16522 3.33473 0
M  V30 2799 N 269.014 -1.53014 -0.377408 0
M  V30 2800 C 270.262 -1.6829 -1.11906 0
M  V30 2801 C 270.583 -0.431206 -1.90173 0
M  V30 2802 O 269.853 0.554595 -1.87886 0
M  V30 2803 H 268.433 -0.620371 -0.416112 0
M  V30 2804 H 271.095 -1.90167 -0.426893 0
M  V30 2805 H 270.191 -2.53862 -1.8155 0
M  V30 2806 N 270.492 0.636531 -1.44174 0
M  V30 2807 C 271.722 1.42146 -1.49927 0
M  V30 2808 C 272.13 1.88812 -0.121063 0
M  V30 2809 O 271.473 1.61126 0.882267 0
M  V30 2810 C 271.535 2.67883 -2.39748 0
M  V30 2811 C 271.199 2.43048 -3.8701 0
M  V30 2812 C 272.196 2.05216 -4.77684 0
M  V30 2813 C 269.881 2.56856 -4.3166 0
M  V30 2814 C 271.875 1.81512 -6.11009 0
M  V30 2815 C 269.562 2.32766 -5.65034 0
M  V30 2816 C 270.56 1.95152 -6.54526 0
M  V30 2817 O 270.248 1.71326 -7.85431 0
M  V30 2818 H 269.98 0.442567 -0.51099 0
M  V30 2819 H 272.534 0.786158 -1.8976 0
M  V30 2820 H 270.764 3.34032 -1.94832 0
M  V30 2821 H 272.453 3.29874 -2.36513 0
M  V30 2822 H 273.219 1.94111 -4.44462 0
M  V30 2823 H 269.098 2.85104 -3.62266 0
M  V30 2824 H 272.642 1.52077 -6.80822 0
M  V30 2825 H 268.539 2.43479 -5.97819 0
M  V30 2826 H 269.307 1.85616 -7.97176 0
M  V30 2827 N 271.97 1.30982 0.876444 0
M  V30 2828 C 272.917 1.18085 1.98304 0
M  V30 2829 C 273.887 0.0682263 1.6596 0
M  V30 2830 O 275.072 0.239937 1.89285 0
M  V30 2831 C 272.212 0.887475 3.33493 0
M  V30 2832 C 271.325 2.08281 3.78475 0
M  V30 2833 C 270.46 1.72678 5.0235 0
M  V30 2834 C 269.499 2.88657 5.39762 0
M  V30 2835 N 268.636 2.53292 6.54819 0
M  V30 2836 H 273.476 2.1275 2.08666 0
M  V30 2837 H 271.013 1.05839 1.02159 0
M  V30 2838 H 272.971 0.697961 4.1132 0
M  V30 2839 H 271.601 -0.022315 3.22792 0
M  V30 2840 H 270.653 2.3833 2.96484 0
M  V30 2841 H 271.965 2.95108 4.02135 0
M  V30 2842 H 271.119 1.50151 5.87826 0
M  V30 2843 H 269.858 0.830327 4.8058 0
M  V30 2844 H 268.863 3.1184 4.52809 0
M  V30 2845 H 270.088 3.79002 5.63502 0
M  V30 2846 H 268.034 1.66163 6.34607 0
M  V30 2847 H 267.951 3.3365 6.7839 0
M  V30 2848 H 269.219 2.34143 7.43503 0
M  V30 2849 N 273.449 -1.08991 1.13837 0
M  V30 2850 C 274.399 -2.1393 0.788535 0
M  V30 2851 C 275.383 -1.59396 -0.219516 0
M  V30 2852 O 276.575 -1.76985 -0.0227557 0
M  V30 2853 C 273.704 -3.42305 0.261147 0
M  V30 2854 C 272.79 -4.03736 1.29837 0
M  V30 2855 N 273.181 -4.39659 2.50067 0
M  V30 2856 C 271.479 -4.30993 1.1472 0
M  V30 2857 C 272.18 -4.88113 3.16419 0
M  V30 2858 N 271.156 -4.85846 2.43832 0
M  V30 2859 H 274.958 -2.39516 1.70322 0
M  V30 2860 H 272.472 -1.26263 1.02134 0
M  V30 2861 H 274.469 -4.16899 -0.0077405 0
M  V30 2862 H 273.129 -3.18172 -0.647805 0
M  V30 2863 H 274.14 -4.30878 2.8734 0
M  V30 2864 H 270.817 -4.16444 0.296773 0
M  V30 2865 H 272.207 -5.25336 4.18894 0
M  V30 2866 N 274.927 -0.932562 -1.27047 0
M  V30 2867 C 275.86 -0.379774 -2.25018 0
M  V30 2868 C 276.838 0.526587 -1.53837 0
M  V30 2869 O 278.022 0.465992 -1.82649 0
M  V30 2870 C 275.149 0.455187 -3.35627 0
M  V30 2871 C 274.195 -0.388428 -4.24728 0
M  V30 2872 S 275.028 -1.80701 -5.04091 0
M  V30 2873 C 276.184 -0.979865 -6.18182 0
M  V30 2874 H 276.417 -1.2101 -2.71558 0
M  V30 2875 H 273.95 -0.735078 -1.35779 0
M  V30 2876 H 275.908 0.931052 -3.99802 0
M  V30 2877 H 274.569 1.26009 -2.87716 0
M  V30 2878 H 273.762 0.25089 -5.03375 0
M  V30 2879 H 273.364 -0.798649 -3.65373 0
M  V30 2880 H 275.656 -0.218115 -6.77149 0
M  V30 2881 H 276.599 -1.73951 -6.86401 0
M  V30 2882 H 277.007 -0.51973 -5.62102 0
M  V30 2883 N 276.405 1.4127 -0.698611 0
M  V30 2884 C 277.63 2.06024 -0.238512 0
M  V30 2885 C 278.055 1.5224 1.10475 0
M  V30 2886 O 277.413 0.650623 1.69223 0
M  V30 2887 C 277.461 3.59988 -0.209952 0
M  V30 2888 O 276.565 4.04282 0.814235 0
M  V30 2889 H 275.906 0.653829 -0.115775 0
M  V30 2890 H 278.436 1.8098 -0.954326 0
M  V30 2891 H 278.446 4.07979 -0.0418436 0
M  V30 2892 H 277.121 3.98503 -1.1903 0
M  V30 2893 H 275.698 3.6779 0.615234 0
M  V30 2894 N 277.883 0.443576 1.51229 0
M  V30 2895 C 278.813 -0.355142 2.30783 0
M  V30 2896 C 279.794 -1.0154 1.36468 0
M  V30 2897 O 280.979 -1.01785 1.65389 0
M  V30 2898 C 278.109 -1.45312 3.15439 0
M  V30 2899 C 277.063 -0.916002 4.18083 0
M  V30 2900 C 276.389 -2.1102 4.91299 0
M  V30 2901 C 277.689 0.0538602 5.22272 0
M  V30 2902 H 279.383 0.308767 2.97804 0
M  V30 2903 H 276.929 0.149937 1.43217 0
M  V30 2904 H 278.882 -2.01914 3.69876 0
M  V30 2905 H 277.606 -2.14541 2.46252 0
M  V30 2906 H 276.265 -0.372145 3.64706 0
M  V30 2907 H 275.913 -2.78882 4.18609 0
M  V30 2908 H 275.613 -1.75717 5.60712 0
M  V30 2909 H 277.137 -2.68164 5.48562 0
M  V30 2910 H 278.551 -0.422069 5.71744 0
M  V30 2911 H 276.948 0.319776 5.99247 0
M  V30 2912 H 278.018 0.98858 4.74716 0
M  V30 2913 N 279.361 -1.56624 0.175154 0
M  V30 2914 C 280.324 -2.16934 -0.739738 0
M  V30 2915 C 281.324 -1.11842 -1.15533 0
M  V30 2916 O 282.514 -1.37335 -1.07167 0
M  V30 2917 C 279.646 -2.75531 -2.00738 0
M  V30 2918 H 280.839 -2.99131 -0.214639 0
M  V30 2919 H 278.392 -1.56123 -0.0744197 0
M  V30 2920 H 279.127 -1.97078 -2.57548 0
M  V30 2921 H 278.912 -3.52444 -1.71831 0
M  V30 2922 H 280.402 -3.21904 -2.66021 0
M  V30 2923 N 280.839 0.0985539 -1.57292 0
M  V30 2924 C 281.769 1.12064 -2.04851 0
M  V30 2925 C 282.75 1.41981 -0.936767 0
M  V30 2926 O 283.935 1.52071 -1.20781 0
M  V30 2927 C 281.065 2.44144 -2.47004 0
M  V30 2928 C 280.019 2.28643 -3.6181 0
M  V30 2929 C 279.345 3.65869 -3.89929 0
M  V30 2930 C 280.645 1.72986 -4.92822 0
M  V30 2931 H 282.339 0.724979 -2.9049 0
M  V30 2932 H 279.885 0.34729 -1.39749 0
M  V30 2933 H 281.838 3.15914 -2.78884 0
M  V30 2934 H 280.562 2.85639 -1.5836 0
M  V30 2935 H 279.221 1.59318 -3.30172 0
M  V30 2936 H 278.869 4.04885 -2.98458 0
M  V30 2937 H 278.569 3.56344 -4.67218 0
M  V30 2938 H 280.093 4.39112 -4.2428 0
M  V30 2939 H 281.507 2.34593 -5.23105 0
M  V30 2940 H 279.904 1.74229 -5.74251 0
M  V30 2941 H 280.974 0.689007 -4.7998 0
M  V30 2942 N 282.317 1.53212 0.369288 0
M  V30 2943 C 283.265 1.80054 1.47253 0
M  V30 2944 C 284.259 0.669456 1.55611 0
M  V30 2945 O 285.465 0.852328 1.58541 0
M  V30 2946 H 281.84 0.570034 0.490475 0
M  V30 2947 H 283.811 2.72403 1.21817 0
M  V30 2948 C 282.56 2.00403 2.84137 0
M  V30 2949 H 281.883 2.86876 2.78464 0
M  V30 2950 H 283.323 2.23164 3.60519 0
M  V30 2951 C 281.782 0.782081 3.27697 0
M  V30 2952 O 282.312 -0.0310205 4.01688 0
M  V30 2953 N 280.518 0.606573 2.84199 0
M  V30 2954 H 280.065 1.26939 2.24152 0
M  V30 2955 H 280.023 -0.20962 3.137 0
M  V30 2956 N 283.795 -0.628877 1.44509 0
M  V30 2957 C 285.211 -0.947305 1.28446 0
M  V30 2958 C 285.411 -2.00275 0.221872 0
M  V30 2959 O 284.467 -2.49447 -0.391471 0
M  V30 2960 C 285.78 -1.40843 2.65676 0
M  V30 2961 C 287.328 -1.52379 2.73404 0
M  V30 2962 C 287.803 -2.01875 4.11109 0
M  V30 2963 N 289.294 -2.09142 4.13296 0
M  V30 2964 C 290.029 -2.48615 5.16699 0
M  V30 2965 N 289.525 -2.87209 6.30462 0
M  V30 2966 N 291.318 -2.48768 5.04054 0
M  V30 2967 H 283.469 0.0690977 2.12288 0
M  V30 2968 H 285.732 -0.0317164 0.947469 0
M  V30 2969 H 285.438 -0.707206 3.44516 0
M  V30 2970 H 285.312 -2.37902 2.92716 0
M  V30 2971 H 287.699 -2.21598 1.9488 0
M  V30 2972 H 287.78 -0.536898 2.50102 0
M  V30 2973 H 287.424 -1.3325 4.90109 0
M  V30 2974 H 287.354 -3.0144 4.31789 0
M  V30 2975 H 289.845 -1.81991 3.31191 0
M  V30 2976 H 290.158 -3.16149 7.05174 0
M  V30 2977 H 288.503 -2.84955 6.33897 0
M  V30 2978 H 291.694 -2.18009 4.14234 0
M  V30 2979 H 291.867 -2.79207 5.84763 0
M  V30 2980 N 285.273 -1.31445 -0.869486 0
M  V30 2981 C 286.501 -1.24122 -1.65534 0
M  V30 2982 C 286.916 0.193387 -1.87807 0
M  V30 2983 O 286.273 1.12557 -1.43656 0
M  V30 2984 C 286.324 -1.98229 -3.02304 0
M  V30 2985 O 286.045 -3.3609 -2.81026 0
M  V30 2986 C 287.546 -1.97751 -3.96749 0
M  V30 2987 H 284.766 -0.428868 -0.516055 0
M  V30 2988 H 287.31 -1.73328 -1.08525 0
M  V30 2989 H 285.465 -1.52782 -3.56001 0
M  V30 2990 H 285.879 -3.7383 -3.67902 0
M  V30 2991 H 287.353 -2.54114 -4.90031 0
M  V30 2992 H 287.83 -0.960137 -4.28577 0
M  V30 2993 H 288.436 -2.43079 -3.48988 0
M  V30 2994 N 286.751 1.08385 -1.14413 0
M  V30 2995 C 287.999 1.80419 -0.910679 0
M  V30 2996 C 288.32 1.86658 0.564243 0
M  V30 2997 O 287.59 1.35985 1.41014 0
M  V30 2998 H 286.17 0.668204 -0.333934 0
M  V30 2999 H 288.832 1.31037 -1.44275 0
M  V30 3000 H 287.928 2.83238 -1.31082 0
M  V30 3001 N 288.23 0.939286 1.26551 0
M  V30 3002 C 289.646 0.641304 1.46149 0
M  V30 3003 C 289.846 -0.805964 1.84679 0
M  V30 3004 O 288.902 -1.58278 1.96734 0
M  V30 3005 C 290.215 1.6011 2.54529 0
M  V30 3006 C 291.763 1.6106 2.68382 0
M  V30 3007 C 292.238 2.55765 3.79932 0
M  V30 3008 N 293.729 2.5404 3.87322 0
M  V30 3009 C 294.464 3.24004 4.73085 0
M  V30 3010 N 293.96 4.03388 5.63249 0
M  V30 3011 N 295.753 3.12965 4.66914 0
M  V30 3012 H 287.904 1.87478 0.998285 0
M  V30 3013 H 290.167 0.805559 0.499779 0
M  V30 3014 H 289.873 2.63412 2.33039 0
M  V30 3015 H 289.747 1.35171 3.52149 0
M  V30 3016 H 292.134 0.584835 2.89247 0
M  V30 3017 H 292.215 1.90053 1.71212 0
M  V30 3018 H 291.859 3.58458 3.5982 0
M  V30 3019 H 291.789 2.24063 4.76554 0
M  V30 3020 H 294.28 1.96396 3.22858 0
M  V30 3021 H 294.593 4.5373 6.25579 0
M  V30 3022 H 292.938 4.07489 5.63008 0
M  V30 3023 H 296.129 2.50432 3.95476 0
M  V30 3024 H 296.302 3.67759 5.33533 0
M  V30 3025 N 289.708 -1.40897 0.706093 0
M  V30 3026 C 290.933 -2.05895 0.249435 0
M  V30 3027 C 291.358 -1.52823 -1.09666 0
M  V30 3028 O 290.716 -0.659589 -1.68876 0
M  V30 3029 C 290.764 -3.59872 0.22904 0
M  V30 3030 O 289.868 -4.04708 -0.792784 0
M  V30 3031 H 289.209 -0.653206 0.119241 0
M  V30 3032 H 291.739 -1.80471 0.96391 0
M  V30 3033 H 291.749 -4.07951 0.0634791 0
M  V30 3034 H 290.424 -3.97866 1.21141 0
M  V30 3035 H 289.001 -3.68111 -0.59572 0
M  V30 3036 N 291.186 -0.45159 -1.50991 0
M  V30 3037 C 292.435 0.111653 -2.01391 0
M  V30 3038 C 292.748 1.42529 -1.33959 0
M  V30 3039 O 293.954 2.07232 -1.75405 0
M  V30 3040 C 292.41 0.249514 -3.59034 0
M  V30 3041 C 292.018 -1.05453 -4.35412 0
M  V30 3042 C 293.762 0.765762 -4.17536 0
M  V30 3043 C 291.669 -0.881529 -5.84793 0
M  V30 3044 H 290.599 0.0455022 -0.752626 0
M  V30 3045 H 293.25 -0.583524 -1.73975 0
M  V30 3046 H 291.632 1.00803 -3.82955 0
M  V30 3047 H 292.806 -1.82248 -4.23229 0
M  V30 3048 H 291.121 -1.50039 -3.88429 0
M  V30 3049 H 293.718 0.911913 -5.26866 0
M  V30 3050 H 294.061 1.75201 -3.77638 0
M  V30 3051 H 294.594 0.0651744 -3.97747 0
M  V30 3052 H 291.333 -1.84057 -6.29129 0
M  V30 3053 H 290.853 -0.153625 -5.99603 0
M  V30 3054 H 292.532 -0.540363 -6.4474 0
M  V30 3055 N 292.664 1.56529 -0.183458 0
M  V30 3056 C 293.91 1.97537 0.459036 0
M  V30 3057 C 294.243 1.06989 1.62071 0
M  V30 3058 O 293.518 0.11948 1.94133 0
M  V30 3059 C 293.801 3.47874 0.930368 0
M  V30 3060 C 293.654 4.492 -0.232317 0
M  V30 3061 C 294.973 4.01612 1.79989 0
M  V30 3062 H 292.092 0.718204 0.165383 0
M  V30 3063 H 294.734 1.88042 -0.272038 0
M  V30 3064 H 292.884 3.56095 1.55333 0
M  V30 3065 H 294.556 4.53027 -0.86972 0
M  V30 3066 H 292.799 4.24657 -0.885928 0
M  V30 3067 H 293.47 5.51823 0.139796 0
M  V30 3068 H 295.946 3.96097 1.27461 0
M  V30 3069 H 294.822 5.07195 2.09867 0
M  V30 3070 H 295.083 3.46163 2.74998 0
M  V30 3071 N 294.142 -0.090211 1.57342 0
M  V30 3072 C 295.372 -0.805055 1.90269 0
M  V30 3073 C 295.78 -1.72561 0.775842 0
M  V30 3074 O 295.123 -1.81839 -0.260843 0
M  V30 3075 C 295.185 -1.66734 3.18497 0
M  V30 3076 C 294.849 -0.918092 4.47683 0
M  V30 3077 C 295.846 -0.245674 5.19319 0
M  V30 3078 C 293.531 -0.890724 4.94339 0
M  V30 3079 C 295.525 0.444088 6.35851 0
M  V30 3080 C 293.212 -0.197179 6.10782 0
M  V30 3081 C 294.21 0.469044 6.81388 0
M  V30 3082 O 293.898 1.15146 7.95611 0
M  V30 3083 H 293.63 -0.235143 0.633785 0
M  V30 3084 H 296.184 -0.0703805 2.05279 0
M  V30 3085 H 294.414 -2.44437 2.99646 0
M  V30 3086 H 296.103 -2.25919 3.37217 0
M  V30 3087 H 296.869 -0.258246 4.84312 0
M  V30 3088 H 292.748 -1.39873 4.39268 0
M  V30 3089 H 296.292 0.964667 6.90898 0
M  V30 3090 H 292.189 -0.18247 6.45242 0
M  V30 3091 H 292.957 1.05885 8.11622 0
M  V30 3092 N 295.62 -1.53406 -0.361157 0
M  V30 3093 C 296.845 -1.74024 -1.12829 0
M  V30 3094 C 297.27 -0.470069 -1.82132 0
M  V30 3095 O 296.628 0.57619 -1.719 0
M  V30 3096 C 296.676 -2.90903 -2.13091 0
M  V30 3097 O 295.78 -2.59821 -3.20261 0
M  V30 3098 H 295.121 -0.577804 -0.327168 0
M  V30 3099 H 297.651 -2.00307 -0.41693 0
M  V30 3100 H 297.661 -3.17194 -2.56616 0
M  V30 3101 H 296.336 -3.83034 -1.62042 0
M  V30 3102 H 294.913 -2.44362 -2.81677 0
M  V30 3103 N 297.098 0.621204 -1.44841 0
M  V30 3104 C 298.338 1.39201 -1.49674 0
M  V30 3105 C 298.702 1.91561 -0.129764 0
M  V30 3106 O 299.903 2.68748 -0.0527814 0
M  V30 3107 C 298.174 2.519 -2.53537 0
M  V30 3108 S 299.733 3.39916 -2.77494 0
M  V30 3109 H 296.551 0.474758 -0.529269 0
M  V30 3110 H 299.153 0.718171 -1.81831 0
M  V30 3111 H 297.857 2.11761 -3.51547 0
M  V30 3112 H 297.388 3.241 -2.22986 0
M  V30 3113 H 299.403 4.49646 -2.0984 0
M  V30 3114 N 298.576 1.31904 0.862503 0
M  V30 3115 C 299.486 1.22161 2.00285 0
M  V30 3116 C 300.502 0.136785 1.73462 0
M  V30 3117 O 301.678 0.355994 1.98229 0
M  V30 3118 C 298.743 0.937093 3.33796 0
M  V30 3119 C 297.804 2.10957 3.73893 0
M  V30 3120 C 297.037 1.83853 5.01033 0
M  V30 3121 O 297.26 0.777274 5.65079 0
M  V30 3122 O 296.194 2.69741 5.38074 0
M  V30 3123 H 300.02 2.18008 2.11439 0
M  V30 3124 H 297.605 1.11716 0.991957 0
M  V30 3125 H 299.487 0.794583 4.13841 0
M  V30 3126 H 298.162 0.00871894 3.23699 0
M  V30 3127 H 297.069 2.30752 2.94456 0
M  V30 3128 H 298.402 3.02046 3.88625 0
M  V30 3129 N 300.054 -1.07777 1.14986 0
M  V30 3130 C 301.3 -1.80719 0.93339 0
M  V30 3131 C 301.655 -1.8484 -0.534019 0
M  V30 3132 O 300.948 -1.31795 -1.3907 0
M  V30 3133 C 301.142 -3.25495 1.47608 0
M  V30 3134 C 300.971 -3.3548 2.99472 0
M  V30 3135 C 299.741 -3.46293 3.6798 0
M  V30 3136 C 301.939 -3.26596 3.97291 0
M  V30 3137 N 299.921 -3.45136 5.07695 0
M  V30 3138 C 301.292 -3.32506 5.23297 0
M  V30 3139 C 303.347 -3.10376 3.89321 0
M  V30 3140 C 302.05 -3.23866 6.42264 0
M  V30 3141 C 304.076 -3.03069 5.07842 0
M  V30 3142 C 303.438 -3.09587 6.32721 0
M  V30 3143 H 299.537 -0.674814 0.395158 0
M  V30 3144 H 302.121 -1.28681 1.46114 0
M  V30 3145 H 300.292 -3.75963 0.975022 0
M  V30 3146 H 302.024 -3.86535 1.19887 0
M  V30 3147 H 298.779 -3.50456 3.18555 0
M  V30 3148 H 299.203 -3.48097 5.80653 0
M  V30 3149 H 303.845 -3.04194 2.93642 0
M  V30 3150 H 301.563 -3.28807 7.38181 0
M  V30 3151 H 305.149 -2.91629 5.03432 0
M  V30 3152 H 304.029 -3.0397 7.22891 0
M  V30 3153 N 301.532 -0.945985 -1.26051 0
M  V30 3154 C 302.943 -0.638096 -1.75457 0
M  V30 3155 C 303.294 0.846672 -1.76991 0
M  V30 3156 O 302.419 1.66262 -1.38513 0
M  V30 3157 C 303.014 -1.15157 -3.18629 0
M  V30 3158 C 301.573 -0.894004 -3.65629 0
M  V30 3159 C 300.72 -1.29967 -2.44957 0
M  V30 3160 H 303.671 -1.12376 -1.1206 0
M  V30 3161 H 303.692 -0.507615 -3.77099 0
M  V30 3162 H 303.204 -2.23222 -3.1748 0
M  V30 3163 H 301.305 0.172057 -3.72203 0
M  V30 3164 H 301.418 -1.52439 -4.54202 0
M  V30 3165 H 299.782 -0.718078 -2.44368 0
M  V30 3166 H 300.565 -2.38935 -2.46505 0
M  V30 3167 N 303.011 1.40521 -0.713556 0
M  V30 3168 C 303.941 2.33381 -0.0743864 0
M  V30 3169 C 304.922 1.52784 0.747735 0
M  V30 3170 O 306.107 1.81258 0.697071 0
M  V30 3171 C 303.237 3.36748 0.849598 0
M  V30 3172 C 302.191 4.27793 0.133247 0
M  V30 3173 C 301.517 5.21679 1.17281 0
M  V30 3174 C 302.817 5.12415 -1.01134 0
M  V30 3175 H 304.511 2.87081 -0.850007 0
M  V30 3176 H 302.057 1.38034 -0.410201 0
M  V30 3177 H 304.01 4.00648 1.30612 0
M  V30 3178 H 302.734 2.81439 1.65709 0
M  V30 3179 H 301.393 3.65342 -0.303426 0
M  V30 3180 H 301.041 4.62677 1.9733 0
M  V30 3181 H 300.741 5.83435 0.698397 0
M  V30 3182 H 302.265 5.88456 1.62947 0
M  V30 3183 H 303.679 5.69781 -0.634274 0
M  V30 3184 H 302.076 5.83203 -1.41399 0
M  V30 3185 H 303.146 4.48514 -1.84292 0
M  V30 3186 N 304.489 0.459591 1.5075 0
M  V30 3187 C 305.719 -0.0972338 2.06371 0
M  V30 3188 C 306.127 -1.35074 1.32483 0
M  V30 3189 O 305.47 -1.79637 0.384226 0
M  V30 3190 C 305.532 -0.462759 3.56509 0
M  V30 3191 C 305.196 0.687084 4.51805 0
M  V30 3192 C 306.193 1.56578 4.95761 0
M  V30 3193 C 303.878 0.874144 4.94635 0
M  V30 3194 C 305.872 2.61604 5.81242 0
M  V30 3195 C 303.559 1.92765 5.79901 0
M  V30 3196 C 304.557 2.79697 6.23104 0
M  V30 3197 O 304.245 3.83235 7.06673 0
M  V30 3198 H 303.977 -0.00140687 0.675999 0
M  V30 3199 H 306.531 0.644011 1.95043 0
M  V30 3200 H 304.761 -1.25703 3.65699 0
M  V30 3201 H 306.45 -0.953323 3.94546 0
M  V30 3202 H 307.216 1.4329 4.6335 0
M  V30 3203 H 303.095 0.207006 4.60535 0
M  V30 3204 H 306.639 3.29489 6.14884 0
M  V30 3205 H 302.536 2.06064 6.11725 0
M  V30 3206 H 303.304 3.80084 7.24899 0
M  V30 3207 N 305.967 -1.56429 0.191757 0
M  V30 3208 C 306.9 -2.14829 -0.76967 0
M  V30 3209 C 307.878 -1.08405 -1.2119 0
M  V30 3210 O 309.062 -1.36498 -1.30002 0
M  V30 3211 C 306.189 -2.70446 -2.03903 0
M  V30 3212 C 305.235 -3.89428 -1.7392 0
M  V30 3213 S 306.068 -5.28048 -0.890265 0
M  V30 3214 C 307.224 -5.87085 -2.16984 0
M  V30 3215 H 307.457 -2.96042 -0.273204 0
M  V30 3216 H 304.99 -1.54383 -0.0231975 0
M  V30 3217 H 306.948 -3.03134 -2.76803 0
M  V30 3218 H 305.609 -1.89281 -2.50662 0
M  V30 3219 H 304.802 -4.26742 -2.68155 0
M  V30 3220 H 304.404 -3.57732 -1.09103 0
M  V30 3221 H 306.696 -6.01244 -3.12269 0
M  V30 3222 H 307.639 -6.83747 -1.84108 0
M  V30 3223 H 308.047 -5.15663 -2.29678 0
M  V30 3224 N 307.445 0.0818655 -1.57387 0
M  V30 3225 C 308.691 0.778884 -1.87896 0
M  V30 3226 C 309.046 1.75692 -0.784229 0
M  V30 3227 O 308.339 1.90417 0.212567 0
M  V30 3228 C 308.533 1.53513 -3.22752 0
M  V30 3229 C 308.362 0.631838 -4.45239 0
M  V30 3230 C 307.132 0.272571 -5.04564 0
M  V30 3231 C 309.33 -0.0670191 -5.14256 0
M  V30 3232 N 307.312 -0.637498 -6.10581 0
M  V30 3233 C 308.683 -0.834653 -6.14356 0
M  V30 3234 C 310.738 -0.139551 -4.97704 0
M  V30 3235 C 309.441 -1.66806 -6.99691 0
M  V30 3236 C 311.467 -0.959903 -5.83558 0
M  V30 3237 C 310.829 -1.71561 -6.83188 0
M  V30 3238 H 306.928 0.260764 -0.737242 0
M  V30 3239 H 309.512 0.0408227 -1.94657 0
M  V30 3240 H 307.683 2.24398 -3.17018 0
M  V30 3241 H 309.415 2.18038 -3.40942 0
M  V30 3242 H 306.17 0.62319 -4.69482 0
M  V30 3243 H 306.594 -1.08548 -6.68241 0
M  V30 3244 H 311.236 0.430376 -4.20604 0
M  V30 3245 H 308.954 -2.249 -7.76174 0
M  V30 3246 H 312.54 -1.01887 -5.72809 0
M  V30 3247 H 311.42 -2.34017 -7.48469 0
M  V30 3248 N 308.923 1.53595 0.353017 0
M  V30 3249 C 310.334 1.61937 0.929153 0
M  V30 3250 C 310.685 0.494686 1.89861 0
M  V30 3251 O 309.81 -0.377017 2.1309 0
M  V30 3252 C 310.405 2.93526 1.69199 0
M  V30 3253 C 308.964 3.04161 2.21727 0
M  V30 3254 C 308.111 2.57322 1.03348 0
M  V30 3255 H 311.062 1.58155 0.131431 0
M  V30 3256 H 311.083 2.82034 2.55416 0
M  V30 3257 H 310.595 3.75362 0.986144 0
M  V30 3258 H 308.696 2.26938 2.95516 0
M  V30 3259 H 308.809 4.09465 2.48748 0
M  V30 3260 H 307.173 2.12499 1.40414 0
M  V30 3261 H 307.956 3.41588 0.342428 0
M  V30 3262 N 310.401 -0.613514 1.45168 0
M  V30 3263 C 311.648 -1.37268 1.48875 0
M  V30 3264 C 311.976 -1.94077 0.128161 0
M  V30 3265 O 311.231 -1.75178 -0.872416 0
M  V30 3266 C 311.53 -2.54347 2.51083 0
M  V30 3267 C 311.196 -2.1572 3.95949 0
M  V30 3268 C 309.858 -2.04899 4.35396 0
M  V30 3269 C 312.21 -1.85485 4.87078 0
M  V30 3270 C 309.538 -1.62057 5.63875 0
M  V30 3271 C 311.89 -1.4413 6.15962 0
M  V30 3272 C 310.554 -1.31863 6.54346 0
M  V30 3273 H 309.824 -0.502299 0.544773 0
M  V30 3274 H 312.471 -0.694021 1.78481 0
M  V30 3275 H 310.776 -3.27524 2.15024 0
M  V30 3276 H 312.473 -3.12577 2.51191 0
M  V30 3277 H 309.063 -2.25066 3.64751 0
M  V30 3278 H 313.247 -1.92745 4.57343 0
M  V30 3279 H 308.503 -1.51177 5.92415 0
M  V30 3280 H 312.677 -1.19778 6.86022 0
M  V30 3281 H 310.304 -0.984392 7.538 0
M  V30 3282 N 311.879 -1.3236 -0.855495 0
M  V30 3283 C 312.811 -1.17052 -1.97057 0
M  V30 3284 C 313.824 -0.10574 -1.62456 0
M  V30 3285 O 315.013 -0.354619 -1.74942 0
M  V30 3286 C 312.113 -0.769305 -3.30053 0
M  V30 3287 C 311.286 -1.9222 -3.929 0
M  V30 3288 C 310.345 -1.50466 -5.04228 0
M  V30 3289 O 309.371 -2.21655 -5.24269 0
M  V30 3290 N 310.573 -0.400209 -5.79119 0
M  V30 3291 H 313.338 -2.13103 -2.1073 0
M  V30 3292 H 310.899 -1.24885 -1.0303 0
M  V30 3293 H 312.891 -0.472407 -4.01933 0
M  V30 3294 H 311.461 0.100025 -3.1244 0
M  V30 3295 H 310.681 -2.38563 -3.13817 0
M  V30 3296 H 311.969 -2.69403 -4.31624 0
M  V30 3297 H 311.367 0.192319 -5.65373 0
M  V30 3298 H 309.924 -0.162912 -6.51596 0
M  V30 3299 N 313.357 1.07166 -1.15556 0
M  V30 3300 C 314.304 2.14417 -0.854055 0
M  V30 3301 C 315.274 1.64965 0.193806 0
M  V30 3302 O 316.459 1.90703 0.0609443 0
M  V30 3303 C 313.599 3.43304 -0.351574 0
M  V30 3304 C 312.712 4.06537 -1.46123 0
M  V30 3305 C 311.847 5.23266 -0.914677 0
M  V30 3306 C 310.886 5.78464 -2.00114 0
M  V30 3307 N 310.023 6.86521 -1.47083 0
M  V30 3308 H 314.863 2.39548 -1.77259 0
M  V30 3309 H 312.4 1.17543 -0.884425 0
M  V30 3310 H 314.358 4.17179 -0.0419409 0
M  V30 3311 H 312.988 3.18419 0.530037 0
M  V30 3312 H 312.04 3.30297 -1.88701 0
M  V30 3313 H 313.352 4.43567 -2.28144 0
M  V30 3314 H 312.506 6.04131 -0.557698 0
M  V30 3315 H 311.245 4.87658 -0.0636583 0
M  V30 3316 H 310.25 4.96243 -2.36692 0
M  V30 3317 H 311.475 6.16126 -2.85597 0
M  V30 3318 H 309.421 6.52849 -0.642198 0
M  V30 3319 H 309.338 7.22446 -2.22729 0
M  V30 3320 H 310.606 7.71087 -1.14215 0
M  V30 3321 N 314.835 0.952656 1.25548 0
M  V30 3322 C 316.246 0.647392 1.75116 0
M  V30 3323 C 316.597 -0.837274 1.77438 0
M  V30 3324 O 315.722 -1.65525 1.39393 0
M  V30 3325 C 316.317 1.16845 3.18014 0
M  V30 3326 C 314.876 0.913382 3.6515 0
M  V30 3327 C 314.023 1.31265 2.44264 0
M  V30 3328 H 316.974 1.12968 1.11462 0
M  V30 3329 H 316.995 0.527606 3.76824 0
M  V30 3330 H 316.507 2.24902 3.16292 0
M  V30 3331 H 314.608 -0.152316 3.72289 0
M  V30 3332 H 314.721 1.54845 4.53387 0
M  V30 3333 H 313.085 0.731028 2.43984 0
M  V30 3334 H 313.868 2.40239 2.45234 0
M  V30 3335 N 316.313 -1.40141 0.720998 0
M  V30 3336 C 317.261 -2.3252 0.0608547 0
M  V30 3337 C 318.255 -1.52326 -0.741152 0
M  V30 3338 O 319.461 -1.68089 -0.643911 0
M  V30 3339 H 315.836 -0.751999 0.000876664 0
M  V30 3340 H 317.807 -2.8584 0.856614 0
M  V30 3341 C 316.556 -3.37331 -0.842809 0
M  V30 3342 H 315.879 -3.99108 -0.235084 0
M  V30 3343 H 317.319 -4.04452 -1.27257 0
M  V30 3344 C 315.778 -2.73246 -1.97074 0
M  V30 3345 O 316.308 -2.59998 -3.06209 0
M  V30 3346 N 314.514 -2.31547 -1.75597 0
M  V30 3347 H 314.061 -2.42522 -0.868368 0
M  V30 3348 H 314.019 -1.89007 -2.51244 0
M  V30 3349 N 317.792 -0.46758 -1.50504 0
M  V30 3350 C 319.022 0.086288 -2.0642 0
M  V30 3351 C 319.43 1.34369 -1.33197 0
M  V30 3352 O 318.773 1.79431 -0.393747 0
M  V30 3353 C 318.835 0.443846 -3.5675 0
M  V30 3354 C 318.499 -0.711035 -4.51435 0
M  V30 3355 C 319.496 -1.59205 -4.94924 0
M  V30 3356 C 317.181 -0.900363 -4.94165 0
M  V30 3357 C 319.175 -2.64683 -5.79846 0
M  V30 3358 C 316.862 -1.95837 -5.7887 0
M  V30 3359 C 317.86 -2.82997 -6.21612 0
M  V30 3360 O 317.548 -3.86977 -7.0463 0
M  V30 3361 H 317.28 -0.00217814 -0.675996 0
M  V30 3362 H 319.834 -0.654346 -1.94698 0
M  V30 3363 H 318.064 1.23762 -3.6636 0
M  V30 3364 H 319.753 0.932386 -3.95046 0
M  V30 3365 H 320.519 -1.45745 -4.62583 0
M  V30 3366 H 316.398 -0.231427 -4.60419 0
M  V30 3367 H 319.942 -3.32745 -6.13128 0
M  V30 3368 H 315.839 -2.09305 -6.10624 0
M  V30 3369 H 316.607 -3.83923 -7.22873 0
M  V30 3370 N 319.27 1.56325 -0.20005 0
M  V30 3371 C 320.498 2.02105 0.442874 0
M  V30 3372 C 320.913 1.08014 1.5485 0
M  V30 3373 O 320.27 0.0858797 1.82298 0
M  V30 3374 C 320.321 3.47549 0.994583 0
M  V30 3375 O 320.042 4.38049 -0.0669322 0
M  V30 3376 C 321.543 4.0887 1.7129 0
M  V30 3377 H 318.763 0.661807 0.110691 0
M  V30 3378 H 321.307 2.02134 -0.310207 0
M  V30 3379 H 319.462 3.48204 1.69803 0
M  V30 3380 H 319.876 5.23368 0.344462 0
M  V30 3381 H 321.35 5.12475 2.05118 0
M  V30 3382 H 321.827 3.52615 2.61838 0
M  V30 3383 H 322.433 4.12002 1.05518 0
M  V30 3384 N 320.748 -0.0735177 1.57428 0
M  V30 3385 C 321.658 -1.10547 2.06922 0
M  V30 3386 C 322.674 -1.42506 0.998402 0
M  V30 3387 O 323.85 -1.52717 1.31299 0
M  V30 3388 C 320.915 -2.40019 2.50184 0
M  V30 3389 C 319.976 -2.15046 3.71556 0
M  V30 3390 C 319.209 -3.38345 4.12745 0
M  V30 3391 O 319.432 -4.47399 3.53822 0
M  V30 3392 O 318.366 -3.2666 5.05546 0
M  V30 3393 H 322.192 -0.715013 2.95163 0
M  V30 3394 H 319.777 -0.287531 1.46607 0
M  V30 3395 H 321.659 -3.16218 2.78539 0
M  V30 3396 H 320.334 -2.78447 1.65072 0
M  V30 3397 H 319.241 -1.36558 3.48285 0
M  V30 3398 H 320.574 -1.81499 4.57514 0
M  V30 3399 N 322.226 -1.5378 -0.344866 0
M  V30 3400 C 323.475 -1.7018 -1.08267 0
M  V30 3401 C 323.788 -0.471 -1.89845 0
M  V30 3402 O 324.994 -0.515917 -2.66553 0
M  V30 3403 C 323.45 -3.00923 -1.97417 0
M  V30 3404 C 323.058 -4.31335 -1.21053 0
M  V30 3405 C 324.802 -3.26688 -2.71063 0
M  V30 3406 C 322.709 -5.53153 -2.09225 0
M  V30 3407 H 321.639 -0.634138 -0.407903 0
M  V30 3408 H 324.29 -1.8028 -0.342246 0
M  V30 3409 H 322.672 -2.84676 -2.75274 0
M  V30 3410 H 323.846 -4.58281 -0.481159 0
M  V30 3411 H 322.161 -4.12173 -0.591813 0
M  V30 3412 H 324.758 -4.1489 -3.37299 0
M  V30 3413 H 325.101 -2.43639 -3.37558 0
M  V30 3414 H 325.634 -3.43705 -2.0028 0
M  V30 3415 H 322.373 -6.38741 -1.47274 0
M  V30 3416 H 321.893 -5.30458 -2.79955 0
M  V30 3417 H 323.572 -5.88744 -2.68308 0
M  V30 3418 N 323.704 0.605807 -1.45491 0
M  V30 3419 C 325.12 0.926751 -1.29936 0
M  V30 3420 C 325.32 1.99896 -0.253706 0
M  V30 3421 O 324.376 2.50038 0.351737 0
M  V30 3422 C 325.689 1.36599 -2.67883 0
M  V30 3423 C 327.237 1.4801 -2.75793 0
M  V30 3424 C 327.712 1.95309 -4.14268 0
M  V30 3425 N 329.203 2.0254 -4.16571 0
M  V30 3426 C 329.938 2.40363 -5.20589 0
M  V30 3427 N 329.434 2.77143 -6.34952 0
M  V30 3428 N 331.227 2.40718 -5.07948 0
M  V30 3429 H 323.378 -0.102862 -2.12151 0
M  V30 3430 H 325.641 0.016639 -0.947854 0
M  V30 3431 H 325.347 0.652306 -3.45598 0
M  V30 3432 H 325.221 2.33215 -2.96463 0
M  V30 3433 H 327.608 2.1847 -1.98381 0
M  V30 3434 H 327.689 0.497041 -2.50925 0
M  V30 3435 H 327.333 1.25436 -4.92167 0
M  V30 3436 H 327.263 2.94532 -4.3653 0
M  V30 3437 H 329.754 1.76699 -3.34045 0
M  V30 3438 H 330.067 3.0489 -7.10114 0
M  V30 3439 H 328.412 2.74834 -6.3835 0
M  V30 3440 H 331.603 2.11392 -4.1765 0
M  V30 3441 H 331.776 2.69869 -5.89131 0
M  V30 3442 N 325.182 1.32811 0.848464 0
M  V30 3443 C 326.114 1.18095 1.96433 0
M  V30 3444 C 327.127 0.114354 1.62398 0
M  V30 3445 O 328.316 0.363892 1.74751 0
M  V30 3446 C 325.416 0.786798 3.2964 0
M  V30 3447 C 324.589 1.943 3.91875 0
M  V30 3448 C 323.648 1.53138 5.03423 0
M  V30 3449 O 322.674 2.24432 5.23086 0
M  V30 3450 N 323.876 0.430915 5.78898 0
M  V30 3451 H 326.641 2.14218 2.09597 0
M  V30 3452 H 324.202 1.2543 1.02367 0
M  V30 3453 H 326.194 0.493715 4.01677 0
M  V30 3454 H 324.764 -0.0834541 3.12489 0
M  V30 3455 H 323.984 2.40224 3.12547 0
M  V30 3456 H 325.272 2.71689 4.30189 0
M  V30 3457 H 324.67 -0.162333 5.65467 0
M  V30 3458 H 323.227 0.197466 6.51501 0
M  V30 3459 N 326.66 -1.06551 1.16123 0
M  V30 3460 C 327.89 -1.8274 0.963838 0
M  V30 3461 C 328.298 -1.82712 -0.491228 0
M  V30 3462 O 327.641 -1.24294 -1.35265 0
M  V30 3463 C 327.703 -3.3065 1.41106 0
M  V30 3464 C 327.367 -3.54384 2.88549 0
M  V30 3465 C 328.364 -3.4765 3.86569 0
M  V30 3466 C 326.049 -3.81789 3.26408 0
M  V30 3467 C 328.043 -3.67982 5.2045 0
M  V30 3468 C 325.73 -4.01772 4.60459 0
M  V30 3469 C 326.728 -3.94866 5.57288 0
M  V30 3470 O 326.416 -4.14306 6.88916 0
M  V30 3471 H 326.148 -0.583136 0.341948 0
M  V30 3472 H 328.702 -1.35351 1.54497 0
M  V30 3473 H 326.932 -3.78887 0.773394 0
M  V30 3474 H 328.621 -3.88324 1.1815 0
M  V30 3475 H 329.387 -3.2647 3.58667 0
M  V30 3476 H 325.266 -3.86276 2.51619 0
M  V30 3477 H 328.81 -3.62507 5.96015 0
M  V30 3478 H 324.707 -4.2244 4.88072 0
M  V30 3479 H 325.475 -4.31609 6.95454 0
M  V30 3480 N 328.138 -0.959301 -1.25041 0
M  V30 3481 C 329.378 -0.624343 -1.94631 0
M  V30 3482 C 329.742 0.82403 -1.73418 0
M  V30 3483 O 330.943 1.26881 -2.3697 0
M  V30 3484 C 329.214 -0.978805 -3.43736 0
M  V30 3485 S 330.773 -0.757127 -4.32219 0
M  V30 3486 H 327.591 -0.229327 -0.673001 0
M  V30 3487 H 330.193 -1.23447 -1.51595 0
M  V30 3488 H 328.897 -2.02997 -3.56679 0
M  V30 3489 H 328.428 -0.359117 -3.91757 0
M  V30 3490 H 330.443 0.369759 -4.9482 0
M  V30 3491 N 329.616 1.39756 -0.72842 0
M  V30 3492 C 330.564 2.32485 -0.0731849 0
M  V30 3493 C 331.558 1.52717 0.733063 0
M  V30 3494 O 332.764 1.68428 0.634988 0
M  V30 3495 H 329.139 0.751984 -0.00486469 0
M  V30 3496 H 331.11 2.85382 -0.871761 0
M  V30 3497 C 329.859 3.37773 0.824908 0
M  V30 3498 H 329.182 3.99227 0.213915 0
M  V30 3499 H 330.622 4.05121 1.25111 0
M  V30 3500 C 329.081 2.74287 1.95622 0
M  V30 3501 O 329.611 2.61618 3.04826 0
M  V30 3502 N 327.817 2.32475 1.74367 0
M  V30 3503 H 327.364 2.4298 0.855494 0
M  V30 3504 H 327.322 1.90337 2.50238 0
M  V30 3505 N 331.094 0.475555 1.50254 0
M  V30 3506 C 332.044 -0.335025 2.25525 0
M  V30 3507 C 333.028 -0.957625 1.29299 0
M  V30 3508 O 334.22 -0.869436 1.54175 0
M  V30 3509 C 331.349 -1.41385 3.12834 0
M  V30 3510 C 330.435 -0.798762 4.1651 0
M  V30 3511 N 330.826 0.0835815 5.05731 0
M  V30 3512 C 329.124 -1.06221 4.33166 0
M  V30 3513 C 329.825 0.433113 5.80085 0
M  V30 3514 N 328.801 -0.1928 5.43258 0
M  V30 3515 H 332.603 0.344612 2.91873 0
M  V30 3516 H 330.117 0.289986 1.5979 0
M  V30 3517 H 332.114 -2.00777 3.65368 0
M  V30 3518 H 330.774 -2.09543 2.48036 0
M  V30 3519 H 331.785 0.452715 5.15918 0
M  V30 3520 H 328.462 -1.73844 3.79585 0
M  V30 3521 H 329.852 1.15346 6.61925 0
M  V30 3522 N 332.573 -1.56217 0.208337 0
M  V30 3523 C 333.819 -1.98998 -0.42086 0
M  V30 3524 C 334.174 -1.09331 -1.58317 0
M  V30 3525 O 333.467 -0.140466 -1.91084 0
M  V30 3526 C 333.661 -3.45441 -0.916797 0
M  V30 3527 C 333.49 -4.49273 0.195925 0
M  V30 3528 C 332.26 -5.00998 0.657956 0
M  V30 3529 C 334.458 -5.04294 1.00956 0
M  V30 3530 N 332.44 -5.88514 1.74712 0
M  V30 3531 C 333.811 -5.88607 1.94785 0
M  V30 3532 C 335.866 -4.86692 1.05049 0
M  V30 3533 C 334.569 -6.572 2.9237 0
M  V30 3534 C 336.595 -5.56034 2.01446 0
M  V30 3535 C 335.957 -6.40105 2.94016 0
M  V30 3536 H 332.056 -0.772574 -0.121048 0
M  V30 3537 H 334.64 -1.92101 0.317075 0
M  V30 3538 H 332.811 -3.52812 -1.62413 0
M  V30 3539 H 334.543 -3.75164 -1.51771 0
M  V30 3540 H 331.298 -4.72945 0.248912 0
M  V30 3541 H 331.722 -6.36975 2.2933 0
M  V30 3542 H 336.364 -4.21359 0.348759 0
M  V30 3543 H 334.082 -7.21723 3.63512 0
M  V30 3544 H 337.668 -5.44385 2.0527 0
M  V30 3545 H 336.548 -6.92816 3.6739 0
M  V30 3546 N 334.051 0.0651679 -1.57465 0
M  V30 3547 C 335.467 0.420105 -1.53972 0
M  V30 3548 C 335.667 1.78782 -0.929474 0
M  V30 3549 O 334.723 2.46771 -0.534839 0
M  V30 3550 C 336.036 0.355084 -2.98596 0
M  V30 3551 C 337.584 0.434792 -3.09965 0
M  V30 3552 C 338.059 0.399609 -4.56253 0
M  V30 3553 N 339.55 0.459488 -4.60915 0
M  V30 3554 C 340.285 0.454584 -5.71595 0
M  V30 3555 N 339.781 0.404102 -6.9162 0
M  V30 3556 N 341.574 0.501635 -5.59857 0
M  V30 3557 H 333.725 -0.830328 -1.95498 0
M  V30 3558 H 335.988 -0.312244 -0.895102 0
M  V30 3559 H 335.694 -0.583357 -3.46828 0
M  V30 3560 H 335.568 1.16275 -3.58831 0
M  V30 3561 H 337.955 1.36366 -2.61703 0
M  V30 3562 H 338.036 -0.40157 -2.52628 0
M  V30 3563 H 337.68 -0.525436 -5.05175 0
M  V30 3564 H 337.61 1.25359 -5.11461 0
M  V30 3565 H 340.101 0.502482 -3.74544 0
M  V30 3566 H 340.414 0.404468 -7.71741 0
M  V30 3567 H 338.759 0.37069 -6.94011 0
M  V30 3568 H 341.95 0.538812 -4.64989 0
M  V30 3569 H 342.123 0.494345 -6.46112 0
M  V30 3570 N 335.529 1.53961 0.336706 0
M  V30 3571 C 336.477 1.83136 1.43401 0
M  V30 3572 C 337.471 0.702313 1.54156 0
M  V30 3573 O 338.677 0.885765 1.56698 0
M  V30 3574 H 335.052 0.580309 0.478273 0
M  V30 3575 H 337.023 2.74925 1.16012 0
M  V30 3576 C 335.772 2.06385 2.79822 0
M  V30 3577 H 335.095 2.92718 2.72316 0
M  V30 3578 H 336.535 2.30761 3.55704 0
M  V30 3579 C 334.994 0.851414 3.25964 0
M  V30 3580 O 335.524 0.0541904 4.01663 0
M  V30 3581 N 333.73 0.66672 2.82848 0
M  V30 3582 H 333.277 1.31665 2.21409 0
M  V30 3583 H 333.235 -0.143032 3.14074 0
M  V30 3584 N 337.007 -0.598083 1.45811 0
M  V30 3585 C 338.254 -1.35681 1.50323 0
M  V30 3586 C 338.582 -1.9393 0.148739 0
M  V30 3587 O 337.837 -1.76094 -0.853787 0
M  V30 3588 C 338.136 -2.51669 2.53766 0
M  V30 3589 C 337.802 -2.11508 3.98215 0
M  V30 3590 C 336.464 -2.0027 4.37545 0
M  V30 3591 C 338.816 -1.80308 4.89018 0
M  V30 3592 C 336.144 -1.56067 5.65562 0
M  V30 3593 C 338.496 -1.37589 6.17456 0
M  V30 3594 C 337.16 -1.24916 6.55708 0
M  V30 3595 H 336.43 -0.496492 0.550069 0
M  V30 3596 H 339.077 -0.675052 1.79207 0
M  V30 3597 H 337.382 -3.25225 2.18486 0
M  V30 3598 H 339.079 -3.09895 2.54492 0
M  V30 3599 H 335.669 -2.21185 3.67117 0
M  V30 3600 H 339.853 -1.87884 4.59362 0
M  V30 3601 H 335.109 -1.44886 5.93985 0
M  V30 3602 H 339.283 -1.12495 6.87254 0
M  V30 3603 H 336.91 -0.904386 7.54801 0
M  V30 3604 N 338.485 -1.33259 -0.841409 0
M  V30 3605 C 339.448 -1.23221 -1.9326 0
M  V30 3606 C 340.448 -0.151895 -1.60081 0
M  V30 3607 O 341.638 -0.403246 -1.69468 0
M  V30 3608 C 338.77 -0.898123 -3.28856 0
M  V30 3609 H 339.963 -2.2021 -2.03587 0
M  V30 3610 H 337.516 -1.17281 -1.03319 0
M  V30 3611 H 338.251 0.0693841 -3.24226 0
M  V30 3612 H 338.036 -1.67934 -3.54317 0
M  V30 3613 H 339.526 -0.852563 -4.08805 0
M  V30 3614 N 339.963 1.05934 -1.16686 0
M  V30 3615 C 341.24 1.75643 -0.860747 0
M  V30 3616 C 341.62 2.01144 0.640641 0
M  V30 3617 O 340.968 1.64147 1.58959 0
M  V30 3618 C 341.178 3.05493 -1.68745 0
M  V30 3619 C 342.526 3.79581 -1.90271 0
M  V30 3620 O 343.55 3.15344 -1.65641 0
M  V30 3621 O 342.409 4.9499 -2.31618 0
M  V30 3622 H 339.503 0.763426 -0.317977 0
M  V30 3623 H 342.049 1.1217 -1.27342 0
M  V30 3624 H 340.821 2.8264 -2.70611 0
M  V30 3625 H 340.444 3.76702 -1.27206 0
M  V30 3626 N 341.441 0.965919 1.2453 0
M  V30 3627 C 342.69 0.622437 1.91856 0
M  V30 3628 C 343.003 -0.846006 1.76358 0
M  V30 3629 O 344.209 -1.29993 2.38357 0
M  V30 3630 C 342.665 1.0626 3.43856 0
M  V30 3631 C 342.273 2.55437 3.68043 0
M  V30 3632 C 344.017 0.792183 4.17043 0
M  V30 3633 C 341.924 2.93196 5.13605 0
M  V30 3634 H 340.854 0.229092 0.718354 0
M  V30 3635 H 343.505 1.17189 1.41206 0
M  V30 3636 H 341.887 0.441476 3.93531 0
M  V30 3637 H 343.061 3.22665 3.28974 0
M  V30 3638 H 341.376 2.8007 3.08139 0
M  V30 3639 H 343.973 1.05031 5.24283 0
M  V30 3640 H 344.316 -0.271584 4.15413 0
M  V30 3641 H 344.849 1.37419 3.73311 0
M  V30 3642 H 341.588 3.98636 5.20355 0
M  V30 3643 H 341.108 2.30651 5.53679 0
M  V30 3644 H 342.787 2.83004 5.81823 0
M  V30 3645 N 342.919 -1.39368 0.735821 0
M  V30 3646 C 344.196 -1.94465 0.210395 0
M  V30 3647 C 344.576 -1.67254 -1.28799 0
M  V30 3648 O 343.924 -1.00123 -2.05396 0
M  V30 3649 C 344.134 -3.4472 0.544897 0
M  V30 3650 C 345.482 -4.21708 0.494689 0
M  V30 3651 O 346.506 -3.52922 0.482136 0
M  V30 3652 O 345.365 -5.44299 0.489947 0
M  V30 3653 H 342.459 -0.826096 0.0386666 0
M  V30 3654 H 345.005 -1.48863 0.814735 0
M  V30 3655 H 343.777 -3.57963 1.58045 0
M  V30 3656 H 343.4 -3.97502 -0.08837 0
M  V30 3657 N 344.397 -0.483516 -1.5 0
M  V30 3658 C 345.674 0.129337 -1.95172 0
M  V30 3659 C 346.054 1.55802 -1.4244 0
M  V30 3660 O 345.402 2.19625 -0.630649 0
M  V30 3661 C 345.612 0.0599251 -3.48949 0
M  V30 3662 C 346.96 0.242617 -4.23906 0
M  V30 3663 O 347.984 0.135933 -3.55941 0
M  V30 3664 O 346.843 0.459454 -5.44565 0
M  V30 3665 H 343.937 0.104887 -0.820322 0
M  V30 3666 H 346.483 -0.544807 -1.60717 0
M  V30 3667 H 345.255 -0.937079 -3.79914 0
M  V30 3668 H 344.878 0.774984 -3.89974 0
M  V30 3669 N 345.875 1.56104 -0.216619 0
M  V30 3670 C 347.1 2.0301 0.424462 0
M  V30 3671 C 347.525 1.0955 1.52907 0
M  V30 3672 O 346.883 0.0827914 1.81111 0
M  V30 3673 C 346.931 3.4819 0.937883 0
M  V30 3674 O 346.035 3.57865 2.04955 0
M  V30 3675 H 345.376 0.656925 0.0966755 0
M  V30 3676 H 347.906 2.01859 -0.33381 0
M  V30 3677 H 347.916 3.88413 1.24897 0
M  V30 3678 H 346.591 4.15699 0.129387 0
M  V30 3679 H 345.168 3.29527 1.74546 0
M  V30 3680 N 347.353 -0.0568162 1.57498 0
M  V30 3681 C 348.599 -0.748893 1.89111 0
M  V30 3682 C 348.954 -1.74422 0.81208 0
M  V30 3683 O 348.247 -1.90731 -0.182247 0
M  V30 3684 C 348.441 -1.48359 3.25153 0
M  V30 3685 C 348.27 -0.560924 4.46188 0
M  V30 3686 C 347.04 -0.192264 5.04934 0
M  V30 3687 C 349.238 0.148824 5.14085 0
M  V30 3688 N 347.22 0.734555 6.0949 0
M  V30 3689 C 348.591 0.932286 6.12951 0
M  V30 3690 C 350.646 0.218713 4.97419 0
M  V30 3691 C 349.349 1.77917 6.96949 0
M  V30 3692 C 351.375 1.05262 5.81957 0
M  V30 3693 C 350.737 1.82409 6.80372 0
M  V30 3694 H 346.836 -0.249002 0.741298 0
M  V30 3695 H 349.42 -0.00984926 1.94698 0
M  V30 3696 H 347.591 -2.19326 3.20547 0
M  V30 3697 H 349.323 -2.12586 3.44368 0
M  V30 3698 H 346.078 -0.548421 4.70414 0
M  V30 3699 H 346.502 1.19165 6.6643 0
M  V30 3700 H 351.144 -0.363407 4.21235 0
M  V30 3701 H 348.862 2.3722 7.72497 0
M  V30 3702 H 352.448 1.10987 5.71116 0
M  V30 3703 H 351.328 2.45895 7.44651 0
M  V30 3704 N 348.832 -1.54138 -0.328536 0
M  V30 3705 C 349.779 -1.83176 -1.40411 0
M  V30 3706 C 350.749 -0.678494 -1.5161 0
M  V30 3707 O 351.934 -0.92443 -1.6691 0
M  V30 3708 C 349.074 -2.06035 -2.76846 0
M  V30 3709 C 348.187 -3.33727 -2.74318 0
M  V30 3710 C 347.322 -3.46574 -4.02567 0
M  V30 3711 C 346.361 -4.68159 -3.94327 0
M  V30 3712 N 345.498 -4.77959 -5.14296 0
M  V30 3713 H 350.338 -2.74938 -1.14948 0
M  V30 3714 H 347.875 -1.36166 -0.556538 0
M  V30 3715 H 349.833 -2.1728 -3.56153 0
M  V30 3716 H 348.463 -1.1757 -3.00628 0
M  V30 3717 H 347.515 -3.31246 -1.8703 0
M  V30 3718 H 348.827 -4.23139 -2.64111 0
M  V30 3719 H 347.981 -3.57333 -4.90304 0
M  V30 3720 H 346.72 -2.55245 -4.15574 0
M  V30 3721 H 345.725 -4.57461 -3.04974 0
M  V30 3722 H 346.95 -5.60868 -3.82889 0
M  V30 3723 H 344.896 -3.89544 -5.27818 0
M  V30 3724 H 344.813 -5.6133 -5.06404 0
M  V30 3725 H 346.081 -4.93044 -6.03761 0
M  V30 3726 N 350.31 0.590341 -1.46126 0
M  V30 3727 C 351.535 1.37991 -1.54833 0
M  V30 3728 C 351.96 1.87163 -0.187506 0
M  V30 3729 O 351.318 1.61133 0.831008 0
M  V30 3730 C 351.366 2.54867 -2.55098 0
M  V30 3731 O 350.47 3.56061 -2.08073 0
M  V30 3732 H 349.811 0.411265 -0.521303 0
M  V30 3733 H 352.341 0.716819 -1.91632 0
M  V30 3734 H 352.351 3.01886 -2.74461 0
M  V30 3735 H 351.026 2.18429 -3.53923 0
M  V30 3736 H 349.603 3.15574 -1.98664 0
M  V30 3737 N 351.788 1.33704 0.83433 0
M  V30 3738 C 353.037 1.24763 1.58484 0
M  V30 3739 C 353.35 -0.183775 1.94735 0
M  V30 3740 O 354.556 -0.395234 2.68608 0
M  V30 3741 C 353.012 2.18638 2.85876 0
M  V30 3742 C 352.62 3.66974 2.56971 0
M  V30 3743 C 354.364 2.18581 3.63899 0
M  V30 3744 C 352.271 4.5275 3.80488 0
M  V30 3745 H 351.201 0.463425 0.594772 0
M  V30 3746 H 353.852 1.58797 0.919551 0
M  V30 3747 H 352.234 1.77542 3.5397 0
M  V30 3748 H 353.408 4.16538 1.9706 0
M  V30 3749 H 351.723 3.69366 1.92244 0
M  V30 3750 H 354.32 2.79894 4.55591 0
M  V30 3751 H 354.663 1.18207 3.99165 0
M  V30 3752 H 355.196 2.58062 3.02735 0
M  V30 3753 H 351.935 5.54017 3.5035 0
M  V30 3754 H 351.455 4.07927 4.39722 0
M  V30 3755 H 353.134 4.66784 4.4802 0
M  V30 3756 N 353.266 -1.05314 1.17247 0
M  V30 3757 C 354.213 -2.13031 0.888058 0
M  V30 3758 C 355.183 -1.65253 -0.167537 0
M  V30 3759 O 356.368 -1.90775 -0.0305974 0
M  V30 3760 C 353.508 -3.42702 0.406147 0
M  V30 3761 C 352.621 -4.04161 1.52572 0
M  V30 3762 C 351.756 -5.21744 0.997808 0
M  V30 3763 C 350.795 -5.75207 2.09291 0
M  V30 3764 N 349.932 -6.84094 1.57986 0
M  V30 3765 H 354.772 -2.36698 1.81048 0
M  V30 3766 H 352.309 -1.16121 0.903013 0
M  V30 3767 H 354.267 -4.17059 0.108305 0
M  V30 3768 H 352.897 -3.19222 -0.479313 0
M  V30 3769 H 351.949 -3.27253 1.93931 0
M  V30 3770 H 353.261 -4.39881 2.35172 0
M  V30 3771 H 352.415 -6.03168 0.653739 0
M  V30 3772 H 351.154 -4.87495 0.141232 0
M  V30 3773 H 350.159 -4.92414 2.44557 0
M  V30 3774 H 351.384 -6.11505 2.95362 0
M  V30 3775 H 349.33 -6.51745 0.74598 0
M  V30 3776 H 349.247 -7.18811 2.34195 0
M  V30 3777 H 350.515 -7.69172 1.26468 0
M  V30 3778 N 354.744 -0.972509 -1.24016 0
M  V30 3779 C 355.969 -0.654417 -1.96805 0
M  V30 3780 C 356.394 0.770398 -1.716 0
M  V30 3781 O 355.752 1.52361 -0.982647 0
M  V30 3782 C 355.8 -0.941031 -3.48105 0
M  V30 3783 O 354.904 -0.0289472 -4.1239 0
M  V30 3784 H 354.245 -0.24692 -0.616382 0
M  V30 3785 H 356.775 -1.30396 -1.57664 0
M  V30 3786 H 356.785 -0.87452 -3.98517 0
M  V30 3787 H 355.46 -1.97939 -3.65777 0
M  V30 3788 H 354.037 -0.149192 -3.72601 0
M  V30 3789 N 356.222 1.38976 -0.743202 0
M  V30 3790 C 357.471 1.99581 -0.291592 0
M  V30 3791 C 357.784 1.59656 1.13001 0
M  V30 3792 O 358.99 2.13157 1.68156 0
M  V30 3793 C 357.446 3.56813 -0.470391 0
M  V30 3794 C 357.054 4.05695 -1.90041 0
M  V30 3795 C 358.798 4.24423 -0.0809709 0
M  V30 3796 C 356.705 5.5553 -2.02832 0
M  V30 3797 H 355.635 0.746615 -0.105272 0
M  V30 3798 H 358.286 1.58872 -0.918258 0
M  V30 3799 H 356.668 3.95359 0.225299 0
M  V30 3800 H 357.842 3.78464 -2.62872 0
M  V30 3801 H 356.157 3.50775 -2.24379 0
M  V30 3802 H 358.754 5.34474 -0.155445 0
M  V30 3803 H 359.097 4.04962 0.96497 0
M  V30 3804 H 359.63 3.9108 -0.728124 0
M  V30 3805 H 356.369 5.79881 -3.05643 0
M  V30 3806 H 355.889 5.84537 -1.34448 0
M  V30 3807 H 357.568 6.21069 -1.81335 0
M  V30 3808 N 357.7 0.491464 1.49741 0
M  V30 3809 C 358.63 -0.28154 2.31796 0
M  V30 3810 C 359.611 -0.971473 1.3963 0
M  V30 3811 O 360.796 -0.964719 1.68543 0
M  V30 3812 C 357.926 -1.35203 3.19902 0
M  V30 3813 C 356.88 -0.782529 4.20786 0
M  V30 3814 C 356.206 -1.95283 4.97764 0
M  V30 3815 C 357.506 0.21999 5.21837 0
M  V30 3816 H 359.2 0.403355 2.96671 0
M  V30 3817 H 356.746 0.195425 1.42668 0
M  V30 3818 H 358.699 -1.90045 3.76113 0
M  V30 3819 H 357.423 -2.06598 2.52953 0
M  V30 3820 H 356.082 -0.255928 3.65706 0
M  V30 3821 H 355.73 -2.65423 4.2727 0
M  V30 3822 H 355.43 -1.57789 5.66018 0
M  V30 3823 H 356.954 -2.50577 5.56816 0
M  V30 3824 H 358.368 -0.23996 5.72798 0
M  V30 3825 H 356.765 0.51026 5.97927 0
M  V30 3826 H 357.835 1.13911 4.7133 0
M  V30 3827 N 359.178 -1.55987 0.224894 0
M  V30 3828 C 360.455 -1.90232 -0.455083 0
M  V30 3829 C 360.835 -1.14269 -1.77499 0
M  V30 3830 O 360.183 -0.253079 -2.27094 0
M  V30 3831 C 360.393 -3.42993 -0.644758 0
M  V30 3832 C 361.741 -4.13821 -0.950669 0
M  V30 3833 O 362.765 -3.4861 -0.731423 0
M  V30 3834 O 361.624 -5.29128 -1.36695 0
M  V30 3835 H 358.718 -0.79108 -0.241084 0
M  V30 3836 H 361.264 -1.67581 0.267327 0
M  V30 3837 H 360.036 -3.90252 0.28613 0
M  V30 3838 H 359.659 -3.71434 -1.41853 0
M  V30 3839 N 360.656 0.0484629 -1.57525 0
M  V30 3840 C 361.902 0.738854 -1.89506 0
M  V30 3841 C 362.257 1.73989 -0.821319 0
M  V30 3842 O 361.55 1.90825 0.172129 0
M  V30 3843 C 361.744 1.46632 -3.25935 0
M  V30 3844 C 361.573 0.537254 -4.46479 0
M  V30 3845 C 360.343 0.165484 -5.05029 0
M  V30 3846 C 362.541 -0.176085 -5.13998 0
M  V30 3847 N 360.523 -0.766868 -6.09091 0
M  V30 3848 C 361.894 -0.96478 -6.12448 0
M  V30 3849 C 363.949 -0.24509 -4.97296 0
M  V30 3850 C 362.652 -1.8161 -6.95996 0
M  V30 3851 C 364.678 -1.08347 -5.81391 0
M  V30 3852 C 364.04 -1.86014 -6.79395 0
M  V30 3853 H 360.139 0.245067 -0.742608 0
M  V30 3854 H 362.723 -0.000476161 -1.947 0
M  V30 3855 H 360.894 2.17623 -3.21706 0
M  V30 3856 H 362.626 2.10757 -3.45491 0
M  V30 3857 H 359.381 0.523466 -4.70698 0
M  V30 3858 H 359.805 -1.22698 -6.65788 0
M  V30 3859 H 364.447 0.341063 -4.21422 0
M  V30 3860 H 362.165 -2.41313 -7.71229 0
M  V30 3861 H 365.751 -1.14014 -5.70519 0
M  V30 3862 H 364.631 -2.4984 -7.43337 0
M  V30 3863 N 362.134 1.5431 0.320358 0
M  V30 3864 C 363.362 1.76636 1.07738 0
M  V30 3865 C 363.777 0.51649 1.81598 0
M  V30 3866 O 363.134 -0.512942 1.75143 0
M  V30 3867 C 363.185 2.96158 2.07299 0
M  V30 3868 O 362.906 4.16313 1.36438 0
M  V30 3869 C 364.407 3.3072 2.95193 0
M  V30 3870 H 361.627 0.589597 0.320339 0
M  V30 3871 H 364.171 2.01207 0.36551 0
M  V30 3872 H 362.326 2.73851 2.74016 0
M  V30 3873 H 362.74 4.83565 2.03138 0
M  V30 3874 H 364.214 4.17643 3.60941 0
M  V30 3875 H 364.691 2.48026 3.62463 0
M  V30 3876 H 365.297 3.55117 2.34034 0
M  V30 3877 N 363.613 -0.582584 1.46437 0
M  V30 3878 C 364.838 -1.37168 1.55563 0
M  V30 3879 C 365.263 -1.87061 0.19743 0
M  V30 3880 O 364.621 -1.61572 -0.822451 0
M  V30 3881 C 364.669 -2.53511 2.56446 0
M  V30 3882 O 363.773 -3.54953 2.09958 0
M  V30 3883 H 363.114 -0.408494 0.523477 0
M  V30 3884 H 365.644 -0.706646 1.9201 0
M  V30 3885 H 365.654 -3.00426 2.76058 0
M  V30 3886 H 364.329 -2.16549 3.55076 0
M  V30 3887 H 362.906 -3.14516 2.00334 0
M  V30 3888 N 365.091 -1.34144 -0.827227 0
M  V30 3889 C 366.338 -1.26258 -1.58319 0
M  V30 3890 C 366.666 0.168595 -1.93768 0
M  V30 3891 O 365.921 1.12877 -1.59866 0
M  V30 3892 C 366.22 -2.09464 -2.89585 0
M  V30 3893 C 365.886 -3.58521 -2.73448 0
M  V30 3894 C 364.548 -3.99155 -2.68754 0
M  V30 3895 C 366.9 -4.53189 -2.57428 0
M  V30 3896 C 364.228 -5.32656 -2.45957 0
M  V30 3897 C 366.58 -5.86864 -2.36163 0
M  V30 3898 C 365.244 -6.26667 -2.29879 0
M  V30 3899 H 364.514 -0.462013 -0.579332 0
M  V30 3900 H 367.161 -1.65845 -0.95748 0
M  V30 3901 H 365.466 -1.62692 -3.56425 0
M  V30 3902 H 367.163 -2.00712 -3.47154 0
M  V30 3903 H 363.753 -3.26264 -2.77939 0
M  V30 3904 H 367.937 -4.22696 -2.60081 0
M  V30 3905 H 363.193 -5.62519 -2.39546 0
M  V30 3906 H 367.367 -6.59813 -2.22754 0
M  V30 3907 H 364.994 -7.30049 -2.11975 0
M  V30 3908 N 366.569 1.04691 -1.17803 0
M  V30 3909 C 367.517 2.14665 -0.895635 0
M  V30 3910 C 368.511 1.68806 0.141679 0
M  V30 3911 O 369.717 1.79999 -0.00587914 0
M  V30 3912 H 366.092 0.701038 -0.272121 0
M  V30 3913 H 368.063 2.35685 -1.83017 0
M  V30 3914 C 366.812 3.45019 -0.430962 0
M  V30 3915 H 366.135 3.8071 -1.22064 0
M  V30 3916 H 367.575 4.23125 -0.272301 0
M  V30 3917 C 366.034 3.25943 0.852207 0
M  V30 3918 O 366.564 3.5296 1.91786 0
M  V30 3919 N 364.77 2.79304 0.802346 0
M  V30 3920 H 364.317 2.57518 -0.0650788 0
M  V30 3921 H 364.275 2.66921 1.66134 0
M  V30 3922 N 368.047 0.979072 1.23499 0
M  V30 3923 C 368.979 0.476271 2.24197 0
M  V30 3924 C 369.992 -0.421166 1.57258 0
M  V30 3925 O 371.181 -0.225515 1.7707 0
M  V30 3926 C 368.281 -0.330503 3.37285 0
M  V30 3927 C 367.454 0.559744 4.33804 0
M  V30 3928 C 366.513 -0.192954 5.25846 0
M  V30 3929 O 365.539 0.416978 5.67671 0
M  V30 3930 N 366.741 -1.47932 5.61334 0
M  V30 3931 H 369.506 1.34211 2.67969 0
M  V30 3932 H 367.067 0.852189 1.37657 0
M  V30 3933 H 369.059 -0.842361 3.95836 0
M  V30 3934 H 367.629 -1.09734 2.92707 0
M  V30 3935 H 366.849 1.25245 3.73775 0
M  V30 3936 H 368.137 1.1665 4.95248 0
M  V30 3937 H 367.535 -1.9964 5.29302 0
M  V30 3938 H 366.092 -1.93664 6.22364 0
M  V30 3939 N 369.525 -1.3858 0.750561 0
M  V30 3940 C 370.435 -2.34278 0.122825 0
M  V30 3941 C 371.451 -1.59116 -0.704131 0
M  V30 3942 O 372.627 -1.91326 -0.628987 0
M  V30 3943 C 369.692 -3.38221 -0.762086 0
M  V30 3944 C 368.753 -4.29227 0.078896 0
M  V30 3945 C 367.986 -5.28205 -0.763874 0
M  V30 3946 O 368.209 -5.34112 -2.00201 0
M  V30 3947 O 367.143 -6.01618 -0.18428 0
M  V30 3948 H 370.969 -2.89649 0.913088 0
M  V30 3949 H 368.554 -1.40374 0.511417 0
M  V30 3950 H 370.436 -4.01872 -1.26793 0
M  V30 3951 H 369.111 -2.85211 -1.5309 0
M  V30 3952 H 368.018 -3.68747 0.630621 0
M  V30 3953 H 369.351 -4.85484 0.810289 0
M  V30 3954 N 371.003 -0.499398 -1.49478 0
M  V30 3955 C 372.419 -0.155261 -1.58843 0
M  V30 3956 C 372.619 1.34008 -1.50479 0
M  V30 3957 O 371.675 2.11589 -1.37791 0
M  V30 3958 C 372.988 -0.730636 -2.91689 0
M  V30 3959 C 374.536 -0.696599 -3.0515 0
M  V30 3960 C 375.011 -1.25001 -4.40612 0
M  V30 3961 N 376.502 -1.21064 -4.47099 0
M  V30 3962 C 377.237 -1.60905 -5.50361 0
M  V30 3963 N 376.733 -2.08331 -6.60735 0
M  V30 3964 N 378.526 -1.52331 -5.41065 0
M  V30 3965 H 370.677 -1.47162 -1.53158 0
M  V30 3966 H 372.94 -0.610309 -0.725415 0
M  V30 3967 H 372.646 -1.77928 -3.03372 0
M  V30 3968 H 372.52 -0.190161 -3.7672 0
M  V30 3969 H 374.907 0.343204 -2.93097 0
M  V30 3970 H 374.988 -1.2742 -2.21806 0
M  V30 3971 H 374.632 -2.28859 -4.53416 0
M  V30 3972 H 374.562 -0.64836 -5.22593 0
M  V30 3973 H 377.053 -0.863128 -3.67911 0
M  V30 3974 H 377.366 -2.36805 -7.35624 0
M  V30 3975 H 375.711 -2.12304 -6.6178 0
M  V30 3976 H 378.902 -1.151 -4.53729 0
M  V30 3977 H 379.075 -1.83704 -6.21415 0
M  V30 3978 N 372.481 1.55866 -0.233164 0
M  V30 3979 C 373.73 1.97779 0.39579 0
M  V30 3980 C 374.043 1.12419 1.60066 0
M  V30 3981 O 375.249 1.44283 2.29988 0
M  V30 3982 C 373.705 3.5188 0.755556 0
M  V30 3983 C 373.313 4.45959 -0.427152 0
M  V30 3984 C 375.057 4.02479 1.34946 0
M  V30 3985 C 372.964 5.91383 -0.0443043 0
M  V30 3986 H 371.894 0.738592 0.15165 0
M  V30 3987 H 374.545 1.80486 -0.331212 0
M  V30 3988 H 372.927 3.64816 1.5403 0
M  V30 3989 H 374.101 4.44776 -1.20462 0
M  V30 3990 H 372.416 4.05765 -0.935068 0
M  V30 3991 H 375.013 5.08637 1.649 0
M  V30 3992 H 375.356 3.49014 2.26925 0
M  V30 3993 H 375.889 3.92813 0.62791 0
M  V30 3994 H 372.628 6.48857 -0.930874 0
M  V30 3995 H 372.148 5.95734 0.697238 0
M  V30 3996 H 373.827 6.45893 0.378334 0
M  V30 3997 N 373.959 -0.0401083 1.57549 0
M  V30 3998 C 375.205 -0.734211 1.89043 0
M  V30 3999 C 375.538 -1.75591 0.829535 0
M  V30 4000 O 374.813 -1.93868 -0.156706 0
M  V30 4001 C 375.096 -1.41374 3.31188 0
M  V30 4002 C 374.949 -0.406299 4.47961 0
M  V30 4003 C 376.268 -2.35061 3.72068 0
M  V30 4004 H 373.387 -0.265447 0.687537 0
M  V30 4005 H 376.029 0.00294087 1.9 0
M  V30 4006 H 374.179 -2.04206 3.30503 0
M  V30 4007 H 375.851 0.219255 4.60779 0
M  V30 4008 H 374.094 0.275485 4.32924 0
M  V30 4009 H 374.765 -0.920022 5.44279 0
M  V30 4010 H 377.241 -1.82282 3.74049 0
M  V30 4011 H 376.117 -2.79593 4.72355 0
M  V30 4012 H 376.378 -3.21258 3.0372 0
M  V30 4013 N 375.437 -1.54477 -0.31217 0
M  V30 4014 C 376.714 -1.63891 -1.06767 0
M  V30 4015 C 377.094 -0.480028 -2.0557 0
M  V30 4016 O 376.442 0.524487 -2.22399 0
M  V30 4017 C 376.652 -3.01402 -1.75948 0
M  V30 4018 C 378 -3.57838 -2.28554 0
M  V30 4019 O 379.024 -3.03782 -1.85998 0
M  V30 4020 O 377.883 -4.52462 -3.06497 0
M  V30 4021 H 374.977 -0.664125 -0.492816 0
M  V30 4022 H 377.523 -1.66823 -0.311149 0
M  V30 4023 H 376.295 -3.77187 -1.04144 0
M  V30 4024 H 375.918 -3.02199 -2.58383 0
M  V30 4025 N 376.915 0.57481 -1.46744 0
M  V30 4026 C 378.161 1.3347 -1.52688 0
M  V30 4027 C 378.494 1.93353 -0.181229 0
M  V30 4028 O 377.769 1.76912 0.808237 0
M  V30 4029 C 378.052 2.45811 -2.63152 0
M  V30 4030 C 377.905 1.90912 -4.07275 0
M  V30 4031 C 379.224 3.47822 -2.69644 0
M  V30 4032 H 376.343 0.483935 -0.555856 0
M  V30 4033 H 378.985 0.644968 -1.78718 0
M  V30 4034 H 377.135 3.04646 -2.41088 0
M  V30 4035 H 378.807 1.36473 -4.4065 0
M  V30 4036 H 377.05 1.21691 -4.16382 0
M  V30 4037 H 377.721 2.72042 -4.80309 0
M  V30 4038 H 380.197 2.9888 -2.895 0
M  V30 4039 H 379.073 4.23876 -3.48742 0
M  V30 4040 H 379.334 4.05555 -1.76005 0
M  V30 4041 N 378.394 1.34581 0.820102 0
M  V30 4042 C 379.357 1.2628 1.91275 0
M  V30 4043 C 380.357 0.177344 1.59819 0
M  V30 4044 O 381.547 0.430156 1.68806 0
M  V30 4045 C 378.679 0.950327 3.27386 0
M  V30 4046 H 379.872 2.23421 2.00057 0
M  V30 4047 H 377.425 1.1891 1.0144 0
M  V30 4048 H 378.16 -0.0177938 3.24295 0
M  V30 4049 H 377.945 1.73549 3.51601 0
M  V30 4050 H 379.435 0.917492 4.07396 0
M  V30 4051 N 379.872 -1.04064 1.18357 0
M  V30 4052 C 381.12 -1.76915 0.977013 0
M  V30 4053 C 381.441 -1.88624 -0.494577 0
M  V30 4054 O 380.711 -1.41125 -1.3587 0
M  V30 4055 H 379.291 -0.65535 0.358504 0
M  V30 4056 H 381.953 -1.25592 1.49039 0
M  V30 4057 H 381.049 -2.78178 1.41504 0
M  V30 4058 N 381.35 -0.985608 -1.22978 0
M  V30 4059 C 382.761 -0.693593 -1.73338 0
M  V30 4060 C 383.112 0.789935 -1.79595 0
M  V30 4061 O 382.237 1.61771 -1.43733 0
M  V30 4062 C 382.832 -1.25235 -3.14804 0
M  V30 4063 C 381.391 -1.00987 -3.626 0
M  V30 4064 C 380.538 -1.37695 -2.40698 0
M  V30 4065 H 383.489 -1.15884 -1.08428 0
M  V30 4066 H 383.51 -0.627329 -3.75293 0
M  V30 4067 H 383.022 -2.33209 -3.10218 0
M  V30 4068 H 381.123 0.0535565 -3.72562 0
M  V30 4069 H 381.236 -1.66812 -4.49122 0
M  V30 4070 H 379.6 -0.795459 -2.4196 0
M  V30 4071 H 380.383 -2.46657 -2.38779 0
M  V30 4072 N 382.828 1.3818 -0.7579 0
M  V30 4073 C 384.076 1.99624 -0.315361 0
M  V30 4074 C 384.397 1.60464 1.10799 0
M  V30 4075 O 383.667 0.863507 1.75842 0
M  V30 4076 H 382.247 0.73831 -0.113611 0
M  V30 4077 H 384.909 1.68878 -0.972952 0
M  V30 4078 H 384.005 3.09754 -0.381931 0
M  V30 4079 N 384.306 0.507319 1.49211 0
M  V30 4080 C 385.554 -0.0348839 2.0207 0
M  V30 4081 C 385.875 -1.36898 1.38866 0
M  V30 4082 O 385.145 -1.88133 0.546151 0
M  V30 4083 H 383.725 -0.0158812 0.746831 0
M  V30 4084 H 386.387 0.665998 1.83168 0
M  V30 4085 H 385.483 -0.159917 3.1169 0
M  V30 4086 N 385.784 -1.5574 0.241426 0
M  V30 4087 C 387.03 -1.99846 -0.378555 0
M  V30 4088 C 387.385 -1.12665 -1.55963 0
M  V30 4089 O 386.678 -0.180966 -1.90743 0
M  V30 4090 C 386.872 -3.47308 -0.843317 0
M  V30 4091 C 386.701 -4.48756 0.291178 0
M  V30 4092 C 385.471 -4.9949 0.764077 0
M  V30 4093 C 387.669 -5.02039 1.11631 0
M  V30 4094 N 385.651 -5.84676 1.87156 0
M  V30 4095 C 387.022 -5.84343 2.07226 0
M  V30 4096 C 389.077 -4.84354 1.15349 0
M  V30 4097 C 387.78 -6.50851 3.06245 0
M  V30 4098 C 389.806 -5.51636 2.13195 0
M  V30 4099 C 389.168 -6.33724 3.07528 0
M  V30 4100 H 385.267 -0.774968 -0.104634 0
M  V30 4101 H 387.851 -1.91385 0.357751 0
M  V30 4102 H 386.022 -3.56178 -1.54893 0
M  V30 4103 H 387.754 -3.78299 -1.43779 0
M  V30 4104 H 384.509 -4.72311 0.349175 0
M  V30 4105 H 384.933 -6.31967 2.42789 0
M  V30 4106 H 389.575 -4.20525 0.438057 0
M  V30 4107 H 387.293 -7.1385 3.78739 0
M  V30 4108 H 390.879 -5.39909 2.16771 0
M  V30 4109 H 389.759 -6.84867 3.82003 0
M  V30 4110 N 387.262 0.0317525 -1.57568 0
M  V30 4111 C 388.21 1.05165 -2.07468 0
M  V30 4112 C 389.204 1.3761 -0.98792 0
M  V30 4113 O 390.41 1.36546 -1.17282 0
M  V30 4114 H 386.785 0.35666 -0.66204 0
M  V30 4115 H 388.756 0.604958 -2.92203 0
M  V30 4116 C 387.505 2.34488 -2.56731 0
M  V30 4117 H 386.828 2.10383 -3.39969 0
M  V30 4118 H 388.268 3.04203 -2.95358 0
M  V30 4119 C 386.727 3.03266 -1.46736 0
M  V30 4120 O 387.257 3.92988 -0.832069 0
M  V30 4121 N 385.463 2.6455 -1.20256 0
M  V30 4122 H 385.01 1.91674 -1.72102 0
M  V30 4123 H 384.968 3.10886 -0.468737 0
M  V30 4124 N 388.74 1.54641 0.303973 0
M  V30 4125 C 390.017 1.64455 1.05896 0
M  V30 4126 C 390.397 0.490923 2.05312 0
M  V30 4127 O 389.745 -0.512685 2.22674 0
M  V30 4128 C 389.955 3.02331 1.74347 0
M  V30 4129 C 391.303 3.59045 2.26653 0
M  V30 4130 O 392.327 3.04764 1.84384 0
M  V30 4131 O 391.186 4.54081 3.04093 0
M  V30 4132 H 388.28 0.666729 0.489287 0
M  V30 4133 H 390.826 1.66986 0.302298 0
M  V30 4134 H 389.598 3.77734 1.02142 0
M  V30 4135 H 389.221 3.03565 2.56777 0
M  V30 4136 N 390.218 -0.567019 1.47046 0
M  V30 4137 C 391.629 -1.14916 1.47143 0
M  V30 4138 C 391.98 -1.94954 0.220767 0
M  V30 4139 O 391.105 -2.05602 -0.67505 0
M  V30 4140 C 391.7 -2.09069 2.666 0
M  V30 4141 C 390.259 -2.62575 2.69687 0
M  V30 4142 C 389.406 -1.38755 2.40088 0
M  V30 4143 H 392.357 -0.354126 1.54699 0
M  V30 4144 H 392.378 -2.92789 2.43011 0
M  V30 4145 H 391.89 -1.50789 3.57609 0
M  V30 4146 H 389.991 -3.24681 1.82792 0
M  V30 4147 H 390.104 -3.04239 3.70102 0
M  V30 4148 H 388.468 -1.69098 1.90468 0
M  V30 4149 H 389.251 -0.822822 3.33293 0
M  V30 4150 N 391.696 -1.35014 -0.812953 0
M  V30 4151 C 392.973 -1.18502 -1.55617 0
M  V30 4152 C 393.353 0.238421 -2.09749 0
M  V30 4153 O 392.701 1.2411 -1.91857 0
M  V30 4154 C 392.911 -2.24783 -2.66971 0
M  V30 4155 C 394.259 -2.60268 -3.35478 0
M  V30 4156 O 395.283 -2.23648 -2.77236 0
M  V30 4157 O 394.142 -3.2321 -4.40678 0
M  V30 4158 H 391.236 -0.459984 -0.687272 0
M  V30 4159 H 393.782 -1.46677 -0.853464 0
M  V30 4160 H 392.554 -3.20284 -2.24798 0
M  V30 4161 H 392.177 -1.97841 -3.44884 0
M  V30 4162 N 393.175 1.03435 -1.18907 0
M  V30 4163 C 394.108 2.11162 -0.86521 0
M  V30 4164 C 395.086 1.6165 0.175473 0
M  V30 4165 O 396.27 1.88425 0.0530129 0
M  V30 4166 C 393.397 3.37423 -0.293868 0
M  V30 4167 C 392.443 4.05795 -1.31274 0
M  V30 4168 S 393.276 4.52027 -2.8711 0
M  V30 4169 C 394.432 5.81513 -2.31504 0
M  V30 4170 H 394.665 2.38308 -1.77754 0
M  V30 4171 H 392.198 1.16295 -1.01562 0
M  V30 4172 H 394.156 4.1049 0.0292572 0
M  V30 4173 H 392.817 3.0838 0.596682 0
M  V30 4174 H 392.01 4.96574 -0.86198 0
M  V30 4175 H 391.612 3.38874 -1.58242 0
M  V30 4176 H 393.904 6.55784 -1.70157 0
M  V30 4177 H 394.847 6.3136 -3.20608 0
M  V30 4178 H 395.255 5.36921 -1.74286 0
M  V30 4179 N 394.653 0.992116 1.22453 0
M  V30 4180 C 395.583 0.561677 2.26644 0
M  V30 4181 C 396.564 -0.411055 1.65059 0
M  V30 4182 O 397.749 -0.301861 1.9184 0
M  V30 4183 C 394.879 -0.125247 3.47074 0
M  V30 4184 C 393.833 0.765948 4.21091 0
M  V30 4185 C 393.159 -0.0538484 5.34673 0
M  V30 4186 C 394.459 2.06242 4.79856 0
M  V30 4187 H 396.153 1.43259 2.62902 0
M  V30 4188 H 393.699 0.690283 1.26377 0
M  V30 4189 H 395.652 -0.437764 4.1912 0
M  V30 4190 H 394.376 -1.03069 3.0991 0
M  V30 4191 H 393.035 1.0621 3.50878 0
M  V30 4192 H 392.683 -0.960188 4.9375 0
M  V30 4193 H 392.383 0.539415 5.85119 0
M  V30 4194 H 393.907 -0.360477 6.09535 0
M  V30 4195 H 395.321 1.8139 5.43848 0
M  V30 4196 H 393.718 2.60444 5.40638 0
M  V30 4197 H 394.788 2.74167 3.99951 0
M  V30 4198 N 396.131 -1.37776 0.765217 0
M  V30 4199 C 397.377 -2.00145 0.327072 0
M  V30 4200 C 397.71 -1.60607 -1.09175 0
M  V30 4201 O 396.985 -0.849127 -1.74986 0
M  V30 4202 C 397.268 -3.57109 0.46319 0
M  V30 4203 C 397.121 -4.06576 1.92395 0
M  V30 4204 C 398.44 -4.39888 -0.136473 0
M  V30 4205 H 395.559 -0.727113 0.120316 0
M  V30 4206 H 398.201 -1.63549 0.967039 0
M  V30 4207 H 396.351 -3.88414 -0.0816358 0
M  V30 4208 H 398.023 -3.85864 2.52798 0
M  V30 4209 H 396.266 -3.59011 2.43503 0
M  V30 4210 H 396.937 -5.15639 1.97028 0
M  V30 4211 H 399.413 -4.14803 0.328317 0
M  V30 4212 H 398.289 -5.48899 -0.0110582 0
M  V30 4213 H 398.55 -4.24758 -1.22608 0
M  V30 4214 N 397.609 -0.515225 -1.4894 0
M  V30 4215 C 398.858 0.0261361 -2.01683 0
M  V30 4216 C 399.171 1.36719 -1.39883 0
M  V30 4217 O 400.377 1.99606 -1.84037 0
M  V30 4218 C 398.833 0.0970111 -3.59769 0
M  V30 4219 C 398.441 -1.23825 -4.30548 0
M  V30 4220 C 400.185 0.587981 -4.20408 0
M  V30 4221 C 398.092 -1.12877 -5.80528 0
M  V30 4222 H 397.022 0.0135398 -0.753878 0
M  V30 4223 H 399.673 -0.656787 -1.71343 0
M  V30 4224 H 398.055 0.844694 -3.86886 0
M  V30 4225 H 399.229 -2.00034 -4.15118 0
M  V30 4226 H 397.544 -1.66379 -3.81716 0
M  V30 4227 H 400.141 0.68763 -5.3026 0
M  V30 4228 H 400.484 1.59026 -3.84729 0
M  V30 4229 H 401.017 -0.103582 -3.97665 0
M  V30 4230 H 397.756 -2.10575 -6.20756 0
M  V30 4231 H 397.276 -0.407799 -5.98412 0
M  V30 4232 H 398.955 -0.813332 -6.41868 0
M  V30 4233 N 399.087 1.5561 -0.249682 0
M  V30 4234 C 400.335 1.98618 0.373548 0
M  V30 4235 C 400.656 1.13919 1.58264 0
M  V30 4236 O 399.926 0.222637 1.94631 0
M  V30 4237 H 398.506 0.733571 0.141006 0
M  V30 4238 H 401.168 1.91748 -0.349117 0
M  V30 4239 H 400.264 3.04584 0.680796 0
M  V30 4240 N 400.565 -0.0233959 1.57583 0
M  V30 4241 C 401.513 -1.04063 2.08023 0
M  V30 4242 C 402.507 -1.37084 0.995204 0
M  V30 4243 O 403.713 -1.35923 1.18004 0
M  V30 4244 H 400.088 -0.353144 0.663922 0
M  V30 4245 H 402.059 -0.589453 2.9252 0
M  V30 4246 C 400.808 -2.33123 2.57971 0
M  V30 4247 H 400.131 -2.08577 3.4108 0
M  V30 4248 H 401.571 -3.02632 2.96967 0
M  V30 4249 C 400.03 -3.02483 1.48342 0
M  V30 4250 O 400.56 -3.92541 0.852898 0
M  V30 4251 N 398.766 -2.63909 1.21658 0
M  V30 4252 H 398.313 -1.90758 1.73116 0
M  V30 4253 H 398.271 -3.10633 0.485218 0
M  V30 4254 N 402.043 -1.548 -0.295768 0
M  V30 4255 C 403.29 -1.74329 -1.03032 0
M  V30 4256 C 403.618 -0.531915 -1.87085 0
M  V30 4257 O 402.873 0.486052 -1.89568 0
M  V30 4258 C 403.172 -2.98797 -1.961 0
M  V30 4259 C 402.838 -4.32356 -1.2798 0
M  V30 4260 C 401.5 -4.68661 -1.09135 0
M  V30 4261 C 403.852 -5.15128 -0.793243 0
M  V30 4262 C 401.18 -5.85312 -0.403269 0
M  V30 4263 C 403.532 -6.32488 -0.118854 0
M  V30 4264 C 402.196 -6.6745 0.0815043 0
M  V30 4265 H 401.466 -0.637916 -0.37702 0
M  V30 4266 H 404.113 -1.8906 -0.304696 0
M  V30 4267 H 402.418 -2.78869 -2.75207 0
M  V30 4268 H 404.115 -3.11102 -2.53015 0
M  V30 4269 H 400.705 -4.03808 -1.43655 0
M  V30 4270 H 404.889 -4.87575 -0.92653 0
M  V30 4271 H 400.145 -6.1094 -0.237098 0
M  V30 4272 H 404.319 -6.95892 0.266035 0
M  V30 4273 H 401.946 -7.57695 0.616685 0
M  V30 4274 N 403.521 0.559213 -1.47345 0
M  V30 4275 C 404.769 1.31388 -1.53563 0
M  V30 4276 C 405.09 1.93985 -0.198678 0
M  V30 4277 O 404.36 1.79825 0.777167 0
M  V30 4278 H 402.94 0.487901 -0.565652 0
M  V30 4279 H 405.602 0.65315 -1.8363 0
M  V30 4280 H 404.698 2.10844 -2.30111 0
M  V30 4281 N 404.999 1.35443 0.805782 0
M  V30 4282 C 405.929 1.31095 1.93226 0
M  V30 4283 C 406.91 0.185244 1.69088 0
M  V30 4284 O 408.095 0.380332 1.90439 0
M  V30 4285 C 405.225 1.08299 3.29983 0
M  V30 4286 C 404.179 2.17519 3.68605 0
M  V30 4287 C 403.505 1.79887 5.03532 0
M  V30 4288 C 404.805 3.5949 3.78898 0
M  V30 4289 H 406.499 2.25352 1.97122 0
M  V30 4290 H 404.045 1.0848 0.946996 0
M  V30 4291 H 405.998 1.03897 4.08391 0
M  V30 4292 H 404.722 0.104885 3.26432 0
M  V30 4293 H 403.381 2.2102 2.92482 0
M  V30 4294 H 403.029 0.80693 4.96485 0
M  V30 4295 H 402.729 2.53001 5.30344 0
M  V30 4296 H 404.253 1.77011 5.84379 0
M  V30 4297 H 405.667 3.58307 4.47536 0
M  V30 4298 H 404.064 4.31371 4.1718 0
M  V30 4299 H 405.134 3.95584 2.80431 0
M  V30 4300 N 406.477 -1.02803 1.19454 0
M  V30 4301 C 407.702 -1.80378 1.02364 0
M  V30 4302 C 408.127 -1.83282 -0.423007 0
M  V30 4303 O 407.485 -1.25945 -1.30413 0
M  V30 4304 C 407.533 -3.23248 1.59821 0
M  V30 4305 O 406.637 -4.04 0.828105 0
M  V30 4306 H 405.978 -0.556799 0.361761 0
M  V30 4307 H 408.508 -1.29385 1.58495 0
M  V30 4308 H 408.518 -3.73994 1.63073 0
M  V30 4309 H 407.193 -3.2045 2.65113 0
M  V30 4310 H 405.77 -3.62635 0.86891 0
M  V30 4311 N 407.956 -0.998596 -1.21925 0
M  V30 4312 C 409.202 -0.688337 -1.91399 0
M  V30 4313 C 409.557 0.771805 -1.76241 0
M  V30 4314 O 408.85 1.55153 -1.1242 0
M  V30 4315 C 409.044 -1.03648 -3.42041 0
M  V30 4316 C 408.873 -2.52892 -3.71855 0
M  V30 4317 C 407.643 -3.19389 -3.91559 0
M  V30 4318 C 409.841 -3.5103 -3.75875 0
M  V30 4319 N 407.823 -4.5805 -4.08734 0
M  V30 4320 C 409.194 -4.75174 -3.98259 0
M  V30 4321 C 411.249 -3.45257 -3.58751 0
M  V30 4322 C 409.952 -5.94247 -4.05294 0
M  V30 4323 C 411.978 -4.63712 -3.67049 0
M  V30 4324 C 411.34 -5.86658 -3.89887 0
M  V30 4325 H 407.439 -0.303251 -0.720807 0
M  V30 4326 H 410.023 -1.27977 -1.46731 0
M  V30 4327 H 408.194 -0.473569 -3.85502 0
M  V30 4328 H 409.926 -0.681619 -3.98919 0
M  V30 4329 H 406.681 -2.69846 -3.89205 0
M  V30 4330 H 407.105 -5.29989 -4.21237 0
M  V30 4331 H 411.747 -2.51215 -3.40075 0
M  V30 4332 H 409.465 -6.88687 -4.22772 0
M  V30 4333 H 413.051 -4.6084 -3.5513 0
M  V30 4334 H 411.931 -6.76786 -3.96144 0
M  V30 4335 N 409.434 1.37368 -0.772513 0
M  V30 4336 C 410.382 2.32134 -0.147111 0
M  V30 4337 C 411.376 1.54972 0.684106 0
M  V30 4338 O 412.582 1.70363 0.581083 0
M  V30 4339 H 408.957 0.751449 -0.028786 0
M  V30 4340 H 410.928 2.82464 -0.962112 0
M  V30 4341 C 409.677 3.40226 0.71703 0
M  V30 4342 H 409 3.99706 0.0867951 0
M  V30 4343 H 410.44 4.08897 1.12159 0
M  V30 4344 C 408.899 2.80372 1.86797 0
M  V30 4345 O 409.429 2.71183 2.96349 0
M  V30 4346 N 407.635 2.37904 1.66883 0
M  V30 4347 H 407.182 2.45578 0.777759 0
M  V30 4348 H 407.14 1.98202 2.44056 0
M  V30 4349 N 410.912 0.523116 1.48665 0
M  V30 4350 C 411.844 -0.280421 2.27478 0
M  V30 4351 C 412.857 -0.910694 1.34945 0
M  V30 4352 O 414.046 -0.790295 1.60052 0
M  V30 4353 C 411.146 -1.41171 3.08097 0
M  V30 4354 C 410.319 -0.884642 4.28361 0
M  V30 4355 C 409.378 -1.89622 4.90846 0
M  V30 4356 O 408.404 -1.4559 5.50265 0
M  V30 4357 N 409.606 -3.22801 4.82472 0
M  V30 4358 H 412.371 0.395481 2.97079 0
M  V30 4359 H 409.932 0.357018 1.57915 0
M  V30 4360 H 411.924 -2.08645 3.4677 0
M  V30 4361 H 410.494 -1.99139 2.40961 0
M  V30 4362 H 409.714 -0.0341177 3.94185 0
M  V30 4363 H 411.002 -0.511268 5.06225 0
M  V30 4364 H 410.4 -3.61246 4.35336 0
M  V30 4365 H 408.957 -3.85927 5.25265 0
M  V30 4366 N 412.39 -1.55475 0.257931 0
M  V30 4367 C 413.322 -2.19192 -0.669881 0
M  V30 4368 C 414.335 -1.17148 -1.1305 0
M  V30 4369 O 415.524 -1.43959 -1.05537 0
M  V30 4370 C 412.624 -2.79016 -1.92363 0
M  V30 4371 C 411.797 -4.06586 -1.61265 0
M  V30 4372 C 410.856 -4.50622 -2.7171 0
M  V30 4373 O 409.882 -5.16765 -2.38627 0
M  V30 4374 N 411.084 -4.19325 -4.01431 0
M  V30 4375 H 413.849 -2.99441 -0.124635 0
M  V30 4376 H 411.41 -1.6171 0.0783311 0
M  V30 4377 H 413.402 -3.05427 -2.65511 0
M  V30 4378 H 411.972 -2.0286 -2.37837 0
M  V30 4379 H 411.192 -3.87646 -0.715811 0
M  V30 4380 H 412.48 -4.89737 -1.37967 0
M  V30 4381 H 411.878 -3.66247 -4.31138 0
M  V30 4382 H 410.435 -4.50547 -4.7101 0
M  V30 4383 N 413.868 0.0150385 -1.57593 0
M  V30 4384 C 415.114 0.704043 -1.90187 0
M  V30 4385 C 415.447 1.74249 -0.857366 0
M  V30 4386 O 414.722 1.94092 0.125843 0
M  V30 4387 C 415.005 1.36087 -3.33395 0
M  V30 4388 C 414.858 0.334981 -4.48551 0
M  V30 4389 C 416.177 2.29112 -3.7576 0
M  V30 4390 H 413.296 0.254475 -0.691673 0
M  V30 4391 H 415.938 -0.0331678 -1.89971 0
M  V30 4392 H 414.088 1.98922 -3.3371 0
M  V30 4393 H 415.76 -0.292534 -4.60372 0
M  V30 4394 H 414.003 -0.344325 -4.32431 0
M  V30 4395 H 414.674 0.833316 -5.45674 0
M  V30 4396 H 417.15 1.76308 -3.76902 0
M  V30 4397 H 416.026 2.72043 -4.76743 0
M  V30 4398 H 416.287 3.16385 -3.08793 0
M  V30 4399 N 415.346 1.54954 0.287554 0
M  V30 4400 C 416.574 1.78881 1.03967 0
M  V30 4401 C 416.989 0.554894 1.80462 0
M  V30 4402 O 416.346 -0.475676 1.76192 0
M  V30 4403 C 416.397 3.00488 2.0097 0
M  V30 4404 O 416.118 4.19113 1.27577 0
M  V30 4405 C 417.619 3.36907 2.88112 0
M  V30 4406 H 414.839 0.596259 0.307761 0
M  V30 4407 H 417.383 2.01937 0.322749 0
M  V30 4408 H 415.538 2.79601 2.68145 0
M  V30 4409 H 415.952 4.87765 1.92835 0
M  V30 4410 H 417.426 4.25205 3.52001 0
M  V30 4411 H 417.903 2.55659 3.57121 0
M  V30 4412 H 418.509 3.60001 2.26449 0
M  V30 4413 N 416.824 -0.551391 1.4764 0
M  V30 4414 C 417.756 -1.67333 1.56628 0
M  V30 4415 C 418.769 -1.56398 0.452045 0
M  V30 4416 O 419.958 -1.6325 0.721926 0
M  V30 4417 C 417.058 -3.05841 1.45994 0
M  V30 4418 C 416.231 -3.42472 2.72088 0
M  V30 4419 C 415.29 -4.60168 2.55209 0
M  V30 4420 O 414.316 -4.64458 3.2904 0
M  V30 4421 N 415.518 -5.57024 1.63416 0
M  V30 4422 H 418.283 -1.60066 2.53375 0
M  V30 4423 H 415.844 -0.738169 1.44093 0
M  V30 4424 H 417.836 -3.8242 1.32428 0
M  V30 4425 H 416.406 -3.07302 0.573071 0
M  V30 4426 H 415.626 -2.55284 3.00373 0
M  V30 4427 H 416.914 -3.63723 3.55785 0
M  V30 4428 H 416.312 -5.56319 1.02594 0
M  V30 4429 H 414.869 -6.32906 1.558 0
M  V30 4430 N 418.302 -1.35869 -0.798587 0
M  V30 4431 C 419.235 -1.23801 -1.91699 0
M  V30 4432 C 420.213 -0.124143 -1.62125 0
M  V30 4433 O 421.397 -0.293656 -1.86199 0
M  V30 4434 C 418.524 -0.908063 -3.263 0
M  V30 4435 C 417.57 -2.0351 -3.74815 0
M  V30 4436 S 418.403 -3.65183 -3.91665 0
M  V30 4437 C 419.559 -3.34283 -5.29156 0
M  V30 4438 H 419.792 -2.18466 -2.01643 0
M  V30 4439 H 417.325 -1.21178 -0.956833 0
M  V30 4440 H 419.283 -0.724506 -4.04056 0
M  V30 4441 H 417.944 0.0206584 -3.14093 0
M  V30 4442 H 417.137 -1.75858 -4.72324 0
M  V30 4443 H 416.739 -2.1774 -3.04081 0
M  V30 4444 H 419.031 -2.87607 -6.13424 0
M  V30 4445 H 419.974 -4.31022 -5.61806 0
M  V30 4446 H 420.382 -2.69854 -4.95822 0
M  V30 4447 N 419.78 1.02168 -1.19998 0
M  V30 4448 C 420.743 2.08765 -0.94604 0
M  V30 4449 C 421.743 1.60618 0.0763846 0
M  V30 4450 O 422.933 1.73472 -0.159135 0
M  V30 4451 C 420.065 3.38262 -0.423255 0
M  V30 4452 H 421.258 2.32726 -1.89153 0
M  V30 4453 H 418.811 1.1889 -1.01464 0
M  V30 4454 H 419.546 3.19974 0.527938 0
M  V30 4455 H 419.331 3.74532 -1.16053 0
M  V30 4456 H 420.821 4.16759 -0.264911 0
M  V30 4457 N 421.258 1.00505 1.21394 0
M  V30 4458 C 422.188 0.585684 2.26035 0
M  V30 4459 C 423.169 -0.393525 1.65485 0
M  V30 4460 O 424.354 -0.281497 1.92149 0
M  V30 4461 C 421.484 -0.0884283 3.47187 0
M  V30 4462 C 420.438 0.810567 4.20254 0
M  V30 4463 C 419.764 0.00286382 5.347 0
M  V30 4464 C 421.064 2.1132 4.77641 0
M  V30 4465 H 422.758 1.46039 2.61368 0
M  V30 4466 H 420.304 0.703648 1.25638 0
M  V30 4467 H 422.257 -0.393286 4.19561 0
M  V30 4468 H 420.981 -0.997766 3.10986 0
M  V30 4469 H 419.64 1.09925 3.49731 0
M  V30 4470 H 419.288 -0.907765 4.94741 0
M  V30 4471 H 418.988 0.601444 5.84514 0
M  V30 4472 H 420.512 -0.295808 6.09883 0
M  V30 4473 H 421.926 1.87148 5.41893 0
M  V30 4474 H 420.323 2.66164 5.37845 0
M  V30 4475 H 421.393 2.78393 3.9702 0
M  V30 4476 N 422.737 -1.36956 0.779787 0
M  V30 4477 C 423.983 -2.00237 0.357324 0
M  V30 4478 C 424.338 -1.60787 -1.05666 0
M  V30 4479 O 423.631 -0.847836 -1.71821 0
M  V30 4480 C 423.825 -3.54585 0.447686 0
M  V30 4481 C 423.654 -4.09025 1.86891 0
M  V30 4482 C 422.424 -4.39612 2.49138 0
M  V30 4483 C 424.622 -4.29461 2.82963 0
M  V30 4484 N 422.604 -4.79816 3.82949 0
M  V30 4485 C 423.975 -4.72363 4.01588 0
M  V30 4486 C 426.03 -4.1161 2.80145 0
M  V30 4487 C 424.733 -4.99284 5.17791 0
M  V30 4488 C 426.759 -4.39672 3.95528 0
M  V30 4489 C 426.121 -4.82822 5.12896 0
M  V30 4490 H 422.22 -0.76148 0.177968 0
M  V30 4491 H 424.804 -1.6613 1.01533 0
M  V30 4492 H 422.975 -3.87982 -0.180184 0
M  V30 4493 H 424.707 -4.047 0.0023955 0
M  V30 4494 H 421.462 -4.28975 2.00693 0
M  V30 4495 H 421.886 -5.04216 4.51769 0
M  V30 4496 H 426.528 -3.77415 1.90572 0
M  V30 4497 H 424.246 -5.32365 6.07958 0
M  V30 4498 H 427.832 -4.27441 3.94697 0
M  V30 4499 H 426.712 -5.04118 6.00695 0
M  V30 4500 N 424.215 -0.530993 -1.48385 0
M  V30 4501 C 425.178 0.220497 -2.28137 0
M  V30 4502 C 426.178 0.866851 -1.35434 0
M  V30 4503 O 427.368 0.726746 -1.58316 0
M  V30 4504 C 424.5 1.31921 -3.1434 0
M  V30 4505 H 425.693 -0.479714 -2.96038 0
M  V30 4506 H 423.246 -0.286968 -1.53643 0
M  V30 4507 H 423.981 2.05264 -2.51072 0
M  V30 4508 H 423.766 0.86085 -3.82533 0
M  V30 4509 H 425.256 1.84776 -3.74497 0
M  V30 4510 N 425.693 1.55336 -0.266172 0
M  V30 4511 C 426.942 1.98574 0.353749 0
M  V30 4512 C 427.255 1.15789 1.57646 0
M  V30 4513 O 428.461 1.49129 2.26876 0
M  V30 4514 C 426.917 3.53403 0.680747 0
M  V30 4515 C 426.525 4.44953 -0.52165 0
M  V30 4516 C 428.269 4.05251 1.26379 0
M  V30 4517 C 426.176 5.91156 -0.169736 0
M  V30 4518 H 425.106 0.741643 0.135949 0
M  V30 4519 H 427.757 1.79743 -0.369421 0
M  V30 4520 H 426.139 3.68001 1.46257 0
M  V30 4521 H 427.313 4.42121 -1.29869 0
M  V30 4522 H 425.628 4.03691 -1.02093 0
M  V30 4523 H 428.225 5.12021 1.54074 0
M  V30 4524 H 428.568 3.53749 2.19471 0
M  V30 4525 H 429.101 3.94057 0.544447 0
M  V30 4526 H 425.84 6.46736 -1.0683 0
M  V30 4527 H 425.36 5.97079 0.570717 0
M  V30 4528 H 427.039 6.4655 0.241245 0
M  V30 4529 N 427.171 -0.0066808 1.57599 0
M  V30 4530 C 428.104 -1.03397 2.03431 0
M  V30 4531 C 429.082 -1.33872 0.922877 0
M  V30 4532 O 430.266 -1.4615 1.19048 0
M  V30 4533 C 427.393 -2.36325 2.42628 0
M  V30 4534 C 426.439 -2.21557 3.64438 0
M  V30 4535 S 427.272 -1.54789 5.12641 0
M  V30 4536 C 428.428 -2.8916 5.55101 0
M  V30 4537 H 428.661 -0.643687 2.90248 0
M  V30 4538 H 426.194 -0.217349 1.52863 0
M  V30 4539 H 428.152 -3.12759 2.65879 0
M  V30 4540 H 426.813 -2.72495 1.56222 0
M  V30 4541 H 426.006 -3.1974 3.89592 0
M  V30 4542 H 425.608 -1.53267 3.41153 0
M  V30 4543 H 427.9 -3.8547 5.57153 0
M  V30 4544 H 428.843 -2.68713 6.55133 0
M  V30 4545 H 429.251 -2.92762 4.82649 0
M  V30 4546 N 428.649 -1.55105 -0.279332 0
M  V30 4547 C 429.612 -1.86783 -1.32834 0
M  V30 4548 C 430.612 -0.74199 -1.42657 0
M  V30 4549 O 431.802 -1.0102 -1.41918 0
M  V30 4550 C 428.934 -2.06746 -2.71052 0
M  V30 4551 H 430.127 -2.8055 -1.05979 0
M  V30 4552 H 427.68 -1.47499 -0.517087 0
M  V30 4553 H 428.415 -1.15339 -3.03097 0
M  V30 4554 H 428.2 -2.88711 -2.65309 0
M  V30 4555 H 429.69 -2.32549 -3.46858 0
M  V30 4556 N 430.127 0.543554 -1.4793 0
M  V30 4557 C 431.09 1.63156 -1.60975 0
M  V30 4558 C 432.09 1.53346 -0.483899 0
M  V30 4559 O 433.28 1.5726 -0.749339 0
M  V30 4560 C 430.412 3.02743 -1.56716 0
M  V30 4561 H 431.605 1.52934 -2.57975 0
M  V30 4562 H 429.158 0.764557 -1.36324 0
M  V30 4563 H 429.893 3.18484 -0.611418 0
M  V30 4564 H 429.678 3.11272 -2.38438 0
M  V30 4565 H 431.168 3.81871 -1.6901 0
M  V30 4566 N 431.605 1.3629 0.791371 0
M  V30 4567 C 433.016 1.27225 1.36641 0
M  V30 4568 C 433.367 -0.0887968 1.95999 0
M  V30 4569 O 432.492 -0.990207 1.92416 0
M  V30 4570 C 433.087 2.30375 2.48421 0
M  V30 4571 C 431.646 2.25004 3.01746 0
M  V30 4572 C 430.793 2.15259 1.7481 0
M  V30 4573 H 433.744 1.47198 0.593173 0
M  V30 4574 H 433.765 1.93905 3.27385 0
M  V30 4575 H 433.277 3.29422 2.05189 0
M  V30 4576 H 431.378 1.29417 3.49403 0
M  V30 4577 H 431.491 3.1761 3.58693 0
M  V30 4578 H 429.855 1.61482 1.96966 0
M  V30 4579 H 430.638 3.16191 1.33709 0
M  V30 4580 N 433.083 -1.0153 1.20538 0
M  V30 4581 C 434.013 -2.11972 0.979295 0
M  V30 4582 C 434.994 -1.6985 -0.0921787 0
M  V30 4583 O 436.179 -1.94089 0.0655932 0
M  V30 4584 C 433.309 -3.43201 0.531984 0
M  V30 4585 C 432.263 -3.9907 1.54685 0
M  V30 4586 C 431.589 -5.26082 0.956127 0
M  V30 4587 C 432.889 -4.32313 2.93092 0
M  V30 4588 H 434.583 -2.31143 1.90298 0
M  V30 4589 H 432.129 -1.11079 0.916372 0
M  V30 4590 H 434.082 -4.1985 0.361044 0
M  V30 4591 H 432.806 -3.23792 -0.427327 0
M  V30 4592 H 431.465 -3.2453 1.70517 0
M  V30 4593 H 431.113 -5.02999 -0.0111538 0
M  V30 4594 H 430.813 -5.64426 1.63393 0
M  V30 4595 H 432.337 -6.05386 0.796284 0
M  V30 4596 H 433.751 -4.99845 2.80763 0
M  V30 4597 H 432.148 -4.81774 3.57791 0
M  V30 4598 H 433.218 -3.41025 3.44717 0
M  V30 4599 N 434.561 -1.01147 -1.20859 0
M  V30 4600 C 435.808 -0.697865 -1.90095 0
M  V30 4601 C 436.136 0.772014 -1.78522 0
M  V30 4602 O 435.391 1.57595 -1.16027 0
M  V30 4603 C 435.69 -1.0727 -3.40922 0
M  V30 4604 C 435.356 -2.53792 -3.72693 0
M  V30 4605 C 434.018 -2.93829 -3.81075 0
M  V30 4606 C 436.37 -3.48674 -3.87397 0
M  V30 4607 C 433.698 -4.27696 -4.01613 0
M  V30 4608 C 436.05 -4.82223 -4.09444 0
M  V30 4609 C 434.714 -5.21973 -4.16054 0
M  V30 4610 H 433.984 -0.255367 -0.695607 0
M  V30 4611 H 436.631 -1.27111 -1.43231 0
M  V30 4612 H 434.936 -0.417799 -3.89566 0
M  V30 4613 H 436.633 -0.807818 -3.92779 0
M  V30 4614 H 433.223 -2.21768 -3.66765 0
M  V30 4615 H 437.407 -3.18904 -3.80281 0
M  V30 4616 H 432.663 -4.58055 -4.04964 0
M  V30 4617 H 436.837 -5.55672 -4.19763 0
M  V30 4618 H 434.464 -6.25717 -4.31721 0
M  V30 4619 N 436.039 1.36541 -0.78704 0
M  V30 4620 C 436.972 2.27831 -0.129765 0
M  V30 4621 C 437.95 1.47105 0.692732 0
M  V30 4622 O 439.134 1.7641 0.664222 0
M  V30 4623 C 436.261 3.28577 0.821883 0
M  V30 4624 C 435.307 4.26422 0.0814771 0
M  V30 4625 S 436.14 5.20919 -1.24112 0
M  V30 4626 C 437.296 6.25212 -0.293409 0
M  V30 4627 H 437.529 2.83229 -0.903811 0
M  V30 4628 H 435.062 1.43046 -0.581144 0
M  V30 4629 H 437.02 3.87123 1.3655 0
M  V30 4630 H 435.681 2.72096 1.56916 0
M  V30 4631 H 434.874 4.97554 0.803485 0
M  V30 4632 H 434.476 3.71944 -0.391589 0
M  V30 4633 H 436.768 6.75435 0.528622 0
M  V30 4634 H 437.711 7.01378 -0.973344 0
M  V30 4635 H 438.119 5.64407 0.102196 0
M  V30 4636 N 437.518 0.538854 1.48102 0
M  V30 4637 C 438.743 0.0102694 2.07397 0
M  V30 4638 C 439.168 -1.26562 1.39153 0
M  V30 4639 O 438.526 -1.75357 0.460387 0
M  V30 4640 C 438.574 -0.187602 3.60112 0
M  V30 4641 O 437.678 -1.25432 3.92862 0
M  V30 4642 H 437.019 0.0430975 0.6626 0
M  V30 4643 H 439.549 0.749301 1.90385 0
M  V30 4644 H 439.559 -0.407517 4.0596 0
M  V30 4645 H 438.234 0.744386 4.09184 0
M  V30 4646 H 436.811 -1.01636 3.58782 0
M  V30 4647 N 438.996 -1.55193 0.274407 0
M  V30 4648 C 439.944 -2.23924 -0.629362 0
M  V30 4649 C 440.938 -1.23602 -1.1584 0
M  V30 4650 O 442.144 -1.41535 -1.11211 0
M  V30 4651 H 438.519 -0.718637 -0.221507 0
M  V30 4652 H 440.49 -2.98388 -0.0268322 0
M  V30 4653 C 439.239 -2.97329 -1.80252 0
M  V30 4654 H 438.562 -3.74313 -1.40462 0
M  V30 4655 H 440.002 -3.48743 -2.41152 0
M  V30 4656 C 438.461 -2.0276 -2.69054 0
M  V30 4657 O 438.991 -1.57836 -3.69392 0
M  V30 4658 N 437.197 -1.69275 -2.36208 0
M  V30 4659 H 436.744 -2.06004 -1.54661 0
M  V30 4660 H 436.702 -1.06271 -2.95895 0
M  V30 4661 N 440.474 -0.00167713 -1.576 0
M  V30 4662 C 441.751 0.719951 -1.81868 0
M  V30 4663 C 442.131 1.91895 -0.879747 0
M  V30 4664 O 441.479 2.28389 0.0711423 0
M  V30 4665 C 441.689 1.12409 -3.30402 0
M  V30 4666 C 443.037 1.52724 -3.96182 0
M  V30 4667 O 444.061 1.21784 -3.34734 0
M  V30 4668 O 442.92 2.10265 -5.04431 0
M  V30 4669 H 440.014 0.350707 -0.748955 0
M  V30 4670 H 442.56 -0.0272597 -1.69678 0
M  V30 4671 H 441.332 0.269532 -3.90371 0
M  V30 4672 H 440.955 1.93035 -3.47596 0
M  V30 4673 N 441.952 1.55251 0.271103 0
M  V30 4674 C 442.882 1.9127 1.33933 0
M  V30 4675 C 443.863 0.77478 1.5143 0
M  V30 4676 O 445.048 1.03307 1.64442 0
M  V30 4677 C 442.178 2.18627 2.69851 0
M  V30 4678 C 441.132 3.34442 2.67081 0
M  V30 4679 C 440.458 3.47284 4.06569 0
M  V30 4680 C 441.758 4.70784 2.26185 0
M  V30 4681 H 443.452 2.80744 1.04035 0
M  V30 4682 H 440.998 1.35077 0.499017 0
M  V30 4683 H 442.951 2.42413 3.44694 0
M  V30 4684 H 441.675 1.25955 3.01335 0
M  V30 4685 H 440.334 3.10627 1.94695 0
M  V30 4686 H 439.982 2.52074 4.35279 0
M  V30 4687 H 439.682 4.25152 4.0561 0
M  V30 4688 H 441.206 3.73363 4.83148 0
M  V30 4689 H 442.62 4.94102 2.90751 0
M  V30 4690 H 441.017 5.51582 2.36384 0
M  V30 4691 H 442.087 4.69478 1.21319 0
M  V30 4692 N 443.43 -0.535701 1.48216 0
M  V30 4693 C 444.846 -0.863701 1.3421 0
M  V30 4694 C 445.046 -1.98458 0.34879 0
M  V30 4695 O 444.102 -2.51432 -0.23204 0
M  V30 4696 C 445.415 -1.23662 2.74095 0
M  V30 4697 C 446.963 -1.34683 2.82541 0
M  V30 4698 C 447.438 -1.75322 4.23115 0
M  V30 4699 N 448.929 -1.82434 4.2576 0
M  V30 4700 C 449.664 -2.15252 5.31464 0
M  V30 4701 N 449.16 -2.46533 6.47452 0
M  V30 4702 N 450.953 -2.16209 5.18855 0
M  V30 4703 H 443.104 0.203965 2.11418 0
M  V30 4704 H 445.367 0.0286033 0.947568 0
M  V30 4705 H 445.073 -0.486674 3.48316 0
M  V30 4706 H 444.947 -2.18805 3.07253 0
M  V30 4707 H 447.334 -2.08756 2.08579 0
M  V30 4708 H 447.415 -0.376756 2.5301 0
M  V30 4709 H 447.059 -1.01812 4.97591 0
M  V30 4710 H 446.989 -2.7337 4.50085 0
M  V30 4711 H 449.48 -1.6056 3.42095 0
M  V30 4712 H 449.793 -2.70662 7.23852 0
M  V30 4713 H 448.138 -2.44065 6.50736 0
M  V30 4714 H 451.329 -1.91224 4.2726 0
M  V30 4715 H 451.502 -2.41453 6.01335 0
M  V30 4716 N 444.908 -1.36708 -0.784132 0
M  V30 4717 C 445.858 -1.2799 -1.88686 0
M  V30 4718 C 446.842 -0.170282 -1.59996 0
M  V30 4719 O 448.034 -0.403571 -1.72338 0
M  V30 4720 C 445.163 -1.07674 -3.25977 0
M  V30 4721 C 444.249 -2.23127 -3.60659 0
M  V30 4722 N 444.64 -3.48467 -3.66612 0
M  V30 4723 C 442.938 -2.15009 -3.90752 0
M  V30 4724 C 443.639 -4.24525 -3.97685 0
M  V30 4725 N 442.615 -3.53524 -4.12943 0
M  V30 4726 H 446.417 -2.22927 -1.91522 0
M  V30 4727 H 443.931 -1.29503 -0.979933 0
M  V30 4728 H 445.928 -0.995151 -4.04849 0
M  V30 4729 H 444.588 -0.13643 -3.24413 0
M  V30 4730 H 445.599 -3.82534 -3.49125 0
M  V30 4731 H 442.276 -1.28963 -3.97083 0
M  V30 4732 H 443.666 -5.32944 -4.0917 0
M  V30 4733 N 446.386 1.0089 -1.21074 0
M  V30 4734 C 447.635 1.74019 -1.01981 0
M  V30 4735 C 447.948 1.90408 0.447665 0
M  V30 4736 O 449.154 2.60707 0.757906 0
M  V30 4737 C 447.61 3.13026 -1.77603 0
M  V30 4738 C 447.218 3.04623 -3.28495 0
M  V30 4739 C 448.962 3.90312 -1.66904 0
M  V30 4740 C 446.869 4.38685 -3.96623 0
M  V30 4741 H 445.799 0.652422 -0.377971 0
M  V30 4742 H 448.45 1.12755 -1.44771 0
M  V30 4743 H 446.832 3.74878 -1.27604 0
M  V30 4744 H 448.006 2.52032 -3.85767 0
M  V30 4745 H 446.321 2.40827 -3.39693 0
M  V30 4746 H 448.918 4.8951 -2.15138 0
M  V30 4747 H 449.261 4.11558 -0.62658 0
M  V30 4748 H 449.794 3.35104 -2.14359 0
M  V30 4749 H 446.533 4.22641 -5.01054 0
M  V30 4750 H 446.053 4.91252 -3.4414 0
M  V30 4751 H 447.732 5.075 -4.01314 0
M  V30 4752 N 447.864 1.01787 1.20321 0
M  V30 4753 C 449.089 0.727009 1.9424 0
M  V30 4754 C 449.514 -0.706179 1.74341 0
M  V30 4755 O 448.872 -1.48609 1.03852 0
M  V30 4756 C 448.92 1.06958 3.44372 0
M  V30 4757 O 448.024 0.181983 4.11998 0
M  V30 4758 H 447.365 0.269626 0.606793 0
M  V30 4759 H 449.895 1.36158 1.52716 0
M  V30 4760 H 449.905 1.02182 3.94997 0
M  V30 4761 H 448.58 2.11378 3.58179 0
M  V30 4762 H 447.157 0.287378 3.71791 0
M  V30 4763 N 449.342 -1.36122 0.79427 0
M  V30 4764 C 450.753 -1.81646 0.431446 0
M  V30 4765 C 451.104 -1.66043 -1.04518 0
M  V30 4766 O 450.229 -1.1841 -1.8113 0
M  V30 4767 C 450.824 -3.29785 0.776341 0
M  V30 4768 C 449.383 -3.73501 0.466282 0
M  V30 4769 C 448.53 -2.58313 1.00844 0
M  V30 4770 H 451.481 -1.24274 0.986995 0
M  V30 4771 H 451.502 -3.80437 0.0692413 0
M  V30 4772 H 451.014 -3.4111 1.8511 0
M  V30 4773 H 449.115 -3.67733 -0.600245 0
M  V30 4774 H 449.228 -4.68754 0.990288 0
M  V30 4775 H 447.592 -2.5102 0.431406 0
M  V30 4776 H 448.375 -2.72421 2.08906 0
M  V30 4777 N 450.82 -0.546701 -1.47814 0
M  V30 4778 C 451.752 0.244196 -2.27895 0
M  V30 4779 C 452.765 0.88911 -1.36377 0
M  V30 4780 O 453.954 0.764733 -1.61289 0
M  V30 4781 C 451.054 1.36252 -3.10304 0
M  V30 4782 C 450.227 0.816382 -4.29714 0
M  V30 4783 C 449.286 1.81789 -4.93801 0
M  V30 4784 O 448.312 1.36818 -5.52512 0
M  V30 4785 N 449.514 3.15085 -4.87547 0
M  V30 4786 H 452.279 -0.442694 -2.96412 0
M  V30 4787 H 449.84 -0.382095 -1.57327 0
M  V30 4788 H 451.832 2.03102 -3.50045 0
M  V30 4789 H 450.402 1.95281 -2.44099 0
M  V30 4790 H 449.622 -0.0285981 -3.9419 0
M  V30 4791 H 450.91 0.430668 -5.06974 0
M  V30 4792 H 450.308 3.54275 -4.41028 0
M  V30 4793 H 448.865 3.77522 -5.31339 0
M  V30 4794 N 452.299 1.55045 -0.282633 0
M  V30 4795 C 453.262 2.21515 0.588539 0
M  V30 4796 C 454.262 1.19535 1.07554 0
M  V30 4797 O 455.452 1.44391 0.974514 0
M  V30 4798 C 452.584 2.88704 1.8128 0
M  V30 4799 H 453.777 2.99899 0.00806397 0
M  V30 4800 H 451.33 1.56265 -0.0333067 0
M  V30 4801 H 452.065 2.14352 2.43359 0
M  V30 4802 H 451.85 3.63443 1.47144 0
M  V30 4803 H 453.34 3.39465 2.43214 0
M  V30 4804 N 453.777 0.010035 1.57597 0
M  V30 4805 C 454.724 -0.978122 2.09049 0
M  V30 4806 C 455.694 -1.33509 0.988159 0
M  V30 4807 O 456.879 -1.43172 1.26121 0
M  V30 4808 C 454.019 -2.26158 2.60666 0
M  V30 4809 C 453.132 -1.96275 3.84838 0
M  V30 4810 C 452.267 -3.18776 4.24918 0
M  V30 4811 C 451.306 -2.84625 5.41899 0
M  V30 4812 N 450.443 -3.99693 5.77226 0
M  V30 4813 H 455.283 -0.532431 2.93205 0
M  V30 4814 H 452.82 -0.251234 1.44939 0
M  V30 4815 H 454.778 -3.01202 2.88675 0
M  V30 4816 H 453.408 -2.68378 1.79369 0
M  V30 4817 H 452.46 -1.11555 3.63675 0
M  V30 4818 H 453.772 -1.67111 4.69974 0
M  V30 4819 H 452.926 -4.02157 4.54262 0
M  V30 4820 H 451.665 -3.51087 3.38511 0
M  V30 4821 H 450.67 -1.99653 5.12268 0
M  V30 4822 H 451.895 -2.53551 6.29991 0
M  V30 4823 H 449.841 -4.31882 4.93776 0
M  V30 4824 H 449.758 -3.74087 6.56959 0
M  V30 4825 H 451.026 -4.83834 6.11167 0
M  V30 4826 N 455.255 -1.55392 -0.262866 0
M  V30 4827 C 456.218 -1.88181 -1.30846 0
M  V30 4828 C 457.218 -0.757079 -1.41862 0
M  V30 4829 O 458.408 -1.02519 -1.40838 0
M  V30 4830 C 455.54 -2.09609 -2.68844 0
M  V30 4831 H 456.733 -2.81659 -1.02997 0
M  V30 4832 H 454.286 -1.48039 -0.501414 0
M  V30 4833 H 455.021 -1.18547 -3.01856 0
M  V30 4834 H 454.806 -2.91508 -2.62231 0
M  V30 4835 H 456.296 -2.36215 -3.44372 0
M  V30 4836 N 456.733 0.527833 -1.48498 0
M  V30 4837 C 457.663 1.64136 -1.66077 0
M  V30 4838 C 458.644 1.62286 -0.509625 0
M  V30 4839 O 459.829 1.79449 -0.742413 0
M  V30 4840 C 456.959 3.02717 -1.70234 0
M  V30 4841 C 455.913 3.19426 -2.8487 0
M  V30 4842 C 455.239 4.5909 -2.74118 0
M  V30 4843 C 456.539 3.01993 -4.26142 0
M  V30 4844 H 458.233 1.4968 -2.593 0
M  V30 4845 H 455.779 0.718654 -1.24785 0
M  V30 4846 H 457.732 3.80491 -1.8112 0
M  V30 4847 H 456.456 3.18201 -0.735911 0
M  V30 4848 H 455.115 2.4407 -2.73542 0
M  V30 4849 H 454.763 4.71413 -1.7544 0
M  V30 4850 H 454.463 4.71214 -3.51042 0
M  V30 4851 H 455.987 5.3896 -2.86974 0
M  V30 4852 H 457.401 3.69558 -4.38292 0
M  V30 4853 H 455.798 3.2561 -5.04082 0
M  V30 4854 H 456.868 1.98396 -4.42456 0
M  V30 4855 N 458.211 1.37122 0.776871 0
M  V30 4856 C 459.141 1.35164 1.90402 0
M  V30 4857 C 460.122 0.221069 1.68657 0
M  V30 4858 O 461.307 0.420642 1.8959 0
M  V30 4859 C 458.437 1.15274 3.27611 0
M  V30 4860 C 457.391 2.25289 3.63908 0
M  V30 4861 C 456.717 1.90527 4.99603 0
M  V30 4862 C 458.017 3.67446 3.71188 0
M  V30 4863 H 459.711 2.29482 1.92297 0
M  V30 4864 H 457.257 1.10465 0.923773 0
M  V30 4865 H 459.21 1.12536 4.06096 0
M  V30 4866 H 457.934 0.174102 3.26136 0
M  V30 4867 H 456.593 2.27174 2.87728 0
M  V30 4868 H 456.241 0.91206 4.94662 0
M  V30 4869 H 455.941 2.64193 5.24858 0
M  V30 4870 H 457.465 1.89367 5.80493 0
M  V30 4871 H 458.879 3.67719 4.39836 0
M  V30 4872 H 457.276 4.40123 4.07936 0
M  V30 4873 H 458.346 4.01443 2.71977 0
M  V30 4874 N 459.689 -1.00246 1.21608 0
M  V30 4875 C 460.621 -2.09244 0.935401 0
M  V30 4876 C 461.634 -1.62592 -0.0823594 0
M  V30 4877 O 462.823 -1.77865 0.150456 0
M  V30 4878 C 459.923 -3.36724 0.383453 0
M  V30 4879 C 459.096 -4.1245 1.45615 0
M  V30 4880 C 458.155 -5.18219 0.912991 0
M  V30 4881 O 457.181 -5.46337 1.59701 0
M  V30 4882 N 458.383 -5.7987 -0.270478 0
M  V30 4883 H 461.148 -2.33905 1.87373 0
M  V30 4884 H 458.709 -1.16748 1.12167 0
M  V30 4885 H 460.701 -4.047 0.00562157 0
M  V30 4886 H 459.271 -3.09201 -0.459758 0
M  V30 4887 H 458.491 -3.39241 2.00772 0
M  V30 4888 H 459.779 -4.59819 2.17817 0
M  V30 4889 H 459.177 -5.59381 -0.843195 0
M  V30 4890 H 457.734 -6.49126 -0.589794 0
M  V30 4891 N 461.167 -1.02423 -1.1978 0
M  V30 4892 C 462.444 -0.632802 -1.85081 0
M  V30 4893 C 462.824 0.888745 -1.9148 0
M  V30 4894 O 462.172 1.78357 -1.42832 0
M  V30 4895 C 462.382 -1.28947 -3.24305 0
M  V30 4896 C 463.73 -1.40976 -4.00513 0
M  V30 4897 O 464.754 -1.24628 -3.33686 0
M  V30 4898 O 463.613 -1.67467 -5.20209 0
M  V30 4899 H 460.707 -0.219348 -0.79738 0
M  V30 4900 H 463.253 -1.12209 -1.27307 0
M  V30 4901 H 462.025 -2.3288 -3.14456 0
M  V30 4902 H 461.648 -0.787748 -3.89718 0
M  V30 4903 N 462.645 1.35699 -0.801477 0
M  V30 4904 C 463.592 2.29876 -0.206294 0
M  V30 4905 C 464.562 1.52565 0.656752 0
M  V30 4906 O 465.747 1.81024 0.602906 0
M  V30 4907 C 462.887 3.39052 0.643272 0
M  V30 4908 C 462 4.31335 -0.239644 0
M  V30 4909 C 461.135 5.27599 0.61744 0
M  V30 4910 C 460.174 6.11521 -0.26619 0
M  V30 4911 N 459.311 6.99938 0.550571 0
M  V30 4912 H 464.151 2.80187 -1.01484 0
M  V30 4913 H 461.688 1.37902 -0.511997 0
M  V30 4914 H 463.646 4.0101 1.15094 0
M  V30 4915 H 462.276 2.9003 1.41713 0
M  V30 4916 H 461.328 3.70426 -0.865381 0
M  V30 4917 H 462.64 4.90243 -0.919985 0
M  V30 4918 H 461.794 5.94906 1.19045 0
M  V30 4919 H 460.533 4.69176 1.33137 0
M  V30 4920 H 459.538 5.43166 -0.851507 0
M  V30 4921 H 460.763 6.72022 -0.9779 0
M  V30 4922 H 458.709 6.44008 1.24856 0
M  V30 4923 H 458.626 7.55966 -0.071832 0
M  V30 4924 H 459.894 7.71599 1.10702 0
M  V30 4925 N 464.123 0.554532 1.47522 0
M  V30 4926 C 465.4 -0.0360704 1.95567 0
M  V30 4927 C 465.78 -1.48828 1.49711 0
M  V30 4928 O 465.128 -2.16366 0.734717 0
M  V30 4929 C 465.338 0.106631 3.48837 0
M  V30 4930 C 466.686 -0.0400899 4.24581 0
M  V30 4931 O 467.71 0.0340453 3.56184 0
M  V30 4932 O 466.569 -0.199111 5.46137 0
M  V30 4933 H 463.663 -0.0656294 0.824392 0
M  V30 4934 H 466.209 0.620867 1.57935 0
M  V30 4935 H 464.981 1.11727 3.7501 0
M  V30 4936 H 464.604 -0.58804 3.93227 0
M  V30 4937 N 465.601 -1.54893 0.290851 0
M  V30 4938 C 466.847 -2.0023 -0.321867 0
M  V30 4939 C 467.18 -1.179 -1.54316 0
M  V30 4940 O 466.455 -0.25293 -1.92848 0
M  V30 4941 C 466.738 -3.53456 -0.688515 0
M  V30 4942 C 466.591 -4.46532 0.541209 0
M  V30 4943 C 467.91 -4.13057 -1.51895 0
M  V30 4944 H 465.029 -0.727891 -0.115515 0
M  V30 4945 H 467.671 -1.85722 0.400931 0
M  V30 4946 H 465.821 -3.6595 -1.30433 0
M  V30 4947 H 467.493 -4.4596 1.17973 0
M  V30 4948 H 465.736 -4.17545 1.17636 0
M  V30 4949 H 466.407 -5.51475 0.240675 0
M  V30 4950 H 468.883 -4.03937 -0.99872 0
M  V30 4951 H 467.759 -5.20448 -1.74429 0
M  V30 4952 H 468.02 -3.64284 -2.50498 0
M  V30 4953 N 467.08 -0.0183926 -1.57589 0
M  V30 4954 C 468.329 0.66185 -1.90532 0
M  V30 4955 C 468.642 1.73904 -0.895366 0
M  V30 4956 O 469.848 2.47518 -1.11566 0
M  V30 4957 C 468.304 1.22844 -3.38286 0
M  V30 4958 C 467.912 0.185103 -4.47617 0
M  V30 4959 C 469.656 1.88581 -3.80312 0
M  V30 4960 C 467.563 0.762723 -5.86461 0
M  V30 4961 H 466.493 0.250972 -0.711006 0
M  V30 4962 H 469.144 -0.0819435 -1.83317 0
M  V30 4963 H 467.526 2.0235 -3.40398 0
M  V30 4964 H 468.7 -0.58671 -4.5705 0
M  V30 4965 H 467.015 -0.372889 -4.14727 0
M  V30 4966 H 469.612 2.32735 -4.81392 0
M  V30 4967 H 469.955 2.72408 -3.14801 0
M  V30 4968 H 470.488 1.15782 -3.80578 0
M  V30 4969 H 467.227 -0.0371713 -6.55489 0
M  V30 4970 H 466.747 1.50327 -5.80656 0
M  V30 4971 H 468.426 1.25576 -6.34697 0
M  V30 4972 N 468.558 1.5553 0.254621 0
M  V30 4973 C 469.521 1.88872 1.29846 0
M  V30 4974 C 470.521 0.764591 1.41459 0
M  V30 4975 O 471.711 1.03265 1.40293 0
M  V30 4976 C 468.843 2.11032 2.67728 0
M  V30 4977 H 470.036 2.82201 1.01502 0
M  V30 4978 H 467.589 1.48303 0.493556 0
M  V30 4979 H 468.324 1.20146 3.01223 0
M  V30 4980 H 468.109 2.92895 2.60682 0
M  V30 4981 H 469.599 2.38038 3.43115 0
M  V30 4982 N 470.036 -0.519951 1.48776 0
M  V30 4983 C 471.285 -1.27175 1.56555 0
M  V30 4984 C 471.598 -1.9401 0.248869 0
M  V30 4985 O 472.804 -2.70725 0.205004 0
M  V30 4986 C 471.26 -2.30811 2.76142 0
M  V30 4987 C 470.868 -1.7 4.14493 0
M  V30 4988 C 472.612 -3.06937 2.9324 0
M  V30 4989 C 470.519 -2.71635 5.25327 0
M  V30 4990 H 469.449 -0.478329 0.582853 0
M  V30 4991 H 472.1 -0.547916 1.75129 0
M  V30 4992 H 470.482 -3.06274 2.51023 0
M  V30 4993 H 471.656 -1.00658 4.49672 0
M  V30 4994 H 469.971 -1.06331 4.02595 0
M  V30 4995 H 472.568 -3.82905 3.73213 0
M  V30 4996 H 472.911 -3.63409 2.03075 0
M  V30 4997 H 473.444 -2.38589 3.18308 0
M  V30 4998 H 470.183 -2.1997 6.1749 0
M  V30 4999 H 469.703 -3.39275 4.94624 0
M  V30 5000 H 471.382 -3.34429 5.53865 0
M  V30 5001 N 471.514 -1.37532 -0.769588 0
M  V30 5002 C 472.462 -1.33561 -1.90432 0
M  V30 5003 C 473.456 -0.224027 -1.67912 0
M  V30 5004 O 474.662 -0.392174 -1.75676 0
M  V30 5005 H 471.037 -0.416279 -0.626271 0
M  V30 5006 H 473.008 -2.29348 -1.90899 0
M  V30 5007 C 471.757 -1.16162 -3.27722 0
M  V30 5008 H 471.08 -2.00951 -3.45628 0
M  V30 5009 H 472.52 -1.17434 -4.07413 0
M  V30 5010 C 470.979 0.132583 -3.36639 0
M  V30 5011 O 471.509 1.11539 -3.85904 0
M  V30 5012 N 469.715 0.184013 -2.90017 0
M  V30 5013 H 469.262 -0.616415 -2.50116 0
M  V30 5014 H 469.22 1.04956 -2.96364 0
M  V30 5015 N 472.992 0.995999 -1.22138 0
M  V30 5016 C 473.924 2.08745 -0.946485 0
M  V30 5017 C 474.937 1.62633 0.0737356 0
M  V30 5018 O 476.126 1.77782 -0.159886 0
M  V30 5019 C 473.226 3.36516 -0.401305 0
M  V30 5020 C 472.399 4.11672 -1.47801 0
M  V30 5021 C 471.458 5.17728 -0.940461 0
M  V30 5022 O 470.484 5.45482 -1.62596 0
M  V30 5023 N 471.686 5.80005 0.239723 0
M  V30 5024 H 474.451 2.32908 -1.88611 0
M  V30 5025 H 472.012 1.16152 -1.12785 0
M  V30 5026 H 474.004 4.04691 -0.0270837 0
M  V30 5027 H 472.574 3.0944 0.443354 0
M  V30 5028 H 471.794 3.38171 -2.02568 0
M  V30 5029 H 473.082 4.58657 -2.20253 0
M  V30 5030 H 472.48 5.5982 0.813518 0
M  V30 5031 H 471.037 6.4943 0.555361 0
M  V30 5032 N 474.47 1.03057 1.19235 0
M  V30 5033 C 475.747 0.642608 1.84743 0
M  V30 5034 C 476.127 -0.878577 1.91948 0
M  V30 5035 O 475.475 -1.77597 1.43776 0
M  V30 5036 C 475.685 1.30665 3.23616 0
M  V30 5037 C 477.033 1.43098 3.9976 0
M  V30 5038 O 478.057 1.26396 3.3302 0
M  V30 5039 O 476.916 1.70223 5.19313 0
M  V30 5040 H 474.01 0.223573 0.796206 0
M  V30 5041 H 476.556 1.12883 1.26711 0
M  V30 5042 H 475.328 2.34544 3.13217 0
M  V30 5043 H 474.951 0.808405 3.89295 0
M  V30 5044 N 475.948 -1.35272 0.808662 0
M  V30 5045 C 477.359 -1.81179 0.450688 0
M  V30 5046 C 477.71 -1.67143 -1.02751 0
M  V30 5047 O 476.835 -1.20325 -1.79864 0
M  V30 5048 C 477.43 -3.28943 0.811275 0
M  V30 5049 C 475.989 -3.72985 0.505871 0
M  V30 5050 C 475.136 -2.57229 1.03578 0
M  V30 5051 H 478.087 -1.2322 1.00012 0
M  V30 5052 H 478.108 -3.80342 0.109588 0
M  V30 5053 H 477.62 -3.39127 1.88718 0
M  V30 5054 H 475.721 -3.68349 -0.561209 0
M  V30 5055 H 475.834 -4.67677 1.03995 0
M  V30 5056 H 474.198 -2.50548 0.458005 0
M  V30 5057 H 474.981 -2.7019 2.11784 0
M  V30 5058 N 477.426 -0.562348 -1.47226 0
M  V30 5059 C 478.356 0.170627 -2.32876 0
M  V30 5060 C 479.337 0.903748 -1.44106 0
M  V30 5061 O 480.522 0.883206 -1.72954 0
M  V30 5062 C 477.652 1.19786 -3.25989 0
M  V30 5063 C 476.606 0.580875 -4.2404 0
M  V30 5064 C 475.932 1.71311 -5.06514 0
M  V30 5065 C 477.232 -0.468714 -5.20193 0
M  V30 5066 H 478.926 -0.544441 -2.94408 0
M  V30 5067 H 476.472 -0.263271 -1.41573 0
M  V30 5068 H 478.425 1.71884 -3.84752 0
M  V30 5069 H 477.149 1.94294 -2.62521 0
M  V30 5070 H 475.808 0.0811538 -3.6651 0
M  V30 5071 H 475.456 2.44736 -4.39447 0
M  V30 5072 H 475.156 1.30604 -5.72902 0
M  V30 5073 H 476.68 2.23725 -5.68137 0
M  V30 5074 H 478.094 -0.0336028 -5.7329 0
M  V30 5075 H 476.491 -0.794957 -5.94811 0
M  V30 5076 H 477.561 -1.36269 -4.65359 0
M  V30 5077 N 478.904 1.54736 -0.299062 0
M  V30 5078 C 480.152 1.99706 0.31017 0
M  V30 5079 C 480.473 1.18896 1.54559 0
M  V30 5080 O 479.743 0.284445 1.93824 0
M  V30 5081 H 478.323 0.737686 0.117596 0
M  V30 5082 H 480.985 1.9054 -0.409943 0
M  V30 5083 H 480.081 3.06596 0.58355 0
M  V30 5084 N 480.382 0.0267497 1.57577 0
M  V30 5085 C 481.329 -0.955894 2.10075 0
M  V30 5086 C 482.299 -1.32453 1.00226 0
M  V30 5087 O 483.484 -1.41826 1.27632 0
M  V30 5088 C 480.624 -2.2338 2.6305 0
M  V30 5089 C 479.737 -1.92183 3.86898 0
M  V30 5090 C 478.872 -3.14251 4.28275 0
M  V30 5091 C 477.911 -2.78862 5.44888 0
M  V30 5092 N 477.048 -3.93548 5.81433 0
M  V30 5093 H 481.888 -0.501303 2.93753 0
M  V30 5094 H 479.425 -0.235847 1.45197 0
M  V30 5095 H 481.383 -2.98124 2.91853 0
M  V30 5096 H 480.013 -2.6646 1.82205 0
M  V30 5097 H 479.065 -1.07692 3.64838 0
M  V30 5098 H 480.377 -1.62117 4.7172 0
M  V30 5099 H 479.531 -3.97317 4.58502 0
M  V30 5100 H 478.27 -3.47476 3.42215 0
M  V30 5101 H 477.275 -1.94208 5.14357 0
M  V30 5102 H 478.5 -2.46855 6.32645 0
M  V30 5103 H 476.446 -4.2662 4.98328 0
M  V30 5104 H 476.363 -3.67098 6.6089 0
M  V30 5105 H 477.631 -4.77325 6.16264 0
M  V30 5106 N 481.861 -1.55662 -0.24637 0
M  V30 5107 C 482.793 -1.86811 -1.32794 0
M  V30 5108 C 483.806 -0.754413 -1.44265 0
M  V30 5109 O 484.995 -1.03253 -1.45606 0
M  V30 5110 C 482.095 -2.0397 -2.70646 0
M  V30 5111 C 481.268 -3.34832 -2.81436 0
M  V30 5112 C 480.327 -3.41727 -4.00136 0
M  V30 5113 O 479.353 -4.14934 -3.89639 0
M  V30 5114 N 480.555 -2.71058 -5.1333 0
M  V30 5115 H 483.32 -2.80174 -1.06409 0
M  V30 5116 H 480.881 -1.55906 -0.43647 0
M  V30 5117 H 482.873 -2.05924 -3.48393 0
M  V30 5118 H 481.443 -1.1735 -2.89738 0
M  V30 5119 H 480.663 -3.4519 -1.90361 0
M  V30 5120 H 481.951 -4.21085 -2.85595 0
M  V30 5121 H 481.349 -2.11314 -5.2475 0
M  V30 5122 H 479.906 -2.78704 -5.89209 0
M  V30 5123 N 483.339 0.512053 -1.4905 0
M  V30 5124 C 484.587 1.26436 -1.57665 0
M  V30 5125 C 484.908 1.93255 -0.260293 0
M  V30 5126 O 484.178 1.82206 0.719564 0
M  V30 5127 H 482.758 0.469658 -0.580888 0
M  V30 5128 H 485.42 0.594398 -1.85615 0
M  V30 5129 H 484.516 2.03417 -2.36702 0
M  V30 5130 N 484.817 1.37938 0.762283 0
M  V30 5131 C 486.047 1.36685 1.54922 0
M  V30 5132 C 486.455 -0.0474099 1.89141 0
M  V30 5133 O 485.798 -1.02213 1.52638 0
M  V30 5134 C 485.86 2.14963 2.88152 0
M  V30 5135 C 485.524 3.6385 2.76518 0
M  V30 5136 C 486.521 4.57531 2.46904 0
M  V30 5137 C 484.206 4.07095 2.94243 0
M  V30 5138 C 486.2 5.92436 2.35156 0
M  V30 5139 C 483.887 5.42083 2.82116 0
M  V30 5140 C 484.885 6.34567 2.52614 0
M  V30 5141 O 484.573 7.67073 2.40529 0
M  V30 5142 H 484.305 0.469586 0.486276 0
M  V30 5143 H 486.859 1.82012 0.951876 0
M  V30 5144 H 485.089 1.6434 3.50042 0
M  V30 5145 H 486.778 2.06224 3.49609 0
M  V30 5146 H 487.544 4.25428 2.32886 0
M  V30 5147 H 483.423 3.35462 3.16206 0
M  V30 5148 H 486.967 6.64591 2.12049 0
M  V30 5149 H 482.864 5.73785 2.95704 0
M  V30 5150 H 483.632 7.77499 2.55807 0
M  V30 5151 N 486.295 -0.989507 1.22664 0
M  V30 5152 C 487.227 -2.0824 0.957542 0
M  V30 5153 C 488.24 -1.6267 -0.0651098 0
M  V30 5154 O 489.429 -1.77695 0.169312 0
M  V30 5155 C 486.529 -3.36298 0.419145 0
M  V30 5156 C 485.702 -4.10882 1.49982 0
M  V30 5157 C 484.761 -5.17221 0.967904 0
M  V30 5158 O 483.787 -5.44613 1.65487 0
M  V30 5159 N 484.989 -5.80124 -0.20896 0
M  V30 5160 H 487.754 -2.31904 1.89843 0
M  V30 5161 H 485.315 -1.15552 1.13399 0
M  V30 5162 H 487.307 -4.04671 0.0485451 0
M  V30 5163 H 485.877 -3.09671 -0.426937 0
M  V30 5164 H 485.097 -3.37092 2.04359 0
M  V30 5165 H 486.385 -4.57482 2.22682 0
M  V30 5166 H 485.783 -5.60244 -0.783818 0
M  V30 5167 H 484.34 -6.49715 -0.520913 0
M  V30 5168 N 487.773 -1.03688 -1.18687 0
M  V30 5169 C 488.703 -0.645407 -2.24403 0
M  V30 5170 C 489.684 0.349511 -1.66471 0
M  V30 5171 O 490.869 0.230453 -1.92828 0
M  V30 5172 C 487.999 -0.00365337 -3.473 0
M  V30 5173 C 486.953 -0.921705 -4.17958 0
M  V30 5174 C 486.279 -0.144629 -5.34504 0
M  V30 5175 C 487.579 -2.23909 -4.71871 0
M  V30 5176 H 489.273 -1.52917 -2.57404 0
M  V30 5177 H 486.819 -0.736711 -1.23728 0
M  V30 5178 H 488.772 0.281908 -4.20456 0
M  V30 5179 H 487.496 0.914963 -3.13522 0
M  V30 5180 H 486.155 -1.19159 -3.46694 0
M  V30 5181 H 485.803 0.776274 -4.96974 0
M  V30 5182 H 485.503 -0.756206 -5.82714 0
M  V30 5183 H 487.027 0.134004 -6.10453 0
M  V30 5184 H 488.441 -2.0145 -5.36741 0
M  V30 5185 H 486.838 -2.8033 -5.30599 0
M  V30 5186 H 487.908 -2.88822 -3.895 0
M  V30 5187 N 489.251 1.34841 -0.815825 0
M  V30 5188 C 490.667 1.51543 -0.500697 0
M  V30 5189 C 490.867 1.76261 0.976444 0
M  V30 5190 O 489.923 1.8094 1.76117 0
M  V30 5191 C 491.236 2.68487 -1.35407 0
M  V30 5192 C 492.784 2.82368 -1.35046 0
M  V30 5193 C 493.259 4.02347 -2.18816 0
M  V30 5194 N 494.75 4.09542 -2.16402 0
M  V30 5195 C 495.485 5.01517 -2.77971 0
M  V30 5196 N 494.981 5.98763 -3.48503 0
M  V30 5197 N 496.774 4.94334 -2.67563 0
M  V30 5198 H 488.925 1.17055 -1.77234 0
M  V30 5199 H 491.188 0.573481 -0.754866 0
M  V30 5200 H 490.894 2.56829 -2.40274 0
M  V30 5201 H 490.768 3.63321 -1.01377 0
M  V30 5202 H 493.155 2.93471 -0.309604 0
M  V30 5203 H 493.236 1.88363 -1.73069 0
M  V30 5204 H 492.88 3.92004 -3.22948 0
M  V30 5205 H 492.81 4.95551 -1.78148 0
M  V30 5206 H 495.301 3.39932 -1.65091 0
M  V30 5207 H 495.614 6.6556 -3.92747 0
M  V30 5208 H 493.959 5.98909 -3.52609 0
M  V30 5209 H 497.15 4.1732 -2.12041 0
M  V30 5210 H 497.323 5.6582 -3.15834 0
M  V30 5211 N 490.729 0.570148 1.46925 0
M  V30 5212 C 491.661 -0.207909 2.28255 0
M  V30 5213 C 492.674 -0.867301 1.37774 0
M  V30 5214 O 493.863 -0.738976 1.62485 0
M  V30 5215 C 490.963 -1.31298 3.12433 0
M  V30 5216 C 490.136 -0.747915 4.30958 0
M  V30 5217 C 489.195 -1.7391 4.9663 0
M  V30 5218 O 488.221 -1.2801 5.54619 0
M  V30 5219 N 489.423 -3.07288 4.92498 0
M  V30 5220 H 492.188 0.489794 2.95671 0
M  V30 5221 H 489.749 0.407076 1.56699 0
M  V30 5222 H 491.741 -1.97507 3.53232 0
M  V30 5223 H 490.311 -1.91373 2.47175 0
M  V30 5224 H 489.531 0.0913066 3.94094 0
M  V30 5225 H 490.819 -0.349958 5.07595 0
M  V30 5226 H 490.217 -3.47213 4.46609 0
M  V30 5227 H 488.774 -3.69021 5.37277 0
M  V30 5228 N 492.207 -1.54576 0.307264 0
M  V30 5229 C 493.455 -1.99867 -0.299574 0
M  V30 5230 C 493.776 -1.19714 -1.53927 0
M  V30 5231 O 493.046 -0.29472 -1.9367 0
M  V30 5232 H 491.626 -0.738299 -0.113683 0
M  V30 5233 H 494.288 -1.9032 0.420042 0
M  V30 5234 H 493.384 -3.06901 -0.567283 0
M  V30 5235 N 493.685 -0.035106 -1.57561 0
M  V30 5236 C 494.962 0.681212 -1.83354 0
M  V30 5237 C 495.342 1.89986 -0.920252 0
M  V30 5238 O 494.69 2.28489 0.0226815 0
M  V30 5239 C 494.9 1.05376 -3.32712 0
M  V30 5240 C 496.248 1.44286 -3.99333 0
M  V30 5241 O 497.272 1.14656 -3.37242 0
M  V30 5242 O 496.131 1.99518 -5.08778 0
M  V30 5243 H 493.225 0.334741 -0.756226 0
M  V30 5244 H 495.771 -0.0632448 -1.69582 0
M  V30 5245 H 494.543 0.186668 -3.90854 0
M  V30 5246 H 494.166 1.85619 -3.51613 0
M  V30 5247 N 495.163 1.55791 0.238111 0
M  V30 5248 C 496.111 1.91885 1.31464 0
M  V30 5249 C 497.105 0.798929 1.49377 0
M  V30 5250 O 498.311 0.983626 1.50747 0
M  V30 5251 H 494.686 0.609551 0.440399 0
M  V30 5252 H 496.657 2.81747 0.982925 0
M  V30 5253 C 495.406 2.23763 2.6613 0
M  V30 5254 H 494.729 3.09444 2.53149 0
M  V30 5255 H 496.169 2.52915 3.40309 0
M  V30 5256 C 494.628 1.05699 3.1989 0
M  V30 5257 O 495.158 0.309524 4.00506 0
M  V30 5258 N 493.364 0.845251 2.78036 0
M  V30 5259 H 492.911 1.4548 2.12588 0
M  V30 5260 H 492.869 0.0569973 3.14348 0
M  V30 5261 N 496.642 -0.504142 1.49319 0
M  V30 5262 C 497.889 -1.25846 1.58647 0
M  V30 5263 C 498.217 -1.92592 0.27177 0
M  V30 5264 O 497.472 -1.81167 -0.74007 0
M  V30 5265 C 497.771 -2.35021 2.69258 0
M  V30 5266 C 497.437 -1.85755 4.1086 0
M  V30 5267 C 496.099 -1.72038 4.49395 0
M  V30 5268 C 498.451 -1.48844 4.99495 0
M  V30 5269 C 495.779 -1.19783 5.74342 0
M  V30 5270 C 498.131 -0.980422 6.24956 0
M  V30 5271 C 496.795 -0.829622 6.62324 0
M  V30 5272 H 496.065 -0.460505 0.580531 0
M  V30 5273 H 498.712 -0.559716 1.83138 0
M  V30 5274 H 497.017 -3.10672 2.38726 0
M  V30 5275 H 498.714 -2.93083 2.73685 0
M  V30 5276 H 495.304 -1.9739 3.80441 0
M  V30 5277 H 499.488 -1.5829 4.70381 0
M  V30 5278 H 494.744 -1.06817 6.01997 0
M  V30 5279 H 498.918 -0.685608 6.93017 0
M  V30 5280 H 496.545 -0.42253 7.59025 0
M  V30 5281 N 498.12 -1.38341 -0.754957 0
M  V30 5282 C 499.03 -1.3769 -1.89944 0
M  V30 5283 C 500.046 -0.274194 -1.71826 0
M  V30 5284 O 501.222 -0.512391 -1.94773 0
M  V30 5285 C 498.287 -1.19938 -3.25293 0
M  V30 5286 C 497.348 -2.40001 -3.55946 0
M  V30 5287 C 496.581 -2.23087 -4.84838 0
M  V30 5288 O 496.804 -1.22386 -5.57116 0
M  V30 5289 O 495.738 -3.11646 -5.14937 0
M  V30 5290 H 499.564 -2.3412 -1.93446 0
M  V30 5291 H 497.149 -1.19246 -0.900044 0
M  V30 5292 H 499.031 -1.12093 -4.06218 0
M  V30 5293 H 497.706 -0.265919 -3.22606 0
M  V30 5294 H 496.613 -2.53421 -2.75188 0
M  V30 5295 H 497.946 -3.31973 -3.63394 0
M  V30 5296 N 499.598 0.982988 -1.23187 0
M  V30 5297 C 500.844 1.72648 -1.06398 0
M  V30 5298 C 501.177 1.90066 0.398561 0
M  V30 5299 O 500.452 1.45105 1.29518 0
M  V30 5300 C 500.735 3.12627 -1.78707 0
M  V30 5301 C 500.588 3.02795 -3.32618 0
M  V30 5302 C 501.907 4.11997 -1.54747 0
M  V30 5303 H 499.026 0.626649 -0.387918 0
M  V30 5304 H 501.668 1.14455 -1.51658 0
M  V30 5305 H 499.818 3.62308 -1.40234 0
M  V30 5306 H 501.49 2.60659 -3.80598 0
M  V30 5307 H 499.733 2.39362 -3.61785 0
M  V30 5308 H 500.404 4.01893 -3.78399 0
M  V30 5309 H 502.88 3.71114 -1.88186 0
M  V30 5310 H 501.756 5.08037 -2.07821 0
M  V30 5311 H 502.017 4.39462 -0.482249 0
M  V30 5312 N 501.076 1.04316 1.18135 0
M  V30 5313 C 502.322 0.758899 1.88712 0
M  V30 5314 C 502.677 -0.705863 1.78984 0
M  V30 5315 O 501.97 -1.50874 1.18101 0
M  V30 5316 C 502.164 1.16271 3.37958 0
M  V30 5317 C 501.993 2.66518 3.62213 0
M  V30 5318 C 500.763 3.33702 3.79436 0
M  V30 5319 C 502.961 3.64739 3.62588 0
M  V30 5320 N 500.943 4.72904 3.91452 0
M  V30 5321 C 502.314 4.89627 3.80348 0
M  V30 5322 C 504.369 3.58333 3.4569 0
M  V30 5323 C 503.072 6.08879 3.8296 0
M  V30 5324 C 505.098 4.77016 3.49586 0
M  V30 5325 C 504.46 6.00724 3.67845 0
M  V30 5326 H 500.559 0.329795 0.709055 0
M  V30 5327 H 503.143 1.33334 1.4188 0
M  V30 5328 H 501.314 0.616319 3.83479 0
M  V30 5329 H 503.046 0.829205 3.96114 0
M  V30 5330 H 499.801 2.84105 3.78921 0
M  V30 5331 H 500.225 5.45258 4.01277 0
M  V30 5332 H 504.867 2.63663 3.30517 0
M  V30 5333 H 502.585 7.03903 3.96921 0
M  V30 5334 H 506.171 4.73703 3.37782 0
M  V30 5335 H 505.051 6.91022 3.70753 0
M  V30 5336 N 502.554 -1.34406 0.822964 0
M  V30 5337 C 503.464 -2.33298 0.246838 0
M  V30 5338 C 504.48 -1.62625 -0.618797 0
M  V30 5339 O 505.656 -1.94391 -0.526685 0
M  V30 5340 C 502.721 -3.41785 -0.581731 0
M  V30 5341 C 501.782 -4.28206 0.306309 0
M  V30 5342 C 501.015 -5.31512 -0.48281 0
M  V30 5343 O 501.238 -5.43973 -1.71607 0
M  V30 5344 O 500.172 -6.01749 0.134884 0
M  V30 5345 H 503.998 -2.84401 1.06534 0
M  V30 5346 H 501.583 -1.37466 0.585108 0
M  V30 5347 H 503.465 -4.08028 -1.05313 0
M  V30 5348 H 502.14 -2.92925 -1.37756 0
M  V30 5349 H 501.047 -3.64885 0.825199 0
M  V30 5350 H 502.38 -4.80507 1.06649 0
M  V30 5351 N 504.032 -0.577932 -1.46621 0
M  V30 5352 C 505.448 -0.239242 -1.57797 0
M  V30 5353 C 505.648 1.25843 -1.57371 0
M  V30 5354 O 504.704 2.03988 -1.48813 0
M  V30 5355 C 506.017 -0.884227 -2.87405 0
M  V30 5356 C 507.565 -0.857373 -3.01028 0
M  V30 5357 C 508.04 -1.48181 -4.33366 0
M  V30 5358 N 509.531 -1.44593 -4.40053 0
M  V30 5359 C 510.266 -1.89852 -5.41058 0
M  V30 5360 N 509.762 -2.43062 -6.48762 0
M  V30 5361 N 511.555 -1.80797 -5.3223 0
M  V30 5362 H 503.706 -1.55073 -1.45142 0
M  V30 5363 H 505.969 -0.647903 -0.692044 0
M  V30 5364 H 505.675 -1.93759 -2.93514 0
M  V30 5365 H 505.549 -0.389585 -3.75183 0
M  V30 5366 H 507.936 0.187357 -2.94505 0
M  V30 5367 H 508.017 -1.38999 -2.14739 0
M  V30 5368 H 507.661 -2.52572 -4.40647 0
M  V30 5369 H 507.591 -0.924464 -5.18422 0
M  V30 5370 H 510.082 -1.05694 -3.62819 0
M  V30 5371 H 510.395 -2.75466 -7.22038 0
M  V30 5372 H 508.74 -2.47085 -6.49595 0
M  V30 5373 H 511.931 -1.38989 -4.46989 0
M  V30 5374 H 512.104 -2.16385 -6.10804 0
M  V30 5375 N 505.51 1.54411 -0.315457 0
M  V30 5376 C 506.921 1.85885 0.174265 0
M  V30 5377 C 507.272 1.23723 1.52273 0
M  V30 5378 O 506.397 0.540246 2.09548 0
M  V30 5379 C 506.992 3.37257 0.322981 0
M  V30 5380 C 505.551 3.68711 0.756922 0
M  V30 5381 C 504.698 2.77013 -0.126195 0
M  V30 5382 H 507.649 1.49374 -0.536007 0
M  V30 5383 H 507.67 3.62539 1.15522 0
M  V30 5384 H 507.182 3.82471 -0.658602 0
M  V30 5385 H 505.283 3.29024 1.74854 0
M  V30 5386 H 505.396 4.75741 0.566291 0
M  V30 5387 H 503.76 2.51588 0.39692 0
M  V30 5388 H 504.543 3.25051 -1.1044 0
M  V30 5389 N 506.988 0.0434614 1.5754 0
M  V30 5390 C 507.918 -0.931651 2.14109 0
M  V30 5391 C 508.899 -1.32971 1.06079 0
M  V30 5392 O 510.084 -1.40579 1.33982 0
M  V30 5393 C 507.214 -2.20914 2.67982 0
M  V30 5394 C 506.168 -1.95139 3.80926 0
M  V30 5395 C 505.494 -3.29276 4.21285 0
M  V30 5396 C 506.794 -1.27913 5.06395 0
M  V30 5397 H 508.488 -0.460497 2.95837 0
M  V30 5398 H 506.034 -0.220058 1.42309 0
M  V30 5399 H 507.987 -2.89522 3.06194 0
M  V30 5400 H 506.711 -2.70221 1.83434 0
M  V30 5401 H 505.37 -1.28945 3.43175 0
M  V30 5402 H 505.018 -3.76369 3.33699 0
M  V30 5403 H 504.718 -3.12831 4.97404 0
M  V30 5404 H 506.242 -3.99129 4.62091 0
M  V30 5405 H 507.656 -1.86544 5.42102 0
M  V30 5406 H 506.053 -1.2182 5.87605 0
M  V30 5407 H 507.123 -0.254066 4.84234 0
M  V30 5408 N 508.466 -1.55915 -0.229846 0
M  V30 5409 C 509.691 -1.8296 -0.976743 0
M  V30 5410 C 510.116 -0.622735 -1.77493 0
M  V30 5411 O 509.474 0.428431 -1.76165 0
M  V30 5412 C 509.522 -3.07916 -1.8767 0
M  V30 5413 O 508.626 -2.86028 -2.97088 0
M  V30 5414 H 507.967 -0.603453 -0.277021 0
M  V30 5415 H 510.497 -2.0312 -0.245669 0
M  V30 5416 H 510.507 -3.37802 -2.2881 0
M  V30 5417 H 509.182 -3.95389 -1.28996 0
M  V30 5418 H 507.759 -2.67355 -2.59954 0
M  V30 5419 N 509.944 0.496216 -1.49584 0
M  V30 5420 C 511.192 1.24756 -1.58998 0
M  V30 5421 C 511.513 1.92968 -0.280775 0
M  V30 5422 O 510.783 1.82959 0.700198 0
M  V30 5423 H 509.363 0.463471 -0.585836 0
M  V30 5424 H 512.025 0.574678 -1.86235 0
M  V30 5425 H 511.121 2.00895 -2.38847 0
M  V30 5426 N 511.423 1.38739 0.74761 0
M  V30 5427 C 512.353 1.39173 1.87492 0
M  V30 5428 C 513.334 0.256794 1.6815 0
M  V30 5429 O 514.519 0.460762 1.88655 0
M  V30 5430 C 511.649 1.22197 3.25093 0
M  V30 5431 C 510.603 2.32957 3.59047 0
M  V30 5432 C 509.929 2.01082 4.95449 0
M  V30 5433 C 511.229 3.75237 3.6331 0
M  V30 5434 H 512.923 2.3351 1.87386 0
M  V30 5435 H 510.469 1.12399 0.900134 0
M  V30 5436 H 512.422 1.21124 4.03617 0
M  V30 5437 H 511.146 0.243241 3.25693 0
M  V30 5438 H 509.805 2.33226 2.82845 0
M  V30 5439 H 509.453 1.01678 4.92616 0
M  V30 5440 H 509.153 2.75267 5.19136 0
M  V30 5441 H 510.677 2.01638 5.76346 0
M  V30 5442 H 512.091 3.76966 4.31937 0
M  V30 5443 H 510.488 4.48677 3.98509 0
M  V30 5444 H 511.558 4.07122 2.634 0
M  V30 5445 N 512.901 -0.976442 1.23707 0
M  V30 5446 C 513.864 -2.0511 1.02287 0
M  V30 5447 C 514.864 -1.60791 -0.0167195 0
M  V30 5448 O 516.054 -1.72761 0.223408 0
M  V30 5449 C 513.186 -3.36458 0.548507 0
M  V30 5450 H 514.379 -2.25545 1.9766 0
M  V30 5451 H 511.932 -1.15042 1.05806 0
M  V30 5452 H 512.667 -3.21713 -0.408818 0
M  V30 5453 H 512.452 -3.69967 1.29874 0
M  V30 5454 H 513.942 -4.15489 0.419406 0
M  V30 5455 N 514.379 -1.04941 -1.1758 0
M  V30 5456 C 515.625 -0.768896 -1.88307 0
M  V30 5457 C 515.98 0.696361 -1.79356 0
M  V30 5458 O 515.273 1.50245 -1.18899 0
M  V30 5459 C 515.467 -1.18062 -3.37337 0
M  V30 5460 C 515.296 -2.68436 -3.60794 0
M  V30 5461 C 514.066 -3.35709 -3.77661 0
M  V30 5462 C 516.264 -3.66657 -3.60649 0
M  V30 5463 N 514.246 -4.74974 -3.88939 0
M  V30 5464 C 515.617 -4.91638 -3.77747 0
M  V30 5465 C 517.672 -3.60162 -3.43785 0
M  V30 5466 C 516.375 -6.10902 -3.79726 0
M  V30 5467 C 518.401 -4.78863 -3.47051 0
M  V30 5468 C 517.763 -6.02666 -3.64654 0
M  V30 5469 H 513.862 -0.33355 -0.707296 0
M  V30 5470 H 516.446 -1.34085 -1.41171 0
M  V30 5471 H 514.617 -0.636648 -3.83147 0
M  V30 5472 H 516.349 -0.8502 -3.95669 0
M  V30 5473 H 513.104 -2.8611 -3.77409 0
M  V30 5474 H 513.528 -5.47378 -3.98379 0
M  V30 5475 H 518.17 -2.65412 -3.29114 0
M  V30 5476 H 515.888 -7.05998 -3.93182 0
M  V30 5477 H 519.474 -4.75488 -3.35265 0
M  V30 5478 H 518.354 -6.92979 -3.67083 0
M  V30 5479 N 515.857 1.33968 -0.830081 0
M  V30 5480 C 516.82 2.27694 -0.26235 0
M  V30 5481 C 517.82 1.50589 0.563876 0
M  V30 5482 O 519.01 1.70028 0.378941 0
M  V30 5483 C 516.142 3.35002 0.63138 0
M  V30 5484 H 517.335 2.79419 -1.08928 0
M  V30 5485 H 514.888 1.44221 -0.602486 0
M  V30 5486 H 515.623 2.88504 1.48109 0
M  V30 5487 H 515.408 3.92079 0.0403276 0
M  V30 5488 H 516.898 4.04897 1.02217 0
M  V30 5489 N 517.335 0.585699 1.46312 0
M  V30 5490 C 518.581 0.0725284 2.0267 0
M  V30 5491 C 518.914 -1.28523 1.45586 0
M  V30 5492 O 518.189 -1.84283 0.622101 0
M  V30 5493 C 518.472 0.0099788 3.60099 0
M  V30 5494 C 518.325 1.39685 4.27561 0
M  V30 5495 C 519.644 -0.689117 4.34671 0
M  V30 5496 H 516.763 0.0278307 0.736474 0
M  V30 5497 H 519.405 0.753472 1.74421 0
M  V30 5498 H 517.555 -0.56992 3.84297 0
M  V30 5499 H 519.227 2.02215 4.14617 0
M  V30 5500 H 517.47 1.96374 3.86807 0
M  V30 5501 H 518.141 1.30553 5.36339 0
M  V30 5502 H 520.617 -0.196446 4.15636 0
M  V30 5503 H 519.493 -0.701921 5.44393 0
M  V30 5504 H 519.754 -1.75101 4.05946 0
M  V30 5505 N 518.813 -1.54241 0.323641 0
M  V30 5506 C 519.776 -2.22997 -0.529602 0
M  V30 5507 C 520.776 -1.22345 -1.04347 0
M  V30 5508 O 521.966 -1.46924 -0.935889 0
M  V30 5509 C 519.098 -2.93409 -1.73562 0
M  V30 5510 H 520.291 -2.99815 0.0714518 0
M  V30 5511 H 517.844 -1.56121 0.0747258 0
M  V30 5512 H 518.579 -2.20729 -2.37591 0
M  V30 5513 H 518.364 -3.67217 -1.37456 0
M  V30 5514 H 519.854 -3.45794 -2.34128 0
M  V30 5515 N 520.291 -0.0518155 -1.57515 0
M  V30 5516 C 521.224 0.957758 -2.07129 0
M  V30 5517 C 522.202 1.30355 -0.971927 0
M  V30 5518 O 523.386 1.41631 -1.2439 0
M  V30 5519 C 520.513 2.27157 -2.51232 0
M  V30 5520 C 519.559 2.07879 -3.72409 0
M  V30 5521 S 520.392 1.35656 -5.18033 0
M  V30 5522 C 521.548 2.68359 -5.65451 0
M  V30 5523 H 521.781 0.53552 -2.92437 0
M  V30 5524 H 519.314 0.160465 -1.53564 0
M  V30 5525 H 521.272 3.02676 -2.77304 0
M  V30 5526 H 519.933 2.66509 -1.66228 0
M  V30 5527 H 519.126 3.05061 -4.01191 0
M  V30 5528 H 518.728 1.40499 -3.46606 0
M  V30 5529 H 521.02 3.64526 -5.71076 0
M  V30 5530 H 521.963 2.44213 -6.64654 0
M  V30 5531 H 522.371 2.74647 -4.93183 0
M  V30 5532 N 521.769 1.56035 0.221574 0
M  V30 5533 C 523.018 1.78245 0.944016 0
M  V30 5534 C 523.331 0.620371 1.85501 0
M  V30 5535 O 524.537 0.726103 2.6161 0
M  V30 5536 C 522.993 3.15659 1.7288 0
M  V30 5537 C 522.601 4.39591 0.863942 0
M  V30 5538 C 524.345 3.47195 2.44246 0
M  V30 5539 C 522.252 5.6803 1.64607 0
M  V30 5540 H 521.182 0.664547 0.356222 0
M  V30 5541 H 523.833 1.8243 0.197904 0
M  V30 5542 H 522.215 3.0565 2.51781 0
M  V30 5543 H 523.389 4.60655 0.115464 0
M  V30 5544 H 521.704 4.15572 0.262407 0
M  V30 5545 H 524.301 4.40381 3.03263 0
M  V30 5546 H 524.644 2.69693 3.1713 0
M  V30 5547 H 525.177 3.58533 1.72334 0
M  V30 5548 H 521.916 6.48425 0.960507 0
M  V30 5549 H 521.436 5.51027 2.36917 0
M  V30 5550 H 523.115 6.08203 2.20675 0
M  V30 5551 N 523.247 -0.488276 1.49845 0
M  V30 5552 C 524.195 -1.60917 1.67954 0
M  V30 5553 C 525.189 -1.6038 0.54539 0
M  V30 5554 O 526.395 -1.64736 0.7254 0
M  V30 5555 H 522.77 -0.533658 0.529824 0
M  V30 5556 H 524.741 -1.428 2.62013 0
M  V30 5557 C 523.49 -2.98975 1.77509 0
M  V30 5558 H 522.813 -3.00099 2.6416 0
M  V30 5559 H 524.253 -3.76906 1.9421 0
M  V30 5560 C 522.712 -3.3282 0.522745 0
M  V30 5561 O 523.242 -4.00208 -0.345866 0
M  V30 5562 N 521.448 -2.8808 0.381882 0
M  V30 5563 H 520.995 -2.33415 1.08974 0
M  V30 5564 H 520.953 -3.11091 -0.454929 0
M  V30 5565 N 524.725 -1.39134 -0.740242 0
M  V30 5566 C 526.141 -1.20623 -1.0451 0
M  V30 5567 C 526.341 -0.0641651 -2.01398 0
M  V30 5568 O 525.397 0.585843 -2.4561 0
M  V30 5569 C 526.71 -2.53815 -1.6124 0
M  V30 5570 C 528.258 -2.60615 -1.73346 0
M  V30 5571 C 528.733 -3.94015 -2.33486 0
M  V30 5572 N 530.224 -3.95627 -2.40902 0
M  V30 5573 C 530.959 -4.95616 -2.88361 0
M  V30 5574 N 530.455 -6.06003 -3.35756 0
M  V30 5575 N 532.248 -4.82998 -2.87523 0
M  V30 5576 H 524.399 -2.12176 -0.0975576 0
M  V30 5577 H 526.662 -0.942066 -0.105904 0
M  V30 5578 H 526.368 -3.37911 -0.975144 0
M  V30 5579 H 526.242 -2.73162 -2.6012 0
M  V30 5580 H 528.629 -1.76906 -2.36195 0
M  V30 5581 H 528.71 -2.45123 -0.731336 0
M  V30 5582 H 528.354 -4.78153 -1.71267 0
M  V30 5583 H 528.284 -4.06825 -3.34366 0
M  V30 5584 H 530.775 -3.15903 -2.07398 0
M  V30 5585 H 531.088 -6.78215 -3.70464 0
M  V30 5586 H 529.433 -6.09604 -3.33778 0
M  V30 5587 H 532.624 -3.95866 -2.49816 0
M  V30 5588 H 532.797 -5.61072 -3.24196 0
M  V30 5589 N 526.204 0.969867 -1.24223 0
M  V30 5590 C 527.136 2.0669 -0.99055 0
M  V30 5591 C 528.149 1.62753 0.0392222 0
M  V30 5592 O 529.338 1.77403 -0.197561 0
M  V30 5593 C 526.438 3.35589 -0.472594 0
M  V30 5594 C 525.611 4.08444 -1.56499 0
M  V30 5595 C 524.67 5.15616 -1.05007 0
M  V30 5596 O 523.696 5.41911 -1.7413 0
M  V30 5597 N 524.898 5.80383 0.116641 0
M  V30 5598 H 527.663 2.28855 -1.93508 0
M  V30 5599 H 525.224 1.13733 -1.15223 0
M  V30 5600 H 527.216 4.04542 -0.112919 0
M  V30 5601 H 525.786 3.10311 0.377617 0
M  V30 5602 H 525.006 3.33798 -2.09696 0
M  V30 5603 H 526.294 4.53882 -2.29932 0
M  V30 5604 H 525.692 5.6142 0.694589 0
M  V30 5605 H 524.249 6.50462 0.417483 0
M  V30 5606 N 527.682 1.05563 1.17022 0
M  V30 5607 C 528.592 0.670758 2.24807 0
M  V30 5608 C 529.608 -0.309865 1.71219 0
M  V30 5609 O 530.784 -0.161025 2.00755 0
M  V30 5610 C 527.849 0.055337 3.46656 0
M  V30 5611 C 526.91 1.08688 4.15314 0
M  V30 5612 C 526.143 0.500736 5.31346 0
M  V30 5613 O 526.366 -0.688718 5.66227 0
M  V30 5614 O 525.3 1.23683 5.89055 0
M  V30 5615 H 529.126 1.56914 2.60023 0
M  V30 5616 H 526.711 0.827428 1.24395 0
M  V30 5617 H 528.593 -0.286492 4.20425 0
M  V30 5618 H 527.268 -0.816638 3.13229 0
M  V30 5619 H 526.175 1.48077 3.43546 0
M  V30 5620 H 527.508 1.93014 4.52777 0
M  V30 5621 N 529.16 -1.33526 0.837174 0
M  V30 5622 C 530.409 -1.97098 0.428387 0
M  V30 5623 C 530.722 -1.67062 -1.01734 0
M  V30 5624 O 531.928 -2.24235 -1.53072 0
M  V30 5625 C 530.384 -3.52725 0.715075 0
M  V30 5626 C 529.992 -3.9164 2.17537 0
M  V30 5627 C 531.736 -4.22857 0.373154 0
M  V30 5628 C 529.643 -5.40237 2.40619 0
M  V30 5629 H 528.573 -0.737589 0.156455 0
M  V30 5630 H 531.224 -1.52169 1.02552 0
M  V30 5631 H 529.606 -3.95971 0.0475904 0
M  V30 5632 H 530.78 -3.59456 2.88319 0
M  V30 5633 H 529.095 -3.34485 2.4801 0
M  V30 5634 H 531.692 -5.32133 0.523264 0
M  V30 5635 H 532.035 -4.10647 -0.683708 0
M  V30 5636 H 532.568 -3.85135 0.995801 0
M  V30 5637 H 529.307 -5.57449 3.44864 0
M  V30 5638 H 528.827 -5.73887 1.74396 0
M  V30 5639 H 530.506 -6.07102 2.23688 0
M  V30 5640 N 530.638 -0.59345 -1.46 0
M  V30 5641 C 531.886 -0.082988 -2.0193 0
M  V30 5642 C 532.207 1.28569 -1.46612 0
M  V30 5643 O 531.477 1.84629 -0.654909 0
M  V30 5644 H 530.057 -0.0276882 -0.746487 0
M  V30 5645 H 532.719 -0.771657 -1.78973 0
M  V30 5646 H 531.815 -0.022079 -3.12092 0
M  V30 5647 N 532.116 1.54067 -0.331816 0
M  V30 5648 C 533.364 2.00319 0.267739 0
M  V30 5649 C 533.685 1.22148 1.52003 0
M  V30 5650 O 532.955 0.325494 1.93177 0
M  V30 5651 H 531.535 0.740014 0.101922 0
M  V30 5652 H 534.197 1.89628 -0.450267 0
M  V30 5653 H 533.293 3.07765 0.518385 0
M  V30 5654 N 533.594 0.0601682 1.57485 0
M  V30 5655 C 535.005 -0.474217 1.80577 0
M  V30 5656 C 535.356 -1.70365 0.973147 0
M  V30 5657 O 534.481 -2.15544 0.192306 0
M  V30 5658 C 535.076 -0.867102 3.27516 0
M  V30 5659 C 533.635 -1.34642 3.51495 0
M  V30 5660 C 532.782 -0.32594 2.75378 0
M  V30 5661 H 535.733 0.285973 1.56102 0
M  V30 5662 H 535.754 -1.72938 3.38929 0
M  V30 5663 H 535.266 0.0278927 3.8809 0
M  V30 5664 H 533.367 -2.2603 2.96212 0
M  V30 5665 H 533.48 -1.33237 4.60201 0
M  V30 5666 H 531.844 -0.800749 2.41785 0
M  V30 5667 H 532.627 0.561125 3.38683 0
M  V30 5668 N 535.072 -1.5615 -0.213296 0
M  V30 5669 C 536.488 -1.49327 -0.56336 0
M  V30 5670 C 536.688 -0.756826 -1.86747 0
M  V30 5671 O 535.744 -0.299866 -2.50713 0
M  V30 5672 C 537.057 -2.9392 -0.634944 0
M  V30 5673 C 538.605 -3.04487 -0.725013 0
M  V30 5674 C 539.08 -4.50456 -0.82787 0
M  V30 5675 N 540.571 -4.54533 -0.891876 0
M  V30 5676 C 541.306 -5.64766 -0.991315 0
M  V30 5677 N 540.802 -6.84733 -1.05419 0
M  V30 5678 N 542.595 -5.52637 -1.02709 0
M  V30 5679 H 534.746 -2.02453 0.642366 0
M  V30 5680 H 537.009 -0.920548 0.226487 0
M  V30 5681 H 536.715 -3.50783 0.253859 0
M  V30 5682 H 536.589 -3.46274 -1.49579 0
M  V30 5683 H 538.976 -2.47685 -1.60425 0
M  V30 5684 H 539.057 -2.55289 0.161669 0
M  V30 5685 H 538.701 -5.07878 0.0469464 0
M  V30 5686 H 538.631 -4.97369 -1.73009 0
M  V30 5687 H 541.122 -3.68141 -0.85327 0
M  V30 5688 H 541.435 -7.64493 -1.13007 0
M  V30 5689 H 539.78 -6.87427 -1.02318 0
M  V30 5690 H 542.971 -4.5784 -0.974687 0
M  V30 5691 H 543.144 -6.38576 -1.10113 0
M  V30 5692 N 536.55 0.480323 -1.50102 0
M  V30 5693 C 537.775 1.26126 -1.64642 0
M  V30 5694 C 538.2 1.85257 -0.325823 0
M  V30 5695 O 537.558 1.66854 0.709194 0
M  V30 5696 C 537.606 2.35243 -2.73301 0
M  V30 5697 O 536.71 3.39646 -2.33911 0
M  V30 5698 H 536.051 0.371463 -0.550374 0
M  V30 5699 H 538.581 0.572696 -1.96421 0
M  V30 5700 H 538.591 2.80695 -2.96098 0
M  V30 5701 H 537.266 1.91574 -3.6915 0
M  V30 5702 H 535.843 2.99969 -2.21525 0
M  V30 5703 N 538.028 1.39524 0.732853 0
M  V30 5704 C 539.258 1.3994 1.51988 0
M  V30 5705 C 539.666 -0.00727973 1.89199 0
M  V30 5706 O 539.009 -0.989521 1.54771 0
M  V30 5707 C 539.071 2.21026 2.83527 0
M  V30 5708 C 538.735 3.69633 2.68738 0
M  V30 5709 C 539.732 4.62665 2.37143 0
M  V30 5710 C 537.417 4.13244 2.85542 0
M  V30 5711 C 539.411 5.97291 2.22536 0
M  V30 5712 C 537.098 5.47945 2.70554 0
M  V30 5713 C 538.096 6.39783 2.39097 0
M  V30 5714 O 537.784 7.72002 2.24204 0
M  V30 5715 H 537.516 0.479795 0.476206 0
M  V30 5716 H 540.07 1.8399 0.913054 0
M  V30 5717 H 538.3 1.71728 3.46477 0
M  V30 5718 H 539.989 2.13594 3.45156 0
M  V30 5719 H 540.755 4.30272 2.2381 0
M  V30 5720 H 536.634 3.42094 3.09019 0
M  V30 5721 H 540.178 6.68939 1.97905 0
M  V30 5722 H 536.075 5.79928 2.83466 0
M  V30 5723 H 536.843 7.8275 2.39258 0
M  V30 5724 N 539.506 -0.963266 1.24736 0
M  V30 5725 C 540.734 -1.74166 1.11686 0
M  V30 5726 C 541.149 -1.8589 -0.330187 0
M  V30 5727 O 540.506 -1.35042 -1.2276 0
M  V30 5728 C 540.557 -3.15989 1.75595 0
M  V30 5729 O 540.278 -3.04847 3.14642 0
M  V30 5730 C 541.779 -4.10145 1.68213 0
M  V30 5731 H 538.999 -0.546031 0.389989 0
M  V30 5732 H 541.543 -1.20907 1.64929 0
M  V30 5733 H 539.698 -3.66219 1.26343 0
M  V30 5734 H 540.112 -3.9425 3.4593 0
M  V30 5735 H 541.586 -5.07299 2.17604 0
M  V30 5736 H 542.063 -4.3445 0.644208 0
M  V30 5737 H 542.669 -3.65827 2.16912 0
M  V30 5738 N 540.985 -1.06182 -1.16461 0
M  V30 5739 C 542.234 -0.772927 -1.86303 0
M  V30 5740 C 542.547 0.703187 -1.82523 0
M  V30 5741 O 543.753 1.10641 -2.47933 0
M  V30 5742 C 542.209 -1.33249 -3.34324 0
M  V30 5743 C 541.817 -2.83876 -3.46581 0
M  V30 5744 C 543.561 -1.12108 -4.09429 0
M  V30 5745 C 541.468 -3.33082 -4.88682 0
M  V30 5746 H 540.398 -0.285452 -0.697878 0
M  V30 5747 H 543.049 -1.28039 -1.31447 0
M  V30 5748 H 541.431 -0.7528 -3.88779 0
M  V30 5749 H 542.605 -3.47786 -3.02293 0
M  V30 5750 H 540.92 -3.03671 -2.84909 0
M  V30 5751 H 543.517 -1.46361 -5.14279 0
M  V30 5752 H 543.86 -0.0593832 -4.16258 0
M  V30 5753 H 544.393 -1.6665 -3.6121 0
M  V30 5754 H 541.132 -4.38726 -4.87032 0
M  V30 5755 H 540.652 -2.73919 -5.33599 0
M  V30 5756 H 542.331 -3.28344 -5.57494 0
M  V30 5757 N 542.463 1.3308 -0.844243 0
M  V30 5758 C 543.426 2.27403 -0.286485 0
M  V30 5759 C 544.426 1.51179 0.547872 0
M  V30 5760 O 545.616 1.70421 0.360886 0
M  V30 5761 C 542.748 3.35653 0.595813 0
M  V30 5762 H 543.941 2.78248 -1.11885 0
M  V30 5763 H 541.494 1.43574 -0.617749 0
M  V30 5764 H 542.229 2.90058 1.4504 0
M  V30 5765 H 542.014 3.921 -0.00125994 0
M  V30 5766 H 543.504 4.05958 0.979168 0
M  V30 5767 N 543.941 0.601185 1.45683 0
M  V30 5768 C 545.187 0.0940202 2.02582 0
M  V30 5769 C 545.52 -1.26972 1.46941 0
M  V30 5770 O 544.795 -1.83613 0.641612 0
M  V30 5771 C 545.078 0.0481715 3.60068 0
M  V30 5772 C 544.931 1.44212 4.26055 0
M  V30 5773 C 546.25 -0.642975 4.35378 0
M  V30 5774 H 543.369 0.0356404 0.736138 0
M  V30 5775 H 546.011 0.771929 1.73612 0
M  V30 5776 H 544.161 -0.529128 3.8488 0
M  V30 5777 H 545.833 2.06601 4.12449 0
M  V30 5778 H 544.076 2.00465 3.84703 0
M  V30 5779 H 544.747 1.36234 5.34925 0
M  V30 5780 H 547.223 -0.152351 4.15821 0
M  V30 5781 H 546.099 -0.644141 5.45107 0
M  V30 5782 H 546.36 -1.70785 4.0778 0
M  V30 5783 N 545.419 -1.53889 0.339982 0
M  V30 5784 C 546.382 -2.23547 -0.50592 0
M  V30 5785 C 547.382 -1.23445 -1.03044 0
M  V30 5786 O 548.572 -1.47909 -0.920253 0
M  V30 5787 C 545.704 -2.95234 -1.7044 0
M  V30 5788 H 546.897 -2.99722 0.103247 0
M  V30 5789 H 544.45 -1.56033 0.0912804 0
M  V30 5790 H 545.185 -2.23236 -2.35236 0
M  V30 5791 H 544.97 -3.68654 -1.33553 0
M  V30 5792 H 546.46 -3.48258 -2.30447 0
M  V30 5793 N 546.897 -0.0685191 -1.57451 0
M  V30 5794 C 548.122 0.613919 -1.98106 0
M  V30 5795 C 548.547 1.62551 -0.946501 0
M  V30 5796 O 547.905 1.81085 0.0882824 0
M  V30 5797 C 547.953 1.26189 -3.378 0
M  V30 5798 O 547.057 2.37773 -3.36954 0
M  V30 5799 H 546.398 0.158163 -0.644888 0
M  V30 5800 H 548.928 -0.142063 -2.04106 0
M  V30 5801 H 548.938 1.60951 -3.74912 0
M  V30 5802 H 547.613 0.520625 -4.12629 0
M  V30 5803 H 546.19 2.04829 -3.11608 0
M  V30 5804 N 548.375 1.56261 0.205012 0
M  V30 5805 C 549.305 1.96779 1.257 0
M  V30 5806 C 550.286 0.838309 1.48008 0
M  V30 5807 O 551.471 1.10189 1.59913 0
M  V30 5808 C 548.601 2.29876 2.60335 0
M  V30 5809 C 547.555 3.45469 2.52656 0
M  V30 5810 C 546.881 3.64215 3.91473 0
M  V30 5811 C 548.181 4.79954 2.06014 0
M  V30 5812 H 549.875 2.84904 0.920338 0
M  V30 5813 H 547.421 1.37072 0.441277 0
M  V30 5814 H 549.374 2.56814 3.34102 0
M  V30 5815 H 548.098 1.38622 2.95722 0
M  V30 5816 H 546.757 3.18605 1.81345 0
M  V30 5817 H 546.405 2.70309 4.24196 0
M  V30 5818 H 546.105 4.41973 3.87213 0
M  V30 5819 H 547.629 3.93519 4.66878 0
M  V30 5820 H 549.043 5.05989 2.69533 0
M  V30 5821 H 547.44 5.61111 2.12777 0
M  V30 5822 H 548.51 4.74201 1.01297 0
M  V30 5823 N 549.853 -0.472356 1.50355 0
M  V30 5824 C 551.101 -1.22211 1.60962 0
M  V30 5825 C 551.422 -1.92497 0.311439 0
M  V30 5826 O 550.692 -1.8405 -0.671002 0
M  V30 5827 H 549.272 -0.454092 0.593135 0
M  V30 5828 H 551.934 -0.544977 1.87126 0
M  V30 5829 H 551.03 -1.9707 2.42012 0
M  V30 5830 N 551.331 -1.39911 -0.725443 0
M  V30 5831 C 552.278 -1.39393 -1.83952 0
M  V30 5832 C 553.248 -0.252249 -1.64173 0
M  V30 5833 O 554.433 -0.44882 -1.85446 0
M  V30 5834 C 551.573 -1.25262 -3.21564 0
M  V30 5835 C 550.686 -2.49054 -3.52982 0
M  V30 5836 C 549.821 -2.27439 -4.80047 0
M  V30 5837 C 548.86 -3.46857 -5.04338 0
M  V30 5838 N 547.997 -3.24499 -6.22611 0
M  V30 5839 H 552.837 -2.34622 -1.83729 0
M  V30 5840 H 550.374 -1.16537 -0.897636 0
M  V30 5841 H 552.332 -1.15077 -4.01015 0
M  V30 5842 H 550.962 -0.33657 -3.21041 0
M  V30 5843 H 550.014 -2.69805 -2.6816 0
M  V30 5844 H 551.326 -3.37973 -3.66846 0
M  V30 5845 H 550.48 -2.14551 -5.67497 0
M  V30 5846 H 549.219 -1.35929 -4.68374 0
M  V30 5847 H 548.224 -3.60232 -4.15346 0
M  V30 5848 H 549.449 -4.3928 -5.17889 0
M  V30 5849 H 547.395 -2.35663 -6.12208 0
M  V30 5850 H 547.312 -4.06978 -6.37106 0
M  V30 5851 H 548.58 -3.15325 -7.12875 0
M  V30 5852 N 552.809 0.956637 -1.25245 0
M  V30 5853 C 554.057 1.69764 -1.09657 0
M  V30 5854 C 554.378 1.91583 0.363464 0
M  V30 5855 O 553.648 1.50149 1.25825 0
M  V30 5856 H 552.228 0.629097 -0.402798 0
M  V30 5857 H 554.89 1.15026 -1.57337 0
M  V30 5858 H 553.986 2.67769 -1.60331 0
M  V30 5859 N 554.287 1.06798 1.15896 0
M  V30 5860 C 555.533 0.788934 1.86825 0
M  V30 5861 C 555.866 -0.683084 1.8179 0
M  V30 5862 O 555.141 -1.50086 1.23711 0
M  V30 5863 C 555.424 1.29065 3.36176 0
M  V30 5864 C 555.277 2.8268 3.49874 0
M  V30 5865 C 556.596 0.902655 4.30744 0
M  V30 5866 H 553.715 0.288066 0.678371 0
M  V30 5867 H 556.357 1.32479 1.36195 0
M  V30 5868 H 554.507 0.834806 3.79425 0
M  V30 5869 H 556.179 3.36511 3.15528 0
M  V30 5870 H 554.422 3.21157 2.91617 0
M  V30 5871 H 555.093 3.12852 4.54783 0
M  V30 5872 H 557.569 1.29535 3.95424 0
M  V30 5873 H 556.445 1.28111 5.3374 0
M  V30 5874 H 556.706 -0.191951 4.41683 0
M  V30 5875 N 555.766 -1.3263 0.851289 0
M  V30 5876 C 556.729 -2.27247 0.298541 0
M  V30 5877 C 557.729 -1.51467 -0.539847 0
M  V30 5878 O 558.919 -1.7061 -0.351843 0
M  V30 5879 C 556.051 -3.35964 -0.578004 0
M  V30 5880 H 557.244 -2.7765 1.13359 0
M  V30 5881 H 554.797 -1.43245 0.625354 0
M  V30 5882 H 555.532 -2.90823 -1.435 0
M  V30 5883 H 555.317 -3.92094 0.0220539 0
M  V30 5884 H 556.807 -4.06472 -0.957626 0
M  V30 5885 N 557.244 -0.608902 -1.45362 0
M  V30 5886 C 558.484 -0.10763 -2.04116 0
M  V30 5887 C 558.848 1.23883 -1.46686 0
M  V30 5888 O 560.049 1.83091 -1.96803 0
M  V30 5889 C 558.32 -0.0703351 -3.57331 0
M  V30 5890 S 559.879 0.369554 -4.37241 0
M  V30 5891 H 556.697 -0.0502123 -0.709225 0
M  V30 5892 H 559.299 -0.8073 -1.78053 0
M  V30 5893 H 558.003 -1.05379 -3.9664 0
M  V30 5894 H 557.534 0.651287 -3.87971 0
M  V30 5895 H 559.549 1.61878 -4.69052 0
M  V30 5896 N 558.722 1.53707 -0.348139 0
M  V30 5897 C 559.67 2.26671 0.521808 0
M  V30 5898 C 560.664 1.28988 1.09811 0
M  V30 5899 O 561.87 1.4668 1.04332 0
M  V30 5900 H 558.245 0.728387 0.186968 0
M  V30 5901 H 560.216 2.98176 -0.115563 0
M  V30 5902 C 558.965 3.05591 1.6586 0
M  V30 5903 H 558.288 3.80589 1.22443 0
M  V30 5904 H 559.728 3.59851 2.24239 0
M  V30 5905 C 558.187 2.15366 2.59073 0
M  V30 5906 O 558.717 1.7528 3.61441 0
M  V30 5907 N 556.923 1.80352 2.27863 0
M  V30 5908 H 556.47 2.13149 1.44656 0
M  V30 5909 H 556.428 1.20268 2.90488 0
M  V30 5910 N 560.2 0.0768682 1.57412 0
M  V30 5911 C 561.611 -0.455037 1.8107 0
M  V30 5912 C 561.962 -1.69323 0.991162 0
M  V30 5913 O 561.087 -2.15328 0.215156 0
M  V30 5914 C 561.682 -0.832316 3.28417 0
M  V30 5915 C 560.241 -1.30906 3.52903 0
M  V30 5916 C 559.388 -0.296714 2.75708 0
M  V30 5917 H 562.339 0.302514 1.5579 0
M  V30 5918 H 562.36 -1.69333 3.40744 0
M  V30 5919 H 561.872 0.0690532 3.88039 0
M  V30 5920 H 559.973 -2.22875 2.98592 0
M  V30 5921 H 560.086 -1.28348 4.61588 0
M  V30 5922 H 558.45 -0.775059 2.42621 0
M  V30 5923 H 559.233 0.597015 3.38069 0
M  V30 5924 N 561.678 -1.56367 -0.196722 0
M  V30 5925 C 562.641 -1.93561 -1.22746 0
M  V30 5926 C 563.641 -0.816566 -1.38524 0
M  V30 5927 O 564.831 -1.084 -1.36363 0
M  V30 5928 C 561.963 -2.20823 -2.59712 0
M  V30 5929 H 563.156 -2.85774 -0.909586 0
M  V30 5930 H 560.709 -1.50032 -0.438174 0
M  V30 5931 H 561.444 -1.31243 -2.96557 0
M  V30 5932 H 561.229 -3.02368 -2.49632 0
M  V30 5933 H 562.719 -2.50608 -3.34044 0
M  V30 5934 N 563.156 0.464375 -1.50603 0
M  V30 5935 C 564.396 1.22573 -1.6357 0
M  V30 5936 C 564.76 1.89111 -0.331834 0
M  V30 5937 O 565.961 2.66679 -0.336999 0
M  V30 5938 C 564.232 2.23643 -2.7878 0
M  V30 5939 S 565.791 3.08628 -3.1192 0
M  V30 5940 H 562.609 0.416058 -0.576556 0
M  V30 5941 H 565.211 0.521637 -1.88412 0
M  V30 5942 H 563.915 1.73354 -3.7199 0
M  V30 5943 H 563.446 2.98672 -2.56044 0
M  V30 5944 H 565.461 4.24904 -2.56264 0
M  V30 5945 N 564.634 1.40294 0.718013 0
M  V30 5946 C 565.881 1.3844 1.47786 0
M  V30 5947 C 566.209 -0.0140838 1.94495 0
M  V30 5948 O 565.464 -0.998165 1.68331 0
M  V30 5949 C 565.763 2.31814 2.72024 0
M  V30 5950 C 565.429 3.79117 2.44093 0
M  V30 5951 C 564.091 4.19249 2.36185 0
M  V30 5952 C 566.443 4.72212 2.20602 0
M  V30 5953 C 563.771 5.50516 2.02851 0
M  V30 5954 C 566.123 6.03775 1.88781 0
M  V30 5955 C 564.787 6.42953 1.79354 0
M  V30 5956 H 564.057 0.506588 0.540786 0
M  V30 5957 H 566.704 1.72929 0.822663 0
M  V30 5958 H 565.009 1.90501 3.42369 0
M  V30 5959 H 566.706 2.27664 3.30106 0
M  V30 5960 H 563.296 3.47318 2.51133 0
M  V30 5961 H 567.48 4.42026 2.25669 0
M  V30 5962 H 562.736 5.79776 1.94088 0
M  V30 5963 H 566.91 6.75428 1.69617 0
M  V30 5964 H 564.537 7.44584 1.53291 0
M  V30 5965 N 566.112 -0.949982 1.2575 0
M  V30 5966 C 567.361 -1.68956 1.10168 0
M  V30 5967 C 567.674 -1.92327 -0.356309 0
M  V30 5968 O 568.88 -2.64026 -0.632657 0
M  V30 5969 C 567.336 -3.04196 1.92336 0
M  V30 5970 C 566.944 -2.88603 3.42655 0
M  V30 5971 C 568.688 -3.81904 1.85336 0
M  V30 5972 C 566.595 -4.19262 4.17101 0
M  V30 5973 H 565.525 -0.633645 0.408668 0
M  V30 5974 H 568.176 -1.05719 1.49986 0
M  V30 5975 H 566.558 -3.68363 1.45344 0
M  V30 5976 H 567.732 -2.3334 3.97353 0
M  V30 5977 H 566.047 -2.24345 3.50796 0
M  V30 5978 H 568.644 -4.78688 2.38248 0
M  V30 5979 H 568.987 -4.08099 0.822226 0
M  V30 5980 H 569.52 -3.24495 2.30104 0
M  V30 5981 H 566.259 -3.98254 5.20648 0
M  V30 5982 H 565.779 -4.74273 3.67186 0
M  V30 5983 H 567.458 -4.87775 4.25071 0
M  V30 5984 N 567.59 -1.07411 -1.15328 0
M  V30 5985 C 568.818 -0.818782 -1.90009 0
M  V30 5986 C 569.233 0.628072 -1.78047 0
M  V30 5987 O 568.59 1.43085 -1.13282 0
M  V30 5988 C 568.641 -1.21874 -3.40337 0
M  V30 5989 O 568.362 -2.60883 -3.51954 0
M  V30 5990 C 569.863 -0.992796 -4.3204 0
M  V30 5991 H 567.083 -0.296007 -0.60218 0
M  V30 5992 H 569.627 -1.43073 -1.46117 0
M  V30 5993 H 567.782 -0.651103 -3.81889 0
M  V30 5994 H 568.196 -2.77216 -4.45255 0
M  V30 5995 H 569.67 -1.32215 -5.35932 0
M  V30 5996 H 570.147 0.0708331 -4.39143 0
M  V30 5997 H 570.753 -1.54537 -3.9623 0
M  V30 5998 N 569.068 1.32177 -0.85831 0
M  V30 5999 C 570 2.27688 -0.262835 0
M  V30 6000 C 571.013 1.52588 0.567513 0
M  V30 6001 O 572.202 1.74156 0.391407 0
M  V30 6002 C 569.302 3.32668 0.646937 0
M  V30 6003 C 568.475 4.37148 -0.148372 0
M  V30 6004 C 567.534 5.21686 0.687728 0
M  V30 6005 O 566.56 5.69074 0.119934 0
M  V30 6006 N 567.762 5.44892 2.00182 0
M  V30 6007 H 570.527 2.79426 -1.08356 0
M  V30 6008 H 568.088 1.45076 -0.718647 0
M  V30 6009 H 570.08 3.86134 1.2117 0
M  V30 6010 H 568.65 2.81061 1.36834 0
M  V30 6011 H 567.87 3.83915 -0.894572 0
M  V30 6012 H 569.158 5.04038 -0.694514 0
M  V30 6013 H 568.556 5.08128 2.4864 0
M  V30 6014 H 567.113 6.0134 2.51463 0
M  V30 6015 N 570.547 0.616602 1.45037 0
M  V30 6016 C 571.477 -0.0840787 2.33349 0
M  V30 6017 C 572.458 -0.849641 1.4736 0
M  V30 6018 O 573.643 -0.818407 1.76113 0
M  V30 6019 C 570.773 -1.07604 3.3021 0
M  V30 6020 C 569.727 -0.423096 4.25904 0
M  V30 6021 C 569.053 -1.52394 5.12523 0
M  V30 6022 C 570.353 0.661457 5.18095 0
M  V30 6023 H 572.047 0.653333 2.92185 0
M  V30 6024 H 569.593 0.315634 1.40498 0
M  V30 6025 H 571.546 -1.57485 3.90866 0
M  V30 6026 H 570.27 -1.84416 2.69552 0
M  V30 6027 H 568.929 0.05493 3.66559 0
M  V30 6028 H 568.577 -2.28257 4.48227 0
M  V30 6029 H 568.277 -1.09251 5.77354 0
M  V30 6030 H 569.801 -2.02485 5.76049 0
M  V30 6031 H 571.215 0.246353 5.7277 0
M  V30 6032 H 569.612 1.01517 5.91451 0
M  V30 6033 H 570.682 1.53446 4.59981 0
M  V30 6034 N 572.025 -1.5352 0.356285 0
M  V30 6035 C 572.955 -2.28372 -0.486661 0
M  V30 6036 C 573.936 -1.30432 -1.09185 0
M  V30 6037 O 575.121 -1.59291 -1.11085 0
M  V30 6038 C 572.251 -3.06604 -1.63129 0
M  V30 6039 C 571.205 -4.12154 -1.15381 0
M  V30 6040 C 570.531 -4.78415 -2.38796 0
M  V30 6041 C 571.831 -5.21724 -0.245179 0
M  V30 6042 H 573.525 -2.99083 0.137797 0
M  V30 6043 H 571.071 -1.43841 0.0677134 0
M  V30 6044 H 573.024 -3.57712 -2.22755 0
M  V30 6045 H 571.748 -2.33568 -2.28284 0
M  V30 6046 H 570.407 -3.61978 -0.580294 0
M  V30 6047 H 570.055 -4.01959 -3.02387 0
M  V30 6048 H 569.755 -5.49734 -2.07524 0
M  V30 6049 H 571.279 -5.32313 -2.99125 0
M  V30 6050 H 572.693 -5.68391 -0.748646 0
M  V30 6051 H 571.09 -6.00095 -0.0237608 0
M  V30 6052 H 572.16 -4.79596 0.715229 0
M  V30 6053 N 573.503 -0.0852151 -1.57369 0
M  V30 6054 C 574.914 0.445428 -1.81309 0
M  V30 6055 C 575.265 1.68795 -1.00013 0
M  V30 6056 O 574.39 2.15211 -0.226573 0
M  V30 6057 C 574.985 0.814887 -3.28854 0
M  V30 6058 C 573.544 1.29032 -3.53592 0
M  V30 6059 C 572.691 0.282089 -2.75861 0
M  V30 6060 H 575.642 -0.310771 -1.55627 0
M  V30 6061 H 575.663 1.67524 -3.41637 0
M  V30 6062 H 575.175 -0.0896309 -3.87996 0
M  V30 6063 H 573.276 2.21289 -2.9977 0
M  V30 6064 H 573.389 1.25898 -4.62262 0
M  V30 6065 H 571.753 0.762182 -2.43029 0
M  V30 6066 H 572.536 -0.614936 -3.37748 0
M  V30 6067 N 574.981 1.5647 0.188427 0
M  V30 6068 C 576.227 1.81281 0.909124 0
M  V30 6069 C 576.56 0.66034 1.82628 0
M  V30 6070 O 575.835 -0.338737 1.91528 0
M  V30 6071 C 576.118 3.16388 1.7196 0
M  V30 6072 C 575.971 4.42137 0.826714 0
M  V30 6073 C 577.29 3.48256 2.69083 0
M  V30 6074 H 574.409 0.659457 0.329068 0
M  V30 6075 H 577.051 1.89182 0.176156 0
M  V30 6076 H 575.201 3.09784 2.34448 0
M  V30 6077 H 576.873 4.60794 0.216025 0
M  V30 6078 H 575.116 4.33594 0.133792 0
M  V30 6079 H 575.787 5.33184 1.42893 0
M  V30 6080 H 578.263 3.55203 2.16726 0
M  V30 6081 H 577.139 4.43899 3.2287 0
M  V30 6082 H 577.4 2.72088 3.48455 0
M  V30 6083 N 576.459 -0.456382 1.50847 0
M  V30 6084 C 577.406 -1.55249 1.70782 0
M  V30 6085 C 578.376 -1.56757 0.549231 0
M  V30 6086 O 579.561 -1.74061 0.7815 0
M  V30 6087 C 576.701 -2.93118 1.82143 0
M  V30 6088 C 575.814 -3.01285 3.09598 0
M  V30 6089 C 574.949 -4.30159 3.11667 0
M  V30 6090 C 573.988 -4.32124 4.33515 0
M  V30 6091 N 573.125 -5.52492 4.3324 0
M  V30 6092 H 577.965 -1.37555 2.64353 0
M  V30 6093 H 575.502 -0.668543 1.3103 0
M  V30 6094 H 577.46 -3.73088 1.86711 0
M  V30 6095 H 576.09 -3.09413 0.919978 0
M  V30 6096 H 575.142 -2.14096 3.14431 0
M  V30 6097 H 576.454 -2.98597 3.99551 0
M  V30 6098 H 575.608 -5.18489 3.15046 0
M  V30 6099 H 574.347 -4.35477 2.1957 0
M  V30 6100 H 573.352 -3.42189 4.30333 0
M  V30 6101 H 574.577 -4.28485 5.26856 0
M  V30 6102 H 572.523 -5.58567 3.44004 0
M  V30 6103 H 572.44 -5.51605 5.16979 0
M  V30 6104 H 573.708 -6.42906 4.40786 0
M  V30 6105 N 577.937 -1.40673 -0.710563 0
M  V30 6106 C 579.353 -1.22813 -1.01928 0
M  V30 6107 C 579.553 -0.10687 -2.01216 0
M  V30 6108 O 578.609 0.533614 -2.46797 0
M  V30 6109 C 579.922 -2.57178 -1.5582 0
M  V30 6110 C 581.47 -2.64233 -1.67779 0
M  V30 6111 C 581.945 -3.98879 -2.25076 0
M  V30 6112 N 583.436 -4.00647 -2.32456 0
M  V30 6113 C 584.171 -5.01621 -2.77784 0
M  V30 6114 N 583.667 -6.12989 -3.22826 0
M  V30 6115 N 585.46 -4.88988 -2.77213 0
M  V30 6116 H 577.611 -2.12335 -0.05253 0
M  V30 6117 H 579.874 -0.9441 -0.085898 0
M  V30 6118 H 579.58 -3.39903 -0.903249 0
M  V30 6119 H 579.454 -2.78618 -2.54267 0
M  V30 6120 H 581.841 -1.81876 -2.3239 0
M  V30 6121 H 581.922 -2.46619 -0.679178 0
M  V30 6122 H 581.566 -4.81678 -1.61086 0
M  V30 6123 H 581.496 -4.13826 -3.25661 0
M  V30 6124 H 583.987 -3.20231 -2.0065 0
M  V30 6125 H 584.3 -6.85921 -3.55995 0
M  V30 6126 H 582.645 -6.16547 -3.20773 0
M  V30 6127 H 585.836 -4.01075 -2.41363 0
M  V30 6128 H 586.009 -5.67822 -3.12221 0
M  V30 6129 N 579.415 0.9433 -1.26252 0
M  V30 6130 C 580.362 2.0417 -1.07625 0
M  V30 6131 C 581.332 1.6609 0.0180738 0
M  V30 6132 O 582.517 1.90276 -0.141289 0
M  V30 6133 C 579.657 3.37653 -0.713043 0
M  V30 6134 C 578.77 3.88783 -1.8834 0
M  V30 6135 C 577.905 5.10642 -1.4635 0
M  V30 6136 C 576.944 5.54028 -2.60229 0
M  V30 6137 N 576.081 6.67092 -2.18936 0
M  V30 6138 H 580.921 2.19436 -2.01623 0
M  V30 6139 H 578.458 1.07519 -1.00389 0
M  V30 6140 H 580.416 4.14391 -0.483358 0
M  V30 6141 H 579.046 3.22241 0.18996 0
M  V30 6142 H 578.098 3.08464 -2.22608 0
M  V30 6143 H 579.41 4.16922 -2.73821 0
M  V30 6144 H 578.564 5.94832 -1.19414 0
M  V30 6145 H 577.303 4.84244 -0.579568 0
M  V30 6146 H 576.308 4.68396 -2.87898 0
M  V30 6147 H 577.533 5.82429 -3.49219 0
M  V30 6148 H 575.479 6.42381 -1.32974 0
M  V30 6149 H 575.396 6.94806 -2.97961 0
M  V30 6150 H 576.664 7.54662 -1.95206 0
M  V30 6151 N 580.893 1.08022 1.14757 0
M  V30 6152 C 581.823 0.728248 2.21853 0
M  V30 6153 C 582.804 -0.287486 1.67653 0
M  V30 6154 O 583.989 -0.158727 1.9355 0
M  V30 6155 C 581.119 0.132549 3.47047 0
M  V30 6156 C 580.073 1.07619 4.14249 0
M  V30 6157 C 579.399 0.342907 5.33599 0
M  V30 6158 C 580.699 2.41268 4.63235 0
M  V30 6159 H 582.393 1.62365 2.51551 0
M  V30 6160 H 579.939 0.782125 1.20908 0
M  V30 6161 H 581.892 -0.125665 4.21213 0
M  V30 6162 H 580.616 -0.797971 3.16702 0
M  V30 6163 H 579.275 1.31944 3.42033 0
M  V30 6164 H 578.923 -0.59129 4.99513 0
M  V30 6165 H 578.623 0.971955 5.79506 0
M  V30 6166 H 580.147 0.0926538 6.1053 0
M  V30 6167 H 581.561 2.21232 5.28894 0
M  V30 6168 H 579.958 2.9983 5.19829 0
M  V30 6169 H 581.028 3.03079 3.78512 0
M  V30 6170 N 582.371 -1.3172 0.865308 0
M  V30 6171 C 583.619 -1.96487 0.472995 0
M  V30 6172 C 583.94 -1.68761 -0.976975 0
M  V30 6173 O 583.21 -1.00051 -1.68424 0
M  V30 6174 H 581.79 -0.726947 0.171922 0
M  V30 6175 H 584.452 -1.60612 1.10407 0
M  V30 6176 H 583.548 -3.0574 0.62687 0
M  V30 6177 N 583.85 -0.624285 -1.44708 0
M  V30 6178 C 585.096 -0.126051 -2.02107 0
M  V30 6179 C 585.425 1.2496 -1.49048 0
M  V30 6180 O 584.68 1.84163 -0.662005 0
M  V30 6181 C 584.979 -0.0546353 -3.57358 0
M  V30 6182 C 584.644 -1.36815 -4.29642 0
M  V30 6183 C 583.307 -1.72792 -4.49106 0
M  V30 6184 C 585.659 -2.23549 -4.70824 0
M  V30 6185 C 582.986 -2.95222 -5.07012 0
M  V30 6186 C 585.339 -3.45243 -5.30085 0
M  V30 6187 C 584.003 -3.81452 -5.47769 0
M  V30 6188 H 583.273 -0.0461252 -0.739563 0
M  V30 6189 H 585.92 -0.809236 -1.73562 0
M  V30 6190 H 584.225 0.711891 -3.85278 0
M  V30 6191 H 585.922 0.347282 -3.99493 0
M  V30 6192 H 582.512 -1.07817 -4.14817 0
M  V30 6193 H 586.696 -1.9705 -4.55505 0
M  V30 6194 H 581.952 -3.23361 -5.18891 0
M  V30 6195 H 586.125 -4.12689 -5.60946 0
M  V30 6196 H 583.753 -4.76403 -5.92405 0
M  V30 6197 N 585.328 1.53329 -0.364422 0
M  V30 6198 C 586.558 2.05359 0.226096 0
M  V30 6199 C 586.966 1.23777 1.43094 0
M  V30 6200 O 586.309 0.271139 1.81688 0
M  V30 6201 C 586.371 3.52918 0.684794 0
M  V30 6202 C 586.035 4.55218 -0.403206 0
M  V30 6203 C 587.032 5.04583 -1.2527 0
M  V30 6204 C 584.717 4.99134 -0.563117 0
M  V30 6205 C 586.711 5.96463 -2.24745 0
M  V30 6206 C 584.398 5.9082 -1.56124 0
M  V30 6207 C 585.396 6.39375 -2.40184 0
M  V30 6208 O 585.084 7.29255 -3.38293 0
M  V30 6209 H 584.816 0.674588 0.0436772 0
M  V30 6210 H 587.37 1.98688 -0.520782 0
M  V30 6211 H 585.6 3.57122 1.48326 0
M  V30 6212 H 587.289 3.87812 1.19818 0
M  V30 6213 H 588.055 4.71403 -1.14034 0
M  V30 6214 H 583.934 4.60928 0.0813909 0
M  V30 6215 H 587.478 6.34285 -2.90393 0
M  V30 6216 H 583.375 6.23414 -1.67407 0
M  V30 6217 H 584.143 7.47249 -3.34009 0
M  V30 6218 N 586.806 0.0935595 1.57322 0
M  V30 6219 C 587.716 -0.880192 2.17462 0
M  V30 6220 C 588.732 -1.31135 1.14366 0
M  V30 6221 O 589.908 -1.37958 1.46729 0
M  V30 6222 C 586.973 -2.12184 2.74188 0
M  V30 6223 C 586.034 -1.74503 3.92234 0
M  V30 6224 C 585.267 -2.92748 4.46245 0
M  V30 6225 O 585.49 -4.07427 3.99198 0
M  V30 6226 O 584.424 -2.71303 5.37288 0
M  V30 6227 H 588.25 -0.398516 3.01074 0
M  V30 6228 H 585.835 -0.130707 1.48827 0
M  V30 6229 H 587.717 -2.84953 3.10451 0
M  V30 6230 H 586.392 -2.59407 1.93623 0
M  V30 6231 H 585.299 -0.989186 3.60785 0
M  V30 6232 H 586.632 -1.32044 4.74157 0
M  V30 6233 N 588.284 -1.56567 -0.180126 0
M  V30 6234 C 589.53 -1.82658 -0.894859 0
M  V30 6235 C 589.885 -0.672826 -1.80252 0
M  V30 6236 O 589.178 0.331227 -1.88715 0
M  V30 6237 C 589.372 -3.1252 -1.73395 0
M  V30 6238 C 589.201 -4.40417 -0.909028 0
M  V30 6239 C 587.971 -5.01872 -0.587562 0
M  V30 6240 C 590.169 -5.13669 -0.254698 0
M  V30 6241 N 588.151 -6.13373 0.254428 0
M  V30 6242 C 589.522 -6.18373 0.448837 0
M  V30 6243 C 591.577 -4.97603 -0.171958 0
M  V30 6244 C 590.28 -7.08753 1.22725 0
M  V30 6245 C 592.306 -5.88418 0.593101 0
M  V30 6246 C 591.668 -6.92579 1.28503 0
M  V30 6247 H 587.767 -0.719493 -0.306356 0
M  V30 6248 H 590.351 -1.94021 -0.16247 0
M  V30 6249 H 588.522 -3.02365 -2.43783 0
M  V30 6250 H 590.254 -3.2664 -2.38931 0
M  V30 6251 H 587.009 -4.64666 -0.915557 0
M  V30 6252 H 587.433 -6.73721 0.665474 0
M  V30 6253 H 592.075 -4.17089 -0.692555 0
M  V30 6254 H 589.793 -7.88718 1.75923 0
M  V30 6255 H 593.379 -5.78059 0.658674 0
M  V30 6256 H 592.259 -7.61638 1.86754 0
M  V30 6257 N 589.762 0.448376 -1.51087 0
M  V30 6258 C 590.99 1.22143 -1.66999 0
M  V30 6259 C 591.405 1.85283 -0.362699 0
M  V30 6260 O 590.762 1.70236 0.65772 0
M  V30 6261 C 590.813 2.31357 -2.7777 0
M  V30 6262 O 590.534 1.70801 -4.03434 0
M  V30 6263 C 592.035 3.21836 -3.04855 0
M  V30 6264 H 589.255 0.368558 -0.560719 0
M  V30 6265 H 591.799 0.532618 -1.97442 0
M  V30 6266 H 589.954 2.95973 -2.49958 0
M  V30 6267 H 590.368 2.42895 -4.64868 0
M  V30 6268 H 591.842 3.94627 -3.85971 0
M  V30 6269 H 592.319 3.81949 -2.16821 0
M  V30 6270 H 592.925 2.62933 -3.34285 0
M  V30 6271 N 591.24 1.41047 0.703093 0
M  V30 6272 C 592.465 1.43537 1.49706 0
M  V30 6273 C 592.89 0.0401853 1.88057 0
M  V30 6274 O 592.248 -0.954785 1.54122 0
M  V30 6275 C 592.296 2.3433 2.74084 0
M  V30 6276 O 591.4 1.79515 3.71279 0
M  V30 6277 H 590.741 0.487454 0.450871 0
M  V30 6278 H 593.271 1.85422 0.86486 0
M  V30 6279 H 593.281 2.49947 3.22476 0
M  V30 6280 H 591.956 3.35708 2.45506 0
M  V30 6281 H 590.533 1.7331 3.30179 0
M  V30 6282 N 592.718 -0.936591 1.26751 0
M  V30 6283 C 594.134 -1.21095 1.03963 0
M  V30 6284 C 594.334 -2.00156 -0.232372 0
M  V30 6285 O 593.39 -2.3434 -0.940274 0
M  V30 6286 C 594.703 -1.96775 2.27377 0
M  V30 6287 C 596.251 -2.09749 2.32324 0
M  V30 6288 C 596.726 -2.88832 3.55443 0
M  V30 6289 N 598.217 -2.96404 3.55948 0
M  V30 6290 C 598.952 -3.58036 4.47881 0
M  V30 6291 N 598.448 -4.21132 5.50109 0
M  V30 6292 N 600.241 -3.55353 4.35523 0
M  V30 6293 H 592.392 -0.408173 2.08441 0
M  V30 6294 H 594.655 -0.243139 0.91629 0
M  V30 6295 H 594.361 -1.46094 3.19921 0
M  V30 6296 H 594.235 -2.97424 2.31989 0
M  V30 6297 H 596.622 -2.5962 1.40291 0
M  V30 6298 H 596.703 -1.08347 2.31721 0
M  V30 6299 H 596.347 -2.39647 4.47808 0
M  V30 6300 H 596.277 -3.90499 3.53296 0
M  V30 6301 H 598.768 -2.51552 2.82011 0
M  V30 6302 H 599.081 -4.66071 6.16439 0
M  V30 6303 H 597.426 -4.19705 5.53961 0
M  V30 6304 H 600.617 -3.05256 3.54875 0
M  V30 6305 H 600.79 -4.03097 5.07363 0
M  V30 6306 N 594.196 -1.08629 -1.14182 0
M  V30 6307 C 595.126 -0.740003 -2.21464 0
M  V30 6308 C 596.107 0.278591 -1.67803 0
M  V30 6309 O 597.292 0.148461 -1.93632 0
M  V30 6310 C 594.422 -0.150952 -3.46972 0
M  V30 6311 C 593.376 -1.09815 -4.13672 0
M  V30 6312 C 592.702 -0.3712 -5.3341 0
M  V30 6313 C 594.002 -2.43722 -4.61949 0
M  V30 6314 H 595.696 -1.63697 -2.50686 0
M  V30 6315 H 593.242 -0.788526 -1.20492 0
M  V30 6316 H 595.195 0.103325 -4.21273 0
M  V30 6317 H 593.919 0.781164 -3.1712 0
M  V30 6318 H 592.578 -1.33756 -3.41328 0
M  V30 6319 H 592.226 0.564792 -4.99819 0
M  V30 6320 H 591.926 -1.00267 -5.78982 0
M  V30 6321 H 593.45 -0.12503 -6.10472 0
M  V30 6322 H 594.864 -2.24034 -5.27714 0
M  V30 6323 H 593.261 -3.02582 -5.18232 0
M  V30 6324 H 594.331 -3.05082 -3.76899 0
M  V30 6325 N 595.674 1.31259 -0.872281 0
M  V30 6326 C 597.09 1.49283 -0.564521 0
M  V30 6327 C 597.29 1.80243 0.900807 0
M  V30 6328 O 596.346 1.88246 1.68284 0
M  V30 6329 C 597.659 2.62503 -1.46673 0
M  V30 6330 C 599.207 2.76386 -1.46901 0
M  V30 6331 C 599.682 3.92705 -2.35684 0
M  V30 6332 N 601.173 3.99995 -2.33577 0
M  V30 6333 C 601.908 4.89276 -2.98992 0
M  V30 6334 N 601.404 5.83443 -3.73585 0
M  V30 6335 N 603.197 4.82541 -2.88289 0
M  V30 6336 H 595.348 1.09432 -1.82039 0
M  V30 6337 H 597.611 0.540949 -0.77851 0
M  V30 6338 H 597.317 2.46407 -2.50951 0
M  V30 6339 H 597.191 3.58695 -1.16696 0
M  V30 6340 H 599.578 2.91894 -0.433796 0
M  V30 6341 H 599.659 1.80853 -1.80903 0
M  V30 6342 H 599.303 3.77954 -3.39283 0
M  V30 6343 H 599.233 4.87549 -1.99006 0
M  V30 6344 H 601.724 3.32624 -1.7936 0
M  V30 6345 H 602.037 6.48303 -4.20622 0
M  V30 6346 H 600.382 5.83415 -3.77694 0
M  V30 6347 H 603.573 4.07951 -2.2955 0
M  V30 6348 H 603.746 5.51916 -3.39549 0
M  V30 6349 N 597.152 0.631951 1.44375 0
M  V30 6350 C 598.377 0.142146 2.06912 0
M  V30 6351 C 598.802 -1.17456 1.4692 0
M  V30 6352 O 598.16 -1.72074 0.570975 0
M  V30 6353 C 598.208 0.0417952 3.60576 0
M  V30 6354 O 597.312 -1.00194 4.00044 0
M  V30 6355 H 596.653 0.0851491 0.658518 0
M  V30 6356 H 599.183 0.868863 1.85235 0
M  V30 6357 H 599.193 -0.148517 4.0773 0
M  V30 6358 H 597.868 1.0031 4.03622 0
M  V30 6359 H 596.445 -0.786131 3.64519 0
M  V30 6360 N 598.631 -1.53133 0.372548 0
M  V30 6361 C 599.581 -2.22733 -0.487218 0
M  V30 6362 C 600.565 -1.22506 -1.04312 0
M  V30 6363 O 601.757 -1.47923 -0.972005 0
M  V30 6364 C 598.886 -3.02524 -1.62278 0
M  V30 6365 C 597.972 -4.10133 -1.07943 0
M  V30 6366 N 598.363 -5.05133 -0.259629 0
M  V30 6367 C 596.661 -4.24964 -1.35356 0
M  V30 6368 C 597.362 -5.81687 0.0386656 0
M  V30 6369 N 596.338 -5.40699 -0.560827 0
M  V30 6370 H 600.14 -2.93538 0.145853 0
M  V30 6371 H 597.654 -1.61389 0.180938 0
M  V30 6372 H 599.651 -3.50909 -2.25096 0
M  V30 6373 H 598.311 -2.33252 -2.25884 0
M  V30 6374 H 599.322 -5.178 0.101746 0
M  V30 6375 H 595.999 -3.66919 -1.9919 0
M  V30 6376 H 597.389 -6.68224 0.701841 0
M  V30 6377 N 600.109 -0.101901 -1.5727 0
M  V30 6378 C 601.358 0.559922 -1.93772 0
M  V30 6379 C 601.671 1.68913 -0.98629 0
M  V30 6380 O 602.877 2.41256 -1.24529 0
M  V30 6381 C 601.333 1.04739 -3.44322 0
M  V30 6382 C 600.941 -0.05243 -4.47969 0
M  V30 6383 C 602.685 1.68157 -3.89774 0
M  V30 6384 C 600.592 0.450781 -5.8968 0
M  V30 6385 H 599.522 0.212931 -0.723309 0
M  V30 6386 H 602.173 -0.179001 -1.82625 0
M  V30 6387 H 600.555 1.84021 -3.50645 0
M  V30 6388 H 601.729 -0.828157 -4.53297 0
M  V30 6389 H 600.044 -0.592202 -4.12167 0
M  V30 6390 H 602.641 2.0689 -4.93052 0
M  V30 6391 H 602.984 2.55338 -3.28798 0
M  V30 6392 H 603.517 0.954453 -3.8618 0
M  V30 6393 H 600.256 -0.38458 -6.54371 0
M  V30 6394 H 599.776 1.19336 -5.87809 0
M  V30 6395 H 601.455 0.917555 -6.40461 0
M  V30 6396 N 601.587 1.56661 0.17182 0
M  V30 6397 C 602.535 1.97289 1.23207 0
M  V30 6398 C 603.529 0.861566 1.45854 0
M  V30 6399 O 604.735 1.04668 1.4644 0
M  V30 6400 H 601.11 0.627681 0.41415 0
M  V30 6401 H 603.081 2.85662 0.862542 0
M  V30 6402 C 601.83 2.34849 2.564 0
M  V30 6403 H 601.153 3.19903 2.39797 0
M  V30 6404 H 602.593 2.67121 3.29276 0
M  V30 6405 C 601.052 1.19172 3.15119 0
M  V30 6406 O 601.582 0.479113 3.98833 0
M  V30 6407 N 599.788 0.962415 2.74201 0
M  V30 6408 H 599.335 1.54365 2.06226 0
M  V30 6409 H 599.293 0.190272 3.13824 0
M  V30 6410 N 603.065 -0.440357 1.51323 0
M  V30 6411 C 604.476 -1.02032 1.56353 0
M  V30 6412 C 604.827 -1.92382 0.385197 0
M  V30 6413 O 603.952 -2.10583 -0.498373 0
M  V30 6414 C 604.547 -1.85723 2.83359 0
M  V30 6415 C 603.106 -2.38774 2.90971 0
M  V30 6416 C 602.253 -1.17908 2.50984 0
M  V30 6417 H 605.204 -0.221744 1.57143 0
M  V30 6418 H 605.225 -2.71141 2.66951 0
M  V30 6419 H 604.737 -1.19939 3.69102 0
M  V30 6420 H 602.838 -3.08021 2.09651 0
M  V30 6421 H 602.951 -2.71778 3.94555 0
M  V30 6422 H 601.315 -1.52347 2.04114 0
M  V30 6423 H 602.098 -0.537393 3.39068 0
M  V30 6424 N 604.543 -1.41418 -0.695603 0
M  V30 6425 C 605.771 -1.4413 -1.48439 0
M  V30 6426 C 606.186 -0.0465698 -1.88743 0
M  V30 6427 O 605.543 0.934117 -1.56782 0
M  V30 6428 C 605.594 -2.34998 -2.74696 0
M  V30 6429 O 605.315 -3.69043 -2.36091 0
M  V30 6430 C 606.816 -2.46513 -3.68438 0
M  V30 6431 H 604.036 -0.490905 -0.457442 0
M  V30 6432 H 606.58 -1.85702 -0.856454 0
M  V30 6433 H 604.735 -1.96735 -3.33728 0
M  V30 6434 H 605.149 -4.17505 -3.17474 0
M  V30 6435 H 606.623 -3.1426 -4.53811 0
M  V30 6436 H 607.1 -1.49638 -4.12922 0
M  V30 6437 H 607.706 -2.85412 -3.1531 0
M  V30 6438 N 606.021 0.929856 -1.27246 0
M  V30 6439 C 607.269 1.674 -1.13233 0
M  V30 6440 C 607.59 1.92311 0.322744 0
M  V30 6441 O 606.86 1.52784 1.22612 0
M  V30 6442 H 605.44 0.620411 -0.416052 0
M  V30 6443 H 608.102 1.11663 -1.59741 0
M  V30 6444 H 607.198 2.64308 -1.65975 0
M  V30 6445 N 607.499 1.09233 1.13605 0
M  V30 6446 C 608.727 0.848908 1.88683 0
M  V30 6447 C 609.142 -0.599667 1.79024 0
M  V30 6448 O 608.499 -1.41265 1.15544 0
M  V30 6449 C 608.55 1.27273 3.38355 0
M  V30 6450 O 608.271 2.66449 3.47759 0
M  V30 6451 C 609.772 1.0614 4.30406 0
M  V30 6452 H 606.992 0.305549 0.597395 0
M  V30 6453 H 609.536 1.4538 1.43823 0
M  V30 6454 H 607.691 0.711776 3.80805 0
M  V30 6455 H 608.105 2.84264 4.40788 0
M  V30 6456 H 609.579 1.40725 5.33761 0
M  V30 6457 H 610.056 -0.000960332 4.392 0
M  V30 6458 H 610.662 1.60821 3.93722 0
M  V30 6459 N 608.977 -1.30795 0.87923 0
M  V30 6460 C 610.223 -1.96653 0.495519 0
M  V30 6461 C 610.556 -1.69282 -0.951703 0
M  V30 6462 O 609.831 -0.994374 -1.6716 0
M  V30 6463 C 610.114 -3.51898 0.764174 0
M  V30 6464 C 609.967 -3.88808 2.2616 0
M  V30 6465 C 611.286 -4.39462 0.236825 0
M  V30 6466 H 608.405 -0.7143 0.181507 0
M  V30 6467 H 611.047 -1.54765 1.10217 0
M  V30 6468 H 609.197 -3.87709 0.247841 0
M  V30 6469 H 610.869 -3.63051 2.8459 0
M  V30 6470 H 609.112 -3.37082 2.73053 0
M  V30 6471 H 609.783 -4.97086 2.4002 0
M  V30 6472 H 612.259 -4.10528 0.678683 0
M  V30 6473 H 611.135 -5.47018 0.454176 0
M  V30 6474 H 611.396 -4.33621 -0.861683 0
M  V30 6475 N 610.455 -0.639598 -1.44038 0
M  V30 6476 C 611.385 0.0469443 -2.33453 0
M  V30 6477 C 612.366 0.82609 -1.48694 0
M  V30 6478 O 613.551 0.790285 -1.77393 0
M  V30 6479 C 610.681 1.02338 -3.3188 0
M  V30 6480 C 609.635 0.355284 -4.26523 0
M  V30 6481 C 608.961 1.44221 -5.14883 0
M  V30 6482 C 610.261 -0.743798 -5.16977 0
M  V30 6483 H 611.955 -0.699735 -2.91108 0
M  V30 6484 H 609.501 -0.337946 -1.39978 0
M  V30 6485 H 611.454 1.51247 -3.93322 0
M  V30 6486 H 610.178 1.80105 -2.72451 0
M  V30 6487 H 608.837 -0.113239 -3.66425 0
M  V30 6488 H 608.485 2.21097 -4.51802 0
M  V30 6489 H 608.185 1.00052 -5.79019 0
M  V30 6490 H 609.709 1.93295 -5.79197 0
M  V30 6491 H 611.123 -0.337444 -5.72306 0
M  V30 6492 H 609.52 -1.10914 -5.89761 0
M  V30 6493 H 610.59 -1.60745 -4.57481 0
M  V30 6494 N 611.933 1.52934 -0.380664 0
M  V30 6495 C 612.863 2.29118 0.450268 0
M  V30 6496 C 613.844 1.32153 1.07096 0
M  V30 6497 O 615.029 1.61038 1.08537 0
M  V30 6498 C 612.159 3.09161 1.58231 0
M  V30 6499 C 611.113 4.13938 1.0881 0
M  V30 6500 C 610.439 4.82153 2.31155 0
M  V30 6501 C 611.739 5.22048 0.162146 0
M  V30 6502 H 613.433 2.98826 -0.185361 0
M  V30 6503 H 610.979 1.43715 -0.0905886 0
M  V30 6504 H 612.932 3.61211 2.17036 0
M  V30 6505 H 611.656 2.3717 2.2454 0
M  V30 6506 H 610.315 3.62855 0.522633 0
M  V30 6507 H 609.963 4.06719 2.95953 0
M  V30 6508 H 609.663 5.52966 1.98752 0
M  V30 6509 H 611.187 5.37004 2.90618 0
M  V30 6510 H 612.601 5.6951 0.658126 0
M  V30 6511 H 610.998 6.00057 -0.0717122 0
M  V30 6512 H 612.068 4.78398 -0.791438 0
M  V30 6513 N 613.412 0.11024 1.57214 0
M  V30 6514 C 614.344 -0.873497 2.11902 0
M  V30 6515 C 615.357 -1.23588 1.05971 0
M  V30 6516 O 616.546 -1.18636 1.33371 0
M  V30 6517 C 613.646 -2.17805 2.59643 0
M  V30 6518 C 612.819 -1.98869 3.89576 0
M  V30 6519 C 611.878 -3.12974 4.23006 0
M  V30 6520 O 610.904 -2.86272 4.91973 0
M  V30 6521 N 612.106 -4.39167 3.79622 0
M  V30 6522 H 614.871 -0.406317 2.96933 0
M  V30 6523 H 612.432 -0.074437 1.61729 0
M  V30 6524 H 614.424 -2.93117 2.79042 0
M  V30 6525 H 612.994 -2.55899 1.7954 0
M  V30 6526 H 612.214 -1.078 3.79174 0
M  V30 6527 H 613.502 -1.83512 4.74553 0
M  V30 6528 H 612.9 -4.63739 3.2398 0
M  V30 6529 H 611.457 -5.11379 4.04147 0
M  V30 6530 N 614.89 -1.56749 -0.16351 0
M  V30 6531 C 615.82 -2.00042 -1.20438 0
M  V30 6532 C 616.801 -0.877256 -1.45733 0
M  V30 6533 O 617.986 -1.1439 -1.56935 0
M  V30 6534 C 615.116 -2.36697 -2.54149 0
M  V30 6535 C 614.07 -3.52046 -2.43408 0
M  V30 6536 C 613.396 -3.74466 -3.81679 0
M  V30 6537 C 614.696 -4.85247 -1.93216 0
M  V30 6538 H 616.39 -2.87244 -0.844477 0
M  V30 6539 H 613.936 -1.38194 -0.40478 0
M  V30 6540 H 615.889 -2.65582 -3.27176 0
M  V30 6541 H 614.613 -1.46414 -2.91943 0
M  V30 6542 H 613.272 -3.23301 -1.72834 0
M  V30 6543 H 612.92 -2.81461 -4.1688 0
M  V30 6544 H 612.62 -4.52084 -3.75359 0
M  V30 6545 H 614.144 -4.0576 -4.5628 0
M  V30 6546 H 615.558 -5.12957 -2.56023 0
M  V30 6547 H 613.955 -5.66556 -1.97825 0
M  V30 6548 H 615.025 -4.7672 -0.88689 0
M  V30 6549 N 616.368 0.432326 -1.51554 0
M  V30 6550 C 617.278 1.55023 -1.76082 0
M  V30 6551 C 618.294 1.61593 -0.645265 0
M  V30 6552 O 619.47 1.78742 -0.928086 0
M  V30 6553 C 616.535 2.90964 -1.88523 0
M  V30 6554 C 615.596 2.9447 -3.12388 0
M  V30 6555 C 614.829 4.23926 -3.24225 0
M  V30 6556 O 615.052 5.16576 -2.4188 0
M  V30 6557 O 613.986 4.33818 -4.17235 0
M  V30 6558 H 617.812 1.37238 -2.70923 0
M  V30 6559 H 615.397 0.615845 -1.36117 0
M  V30 6560 H 617.279 3.71633 -1.98662 0
M  V30 6561 H 615.954 3.08865 -0.9687 0
M  V30 6562 H 614.861 2.12737 -3.07723 0
M  V30 6563 H 616.194 2.81514 -4.03746 0
M  V30 6564 N 617.846 1.41785 0.688094 0
M  V30 6565 C 618.794 1.44436 1.82321 0
M  V30 6566 C 619.788 0.321544 1.6632 0
M  V30 6567 O 620.994 0.493931 1.73091 0
M  V30 6568 H 617.369 0.452084 0.600936 0
M  V30 6569 H 619.34 2.40087 1.77202 0
M  V30 6570 C 618.089 1.35071 3.20392 0
M  V30 6571 H 617.412 2.2076 3.33324 0
M  V30 6572 H 618.852 1.40988 3.99873 0
M  V30 6573 C 617.311 0.0639127 3.36839 0
M  V30 6574 O 617.841 -0.888495 3.91751 0
M  V30 6575 N 616.047 -0.0146114 2.90596 0
M  V30 6576 H 615.594 0.761191 2.46097 0
M  V30 6577 H 615.552 -0.874988 3.01979 0
M  V30 6578 N 619.324 -0.923095 1.27737 0
M  V30 6579 C 620.552 -1.70525 1.17171 0
M  V30 6580 C 620.967 -1.86847 -0.270881 0
M  V30 6581 O 620.324 -1.38879 -1.18401 0
M  V30 6582 C 620.375 -3.10242 1.85559 0
M  V30 6583 O 620.096 -2.94683 3.24182 0
M  V30 6584 C 621.597 -4.04586 1.81176 0
M  V30 6585 H 618.817 -0.533347 0.407163 0
M  V30 6586 H 621.361 -1.15599 1.68692 0
M  V30 6587 H 619.516 -3.62014 1.3793 0
M  V30 6588 H 619.93 -3.83045 3.58297 0
M  V30 6589 H 621.404 -5.00119 2.33633 0
M  V30 6590 H 621.881 -4.3218 0.782099 0
M  V30 6591 H 622.487 -3.58741 2.2844 0
M  V30 6592 N 620.802 -1.09834 -1.13024 0
M  V30 6593 C 621.735 -0.685453 -2.17662 0
M  V30 6594 C 622.713 0.310142 -1.59615 0
M  V30 6595 O 623.897 0.21052 -1.87321 0
M  V30 6596 C 621.024 -0.0104476 -3.38698 0
M  V30 6597 C 620.07 -0.968522 -4.15358 0
M  V30 6598 S 620.903 -2.48272 -4.74469 0
M  V30 6599 C 622.059 -1.82025 -5.98847 0
M  V30 6600 H 622.292 -1.57187 -2.52348 0
M  V30 6601 H 619.825 -0.914728 -1.24387 0
M  V30 6602 H 621.783 0.372694 -4.08805 0
M  V30 6603 H 620.444 0.852673 -3.02305 0
M  V30 6604 H 619.637 -0.443373 -5.02046 0
M  V30 6605 H 619.239 -1.29327 -3.50928 0
M  V30 6606 H 621.531 -1.14678 -6.67724 0
M  V30 6607 H 622.474 -2.66645 -6.55977 0
M  V30 6608 H 622.882 -1.2874 -5.49624 0
M  V30 6609 N 622.28 1.30327 -0.886154 0
M  V30 6610 C 623.212 2.27079 -0.311072 0
M  V30 6611 C 624.225 1.53758 0.53502 0
M  V30 6612 O 625.414 1.74947 0.354378 0
M  V30 6613 C 622.514 3.33965 0.576228 0
M  V30 6614 C 621.687 4.36735 -0.241064 0
M  V30 6615 C 620.746 5.23028 0.576916 0
M  V30 6616 O 619.772 5.692 -0.000802231 0
M  V30 6617 N 620.974 5.49016 1.88579 0
M  V30 6618 H 623.739 2.77065 -1.14259 0
M  V30 6619 H 621.3 1.43519 -0.749258 0
M  V30 6620 H 623.292 3.88618 1.12953 0
M  V30 6621 H 621.862 2.839 1.30842 0
M  V30 6622 H 621.082 3.81932 -0.975805 0
M  V30 6623 H 622.37 5.02451 -0.801272 0
M  V30 6624 H 621.768 5.13288 2.37806 0
M  V30 6625 H 620.325 6.06539 2.38651 0
M  V30 6626 N 623.758 0.647228 1.43697 0
M  V30 6627 C 624.691 -0.097646 2.27991 0
M  V30 6628 C 625.669 -0.83571 1.3948 0
M  V30 6629 O 626.853 -0.836509 1.68922 0
M  V30 6630 C 623.98 -1.14484 3.18765 0
M  V30 6631 C 623.026 -0.505503 4.23494 0
M  V30 6632 S 623.859 0.716471 5.30685 0
M  V30 6633 C 625.015 -0.330339 6.25028 0
M  V30 6634 H 625.248 0.617417 2.90818 0
M  V30 6635 H 622.781 0.435881 1.4812 0
M  V30 6636 H 624.739 -1.74403 3.7161 0
M  V30 6637 H 623.4 -1.83219 2.55127 0
M  V30 6638 H 622.593 -1.29473 4.87086 0
M  V30 6639 H 622.195 0.0194377 3.73995 0
M  V30 6640 H 624.487 -1.19828 6.66819 0
M  V30 6641 H 625.43 0.270409 7.07583 0
M  V30 6642 H 625.838 -0.663459 5.60588 0
M  V30 6643 N 625.236 -1.5273 0.388769 0
M  V30 6644 C 626.461 -2.0647 -0.19621 0
M  V30 6645 C 626.886 -1.25865 -1.39784 0
M  V30 6646 O 626.244 -0.283562 -1.79069 0
M  V30 6647 C 626.292 -3.56456 -0.5451 0
M  V30 6648 O 625.396 -3.78426 -1.63912 0
M  V30 6649 H 624.737 -0.663599 -0.023067 0
M  V30 6650 H 627.267 -1.96898 0.556084 0
M  V30 6651 H 627.277 -3.99888 -0.809557 0
M  V30 6652 H 625.952 -4.14561 0.333417 0
M  V30 6653 H 624.529 -3.46884 -1.36842 0
M  V30 6654 N 626.714 -0.118576 -1.57153 0
M  V30 6655 C 627.644 0.828436 -2.1831 0
M  V30 6656 C 628.625 1.27758 -1.12303 0
M  V30 6657 O 629.81 1.34026 -1.40537 0
M  V30 6658 C 626.94 2.07876 -2.78217 0
M  V30 6659 C 625.894 1.76742 -3.89803 0
M  V30 6660 C 625.22 3.08801 -4.36516 0
M  V30 6661 C 626.52 1.03606 -5.11921 0
M  V30 6662 H 628.214 0.318824 -2.97698 0
M  V30 6663 H 625.76 0.151911 -1.43196 0
M  V30 6664 H 627.713 2.74584 -3.19659 0
M  V30 6665 H 626.437 2.61161 -1.96118 0
M  V30 6666 H 625.096 1.12424 -3.48936 0
M  V30 6667 H 624.744 3.6002 -3.51276 0
M  V30 6668 H 624.444 2.88743 -5.11763 0
M  V30 6669 H 625.968 3.76627 -4.80608 0
M  V30 6670 H 627.382 1.60467 -5.50385 0
M  V30 6671 H 625.779 0.936454 -5.92748 0
M  V30 6672 H 626.849 0.0227421 -4.84895 0
M  V30 6673 N 628.193 1.56834 0.155195 0
M  V30 6674 C 629.14 1.97646 1.19184 0
M  V30 6675 C 630.11 0.842788 1.4313 0
M  V30 6676 O 631.295 1.1042 1.55602 0
M  V30 6677 C 628.435 2.35527 2.52232 0
M  V30 6678 C 627.548 3.62147 2.35529 0
M  V30 6679 C 626.683 3.89167 3.61555 0
M  V30 6680 C 625.722 5.09084 3.39853 0
M  V30 6681 N 624.859 5.32156 4.5799 0
M  V30 6682 H 629.699 2.8601 0.836802 0
M  V30 6683 H 627.236 1.41507 0.401758 0
M  V30 6684 H 629.194 2.55516 3.29799 0
M  V30 6685 H 627.824 1.50253 2.85699 0
M  V30 6686 H 626.876 3.4998 1.49057 0
M  V30 6687 H 628.188 4.49871 2.15448 0
M  V30 6688 H 627.342 4.09611 4.47553 0
M  V30 6689 H 626.081 2.9985 3.84632 0
M  V30 6690 H 625.086 4.88522 2.52243 0
M  V30 6691 H 626.311 5.99947 3.18183 0
M  V30 6692 H 624.257 4.45791 4.81255 0
M  V30 6693 H 624.174 6.14133 4.40882 0
M  V30 6694 H 625.442 5.57091 5.45225 0
M  V30 6695 N 629.671 -0.424282 1.51781 0
M  V30 6696 C 630.948 -1.18464 1.55646 0
M  V30 6697 C 631.328 -2.08529 0.328438 0
M  V30 6698 O 630.676 -2.17969 -0.685693 0
M  V30 6699 C 630.886 -1.97514 2.87731 0
M  V30 6700 C 632.234 -2.54106 3.40169 0
M  V30 6701 O 633.258 -2.07711 2.89369 0
M  V30 6702 O 632.117 -3.38759 4.28841 0
M  V30 6703 H 629.211 -0.540055 0.626314 0
M  V30 6704 H 631.757 -0.432291 1.64102 0
M  V30 6705 H 630.529 -1.31444 3.68562 0
M  V30 6706 H 630.152 -2.79787 2.82498 0
M  V30 6707 N 631.149 -1.42148 -0.680565 0
M  V30 6708 C 632.079 -1.4796 -1.80638 0
M  V30 6709 C 633.06 -0.336728 -1.66734 0
M  V30 6710 O 634.245 -0.550247 -1.86242 0
M  V30 6711 C 631.375 -1.37569 -3.18892 0
M  V30 6712 C 630.329 -2.49823 -3.47524 0
M  V30 6713 C 629.655 -2.24491 -4.85291 0
M  V30 6714 C 630.955 -3.92144 -3.44994 0
M  V30 6715 H 632.649 -2.42184 -1.76032 0
M  V30 6716 H 630.195 -1.16566 -0.845481 0
M  V30 6717 H 632.148 -1.40243 -3.97379 0
M  V30 6718 H 630.872 -0.398357 -3.24162 0
M  V30 6719 H 629.531 -2.46455 -2.71395 0
M  V30 6720 H 629.179 -1.25066 -4.87204 0
M  V30 6721 H 628.879 -2.99722 -5.05411 0
M  V30 6722 H 630.403 -2.28906 -5.66069 0
M  V30 6723 H 631.817 -3.97145 -4.13459 0
M  V30 6724 H 630.214 -4.67179 -3.76648 0
M  V30 6725 H 631.284 -4.19225 -2.43676 0
M  V30 6726 N 632.627 0.916307 -1.28225 0
M  V30 6727 C 633.557 2.0352 -1.14464 0
M  V30 6728 C 634.538 1.70045 -0.0430844 0
M  V30 6729 O 635.723 1.92954 -0.219619 0
M  V30 6730 C 632.853 3.37889 -0.803027 0
M  V30 6731 C 631.807 3.85516 -1.85908 0
M  V30 6732 C 631.133 5.1682 -1.37116 0
M  V30 6733 C 632.433 4.07655 -3.26519 0
M  V30 6734 H 634.127 2.1529 -2.08064 0
M  V30 6735 H 631.673 1.03446 -1.00174 0
M  V30 6736 H 633.626 4.15654 -0.693537 0
M  V30 6737 H 632.35 3.26164 0.168674 0
M  V30 6738 H 631.009 3.09953 -1.95767 0
M  V30 6739 H 630.657 5.01497 -0.38859 0
M  V30 6740 H 630.357 5.49657 -2.07728 0
M  V30 6741 H 631.881 5.97143 -1.27484 0
M  V30 6742 H 633.295 4.75953 -3.19596 0
M  V30 6743 H 631.692 4.51818 -3.94943 0
M  V30 6744 H 632.762 3.12553 -3.70727 0
M  V30 6745 O 634.144 1.22616 1.05108 0
M  V30 6746 H 634.835 0.992769 1.66324 0
M  V30 END ATOM
M  V30 BEGIN BOND
M  V30 END BOND
M  V30 END CTAB
M  END
$$$$
