drugbank_target|P36275 Head decoration protein (DB03929)
 OpenBabel12092120283D

  0  0  0     0  0            999 V3000
M  V30 BEGIN CTAB
M  V30 COUNTS 1681 1700 0 0 0
M  V30 BEGIN ATOM
M  V30 1 H -0.908 1.98254 -0.117106 0
M  V30 2 N 0 1.576 0 0
M  V30 3 C 0.933 2.03868 1.02534 0
M  V30 4 C 1.911 0.928543 1.3348 0
M  V30 5 O 3.095 1.19667 1.45644 0
M  V30 6 C 0.222 2.43627 2.35294 0
M  V30 7 C -0.732 3.65373 2.2001 0
M  V30 8 S 0.101 5.13292 1.52614 0
M  V30 9 C 1.257 5.56322 2.86805 0
M  V30 10 H 1.49 2.90518 0.631377 0
M  V30 11 H -0.977 1.52953 0.210867 0
M  V30 12 H 0.981 2.67203 3.11629 0
M  V30 13 H -0.358 1.57376 2.7183 0
M  V30 14 H -1.165 3.90944 3.18086 0
M  V30 15 H -1.563 3.418 1.51819 0
M  V30 16 H 0.729 5.58782 3.83104 0
M  V30 17 H 1.672 6.56266 2.65933 0
M  V30 18 H 2.08 4.83886 2.90714 0
M  V30 19 N 1.4781 -0.272755 1.55222 0
M  V30 20 C 2.7241 -1.00581 1.761 0
M  V30 21 C 3.0571 -1.85932 0.560625 0
M  V30 22 O 2.3321 -1.89416 -0.441801 0
M  V30 23 C 2.6151 -1.88816 3.06628 0
M  V30 24 C 2.4681 -1.06457 4.37021 0
M  V30 25 C 3.7871 -2.8752 3.33197 0
M  V30 26 H 0.9061 -0.364244 0.640699 0
M  V30 27 H 3.5481 -0.278189 1.87952 0
M  V30 28 H 1.6981 -2.50856 2.96654 0
M  V30 29 H 3.3701 -0.464863 4.58952 0
M  V30 30 H 1.6131 -0.368043 4.32236 0
M  V30 31 H 2.2841 -1.71514 5.24678 0
M  V30 32 H 4.7601 -2.35615 3.42965 0
M  V30 33 H 3.6361 -3.46399 4.25792 0
M  V30 34 H 3.8971 -3.62657 2.52849 0
M  V30 35 N 2.9562 -1.48159 -0.537278 0
M  V30 36 C 4.1842 -1.59454 -1.31841 0
M  V30 37 C 4.5992 -0.252065 -1.8711 0
M  V30 38 O 3.9562 0.757621 -1.66031 0
M  V30 39 C 4.0072 -2.63546 -2.47439 0
M  V30 40 O 3.7282 -3.92583 -1.94449 0
M  V30 41 C 5.2292 -2.85212 -3.39366 0
M  V30 42 H 2.4492 -0.53785 -0.401196 0
M  V30 43 H 4.9932 -1.93932 -0.648891 0
M  V30 44 H 3.1482 -2.31946 -3.1029 0
M  V30 45 H 3.5622 -4.49629 -2.70063 0
M  V30 46 H 5.0362 -3.61863 -4.16844 0
M  V30 47 H 5.5132 -1.93765 -3.94147 0
M  V30 48 H 6.1192 -3.18086 -2.82314 0
M  V30 49 N 4.4343 0.785586 -1.36625 0
M  V30 50 C 5.3813 1.89838 -1.31264 0
M  V30 51 C 6.3513 1.65115 -0.180633 0
M  V30 52 O 7.5363 1.87222 -0.36777 0
M  V30 53 C 4.6763 3.26706 -1.11163 0
M  V30 54 C 3.7893 3.63476 -2.33472 0
M  V30 55 C 2.9243 4.89481 -2.06353 0
M  V30 56 C 1.9633 5.18941 -3.24602 0
M  V30 57 N 1.1003 6.36131 -2.97123 0
M  V30 58 H 5.9403 1.93756 -2.26413 0
M  V30 59 H 3.4773 0.947454 -1.12524 0
M  V30 60 H 5.4353 4.05639 -0.975337 0
M  V30 61 H 4.0653 3.222 -0.196674 0
M  V30 62 H 3.1173 2.79636 -2.57891 0
M  V30 63 H 4.4293 3.81193 -3.21704 0
M  V30 64 H 3.5833 5.76288 -1.89675 0
M  V30 65 H 2.3223 4.73841 -1.15437 0
M  V30 66 H 1.3273 4.30615 -3.41834 0
M  V30 67 H 2.5523 5.36498 -4.16349 0
M  V30 68 H 0.4983 6.21875 -2.08823 0
M  V30 69 H 0.4153 6.54198 -3.78894 0
M  V30 70 H 1.6833 7.2591 -2.84033 0
M  V30 71 N 5.9124 1.20967 1.01018 0
M  V30 72 C 7.1404 1.04956 1.78303 0
M  V30 73 C 7.5554 -0.400915 1.84494 0
M  V30 74 O 6.9124 -1.27826 1.30257 0
M  V30 75 C 6.9634 1.63403 3.22462 0
M  V30 76 O 6.6844 3.02775 3.16637 0
M  V30 77 C 8.1854 1.52432 4.16268 0
M  V30 78 H 5.4054 0.368858 0.560522 0
M  V30 79 H 7.9494 1.60193 1.27116 0
M  V30 80 H 6.1044 1.1227 3.70775 0
M  V30 81 H 6.5184 3.30626 4.07169 0
M  V30 82 H 7.9924 1.98078 5.15237 0
M  V30 83 H 8.4694 0.477875 4.36592 0
M  V30 84 H 9.0754 2.02787 3.73841 0
M  V30 85 N 7.3905 -1.2043 1.01659 0
M  V30 86 C 8.6395 -1.89118 0.701237 0
M  V30 87 C 8.9525 -1.79705 -0.772358 0
M  V30 88 O 10.1585 -2.43528 -1.20026 0
M  V30 89 C 8.6145 -3.39168 1.20388 0
M  V30 90 C 8.2225 -3.57166 2.70438 0
M  V30 91 C 9.9665 -4.1341 0.963953 0
M  V30 92 C 7.8735 -5.01042 3.14183 0
M  V30 93 H 6.8035 -0.708267 0.2586 0
M  V30 94 H 9.4545 -1.36239 1.22927 0
M  V30 95 H 7.8365 -3.91369 0.603824 0
M  V30 96 H 9.0105 -3.15351 3.35992 0
M  V30 97 H 7.3255 -2.96294 2.92572 0
M  V30 98 H 9.9225 -5.19491 1.26621 0
M  V30 99 H 10.2655 -4.16181 -0.099578 0
M  V30 100 H 10.7985 -3.67309 1.52738 0
M  V30 101 H 7.5375 -5.03426 4.19812 0
M  V30 102 H 7.0575 -5.43668 2.53348 0
M  V30 103 H 8.7365 -5.69623 3.0682 0
M  V30 104 N 8.8686 -0.792821 -1.36206 0
M  V30 105 C 10.0966 -0.378825 -2.03402 0
M  V30 106 C 10.5116 1.00586 -1.59774 0
M  V30 107 O 9.8686 1.64574 -0.788764 0
M  V30 108 C 9.9196 -0.43683 -3.58851 0
M  V30 109 O 9.6406 -1.76691 -4.00889 0
M  V30 110 C 11.1416 -0.0138943 -4.43298 0
M  V30 111 H 8.3616 -0.155673 -0.652692 0
M  V30 112 H 10.9056 -1.07261 -1.74113 0
M  V30 113 H 9.0606 0.208575 -3.86838 0
M  V30 114 H 9.4746 -1.72011 -4.95492 0
M  V30 115 H 10.9486 -0.105615 -5.51899 0
M  V30 116 H 11.4256 1.03915 -4.2673 0
M  V30 117 H 12.0316 -0.63192 -4.20579 0
M  V30 118 N 10.3467 1.47872 -0.545128 0
M  V30 119 C 11.2567 2.33633 0.212746 0
M  V30 120 C 12.2727 1.4744 0.923983 0
M  V30 121 O 13.4487 1.80393 0.895572 0
M  V30 122 C 10.5137 3.23884 1.23693 0
M  V30 123 C 9.5747 4.25961 0.534417 0
M  V30 124 C 8.8077 5.11899 1.5098 0
M  V30 125 O 9.0307 5.00077 2.7437 0
M  V30 126 O 7.9647 5.92831 1.0409 0
M  V30 127 H 11.7907 2.99714 -0.490416 0
M  V30 128 H 9.3757 1.46235 -0.305871 0
M  V30 129 H 11.2577 3.79666 1.82843 0
M  V30 130 H 9.9327 2.60446 1.92222 0
M  V30 131 H 8.8397 3.73972 -0.0979679 0
M  V30 132 H 10.1727 4.92079 -0.109213 0
M  V30 133 N 11.8248 0.280983 1.55075 0
M  V30 134 C 12.7568 -0.637268 2.20163 0
M  V30 135 C 13.7698 -1.11298 1.18813 0
M  V30 136 O 14.9588 -1.03388 1.4551 0
M  V30 137 C 12.0588 -1.88199 2.81841 0
M  V30 138 C 11.2318 -1.55211 4.08936 0
M  V30 139 C 10.2908 -2.64991 4.54606 0
M  V30 140 O 9.3168 -2.30929 5.2025 0
M  V30 141 N 10.5188 -3.95161 4.25238 0
M  V30 142 H 13.2838 -0.0801694 2.99593 0
M  V30 143 H 10.8448 0.102329 1.61576 0
M  V30 144 H 12.8368 -2.60948 3.09335 0
M  V30 145 H 11.4068 -2.34799 2.06369 0
M  V30 146 H 10.6268 -0.658185 3.88666 0
M  V30 147 H 11.9148 -1.30681 4.91732 0
M  V30 148 H 11.3128 -4.25653 3.72607 0
M  V30 149 H 9.8698 -4.6427 4.5749 0
M  V30 150 N 13.3029 -1.57598 0.00835791 0
M  V30 151 C 14.7189 -1.55764 -0.347822 0
M  V30 152 C 14.9189 -1.01186 -1.74252 0
M  V30 153 O 13.9749 -0.649371 -2.44007 0
M  V30 154 C 15.2879 -2.99927 -0.215407 0
M  V30 155 C 16.8359 -3.11656 -0.289725 0
M  V30 156 C 17.3109 -4.57621 -0.18634 0
M  V30 157 N 18.8019 -4.62557 -0.243978 0
M  V30 158 C 19.5369 -5.73094 -0.18745 0
M  V30 159 N 19.0329 -6.92753 -0.0810331 0
M  V30 160 N 20.8259 -5.61588 -0.239925 0
M  V30 161 H 12.9769 -1.91411 0.92062 0
M  V30 162 H 15.2399 -0.879562 0.353659 0
M  V30 163 H 14.9459 -3.43729 0.744512 0
M  V30 164 H 14.8199 -3.63865 -0.994097 0
M  V30 165 H 17.2069 -2.67779 -1.24009 0
M  V30 166 H 17.2879 -2.5048 0.51898 0
M  V30 167 H 16.9319 -5.02174 0.760519 0
M  V30 168 H 16.8619 -5.16752 -1.01364 0
M  V30 169 H 19.3529 -3.76481 -0.327217 0
M  V30 170 H 19.6659 -7.72787 -0.0440241 0
M  V30 171 H 18.0109 -6.94984 -0.0465419 0
M  V30 172 H 21.2019 -4.66996 -0.321317 0
M  V30 173 H 21.3749 -6.47714 -0.192407 0
M  V30 174 N 14.781 0.264519 -1.55364 0
M  V30 175 C 15.744 1.31046 -1.88042 0
M  V30 176 C 16.744 1.41943 -0.755569 0
M  V30 177 O 17.934 1.40947 -1.02369 0
M  V30 178 C 15.066 2.69067 -2.09323 0
M  V30 179 H 16.259 1.03297 -2.81549 0
M  V30 180 H 13.812 0.502989 -1.47986 0
M  V30 181 H 14.547 3.01982 -1.18226 0
M  V30 182 H 14.332 2.62542 -2.91229 0
M  V30 183 H 15.822 3.44623 -2.35848 0
M  V30 184 N 16.2591 1.48442 0.529413 0
M  V30 185 C 17.1691 1.6569 1.66084 0
M  V30 186 C 18.1851 0.539432 1.65427 0
M  V30 187 O 19.3611 0.810572 1.84368 0
M  V30 188 C 16.4261 1.69315 3.02545 0
M  V30 189 C 15.4871 2.92694 3.14052 0
M  V30 190 C 14.7201 2.96137 4.44003 0
M  V30 191 O 14.9431 2.07973 5.31134 0
M  V30 192 O 13.8771 3.88312 4.59888 0
M  V30 193 H 17.7031 2.61483 1.54469 0
M  V30 194 H 15.2881 1.3185 0.702567 0
M  V30 195 H 17.1701 1.74217 3.83701 0
M  V30 196 H 15.8451 0.766966 3.14483 0
M  V30 197 H 14.7521 2.93324 2.32189 0
M  V30 198 H 16.0851 3.84699 3.0703 0
M  V30 199 N 17.7372 -0.778329 1.37039 0
M  V30 200 C 18.9832 -1.53892 1.32079 0
M  V30 201 C 19.3162 -1.9396 -0.0965386 0
M  V30 202 O 18.5912 -1.63568 -1.05242 0
M  V30 203 C 18.8742 -2.80847 2.25382 0
M  V30 204 C 18.7272 -2.47076 3.75864 0
M  V30 205 C 20.0462 -3.82741 2.1725 0
M  V30 206 H 17.1652 -0.558303 0.48111 0
M  V30 207 H 19.8072 -0.893397 1.67685 0
M  V30 208 H 17.9572 -3.35931 1.95148 0
M  V30 209 H 19.6292 -1.97957 4.16666 0
M  V30 210 H 17.8722 -1.79863 3.94755 0
M  V30 211 H 18.5432 -3.37798 4.36574 0
M  V30 212 H 21.0192 -3.37133 2.43887 0
M  V30 213 H 19.8952 -4.69303 2.84686 0
M  V30 214 H 20.1562 -4.2652 1.16331 0
M  V30 215 N 19.2153 -1.21501 -1.00376 0
M  V30 216 C 20.6313 -0.972629 -1.26539 0
M  V30 217 C 20.8313 0.340257 -1.98606 0
M  V30 218 O 19.8873 1.06561 -2.28913 0
M  V30 219 C 21.2003 -2.16404 -2.08781 0
M  V30 220 C 22.7483 -2.20643 -2.22004 0
M  V30 221 C 23.2233 -3.39306 -3.07629 0
M  V30 222 N 24.7143 -3.39401 -3.15217 0
M  V30 223 C 25.4493 -4.27867 -3.81729 0
M  V30 224 N 24.9453 -5.26533 -4.5026 0
M  V30 225 N 26.7383 -4.15672 -3.78382 0
M  V30 226 H 18.8893 -2.05929 -0.520281 0
M  V30 227 H 21.1523 -0.901803 -0.292328 0
M  V30 228 H 20.8583 -3.11554 -1.63178 0
M  V30 229 H 20.7323 -2.15567 -3.09533 0
M  V30 230 H 23.1193 -1.26048 -2.66825 0
M  V30 231 H 23.2003 -2.25523 -1.20718 0
M  V30 232 H 22.8443 -4.34195 -2.63509 0
M  V30 233 H 22.7743 -3.31665 -4.09031 0
M  V30 234 H 25.2653 -2.67997 -2.66432 0
M  V30 235 H 25.5783 -5.90337 -4.98721 0
M  V30 236 H 23.9233 -5.30457 -4.49044 0
M  V30 237 H 27.1143 -3.3785 -3.23998 0
M  V30 238 H 27.2873 -4.84825 -4.2994 0
M  V30 239 N 20.6934 1.19889 -1.02296 0
M  V30 240 C 21.9424 1.88743 -0.711257 0
M  V30 241 C 22.2554 1.80112 0.762817 0
M  V30 242 O 23.4614 2.44161 1.18733 0
M  V30 243 C 21.9174 3.38525 -1.22185 0
M  V30 244 C 21.5254 3.55727 -2.72328 0
M  V30 245 C 23.2694 4.12893 -0.985864 0
M  V30 246 C 21.1764 4.99369 -3.16835 0
M  V30 247 H 20.1064 0.706885 -0.262353 0
M  V30 248 H 22.7574 1.35586 -1.23648 0
M  V30 249 H 21.1394 3.91044 -0.624571 0
M  V30 250 H 22.3134 3.13564 -3.3766 0
M  V30 251 H 20.6284 2.94739 -2.9414 0
M  V30 252 H 23.2254 5.18813 -1.29374 0
M  V30 253 H 23.5684 4.16228 0.0775055 0
M  V30 254 H 24.1014 3.66494 -1.54684 0
M  V30 255 H 20.8404 5.01193 -4.22476 0
M  V30 256 H 20.3604 5.42317 -2.56228 0
M  V30 257 H 22.0394 5.67988 -3.09837 0
M  V30 258 N 22.1715 0.800033 1.35784 0
M  V30 259 C 23.4185 0.377342 1.98953 0
M  V30 260 C 23.7465 -1.05378 1.6348 0
M  V30 261 O 23.0015 -1.74459 0.886707 0
M  V30 262 C 23.3005 0.500276 3.53881 0
M  V30 263 C 22.9665 1.89375 4.09204 0
M  V30 264 C 21.6285 2.27499 4.24025 0
M  V30 265 C 23.9805 2.8057 4.39238 0
M  V30 266 C 21.3085 3.562 4.66195 0
M  V30 267 C 23.6605 4.0871 4.82844 0
M  V30 268 C 22.3245 4.46843 4.95871 0
M  V30 269 H 21.5945 0.138079 0.728021 0
M  V30 270 H 24.2415 1.01955 1.62103 0
M  V30 271 H 22.5465 -0.225405 3.91151 0
M  V30 272 H 24.2435 0.154097 4.00704 0
M  V30 273 H 20.8335 1.58753 3.98115 0
M  V30 274 H 25.0175 2.52367 4.27346 0
M  V30 275 H 20.2735 3.85602 4.74469 0
M  V30 276 H 24.4475 4.79481 5.05046 0
M  V30 277 H 22.0745 5.46623 5.28306 0
M  V30 278 N 23.6496 -1.47581 0.552962 0
M  V30 279 C 24.6126 -2.28439 -0.186605 0
M  V30 280 C 25.6126 -1.36706 -0.84665 0
M  V30 281 O 26.8026 -1.59378 -0.703164 0
M  V30 282 C 23.9346 -3.16264 -1.2724 0
M  V30 283 H 25.1276 -2.95294 0.523609 0
M  V30 284 H 22.6806 -1.532 0.309745 0
M  V30 285 H 23.4156 -2.54091 -2.01514 0
M  V30 286 H 23.2006 -3.83769 -0.803968 0
M  V30 287 H 24.6906 -3.77198 -1.79196 0
M  V30 288 N 25.1277 -0.289203 -1.54924 0
M  V30 289 C 26.3757 0.322879 -1.99504 0
M  V30 290 C 26.6967 1.55313 -1.1791 0
M  V30 291 O 25.9667 1.94001 -0.272097 0
M  V30 292 H 24.5467 0.122291 -0.736922 0
M  V30 293 H 27.2087 -0.397802 -1.90797 0
M  V30 294 H 26.3047 0.603061 -3.06218 0
M  V30 295 N 26.6058 1.57591 -0.0167156 0
M  V30 296 C 27.5538 2.10604 0.987353 0
M  V30 297 C 28.5478 1.02977 1.34507 0
M  V30 298 O 29.7538 1.21425 1.32875 0
M  V30 299 H 26.1288 0.672695 0.336134 0
M  V30 300 H 28.0998 2.93925 0.514817 0
M  V30 301 C 26.8488 2.6382 2.26483 0
M  V30 302 H 26.1718 3.46278 1.99829 0
M  V30 303 H 27.6118 3.04573 2.94977 0
M  V30 304 C 26.0708 1.55992 2.9861 0
M  V30 305 O 26.6008 0.952521 3.90243 0
M  V30 306 N 24.8068 1.28335 2.60727 0
M  V30 307 H 24.3538 1.77914 1.86291 0
M  V30 308 H 24.3118 0.564115 3.09298 0
M  V30 309 N 28.0839 -0.256276 1.55502 0
M  V30 310 C 29.3609 -1.00789 1.67633 0
M  V30 311 C 29.7409 -2.03706 0.553826 0
M  V30 312 O 29.0889 -2.24145 -0.443969 0
M  V30 313 C 29.2989 -1.64968 3.07549 0
M  V30 314 C 30.6469 -2.15505 3.65845 0
M  V30 315 O 31.6709 -1.74925 3.1029 0
M  V30 316 O 30.5299 -2.89986 4.63217 0
M  V30 317 H 27.6239 -0.468553 0.681459 0
M  V30 318 H 30.1699 -0.250806 1.67836 0
M  V30 319 H 28.9419 -0.904785 3.80696 0
M  V30 320 H 28.5649 -2.47321 3.11317 0
M  V30 321 N 29.562 -1.4872 -0.521534 0
M  V30 322 C 30.973 -1.50607 -1.10337 0
M  V30 323 C 31.324 -0.280612 -1.94183 0
M  V30 324 O 30.449 0.611507 -2.0758 0
M  V30 325 C 31.044 -2.72903 -2.00772 0
M  V30 326 C 29.603 -2.77634 -2.54158 0
M  V30 327 C 28.75 -2.44241 -1.31307 0
M  V30 328 H 31.701 -1.55714 -0.306388 0
M  V30 329 H 31.722 -2.519 -2.85178 0
M  V30 330 H 31.234 -3.62077 -1.39721 0
M  V30 331 H 29.335 -1.92689 -3.18907 0
M  V30 332 H 29.448 -3.79283 -2.92714 0
M  V30 333 H 27.812 -1.95577 -1.63161 0
M  V30 334 H 28.595 -3.35666 -0.719943 0
M  V30 335 N 31.0401 0.771051 -1.3745 0
M  V30 336 C 32.0031 1.86598 -1.33093 0
M  V30 337 C 33.0031 1.59076 -0.234845 0
M  V30 338 O 34.1931 1.67145 -0.490732 0
M  V30 339 C 31.3251 3.23747 -1.06773 0
M  V30 340 H 32.5181 1.91873 -2.30488 0
M  V30 341 H 30.0711 0.970876 -1.2249 0
M  V30 342 H 30.8061 3.24148 -0.099129 0
M  V30 343 H 30.5911 3.45115 -1.86112 0
M  V30 344 H 32.0811 4.03824 -1.06377 0
M  V30 345 N 32.5182 1.22032 0.997298 0
M  V30 346 C 33.4682 0.953838 2.07089 0
M  V30 347 C 34.4522 -0.0938669 1.60626 0
M  V30 348 O 35.6442 0.116078 1.76619 0
M  V30 349 C 32.7732 0.528726 3.39204 0
M  V30 350 C 31.8592 1.61092 3.92314 0
M  V30 351 N 32.2502 2.83768 4.18699 0
M  V30 352 C 30.5482 1.48158 4.20672 0
M  V30 353 C 31.2492 3.53715 4.61802 0
M  V30 354 N 30.2252 2.81174 4.65233 0
M  V30 355 H 34.0272 1.88577 2.25424 0
M  V30 356 H 31.5412 1.11719 1.17867 0
M  V30 357 H 33.5382 0.31915 4.15677 0
M  V30 358 H 32.1982 -0.39635 3.22272 0
M  V30 359 H 33.2092 3.20238 4.07023 0
M  V30 360 H 29.8862 0.622369 4.12835 0
M  V30 361 H 31.2762 4.58793 4.90875 0
M  V30 362 N 33.9963 -1.19345 1.0293 0
M  V30 363 C 35.2243 -1.92997 0.745644 0
M  V30 364 C 35.6393 -1.75519 -0.695589 0
M  V30 365 O 34.9963 -1.07737 -1.47306 0
M  V30 366 C 35.0473 -3.44741 1.08792 0
M  V30 367 O 34.7683 -3.61658 2.47256 0
M  V30 368 C 36.2693 -4.35515 0.827129 0
M  V30 369 H 33.4893 -0.613042 0.272801 0
M  V30 370 H 36.0333 -1.51473 1.3739 0
M  V30 371 H 34.1883 -3.84097 0.504832 0
M  V30 372 H 34.6023 -4.55514 2.60015 0
M  V30 373 H 36.0763 -5.40589 1.11658 0
M  V30 374 H 36.5533 -4.38552 -0.238436 0
M  V30 375 H 37.1593 -4.01841 1.39297 0
M  V30 376 N 35.4744 -0.807222 -1.35358 0
M  V30 377 C 36.4374 -0.223665 -2.28106 0
M  V30 378 C 37.4374 0.589354 -1.4961 0
M  V30 379 O 38.6274 0.407745 -1.69361 0
M  V30 380 C 35.7594 0.688149 -3.33882 0
M  V30 381 H 36.9524 -1.04169 -2.81227 0
M  V30 382 H 34.5054 -0.577921 -1.45223 0
M  V30 383 H 35.2404 1.52984 -2.85948 0
M  V30 384 H 35.0254 0.10687 -3.91954 0
M  V30 385 H 36.5154 1.09075 -4.03104 0
M  V30 386 N 36.9525 1.47285 -0.560781 0
M  V30 387 C 38.1805 2.06855 -0.0430262 0
M  V30 388 C 38.5955 1.41291 1.25229 0
M  V30 389 O 37.9525 0.510648 1.7521 0
M  V30 390 C 38.0035 3.61178 0.152518 0
M  V30 391 O 37.7245 4.24285 -1.0915 0
M  V30 392 C 39.2255 4.37624 0.707145 0
M  V30 393 H 36.4455 0.669319 -0.0474652 0
M  V30 394 H 38.9895 1.89237 -0.77521 0
M  V30 395 H 37.1445 3.78298 0.834843 0
M  V30 396 H 37.5585 5.16868 -0.891482 0
M  V30 397 H 39.0325 5.46271 0.793244 0
M  V30 398 H 39.5095 4.04152 1.71923 0
M  V30 399 H 40.1155 4.25257 0.0604027 0
M  V30 400 N 38.4306 0.297415 1.54768 0
M  V30 401 C 39.6786 -0.312295 1.99673 0
M  V30 402 C 39.9996 -1.54686 1.18732 0
M  V30 403 O 39.2696 -1.93854 0.282382 0
M  V30 404 H 37.8496 -0.118381 0.73756 0
M  V30 405 H 40.5116 0.407915 1.90583 0
M  V30 406 H 39.6076 -0.586813 3.06534 0
M  V30 407 N 39.9087 -1.5758 0.0250728 0
M  V30 408 C 41.1337 -1.96337 -0.668317 0
M  V30 409 C 41.5587 -0.901314 -1.651 0
M  V30 410 O 40.9167 0.138187 -1.80773 0
M  V30 411 C 40.9647 -3.34191 -1.35457 0
M  V30 412 O 40.0687 -3.30269 -2.46974 0
M  V30 413 H 39.4097 -0.640281 -0.175887 0
M  V30 414 H 41.9397 -2.0442 0.0857224 0
M  V30 415 H 41.9497 -3.70331 -1.71228 0
M  V30 416 H 40.6247 -4.11036 -0.634218 0
M  V30 417 H 39.2017 -3.05841 -2.13344 0
M  V30 418 N 41.3868 0.248026 -1.55636 0
M  V30 419 C 42.6118 0.998028 -1.81808 0
M  V30 420 C 43.0368 1.78207 -0.601979 0
M  V30 421 O 42.3948 1.75653 0.448961 0
M  V30 422 C 42.4428 1.9125 -3.05705 0
M  V30 423 O 41.5468 3.00406 -2.82542 0
M  V30 424 H 40.8878 0.284045 -0.600179 0
M  V30 425 H 43.4178 0.269357 -2.02819 0
M  V30 426 H 43.4278 2.32737 -3.35108 0
M  V30 427 H 42.1028 1.33602 -3.93857 0
M  V30 428 H 40.6798 2.63056 -2.64303 0
M  V30 429 N 42.8649 1.48995 0.513639 0
M  V30 430 C 44.1129 1.57531 1.26604 0
M  V30 431 C 44.4339 0.258236 1.93283 0
M  V30 432 O 43.7039 -0.721502 1.8213 0
M  V30 433 H 42.2839 0.580387 0.470276 0
M  V30 434 H 44.9459 1.85552 0.596373 0
M  V30 435 H 44.0419 2.36486 2.03669 0
M  V30 436 N 44.343 -0.763751 1.37857 0
M  V30 437 C 45.592 -1.51789 1.32827 0
M  V30 438 C 45.905 -1.95426 -0.0823719 0
M  V30 439 O 47.111 -2.70298 -0.255172 0
M  V30 440 C 45.567 -2.74133 2.33193 0
M  V30 441 C 45.175 -2.37562 3.79827 0
M  V30 442 C 46.919 -3.52054 2.37188 0
M  V30 443 C 44.826 -3.56456 4.71904 0
M  V30 444 H 43.756 -0.569896 0.493695 0
M  V30 445 H 46.407 -0.835822 1.63359 0
M  V30 446 H 44.789 -3.4427 1.9569 0
M  V30 447 H 45.963 -1.75157 4.26212 0
M  V30 448 H 44.278 -1.72798 3.78853 0
M  V30 449 H 46.875 -4.40437 3.03182 0
M  V30 450 H 47.218 -3.92486 1.38782 0
M  V30 451 H 47.751 -2.88921 2.7344 0
M  V30 452 H 44.49 -3.21099 5.71468 0
M  V30 453 H 44.01 -4.17938 4.30218 0
M  V30 454 H 45.689 -4.23168 4.89426 0
M  V30 455 N 45.8211 -1.22559 -0.990812 0
M  V30 456 C 47.0461 -1.07862 -1.77145 0
M  V30 457 C 47.4711 0.366447 -1.84496 0
M  V30 458 O 46.8291 1.26478 -1.29896 0
M  V30 459 C 46.8771 -1.69686 -3.18181 0
M  V30 460 O 45.9811 -0.951946 -4.01263 0
M  V30 461 H 45.3221 -0.378712 -0.545411 0
M  V30 462 H 47.8521 -1.62399 -1.2445 0
M  V30 463 H 47.8621 -1.74496 -3.68802 0
M  V30 464 H 46.5371 -2.74841 -3.12146 0
M  V30 465 H 45.1141 -0.980011 -3.59792 0
M  V30 466 N 47.2992 1.18797 -1.03562 0
M  V30 467 C 48.5242 1.9314 -0.755764 0
M  V30 468 C 48.9492 1.7537 0.68022 0
M  V30 469 O 48.3072 1.06046 1.47051 0
M  V30 470 C 48.3552 3.42747 -1.12058 0
M  V30 471 O 47.4592 4.11683 -0.243124 0
M  V30 472 H 46.8002 0.602724 -0.278604 0
M  V30 473 H 49.3302 1.50678 -1.3841 0
M  V30 474 H 49.3402 3.93437 -1.08035 0
M  V30 475 H 48.0152 3.55002 -2.16672 0
M  V30 476 H 46.5922 3.71323 -0.342539 0
M  V30 477 N 48.7773 0.814389 1.34928 0
M  V30 478 C 50.1883 0.458364 1.80986 0
M  V30 479 C 50.5393 -1.02042 1.67577 0
M  V30 480 O 49.6643 -1.79352 1.21086 0
M  V30 481 C 50.2593 0.825212 3.28597 0
M  V30 482 C 48.8183 0.521677 3.72767 0
M  V30 483 C 47.9653 1.04668 2.56788 0
M  V30 484 H 50.9163 1.00533 1.22795 0
M  V30 485 H 50.9373 0.12571 3.80292 0
M  V30 486 H 50.4493 1.90154 3.38324 0
M  V30 487 H 48.5503 -0.545589 3.68584 0
M  V30 488 H 48.6633 1.05977 4.67232 0
M  V30 489 H 47.0273 0.468622 2.50352 0
M  V30 490 H 47.8103 2.12927 2.6929 0
M  V30 491 N 50.2554 -1.46986 0.568584 0
M  V30 492 C 51.4834 -2.0683 0.0539956 0
M  V30 493 C 51.8984 -1.41953 -1.24478 0
M  V30 494 O 51.2554 -0.519933 -1.74937 0
M  V30 495 C 51.3064 -3.61254 -0.133362 0
M  V30 496 O 51.0274 -4.237 1.11399 0
M  V30 497 C 52.5284 -4.37992 -0.683927 0
M  V30 498 H 49.7484 -0.669058 0.0510141 0
M  V30 499 H 52.2924 -1.88824 0.785234 0
M  V30 500 H 50.4474 -3.78735 -0.81477 0
M  V30 501 H 50.8614 -5.16388 0.91888 0
M  V30 502 H 52.3354 -5.46684 -0.764263 0
M  V30 503 H 52.8124 -4.05058 -1.69778 0
M  V30 504 H 53.4184 -4.25283 -0.0378494 0
M  V30 505 N 51.7335 -0.305618 -1.54608 0
M  V30 506 C 53.1445 0.186098 -1.8577 0
M  V30 507 C 53.4955 1.53058 -1.22751 0
M  V30 508 O 52.6205 2.09888 -0.526893 0
M  V30 509 C 53.2155 0.344449 -3.37044 0
M  V30 510 C 51.7745 0.780384 -3.68221 0
M  V30 511 C 50.9215 -0.108554 -2.77087 0
M  V30 512 H 53.8725 -0.526485 -1.49712 0
M  V30 513 H 53.8935 1.17828 -3.61796 0
M  V30 514 H 53.4055 -0.634235 -3.82883 0
M  V30 515 H 51.5065 1.76945 -3.27904 0
M  V30 516 H 51.6195 0.596572 -4.75371 0
M  V30 517 H 49.9835 0.412931 -2.5133 0
M  V30 518 H 50.7665 -1.08368 -3.25747 0
M  V30 519 N 53.2116 1.57565 -0.0334293 0
M  V30 520 C 54.1746 2.09393 0.932048 0
M  V30 521 C 55.1746 1.00986 1.25134 0
M  V30 522 O 56.3646 1.27129 1.19096 0
M  V30 523 C 53.4966 2.56338 2.2473 0
M  V30 524 H 54.6896 2.95984 0.483085 0
M  V30 525 H 52.2426 1.54819 0.21468 0
M  V30 526 H 52.9776 1.7309 2.74245 0
M  V30 527 H 52.7626 3.35542 2.02865 0
M  V30 528 H 54.2526 2.96646 2.93923 0
M  V30 529 N 54.6897 -0.239769 1.55765 0
M  V30 530 C 55.6197 -1.30052 1.9393 0
M  V30 531 C 56.6007 -1.49839 0.805132 0
M  V30 532 O 57.7857 -1.62328 1.06599 0
M  V30 533 C 54.9157 -2.65391 2.2402 0
M  V30 534 C 53.8697 -2.60289 3.39755 0
M  V30 535 C 53.1957 -3.99489 3.55405 0
M  V30 536 C 54.4957 -2.16654 4.75246 0
M  V30 537 H 56.1897 -0.983573 2.82783 0
M  V30 538 H 53.7357 -0.471701 1.36055 0
M  V30 539 H 55.6887 -3.3974 2.49308 0
M  V30 540 H 54.4127 -2.98736 1.32 0
M  V30 541 H 53.0717 -1.88398 3.14487 0
M  V30 542 H 52.7197 -4.30112 2.60793 0
M  V30 543 H 52.4197 -3.96962 4.33238 0
M  V30 544 H 53.9437 -4.75528 3.83022 0
M  V30 545 H 55.3577 -2.80737 4.99859 0
M  V30 546 H 53.7547 -2.25223 5.56232 0
M  V30 547 H 54.8247 -1.11835 4.71827 0
M  V30 548 N 56.1678 -1.49265 -0.50573 0
M  V30 549 C 57.3958 -1.62215 -1.28429 0
M  V30 550 C 57.8108 -0.291697 -1.86533 0
M  V30 551 O 57.1678 0.722233 -1.67601 0
M  V30 552 C 57.2188 -2.68735 -2.41793 0
M  V30 553 O 56.9398 -3.96619 -1.86078 0
M  V30 554 C 58.4408 -2.92346 -3.3324 0
M  V30 555 H 55.6608 -0.546239 -0.389697 0
M  V30 556 H 58.2048 -1.95265 -0.607609 0
M  V30 557 H 56.3598 -2.38476 -3.053 0
M  V30 558 H 56.7738 -4.55256 -2.60465 0
M  V30 559 H 58.2478 -3.70623 -4.09075 0
M  V30 560 H 58.7248 -2.02081 -3.89948 0
M  V30 561 H 59.3308 -3.24003 -2.75503 0
M  V30 562 N 57.6459 0.756429 -1.3826 0
M  V30 563 C 59.0569 1.33359 -1.30661 0
M  V30 564 C 59.4079 1.96161 0.0388875 0
M  V30 565 O 58.5329 1.94874 0.940918 0
M  V30 566 C 59.1279 2.42477 -2.36622 0
M  V30 567 C 57.6869 2.95922 -2.3261 0
M  V30 568 C 56.8339 1.69275 -2.19639 0
M  V30 569 H 59.7849 0.55552 -1.4866 0
M  V30 570 H 59.8059 3.22345 -2.02174 0
M  V30 571 H 59.3179 1.96739 -3.34538 0
M  V30 572 H 57.4189 3.45996 -1.38267 0
M  V30 573 H 57.5319 3.50494 -3.26636 0
M  V30 574 H 55.8959 1.92793 -1.66442 0
M  V30 575 H 56.6789 1.25619 -3.19491 0
M  V30 576 N 59.124 1.23083 0.984299 0
M  V30 577 C 60.054 1.03292 2.09411 0
M  V30 578 C 61.035 -0.048923 1.7003 0
M  V30 579 O 62.22 0.114967 1.93859 0
M  V30 580 C 59.35 0.619155 3.41736 0
M  V30 581 C 58.304 1.64791 3.95004 0
M  V30 582 C 57.63 1.0897 5.23478 0
M  V30 583 C 58.93 3.03999 4.24714 0
M  V30 584 H 60.624 1.96119 2.26225 0
M  V30 585 H 58.17 0.944344 1.08711 0
M  V30 586 H 60.123 0.467777 4.18796 0
M  V30 587 H 58.847 -0.344786 3.24775 0
M  V30 588 H 57.506 1.78721 3.20085 0
M  V30 589 H 57.154 0.11686 5.02864 0
M  V30 590 H 56.854 1.77704 5.60085 0
M  V30 591 H 58.378 0.950093 6.03163 0
M  V30 592 H 59.792 2.93393 4.92538 0
M  V30 593 H 58.189 3.69936 4.72512 0
M  V30 594 H 59.259 3.53285 3.32142 0
M  V30 595 N 60.6021 -1.18246 1.0419 0
M  V30 596 C 61.5351 -2.20746 0.578474 0
M  V30 597 C 62.5131 -1.57912 -0.387624 0
M  V30 598 O 63.6971 -1.86071 -0.301634 0
M  V30 599 C 60.8241 -3.38346 -0.154762 0
M  V30 600 C 59.8701 -4.19587 0.764782 0
M  V30 601 S 60.7031 -4.86014 2.24835 0
M  V30 602 C 61.8591 -6.07012 1.526 0
M  V30 603 H 62.0921 -2.59715 1.44691 0
M  V30 604 H 59.6251 -1.287 0.85297 0
M  V30 605 H 61.5831 -4.065 -0.571641 0
M  V30 606 H 60.2441 -2.97786 -0.999105 0
M  V30 607 H 59.4371 -5.03611 0.197976 0
M  V30 608 H 59.0391 -3.56818 1.12057 0
M  V30 609 H 61.3311 -6.72523 0.819733 0
M  V30 610 H 62.2741 -6.68202 2.34333 0
M  V30 611 H 62.6821 -5.55249 1.01779 0
M  V30 612 N 62.0802 -0.821533 -1.34494 0
M  V30 613 C 63.0102 -0.257138 -2.3208 0
M  V30 614 C 63.9912 0.625645 -1.58176 0
M  V30 615 O 65.1762 0.552811 -1.86166 0
M  V30 616 C 62.3062 0.582958 -3.42372 0
M  V30 617 C 61.2602 -0.202571 -4.2752 0
M  V30 618 C 60.5862 0.760179 -5.29269 0
M  V30 619 C 61.8862 -1.40998 -5.02908 0
M  V30 620 H 63.5802 -1.07247 -2.79532 0
M  V30 621 H 61.1262 -0.517163 -1.34393 0
M  V30 622 H 63.0792 0.987972 -4.09655 0
M  V30 623 H 61.8032 1.43133 -2.93565 0
M  V30 624 H 60.4622 -0.588936 -3.61838 0
M  V30 625 H 60.1102 1.60447 -4.76724 0
M  V30 626 H 59.8102 0.238809 -5.87115 0
M  V30 627 H 61.3342 1.16308 -5.9942 0
M  V30 628 H 62.7482 -1.07905 -5.63054 0
M  V30 629 H 61.1452 -1.86689 -5.70322 0
M  V30 630 H 62.2152 -2.1889 -4.32684 0
M  V30 631 N 63.5583 1.46682 -0.576371 0
M  V30 632 C 64.8353 1.95599 0.00703437 0
M  V30 633 C 65.2153 1.51904 1.46589 0
M  V30 634 O 64.5633 0.766755 2.15251 0
M  V30 635 C 64.7733 3.4864 -0.158404 0
M  V30 636 C 66.1213 4.24594 -0.0229439 0
M  V30 637 O 67.1453 3.56094 -0.0869173 0
M  V30 638 O 66.0043 5.46373 0.118015 0
M  V30 639 H 63.0983 0.825275 0.053384 0
M  V30 640 H 65.6443 1.56996 -0.644244 0
M  V30 641 H 64.4163 3.7331 -1.17282 0
M  V30 642 H 64.0393 3.94057 0.5296 0
M  V30 643 N 65.0364 0.313813 1.54444 0
M  V30 644 C 65.9464 -0.565714 2.27677 0
M  V30 645 C 66.9624 -1.13754 1.31666 0
M  V30 646 O 68.1384 -1.15959 1.64668 0
M  V30 647 C 65.2034 -1.71528 3.01296 0
M  V30 648 C 64.2644 -1.17624 4.12872 0
M  V30 649 C 63.4974 -2.27102 4.8297 0
M  V30 650 O 63.7204 -3.47256 4.52514 0
M  V30 651 O 62.6544 -1.9307 5.70094 0
M  V30 652 H 66.4804 0.0287296 3.03686 0
M  V30 653 H 64.0654 0.0798312 1.49187 0
M  V30 654 H 65.9474 -2.38476 3.4743 0
M  V30 655 H 64.6224 -2.29608 2.2817 0
M  V30 656 H 63.5294 -0.472124 3.71109 0
M  V30 657 H 64.8624 -0.640695 4.88012 0
M  V30 658 N 66.5145 -1.57545 0.0417849 0
M  V30 659 C 67.4775 -2.09885 -0.92093 0
M  V30 660 C 68.4775 -1.01648 -1.24596 0
M  V30 661 O 69.6675 -1.27759 -1.1842 0
M  V30 662 C 66.7995 -2.57527 -2.23367 0
M  V30 663 H 67.9925 -2.96236 -0.467382 0
M  V30 664 H 65.5455 -1.5493 -0.206467 0
M  V30 665 H 66.2805 -1.74542 -2.73323 0
M  V30 666 H 66.0655 -3.36613 -2.01083 0
M  V30 667 H 67.5555 -2.98201 -2.92346 0
M  V30 668 N 67.9926 0.231505 -1.5589 0
M  V30 669 C 69.2206 0.974505 -1.82513 0
M  V30 670 C 69.6356 1.78344 -0.619591 0
M  V30 671 O 68.9926 1.77792 0.411848 0
M  V30 672 C 69.0436 1.90007 -3.07538 0
M  V30 673 O 68.7646 1.12385 -4.2344 0
M  V30 674 C 70.2656 2.75779 -3.47075 0
M  V30 675 H 67.4856 0.286065 -0.606966 0
M  V30 676 H 70.0296 0.249739 -2.02969 0
M  V30 677 H 68.1846 2.57891 -2.89086 0
M  V30 678 H 68.5986 1.75125 -4.944 0
M  V30 679 H 70.0726 3.36443 -4.37619 0
M  V30 680 H 70.5496 3.47672 -2.68367 0
M  V30 681 H 71.1556 2.13323 -3.67931 0
M  V30 682 N 69.4707 1.49531 0.497807 0
M  V30 683 C 70.7187 1.58865 1.24926 0
M  V30 684 C 71.0397 0.278721 1.92998 0
M  V30 685 O 70.3097 -0.702144 1.82885 0
M  V30 686 H 68.8897 0.585343 0.464094 0
M  V30 687 H 71.5517 1.86174 0.57666 0
M  V30 688 H 70.6477 2.38633 2.01149 0
M  V30 689 N 70.9488 -0.749086 1.3866 0
M  V30 690 C 71.8958 -1.86291 1.36251 0
M  V30 691 C 72.8658 -1.64578 0.224347 0
M  V30 692 O 74.0508 -1.86181 0.417279 0
M  V30 693 C 71.1908 -3.23644 1.19786 0
M  V30 694 C 70.3038 -3.57158 2.43027 0
M  V30 695 C 69.4388 -4.83838 2.19258 0
M  V30 696 C 68.4778 -5.10152 3.38247 0
M  V30 697 N 67.6148 -6.28029 3.13884 0
M  V30 698 H 72.4548 -1.87685 2.3147 0
M  V30 699 H 69.9918 -0.917287 1.14997 0
M  V30 700 H 71.9498 -4.0291 1.08254 0
M  V30 701 H 70.5798 -3.21566 0.282031 0
M  V30 702 H 69.6318 -2.72701 2.65214 0
M  V30 703 H 70.9438 -3.7253 3.31697 0
M  V30 704 H 70.0978 -5.71057 2.04888 0
M  V30 705 H 68.8368 -4.70614 1.2796 0
M  V30 706 H 67.8418 -4.21401 3.53131 0
M  V30 707 H 69.0668 -5.25271 4.30427 0
M  V30 708 H 67.0128 -6.1612 2.25238 0
M  V30 709 H 66.9298 -6.43922 3.96106 0
M  V30 710 H 68.1978 -7.18124 3.03179 0
M  V30 711 N 72.4269 -1.23603 -0.977757 0
M  V30 712 C 73.3569 -1.04401 -2.0886 0
M  V30 713 C 74.3379 0.0399052 -1.70053 0
M  V30 714 O 75.5229 -0.125246 -1.93796 0
M  V30 715 C 72.6529 -0.637269 -3.41403 0
M  V30 716 C 71.6069 -1.66883 -3.94124 0
M  V30 717 C 70.9329 -1.11745 -5.22893 0
M  V30 718 C 72.2329 -3.06247 -4.23096 0
M  V30 719 H 73.9269 -1.97316 -2.25182 0
M  V30 720 H 71.4729 -0.950096 -1.08209 0
M  V30 721 H 73.4259 -0.48998 -4.18542 0
M  V30 722 H 72.1499 0.327557 -3.24953 0
M  V30 723 H 70.8089 -1.80416 -3.19133 0
M  V30 724 H 70.4569 -0.143527 -5.02795 0
M  V30 725 H 70.1569 -1.80672 -5.59134 0
M  V30 726 H 71.6809 -0.982067 -6.02651 0
M  V30 727 H 73.0949 -2.96001 -4.90975 0
M  V30 728 H 71.4919 -3.72436 -4.70544 0
M  V30 729 H 72.5619 -3.55041 -3.30263 0
M  V30 730 N 73.905 1.17692 -1.04816 0
M  V30 731 C 75.151 1.88137 -0.75711 0
M  V30 732 C 75.484 1.80604 0.713841 0
M  V30 733 O 74.759 1.21146 1.52164 0
M  V30 734 C 75.042 3.38318 -1.2334 0
M  V30 735 C 74.895 3.54622 -2.76701 0
M  V30 736 C 76.214 4.32214 -0.829415 0
M  V30 737 H 73.333 0.683163 -0.27651 0
M  V30 738 H 75.975 1.38424 -1.30149 0
M  V30 739 H 74.125 3.80787 -0.770286 0
M  V30 740 H 75.797 3.21194 -3.31107 0
M  V30 741 H 74.04 2.97026 -3.16161 0
M  V30 742 H 74.711 4.60028 -3.05088 0
M  V30 743 H 77.187 3.97565 -1.22805 0
M  V30 744 H 76.063 5.35838 -1.19033 0
M  V30 745 H 76.324 4.41294 0.266891 0
M  V30 746 N 75.3831 0.828654 1.34056 0
M  V30 747 C 76.6291 0.42008 1.98402 0
M  V30 748 C 76.9621 -1.01564 1.65525 0
M  V30 749 O 76.2371 -1.70834 0.929831 0
M  V30 750 C 76.5201 0.62927 3.54559 0
M  V30 751 C 76.3731 2.11152 3.97159 0
M  V30 752 C 77.6921 0.0688756 4.40046 0
M  V30 753 H 74.8111 0.154104 0.720709 0
M  V30 754 H 77.4531 1.04228 1.5886 0
M  V30 755 H 75.6031 0.0996418 3.88372 0
M  V30 756 H 77.2751 2.70522 3.73651 0
M  V30 757 H 75.5181 2.59985 3.47261 0
M  V30 758 H 76.1891 2.20868 5.05887 0
M  V30 759 H 78.6651 0.521458 4.1282 0
M  V30 760 H 77.5411 0.245006 5.48353 0
M  V30 761 H 77.8021 -1.0266 4.30015 0
M  V30 762 N 76.8612 -1.46375 0.584142 0
M  V30 763 C 78.1072 -2.03248 0.0787103 0
M  V30 764 C 78.4622 -1.44737 -1.26763 0
M  V30 765 O 77.7552 -0.603625 -1.81843 0
M  V30 766 C 77.9492 -3.57373 -0.0439342 0
M  V30 767 C 77.7782 -4.30831 1.28897 0
M  V30 768 C 76.5482 -4.69683 1.8635 0
M  V30 769 C 78.7462 -4.64278 2.21248 0
M  V30 770 N 76.7282 -5.27898 3.13365 0
M  V30 771 C 78.0992 -5.23078 3.32851 0
M  V30 772 C 80.1542 -4.46209 2.20911 0
M  V30 773 C 78.8572 -5.65715 4.44251 0
M  V30 774 C 80.8832 -4.89864 3.31341 0
M  V30 775 C 80.2452 -5.48736 4.41665 0
M  V30 776 H 76.3442 -0.778714 0.0716144 0
M  V30 777 H 78.9282 -1.78509 0.777355 0
M  V30 778 H 77.0992 -3.81823 -0.711749 0
M  V30 779 H 78.8312 -4.00892 -0.553881 0
M  V30 780 H 75.5862 -4.52488 1.39826 0
M  V30 781 H 76.0102 -5.61525 3.78178 0
M  V30 782 H 80.6522 -4.00027 1.36888 0
M  V30 783 H 78.3702 -6.10875 5.29015 0
M  V30 784 H 81.9562 -4.77634 3.322 0
M  V30 785 H 80.8362 -5.81898 5.25704 0
M  V30 786 N 78.3393 -0.321999 -1.54275 0
M  V30 787 C 79.6163 0.335232 -1.92706 0
M  V30 788 C 79.9963 1.70006 -1.25145 0
M  V30 789 O 79.3443 2.25067 -0.394596 0
M  V30 790 C 79.5543 0.429008 -3.46353 0
M  V30 791 C 80.9023 0.690029 -4.18956 0
M  V30 792 O 81.9263 0.511992 -3.52501 0
M  V30 793 O 80.7853 1.03338 -5.36641 0
M  V30 794 H 77.8793 0.191143 -0.804608 0
M  V30 795 H 80.4253 -0.3716 -1.65581 0
M  V30 796 H 79.1973 -0.529611 -3.87699 0
M  V30 797 H 78.8203 1.18348 -3.79578 0
M  V30 798 N 79.8174 1.5752 -0.0501392 0
M  V30 799 C 81.0654 1.9227 0.622642 0
M  V30 800 C 81.3864 0.929083 1.71444 0
M  V30 801 O 80.6564 -0.0262186 1.95882 0
M  V30 802 H 79.2364 0.709739 0.232981 0
M  V30 803 H 81.8984 1.94628 -0.102898 0
M  V30 804 H 80.9944 2.93479 1.06191 0
M  V30 805 N 81.2955 -0.223234 1.56011 0
M  V30 806 C 82.2275 -1.30006 1.88762 0
M  V30 807 C 83.2405 -1.43129 0.775746 0
M  V30 808 O 84.4295 -1.44057 1.05403 0
M  V30 809 C 81.5295 -2.67589 2.07965 0
M  V30 810 C 80.7025 -2.76434 3.38973 0
M  V30 811 C 79.7615 -3.95019 3.47629 0
M  V30 812 O 78.7875 -3.83436 4.20672 0
M  V30 813 N 79.9895 -5.09249 2.78649 0
M  V30 814 H 82.7545 -1.02238 2.81722 0
M  V30 815 H 80.3155 -0.413278 1.56536 0
M  V30 816 H 82.3075 -3.45297 2.11073 0
M  V30 817 H 80.8775 -2.87964 1.21638 0
M  V30 818 H 80.0975 -1.85216 3.47978 0
M  V30 819 H 81.3855 -2.79313 4.25278 0
M  V30 820 H 80.7835 -5.21556 2.19081 0
M  V30 821 H 79.3405 -5.85007 2.8742 0
M  V30 822 N 82.7736 -1.49793 -0.48987 0
M  V30 823 C 83.7206 -1.67281 -1.59014 0
M  V30 824 C 84.6906 -0.514177 -1.57941 0
M  V30 825 O 85.8756 -0.742533 -1.75759 0
M  V30 826 C 83.0156 -1.75569 -2.97102 0
M  V30 827 C 82.1286 -3.0281 -3.08107 0
M  V30 828 C 81.2636 -3.02008 -4.36995 0
M  V30 829 C 80.3026 -4.23782 -4.41673 0
M  V30 830 N 79.4396 -4.20826 -5.62005 0
M  V30 831 H 84.2796 -2.61224 -1.43409 0
M  V30 832 H 81.8166 -1.29508 -0.697565 0
M  V30 833 H 83.7746 -1.78354 -3.77155 0
M  V30 834 H 82.4046 -0.850827 -3.11385 0
M  V30 835 H 81.4566 -3.09584 -2.21047 0
M  V30 836 H 82.7686 -3.92801 -3.07423 0
M  V30 837 H 81.9226 -3.03418 -5.25378 0
M  V30 838 H 80.6616 -2.09815 -4.4026 0
M  V30 839 H 79.6666 -4.22604 -3.5169 0
M  V30 840 H 80.8916 -5.17181 -4.40115 0
M  V30 841 H 78.8376 -3.31476 -5.66091 0
M  V30 842 H 78.7546 -5.04564 -5.62984 0
M  V30 843 H 80.0226 -4.26355 -6.52565 0
M  V30 844 N 84.2517 0.741722 -1.39055 0
M  V30 845 C 85.2147 1.83733 -1.37021 0
M  V30 846 C 86.2147 1.58542 -0.268534 0
M  V30 847 O 87.4047 1.66067 -0.526076 0
M  V30 848 C 84.5367 3.2141 -1.13617 0
M  V30 849 H 85.7297 1.86941 -2.34506 0
M  V30 850 H 83.2827 0.944676 -1.24521 0
M  V30 851 H 84.0177 3.23865 -0.167863 0
M  V30 852 H 83.8027 3.4109 -1.93391 0
M  V30 853 H 85.2927 4.01477 -1.14918 0
M  V30 854 N 85.7298 1.2412 0.971189 0
M  V30 855 C 86.9778 1.07668 1.71032 0
M  V30 856 C 87.2988 -0.385797 1.91146 0
M  V30 857 O 86.5688 -1.27569 1.4867 0
M  V30 858 H 85.1488 0.395429 0.633755 0
M  V30 859 H 87.8108 1.55984 1.16855 0
M  V30 860 H 86.9068 1.57195 2.69622 0
M  V30 861 N 87.2079 -1.17134 1.05439 0
M  V30 862 C 88.4329 -1.91913 0.786396 0
M  V30 863 C 88.8579 -1.7643 -0.652234 0
M  V30 864 O 88.2159 -1.08372 -1.45345 0
M  V30 865 C 88.2639 -3.40921 1.17497 0
M  V30 866 O 87.3679 -4.11244 0.308589 0
M  V30 867 H 86.7089 -0.598215 0.288158 0
M  V30 868 H 89.2389 -1.48457 1.4079 0
M  V30 869 H 89.2489 -3.91668 1.14281 0
M  V30 870 H 87.9239 -3.5151 2.22292 0
M  V30 871 H 86.5009 -3.70731 0.40157 0
M  V30 872 N 88.686 -0.835752 -1.33615 0
M  V30 873 C 89.649 -0.272 -2.2758 0
M  V30 874 C 90.649 0.557487 -1.50827 0
M  V30 875 O 91.839 0.37173 -1.70188 0
M  V30 876 C 88.971 0.617173 -3.35267 0
M  V30 877 H 90.164 -1.10111 -2.78954 0
M  V30 878 H 87.717 -0.608594 -1.43965 0
M  V30 879 H 88.452 1.46884 -2.89129 0
M  V30 880 H 88.237 0.0237066 -3.92093 0
M  V30 881 H 89.727 1.005 -4.05326 0
M  V30 882 N 90.1641 1.46063 -0.591896 0
M  V30 883 C 91.4101 2.02638 -0.0811191 0
M  V30 884 C 91.7431 1.4613 1.27905 0
M  V30 885 O 91.0181 0.629908 1.84017 0
M  V30 886 C 91.3011 3.60091 -0.0252436 0
M  V30 887 C 91.1541 4.26965 -1.41496 0
M  V30 888 C 92.4731 4.3496 0.670685 0
M  V30 889 H 89.5921 0.73635 -0.0309524 0
M  V30 890 H 92.2341 1.741 -0.760859 0
M  V30 891 H 90.3841 3.84535 0.553624 0
M  V30 892 H 92.0561 4.13756 -2.0397 0
M  V30 893 H 90.2991 3.85971 -1.98011 0
M  V30 894 H 90.9701 5.35781 -1.32825 0
M  V30 895 H 93.4461 4.15716 0.178825 0
M  V30 896 H 92.3221 5.44686 0.678837 0
M  V30 897 H 92.5831 4.06685 1.73379 0
M  V30 898 N 91.6422 0.330177 1.54103 0
M  V30 899 C 92.8902 -0.269871 2.0029 0
M  V30 900 C 93.2112 -1.52133 1.21986 0
M  V30 901 O 92.4812 -1.93212 0.323438 0
M  V30 902 H 91.0612 -0.10271 0.739905 0
M  V30 903 H 93.7232 0.448249 1.89675 0
M  V30 904 H 92.8192 -0.52166 3.07709 0
M  V30 905 N 93.1203 -1.57491 0.0584922 0
M  V30 906 C 94.3693 -1.92155 -0.613146 0
M  V30 907 C 94.6823 -0.939334 -1.71569 0
M  V30 908 O 95.8883 -1.17829 -2.44599 0
M  V30 909 C 94.3443 -3.41303 -1.14195 0
M  V30 910 C 93.9523 -4.47944 -0.0711265 0
M  V30 911 C 95.6963 -3.84988 -1.78841 0
M  V30 912 C 93.6033 -5.88212 -0.613225 0
M  V30 913 H 92.5333 -0.717162 -0.232796 0
M  V30 914 H 95.1843 -1.83049 0.12857 0
M  V30 915 H 93.5663 -3.45437 -1.93621 0
M  V30 916 H 94.7403 -4.55408 0.702836 0
M  V30 917 H 93.0553 -4.13644 0.478313 0
M  V30 918 H 95.6523 -4.87159 -2.20408 0
M  V30 919 H 95.9953 -3.21632 -2.64308 0
M  V30 920 H 96.5283 -3.83401 -1.06059 0
M  V30 921 H 93.2673 -6.55183 0.203978 0
M  V30 922 H 92.7873 -5.84294 -1.35501 0
M  V30 923 H 94.4663 -6.37687 -1.09383 0
M  V30 924 N 94.5984 0.214957 -1.56127 0
M  V30 925 C 95.5284 1.2695 -1.95974 0
M  V30 926 C 96.5094 1.48539 -0.828868 0
M  V30 927 O 97.6944 1.60611 -1.09168 0
M  V30 928 C 94.8244 2.61794 -2.28214 0
M  V30 929 C 93.7784 2.54851 -3.43853 0
M  V30 930 C 93.1044 3.93785 -3.61715 0
M  V30 931 C 94.4044 2.09065 -4.78632 0
M  V30 932 H 96.0984 0.93846 -2.84312 0
M  V30 933 H 93.6444 0.449996 -1.36788 0
M  V30 934 H 95.5974 3.35731 -2.54682 0
M  V30 935 H 94.3214 2.96599 -1.36736 0
M  V30 936 H 92.9804 1.8337 -3.17444 0
M  V30 937 H 92.6284 4.25908 -2.67602 0
M  V30 938 H 92.3284 3.90019 -4.39498 0
M  V30 939 H 93.8524 4.69374 -3.90539 0
M  V30 940 H 95.2664 2.7275 -5.04262 0
M  V30 941 H 93.6634 2.16346 -5.59745 0
M  V30 942 H 94.7334 1.04315 -4.73547 0
M  V30 943 N 96.0765 1.50051 0.48192 0
M  V30 944 C 97.3225 1.60736 1.2366 0
M  V30 945 C 97.6555 0.301786 1.91841 0
M  V30 946 O 96.9305 -0.696025 1.8162 0
M  V30 947 C 97.2135 2.78009 2.28874 0
M  V30 948 C 97.0665 4.18416 1.65069 0
M  V30 949 C 98.3855 2.90867 3.30279 0
M  V30 950 H 95.5045 0.585031 0.448228 0
M  V30 951 H 98.1465 1.82402 0.531946 0
M  V30 952 H 96.2965 2.59667 2.88973 0
M  V30 953 H 97.9685 4.48322 1.0865 0
M  V30 954 H 96.2115 4.23177 0.954148 0
M  V30 955 H 96.8825 4.96381 2.41474 0
M  V30 956 H 99.3585 3.07623 2.80191 0
M  V30 957 H 98.2345 3.74566 4.01238 0
M  V30 958 H 98.4955 2.01021 3.93755 0
M  V30 959 N 97.5546 -0.734337 1.39446 0
M  V30 960 C 98.4846 -1.86155 1.40955 0
M  V30 961 C 99.4656 -1.67898 0.272827 0
M  V30 962 O 100.651 -1.88207 0.478743 0
M  V30 963 C 97.7806 -3.23912 1.25294 0
M  V30 964 C 96.7346 -3.56808 2.36373 0
M  V30 965 C 96.0606 -4.93508 2.058 0
M  V30 966 C 97.3606 -3.59713 3.78687 0
M  V30 967 H 99.0546 -1.8515 2.35287 0
M  V30 968 H 96.6006 -0.889367 1.13253 0
M  V30 969 H 98.5536 -4.02443 1.2497 0
M  V30 970 H 97.2776 -3.25446 0.274308 0
M  V30 971 H 95.9366 -2.80606 2.35914 0
M  V30 972 H 95.5846 -4.91623 1.06374 0
M  V30 973 H 95.2846 -5.16486 2.80208 0
M  V30 974 H 96.8086 -5.74396 2.07128 0
M  V30 975 H 98.2226 -4.2832 3.81071 0
M  V30 976 H 96.6196 -3.94209 4.52459 0
M  V30 977 H 97.6896 -2.59504 4.09617 0
M  V30 978 N 99.0327 -1.24633 -0.964593 0
M  V30 979 C 100.444 -1.08045 -1.5226 0
M  V30 980 C 100.795 0.347116 -1.93105 0
M  V30 981 O 99.9197 1.23588 -1.77637 0
M  V30 982 C 100.515 -1.95514 -2.76695 0
M  V30 983 C 99.0737 -1.8314 -3.28841 0
M  V30 984 C 98.2207 -1.90262 -2.01732 0
M  V30 985 H 101.172 -1.38064 -0.782553 0
M  V30 986 H 101.193 -1.48925 -3.50145 0
M  V30 987 H 100.705 -2.99407 -2.46936 0
M  V30 988 H 98.8057 -0.82092 -3.63444 0
M  V30 989 H 98.9187 -2.67406 -3.97531 0
M  V30 990 H 97.2827 -1.34027 -2.16584 0
M  V30 991 H 98.0657 -2.9574 -1.74334 0
M  V30 992 N 100.511 1.16574 -1.06058 0
M  V30 993 C 101.441 2.23057 -0.690488 0
M  V30 994 C 102.422 1.67141 0.315901 0
M  V30 995 O 103.607 1.93253 0.191556 0
M  V30 996 C 100.737 3.47222 -0.073625 0
M  V30 997 C 99.6908 4.16016 -1.00573 0
M  V30 998 C 99.0168 5.34104 -0.252289 0
M  V30 999 C 100.317 4.67264 -2.33371 0
M  V30 1000 H 102.011 2.54271 -1.58072 0
M  V30 1001 H 99.5568 1.22218 -0.76149 0
M  V30 1002 H 101.51 4.20939 0.19714 0
M  V30 1003 H 100.234 3.15302 0.85161 0
M  V30 1004 H 98.8928 3.44223 -1.2612 0
M  V30 1005 H 98.5408 4.98437 0.675988 0
M  V30 1006 H 98.2408 5.81072 -0.873455 0
M  V30 1007 H 99.7648 6.10599 0.0109857 0
M  V30 1008 H 101.179 5.32573 -2.12223 0
M  V30 1009 H 99.5758 5.24843 -2.90963 0
M  V30 1010 H 100.646 3.83602 -2.96611 0
M  V30 1011 N 101.989 0.842826 1.3317 0
M  V30 1012 C 102.899 0.281444 2.32906 0
M  V30 1013 C 103.915 -0.594587 1.63526 0
M  V30 1014 O 105.091 -0.49777 1.95152 0
M  V30 1015 C 102.156 -0.530929 3.42611 0
M  V30 1016 C 101.217 0.369843 4.27704 0
M  V30 1017 C 100.45 -0.403853 5.3217 0
M  V30 1018 O 100.673 -1.63513 5.46461 0
M  V30 1019 O 99.6069 0.224199 6.01482 0
M  V30 1020 H 103.433 1.10744 2.82789 0
M  V30 1021 H 101.018 0.60545 1.36582 0
M  V30 1022 H 102.9 -0.992437 4.09547 0
M  V30 1023 H 101.575 -1.33392 2.94938 0
M  V30 1024 H 100.482 0.879275 3.6362 0
M  V30 1025 H 101.815 1.13771 4.78871 0
M  V30 1026 N 103.467 -1.45747 0.599634 0
M  V30 1027 C 104.715 -2.01893 0.0915472 0
M  V30 1028 C 105.036 -1.47155 -1.27946 0
M  V30 1029 O 104.306 -0.66273 -1.84349 0
M  V30 1030 H 102.886 -0.746363 0.0308524 0
M  V30 1031 H 105.548 -1.78645 0.779237 0
M  V30 1032 H 104.644 -3.1208 0.0353086 0
M  V30 1033 N 104.945 -0.338344 -1.53925 0
M  V30 1034 C 106.173 0.261298 -2.05243 0
M  V30 1035 C 106.588 1.44625 -1.21363 0
M  V30 1036 O 105.945 1.80811 -0.247736 0
M  V30 1037 C 105.996 0.681412 -3.5502 0
M  V30 1038 O 105.717 -0.456414 -4.35716 0
M  V30 1039 C 107.218 1.34232 -4.22489 0
M  V30 1040 H 104.438 0.0513685 -0.669031 0
M  V30 1041 H 106.982 -0.488822 -1.98572 0
M  V30 1042 H 105.137 1.38148 -3.61931 0
M  V30 1043 H 105.551 -0.122564 -5.24357 0
M  V30 1044 H 107.025 1.58708 -5.28693 0
M  V30 1045 H 107.502 2.29426 -3.74514 0
M  V30 1046 H 108.108 0.684424 -4.19757 0
M  V30 1047 N 106.423 1.57458 -0.0668435 0
M  V30 1048 C 107.333 2.15937 0.916975 0
M  V30 1049 C 108.349 1.12123 1.33058 0
M  V30 1050 O 109.525 1.44366 1.40429 0
M  V30 1051 C 106.59 2.70547 2.16807 0
M  V30 1052 C 105.651 3.89215 1.81135 0
M  V30 1053 C 104.884 4.41211 3.0028 0
M  V30 1054 O 105.107 3.92225 4.14144 0
M  V30 1055 O 104.041 5.32605 2.80384 0
M  V30 1056 H 107.867 3.00354 0.449561 0
M  V30 1057 H 105.452 1.48584 0.155949 0
M  V30 1058 H 107.334 3.0557 2.90181 0
M  V30 1059 H 106.009 1.89192 2.62656 0
M  V30 1060 H 104.916 3.59054 1.05028 0
M  V30 1061 H 106.249 4.71848 1.40073 0
M  V30 1062 N 107.901 -0.206675 1.56239 0
M  V30 1063 C 109.129 -0.945345 1.8404 0
M  V30 1064 C 109.544 -1.77336 0.647885 0
M  V30 1065 O 108.901 -1.78425 -0.383511 0
M  V30 1066 C 108.952 -1.8509 3.10522 0
M  V30 1067 O 108.673 -1.05634 4.25174 0
M  V30 1068 C 110.174 -2.70222 3.51418 0
M  V30 1069 H 107.394 -0.276372 0.61144 0
M  V30 1070 H 109.938 -0.217417 2.03341 0
M  V30 1071 H 108.093 -2.53259 2.93153 0
M  V30 1072 H 108.507 -1.67238 4.97124 0
M  V30 1073 H 109.981 -3.29438 4.42916 0
M  V30 1074 H 110.458 -3.43358 2.73864 0
M  V30 1075 H 111.064 -2.07443 3.71278 0
M  V30 1076 N 109.379 -1.50304 -0.473955 0
M  V30 1077 C 110.342 -1.6841 -1.55469 0
M  V30 1078 C 111.342 -0.554905 -1.50922 0
M  V30 1079 O 112.532 -0.821882 -1.53593 0
M  V30 1080 C 109.664 -1.70667 -2.95102 0
M  V30 1081 H 110.857 -2.64828 -1.40733 0
M  V30 1082 H 108.41 -1.39742 -0.700132 0
M  V30 1083 H 109.145 -0.75932 -3.15285 0
M  V30 1084 H 108.93 -2.52698 -2.9981 0
M  V30 1085 H 110.42 -1.8664 -3.73571 0
M  V30 1086 N 110.857 0.726932 -1.39834 0
M  V30 1087 C 111.787 1.85405 -1.41941 0
M  V30 1088 C 112.768 1.67751 -0.281728 0
M  V30 1089 O 113.953 1.8795 -0.488717 0
M  V30 1090 C 111.083 3.23243 -1.2701 0
M  V30 1091 C 110.037 3.55549 -2.38262 0
M  V30 1092 C 109.363 4.9241 -2.08415 0
M  V30 1093 C 110.663 3.577 -3.80589 0
M  V30 1094 H 112.357 1.83899 -2.36266 0
M  V30 1095 H 109.903 0.883349 -1.13723 0
M  V30 1096 H 111.856 4.01775 -1.27103 0
M  V30 1097 H 110.58 3.25296 -0.291564 0
M  V30 1098 H 109.239 2.79351 -2.37399 0
M  V30 1099 H 108.887 4.91052 -1.0898 0
M  V30 1100 H 108.587 5.14992 -2.82943 0
M  V30 1101 H 110.111 5.73289 -2.10171 0
M  V30 1102 H 111.525 4.26293 -3.83337 0
M  V30 1103 H 109.922 3.91804 -4.54543 0
M  V30 1104 H 110.992 2.57328 -4.10987 0
M  V30 1105 N 112.336 1.25143 0.95797 0
M  V30 1106 C 113.564 1.12424 1.73691 0
M  V30 1107 C 113.979 -0.322304 1.86029 0
M  V30 1108 O 113.336 -1.22186 1.35561 0
M  V30 1109 C 113.387 1.76933 3.15241 0
M  V30 1110 O 113.108 3.15932 3.03511 0
M  V30 1111 C 114.609 1.6995 4.09429 0
M  V30 1112 H 111.829 0.3923 0.544373 0
M  V30 1113 H 114.373 1.6544 1.20207 0
M  V30 1114 H 112.528 1.27895 3.6568 0
M  V30 1115 H 112.942 3.47598 3.9278 0
M  V30 1116 H 114.416 2.19753 5.06372 0
M  V30 1117 H 114.893 0.662619 4.34173 0
M  V30 1118 H 115.499 2.18461 3.64904 0
M  V30 1119 N 113.814 -1.1601 1.06675 0
M  V30 1120 C 115.044 -1.90251 0.805497 0
M  V30 1121 C 115.452 -1.77891 -0.64431 0
M  V30 1122 O 114.795 -1.12383 -1.45313 0
M  V30 1123 C 114.857 -3.41419 1.12576 0
M  V30 1124 C 114.521 -3.77564 2.57477 0
M  V30 1125 C 115.518 -3.79161 3.55715 0
M  V30 1126 C 113.203 -4.08079 2.92877 0
M  V30 1127 C 115.197 -4.10767 4.8739 0
M  V30 1128 C 112.884 -4.39351 4.24751 0
M  V30 1129 C 113.882 -4.40675 5.21818 0
M  V30 1130 O 113.57 -4.71202 6.51325 0
M  V30 1131 H 113.302 -0.610018 0.291297 0
M  V30 1132 H 115.856 -1.47958 1.4247 0
M  V30 1133 H 114.086 -3.84079 0.449503 0
M  V30 1134 H 115.775 -3.9694 0.84814 0
M  V30 1135 H 116.541 -3.55693 3.29708 0
M  V30 1136 H 112.42 -4.06211 2.17976 0
M  V30 1137 H 115.964 -4.11715 5.63148 0
M  V30 1138 H 111.861 -4.62285 4.50514 0
M  V30 1139 H 112.629 -4.88996 6.56373 0
M  V30 1140 N 115.292 -0.849877 -1.32721 0
M  V30 1141 C 116.522 -0.46408 -2.0132 0
M  V30 1142 C 116.93 0.94246 -1.64056 0
M  V30 1143 O 116.273 1.6257 -0.855379 0
M  V30 1144 C 116.335 -0.517887 -3.5575 0
M  V30 1145 C 115.999 -1.88248 -4.16427 0
M  V30 1146 C 116.996 -2.84726 -4.35002 0
M  V30 1147 C 114.681 -2.17832 -4.52609 0
M  V30 1148 C 116.675 -4.08945 -4.8892 0
M  V30 1149 C 114.362 -3.42304 -5.06232 0
M  V30 1150 C 115.36 -4.37677 -5.24335 0
M  V30 1151 O 115.048 -5.59946 -5.76815 0
M  V30 1152 H 114.78 -0.181327 -0.651227 0
M  V30 1153 H 117.334 -1.14713 -1.70382 0
M  V30 1154 H 115.564 0.221997 -3.86062 0
M  V30 1155 H 117.253 -0.148366 -4.05629 0
M  V30 1156 H 118.019 -2.63174 -4.07388 0
M  V30 1157 H 113.898 -1.44385 -4.37806 0
M  V30 1158 H 117.442 -4.83396 -5.02966 0
M  V30 1159 H 113.339 -3.63709 -5.33278 0
M  V30 1160 H 114.107 -5.61838 -5.95214 0
M  V30 1161 N 116.77 1.45427 -0.607355 0
M  V30 1162 C 117.717 2.3053 0.111625 0
M  V30 1163 C 118.687 1.4209 0.860216 0
M  V30 1164 O 119.872 1.71019 0.845998 0
M  V30 1165 C 117.012 3.26992 1.10319 0
M  V30 1166 C 116.125 4.30535 0.355493 0
M  V30 1167 C 115.26 5.14105 1.33676 0
M  V30 1168 C 114.299 6.09376 0.576862 0
M  V30 1169 N 113.436 6.85727 1.5074 0
M  V30 1170 H 118.276 2.91477 -0.620093 0
M  V30 1171 H 115.813 1.43631 -0.317594 0
M  V30 1172 H 117.771 3.81385 1.6912 0
M  V30 1173 H 116.401 2.67799 1.80232 0
M  V30 1174 H 115.453 3.78805 -0.348023 0
M  V30 1175 H 116.765 4.98235 -0.237423 0
M  V30 1176 H 115.919 5.72897 1.99684 0
M  V30 1177 H 114.658 4.46423 1.9636 0
M  V30 1178 H 113.663 5.49715 -0.0968519 0
M  V30 1179 H 114.888 6.79085 -0.0449341 0
M  V30 1180 H 112.834 6.20735 2.12189 0
M  V30 1181 H 112.751 7.49778 0.967913 0
M  V30 1182 H 114.019 7.4906 2.15706 0
M  V30 1183 N 118.248 0.346503 1.53744 0
M  V30 1184 C 119.473 -0.253074 2.0585 0
M  V30 1185 C 119.898 -1.43202 1.21962 0
M  V30 1186 O 119.256 -1.79783 0.234073 0
M  V30 1187 C 119.304 -0.643193 3.54817 0
M  V30 1188 O 118.408 -1.74286 3.73762 0
M  V30 1189 H 117.749 -0.0413583 0.662711 0
M  V30 1190 H 120.279 0.501574 1.98357 0
M  V30 1191 H 120.289 -0.919526 3.97503 0
M  V30 1192 H 118.964 0.218966 4.15323 0
M  V30 1193 H 117.541 -1.46356 3.42979 0
M  V30 1194 N 119.726 -1.57421 0.075193 0
M  V30 1195 C 120.974 -1.93236 -0.591974 0
M  V30 1196 C 121.295 -0.956241 -1.69944 0
M  V30 1197 O 120.565 -0.00494792 -1.95899 0
M  V30 1198 H 119.145 -0.713355 -0.22166 0
M  V30 1199 H 121.807 -1.9444 0.133848 0
M  V30 1200 H 120.903 -2.95131 -1.01509 0
M  V30 1201 N 121.204 0.198386 -1.56346 0
M  V30 1202 C 122.432 0.935572 -1.84539 0
M  V30 1203 C 122.847 1.76989 -0.657281 0
M  V30 1204 O 122.204 1.78626 0.374043 0
M  V30 1205 C 122.255 1.8344 -3.11499 0
M  V30 1206 O 121.976 1.03377 -4.25728 0
M  V30 1207 C 123.477 2.68355 -3.52846 0
M  V30 1208 H 120.697 0.273126 -0.612897 0
M  V30 1209 H 123.241 0.20663 -2.03453 0
M  V30 1210 H 121.396 2.51701 -2.94492 0
M  V30 1211 H 121.81 1.64599 -4.98003 0
M  V30 1212 H 123.284 3.27085 -4.44657 0
M  V30 1213 H 123.761 3.41901 -2.75681 0
M  V30 1214 H 124.367 2.05471 -3.72373 0
M  V30 1215 N 122.682 1.50554 0.465978 0
M  V30 1216 C 123.929 1.61798 1.21768 0
M  V30 1217 C 124.257 0.320696 1.91838 0
M  V30 1218 O 123.512 -0.693724 1.82992 0
M  V30 1219 C 123.811 2.75152 2.28093 0
M  V30 1220 C 123.477 4.15454 1.75239 0
M  V30 1221 C 122.139 4.53628 1.60546 0
M  V30 1222 C 124.491 5.03121 1.36083 0
M  V30 1223 C 121.819 5.77204 1.05128 0
M  V30 1224 C 124.171 6.27249 0.821056 0
M  V30 1225 C 122.835 6.64221 0.660795 0
M  V30 1226 H 122.105 0.592063 0.445582 0
M  V30 1227 H 124.752 1.84503 0.512927 0
M  V30 1228 H 123.057 2.46556 3.04496 0
M  V30 1229 H 124.754 2.81055 2.86023 0
M  V30 1230 H 121.344 3.85341 1.87644 0
M  V30 1231 H 125.528 4.74257 1.46267 0
M  V30 1232 H 120.784 6.0452 0.91462 0
M  V30 1233 H 124.958 6.94537 0.509018 0
M  V30 1234 H 122.585 7.59854 0.229226 0
M  V30 1235 N 124.16 -0.719506 1.40217 0
M  V30 1236 C 125.123 -1.8153 1.39927 0
M  V30 1237 C 126.123 -1.58095 0.293723 0
M  V30 1238 O 127.313 -1.65209 0.552429 0
M  V30 1239 C 124.445 -3.19561 1.18716 0
M  V30 1240 H 125.638 -1.83186 2.37451 0
M  V30 1241 H 123.191 -0.924746 1.26008 0
M  V30 1242 H 123.926 -3.23557 0.219366 0
M  V30 1243 H 123.711 -3.3797 1.98793 0
M  V30 1244 H 125.201 -3.99598 1.21291 0
M  V30 1245 N 125.638 -1.25649 -0.95132 0
M  V30 1246 C 126.866 -1.13343 -1.73092 0
M  V30 1247 C 127.281 0.312434 -1.86197 0
M  V30 1248 O 126.638 1.21465 -1.36207 0
M  V30 1249 C 126.689 -1.78602 -3.14299 0
M  V30 1250 O 126.41 -3.17537 -3.01831 0
M  V30 1251 C 127.911 -1.72119 -4.08522 0
M  V30 1252 H 125.131 -0.395181 -0.542285 0
M  V30 1253 H 127.675 -1.66076 -1.19328 0
M  V30 1254 H 125.83 -1.29832 -3.64996 0
M  V30 1255 H 126.244 -3.49676 -3.90931 0
M  V30 1256 H 127.718 -2.22435 -5.052 0
M  V30 1257 H 128.195 -0.685635 -4.33815 0
M  V30 1258 H 128.801 -2.20393 -3.63741 0
M  V30 1259 N 127.117 1.15442 -1.07289 0
M  V30 1260 C 128.027 2.23786 -0.704057 0
M  V30 1261 C 129.043 1.7166 0.284413 0
M  V30 1262 O 130.219 2.00972 0.131205 0
M  V30 1263 C 127.284 3.46535 -0.106792 0
M  V30 1264 C 126.345 4.13654 -1.14842 0
M  V30 1265 C 125.578 5.30544 -0.57956 0
M  V30 1266 O 125.801 5.67187 0.604585 0
M  V30 1267 O 124.735 5.87154 -1.32414 0
M  V30 1268 H 128.561 2.57664 -1.60757 0
M  V30 1269 H 126.146 1.23152 -0.845803 0
M  V30 1270 H 128.028 4.20804 0.224048 0
M  V30 1271 H 126.703 3.14407 0.770049 0
M  V30 1272 H 125.61 3.4131 -1.5316 0
M  V30 1273 H 126.943 4.49861 -1.99714 0
M  V30 1274 N 128.595 0.856903 1.32268 0
M  V30 1275 C 129.558 0.308171 2.27119 0
M  V30 1276 C 130.558 -0.533421 1.51695 0
M  V30 1277 O 131.748 -0.344607 1.70757 0
M  V30 1278 C 128.88 -0.563757 3.36206 0
M  V30 1279 H 130.073 1.14535 2.77167 0
M  V30 1280 H 127.626 0.631421 1.42978 0
M  V30 1281 H 128.361 -1.42266 2.91429 0
M  V30 1282 H 128.146 0.0386749 3.92081 0
M  V30 1283 H 129.636 -0.940386 4.06874 0
M  V30 1284 N 130.073 -1.45103 0.615059 0
M  V30 1285 C 131.322 -2.01396 0.110718 0
M  V30 1286 C 131.635 -1.48834 -1.26916 0
M  V30 1287 O 132.841 -1.97152 -1.86664 0
M  V30 1288 C 131.297 -3.59599 0.14723 0
M  V30 1289 C 130.905 -4.21158 1.52743 0
M  V30 1290 C 132.649 -4.23428 -0.30148 0
M  V30 1291 C 130.556 -5.71535 1.51992 0
M  V30 1292 H 129.486 -0.753061 0.0376241 0
M  V30 1293 H 132.137 -1.66494 0.77149 0
M  V30 1294 H 130.519 -3.91724 -0.580339 0
M  V30 1295 H 131.693 -4.00594 2.2773 0
M  V30 1296 H 130.008 -3.69552 1.91886 0
M  V30 1297 H 132.605 -5.33703 -0.326392 0
M  V30 1298 H 132.948 -3.94629 -1.32565 0
M  V30 1299 H 133.481 -3.96047 0.373065 0
M  V30 1300 H 130.22 -6.05044 2.52193 0
M  V30 1301 H 129.74 -5.94268 0.81274 0
M  V30 1302 H 131.419 -6.34873 1.24681 0
M  V30 1303 N 131.551 -0.354651 -1.53558 0
M  V30 1304 C 132.501 0.513179 -2.2215 0
M  V30 1305 C 133.485 1.05734 -1.21281 0
M  V30 1306 O 134.677 0.989202 -1.46778 0
M  V30 1307 C 131.806 1.65798 -3.00609 0
M  V30 1308 C 130.892 1.12722 -4.08845 0
M  V30 1309 N 131.283 0.318563 -5.04796 0
M  V30 1310 C 129.581 1.40307 -4.23356 0
M  V30 1311 C 130.282 0.0292224 -5.81693 0
M  V30 1312 N 129.258 0.623891 -5.40008 0
M  V30 1313 H 133.06 -0.111586 -2.93688 0
M  V30 1314 H 130.574 -0.162091 -1.61589 0
M  V30 1315 H 132.571 2.29176 -3.48258 0
M  V30 1316 H 131.231 2.28591 -2.306 0
M  V30 1317 H 132.242 -0.0413091 -5.17884 0
M  V30 1318 H 128.919 2.03458 -3.6457 0
M  V30 1319 H 130.309 -0.623808 -6.68998 0
M  V30 1320 N 133.029 1.57378 -0.0835403 0
M  V30 1321 C 134.275 1.95025 0.577664 0
M  V30 1322 C 134.63 0.964049 1.66505 0
M  V30 1323 O 133.923 -0.0118235 1.91596 0
M  V30 1324 C 134.117 3.37063 1.1884 0
M  V30 1325 C 133.946 4.49409 0.16171 0
M  V30 1326 C 132.716 5.04642 -0.257756 0
M  V30 1327 C 134.914 5.10722 -0.605634 0
M  V30 1328 N 132.896 6.00537 -1.27393 0
M  V30 1329 C 134.267 6.02225 -1.47395 0
M  V30 1330 C 136.322 4.93501 -0.660418 0
M  V30 1331 C 135.025 6.78355 -2.39221 0
M  V30 1332 C 137.051 5.70283 -1.56623 0
M  V30 1333 C 136.413 6.61444 -2.4222 0
M  V30 1334 H 132.512 0.760512 0.182058 0
M  V30 1335 H 135.096 1.94013 -0.163419 0
M  V30 1336 H 133.267 3.3879 1.89936 0
M  V30 1337 H 134.999 3.61917 1.81103 0
M  V30 1338 H 131.754 4.73428 0.127702 0
M  V30 1339 H 132.178 6.53184 -1.77987 0
M  V30 1340 H 136.82 4.22798 -0.0128221 0
M  V30 1341 H 134.538 7.48327 -3.05011 0
M  V30 1342 H 138.124 5.58976 -1.61361 0
M  V30 1343 H 137.004 7.1982 -3.11174 0
M  V30 1344 N 134.507 -0.190092 1.56449 0
M  V30 1345 C 135.918 -0.754312 1.70784 0
M  V30 1346 C 136.269 -1.83631 0.690951 0
M  V30 1347 O 135.394 -2.15868 -0.151604 0
M  V30 1348 C 135.989 -1.37503 3.09642 0
M  V30 1349 C 134.548 -1.88628 3.25725 0
M  V30 1350 C 133.695 -0.758098 2.66736 0
M  V30 1351 H 136.646 0.0350524 1.58661 0
M  V30 1352 H 136.667 -2.2445 3.0725 0
M  V30 1353 H 136.179 -0.587302 3.83631 0
M  V30 1354 H 134.28 -2.70103 2.56661 0
M  V30 1355 H 134.393 -2.04462 4.3328 0
M  V30 1356 H 132.757 -1.17369 2.26046 0
M  V30 1357 H 133.54 0.0174705 3.43296 0
M  V30 1358 N 135.985 -1.50799 -0.457987 0
M  V30 1359 C 136.895 -1.73426 -1.57989 0
M  V30 1360 C 137.911 -0.617745 -1.62665 0
M  V30 1361 O 139.087 -0.897614 -1.80291 0
M  V30 1362 C 136.152 -1.83557 -2.94122 0
M  V30 1363 C 135.213 -3.07345 -2.99729 0
M  V30 1364 C 134.446 -3.16983 -4.29368 0
M  V30 1365 O 134.669 -2.33077 -5.20607 0
M  V30 1366 O 133.603 -4.09812 -4.40837 0
M  V30 1367 H 137.429 -2.68555 -1.41817 0
M  V30 1368 H 135.014 -1.35052 -0.638859 0
M  V30 1369 H 136.896 -1.92326 -3.74952 0
M  V30 1370 H 135.571 -0.916137 -3.10465 0
M  V30 1371 H 134.478 -3.04068 -2.1793 0
M  V30 1372 H 135.811 -3.9891 -2.88326 0
M  V30 1373 N 137.463 0.71206 -1.40597 0
M  V30 1374 C 138.688 1.50617 -1.42581 0
M  V30 1375 C 139.113 1.88079 -0.0282102 0
M  V30 1376 O 138.471 1.53511 0.964579 0
M  V30 1377 C 138.519 2.7557 -2.3258 0
M  V30 1378 O 137.623 3.72414 -1.77148 0
M  V30 1379 H 136.964 0.453966 -0.484573 0
M  V30 1380 H 139.494 0.876649 -1.84868 0
M  V30 1381 H 139.504 3.2406 -2.47889 0
M  V30 1382 H 138.179 2.47639 -3.34138 0
M  V30 1383 H 136.756 3.31276 -1.71204 0
M  V30 1384 N 138.941 1.26152 0.944643 0
M  V30 1385 C 140.187 1.11657 1.69294 0
M  V30 1386 C 140.52 -0.339926 1.91202 0
M  V30 1387 O 139.795 -1.24994 1.49019 0
M  V30 1388 C 140.078 1.88236 3.06984 0
M  V30 1389 C 139.931 3.41772 2.92424 0
M  V30 1390 C 141.25 1.67343 4.07043 0
M  V30 1391 H 138.369 0.407004 0.614424 0
M  V30 1392 H 141.011 1.55106 1.09737 0
M  V30 1393 H 139.161 1.51308 3.57824 0
M  V30 1394 H 140.833 3.88433 2.48832 0
M  V30 1395 H 139.076 3.68974 2.28124 0
M  V30 1396 H 139.747 3.90579 3.90067 0
M  V30 1397 H 142.223 1.99509 3.65151 0
M  V30 1398 H 141.099 2.23346 5.01406 0
M  V30 1399 H 141.36 0.617158 4.37771 0
M  V30 1400 N 140.419 -1.14872 1.07899 0
M  V30 1401 C 141.696 -1.81928 0.71845 0
M  V30 1402 C 142.076 -1.95417 -0.798455 0
M  V30 1403 O 141.424 -1.50997 -1.715 0
M  V30 1404 C 141.634 -3.17937 1.43935 0
M  V30 1405 C 142.982 -3.93501 1.59506 0
M  V30 1406 O 144.006 -3.27509 1.40058 0
M  V30 1407 O 142.865 -5.1183 1.91551 0
M  V30 1408 H 139.959 -0.78628 0.256305 0
M  V30 1409 H 142.505 -1.21934 1.18026 0
M  V30 1410 H 141.277 -3.0325 2.47295 0
M  V30 1411 H 140.9 -3.85619 0.968687 0
M  V30 1412 N 141.898 -0.863906 -1.31812 0
M  V30 1413 C 142.808 -0.318461 -2.32428 0
M  V30 1414 C 143.824 0.568496 -1.64451 0
M  V30 1415 O 145 0.46666 -1.95919 0
M  V30 1416 C 142.065 0.476355 -3.43412 0
M  V30 1417 C 141.126 -0.43784 -4.27061 0
M  V30 1418 C 140.359 0.319138 -5.32745 0
M  V30 1419 O 140.582 1.54799 -5.48993 0
M  V30 1420 O 139.516 -0.319861 -6.01049 0
M  V30 1421 H 143.342 -1.15229 -2.80991 0
M  V30 1422 H 140.927 -0.627103 -1.35602 0
M  V30 1423 H 142.809 0.927156 -4.11074 0
M  V30 1424 H 141.484 1.28683 -2.97022 0
M  V30 1425 H 140.391 -0.937013 -3.62175 0
M  V30 1426 H 141.724 -1.21375 -4.77 0
M  V30 1427 N 143.376 1.44774 -0.622745 0
M  V30 1428 C 144.326 2.2774 0.108889 0
M  V30 1429 C 145.31 1.38189 0.824175 0
M  V30 1430 O 146.502 1.62063 0.711664 0
M  V30 1431 C 143.631 3.25353 1.09546 0
M  V30 1432 C 142.717 4.22392 0.380232 0
M  V30 1433 N 143.108 5.02388 -0.586535 0
M  V30 1434 C 141.406 4.41588 0.625792 0
M  V30 1435 C 142.107 5.72894 -1.00834 0
M  V30 1436 N 141.083 5.42479 -0.348878 0
M  V30 1437 H 144.885 2.86993 -0.63341 0
M  V30 1438 H 142.399 1.5611 -0.447589 0
M  V30 1439 H 144.396 3.83538 1.63414 0
M  V30 1440 H 143.056 2.6766 1.83815 0
M  V30 1441 H 144.067 5.0885 -0.963975 0
M  V30 1442 H 140.744 3.95003 1.352 0
M  V30 1443 H 142.134 6.47158 -1.80656 0
M  V30 1444 N 144.854 0.36279 1.53368 0
M  V30 1445 C 145.801 -0.485008 2.25646 0
M  V30 1446 C 146.771 -1.07982 1.2621 0
M  V30 1447 O 147.956 -1.11284 1.54986 0
M  V30 1448 C 145.096 -1.62023 3.04701 0
M  V30 1449 C 144.209 -1.05086 4.19024 0
M  V30 1450 C 143.344 -2.15496 4.85525 0
M  V30 1451 C 142.383 -1.5601 5.91884 0
M  V30 1452 N 141.52 -2.60241 6.52088 0
M  V30 1453 H 146.36 0.137864 2.97681 0
M  V30 1454 H 143.897 0.0798061 1.46883 0
M  V30 1455 H 145.855 -2.28887 3.48807 0
M  V30 1456 H 144.485 -2.2138 2.34927 0
M  V30 1457 H 143.537 -0.27259 3.79422 0
M  V30 1458 H 144.849 -0.575926 4.95464 0
M  V30 1459 H 144.003 -2.90186 5.32801 0
M  V30 1460 H 142.742 -2.66341 4.08551 0
M  V30 1461 H 141.747 -0.798338 5.43973 0
M  V30 1462 H 142.972 -1.05994 6.70777 0
M  V30 1463 H 140.918 -3.10304 5.77968 0
M  V30 1464 H 140.835 -2.17426 7.24059 0
M  V30 1465 H 142.103 -3.34641 7.04014 0
M  V30 1466 N 146.332 -1.57332 0.0918853 0
M  V30 1467 C 147.279 -2.13847 -0.868211 0
M  V30 1468 C 148.249 -1.05618 -1.28196 0
M  V30 1469 O 149.434 -1.33387 -1.36427 0
M  V30 1470 C 146.574 -2.72062 -2.12312 0
M  V30 1471 C 145.687 -3.94514 -1.7602 0
M  V30 1472 C 144.822 -4.40903 -2.96273 0
M  V30 1473 C 143.861 -5.55953 -2.56092 0
M  V30 1474 N 142.998 -5.97209 -3.69169 0
M  V30 1475 H 147.838 -2.95575 -0.379406 0
M  V30 1476 H 145.375 -1.46048 -0.175606 0
M  V30 1477 H 147.333 -3.03931 -2.858 0
M  V30 1478 H 145.963 -1.93068 -2.58698 0
M  V30 1479 H 145.015 -3.68979 -0.925135 0
M  V30 1480 H 146.327 -4.7802 -1.42472 0
M  V30 1481 H 145.481 -4.74539 -3.78018 0
M  V30 1482 H 144.22 -3.56291 -3.33029 0
M  V30 1483 H 143.225 -5.21948 -1.72773 0
M  V30 1484 H 144.45 -6.42311 -2.20484 0
M  V30 1485 H 142.396 -5.15543 -4.05649 0
M  V30 1486 H 142.313 -6.75504 -3.39456 0
M  V30 1487 H 143.581 -6.35475 -4.51434 0
M  V30 1488 N 147.81 0.181792 -1.56548 0
M  V30 1489 C 148.773 1.20894 -1.94724 0
M  V30 1490 C 149.773 1.37738 -0.829747 0
M  V30 1491 O 150.963 1.35323 -1.09697 0
M  V30 1492 C 148.095 2.57593 -2.23291 0
M  V30 1493 H 149.288 0.882275 -2.86629 0
M  V30 1494 H 146.841 0.423838 -1.50444 0
M  V30 1495 H 147.576 2.95291 -1.34067 0
M  V30 1496 H 147.361 2.46735 -3.04736 0
M  V30 1497 H 148.851 3.31637 -2.53785 0
M  V30 1498 N 149.288 1.51039 0.449983 0
M  V30 1499 C 150.236 1.71995 1.5659 0
M  V30 1500 C 151.23 0.586029 1.5894 0
M  V30 1501 O 152.436 0.76709 1.62837 0
M  V30 1502 H 148.811 0.543233 0.520001 0
M  V30 1503 H 150.782 2.65562 1.36085 0
M  V30 1504 C 149.531 1.8506 2.9436 0
M  V30 1505 H 148.854 2.71712 2.93279 0
M  V30 1506 H 150.294 2.0374 3.71842 0
M  V30 1507 C 148.753 0.607277 3.31382 0
M  V30 1508 O 149.283 -0.243903 4.00959 0
M  V30 1509 N 147.489 0.455073 2.87015 0
M  V30 1510 H 147.036 1.14879 2.30566 0
M  V30 1511 H 146.994 -0.375611 3.12148 0
M  V30 1512 N 150.766 -0.704594 1.40972 0
M  V30 1513 C 151.729 -1.80035 1.41845 0
M  V30 1514 C 152.729 -1.57774 0.310474 0
M  V30 1515 O 153.919 -1.64613 0.56992 0
M  V30 1516 C 151.051 -3.18284 1.22098 0
M  V30 1517 H 152.244 -1.80658 2.3938 0
M  V30 1518 H 149.797 -0.911329 1.26982 0
M  V30 1519 H 150.532 -3.23306 0.253672 0
M  V30 1520 H 150.317 -3.35843 2.02366 0
M  V30 1521 H 151.807 -3.98289 1.25522 0
M  V30 1522 N 152.244 -1.26651 -0.937939 0
M  V30 1523 C 153.491 -1.12387 -1.6845 0
M  V30 1524 C 153.819 0.332208 -1.91642 0
M  V30 1525 O 153.074 1.2602 -1.49725 0
M  V30 1526 C 153.373 -1.84168 -3.06295 0
M  V30 1527 C 153.039 -3.34056 -3.02849 0
M  V30 1528 C 151.701 -3.74942 -3.01616 0
M  V30 1529 C 154.053 -4.29741 -2.9491 0
M  V30 1530 C 151.381 -5.09894 -2.90215 0
M  V30 1531 C 153.733 -5.64738 -2.8505 0
M  V30 1532 C 152.397 -6.0493 -2.82162 0
M  V30 1533 H 151.667 -0.411252 -0.616403 0
M  V30 1534 H 154.314 -1.57134 -1.09459 0
M  V30 1535 H 152.619 -1.319 -3.6893 0
M  V30 1536 H 154.316 -1.70569 -3.62915 0
M  V30 1537 H 150.906 -3.01534 -3.0459 0
M  V30 1538 H 155.09 -3.99133 -2.94969 0
M  V30 1539 H 150.346 -5.40194 -2.86358 0
M  V30 1540 H 154.52 -6.38561 -2.77872 0
M  V30 1541 H 152.147 -7.09457 -2.73084 0
M  V30 1542 N 153.722 1.14298 -1.08507 0
M  V30 1543 C 154.685 2.17607 -0.719711 0
M  V30 1544 C 155.685 1.58907 0.245997 0
M  V30 1545 O 156.875 1.74181 0.0254081 0
M  V30 1546 C 154.007 3.40842 -0.0627695 0
M  V30 1547 H 155.2 2.51443 -1.63452 0
M  V30 1548 H 152.753 1.28963 -0.88307 0
M  V30 1549 H 153.488 3.12587 0.863716 0
M  V30 1550 H 153.273 3.84713 -0.757504 0
M  V30 1551 H 154.763 4.17221 0.177786 0
M  V30 1552 N 155.201 0.870884 1.31352 0
M  V30 1553 C 156.449 0.48132 1.96285 0
M  V30 1554 C 156.77 -0.969813 1.69173 0
M  V30 1555 O 156.04 -1.67998 1.00764 0
M  V30 1556 H 154.62 0.175002 0.726212 0
M  V30 1557 H 157.282 1.11087 1.60143 0
M  V30 1558 H 156.378 0.639825 3.05471 0
M  V30 1559 N 156.679 -1.44442 0.630414 0
M  V30 1560 C 157.904 -2.06927 0.139944 0
M  V30 1561 C 158.329 -1.46795 -1.17613 0
M  V30 1562 O 157.687 -0.569144 -1.72135 0
M  V30 1563 C 157.735 -3.6058 0.0379581 0
M  V30 1564 O 156.839 -3.99937 -1.0062 0
M  V30 1565 H 156.18 -0.658608 0.0844483 0
M  V30 1566 H 158.71 -1.85327 0.866891 0
M  V30 1567 H 158.72 -4.07714 -0.152856 0
M  V30 1568 H 157.395 -4.03728 0.998809 0
M  V30 1569 H 155.972 -3.64436 -0.79001 0
M  V30 1570 N 158.157 -0.370918 -1.53173 0
M  V30 1571 C 159.12 0.460778 -2.24521 0
M  V30 1572 C 160.12 1.00536 -1.25496 0
M  V30 1573 O 161.31 0.890266 -1.49733 0
M  V30 1574 C 158.442 1.64457 -2.98608 0
M  V30 1575 H 159.635 -0.163613 -2.99453 0
M  V30 1576 H 157.188 -0.122699 -1.55818 0
M  V30 1577 H 157.923 2.30691 -2.2793 0
M  V30 1578 H 157.708 1.26099 -3.7127 0
M  V30 1579 H 159.198 2.23384 -3.5283 0
M  V30 1580 N 159.635 1.57281 -0.100228 0
M  V30 1581 C 160.565 2.17328 0.853857 0
M  V30 1582 C 161.546 1.10804 1.2906 0
M  V30 1583 O 162.731 1.38963 1.35657 0
M  V30 1584 C 159.861 2.75772 2.11109 0
M  V30 1585 C 158.815 3.87713 1.81279 0
M  V30 1586 C 158.141 4.32882 3.13874 0
M  V30 1587 C 159.441 5.10677 1.09574 0
M  V30 1588 H 161.135 2.97305 0.353545 0
M  V30 1589 H 158.681 1.43009 0.168612 0
M  V30 1590 H 160.634 3.16433 2.78296 0
M  V30 1591 H 159.358 1.93057 2.63432 0
M  V30 1592 H 158.017 3.476 1.16489 0
M  V30 1593 H 157.665 3.47051 3.64095 0
M  V30 1594 H 157.365 5.08358 2.94696 0
M  V30 1595 H 158.889 4.7618 3.82211 0
M  V30 1596 H 160.303 5.48474 1.66879 0
M  V30 1597 H 158.7 5.91615 1.00557 0
M  V30 1598 H 159.77 4.84835 0.0793299 0
M  V30 1599 N 161.113 -0.173488 1.56642 0
M  V30 1600 C 162.338 -0.910149 1.86363 0
M  V30 1601 C 162.763 -1.75132 0.686318 0
M  V30 1602 O 162.121 -1.77595 -0.364643 0
M  V30 1603 C 162.169 -1.76447 3.14482 0
M  V30 1604 O 161.273 -2.86584 2.96553 0
M  V30 1605 H 160.614 -0.255086 0.613047 0
M  V30 1606 H 163.144 -0.172283 2.03873 0
M  V30 1607 H 163.154 -2.16483 3.45831 0
M  V30 1608 H 161.829 -1.14658 3.99783 0
M  V30 1609 H 160.406 -2.50146 2.76553 0
M  V30 1610 N 162.591 -1.51276 -0.441967 0
M  V30 1611 C 163.541 -1.6864 -1.53442 0
M  V30 1612 C 164.525 -0.540444 -1.51552 0
M  V30 1613 O 165.717 -0.796157 -1.58083 0
M  V30 1614 C 162.846 -1.8106 -2.91672 0
M  V30 1615 C 161.932 -3.01424 -2.98336 0
M  V30 1616 N 162.323 -4.2467 -2.74752 0
M  V30 1617 C 160.621 -3.00584 -3.29493 0
M  V30 1618 C 161.322 -5.05891 -2.87139 0
M  V30 1619 N 160.298 -4.40442 -3.18609 0
M  V30 1620 H 164.1 -2.61598 -1.33954 0
M  V30 1621 H 161.614 -1.4886 -0.6492 0
M  V30 1622 H 163.611 -1.91609 -3.70259 0
M  V30 1623 H 162.271 -0.892795 -3.12185 0
M  V30 1624 H 163.282 -4.53691 -2.49769 0
M  V30 1625 H 159.959 -2.18417 -3.55809 0
M  V30 1626 H 161.349 -6.13983 -2.72899 0
M  V30 1627 N 164.069 0.697108 -1.41344 0
M  V30 1628 C 165.032 1.79281 -1.42797 0
M  V30 1629 C 166.032 1.57607 -0.318837 0
M  V30 1630 O 167.222 1.64309 -0.578642 0
M  V30 1631 C 164.354 3.17632 -1.23785 0
M  V30 1632 H 165.547 1.79385 -2.40335 0
M  V30 1633 H 163.1 0.904582 -1.27464 0
M  V30 1634 H 163.835 3.23167 -0.270814 0
M  V30 1635 H 163.62 3.34765 -2.04144 0
M  V30 1636 H 165.11 3.97617 -1.27633 0
M  V30 1637 N 165.547 1.27147 0.931209 0
M  V30 1638 C 166.51 1.09615 2.01289 0
M  V30 1639 C 167.51 0.0412581 1.60747 0
M  V30 1640 O 168.7 0.285545 1.71844 0
M  V30 1641 C 165.832 0.669447 3.34262 0
M  V30 1642 H 167.025 2.05662 2.18273 0
M  V30 1643 H 164.578 1.09885 1.11153 0
M  V30 1644 H 165.313 -0.292572 3.22978 0
M  V30 1645 H 165.098 1.43127 3.65044 0
M  V30 1646 H 166.588 0.568921 4.13706 0
M  V30 1647 N 167.025 -1.13721 1.09112 0
M  V30 1648 C 167.955 -2.21148 0.749385 0
M  V30 1649 C 168.936 -1.6792 -0.271475 0
M  V30 1650 O 170.121 -1.93693 -0.140251 0
M  V30 1651 C 167.251 -3.46905 0.165659 0
M  V30 1652 C 166.205 -4.13203 1.11567 0
M  V30 1653 C 165.531 -5.33248 0.393809 0
M  V30 1654 C 166.831 -4.60912 2.45678 0
M  V30 1655 H 168.525 -2.4999 1.64758 0
M  V30 1656 H 166.071 -1.20156 0.793626 0
M  V30 1657 H 168.024 -4.21313 -0.085466 0
M  V30 1658 H 166.748 -3.17449 -0.767714 0
M  V30 1659 H 165.407 -3.40758 1.35202 0
M  V30 1660 H 165.055 -5.00054 -0.543599 0
M  V30 1661 H 164.755 -5.78552 1.02721 0
M  V30 1662 H 166.279 -6.10413 0.150908 0
M  V30 1663 H 167.693 -5.26759 2.26269 0
M  V30 1664 H 166.09 -5.16944 3.04776 0
M  V30 1665 H 167.16 -3.75603 3.06677 0
M  V30 1666 N 168.503 -0.877838 -1.30888 0
M  V30 1667 C 169.914 -0.544193 -1.78593 0
M  V30 1668 C 170.265 0.939301 -1.72254 0
M  V30 1669 O 169.39 1.7337 -1.29505 0
M  V30 1670 C 169.985 -0.98105 -3.24285 0
M  V30 1671 C 168.544 -0.698935 -3.69854 0
M  V30 1672 C 167.691 -1.168 -2.51502 0
M  V30 1673 H 170.642 -1.06278 -1.17859 0
M  V30 1674 H 170.663 -0.307009 -3.79259 0
M  V30 1675 H 170.175 -2.06079 -3.28866 0
M  V30 1676 H 168.276 0.369112 -3.70767 0
M  V30 1677 H 168.389 -1.28148 -4.61644 0
M  V30 1678 H 166.753 -0.587535 -2.47831 0
M  V30 1679 H 167.536 -2.25533 -2.58824 0
M  V30 1680 O 170.02 1.4153 -0.777912 0
M  V30 1681 H 170.711 1.9062 -0.344054 0
M  V30 END ATOM
M  V30 BEGIN BOND
M  V30 END BOND
M  V30 END CTAB
M  END
$$$$
