drugbank_target|Q9XB61 Carbapenam-3-carboxylate synthase (DB02596; DB03215)
 OpenBabel12092120253D

  0  0  0     0  0            999 V3000
M  V30 BEGIN CTAB
M  V30 COUNTS 7821 7907 0 0 0
M  V30 BEGIN ATOM
M  V30 1 H -0.908 1.98254 -0.117106 0
M  V30 2 N 0 1.576 0 0
M  V30 3 C 0.933 2.03868 1.02534 0
M  V30 4 C 1.911 0.928543 1.3348 0
M  V30 5 O 3.095 1.19667 1.45644 0
M  V30 6 C 0.222 2.43627 2.35294 0
M  V30 7 C -0.732 3.65373 2.2001 0
M  V30 8 S 0.101 5.13292 1.52614 0
M  V30 9 C 1.257 5.56322 2.86805 0
M  V30 10 H 1.49 2.90518 0.631377 0
M  V30 11 H -0.977 1.52953 0.210867 0
M  V30 12 H 0.981 2.67203 3.11629 0
M  V30 13 H -0.358 1.57376 2.7183 0
M  V30 14 H -1.165 3.90944 3.18086 0
M  V30 15 H -1.563 3.418 1.51819 0
M  V30 16 H 0.729 5.58782 3.83104 0
M  V30 17 H 1.672 6.56266 2.65933 0
M  V30 18 H 2.08 4.83886 2.90714 0
M  V30 19 N 1.4781 -0.272755 1.55222 0
M  V30 20 C 2.7031 -1.02683 1.80197 0
M  V30 21 C 3.1281 -1.79142 0.573551 0
M  V30 22 O 2.4861 -1.74917 -0.476849 0
M  V30 23 C 2.5341 -1.9609 3.02624 0
M  V30 24 O 1.6381 -3.04863 2.77727 0
M  V30 25 H 0.9791 -0.293557 0.595584 0
M  V30 26 H 3.5091 -0.30159 2.02365 0
M  V30 27 H 3.5191 -2.38039 3.31363 0
M  V30 28 H 2.1941 -1.39851 3.91682 0
M  V30 29 H 0.7711 -2.67228 2.60084 0
M  V30 30 N 2.9562 -1.48159 -0.537278 0
M  V30 31 C 3.9042 -1.62573 -1.66352 0
M  V30 32 C 4.8982 -0.492366 -1.62087 0
M  V30 33 O 6.1042 -0.670847 -1.67032 0
M  V30 34 H 2.4792 -0.511992 -0.550789 0
M  V30 35 H 4.4502 -2.57176 -1.51337 0
M  V30 36 C 3.1992 -1.67583 -3.04649 0
M  V30 37 H 2.5222 -2.54151 -3.08622 0
M  V30 38 H 3.9622 -1.81713 -3.83088 0
M  V30 39 C 2.4212 -0.413039 -3.34358 0
M  V30 40 O 2.9512 0.477259 -3.98855 0
M  V30 41 N 1.1572 -0.286961 -2.8918 0
M  V30 42 H 0.7042 -1.01241 -2.36871 0
M  V30 43 H 0.6622 0.556963 -3.09427 0
M  V30 44 N 4.4343 0.785586 -1.36625 0
M  V30 45 C 5.6593 1.57963 -1.34397 0
M  V30 46 C 6.0843 1.87964 0.071526 0
M  V30 47 O 5.4423 1.48182 1.0446 0
M  V30 48 C 5.4903 2.87511 -2.17646 0
M  V30 49 O 4.5943 3.81281 -1.57158 0
M  V30 50 H 3.9353 0.479014 -0.459828 0
M  V30 51 H 6.4653 0.973411 -1.79961 0
M  V30 52 H 6.4753 3.36745 -2.30362 0
M  V30 53 H 5.1503 2.65002 -3.20541 0
M  V30 54 H 3.7273 3.39885 -1.53403 0
M  V30 55 N 5.9124 1.20967 1.01018 0
M  V30 56 C 7.1594 1.02374 1.74716 0
M  V30 57 C 7.4874 -0.443375 1.89379 0
M  V30 58 O 6.7424 -1.34535 1.42123 0
M  V30 59 C 7.0414 1.65997 3.16512 0
M  V30 60 C 6.7074 3.15831 3.2181 0
M  V30 61 C 5.3694 3.56719 3.22963 0
M  V30 62 C 7.7214 4.11816 3.19464 0
M  V30 63 C 5.0494 4.92107 3.19449 0
M  V30 64 C 7.4014 5.47158 3.17491 0
M  V30 65 C 6.0654 5.87451 3.16951 0
M  V30 66 H 5.3354 0.374614 0.639332 0
M  V30 67 H 7.9824 1.50485 1.18434 0
M  V30 68 H 6.2874 1.10166 3.75993 0
M  V30 69 H 7.9844 1.49119 3.72242 0
M  V30 70 H 4.5744 2.83263 3.21652 0
M  V30 71 H 8.7584 3.81257 3.17737 0
M  V30 72 H 4.0144 5.22579 3.17366 0
M  V30 73 H 8.1884 6.21274 3.14629 0
M  V30 74 H 5.8154 6.92329 3.13983 0
M  V30 75 N 7.3905 -1.2043 1.01659 0
M  V30 76 C 8.6305 -1.91507 0.714456 0
M  V30 77 C 8.9945 -1.77073 -0.742237 0
M  V30 78 O 10.1955 -2.42631 -1.15688 0
M  V30 79 C 8.4665 -3.38795 1.13809 0
M  V30 80 S 10.0255 -4.28216 0.957925 0
M  V30 81 H 6.8435 -0.661571 0.260471 0
M  V30 82 H 9.4455 -1.45671 1.30384 0
M  V30 83 H 8.1495 -3.46822 2.19415 0
M  V30 84 H 7.6805 -3.89656 0.541474 0
M  V30 85 H 9.6955 -4.96007 -0.138531 0
M  V30 86 N 8.8686 -0.792821 -1.36206 0
M  V30 87 C 10.1146 -0.36733 -1.99446 0
M  V30 88 C 10.4476 1.05917 -1.62774 0
M  V30 89 O 9.7226 1.7324 -0.88421 0
M  V30 90 C 10.0056 -0.535044 -3.56103 0
M  V30 91 C 9.8586 -2.00548 -4.02617 0
M  V30 92 C 11.1776 0.0478191 -4.40074 0
M  V30 93 H 8.2966 -0.134941 -0.724541 0
M  V30 94 H 10.9386 -0.999794 -1.61568 0
M  V30 95 H 9.0886 0.00336329 -3.885 0
M  V30 96 H 10.7606 -2.60521 -3.80692 0
M  V30 97 H 9.0036 -2.50686 -3.54032 0
M  V30 98 H 9.6746 -2.07377 -5.11565 0
M  V30 99 H 12.1506 -0.411822 -4.14057 0
M  V30 100 H 11.0266 -0.0995336 -5.4881 0
M  V30 101 H 11.2876 1.14025 -4.27142 0
M  V30 102 N 10.3467 1.47872 -0.545128 0
M  V30 103 C 11.5927 2.02793 -0.0166104 0
M  V30 104 C 11.9257 1.41987 1.32489 0
M  V30 105 O 11.2007 0.571045 1.85928 0
M  V30 106 C 11.4837 3.59989 0.0893294 0
M  V30 107 C 11.3367 4.3125 -1.27841 0
M  V30 108 C 12.6557 4.32606 0.808724 0
M  V30 109 H 9.7747 0.736962 -0.00751035 0
M  V30 110 H 12.4167 1.76433 -0.705085 0
M  V30 111 H 10.5667 3.82579 0.675681 0
M  V30 112 H 12.2387 4.20035 -1.90704 0
M  V30 113 H 10.4817 3.92076 -1.85632 0
M  V30 114 H 11.1527 5.39736 -1.15713 0
M  V30 115 H 13.6287 4.14936 0.310992 0
M  V30 116 H 12.5047 5.42251 0.851782 0
M  V30 117 H 12.7657 4.00963 1.86229 0
M  V30 118 N 11.8248 0.280983 1.55075 0
M  V30 119 C 13.0548 -0.336804 2.03836 0
M  V30 120 C 13.4628 -1.49577 1.15859 0
M  V30 121 O 12.8058 -1.82888 0.172503 0
M  V30 122 C 12.8678 -0.874616 3.48699 0
M  V30 123 C 12.5318 0.156478 4.56732 0
M  V30 124 C 13.5288 0.978032 5.10618 0
M  V30 125 C 11.2138 0.292409 5.01448 0
M  V30 126 C 13.2078 1.92165 6.07743 0
M  V30 127 C 10.8948 1.23949 5.98398 0
M  V30 128 C 11.8928 2.05261 6.51427 0
M  V30 129 O 11.5808 2.98367 7.4648 0
M  V30 130 H 11.3128 -0.0800885 0.671239 0
M  V30 131 H 13.8668 0.412589 2.01213 0
M  V30 132 H 12.0968 -1.67418 3.4858 0
M  V30 133 H 13.7858 -1.40612 3.80766 0
M  V30 134 H 14.5518 0.883782 4.7688 0
M  V30 135 H 10.4308 -0.330498 4.59814 0
M  V30 136 H 13.9748 2.55672 6.49059 0
M  V30 137 H 9.8718 1.33454 6.31554 0
M  V30 138 H 10.6398 2.93116 7.64215 0
M  V30 139 N 13.3029 -1.57598 0.00835791 0
M  V30 140 C 14.2499 -2.08945 -0.980346 0
M  V30 141 C 15.2199 -0.986738 -1.33614 0
M  V30 142 O 16.4049 -1.25968 -1.43306 0
M  V30 143 C 13.5449 -2.60425 -2.26435 0
M  V30 144 C 12.6579 -3.84628 -1.96685 0
M  V30 145 C 11.7929 -4.24579 -3.19228 0
M  V30 146 C 10.8319 -5.41596 -2.85202 0
M  V30 147 N 9.9689 -5.768 -4.00307 0
M  V30 148 H 14.8089 -2.93148 -0.535551 0
M  V30 149 H 12.3459 -1.44912 -0.252776 0
M  V30 150 H 14.3039 -2.88354 -3.01509 0
M  V30 151 H 12.9339 -1.79083 -2.68568 0
M  V30 152 H 11.9859 -3.63556 -1.11942 0
M  V30 153 H 13.2979 -4.69796 -1.67611 0
M  V30 154 H 12.4519 -4.53834 -4.02641 0
M  V30 155 H 11.1909 -3.38137 -3.51447 0
M  V30 156 H 10.1959 -5.12056 -2.00198 0
M  V30 157 H 11.4209 -6.29721 -2.54222 0
M  V30 158 H 9.3669 -4.93316 -4.32407 0
M  V30 159 H 9.2839 -6.5656 -3.74786 0
M  V30 160 H 10.5519 -6.10652 -4.84484 0
M  V30 161 N 14.781 0.264519 -1.55364 0
M  V30 162 C 16.029 0.993021 -1.76021 0
M  V30 163 C 16.35 1.86511 -0.569099 0
M  V30 164 O 15.62 1.91438 0.415735 0
M  V30 165 H 14.2 0.369639 -0.649135 0
M  V30 166 H 16.862 0.286707 -1.9278 0
M  V30 167 H 15.958 1.62502 -2.66457 0
M  V30 168 N 16.2591 1.48442 0.529413 0
M  V30 169 C 17.4841 1.60406 1.31471 0
M  V30 170 C 17.9091 0.264738 1.86228 0
M  V30 171 O 17.2671 -0.763668 1.64432 0
M  V30 172 C 17.3151 2.65419 2.44101 0
M  V30 173 O 16.4191 2.22618 3.47153 0
M  V30 174 H 15.7601 0.537863 0.389357 0
M  V30 175 H 18.2901 1.94432 0.636965 0
M  V30 176 H 18.3001 2.86709 2.90279 0
M  V30 177 H 16.9751 3.62652 2.03608 0
M  V30 178 H 15.5521 2.11543 3.0709 0
M  V30 179 N 17.7372 -0.778329 1.37039 0
M  V30 180 C 19.0142 -1.52551 1.22424 0
M  V30 181 C 19.3942 -2.10288 -0.184964 0
M  V30 182 O 18.7422 -1.94953 -1.19187 0
M  V30 183 C 18.9522 -2.61164 2.31504 0
M  V30 184 C 20.3002 -3.28746 2.68721 0
M  V30 185 O 21.3242 -2.71455 2.30631 0
M  V30 186 O 20.1832 -4.3231 3.3432 0
M  V30 187 H 17.2772 -0.675343 0.477326 0
M  V30 188 H 19.8232 -0.815859 1.48801 0
M  V30 189 H 18.5952 -2.16574 3.25901 0
M  V30 190 H 18.2182 -3.39737 2.06554 0
M  V30 191 N 19.2153 -1.21501 -1.00376 0
M  V30 192 C 20.4433 -1.059 -1.77744 0
M  V30 193 C 20.8583 0.391125 -1.84704 0
M  V30 194 O 20.2153 1.27133 -1.30933 0
M  V30 195 C 20.2663 -1.65111 -3.21591 0
M  V30 196 O 19.9873 -3.0445 -3.15027 0
M  V30 197 C 21.4883 -1.54637 -4.15454 0
M  V30 198 H 18.7083 -0.371825 -0.558558 0
M  V30 199 H 21.2523 -1.60865 -1.26264 0
M  V30 200 H 19.4073 -1.14235 -3.70175 0
M  V30 201 H 19.8213 -3.3278 -4.0541 0
M  V30 202 H 21.2953 -2.00808 -5.14179 0
M  V30 203 H 21.7723 -0.501022 -4.36333 0
M  V30 204 H 22.3783 -2.04767 -3.72761 0
M  V30 205 N 20.6934 1.19889 -1.02296 0
M  V30 206 C 21.9704 1.85148 -0.630832 0
M  V30 207 C 22.3504 1.91385 0.890782 0
M  V30 208 O 21.6984 1.42642 1.78509 0
M  V30 209 C 21.9084 3.24442 -1.28602 0
M  V30 210 C 23.2564 4.00663 -1.4055 0
M  V30 211 O 24.2804 3.33818 -1.24273 0
M  V30 212 O 23.1394 5.20387 -1.66913 0
M  V30 213 H 20.2334 0.797613 -0.218499 0
M  V30 214 H 22.7794 1.27427 -1.12074 0
M  V30 215 H 21.5514 3.14704 -2.32545 0
M  V30 216 H 21.1744 3.89802 -0.7836 0
M  V30 217 N 22.1715 0.800033 1.35784 0
M  V30 218 C 23.4205 0.37387 1.98205 0
M  V30 219 C 23.7335 -1.06302 1.64193 0
M  V30 220 O 24.9395 -1.59198 2.19928 0
M  V30 221 C 23.3955 0.617532 3.54562 0
M  V30 222 C 23.0035 2.06654 3.9749 0
M  V30 223 C 24.7475 0.256401 4.23725 0
M  V30 224 C 22.6545 2.2563 5.46667 0
M  V30 225 H 21.5845 0.136055 0.741623 0
M  V30 226 H 24.2355 0.983166 1.54939 0
M  V30 227 H 22.6175 -0.0616248 3.95952 0
M  V30 228 H 23.7915 2.78296 3.67271 0
M  V30 229 H 22.1065 2.38691 3.41197 0
M  V30 230 H 24.7035 0.376318 5.33374 0
M  V30 231 H 25.0465 -0.796692 4.08606 0
M  V30 232 H 25.5795 0.889214 3.87734 0
M  V30 233 H 22.3185 3.2936 5.66747 0
M  V30 234 H 21.8385 1.58504 5.78478 0
M  V30 235 H 23.5175 2.06861 6.1304 0
M  V30 236 N 23.6496 -1.47581 0.552962 0
M  V30 237 C 24.5976 -2.31648 -0.21023 0
M  V30 238 C 25.5916 -1.42663 -0.913432 0
M  V30 239 O 26.7976 -1.5945 -0.835201 0
M  V30 240 H 23.1726 -0.746989 -0.0866676 0
M  V30 241 H 25.1436 -2.93869 0.518051 0
M  V30 242 C 23.8926 -3.25226 -1.22976 0
M  V30 243 H 23.2156 -3.93658 -0.698077 0
M  V30 244 H 24.6556 -3.86889 -1.73473 0
M  V30 245 C 23.1146 -2.48448 -2.27542 0
M  V30 246 O 23.6446 -2.22585 -3.34393 0
M  V30 247 N 21.8506 -2.09532 -2.01357 0
M  V30 248 H 21.3976 -2.30765 -1.14478 0
M  V30 249 H 21.3556 -1.58476 -2.71538 0
M  V30 250 N 25.1277 -0.289203 -1.54924 0
M  V30 251 C 26.0757 0.607966 -2.24514 0
M  V30 252 C 27.0697 1.14655 -1.24702 0
M  V30 253 O 28.2757 1.09856 -1.4259 0
M  V30 254 H 24.6507 0.21464 -0.720718 0
M  V30 255 H 26.6217 -0.00164182 -2.984 0
M  V30 256 C 25.3707 1.77406 -2.99036 0
M  V30 257 H 24.6937 1.36884 -3.75637 0
M  V30 258 H 26.1337 2.37814 -3.51028 0
M  V30 259 C 24.5927 2.67107 -2.05318 0
M  V30 260 O 25.1227 3.6787 -1.61353 0
M  V30 261 N 23.3287 2.34582 -1.71521 0
M  V30 262 H 22.8757 1.52688 -2.07471 0
M  V30 263 H 22.8337 2.94867 -1.0909 0
M  V30 264 N 26.6058 1.57591 -0.0167156 0
M  V30 265 C 27.8548 1.90461 0.663877 0
M  V30 266 C 28.1678 0.893515 1.73999 0
M  V30 267 O 29.3738 1.11302 2.47637 0
M  V30 268 C 27.8298 3.38155 1.23204 0
M  V30 269 C 27.4378 4.47597 0.189866 0
M  V30 270 C 29.1818 3.80111 1.88986 0
M  V30 271 C 27.0888 5.86379 0.768964 0
M  V30 272 H 26.0188 0.710738 0.251729 0
M  V30 273 H 28.6698 1.83326 -0.0799926 0
M  V30 274 H 27.0518 3.40182 2.02712 0
M  V30 275 H 28.2258 4.57112 -0.581846 0
M  V30 276 H 26.5408 4.14766 -0.368475 0
M  V30 277 H 29.1378 4.81145 2.33247 0
M  V30 278 H 29.4808 3.14511 2.72743 0
M  V30 279 H 30.0138 3.80454 1.16187 0
M  V30 280 H 26.7528 6.55493 -0.0301957 0
M  V30 281 H 26.2728 5.80496 1.50945 0
M  V30 282 H 27.9518 6.34563 1.26251 0
M  V30 283 N 28.0839 -0.256276 1.55502 0
M  V30 284 C 29.0159 -1.33981 1.85962 0
M  V30 285 C 30.0289 -1.44743 0.745212 0
M  V30 286 O 31.2179 -1.4626 1.02324 0
M  V30 287 C 28.3179 -2.7194 2.02242 0
M  V30 288 C 27.4909 -2.83562 3.33033 0
M  V30 289 C 26.5499 -4.02304 3.39172 0
M  V30 290 O 25.5759 -3.92273 4.12444 0
M  V30 291 N 26.7779 -5.15045 2.67784 0
M  V30 292 H 29.5429 -1.08191 2.7949 0
M  V30 293 H 27.1039 -0.446388 1.55624 0
M  V30 294 H 29.0959 -3.49697 2.03701 0
M  V30 295 H 27.6659 -2.90479 1.15502 0
M  V30 296 H 26.8859 -1.92555 3.43971 0
M  V30 297 H 28.1739 -2.88271 4.19258 0
M  V30 298 H 27.5719 -5.26085 2.07968 0
M  V30 299 H 26.1289 -5.90972 2.74947 0
M  V30 300 N 29.562 -1.4872 -0.521534 0
M  V30 301 C 30.978 -1.35028 -0.850855 0
M  V30 302 C 31.178 -0.367712 -1.98116 0
M  V30 303 O 30.234 0.208037 -2.51642 0
M  V30 304 C 31.547 -2.75263 -1.21041 0
M  V30 305 C 33.095 -2.83813 -1.31981 0
M  V30 306 C 33.57 -4.24769 -1.71276 0
M  V30 307 N 35.061 -4.27482 -1.78363 0
M  V30 308 C 35.796 -5.33494 -2.1017 0
M  V30 309 N 35.292 -6.49775 -2.40343 0
M  V30 310 N 37.085 -5.20894 -2.11248 0
M  V30 311 H 29.236 -2.11214 0.22413 0
M  V30 312 H 31.499 -0.947252 0.0376439 0
M  V30 313 H 31.205 -3.48765 -0.453415 0
M  V30 314 H 31.079 -3.09327 -2.15863 0
M  V30 315 H 33.466 -2.10561 -2.06756 0
M  V30 316 H 33.547 -2.53358 -0.352596 0
M  V30 317 H 33.191 -4.9854 -0.970588 0
M  V30 318 H 33.121 -4.52673 -2.69062 0
M  V30 319 H 35.612 -3.43611 -1.57288 0
M  V30 320 H 35.925 -7.26402 -2.63743 0
M  V30 321 H 34.27 -6.53035 -2.37844 0
M  V30 322 H 37.461 -4.29065 -1.87139 0
M  V30 323 H 37.634 -6.03612 -2.35704 0
M  V30 324 N 31.0401 0.771051 -1.3745 0
M  V30 325 C 32.3171 1.519 -1.23231 0
M  V30 326 C 32.6971 2.10383 0.173809 0
M  V30 327 O 32.0451 1.95583 1.18151 0
M  V30 328 C 32.2551 2.59933 -2.32886 0
M  V30 329 C 33.6031 3.27316 -2.70461 0
M  V30 330 O 34.6271 2.70228 -2.32068 0
M  V30 331 O 33.4861 4.30531 -3.36608 0
M  V30 332 H 30.5801 0.672803 -0.480901 0
M  V30 333 H 33.1261 0.807957 -1.49232 0
M  V30 334 H 31.8981 2.14842 -3.27045 0
M  V30 335 H 31.5211 3.38637 -2.08353 0
M  V30 336 N 32.5182 1.22032 0.997298 0
M  V30 337 C 33.7652 1.04222 1.73621 0
M  V30 338 C 34.0932 -0.423264 1.89839 0
M  V30 339 O 33.3482 -1.3302 1.43542 0
M  V30 340 C 33.6472 1.69345 3.14733 0
M  V30 341 C 33.3132 3.19226 3.18442 0
M  V30 342 C 31.9752 3.60124 3.19161 0
M  V30 343 C 34.3272 4.15181 3.15078 0
M  V30 344 C 31.6552 4.95467 3.14212 0
M  V30 345 C 34.0072 5.50495 3.1167 0
M  V30 346 C 32.6712 5.90779 3.10703 0
M  V30 347 H 31.9412 0.381374 0.635323 0
M  V30 348 H 34.5882 1.51732 1.16831 0
M  V30 349 H 32.8932 1.14147 3.74803 0
M  V30 350 H 34.5902 1.53059 3.7064 0
M  V30 351 H 31.1802 2.86659 3.18629 0
M  V30 352 H 35.3642 3.84605 3.13676 0
M  V30 353 H 30.6202 5.25916 3.11805 0
M  V30 354 H 34.7942 6.24576 3.08022 0
M  V30 355 H 32.4212 6.9562 3.06622 0
M  V30 356 N 33.9963 -1.19345 1.0293 0
M  V30 357 C 35.2733 -1.84811 0.640642 0
M  V30 358 C 35.6533 -1.91855 -0.88062 0
M  V30 359 O 35.0013 -1.43587 -1.7775 0
M  V30 360 C 35.2113 -3.23755 1.30321 0
M  V30 361 C 36.5593 -3.99912 1.42673 0
M  V30 362 O 37.5833 -3.33155 1.26041 0
M  V30 363 O 36.4423 -5.19494 1.6967 0
M  V30 364 H 33.5363 -0.796443 0.222726 0
M  V30 365 H 36.0823 -1.26831 1.12748 0
M  V30 366 H 34.8543 -3.13466 2.34211 0
M  V30 367 H 34.4773 -3.89381 0.804261 0
M  V30 368 N 35.4744 -0.807222 -1.35358 0
M  V30 369 C 36.7224 -0.387122 -1.98358 0
M  V30 370 C 37.0434 1.04942 -1.64354 0
M  V30 371 O 36.3134 1.72615 -0.926339 0
M  V30 372 H 34.8934 -0.140154 -0.733734 0
M  V30 373 H 37.5554 -1.0332 -1.6526 0
M  V30 374 H 36.6514 -0.493352 -3.08176 0
M  V30 375 N 36.9525 1.47285 -0.560781 0
M  V30 376 C 37.8995 2.30058 0.18491 0
M  V30 377 C 38.8695 1.39281 0.904986 0
M  V30 378 O 40.0545 1.68241 0.899979 0
M  V30 379 C 37.1945 3.23317 1.20666 0
M  V30 380 C 36.3075 4.29186 0.492285 0
M  V30 381 C 35.4425 5.09592 1.49964 0
M  V30 382 C 34.4815 6.07232 0.770439 0
M  V30 383 N 33.6185 6.80584 1.72479 0
M  V30 384 H 38.4585 2.93302 -0.527048 0
M  V30 385 H 35.9955 1.44568 -0.271738 0
M  V30 386 H 37.9535 3.75811 1.81168 0
M  V30 387 H 36.5835 2.61929 1.88661 0
M  V30 388 H 35.6355 3.7972 -0.227333 0
M  V30 389 H 36.9475 4.98738 -0.0787929 0
M  V30 390 H 36.1015 5.66254 2.17809 0
M  V30 391 H 34.8405 4.3995 2.10464 0
M  V30 392 H 33.8455 5.49745 0.0780846 0
M  V30 393 H 35.0705 6.78884 0.171134 0
M  V30 394 H 33.0165 6.1367 2.3183 0
M  V30 395 H 32.9335 7.46319 1.20596 0
M  V30 396 H 34.2015 7.41818 2.39428 0
M  V30 397 N 38.4306 0.297415 1.54768 0
M  V30 398 C 39.6786 -0.312295 1.99673 0
M  V30 399 C 39.9996 -1.54686 1.18732 0
M  V30 400 O 39.2696 -1.93854 0.282382 0
M  V30 401 H 37.8496 -0.118381 0.73756 0
M  V30 402 H 40.5116 0.407915 1.90583 0
M  V30 403 H 39.6076 -0.586813 3.06534 0
M  V30 404 N 39.9087 -1.5758 0.0250728 0
M  V30 405 C 40.8187 -2.1343 -0.973905 0
M  V30 406 C 41.8347 -1.08556 -1.35984 0
M  V30 407 O 43.0107 -1.40592 -1.44207 0
M  V30 408 C 40.0757 -2.64703 -2.23904 0
M  V30 409 C 39.1367 -3.84276 -1.91391 0
M  V30 410 C 38.3697 -4.33095 -3.11873 0
M  V30 411 O 38.5927 -3.81107 -4.24398 0
M  V30 412 O 37.5267 -5.24984 -2.94406 0
M  V30 413 H 41.3527 -2.99057 -0.529036 0
M  V30 414 H 38.9377 -1.48118 -0.195288 0
M  V30 415 H 40.8197 -2.97769 -2.98181 0
M  V30 416 H 39.4947 -1.82161 -2.6758 0
M  V30 417 H 38.4017 -3.56143 -1.14511 0
M  V30 418 H 39.7347 -4.67968 -1.52534 0
M  V30 419 N 41.3868 0.248026 -1.55636 0
M  V30 420 C 42.3498 1.29044 -1.89421 0
M  V30 421 C 43.3498 1.41134 -0.770581 0
M  V30 422 O 44.5398 1.39854 -1.03858 0
M  V30 423 C 41.6718 2.66831 -2.12165 0
M  V30 424 H 42.8648 1.00305 -2.82629 0
M  V30 425 H 40.4178 0.487265 -1.48511 0
M  V30 426 H 41.1528 3.00711 -1.21422 0
M  V30 427 H 40.9378 2.59438 -2.93997 0
M  V30 428 H 42.4278 3.42103 -2.3949 0
M  V30 429 N 42.8649 1.48995 0.513639 0
M  V30 430 C 43.7949 1.67636 1.62544 0
M  V30 431 C 44.7759 0.525087 1.61793 0
M  V30 432 O 45.9609 0.759502 1.78732 0
M  V30 433 C 43.0909 1.73114 3.01079 0
M  V30 434 C 42.0449 2.87905 3.16693 0
M  V30 435 C 41.3709 2.78486 4.56453 0
M  V30 436 C 42.6709 4.29005 2.97913 0
M  V30 437 H 44.3649 2.60716 1.47198 0
M  V30 438 H 41.9109 1.25465 0.706714 0
M  V30 439 H 43.8639 1.84742 3.78746 0
M  V30 440 H 42.5879 0.766241 3.17484 0
M  V30 441 H 41.2469 2.75859 2.41448 0
M  V30 442 H 40.8949 1.7993 4.69717 0
M  V30 443 H 40.5949 3.55523 4.67843 0
M  V30 444 H 42.1189 2.92104 5.36197 0
M  V30 445 H 43.5329 4.41798 3.65359 0
M  V30 446 H 41.9299 5.07166 3.20785 0
M  V30 447 H 42.9999 4.44329 1.94165 0
M  V30 448 N 44.343 -0.763751 1.37857 0
M  V30 449 C 45.568 -1.55805 1.36893 0
M  V30 450 C 45.993 -1.88054 -0.0416135 0
M  V30 451 O 45.351 -1.49825 -1.02089 0
M  V30 452 C 45.399 -2.84012 2.22192 0
M  V30 453 O 44.503 -3.78732 1.63204 0
M  V30 454 H 43.844 -0.471638 0.46739 0
M  V30 455 H 46.374 -0.944657 1.81487 0
M  V30 456 H 46.384 -3.33037 2.35691 0
M  V30 457 H 45.059 -2.59869 3.24716 0
M  V30 458 H 43.636 -3.37402 1.58791 0
M  V30 459 N 45.8211 -1.22559 -0.990812 0
M  V30 460 C 46.7691 -0.994798 -2.10253 0
M  V30 461 C 47.7631 0.0627798 -1.69284 0
M  V30 462 O 48.9691 -0.0898392 -1.79776 0
M  V30 463 H 45.3441 -0.304527 -0.687581 0
M  V30 464 H 47.3151 -1.93812 -2.26891 0
M  V30 465 C 46.0641 -0.591439 -3.42633 0
M  V30 466 H 45.3871 -1.3969 -3.74602 0
M  V30 467 H 46.8271 -0.469385 -4.21394 0
M  V30 468 C 45.2861 0.699232 -3.29564 0
M  V30 469 O 45.8161 1.75112 -3.61523 0
M  V30 470 N 44.0221 0.671182 -2.82743 0
M  V30 471 H 43.5691 -0.185136 -2.56934 0
M  V30 472 H 43.5271 1.53502 -2.7438 0
M  V30 473 N 47.2992 1.18797 -1.03562 0
M  V30 474 C 48.5472 1.88278 -0.734569 0
M  V30 475 C 48.8682 1.8043 0.739586 0
M  V30 476 O 48.1382 1.21925 1.53333 0
M  V30 477 H 46.7182 0.696991 -0.268725 0
M  V30 478 H 49.3802 1.44192 -1.31129 0
M  V30 479 H 48.4762 2.94443 -1.03489 0
M  V30 480 N 48.7773 0.814389 1.34928 0
M  V30 481 C 50.0073 0.41054 2.0248 0
M  V30 482 C 50.4153 -0.985625 1.61499 0
M  V30 483 O 49.7583 -1.64781 0.811976 0
M  V30 484 C 49.8203 0.423384 3.56998 0
M  V30 485 C 49.4843 1.77141 4.21272 0
M  V30 486 C 50.4813 2.73093 4.42398 0
M  V30 487 C 48.1663 2.05755 4.58225 0
M  V30 488 C 50.1603 3.95838 4.9959 0
M  V30 489 C 47.8473 3.28762 5.1513 0
M  V30 490 C 48.8453 4.23621 5.35755 0
M  V30 491 O 48.5333 5.44456 5.91458 0
M  V30 492 H 48.2653 0.163997 0.655806 0
M  V30 493 H 50.8193 1.10155 1.73364 0
M  V30 494 H 49.0493 -0.324276 3.85338 0
M  V30 495 H 50.7383 0.0407683 4.0588 0
M  V30 496 H 51.5043 2.5228 4.14222 0
M  V30 497 H 47.3833 1.32727 4.4148 0
M  V30 498 H 50.9273 4.69891 5.15605 0
M  V30 499 H 46.8243 3.49443 5.42734 0
M  V30 500 H 47.5923 5.4586 6.09901 0
M  V30 501 N 50.2554 -1.46986 0.568584 0
M  V30 502 C 51.1854 -2.32946 -0.160753 0
M  V30 503 C 52.1664 -1.44487 -0.897631 0
M  V30 504 O 53.3514 -1.73327 -0.875867 0
M  V30 505 C 50.4814 -3.26494 -1.18403 0
M  V30 506 C 49.4354 -4.24282 -0.562895 0
M  V30 507 C 48.7614 -5.07236 -1.69163 0
M  V30 508 C 50.0614 -5.19989 0.490761 0
M  V30 509 H 51.7554 -2.94175 0.556916 0
M  V30 510 H 49.3014 -1.4146 0.26927 0
M  V30 511 H 51.2544 -3.85477 -1.70251 0
M  V30 512 H 49.9784 -2.63343 -1.93179 0
M  V30 513 H 48.6374 -3.66541 -0.0656164 0
M  V30 514 H 48.2854 -4.4048 -2.42871 0
M  V30 515 H 47.9854 -5.7345 -1.28174 0
M  V30 516 H 49.5094 -5.6908 -2.21314 0
M  V30 517 H 50.9234 -5.73271 0.0579047 0
M  V30 518 H 49.3204 -5.94469 0.820165 0
M  V30 519 H 50.3904 -4.64777 1.3824 0
M  V30 520 N 51.7335 -0.305618 -1.54608 0
M  V30 521 C 52.9805 0.302298 -2.00231 0
M  V30 522 C 53.3085 1.5354 -1.19398 0
M  V30 523 O 52.5635 1.93973 -0.259423 0
M  V30 524 C 52.8625 0.698983 -3.50498 0
M  V30 525 C 52.5285 -0.432903 -4.48817 0
M  V30 526 C 51.1905 -0.743622 -4.75419 0
M  V30 527 C 53.5425 -1.19409 -5.07337 0
M  V30 528 C 50.8705 -1.81857 -5.57804 0
M  V30 529 C 53.2225 -2.25899 -5.90891 0
M  V30 530 C 51.8865 -2.57572 -6.15803 0
M  V30 531 H 51.1565 0.110619 -0.732697 0
M  V30 532 H 53.8035 -0.425674 -1.86709 0
M  V30 533 H 52.1085 1.50711 -3.61654 0
M  V30 534 H 53.8055 1.1806 -3.83227 0
M  V30 535 H 50.3955 -0.18063 -4.28219 0
M  V30 536 H 54.5795 -0.967295 -4.86782 0
M  V30 537 H 49.8355 -2.06864 -5.75341 0
M  V30 538 H 54.0095 -2.85335 -6.35261 0
M  V30 539 H 51.6365 -3.40998 -6.7943 0
M  V30 540 N 53.2116 1.57565 -0.0334293 0
M  V30 541 C 54.4606 1.91155 0.643639 0
M  V30 542 C 54.7736 0.91192 1.73042 0
M  V30 543 O 55.9796 1.13923 2.46442 0
M  V30 544 C 54.4356 3.39443 1.1961 0
M  V30 545 C 54.0436 4.47774 0.142381 0
M  V30 546 C 55.7876 3.82094 1.84944 0
M  V30 547 C 53.6946 5.87162 0.706727 0
M  V30 548 H 52.6246 0.713368 0.244176 0
M  V30 549 H 55.2756 1.8323 -0.0994323 0
M  V30 550 H 53.6576 3.42313 1.99092 0
M  V30 551 H 54.8316 4.56469 -0.630296 0
M  V30 552 H 53.1466 4.14352 -0.412446 0
M  V30 553 H 55.7436 4.83591 2.2813 0
M  V30 554 H 56.0866 3.17386 2.69392 0
M  V30 555 H 56.6196 3.81665 1.12145 0
M  V30 556 H 53.3586 6.55424 -0.0997178 0
M  V30 557 H 52.8786 5.82064 1.44779 0
M  V30 558 H 54.5576 6.35866 1.19514 0
M  V30 559 N 54.6897 -0.239769 1.55765 0
M  V30 560 C 55.5997 -1.31831 1.94056 0
M  V30 561 C 56.6157 -1.52275 0.841925 0
M  V30 562 O 57.7917 -1.65759 1.14394 0
M  V30 563 C 54.8567 -2.65156 2.23368 0
M  V30 564 C 53.9177 -2.53173 3.46701 0
M  V30 565 C 53.1507 -3.8014 3.74606 0
M  V30 566 O 53.3737 -4.82343 3.04469 0
M  V30 567 O 52.3077 -3.78344 4.68123 0
M  V30 568 H 56.1337 -1.02347 2.85935 0
M  V30 569 H 53.7187 -0.441123 1.42739 0
M  V30 570 H 55.6007 -3.43929 2.43497 0
M  V30 571 H 54.2757 -2.94358 1.34666 0
M  V30 572 H 53.1827 -1.72662 3.31871 0
M  V30 573 H 54.5157 -2.28915 4.35728 0
M  V30 574 N 56.1678 -1.49265 -0.50573 0
M  V30 575 C 57.0998 -1.617 -1.62437 0
M  V30 576 C 58.1128 -0.499924 -1.54934 0
M  V30 577 O 59.3018 -0.771785 -1.60953 0
M  V30 578 C 56.4018 -1.5533 -3.01207 0
M  V30 579 C 55.5748 -2.8249 -3.33943 0
M  V30 580 C 54.6338 -2.69238 -4.52103 0
M  V30 581 O 53.6598 -3.43167 -4.5412 0
M  V30 582 N 54.8618 -1.80468 -5.51735 0
M  V30 583 H 57.6268 -2.58177 -1.52199 0
M  V30 584 H 55.1878 -1.46294 -0.693511 0
M  V30 585 H 57.1798 -1.44125 -3.78167 0
M  V30 586 H 55.7498 -0.667297 -3.05395 0
M  V30 587 H 54.9698 -3.08081 -2.45926 0
M  V30 588 H 56.2578 -3.66802 -3.5261 0
M  V30 589 H 55.6558 -1.19653 -5.52901 0
M  V30 590 H 54.2128 -1.75188 -6.27816 0
M  V30 591 N 57.6459 0.756429 -1.3826 0
M  V30 592 C 58.5939 1.89149 -1.35372 0
M  V30 593 C 59.5879 1.67691 -0.24004 0
M  V30 594 O 60.7939 1.75294 -0.408919 0
M  V30 595 H 57.1689 0.622271 -0.422236 0
M  V30 596 H 59.1399 1.88701 -2.31159 0
M  V30 597 C 57.8889 3.26599 -1.19284 0
M  V30 598 H 57.2119 3.43695 -2.0424 0
M  V30 599 H 58.6519 4.06274 -1.21316 0
M  V30 600 C 57.1109 3.3675 0.100454 0
M  V30 601 O 57.6409 3.86951 1.07851 0
M  V30 602 N 55.8469 2.90179 0.15633 0
M  V30 603 H 55.3939 2.49517 -0.640253 0
M  V30 604 H 55.3519 2.97352 1.02123 0
M  V30 605 N 59.124 1.23083 0.984299 0
M  V30 606 C 60.372 1.05848 1.72165 0
M  V30 607 C 60.693 -0.406049 1.90726 0
M  V30 608 O 59.963 -1.29139 1.47309 0
M  V30 609 H 58.543 0.388685 0.637913 0
M  V30 610 H 61.205 1.54736 1.18503 0
M  V30 611 H 60.301 1.54327 2.71274 0
M  V30 612 N 60.6021 -1.18246 1.0419 0
M  V30 613 C 61.5521 -2.19843 0.604392 0
M  V30 614 C 62.5361 -1.56962 -0.353814 0
M  V30 615 O 63.7281 -1.76156 -0.17267 0
M  V30 616 C 60.8571 -3.43287 -0.0298975 0
M  V30 617 C 59.9431 -4.13288 0.951531 0
M  V30 618 N 60.3341 -4.59271 2.11906 0
M  V30 619 C 58.6321 -4.39165 0.7778 0
M  V30 620 C 59.3331 -5.13173 2.73912 0
M  V30 621 N 58.3091 -5.04763 2.01779 0
M  V30 622 H 62.1111 -2.53089 1.4941 0
M  V30 623 H 59.6251 -1.34465 0.910658 0
M  V30 624 H 61.6221 -4.15334 -0.361037 0
M  V30 625 H 60.2821 -3.11537 -0.915127 0
M  V30 626 H 61.2931 -4.5368 2.49789 0
M  V30 627 H 57.9701 -4.17461 -0.0572331 0
M  V30 628 H 59.3601 -5.58947 3.72864 0
M  V30 629 N 62.0802 -0.821533 -1.34494 0
M  V30 630 C 63.3102 -0.421272 -2.02259 0
M  V30 631 C 63.7182 0.977047 -1.6202 0
M  V30 632 O 63.0612 1.64348 -0.820703 0
M  V30 633 C 63.1232 -0.44231 -3.56769 0
M  V30 634 C 62.7872 -1.79372 -4.20327 0
M  V30 635 C 63.7842 -2.75435 -4.40944 0
M  V30 636 C 61.4692 -2.08182 -4.57127 0
M  V30 637 C 63.4632 -3.98482 -4.97484 0
M  V30 638 C 61.1502 -3.31489 -5.13379 0
M  V30 639 C 62.1482 -4.26457 -5.33501 0
M  V30 640 O 61.8362 -5.47585 -5.88562 0
M  V30 641 H 61.5682 -0.167473 -0.654927 0
M  V30 642 H 64.1222 -1.11073 -1.72777 0
M  V30 643 H 62.3522 0.303836 -3.85505 0
M  V30 644 H 64.0412 -0.0622925 -4.05852 0
M  V30 645 H 64.8072 -2.54473 -4.12878 0
M  V30 646 H 60.6862 -1.35066 -4.4077 0
M  V30 647 H 64.2302 -4.72618 -5.13106 0
M  V30 648 H 60.1272 -3.52316 -5.40873 0
M  V30 649 H 60.8952 -5.49086 -6.06998 0
M  V30 650 N 63.5583 1.46682 -0.576371 0
M  V30 651 C 64.4903 2.28341 0.198231 0
M  V30 652 C 65.5033 1.38141 0.861453 0
M  V30 653 O 66.6923 1.62797 0.732082 0
M  V30 654 C 63.7923 3.12986 1.29972 0
M  V30 655 C 62.9653 4.31271 0.729639 0
M  V30 656 C 62.0243 4.97363 1.71803 0
M  V30 657 O 61.0503 5.55156 1.25658 0
M  V30 658 N 62.2523 4.93796 3.05198 0
M  V30 659 H 65.0173 2.9546 -0.502324 0
M  V30 660 H 62.5783 1.56525 -0.413715 0
M  V30 661 H 64.5703 3.54066 1.96008 0
M  V30 662 H 63.1403 2.47984 1.90323 0
M  V30 663 H 62.3603 3.94052 -0.108012 0
M  V30 664 H 63.6483 5.07739 0.328438 0
M  V30 665 H 63.0463 4.48077 3.45317 0
M  V30 666 H 61.6033 5.38837 3.6674 0
M  V30 667 N 65.0364 0.313813 1.54444 0
M  V30 668 C 65.9834 -0.55655 2.23989 0
M  V30 669 C 66.9534 -1.11943 1.22711 0
M  V30 670 O 68.1384 -1.16158 1.51367 0
M  V30 671 C 65.2784 -1.71635 2.99392 0
M  V30 672 C 64.3914 -1.18364 4.15468 0
M  V30 673 C 63.5264 -2.30834 4.78424 0
M  V30 674 C 62.5654 -1.74762 5.86622 0
M  V30 675 N 61.7024 -2.80855 6.43479 0
M  V30 676 H 66.5424 0.0430893 2.97969 0
M  V30 677 H 64.0794 0.0330359 1.47063 0
M  V30 678 H 66.0374 -2.39868 3.41349 0
M  V30 679 H 64.6674 -2.28742 2.27765 0
M  V30 680 H 63.7194 -0.393163 3.78363 0
M  V30 681 H 65.0314 -0.733262 4.93381 0
M  V30 682 H 64.1854 -3.0699 5.23299 0
M  V30 683 H 62.9244 -2.79204 3.99871 0
M  V30 684 H 61.9294 -0.970995 5.41158 0
M  V30 685 H 63.1544 -1.2728 6.67066 0
M  V30 686 H 61.1004 -3.28535 5.67804 0
M  V30 687 H 61.0174 -2.40351 7.16776 0
M  V30 688 H 62.2854 -3.5687 6.93011 0
M  V30 689 N 66.5145 -1.57545 0.0417849 0
M  V30 690 C 67.7545 -1.94185 -0.63809 0
M  V30 691 C 68.1185 -0.919339 -1.68559 0
M  V30 692 O 69.3195 -1.17236 -2.41886 0
M  V30 693 C 67.5905 -3.35672 -1.22714 0
M  V30 694 S 69.1495 -3.94256 -1.92633 0
M  V30 695 H 65.9675 -0.679353 -0.209764 0
M  V30 696 H 68.5695 -1.95199 0.108479 0
M  V30 697 H 67.2735 -4.07898 -0.452503 0
M  V30 698 H 66.8045 -3.38132 -2.01073 0
M  V30 699 H 68.8195 -3.7872 -3.20602 0
M  V30 700 N 67.9926 0.231505 -1.5589 0
M  V30 701 C 68.9026 1.308 -1.94752 0
M  V30 702 C 69.9186 1.51826 -0.849989 0
M  V30 703 O 71.0946 1.6515 -1.15271 0
M  V30 704 C 68.1596 2.63968 -2.24771 0
M  V30 705 C 67.2206 2.51331 -3.48039 0
M  V30 706 C 66.4536 3.78148 -3.76616 0
M  V30 707 O 66.6766 4.80722 -3.07022 0
M  V30 708 O 65.6106 3.75857 -4.70123 0
M  V30 709 H 69.4366 1.0083 -2.86474 0
M  V30 710 H 67.0216 0.433547 -1.42971 0
M  V30 711 H 68.9036 3.42633 -2.45318 0
M  V30 712 H 67.5786 2.9364 -1.36225 0
M  V30 713 H 66.4856 1.709 -3.32782 0
M  V30 714 H 67.8186 2.26601 -4.36936 0
M  V30 715 N 69.4707 1.49531 0.497807 0
M  V30 716 C 70.4037 1.61043 1.6168 0
M  V30 717 C 71.3817 0.459386 1.55976 0
M  V30 718 O 72.5657 0.675358 1.75986 0
M  V30 719 C 69.6927 1.56833 3.00202 0
M  V30 720 C 68.7387 2.77173 3.24156 0
M  V30 721 S 69.5717 4.38808 3.06933 0
M  V30 722 C 70.7277 4.37248 4.47845 0
M  V30 723 H 70.9607 2.55702 1.51671 0
M  V30 724 H 68.4937 1.38462 0.683201 0
M  V30 725 H 70.4517 1.55089 3.80076 0
M  V30 726 H 69.1127 0.634561 3.07623 0
M  V30 727 H 68.3057 2.70456 4.25288 0
M  V30 728 H 67.9077 2.76346 2.5201 0
M  V30 729 H 70.1997 4.09164 5.39992 0
M  V30 730 H 71.1427 5.38668 4.59612 0
M  V30 731 H 71.5507 3.67286 4.28674 0
M  V30 732 N 70.9488 -0.749086 1.3866 0
M  V30 733 C 71.8588 -1.89358 1.38494 0
M  V30 734 C 72.8748 -1.71708 0.281476 0
M  V30 735 O 74.0508 -1.94554 0.520643 0
M  V30 736 C 71.1158 -3.24782 1.21316 0
M  V30 737 C 70.1768 -3.54926 2.41508 0
M  V30 738 C 69.4098 -4.83888 2.2514 0
M  V30 739 O 69.6328 -5.56592 1.24746 0
M  V30 740 O 68.5668 -5.13612 3.13826 0
M  V30 741 H 72.3928 -1.92452 2.34938 0
M  V30 742 H 69.9778 -0.894981 1.19626 0
M  V30 743 H 71.8598 -4.05739 1.13814 0
M  V30 744 H 70.5348 -3.2249 0.279592 0
M  V30 745 H 69.4418 -2.74112 2.54585 0
M  V30 746 H 70.7748 -3.61983 3.3351 0
M  V30 747 N 72.4269 -1.23603 -0.977757 0
M  V30 748 C 73.8429 -0.999251 -1.24447 0
M  V30 749 C 74.0429 0.298053 -1.99283 0
M  V30 750 O 73.0989 1.01681 -2.31122 0
M  V30 751 C 74.4119 -2.20784 -2.04144 0
M  V30 752 C 75.9599 -2.25303 -2.17273 0
M  V30 753 C 76.4349 -3.45755 -3.00362 0
M  V30 754 N 77.9259 -3.4601 -3.07947 0
M  V30 755 C 78.6609 -4.35868 -3.72568 0
M  V30 756 N 78.1569 -5.35966 -4.38991 0
M  V30 757 N 79.9499 -4.23605 -3.6948 0
M  V30 758 H 72.1009 -2.06986 -0.476483 0
M  V30 759 H 74.3639 -0.907801 -0.273134 0
M  V30 760 H 74.0699 -3.14945 -1.56533 0
M  V30 761 H 73.9439 -2.22085 -3.04891 0
M  V30 762 H 76.3309 -1.3168 -2.64092 0
M  V30 763 H 76.4119 -2.28033 -1.15907 0
M  V30 764 H 76.0559 -4.39687 -2.5424 0
M  V30 765 H 75.9859 -3.40266 -4.01904 0
M  V30 766 H 78.4769 -2.73588 -2.60688 0
M  V30 767 H 78.7899 -6.00783 -4.86086 0
M  V30 768 H 77.1349 -5.39863 -4.37691 0
M  V30 769 H 80.3259 -3.44647 -3.16759 0
M  V30 770 H 80.4989 -4.93836 -4.1956 0
M  V30 771 N 73.905 1.17692 -1.04816 0
M  V30 772 C 75.153 1.87488 -0.754497 0
M  V30 773 C 75.474 1.81205 0.720407 0
M  V30 774 O 74.744 1.23544 1.52032 0
M  V30 775 H 73.324 0.694101 -0.276102 0
M  V30 776 H 75.986 1.42793 -1.32651 0
M  V30 777 H 75.082 2.93328 -1.06606 0
M  V30 778 N 75.3831 0.828654 1.34056 0
M  V30 779 C 76.6111 0.43262 2.02326 0
M  V30 780 C 77.0261 -0.963147 1.62385 0
M  V30 781 O 76.3831 -1.62425 0.832121 0
M  V30 782 C 76.4341 0.53182 3.57567 0
M  V30 783 O 76.1551 1.87258 3.96063 0
M  V30 784 C 77.6561 0.131422 4.43105 0
M  V30 785 H 74.8761 0.172923 0.648335 0
M  V30 786 H 77.4201 1.1184 1.71208 0
M  V30 787 H 75.5751 -0.105938 3.87255 0
M  V30 788 H 75.9891 1.85087 4.90758 0
M  V30 789 H 77.4631 0.251904 5.51425 0
M  V30 790 H 77.9401 -0.925645 4.29335 0
M  V30 791 H 78.5461 0.743207 4.18756 0
M  V30 792 N 76.8612 -1.46375 0.584142 0
M  V30 793 C 77.8242 -2.28784 -0.138108 0
M  V30 794 C 78.8242 -1.38471 -0.817462 0
M  V30 795 O 80.0142 -1.60833 -0.669199 0
M  V30 796 C 77.1462 -3.18892 -1.20503 0
M  V30 797 H 78.3392 -2.94117 0.586127 0
M  V30 798 H 75.8922 -1.52509 0.342171 0
M  V30 799 H 76.6272 -2.58309 -1.96079 0
M  V30 800 H 76.4122 -3.85388 -0.722384 0
M  V30 801 H 77.9022 -3.80914 -1.71155 0
M  V30 802 N 78.3393 -0.321999 -1.54275 0
M  V30 803 C 79.5693 0.282642 -2.04658 0
M  V30 804 C 79.9773 1.46453 -1.19784 0
M  V30 805 O 79.3203 1.82367 -0.220932 0
M  V30 806 C 79.3823 0.781857 -3.50895 0
M  V30 807 C 79.0463 -0.277517 -4.56157 0
M  V30 808 C 80.0433 -1.11307 -5.07845 0
M  V30 809 C 77.7283 -0.425256 -5.00497 0
M  V30 810 C 79.7223 -2.08211 -6.02434 0
M  V30 811 C 77.4093 -1.39771 -5.94901 0
M  V30 812 C 78.4073 -2.2246 -6.45756 0
M  V30 813 O 78.0953 -3.18054 -7.38307 0
M  V30 814 H 77.8273 0.0622636 -0.673126 0
M  V30 815 H 80.3813 -0.465792 -2.00049 0
M  V30 816 H 78.6113 1.58118 -3.52896 0
M  V30 817 H 80.3003 1.30467 -3.84361 0
M  V30 818 H 81.0663 -1.00991 -4.74369 0
M  V30 819 H 76.9453 0.20847 -4.60528 0
M  V30 820 H 80.4893 -2.72791 -6.42052 0
M  V30 821 H 76.3863 -1.50152 -6.27794 0
M  V30 822 H 77.1543 -3.13275 -7.56175 0
M  V30 823 N 79.8174 1.5752 -0.0501392 0
M  V30 824 C 80.7474 2.14502 0.922566 0
M  V30 825 C 81.7284 1.06642 1.3252 0
M  V30 826 O 82.9134 1.34577 1.4001 0
M  V30 827 C 80.0434 2.68916 2.19776 0
M  V30 828 C 78.9974 3.8175 1.93523 0
M  V30 829 C 78.3234 4.22677 3.27487 0
M  V30 830 C 79.6234 5.06932 1.25765 0
M  V30 831 H 81.3174 2.9603 0.447952 0
M  V30 832 H 78.8634 1.42401 0.214024 0
M  V30 833 H 80.8164 3.07419 2.88222 0
M  V30 834 H 79.5404 1.84578 2.69441 0
M  V30 835 H 78.1994 3.43718 1.27489 0
M  V30 836 H 77.8474 3.35291 3.74952 0
M  V30 837 H 77.5474 4.98725 3.1072 0
M  V30 838 H 79.0714 4.63779 3.97166 0
M  V30 839 H 80.4854 5.42888 1.84244 0
M  V30 840 H 78.8824 5.88116 1.19328 0
M  V30 841 H 79.9524 4.84337 0.233536 0
M  V30 842 N 81.2955 -0.223234 1.56011 0
M  V30 843 C 82.5445 -0.945912 1.78144 0
M  V30 844 C 82.8575 -1.85567 0.618396 0
M  V30 845 O 84.0635 -2.61688 0.723318 0
M  V30 846 C 82.5195 -1.73216 3.15475 0
M  V30 847 C 82.1275 -0.868619 4.39499 0
M  V30 848 C 83.8715 -2.44615 3.46935 0
M  V30 849 C 81.7785 -1.65212 5.67855 0
M  V30 850 H 80.7085 -0.356929 0.664167 0
M  V30 851 H 83.3595 -0.199845 1.82409 0
M  V30 852 H 81.7415 -2.52107 3.05382 0
M  V30 853 H 82.9155 -0.120366 4.60643 0
M  V30 854 H 81.2305 -0.26683 4.15544 0
M  V30 855 H 83.8275 -3.03732 4.40058 0
M  V30 856 H 84.1705 -3.17417 2.69355 0
M  V30 857 H 84.7035 -1.72715 3.58349 0
M  V30 858 H 81.4425 -0.967407 6.48322 0
M  V30 859 H 80.9625 -2.37503 5.50774 0
M  V30 860 H 82.6415 -2.21322 6.07968 0
M  V30 861 N 82.7736 -1.49793 -0.48987 0
M  V30 862 C 84.0216 -1.59525 -1.24081 0
M  V30 863 C 84.3426 -0.288953 -1.92847 0
M  V30 864 O 83.6126 0.692436 -1.83254 0
M  V30 865 H 82.1926 -0.587796 -0.460983 0
M  V30 866 H 84.8546 -1.86477 -0.566778 0
M  V30 867 H 83.9506 -2.39696 -1.99881 0
M  V30 868 N 84.2517 0.741722 -1.39055 0
M  V30 869 C 85.4767 1.53607 -1.39354 0
M  V30 870 C 85.9017 1.88096 0.0116905 0
M  V30 871 O 85.2597 1.5143 0.996924 0
M  V30 872 C 85.3077 2.80441 -2.26682 0
M  V30 873 O 84.4117 3.76088 -1.69208 0
M  V30 874 H 83.7527 0.464142 -0.474835 0
M  V30 875 H 86.2827 0.915665 -1.82967 0
M  V30 876 H 86.2927 3.29246 -2.40959 0
M  V30 877 H 84.9677 2.5467 -3.2881 0
M  V30 878 H 83.5447 3.34833 -1.64138 0
M  V30 879 N 85.7298 1.2412 0.971189 0
M  V30 880 C 86.6598 1.05508 2.08304 0
M  V30 881 C 87.6408 -0.0308864 1.70072 0
M  V30 882 O 88.8258 0.135521 1.93727 0
M  V30 883 C 85.9558 0.655365 3.4106 0
M  V30 884 C 84.9098 1.68971 3.93234 0
M  V30 885 C 84.2358 1.14516 5.22293 0
M  V30 886 C 85.5358 3.08487 4.21465 0
M  V30 887 H 87.2298 1.98507 2.24132 0
M  V30 888 H 84.7758 0.955821 1.07704 0
M  V30 889 H 86.7288 0.51217 4.18276 0
M  V30 890 H 85.4528 -0.31032 3.25122 0
M  V30 891 H 84.1118 1.82106 3.18171 0
M  V30 892 H 83.7598 0.170189 5.02712 0
M  V30 893 H 83.4598 1.83635 5.58168 0
M  V30 894 H 84.9838 1.01401 6.02121 0
M  V30 895 H 86.3978 2.98601 4.89398 0
M  V30 896 H 84.7948 3.74926 4.68562 0
M  V30 897 H 85.8648 3.56787 3.28376 0
M  V30 898 N 87.2079 -1.17134 1.05439 0
M  V30 899 C 88.4379 -1.91094 0.785274 0
M  V30 900 C 88.8459 -1.77198 -0.663142 0
M  V30 901 O 88.1889 -1.10835 -1.46497 0
M  V30 902 C 88.2509 -3.42594 1.08949 0
M  V30 903 C 87.9149 -3.80274 2.53458 0
M  V30 904 C 88.9119 -3.82912 3.51673 0
M  V30 905 C 86.5969 -4.11162 2.88532 0
M  V30 906 C 88.5909 -4.15913 4.83006 0
M  V30 907 C 86.2779 -4.43831 4.20068 0
M  V30 908 C 87.2759 -4.46185 5.17115 0
M  V30 909 O 86.9639 -4.78083 6.46291 0
M  V30 910 H 86.6959 -0.613073 0.284811 0
M  V30 911 H 89.2499 -1.49461 1.40893 0
M  V30 912 H 87.4799 -3.84534 0.408741 0
M  V30 913 H 89.1689 -3.97817 0.805991 0
M  V30 914 H 89.9349 -3.5917 3.25917 0
M  V30 915 H 85.8139 -4.085 2.13656 0
M  V30 916 H 89.3579 -4.17665 5.5875 0
M  V30 917 H 85.2549 -4.67037 4.45586 0
M  V30 918 H 86.0229 -4.9593 6.51149 0
M  V30 919 N 88.686 -0.835752 -1.33615 0
M  V30 920 C 89.634 -0.255238 -2.31195 0
M  V30 921 C 90.628 0.61107 -1.57995 0
M  V30 922 O 91.834 0.500979 -1.72888 0
M  V30 923 H 88.209 -0.0638085 -0.749288 0
M  V30 924 H 90.18 -1.09283 -2.77669 0
M  V30 925 C 88.929 0.55754 -3.43201 0
M  V30 926 H 88.252 -0.0997553 -3.99676 0
M  V30 927 H 89.692 0.929622 -4.13683 0
M  V30 928 C 88.151 1.73515 -2.88781 0
M  V30 929 O 88.681 2.83376 -2.84712 0
M  V30 930 N 86.887 1.55603 -2.4543 0
M  V30 931 H 86.434 0.662354 -2.48939 0
M  V30 932 H 86.392 2.34545 -2.09371 0
M  V30 933 N 90.1641 1.46063 -0.591896 0
M  V30 934 C 91.5801 1.57561 -0.254288 0
M  V30 935 C 91.7801 1.58565 1.24336 0
M  V30 936 O 90.8361 1.50753 2.02558 0
M  V30 937 C 92.1491 2.86549 -0.911611 0
M  V30 938 C 93.6971 3.00197 -0.886059 0
M  V30 939 C 94.1721 4.31933 -1.5231 0
M  V30 940 N 95.6631 4.38654 -1.48786 0
M  V30 941 C 96.3981 5.39222 -1.95006 0
M  V30 942 N 95.8941 6.46414 -2.49241 0
M  V30 943 N 97.6871 5.3048 -1.85868 0
M  V30 944 H 89.8381 1.43655 -1.56451 0
M  V30 945 H 92.1011 0.68583 -0.654478 0
M  V30 946 H 91.8071 2.91651 -1.96551 0
M  V30 947 H 91.6811 3.74794 -0.425368 0
M  V30 948 H 94.0681 2.9467 0.159246 0
M  V30 949 H 94.1491 2.13403 -1.41041 0
M  V30 950 H 93.7931 4.38217 -2.56765 0
M  V30 951 H 93.7231 5.17516 -0.973891 0
M  V30 952 H 96.2141 3.61793 -1.09151 0
M  V30 953 H 96.5271 7.19376 -2.82344 0
M  V30 954 H 94.8721 6.47208 -2.53272 0
M  V30 955 H 98.0631 4.45643 -1.43248 0
M  V30 956 H 98.2361 6.08711 -2.22204 0
M  V30 957 N 91.6422 0.330177 1.54103 0
M  V30 958 C 92.8702 -0.272179 2.05102 0
M  V30 959 C 93.2852 -1.45267 1.20595 0
M  V30 960 O 92.6422 -1.8094 0.238144 0
M  V30 961 C 92.6932 -0.70023 3.54653 0
M  V30 962 O 92.4142 0.433301 4.35952 0
M  V30 963 C 93.9152 -1.3647 4.21771 0
M  V30 964 H 91.1352 -0.0549159 0.668749 0
M  V30 965 H 93.6792 0.478285 1.98828 0
M  V30 966 H 91.8342 -1.40066 3.61193 0
M  V30 967 H 92.2482 0.0947539 5.24414 0
M  V30 968 H 93.7222 -1.61509 5.27843 0
M  V30 969 H 94.1992 -2.31409 3.73292 0
M  V30 970 H 94.8052 -0.706675 4.19388 0
M  V30 971 N 93.1203 -1.57491 0.0584922 0
M  V30 972 C 94.3673 -1.92978 -0.613648 0
M  V30 973 C 94.6953 -0.937461 -1.70417 0
M  V30 974 O 93.9503 0.049078 -1.95638 0
M  V30 975 C 94.2493 -3.3513 -1.24188 0
M  V30 976 C 93.9153 -4.50037 -0.278826 0
M  V30 977 C 92.5773 -4.81198 -0.0138447 0
M  V30 978 C 94.9293 -5.19807 0.380777 0
M  V30 979 C 92.2573 -5.79473 0.918052 0
M  V30 980 C 94.6093 -6.19079 1.30091 0
M  V30 981 C 93.2733 -6.48665 1.57449 0
M  V30 982 H 92.5433 -0.706157 -0.22455 0
M  V30 983 H 95.1903 -1.91082 0.126533 0
M  V30 984 H 93.4953 -3.33429 -2.05749 0
M  V30 985 H 95.1923 -3.59871 -1.769 0
M  V30 986 H 91.7823 -4.25726 -0.495539 0
M  V30 987 H 95.9663 -4.95939 0.189158 0
M  V30 988 H 91.2223 -6.00727 1.1374 0
M  V30 989 H 95.3963 -6.7225 1.81804 0
M  V30 990 H 93.0233 -7.24628 2.29822 0
M  V30 991 N 94.5984 0.214957 -1.56127 0
M  V30 992 C 95.5284 1.2695 -1.95974 0
M  V30 993 C 96.5094 1.48539 -0.828868 0
M  V30 994 O 97.6944 1.60611 -1.09168 0
M  V30 995 C 94.8244 2.61794 -2.28214 0
M  V30 996 C 93.7784 2.54851 -3.43853 0
M  V30 997 C 93.1044 3.93785 -3.61715 0
M  V30 998 C 94.4044 2.09065 -4.78632 0
M  V30 999 H 96.0984 0.93846 -2.84312 0
M  V30 1000 H 93.6444 0.449996 -1.36788 0
M  V30 1001 H 95.5974 3.35731 -2.54682 0
M  V30 1002 H 94.3214 2.96599 -1.36736 0
M  V30 1003 H 92.9804 1.8337 -3.17444 0
M  V30 1004 H 92.6284 4.25908 -2.67602 0
M  V30 1005 H 92.3284 3.90019 -4.39498 0
M  V30 1006 H 93.8524 4.69374 -3.90539 0
M  V30 1007 H 95.2664 2.7275 -5.04262 0
M  V30 1008 H 93.6634 2.16346 -5.59745 0
M  V30 1009 H 94.7334 1.04315 -4.73547 0
M  V30 1010 N 96.0765 1.50051 0.48192 0
M  V30 1011 C 97.3255 1.59741 1.23149 0
M  V30 1012 C 97.6385 0.298163 1.93314 0
M  V30 1013 O 98.8445 0.273835 2.70116 0
M  V30 1014 C 97.3005 2.81926 2.23708 0
M  V30 1015 C 96.9085 4.18685 1.59396 0
M  V30 1016 C 98.6525 3.00956 2.99375 0
M  V30 1017 C 96.5595 5.3207 2.58178 0
M  V30 1018 H 95.4895 0.594838 0.46334 0
M  V30 1019 H 98.1405 1.76467 0.503169 0
M  V30 1020 H 96.5225 2.58736 2.99786 0
M  V30 1021 H 97.6965 4.52088 0.891811 0
M  V30 1022 H 96.0115 4.05171 0.960503 0
M  V30 1023 H 98.6085 3.82836 3.73283 0
M  V30 1024 H 98.9515 2.12258 3.58123 0
M  V30 1025 H 99.4845 3.24277 2.30411 0
M  V30 1026 H 96.2235 6.22888 2.04184 0
M  V30 1027 H 95.7435 5.03098 3.26577 0
M  V30 1028 H 97.4225 5.62196 3.20225 0
M  V30 1029 N 97.5546 -0.734337 1.39446 0
M  V30 1030 C 98.8026 -1.49096 1.36436 0
M  V30 1031 C 99.1236 -1.94961 -0.0388255 0
M  V30 1032 O 98.3936 -1.69033 -0.990191 0
M  V30 1033 H 96.9736 -0.5531 0.502085 0
M  V30 1034 H 99.6356 -0.871725 1.74319 0
M  V30 1035 H 98.7316 -2.37276 2.02747 0
M  V30 1036 N 99.0327 -1.24633 -0.964593 0
M  V30 1037 C 99.9627 -1.06611 -2.07741 0
M  V30 1038 C 100.944 0.0218666 -1.70086 0
M  V30 1039 O 102.129 -0.145793 -1.93652 0
M  V30 1040 C 99.2587 -0.673444 -3.40708 0
M  V30 1041 C 98.2127 -1.71054 -3.92332 0
M  V30 1042 C 97.5387 -1.17285 -5.21678 0
M  V30 1043 C 98.8387 -3.10718 -4.19824 0
M  V30 1044 H 100.533 -1.99693 -2.23076 0
M  V30 1045 H 98.0787 -0.96152 -1.07195 0
M  V30 1046 H 100.032 -0.534345 -4.17998 0
M  V30 1047 H 98.7557 0.293073 -3.25282 0
M  V30 1048 H 97.4147 -1.83791 -3.17201 0
M  V30 1049 H 97.0627 -0.196847 -5.02615 0
M  V30 1050 H 96.7627 -1.86592 -5.57187 0
M  V30 1051 H 98.2867 -1.04593 -6.01575 0
M  V30 1052 H 99.7007 -3.01192 -4.87808 0
M  V30 1053 H 98.0977 -3.77406 -4.66567 0
M  V30 1054 H 99.1677 -3.58524 -3.26479 0
M  V30 1055 N 100.511 1.16574 -1.06058 0
M  V30 1056 C 101.474 2.19085 -0.673392 0
M  V30 1057 C 102.474 1.5835 0.279648 0
M  V30 1058 O 103.664 1.74088 0.0623488 0
M  V30 1059 C 100.796 3.40899 0.00954234 0
M  V30 1060 H 101.989 2.54853 -1.58081 0
M  V30 1061 H 99.5418 1.30808 -0.855516 0
M  V30 1062 H 100.277 3.10684 0.929826 0
M  V30 1063 H 100.062 3.86233 -0.67573 0
M  V30 1064 H 101.552 4.1675 0.266245 0
M  V30 1065 N 101.989 0.842826 1.3317 0
M  V30 1066 C 103.237 0.439577 1.97262 0
M  V30 1067 C 103.558 -1.00548 1.67078 0
M  V30 1068 O 102.828 -1.70098 0.971779 0
M  V30 1069 H 101.408 0.159558 0.72976 0
M  V30 1070 H 104.07 1.07665 1.62463 0
M  V30 1071 H 103.166 0.574886 3.0676 0
M  V30 1072 N 103.467 -1.45747 0.599634 0
M  V30 1073 C 104.713 -2.02592 0.0918643 0
M  V30 1074 C 105.046 -1.46806 -1.27128 0
M  V30 1075 O 104.321 -0.639658 -1.83681 0
M  V30 1076 C 104.604 -3.60073 0.0443398 0
M  V30 1077 C 104.457 -4.26208 1.43759 0
M  V30 1078 C 105.776 -4.35309 -0.647608 0
M  V30 1079 H 102.895 -0.736175 0.034857 0
M  V30 1080 H 105.537 -1.73694 0.770081 0
M  V30 1081 H 103.687 -3.84823 -0.533224 0
M  V30 1082 H 105.359 -4.12668 2.06162 0
M  V30 1083 H 103.602 -3.84916 2.00056 0
M  V30 1084 H 104.273 -5.35069 1.35665 0
M  V30 1085 H 106.749 -4.15805 -0.156776 0
M  V30 1086 H 105.625 -5.45038 -0.649942 0
M  V30 1087 H 105.886 -4.07598 -1.71219 0
M  V30 1088 N 104.945 -0.338344 -1.53925 0
M  V30 1089 C 106.191 0.252842 -2.01822 0
M  V30 1090 C 106.546 1.48612 -1.22197 0
M  V30 1091 O 105.839 1.89238 -0.299892 0
M  V30 1092 C 106.033 0.62448 -3.51902 0
M  V30 1093 C 105.862 -0.571235 -4.46057 0
M  V30 1094 C 104.632 -1.07493 -4.93734 0
M  V30 1095 C 106.83 -1.42807 -4.94076 0
M  V30 1096 N 104.812 -2.23351 -5.71828 0
M  V30 1097 C 106.183 -2.43362 -5.70241 0
M  V30 1098 C 108.238 -1.45412 -4.76193 0
M  V30 1099 C 106.941 -3.46346 -6.30426 0
M  V30 1100 C 108.967 -2.47274 -5.37224 0
M  V30 1101 C 108.329 -3.46555 -6.13253 0
M  V30 1102 H 104.428 0.0559669 -0.779995 0
M  V30 1103 H 107.012 -0.476732 -1.88773 0
M  V30 1104 H 105.183 1.32317 -3.65167 0
M  V30 1105 H 106.915 1.19841 -3.86549 0
M  V30 1106 H 103.67 -0.643848 -4.69203 0
M  V30 1107 H 104.094 -2.81834 -6.15548 0
M  V30 1108 H 108.736 -0.700171 -4.16962 0
M  V30 1109 H 106.454 -4.22638 -6.88769 0
M  V30 1110 H 110.04 -2.50109 -5.25297 0
M  V30 1111 H 108.92 -4.24083 -6.59638 0
M  V30 1112 N 106.423 1.57458 -0.0668435 0
M  V30 1113 C 107.333 2.15937 0.916975 0
M  V30 1114 C 108.349 1.12123 1.33058 0
M  V30 1115 O 109.525 1.44366 1.40429 0
M  V30 1116 C 106.59 2.70547 2.16807 0
M  V30 1117 C 105.651 3.89215 1.81135 0
M  V30 1118 C 104.884 4.41211 3.0028 0
M  V30 1119 O 105.107 3.92225 4.14144 0
M  V30 1120 O 104.041 5.32605 2.80384 0
M  V30 1121 H 107.867 3.00354 0.449561 0
M  V30 1122 H 105.452 1.48584 0.155949 0
M  V30 1123 H 107.334 3.0557 2.90181 0
M  V30 1124 H 106.009 1.89192 2.62656 0
M  V30 1125 H 104.916 3.59054 1.05028 0
M  V30 1126 H 106.249 4.71848 1.40073 0
M  V30 1127 N 107.901 -0.206675 1.56239 0
M  V30 1128 C 109.149 -0.927007 1.79586 0
M  V30 1129 C 109.47 -1.8427 0.637929 0
M  V30 1130 O 108.74 -1.92849 -0.344398 0
M  V30 1131 H 107.32 -0.345292 0.662407 0
M  V30 1132 H 109.982 -0.21496 1.93711 0
M  V30 1133 H 109.078 -1.52501 2.72305 0
M  V30 1134 N 109.379 -1.50304 -0.473955 0
M  V30 1135 C 110.289 -1.7174 -1.5982 0
M  V30 1136 C 111.305 -0.600457 -1.63311 0
M  V30 1137 O 112.481 -0.878441 -1.81233 0
M  V30 1138 C 109.546 -1.80427 -2.96052 0
M  V30 1139 C 108.607 -3.04148 -3.02972 0
M  V30 1140 C 107.84 -3.12411 -4.32706 0
M  V30 1141 O 108.063 -2.27542 -5.23049 0
M  V30 1142 O 106.997 -4.05113 -4.45159 0
M  V30 1143 H 110.823 -2.67035 -1.44657 0
M  V30 1144 H 108.408 -1.34366 -0.653148 0
M  V30 1145 H 110.29 -1.88338 -3.7697 0
M  V30 1146 H 108.965 -0.883156 -3.11419 0
M  V30 1147 H 107.872 -3.0174 -2.21142 0
M  V30 1148 H 109.205 -3.95829 -2.92541 0
M  V30 1149 N 110.857 0.726932 -1.39834 0
M  V30 1150 C 111.82 1.82269 -1.38962 0
M  V30 1151 C 112.82 1.58248 -0.285334 0
M  V30 1152 O 114.01 1.65499 -0.54366 0
M  V30 1153 C 111.142 3.20186 -1.17019 0
M  V30 1154 H 112.335 1.84443 -2.36476 0
M  V30 1155 H 109.888 0.931416 -1.25516 0
M  V30 1156 H 110.623 3.23669 -0.202204 0
M  V30 1157 H 110.408 3.3902 -1.96998 0
M  V30 1158 H 111.898 4.00235 -1.1917 0
M  V30 1159 N 112.336 1.25143 0.95797 0
M  V30 1160 C 113.566 1.12261 1.73439 0
M  V30 1161 C 113.974 -0.326715 1.86358 0
M  V30 1162 O 113.317 -1.2367 1.35836 0
M  V30 1163 C 113.379 1.69966 3.16784 0
M  V30 1164 C 113.043 3.18936 3.27305 0
M  V30 1165 C 114.04 4.15968 3.11877 0
M  V30 1166 C 111.725 3.59083 3.51234 0
M  V30 1167 C 113.719 5.51126 3.20217 0
M  V30 1168 C 111.406 4.9438 3.5921 0
M  V30 1169 C 112.404 5.90211 3.43716 0
M  V30 1170 O 112.092 7.23046 3.51368 0
M  V30 1171 H 111.824 0.392476 0.550399 0
M  V30 1172 H 114.378 1.65927 1.21068 0
M  V30 1173 H 112.608 1.10744 3.70503 0
M  V30 1174 H 114.297 1.52232 3.76272 0
M  V30 1175 H 115.063 3.86292 2.93264 0
M  V30 1176 H 110.942 2.84989 3.62356 0
M  V30 1177 H 114.486 6.25905 3.0804 0
M  V30 1178 H 110.383 5.23723 3.77339 0
M  V30 1179 H 111.151 7.31097 3.6802 0
M  V30 1180 N 113.814 -1.1601 1.06675 0
M  V30 1181 C 114.744 -2.22688 0.702307 0
M  V30 1182 C 115.725 -1.67306 -0.307032 0
M  V30 1183 O 116.91 -1.93352 -0.181305 0
M  V30 1184 C 114.04 -3.47178 0.092038 0
M  V30 1185 C 112.994 -4.15477 1.02777 0
M  V30 1186 C 112.32 -5.33963 0.28061 0
M  V30 1187 C 113.62 -4.66019 2.35846 0
M  V30 1188 H 115.314 -2.53429 1.59419 0
M  V30 1189 H 112.86 -1.21813 0.767961 0
M  V30 1190 H 114.813 -4.21037 -0.174814 0
M  V30 1191 H 113.537 -3.15749 -0.834877 0
M  V30 1192 H 112.196 -3.43549 1.27944 0
M  V30 1193 H 111.844 -4.98788 -0.649545 0
M  V30 1194 H 111.544 -5.806 0.904258 0
M  V30 1195 H 113.068 -6.10596 0.021396 0
M  V30 1196 H 114.482 -5.3144 2.15045 0
M  V30 1197 H 112.879 -5.23293 2.93743 0
M  V30 1198 H 113.949 -3.82023 2.98641 0
M  V30 1199 N 115.292 -0.849877 -1.32721 0
M  V30 1200 C 116.255 -0.296122 -2.27279 0
M  V30 1201 C 117.255 0.541458 -1.5141 0
M  V30 1202 O 118.445 0.353658 -1.70572 0
M  V30 1203 C 115.577 0.581579 -3.35902 0
M  V30 1204 H 116.77 -1.13064 -2.77771 0
M  V30 1205 H 114.323 -0.62383 -1.43311 0
M  V30 1206 H 115.058 1.43809 -2.9067 0
M  V30 1207 H 114.843 -0.0178814 -3.92096 0
M  V30 1208 H 116.333 0.961951 -4.0637 0
M  V30 1209 N 116.77 1.45427 -0.607355 0
M  V30 1210 C 117.718 2.32269 0.12411 0
M  V30 1211 C 118.712 1.45955 0.859854 0
M  V30 1212 O 119.918 1.6244 0.775447 0
M  V30 1213 H 116.293 0.749691 0.0588839 0
M  V30 1214 H 118.264 2.91743 -0.626762 0
M  V30 1215 C 117.013 3.29567 1.1082 0
M  V30 1216 H 116.336 3.95978 0.551492 0
M  V30 1217 H 117.776 3.93061 1.58995 0
M  V30 1218 C 116.235 2.56722 2.18164 0
M  V30 1219 O 116.765 2.34842 3.25902 0
M  V30 1220 N 114.971 2.16861 1.93442 0
M  V30 1221 H 114.518 2.34855 1.05834 0
M  V30 1222 H 114.476 1.68444 2.65469 0
M  V30 1223 N 118.248 0.346503 1.53744 0
M  V30 1224 C 119.525 -0.304532 1.93215 0
M  V30 1225 C 119.905 -1.67993 1.27834 0
M  V30 1226 O 119.253 -2.24411 0.430352 0
M  V30 1227 C 119.463 -0.373852 3.46992 0
M  V30 1228 C 120.811 -0.62329 4.2 0
M  V30 1229 O 121.835 -0.455847 3.53271 0
M  V30 1230 O 120.694 -0.947879 5.38217 0
M  V30 1231 H 117.788 -0.178318 0.807547 0
M  V30 1232 H 120.334 0.397895 1.64969 0
M  V30 1233 H 119.106 0.591224 3.86808 0
M  V30 1234 H 118.729 -1.12294 3.81413 0
M  V30 1235 N 119.726 -1.57421 0.075193 0
M  V30 1236 C 120.689 -2.11791 -0.876203 0
M  V30 1237 C 121.689 -1.04268 -1.22412 0
M  V30 1238 O 122.879 -1.30242 -1.15684 0
M  V30 1239 C 120.011 -2.62207 -2.17854 0
M  V30 1240 H 121.204 -2.9716 -0.40444 0
M  V30 1241 H 118.757 -1.55333 -0.173557 0
M  V30 1242 H 119.492 -1.803 -2.6956 0
M  V30 1243 H 119.277 -3.40802 -1.93897 0
M  V30 1244 H 120.767 -3.04335 -2.85955 0
M  V30 1245 N 121.204 0.198386 -1.56346 0
M  V30 1246 C 122.114 1.2664 -1.97483 0
M  V30 1247 C 123.13 1.49989 -0.882002 0
M  V30 1248 O 124.306 1.62668 -1.18748 0
M  V30 1249 C 121.371 2.59141 -2.30319 0
M  V30 1250 C 120.432 2.43892 -3.53292 0
M  V30 1251 C 119.665 3.70074 -3.84553 0
M  V30 1252 O 119.888 4.74101 -3.1715 0
M  V30 1253 O 118.822 3.658 -4.7799 0
M  V30 1254 H 122.648 0.947304 -2.88548 0
M  V30 1255 H 120.233 0.403123 -1.43859 0
M  V30 1256 H 122.115 3.37352 -2.5253 0
M  V30 1257 H 120.79 2.90684 -1.42423 0
M  V30 1258 H 119.697 1.63803 -3.36332 0
M  V30 1259 H 121.03 2.17282 -4.41644 0
M  V30 1260 N 122.682 1.50554 0.465978 0
M  V30 1261 C 123.612 1.72722 1.57128 0
M  V30 1262 C 124.593 0.576294 1.6004 0
M  V30 1263 O 125.778 0.81598 1.76225 0
M  V30 1264 C 122.908 1.82605 2.95419 0
M  V30 1265 C 121.862 2.97835 3.07373 0
M  V30 1266 C 121.188 2.92867 4.47363 0
M  V30 1267 C 122.488 4.38265 2.84114 0
M  V30 1268 H 124.182 2.65267 1.38829 0
M  V30 1269 H 121.728 1.2765 0.666441 0
M  V30 1270 H 123.681 1.96698 3.72677 0
M  V30 1271 H 122.405 0.866858 3.14886 0
M  V30 1272 H 121.064 2.83401 2.3255 0
M  V30 1273 H 120.712 1.94783 4.63755 0
M  V30 1274 H 120.412 3.70227 4.56296 0
M  V30 1275 H 121.936 3.09015 5.26633 0
M  V30 1276 H 123.35 4.53198 3.51118 0
M  V30 1277 H 121.747 5.17115 3.04487 0
M  V30 1278 H 122.817 4.50281 1.7993 0
M  V30 1279 N 124.16 -0.719506 1.40217 0
M  V30 1280 C 125.09 -1.8465 1.42922 0
M  V30 1281 C 126.071 -1.67599 0.29062 0
M  V30 1282 O 127.256 -1.87688 0.498677 0
M  V30 1283 C 124.386 -3.22565 1.28722 0
M  V30 1284 C 123.34 -3.54281 2.40144 0
M  V30 1285 C 122.666 -4.91298 2.11023 0
M  V30 1286 C 123.966 -3.55676 3.82481 0
M  V30 1287 H 125.66 -1.82644 2.37237 0
M  V30 1288 H 123.206 -0.877305 1.1419 0
M  V30 1289 H 125.159 -4.01095 1.29232 0
M  V30 1290 H 123.883 -3.25137 0.308811 0
M  V30 1291 H 122.542 -2.78088 2.38877 0
M  V30 1292 H 122.19 -4.90468 1.11582 0
M  V30 1293 H 121.89 -5.13485 2.8567 0
M  V30 1294 H 123.414 -5.72166 2.13209 0
M  V30 1295 H 124.828 -4.24254 3.85592 0
M  V30 1296 H 123.225 -3.89388 4.56614 0
M  V30 1297 H 124.295 -2.55144 4.12346 0
M  V30 1298 N 125.638 -1.25649 -0.95132 0
M  V30 1299 C 126.601 -1.06399 -2.03007 0
M  V30 1300 C 127.601 -0.0156794 -1.60792 0
M  V30 1301 O 128.791 -0.25817 -1.72276 0
M  V30 1302 C 125.923 -0.616184 -3.35285 0
M  V30 1303 H 127.116 -2.02164 -2.21517 0
M  V30 1304 H 124.669 -1.08103 -1.12887 0
M  V30 1305 H 125.404 0.343917 -3.22471 0
M  V30 1306 H 125.189 -1.37301 -3.67275 0
M  V30 1307 H 126.679 -0.503032 -4.14559 0
M  V30 1308 N 127.117 1.15442 -1.07289 0
M  V30 1309 C 128.047 2.22312 -0.714107 0
M  V30 1310 C 129.028 1.67467 0.298155 0
M  V30 1311 O 130.213 1.93445 0.171048 0
M  V30 1312 C 127.343 3.47124 -0.110448 0
M  V30 1313 C 126.297 4.14926 -1.04979 0
M  V30 1314 C 125.623 5.33807 -0.308924 0
M  V30 1315 C 126.923 4.64762 -2.38314 0
M  V30 1316 H 128.617 2.5258 -1.6076 0
M  V30 1317 H 126.163 1.21404 -0.77441 0
M  V30 1318 H 128.116 4.21124 0.152482 0
M  V30 1319 H 126.84 3.16187 0.81812 0
M  V30 1320 H 125.499 3.42866 -1.29764 0
M  V30 1321 H 125.147 4.99126 0.623084 0
M  V30 1322 H 124.847 5.80113 -0.935036 0
M  V30 1323 H 126.371 6.10576 -0.0537771 0
M  V30 1324 H 127.785 5.30292 -2.1786 0
M  V30 1325 H 126.182 5.21728 -2.96514 0
M  V30 1326 H 127.252 3.80434 -3.00663 0
M  V30 1327 N 128.595 0.856903 1.32268 0
M  V30 1328 C 129.525 0.31858 2.31316 0
M  V30 1329 C 130.506 -0.583487 1.59779 0
M  V30 1330 O 131.691 -0.503259 1.87566 0
M  V30 1331 C 128.821 -0.491979 3.43798 0
M  V30 1332 C 127.775 0.315849 4.26833 0
M  V30 1333 C 127.101 -0.619586 5.31098 0
M  V30 1334 C 128.401 1.54282 4.98993 0
M  V30 1335 H 130.095 1.14621 2.76591 0
M  V30 1336 H 127.641 0.552613 1.32974 0
M  V30 1337 H 129.594 -0.879012 4.1213 0
M  V30 1338 H 128.318 -1.35299 2.97257 0
M  V30 1339 H 126.977 0.684664 3.6015 0
M  V30 1340 H 126.625 -1.47751 4.8081 0
M  V30 1341 H 126.325 -0.0830621 5.87541 0
M  V30 1342 H 127.849 -1.00375 6.02293 0
M  V30 1343 H 129.263 1.22796 5.59995 0
M  V30 1344 H 127.66 2.01745 5.65172 0
M  V30 1345 H 128.73 2.30285 4.26728 0
M  V30 1346 N 130.073 -1.45103 0.615059 0
M  V30 1347 C 131.32 -2.02183 0.113179 0
M  V30 1348 C 131.648 -1.48249 -1.25906 0
M  V30 1349 O 130.903 -0.650265 -1.84581 0
M  V30 1350 C 131.202 -3.57386 0.0318797 0
M  V30 1351 C 130.868 -4.30505 1.34077 0
M  V30 1352 C 129.53 -4.50197 1.69929 0
M  V30 1353 C 131.882 -4.72238 2.20546 0
M  V30 1354 C 129.21 -5.08881 2.91988 0
M  V30 1355 C 131.562 -5.32272 3.41861 0
M  V30 1356 C 130.226 -5.50187 3.77956 0
M  V30 1357 H 129.496 -0.739842 0.0414151 0
M  V30 1358 H 132.143 -1.74073 0.798168 0
M  V30 1359 H 130.448 -3.84817 -0.736409 0
M  V30 1360 H 132.145 -3.99264 -0.372712 0
M  V30 1361 H 128.735 -4.15496 1.05173 0
M  V30 1362 H 132.919 -4.56751 1.94146 0
M  V30 1363 H 128.175 -5.20939 3.2005 0
M  V30 1364 H 132.349 -5.63563 4.09109 0
M  V30 1365 H 129.976 -5.95427 4.72622 0
M  V30 1366 N 131.551 -0.354651 -1.53558 0
M  V30 1367 C 132.779 0.239515 -2.05509 0
M  V30 1368 C 133.194 1.4333 -1.2289 0
M  V30 1369 O 132.551 1.80538 -0.266899 0
M  V30 1370 C 132.602 0.643719 -3.55723 0
M  V30 1371 O 132.323 -0.502602 -4.35207 0
M  V30 1372 C 133.824 1.29743 -4.23889 0
M  V30 1373 H 131.044 0.0442697 -0.669538 0
M  V30 1374 H 133.588 -0.509856 -1.98042 0
M  V30 1375 H 131.743 1.34302 -3.63376 0
M  V30 1376 H 132.157 -0.178172 -5.24197 0
M  V30 1377 H 133.631 1.53091 -5.30346 0
M  V30 1378 H 134.108 2.25441 -3.76926 0
M  V30 1379 H 134.714 0.639865 -4.20459 0
M  V30 1380 N 133.029 1.57378 -0.0835403 0
M  V30 1381 C 134.445 1.57246 0.273109 0
M  V30 1382 C 134.645 1.09385 1.69225 0
M  V30 1383 O 133.701 0.765051 2.40631 0
M  V30 1384 C 135.014 3.00614 0.0720628 0
M  V30 1385 C 136.562 3.12684 0.1407 0
M  V30 1386 C 137.037 4.57989 -0.0322094 0
M  V30 1387 N 138.528 4.63194 0.0230085 0
M  V30 1388 C 139.263 5.73335 -0.0861941 0
M  V30 1389 N 138.759 6.9235 -0.24958 0
M  V30 1390 N 140.552 5.62093 -0.0282886 0
M  V30 1391 H 132.703 1.86801 -1.0109 0
M  V30 1392 H 134.966 0.861687 -0.395222 0
M  V30 1393 H 134.672 3.39786 -0.907662 0
M  V30 1394 H 134.546 3.68193 0.81936 0
M  V30 1395 H 136.933 2.73391 1.11092 0
M  V30 1396 H 137.014 2.47719 -0.637896 0
M  V30 1397 H 136.658 4.97973 -0.999247 0
M  V30 1398 H 136.588 5.21 0.765937 0
M  V30 1399 H 139.079 3.77613 0.14722 0
M  V30 1400 H 139.392 7.72117 -0.324733 0
M  V30 1401 H 137.737 6.94415 -0.285097 0
M  V30 1402 H 140.928 4.67997 0.0981408 0
M  V30 1403 H 141.101 6.47895 -0.116845 0
M  V30 1404 N 134.507 -0.190092 1.56449 0
M  V30 1405 C 135.437 -1.23816 1.97969 0
M  V30 1406 C 136.418 -1.47201 0.852395 0
M  V30 1407 O 137.603 -1.58854 1.1171 0
M  V30 1408 C 134.733 -2.5813 2.3235 0
M  V30 1409 C 133.687 -2.49348 3.47864 0
M  V30 1410 C 133.013 -3.8798 3.67934 0
M  V30 1411 C 134.313 -2.01424 4.81898 0
M  V30 1412 H 136.007 -0.89311 2.85769 0
M  V30 1413 H 133.553 -0.428177 1.37487 0
M  V30 1414 H 135.506 -3.31637 2.59991 0
M  V30 1415 H 134.23 -2.94386 1.41438 0
M  V30 1416 H 132.889 -1.78297 3.20321 0
M  V30 1417 H 132.537 -4.21597 2.74344 0
M  V30 1418 H 132.237 -3.82978 4.45648 0
M  V30 1419 H 133.761 -4.63101 3.97957 0
M  V30 1420 H 135.175 -2.64693 5.08538 0
M  V30 1421 H 133.572 -2.07413 5.63116 0
M  V30 1422 H 134.642 -0.967677 4.75146 0
M  V30 1423 N 135.985 -1.50799 -0.457987 0
M  V30 1424 C 137.233 -1.62121 -1.2067 0
M  V30 1425 C 137.554 -0.329793 -1.92191 0
M  V30 1426 O 136.824 0.653409 -1.84682 0
M  V30 1427 H 135.404 -0.597441 -0.448411 0
M  V30 1428 H 138.066 -1.87637 -0.527096 0
M  V30 1429 H 137.162 -2.43882 -1.94751 0
M  V30 1430 N 137.463 0.71206 -1.40597 0
M  V30 1431 C 138.426 1.80785 -1.40888 0
M  V30 1432 C 139.426 1.57937 -0.302103 0
M  V30 1433 O 140.616 1.64913 -0.561182 0
M  V30 1434 C 137.748 3.18927 -1.20409 0
M  V30 1435 H 138.941 1.81924 -2.38419 0
M  V30 1436 H 136.494 0.91805 -1.26497 0
M  V30 1437 H 137.229 3.23436 -0.236522 0
M  V30 1438 H 137.014 3.36911 -2.00582 0
M  V30 1439 H 138.504 3.98949 -1.23408 0
M  V30 1440 N 138.941 1.26152 0.944643 0
M  V30 1441 C 139.889 1.07215 2.06417 0
M  V30 1442 C 140.883 9.2007e-05 1.694 0
M  V30 1443 O 142.089 0.1565 1.79318 0
M  V30 1444 H 138.464 0.329837 0.675805 0
M  V30 1445 H 140.435 2.02099 2.19541 0
M  V30 1446 C 139.184 0.718197 3.40202 0
M  V30 1447 H 138.507 1.53497 3.69159 0
M  V30 1448 H 139.947 0.625459 4.19361 0
M  V30 1449 C 138.406 -0.576435 3.31932 0
M  V30 1450 O 138.936 -1.61574 3.67773 0
M  V30 1451 N 137.142 -0.565781 2.85039 0
M  V30 1452 H 136.689 0.280367 2.5607 0
M  V30 1453 H 136.647 -1.43213 2.79888 0
M  V30 1454 N 140.419 -1.14872 1.07899 0
M  V30 1455 C 141.382 -2.17986 0.708161 0
M  V30 1456 C 142.382 -1.58775 -0.25442 0
M  V30 1457 O 143.572 -1.74166 -0.034645 0
M  V30 1458 C 140.704 -3.40871 0.0446929 0
M  V30 1459 H 141.897 -2.52306 1.62116 0
M  V30 1460 H 139.45 -1.2943 0.876218 0
M  V30 1461 H 140.185 -3.12124 -0.880281 0
M  V30 1462 H 139.97 -3.8511 0.737091 0
M  V30 1463 H 141.46 -4.17121 -0.19991 0
M  V30 1464 N 141.898 -0.863906 -1.31812 0
M  V30 1465 C 142.828 -0.330843 -2.31144 0
M  V30 1466 C 143.809 0.575005 -1.60087 0
M  V30 1467 O 144.994 0.493304 -1.8783 0
M  V30 1468 C 142.124 0.47374 -3.44054 0
M  V30 1469 C 141.078 -0.338481 -4.26659 0
M  V30 1470 C 140.404 0.591412 -5.31419 0
M  V30 1471 C 141.704 -1.56926 -4.98168 0
M  V30 1472 H 143.398 -1.16086 -2.75979 0
M  V30 1473 H 140.944 -0.559657 -1.32679 0
M  V30 1474 H 142.897 0.857143 -4.12591 0
M  V30 1475 H 141.621 1.33721 -2.9797 0
M  V30 1476 H 140.28 -0.703754 -3.59782 0
M  V30 1477 H 139.928 1.45199 -4.81587 0
M  V30 1478 H 139.628 0.0519022 -5.87577 0
M  V30 1479 H 141.152 0.97179 -6.02817 0
M  V30 1480 H 142.566 -1.25764 -5.59336 0
M  V30 1481 H 140.963 -2.04739 -5.64094 0
M  V30 1482 H 142.033 -2.32544 -4.25501 0
M  V30 1483 N 143.376 1.44774 -0.622745 0
M  V30 1484 C 144.339 2.29069 0.0774015 0
M  V30 1485 C 145.339 1.4059 0.780461 0
M  V30 1486 O 146.529 1.62551 0.626322 0
M  V30 1487 C 143.661 3.21974 1.12006 0
M  V30 1488 H 144.854 2.92459 -0.663901 0
M  V30 1489 H 142.407 1.51548 -0.382486 0
M  V30 1490 H 143.142 2.63417 1.89162 0
M  V30 1491 H 142.927 3.87168 0.619951 0
M  V30 1492 H 144.417 3.85318 1.60995 0
M  V30 1493 N 144.854 0.36279 1.53368 0
M  V30 1494 C 145.784 -0.476976 2.28576 0
M  V30 1495 C 146.765 -1.08631 1.30894 0
M  V30 1496 O 147.95 -1.10409 1.59761 0
M  V30 1497 C 145.08 -1.61828 3.07293 0
M  V30 1498 C 144.034 -1.13633 4.1264 0
M  V30 1499 C 143.36 -2.36766 4.79423 0
M  V30 1500 C 144.66 -0.223061 5.21823 0
M  V30 1501 H 146.354 0.150474 2.99022 0
M  V30 1502 H 143.9 0.0738103 1.43811 0
M  V30 1503 H 145.853 -2.21237 3.58653 0
M  V30 1504 H 144.577 -2.27292 2.34533 0
M  V30 1505 H 143.236 -0.564945 3.62221 0
M  V30 1506 H 142.884 -3.0068 4.03238 0
M  V30 1507 H 142.584 -2.05192 5.50609 0
M  V30 1508 H 144.108 -2.96865 5.33576 0
M  V30 1509 H 145.522 -0.724545 5.68703 0
M  V30 1510 H 143.919 0.001678 6.001 0
M  V30 1511 H 144.989 0.735553 4.79289 0
M  V30 1512 N 146.332 -1.57332 0.0918853 0
M  V30 1513 C 147.295 -2.12708 -0.85369 0
M  V30 1514 C 148.295 -1.05561 -1.213 0
M  V30 1515 O 149.485 -1.31461 -1.14296 0
M  V30 1516 C 146.617 -2.64503 -2.15061 0
M  V30 1517 H 147.81 -2.97573 -0.3729 0
M  V30 1518 H 145.363 -1.55509 -0.157072 0
M  V30 1519 H 146.098 -1.83149 -2.67632 0
M  V30 1520 H 145.883 -3.4284 -1.90272 0
M  V30 1521 H 147.373 -3.07351 -2.82711 0
M  V30 1522 N 147.81 0.181792 -1.56548 0
M  V30 1523 C 148.72 1.24538 -1.98815 0
M  V30 1524 C 149.736 1.49045 -0.897861 0
M  V30 1525 O 150.912 1.61399 -1.20467 0
M  V30 1526 C 147.977 2.56683 -2.33055 0
M  V30 1527 C 147.038 2.40131 -3.55859 0
M  V30 1528 C 146.271 3.65975 -3.88456 0
M  V30 1529 O 146.494 4.70711 -3.22161 0
M  V30 1530 O 145.428 3.6071 -4.81842 0
M  V30 1531 H 149.254 0.916647 -2.89536 0
M  V30 1532 H 146.839 0.387842 -1.44278 0
M  V30 1533 H 148.721 3.34655 -2.56094 0
M  V30 1534 H 147.396 2.89157 -1.45498 0
M  V30 1535 H 146.303 1.60226 -3.38051 0
M  V30 1536 H 147.636 2.12585 -4.43924 0
M  V30 1537 N 149.288 1.51039 0.449983 0
M  V30 1538 C 150.536 1.62759 1.19808 0
M  V30 1539 C 150.857 0.339981 1.92013 0
M  V30 1540 O 150.127 -0.643606 1.85026 0
M  V30 1541 H 148.707 0.599811 0.445237 0
M  V30 1542 H 151.369 1.87914 0.517138 0
M  V30 1543 H 150.465 2.44911 1.93455 0
M  V30 1544 N 150.766 -0.704594 1.40972 0
M  V30 1545 C 152.043 -1.45847 1.30338 0
M  V30 1546 C 152.423 -2.10973 -0.0732344 0
M  V30 1547 O 151.771 -2.00997 -1.08685 0
M  V30 1548 C 151.981 -2.48525 2.45023 0
M  V30 1549 C 153.329 -3.1404 2.8577 0
M  V30 1550 O 154.353 -2.58848 2.44696 0
M  V30 1551 O 153.212 -4.13981 3.56766 0
M  V30 1552 H 150.306 -0.649092 0.512454 0
M  V30 1553 H 152.852 -0.735836 1.52917 0
M  V30 1554 H 151.624 -1.98994 3.36923 0
M  V30 1555 H 151.247 -3.2831 2.24272 0
M  V30 1556 N 152.244 -1.26651 -0.937939 0
M  V30 1557 C 153.491 -1.12387 -1.6845 0
M  V30 1558 C 153.819 0.332208 -1.91642 0
M  V30 1559 O 153.074 1.2602 -1.49725 0
M  V30 1560 C 153.373 -1.84168 -3.06295 0
M  V30 1561 C 153.039 -3.34056 -3.02849 0
M  V30 1562 C 151.701 -3.74942 -3.01616 0
M  V30 1563 C 154.053 -4.29741 -2.9491 0
M  V30 1564 C 151.381 -5.09894 -2.90215 0
M  V30 1565 C 153.733 -5.64738 -2.8505 0
M  V30 1566 C 152.397 -6.0493 -2.82162 0
M  V30 1567 H 151.667 -0.411252 -0.616403 0
M  V30 1568 H 154.314 -1.57134 -1.09459 0
M  V30 1569 H 152.619 -1.319 -3.6893 0
M  V30 1570 H 154.316 -1.70569 -3.62915 0
M  V30 1571 H 150.906 -3.01534 -3.0459 0
M  V30 1572 H 155.09 -3.99133 -2.94969 0
M  V30 1573 H 150.346 -5.40194 -2.86358 0
M  V30 1574 H 154.52 -6.38561 -2.77872 0
M  V30 1575 H 152.147 -7.09457 -2.73084 0
M  V30 1576 N 153.722 1.14298 -1.08507 0
M  V30 1577 C 154.962 1.87016 -0.824894 0
M  V30 1578 C 155.326 1.81099 0.637735 0
M  V30 1579 O 156.527 2.48963 1.01345 0
M  V30 1580 C 154.798 3.31584 -1.33368 0
M  V30 1581 S 156.357 4.21903 -1.20596 0
M  V30 1582 H 153.175 0.645259 -0.2986 0
M  V30 1583 H 155.777 1.37822 -1.38656 0
M  V30 1584 H 154.481 3.33439 -2.39262 0
M  V30 1585 H 154.012 3.85836 -0.767734 0
M  V30 1586 H 156.027 4.95971 -0.150891 0
M  V30 1587 N 155.201 0.870884 1.31352 0
M  V30 1588 C 156.448 0.482273 1.96673 0
M  V30 1589 C 156.776 -0.965638 1.68836 0
M  V30 1590 O 156.031 -1.69514 0.977937 0
M  V30 1591 C 156.33 0.687157 3.50732 0
M  V30 1592 C 155.996 2.108 3.9859 0
M  V30 1593 C 154.658 2.49656 4.1137 0
M  V30 1594 C 157.01 3.03459 4.23748 0
M  V30 1595 C 154.338 3.80412 4.46659 0
M  V30 1596 C 156.69 4.3373 4.60501 0
M  V30 1597 C 155.354 4.725 4.71487 0
M  V30 1598 H 154.624 0.176476 0.719679 0
M  V30 1599 H 157.271 1.10405 1.56471 0
M  V30 1600 H 155.576 -0.0177476 3.91796 0
M  V30 1601 H 157.273 0.366284 3.99324 0
M  V30 1602 H 153.863 1.79633 3.8914 0
M  V30 1603 H 158.047 2.74665 4.13368 0
M  V30 1604 H 153.303 4.1021 4.53362 0
M  V30 1605 H 157.477 5.05578 4.78919 0
M  V30 1606 H 155.104 5.73859 4.98588 0
M  V30 1607 N 156.679 -1.44442 0.630414 0
M  V30 1608 C 157.926 -2.02052 0.134617 0
M  V30 1609 C 158.254 -1.49576 -1.24327 0
M  V30 1610 O 157.509 -0.669806 -1.83881 0
M  V30 1611 C 157.808 -3.57332 0.0697835 0
M  V30 1612 C 157.474 -4.29058 1.38635 0
M  V30 1613 C 156.136 -4.4837 1.74694 0
M  V30 1614 C 158.488 -4.69872 2.25543 0
M  V30 1615 C 155.816 -5.05756 2.97369 0
M  V30 1616 C 158.168 -5.28616 3.47487 0
M  V30 1617 C 156.832 -5.46147 3.8377 0
M  V30 1618 H 156.102 -0.739361 0.0492598 0
M  V30 1619 H 158.749 -1.73217 0.816586 0
M  V30 1620 H 157.054 -3.85577 -0.695553 0
M  V30 1621 H 158.751 -3.99637 -0.330344 0
M  V30 1622 H 155.341 -4.14357 1.09574 0
M  V30 1623 H 159.525 -4.54666 1.98979 0
M  V30 1624 H 154.781 -5.17515 3.25558 0
M  V30 1625 H 158.955 -5.59192 4.15063 0
M  V30 1626 H 156.582 -5.9038 4.7891 0
M  V30 1627 N 158.157 -0.370918 -1.53173 0
M  V30 1628 C 159.406 0.218249 -2.00516 0
M  V30 1629 C 159.719 1.49429 -1.26215 0
M  V30 1630 O 160.925 2.16239 -1.64174 0
M  V30 1631 C 159.381 0.43948 -3.57207 0
M  V30 1632 C 158.989 -0.822244 -4.4039 0
M  V30 1633 C 160.733 0.986012 -4.1289 0
M  V30 1634 C 158.64 -0.570304 -5.88644 0
M  V30 1635 H 157.57 0.0853333 -0.749156 0
M  V30 1636 H 160.221 -0.490483 -1.76823 0
M  V30 1637 H 158.603 1.20961 -3.77074 0
M  V30 1638 H 159.777 -1.59557 -4.32294 0
M  V30 1639 H 158.092 -1.29238 -3.95836 0
M  V30 1640 H 160.689 1.18991 -5.21292 0
M  V30 1641 H 161.032 1.94972 -3.6782 0
M  V30 1642 H 161.565 0.27592 -3.96842 0
M  V30 1643 H 158.304 -1.50449 -6.38001 0
M  V30 1644 H 157.824 0.164427 -5.99575 0
M  V30 1645 H 159.503 -0.19784 -6.46697 0
M  V30 1646 N 159.635 1.57281 -0.100228 0
M  V30 1647 C 160.912 1.86014 0.604812 0
M  V30 1648 C 161.292 0.998025 1.86018 0
M  V30 1649 O 160.64 0.0718184 2.28387 0
M  V30 1650 C 160.85 3.36784 0.915278 0
M  V30 1651 C 162.198 4.04957 1.27651 0
M  V30 1652 O 163.222 3.41695 1.00613 0
M  V30 1653 O 162.081 5.16593 1.7831 0
M  V30 1654 H 159.175 0.76942 0.303185 0
M  V30 1655 H 161.721 1.69176 -0.133313 0
M  V30 1656 H 160.493 3.91292 0.0248896 0
M  V30 1657 H 160.116 3.58987 1.70921 0
M  V30 1658 N 161.113 -0.173488 1.56642 0
M  V30 1659 C 162.023 -1.23482 1.99473 0
M  V30 1660 C 163.039 -1.48567 0.905752 0
M  V30 1661 O 164.215 -1.60758 1.21321 0
M  V30 1662 C 161.28 -2.55444 2.34413 0
M  V30 1663 C 160.341 -2.38241 3.57127 0
M  V30 1664 C 159.574 -3.63909 3.90392 0
M  V30 1665 O 159.797 -4.68996 3.24653 0
M  V30 1666 O 158.731 -3.58149 4.83749 0
M  V30 1667 H 162.557 -0.901279 2.90018 0
M  V30 1668 H 160.142 -0.380185 1.44482 0
M  V30 1669 H 162.024 -3.33292 2.57865 0
M  V30 1670 H 160.699 -2.88382 1.4703 0
M  V30 1671 H 159.606 -1.58431 3.38896 0
M  V30 1672 H 160.939 -2.10228 4.45045 0
M  V30 1673 N 162.591 -1.51276 -0.441967 0
M  V30 1674 C 164.002 -1.56244 -1.02199 0
M  V30 1675 C 164.353 -0.383149 -1.92422 0
M  V30 1676 O 163.478 0.500613 -2.1053 0
M  V30 1677 C 164.073 -2.83162 -1.86024 0
M  V30 1678 C 162.632 -2.90716 -2.39084 0
M  V30 1679 C 161.779 -2.50858 -1.18175 0
M  V30 1680 H 164.73 -1.5712 -0.223416 0
M  V30 1681 H 164.751 -2.66663 -2.71425 0
M  V30 1682 H 164.263 -3.68974 -1.20331 0
M  V30 1683 H 162.364 -2.09323 -3.08244 0
M  V30 1684 H 162.477 -3.94266 -2.72198 0
M  V30 1685 H 160.841 -2.03951 -1.52565 0
M  V30 1686 H 161.624 -3.3901 -0.541001 0
M  V30 1687 N 164.069 0.697108 -1.41344 0
M  V30 1688 C 165.017 1.83237 -1.43272 0
M  V30 1689 C 166.011 1.66522 -0.310947 0
M  V30 1690 O 167.217 1.73402 -0.482899 0
M  V30 1691 H 163.592 0.603802 -0.448249 0
M  V30 1692 H 165.563 1.78727 -2.38954 0
M  V30 1693 C 164.312 3.21245 -1.33029 0
M  V30 1694 H 163.635 3.34723 -2.18633 0
M  V30 1695 H 165.075 4.00763 -1.38439 0
M  V30 1696 C 163.534 3.36873 -0.0424635 0
M  V30 1697 O 164.064 3.91177 0.913421 0
M  V30 1698 N 162.27 2.90581 0.0331145 0
M  V30 1699 H 161.817 2.46577 -0.745506 0
M  V30 1700 H 161.775 3.01416 0.894199 0
M  V30 1701 N 165.547 1.27147 0.931209 0
M  V30 1702 C 166.795 1.13055 1.6752 0
M  V30 1703 C 167.116 -0.324791 1.92276 0
M  V30 1704 O 166.386 -1.22775 1.52654 0
M  V30 1705 H 164.966 0.415391 0.620854 0
M  V30 1706 H 167.628 1.59623 1.11833 0
M  V30 1707 H 166.724 1.65694 2.64485 0
M  V30 1708 N 167.025 -1.13721 1.09112 0
M  V30 1709 C 167.935 -2.22638 0.73957 0
M  V30 1710 C 168.951 -1.72091 -0.257068 0
M  V30 1711 O 170.127 -2.01155 -0.0992154 0
M  V30 1712 C 167.192 -3.46322 0.16191 0
M  V30 1713 C 166.253 -4.11775 1.21408 0
M  V30 1714 C 165.486 -5.29555 0.663891 0
M  V30 1715 O 165.709 -5.68077 -0.514274 0
M  V30 1716 O 164.643 -5.84973 1.41738 0
M  V30 1717 H 168.469 -2.55074 1.64836 0
M  V30 1718 H 166.054 -1.21791 0.865289 0
M  V30 1719 H 167.936 -4.21107 -0.157073 0
M  V30 1720 H 166.611 -3.15593 -0.719932 0
M  V30 1721 H 165.518 -3.3883 1.58571 0
M  V30 1722 H 166.851 -4.46627 2.06845 0
M  V30 1723 N 168.503 -0.877838 -1.30888 0
M  V30 1724 C 169.433 -0.35534 -2.3078 0
M  V30 1725 C 170.414 0.557994 -1.60687 0
M  V30 1726 O 171.599 0.473355 -1.88343 0
M  V30 1727 C 168.729 0.437221 -3.44537 0
M  V30 1728 C 167.683 -0.383715 -4.26276 0
M  V30 1729 C 167.009 0.535014 -5.32017 0
M  V30 1730 C 168.309 -1.62201 -4.96476 0
M  V30 1731 H 170.003 -1.19007 -2.74732 0
M  V30 1732 H 167.549 -0.573698 -1.32078 0
M  V30 1733 H 169.502 0.813334 -4.13477 0
M  V30 1734 H 168.226 1.30553 -2.99372 0
M  V30 1735 H 166.885 -0.741874 -3.59015 0
M  V30 1736 H 166.533 1.40083 -4.831 0
M  V30 1737 H 166.233 -0.0104211 -5.87599 0
M  V30 1738 H 167.757 0.907799 -6.03814 0
M  V30 1739 H 169.171 -1.31689 -5.5797 0
M  V30 1740 H 167.568 -2.10711 -5.61891 0
M  V30 1741 H 168.638 -2.37044 -4.23011 0
M  V30 1742 N 169.982 1.44106 -0.638065 0
M  V30 1743 C 171.21 2.06336 -0.152615 0
M  V30 1744 C 171.625 1.47731 1.17563 0
M  V30 1745 O 170.982 0.602806 1.72257 0
M  V30 1746 C 171.033 3.61479 -0.0391491 0
M  V30 1747 O 170.754 4.17903 -1.31487 0
M  V30 1748 C 172.255 4.40757 0.474176 0
M  V30 1749 H 169.475 0.665862 -0.0828776 0
M  V30 1750 H 172.019 1.84862 -0.87443 0
M  V30 1751 H 170.174 3.82191 0.633142 0
M  V30 1752 H 170.588 5.11416 -1.16421 0
M  V30 1753 H 172.062 5.49707 0.502562 0
M  V30 1754 H 172.539 4.12697 1.50258 0
M  V30 1755 H 173.145 4.24979 -0.165102 0
M  V30 1756 N 171.46 0.379036 1.52974 0
M  V30 1757 C 172.706 -0.206727 2.01744 0
M  V30 1758 C 173.039 -1.47314 1.26539 0
M  V30 1759 O 172.314 -1.91084 0.362903 0
M  V30 1760 C 172.597 -0.485066 3.56818 0
M  V30 1761 C 172.45 0.795919 4.42702 0
M  V30 1762 C 173.769 -1.28003 4.21074 0
M  V30 1763 H 170.888 -0.0736607 0.73331 0
M  V30 1764 H 173.53 0.506581 1.83122 0
M  V30 1765 H 171.68 -1.09272 3.72816 0
M  V30 1766 H 173.352 1.43307 4.38476 0
M  V30 1767 H 171.595 1.41344 4.10127 0
M  V30 1768 H 172.266 0.555947 5.49193 0
M  V30 1769 H 174.742 -0.765867 4.08991 0
M  V30 1770 H 173.618 -1.44352 5.29579 0
M  V30 1771 H 173.879 -2.29236 3.78026 0
M  V30 1772 N 172.938 -1.57226 0.108567 0
M  V30 1773 C 174.187 -1.94008 -0.551703 0
M  V30 1774 C 174.5 -0.993442 -1.68494 0
M  V30 1775 O 175.706 -1.25551 -2.40726 0
M  V30 1776 C 174.162 -3.44763 -1.03279 0
M  V30 1777 C 173.77 -4.47943 0.0714193 0
M  V30 1778 C 175.514 -3.90483 -1.66503 0
M  V30 1779 C 173.421 -5.89865 -0.425779 0
M  V30 1780 H 172.351 -0.724206 -0.209863 0
M  V30 1781 H 175.002 -1.82547 0.186741 0
M  V30 1782 H 173.384 -3.51422 -1.82533 0
M  V30 1783 H 174.558 -4.52942 0.847365 0
M  V30 1784 H 172.873 -4.11913 0.609669 0
M  V30 1785 H 175.47 -4.93925 -2.04798 0
M  V30 1786 H 175.813 -3.29877 -2.53942 0
M  V30 1787 H 176.346 -3.86581 -0.938074 0
M  V30 1788 H 173.085 -6.54202 0.412316 0
M  V30 1789 H 172.605 -5.88309 -1.16843 0
M  V30 1790 H 174.284 -6.40844 -0.890397 0
M  V30 1791 N 174.416 0.165178 -1.56732 0
M  V30 1792 C 175.644 0.896218 -1.86482 0
M  V30 1793 C 176.059 1.75555 -0.694675 0
M  V30 1794 O 175.416 1.79379 0.33607 0
M  V30 1795 C 175.467 1.76792 -3.1532 0
M  V30 1796 O 175.188 0.943239 -4.27825 0
M  V30 1797 C 176.689 2.6081 -3.58459 0
M  V30 1798 H 173.909 0.260064 -0.618553 0
M  V30 1799 H 176.453 0.163428 -2.03846 0
M  V30 1800 H 174.608 2.45398 -2.99764 0
M  V30 1801 H 175.022 1.53998 -5.01383 0
M  V30 1802 H 176.496 3.17579 -4.51495 0
M  V30 1803 H 176.973 3.35977 -2.82872 0
M  V30 1804 H 177.579 1.97526 -3.76648 0
M  V30 1805 N 175.894 1.51508 0.433938 0
M  V30 1806 C 176.804 1.75917 1.5521 0
M  V30 1807 C 177.82 0.643545 1.61662 0
M  V30 1808 O 178.996 0.926183 1.7884 0
M  V30 1809 C 176.061 1.88213 2.91164 0
M  V30 1810 C 175.122 3.12074 2.94802 0
M  V30 1811 C 174.355 3.23774 4.24271 0
M  V30 1812 O 174.578 2.4133 5.16833 0
M  V30 1813 O 173.512 4.16774 4.34262 0
M  V30 1814 H 177.338 2.70777 1.37527 0
M  V30 1815 H 174.923 1.36051 0.617293 0
M  V30 1816 H 176.805 1.98267 3.71845 0
M  V30 1817 H 175.48 0.965413 3.08968 0
M  V30 1818 H 174.387 3.07497 2.13065 0
M  V30 1819 H 175.72 4.03446 2.81943 0
M  V30 1820 N 177.372 -0.689602 1.41712 0
M  V30 1821 C 178.597 -1.48329 1.44959 0
M  V30 1822 C 179.022 -1.8801 0.0581283 0
M  V30 1823 O 178.38 -1.55026 -0.940035 0
M  V30 1824 C 178.428 -2.71835 2.36935 0
M  V30 1825 O 177.532 -3.69549 1.8305 0
M  V30 1826 H 176.873 -0.446199 0.491734 0
M  V30 1827 H 179.403 -0.847127 1.86239 0
M  V30 1828 H 179.413 -3.20076 2.53013 0
M  V30 1829 H 178.088 -2.42291 3.38035 0
M  V30 1830 H 176.665 -3.2851 1.76452 0
M  V30 1831 N 178.85 -1.27639 -0.924453 0
M  V30 1832 C 180.266 -1.05113 -1.20097 0
M  V30 1833 C 180.466 0.213262 -2.00368 0
M  V30 1834 O 179.522 0.91787 -2.35226 0
M  V30 1835 C 180.835 -2.29244 -1.94596 0
M  V30 1836 C 182.383 -2.34315 -2.07522 0
M  V30 1837 C 182.858 -3.58183 -2.85427 0
M  V30 1838 N 184.349 -3.5876 -2.92994 0
M  V30 1839 C 185.084 -4.51277 -3.53746 0
M  V30 1840 N 184.58 -5.54102 -4.15863 0
M  V30 1841 N 186.373 -4.38894 -3.51181 0
M  V30 1842 H 178.524 -2.08821 -0.388264 0
M  V30 1843 H 180.787 -0.918568 -0.234385 0
M  V30 1844 H 180.493 -3.21301 -1.43034 0
M  V30 1845 H 180.367 -2.34816 -2.95197 0
M  V30 1846 H 182.754 -1.42762 -2.58269 0
M  V30 1847 H 182.835 -2.32744 -1.06131 0
M  V30 1848 H 182.479 -4.50074 -2.35363 0
M  V30 1849 H 182.409 -3.57006 -3.8711 0
M  V30 1850 H 184.9 -2.84398 -2.4885 0
M  V30 1851 H 185.213 -6.20859 -4.60168 0
M  V30 1852 H 183.558 -5.57941 -4.144 0
M  V30 1853 H 186.749 -3.57772 -3.01856 0
M  V30 1854 H 186.922 -5.11186 -3.98237 0
M  V30 1855 N 180.328 1.1314 -1.09713 0
M  V30 1856 C 181.576 1.84119 -0.833338 0
M  V30 1857 C 181.897 1.84097 0.642904 0
M  V30 1858 O 181.167 1.29881 1.46655 0
M  V30 1859 H 179.747 0.681766 -0.305293 0
M  V30 1860 H 182.409 1.37038 -1.38588 0
M  V30 1861 H 181.505 2.88543 -1.18951 0
M  V30 1862 N 181.806 0.884767 1.30421 0
M  V30 1863 C 183.053 0.503105 1.96151 0
M  V30 1864 C 183.381 -0.947676 1.69851 0
M  V30 1865 O 182.636 -1.68467 0.995861 0
M  V30 1866 C 182.935 0.724318 3.49983 0
M  V30 1867 C 182.601 2.15015 3.96332 0
M  V30 1868 C 181.263 2.54005 4.08699 0
M  V30 1869 C 183.615 3.07936 4.20505 0
M  V30 1870 C 180.943 3.85128 4.42599 0
M  V30 1871 C 183.295 4.3859 4.55874 0
M  V30 1872 C 181.959 4.77474 4.66449 0
M  V30 1873 H 181.229 0.184099 0.717766 0
M  V30 1874 H 183.876 1.12058 1.55291 0
M  V30 1875 H 182.181 0.0238086 3.91793 0
M  V30 1876 H 183.878 0.408617 3.98913 0
M  V30 1877 H 180.468 1.8375 3.87213 0
M  V30 1878 H 184.652 2.79033 4.10431 0
M  V30 1879 H 179.908 4.14996 4.48986 0
M  V30 1880 H 184.082 5.10629 4.7353 0
M  V30 1881 H 181.709 5.79115 4.92473 0
M  V30 1882 N 183.284 -1.43765 0.645699 0
M  V30 1883 C 184.509 -2.06767 0.161883 0
M  V30 1884 C 184.934 -1.48034 -1.16049 0
M  V30 1885 O 184.292 -0.587369 -1.71522 0
M  V30 1886 C 184.34 -3.60519 0.0762003 0
M  V30 1887 O 183.444 -4.00982 -0.963721 0
M  V30 1888 H 182.785 -0.657675 0.091429 0
M  V30 1889 H 185.315 -1.84397 0.886499 0
M  V30 1890 H 185.325 -4.07853 -0.109604 0
M  V30 1891 H 184 -4.02646 1.04157 0
M  V30 1892 H 182.577 -3.65253 -0.751312 0
M  V30 1893 N 184.763 -0.387143 -1.52771 0
M  V30 1894 C 186.174 0.0873634 -1.86495 0
M  V30 1895 C 186.525 1.46336 -1.30691 0
M  V30 1896 O 185.65 2.068 -0.637409 0
M  V30 1897 C 186.245 0.165305 -3.38396 0
M  V30 1898 C 184.804 0.584101 -3.7184 0
M  V30 1899 C 183.951 -0.255279 -2.76122 0
M  V30 1900 H 186.902 -0.605104 -1.46711 0
M  V30 1901 H 186.923 0.984848 -3.67534 0
M  V30 1902 H 186.435 -0.836301 -3.78982 0
M  V30 1903 H 184.536 1.59315 -3.36823 0
M  V30 1904 H 184.649 0.343749 -4.77865 0
M  V30 1905 H 183.013 0.279126 -2.53166 0
M  V30 1906 H 183.796 -1.25482 -3.19545 0
M  V30 1907 N 186.241 1.57166 -0.116904 0
M  V30 1908 C 187.487 1.95412 0.542405 0
M  V30 1909 C 187.82 1.00019 1.66463 0
M  V30 1910 O 187.095 0.0370346 1.94465 0
M  V30 1911 C 187.378 3.43615 1.07708 0
M  V30 1912 C 187.231 4.49781 -0.0415868 0
M  V30 1913 C 188.55 3.93616 1.96861 0
M  V30 1914 H 185.669 0.710543 0.195696 0
M  V30 1915 H 188.311 1.89027 -0.192038 0
M  V30 1916 H 186.461 3.49187 1.70296 0
M  V30 1917 H 188.133 4.56308 -0.676793 0
M  V30 1918 H 186.376 4.28033 -0.705019 0
M  V30 1919 H 187.047 5.50733 0.373717 0
M  V30 1920 H 189.523 3.90335 1.44146 0
M  V30 1921 H 188.399 4.97838 2.3119 0
M  V30 1922 H 188.66 3.34188 2.89432 0
M  V30 1923 N 187.719 -0.156864 1.56817 0
M  V30 1924 C 188.669 -1.19891 1.93934 0
M  V30 1925 C 189.653 -1.39061 0.809372 0
M  V30 1926 O 190.845 -1.40789 1.07273 0
M  V30 1927 C 187.974 -2.53493 2.31508 0
M  V30 1928 C 187.06 -2.37957 3.51052 0
M  V30 1929 N 187.451 -1.92158 4.67877 0
M  V30 1930 C 185.749 -2.68739 3.55943 0
M  V30 1931 C 186.45 -1.8943 5.49992 0
M  V30 1932 N 185.426 -2.32375 4.91429 0
M  V30 1933 H 189.228 -0.836746 2.81737 0
M  V30 1934 H 186.742 -0.365012 1.58245 0
M  V30 1935 H 188.739 -3.28811 2.56299 0
M  V30 1936 H 187.399 -2.905 1.45051 0
M  V30 1937 H 188.41 -1.62274 4.91821 0
M  V30 1938 H 185.087 -3.09687 2.80001 0
M  V30 1939 H 186.477 -1.55596 6.53636 0
M  V30 1940 N 189.197 -1.51736 -0.425897 0
M  V30 1941 C 190.443 -1.65214 -1.1761 0
M  V30 1942 C 190.776 -0.372778 -1.90589 0
M  V30 1943 O 190.051 0.628139 -1.84078 0
M  V30 1944 C 190.334 -2.86312 -2.18398 0
M  V30 1945 C 190.187 -4.24254 -1.49426 0
M  V30 1946 C 191.506 -3.02925 -3.19256 0
M  V30 1947 H 188.625 -0.601263 -0.426206 0
M  V30 1948 H 191.267 -1.8425 -0.463882 0
M  V30 1949 H 189.417 -2.70213 -2.79137 0
M  V30 1950 H 191.089 -4.52046 -0.919362 0
M  V30 1951 H 189.332 -4.26426 -0.796432 0
M  V30 1952 H 190.003 -5.05001 -2.22885 0
M  V30 1953 H 192.479 -3.1781 -2.68581 0
M  V30 1954 H 191.355 -3.89199 -3.8706 0
M  V30 1955 H 191.616 -2.15497 -3.86023 0
M  V30 1956 N 190.675 0.682077 -1.42076 0
M  V30 1957 C 191.921 1.44428 -1.42367 0
M  V30 1958 C 192.254 1.94164 -0.0373056 0
M  V30 1959 O 191.529 1.70429 0.937239 0
M  V30 1960 C 191.812 2.64654 -2.44194 0
M  V30 1961 C 191.665 2.20596 -3.91991 0
M  V30 1962 C 192.984 3.66865 -2.431 0
M  V30 1963 H 190.103 0.523834 -0.518428 0
M  V30 1964 H 192.745 0.77576 -1.73442 0
M  V30 1965 H 190.895 3.2169 -2.17826 0
M  V30 1966 H 192.567 1.68783 -4.29313 0
M  V30 1967 H 190.81 1.52242 -4.06208 0
M  V30 1968 H 191.481 3.06921 -4.58807 0
M  V30 1969 H 193.957 3.19531 -2.66532 0
M  V30 1970 H 192.833 4.48577 -3.16339 0
M  V30 1971 H 193.094 4.17493 -1.45437 0
M  V30 1972 N 192.153 1.28127 0.917671 0
M  V30 1973 C 193.085 1.07517 2.02417 0
M  V30 1974 C 194.098 0.0281099 1.62776 0
M  V30 1975 O 195.287 0.270748 1.76435 0
M  V30 1976 C 192.387 0.610957 3.33347 0
M  V30 1977 C 191.56 1.73255 4.01624 0
M  V30 1978 C 190.619 1.26238 5.10833 0
M  V30 1979 O 189.645 1.96389 5.34247 0
M  V30 1980 N 190.847 0.123448 5.80369 0
M  V30 1981 H 193.612 2.02806 2.20658 0
M  V30 1982 H 191.173 1.19827 1.08871 0
M  V30 1983 H 193.165 0.280101 4.0373 0
M  V30 1984 H 191.735 -0.24898 3.11607 0
M  V30 1985 H 190.955 2.23319 3.24842 0
M  V30 1986 H 192.243 2.48503 4.43986 0
M  V30 1987 H 191.641 -0.461847 5.63812 0
M  V30 1988 H 190.198 -0.148158 6.51632 0
M  V30 1989 N 193.631 -1.12557 1.10312 0
M  V30 1990 C 194.879 -1.83675 0.843091 0
M  V30 1991 C 195.2 -1.84435 -0.633131 0
M  V30 1992 O 194.47 -1.30657 -1.45964 0
M  V30 1993 H 193.05 -0.680138 0.308904 0
M  V30 1994 H 195.712 -1.36301 1.39313 0
M  V30 1995 H 194.808 -2.87908 1.2048 0
M  V30 1996 N 195.109 -0.891671 -1.2995 0
M  V30 1997 C 196.056 -0.361736 -2.27948 0
M  V30 1998 C 197.026 0.551761 -1.56668 0
M  V30 1999 O 198.211 0.478736 -1.84696 0
M  V30 2000 C 195.351 0.411825 -3.42634 0
M  V30 2001 C 194.464 -0.531651 -4.28716 0
M  V30 2002 C 193.599 0.258167 -5.30572 0
M  V30 2003 C 192.638 -0.680349 -6.08307 0
M  V30 2004 N 191.775 0.0745613 -7.0206 0
M  V30 2005 H 196.615 -1.20254 -2.72659 0
M  V30 2006 H 194.152 -0.604352 -1.34112 0
M  V30 2007 H 196.11 0.876304 -4.07893 0
M  V30 2008 H 194.74 1.21715 -2.98974 0
M  V30 2009 H 193.792 -1.11463 -3.63703 0
M  V30 2010 H 195.104 -1.25038 -4.82874 0
M  V30 2011 H 194.258 0.784204 -6.0161 0
M  V30 2012 H 192.997 1.01008 -4.77126 0
M  V30 2013 H 192.002 -1.21796 -5.3614 0
M  V30 2014 H 193.227 -1.43145 -6.63842 0
M  V30 2015 H 191.173 0.808883 -6.50994 0
M  V30 2016 H 191.09 -0.584409 -7.53738 0
M  V30 2017 H 192.358 0.581123 -7.77331 0
M  V30 2018 N 196.587 1.43421 -0.653314 0
M  V30 2019 C 197.534 2.30768 0.0382271 0
M  V30 2020 C 198.504 1.44755 0.814576 0
M  V30 2021 O 199.689 1.73624 0.791162 0
M  V30 2022 C 196.829 3.30336 0.998599 0
M  V30 2023 C 195.942 4.31448 0.218342 0
M  V30 2024 C 195.077 5.18098 1.17252 0
M  V30 2025 C 194.116 6.10902 0.382702 0
M  V30 2026 N 193.253 6.90176 1.28848 0
M  V30 2027 H 198.093 2.89357 -0.712511 0
M  V30 2028 H 195.63 1.42548 -0.363128 0
M  V30 2029 H 197.588 3.86572 1.56901 0
M  V30 2030 H 196.218 2.73397 1.71621 0
M  V30 2031 H 195.27 3.77506 -0.46836 0
M  V30 2032 H 196.582 4.97227 -0.395812 0
M  V30 2033 H 195.736 5.7896 1.81356 0
M  V30 2034 H 194.475 4.52444 1.82058 0
M  V30 2035 H 193.48 5.49128 -0.27169 0
M  V30 2036 H 194.705 6.78598 -0.260957 0
M  V30 2037 H 192.651 6.27171 1.92334 0
M  V30 2038 H 192.568 7.52478 0.728887 0
M  V30 2039 H 193.836 7.55543 1.91766 0
M  V30 2040 N 198.065 0.39524 1.52563 0
M  V30 2041 C 199.028 -0.425001 2.25225 0
M  V30 2042 C 200.028 -0.985266 1.27079 0
M  V30 2043 O 201.218 -0.866332 1.5113 0
M  V30 2044 C 198.35 -1.59686 3.01186 0
M  V30 2045 H 199.543 0.211233 2.99155 0
M  V30 2046 H 197.096 0.147472 1.55603 0
M  V30 2047 H 197.831 -2.27035 2.31572 0
M  V30 2048 H 197.616 -1.20176 3.73229 0
M  V30 2049 H 199.106 -2.17743 3.5634 0
M  V30 2050 N 199.544 -1.57102 0.125237 0
M  V30 2051 C 200.79 -1.96488 -0.525753 0
M  V30 2052 C 201.145 -1.00786 -1.6389 0
M  V30 2053 O 200.438 -0.038979 -1.9156 0
M  V30 2054 C 200.632 -3.40096 -1.09862 0
M  V30 2055 C 200.461 -4.4968 -0.0425004 0
M  V30 2056 C 199.231 -5.03781 0.391463 0
M  V30 2057 C 201.429 -5.08936 0.740829 0
M  V30 2058 N 199.411 -5.96948 1.4327 0
M  V30 2059 C 200.782 -5.98105 1.6331 0
M  V30 2060 C 202.837 -4.91576 0.791029 0
M  V30 2061 C 201.54 -6.71774 2.57122 0
M  V30 2062 C 203.566 -5.6593 1.71688 0
M  V30 2063 C 202.928 -6.5479 2.59672 0
M  V30 2064 H 199.027 -0.765072 -0.161831 0
M  V30 2065 H 201.611 -1.93511 0.214801 0
M  V30 2066 H 199.782 -3.43707 -1.80887 0
M  V30 2067 H 201.514 -3.66591 -1.71444 0
M  V30 2068 H 198.269 -4.736 -0.00213584 0
M  V30 2069 H 198.693 -6.48236 1.95243 0
M  V30 2070 H 203.335 -4.22615 0.124915 0
M  V30 2071 H 201.053 -7.39977 3.24744 0
M  V30 2072 H 204.639 -5.54501 1.76125 0
M  V30 2073 H 203.519 -7.11316 3.30149 0
M  V30 2074 N 201.022 0.148545 -1.56898 0
M  V30 2075 C 201.955 1.21293 -1.93296 0
M  V30 2076 C 202.933 1.41637 -0.798599 0
M  V30 2077 O 204.117 1.56275 -1.05406 0
M  V30 2078 C 201.244 2.5721 -2.20365 0
M  V30 2079 C 200.29 2.53469 -3.4301 0
M  V30 2080 S 201.123 2.00315 -4.96623 0
M  V30 2081 C 202.279 3.37964 -5.26812 0
M  V30 2082 H 202.512 0.902393 -2.83274 0
M  V30 2083 H 200.045 0.354094 -1.50285 0
M  V30 2084 H 202.003 3.35427 -2.36641 0
M  V30 2085 H 200.664 2.85454 -1.31054 0
M  V30 2086 H 199.857 3.53518 -3.59223 0
M  V30 2087 H 199.459 1.83359 -3.25968 0
M  V30 2088 H 201.751 4.34066 -5.20185 0
M  V30 2089 H 202.694 3.26606 -6.28279 0
M  V30 2090 H 203.102 3.35028 -4.54331 0
M  V30 2091 N 202.5 1.5196 0.417844 0
M  V30 2092 C 203.728 1.69426 1.18753 0
M  V30 2093 C 204.143 0.399955 1.84515 0
M  V30 2094 O 203.5 -0.623288 1.71527 0
M  V30 2095 C 203.551 2.82375 2.25714 0
M  V30 2096 O 203.272 4.06793 1.62638 0
M  V30 2097 C 204.773 3.11277 3.15628 0
M  V30 2098 H 201.993 0.568031 0.357186 0
M  V30 2099 H 204.537 1.98475 0.49273 0
M  V30 2100 H 202.692 2.5587 2.90877 0
M  V30 2101 H 203.106 4.69667 2.3348 0
M  V30 2102 H 204.58 3.93843 3.86771 0
M  V30 2103 H 205.057 2.24473 3.77503 0
M  V30 2104 H 205.663 3.39515 2.56144 0
M  V30 2105 N 203.978 -0.674533 1.42435 0
M  V30 2106 C 204.926 -1.80934 1.46169 0
M  V30 2107 C 205.92 -1.66006 0.3374 0
M  V30 2108 O 207.126 -1.72611 0.510425 0
M  V30 2109 H 203.501 -0.596594 0.457798 0
M  V30 2110 H 205.472 -1.74903 2.41767 0
M  V30 2111 C 204.221 -3.19088 1.38123 0
M  V30 2112 H 203.544 -3.31203 2.23931 0
M  V30 2113 H 204.984 -3.9851 1.44797 0
M  V30 2114 C 203.443 -3.36763 0.0960517 0
M  V30 2115 O 203.973 -3.92581 -0.851073 0
M  V30 2116 N 202.179 -2.90597 0.0131186 0
M  V30 2117 H 201.726 -2.45359 0.784639 0
M  V30 2118 H 201.684 -3.028 -0.846133 0
M  V30 2119 N 205.456 -1.28612 -0.910864 0
M  V30 2120 C 206.681 -1.1891 -1.69927 0
M  V30 2121 C 207.106 0.248372 -1.86453 0
M  V30 2122 O 206.464 1.17961 -1.37676 0
M  V30 2123 C 206.512 -1.89578 -3.06745 0
M  V30 2124 O 205.616 -1.20521 -3.94396 0
M  V30 2125 H 204.957 -0.412632 -0.520222 0
M  V30 2126 H 207.487 -1.69985 -1.1387 0
M  V30 2127 H 207.497 -1.97597 -3.56958 0
M  V30 2128 H 206.172 -2.94136 -2.94035 0
M  V30 2129 H 204.749 -1.20684 -3.52831 0
M  V30 2130 N 206.934 1.1197 -1.10907 0
M  V30 2131 C 207.864 2.19928 -0.784473 0
M  V30 2132 C 208.845 1.6833 0.244726 0
M  V30 2133 O 210.03 1.93892 0.109418 0
M  V30 2134 C 207.16 3.46597 -0.220827 0
M  V30 2135 C 206.114 4.11376 -1.18127 0
M  V30 2136 C 205.44 5.32554 -0.478594 0
M  V30 2137 C 206.74 4.56945 -2.52979 0
M  V30 2138 H 208.434 2.47337 -1.68715 0
M  V30 2139 H 205.98 1.18879 -0.812642 0
M  V30 2140 H 207.933 4.21396 0.0184278 0
M  V30 2141 H 206.657 3.1863 0.717113 0
M  V30 2142 H 205.316 3.38564 -1.40606 0
M  V30 2143 H 204.964 5.00856 0.463976 0
M  V30 2144 H 204.664 5.76844 -1.11912 0
M  V30 2145 H 206.188 6.10096 -0.248 0
M  V30 2146 H 207.602 5.23093 -2.3462 0
M  V30 2147 H 205.999 5.1203 -3.12962 0
M  V30 2148 H 207.069 3.70676 -3.12614 0
M  V30 2149 N 208.412 0.89855 1.29475 0
M  V30 2150 C 209.359 0.373819 2.27753 0
M  V30 2151 C 210.329 -0.543444 1.56958 0
M  V30 2152 O 211.514 -0.468934 1.84948 0
M  V30 2153 C 208.654 -0.393648 3.42848 0
M  V30 2154 C 207.767 0.554379 4.28428 0
M  V30 2155 C 206.902 -0.230026 5.30702 0
M  V30 2156 C 205.941 0.712599 6.07938 0
M  V30 2157 N 205.078 -0.0373283 7.0209 0
M  V30 2158 H 209.918 1.21699 2.72017 0
M  V30 2159 H 207.455 0.611456 1.33789 0
M  V30 2160 H 209.413 -0.85466 4.08352 0
M  V30 2161 H 208.043 -1.20128 2.99615 0
M  V30 2162 H 207.095 1.13391 3.63107 0
M  V30 2163 H 208.407 1.27597 4.82204 0
M  V30 2164 H 207.561 -0.752288 6.02018 0
M  V30 2165 H 206.3 -0.984758 4.77654 0
M  V30 2166 H 205.305 1.24637 5.35486 0
M  V30 2167 H 206.53 1.46664 6.63074 0
M  V30 2168 H 204.476 -0.774348 6.51414 0
M  V30 2169 H 204.393 0.624374 7.53417 0
M  V30 2170 H 205.661 -0.539891 7.77628 0
M  V30 2171 N 209.89 -1.43072 0.660911 0
M  V30 2172 C 210.82 -2.33497 -0.0122829 0
M  V30 2173 C 211.801 -1.49903 -0.803925 0
M  V30 2174 O 212.986 -1.78546 -0.763864 0
M  V30 2175 C 210.116 -3.33363 -0.973994 0
M  V30 2176 C 209.07 -4.27003 -0.291928 0
M  V30 2177 C 208.396 -5.16967 -1.36562 0
M  V30 2178 C 209.696 -5.15816 0.820462 0
M  V30 2179 H 211.39 -2.90038 0.742873 0
M  V30 2180 H 208.936 -1.39461 0.358688 0
M  V30 2181 H 210.889 -3.95524 -1.45392 0
M  V30 2182 H 209.613 -2.75095 -1.7604 0
M  V30 2183 H 208.272 -3.66217 0.167623 0
M  V30 2184 H 207.92 -4.55034 -2.14366 0
M  V30 2185 H 207.62 -5.80441 -0.914454 0
M  V30 2186 H 209.144 -5.82003 -1.84675 0
M  V30 2187 H 210.558 -5.71742 0.422366 0
M  V30 2188 H 208.955 -5.8805 1.19656 0
M  V30 2189 H 210.025 -4.55045 1.67518 0
M  V30 2190 N 211.368 -0.403325 -1.52352 0
M  V30 2191 C 212.614 0.174605 -2.02047 0
M  V30 2192 C 212.947 1.45282 -1.28867 0
M  V30 2193 O 212.222 1.90483 -0.393257 0
M  V30 2194 C 212.505 0.428238 -3.57545 0
M  V30 2195 C 212.358 -0.866248 -4.4138 0
M  V30 2196 C 213.677 1.21287 -4.23057 0
M  V30 2197 H 210.796 0.0619851 -0.734389 0
M  V30 2198 H 213.438 -0.53565 -1.82293 0
M  V30 2199 H 211.588 1.03327 -3.74507 0
M  V30 2200 H 213.26 -1.50265 -4.3614 0
M  V30 2201 H 211.503 -1.47851 -4.07827 0
M  V30 2202 H 212.174 -0.643249 -5.48239 0
M  V30 2203 H 214.65 0.700703 -4.10158 0
M  V30 2204 H 213.526 1.35909 -5.31808 0
M  V30 2205 H 213.787 2.23193 -3.81625 0
M  V30 2206 N 212.846 1.57033 -0.133567 0
M  V30 2207 C 214.074 2.00044 0.528195 0
M  V30 2208 C 214.489 1.01349 1.59291 0
M  V30 2209 O 213.846 0.00848369 1.82498 0
M  V30 2210 C 213.897 3.43018 1.1411 0
M  V30 2211 O 213.618 4.37939 0.11892 0
M  V30 2212 C 215.119 4.01237 1.88477 0
M  V30 2213 H 212.339 0.656517 0.138661 0
M  V30 2214 H 214.883 2.03267 -0.224196 0
M  V30 2215 H 213.038 3.40688 1.84418 0
M  V30 2216 H 213.452 5.21436 0.56613 0
M  V30 2217 H 214.926 5.03314 2.26669 0
M  V30 2218 H 215.403 3.41193 2.76558 0
M  V30 2219 H 216.009 4.07156 1.22898 0
M  V30 2220 N 214.325 -0.140222 1.56975 0
M  V30 2221 C 215.288 -1.15689 1.97861 0
M  V30 2222 C 216.288 -1.3549 0.865974 0
M  V30 2223 O 217.478 -1.32367 1.13246 0
M  V30 2224 C 214.61 -2.51582 2.30042 0
M  V30 2225 H 215.803 -0.805971 2.88867 0
M  V30 2226 H 213.356 -0.383801 1.51515 0
M  V30 2227 H 214.091 -2.91632 1.41849 0
M  V30 2228 H 213.876 -2.38569 3.11171 0
M  V30 2229 H 215.366 -3.24792 2.62488 0
M  V30 2230 N 215.803 -1.52179 -0.40978 0
M  V30 2231 C 216.766 -1.74853 -1.48186 0
M  V30 2232 C 217.766 -0.618417 -1.48433 0
M  V30 2233 O 218.956 -0.886286 -1.49969 0
M  V30 2234 C 216.088 -1.8303 -2.87598 0
M  V30 2235 H 217.281 -2.70559 -1.29374 0
M  V30 2236 H 214.834 -1.42586 -0.640233 0
M  V30 2237 H 215.569 -0.89236 -3.11781 0
M  V30 2238 H 215.354 -2.65187 -2.88822 0
M  V30 2239 H 216.844 -2.02316 -3.65319 0
M  V30 2240 N 217.281 0.66697 -1.42791 0
M  V30 2241 C 218.191 1.80962 -1.49299 0
M  V30 2242 C 219.207 1.69775 -0.381108 0
M  V30 2243 O 220.383 1.91188 -0.633188 0
M  V30 2244 C 217.448 3.17156 -1.40045 0
M  V30 2245 C 216.509 3.40242 -2.6179 0
M  V30 2246 C 215.742 4.69939 -2.52969 0
M  V30 2247 O 215.965 5.48372 -1.56985 0
M  V30 2248 O 214.899 4.94441 -3.43237 0
M  V30 2249 H 218.725 1.78427 -2.45759 0
M  V30 2250 H 216.31 0.823713 -1.24641 0
M  V30 2251 H 218.192 3.98413 -1.37276 0
M  V30 2252 H 216.867 3.20312 -0.467138 0
M  V30 2253 H 215.774 2.58802 -2.70134 0
M  V30 2254 H 217.107 3.41923 -3.54047 0
M  V30 2255 N 218.759 1.29093 0.90403 0
M  V30 2256 C 220.007 1.16583 1.65085 0
M  V30 2257 C 220.328 -0.283933 1.92922 0
M  V30 2258 O 219.598 -1.19509 1.55224 0
M  V30 2259 H 218.178 0.428467 0.611903 0
M  V30 2260 H 220.84 1.61959 1.08422 0
M  V30 2261 H 219.936 1.71266 2.6091 0
M  V30 2262 N 220.237 -1.11381 1.11499 0
M  V30 2263 C 221.147 -2.21019 0.786628 0
M  V30 2264 C 222.163 -1.72597 -0.220507 0
M  V30 2265 O 223.339 -2.01321 -0.0565251 0
M  V30 2266 C 220.404 -3.459 0.235333 0
M  V30 2267 C 219.465 -4.09107 1.30115 0
M  V30 2268 C 218.698 -5.28027 0.776068 0
M  V30 2269 O 218.921 -5.6904 -0.393661 0
M  V30 2270 O 217.855 -5.81835 1.54114 0
M  V30 2271 H 221.681 -2.51521 1.70209 0
M  V30 2272 H 219.266 -1.19928 0.890928 0
M  V30 2273 H 221.148 -4.21346 -0.067715 0
M  V30 2274 H 219.823 -3.17049 -0.652828 0
M  V30 2275 H 218.73 -3.35391 1.65722 0
M  V30 2276 H 220.063 -4.42139 2.16273 0
M  V30 2277 N 221.715 -0.905404 -1.28997 0
M  V30 2278 C 222.963 -0.533192 -1.9494 0
M  V30 2279 C 223.284 0.924618 -1.71685 0
M  V30 2280 O 222.554 1.65268 -1.05183 0
M  V30 2281 H 221.134 -0.194194 -0.721317 0
M  V30 2282 H 223.796 -1.15294 -1.57141 0
M  V30 2283 H 222.892 -0.72059 -3.03667 0
M  V30 2284 N 223.193 1.4272 -0.668489 0
M  V30 2285 C 224.156 2.292 0.00448567 0
M  V30 2286 C 225.156 1.43001 0.735339 0
M  V30 2287 O 226.346 1.64461 0.57429 0
M  V30 2288 C 223.478 3.25375 1.01705 0
M  V30 2289 H 224.671 2.90199 -0.756608 0
M  V30 2290 H 222.224 1.50254 -0.430506 0
M  V30 2291 H 222.959 2.69301 1.80686 0
M  V30 2292 H 222.744 3.88944 0.496463 0
M  V30 2293 H 224.234 3.90245 1.48655 0
M  V30 2294 N 224.671 0.411399 1.52136 0
M  V30 2295 C 225.601 -0.404015 2.29978 0
M  V30 2296 C 226.582 -1.04412 1.34284 0
M  V30 2297 O 227.767 -1.0527 1.63192 0
M  V30 2298 C 224.897 -1.5197 3.12286 0
M  V30 2299 C 223.851 -1.00448 4.16046 0
M  V30 2300 C 223.177 -2.21393 4.86712 0
M  V30 2301 C 224.477 -0.0569336 5.22269 0
M  V30 2302 H 226.171 0.245529 2.98392 0
M  V30 2303 H 223.717 0.119525 1.43503 0
M  V30 2304 H 225.67 -2.09715 3.6551 0
M  V30 2305 H 224.394 -2.19716 2.41646 0
M  V30 2306 H 223.053 -0.449421 3.63835 0
M  V30 2307 H 222.701 -2.87699 4.12599 0
M  V30 2308 H 222.401 -1.87571 5.56858 0
M  V30 2309 H 223.925 -2.7974 5.4275 0
M  V30 2310 H 225.339 -0.54325 5.7072 0
M  V30 2311 H 223.736 0.192594 5.99791 0
M  V30 2312 H 224.806 0.887663 4.76706 0
M  V30 2313 N 226.149 -1.5696 0.141893 0
M  V30 2314 C 227.395 -1.97034 -0.504884 0
M  V30 2315 C 227.75 -1.02518 -1.62812 0
M  V30 2316 O 227.043 -0.0592943 -1.91508 0
M  V30 2317 C 227.237 -3.41242 -1.06249 0
M  V30 2318 C 227.066 -4.497 0.00519653 0
M  V30 2319 C 225.836 -5.03338 0.444873 0
M  V30 2320 C 228.034 -5.08122 0.794767 0
M  V30 2321 N 226.016 -5.95395 1.49593 0
M  V30 2322 C 227.387 -5.96339 1.69645 0
M  V30 2323 C 229.442 -4.9071 0.843122 0
M  V30 2324 C 228.145 -6.69009 2.64233 0
M  V30 2325 C 230.171 -5.64077 1.77681 0
M  V30 2326 C 229.533 -6.51999 2.66603 0
M  V30 2327 H 225.632 -0.766745 -0.153707 0
M  V30 2328 H 228.216 -1.93273 0.235313 0
M  V30 2329 H 226.387 -3.45606 -1.77231 0
M  V30 2330 H 228.119 -3.68389 -1.67546 0
M  V30 2331 H 224.874 -4.73576 0.0480959 0
M  V30 2332 H 225.298 -6.46128 2.02107 0
M  V30 2333 H 229.94 -4.22459 0.169732 0
M  V30 2334 H 227.658 -7.36492 3.32575 0
M  V30 2335 H 231.244 -5.52602 1.81996 0
M  V30 2336 H 230.124 -7.07775 3.37675 0
M  V30 2337 N 227.627 0.131896 -1.57047 0
M  V30 2338 C 228.874 0.841932 -1.84168 0
M  V30 2339 C 229.202 1.8048 -0.725066 0
M  V30 2340 O 228.457 1.93618 0.284692 0
M  V30 2341 C 228.756 1.63703 -3.17704 0
M  V30 2342 C 228.422 0.81961 -4.43388 0
M  V30 2343 C 227.084 0.594148 -4.77518 0
M  V30 2344 C 229.436 0.248977 -5.20605 0
M  V30 2345 C 226.764 -0.212409 -5.86315 0
M  V30 2346 C 229.116 -0.544701 -6.30251 0
M  V30 2347 C 227.78 -0.780599 -6.6292 0
M  V30 2348 H 227.05 0.308085 -0.673917 0
M  V30 2349 H 229.697 0.104867 -1.91213 0
M  V30 2350 H 228.002 2.44464 -3.06177 0
M  V30 2351 H 229.699 2.19015 -3.35907 0
M  V30 2352 H 226.289 1.00542 -4.16641 0
M  V30 2353 H 230.473 0.410408 -4.946 0
M  V30 2354 H 225.729 -0.404524 -6.1006 0
M  V30 2355 H 229.903 -0.993922 -6.89271 0
M  V30 2356 H 227.53 -1.40742 -7.47058 0
M  V30 2357 N 229.106 1.52395 0.401703 0
M  V30 2358 C 230.016 1.7917 1.51444 0
M  V30 2359 C 231.032 0.677691 1.6026 0
M  V30 2360 O 232.208 0.963909 1.76835 0
M  V30 2361 C 229.273 1.94347 2.87107 0
M  V30 2362 C 228.334 3.18257 2.88116 0
M  V30 2363 C 227.567 3.32701 4.17308 0
M  V30 2364 O 227.79 2.52238 5.11598 0
M  V30 2365 O 226.724 4.25891 4.25324 0
M  V30 2366 H 230.55 2.73633 1.31752 0
M  V30 2367 H 228.135 1.3733 0.588296 0
M  V30 2368 H 230.017 2.06109 3.67555 0
M  V30 2369 H 228.692 1.03073 3.06851 0
M  V30 2370 H 227.599 3.11947 2.06494 0
M  V30 2371 H 228.932 4.09336 2.73322 0
M  V30 2372 N 230.584 -0.659388 1.43143 0
M  V30 2373 C 231.494 -1.80167 1.50256 0
M  V30 2374 C 232.51 -1.69571 0.390106 0
M  V30 2375 O 233.686 -1.90849 0.643319 0
M  V30 2376 C 230.751 -3.16409 1.41725 0
M  V30 2377 C 229.812 -3.38848 2.63591 0
M  V30 2378 C 229.045 -4.68591 2.55458 0
M  V30 2379 O 229.268 -5.47532 1.59891 0
M  V30 2380 O 228.202 -4.92614 3.45854 0
M  V30 2381 H 232.028 -1.77121 2.46702 0
M  V30 2382 H 229.613 -0.817092 1.25076 0
M  V30 2383 H 231.495 -3.9768 1.39387 0
M  V30 2384 H 230.17 -3.20059 0.484118 0
M  V30 2385 H 229.077 -2.57366 2.71502 0
M  V30 2386 H 230.41 -3.4004 3.55856 0
M  V30 2387 N 232.062 -1.29571 -0.897171 0
M  V30 2388 C 232.972 -1.16808 -2.03453 0
M  V30 2389 C 233.988 -0.0907471 -1.73763 0
M  V30 2390 O 235.164 -0.303312 -1.99103 0
M  V30 2391 C 232.229 -0.848264 -3.36163 0
M  V30 2392 C 231.29 -2.0097 -3.79354 0
M  V30 2393 C 230.523 -1.70505 -5.05731 0
M  V30 2394 O 230.746 -0.62718 -5.66941 0
M  V30 2395 O 229.68 -2.5538 -5.45036 0
M  V30 2396 H 233.506 -2.12325 -2.17144 0
M  V30 2397 H 231.091 -1.09047 -1.02123 0
M  V30 2398 H 232.973 -0.684581 -4.15802 0
M  V30 2399 H 231.648 0.0771071 -3.23608 0
M  V30 2400 H 230.555 -2.22863 -3.00471 0
M  V30 2401 H 231.888 -2.91636 -3.96496 0
M  V30 2402 N 233.54 1.10788 -1.12088 0
M  V30 2403 C 234.503 2.15207 -0.788577 0
M  V30 2404 C 235.503 1.59609 0.195317 0
M  V30 2405 O 236.693 1.74174 -0.0300193 0
M  V30 2406 C 233.825 3.4047 -0.171174 0
M  V30 2407 H 235.018 2.46116 -1.71368 0
M  V30 2408 H 232.571 1.26089 -0.923652 0
M  V30 2409 H 233.306 3.15176 0.763832 0
M  V30 2410 H 233.091 3.82109 -0.879514 0
M  V30 2411 H 234.581 4.17576 0.04496 0
M  V30 2412 N 235.018 0.912232 1.28515 0
M  V30 2413 C 235.948 0.416403 2.29757 0
M  V30 2414 C 236.929 -0.515194 1.6211 0
M  V30 2415 O 238.114 -0.423253 1.89532 0
M  V30 2416 C 235.244 -0.34572 3.45575 0
M  V30 2417 C 234.198 0.496599 4.25109 0
M  V30 2418 C 233.524 -0.393771 5.33248 0
M  V30 2419 C 234.824 1.75307 4.92001 0
M  V30 2420 H 236.518 1.26249 2.7148 0
M  V30 2421 H 234.064 0.608515 1.30511 0
M  V30 2422 H 236.017 -0.703422 4.15488 0
M  V30 2423 H 234.741 -1.2257 3.02728 0
M  V30 2424 H 233.4 0.8368 3.56922 0
M  V30 2425 H 233.048 -1.27225 4.86644 0
M  V30 2426 H 232.748 0.166209 5.87365 0
M  V30 2427 H 234.272 -0.747389 6.06009 0
M  V30 2428 H 235.686 1.46437 5.54283 0
M  V30 2429 H 234.083 2.25534 5.56106 0
M  V30 2430 H 235.153 2.48176 4.16577 0
M  V30 2431 N 236.496 -1.42363 0.676048 0
M  V30 2432 C 237.742 -2.0182 0.199125 0
M  V30 2433 C 238.075 -1.53339 -1.19168 0
M  V30 2434 O 237.35 -0.736124 -1.80032 0
M  V30 2435 C 237.633 -3.59331 0.235144 0
M  V30 2436 C 237.486 -4.17989 1.66149 0
M  V30 2437 C 238.805 -4.3813 -0.41595 0
M  V30 2438 H 235.924 -0.733293 0.0738311 0
M  V30 2439 H 238.566 -1.69368 0.86107 0
M  V30 2440 H 236.716 -3.87109 -0.328487 0
M  V30 2441 H 238.388 -4.0116 2.27747 0
M  V30 2442 H 236.631 -3.7377 2.20178 0
M  V30 2443 H 237.302 -5.27126 1.63837 0
M  V30 2444 H 239.778 -4.16051 0.0638529 0
M  V30 2445 H 238.654 -5.47717 -0.360115 0
M  V30 2446 H 238.915 -4.16101 -1.49373 0
M  V30 2447 N 237.974 -0.419461 -1.51915 0
M  V30 2448 C 239.214 0.152336 -2.03832 0
M  V30 2449 C 239.578 1.41501 -1.29775 0
M  V30 2450 O 240.779 2.06591 -1.7197 0
M  V30 2451 C 239.05 0.383812 -3.55333 0
M  V30 2452 S 240.609 0.921577 -4.29013 0
M  V30 2453 H 237.427 0.0402193 -0.709862 0
M  V30 2454 H 240.029 -0.574758 -1.8686 0
M  V30 2455 H 238.733 -0.541794 -4.06808 0
M  V30 2456 H 238.264 1.13849 -3.76566 0
M  V30 2457 H 240.279 2.20108 -4.4471 0
M  V30 2458 N 239.452 1.56882 -0.150215 0
M  V30 2459 C 240.384 2.14057 0.819286 0
M  V30 2460 C 241.397 1.09082 1.20851 0
M  V30 2461 O 242.586 1.36347 1.15203 0
M  V30 2462 C 239.686 2.65102 2.11127 0
M  V30 2463 C 238.859 3.94511 1.88891 0
M  V30 2464 C 237.918 4.30834 3.02107 0
M  V30 2465 O 236.944 4.99099 2.73659 0
M  V30 2466 N 238.146 3.90676 4.29363 0
M  V30 2467 H 240.911 2.97871 0.330618 0
M  V30 2468 H 238.472 1.61866 0.0332538 0
M  V30 2469 H 240.464 2.86411 2.85921 0
M  V30 2470 H 239.034 1.85994 2.51247 0
M  V30 2471 H 238.254 3.81795 0.981152 0
M  V30 2472 H 239.542 4.7907 1.71376 0
M  V30 2473 H 238.94 3.35677 4.55343 0
M  V30 2474 H 237.497 4.1703 5.00928 0
M  V30 2475 N 240.93 -0.123565 1.57115 0
M  V30 2476 C 242.155 -0.850398 1.89164 0
M  V30 2477 C 242.58 -1.7286 0.741688 0
M  V30 2478 O 241.938 -1.78665 -0.307958 0
M  V30 2479 C 241.986 -1.66353 3.19936 0
M  V30 2480 O 241.09 -2.77004 3.0552 0
M  V30 2481 H 240.431 -0.235454 0.620852 0
M  V30 2482 H 242.961 -0.107335 2.04318 0
M  V30 2483 H 242.971 -2.05372 3.52543 0
M  V30 2484 H 241.646 -1.01881 4.03228 0
M  V30 2485 H 240.223 -2.41221 2.84371 0
M  V30 2486 N 242.408 -1.52605 -0.393616 0
M  V30 2487 C 243.338 -1.80022 -1.48709 0
M  V30 2488 C 244.319 -0.651995 -1.57108 0
M  V30 2489 O 245.504 -0.89913 -1.72132 0
M  V30 2490 C 242.634 -1.96492 -2.86371 0
M  V30 2491 C 241.588 -3.12161 -2.92813 0
M  V30 2492 C 240.914 -3.13877 -4.3288 0
M  V30 2493 C 242.214 -4.51322 -2.6288 0
M  V30 2494 H 243.908 -2.71589 -1.26015 0
M  V30 2495 H 241.454 -1.30684 -0.604778 0
M  V30 2496 H 243.407 -2.14255 -3.62867 0
M  V30 2497 H 242.131 -1.01611 -3.10391 0
M  V30 2498 H 240.79 -2.94173 -2.18764 0
M  V30 2499 H 240.438 -2.16687 -4.53933 0
M  V30 2500 H 240.138 -3.91576 -4.38112 0
M  V30 2501 H 241.662 -3.33789 -5.1129 0
M  V30 2502 H 243.076 -4.69435 -3.29096 0
M  V30 2503 H 241.473 -5.31053 -2.79468 0
M  V30 2504 H 242.543 -4.58353 -1.58242 0
M  V30 2505 N 243.887 0.651787 -1.4349 0
M  V30 2506 C 244.82 1.77668 -1.43211 0
M  V30 2507 C 245.798 1.59931 -0.29338 0
M  V30 2508 O 246.982 1.82095 -0.487191 0
M  V30 2509 C 244.109 3.14986 -1.24505 0
M  V30 2510 C 243.155 3.51421 -2.41673 0
M  V30 2511 S 243.988 3.51234 -4.04222 0
M  V30 2512 C 245.144 4.91206 -3.87902 0
M  V30 2513 H 245.377 1.77635 -2.38397 0
M  V30 2514 H 242.91 0.824558 -1.30539 0
M  V30 2515 H 244.868 3.94237 -1.144 0
M  V30 2516 H 243.529 3.1258 -0.308651 0
M  V30 2517 H 242.722 4.51291 -2.24393 0
M  V30 2518 H 242.324 2.79585 -2.48411 0
M  V30 2519 H 244.616 5.79902 -3.50315 0
M  V30 2520 H 245.559 5.13537 -4.8753 0
M  V30 2521 H 245.967 4.64808 -3.20334 0
M  V30 2522 N 245.365 1.30045 0.890287 0
M  V30 2523 C 246.781 1.08261 1.17268 0
M  V30 2524 C 246.981 -0.160063 2.00863 0
M  V30 2525 O 246.037 -0.855181 2.37577 0
M  V30 2526 C 247.35 2.34323 1.8845 0
M  V30 2527 C 248.898 2.39735 2.01237 0
M  V30 2528 C 249.373 3.65625 2.7583 0
M  V30 2529 N 250.864 3.66402 2.83379 0
M  V30 2530 C 251.599 4.60498 3.41657 0
M  V30 2531 N 251.095 5.64933 4.01026 0
M  V30 2532 N 252.888 4.48051 3.39421 0
M  V30 2533 H 245.039 2.09777 0.332762 0
M  V30 2534 H 247.302 0.92446 0.209948 0
M  V30 2535 H 247.008 3.2498 1.34465 0
M  V30 2536 H 246.882 2.4256 2.88867 0
M  V30 2537 H 249.269 1.4956 2.54393 0
M  V30 2538 H 249.35 2.35476 0.999232 0
M  V30 2539 H 248.994 4.56156 2.23347 0
M  V30 2540 H 248.924 3.67144 3.77509 0
M  V30 2541 H 251.415 2.90896 2.41222 0
M  V30 2542 H 251.728 6.32841 4.43545 0
M  V30 2543 H 250.073 5.68732 3.99461 0
M  V30 2544 H 253.264 3.65649 2.92264 0
M  V30 2545 H 253.437 5.21565 3.84544 0
M  V30 2546 N 246.843 -1.10192 1.12674 0
M  V30 2547 C 247.806 -2.14786 0.799979 0
M  V30 2548 C 248.806 -1.59711 -0.18685 0
M  V30 2549 O 249.996 -1.74156 0.0392558 0
M  V30 2550 C 247.128 -3.40374 0.189228 0
M  V30 2551 H 248.321 -2.45203 1.72671 0
M  V30 2552 H 245.874 -1.25597 0.930326 0
M  V30 2553 H 246.609 -3.15577 -0.747107 0
M  V30 2554 H 246.394 -3.81637 0.899766 0
M  V30 2555 H 247.884 -4.17594 -0.0228143 0
M  V30 2556 N 248.321 -0.919034 -1.28029 0
M  V30 2557 C 249.598 -0.473668 -1.89778 0
M  V30 2558 C 249.978 1.04783 -1.83259 0
M  V30 2559 O 249.326 1.8982 -1.27202 0
M  V30 2560 C 249.536 -1.00998 -3.34066 0
M  V30 2561 C 250.884 -1.06525 -4.1102 0
M  V30 2562 O 251.908 -0.958996 -3.43048 0
M  V30 2563 O 250.767 -1.22776 -5.3253 0
M  V30 2564 H 247.861 -0.15098 -0.813101 0
M  V30 2565 H 250.407 -1.01016 -1.36359 0
M  V30 2566 H 249.179 -2.05392 -3.33061 0
M  V30 2567 H 248.802 -0.454626 -3.94992 0
M  V30 2568 N 249.799 1.42003 -0.683588 0
M  V30 2569 C 251.027 2.05746 -0.218182 0
M  V30 2570 C 251.442 1.51396 1.12804 0
M  V30 2571 O 250.799 0.657303 1.70252 0
M  V30 2572 C 250.85 3.61171 -0.154131 0
M  V30 2573 O 250.571 4.13508 -1.44716 0
M  V30 2574 C 252.072 4.42042 0.333713 0
M  V30 2575 H 249.292 0.662888 -0.10402 0
M  V30 2576 H 251.836 1.81987 -0.9328 0
M  V30 2577 H 249.991 3.84012 0.511231 0
M  V30 2578 H 250.405 5.07453 -1.32632 0
M  V30 2579 H 251.879 5.51028 0.327423 0
M  V30 2580 H 252.356 4.17269 1.37053 0
M  V30 2581 H 252.962 4.24239 -0.300222 0
M  V30 2582 N 251.277 0.427512 1.51691 0
M  V30 2583 C 252.507 -0.140986 2.06118 0
M  V30 2584 C 252.915 -1.37854 1.29588 0
M  V30 2585 O 252.258 -1.80411 0.346036 0
M  V30 2586 C 252.32 -0.538276 3.55447 0
M  V30 2587 C 251.984 0.591095 4.53161 0
M  V30 2588 C 252.981 1.46027 4.98971 0
M  V30 2589 C 250.666 0.769028 4.96378 0
M  V30 2590 C 252.66 2.49216 5.8666 0
M  V30 2591 C 250.347 1.80421 5.83859 0
M  V30 2592 C 251.345 2.66417 6.28897 0
M  V30 2593 O 251.033 3.68159 7.14643 0
M  V30 2594 H 250.765 -0.0157455 0.675817 0
M  V30 2595 H 253.319 0.602495 1.96365 0
M  V30 2596 H 251.549 -1.33432 3.6295 0
M  V30 2597 H 253.238 -1.0368 3.92435 0
M  V30 2598 H 254.004 1.33429 4.66285 0
M  V30 2599 H 249.883 0.109273 4.6087 0
M  V30 2600 H 253.427 3.16372 6.21735 0
M  V30 2601 H 249.324 1.93042 6.15959 0
M  V30 2602 H 250.092 3.64622 7.32798 0
M  V30 2603 N 252.755 -1.56801 0.158532 0
M  V30 2604 C 253.983 -2.00859 -0.496303 0
M  V30 2605 C 254.398 -1.03871 -1.57659 0
M  V30 2606 O 253.755 -0.0375165 -1.82461 0
M  V30 2607 C 253.806 -3.4479 -1.08638 0
M  V30 2608 O 253.527 -4.38072 -0.0492322 0
M  V30 2609 C 255.028 -4.04185 -1.8207 0
M  V30 2610 H 252.248 -0.65864 -0.128199 0
M  V30 2611 H 254.792 -2.02885 0.256506 0
M  V30 2612 H 252.947 -3.43579 -1.78975 0
M  V30 2613 H 253.361 -5.2227 -0.483102 0
M  V30 2614 H 254.835 -5.06857 -2.18633 0
M  V30 2615 H 255.312 -3.45549 -2.71095 0
M  V30 2616 H 255.918 -4.0906 -1.16405 0
M  V30 2617 N 254.233 0.115231 -1.57178 0
M  V30 2618 C 255.644 0.67197 -1.74188 0
M  V30 2619 C 255.995 1.80125 -0.777777 0
M  V30 2620 O 255.12 2.16346 0.0484376 0
M  V30 2621 C 255.715 1.22573 -3.1585 0
M  V30 2622 C 254.274 1.72872 -3.34353 0
M  V30 2623 C 253.421 0.629972 -2.70049 0
M  V30 2624 H 256.372 -0.110712 -1.58313 0
M  V30 2625 H 256.393 2.09535 -3.17609 0
M  V30 2626 H 255.905 0.403598 -3.85996 0
M  V30 2627 H 254.006 2.5755 -2.69256 0
M  V30 2628 H 254.119 1.83557 -4.42542 0
M  V30 2629 H 252.483 1.0645 -2.31388 0
M  V30 2630 H 253.266 -0.181241 -3.42821 0
M  V30 2631 N 255.711 1.52812 0.385517 0
M  V30 2632 C 256.957 1.68275 1.13188 0
M  V30 2633 C 257.29 0.423179 1.89533 0
M  V30 2634 O 256.565 -0.579113 1.85679 0
M  V30 2635 C 256.848 2.92001 2.1073 0
M  V30 2636 C 256.701 4.28067 1.38125 0
M  V30 2637 C 258.02 3.11283 3.11113 0
M  V30 2638 H 255.139 0.612352 0.410115 0
M  V30 2639 H 257.781 1.85415 0.414869 0
M  V30 2640 H 255.931 2.77519 2.71874 0
M  V30 2641 H 257.603 4.54324 0.799187 0
M  V30 2642 H 255.846 4.28388 0.683092 0
M  V30 2643 H 256.517 5.10733 2.09417 0
M  V30 2644 H 258.993 3.2482 2.6006 0
M  V30 2645 H 257.869 3.99325 3.76605 0
M  V30 2646 H 258.13 2.25656 3.80173 0
M  V30 2647 N 257.189 -0.644168 1.43834 0
M  V30 2648 C 258.136 -1.75671 1.49694 0
M  V30 2649 C 259.106 -1.6246 0.345809 0
M  V30 2650 O 260.291 -1.82573 0.554234 0
M  V30 2651 C 257.431 -3.13867 1.43463 0
M  V30 2652 C 256.544 -3.38147 2.6885 0
M  V30 2653 C 255.679 -4.66241 2.54544 0
M  V30 2654 C 254.718 -4.83657 3.75157 0
M  V30 2655 N 253.855 -6.03016 3.59605 0
M  V30 2656 H 258.695 -1.69998 2.44754 0
M  V30 2657 H 256.232 -0.829458 1.21484 0
M  V30 2658 H 258.19 -3.9377 1.37843 0
M  V30 2659 H 256.82 -3.18588 0.519783 0
M  V30 2660 H 255.872 -2.52276 2.84712 0
M  V30 2661 H 257.184 -3.46899 3.58417 0
M  V30 2662 H 256.338 -5.54285 2.46683 0
M  V30 2663 H 255.077 -4.59826 1.62516 0
M  V30 2664 H 254.082 -3.94046 3.83416 0
M  V30 2665 H 255.307 -4.91896 4.68204 0
M  V30 2666 H 253.253 -5.97715 2.7032 0
M  V30 2667 H 253.17 -6.12766 4.42779 0
M  V30 2668 H 254.438 -6.93657 3.55613 0
M  V30 2669 N 258.668 -1.30515 -0.883378 0
M  V30 2670 C 259.616 -1.16941 -2.01066 0
M  V30 2671 C 260.61 -0.0809148 -1.69207 0
M  V30 2672 O 261.816 -0.241877 -1.78367 0
M  V30 2673 H 258.191 -0.361705 -0.659298 0
M  V30 2674 H 260.162 -2.12344 -2.09649 0
M  V30 2675 C 258.911 -0.879694 -3.36388 0
M  V30 2676 H 258.234 -1.70936 -3.61415 0
M  V30 2677 H 259.674 -0.82483 -4.159 0
M  V30 2678 C 258.133 0.417409 -3.34304 0
M  V30 2679 O 258.663 1.43843 -3.75063 0
M  V30 2680 N 256.869 0.429141 -2.87414 0
M  V30 2681 H 256.416 -0.402222 -2.5444 0
M  V30 2682 H 256.374 1.29696 -2.86403 0
M  V30 2683 N 260.146 1.09593 -1.13257 0
M  V30 2684 C 261.109 2.14359 -0.811358 0
M  V30 2685 C 262.109 1.59808 0.178377 0
M  V30 2686 O 263.299 1.74132 -0.0484911 0
M  V30 2687 C 260.431 3.40269 -0.207276 0
M  V30 2688 H 261.624 2.44284 -1.73969 0
M  V30 2689 H 259.177 1.25102 -0.936973 0
M  V30 2690 H 259.912 3.15969 0.73036 0
M  V30 2691 H 259.697 3.81154 -0.919992 0
M  V30 2692 H 261.187 4.176 0.000667944 0
M  V30 2693 N 261.624 0.925811 1.2754 0
M  V30 2694 C 262.556 0.380753 2.26015 0
M  V30 2695 C 263.569 -0.487485 1.5533 0
M  V30 2696 O 264.758 -0.300413 1.75954 0
M  V30 2697 C 261.858 -0.473259 3.35579 0
M  V30 2698 C 261.031 0.375249 4.35787 0
M  V30 2699 C 260.09 -0.415809 5.24555 0
M  V30 2700 O 259.116 0.175834 5.68928 0
M  V30 2701 N 260.318 -1.71607 5.54555 0
M  V30 2702 H 263.083 1.22725 2.73421 0
M  V30 2703 H 260.644 0.793037 1.41147 0
M  V30 2704 H 262.636 -1.00949 3.91907 0
M  V30 2705 H 261.206 -1.2205 2.87789 0
M  V30 2706 H 260.426 1.09279 3.7875 0
M  V30 2707 H 261.714 0.955399 4.99749 0
M  V30 2708 H 261.112 -2.2191 5.20358 0
M  V30 2709 H 259.669 -2.19887 6.1359 0
M  V30 2710 N 263.102 -1.41638 0.69111 0
M  V30 2711 C 264.518 -1.55435 0.362224 0
M  V30 2712 C 264.718 -1.66754 -1.13117 0
M  V30 2713 O 263.774 -1.64348 -1.91692 0
M  V30 2714 C 265.087 -2.79588 1.10684 0
M  V30 2715 C 266.635 -2.9338 1.09075 0
M  V30 2716 C 267.11 -4.20414 1.81703 0
M  V30 2717 N 268.601 -4.27362 1.7865 0
M  V30 2718 C 269.336 -5.24507 2.31689 0
M  V30 2719 N 268.832 -6.27708 2.93179 0
M  V30 2720 N 270.625 -5.16416 2.2197 0
M  V30 2721 H 262.776 -1.32536 1.65976 0
M  V30 2722 H 265.039 -0.639115 0.700168 0
M  V30 2723 H 264.745 -2.77419 2.16175 0
M  V30 2724 H 264.619 -3.70973 0.682545 0
M  V30 2725 H 267.006 -2.95067 0.0441238 0
M  V30 2726 H 267.087 -2.0318 1.55407 0
M  V30 2727 H 266.731 -4.19488 2.86343 0
M  V30 2728 H 266.661 -5.09578 1.32808 0
M  V30 2729 H 269.152 -3.53415 1.33815 0
M  V30 2730 H 269.465 -6.98217 3.31229 0
M  V30 2731 H 267.81 -6.28223 2.97255 0
M  V30 2732 H 271.001 -4.34716 1.73607 0
M  V30 2733 H 271.174 -5.91958 2.63609 0
M  V30 2734 N 264.58 -0.43555 -1.51462 0
M  V30 2735 C 265.51 0.367376 -2.30592 0
M  V30 2736 C 266.491 1.02263 -1.35928 0
M  V30 2737 O 267.676 1.02661 -1.64847 0
M  V30 2738 C 264.806 1.46983 -3.14664 0
M  V30 2739 C 263.76 0.938161 -4.17591 0
M  V30 2740 C 263.086 2.13622 -4.90173 0
M  V30 2741 C 264.386 -0.0261621 -5.22293 0
M  V30 2742 H 266.08 -0.292969 -2.97963 0
M  V30 2743 H 263.626 -0.14234 -1.43295 0
M  V30 2744 H 265.579 2.03873 -3.688 0
M  V30 2745 H 264.303 2.15843 -2.4511 0
M  V30 2746 H 262.962 0.391481 -3.64504 0
M  V30 2747 H 262.61 2.81098 -4.17124 0
M  V30 2748 H 262.31 1.78688 -5.59772 0
M  V30 2749 H 263.834 2.7107 -5.47132 0
M  V30 2750 H 265.248 0.452384 -5.71512 0
M  V30 2751 H 263.645 -0.287992 -5.99409 0
M  V30 2752 H 264.715 -0.963391 -4.75233 0
M  V30 2753 N 266.058 1.56714 -0.166846 0
M  V30 2754 C 267.005 2.17746 0.765193 0
M  V30 2755 C 267.975 1.11614 1.23011 0
M  V30 2756 O 269.16 1.39745 1.29908 0
M  V30 2757 C 266.3 2.81882 1.9909 0
M  V30 2758 C 265.413 4.02462 1.56997 0
M  V30 2759 C 264.548 4.54537 2.749 0
M  V30 2760 C 263.587 5.67538 2.29275 0
M  V30 2761 N 262.724 6.14142 3.40255 0
M  V30 2762 H 267.564 2.97048 0.237952 0
M  V30 2763 H 265.101 1.4672 0.105725 0
M  V30 2764 H 267.059 3.17221 2.70974 0
M  V30 2765 H 265.689 2.05191 2.49192 0
M  V30 2766 H 264.741 3.72973 0.748037 0
M  V30 2767 H 266.053 4.84273 1.19503 0
M  V30 2768 H 265.207 4.92035 3.54946 0
M  V30 2769 H 263.946 3.71774 3.1565 0
M  V30 2770 H 262.951 5.29597 1.47674 0
M  V30 2771 H 264.176 6.52099 1.89588 0
M  V30 2772 H 262.122 5.3431 3.8059 0
M  V30 2773 H 262.039 6.9093 3.06841 0
M  V30 2774 H 263.307 6.56289 4.206 0
M  V30 2775 N 267.536 -0.106894 1.57237 0
M  V30 2776 C 268.947 -0.662723 1.74542 0
M  V30 2777 C 269.298 -1.7971 0.787319 0
M  V30 2778 O 268.423 -2.16368 -0.0369636 0
M  V30 2779 C 269.018 -1.20896 3.16496 0
M  V30 2780 C 267.577 -1.71096 3.35266 0
M  V30 2781 C 266.724 -0.615642 2.7038 0
M  V30 2782 H 269.675 0.119106 1.58252 0
M  V30 2783 H 269.696 -2.07847 3.18716 0
M  V30 2784 H 269.208 -0.383122 3.86204 0
M  V30 2785 H 267.309 -2.56119 2.70618 0
M  V30 2786 H 267.422 -1.81208 4.43509 0
M  V30 2787 H 265.786 -1.05222 2.31949 0
M  V30 2788 H 266.569 0.199419 3.4272 0
M  V30 2789 N 269.014 -1.53014 -0.377408 0
M  V30 2790 C 270.262 -1.6829 -1.11906 0
M  V30 2791 C 270.583 -0.431206 -1.90173 0
M  V30 2792 O 269.853 0.554595 -1.87886 0
M  V30 2793 H 268.433 -0.620371 -0.416112 0
M  V30 2794 H 271.095 -1.90167 -0.426893 0
M  V30 2795 H 270.191 -2.53862 -1.8155 0
M  V30 2796 N 270.492 0.636531 -1.44174 0
M  V30 2797 C 271.455 1.73063 -1.50273 0
M  V30 2798 C 272.455 1.56113 -0.385397 0
M  V30 2799 O 273.645 1.61707 -0.64781 0
M  V30 2800 C 270.777 3.12096 -1.37145 0
M  V30 2801 H 271.97 1.69031 -2.47727 0
M  V30 2802 H 269.523 0.849706 -1.31186 0
M  V30 2803 H 270.258 3.21728 -0.407636 0
M  V30 2804 H 270.043 3.25805 -2.18159 0
M  V30 2805 H 271.533 3.91846 -1.44382 0
M  V30 2806 N 271.97 1.30982 0.876444 0
M  V30 2807 C 273.216 1.20474 1.63138 0
M  V30 2808 C 273.549 -0.238096 1.92735 0
M  V30 2809 O 272.824 -1.1692 1.55435 0
M  V30 2810 C 273.107 2.04244 2.96574 0
M  V30 2811 C 272.96 3.56793 2.73896 0
M  V30 2812 C 274.279 1.88684 3.97601 0
M  V30 2813 H 271.398 0.439001 0.591985 0
M  V30 2814 H 274.04 1.60704 1.01361 0
M  V30 2815 H 272.19 1.70063 3.493 0
M  V30 2816 H 273.862 4.01077 2.27892 0
M  V30 2817 H 272.105 3.80548 2.08245 0
M  V30 2818 H 272.776 4.10706 3.68815 0
M  V30 2819 H 275.252 2.18584 3.54062 0
M  V30 2820 H 274.128 2.4961 4.88862 0
M  V30 2821 H 274.389 0.848343 4.33884 0
M  V30 2822 N 273.449 -1.08991 1.13837 0
M  V30 2823 C 274.399 -2.1393 0.788535 0
M  V30 2824 C 275.383 -1.59396 -0.219516 0
M  V30 2825 O 276.575 -1.76985 -0.0227557 0
M  V30 2826 C 273.704 -3.42305 0.261147 0
M  V30 2827 C 272.79 -4.03736 1.29837 0
M  V30 2828 N 273.181 -4.39659 2.50067 0
M  V30 2829 C 271.479 -4.30993 1.1472 0
M  V30 2830 C 272.18 -4.88113 3.16419 0
M  V30 2831 N 271.156 -4.85846 2.43832 0
M  V30 2832 H 274.958 -2.39516 1.70322 0
M  V30 2833 H 272.472 -1.26263 1.02134 0
M  V30 2834 H 274.469 -4.16899 -0.0077405 0
M  V30 2835 H 273.129 -3.18172 -0.647805 0
M  V30 2836 H 274.14 -4.30878 2.8734 0
M  V30 2837 H 270.817 -4.16444 0.296773 0
M  V30 2838 H 272.207 -5.25336 4.18894 0
M  V30 2839 N 274.927 -0.932562 -1.27047 0
M  V30 2840 C 276.173 -0.576412 -1.94436 0
M  V30 2841 C 276.506 0.880891 -1.73072 0
M  V30 2842 O 275.781 1.62905 -1.06264 0
M  V30 2843 C 276.064 -0.909031 -3.48437 0
M  V30 2844 C 275.917 -2.42044 -3.79123 0
M  V30 2845 C 277.236 -0.418341 -4.38107 0
M  V30 2846 H 274.355 -0.210888 -0.706184 0
M  V30 2847 H 276.997 -1.16522 -1.50075 0
M  V30 2848 H 275.147 -0.407947 -3.86352 0
M  V30 2849 H 276.819 -2.99359 -3.50973 0
M  V30 2850 H 275.062 -2.86758 -3.25503 0
M  V30 2851 H 275.733 -2.6037 -4.86736 0
M  V30 2852 H 278.209 -0.847856 -4.0737 0
M  V30 2853 H 277.085 -0.679981 -5.44672 0
M  V30 2854 H 277.346 0.681642 -4.36814 0
M  V30 2855 N 276.405 1.4127 -0.698611 0
M  V30 2856 C 277.335 2.33447 -0.049629 0
M  V30 2857 C 278.316 1.51982 0.763898 0
M  V30 2858 O 279.501 1.80509 0.716257 0
M  V30 2859 C 276.631 3.35828 0.885267 0
M  V30 2860 C 275.585 4.27627 0.178613 0
M  V30 2861 C 274.911 5.20406 1.22807 0
M  V30 2862 C 276.211 5.13459 -0.956933 0
M  V30 2863 H 277.905 2.87966 -0.81951 0
M  V30 2864 H 275.451 1.38461 -0.395538 0
M  V30 2865 H 277.404 3.9924 1.34854 0
M  V30 2866 H 276.128 2.79666 1.68685 0
M  V30 2867 H 274.787 3.65643 -0.26466 0
M  V30 2868 H 274.435 4.60558 2.02226 0
M  V30 2869 H 274.135 5.82661 0.760239 0
M  V30 2870 H 275.659 5.86695 1.69179 0
M  V30 2871 H 277.073 5.70421 -0.573805 0
M  V30 2872 H 275.47 5.8467 -1.35205 0
M  V30 2873 H 276.54 4.50443 -1.79524 0
M  V30 2874 N 277.883 0.443576 1.51229 0
M  V30 2875 C 279.111 -0.11929 2.06556 0
M  V30 2876 C 279.526 -1.35921 1.31038 0
M  V30 2877 O 278.883 -1.78675 0.371704 0
M  V30 2878 C 278.934 -0.435228 3.5887 0
M  V30 2879 O 278.655 0.755486 4.31537 0
M  V30 2880 C 280.156 -1.04808 4.30732 0
M  V30 2881 H 277.376 -0.0051584 0.67098 0
M  V30 2882 H 279.92 0.624453 1.94733 0
M  V30 2883 H 278.075 -1.12887 3.70588 0
M  V30 2884 H 278.489 0.483491 5.22267 0
M  V30 2885 H 279.963 -1.2191 5.3837 0
M  V30 2886 H 280.44 -2.03081 3.89429 0
M  V30 2887 H 281.046 -0.393637 4.23474 0
M  V30 2888 N 279.361 -1.56624 0.175154 0
M  V30 2889 C 280.311 -2.14747 -0.766004 0
M  V30 2890 C 281.295 -1.08275 -1.19018 0
M  V30 2891 O 282.487 -1.34388 -1.15191 0
M  V30 2892 C 279.616 -2.79478 -1.99366 0
M  V30 2893 C 278.702 -3.93114 -1.5913 0
M  V30 2894 N 279.093 -4.97752 -0.89872 0
M  V30 2895 C 277.391 -4.04345 -1.88204 0
M  V30 2896 C 278.092 -5.77473 -0.700012 0
M  V30 2897 N 277.068 -5.29207 -1.24263 0
M  V30 2898 H 280.87 -2.93015 -0.22793 0
M  V30 2899 H 278.384 -1.6238 -0.0253843 0
M  V30 2900 H 280.381 -3.19498 -2.67818 0
M  V30 2901 H 279.041 -2.02692 -2.53665 0
M  V30 2902 H 280.052 -5.14903 -0.556347 0
M  V30 2903 H 276.729 -3.38667 -2.44153 0
M  V30 2904 H 278.119 -6.71728 -0.152047 0
M  V30 2905 N 280.839 0.0985539 -1.57292 0
M  V30 2906 C 282.116 0.834155 -1.76921 0
M  V30 2907 C 282.496 1.97101 -0.755928 0
M  V30 2908 O 281.844 2.27474 0.216245 0
M  V30 2909 C 282.054 1.33194 -3.22584 0
M  V30 2910 C 283.402 1.77611 -3.85668 0
M  V30 2911 O 284.426 1.42825 -3.26312 0
M  V30 2912 O 283.285 2.4192 -4.90038 0
M  V30 2913 H 280.379 0.397628 -0.725135 0
M  V30 2914 H 282.925 0.0807044 -1.69508 0
M  V30 2915 H 281.697 0.517248 -3.87866 0
M  V30 2916 H 281.32 2.1475 -3.34616 0
M  V30 2917 N 282.317 1.53212 0.369288 0
M  V30 2918 C 283.542 1.73423 1.1375 0
M  V30 2919 C 283.967 0.460404 1.82378 0
M  V30 2920 O 283.325 -0.585298 1.71592 0
M  V30 2921 C 283.373 2.89769 2.1463 0
M  V30 2922 O 282.477 2.58119 3.21634 0
M  V30 2923 H 281.818 0.576061 0.330227 0
M  V30 2924 H 284.348 2.00083 0.427547 0
M  V30 2925 H 284.358 3.15829 2.58294 0
M  V30 2926 H 283.033 3.8217 1.64071 0
M  V30 2927 H 281.61 2.42864 2.82969 0
M  V30 2928 N 283.795 -0.628877 1.44509 0
M  V30 2929 C 284.705 -1.7694 1.54044 0
M  V30 2930 C 285.721 -1.68705 0.425987 0
M  V30 2931 O 286.897 -1.89442 0.683656 0
M  V30 2932 C 283.962 -3.13332 1.48405 0
M  V30 2933 C 283.023 -3.33181 2.70719 0
M  V30 2934 C 282.256 -4.63067 2.6534 0
M  V30 2935 O 282.479 -5.44017 1.71469 0
M  V30 2936 O 281.413 -4.85167 3.56226 0
M  V30 2937 H 285.239 -1.71848 2.50403 0
M  V30 2938 H 282.824 -0.790378 1.26781 0
M  V30 2939 H 284.706 -3.94634 1.47791 0
M  V30 2940 H 283.381 -3.1896 0.551898 0
M  V30 2941 H 282.288 -2.51549 2.769 0
M  V30 2942 H 283.621 -3.32416 3.62988 0
M  V30 2943 N 285.273 -1.31445 -0.869486 0
M  V30 2944 C 286.521 -1.20918 -1.61936 0
M  V30 2945 C 286.842 0.232683 -1.93607 0
M  V30 2946 O 286.112 1.15352 -1.58338 0
M  V30 2947 H 284.692 -0.44454 -0.600328 0
M  V30 2948 H 287.354 -1.64776 -1.0409 0
M  V30 2949 H 286.45 -1.78124 -2.56278 0
M  V30 2950 N 286.751 1.08385 -1.14413 0
M  V30 2951 C 287.981 1.8425 -0.934644 0
M  V30 2952 C 288.389 1.81907 0.520234 0
M  V30 2953 O 287.732 1.22126 1.37226 0
M  V30 2954 C 287.794 3.32853 -1.35828 0
M  V30 2955 C 287.458 3.5893 -2.82875 0
M  V30 2956 C 288.455 3.53756 -3.80989 0
M  V30 2957 C 286.14 3.86934 -3.20293 0
M  V30 2958 C 288.134 3.76216 -5.14529 0
M  V30 2959 C 285.821 4.09047 -4.54008 0
M  V30 2960 C 286.819 4.03682 -5.50936 0
M  V30 2961 O 286.507 4.25214 -6.82238 0
M  V30 2962 H 286.239 0.588502 -0.332628 0
M  V30 2963 H 288.793 1.37792 -1.52324 0
M  V30 2964 H 287.023 3.8007 -0.713019 0
M  V30 2965 H 288.712 3.90154 -1.11957 0
M  V30 2966 H 289.478 3.32135 -3.53428 0
M  V30 2967 H 285.357 3.9023 -2.45442 0
M  V30 2968 H 288.901 3.71943 -5.90173 0
M  V30 2969 H 284.798 4.30151 -4.8129 0
M  V30 2970 H 285.566 4.42619 -6.88499 0
M  V30 2971 N 288.23 0.939286 1.26551 0
M  V30 2972 C 289.455 0.602008 1.98471 0
M  V30 2973 C 289.88 -0.815624 1.69497 0
M  V30 2974 O 289.238 -1.54912 0.941905 0
M  V30 2975 C 289.286 0.848407 3.50477 0
M  V30 2976 O 288.39 -0.0804009 4.12322 0
M  V30 2977 H 287.731 0.23049 0.622712 0
M  V30 2978 H 290.261 1.2617 1.61066 0
M  V30 2979 H 290.271 0.768553 4.00696 0
M  V30 2980 H 288.946 1.88171 3.70897 0
M  V30 2981 H 287.523 0.0503508 3.72866 0
M  V30 2982 N 289.708 -1.40897 0.706093 0
M  V30 2983 C 290.955 -2.01054 0.241531 0
M  V30 2984 C 291.283 -1.55956 -1.16223 0
M  V30 2985 O 290.538 -0.766336 -1.80072 0
M  V30 2986 C 290.837 -3.5646 0.259099 0
M  V30 2987 C 290.503 -4.21106 1.61184 0
M  V30 2988 C 289.165 -4.38479 1.98216 0
M  V30 2989 C 291.517 -4.57256 2.50132 0
M  V30 2990 C 288.845 -4.89282 3.2376 0
M  V30 2991 C 291.197 -5.09454 3.7502 0
M  V30 2992 C 289.861 -5.25037 4.12181 0
M  V30 2993 H 289.131 -0.73571 0.0883825 0
M  V30 2994 H 291.778 -1.68645 0.907257 0
M  V30 2995 H 290.083 -3.88721 -0.490189 0
M  V30 2996 H 291.78 -4.00826 -0.11804 0
M  V30 2997 H 288.37 -4.07966 1.31384 0
M  V30 2998 H 292.554 -4.43479 2.228 0
M  V30 2999 H 287.81 -4.99531 3.52532 0
M  V30 3000 H 291.984 -5.36404 4.44121 0
M  V30 3001 H 289.611 -5.64164 5.09532 0
M  V30 3002 N 291.186 -0.45159 -1.50991 0
M  V30 3003 C 292.432 0.110237 -2.025 0
M  V30 3004 C 292.765 1.41109 -1.33424 0
M  V30 3005 O 292.04 1.89135 -0.453659 0
M  V30 3006 C 292.323 0.314271 -3.58726 0
M  V30 3007 C 292.176 -1.00623 -4.38401 0
M  V30 3008 C 293.495 1.07767 -4.26702 0
M  V30 3009 H 290.614 0.0385897 -0.735989 0
M  V30 3010 H 293.256 -0.593374 -1.80497 0
M  V30 3011 H 291.406 0.913601 -3.77605 0
M  V30 3012 H 293.078 -1.64064 -4.31139 0
M  V30 3013 H 291.321 -1.6075 -4.02917 0
M  V30 3014 H 291.992 -0.817341 -5.45915 0
M  V30 3015 H 294.468 0.56986 -4.12179 0
M  V30 3016 H 293.344 1.18921 -5.35863 0
M  V30 3017 H 293.605 2.10939 -3.88532 0
M  V30 3018 N 292.664 1.56529 -0.183458 0
M  V30 3019 C 293.574 2.22144 0.754272 0
M  V30 3020 C 294.59 1.21684 1.24374 0
M  V30 3021 O 295.766 1.54385 1.29333 0
M  V30 3022 C 292.831 2.85884 1.96141 0
M  V30 3023 C 291.892 4.01579 1.51765 0
M  V30 3024 C 291.125 4.6227 2.66725 0
M  V30 3025 O 291.348 4.21865 3.83909 0
M  V30 3026 O 290.282 5.51936 2.40104 0
M  V30 3027 H 294.108 3.02861 0.225527 0
M  V30 3028 H 291.693 1.49331 0.0453032 0
M  V30 3029 H 293.575 3.26253 2.66715 0
M  V30 3030 H 292.25 2.08154 2.47899 0
M  V30 3031 H 291.157 3.65856 0.781049 0
M  V30 3032 H 292.49 4.80938 1.04686 0
M  V30 3033 N 294.142 -0.090211 1.57342 0
M  V30 3034 C 295.367 -0.810082 1.90925 0
M  V30 3035 C 295.792 -1.71248 0.778187 0
M  V30 3036 O 295.15 -1.79278 -0.269991 0
M  V30 3037 C 295.198 -1.59529 3.23393 0
M  V30 3038 O 294.302 -2.70461 3.11327 0
M  V30 3039 H 293.643 -0.222231 0.625707 0
M  V30 3040 H 296.173 -0.0639716 2.045 0
M  V30 3041 H 296.183 -1.97847 3.5682 0
M  V30 3042 H 294.858 -0.933055 4.05299 0
M  V30 3043 H 293.435 -2.35135 2.89423 0
M  V30 3044 N 295.62 -1.53406 -0.361157 0
M  V30 3045 C 297.036 -1.43277 -0.703124 0
M  V30 3046 C 297.236 -0.575384 -1.9311 0
M  V30 3047 O 296.292 -0.0595362 -2.5243 0
M  V30 3048 C 297.605 -2.8653 -0.9122 0
M  V30 3049 C 299.153 -2.96191 -1.01193 0
M  V30 3050 C 299.628 -4.40514 -1.25345 0
M  V30 3051 N 301.119 -4.43962 -1.32105 0
M  V30 3052 C 301.854 -5.52746 -1.5251 0
M  V30 3053 N 301.35 -6.71567 -1.70203 0
M  V30 3054 N 303.143 -5.40331 -1.54916 0
M  V30 3055 H 295.294 -2.07654 0.446475 0
M  V30 3056 H 297.557 -0.937944 0.137715 0
M  V30 3057 H 297.263 -3.51605 -0.0816414 0
M  V30 3058 H 297.137 -3.30441 -1.81903 0
M  V30 3059 H 299.524 -2.31266 -1.83303 0
M  V30 3060 H 299.605 -2.55667 -0.0823929 0
M  V30 3061 H 299.249 -5.06014 -0.437346 0
M  V30 3062 H 299.179 -4.78614 -2.19627 0
M  V30 3063 H 301.67 -3.58332 -1.20028 0
M  V30 3064 H 301.983 -7.50241 -1.85359 0
M  V30 3065 H 300.328 -6.74545 -1.67373 0
M  V30 3066 H 303.519 -4.46465 -1.40663 0
M  V30 3067 H 303.692 -6.25173 -1.70477 0
M  V30 3068 N 297.098 0.621204 -1.44841 0
M  V30 3069 C 298.326 1.40752 -1.51646 0
M  V30 3070 C 298.741 1.88246 -0.144549 0
M  V30 3071 O 298.098 1.61422 0.851416 0
M  V30 3072 C 298.149 2.62119 -2.4895 0
M  V30 3073 O 297.87 2.16602 -3.80808 0
M  V30 3074 C 299.371 3.55135 -2.65319 0
M  V30 3075 H 296.591 0.431325 -0.514004 0
M  V30 3076 H 299.135 0.758835 -1.899 0
M  V30 3077 H 297.29 3.23058 -2.13805 0
M  V30 3078 H 297.704 2.95358 -4.33433 0
M  V30 3079 H 299.178 4.36874 -3.37409 0
M  V30 3080 H 299.655 4.04592 -1.70886 0
M  V30 3081 H 300.261 3.00058 -3.01405 0
M  V30 3082 N 298.576 1.31904 0.862503 0
M  V30 3083 C 299.506 1.22782 1.98612 0
M  V30 3084 C 300.487 0.113362 1.69722 0
M  V30 3085 O 301.672 0.299218 1.91881 0
M  V30 3086 C 298.802 0.942058 3.34279 0
M  V30 3087 C 297.756 2.0169 3.77499 0
M  V30 3088 C 297.082 1.58369 5.10709 0
M  V30 3089 C 298.382 3.43096 3.93805 0
M  V30 3090 H 300.076 2.16788 2.06502 0
M  V30 3091 H 297.622 1.04366 0.992154 0
M  V30 3092 H 299.575 0.864818 4.1243 0
M  V30 3093 H 298.299 -0.0336603 3.26583 0
M  V30 3094 H 296.958 2.08416 3.01593 0
M  V30 3095 H 296.606 0.595628 4.99461 0
M  V30 3096 H 296.306 2.30279 5.40597 0
M  V30 3097 H 297.83 1.52067 5.91361 0
M  V30 3098 H 299.244 3.39003 4.62331 0
M  V30 3099 H 297.641 4.13288 4.35101 0
M  V30 3100 H 298.711 3.83334 2.96957 0
M  V30 3101 N 300.054 -1.07777 1.14986 0
M  V30 3102 C 301.282 -1.84018 0.945773 0
M  V30 3103 C 301.697 -1.81897 -0.505863 0
M  V30 3104 O 301.054 -1.22726 -1.35072 0
M  V30 3105 C 301.105 -3.31287 1.44677 0
M  V30 3106 O 300.826 -3.33449 2.84154 0
M  V30 3107 C 302.327 -4.24311 1.28355 0
M  V30 3108 H 299.547 -0.580716 0.336169 0
M  V30 3109 H 302.091 -1.36077 1.52654 0
M  V30 3110 H 300.246 -3.76594 0.908625 0
M  V30 3111 H 300.66 -4.25427 3.06777 0
M  V30 3112 H 302.134 -5.2573 1.68261 0
M  V30 3113 H 302.611 -4.38612 0.227184 0
M  V30 3114 H 303.217 -3.84836 1.81056 0
M  V30 3115 N 301.532 -0.945985 -1.26051 0
M  V30 3116 C 302.76 -0.613025 -1.9761 0
M  V30 3117 C 303.175 0.813035 -1.70397 0
M  V30 3118 O 302.532 1.54274 -0.974979 0
M  V30 3119 C 302.583 -0.85159 -3.51326 0
M  V30 3120 O 302.304 -2.22157 -3.77595 0
M  V30 3121 C 303.805 -0.529831 -4.40122 0
M  V30 3122 H 301.025 -0.230593 -0.630133 0
M  V30 3123 H 303.569 -1.268 -1.60443 0
M  V30 3124 H 301.724 -0.243151 -3.86636 0
M  V30 3125 H 302.138 -2.2852 -4.721 0
M  V30 3126 H 303.612 -0.747348 -5.46917 0
M  V30 3127 H 304.089 0.535341 -4.35925 0
M  V30 3128 H 304.695 -1.11721 -4.10364 0
M  V30 3129 N 303.011 1.40521 -0.713556 0
M  V30 3130 C 304.422 1.83853 -0.324807 0
M  V30 3131 C 304.773 1.59667 1.14021 0
M  V30 3132 O 303.898 1.07649 1.87725 0
M  V30 3133 C 304.493 3.33751 -0.582746 0
M  V30 3134 C 303.052 3.75584 -0.247727 0
M  V30 3135 C 302.199 2.63753 -0.856121 0
M  V30 3136 H 305.15 1.29817 -0.91286 0
M  V30 3137 H 305.171 3.80194 0.152682 0
M  V30 3138 H 304.683 3.51322 -1.64908 0
M  V30 3139 H 302.784 3.63608 0.813624 0
M  V30 3140 H 302.897 4.7373 -0.715307 0
M  V30 3141 H 301.261 2.53108 -0.28432 0
M  V30 3142 H 302.044 2.84137 -1.92668 0
M  V30 3143 N 304.489 0.459591 1.5075 0
M  V30 3144 C 305.452 -0.329093 2.26825 0
M  V30 3145 C 306.452 -0.930481 1.31144 0
M  V30 3146 O 307.642 -0.801453 1.54669 0
M  V30 3147 C 304.774 -1.46768 3.07688 0
M  V30 3148 H 305.967 0.337924 2.9799 0
M  V30 3149 H 303.52 0.213336 1.54837 0
M  V30 3150 H 304.255 -2.17009 2.40993 0
M  V30 3151 H 304.04 -1.04238 3.77991 0
M  V30 3152 H 305.53 -2.02433 3.65254 0
M  V30 3153 N 305.967 -1.56429 0.191757 0
M  V30 3154 C 307.192 -2.02309 -0.456706 0
M  V30 3155 C 307.617 -1.07103 -1.5463 0
M  V30 3156 O 306.975 -0.0539677 -1.8122 0
M  V30 3157 C 307.023 -3.46654 -0.993159 0
M  V30 3158 O 306.127 -3.54559 -2.10622 0
M  V30 3159 H 305.468 -0.655303 -0.107114 0
M  V30 3160 H 307.998 -2.02364 0.301653 0
M  V30 3161 H 308.008 -3.86377 -1.31061 0
M  V30 3162 H 306.683 -4.1544 -0.195504 0
M  V30 3163 H 305.26 -3.26708 -1.79767 0
M  V30 3164 N 307.445 0.0818655 -1.57387 0
M  V30 3165 C 308.393 1.11712 -2.04018 0
M  V30 3166 C 309.387 1.40683 -0.94364 0
M  V30 3167 O 310.593 1.40209 -1.12878 0
M  V30 3168 H 306.968 0.377542 -0.650358 0
M  V30 3169 H 308.939 0.697614 -2.90131 0
M  V30 3170 C 307.688 2.42537 -2.49141 0
M  V30 3171 H 307.011 2.21092 -3.33104 0
M  V30 3172 H 308.451 3.13446 -2.85531 0
M  V30 3173 C 306.91 3.0778 -1.37014 0
M  V30 3174 O 307.44 3.95436 -0.706621 0
M  V30 3175 N 305.646 2.68242 -1.11779 0
M  V30 3176 H 305.193 1.97052 -1.65917 0
M  V30 3177 H 305.151 3.1222 -0.369594 0
M  V30 3178 N 308.923 1.53595 0.353017 0
M  V30 3179 C 309.855 1.77219 1.45348 0
M  V30 3180 C 310.868 0.65324 1.49119 0
M  V30 3181 O 312.057 0.929775 1.52373 0
M  V30 3182 C 309.157 1.84841 2.84055 0
M  V30 3183 C 308.33 3.14649 3.03833 0
M  V30 3184 C 307.389 3.13351 4.22727 0
M  V30 3185 O 306.415 3.87107 4.17297 0
M  V30 3186 N 307.617 2.35052 5.30783 0
M  V30 3187 H 310.382 2.72178 1.25457 0
M  V30 3188 H 307.943 1.52528 0.542833 0
M  V30 3189 H 309.935 1.81435 3.61751 0
M  V30 3190 H 308.505 0.971114 2.97133 0
M  V30 3191 H 307.725 3.31256 2.13689 0
M  V30 3192 H 309.013 4.00411 3.13925 0
M  V30 3193 H 308.411 1.74663 5.38061 0
M  V30 3194 H 306.968 2.37453 6.07009 0
M  V30 3195 N 310.401 -0.613514 1.45168 0
M  V30 3196 C 311.331 -1.7354 1.56225 0
M  V30 3197 C 312.312 -1.64981 0.41414 0
M  V30 3198 O 313.497 -1.83472 0.636526 0
M  V30 3199 C 310.627 -3.12128 1.52295 0
M  V30 3200 C 309.581 -3.35491 2.65762 0
M  V30 3201 C 308.907 -4.74291 2.46885 0
M  V30 3202 C 310.207 -3.26325 4.0781 0
M  V30 3203 H 311.901 -1.64543 2.50132 0
M  V30 3204 H 309.447 -0.790185 1.20383 0
M  V30 3205 H 311.4 -3.90404 1.58628 0
M  V30 3206 H 310.124 -3.2195 0.549139 0
M  V30 3207 H 308.783 -2.59603 2.58847 0
M  V30 3208 H 308.431 -4.80839 1.47657 0
M  V30 3209 H 308.131 -4.9088 3.22972 0
M  V30 3210 H 309.655 -5.54775 2.55063 0
M  V30 3211 H 311.069 -3.94483 4.16 0
M  V30 3212 H 309.466 -3.54445 4.8424 0
M  V30 3213 H 310.536 -2.23855 4.30136 0
M  V30 3214 N 311.879 -1.3236 -0.855495 0
M  V30 3215 C 312.809 -1.23833 -1.97958 0
M  V30 3216 C 313.79 -0.122361 -1.69659 0
M  V30 3217 O 314.975 -0.30939 -1.9172 0
M  V30 3218 C 312.105 -0.959772 -3.33775 0
M  V30 3219 C 311.059 -2.03689 -3.76424 0
M  V30 3220 C 310.385 -1.61075 -5.09862 0
M  V30 3221 C 311.685 -3.4518 -3.9198 0
M  V30 3222 H 313.379 -2.1788 -2.0535 0
M  V30 3223 H 310.925 -1.04891 -0.986605 0
M  V30 3224 H 312.878 -0.886678 -4.11966 0
M  V30 3225 H 311.602 0.0163404 -3.26596 0
M  V30 3226 H 310.261 -2.10012 -3.00484 0
M  V30 3227 H 309.909 -0.622107 -4.99138 0
M  V30 3228 H 309.609 -2.33143 -5.39368 0
M  V30 3229 H 311.133 -1.55201 -5.90546 0
M  V30 3230 H 312.547 -3.4145 -4.60526 0
M  V30 3231 H 310.944 -4.1559 -4.32903 0
M  V30 3232 H 312.014 -3.84903 -2.94919 0
M  V30 3233 N 313.357 1.07166 -1.15556 0
M  V30 3234 C 314.32 2.12589 -0.856644 0
M  V30 3235 C 315.32 1.6015 0.14444 0
M  V30 3236 O 316.51 1.7399 -0.0854163 0
M  V30 3237 C 313.642 3.39753 -0.279405 0
M  V30 3238 H 314.835 2.40539 -1.79112 0
M  V30 3239 H 312.388 1.23086 -0.963298 0
M  V30 3240 H 313.123 3.17447 0.663174 0
M  V30 3241 H 312.908 3.79117 -1.00063 0
M  V30 3242 H 314.398 4.17507 -0.0879113 0
M  V30 3243 N 314.835 0.952656 1.25548 0
M  V30 3244 C 315.765 0.489287 2.28316 0
M  V30 3245 C 316.746 -0.463359 1.63667 0
M  V30 3246 O 317.931 -0.36274 1.90782 0
M  V30 3247 C 315.061 -0.235603 3.465 0
M  V30 3248 C 314.015 0.631593 4.23314 0
M  V30 3249 C 313.341 -0.223923 5.34231 0
M  V30 3250 C 314.641 1.90871 4.86174 0
M  V30 3251 H 316.335 1.34822 2.67326 0
M  V30 3252 H 313.881 0.649728 1.28509 0
M  V30 3253 H 315.834 -0.570882 4.17515 0
M  V30 3254 H 314.558 -1.12877 3.06474 0
M  V30 3255 H 313.217 0.949929 3.54079 0
M  V30 3256 H 312.865 -1.11678 4.90446 0
M  V30 3257 H 312.565 0.35299 5.86539 0
M  V30 3258 H 314.089 -0.554214 6.0808 0
M  V30 3259 H 315.503 1.63997 5.49343 0
M  V30 3260 H 313.9 2.43112 5.4865 0
M  V30 3261 H 314.97 2.61304 4.08471 0
M  V30 3262 N 316.313 -1.40141 0.720998 0
M  V30 3263 C 317.724 -1.83678 0.334553 0
M  V30 3264 C 318.075 -1.6027 -1.13173 0
M  V30 3265 O 317.2 -1.08643 -1.87152 0
M  V30 3266 C 317.795 -3.33437 0.600437 0
M  V30 3267 C 316.354 -3.75447 0.267642 0
M  V30 3268 C 315.501 -2.63296 0.870097 0
M  V30 3269 H 318.452 -1.29331 0.919732 0
M  V30 3270 H 318.473 -3.80269 -0.132517 0
M  V30 3271 H 317.985 -3.50442 1.66768 0
M  V30 3272 H 316.086 -3.64035 -0.794329 0
M  V30 3273 H 316.199 -4.73344 0.74042 0
M  V30 3274 H 314.563 -2.52954 0.297739 0
M  V30 3275 H 315.346 -2.83112 1.94172 0
M  V30 3276 N 317.792 -0.46758 -1.50504 0
M  V30 3277 C 319.208 -0.121533 -1.59137 0
M  V30 3278 C 319.408 1.3717 -1.47603 0
M  V30 3279 O 318.464 2.14464 -1.33272 0
M  V30 3280 C 319.777 -0.6686 -2.93173 0
M  V30 3281 C 321.325 -0.631716 -3.06559 0
M  V30 3282 C 321.8 -1.15627 -4.43164 0
M  V30 3283 N 323.291 -1.11553 -4.49567 0
M  V30 3284 C 324.026 -1.49195 -5.5365 0
M  V30 3285 N 323.522 -1.94269 -6.65005 0
M  V30 3286 N 325.315 -1.4082 -5.44175 0
M  V30 3287 H 317.466 -1.4388 -1.56245 0
M  V30 3288 H 319.729 -0.594784 -0.738198 0
M  V30 3289 H 319.435 -1.71453 -3.07078 0
M  V30 3290 H 319.309 -0.11021 -3.77039 0
M  V30 3291 H 321.696 0.405297 -2.92304 0
M  V30 3292 H 321.777 -1.22687 -2.24458 0
M  V30 3293 H 321.421 -2.1919 -4.58168 0
M  V30 3294 H 321.351 -0.537365 -5.23851 0
M  V30 3295 H 323.842 -0.784895 -3.69659 0
M  V30 3296 H 324.155 -2.21148 -7.40482 0
M  V30 3297 H 322.5 -1.98219 -6.66134 0
M  V30 3298 H 325.691 -1.0545 -4.56068 0
M  V30 3299 H 325.864 -1.70481 -6.25172 0
M  V30 3300 N 319.27 1.56325 -0.20005 0
M  V30 3301 C 320.18 2.22931 0.730668 0
M  V30 3302 C 321.196 1.22997 1.23076 0
M  V30 3303 O 322.372 1.55748 1.27689 0
M  V30 3304 C 319.437 2.87948 1.93098 0
M  V30 3305 C 318.498 4.03166 1.47497 0
M  V30 3306 C 317.731 4.65073 2.61807 0
M  V30 3307 O 317.954 4.25913 3.79413 0
M  V30 3308 O 316.888 5.54452 2.34237 0
M  V30 3309 H 320.714 3.03084 0.193391 0
M  V30 3310 H 318.299 1.49371 0.0294621 0
M  V30 3311 H 320.181 3.29063 2.6324 0
M  V30 3312 H 318.856 2.10771 2.45677 0
M  V30 3313 H 317.763 3.66664 0.742201 0
M  V30 3314 H 319.096 4.82022 0.995796 0
M  V30 3315 N 320.748 -0.0735177 1.57428 0
M  V30 3316 C 322.159 -0.625551 1.75908 0
M  V30 3317 C 322.51 -1.78 0.825261 0
M  V30 3318 O 321.635 -2.16398 0.00893964 0
M  V30 3319 C 322.23 -1.14155 3.18989 0
M  V30 3320 C 320.789 -1.63946 3.38819 0
M  V30 3321 C 319.936 -0.558151 2.71625 0
M  V30 3322 H 322.887 0.152647 1.57964 0
M  V30 3323 H 322.908 -2.0104 3.23053 0
M  V30 3324 H 322.42 -0.301116 3.8693 0
M  V30 3325 H 320.521 -2.50321 2.7599 0
M  V30 3326 H 320.634 -1.71759 4.47253 0
M  V30 3327 H 318.998 -1.00278 2.34129 0
M  V30 3328 H 319.781 0.272071 3.4222 0
M  V30 3329 N 322.226 -1.5378 -0.344866 0
M  V30 3330 C 323.156 -1.84662 -1.42906 0
M  V30 3331 C 324.137 -0.701648 -1.54955 0
M  V30 3332 O 325.322 -0.953438 -1.69184 0
M  V30 3333 C 322.452 -2.05503 -2.79974 0
M  V30 3334 C 321.406 -3.21318 -2.82734 0
M  V30 3335 C 320.732 -3.2749 -4.22675 0
M  V30 3336 C 322.032 -4.59456 -2.48389 0
M  V30 3337 H 323.726 -2.75461 -1.17311 0
M  V30 3338 H 321.272 -1.32542 -0.562896 0
M  V30 3339 H 323.225 -2.25691 -3.55867 0
M  V30 3340 H 321.949 -1.11434 -3.07002 0
M  V30 3341 H 320.608 -3.00984 -2.09294 0
M  V30 3342 H 320.256 -2.31019 -4.4681 0
M  V30 3343 H 319.956 -4.05316 -4.25433 0
M  V30 3344 H 321.48 -3.49887 -5.00412 0
M  V30 3345 H 322.894 -4.79667 -3.13995 0
M  V30 3346 H 321.291 -5.39675 -2.62432 0
M  V30 3347 H 322.361 -4.63155 -1.4358 0
M  V30 3348 N 323.704 0.605807 -1.45491 0
M  V30 3349 C 324.634 1.72709 -1.57143 0
M  V30 3350 C 325.615 1.6476 -0.422884 0
M  V30 3351 O 326.8 1.83132 -0.646247 0
M  V30 3352 C 323.93 3.11316 -1.53948 0
M  V30 3353 C 322.884 3.34077 -2.67537 0
M  V30 3354 C 322.21 4.72975 -2.49397 0
M  V30 3355 C 323.51 3.24158 -4.09535 0
M  V30 3356 H 325.204 1.63214 -2.51001 0
M  V30 3357 H 322.75 0.78379 -1.208 0
M  V30 3358 H 324.703 3.89557 -1.60696 0
M  V30 3359 H 323.427 3.21655 -0.566205 0
M  V30 3360 H 322.086 2.58227 -2.6022 0
M  V30 3361 H 321.734 4.8005 -1.50205 0
M  V30 3362 H 321.434 4.8916 -3.25571 0
M  V30 3363 H 322.958 5.53414 -2.58002 0
M  V30 3364 H 324.372 3.92271 -4.18086 0
M  V30 3365 H 322.769 3.51872 -4.86113 0
M  V30 3366 H 323.839 2.2157 -4.31317 0
M  V30 3367 N 325.182 1.32811 0.848464 0
M  V30 3368 C 326.145 1.22194 1.9391 0
M  V30 3369 C 327.145 0.143404 1.60159 0
M  V30 3370 O 328.335 0.394253 1.6968 0
M  V30 3371 C 325.467 0.88067 3.29328 0
M  V30 3372 H 326.66 2.19127 2.04752 0
M  V30 3373 H 324.213 1.16731 1.0394 0
M  V30 3374 H 324.948 -0.0865776 3.24184 0
M  V30 3375 H 324.733 1.66052 3.55203 0
M  V30 3376 H 326.223 0.830871 4.09251 0
M  V30 3377 N 326.66 -1.06551 1.16123 0
M  V30 3378 C 327.59 -2.15935 0.88851 0
M  V30 3379 C 328.571 -1.69306 -0.164135 0
M  V30 3380 O 329.756 -1.94193 -0.0167857 0
M  V30 3381 C 326.886 -3.45149 0.385942 0
M  V30 3382 C 325.84 -4.05271 1.3762 0
M  V30 3383 C 325.166 -5.29664 0.732137 0
M  V30 3384 C 326.466 -4.44355 2.74493 0
M  V30 3385 H 328.16 -2.39006 1.80323 0
M  V30 3386 H 325.706 -1.14866 0.868435 0
M  V30 3387 H 327.659 -4.21004 0.182647 0
M  V30 3388 H 326.383 -3.21689 -0.564274 0
M  V30 3389 H 325.042 -3.3147 1.56599 0
M  V30 3390 H 324.69 -5.02499 -0.224483 0
M  V30 3391 H 324.39 -5.70848 1.39307 0
M  V30 3392 H 325.914 -6.08218 0.538802 0
M  V30 3393 H 327.328 -5.11303 2.59311 0
M  V30 3394 H 325.725 -4.96515 3.37035 0
M  V30 3395 H 326.795 -3.55339 3.29943 0
M  V30 3396 N 328.138 -0.959301 -1.25041 0
M  V30 3397 C 329.387 -0.612254 -1.92183 0
M  V30 3398 C 329.7 0.855347 -1.75907 0
M  V30 3399 O 330.906 1.31256 -2.37664 0
M  V30 3400 C 329.362 -1.04435 -3.44414 0
M  V30 3401 C 328.97 -2.53482 -3.69393 0
M  V30 3402 C 330.714 -0.770055 -4.17457 0
M  V30 3403 C 328.621 -2.90468 -5.15153 0
M  V30 3404 H 327.551 -0.225279 -0.719559 0
M  V30 3405 H 330.202 -1.16438 -1.41825 0
M  V30 3406 H 328.584 -0.4206 -3.9376 0
M  V30 3407 H 329.758 -3.20916 -3.30681 0
M  V30 3408 H 328.073 -2.78432 -3.0962 0
M  V30 3409 H 330.67 -1.02249 -5.24832 0
M  V30 3410 H 331.013 0.293611 -4.15263 0
M  V30 3411 H 331.546 -1.35437 -3.74034 0
M  V30 3412 H 328.285 -3.95871 -5.22462 0
M  V30 3413 H 327.805 -2.27711 -5.54894 0
M  V30 3414 H 329.484 -2.79914 -5.83315 0
M  V30 3415 N 329.616 1.39756 -0.72842 0
M  V30 3416 C 330.893 1.94574 -0.200079 0
M  V30 3417 C 331.273 1.66569 1.29684 0
M  V30 3418 O 330.621 0.990326 2.05924 0
M  V30 3419 C 330.831 3.45004 -0.526608 0
M  V30 3420 C 332.179 4.21965 -0.472318 0
M  V30 3421 O 333.203 3.53173 -0.463413 0
M  V30 3422 O 332.062 5.44552 -0.461075 0
M  V30 3423 H 329.156 0.826289 -0.0342851 0
M  V30 3424 H 331.702 1.49293 -0.806829 0
M  V30 3425 H 330.474 3.58796 -1.56144 0
M  V30 3426 H 330.097 3.97449 0.109449 0
M  V30 3427 N 331.094 0.475555 1.50254 0
M  V30 3428 C 332.51 0.12997 1.5907 0
M  V30 3429 C 332.71 -1.36385 1.48328 0
M  V30 3430 O 331.766 -2.13754 1.34407 0
M  V30 3431 C 333.079 0.684139 2.92814 0
M  V30 3432 C 334.627 0.647965 3.0622 0
M  V30 3433 C 335.102 1.17975 4.42545 0
M  V30 3434 N 336.593 1.13936 4.48969 0
M  V30 3435 C 337.328 1.52129 5.52851 0
M  V30 3436 N 336.824 1.97793 6.63965 0
M  V30 3437 N 338.617 1.43704 5.4342 0
M  V30 3438 H 330.768 1.44706 1.55479 0
M  V30 3439 H 333.031 0.598691 0.735033 0
M  V30 3440 H 332.737 1.73079 3.06164 0
M  V30 3441 H 332.611 0.130204 3.76975 0
M  V30 3442 H 334.998 -0.38979 2.92514 0
M  V30 3443 H 335.079 1.23876 2.23805 0
M  V30 3444 H 334.723 2.21616 4.57 0
M  V30 3445 H 334.653 0.565138 5.23559 0
M  V30 3446 H 337.144 0.804488 3.69238 0
M  V30 3447 H 337.457 2.25072 7.39299 0
M  V30 3448 H 335.802 2.01749 6.65073 0
M  V30 3449 H 338.993 1.07867 4.55502 0
M  V30 3450 H 339.166 1.73794 6.24259 0
M  V30 3451 N 332.573 -1.56217 0.208337 0
M  V30 3452 C 333.803 -2.02043 -0.431523 0
M  V30 3453 C 334.211 -1.08755 -1.54819 0
M  V30 3454 O 333.554 -0.0870009 -1.83494 0
M  V30 3455 C 333.616 -3.44239 -1.03633 0
M  V30 3456 C 333.28 -4.56965 -0.0567502 0
M  V30 3457 C 334.277 -5.14624 0.738773 0
M  V30 3458 C 331.962 -5.02266 0.0581736 0
M  V30 3459 C 333.956 -6.16045 1.63605 0
M  V30 3460 C 331.643 -6.03528 0.959001 0
M  V30 3461 C 332.641 -6.60293 1.7465 0
M  V30 3462 O 332.329 -7.59586 2.6322 0
M  V30 3463 H 332.061 -0.666772 -0.111313 0
M  V30 3464 H 334.615 -2.02919 0.318277 0
M  V30 3465 H 332.845 -3.40391 -1.83497 0
M  V30 3466 H 334.534 -3.73793 -1.58221 0
M  V30 3467 H 335.3 -4.80483 0.660364 0
M  V30 3468 H 331.179 -4.57771 -0.544633 0
M  V30 3469 H 334.723 -6.60279 2.25116 0
M  V30 3470 H 330.62 -6.37092 1.03848 0
M  V30 3471 H 331.388 -7.77057 2.57148 0
M  V30 3472 N 334.051 0.0651679 -1.57465 0
M  V30 3473 C 334.981 1.07693 -2.07182 0
M  V30 3474 C 335.962 1.39962 -0.966673 0
M  V30 3475 O 337.147 1.49475 -1.2398 0
M  V30 3476 C 334.277 2.3885 -2.52127 0
M  V30 3477 C 333.231 2.20917 -3.66579 0
M  V30 3478 C 332.557 3.57515 -3.97601 0
M  V30 3479 C 333.857 1.62493 -4.9638 0
M  V30 3480 H 335.551 0.663199 -2.91962 0
M  V30 3481 H 333.097 0.317569 -1.40455 0
M  V30 3482 H 335.05 3.09928 -2.85522 0
M  V30 3483 H 333.774 2.82215 -1.64384 0
M  V30 3484 H 332.433 1.52279 -3.33477 0
M  V30 3485 H 332.081 3.98463 -3.06979 0
M  V30 3486 H 331.781 3.46353 -4.74672 0
M  V30 3487 H 333.305 4.30013 -4.33499 0
M  V30 3488 H 334.719 2.23445 -5.27963 0
M  V30 3489 H 333.116 1.62009 -5.77818 0
M  V30 3490 H 334.186 0.587041 -4.81333 0
M  V30 3491 N 335.529 1.53961 0.336706 0
M  V30 3492 C 336.477 1.83136 1.43401 0
M  V30 3493 C 337.471 0.702313 1.54156 0
M  V30 3494 O 338.677 0.885765 1.56698 0
M  V30 3495 H 335.052 0.580309 0.478273 0
M  V30 3496 H 337.023 2.74925 1.16012 0
M  V30 3497 C 335.772 2.06385 2.79822 0
M  V30 3498 H 335.095 2.92718 2.72316 0
M  V30 3499 H 336.535 2.30761 3.55704 0
M  V30 3500 C 334.994 0.851414 3.25964 0
M  V30 3501 O 335.524 0.0541904 4.01663 0
M  V30 3502 N 333.73 0.66672 2.82848 0
M  V30 3503 H 333.277 1.31665 2.21409 0
M  V30 3504 H 333.235 -0.143032 3.14074 0
M  V30 3505 N 337.007 -0.598083 1.45811 0
M  V30 3506 C 337.97 -1.69018 1.54808 0
M  V30 3507 C 338.97 -1.55037 0.426652 0
M  V30 3508 O 340.16 -1.59932 0.690456 0
M  V30 3509 C 337.292 -3.0835 1.45371 0
M  V30 3510 H 338.485 -1.62403 2.52121 0
M  V30 3511 H 336.038 -0.814626 1.33392 0
M  V30 3512 H 336.773 -3.20534 0.492793 0
M  V30 3513 H 336.558 -3.19907 2.26721 0
M  V30 3514 H 338.048 -3.8788 1.54721 0
M  V30 3515 N 338.485 -1.33259 -0.841409 0
M  V30 3516 C 339.896 -1.22066 -1.41269 0
M  V30 3517 C 340.247 0.161479 -1.95534 0
M  V30 3518 O 339.372 1.06094 -1.88608 0
M  V30 3519 C 339.967 -2.20996 -2.568 0
M  V30 3520 C 338.526 -2.13649 -3.09888 0
M  V30 3521 C 337.673 -2.08623 -1.82679 0
M  V30 3522 H 340.624 -1.44895 -0.647395 0
M  V30 3523 H 340.645 -1.81621 -3.34356 0
M  V30 3524 H 340.157 -3.2158 -2.17274 0
M  V30 3525 H 338.258 -1.16359 -3.53965 0
M  V30 3526 H 338.371 -3.04079 -3.70234 0
M  V30 3527 H 336.735 -1.54061 -2.02824 0
M  V30 3528 H 337.518 -3.1101 -1.45353 0
M  V30 3529 N 339.963 1.05934 -1.16686 0
M  V30 3530 C 340.893 2.1546 -0.899949 0
M  V30 3531 C 341.874 1.69391 0.155154 0
M  V30 3532 O 343.059 1.94199 0.00648693 0
M  V30 3533 C 340.189 3.44939 -0.404241 0
M  V30 3534 C 339.143 4.04536 -1.39767 0
M  V30 3535 C 338.469 5.29268 -0.760216 0
M  V30 3536 C 339.769 4.42893 -2.76845 0
M  V30 3537 H 341.463 2.38046 -1.81588 0
M  V30 3538 H 339.009 1.14404 -0.874514 0
M  V30 3539 H 340.962 4.20901 -0.204971 0
M  V30 3540 H 339.686 3.21983 0.547206 0
M  V30 3541 H 338.345 3.30635 -1.58355 0
M  V30 3542 H 337.993 5.02611 0.197831 0
M  V30 3543 H 337.693 5.70101 -1.42332 0
M  V30 3544 H 339.217 6.07924 -0.57105 0
M  V30 3545 H 340.631 5.09921 -2.62019 0
M  V30 3546 H 339.028 4.94721 -3.39663 0
M  V30 3547 H 340.098 3.53584 -3.31823 0
M  V30 3548 N 341.441 0.965919 1.2453 0
M  V30 3549 C 342.351 0.502154 2.29163 0
M  V30 3550 C 343.367 -0.436017 1.68448 0
M  V30 3551 O 344.543 -0.309497 1.99008 0
M  V30 3552 C 341.608 -0.201956 3.46111 0
M  V30 3553 C 340.669 0.775821 4.22232 0
M  V30 3554 C 339.902 0.105217 5.33596 0
M  V30 3555 O 340.125 -1.10683 5.59558 0
M  V30 3556 O 339.059 0.796475 5.96607 0
M  V30 3557 H 342.885 1.37194 2.70946 0
M  V30 3558 H 340.47 0.732875 1.30189 0
M  V30 3559 H 342.352 -0.597564 4.17142 0
M  V30 3560 H 341.027 -1.04673 3.06309 0
M  V30 3561 H 339.934 1.22185 3.53584 0
M  V30 3562 H 341.267 1.58896 4.65846 0
M  V30 3563 N 342.919 -1.39368 0.735821 0
M  V30 3564 C 344.196 -1.94465 0.210395 0
M  V30 3565 C 344.576 -1.67254 -1.28799 0
M  V30 3566 O 343.924 -1.00123 -2.05396 0
M  V30 3567 C 344.134 -3.4472 0.544897 0
M  V30 3568 C 345.482 -4.21708 0.494689 0
M  V30 3569 O 346.506 -3.52922 0.482136 0
M  V30 3570 O 345.365 -5.44299 0.489947 0
M  V30 3571 H 342.459 -0.826096 0.0386666 0
M  V30 3572 H 345.005 -1.48863 0.814735 0
M  V30 3573 H 343.777 -3.57963 1.58045 0
M  V30 3574 H 343.4 -3.97502 -0.08837 0
M  V30 3575 N 344.397 -0.483516 -1.5 0
M  V30 3576 C 345.327 0.293829 -2.31644 0
M  V30 3577 C 346.308 0.978864 -1.39112 0
M  V30 3578 O 347.493 0.973644 -1.68029 0
M  V30 3579 C 344.623 1.36897 -3.19181 0
M  V30 3580 C 343.577 0.804833 -4.20365 0
M  V30 3581 C 342.903 1.9792 -4.96721 0
M  V30 3582 C 344.203 -0.192313 -5.21946 0
M  V30 3583 H 345.897 -0.387616 -2.9688 0
M  V30 3584 H 343.443 -0.187856 -1.42769 0
M  V30 3585 H 345.396 1.92037 -3.751 0
M  V30 3586 H 344.12 2.07936 -2.51853 0
M  V30 3587 H 342.779 0.275319 -3.65565 0
M  V30 3588 H 342.427 2.67686 -4.25856 0
M  V30 3589 H 342.127 1.60789 -5.65173 0
M  V30 3590 H 343.651 2.53526 -5.55479 0
M  V30 3591 H 345.065 0.270333 -5.72662 0
M  V30 3592 H 343.462 -0.478543 -5.98189 0
M  V30 3593 H 344.532 -1.11409 -4.71928 0
M  V30 3594 N 345.875 1.56104 -0.216619 0
M  V30 3595 C 346.838 2.18819 0.681962 0
M  V30 3596 C 347.838 1.14866 1.12528 0
M  V30 3597 O 349.028 1.40128 1.03488 0
M  V30 3598 C 346.16 2.80756 1.93362 0
M  V30 3599 H 347.353 2.99595 0.135254 0
M  V30 3600 H 344.906 1.56265 0.0330003 0
M  V30 3601 H 345.641 2.03837 2.52232 0
M  V30 3602 H 345.426 3.56876 1.62426 0
M  V30 3603 H 346.916 3.28844 2.57393 0
M  V30 3604 N 347.353 -0.0568162 1.57498 0
M  V30 3605 C 348.764 -0.606858 1.76562 0
M  V30 3606 C 349.115 -1.77114 0.844094 0
M  V30 3607 O 348.24 -2.16376 0.0318911 0
M  V30 3608 C 348.835 -1.10766 3.20182 0
M  V30 3609 C 347.394 -1.60344 3.40539 0
M  V30 3610 C 346.541 -0.529311 2.72201 0
M  V30 3611 H 349.492 0.169393 1.57793 0
M  V30 3612 H 349.513 -1.97602 3.25167 0
M  V30 3613 H 349.025 -0.26006 3.87228 0
M  V30 3614 H 347.126 -2.47379 2.78629 0
M  V30 3615 H 347.239 -1.67006 4.4905 0
M  V30 3616 H 345.603 -0.977893 2.35179 0
M  V30 3617 H 346.386 0.308352 3.41912 0
M  V30 3618 N 348.832 -1.54138 -0.328536 0
M  V30 3619 C 350.248 -1.44736 -0.672574 0
M  V30 3620 C 350.448 -0.616217 -1.91846 0
M  V30 3621 O 349.504 -0.113067 -2.52247 0
M  V30 3622 C 350.817 -2.884 -0.851217 0
M  V30 3623 C 352.365 -2.98271 -0.948877 0
M  V30 3624 C 352.84 -4.43074 -1.15973 0
M  V30 3625 N 354.331 -4.46665 -1.22658 0
M  V30 3626 C 355.066 -5.55857 -1.40751 0
M  V30 3627 N 354.562 -6.75026 -1.5592 0
M  V30 3628 N 356.355 -5.43495 -1.4342 0
M  V30 3629 H 348.506 -2.06661 0.490421 0
M  V30 3630 H 350.769 -0.934812 0.157579 0
M  V30 3631 H 350.475 -3.51699 -0.00704236 0
M  V30 3632 H 350.349 -3.34225 -1.74853 0
M  V30 3633 H 352.736 -2.35102 -1.78356 0
M  V30 3634 H 352.817 -2.55785 -0.0281435 0
M  V30 3635 H 352.461 -5.06827 -0.329915 0
M  V30 3636 H 352.391 -4.83165 -2.09426 0
M  V30 3637 H 354.882 -3.60797 -1.124 0
M  V30 3638 H 355.195 -7.54004 -1.69404 0
M  V30 3639 H 353.54 -6.77944 -1.53027 0
M  V30 3640 H 356.731 -4.49349 -1.31162 0
M  V30 3641 H 356.904 -6.28649 -1.57178 0
M  V30 3642 N 350.31 0.590341 -1.46126 0
M  V30 3643 C 351.557 1.34882 -1.5104 0
M  V30 3644 C 351.885 1.93849 -0.159021 0
M  V30 3645 O 351.14 1.76544 0.844436 0
M  V30 3646 C 351.439 2.5032 -2.55097 0
M  V30 3647 C 351.105 2.09394 -3.99331 0
M  V30 3648 C 349.767 1.97947 -4.38601 0
M  V30 3649 C 352.119 1.77712 -4.89967 0
M  V30 3650 C 349.447 1.53065 -5.66381 0
M  V30 3651 C 351.799 1.34312 -6.18177 0
M  V30 3652 C 350.463 1.21436 -6.56361 0
M  V30 3653 H 349.733 0.493568 -0.552695 0
M  V30 3654 H 352.38 0.665539 -1.79563 0
M  V30 3655 H 350.685 3.24062 -2.20207 0
M  V30 3656 H 352.382 3.08541 -2.56132 0
M  V30 3657 H 348.972 2.19235 -3.68285 0
M  V30 3658 H 353.156 1.85445 -4.60352 0
M  V30 3659 H 348.412 1.41733 -5.94745 0
M  V30 3660 H 352.586 1.08849 -6.87841 0
M  V30 3661 H 350.213 0.864345 -7.5527 0
M  V30 3662 N 351.788 1.33704 0.83433 0
M  V30 3663 C 353.065 1.16011 1.57483 0
M  V30 3664 C 353.445 -0.27176 2.09343 0
M  V30 3665 O 352.793 -1.27146 1.89858 0
M  V30 3666 C 353.003 2.20507 2.70514 0
M  V30 3667 C 354.351 2.54898 3.39577 0
M  V30 3668 O 355.375 2.19209 2.80759 0
M  V30 3669 O 354.234 3.16158 4.45765 0
M  V30 3670 H 351.328 0.448992 0.694503 0
M  V30 3671 H 353.874 1.453 0.876691 0
M  V30 3672 H 352.646 3.16667 2.29865 0
M  V30 3673 H 352.269 1.92329 3.47987 0
M  V30 3674 N 353.266 -1.05314 1.17247 0
M  V30 3675 C 354.494 -1.81971 0.984593 0
M  V30 3676 C 354.909 -1.82929 -0.467166 0
M  V30 3677 O 354.266 -1.25564 -1.32438 0
M  V30 3678 C 354.317 -3.28143 1.51672 0
M  V30 3679 O 354.038 -3.27347 2.91163 0
M  V30 3680 C 355.539 -4.21493 1.37326 0
M  V30 3681 H 352.759 -0.573455 0.348411 0
M  V30 3682 H 355.303 -1.32808 1.55506 0
M  V30 3683 H 353.458 -3.74582 0.988302 0
M  V30 3684 H 353.872 -4.18824 3.15732 0
M  V30 3685 H 355.346 -5.22043 1.79375 0
M  V30 3686 H 355.823 -4.38031 0.320169 0
M  V30 3687 H 356.429 -3.80909 1.89178 0
M  V30 3688 N 354.744 -0.972509 -1.24016 0
M  V30 3689 C 355.99 -0.637978 -1.92504 0
M  V30 3690 C 356.323 0.825383 -1.75787 0
M  V30 3691 O 355.598 1.59442 -1.11393 0
M  V30 3692 C 355.881 -1.01942 -3.45369 0
M  V30 3693 C 355.734 -2.53983 -3.71231 0
M  V30 3694 C 357.053 -0.55751 -4.36555 0
M  V30 3695 H 354.172 -0.233248 -0.699117 0
M  V30 3696 H 356.814 -1.21238 -1.46292 0
M  V30 3697 H 354.964 -0.530656 -3.84859 0
M  V30 3698 H 356.636 -3.10374 -3.41271 0
M  V30 3699 H 354.879 -2.96968 -3.16216 0
M  V30 3700 H 355.55 -2.75723 -4.78206 0
M  V30 3701 H 358.026 -0.977029 -4.04467 0
M  V30 3702 H 356.902 -0.85292 -5.42233 0
M  V30 3703 H 357.163 0.542328 -4.38761 0
M  V30 3704 N 356.222 1.38976 -0.743202 0
M  V30 3705 C 357.47 1.99948 -0.29417 0
M  V30 3706 C 357.791 1.59279 1.12495 0
M  V30 3707 O 357.061 0.844808 1.76748 0
M  V30 3708 H 355.641 0.739473 -0.105774 0
M  V30 3709 H 358.303 1.699 -0.954986 0
M  V30 3710 H 357.399 3.10142 -0.349056 0
M  V30 3711 N 357.7 0.491464 1.49741 0
M  V30 3712 C 358.949 -0.0582189 2.01616 0
M  V30 3713 C 359.262 -1.38927 1.3769 0
M  V30 3714 O 360.468 -2.02509 1.80838 0
M  V30 3715 C 358.924 -0.154235 3.59569 0
M  V30 3716 C 358.532 1.1696 4.32463 0
M  V30 3717 C 360.276 -0.65479 4.1942 0
M  V30 3718 C 358.183 1.03627 5.8225 0
M  V30 3719 H 357.113 -0.0255317 0.753568 0
M  V30 3720 H 359.764 0.629445 1.72367 0
M  V30 3721 H 358.146 -0.906138 3.85493 0
M  V30 3722 H 359.32 1.93405 4.18248 0
M  V30 3723 H 357.635 1.60285 3.84315 0
M  V30 3724 H 360.232 -0.771903 5.29099 0
M  V30 3725 H 360.575 -1.65127 3.8215 0
M  V30 3726 H 361.108 0.040304 3.9778 0
M  V30 3727 H 357.847 2.00672 6.24028 0
M  V30 3728 H 357.367 0.312546 5.98985 0
M  V30 3729 H 359.046 0.711114 6.4308 0
M  V30 3730 N 359.178 -1.55987 0.224894 0
M  V30 3731 C 360.589 -1.84553 -0.282345 0
M  V30 3732 C 360.94 -1.14634 -1.59227 0
M  V30 3733 O 360.065 -0.417155 -2.12341 0
M  V30 3734 C 360.66 -3.348 -0.519062 0
M  V30 3735 C 359.219 -3.63671 -0.970604 0
M  V30 3736 C 358.366 -2.77277 -0.0355261 0
M  V30 3737 H 361.317 -1.52245 0.448006 0
M  V30 3738 H 361.338 -3.55187 -1.36463 0
M  V30 3739 H 360.85 -3.8566 0.43449 0
M  V30 3740 H 358.951 -3.1827 -1.9374 0
M  V30 3741 H 359.064 -4.71631 -0.842698 0
M  V30 3742 H 357.428 -2.48846 -0.542927 0
M  V30 3743 H 358.211 -3.30937 0.913003 0
M  V30 3744 N 360.656 0.0484629 -1.57525 0
M  V30 3745 C 361.586 1.0549 -2.08313 0
M  V30 3746 C 362.567 1.38929 -0.981463 0
M  V30 3747 O 363.752 1.48151 -1.25558 0
M  V30 3748 C 360.882 2.36162 -2.54646 0
M  V30 3749 C 359.836 2.17016 -3.68901 0
M  V30 3750 C 359.162 3.53278 -4.01371 0
M  V30 3751 C 360.462 1.57219 -4.98076 0
M  V30 3752 H 362.156 0.632195 -2.92649 0
M  V30 3753 H 359.702 0.302654 -1.40784 0
M  V30 3754 H 361.655 3.06882 -2.88793 0
M  V30 3755 H 360.379 2.80456 -1.67368 0
M  V30 3756 H 359.038 1.48733 -3.35073 0
M  V30 3757 H 358.686 3.95185 -3.11188 0
M  V30 3758 H 358.386 3.41299 -4.78318 0
M  V30 3759 H 359.91 4.25391 -4.38035 0
M  V30 3760 H 361.324 2.17832 -5.30304 0
M  V30 3761 H 359.721 1.55871 -5.79503 0
M  V30 3762 H 360.791 0.535956 -4.81929 0
M  V30 3763 N 362.134 1.5431 0.320358 0
M  V30 3764 C 363.359 1.76954 1.08175 0
M  V30 3765 C 363.784 0.518193 1.80821 0
M  V30 3766 O 363.142 -0.530411 1.73368 0
M  V30 3767 C 363.19 2.96451 2.05303 0
M  V30 3768 O 362.294 2.68221 3.13259 0
M  V30 3769 H 361.635 0.586275 0.311733 0
M  V30 3770 H 364.165 2.01342 0.363676 0
M  V30 3771 H 364.175 3.23887 2.48116 0
M  V30 3772 H 362.85 3.87196 1.51829 0
M  V30 3773 H 361.427 2.51744 2.75099 0
M  V30 3774 N 363.613 -0.582584 1.46437 0
M  V30 3775 C 364.861 -1.33814 1.51453 0
M  V30 3776 C 365.182 -1.94277 0.167792 0
M  V30 3777 O 364.452 -1.78566 -0.805677 0
M  V30 3778 H 363.032 -0.496838 0.557818 0
M  V30 3779 H 365.694 -0.682281 1.82568 0
M  V30 3780 H 364.79 -2.14479 2.26728 0
M  V30 3781 N 365.091 -1.34144 -0.827227 0
M  V30 3782 C 366.339 -1.26009 -1.58007 0
M  V30 3783 C 366.66 0.170971 -1.94249 0
M  V30 3784 O 365.93 1.10256 -1.61927 0
M  V30 3785 H 364.51 -0.463414 -0.585881 0
M  V30 3786 H 367.172 -1.68005 -0.987951 0
M  V30 3787 H 366.268 -1.86187 -2.50481 0
M  V30 3788 N 366.569 1.04691 -1.17803 0
M  V30 3789 C 367.499 2.14494 -0.92275 0
M  V30 3790 C 368.48 1.69546 0.137179 0
M  V30 3791 O 369.665 1.94195 -0.0141108 0
M  V30 3792 C 366.795 3.44491 -0.440803 0
M  V30 3793 C 365.749 4.03031 -1.4405 0
M  V30 3794 C 365.075 5.28432 -0.81631 0
M  V30 3795 C 366.375 4.39932 -2.81527 0
M  V30 3796 H 368.069 2.36107 -1.84103 0
M  V30 3797 H 365.615 1.1347 -0.886599 0
M  V30 3798 H 367.568 4.2066 -0.249602 0
M  V30 3799 H 366.292 3.22546 0.513025 0
M  V30 3800 H 364.951 3.28937 -1.61853 0
M  V30 3801 H 364.599 5.02792 0.144511 0
M  V30 3802 H 364.299 5.68559 -1.48371 0
M  V30 3803 H 365.823 6.07284 -0.635496 0
M  V30 3804 H 367.237 5.07113 -2.67412 0
M  V30 3805 H 365.634 4.9109 -3.44892 0
M  V30 3806 H 366.704 3.50045 -3.35554 0
M  V30 3807 N 368.047 0.979072 1.23499 0
M  V30 3808 C 369.324 0.563674 1.87302 0
M  V30 3809 C 369.704 -0.959199 1.88049 0
M  V30 3810 O 369.052 -1.83535 1.36114 0
M  V30 3811 C 369.262 1.16822 3.28867 0
M  V30 3812 C 370.61 1.26014 4.0547 0
M  V30 3813 O 371.634 1.12158 3.38082 0
M  V30 3814 O 370.493 1.48044 5.26066 0
M  V30 3815 H 367.587 0.189602 0.804972 0
M  V30 3816 H 370.133 1.07407 1.31384 0
M  V30 3817 H 368.905 2.21049 3.22883 0
M  V30 3818 H 368.528 0.642564 3.92373 0
M  V30 3819 N 369.525 -1.3858 0.750561 0
M  V30 3820 C 370.75 -2.04997 0.314812 0
M  V30 3821 C 371.175 -1.56235 -1.04749 0
M  V30 3822 O 370.533 -0.712981 -1.66692 0
M  V30 3823 C 370.581 -3.58961 0.343415 0
M  V30 3824 O 369.685 -4.07025 -0.663628 0
M  V30 3825 H 369.026 -0.649081 0.139962 0
M  V30 3826 H 371.556 -1.77313 1.02084 0
M  V30 3827 H 371.566 -4.07542 0.193233 0
M  V30 3828 H 370.241 -3.93811 1.33738 0
M  V30 3829 H 368.818 -3.6982 -0.478307 0
M  V30 3830 N 371.003 -0.499398 -1.49478 0
M  V30 3831 C 372.228 0.044722 -2.07352 0
M  V30 3832 C 372.653 1.30207 -1.35749 0
M  V30 3833 O 372.011 1.76516 -0.413732 0
M  V30 3834 C 372.059 0.283013 -3.59488 0
M  V30 3835 O 371.163 1.35804 -3.89398 0
M  V30 3836 H 370.504 -0.0255147 -0.66351 0
M  V30 3837 H 373.034 -0.698561 -1.92305 0
M  V30 3838 H 373.044 0.515007 -4.04737 0
M  V30 3839 H 371.719 -0.635636 -4.11014 0
M  V30 3840 H 370.296 1.11113 -3.55961 0
M  V30 3841 N 372.481 1.55866 -0.233164 0
M  V30 3842 C 373.411 2.23783 0.666599 0
M  V30 3843 C 374.392 1.21343 1.19205 0
M  V30 3844 O 375.577 1.4996 1.23392 0
M  V30 3845 C 372.707 2.92671 1.86978 0
M  V30 3846 C 371.661 4.01682 1.47768 0
M  V30 3847 C 370.987 4.57926 2.76058 0
M  V30 3848 C 372.287 5.18126 0.658993 0
M  V30 3849 H 373.981 2.99232 0.100306 0
M  V30 3850 H 371.527 1.43924 0.046804 0
M  V30 3851 H 373.48 3.3888 2.50476 0
M  V30 3852 H 372.204 2.14688 2.46123 0
M  V30 3853 H 370.863 3.56222 0.866106 0
M  V30 3854 H 370.511 3.76659 3.33372 0
M  V30 3855 H 370.211 5.31505 2.50552 0
M  V30 3856 H 371.735 5.06859 3.40479 0
M  V30 3857 H 373.149 5.60644 1.19795 0
M  V30 3858 H 371.546 5.98009 0.500552 0
M  V30 3859 H 372.616 4.83763 -0.331856 0
M  V30 3860 N 373.959 -0.0401083 1.57549 0
M  V30 3861 C 375.205 -0.734211 1.89043 0
M  V30 3862 C 375.538 -1.75591 0.829535 0
M  V30 3863 O 374.813 -1.93868 -0.156706 0
M  V30 3864 C 375.096 -1.41374 3.31188 0
M  V30 3865 C 374.949 -0.406299 4.47961 0
M  V30 3866 C 376.268 -2.35061 3.72068 0
M  V30 3867 H 373.387 -0.265447 0.687537 0
M  V30 3868 H 376.029 0.00294087 1.9 0
M  V30 3869 H 374.179 -2.04206 3.30503 0
M  V30 3870 H 375.851 0.219255 4.60779 0
M  V30 3871 H 374.094 0.275485 4.32924 0
M  V30 3872 H 374.765 -0.920022 5.44279 0
M  V30 3873 H 377.241 -1.82282 3.74049 0
M  V30 3874 H 376.117 -2.79593 4.72355 0
M  V30 3875 H 376.378 -3.21258 3.0372 0
M  V30 3876 N 375.437 -1.54477 -0.31217 0
M  V30 3877 C 376.665 -1.77205 -1.068 0
M  V30 3878 C 377.08 -0.526114 -1.81321 0
M  V30 3879 O 376.437 0.503647 -1.75413 0
M  V30 3880 C 376.488 -2.97253 -2.05725 0
M  V30 3881 O 376.209 -4.1703 -1.34228 0
M  V30 3882 C 377.71 -3.32281 -2.93435 0
M  V30 3883 H 374.93 -0.591287 -0.317208 0
M  V30 3884 H 377.474 -2.01398 -0.354834 0
M  V30 3885 H 375.629 -2.753 -2.72559 0
M  V30 3886 H 376.043 -4.84636 -2.00571 0
M  V30 3887 H 377.517 -4.19551 -3.58721 0
M  V30 3888 H 377.994 -2.49945 -3.61143 0
M  V30 3889 H 378.6 -3.56353 -2.32147 0
M  V30 3890 N 376.915 0.57481 -1.46744 0
M  V30 3891 C 377.878 1.66533 -1.57478 0
M  V30 3892 C 378.878 1.54338 -0.451263 0
M  V30 3893 O 380.068 1.58814 -0.715813 0
M  V30 3894 C 377.2 3.05999 -1.50259 0
M  V30 3895 H 378.393 1.58372 -2.54673 0
M  V30 3896 H 375.946 0.793301 -1.34672 0
M  V30 3897 H 376.681 3.19709 -0.543725 0
M  V30 3898 H 376.466 3.16259 -2.31781 0
M  V30 3899 H 377.956 3.8537 -1.60872 0
M  V30 3900 N 378.394 1.34581 0.820102 0
M  V30 3901 C 379.324 1.29038 1.94606 0
M  V30 3902 C 380.305 0.1673 1.69275 0
M  V30 3903 O 381.49 0.360112 1.90832 0
M  V30 3904 C 378.62 1.04793 3.31113 0
M  V30 3905 C 377.574 2.13597 3.70891 0
M  V30 3906 C 376.9 1.74537 5.05412 0
M  V30 3907 C 378.2 3.55451 3.8269 0
M  V30 3908 H 379.894 2.23248 1.99501 0
M  V30 3909 H 377.44 1.0747 0.958449 0
M  V30 3910 H 379.393 0.995592 4.0947 0
M  V30 3911 H 378.117 0.0702565 3.26524 0
M  V30 3912 H 376.776 2.17905 2.9481 0
M  V30 3913 H 376.424 0.754226 4.97313 0
M  V30 3914 H 376.124 2.47361 5.32997 0
M  V30 3915 H 377.648 1.70803 5.86224 0
M  V30 3916 H 379.062 3.5354 4.51312 0
M  V30 3917 H 377.459 4.26922 4.21732 0
M  V30 3918 H 378.529 3.92587 2.84611 0
M  V30 3919 N 379.872 -1.04064 1.18357 0
M  V30 3920 C 380.835 -2.10243 0.912707 0
M  V30 3921 C 381.835 -1.60477 -0.101928 0
M  V30 3922 O 383.025 -1.73703 0.131517 0
M  V30 3923 C 380.157 -3.38893 0.369387 0
M  V30 3924 H 381.35 -2.35706 1.85426 0
M  V30 3925 H 378.903 -1.20489 0.995594 0
M  V30 3926 H 379.638 -3.19094 -0.578776 0
M  V30 3927 H 379.423 -3.76331 1.1008 0
M  V30 3928 H 380.913 -4.17128 0.198575 0
M  V30 3929 N 381.35 -0.985608 -1.22978 0
M  V30 3930 C 382.575 -0.675254 -1.961 0
M  V30 3931 C 383 0.752154 -1.72407 0
M  V30 3932 O 382.358 1.5131 -0.998751 0
M  V30 3933 C 382.406 -0.977899 -3.47087 0
M  V30 3934 O 381.51 -0.072685 -4.12336 0
M  V30 3935 H 380.851 -0.253443 -0.613728 0
M  V30 3936 H 383.381 -1.32061 -1.56272 0
M  V30 3937 H 383.391 -0.916739 -3.97567 0
M  V30 3938 H 382.066 -2.01807 -3.63657 0
M  V30 3939 H 380.643 -0.188703 -3.72422 0
M  V30 3940 N 382.828 1.3818 -0.7579 0
M  V30 3941 C 384.244 1.5353 -0.435972 0
M  V30 3942 C 384.444 1.71961 1.05032 0
M  V30 3943 O 383.5 1.73307 1.83633 0
M  V30 3944 C 384.813 2.73989 -1.23898 0
M  V30 3945 C 386.361 2.87841 -1.22949 0
M  V30 3946 C 386.836 4.11266 -2.01554 0
M  V30 3947 N 388.327 4.18352 -1.98837 0
M  V30 3948 C 389.062 5.12856 -2.5645 0
M  V30 3949 N 388.558 6.13005 -3.22794 0
M  V30 3950 N 390.351 5.05238 -2.46356 0
M  V30 3951 H 382.502 1.24467 -1.7211 0
M  V30 3952 H 384.765 0.604982 -0.729864 0
M  V30 3953 H 384.471 2.66789 -2.29165 0
M  V30 3954 H 384.345 3.67294 -0.858764 0
M  V30 3955 H 386.732 2.9452 -0.184854 0
M  V30 3956 H 386.813 1.95534 -1.64924 0
M  V30 3957 H 386.457 4.05349 -3.06031 0
M  V30 3958 H 386.387 5.02661 -1.5697 0
M  V30 3959 H 388.878 3.46628 -1.50524 0
M  V30 3960 H 389.191 6.81619 -3.64165 0
M  V30 3961 H 387.536 6.13325 -3.2689 0
M  V30 3962 H 390.727 4.25938 -1.9415 0
M  V30 3963 H 390.9 5.78707 -2.91552 0
M  V30 3964 N 384.306 0.507319 1.49211 0
M  V30 3965 C 385.256 -0.287112 2.26185 0
M  V30 3966 C 386.24 -0.929983 1.31302 0
M  V30 3967 O 387.432 -0.836538 1.55984 0
M  V30 3968 C 384.561 -1.34718 3.15763 0
M  V30 3969 C 383.647 -0.710235 4.18111 0
M  V30 3970 N 384.038 0.190836 5.0544 0
M  V30 3971 C 382.336 -0.97009 4.35322 0
M  V30 3972 C 383.037 0.55606 5.79036 0
M  V30 3973 N 382.013 -0.0775232 5.43545 0
M  V30 3974 H 385.815 0.406445 2.91076 0
M  V30 3975 H 383.329 0.323814 1.59139 0
M  V30 3976 H 385.326 -1.92982 3.69545 0
M  V30 3977 H 383.986 -2.04235 2.52424 0
M  V30 3978 H 384.997 0.562047 5.14841 0
M  V30 3979 H 381.674 -1.65753 3.83187 0
M  V30 3980 H 383.064 1.2936 6.5933 0
M  V30 3981 N 385.784 -1.5574 0.241426 0
M  V30 3982 C 387.031 -1.9881 -0.384836 0
M  V30 3983 C 387.359 -1.12947 -1.58346 0
M  V30 3984 O 386.614 -0.178993 -1.9488 0
M  V30 3985 C 386.913 -3.47308 -0.843317 0
M  V30 3986 C 386.579 -4.50223 0.246946 0
M  V30 3987 C 385.241 -4.78088 0.546399 0
M  V30 3988 C 387.593 -5.11841 0.983282 0
M  V30 3989 C 384.921 -5.64846 1.58636 0
M  V30 3990 C 387.273 -5.99727 2.01272 0
M  V30 3991 C 385.937 -6.25927 2.31888 0
M  V30 3992 H 385.207 -0.727496 -0.140821 0
M  V30 3993 H 387.854 -1.8831 0.348106 0
M  V30 3994 H 386.159 -3.55112 -1.65537 0
M  V30 3995 H 387.856 -3.78017 -1.33806 0
M  V30 3996 H 384.446 -4.286 0.00340639 0
M  V30 3997 H 388.63 -4.90366 0.765182 0
M  V30 3998 H 383.886 -5.83403 1.82896 0
M  V30 3999 H 388.06 -6.46517 2.58823 0
M  V30 4000 H 385.687 -6.92949 3.12611 0
M  V30 4001 N 387.262 0.0317525 -1.57568 0
M  V30 4002 C 388.209 1.0332 -2.06382 0
M  V30 4003 C 389.179 1.36082 -0.952414 0
M  V30 4004 O 390.364 1.46466 -1.2228 0
M  V30 4005 C 387.504 2.32989 -2.54578 0
M  V30 4006 C 386.617 2.0641 -3.79498 0
M  V30 4007 C 385.752 3.2993 -4.16317 0
M  V30 4008 C 384.791 2.98893 -5.34162 0
M  V30 4009 N 383.928 4.14857 -5.66426 0
M  V30 4010 H 388.768 0.609982 -2.9169 0
M  V30 4011 H 386.305 0.289573 -1.44222 0
M  V30 4012 H 388.263 3.0875 -2.80587 0
M  V30 4013 H 386.893 2.73039 -1.7219 0
M  V30 4014 H 385.945 1.21158 -3.6059 0
M  V30 4015 H 387.257 1.79513 -4.65378 0
M  V30 4016 H 386.411 4.1406 -4.4344 0
M  V30 4017 H 385.15 3.59938 -3.29083 0
M  V30 4018 H 384.155 2.13164 -5.06795 0
M  V30 4019 H 385.38 2.70165 -6.23047 0
M  V30 4020 H 383.326 4.44821 -4.82151 0
M  V30 4021 H 383.243 3.91374 -6.4681 0
M  V30 4022 H 384.511 4.99868 -5.98124 0
M  V30 4023 N 388.74 1.54641 0.303973 0
M  V30 4024 C 389.687 1.85386 1.37479 0
M  V30 4025 C 390.657 0.702528 1.50512 0
M  V30 4026 O 391.842 0.950867 1.65418 0
M  V30 4027 C 388.982 2.10413 2.73533 0
M  V30 4028 C 388.095 3.38049 2.68974 0
M  V30 4029 C 387.23 3.52934 3.97002 0
M  V30 4030 C 386.269 4.74373 3.86829 0
M  V30 4031 N 385.406 4.8608 5.06627 0
M  V30 4032 H 390.246 2.76732 1.1056 0
M  V30 4033 H 387.783 1.37034 0.534805 0
M  V30 4034 H 389.741 2.22919 3.52652 0
M  V30 4035 H 388.371 1.22338 2.98719 0
M  V30 4036 H 387.423 3.3418 1.81736 0
M  V30 4037 H 388.735 4.27288 2.57346 0
M  V30 4038 H 387.889 3.65088 4.84557 0
M  V30 4039 H 386.628 2.61824 4.1146 0
M  V30 4040 H 385.633 4.62255 2.97658 0
M  V30 4041 H 386.858 5.66888 3.73918 0
M  V30 4042 H 384.804 3.97891 5.21554 0
M  V30 4043 H 384.721 5.69315 4.9741 0
M  V30 4044 H 385.989 5.02587 5.95841 0
M  V30 4045 N 390.218 -0.567019 1.47046 0
M  V30 4046 C 391.148 -1.68482 1.61667 0
M  V30 4047 C 392.129 -1.6358 0.466418 0
M  V30 4048 O 393.314 -1.81354 0.694574 0
M  V30 4049 C 390.444 -3.07124 1.62148 0
M  V30 4050 C 389.398 -3.26867 2.76301 0
M  V30 4051 C 388.724 -4.66196 2.61849 0
M  V30 4052 C 390.024 -3.13186 4.17986 0
M  V30 4053 H 391.718 -1.56502 2.5524 0
M  V30 4054 H 389.264 -0.751486 1.22836 0
M  V30 4055 H 391.217 -3.8516 1.70968 0
M  V30 4056 H 389.941 -3.2004 0.651287 0
M  V30 4057 H 388.6 -2.51237 2.66975 0
M  V30 4058 H 388.248 -4.75898 1.62879 0
M  V30 4059 H 387.948 -4.80356 3.38425 0
M  V30 4060 H 389.472 -5.46379 2.72584 0
M  V30 4061 H 390.886 -3.81049 4.2834 0
M  V30 4062 H 389.283 -3.3886 4.95272 0
M  V30 4063 H 390.353 -2.10057 4.3704 0
M  V30 4064 N 391.696 -1.35014 -0.812953 0
M  V30 4065 C 392.644 -1.27435 -1.94585 0
M  V30 4066 C 393.638 -0.170494 -1.6854 0
M  V30 4067 O 394.844 -0.336085 -1.76835 0
M  V30 4068 H 391.219 -0.396144 -0.639198 0
M  V30 4069 H 393.19 -2.23158 -1.98098 0
M  V30 4070 C 391.939 -1.05677 -3.31252 0
M  V30 4071 H 391.262 -1.89853 -3.51846 0
M  V30 4072 H 392.702 -1.04413 -4.10943 0
M  V30 4073 C 391.161 0.239615 -3.36047 0
M  V30 4074 O 391.691 1.23759 -3.8216 0
M  V30 4075 N 389.897 0.276186 -2.89285 0
M  V30 4076 H 389.444 -0.53653 -2.51951 0
M  V30 4077 H 389.402 1.14332 -2.92875 0
M  V30 4078 N 393.175 1.03435 -1.18907 0
M  V30 4079 C 394.403 1.80381 -1.01342 0
M  V30 4080 C 394.818 1.83649 0.438005 0
M  V30 4081 O 394.175 1.27655 1.30424 0
M  V30 4082 C 394.226 3.25689 -1.56873 0
M  V30 4083 O 393.947 3.22673 -2.96334 0
M  V30 4084 C 395.448 4.19255 -1.44014 0
M  V30 4085 H 392.668 0.56784 -0.35749 0
M  V30 4086 H 395.212 1.30317 -1.576 0
M  V30 4087 H 393.367 3.72962 -1.04777 0
M  V30 4088 H 393.781 4.13748 -3.22355 0
M  V30 4089 H 395.255 5.19123 -1.87657 0
M  V30 4090 H 395.732 4.37467 -0.389815 0
M  V30 4091 H 396.338 3.77851 -1.95214 0
M  V30 4092 N 394.653 0.992116 1.22453 0
M  V30 4093 C 395.883 0.684949 1.94915 0
M  V30 4094 C 396.291 -0.754292 1.73514 0
M  V30 4095 O 395.634 -1.52056 1.03076 0
M  V30 4096 C 395.696 0.910054 3.47791 0
M  V30 4097 C 395.36 2.33363 3.92926 0
M  V30 4098 C 396.357 3.31308 4.00663 0
M  V30 4099 C 394.042 2.66785 4.25595 0
M  V30 4100 C 396.036 4.6075 4.40441 0
M  V30 4101 C 393.723 3.96446 4.65053 0
M  V30 4102 C 394.721 4.9324 4.72444 0
M  V30 4103 O 394.409 6.20584 5.1101 0
M  V30 4104 H 394.141 0.25258 0.62704 0
M  V30 4105 H 396.695 1.32939 1.56577 0
M  V30 4106 H 394.925 0.208443 3.86138 0
M  V30 4107 H 396.614 0.598257 4.01467 0
M  V30 4108 H 397.38 3.0682 3.75615 0
M  V30 4109 H 393.259 1.92148 4.19047 0
M  V30 4110 H 396.803 5.363 4.46126 0
M  V30 4111 H 392.7 4.20724 4.89552 0
M  V30 4112 H 393.468 6.24509 5.29085 0
M  V30 4113 N 396.131 -1.37776 0.765217 0
M  V30 4114 C 397.356 -2.04651 0.336537 0
M  V30 4115 C 397.781 -1.57337 -1.03086 0
M  V30 4116 O 397.139 -0.730621 -1.65927 0
M  V30 4117 C 397.187 -3.58577 0.381468 0
M  V30 4118 O 396.291 -4.07706 -0.62042 0
M  V30 4119 H 395.632 -0.64756 0.146838 0
M  V30 4120 H 398.162 -1.76221 1.03959 0
M  V30 4121 H 398.172 -4.07314 0.236448 0
M  V30 4122 H 396.847 -3.9237 1.37907 0
M  V30 4123 H 395.424 -3.70306 -0.439056 0
M  V30 4124 N 397.609 -0.515225 -1.4894 0
M  V30 4125 C 398.858 0.0261361 -2.01683 0
M  V30 4126 C 399.171 1.36719 -1.39883 0
M  V30 4127 O 400.377 1.99606 -1.84037 0
M  V30 4128 C 398.833 0.0970111 -3.59769 0
M  V30 4129 C 398.441 -1.23825 -4.30548 0
M  V30 4130 C 400.185 0.587981 -4.20408 0
M  V30 4131 C 398.092 -1.12877 -5.80528 0
M  V30 4132 H 397.022 0.0135398 -0.753878 0
M  V30 4133 H 399.673 -0.656787 -1.71343 0
M  V30 4134 H 398.055 0.844694 -3.86886 0
M  V30 4135 H 399.229 -2.00034 -4.15118 0
M  V30 4136 H 397.544 -1.66379 -3.81716 0
M  V30 4137 H 400.141 0.68763 -5.3026 0
M  V30 4138 H 400.484 1.59026 -3.84729 0
M  V30 4139 H 401.017 -0.103582 -3.97665 0
M  V30 4140 H 397.756 -2.10575 -6.20756 0
M  V30 4141 H 397.276 -0.407799 -5.98412 0
M  V30 4142 H 398.955 -0.813332 -6.41868 0
M  V30 4143 N 399.087 1.5561 -0.249682 0
M  V30 4144 C 400.335 1.98618 0.373548 0
M  V30 4145 C 400.656 1.13919 1.58264 0
M  V30 4146 O 399.926 0.222637 1.94631 0
M  V30 4147 H 398.506 0.733571 0.141006 0
M  V30 4148 H 401.168 1.91748 -0.349117 0
M  V30 4149 H 400.264 3.04584 0.680796 0
M  V30 4150 N 400.565 -0.0233959 1.57583 0
M  V30 4151 C 401.793 -0.724682 1.93794 0
M  V30 4152 C 402.208 -1.68588 0.849912 0
M  V30 4153 O 401.565 -1.81676 -0.173204 0
M  V30 4154 C 401.616 -1.47684 3.29957 0
M  V30 4155 O 401.337 -0.554222 4.3458 0
M  V30 4156 C 402.838 -2.27477 3.80485 0
M  V30 4157 H 400.058 -0.203317 0.639455 0
M  V30 4158 H 402.602 0.0207653 2.04489 0
M  V30 4159 H 400.757 -2.17412 3.20641 0
M  V30 4160 H 401.171 -1.08232 5.13212 0
M  V30 4161 H 402.645 -2.7564 4.78254 0
M  V30 4162 H 403.122 -3.09144 3.11972 0
M  V30 4163 H 403.728 -1.62813 3.92902 0
M  V30 4164 N 402.043 -1.548 -0.295768 0
M  V30 4165 C 402.953 -1.89177 -1.38742 0
M  V30 4166 C 403.969 -0.786481 -1.55211 0
M  V30 4167 O 405.145 -1.08344 -1.69775 0
M  V30 4168 C 402.21 -2.13663 -2.73036 0
M  V30 4169 C 401.271 -3.37349 -2.65508 0
M  V30 4170 C 400.504 -3.60658 -3.93398 0
M  V30 4171 O 400.727 -2.86882 -4.93006 0
M  V30 4172 O 399.661 -4.54179 -3.94975 0
M  V30 4173 H 403.487 -2.82059 -1.12589 0
M  V30 4174 H 401.072 -1.41056 -0.492295 0
M  V30 4175 H 402.954 -2.3094 -3.52484 0
M  V30 4176 H 401.629 -1.23967 -2.99022 0
M  V30 4177 H 400.536 -3.25431 -1.84514 0
M  V30 4178 H 401.869 -4.27192 -2.44474 0
M  V30 4179 N 403.521 0.559213 -1.47345 0
M  V30 4180 C 404.451 1.67622 -1.62558 0
M  V30 4181 C 405.432 1.63331 -0.475087 0
M  V30 4182 O 406.617 1.80983 -0.704182 0
M  V30 4183 C 403.747 3.0626 -1.63774 0
M  V30 4184 C 402.701 3.25397 -2.7803 0
M  V30 4185 C 402.027 4.64801 -2.64318 0
M  V30 4186 C 403.327 3.10965 -4.19641 0
M  V30 4187 H 405.021 1.55146 -2.56067 0
M  V30 4188 H 402.567 0.744961 -1.23233 0
M  V30 4189 H 404.52 3.84247 -1.73008 0
M  V30 4190 H 403.244 3.1969 -0.66825 0
M  V30 4191 H 401.903 2.49817 -2.68304 0
M  V30 4192 H 401.551 4.75028 -1.65401 0
M  V30 4193 H 401.251 4.78555 -3.40968 0
M  V30 4194 H 402.775 5.44926 -2.75478 0
M  V30 4195 H 404.189 3.78772 -4.30354 0
M  V30 4196 H 402.586 3.36229 -4.97062 0
M  V30 4197 H 403.656 2.07736 -4.38148 0
M  V30 4198 N 404.999 1.35443 0.805782 0
M  V30 4199 C 406.224 1.32037 1.59941 0
M  V30 4200 C 406.649 -0.0994215 1.87837 0
M  V30 4201 O 406.007 -1.06648 1.46615 0
M  V30 4202 C 406.055 2.13354 2.90711 0
M  V30 4203 O 405.159 1.5148 3.83572 0
M  V30 4204 H 404.5 0.452666 0.485787 0
M  V30 4205 H 407.03 1.78496 1.00002 0
M  V30 4206 H 407.04 2.25338 3.40128 0
M  V30 4207 H 405.715 3.16572 2.69732 0
M  V30 4208 H 404.292 1.4834 3.42125 0
M  V30 4209 N 406.477 -1.02803 1.19454 0
M  V30 4210 C 407.425 -2.13213 0.929673 0
M  V30 4211 C 408.419 -1.69011 -0.114806 0
M  V30 4212 O 409.625 -1.79967 0.0345147 0
M  V30 4213 H 406 -0.69662 0.28324 0
M  V30 4214 H 407.971 -2.32744 1.86743 0
M  V30 4215 C 406.72 -3.4429 0.485797 0
M  V30 4216 H 406.043 -3.7872 1.28105 0
M  V30 4217 H 407.483 -4.22638 0.339582 0
M  V30 4218 C 405.942 -3.27258 -0.800244 0
M  V30 4219 O 406.472 -3.55967 -1.86146 0
M  V30 4220 N 404.678 -2.80545 -0.75781 0
M  V30 4221 H 404.225 -2.57382 0.106039 0
M  V30 4222 H 404.183 -2.6953 -1.61867 0
M  V30 4223 N 407.956 -0.998596 -1.21925 0
M  V30 4224 C 408.866 -0.562736 -2.27751 0
M  V30 4225 C 409.882 0.391203 -1.69545 0
M  V30 4226 O 411.058 0.256625 -1.99758 0
M  V30 4227 C 408.123 0.11012 -3.46525 0
M  V30 4228 C 407.184 -0.887495 -4.20026 0
M  V30 4229 C 406.417 -0.246654 -5.3313 0
M  V30 4230 O 406.64 0.958088 -5.62296 0
M  V30 4231 O 405.574 -0.954374 -5.94286 0
M  V30 4232 H 409.4 -1.44329 -2.67213 0
M  V30 4233 H 406.985 -0.767135 -1.28201 0
M  V30 4234 H 408.867 0.486756 -4.18579 0
M  V30 4235 H 407.542 0.965154 -3.08976 0
M  V30 4236 H 406.449 -1.31517 -3.5022 0
M  V30 4237 H 407.782 -1.71191 -4.6147 0
M  V30 4238 N 409.434 1.37368 -0.772513 0
M  V30 4239 C 410.681 1.99673 -0.337182 0
M  V30 4240 C 411.009 1.61324 1.0865 0
M  V30 4241 O 410.264 0.851377 1.7621 0
M  V30 4242 C 410.563 3.54817 -0.428876 0
M  V30 4243 C 410.229 4.12936 -1.81092 0
M  V30 4244 C 408.891 4.28523 -2.1891 0
M  V30 4245 C 411.243 4.44801 -2.71664 0
M  V30 4246 C 408.571 4.73277 -3.46735 0
M  V30 4247 C 410.923 4.90981 -3.98899 0
M  V30 4248 C 409.587 5.04773 -4.36761 0
M  V30 4249 H 408.857 0.730656 -0.123384 0
M  V30 4250 H 411.504 1.64124 -0.986686 0
M  V30 4251 H 409.809 3.90618 0.304167 0
M  V30 4252 H 411.506 4.00933 -0.0733334 0
M  V30 4253 H 408.096 4.01233 -1.50699 0
M  V30 4254 H 412.28 4.32344 -2.43706 0
M  V30 4255 H 407.536 4.82142 -3.75964 0
M  V30 4256 H 411.71 5.14603 -4.69208 0
M  V30 4257 H 409.337 5.39211 -5.35868 0
M  V30 4258 N 410.912 0.523116 1.48665 0
M  V30 4259 C 411.822 -0.247406 2.33292 0
M  V30 4260 C 412.838 -0.945769 1.46052 0
M  V30 4261 O 414.014 -0.922253 1.79043 0
M  V30 4262 C 411.079 -1.28487 3.22012 0
M  V30 4263 C 410.14 -0.597592 4.2512 0
M  V30 4264 C 409.373 -1.58563 5.09601 0
M  V30 4265 O 409.596 -2.81763 4.95949 0
M  V30 4266 O 408.53 -1.12879 5.91221 0
M  V30 4267 H 412.356 0.445869 3.00409 0
M  V30 4268 H 409.941 0.284128 1.46673 0
M  V30 4269 H 411.823 -1.88459 3.7691 0
M  V30 4270 H 410.498 -1.96068 2.57564 0
M  V30 4271 H 409.405 0.0424407 3.74076 0
M  V30 4272 H 410.738 0.0361517 4.92187 0
M  V30 4273 N 412.39 -1.55475 0.257931 0
M  V30 4274 C 413.637 -1.99207 -0.363728 0
M  V30 4275 C 413.965 -1.1462 -1.57139 0
M  V30 4276 O 413.22 -0.199653 -1.94679 0
M  V30 4277 C 413.519 -3.48183 -0.806433 0
M  V30 4278 C 413.185 -4.49936 0.294684 0
M  V30 4279 C 411.847 -4.77481 0.597076 0
M  V30 4280 C 414.199 -5.10769 1.03751 0
M  V30 4281 C 411.527 -5.63132 1.64618 0
M  V30 4282 C 413.879 -5.97558 2.07622 0
M  V30 4283 C 412.543 -6.23432 2.38514 0
M  V30 4284 H 411.813 -0.728949 -0.133097 0
M  V30 4285 H 414.46 -1.8793 0.368059 0
M  V30 4286 H 412.765 -3.56848 -1.61761 0
M  V30 4287 H 414.462 -3.79415 -1.29789 0
M  V30 4288 H 411.052 -4.28572 0.0488649 0
M  V30 4289 H 415.236 -4.89527 0.817149 0
M  V30 4290 H 410.492 -5.8143 1.89074 0
M  V30 4291 H 414.666 -6.43735 2.65666 0
M  V30 4292 H 412.293 -6.89594 3.19943 0
M  V30 4293 N 413.868 0.0150385 -1.57593 0
M  V30 4294 C 415.093 0.718067 -1.94573 0
M  V30 4295 C 415.518 1.6734 -0.859005 0
M  V30 4296 O 414.876 1.80362 0.184147 0
M  V30 4297 C 414.924 1.43918 -3.30636 0
M  V30 4298 O 414.028 2.55299 -3.23876 0
M  V30 4299 H 413.369 0.192125 -0.635597 0
M  V30 4300 H 415.899 -0.0336708 -2.04572 0
M  V30 4301 H 415.909 1.80598 -3.65853 0
M  V30 4302 H 414.584 0.738619 -4.09289 0
M  V30 4303 H 413.161 2.21058 -3.00312 0
M  V30 4304 N 415.346 1.54954 0.287554 0
M  V30 4305 C 416.278 1.83224 1.37701 0
M  V30 4306 C 417.291 0.715898 1.46215 0
M  V30 4307 O 418.48 0.993565 1.48292 0
M  V30 4308 C 415.58 1.96723 2.75959 0
M  V30 4309 C 414.753 3.27253 2.90215 0
M  V30 4310 C 413.812 3.30998 4.09056 0
M  V30 4311 O 412.838 4.04457 4.00503 0
M  V30 4312 N 414.04 2.57353 5.20336 0
M  V30 4313 H 416.805 2.77254 1.138 0
M  V30 4314 H 414.366 1.54694 0.477652 0
M  V30 4315 H 416.358 1.96615 3.5373 0
M  V30 4316 H 414.928 1.09626 2.92747 0
M  V30 4317 H 414.148 3.40022 1.99447 0
M  V30 4318 H 415.436 4.13365 2.96659 0
M  V30 4319 H 414.834 1.97327 5.30169 0
M  V30 4320 H 413.391 2.62984 5.96391 0
M  V30 4321 N 416.824 -0.551391 1.4764 0
M  V30 4322 C 417.756 -1.67333 1.56628 0
M  V30 4323 C 418.769 -1.56398 0.452045 0
M  V30 4324 O 419.958 -1.6325 0.721926 0
M  V30 4325 C 417.058 -3.05841 1.45994 0
M  V30 4326 C 416.231 -3.42472 2.72088 0
M  V30 4327 C 415.29 -4.60168 2.55209 0
M  V30 4328 O 414.316 -4.64458 3.2904 0
M  V30 4329 N 415.518 -5.57024 1.63416 0
M  V30 4330 H 418.283 -1.60066 2.53375 0
M  V30 4331 H 415.844 -0.738169 1.44093 0
M  V30 4332 H 417.836 -3.8242 1.32428 0
M  V30 4333 H 416.406 -3.07302 0.573071 0
M  V30 4334 H 415.626 -2.55284 3.00373 0
M  V30 4335 H 416.914 -3.63723 3.55785 0
M  V30 4336 H 416.312 -5.56319 1.02594 0
M  V30 4337 H 414.869 -6.32906 1.558 0
M  V30 4338 N 418.302 -1.35869 -0.798587 0
M  V30 4339 C 419.548 -1.2978 -1.55836 0
M  V30 4340 C 419.881 0.125322 -1.93795 0
M  V30 4341 O 419.156 1.07658 -1.61987 0
M  V30 4342 C 419.439 -2.21188 -2.84162 0
M  V30 4343 C 419.292 -3.72155 -2.52628 0
M  V30 4344 C 420.611 -2.11545 -3.85923 0
M  V30 4345 H 417.73 -0.472769 -0.565383 0
M  V30 4346 H 420.372 -1.66341 -0.918192 0
M  V30 4347 H 418.522 -1.90139 -3.38791 0
M  V30 4348 H 420.194 -4.13682 -2.04121 0
M  V30 4349 H 418.437 -3.92042 -1.85704 0
M  V30 4350 H 419.108 -4.31511 -3.44242 0
M  V30 4351 H 421.584 -2.38855 -3.40716 0
M  V30 4352 H 420.46 -2.77688 -4.73477 0
M  V30 4353 H 420.721 -1.09987 -4.282 0
M  V30 4354 N 419.78 1.02168 -1.19998 0
M  V30 4355 C 420.743 2.08765 -0.94604 0
M  V30 4356 C 421.743 1.60618 0.0763846 0
M  V30 4357 O 422.933 1.73472 -0.159135 0
M  V30 4358 C 420.065 3.38262 -0.423255 0
M  V30 4359 H 421.258 2.32726 -1.89153 0
M  V30 4360 H 418.811 1.1889 -1.01464 0
M  V30 4361 H 419.546 3.19974 0.527938 0
M  V30 4362 H 419.331 3.74532 -1.16053 0
M  V30 4363 H 420.821 4.16759 -0.264911 0
M  V30 4364 N 421.258 1.00505 1.21394 0
M  V30 4365 C 422.535 0.603277 1.86064 0
M  V30 4366 C 422.915 -0.919095 1.90042 0
M  V30 4367 O 422.263 -1.80607 1.39977 0
M  V30 4368 C 422.473 1.23772 3.26315 0
M  V30 4369 C 423.821 1.34586 4.02705 0
M  V30 4370 O 424.845 1.19304 3.35626 0
M  V30 4371 O 423.704 1.59169 5.22807 0
M  V30 4372 H 420.798 0.206634 0.800769 0
M  V30 4373 H 423.344 1.1017 1.29076 0
M  V30 4374 H 422.116 2.27848 3.18121 0
M  V30 4375 H 421.739 0.725648 3.90922 0
M  V30 4376 N 422.737 -1.36956 0.779787 0
M  V30 4377 C 423.7 -2.2851 0.177662 0
M  V30 4378 C 424.7 -1.48393 -0.619377 0
M  V30 4379 O 425.89 -1.68505 -0.441785 0
M  V30 4380 C 423.022 -3.32428 -0.755279 0
M  V30 4381 H 424.215 -2.83269 0.984823 0
M  V30 4382 H 421.768 -1.46358 0.548544 0
M  V30 4383 H 422.503 -2.82808 -1.58714 0
M  V30 4384 H 422.288 -3.91659 -0.185817 0
M  V30 4385 H 423.778 -4.00824 -1.17174 0
M  V30 4386 N 424.215 -0.530993 -1.48385 0
M  V30 4387 C 425.145 0.219985 -2.32461 0
M  V30 4388 C 426.126 0.934111 -1.42156 0
M  V30 4389 O 427.311 0.919694 -1.71042 0
M  V30 4390 C 424.441 1.26674 -3.23375 0
M  V30 4391 C 423.395 0.67069 -4.22712 0
M  V30 4392 C 422.721 1.82017 -5.02766 0
M  V30 4393 C 424.021 -0.358268 -5.2107 0
M  V30 4394 H 425.715 -0.48187 -2.95497 0
M  V30 4395 H 423.261 -0.233182 -1.42099 0
M  V30 4396 H 425.214 1.80006 -3.81019 0
M  V30 4397 H 423.938 1.99818 -2.58341 0
M  V30 4398 H 422.597 0.158878 -3.66256 0
M  V30 4399 H 422.245 2.54002 -4.34157 0
M  V30 4400 H 421.945 1.42727 -5.70003 0
M  V30 4401 H 423.469 2.35725 -5.63264 0
M  V30 4402 H 424.883 0.0880081 -5.73232 0
M  V30 4403 H 423.28 -0.66861 -5.96364 0
M  V30 4404 H 424.35 -1.26367 -4.68145 0
M  V30 4405 N 425.693 1.55336 -0.266172 0
M  V30 4406 C 426.941 1.99003 0.35246 0
M  V30 4407 C 427.262 1.15591 1.57047 0
M  V30 4408 O 426.532 0.243268 1.94384 0
M  V30 4409 H 425.112 0.735025 0.133217 0
M  V30 4410 H 427.774 1.91367 -0.369434 0
M  V30 4411 H 426.87 3.05289 0.648453 0
M  V30 4412 N 427.171 -0.0066808 1.57599 0
M  V30 4413 C 428.399 -0.704087 1.94551 0
M  V30 4414 C 428.814 -1.67677 0.867746 0
M  V30 4415 O 428.171 -1.8185 -0.153925 0
M  V30 4416 C 428.222 -1.44177 3.31505 0
M  V30 4417 O 427.943 -0.508097 4.35144 0
M  V30 4418 C 429.444 -2.23429 3.82876 0
M  V30 4419 H 426.664 -0.196523 0.641576 0
M  V30 4420 H 429.208 0.042453 2.04456 0
M  V30 4421 H 427.363 -2.13999 3.22929 0
M  V30 4422 H 427.777 -1.02782 5.14331 0
M  V30 4423 H 429.251 -2.70552 4.8115 0
M  V30 4424 H 429.728 -3.05818 3.15233 0
M  V30 4425 H 430.334 -1.58636 3.94607 0
M  V30 4426 N 428.649 -1.55105 -0.279332 0
M  V30 4427 C 429.599 -1.83937 -1.34727 0
M  V30 4428 C 430.583 -0.69785 -1.44979 0
M  V30 4429 O 431.775 -0.95904 -1.48766 0
M  V30 4430 C 428.904 -2.1092 -2.70864 0
M  V30 4431 C 427.99 -3.31314 -2.64748 0
M  V30 4432 N 428.381 -4.51371 -2.2825 0
M  V30 4433 C 426.679 -3.33777 -2.95819 0
M  V30 4434 C 427.38 -5.33447 -2.31969 0
M  V30 4435 N 426.356 -4.71697 -2.7019 0
M  V30 4436 H 430.158 -2.74309 -1.05506 0
M  V30 4437 H 427.672 -1.54896 -0.487959 0
M  V30 4438 H 429.669 -2.2973 -3.47893 0
M  V30 4439 H 428.329 -1.21828 -3.00979 0
M  V30 4440 H 429.34 -4.77584 -2.00335 0
M  V30 4441 H 426.017 -2.54858 -3.30687 0
M  V30 4442 H 427.407 -6.39424 -2.06365 0
M  V30 4443 N 430.127 0.543554 -1.4793 0
M  V30 4444 C 431.077 1.64527 -1.57844 0
M  V30 4445 C 432.061 1.54869 -0.436408 0
M  V30 4446 O 433.253 1.63119 -0.687101 0
M  V30 4447 C 430.382 3.03281 -1.6086 0
M  V30 4448 C 429.468 3.18093 -2.80495 0
M  V30 4449 N 429.859 3.02923 -4.05057 0
M  V30 4450 C 428.157 3.49121 -2.77543 0
M  V30 4451 C 428.858 3.20791 -4.85251 0
M  V30 4452 N 427.834 3.47749 -4.17818 0
M  V30 4453 H 431.636 1.51388 -2.5191 0
M  V30 4454 H 429.15 0.748671 -1.44113 0
M  V30 4455 H 431.147 3.82403 -1.66054 0
M  V30 4456 H 429.807 3.17521 -0.678996 0
M  V30 4457 H 430.818 2.79966 -4.35705 0
M  V30 4458 H 427.495 3.69804 -1.93781 0
M  V30 4459 H 428.885 3.13915 -5.9406 0
M  V30 4460 N 431.605 1.3629 0.791371 0
M  V30 4461 C 432.537 1.26321 1.91248 0
M  V30 4462 C 433.55 0.18313 1.61767 0
M  V30 4463 O 434.739 0.437682 1.73051 0
M  V30 4464 C 431.839 0.925901 3.26007 0
M  V30 4465 C 431.012 2.10746 3.83281 0
M  V30 4466 C 430.071 1.74352 4.96475 0
M  V30 4467 O 429.097 2.46416 5.13096 0
M  V30 4468 N 430.299 0.676058 5.7655 0
M  V30 4469 H 433.064 2.22915 2.00323 0
M  V30 4470 H 430.625 1.29659 0.969546 0
M  V30 4471 H 432.617 0.663636 3.99222 0
M  V30 4472 H 431.187 0.0491581 3.12561 0
M  V30 4473 H 430.407 2.53264 3.02077 0
M  V30 4474 H 431.695 2.8969 4.18279 0
M  V30 4475 H 431.093 0.0776467 5.65647 0
M  V30 4476 H 429.65 0.473612 6.50077 0
M  V30 4477 N 433.083 -1.0153 1.20538 0
M  V30 4478 C 434.016 -2.09759 0.898695 0
M  V30 4479 C 434.994 -1.61909 -0.149733 0
M  V30 4480 O 436.178 -1.88486 -0.0230293 0
M  V30 4481 C 433.305 -3.36913 0.347512 0
M  V30 4482 C 432.351 -4.03655 1.37713 0
M  V30 4483 S 433.184 -4.47402 2.94265 0
M  V30 4484 C 434.34 -5.77756 2.40726 0
M  V30 4485 H 434.573 -2.3545 1.81523 0
M  V30 4486 H 432.106 -1.14665 1.03399 0
M  V30 4487 H 434.064 -4.10484 0.0360518 0
M  V30 4488 H 432.725 -3.09291 -0.547546 0
M  V30 4489 H 431.918 -4.9514 0.940872 0
M  V30 4490 H 431.52 -3.36313 1.63614 0
M  V30 4491 H 433.812 -6.52994 1.80569 0
M  V30 4492 H 434.755 -6.2618 3.30612 0
M  V30 4493 H 435.163 -5.34081 1.82806 0
M  V30 4494 N 434.561 -1.01147 -1.20859 0
M  V30 4495 C 435.508 -0.577354 -2.23462 0
M  V30 4496 C 436.478 0.399922 -1.61214 0
M  V30 4497 O 437.663 0.300515 -1.88419 0
M  V30 4498 C 434.803 0.083372 -3.44999 0
M  V30 4499 C 433.916 -0.937856 -4.21697 0
M  V30 4500 C 433.051 -0.248717 -5.30617 0
M  V30 4501 C 432.09 -1.25705 -5.99053 0
M  V30 4502 N 431.227 -0.594939 -6.99575 0
M  V30 4503 H 436.067 -1.45695 -2.59956 0
M  V30 4504 H 433.604 -0.729428 -1.27741 0
M  V30 4505 H 435.562 0.483535 -4.14388 0
M  V30 4506 H 434.192 0.926645 -3.09214 0
M  V30 4507 H 433.244 -1.45622 -3.51423 0
M  V30 4508 H 434.556 -1.70493 -4.68757 0
M  V30 4509 H 433.71 0.207215 -6.06346 0
M  V30 4510 H 432.449 0.55071 -4.84581 0
M  V30 4511 H 431.454 -1.72343 -5.2209 0
M  V30 4512 H 432.679 -2.05767 -6.47176 0
M  V30 4513 H 430.625 0.184713 -6.5574 0
M  V30 4514 H 430.542 -1.30017 -7.44736 0
M  V30 4515 H 431.81 -0.162427 -7.79331 0
M  V30 4516 N 436.039 1.36541 -0.78704 0
M  V30 4517 C 437.288 1.98552 -0.35494 0
M  V30 4518 C 437.601 1.63171 1.07864 0
M  V30 4519 O 438.807 2.18399 1.61289 0
M  V30 4520 C 437.263 3.55136 -0.583671 0
M  V30 4521 C 436.871 3.99444 -2.02851 0
M  V30 4522 C 438.615 4.2395 -0.215957 0
M  V30 4523 C 436.522 5.48796 -2.20403 0
M  V30 4524 H 435.452 0.742888 -0.128972 0
M  V30 4525 H 438.103 1.5587 -0.968337 0
M  V30 4526 H 436.485 3.95875 0.0994046 0
M  V30 4527 H 437.659 3.6991 -2.74779 0
M  V30 4528 H 435.974 3.43459 -2.35425 0
M  V30 4529 H 438.571 5.33709 -0.325405 0
M  V30 4530 H 438.914 4.07827 0.835646 0
M  V30 4531 H 439.447 3.88565 -0.852175 0
M  V30 4532 H 436.186 5.69864 -3.23937 0
M  V30 4533 H 435.706 5.79964 -1.52977 0
M  V30 4534 H 437.385 6.14986 -2.01002 0
M  V30 4535 N 437.518 0.538854 1.48102 0
M  V30 4536 C 438.448 -0.207654 2.32575 0
M  V30 4537 C 439.429 -0.926559 1.4265 0
M  V30 4538 O 440.614 -0.91061 1.71527 0
M  V30 4539 C 437.744 -1.24957 3.24042 0
M  V30 4540 C 436.698 -0.648263 4.23062 0
M  V30 4541 C 436.024 -1.79348 5.03725 0
M  V30 4542 C 437.324 0.385897 5.20872 0
M  V30 4543 H 439.018 0.497534 2.95237 0
M  V30 4544 H 436.564 0.240715 1.41974 0
M  V30 4545 H 438.517 -1.77983 3.81969 0
M  V30 4546 H 437.241 -1.98446 2.59397 0
M  V30 4547 H 435.9 -0.139452 3.66335 0
M  V30 4548 H 435.548 -2.51696 4.35498 0
M  V30 4549 H 435.248 -1.39702 5.70751 0
M  V30 4550 H 436.772 -2.32735 5.64506 0
M  V30 4551 H 438.186 -0.057607 5.73271 0
M  V30 4552 H 436.583 0.700227 5.96001 0
M  V30 4553 H 437.653 1.28848 4.67468 0
M  V30 4554 N 438.996 -1.55193 0.274407 0
M  V30 4555 C 440.221 -2.04446 -0.348824 0
M  V30 4556 C 440.646 -1.15149 -1.48735 0
M  V30 4557 O 440.004 -0.149952 -1.80679 0
M  V30 4558 C 440.052 -3.51431 -0.808009 0
M  V30 4559 O 439.156 -3.65225 -1.91531 0
M  V30 4560 H 438.497 -0.66006 -0.0722276 0
M  V30 4561 H 441.027 -2.00481 0.408498 0
M  V30 4562 H 441.037 -3.92781 -1.10395 0
M  V30 4563 H 439.712 -4.15892 0.0249865 0
M  V30 4564 H 438.289 -3.35778 -1.62196 0
M  V30 4565 N 440.474 -0.00167713 -1.576 0
M  V30 4566 C 441.384 1.00548 -2.1196 0
M  V30 4567 C 442.4 1.3758 -1.06526 0
M  V30 4568 O 443.576 1.46278 -1.38436 0
M  V30 4569 C 440.641 2.27809 -2.6135 0
M  V30 4570 C 439.702 1.97074 -3.81393 0
M  V30 4571 C 438.935 3.18267 -4.28417 0
M  V30 4572 O 439.158 4.30009 -3.74765 0
M  V30 4573 O 438.092 3.02167 -5.20556 0
M  V30 4574 H 441.918 0.573373 -2.98238 0
M  V30 4575 H 439.503 0.217255 -1.47812 0
M  V30 4576 H 441.385 3.02568 -2.93309 0
M  V30 4577 H 440.06 2.70254 -1.78169 0
M  V30 4578 H 438.967 1.19785 -3.54404 0
M  V30 4579 H 440.3 1.59464 -4.65652 0
M  V30 4580 N 441.952 1.55251 0.271103 0
M  V30 4581 C 443.18 1.79974 1.02064 0
M  V30 4582 C 443.595 0.574003 1.79863 0
M  V30 4583 O 442.952 -0.456962 1.76686 0
M  V30 4584 C 443.003 3.02603 1.97772 0
M  V30 4585 O 442.724 4.20443 1.23124 0
M  V30 4586 C 444.225 3.39944 2.84522 0
M  V30 4587 H 441.445 0.599489 0.301419 0
M  V30 4588 H 443.989 2.02268 0.301313 0
M  V30 4589 H 442.144 2.8243 2.65165 0
M  V30 4590 H 442.558 4.89783 1.87651 0
M  V30 4591 H 444.032 4.28915 3.47471 0
M  V30 4592 H 444.509 2.59432 3.54389 0
M  V30 4593 H 445.115 3.62383 2.22618 0
M  V30 4594 N 443.43 -0.535701 1.48216 0
M  V30 4595 C 444.34 -1.66785 1.64985 0
M  V30 4596 C 445.356 -1.65654 0.532414 0
M  V30 4597 O 446.532 -1.8471 0.80275 0
M  V30 4598 C 443.597 -3.0326 1.68031 0
M  V30 4599 C 442.658 -3.1529 2.9136 0
M  V30 4600 C 441.891 -4.45255 2.94252 0
M  V30 4601 O 442.114 -5.32011 2.05719 0
M  V30 4602 O 441.048 -4.6153 3.86359 0
M  V30 4603 H 444.874 -1.55576 2.60825 0
M  V30 4604 H 442.459 -0.70815 1.31551 0
M  V30 4605 H 444.341 -3.84436 1.72589 0
M  V30 4606 H 443.016 -3.14805 0.753628 0
M  V30 4607 H 441.923 -2.3343 2.92337 0
M  V30 4608 H 443.256 -3.08658 3.83394 0
M  V30 4609 N 444.908 -1.36708 -0.784132 0
M  V30 4610 C 446.154 -1.31426 -1.54451 0
M  V30 4611 C 446.487 0.10476 -1.93917 0
M  V30 4612 O 445.762 1.05934 -1.6312 0
M  V30 4613 C 446.045 -2.24189 -2.818 0
M  V30 4614 C 445.898 -3.74813 -2.48667 0
M  V30 4615 C 447.217 -2.15626 -3.83658 0
M  V30 4616 H 444.336 -0.478739 -0.560337 0
M  V30 4617 H 446.978 -1.67305 -0.900498 0
M  V30 4618 H 445.128 -1.93722 -3.36755 0
M  V30 4619 H 446.8 -4.15823 -1.99722 0
M  V30 4620 H 445.043 -3.93989 -1.81535 0
M  V30 4621 H 445.714 -4.35138 -3.39646 0
M  V30 4622 H 448.19 -2.42456 -3.38163 0
M  V30 4623 H 447.066 -2.82694 -4.70506 0
M  V30 4624 H 447.327 -1.14522 -4.27009 0
M  V30 4625 N 446.386 1.0089 -1.21074 0
M  V30 4626 C 447.635 1.74019 -1.01981 0
M  V30 4627 C 447.948 1.90408 0.447665 0
M  V30 4628 O 449.154 2.60707 0.757906 0
M  V30 4629 C 447.61 3.13026 -1.77603 0
M  V30 4630 C 447.218 3.04623 -3.28495 0
M  V30 4631 C 448.962 3.90312 -1.66904 0
M  V30 4632 C 446.869 4.38685 -3.96623 0
M  V30 4633 H 445.799 0.652422 -0.377971 0
M  V30 4634 H 448.45 1.12755 -1.44771 0
M  V30 4635 H 446.832 3.74878 -1.27604 0
M  V30 4636 H 448.006 2.52032 -3.85767 0
M  V30 4637 H 446.321 2.40827 -3.39693 0
M  V30 4638 H 448.918 4.8951 -2.15138 0
M  V30 4639 H 449.261 4.11558 -0.62658 0
M  V30 4640 H 449.794 3.35104 -2.14359 0
M  V30 4641 H 446.533 4.22641 -5.01054 0
M  V30 4642 H 446.053 4.91252 -3.4414 0
M  V30 4643 H 447.732 5.075 -4.01314 0
M  V30 4644 N 447.864 1.01787 1.20321 0
M  V30 4645 C 448.812 0.58254 2.25187 0
M  V30 4646 C 449.806 -0.379359 1.65098 0
M  V30 4647 O 451.012 -0.249142 1.78267 0
M  V30 4648 H 447.387 0.170078 0.732514 0
M  V30 4649 H 449.358 1.47788 2.59232 0
M  V30 4650 C 448.107 -0.0620885 3.47645 0
M  V30 4651 H 447.43 0.669069 3.94162 0
M  V30 4652 H 448.87 -0.329784 4.22716 0
M  V30 4653 C 447.329 -1.3053 3.10586 0
M  V30 4654 O 447.859 -2.39848 3.22236 0
M  V30 4655 N 446.065 -1.18988 2.65123 0
M  V30 4656 H 445.612 -0.300341 2.55843 0
M  V30 4657 H 445.57 -2.02267 2.40698 0
M  V30 4658 N 449.342 -1.36122 0.79427 0
M  V30 4659 C 450.59 -1.98718 0.368177 0
M  V30 4660 C 450.911 -1.63345 -1.06506 0
M  V30 4661 O 450.181 -0.909825 -1.73491 0
M  V30 4662 H 448.761 -0.735038 0.133146 0
M  V30 4663 H 451.423 -1.66239 1.01739 0
M  V30 4664 H 450.519 -3.08633 0.463923 0
M  V30 4665 N 450.82 -0.546701 -1.47814 0
M  V30 4666 C 452.069 -0.0166497 -2.01693 0
M  V30 4667 C 452.382 1.33721 -1.42752 0
M  V30 4668 O 453.588 1.95658 -1.8823 0
M  V30 4669 C 452.044 0.0206769 -3.59894 0
M  V30 4670 C 451.652 -1.3293 -4.27824 0
M  V30 4671 C 453.396 0.498674 -4.21561 0
M  V30 4672 C 451.303 -1.25165 -5.78003 0
M  V30 4673 H 450.233 -0.0024541 -0.753996 0
M  V30 4674 H 452.884 -0.692984 -1.69912 0
M  V30 4675 H 451.266 0.76244 -3.88591 0
M  V30 4676 H 452.44 -2.08795 -4.10781 0
M  V30 4677 H 450.755 -1.74438 -3.78101 0
M  V30 4678 H 453.352 0.575 -5.31599 0
M  V30 4679 H 453.695 1.5083 -3.88016 0
M  V30 4680 H 454.228 -0.18791 -3.97356 0
M  V30 4681 H 450.967 -2.23695 -6.1615 0
M  V30 4682 H 450.487 -0.53464 -5.97412 0
M  V30 4683 H 452.166 -0.949299 -6.39998 0
M  V30 4684 N 452.299 1.55045 -0.282633 0
M  V30 4685 C 453.548 1.98938 0.332667 0
M  V30 4686 C 453.861 1.17455 1.56409 0
M  V30 4687 O 455.067 1.51527 2.25282 0
M  V30 4688 C 453.523 3.54105 0.643226 0
M  V30 4689 C 453.131 4.44374 -0.568814 0
M  V30 4690 C 454.875 4.06569 1.22074 0
M  V30 4691 C 452.782 5.90943 -0.232426 0
M  V30 4692 H 451.712 0.743043 0.128075 0
M  V30 4693 H 454.363 1.79341 -0.388464 0
M  V30 4694 H 452.745 3.69532 1.42346 0
M  V30 4695 H 453.919 4.40718 -1.34551 0
M  V30 4696 H 452.234 4.02585 -1.06369 0
M  V30 4697 H 454.831 5.13626 1.48635 0
M  V30 4698 H 455.174 3.56057 2.15707 0
M  V30 4699 H 455.707 3.94612 0.502621 0
M  V30 4700 H 452.446 6.45567 -1.13683 0
M  V30 4701 H 451.966 5.9765 0.507357 0
M  V30 4702 H 453.645 6.4677 0.172657 0
M  V30 4703 N 453.777 0.010035 1.57597 0
M  V30 4704 C 454.687 -0.994226 2.12491 0
M  V30 4705 C 455.703 -1.37013 1.07254 0
M  V30 4706 O 456.879 -1.45542 1.3921 0
M  V30 4707 C 453.944 -2.2642 2.62555 0
M  V30 4708 C 453.005 -1.95049 3.82432 0
M  V30 4709 C 452.238 -3.15991 4.30099 0
M  V30 4710 O 452.461 -4.28015 3.7704 0
M  V30 4711 O 451.395 -2.99403 5.22151 0
M  V30 4712 H 455.221 -0.557549 2.98538 0
M  V30 4713 H 452.806 -0.209413 1.47925 0
M  V30 4714 H 454.688 -3.01009 2.9491 0
M  V30 4715 H 453.363 -2.69306 1.796 0
M  V30 4716 H 452.27 -1.17904 3.55034 0
M  V30 4717 H 453.603 -1.56992 4.66491 0
M  V30 4718 N 455.255 -1.55392 -0.262866 0
M  V30 4719 C 456.48 -1.80847 -1.01533 0
M  V30 4720 C 456.905 -0.584946 -1.78774 0
M  V30 4721 O 456.263 0.465701 -1.75217 0
M  V30 4722 C 456.311 -3.03866 -1.94159 0
M  V30 4723 O 455.415 -2.79662 -3.03089 0
M  V30 4724 H 454.756 -0.597441 -0.289759 0
M  V30 4725 H 457.286 -2.02553 -0.288698 0
M  V30 4726 H 457.296 -3.32872 -2.35924 0
M  V30 4727 H 455.971 -3.92564 -1.37354 0
M  V30 4728 H 454.548 -2.61781 -2.65566 0
M  V30 4729 N 456.733 0.527833 -1.48498 0
M  V30 4730 C 457.982 1.28003 -1.55878 0
M  V30 4731 C 458.295 1.9414 -0.238577 0
M  V30 4732 O 459.501 2.7083 -0.190643 0
M  V30 4733 C 457.957 2.32272 -2.74914 0
M  V30 4734 C 457.565 1.72196 -4.13585 0
M  V30 4735 C 459.309 3.08488 -2.91608 0
M  V30 4736 C 457.216 2.74417 -5.23879 0
M  V30 4737 H 456.146 0.481413 -0.580308 0
M  V30 4738 H 458.797 0.557195 -1.74836 0
M  V30 4739 H 457.179 3.07601 -2.49395 0
M  V30 4740 H 458.353 1.03041 -4.49132 0
M  V30 4741 H 456.668 1.08464 -4.02025 0
M  V30 4742 H 459.265 3.84879 -3.71177 0
M  V30 4743 H 459.608 3.64481 -2.01145 0
M  V30 4744 H 460.141 2.40274 -3.17038 0
M  V30 4745 H 456.88 2.23242 -6.16314 0
M  V30 4746 H 456.4 3.41893 -4.92818 0
M  V30 4747 H 458.079 3.37362 -5.52083 0
M  V30 4748 N 458.211 1.37122 0.776871 0
M  V30 4749 C 459.441 1.35034 1.56363 0
M  V30 4750 C 459.849 -0.0674681 1.8908 0
M  V30 4751 O 459.192 -1.03826 1.51545 0
M  V30 4752 C 459.254 2.11894 2.90415 0
M  V30 4753 C 458.918 3.60897 2.80362 0
M  V30 4754 C 459.915 4.54887 2.51742 0
M  V30 4755 C 457.6 4.03951 2.98545 0
M  V30 4756 C 459.594 5.89909 2.41426 0
M  V30 4757 C 457.281 5.3906 2.87849 0
M  V30 4758 C 458.279 6.31852 2.5933 0
M  V30 4759 O 457.967 7.64479 2.48651 0
M  V30 4760 H 457.699 0.464402 0.49123 0
M  V30 4761 H 460.253 1.80992 0.971127 0
M  V30 4762 H 458.483 1.60618 3.51765 0
M  V30 4763 H 460.172 2.02505 3.51776 0
M  V30 4764 H 460.938 4.22934 2.37385 0
M  V30 4765 H 456.817 3.3209 3.19746 0
M  V30 4766 H 460.361 6.62304 2.19086 0
M  V30 4767 H 456.258 5.70617 3.01773 0
M  V30 4768 H 457.026 7.74742 2.64039 0
M  V30 4769 N 459.689 -1.00246 1.21608 0
M  V30 4770 C 460.919 -1.77373 1.05935 0
M  V30 4771 C 461.327 -1.85059 -0.393686 0
M  V30 4772 O 460.67 -1.31289 -1.28487 0
M  V30 4773 C 460.732 -3.22705 1.58435 0
M  V30 4774 C 460.396 -3.38591 3.06929 0
M  V30 4775 C 461.393 -3.2667 4.04454 0
M  V30 4776 C 459.078 -3.6395 3.46187 0
M  V30 4777 C 461.072 -3.39877 5.39224 0
M  V30 4778 C 458.759 -3.768 4.81108 0
M  V30 4779 C 459.757 -3.6477 5.77436 0
M  V30 4780 O 459.445 -3.77206 7.09909 0
M  V30 4781 H 459.177 -0.56419 0.372378 0
M  V30 4782 H 461.731 -1.26971 1.61454 0
M  V30 4783 H 459.961 -3.74255 0.973147 0
M  V30 4784 H 461.65 -3.81515 1.38568 0
M  V30 4785 H 462.416 -3.06999 3.75468 0
M  V30 4786 H 458.295 -3.72395 2.71741 0
M  V30 4787 H 461.839 -3.30404 6.14393 0
M  V30 4788 H 457.736 -3.95975 5.09779 0
M  V30 4789 H 458.504 -3.94138 7.17355 0
M  V30 4790 N 461.167 -1.02423 -1.1978 0
M  V30 4791 C 462.115 -0.594474 -2.24875 0
M  V30 4792 C 463.109 0.370598 -1.65296 0
M  V30 4793 O 464.315 0.239684 -1.78397 0
M  V30 4794 H 460.69 -0.173961 -0.731602 0
M  V30 4795 H 462.661 -1.4916 -2.58445 0
M  V30 4796 C 461.41 0.0436512 -3.47673 0
M  V30 4797 H 460.733 -0.689963 -3.93801 0
M  V30 4798 H 462.173 0.307362 -4.22884 0
M  V30 4799 C 460.632 1.28881 -3.11274 0
M  V30 4800 O 461.162 2.38135 -3.23503 0
M  V30 4801 N 459.368 1.1758 -2.6575 0
M  V30 4802 H 458.915 0.286769 -2.55999 0
M  V30 4803 H 458.873 2.00988 -2.41767 0
M  V30 4804 N 462.645 1.35699 -0.801477 0
M  V30 4805 C 463.555 2.33661 -0.209691 0
M  V30 4806 C 464.571 1.6162 0.644591 0
M  V30 4807 O 465.747 1.93529 0.557545 0
M  V30 4808 C 462.812 3.40816 0.636033 0
M  V30 4809 C 461.873 4.28639 -0.238147 0
M  V30 4810 C 461.106 5.30676 0.567307 0
M  V30 4811 O 461.329 5.41174 1.8024 0
M  V30 4812 O 460.263 6.01887 -0.0391336 0
M  V30 4813 H 464.089 2.8606 -1.01996 0
M  V30 4814 H 461.674 1.38379 -0.563164 0
M  V30 4815 H 463.556 4.06301 1.11791 0
M  V30 4816 H 462.231 2.90696 1.42399 0
M  V30 4817 H 461.138 3.66152 -0.767044 0
M  V30 4818 H 462.471 4.82143 -0.989915 0
M  V30 4819 N 464.123 0.554532 1.47522 0
M  V30 4820 C 465.372 0.0273458 2.01681 0
M  V30 4821 C 465.685 -1.32962 1.43459 0
M  V30 4822 O 466.891 -1.94657 1.89265 0
M  V30 4823 C 465.347 -0.00159057 3.599 0
M  V30 4824 C 464.955 1.35197 4.27113 0
M  V30 4825 C 466.699 -0.476311 4.21819 0
M  V30 4826 C 464.606 1.28229 5.77331 0
M  V30 4827 H 463.536 0.00645269 0.753972 0
M  V30 4828 H 466.187 0.701985 1.69542 0
M  V30 4829 H 464.569 -0.741821 3.8899 0
M  V30 4830 H 465.743 2.1097 4.09668 0
M  V30 4831 H 464.058 1.76441 3.77171 0
M  V30 4832 H 466.655 -0.5468 5.31897 0
M  V30 4833 H 466.998 -1.4877 3.8881 0
M  V30 4834 H 467.531 0.20898 3.97251 0
M  V30 4835 H 464.27 2.26959 6.14955 0
M  V30 4836 H 463.79 0.566314 5.97121 0
M  V30 4837 H 465.469 0.983226 6.39485 0
M  V30 4838 N 465.601 -1.54893 0.290851 0
M  V30 4839 C 466.848 -1.99933 -0.321391 0
M  V30 4840 C 467.176 -1.17927 -1.54672 0
M  V30 4841 O 466.431 -0.240902 -1.94212 0
M  V30 4842 C 466.73 -3.49815 -0.732397 0
M  V30 4843 C 466.396 -4.4921 0.390056 0
M  V30 4844 C 465.058 -4.76107 0.698223 0
M  V30 4845 C 467.41 -5.08453 1.14562 0
M  V30 4846 C 464.738 -5.59514 1.76526 0
M  V30 4847 C 467.09 -5.9302 2.2025 0
M  V30 4848 C 465.754 -6.18232 2.51684 0
M  V30 4849 H 465.024 -0.731608 -0.117605 0
M  V30 4850 H 467.671 -1.87107 0.407839 0
M  V30 4851 H 465.976 -3.60199 -1.54155 0
M  V30 4852 H 467.673 -3.82083 -1.21712 0
M  V30 4853 H 464.263 -4.28372 0.13976 0
M  V30 4854 H 468.447 -4.87683 0.920801 0
M  V30 4855 H 463.703 -5.77289 2.01364 0
M  V30 4856 H 467.877 -6.37955 2.7926 0
M  V30 4857 H 465.504 -6.82653 3.34499 0
M  V30 4858 N 467.08 -0.0183926 -1.57589 0
M  V30 4859 C 468.357 0.700621 -1.82622 0
M  V30 4860 C 468.737 1.90951 -0.90005 0
M  V30 4861 O 468.085 2.28452 0.0469145 0
M  V30 4862 C 468.295 1.08899 -3.31575 0
M  V30 4863 C 469.643 1.48514 -3.9778 0
M  V30 4864 O 470.667 1.18227 -3.36007 0
M  V30 4865 O 469.526 2.04903 -5.06633 0
M  V30 4866 H 466.62 0.342743 -0.752633 0
M  V30 4867 H 469.166 -0.0452548 -1.6964 0
M  V30 4868 H 467.938 0.228113 -3.90635 0
M  V30 4869 H 467.561 1.89338 -3.49624 0
M  V30 4870 N 468.558 1.5553 0.254621 0
M  V30 4871 C 469.806 1.7665 0.981793 0
M  V30 4872 C 470.127 0.580963 1.86145 0
M  V30 4873 O 469.397 -0.403537 1.91699 0
M  V30 4874 H 467.977 0.651475 0.365498 0
M  V30 4875 H 470.639 1.92958 0.274426 0
M  V30 4876 H 469.735 2.67486 1.60802 0
M  V30 4877 N 470.036 -0.519951 1.48776 0
M  V30 4878 C 470.966 -1.63253 1.66945 0
M  V30 4879 C 471.947 -1.62014 0.518224 0
M  V30 4880 O 473.132 -1.79053 0.751919 0
M  V30 4881 C 470.262 -3.0181 1.71836 0
M  V30 4882 C 469.216 -3.17911 2.8656 0
M  V30 4883 C 468.542 -4.5763 2.76548 0
M  V30 4884 C 469.842 -2.99729 4.27738 0
M  V30 4885 H 471.536 -1.48302 2.6009 0
M  V30 4886 H 469.082 -0.712026 1.25165 0
M  V30 4887 H 471.035 -3.79525 1.83135 0
M  V30 4888 H 469.759 -3.17806 0.752775 0
M  V30 4889 H 468.418 -2.42616 2.74833 0
M  V30 4890 H 468.066 -4.70476 1.77937 0
M  V30 4891 H 467.766 -4.69346 3.53536 0
M  V30 4892 H 469.29 -5.37431 2.89828 0
M  V30 4893 H 470.704 -3.67228 4.40246 0
M  V30 4894 H 469.101 -3.22932 5.05801 0
M  V30 4895 H 470.171 -1.96047 4.43502 0
M  V30 4896 N 471.514 -1.37532 -0.769588 0
M  V30 4897 C 472.739 -1.36231 -1.56384 0
M  V30 4898 C 473.164 0.0495849 -1.88035 0
M  V30 4899 O 472.522 1.02723 -1.49391 0
M  V30 4900 C 472.57 -2.20986 -2.84952 0
M  V30 4901 O 471.674 -1.61597 -3.79421 0
M  V30 4902 H 471.015 -0.465387 -0.473615 0
M  V30 4903 H 473.545 -1.81085 -0.952342 0
M  V30 4904 H 473.555 -2.34277 -3.34034 0
M  V30 4905 H 472.23 -3.23612 -2.61243 0
M  V30 4906 H 470.807 -1.57359 -3.38072 0
M  V30 4907 N 472.992 0.995999 -1.22138 0
M  V30 4908 C 473.955 2.06711 -0.990109 0
M  V30 4909 C 474.955 1.60744 0.0422978 0
M  V30 4910 O 476.145 1.73095 -0.195895 0
M  V30 4911 C 473.277 3.37288 -0.49491 0
M  V30 4912 H 474.47 2.28661 -1.94047 0
M  V30 4913 H 472.023 1.16711 -1.03963 0
M  V30 4914 H 472.758 3.21022 0.459948 0
M  V30 4915 H 472.543 3.71986 -1.23971 0
M  V30 4916 H 474.033 4.16103 -0.353253 0
M  V30 4917 N 474.47 1.03057 1.19235 0
M  V30 4918 C 475.38 0.622922 2.26179 0
M  V30 4919 C 476.396 -0.346113 1.70523 0
M  V30 4920 O 477.572 -0.203572 2.00369 0
M  V30 4921 C 474.637 -0.0182063 3.46695 0
M  V30 4922 C 473.698 0.998546 4.17526 0
M  V30 4923 C 472.931 0.387917 5.32288 0
M  V30 4924 O 473.154 -0.808668 5.64639 0
M  V30 4925 O 472.088 1.1116 5.91546 0
M  V30 4926 H 475.914 1.51363 2.63292 0
M  V30 4927 H 473.499 0.800856 1.26122 0
M  V30 4928 H 475.381 -0.375606 4.19723 0
M  V30 4929 H 474.056 -0.882895 3.11427 0
M  V30 4930 H 472.963 1.40756 3.4661 0
M  V30 4931 H 474.296 1.83366 4.56769 0
M  V30 4932 N 475.948 -1.35272 0.808662 0
M  V30 4933 C 477.197 -1.97963 0.386483 0
M  V30 4934 C 477.51 -1.64866 -1.05255 0
M  V30 4935 O 478.716 -2.20937 -1.57794 0
M  V30 4936 C 477.172 -3.54162 0.640096 0
M  V30 4937 C 476.78 -3.96166 2.0918 0
M  V30 4938 C 478.524 -4.23553 0.283376 0
M  V30 4939 C 476.431 -5.4522 2.29106 0
M  V30 4940 H 475.361 -0.740742 0.140774 0
M  V30 4941 H 478.012 -1.5431 0.993012 0
M  V30 4942 H 476.394 -3.95983 -0.0364117 0
M  V30 4943 H 477.568 -3.65491 2.80629 0
M  V30 4944 H 475.883 -3.3967 2.40859 0
M  V30 4945 H 478.48 -5.33124 0.410273 0
M  V30 4946 H 478.823 -4.09105 -0.770659 0
M  V30 4947 H 479.356 -3.8716 0.913884 0
M  V30 4948 H 476.095 -5.64638 3.32962 0
M  V30 4949 H 475.615 -5.77457 1.62184 0
M  V30 4950 H 477.294 -6.1171 2.1076 0
M  V30 4951 N 477.426 -0.562348 -1.47226 0
M  V30 4952 C 478.358 0.220011 -2.28142 0
M  V30 4953 C 479.371 0.874596 -1.37312 0
M  V30 4954 O 480.56 0.747583 -1.62091 0
M  V30 4955 C 477.66 1.32953 -3.11732 0
M  V30 4956 C 476.833 0.770759 -4.30556 0
M  V30 4957 C 475.892 1.76541 -4.95701 0
M  V30 4958 O 474.918 1.3095 -5.53932 0
M  V30 4959 N 476.12 3.09896 -4.90861 0
M  V30 4960 H 478.885 -0.474107 -2.95926 0
M  V30 4961 H 476.446 -0.398761 -1.56912 0
M  V30 4962 H 478.438 1.99378 -3.5218 0
M  V30 4963 H 477.008 1.92681 -2.46156 0
M  V30 4964 H 476.228 -0.0704056 -3.94137 0
M  V30 4965 H 477.516 0.376872 -5.07402 0
M  V30 4966 H 476.914 3.49577 -4.44761 0
M  V30 4967 H 475.471 3.71865 -5.35313 0
M  V30 4968 N 478.904 1.54736 -0.299062 0
M  V30 4969 C 480.129 2.04975 0.316254 0
M  V30 4970 C 480.554 1.17501 1.46885 0
M  V30 4971 O 479.912 0.178678 1.80417 0
M  V30 4972 C 479.96 3.52672 0.751997 0
M  V30 4973 O 479.064 3.68226 1.85697 0
M  V30 4974 H 478.405 0.661126 0.0617175 0
M  V30 4975 H 480.935 1.99805 -0.440341 0
M  V30 4976 H 480.945 3.94488 1.04133 0
M  V30 4977 H 479.62 4.158 -0.0911482 0
M  V30 4978 H 478.197 3.38316 1.56834 0
M  V30 4979 N 480.382 0.0267497 1.57577 0
M  V30 4980 C 481.63 -0.651116 1.91324 0
M  V30 4981 C 481.951 -1.72804 0.90353 0
M  V30 4982 O 481.221 -1.95822 -0.0552946 0
M  V30 4983 H 479.801 -0.243491 0.706202 0
M  V30 4984 H 482.463 0.0739935 1.94759 0
M  V30 4985 H 481.559 -1.10536 2.9187 0
M  V30 4986 N 481.861 -1.55662 -0.24637 0
M  V30 4987 C 482.791 -1.93377 -1.30873 0
M  V30 4988 C 483.772 -0.798773 -1.50179 0
M  V30 4989 O 484.957 -1.0591 -1.62778 0
M  V30 4990 C 482.087 -2.22893 -2.66338 0
M  V30 4991 C 481.041 -3.38649 -2.61727 0
M  V30 4992 C 480.367 -3.53708 -4.00992 0
M  V30 4993 C 481.667 -4.74323 -2.18666 0
M  V30 4994 H 483.361 -2.82363 -0.995552 0
M  V30 4995 H 480.907 -1.35854 -0.477464 0
M  V30 4996 H 482.86 -2.47866 -3.40794 0
M  V30 4997 H 481.584 -1.30733 -2.99293 0
M  V30 4998 H 480.243 -3.13685 -1.89729 0
M  V30 4999 H 479.891 -2.58967 -4.31214 0
M  V30 5000 H 479.591 -4.31551 -3.98795 0
M  V30 5001 H 481.115 -3.81003 -4.77147 0
M  V30 5002 H 482.529 -4.98665 -2.82854 0
M  V30 5003 H 480.926 -5.55273 -2.27579 0
M  V30 5004 H 481.996 -4.71349 -1.13834 0
M  V30 5005 N 483.339 0.512053 -1.4905 0
M  V30 5006 C 484.586 1.26686 -1.57978 0
M  V30 5007 C 484.914 1.92733 -0.261553 0
M  V30 5008 O 484.169 1.80772 0.749667 0
M  V30 5009 C 484.468 2.36446 -2.68008 0
M  V30 5010 C 484.134 1.87932 -4.09869 0
M  V30 5011 C 482.796 1.74419 -4.48477 0
M  V30 5012 C 485.148 1.5149 -4.98698 0
M  V30 5013 C 482.476 1.22827 -5.73699 0
M  V30 5014 C 484.828 1.01355 -6.24428 0
M  V30 5015 C 483.492 0.864735 -6.61875 0
M  V30 5016 H 482.762 0.463577 -0.578081 0
M  V30 5017 H 485.409 0.569421 -1.82838 0
M  V30 5018 H 483.714 3.11933 -2.37076 0
M  V30 5019 H 485.411 2.9453 -2.72127 0
M  V30 5020 H 482.001 1.99405 -3.79389 0
M  V30 5021 H 486.185 1.60782 -4.69535 0
M  V30 5022 H 481.441 1.10008 -6.01422 0
M  V30 5023 H 485.615 0.722351 -6.92644 0
M  V30 5024 H 483.242 0.462777 -7.5879 0
M  V30 5025 N 484.817 1.37938 0.762283 0
M  V30 5026 C 485.765 1.34569 1.89721 0
M  V30 5027 C 486.759 0.232929 1.67791 0
M  V30 5028 O 487.965 0.401485 1.75465 0
M  V30 5029 H 484.34 0.419594 0.624055 0
M  V30 5030 H 486.311 2.30357 1.8968 0
M  V30 5031 C 485.06 1.17898 3.27101 0
M  V30 5032 H 484.383 2.02781 3.44558 0
M  V30 5033 H 485.823 1.19593 4.06784 0
M  V30 5034 C 484.282 -0.114728 3.36705 0
M  V30 5035 O 484.812 -1.0949 3.8649 0
M  V30 5036 N 483.018 -0.16863 2.9011 0
M  V30 5037 H 482.565 0.62967 2.49786 0
M  V30 5038 H 482.523 -1.03383 2.96916 0
M  V30 5039 N 486.295 -0.989507 1.22664 0
M  V30 5040 C 487.541 -1.7321 1.05481 0
M  V30 5041 C 487.874 -1.89852 -0.408635 0
M  V30 5042 O 487.149 -1.44416 -1.30285 0
M  V30 5043 C 487.432 -3.1357 1.77047 0
M  V30 5044 C 487.285 -3.04555 3.31008 0
M  V30 5045 C 488.604 -4.12812 1.5256 0
M  V30 5046 H 485.723 -0.628697 0.384589 0
M  V30 5047 H 488.365 -1.15258 1.51049 0
M  V30 5048 H 486.515 -3.63046 1.3831 0
M  V30 5049 H 488.187 -2.62674 3.7921 0
M  V30 5050 H 486.43 -2.41278 3.6051 0
M  V30 5051 H 487.101 -4.03894 3.76263 0
M  V30 5052 H 489.577 -3.72106 1.86215 0
M  V30 5053 H 488.453 -5.09132 2.05124 0
M  V30 5054 H 488.714 -4.39711 0.458936 0
M  V30 5055 N 487.773 -1.03688 -1.18687 0
M  V30 5056 C 489.003 -0.756819 -1.92239 0
M  V30 5057 C 489.411 0.689374 -1.76194 0
M  V30 5058 O 488.754 1.48126 -1.08648 0
M  V30 5059 C 488.816 -1.03851 -3.44173 0
M  V30 5060 C 488.48 -2.47785 -3.83994 0
M  V30 5061 C 489.477 -3.4595 -3.88091 0
M  V30 5062 C 487.162 -2.82397 -4.154 0
M  V30 5063 C 489.156 -4.76779 -4.23038 0
M  V30 5064 C 486.843 -4.13433 -4.50018 0
M  V30 5065 C 487.841 -5.10434 -4.53813 0
M  V30 5066 O 487.529 -6.39122 -4.87625 0
M  V30 5067 H 487.261 -0.275678 -0.617234 0
M  V30 5068 H 489.815 -1.38658 -1.51536 0
M  V30 5069 H 488.045 -0.351612 -3.85098 0
M  V30 5070 H 489.734 -0.746846 -3.9897 0
M  V30 5071 H 490.5 -3.20549 -3.63969 0
M  V30 5072 H 486.379 -2.07568 -4.11627 0
M  V30 5073 H 489.923 -5.52488 -4.25914 0
M  V30 5074 H 485.82 -4.38604 -4.736 0
M  V30 5075 H 486.588 -6.43715 -5.05542 0
M  V30 5076 N 489.251 1.34841 -0.815825 0
M  V30 5077 C 490.667 1.51543 -0.500697 0
M  V30 5078 C 490.867 1.76261 0.976444 0
M  V30 5079 O 489.923 1.8094 1.76117 0
M  V30 5080 C 491.236 2.68487 -1.35407 0
M  V30 5081 C 492.784 2.82368 -1.35046 0
M  V30 5082 C 493.259 4.02347 -2.18816 0
M  V30 5083 N 494.75 4.09542 -2.16402 0
M  V30 5084 C 495.485 5.01517 -2.77971 0
M  V30 5085 N 494.981 5.98763 -3.48503 0
M  V30 5086 N 496.774 4.94334 -2.67563 0
M  V30 5087 H 488.925 1.17055 -1.77234 0
M  V30 5088 H 491.188 0.573481 -0.754866 0
M  V30 5089 H 490.894 2.56829 -2.40274 0
M  V30 5090 H 490.768 3.63321 -1.01377 0
M  V30 5091 H 493.155 2.93471 -0.309604 0
M  V30 5092 H 493.236 1.88363 -1.73069 0
M  V30 5093 H 492.88 3.92004 -3.22948 0
M  V30 5094 H 492.81 4.95551 -1.78148 0
M  V30 5095 H 495.301 3.39932 -1.65091 0
M  V30 5096 H 495.614 6.6556 -3.92747 0
M  V30 5097 H 493.959 5.98909 -3.52609 0
M  V30 5098 H 497.15 4.1732 -2.12041 0
M  V30 5099 H 497.323 5.6582 -3.15834 0
M  V30 5100 N 490.729 0.570148 1.46925 0
M  V30 5101 C 491.661 -0.207909 2.28255 0
M  V30 5102 C 492.674 -0.867301 1.37774 0
M  V30 5103 O 493.863 -0.738976 1.62485 0
M  V30 5104 C 490.963 -1.31298 3.12433 0
M  V30 5105 C 490.136 -0.747915 4.30958 0
M  V30 5106 C 489.195 -1.7391 4.9663 0
M  V30 5107 O 488.221 -1.2801 5.54619 0
M  V30 5108 N 489.423 -3.07288 4.92498 0
M  V30 5109 H 492.188 0.489794 2.95671 0
M  V30 5110 H 489.749 0.407076 1.56699 0
M  V30 5111 H 491.741 -1.97507 3.53232 0
M  V30 5112 H 490.311 -1.91373 2.47175 0
M  V30 5113 H 489.531 0.0913066 3.94094 0
M  V30 5114 H 490.819 -0.349958 5.07595 0
M  V30 5115 H 490.217 -3.47213 4.46609 0
M  V30 5116 H 488.774 -3.69021 5.37277 0
M  V30 5117 N 492.207 -1.54576 0.307264 0
M  V30 5118 C 493.17 -2.22423 -0.553224 0
M  V30 5119 C 494.17 -1.21231 -1.05639 0
M  V30 5120 O 495.36 -1.45923 -0.951419 0
M  V30 5121 C 492.492 -2.91552 -1.76664 0
M  V30 5122 H 493.685 -2.99874 0.0396484 0
M  V30 5123 H 491.238 -1.56192 0.0581629 0
M  V30 5124 H 491.973 -2.18196 -2.39918 0
M  V30 5125 H 491.758 -3.65738 -1.41343 0
M  V30 5126 H 493.248 -3.43292 -2.37783 0
M  V30 5127 N 493.685 -0.035106 -1.57561 0
M  V30 5128 C 494.617 0.973604 -2.07494 0
M  V30 5129 C 495.63 1.28504 -0.999534 0
M  V30 5130 O 496.819 1.24864 -1.27559 0
M  V30 5131 C 493.919 2.29945 -2.48955 0
M  V30 5132 C 493.092 2.1723 -3.79644 0
M  V30 5133 C 492.151 3.328 -4.07592 0
M  V30 5134 O 491.177 3.09418 -4.77754 0
M  V30 5135 N 492.379 4.56779 -3.58236 0
M  V30 5136 H 495.144 0.547525 -2.94656 0
M  V30 5137 H 492.705 0.151515 -1.61189 0
M  V30 5138 H 494.697 3.06097 -2.64739 0
M  V30 5139 H 493.267 2.64173 -1.67126 0
M  V30 5140 H 492.487 1.25768 -3.73599 0
M  V30 5141 H 493.775 2.05945 -4.65257 0
M  V30 5142 H 493.173 4.78668 -3.01485 0
M  V30 5143 H 491.73 5.30079 -3.79288 0
M  V30 5144 N 495.163 1.55791 0.238111 0
M  V30 5145 C 496.411 1.77681 0.963001 0
M  V30 5146 C 496.732 0.600674 1.85518 0
M  V30 5147 O 496.002 -0.383182 1.92116 0
M  V30 5148 H 494.582 0.655315 0.358568 0
M  V30 5149 H 497.244 1.93239 0.253945 0
M  V30 5150 H 496.34 2.69177 1.57956 0
M  V30 5151 N 496.642 -0.504142 1.49319 0
M  V30 5152 C 497.574 -1.62265 1.61872 0
M  V30 5153 C 498.587 -1.54881 0.501573 0
M  V30 5154 O 499.776 -1.6087 0.773497 0
M  V30 5155 C 496.876 -3.01042 1.55651 0
M  V30 5156 C 496.049 -3.33642 2.82845 0
M  V30 5157 C 495.108 -4.51816 2.69719 0
M  V30 5158 O 494.134 -4.53755 3.4365 0
M  V30 5159 N 495.336 -5.51543 1.81055 0
M  V30 5160 H 498.101 -1.51924 2.58339 0
M  V30 5161 H 495.662 -0.691954 1.46368 0
M  V30 5162 H 497.654 -3.78013 1.44528 0
M  V30 5163 H 496.224 -3.05323 0.670546 0
M  V30 5164 H 495.444 -2.45598 3.08343 0
M  V30 5165 H 496.732 -3.5222 3.67177 0
M  V30 5166 H 496.13 -5.52774 1.20241 0
M  V30 5167 H 494.687 -6.27629 1.75856 0
M  V30 5168 N 498.12 -1.38341 -0.754957 0
M  V30 5169 C 499.366 -1.34672 -1.51628 0
M  V30 5170 C 499.699 0.0636036 -1.94096 0
M  V30 5171 O 498.974 1.0245 -1.6533 0
M  V30 5172 C 499.257 -2.30116 -2.76981 0
M  V30 5173 C 499.11 -3.80003 -2.4066 0
M  V30 5174 C 500.429 -2.23715 -3.78998 0
M  V30 5175 H 497.548 -0.490517 -0.550056 0
M  V30 5176 H 500.19 -1.69178 -0.864807 0
M  V30 5177 H 498.34 -2.00821 -3.3257 0
M  V30 5178 H 500.012 -4.19966 -1.90856 0
M  V30 5179 H 498.255 -3.97751 -1.73137 0
M  V30 5180 H 498.926 -4.42244 -3.30339 0
M  V30 5181 H 501.402 -2.49574 -3.32945 0
M  V30 5182 H 500.278 -2.9261 -4.64403 0
M  V30 5183 H 500.539 -1.23554 -4.24484 0
M  V30 5184 N 499.598 0.982988 -1.23187 0
M  V30 5185 C 500.823 1.76455 -1.08988 0
M  V30 5186 C 501.248 1.84726 0.354691 0
M  V30 5187 O 500.606 1.30699 1.25649 0
M  V30 5188 C 500.654 3.17094 -1.71708 0
M  V30 5189 O 499.758 4.00648 -0.977477 0
M  V30 5190 H 499.099 0.542988 -0.382177 0
M  V30 5191 H 501.629 1.23413 -1.63188 0
M  V30 5192 H 501.639 3.67684 -1.76841 0
M  V30 5193 H 500.314 3.10389 -2.76823 0
M  V30 5194 H 498.891 3.59161 -1.0029 0
M  V30 5195 N 501.076 1.04316 1.18135 0
M  V30 5196 C 502.316 0.756937 1.89868 0
M  V30 5197 C 502.68 -0.702609 1.78682 0
M  V30 5198 O 503.881 -1.10255 2.45148 0
M  V30 5199 C 502.152 1.21327 3.36176 0
M  V30 5200 S 503.711 1.05307 4.25976 0
M  V30 5201 H 500.529 0.275143 0.655604 0
M  V30 5202 H 503.131 1.33597 1.42731 0
M  V30 5203 H 501.835 2.27086 3.41848 0
M  V30 5204 H 501.366 0.628137 3.88353 0
M  V30 5205 H 503.381 -0.0280093 4.96192 0
M  V30 5206 N 502.554 -1.34406 0.822964 0
M  V30 5207 C 503.487 -2.27407 0.190124 0
M  V30 5208 C 504.465 -1.4889 -0.653486 0
M  V30 5209 O 505.649 -1.78109 -0.617216 0
M  V30 5210 C 502.776 -3.3064 -0.734477 0
M  V30 5211 C 501.822 -4.26488 0.0316099 0
M  V30 5212 S 502.655 -5.17445 1.3788 0
M  V30 5213 C 503.811 -6.24214 0.45907 0
M  V30 5214 H 504.044 -2.80733 0.978586 0
M  V30 5215 H 501.577 -1.41455 0.618866 0
M  V30 5216 H 503.535 -3.90607 -1.26238 0
M  V30 5217 H 502.196 -2.76161 -1.49646 0
M  V30 5218 H 501.389 -4.9951 -0.671285 0
M  V30 5219 H 500.991 -3.70775 0.490066 0
M  V30 5220 H 503.283 -6.76599 -0.349357 0
M  V30 5221 H 504.226 -6.98551 1.15896 0
M  V30 5222 H 504.634 -5.6448 0.0474825 0
M  V30 5223 N 504.032 -0.577932 -1.46621 0
M  V30 5224 C 504.962 0.145917 -2.33044 0
M  V30 5225 C 505.943 0.888412 -1.45056 0
M  V30 5226 O 507.128 0.864812 -1.73881 0
M  V30 5227 C 504.258 1.16322 -3.27241 0
M  V30 5228 C 503.212 0.535868 -4.24632 0
M  V30 5229 C 502.538 1.65929 -5.08303 0
M  V30 5230 C 503.838 -0.523861 -5.19666 0
M  V30 5231 H 505.532 -0.575636 -2.93814 0
M  V30 5232 H 503.078 -0.278272 -1.41286 0
M  V30 5233 H 505.031 1.67793 -3.86553 0
M  V30 5234 H 503.755 1.91498 -2.64567 0
M  V30 5235 H 502.414 0.0422759 -3.66576 0
M  V30 5236 H 502.062 2.40061 -4.42018 0
M  V30 5237 H 501.762 1.2452 -5.74255 0
M  V30 5238 H 503.286 2.17686 -5.70478 0
M  V30 5239 H 504.7 -0.0944059 -5.73222 0
M  V30 5240 H 503.097 -0.858 -5.93935 0
M  V30 5241 H 504.167 -1.41197 -4.63887 0
M  V30 5242 N 505.51 1.54411 -0.315457 0
M  V30 5243 C 506.738 2.04833 0.291738 0
M  V30 5244 C 507.153 1.19203 1.46411 0
M  V30 5245 O 506.51 0.220867 1.81159 0
M  V30 5246 C 506.561 3.53969 0.73404 0
M  V30 5247 O 506.282 4.36346 -0.391682 0
M  V30 5248 C 507.783 4.2045 1.40489 0
M  V30 5249 H 505.003 0.668195 0.0612947 0
M  V30 5250 H 507.547 1.99276 -0.45929 0
M  V30 5251 H 505.702 3.5984 1.43506 0
M  V30 5252 H 506.116 5.24481 -0.0447088 0
M  V30 5253 H 507.59 5.26278 1.66539 0
M  V30 5254 H 508.067 3.71067 2.3496 0
M  V30 5255 H 508.673 4.18694 0.746662 0
M  V30 5256 N 506.988 0.0434614 1.5754 0
M  V30 5257 C 508.236 -0.630786 1.92004 0
M  V30 5258 C 508.557 -1.71836 0.921807 0
M  V30 5259 O 507.827 -1.9587 -0.034522 0
M  V30 5260 H 506.407 -0.235988 0.708745 0
M  V30 5261 H 509.069 0.0946462 1.9467 0
M  V30 5262 H 508.165 -1.07434 2.93026 0
M  V30 5263 N 508.466 -1.55915 -0.229846 0
M  V30 5264 C 509.696 -1.82352 -0.971152 0
M  V30 5265 C 510.104 -0.619231 -1.7878 0
M  V30 5266 O 509.447 0.421597 -1.78797 0
M  V30 5267 C 509.509 -3.02399 -1.9441 0
M  V30 5268 C 509.173 -4.37739 -1.31277 0
M  V30 5269 C 510.17 -5.15074 -0.706757 0
M  V30 5270 C 507.855 -4.84454 -1.32702 0
M  V30 5271 C 509.849 -6.37281 -0.123413 0
M  V30 5272 C 507.536 -6.06605 -0.739831 0
M  V30 5273 C 508.534 -6.82858 -0.139071 0
M  V30 5274 O 508.222 -8.027 0.439007 0
M  V30 5275 H 507.954 -0.61035 -0.290601 0
M  V30 5276 H 510.508 -2.03839 -0.252746 0
M  V30 5277 H 508.738 -2.76709 -2.70128 0
M  V30 5278 H 510.427 -3.15779 -2.55026 0
M  V30 5279 H 511.193 -4.80093 -0.688131 0
M  V30 5280 H 507.072 -4.25081 -1.78402 0
M  V30 5281 H 510.616 -6.96741 0.346124 0
M  V30 5282 H 506.513 -6.4106 -0.755841 0
M  V30 5283 H 507.281 -8.17824 0.332521 0
M  V30 5284 N 509.944 0.496216 -1.49584 0
M  V30 5285 C 511.192 1.24756 -1.58998 0
M  V30 5286 C 511.513 1.92968 -0.280775 0
M  V30 5287 O 510.783 1.82959 0.700198 0
M  V30 5288 H 509.363 0.463471 -0.585836 0
M  V30 5289 H 512.025 0.574678 -1.86235 0
M  V30 5290 H 511.121 2.00895 -2.38847 0
M  V30 5291 N 511.423 1.38739 0.74761 0
M  V30 5292 C 512.648 1.38702 1.54197 0
M  V30 5293 C 513.073 -0.019664 1.8809 0
M  V30 5294 O 512.431 -1.00333 1.51006 0
M  V30 5295 C 512.479 2.25492 2.814 0
M  V30 5296 O 511.583 1.67613 3.76802 0
M  V30 5297 H 510.924 0.472863 0.466151 0
M  V30 5298 H 513.454 1.82577 0.923413 0
M  V30 5299 H 513.464 2.39561 3.30264 0
M  V30 5300 H 512.139 3.27727 2.56062 0
M  V30 5301 H 510.716 1.62718 3.35526 0
M  V30 5302 N 512.901 -0.976442 1.23707 0
M  V30 5303 C 514.178 -1.69296 0.979699 0
M  V30 5304 C 514.558 -2.0508 -0.500555 0
M  V30 5305 O 513.906 -1.74708 -1.47273 0
M  V30 5306 C 514.116 -2.93143 1.89389 0
M  V30 5307 C 515.464 -3.65572 2.15968 0
M  V30 5308 O 516.488 -3.03184 1.86971 0
M  V30 5309 O 515.347 -4.77859 2.65167 0
M  V30 5310 H 512.441 -0.739708 0.369812 0
M  V30 5311 H 514.987 -1.03131 1.34767 0
M  V30 5312 H 513.759 -2.63327 2.89439 0
M  V30 5313 H 513.382 -3.67044 1.52854 0
M  V30 5314 N 514.379 -1.04941 -1.1758 0
M  V30 5315 C 515.309 -0.669172 -2.23706 0
M  V30 5316 C 516.29 0.331835 -1.66832 0
M  V30 5317 O 517.475 0.209988 -1.93061 0
M  V30 5318 C 514.605 -0.0404889 -3.47276 0
M  V30 5319 C 513.559 -0.965983 -4.16957 0
M  V30 5320 C 512.885 -0.201312 -5.34321 0
M  V30 5321 C 514.185 -2.28902 -4.69469 0
M  V30 5322 H 515.879 -1.55639 -2.55767 0
M  V30 5323 H 513.425 -0.749793 -1.22939 0
M  V30 5324 H 515.378 0.237298 -4.20731 0
M  V30 5325 H 514.102 0.881658 -3.14475 0
M  V30 5326 H 512.761 -1.22829 -3.45411 0
M  V30 5327 H 512.409 0.723519 -4.97769 0
M  V30 5328 H 512.109 -0.817968 -5.81879 0
M  V30 5329 H 513.633 0.0692499 -6.10561 0
M  V30 5330 H 515.047 -2.07132 -5.34574 0
M  V30 5331 H 513.444 -2.85942 -5.27596 0
M  V30 5332 H 514.514 -2.92937 -3.86414 0
M  V30 5333 N 515.857 1.33968 -0.830081 0
M  V30 5334 C 516.787 2.31911 -0.271911 0
M  V30 5335 C 517.768 1.58571 0.61556 0
M  V30 5336 O 518.953 1.86514 0.540946 0
M  V30 5337 C 516.083 3.42737 0.561146 0
M  V30 5338 C 515.037 4.27383 -0.229789 0
M  V30 5339 C 514.363 5.29742 0.726463 0
M  V30 5340 C 515.663 5.02 -1.44197 0
M  V30 5341 H 517.357 2.78844 -1.09025 0
M  V30 5342 H 514.903 1.34061 -0.52571 0
M  V30 5343 H 516.856 4.10276 0.961867 0
M  V30 5344 H 515.58 2.94471 1.41261 0
M  V30 5345 H 514.239 3.61456 -0.611964 0
M  V30 5346 H 513.887 4.77736 1.57408 0
M  V30 5347 H 513.587 5.87255 0.20142 0
M  V30 5348 H 515.111 6.00149 1.12489 0
M  V30 5349 H 516.525 5.62355 -1.11488 0
M  V30 5350 H 514.922 5.69122 -1.90317 0
M  V30 5351 H 515.992 4.31281 -2.2164 0
M  V30 5352 N 517.335 0.585699 1.46312 0
M  V30 5353 C 518.582 0.0724211 2.0237 0
M  V30 5354 C 518.91 -1.28868 1.45683 0
M  V30 5355 O 518.165 -1.85853 0.612945 0
M  V30 5356 C 518.464 -0.0401312 3.57377 0
M  V30 5357 C 518.13 1.25376 4.33119 0
M  V30 5358 C 516.792 1.60824 4.5353 0
M  V30 5359 C 519.144 2.10987 4.76586 0
M  V30 5360 C 516.472 2.81676 5.14661 0
M  V30 5361 C 518.824 3.31068 5.39052 0
M  V30 5362 C 517.488 3.66794 5.5769 0
M  V30 5363 H 516.758 0.0265007 0.740526 0
M  V30 5364 H 519.405 0.762935 1.75646 0
M  V30 5365 H 517.71 -0.813791 3.83255 0
M  V30 5366 H 519.407 -0.453078 3.98432 0
M  V30 5367 H 515.997 0.967808 4.1753 0
M  V30 5368 H 520.181 1.84904 4.60569 0
M  V30 5369 H 515.437 3.0949 5.27282 0
M  V30 5370 H 519.611 3.97672 5.71691 0
M  V30 5371 H 517.238 4.60529 6.04828 0
M  V30 5372 N 518.813 -1.54241 0.323641 0
M  V30 5373 C 520.061 -2.00174 -0.278359 0
M  V30 5374 C 520.382 -1.2134 -1.52648 0
M  V30 5375 O 519.652 -0.315244 -1.93347 0
M  V30 5376 H 518.232 -0.739463 -0.105845 0
M  V30 5377 H 520.894 -1.89864 0.440204 0
M  V30 5378 H 519.99 -3.07486 -0.5347 0
M  V30 5379 N 520.291 -0.0518155 -1.57515 0
M  V30 5380 C 521.539 0.620595 -1.92336 0
M  V30 5381 C 521.86 1.71345 -0.930907 0
M  V30 5382 O 521.13 1.95885 0.0241341 0
M  V30 5383 H 519.71 0.232226 -0.709986 0
M  V30 5384 H 522.372 -0.104969 -1.94617 0
M  V30 5385 H 521.468 1.05879 -2.93592 0
M  V30 5386 N 521.769 1.56035 0.221574 0
M  V30 5387 C 523.018 1.78245 0.944016 0
M  V30 5388 C 523.331 0.620371 1.85501 0
M  V30 5389 O 524.537 0.726103 2.6161 0
M  V30 5390 C 522.993 3.15659 1.7288 0
M  V30 5391 C 522.601 4.39591 0.863942 0
M  V30 5392 C 524.345 3.47195 2.44246 0
M  V30 5393 C 522.252 5.6803 1.64607 0
M  V30 5394 H 521.182 0.664547 0.356222 0
M  V30 5395 H 523.833 1.8243 0.197904 0
M  V30 5396 H 522.215 3.0565 2.51781 0
M  V30 5397 H 523.389 4.60655 0.115464 0
M  V30 5398 H 521.704 4.15572 0.262407 0
M  V30 5399 H 524.301 4.40381 3.03263 0
M  V30 5400 H 524.644 2.69693 3.1713 0
M  V30 5401 H 525.177 3.58533 1.72334 0
M  V30 5402 H 521.916 6.48425 0.960507 0
M  V30 5403 H 521.436 5.51027 2.36917 0
M  V30 5404 H 523.115 6.08203 2.20675 0
M  V30 5405 N 523.247 -0.488276 1.49845 0
M  V30 5406 C 524.177 -1.59675 1.70371 0
M  V30 5407 C 525.158 -1.60878 0.552473 0
M  V30 5408 O 526.343 -1.77417 0.78973 0
M  V30 5409 C 523.473 -2.98098 1.782 0
M  V30 5410 C 522.427 -3.11761 2.93239 0
M  V30 5411 C 521.753 -4.51661 2.86193 0
M  V30 5412 C 523.053 -2.90589 4.33999 0
M  V30 5413 H 524.747 -1.42752 2.63177 0
M  V30 5414 H 522.293 -0.685317 1.26647 0
M  V30 5415 H 524.246 -3.75555 1.91144 0
M  V30 5416 H 522.97 -3.16138 0.820018 0
M  V30 5417 H 521.629 -2.36732 2.79917 0
M  V30 5418 H 521.277 -4.66595 1.87877 0
M  V30 5419 H 520.977 -4.61742 3.63412 0
M  V30 5420 H 522.501 -5.31162 3.01163 0
M  V30 5421 H 523.915 -3.57807 4.47936 0
M  V30 5422 H 522.312 -3.1213 5.12538 0
M  V30 5423 H 523.382 -1.86595 4.4756 0
M  V30 5424 N 524.725 -1.39134 -0.740242 0
M  V30 5425 C 525.672 -1.37434 -1.8542 0
M  V30 5426 C 526.642 -0.234822 -1.64432 0
M  V30 5427 O 527.827 -0.429125 -1.85912 0
M  V30 5428 C 524.967 -1.21844 -3.22875 0
M  V30 5429 C 524.08 -2.45296 -3.55603 0
M  V30 5430 C 523.215 -2.22334 -4.82432 0
M  V30 5431 C 522.254 -3.41488 -5.07988 0
M  V30 5432 N 521.391 -3.17877 -6.26018 0
M  V30 5433 H 526.231 -2.3266 -1.86207 0
M  V30 5434 H 523.768 -1.15578 -0.909946 0
M  V30 5435 H 525.726 -1.10818 -4.02213 0
M  V30 5436 H 524.356 -0.3025 -3.21379 0
M  V30 5437 H 523.408 -2.66945 -2.71006 0
M  V30 5438 H 524.72 -3.34063 -3.7041 0
M  V30 5439 H 523.874 -2.0852 -5.69741 0
M  V30 5440 H 522.613 -1.30954 -4.6979 0
M  V30 5441 H 521.618 -3.55807 -4.19144 0
M  V30 5442 H 522.843 -4.33763 -5.22519 0
M  V30 5443 H 520.789 -2.29156 -6.14673 0
M  V30 5444 H 520.706 -4.00198 -6.41387 0
M  V30 5445 H 521.974 -3.07746 -7.16179 0
M  V30 5446 N 526.204 0.969867 -1.24223 0
M  V30 5447 C 527.615 1.52717 -1.07399 0
M  V30 5448 C 527.966 1.92956 0.355298 0
M  V30 5449 O 527.091 1.77112 1.2434 0
M  V30 5450 C 527.686 2.77521 -1.94339 0
M  V30 5451 C 526.245 3.29615 -1.81744 0
M  V30 5452 C 525.392 2.02537 -1.89405 0
M  V30 5453 H 528.343 0.788399 -1.37732 0
M  V30 5454 H 528.364 3.50773 -1.47439 0
M  V30 5455 H 527.876 2.48203 -2.98357 0
M  V30 5456 H 525.977 3.63789 -0.805505 0
M  V30 5457 H 526.09 3.98661 -2.65718 0
M  V30 5458 H 524.454 2.17151 -1.33108 0
M  V30 5459 H 525.237 1.75587 -2.94999 0
M  V30 5460 N 527.682 1.05563 1.17022 0
M  V30 5461 C 528.93 0.76642 1.87004 0
M  V30 5462 C 529.251 -0.708854 1.8166 0
M  V30 5463 O 528.521 -1.51242 1.2451 0
M  V30 5464 H 527.101 0.280516 0.692329 0
M  V30 5465 H 529.763 1.33557 1.41945 0
M  V30 5466 H 528.859 1.08472 2.92644 0
M  V30 5467 N 529.16 -1.33526 0.837174 0
M  V30 5468 C 530.123 -2.27551 0.274421 0
M  V30 5469 C 531.123 -1.50886 -0.555881 0
M  V30 5470 O 532.313 -1.70227 -0.369918 0
M  V30 5471 C 529.445 -3.35332 -0.613605 0
M  V30 5472 H 530.638 -2.78837 1.10408 0
M  V30 5473 H 528.191 -1.439 0.610126 0
M  V30 5474 H 528.926 -2.89285 -1.46577 0
M  V30 5475 H 528.711 -3.92095 -0.0195341 0
M  V30 5476 H 530.201 -4.05433 -1.00068 0
M  V30 5477 N 530.638 -0.59345 -1.46 0
M  V30 5478 C 531.57 0.171569 -2.28557 0
M  V30 5479 C 532.583 0.845273 -1.39137 0
M  V30 5480 O 533.772 0.713033 -1.6364 0
M  V30 5481 C 530.872 1.26311 -3.14482 0
M  V30 5482 C 530.045 0.679258 -4.32094 0
M  V30 5483 C 529.104 1.65987 -4.99334 0
M  V30 5484 O 528.13 1.19171 -5.56585 0
M  V30 5485 N 529.332 2.99414 -4.97324 0
M  V30 5486 H 532.097 -0.536771 -2.94854 0
M  V30 5487 H 529.658 -0.431954 -1.56031 0
M  V30 5488 H 531.65 1.91863 -3.5633 0
M  V30 5489 H 530.22 1.87416 -2.50188 0
M  V30 5490 H 529.44 -0.153992 -3.93899 0
M  V30 5491 H 530.728 0.26916 -5.08088 0
M  V30 5492 H 530.126 3.40064 -4.52076 0
M  V30 5493 H 528.683 3.60426 -5.4308 0
M  V30 5494 N 532.116 1.54067 -0.331816 0
M  V30 5495 C 533.346 2.04833 0.269605 0
M  V30 5496 C 533.754 1.20714 1.45687 0
M  V30 5497 O 533.097 0.232539 1.82222 0
M  V30 5498 C 533.159 3.51386 0.759499 0
M  V30 5499 C 532.823 4.55971 -0.306557 0
M  V30 5500 C 533.82 5.07126 -1.14538 0
M  V30 5501 C 531.505 5.00216 -0.457116 0
M  V30 5502 C 533.499 6.01096 -2.12042 0
M  V30 5503 C 531.186 5.93999 -1.43556 0
M  V30 5504 C 532.184 6.44326 -2.26568 0
M  V30 5505 O 531.872 7.36267 -3.22749 0
M  V30 5506 H 531.604 0.673509 0.0579763 0
M  V30 5507 H 534.158 1.99748 -0.478521 0
M  V30 5508 H 532.388 3.53896 1.55867 0
M  V30 5509 H 534.077 3.85184 1.28017 0
M  V30 5510 H 534.843 4.73716 -1.04009 0
M  V30 5511 H 530.722 4.60652 0.179142 0
M  V30 5512 H 534.266 6.40302 -2.76873 0
M  V30 5513 H 530.163 6.26825 -1.54146 0
M  V30 5514 H 530.931 7.54165 -3.18083 0
M  V30 5515 N 533.594 0.0601682 1.57485 0
M  V30 5516 C 534.871 -0.651956 1.84415 0
M  V30 5517 C 535.251 -1.88498 0.950361 0
M  V30 5518 O 534.599 -2.28496 0.0136719 0
M  V30 5519 C 534.809 -1.00069 3.34346 0
M  V30 5520 C 536.157 -1.37915 4.01578 0
M  V30 5521 O 537.181 -1.09277 3.39024 0
M  V30 5522 O 536.04 -1.91399 5.11887 0
M  V30 5523 H 533.134 -0.322668 0.761455 0
M  V30 5524 H 535.68 0.0902159 1.6946 0
M  V30 5525 H 534.452 -0.124463 3.91102 0
M  V30 5526 H 534.075 -1.80001 3.54521 0
M  V30 5527 N 535.072 -1.5615 -0.213296 0
M  V30 5528 C 536.02 -1.93953 -1.28394 0
M  V30 5529 C 537.014 -0.822592 -1.48087 0
M  V30 5530 O 538.22 -1.00748 -1.49164 0
M  V30 5531 H 534.595 -0.61648 -0.430646 0
M  V30 5532 H 536.566 -2.83275 -0.937977 0
M  V30 5533 C 535.315 -2.27969 -2.62537 0
M  V30 5534 H 534.638 -3.13432 -2.48194 0
M  V30 5535 H 536.078 -2.58297 -3.36242 0
M  V30 5536 C 534.537 -1.10775 -3.18167 0
M  V30 5537 O 535.067 -0.373201 -3.99963 0
M  V30 5538 N 533.273 -0.889377 -2.76656 0
M  V30 5539 H 532.82 -1.48843 -2.10246 0
M  V30 5540 H 532.778 -0.107 -3.14218 0
M  V30 5541 N 536.55 0.480323 -1.50102 0
M  V30 5542 C 537.961 1.06142 -1.53593 0
M  V30 5543 C 538.312 1.93335 -0.334055 0
M  V30 5544 O 537.437 2.09188 0.55403 0
M  V30 5545 C 538.032 1.9317 -2.78336 0
M  V30 5546 C 536.591 2.46405 -2.84538 0
M  V30 5547 C 535.738 1.24521 -2.4777 0
M  V30 5548 H 538.689 0.26333 -1.565 0
M  V30 5549 H 538.71 2.78123 -2.59669 0
M  V30 5550 H 538.222 1.29683 -3.65792 0
M  V30 5551 H 536.323 3.13472 -2.01411 0
M  V30 5552 H 536.436 2.82143 -3.87211 0
M  V30 5553 H 534.8 1.57706 -2.00003 0
M  V30 5554 H 535.583 0.627102 -3.37524 0
M  V30 5555 N 538.028 1.39524 0.732853 0
M  V30 5556 C 538.976 1.38563 1.86824 0
M  V30 5557 C 539.97 0.268467 1.67259 0
M  V30 5558 O 541.176 0.438613 1.74574 0
M  V30 5559 H 537.551 0.432737 0.615014 0
M  V30 5560 H 539.522 2.34328 1.84751 0
M  V30 5561 C 538.271 1.2481 3.24527 0
M  V30 5562 H 537.594 2.10044 3.40179 0
M  V30 5563 H 539.034 1.28194 4.04156 0
M  V30 5564 C 537.493 -0.0432825 3.36872 0
M  V30 5565 O 538.023 -1.01268 3.88726 0
M  V30 5566 N 536.229 -0.107055 2.90403 0
M  V30 5567 H 535.776 0.682512 2.48394 0
M  V30 5568 H 535.734 -0.970618 2.99042 0
M  V30 5569 N 539.506 -0.963266 1.24736 0
M  V30 5570 C 540.438 -2.06162 1.0015 0
M  V30 5571 C 541.451 -1.62771 -0.0305905 0
M  V30 5572 O 542.64 -1.77296 0.206966 0
M  V30 5573 C 539.74 -3.35333 0.490385 0
M  V30 5574 C 538.913 -4.07609 1.58663 0
M  V30 5575 C 537.972 -5.15052 1.0774 0
M  V30 5576 O 536.998 -5.4098 1.77002 0
M  V30 5577 N 538.2 -5.80436 -0.0858605 0
M  V30 5578 H 540.965 -2.27825 1.94719 0
M  V30 5579 H 538.526 -1.13121 1.15825 0
M  V30 5580 H 540.518 -4.04477 0.134371 0
M  V30 5581 H 539.088 -3.10507 -0.361155 0
M  V30 5582 H 538.308 -3.32681 2.11463 0
M  V30 5583 H 539.596 -4.52656 2.32336 0
M  V30 5584 H 538.994 -5.6178 -0.664806 0
M  V30 5585 H 537.551 -6.50674 -0.382981 0
M  V30 5586 N 540.985 -1.06182 -1.16461 0
M  V30 5587 C 541.915 -0.692861 -2.22984 0
M  V30 5588 C 542.896 0.314122 -1.67174 0
M  V30 5589 O 544.081 0.189499 -1.93273 0
M  V30 5590 C 541.211 -0.07732 -3.47214 0
M  V30 5591 C 540.165 -1.01015 -4.15909 0
M  V30 5592 C 539.491 -0.257973 -5.34077 0
M  V30 5593 C 540.791 -2.33868 -4.67015 0
M  V30 5594 H 542.485 -1.58343 -2.54102 0
M  V30 5595 H 540.031 -0.76279 -1.22137 0
M  V30 5596 H 541.984 0.19266 -4.20959 0
M  V30 5597 H 540.708 0.848254 -3.15392 0
M  V30 5598 H 539.367 -1.26486 -3.44088 0
M  V30 5599 H 539.015 0.670684 -4.98509 0
M  V30 5600 H 538.715 -0.879638 -5.80979 0
M  V30 5601 H 540.239 0.00448788 -6.106 0
M  V30 5602 H 541.653 -2.1279 -5.32347 0
M  V30 5603 H 540.05 -2.91522 -5.24533 0
M  V30 5604 H 541.12 -2.97019 -3.83286 0
M  V30 5605 N 542.463 1.3308 -0.844243 0
M  V30 5606 C 543.393 2.3161 -0.296493 0
M  V30 5607 C 544.374 1.59215 0.598707 0
M  V30 5608 O 545.559 1.87077 0.521134 0
M  V30 5609 C 542.689 3.43313 0.524762 0
M  V30 5610 C 541.643 4.27115 -0.275106 0
M  V30 5611 C 540.969 5.30483 0.670236 0
M  V30 5612 C 542.269 5.00443 -1.49514 0
M  V30 5613 H 543.963 2.77672 -1.11976 0
M  V30 5614 H 541.509 1.33496 -0.539899 0
M  V30 5615 H 543.462 4.11273 0.918298 0
M  V30 5616 H 542.186 2.95952 1.3813 0
M  V30 5617 H 540.845 3.60787 -0.650267 0
M  V30 5618 H 540.493 4.79379 1.52332 0
M  V30 5619 H 540.193 5.87435 0.139123 0
M  V30 5620 H 541.717 6.01308 1.06117 0
M  V30 5621 H 543.131 5.61141 -1.17447 0
M  V30 5622 H 541.528 5.67071 -1.96343 0
M  V30 5623 H 542.598 4.28906 -2.26202 0
M  V30 5624 N 543.941 0.601185 1.45683 0
M  V30 5625 C 544.904 -0.111398 2.28929 0
M  V30 5626 C 545.904 -0.801246 1.39416 0
M  V30 5627 O 547.094 -0.650383 1.61603 0
M  V30 5628 C 544.226 -1.16773 3.20276 0
M  V30 5629 H 545.419 0.620412 2.93413 0
M  V30 5630 H 542.972 0.359946 1.52099 0
M  V30 5631 H 543.707 -1.93051 2.60579 0
M  V30 5632 H 543.492 -0.677358 3.86205 0
M  V30 5633 H 544.982 -1.66698 3.82886 0
M  V30 5634 N 545.419 -1.53889 0.339982 0
M  V30 5635 C 546.329 -2.28604 -0.526988 0
M  V30 5636 C 547.345 -1.33578 -1.11503 0
M  V30 5637 O 548.521 -1.66612 -1.13148 0
M  V30 5638 C 545.586 -3.04164 -1.66389 0
M  V30 5639 C 544.647 -4.14809 -1.10599 0
M  V30 5640 C 543.88 -4.86756 -2.18871 0
M  V30 5641 O 544.103 -4.58343 -3.39526 0
M  V30 5642 O 543.037 -5.73289 -1.83366 0
M  V30 5643 H 546.863 -3.03594 0.0802707 0
M  V30 5644 H 544.448 -1.4903 0.105141 0
M  V30 5645 H 546.33 -3.51427 -2.32544 0
M  V30 5646 H 545.005 -2.32035 -2.25703 0
M  V30 5647 H 543.912 -3.71857 -0.409067 0
M  V30 5648 H 545.245 -4.89029 -0.557771 0
M  V30 5649 N 546.897 -0.0685191 -1.57451 0
M  V30 5650 C 547.829 0.929372 -2.09512 0
M  V30 5651 C 548.842 1.26354 -1.02657 0
M  V30 5652 O 550.031 1.2213 -1.30179 0
M  V30 5653 C 547.131 2.24612 -2.53777 0
M  V30 5654 C 546.304 2.09128 -3.84167 0
M  V30 5655 C 545.363 3.24079 -4.14559 0
M  V30 5656 O 544.389 2.99215 -4.8421 0
M  V30 5657 N 545.591 4.49077 -3.67845 0
M  V30 5658 H 548.356 0.484901 -2.95751 0
M  V30 5659 H 545.917 0.11729 -1.61475 0
M  V30 5660 H 547.909 3.00412 -2.71172 0
M  V30 5661 H 546.479 2.60569 -1.72692 0
M  V30 5662 H 545.699 1.17815 -3.76182 0
M  V30 5663 H 546.987 1.9603 -4.69521 0
M  V30 5664 H 546.385 4.72165 -3.11571 0
M  V30 5665 H 544.942 5.21915 -3.90446 0
M  V30 5666 N 548.375 1.56261 0.205012 0
M  V30 5667 C 549.621 1.80306 0.9283 0
M  V30 5668 C 549.954 0.640932 1.83319 0
M  V30 5669 O 549.229 -0.359032 1.91158 0
M  V30 5670 C 549.512 3.14547 1.75306 0
M  V30 5671 C 549.365 4.41236 0.873562 0
M  V30 5672 C 550.684 3.45382 2.72762 0
M  V30 5673 H 547.803 0.655929 0.336044 0
M  V30 5674 H 550.445 1.88984 0.196211 0
M  V30 5675 H 548.595 3.0728 2.37721 0
M  V30 5676 H 550.267 4.60539 0.264887 0
M  V30 5677 H 548.51 4.33427 0.179773 0
M  V30 5678 H 549.181 5.31639 1.48541 0
M  V30 5679 H 551.657 3.52884 2.20481 0
M  V30 5680 H 550.533 4.40449 3.2756 0
M  V30 5681 H 550.794 2.68377 3.51321 0
M  V30 5682 N 549.853 -0.472356 1.50355 0
M  V30 5683 C 551.083 -1.24603 1.64796 0
M  V30 5684 C 551.491 -1.86297 0.330156 0
M  V30 5685 O 550.834 -1.69934 -0.697728 0
M  V30 5686 C 550.896 -2.39578 2.68035 0
M  V30 5687 C 550.56 -1.98531 4.11624 0
M  V30 5688 C 551.557 -1.50856 4.97532 0
M  V30 5689 C 549.242 -2.0729 4.57532 0
M  V30 5690 C 551.236 -1.12481 6.27397 0
M  V30 5691 C 548.923 -1.68527 5.87403 0
M  V30 5692 C 549.921 -1.212 6.7216 0
M  V30 5693 O 549.609 -0.829728 7.99607 0
M  V30 5694 H 549.341 -0.383035 0.55701 0
M  V30 5695 H 551.895 -0.570392 1.97321 0
M  V30 5696 H 550.125 -3.10309 2.30749 0
M  V30 5697 H 551.814 -3.01544 2.71709 0
M  V30 5698 H 552.58 -1.43511 4.63281 0
M  V30 5699 H 548.459 -2.43076 3.91708 0
M  V30 5700 H 552.003 -0.754698 6.93506 0
M  V30 5701 H 547.9 -1.7553 6.21176 0
M  V30 5702 H 548.668 -0.958689 8.12866 0
M  V30 5703 N 551.331 -1.39911 -0.725443 0
M  V30 5704 C 552.747 -1.21725 -1.03224 0
M  V30 5705 C 552.947 -0.0855224 -2.01318 0
M  V30 5706 O 552.003 0.55976 -2.46217 0
M  V30 5707 C 553.316 -2.55511 -1.58539 0
M  V30 5708 C 554.864 -2.62439 -1.70572 0
M  V30 5709 C 555.339 -3.9647 -2.29294 0
M  V30 5710 N 556.83 -3.98159 -2.36692 0
M  V30 5711 C 557.565 -4.98647 -2.83088 0
M  V30 5712 N 557.061 -6.0953 -3.2931 0
M  V30 5713 N 558.854 -4.8602 -2.82384 0
M  V30 5714 H 551.005 -2.12267 -0.075048 0
M  V30 5715 H 553.268 -0.943136 -0.0959066 0
M  V30 5716 H 552.974 -3.38926 -0.939249 0
M  V30 5717 H 552.848 -2.75905 -2.57208 0
M  V30 5718 H 555.235 -1.79401 -2.34306 0
M  V30 5719 H 555.316 -2.45885 -0.705297 0
M  V30 5720 H 554.96 -4.79942 -1.66186 0
M  V30 5721 H 554.89 -4.10349 -3.30032 0
M  V30 5722 H 557.381 -3.18085 -2.04035 0
M  V30 5723 H 557.694 -6.82106 -3.6325 0
M  V30 5724 H 556.039 -6.1311 -3.27294 0
M  V30 5725 H 559.23 -3.98493 -2.45603 0
M  V30 5726 H 559.403 -5.64478 -3.18226 0
M  V30 5727 N 552.809 0.956637 -1.25245 0
M  V30 5728 C 554.037 1.73571 -1.12608 0
M  V30 5729 C 554.452 1.86063 0.320324 0
M  V30 5730 O 553.809 1.35691 1.22042 0
M  V30 5731 C 553.86 3.15053 -1.77268 0
M  V30 5732 O 553.581 3.03174 -3.16255 0
M  V30 5733 C 555.082 4.09248 -1.70386 0
M  V30 5734 H 552.302 0.543955 -0.392879 0
M  V30 5735 H 554.846 1.20031 -1.65568 0
M  V30 5736 H 553.001 3.65543 -1.28284 0
M  V30 5737 H 553.415 3.9241 -3.48015 0
M  V30 5738 H 554.889 5.06138 -2.20291 0
M  V30 5739 H 555.366 4.34102 -0.667239 0
M  V30 5740 H 555.972 3.64672 -2.18849 0
M  V30 5741 N 554.287 1.06798 1.15896 0
M  V30 5742 C 555.703 0.792423 1.38538 0
M  V30 5743 C 555.903 -0.60592 1.92174 0
M  V30 5744 O 554.959 -1.36561 2.12385 0
M  V30 5745 C 556.272 1.86157 2.36149 0
M  V30 5746 C 557.82 1.88567 2.49823 0
M  V30 5747 C 558.295 2.9455 3.5072 0
M  V30 5748 N 559.786 2.93616 3.58251 0
M  V30 5749 C 560.521 3.72267 4.36125 0
M  V30 5750 N 560.017 4.60751 5.17379 0
M  V30 5751 N 561.81 3.60637 4.31158 0
M  V30 5752 H 553.961 1.96993 0.794198 0
M  V30 5753 H 556.224 0.853942 0.411688 0
M  V30 5754 H 555.93 2.86603 2.03843 0
M  V30 5755 H 555.804 1.71692 3.3586 0
M  V30 5756 H 558.191 0.887765 2.8143 0
M  V30 5757 H 558.272 2.0711 1.5013 0
M  V30 5758 H 557.916 3.94537 3.19849 0
M  V30 5759 H 557.846 2.73255 4.50155 0
M  V30 5760 H 560.337 2.29472 3.00252 0
M  V30 5761 H 560.65 5.17408 5.74028 0
M  V30 5762 H 558.995 4.64803 5.16704 0
M  V30 5763 H 562.186 2.90892 3.66742 0
M  V30 5764 H 562.359 4.22176 4.91601 0
M  V30 5765 N 555.766 -1.3263 0.851289 0
M  V30 5766 C 557.012 -1.98061 0.462963 0
M  V30 5767 C 557.367 -1.66162 -0.969948 0
M  V30 5768 O 556.66 -0.937723 -1.67085 0
M  V30 5769 C 556.854 -3.51713 0.635015 0
M  V30 5770 C 556.683 -3.98544 2.0831 0
M  V30 5771 C 555.453 -4.25787 2.72091 0
M  V30 5772 C 557.651 -4.13858 3.0533 0
M  V30 5773 N 555.633 -4.58842 4.07845 0
M  V30 5774 C 557.004 -4.50412 4.26063 0
M  V30 5775 C 559.059 -3.96182 3.0157 0
M  V30 5776 C 557.762 -4.71136 5.43529 0
M  V30 5777 C 559.788 -4.18088 4.18278 0
M  V30 5778 C 559.15 -4.54956 5.37768 0
M  V30 5779 H 555.249 -0.750976 0.218082 0
M  V30 5780 H 557.833 -1.60514 1.10197 0
M  V30 5781 H 556.004 -3.88391 0.0257298 0
M  V30 5782 H 557.736 -4.04118 0.216915 0
M  V30 5783 H 554.491 -4.17734 2.23149 0
M  V30 5784 H 554.915 -4.7956 4.77862 0
M  V30 5785 H 559.557 -3.66783 2.1031 0
M  V30 5786 H 557.275 -4.9939 6.35323 0
M  V30 5787 H 560.861 -4.05918 4.168 0
M  V30 5788 H 559.741 -4.71567 6.26573 0
M  V30 5789 N 557.244 -0.608902 -1.45362 0
M  V30 5790 C 558.472 -0.111013 -2.06602 0
M  V30 5791 C 558.887 1.20516 -1.45332 0
M  V30 5792 O 558.244 1.73437 -0.567978 0
M  V30 5793 C 558.295 0.033688 -3.61484 0
M  V30 5794 O 558.016 -1.23041 -4.20467 0
M  V30 5795 C 559.517 0.562882 -4.39712 0
M  V30 5796 H 556.737 -0.0694453 -0.667397 0
M  V30 5797 H 559.281 -0.837008 -1.86586 0
M  V30 5798 H 557.436 0.710016 -3.80838 0
M  V30 5799 H 557.85 -1.06094 -5.13658 0
M  V30 5800 H 559.324 0.613213 -5.48583 0
M  V30 5801 H 559.801 1.58543 -4.09586 0
M  V30 5802 H 560.407 -0.0794454 -4.25226 0
M  V30 5803 N 558.722 1.53707 -0.348139 0
M  V30 5804 C 559.97 2.00591 0.246478 0
M  V30 5805 C 560.291 1.23753 1.50699 0
M  V30 5806 O 559.561 0.345964 1.92821 0
M  V30 5807 H 558.141 0.741053 0.0940679 0
M  V30 5808 H 560.803 1.89139 -0.470354 0
M  V30 5809 H 559.899 3.08297 0.485714 0
M  V30 5810 N 560.2 0.0768682 1.57412 0
M  V30 5811 C 561.11 -0.903207 2.16516 0
M  V30 5812 C 562.126 -1.32341 1.12968 0
M  V30 5813 O 563.302 -1.39507 1.45258 0
M  V30 5814 C 560.367 -2.1508 2.71922 0
M  V30 5815 C 559.428 -1.78653 3.90361 0
M  V30 5816 C 558.661 -2.97465 4.43114 0
M  V30 5817 O 558.884 -4.11638 3.94854 0
M  V30 5818 O 557.818 -2.76987 5.3438 0
M  V30 5819 H 561.644 -0.430427 3.00634 0
M  V30 5820 H 559.229 -0.146485 1.4868 0
M  V30 5821 H 561.111 -2.8823 3.07411 0
M  V30 5822 H 559.786 -2.61446 1.9086 0
M  V30 5823 H 558.693 -1.0274 3.59716 0
M  V30 5824 H 560.026 -1.37066 4.7273 0
M  V30 5825 N 561.678 -1.56367 -0.196722 0
M  V30 5826 C 562.925 -1.80529 -0.917366 0
M  V30 5827 C 563.253 -0.649817 -1.83324 0
M  V30 5828 O 562.508 0.36451 -1.92275 0
M  V30 5829 C 562.807 -3.10663 -1.767 0
M  V30 5830 C 562.473 -4.3962 -1.00225 0
M  V30 5831 C 561.135 -4.74653 -0.791095 0
M  V30 5832 C 563.487 -5.1913 -0.464035 0
M  V30 5833 C 560.815 -5.86692 -0.0302155 0
M  V30 5834 C 563.167 -6.31964 0.283625 0
M  V30 5835 C 561.831 -6.65581 0.505813 0
M  V30 5836 H 561.101 -0.660602 -0.335688 0
M  V30 5837 H 563.748 -1.90615 -0.183844 0
M  V30 5838 H 562.053 -2.95807 -2.56915 0
M  V30 5839 H 563.75 -3.26563 -2.32718 0
M  V30 5840 H 560.34 -4.12127 -1.17684 0
M  V30 5841 H 564.524 -4.9248 -0.614575 0
M  V30 5842 H 559.78 -6.11211 0.151917 0
M  V30 5843 H 563.954 -6.92791 0.708057 0
M  V30 5844 H 561.581 -7.52239 1.0973 0
M  V30 5845 N 563.156 0.464375 -1.50603 0
M  V30 5846 C 564.119 1.54393 -1.69397 0
M  V30 5847 C 565.119 1.50566 -0.564504 0
M  V30 5848 O 566.309 1.53066 -0.831645 0
M  V30 5849 C 563.441 2.9401 -1.72543 0
M  V30 5850 H 564.634 1.39044 -2.65719 0
M  V30 5851 H 562.187 0.69122 -1.40185 0
M  V30 5852 H 562.922 3.14795 -0.77938 0
M  V30 5853 H 562.707 2.98195 -2.54602 0
M  V30 5854 H 564.197 3.72375 -1.89015 0
M  V30 5855 N 564.634 1.40294 0.718013 0
M  V30 5856 C 565.862 1.4175 1.50714 0
M  V30 5857 C 566.277 0.0165366 1.88793 0
M  V30 5858 O 565.634 -0.958942 1.55276 0
M  V30 5859 C 565.685 2.30598 2.784 0
M  V30 5860 O 565.406 3.6524 2.41932 0
M  V30 5861 C 566.907 2.4062 3.72313 0
M  V30 5862 H 564.127 0.483565 0.465194 0
M  V30 5863 H 566.671 1.84316 0.885889 0
M  V30 5864 H 564.826 1.91401 3.36815 0
M  V30 5865 H 565.24 4.12402 3.24076 0
M  V30 5866 H 566.714 3.07001 4.58753 0
M  V30 5867 H 567.191 1.4305 4.15251 0
M  V30 5868 H 567.797 2.80359 3.19811 0
M  V30 5869 N 566.112 -0.949982 1.2575 0
M  V30 5870 C 567.062 -2.03297 1.03221 0
M  V30 5871 C 568.046 -1.60867 -0.0324751 0
M  V30 5872 O 569.238 -1.76047 0.183423 0
M  V30 5873 C 566.367 -3.36938 0.657841 0
M  V30 5874 C 565.453 -3.85878 1.75952 0
M  V30 5875 N 565.844 -4.0756 2.99547 0
M  V30 5876 C 564.142 -4.14709 1.64111 0
M  V30 5877 C 564.843 -4.47961 3.71087 0
M  V30 5878 N 563.819 -4.5416 2.98731 0
M  V30 5879 H 567.621 -2.1806 1.97045 0
M  V30 5880 H 565.135 -1.13516 1.16138 0
M  V30 5881 H 567.132 -4.14155 0.477614 0
M  V30 5882 H 565.792 -3.2355 -0.273025 0
M  V30 5883 H 566.803 -3.94501 3.35544 0
M  V30 5884 H 563.48 -4.10158 0.779527 0
M  V30 5885 H 564.87 -4.73002 4.77199 0
M  V30 5886 N 567.59 -1.07411 -1.15328 0
M  V30 5887 C 568.838 -0.796073 -1.85761 0
M  V30 5888 C 569.159 0.679864 -1.82764 0
M  V30 5889 O 568.429 1.49242 -1.269 0
M  V30 5890 H 567.009 -0.291495 -0.687779 0
M  V30 5891 H 569.671 -1.35799 -1.39802 0
M  V30 5892 H 568.767 -1.13114 -2.90881 0
M  V30 5893 N 569.068 1.32177 -0.85831 0
M  V30 5894 C 570.031 2.27086 -0.310588 0
M  V30 5895 C 571.031 1.51751 0.531806 0
M  V30 5896 O 572.221 1.70794 0.34279 0
M  V30 5897 C 569.353 3.36266 0.560179 0
M  V30 5898 H 570.546 2.77045 -1.1483 0
M  V30 5899 H 568.099 1.42911 -0.632942 0
M  V30 5900 H 568.834 2.9158 1.41956 0
M  V30 5901 H 568.619 3.92077 -0.0428473 0
M  V30 5902 H 570.109 4.06974 0.936056 0
M  V30 5903 N 570.547 0.616602 1.45037 0
M  V30 5904 C 571.772 0.120192 2.07051 0
M  V30 5905 C 572.197 -1.19008 1.45666 0
M  V30 5906 O 571.555 -1.7267 0.552692 0
M  V30 5907 C 571.603 0.00354901 3.606 0
M  V30 5908 O 570.707 -1.04431 3.98958 0
M  V30 5909 H 570.048 0.0781599 0.659384 0
M  V30 5910 H 572.578 0.849167 1.86146 0
M  V30 5911 H 572.588 -0.191754 4.07549 0
M  V30 5912 H 571.263 0.960239 4.04663 0
M  V30 5913 H 569.84 -0.824749 3.63665 0
M  V30 5914 N 572.025 -1.5352 0.356285 0
M  V30 5915 C 573.265 -2.03027 -0.23649 0
M  V30 5916 C 573.629 -1.23813 -1.46746 0
M  V30 5917 O 574.83 -1.63281 -2.13525 0
M  V30 5918 C 573.101 -3.53442 -0.530415 0
M  V30 5919 S 574.66 -4.24836 -1.09819 0
M  V30 5920 H 571.478 -0.707591 -0.0695378 0
M  V30 5921 H 574.08 -1.89077 0.496999 0
M  V30 5922 H 572.784 -4.087 0.373114 0
M  V30 5923 H 572.315 -3.71536 -1.29323 0
M  V30 5924 H 574.33 -4.35228 -2.38309 0
M  V30 5925 N 573.503 -0.0852151 -1.57369 0
M  V30 5926 C 574.733 0.588605 -1.98038 0
M  V30 5927 C 575.141 1.62869 -0.962817 0
M  V30 5928 O 574.484 1.83611 0.057134 0
M  V30 5929 C 574.546 1.30303 -3.35054 0
M  V30 5930 C 574.21 0.414855 -4.55113 0
M  V30 5931 C 575.207 -0.333011 -5.18832 0
M  V30 5932 C 572.892 0.335804 -5.01176 0
M  V30 5933 C 574.886 -1.14801 -6.26976 0
M  V30 5934 C 572.573 -0.482857 -6.09189 0
M  V30 5935 C 573.571 -1.22342 -6.71953 0
M  V30 5936 O 573.259 -2.02855 -7.77885 0
M  V30 5937 H 572.991 0.163249 -0.655992 0
M  V30 5938 H 575.545 -0.1582 -2.0479 0
M  V30 5939 H 573.775 2.0962 -3.24956 0
M  V30 5940 H 575.464 1.87041 -3.60237 0
M  V30 5941 H 576.23 -0.281611 -4.84182 0
M  V30 5942 H 572.109 0.901869 -4.52092 0
M  V30 5943 H 575.653 -1.72654 -6.75897 0
M  V30 5944 H 571.55 -0.535773 -6.43273 0
M  V30 5945 H 572.318 -1.95432 -7.94826 0
M  V30 5946 N 574.981 1.5647 0.188427 0
M  V30 5947 C 576.229 1.80655 0.905986 0
M  V30 5948 C 576.55 0.659391 1.83513 0
M  V30 5949 O 575.82 -0.321868 1.93238 0
M  V30 5950 H 574.4 0.666391 0.337538 0
M  V30 5951 H 577.062 1.93949 0.192339 0
M  V30 5952 H 576.158 2.74066 1.49313 0
M  V30 5953 N 576.459 -0.456382 1.50847 0
M  V30 5954 C 577.708 -1.2042 1.61808 0
M  V30 5955 C 578.021 -1.9278 0.330932 0
M  V30 5956 O 579.227 -2.69612 0.319643 0
M  V30 5957 C 577.683 -2.18891 2.85683 0
M  V30 5958 C 577.291 -1.52267 4.2133 0
M  V30 5959 C 579.035 -2.94224 3.05994 0
M  V30 5960 C 576.942 -2.4911 5.36375 0
M  V30 5961 H 575.872 -0.453177 0.602616 0
M  V30 5962 H 578.523 -0.473144 1.77295 0
M  V30 5963 H 576.905 -2.95351 2.63787 0
M  V30 5964 H 578.079 -0.814949 4.53536 0
M  V30 5965 H 576.394 -0.891594 4.06743 0
M  V30 5966 H 578.991 -3.66732 3.89117 0
M  V30 5967 H 579.334 -3.54469 2.18306 0
M  V30 5968 H 579.867 -2.24874 3.28141 0
M  V30 5969 H 576.606 -1.93582 6.26264 0
M  V30 5970 H 576.126 -3.17991 5.08569 0
M  V30 5971 H 577.805 -3.10637 5.67551 0
M  V30 5972 N 577.937 -1.40673 -0.710563 0
M  V30 5973 C 579.214 -1.29718 -1.46398 0
M  V30 5974 C 579.594 0.082177 -2.1094 0
M  V30 5975 O 578.942 1.09536 -2.00534 0
M  V30 5976 C 579.152 -2.43967 -2.49562 0
M  V30 5977 C 580.5 -2.84436 -3.15248 0
M  V30 5978 O 581.524 -2.43597 -2.59883 0
M  V30 5979 O 580.383 -3.55008 -4.1549 0
M  V30 5980 H 577.477 -0.509697 -0.651258 0
M  V30 5981 H 580.023 -1.52603 -0.742312 0
M  V30 5982 H 578.795 -3.36076 -2.0042 0
M  V30 5983 H 578.418 -2.22879 -3.29258 0
M  V30 5984 N 579.415 0.9433 -1.26252 0
M  V30 5985 C 580.664 1.68369 -1.11062 0
M  V30 5986 C 580.977 1.92514 0.346104 0
M  V30 5987 O 582.183 2.64358 0.618646 0
M  V30 5988 C 580.639 3.03171 -1.93946 0
M  V30 5989 C 580.247 2.86782 -3.4418 0
M  V30 5990 C 581.991 3.80916 -1.87359 0
M  V30 5991 C 579.898 4.17044 -4.19319 0
M  V30 5992 H 578.828 0.631469 -0.412023 0
M  V30 5993 H 581.479 1.04922 -1.50544 0
M  V30 5994 H 579.861 3.67587 -1.47296 0
M  V30 5995 H 581.035 2.31229 -3.98585 0
M  V30 5996 H 579.35 2.22482 -3.51981 0
M  V30 5997 H 581.947 4.77417 -2.40784 0
M  V30 5998 H 582.29 4.07658 -0.843857 0
M  V30 5999 H 582.823 3.2327 -2.31821 0
M  V30 6000 H 579.562 3.95487 -5.22753 0
M  V30 6001 H 579.082 4.72319 -3.69696 0
M  V30 6002 H 580.761 4.85513 -4.27651 0
M  V30 6003 N 580.893 1.08022 1.14757 0
M  V30 6004 C 582.309 0.807072 1.3769 0
M  V30 6005 C 582.509 -0.585504 1.92806 0
M  V30 6006 O 581.565 -1.34301 2.13821 0
M  V30 6007 C 582.878 1.88651 2.34161 0
M  V30 6008 C 584.426 1.91206 2.47809 0
M  V30 6009 C 584.901 2.98253 3.47576 0
M  V30 6010 N 586.392 2.974 3.55117 0
M  V30 6011 C 587.127 3.76872 4.32152 0
M  V30 6012 N 586.623 4.66212 5.12463 0
M  V30 6013 N 588.416 3.6519 4.27309 0
M  V30 6014 H 580.567 1.97824 0.77326 0
M  V30 6015 H 582.83 0.85826 0.402608 0
M  V30 6016 H 582.536 2.88749 2.00791 0
M  V30 6017 H 582.41 1.75244 3.3402 0
M  V30 6018 H 584.797 0.917564 2.80472 0
M  V30 6019 H 584.878 2.08691 1.47925 0
M  V30 6020 H 584.522 3.97907 3.15646 0
M  V30 6021 H 584.452 2.78014 4.47231 0
M  V30 6022 H 586.943 2.32643 2.97801 0
M  V30 6023 H 587.256 5.23468 5.68508 0
M  V30 6024 H 585.601 4.70257 5.11745 0
M  V30 6025 H 588.792 2.94765 3.63636 0
M  V30 6026 H 588.965 4.27366 4.87095 0
M  V30 6027 N 582.371 -1.3172 0.865308 0
M  V30 6028 C 583.321 -2.26157 0.289305 0
M  V30 6029 C 584.305 -1.50428 -0.570977 0
M  V30 6030 O 585.497 -1.71978 -0.418617 0
M  V30 6031 C 582.626 -3.39457 -0.512237 0
M  V30 6032 C 581.712 -4.22561 0.361028 0
M  V30 6033 N 582.103 -4.84501 1.45231 0
M  V30 6034 C 580.401 -4.45739 0.152641 0
M  V30 6035 C 581.102 -5.46586 1.99043 0
M  V30 6036 N 580.078 -5.28119 1.28809 0
M  V30 6037 H 583.88 -2.71581 1.12344 0
M  V30 6038 H 581.394 -1.45932 0.712565 0
M  V30 6039 H 583.391 -4.06133 -0.941379 0
M  V30 6040 H 582.051 -2.95577 -1.34404 0
M  V30 6041 H 583.062 -4.84293 1.83524 0
M  V30 6042 H 579.739 -4.1251 -0.643583 0
M  V30 6043 H 581.129 -6.05817 2.90577 0
M  V30 6044 N 583.85 -0.624285 -1.44708 0
M  V30 6045 C 585.26 -0.2092 -1.85524 0
M  V30 6046 C 585.611 1.23783 -1.52225 0
M  V30 6047 O 584.736 1.94089 -0.956986 0
M  V30 6048 C 585.332 -0.372897 -3.36742 0
M  V30 6049 C 583.891 -0.012374 -3.76398 0
M  V30 6050 C 583.038 -0.68951 -2.68591 0
M  V30 6051 H 585.989 -0.829894 -1.35272 0
M  V30 6052 H 586.01 0.390134 -3.78495 0
M  V30 6053 H 585.522 -1.42615 -3.60947 0
M  V30 6054 H 583.623 1.03941 -3.57809 0
M  V30 6055 H 583.736 -0.417663 -4.77276 0
M  V30 6056 H 582.1 -0.125484 -2.54391 0
M  V30 6057 H 582.883 -1.74522 -2.9563 0
M  V30 6058 N 585.328 1.53329 -0.364422 0
M  V30 6059 C 586.575 2.01239 0.225634 0
M  V30 6060 C 586.903 1.25172 1.48869 0
M  V30 6061 O 586.158 0.333289 1.92841 0
M  V30 6062 C 586.457 3.52911 0.564661 0
M  V30 6063 C 586.123 4.46837 -0.603936 0
M  V30 6064 C 584.785 4.72234 -0.924585 0
M  V30 6065 C 587.137 5.02409 -1.38691 0
M  V30 6066 C 584.465 5.50454 -2.0302 0
M  V30 6067 C 586.817 5.81836 -2.48293 0
M  V30 6068 C 585.481 6.0552 -2.80894 0
M  V30 6069 H 584.751 0.736386 0.0825654 0
M  V30 6070 H 587.398 1.84948 -0.496645 0
M  V30 6071 H 585.703 3.67144 1.36794 0
M  V30 6072 H 587.4 3.87455 1.03344 0
M  V30 6073 H 583.99 4.27217 -0.343983 0
M  V30 6074 H 588.174 4.82735 -1.15243 0
M  V30 6075 H 583.43 5.67024 -2.28678 0
M  V30 6076 H 587.604 6.23905 -3.0938 0
M  V30 6077 H 585.231 6.65916 -3.66688 0
M  V30 6078 N 586.806 0.0935595 1.57322 0
M  V30 6079 C 588.052 -0.565234 1.95388 0
M  V30 6080 C 588.407 -1.65888 0.974632 0
M  V30 6081 O 587.7 -1.916 0.000376385 0
M  V30 6082 C 587.894 -1.16692 3.37813 0
M  V30 6083 C 587.723 -0.133091 4.49503 0
M  V30 6084 C 586.493 0.289884 5.04468 0
M  V30 6085 C 588.691 0.638141 5.10326 0
M  V30 6086 N 586.673 1.31214 5.99713 0
M  V30 6087 C 588.044 1.51227 6.01274 0
M  V30 6088 C 590.099 0.691827 4.9307 0
M  V30 6089 C 588.802 2.43536 6.76818 0
M  V30 6090 C 590.828 1.60251 5.69274 0
M  V30 6091 C 590.19 2.46427 6.59889 0
M  V30 6092 H 586.289 -0.177212 0.761656 0
M  V30 6093 H 588.873 0.175769 1.93905 0
M  V30 6094 H 587.044 -1.87775 3.39993 0
M  V30 6095 H 588.776 -1.78795 3.63063 0
M  V30 6096 H 585.531 -0.0975541 4.735 0
M  V30 6097 H 585.955 1.82143 6.52038 0
M  V30 6098 H 590.597 0.0397431 4.22781 0
M  V30 6099 H 588.315 3.0977 7.4637 0
M  V30 6100 H 591.901 1.64917 5.57937 0
M  V30 6101 H 590.781 3.15751 7.17824 0
M  V30 6102 N 588.284 -1.56567 -0.180126 0
M  V30 6103 C 589.509 -1.85975 -0.918041 0
M  V30 6104 C 589.934 -0.678888 -1.75422 0
M  V30 6105 O 589.292 0.372168 -1.77439 0
M  V30 6106 C 589.34 -3.13731 -1.77779 0
M  V30 6107 O 588.444 -2.95335 -2.87838 0
M  V30 6108 H 587.785 -0.61196 -0.257683 0
M  V30 6109 H 590.315 -2.03798 -0.180923 0
M  V30 6110 H 590.325 -3.4491 -2.17948 0
M  V30 6111 H 589 -3.99293 -1.16352 0
M  V30 6112 H 587.577 -2.7549 -2.51316 0
M  V30 6113 N 589.762 0.448376 -1.51087 0
M  V30 6114 C 590.712 1.54156 -1.67988 0
M  V30 6115 C 591.696 1.5178 -0.534015 0
M  V30 6116 O 592.888 1.58419 -0.789448 0
M  V30 6117 C 590.017 2.92437 -1.79822 0
M  V30 6118 C 589.103 2.99611 -3.00157 0
M  V30 6119 N 589.494 2.7655 -4.23502 0
M  V30 6120 C 587.792 3.30764 -2.99184 0
M  V30 6121 C 588.493 2.89281 -5.0467 0
M  V30 6122 N 587.469 3.20473 -4.39088 0
M  V30 6123 H 591.271 1.35061 -2.61028 0
M  V30 6124 H 588.785 0.655504 -1.48583 0
M  V30 6125 H 590.782 3.71068 -1.90037 0
M  V30 6126 H 589.442 3.1256 -0.879554 0
M  V30 6127 H 590.453 2.5169 -4.52628 0
M  V30 6128 H 587.13 3.56732 -2.16907 0
M  V30 6129 H 588.52 2.75499 -6.12821 0
M  V30 6130 N 591.24 1.41047 0.703093 0
M  V30 6131 C 592.465 1.43537 1.49706 0
M  V30 6132 C 592.89 0.0401853 1.88057 0
M  V30 6133 O 592.248 -0.954785 1.54122 0
M  V30 6134 C 592.296 2.3433 2.74084 0
M  V30 6135 O 591.4 1.79515 3.71279 0
M  V30 6136 H 590.741 0.487454 0.450871 0
M  V30 6137 H 593.271 1.85422 0.86486 0
M  V30 6138 H 593.281 2.49947 3.22476 0
M  V30 6139 H 591.956 3.35708 2.45506 0
M  V30 6140 H 590.533 1.7331 3.30179 0
M  V30 6141 N 592.718 -0.936591 1.26751 0
M  V30 6142 C 593.648 -2.05315 1.11212 0
M  V30 6143 C 594.629 -1.70092 0.0160262 0
M  V30 6144 O 595.814 -1.93279 0.188894 0
M  V30 6145 C 592.944 -3.39123 0.749171 0
M  V30 6146 C 591.898 -3.88425 1.79751 0
M  V30 6147 C 591.224 -5.18936 1.28876 0
M  V30 6148 C 592.524 -4.12798 3.19992 0
M  V30 6149 H 594.218 -2.18573 2.04613 0
M  V30 6150 H 591.764 -1.05027 0.985159 0
M  V30 6151 H 593.717 -4.16704 0.627323 0
M  V30 6152 H 592.441 -3.25855 -0.220543 0
M  V30 6153 H 591.1 -3.13028 1.90811 0
M  V30 6154 H 590.748 -5.02051 0.308757 0
M  V30 6155 H 590.448 -5.52892 1.98958 0
M  V30 6156 H 591.972 -5.99096 1.17967 0
M  V30 6157 H 593.386 -4.80977 3.11983 0
M  V30 6158 H 591.783 -4.58044 3.87705 0
M  V30 6159 H 592.853 -3.18412 3.65707 0
M  V30 6160 N 594.196 -1.08629 -1.14182 0
M  V30 6161 C 595.445 -0.812271 -1.84621 0
M  V30 6162 C 595.758 0.664313 -1.83973 0
M  V30 6163 O 596.964 1.05357 -2.50224 0
M  V30 6164 C 595.42 -1.4031 -3.31423 0
M  V30 6165 C 595.028 -2.91164 -3.40481 0
M  V30 6166 C 596.772 -1.20767 -4.06959 0
M  V30 6167 C 594.679 -3.43373 -4.81507 0
M  V30 6168 H 593.609 -0.30019 -0.691666 0
M  V30 6169 H 596.26 -1.30798 -1.28701 0
M  V30 6170 H 594.642 -0.835096 -3.87094 0
M  V30 6171 H 595.816 -3.5412 -2.94848 0
M  V30 6172 H 594.131 -3.09646 -2.78403 0
M  V30 6173 H 596.728 -1.57237 -5.11058 0
M  V30 6174 H 597.071 -0.147664 -4.16038 0
M  V30 6175 H 597.604 -1.74274 -3.57594 0
M  V30 6176 H 594.343 -4.48958 -4.77616 0
M  V30 6177 H 593.863 -2.85176 -5.27669 0
M  V30 6178 H 595.542 -3.40095 -5.50404 0
M  V30 6179 N 595.674 1.31259 -0.872281 0
M  V30 6180 C 596.899 2.0133 -0.498099 0
M  V30 6181 C 597.324 1.65031 0.902568 0
M  V30 6182 O 596.682 0.860164 1.59596 0
M  V30 6183 C 596.73 3.54411 -0.665205 0
M  V30 6184 O 595.834 4.11347 0.294473 0
M  V30 6185 H 595.175 0.633844 -0.197832 0
M  V30 6186 H 597.705 1.67402 -1.17633 0
M  V30 6187 H 597.715 4.04147 -0.559373 0
M  V30 6188 H 596.39 3.80171 -1.68651 0
M  V30 6189 H 594.967 3.72624 0.143403 0
M  V30 6190 N 597.152 0.631951 1.44375 0
M  V30 6191 C 598.082 -0.0593243 2.33425 0
M  V30 6192 C 599.063 -0.833964 1.48253 0
M  V30 6193 O 600.248 -0.799682 1.76971 0
M  V30 6194 C 597.378 -1.04096 3.31333 0
M  V30 6195 C 596.332 -0.377899 4.26328 0
M  V30 6196 C 595.658 -1.4695 5.14111 0
M  V30 6197 C 596.958 0.716371 5.17364 0
M  V30 6198 H 598.652 0.684287 2.91475 0
M  V30 6199 H 596.198 0.330518 1.40156 0
M  V30 6200 H 598.151 -1.53331 3.92514 0
M  V30 6201 H 596.875 -1.81547 2.71493 0
M  V30 6202 H 595.534 0.0938054 3.6648 0
M  V30 6203 H 595.182 -2.2349 4.50623 0
M  V30 6204 H 594.882 -1.03121 5.78481 0
M  V30 6205 H 596.406 -1.96363 5.78164 0
M  V30 6206 H 597.82 0.307089 5.72477 0
M  V30 6207 H 596.217 1.07784 5.90341 0
M  V30 6208 H 597.287 1.58316 4.58327 0
M  V30 6209 N 598.631 -1.53133 0.372548 0
M  V30 6210 C 599.871 -2.03267 -0.214943 0
M  V30 6211 C 600.235 -1.25362 -1.45425 0
M  V30 6212 O 601.436 -1.65536 -2.11781 0
M  V30 6213 C 599.707 -3.53985 -0.492897 0
M  V30 6214 S 601.266 -4.25977 -1.05307 0
M  V30 6215 H 598.084 -0.708289 -0.062029 0
M  V30 6216 H 600.686 -1.88539 0.517025 0
M  V30 6217 H 599.39 -4.08282 0.416442 0
M  V30 6218 H 598.921 -3.72887 -1.25375 0
M  V30 6219 H 600.936 -4.37731 -2.33679 0
M  V30 6220 N 600.109 -0.101901 -1.5727 0
M  V30 6221 C 601.059 0.865346 -2.1094 0
M  V30 6222 C 602.043 1.2394 -1.02605 0
M  V30 6223 O 603.235 1.21334 -1.28868 0
M  V30 6224 C 600.364 2.12187 -2.69874 0
M  V30 6225 C 599.45 1.77295 -3.85263 0
M  V30 6226 N 599.841 1.12993 -4.93017 0
M  V30 6227 C 598.139 2.06862 -3.95126 0
M  V30 6228 C 598.84 0.968631 -5.73579 0
M  V30 6229 N 597.816 1.48814 -5.22834 0
M  V30 6230 H 601.618 0.364368 -2.91633 0
M  V30 6231 H 599.132 0.101104 -1.62085 0
M  V30 6232 H 601.129 2.82431 -3.06657 0
M  V30 6233 H 599.789 2.62844 -1.90639 0
M  V30 6234 H 600.8 0.795935 -5.11747 0
M  V30 6235 H 597.477 2.59686 -3.26909 0
M  V30 6236 H 598.867 0.465231 -6.70287 0
M  V30 6237 N 601.587 1.56661 0.17182 0
M  V30 6238 C 602.55 1.9549 1.19651 0
M  V30 6239 C 603.55 0.838501 1.37207 0
M  V30 6240 O 604.74 1.10556 1.34622 0
M  V30 6241 C 601.872 2.24927 2.56166 0
M  V30 6242 H 603.065 2.87184 0.864007 0
M  V30 6243 H 600.618 1.50711 0.41425 0
M  V30 6244 H 601.353 1.35944 2.94431 0
M  V30 6245 H 601.138 3.06301 2.4479 0
M  V30 6246 H 602.628 2.55891 3.30014 0
M  V30 6247 N 603.065 -0.440357 1.51323 0
M  V30 6248 C 603.995 -1.54174 1.75364 0
M  V30 6249 C 604.976 -1.59039 0.603375 0
M  V30 6250 O 606.161 -1.74815 0.845774 0
M  V30 6251 C 603.291 -2.92277 1.87593 0
M  V30 6252 C 602.245 -3.02274 3.03009 0
M  V30 6253 C 601.571 -4.42327 3.00418 0
M  V30 6254 C 602.871 -2.76634 4.43024 0
M  V30 6255 H 604.565 -1.34307 2.67585 0
M  V30 6256 H 602.111 -0.644678 1.28763 0
M  V30 6257 H 604.064 -3.69284 2.02995 0
M  V30 6258 H 602.788 -3.13369 0.920179 0
M  V30 6259 H 601.447 -2.27706 2.87307 0
M  V30 6260 H 601.095 -4.60382 2.02626 0
M  V30 6261 H 600.795 -4.49946 3.77918 0
M  V30 6262 H 602.319 -5.21312 3.17909 0
M  V30 6263 H 603.733 -3.43376 4.59093 0
M  V30 6264 H 602.13 -2.95666 5.22208 0
M  V30 6265 H 603.2 -1.72262 4.5327 0
M  V30 6266 N 604.543 -1.41418 -0.695603 0
M  V30 6267 C 605.493 -1.39731 -1.80165 0
M  V30 6268 C 606.477 -0.271689 -1.5859 0
M  V30 6269 O 607.669 -0.512354 -1.69422 0
M  V30 6270 C 604.798 -1.28187 -3.1847 0
M  V30 6271 C 603.884 -2.45612 -3.45739 0
M  V30 6272 N 604.275 -3.71077 -3.43708 0
M  V30 6273 C 602.573 -2.39424 -3.76288 0
M  V30 6274 C 603.274 -4.48957 -3.69882 0
M  V30 6275 N 602.25 -3.7907 -3.89624 0
M  V30 6276 H 606.052 -2.34656 -1.76957 0
M  V30 6277 H 603.566 -1.35473 -0.89559 0
M  V30 6278 H 605.563 -1.2506 -3.977 0
M  V30 6279 H 604.223 -0.342468 -3.22889 0
M  V30 6280 H 605.234 -4.03963 -3.2409 0
M  V30 6281 H 601.911 -1.53955 -3.88077 0
M  V30 6282 H 603.301 -5.57887 -3.74448 0
M  V30 6283 N 606.021 0.929856 -1.27246 0
M  V30 6284 C 607.432 1.49223 -1.12203 0
M  V30 6285 C 607.783 1.93989 0.293731 0
M  V30 6286 O 606.908 1.80978 1.18642 0
M  V30 6287 C 607.503 2.71198 -2.0307 0
M  V30 6288 C 606.062 3.23666 -1.92139 0
M  V30 6289 C 605.209 1.96409 -1.95752 0
M  V30 6290 H 608.16 0.744181 -1.4017 0
M  V30 6291 H 608.181 3.45905 -1.58524 0
M  V30 6292 H 607.693 2.38585 -3.06102 0
M  V30 6293 H 605.794 3.61042 -0.920834 0
M  V30 6294 H 605.907 3.90006 -2.78267 0
M  V30 6295 H 604.271 2.12806 -1.39949 0
M  V30 6296 H 605.054 1.66113 -3.00436 0
M  V30 6297 N 607.499 1.09233 1.13605 0
M  V30 6298 C 608.776 0.739633 1.81077 0
M  V30 6299 C 609.156 -0.775595 1.96336 0
M  V30 6300 O 608.504 -1.69726 1.52988 0
M  V30 6301 C 608.714 1.47636 3.16235 0
M  V30 6302 C 610.062 1.64087 3.91613 0
M  V30 6303 O 611.086 1.43871 3.25852 0
M  V30 6304 O 609.945 1.97511 5.0956 0
M  V30 6305 H 607.039 0.265464 0.783236 0
M  V30 6306 H 609.585 1.19441 1.20549 0
M  V30 6307 H 608.357 2.50818 3.00344 0
M  V30 6308 H 607.98 1.01362 3.84462 0
M  V30 6309 N 608.977 -1.30795 0.87923 0
M  V30 6310 C 610.207 -2.00237 0.50881 0
M  V30 6311 C 610.615 -1.66115 -0.905682 0
M  V30 6312 O 609.958 -0.89138 -1.60624 0
M  V30 6313 C 610.02 -3.54508 0.597003 0
M  V30 6314 C 609.684 -4.12131 1.97477 0
M  V30 6315 C 610.681 -4.28552 2.94346 0
M  V30 6316 C 608.366 -4.47644 2.2786 0
M  V30 6317 C 610.36 -4.79689 4.19735 0
M  V30 6318 C 608.047 -4.98481 3.53496 0
M  V30 6319 C 609.045 -5.14456 4.49248 0
M  V30 6320 O 608.733 -5.64199 5.72656 0
M  V30 6321 H 608.465 -0.647026 0.195788 0
M  V30 6322 H 611.019 -1.67785 1.1848 0
M  V30 6323 H 609.249 -3.86461 -0.135945 0
M  V30 6324 H 610.938 -4.05198 0.238684 0
M  V30 6325 H 611.704 -4.01424 2.72183 0
M  V30 6326 H 607.583 -4.34481 1.54102 0
M  V30 6327 H 611.127 -4.92073 4.9448 0
M  V30 6328 H 607.024 -5.25044 3.75498 0
M  V30 6329 H 607.792 -5.82551 5.74957 0
M  V30 6330 N 610.455 -0.639598 -1.44038 0
M  V30 6331 C 611.402 0.0602458 -2.30721 0
M  V30 6332 C 612.372 0.828352 -1.43971 0
M  V30 6333 O 613.557 0.807693 -1.72861 0
M  V30 6334 C 610.697 1.03008 -3.29368 0
M  V30 6335 C 609.81 0.259502 -4.3122 0
M  V30 6336 C 608.945 1.22191 -5.16955 0
M  V30 6337 C 607.984 0.440978 -6.10509 0
M  V30 6338 N 607.121 1.35428 -6.88915 0
M  V30 6339 H 611.961 -0.684867 -2.90023 0
M  V30 6340 H 609.498 -0.349509 -1.42888 0
M  V30 6341 H 611.456 1.60583 -3.85057 0
M  V30 6342 H 610.086 1.74222 -2.71747 0
M  V30 6343 H 609.138 -0.432317 -3.77935 0
M  V30 6344 H 610.45 -0.348347 -4.97582 0
M  V30 6345 H 609.604 1.86873 -5.77203 0
M  V30 6346 H 608.343 1.86367 -4.50687 0
M  V30 6347 H 607.348 -0.219279 -5.49363 0
M  V30 6348 H 608.573 -0.196192 -6.78817 0
M  V30 6349 H 606.519 1.9831 -6.25307 0
M  V30 6350 H 606.436 0.800657 -7.51748 0
M  V30 6351 H 607.704 1.98967 -7.53679 0
M  V30 6352 N 611.933 1.52934 -0.380664 0
M  V30 6353 C 613.182 2.00651 0.205477 0
M  V30 6354 C 613.495 1.27164 1.48623 0
M  V30 6355 O 614.701 1.65547 2.15189 0
M  V30 6356 C 613.157 3.57479 0.416726 0
M  V30 6357 C 612.765 4.39857 -0.850268 0
M  V30 6358 C 614.509 4.13509 0.959702 0
M  V30 6359 C 612.416 5.88269 -0.607773 0
M  V30 6360 H 611.346 0.749684 0.0805614 0
M  V30 6361 H 613.997 1.76508 -0.501732 0
M  V30 6362 H 612.379 3.77836 1.18557 0
M  V30 6363 H 613.553 4.31269 -1.62307 0
M  V30 6364 H 611.868 3.95005 -1.31756 0
M  V30 6365 H 614.465 5.22039 1.15669 0
M  V30 6366 H 614.808 3.69054 1.92626 0
M  V30 6367 H 615.341 3.9701 0.250645 0
M  V30 6368 H 612.08 6.3703 -1.54509 0
M  V30 6369 H 611.6 5.99667 0.126247 0
M  V30 6370 H 613.279 6.46558 -0.239014 0
M  V30 6371 N 613.412 0.11024 1.57214 0
M  V30 6372 C 614.659 -0.54987 1.94891 0
M  V30 6373 C 614.987 -1.67243 0.992984 0
M  V30 6374 O 614.242 -1.95694 0.0152703 0
M  V30 6375 C 614.541 -1.13102 3.39032 0
M  V30 6376 C 614.207 -0.130713 4.5071 0
M  V30 6377 C 612.869 0.14437 4.80983 0
M  V30 6378 C 615.221 0.551472 5.18274 0
M  V30 6379 C 612.549 1.10807 5.76141 0
M  V30 6380 C 614.901 1.50375 6.14467 0
M  V30 6381 C 613.565 1.78691 6.43138 0
M  V30 6382 H 612.835 -0.201212 0.713158 0
M  V30 6383 H 615.482 0.189288 1.90562 0
M  V30 6384 H 613.787 -1.94675 3.40013 0
M  V30 6385 H 615.484 -1.64973 3.65493 0
M  V30 6386 H 612.074 -0.355301 4.27125 0
M  V30 6387 H 616.258 0.35211 4.95049 0
M  V30 6388 H 611.514 1.3343 5.96663 0
M  V30 6389 H 615.688 2.03808 6.65909 0
M  V30 6390 H 613.315 2.53522 7.1668 0
M  V30 6391 N 614.89 -1.56749 -0.16351 0
M  V30 6392 C 616.167 -1.73321 -0.906599 0
M  V30 6393 C 616.547 -0.673779 -2.00059 0
M  V30 6394 O 615.895 0.310121 -2.26386 0
M  V30 6395 C 616.105 -3.168 -1.46419 0
M  V30 6396 C 617.453 -3.77993 -1.93407 0
M  V30 6397 O 618.477 -3.20127 -1.56196 0
M  V30 6398 O 617.336 -4.79615 -2.61976 0
M  V30 6399 H 614.43 -0.708073 -0.427272 0
M  V30 6400 H 616.976 -1.69029 -0.150727 0
M  V30 6401 H 615.748 -3.85396 -0.677189 0
M  V30 6402 H 615.371 -3.2545 -2.28403 0
M  V30 6403 N 616.368 0.432326 -1.51554 0
M  V30 6404 C 617.316 1.54572 -1.73811 0
M  V30 6405 C 618.31 1.58246 -0.604539 0
M  V30 6406 O 619.516 1.6193 -0.786041 0
M  V30 6407 H 615.891 0.513626 -0.549265 0
M  V30 6408 H 617.862 1.32977 -2.67132 0
M  V30 6409 C 616.611 2.92181 -1.88483 0
M  V30 6410 H 615.934 2.90088 -2.75116 0
M  V30 6411 H 617.374 3.69439 -2.08065 0
M  V30 6412 C 615.833 3.3065 -0.645909 0
M  V30 6413 O 616.363 4.01216 0.197093 0
M  V30 6414 N 614.569 2.86464 -0.488538 0
M  V30 6415 H 614.116 2.29209 -1.17562 0
M  V30 6416 H 614.074 3.12565 0.339156 0
M  V30 6417 N 617.846 1.41785 0.688094 0
M  V30 6418 C 618.756 1.46596 1.83158 0
M  V30 6419 C 619.772 0.355862 1.70322 0
M  V30 6420 O 620.948 0.604737 1.92106 0
M  V30 6421 C 618.013 1.35322 3.192 0
M  V30 6422 C 617.074 2.56711 3.4409 0
M  V30 6423 C 616.307 2.45965 4.73642 0
M  V30 6424 O 616.53 1.48827 5.50642 0
M  V30 6425 O 615.464 3.35859 4.99482 0
M  V30 6426 H 619.29 2.43083 1.82056 0
M  V30 6427 H 616.875 1.23404 0.842126 0
M  V30 6428 H 618.757 1.31347 4.00407 0
M  V30 6429 H 617.432 0.419536 3.2097 0
M  V30 6430 H 616.339 2.66262 2.62784 0
M  V30 6431 H 617.672 3.48933 3.47141 0
M  V30 6432 N 619.324 -0.923095 1.27737 0
M  V30 6433 C 620.57 -1.67375 1.14514 0
M  V30 6434 C 620.903 -1.91751 -0.307424 0
M  V30 6435 O 620.178 -1.51119 -1.22447 0
M  V30 6436 C 620.461 -3.03745 1.9342 0
M  V30 6437 C 620.314 -2.86581 3.46686 0
M  V30 6438 C 621.633 -4.04144 1.74228 0
M  V30 6439 H 618.752 -0.607427 0.417374 0
M  V30 6440 H 621.394 -1.07089 1.56946 0
M  V30 6441 H 619.544 -3.55204 1.5736 0
M  V30 6442 H 621.216 -2.42203 3.92601 0
M  V30 6443 H 619.459 -2.21829 3.72793 0
M  V30 6444 H 620.13 -3.83381 3.97143 0
M  V30 6445 H 622.606 -3.61712 2.05678 0
M  V30 6446 H 621.482 -4.97543 2.31824 0
M  V30 6447 H 621.743 -4.36661 0.691373 0
M  V30 6448 N 620.802 -1.09834 -1.13024 0
M  V30 6449 C 621.749 -0.741522 -2.18564 0
M  V30 6450 C 622.719 0.279236 -1.63736 0
M  V30 6451 O 623.904 0.159923 -1.90129 0
M  V30 6452 C 621.044 -0.17277 -3.44667 0
M  V30 6453 C 620.157 -1.24808 -4.13578 0
M  V30 6454 C 619.292 -0.641631 -5.27311 0
M  V30 6455 C 618.331 -1.69795 -5.88078 0
M  V30 6456 N 617.468 -1.11223 -6.93234 0
M  V30 6457 H 622.308 -1.64576 -2.48432 0
M  V30 6458 H 619.845 -0.822174 -1.21978 0
M  V30 6459 H 621.803 0.17482 -4.16834 0
M  V30 6460 H 620.433 0.694725 -3.15235 0
M  V30 6461 H 619.485 -1.71288 -3.39653 0
M  V30 6462 H 620.797 -2.04795 -4.54819 0
M  V30 6463 H 619.951 -0.243128 -6.06213 0
M  V30 6464 H 618.69 0.189742 -4.87331 0
M  V30 6465 H 617.695 -2.10595 -5.07868 0
M  V30 6466 H 618.92 -2.53206 -6.3013 0
M  V30 6467 H 616.866 -0.302208 -6.55304 0
M  V30 6468 H 616.783 -1.84901 -7.3304 0
M  V30 6469 H 618.051 -0.740068 -7.75979 0
M  V30 6470 N 622.28 1.30327 -0.886154 0
M  V30 6471 C 623.228 2.30052 -0.343317 0
M  V30 6472 C 624.222 1.60212 0.550305 0
M  V30 6473 O 625.428 1.74674 0.434609 0
M  V30 6474 H 621.803 0.746306 -0.0923681 0
M  V30 6475 H 623.774 2.73294 -1.19804 0
M  V30 6476 C 622.523 3.45079 0.426107 0
M  V30 6477 H 621.846 3.99003 -0.25227 0
M  V30 6478 H 623.286 4.16931 0.771009 0
M  V30 6479 C 621.745 2.95195 1.62363 0
M  V30 6480 O 622.275 2.95323 2.723 0
M  V30 6481 N 620.481 2.51192 1.4612 0
M  V30 6482 H 620.028 2.51286 0.566832 0
M  V30 6483 H 619.986 2.18173 2.2638 0
M  V30 6484 N 623.758 0.647228 1.43697 0
M  V30 6485 C 625.007 0.155552 2.01099 0
M  V30 6486 C 625.32 -1.23569 1.51624 0
M  V30 6487 O 626.526 -1.82226 2.01261 0
M  V30 6488 C 624.982 0.227296 3.59182 0
M  V30 6489 C 624.59 1.62086 4.17651 0
M  V30 6490 C 626.334 -0.207085 4.23995 0
M  V30 6491 C 624.241 1.64685 5.68008 0
M  V30 6492 H 623.171 0.0543895 0.752036 0
M  V30 6493 H 625.822 0.808386 1.64734 0
M  V30 6494 H 624.204 -0.492937 3.9292 0
M  V30 6495 H 625.378 2.36597 3.95422 0
M  V30 6496 H 623.693 2.0007 3.65186 0
M  V30 6497 H 626.29 -0.207426 5.34298 0
M  V30 6498 H 626.633 -1.23742 3.97484 0
M  V30 6499 H 627.166 0.461193 3.95118 0
M  V30 6500 H 623.905 2.65608 5.99277 0
M  V30 6501 H 623.425 0.944914 5.9231 0
M  V30 6502 H 625.104 1.38792 6.31938 0
M  V30 6503 N 625.236 -1.5273 0.388769 0
M  V30 6504 C 626.166 -2.29353 -0.438111 0
M  V30 6505 C 627.147 -1.32719 -1.06394 0
M  V30 6506 O 628.332 -1.61612 -1.07681 0
M  V30 6507 C 625.462 -3.09995 -1.56589 0
M  V30 6508 C 624.416 -4.14509 -1.06613 0
M  V30 6509 C 623.742 -4.83372 -2.28594 0
M  V30 6510 C 625.042 -5.22127 -0.134459 0
M  V30 6511 H 626.736 -2.98723 0.201206 0
M  V30 6512 H 624.282 -1.43665 0.0982089 0
M  V30 6513 H 626.235 -3.62357 -2.15118 0
M  V30 6514 H 624.959 -2.38357 -2.23279 0
M  V30 6515 H 623.618 -3.63128 -0.503383 0
M  V30 6516 H 623.266 -4.08283 -2.93792 0
M  V30 6517 H 622.966 -5.54012 -1.95817 0
M  V30 6518 H 624.49 -5.38538 -2.87766 0
M  V30 6519 H 625.904 -5.69851 -0.627914 0
M  V30 6520 H 624.301 -6.00011 0.103534 0
M  V30 6521 H 625.371 -4.77971 0.816798 0
M  V30 6522 N 626.714 -0.118576 -1.57153 0
M  V30 6523 C 628.13 0.238014 -1.57815 0
M  V30 6524 C 628.33 1.66747 -1.13127 0
M  V30 6525 O 627.386 2.38867 -0.818462 0
M  V30 6526 C 628.699 0.00508207 -3.007 0
M  V30 6527 C 630.247 0.0710139 -3.12919 0
M  V30 6528 C 630.722 -0.13422 -4.57803 0
M  V30 6529 N 632.213 -0.0801755 -4.63131 0
M  V30 6530 C 632.948 -0.213885 -5.73001 0
M  V30 6531 N 632.444 -0.403742 -6.91623 0
M  V30 6532 N 634.237 -0.15349 -5.6189 0
M  V30 6533 H 626.388 -1.05226 -1.84503 0
M  V30 6534 H 628.651 -0.414318 -0.852669 0
M  V30 6535 H 628.357 -0.983125 -3.3768 0
M  V30 6536 H 628.231 0.73714 -3.69927 0
M  V30 6537 H 630.618 1.04975 -2.75798 0
M  V30 6538 H 630.699 -0.692918 -2.46236 0
M  V30 6539 H 630.343 -1.10992 -4.95624 0
M  V30 6540 H 630.273 0.649692 -5.22577 0
M  V30 6541 H 632.764 0.0630689 -3.77847 0
M  V30 6542 H 633.077 -0.496645 -7.71202 0
M  V30 6543 H 631.422 -0.43971 -6.93608 0
M  V30 6544 H 634.613 -0.00613174 -4.681 0
M  V30 6545 H 634.786 -0.261138 -6.47474 0
M  V30 6546 N 628.193 1.56834 0.155195 0
M  V30 6547 C 629.103 2.009 1.21146 0
M  V30 6548 C 630.119 0.923029 1.475 0
M  V30 6549 O 631.295 1.23189 1.59331 0
M  V30 6550 C 628.36 2.37378 2.52691 0
M  V30 6551 C 627.421 3.59883 2.34057 0
M  V30 6552 C 626.654 3.94612 3.59329 0
M  V30 6553 O 626.877 3.30104 4.65175 0
M  V30 6554 O 625.811 4.87895 3.52479 0
M  V30 6555 H 629.637 2.9105 0.867371 0
M  V30 6556 H 627.222 1.44916 0.363298 0
M  V30 6557 H 629.104 2.61737 3.3026 0
M  V30 6558 H 627.779 1.50385 2.86646 0
M  V30 6559 H 626.686 3.40722 1.54465 0
M  V30 6560 H 628.019 4.47468 2.0502 0
M  V30 6561 N 629.671 -0.424282 1.51781 0
M  V30 6562 C 630.901 -1.19297 1.68677 0
M  V30 6563 C 631.309 -1.85152 0.389258 0
M  V30 6564 O 630.652 -1.72067 -0.643311 0
M  V30 6565 C 630.714 -2.30929 2.75521 0
M  V30 6566 C 630.378 -1.85335 4.17732 0
M  V30 6567 C 631.375 -1.34951 5.0208 0
M  V30 6568 C 629.06 -1.92629 4.63896 0
M  V30 6569 C 631.054 -0.924636 6.30658 0
M  V30 6570 C 628.741 -1.49754 5.92467 0
M  V30 6571 C 629.739 -0.997543 6.75676 0
M  V30 6572 O 629.427 -0.57492 8.01842 0
M  V30 6573 H 629.159 -0.36512 0.568914 0
M  V30 6574 H 631.713 -0.507327 1.99036 0
M  V30 6575 H 629.943 -3.02811 2.40505 0
M  V30 6576 H 631.632 -2.92748 2.81165 0
M  V30 6577 H 632.398 -1.287 4.67612 0
M  V30 6578 H 628.277 -2.30491 3.99243 0
M  V30 6579 H 631.821 -0.533682 6.95556 0
M  V30 6580 H 627.718 -1.55679 6.26446 0
M  V30 6581 H 628.486 -0.699597 8.15505 0
M  V30 6582 N 631.149 -1.42148 -0.680565 0
M  V30 6583 C 632.112 -1.4488 -1.77602 0
M  V30 6584 C 633.112 -0.337209 -1.57224 0
M  V30 6585 O 634.302 -0.597778 -1.63622 0
M  V30 6586 C 631.434 -1.27483 -3.16166 0
M  V30 6587 H 632.627 -2.42412 -1.76568 0
M  V30 6588 H 630.18 -1.28511 -0.889645 0
M  V30 6589 H 630.915 -0.30851 -3.22829 0
M  V30 6590 H 630.7 -2.08037 -3.3236 0
M  V30 6591 H 632.19 -1.32265 -3.96101 0
M  V30 6592 N 632.627 0.916307 -1.28225 0
M  V30 6593 C 633.904 1.64429 -1.05936 0
M  V30 6594 C 634.284 2.07234 0.402139 0
M  V30 6595 O 633.632 1.81535 1.3877 0
M  V30 6596 C 633.842 2.83773 -2.03159 0
M  V30 6597 C 635.19 3.54852 -2.33164 0
M  V30 6598 O 636.214 2.93918 -2.01223 0
M  V30 6599 O 635.073 4.64663 -2.87664 0
M  V30 6600 H 632.167 0.721221 -0.404683 0
M  V30 6601 H 634.713 0.965838 -1.39534 0
M  V30 6602 H 633.485 2.49217 -3.01673 0
M  V30 6603 H 633.108 3.59333 -1.70192 0
M  V30 6604 N 634.105 1.10431 1.1244 0
M  V30 6605 C 635.33 0.869089 1.88313 0
M  V30 6606 C 635.755 -0.574912 1.79099 0
M  V30 6607 O 635.113 -1.40496 1.14589 0
M  V30 6608 C 635.161 1.32208 3.3549 0
M  V30 6609 O 634.265 0.487092 4.09513 0
M  V30 6610 H 633.606 0.313894 0.585121 0
M  V30 6611 H 636.136 1.47111 1.42195 0
M  V30 6612 H 636.146 1.31201 3.86329 0
M  V30 6613 H 634.821 2.37364 3.41513 0
M  V30 6614 H 633.398 0.562372 3.68635 0
M  V30 6615 N 635.583 -1.29855 0.893053 0
M  V30 6616 C 636.513 -2.3035 0.382249 0
M  V30 6617 C 637.494 -1.61328 -0.539203 0
M  V30 6618 O 638.679 -1.88882 -0.451342 0
M  V30 6619 C 635.809 -3.45024 -0.396983 0
M  V30 6620 C 634.763 -4.258 0.433437 0
M  V30 6621 C 634.089 -5.32605 -0.472889 0
M  V30 6622 C 635.389 -4.94549 1.67984 0
M  V30 6623 H 637.083 -2.73325 1.22205 0
M  V30 6624 H 634.629 -1.314 0.589073 0
M  V30 6625 H 636.582 -4.14398 -0.765024 0
M  V30 6626 H 635.306 -3.00875 -1.2705 0
M  V30 6627 H 633.965 -3.58125 0.783723 0
M  V30 6628 H 633.613 -4.84702 -1.34435 0
M  V30 6629 H 633.313 -5.87547 0.0789958 0
M  V30 6630 H 634.837 -6.04832 -0.837269 0
M  V30 6631 H 636.251 -5.56395 1.38192 0
M  V30 6632 H 634.648 -5.59393 2.17254 0
M  V30 6633 H 635.718 -4.20215 2.41965 0
M  V30 6634 N 637.061 -0.65484 -1.43351 0
M  V30 6635 C 637.993 0.0744757 -2.29079 0
M  V30 6636 C 639.006 0.7855 -1.42596 0
M  V30 6637 O 640.195 0.642986 -1.66517 0
M  V30 6638 C 637.295 1.12859 -3.19556 0
M  V30 6639 C 636.468 0.495381 -4.34586 0
M  V30 6640 C 635.527 1.44659 -5.05925 0
M  V30 6641 O 634.553 0.954567 -5.61139 0
M  V30 6642 N 635.755 2.78051 -5.09576 0
M  V30 6643 H 638.52 -0.661346 -2.92312 0
M  V30 6644 H 636.081 -0.497744 -1.54059 0
M  V30 6645 H 638.073 1.76577 -3.64147 0
M  V30 6646 H 636.643 1.76636 -2.57912 0
M  V30 6647 H 635.863 -0.32092 -3.92892 0
M  V30 6648 H 637.151 0.0534203 -5.08772 0
M  V30 6649 H 636.549 3.20584 -4.66093 0
M  V30 6650 H 635.106 3.37068 -5.57878 0
M  V30 6651 N 638.539 1.52521 -0.396863 0
M  V30 6652 C 639.469 2.29582 0.425941 0
M  V30 6653 C 640.45 1.33281 1.05689 0
M  V30 6654 O 641.635 1.62181 1.06823 0
M  V30 6655 C 638.765 3.10821 1.54943 0
M  V30 6656 C 637.719 4.15069 1.04413 0
M  V30 6657 C 637.045 4.84578 2.26028 0
M  V30 6658 C 638.345 5.22191 0.106767 0
M  V30 6659 H 640.039 2.98612 -0.217045 0
M  V30 6660 H 637.585 1.43611 -0.105826 0
M  V30 6661 H 639.538 3.63492 2.13193 0
M  V30 6662 H 638.262 2.39538 2.22011 0
M  V30 6663 H 636.921 3.63389 0.484118 0
M  V30 6664 H 636.569 4.09835 2.91623 0
M  V30 6665 H 636.269 5.55043 1.92876 0
M  V30 6666 H 637.793 5.40056 2.84906 0
M  V30 6667 H 639.207 5.70176 0.597685 0
M  V30 6668 H 637.604 5.99947 -0.135352 0
M  V30 6669 H 638.674 4.77531 -0.842134 0
M  V30 6670 N 640.017 0.126909 1.57088 0
M  V30 6671 C 640.947 -0.816847 2.18746 0
M  V30 6672 C 641.928 -1.27161 1.12979 0
M  V30 6673 O 643.113 -1.33279 1.41246 0
M  V30 6674 C 640.243 -2.06398 2.79315 0
M  V30 6675 C 639.197 -1.74673 3.90735 0
M  V30 6676 C 638.523 -3.06482 4.38147 0
M  V30 6677 C 639.823 -1.0089 5.12463 0
M  V30 6678 H 641.517 -0.303032 2.97863 0
M  V30 6679 H 639.063 -0.144314 1.43275 0
M  V30 6680 H 641.016 -2.72885 3.2111 0
M  V30 6681 H 639.74 -2.60118 1.975 0
M  V30 6682 H 638.399 -1.10572 3.49527 0
M  V30 6683 H 638.047 -3.58152 3.5318 0
M  V30 6684 H 637.747 -2.86025 5.13287 0
M  V30 6685 H 639.271 -3.74073 4.82599 0
M  V30 6686 H 640.685 -1.57546 5.51228 0
M  V30 6687 H 639.082 -0.905006 5.93237 0
M  V30 6688 H 640.152 0.00297335 4.849 0
M  V30 6689 N 641.495 -1.56914 -0.146875 0
M  V30 6690 C 642.906 -1.72799 -0.706928 0
M  V30 6691 C 643.257 -0.741329 -1.81656 0
M  V30 6692 O 642.382 0.0920162 -2.16204 0
M  V30 6693 C 642.977 -3.13317 -1.28911 0
M  V30 6694 C 641.536 -3.30803 -1.79573 0
M  V30 6695 C 640.683 -2.68725 -0.684252 0
M  V30 6696 H 643.634 -1.58504 0.0787931 0
M  V30 6697 H 643.655 -3.13323 -2.15891 0
M  V30 6698 H 643.167 -3.85104 -0.481284 0
M  V30 6699 H 641.268 -2.64012 -2.62923 0
M  V30 6700 H 641.381 -4.38754 -1.92436 0
M  V30 6701 H 639.745 -2.29196 -1.11091 0
M  V30 6702 H 640.528 -3.43117 0.112134 0
M  V30 6703 N 642.974 0.416227 -1.52004 0
M  V30 6704 C 643.921 1.50666 -1.74838 0
M  V30 6705 C 644.891 1.55245 -0.590599 0
M  V30 6706 O 646.076 1.71928 -0.827374 0
M  V30 6707 C 643.216 2.88185 -1.89851 0
M  V30 6708 C 642.329 2.92971 -3.17478 0
M  V30 6709 C 641.464 4.21745 -3.22962 0
M  V30 6710 C 640.503 4.20478 -4.4482 0
M  V30 6711 N 639.64 5.40811 -4.47736 0
M  V30 6712 H 644.48 1.30498 -2.67907 0
M  V30 6713 H 642.017 0.633568 -1.32757 0
M  V30 6714 H 643.975 3.68007 -1.96537 0
M  V30 6715 H 642.605 3.06865 -1.00169 0
M  V30 6716 H 641.657 2.05684 -3.19997 0
M  V30 6717 H 642.969 2.87899 -4.07328 0
M  V30 6718 H 642.123 5.09954 -3.28682 0
M  V30 6719 H 640.862 4.29503 -2.31038 0
M  V30 6720 H 639.867 3.30659 -4.39254 0
M  V30 6721 H 641.092 4.14366 -5.38031 0
M  V30 6722 H 639.038 5.4925 -3.58692 0
M  V30 6723 H 638.955 5.37705 -5.31422 0
M  V30 6724 H 640.223 6.30993 -4.57676 0
M  V30 6725 N 644.452 1.42507 0.673017 0
M  V30 6726 C 645.729 1.33554 1.42908 0
M  V30 6727 C 646.109 -0.0262211 2.11084 0
M  V30 6728 O 645.457 -1.04181 2.03368 0
M  V30 6729 C 645.667 2.50498 2.43006 0
M  V30 6730 C 647.015 2.92694 3.07596 0
M  V30 6731 O 648.039 2.50401 2.53333 0
M  V30 6732 O 646.898 3.65899 4.05931 0
M  V30 6733 H 643.992 0.526785 0.637516 0
M  V30 6734 H 646.538 1.54518 0.701591 0
M  V30 6735 H 645.31 3.41272 1.9144 0
M  V30 6736 H 644.933 2.3153 3.23233 0
M  V30 6737 N 645.93 -0.909495 1.28709 0
M  V30 6738 C 647.179 -1.65365 1.15487 0
M  V30 6739 C 647.492 -1.93364 -0.294941 0
M  V30 6740 O 648.698 -2.65905 -0.548338 0
M  V30 6741 C 647.154 -2.97923 2.01916 0
M  V30 6742 C 646.762 -2.77556 3.51663 0
M  V30 6743 C 648.506 -3.75814 1.97393 0
M  V30 6744 C 646.413 -4.0578 4.30229 0
M  V30 6745 H 645.343 -0.620323 0.42862 0
M  V30 6746 H 647.994 -1.00894 1.53273 0
M  V30 6747 H 646.376 -3.63552 1.5699 0
M  V30 6748 H 647.55 -2.2058 4.04575 0
M  V30 6749 H 645.865 -2.13072 3.57756 0
M  V30 6750 H 648.462 -4.70866 2.53357 0
M  V30 6751 H 648.805 -4.05277 0.951643 0
M  V30 6752 H 649.338 -3.1701 2.40311 0
M  V30 6753 H 646.077 -3.81488 5.33055 0
M  V30 6754 H 645.597 -4.62351 3.82089 0
M  V30 6755 H 647.276 -4.74004 4.40374 0
M  V30 6756 N 647.408 -1.11026 -1.11852 0
M  V30 6757 C 648.654 -0.857729 -1.83768 0
M  V30 6758 C 648.987 0.615143 -1.842 0
M  V30 6759 O 648.262 1.45391 -1.29196 0
M  V30 6760 C 648.545 -1.41453 -3.31154 0
M  V30 6761 C 648.398 -2.95471 -3.39142 0
M  V30 6762 C 649.717 -1.0619 -4.27097 0
M  V30 6763 H 646.836 -0.313044 -0.667212 0
M  V30 6764 H 649.478 -1.37443 -1.31185 0
M  V30 6765 H 647.628 -0.975052 -3.76065 0
M  V30 6766 H 649.3 -3.4799 -3.02821 0
M  V30 6767 H 647.543 -3.31759 -2.79497 0
M  V30 6768 H 648.214 -3.29515 -4.42859 0
M  V30 6769 H 650.69 -1.44122 -3.90344 0
M  V30 6770 H 649.566 -1.47832 -5.28618 0
M  V30 6771 H 649.827 0.0278912 -4.42091 0
M  V30 6772 N 648.886 1.2938 -0.899927 0
M  V30 6773 C 650.132 1.96206 -0.536153 0
M  V30 6774 C 650.487 1.69647 0.90761 0
M  V30 6775 O 649.78 0.999089 1.63489 0
M  V30 6776 C 649.974 3.49114 -0.765113 0
M  V30 6777 C 649.803 3.90538 -2.22958 0
M  V30 6778 C 648.573 4.15395 -2.87706 0
M  V30 6779 C 650.771 4.0224 -3.20479 0
M  V30 6780 N 648.753 4.43389 -4.24593 0
M  V30 6781 C 650.124 4.34288 -4.42486 0
M  V30 6782 C 652.179 3.84716 -3.16066 0
M  V30 6783 C 650.882 4.50638 -5.6064 0
M  V30 6784 C 652.908 4.02276 -4.33507 0
M  V30 6785 C 652.27 4.34684 -5.54283 0
M  V30 6786 H 648.369 0.742364 -0.245804 0
M  V30 6787 H 650.953 1.56314 -1.16078 0
M  V30 6788 H 649.124 3.88028 -0.169861 0
M  V30 6789 H 650.856 4.03035 -0.366751 0
M  V30 6790 H 647.611 4.09164 -2.385 0
M  V30 6791 H 648.035 4.61494 -4.95331 0
M  V30 6792 H 652.677 3.58724 -2.23778 0
M  V30 6793 H 650.395 4.75467 -6.5342 0
M  V30 6794 H 653.981 3.90169 -4.31578 0
M  V30 6795 H 652.861 4.47988 -6.43643 0
M  V30 6796 N 650.364 0.662433 1.43002 0
M  V30 6797 C 651.78 0.330835 1.56133 0
M  V30 6798 C 651.98 -1.16454 1.64441 0
M  V30 6799 O 651.036 -1.94964 1.60453 0
M  V30 6800 C 652.349 1.05029 2.81761 0
M  V30 6801 C 653.897 1.03142 2.95518 0
M  V30 6802 C 654.372 1.73196 4.2399 0
M  V30 6803 N 655.863 1.70004 4.30875 0
M  V30 6804 C 656.598 2.21074 5.29069 0
M  V30 6805 N 656.094 2.80473 6.33488 0
M  V30 6806 N 657.887 2.1152 5.20784 0
M  V30 6807 H 650.038 1.63272 1.35853 0
M  V30 6808 H 652.301 0.687149 0.653092 0
M  V30 6809 H 652.007 2.10542 2.81718 0
M  V30 6810 H 651.881 0.607664 3.72273 0
M  V30 6811 H 654.268 -0.0153339 2.95096 0
M  V30 6812 H 654.349 1.51282 2.0627 0
M  V30 6813 H 653.993 2.77833 4.25172 0
M  V30 6814 H 653.923 1.22515 5.1215 0
M  V30 6815 H 656.414 1.26667 3.56039 0
M  V30 6816 H 656.727 3.17094 7.04749 0
M  V30 6817 H 655.072 2.84538 6.34085 0
M  V30 6818 H 658.263 1.64814 4.38126 0
M  V30 6819 H 658.436 2.51629 5.97149 0
M  V30 6820 N 651.842 -1.52309 0.404946 0
M  V30 6821 C 652.789 -2.26898 -0.422597 0
M  V30 6822 C 653.759 -1.2914 -1.04461 0
M  V30 6823 O 654.944 -1.57996 -1.06967 0
M  V30 6824 C 652.084 -3.09053 -1.53559 0
M  V30 6825 C 651.197 -4.21762 -0.934908 0
M  V30 6826 C 650.332 -4.91283 -2.02025 0
M  V30 6827 C 649.371 -5.95962 -1.39628 0
M  V30 6828 N 648.508 -6.59017 -2.42159 0
M  V30 6829 H 653.348 -2.97188 0.219903 0
M  V30 6830 H 650.885 -1.46607 0.120282 0
M  V30 6831 H 652.843 -3.54987 -2.19181 0
M  V30 6832 H 651.473 -2.40942 -2.14818 0
M  V30 6833 H 650.525 -3.80029 -0.167854 0
M  V30 6834 H 651.837 -4.96864 -0.439073 0
M  V30 6835 H 650.991 -5.40601 -2.75383 0
M  V30 6836 H 649.73 -4.15741 -2.54973 0
M  V30 6837 H 648.735 -5.45968 -0.648023 0
M  V30 6838 H 649.96 -6.73445 -0.874553 0
M  V30 6839 H 647.906 -5.86306 -2.94247 0
M  V30 6840 H 647.823 -7.2978 -1.97376 0
M  V30 6841 H 649.091 -7.12974 -3.15099 0
M  V30 6842 N 653.32 -0.135238 -1.57019 0
M  V30 6843 C 654.267 0.808908 -2.1616 0
M  V30 6844 C 655.237 1.25234 -1.09113 0
M  V30 6845 O 656.422 1.32697 -1.37099 0
M  V30 6846 C 653.562 2.04729 -2.77813 0
M  V30 6847 C 652.675 1.65074 -3.99218 0
M  V30 6848 C 651.81 2.84002 -4.48906 0
M  V30 6849 C 650.849 2.40663 -5.62803 0
M  V30 6850 N 649.986 3.5256 -6.07162 0
M  V30 6851 H 654.826 0.297751 -2.96509 0
M  V30 6852 H 652.363 0.135264 -1.46477 0
M  V30 6853 H 654.321 2.7731 -3.11697 0
M  V30 6854 H 652.951 2.53275 -2.00128 0
M  V30 6855 H 652.003 0.823029 -3.7139 0
M  V30 6856 H 653.315 1.29236 -4.81767 0
M  V30 6857 H 652.469 3.64788 -4.84783 0
M  V30 6858 H 651.208 3.23076 -3.65339 0
M  V30 6859 H 650.213 1.58314 -5.26514 0
M  V30 6860 H 651.438 2.02687 -6.48147 0
M  V30 6861 H 649.384 3.91278 -5.26534 0
M  V30 6862 H 649.301 3.20699 -6.84608 0
M  V30 6863 H 650.569 4.33738 -6.47682 0
M  V30 6864 N 654.798 1.5699 0.138552 0
M  V30 6865 C 656.047 1.82998 0.848205 0
M  V30 6866 C 656.36 0.717829 1.81952 0
M  V30 6867 O 657.566 0.863756 2.57394 0
M  V30 6868 C 656.022 3.24379 1.55904 0
M  V30 6869 C 655.63 4.43552 0.62971 0
M  V30 6870 C 657.374 3.59654 2.25498 0
M  V30 6871 C 655.281 5.75957 1.34266 0
M  V30 6872 H 654.211 0.682495 0.320495 0
M  V30 6873 H 656.862 1.83222 0.100924 0
M  V30 6874 H 655.244 3.18567 2.35226 0
M  V30 6875 H 656.418 4.6062 -0.128882 0
M  V30 6876 H 654.733 4.16379 0.0417526 0
M  V30 6877 H 657.33 4.55837 2.79493 0
M  V30 6878 H 657.673 2.86124 3.02388 0
M  V30 6879 H 658.206 3.67164 1.53087 0
M  V30 6880 H 654.945 6.52604 0.615441 0
M  V30 6881 H 654.465 5.62811 2.07375 0
M  V30 6882 H 656.144 6.19046 1.88126 0
M  V30 6883 N 656.276 -0.40816 1.52223 0
M  V30 6884 C 657.524 -1.15274 1.66001 0
M  V30 6885 C 657.845 -1.91003 0.392803 0
M  V30 6886 O 657.115 -1.8673 -0.592336 0
M  V30 6887 H 655.695 -0.428526 0.611861 0
M  V30 6888 H 658.357 -0.46512 1.89269 0
M  V30 6889 H 657.453 -1.86628 2.50153 0
M  V30 6890 N 657.755 -1.42862 -0.66545 0
M  V30 6891 C 659.004 -1.43119 -1.42126 0
M  V30 6892 C 659.317 -0.0545297 -1.95524 0
M  V30 6893 O 660.523 0.0654747 -2.71421 0
M  V30 6894 C 658.979 -2.51797 -2.5715 0
M  V30 6895 C 658.587 -3.95514 -2.10411 0
M  V30 6896 C 660.331 -2.61233 -3.346 0
M  V30 6897 C 658.238 -4.95682 -3.22573 0
M  V30 6898 H 657.168 -0.532349 -0.533966 0
M  V30 6899 H 659.819 -1.68806 -0.719506 0
M  V30 6900 H 658.201 -2.19292 -3.29738 0
M  V30 6901 H 659.375 -4.3742 -1.44915 0
M  V30 6902 H 657.69 -3.90012 -1.45874 0
M  V30 6903 H 660.287 -3.33248 -4.18151 0
M  V30 6904 H 660.63 -1.65896 -3.81817 0
M  V30 6905 H 661.163 -2.9298 -2.69087 0
M  V30 6906 H 657.902 -5.92529 -2.80338 0
M  V30 6907 H 657.422 -4.58399 -3.86821 0
M  V30 6908 H 659.101 -5.17828 -3.87896 0
M  V30 6909 N 659.233 0.902656 -1.29189 0
M  V30 6910 C 660.183 1.99326 -1.10695 0
M  V30 6911 C 661.167 1.60877 -0.0272521 0
M  V30 6912 O 662.359 1.75245 -0.248635 0
M  V30 6913 C 659.488 3.34265 -0.78244 0
M  V30 6914 C 658.574 3.79081 -1.90153 0
M  V30 6915 N 658.965 3.96162 -3.14466 0
M  V30 6916 C 657.263 4.08333 -1.79389 0
M  V30 6917 C 657.964 4.3388 -3.87458 0
M  V30 6918 N 656.94 4.42759 -3.15381 0
M  V30 6919 H 660.742 2.10597 -2.05003 0
M  V30 6920 H 658.256 1.09127 -1.20271 0
M  V30 6921 H 660.253 4.12097 -0.630996 0
M  V30 6922 H 658.913 3.2434 0.152754 0
M  V30 6923 H 659.924 3.81775 -3.49954 0
M  V30 6924 H 656.601 4.06982 -0.931217 0
M  V30 6925 H 657.991 4.54965 -4.94425 0
M  V30 6926 N 660.711 1.11618 1.11262 0
M  V30 6927 C 661.621 0.78898 2.20935 0
M  V30 6928 C 662.637 -0.21867 1.7262 0
M  V30 6929 O 663.813 -0.0543826 2.01327 0
M  V30 6930 C 660.878 0.239014 3.45875 0
M  V30 6931 C 659.939 1.3055 4.08968 0
M  V30 6932 C 659.172 0.781687 5.27944 0
M  V30 6933 O 659.395 -0.387605 5.69082 0
M  V30 6934 O 658.329 1.54734 5.81671 0
M  V30 6935 H 662.155 1.70477 2.51339 0
M  V30 6936 H 659.74 0.892203 1.19834 0
M  V30 6937 H 661.622 -0.0632312 4.21353 0
M  V30 6938 H 660.297 -0.649454 3.17118 0
M  V30 6939 H 659.204 1.66079 3.35214 0
M  V30 6940 H 660.537 2.16743 4.41909 0
M  V30 6941 N 662.189 -1.289 0.906776 0
M  V30 6942 C 663.437 -1.94883 0.535266 0
M  V30 6943 C 663.758 -1.71784 -0.922791 0
M  V30 6944 O 663.028 -1.05359 -1.65156 0
M  V30 6945 H 661.608 -0.721109 0.194962 0
M  V30 6946 H 664.27 -1.57018 1.15461 0
M  V30 6947 H 663.366 -3.03591 0.723821 0
M  V30 6948 N 663.667 -0.670007 -1.42649 0
M  V30 6949 C 664.892 -0.196955 -2.06463 0
M  V30 6950 C 665.317 1.1352 -1.49983 0
M  V30 6951 O 664.675 1.705 -0.616397 0
M  V30 6952 C 664.723 -0.137381 -3.60338 0
M  V30 6953 O 663.827 0.895523 -4.02559 0
M  V30 6954 H 663.168 -0.102579 -0.656029 0
M  V30 6955 H 665.698 -0.917669 -1.82866 0
M  V30 6956 H 665.708 0.0403625 -4.0798 0
M  V30 6957 H 664.383 -1.10977 -4.0082 0
M  V30 6958 H 662.96 0.689209 -3.66476 0
M  V30 6959 N 665.145 1.52092 -0.413018 0
M  V30 6960 C 666.37 2.06756 0.163338 0
M  V30 6961 C 666.795 1.28073 1.37764 0
M  V30 6962 O 666.153 0.312015 1.78595 0
M  V30 6963 C 666.201 3.57278 0.488322 0
M  V30 6964 O 665.305 3.80986 1.57871 0
M  V30 6965 H 664.646 0.663882 0.0125068 0
M  V30 6966 H 667.176 1.95988 -0.587339 0
M  V30 6967 H 667.186 4.01125 0.745836 0
M  V30 6968 H 665.861 4.13978 -0.399327 0
M  V30 6969 H 664.438 3.49017 1.31306 0
M  V30 6970 N 666.623 0.143563 1.56945 0
M  V30 6971 C 667.869 -0.50916 1.96304 0
M  V30 6972 C 668.202 -1.64741 1.0283 0
M  V30 6973 O 667.477 -1.94374 0.0700361 0
M  V30 6974 C 667.76 -1.0186 3.45393 0
M  V30 6975 C 667.613 0.117923 4.49645 0
M  V30 6976 C 668.932 -1.90151 3.96901 0
M  V30 6977 H 666.051 -0.183608 0.713763 0
M  V30 6978 H 668.693 0.224095 1.88674 0
M  V30 6979 H 666.843 -1.64345 3.52027 0
M  V30 6980 H 668.515 0.754145 4.55094 0
M  V30 6981 H 666.758 0.777568 4.26774 0
M  V30 6982 H 667.429 -0.280187 5.51288 0
M  V30 6983 H 669.905 -1.375 3.92725 0
M  V30 6984 H 668.781 -2.22707 5.0169 0
M  V30 6985 H 669.042 -2.83718 3.39052 0
M  V30 6986 N 668.101 -1.57061 -0.130224 0
M  V30 6987 C 669.049 -2.00486 -1.17933 0
M  V30 6988 C 670.043 -0.899933 -1.43519 0
M  V30 6989 O 671.249 -1.08514 -1.43613 0
M  V30 6990 H 667.624 -0.638441 -0.397363 0
M  V30 6991 H 669.595 -2.87848 -0.786501 0
M  V30 6992 C 668.344 -2.41565 -2.50084 0
M  V30 6993 H 667.667 -3.26148 -2.31231 0
M  V30 6994 H 669.107 -2.75757 -3.22078 0
M  V30 6995 C 667.566 -1.27485 -3.11848 0
M  V30 6996 O 668.096 -0.584688 -3.97422 0
M  V30 6997 N 666.302 -1.03478 -2.71552 0
M  V30 6998 H 665.849 -1.59779 -2.02061 0
M  V30 6999 H 665.807 -0.27341 -3.13209 0
M  V30 7000 N 669.579 0.400081 -1.52437 0
M  V30 7001 C 670.511 1.50729 -1.72666 0
M  V30 7002 C 671.524 1.51058 -0.607075 0
M  V30 7003 O 672.713 1.5516 -0.88248 0
M  V30 7004 C 669.813 2.89604 -1.76019 0
M  V30 7005 C 668.986 3.13365 -3.05157 0
M  V30 7006 C 668.045 4.32163 -3.00203 0
M  V30 7007 O 667.071 4.29004 -3.74092 0
M  V30 7008 N 668.273 5.3776 -2.18619 0
M  V30 7009 H 671.038 1.33767 -2.68191 0
M  V30 7010 H 668.599 0.58948 -1.50787 0
M  V30 7011 H 670.591 3.67159 -1.70225 0
M  V30 7012 H 669.161 2.99979 -0.879284 0
M  V30 7013 H 668.381 2.23774 -3.24529 0
M  V30 7014 H 669.669 3.26089 -3.90568 0
M  V30 7015 H 669.067 5.43177 -1.58035 0
M  V30 7016 H 667.624 6.14023 -2.18674 0
M  V30 7017 N 671.057 1.43213 0.657864 0
M  V30 7018 C 672.02 1.47687 1.75275 0
M  V30 7019 C 673.02 0.362179 1.56668 0
M  V30 7020 O 674.21 0.623734 1.62651 0
M  V30 7021 C 671.342 1.32497 3.14098 0
M  V30 7022 H 672.535 2.4519 1.7269 0
M  V30 7023 H 670.088 1.2991 0.869087 0
M  V30 7024 H 670.823 0.359831 3.22298 0
M  V30 7025 H 670.608 2.13299 3.29008 0
M  V30 7026 H 672.098 1.38549 3.93946 0
M  V30 7027 N 672.536 -0.895792 1.29666 0
M  V30 7028 C 673.783 -1.64664 1.17864 0
M  V30 7029 C 674.111 -1.92631 -0.26902 0
M  V30 7030 O 673.366 -1.53787 -1.21029 0
M  V30 7031 C 673.665 -3.00075 1.94139 0
M  V30 7032 C 673.331 -2.91702 3.43833 0
M  V30 7033 C 671.993 -2.89126 3.84656 0
M  V30 7034 C 674.345 -2.80622 4.39205 0
M  V30 7035 C 671.673 -2.73293 5.1916 0
M  V30 7036 C 674.025 -2.66329 5.73805 0
M  V30 7037 C 672.689 -2.62121 6.1388 0
M  V30 7038 H 671.959 -0.602549 0.431295 0
M  V30 7039 H 674.606 -1.04234 1.60648 0
M  V30 7040 H 672.911 -3.64394 1.43958 0
M  V30 7041 H 674.608 -3.57111 1.82408 0
M  V30 7042 H 671.198 -2.94511 3.11386 0
M  V30 7043 H 675.382 -2.81686 4.08615 0
M  V30 7044 H 670.638 -2.68443 5.49316 0
M  V30 7045 H 674.812 -2.56727 6.47352 0
M  V30 7046 H 672.439 -2.49611 7.18052 0
M  V30 7047 N 674.014 -1.12206 -1.10668 0
M  V30 7048 C 674.977 -0.790867 -2.15123 0
M  V30 7049 C 675.977 0.193618 -1.5963 0
M  V30 7050 O 677.167 -0.0318728 -1.74171 0
M  V30 7051 C 674.299 -0.174797 -3.40452 0
M  V30 7052 H 675.492 -1.7163 -2.45933 0
M  V30 7053 H 673.045 -0.924993 -1.2599 0
M  V30 7054 H 673.78 0.760478 -3.15257 0
M  V30 7055 H 673.565 -0.88358 -3.82015 0
M  V30 7056 H 675.055 0.0405162 -4.1758 0
M  V30 7057 N 675.492 1.28418 -0.913599 0
M  V30 7058 C 676.44 2.29272 -0.392037 0
M  V30 7059 C 677.434 1.61344 0.516198 0
M  V30 7060 O 678.64 1.75557 0.39746 0
M  V30 7061 H 675.015 0.744178 -0.108178 0
M  V30 7062 H 676.986 2.70691 -1.25574 0
M  V30 7063 C 675.735 3.45905 0.352815 0
M  V30 7064 H 675.058 3.98378 -0.336848 0
M  V30 7065 H 676.498 4.18473 0.682398 0
M  V30 7066 C 674.957 2.98572 1.56065 0
M  V30 7067 O 675.487 3.01033 2.65974 0
M  V30 7068 N 673.693 2.54235 1.40759 0
M  V30 7069 H 673.24 2.52432 0.513403 0
M  V30 7070 H 673.198 2.22925 2.21702 0
M  V30 7071 N 676.97 0.677563 1.42291 0
M  V30 7072 C 678.216 0.201272 2.01799 0
M  V30 7073 C 678.549 -1.19004 1.53465 0
M  V30 7074 O 677.824 -1.79953 0.738039 0
M  V30 7075 C 678.107 0.238968 3.59306 0
M  V30 7076 C 677.96 1.66594 4.17812 0
M  V30 7077 C 679.279 -0.411287 4.38174 0
M  V30 7078 H 676.398 0.0746114 0.733214 0
M  V30 7079 H 679.04 0.862872 1.69276 0
M  V30 7080 H 677.19 -0.324368 3.87144 0
M  V30 7081 H 678.862 2.28173 4.00917 0
M  V30 7082 H 677.105 2.20576 3.73536 0
M  V30 7083 H 677.776 1.64398 5.26951 0
M  V30 7084 H 680.252 0.0682804 4.16044 0
M  V30 7085 H 679.128 -0.354286 5.47755 0
M  V30 7086 H 679.389 -1.4893 4.1626 0
M  V30 7087 N 678.448 -1.51871 0.421078 0
M  V30 7088 C 679.378 -2.30231 -0.389363 0
M  V30 7089 C 680.359 -1.34946 -1.03555 0
M  V30 7090 O 681.544 -1.63859 -1.04229 0
M  V30 7091 C 678.674 -3.13247 -1.49979 0
M  V30 7092 C 677.628 -4.16677 -0.977966 0
M  V30 7093 C 676.954 -4.88112 -2.1829 0
M  V30 7094 C 678.254 -5.22295 -0.0236775 0
M  V30 7095 H 679.948 -2.98229 0.264524 0
M  V30 7096 H 677.494 -1.43424 0.12866 0
M  V30 7097 H 679.447 -3.66838 -2.07383 0
M  V30 7098 H 678.171 -2.4304 -2.18173 0
M  V30 7099 H 676.83 -3.64114 -0.426245 0
M  V30 7100 H 676.478 -4.14423 -2.85066 0
M  V30 7101 H 676.178 -5.58041 -1.84021 0
M  V30 7102 H 677.702 -5.44521 -2.76278 0
M  V30 7103 H 679.116 -5.71055 -0.506899 0
M  V30 7104 H 677.513 -5.99656 0.230782 0
M  V30 7105 H 678.583 -4.76131 0.917999 0
M  V30 7106 N 679.926 -0.151884 -1.56866 0
M  V30 7107 C 681.174 0.497021 -1.95893 0
M  V30 7108 C 681.495 1.65078 -1.03799 0
M  V30 7109 O 680.765 1.95642 -0.10049 0
M  V30 7110 H 679.345 0.186603 -0.723318 0
M  V30 7111 H 682.007 -0.228525 -1.93556 0
M  V30 7112 H 681.103 0.869933 -2.99731 0
M  V30 7113 N 681.404 1.57128 0.121893 0
M  V30 7114 C 682.629 1.89254 0.848385 0
M  V30 7115 C 683.054 0.743527 1.72781 0
M  V30 7116 O 682.412 -0.306056 1.78698 0
M  V30 7117 C 682.46 3.20113 1.66012 0
M  V30 7118 O 681.564 3.05815 2.76679 0
M  V30 7119 H 680.905 0.621103 0.234793 0
M  V30 7120 H 683.435 2.0433 0.10516 0
M  V30 7121 H 683.445 3.52761 2.04996 0
M  V30 7122 H 682.12 4.03336 1.01452 0
M  V30 7123 H 680.697 2.84627 2.40918 0
M  V30 7124 N 682.882 -0.391992 1.52647 0
M  V30 7125 C 684.11 -1.1586 1.71418 0
M  V30 7126 C 684.525 -1.8381 0.431216 0
M  V30 7127 O 683.882 -1.7256 -0.594085 0
M  V30 7128 C 683.933 -2.20888 2.86165 0
M  V30 7129 O 683.654 -1.5571 4.09495 0
M  V30 7130 C 685.155 -3.103 3.1659 0
M  V30 7131 H 682.375 -0.347494 0.574011 0
M  V30 7132 H 684.919 -0.458972 1.99283 0
M  V30 7133 H 683.074 -2.86492 2.6077 0
M  V30 7134 H 683.488 -2.25474 4.73563 0
M  V30 7135 H 684.962 -3.8003 4.00351 0
M  V30 7136 H 685.439 -3.73639 2.30848 0
M  V30 7137 H 686.045 -2.50345 3.43813 0
M  V30 7138 N 684.36 -1.4356 -0.65026 0
M  V30 7139 C 685.606 -1.45549 -1.41221 0
M  V30 7140 C 685.939 -0.0805472 -1.94033 0
M  V30 7141 O 685.214 0.899043 -1.72475 0
M  V30 7142 C 685.497 -2.50028 -2.59148 0
M  V30 7143 C 685.35 -3.96808 -2.1181 0
M  V30 7144 C 686.669 -2.51212 -3.61359 0
M  V30 7145 H 683.788 -0.529967 -0.512156 0
M  V30 7146 H 686.43 -1.75127 -0.736933 0
M  V30 7147 H 684.58 -2.24937 -3.16758 0
M  V30 7148 H 686.252 -4.32966 -1.59178 0
M  V30 7149 H 684.495 -4.09498 -1.43156 0
M  V30 7150 H 685.166 -4.6553 -2.96625 0
M  V30 7151 H 687.642 -2.73583 -3.13515 0
M  V30 7152 H 686.518 -3.26252 -4.41419 0
M  V30 7153 H 686.779 -1.54701 -4.1415 0
M  V30 7154 N 685.838 0.888903 -1.30139 0
M  V30 7155 C 687.115 1.62145 -1.094 0
M  V30 7156 C 687.495 2.08041 0.358091 0
M  V30 7157 O 686.843 1.84438 1.34888 0
M  V30 7158 C 687.053 2.794 -2.09133 0
M  V30 7159 C 688.401 3.49826 -2.40638 0
M  V30 7160 O 689.425 2.89583 -2.07412 0
M  V30 7161 O 688.284 4.58457 -2.97455 0
M  V30 7162 H 685.378 0.712475 -0.41989 0
M  V30 7163 H 687.924 0.936023 -1.41551 0
M  V30 7164 H 686.696 2.42762 -3.06891 0
M  V30 7165 H 686.319 3.55643 -1.77776 0
M  V30 7166 N 687.317 1.12792 1.10072 0
M  V30 7167 C 688.265 0.794523 2.18609 0
M  V30 7168 C 689.259 -0.220271 1.67962 0
M  V30 7169 O 690.465 -0.0780938 1.79831 0
M  V30 7170 H 686.84 0.239123 0.712969 0
M  V30 7171 H 688.811 1.71823 2.43966 0
M  V30 7172 C 687.56 0.269548 3.46654 0
M  V30 7173 H 686.883 1.04171 3.8599 0
M  V30 7174 H 688.323 0.0746242 4.23934 0
M  V30 7175 C 686.782 -1.00333 3.21613 0
M  V30 7176 O 687.312 -2.08042 3.4363 0
M  V30 7177 N 685.518 -0.931763 2.75257 0
M  V30 7178 H 685.065 -0.0551197 2.57541 0
M  V30 7179 H 685.023 -1.78405 2.58881 0
M  V30 7180 N 688.795 -1.27931 0.920396 0
M  V30 7181 C 690.025 -1.98516 0.572256 0
M  V30 7182 C 690.433 -1.68912 -0.852375 0
M  V30 7183 O 689.776 -0.94203 -1.57707 0
M  V30 7184 C 689.838 -3.5243 0.709485 0
M  V30 7185 C 689.502 -4.0564 2.10489 0
M  V30 7186 C 690.499 -4.1897 3.07831 0
M  V30 7187 C 688.184 -4.40168 2.41986 0
M  V30 7188 C 690.178 -4.66093 4.34783 0
M  V30 7189 C 687.865 -4.86983 3.69176 0
M  V30 7190 C 688.863 -4.99903 4.65388 0
M  V30 7191 O 688.551 -5.45694 5.90316 0
M  V30 7192 H 688.283 -0.64047 0.216274 0
M  V30 7193 H 690.837 -1.6393 1.23758 0
M  V30 7194 H 689.067 -3.86698 -0.0129263 0
M  V30 7195 H 690.756 -4.04233 0.367474 0
M  V30 7196 H 691.522 -3.92562 2.84816 0
M  V30 7197 H 687.401 -4.29358 1.67846 0
M  V30 7198 H 690.945 -4.76092 5.09884 0
M  V30 7199 H 686.842 -5.12832 3.92012 0
M  V30 7200 H 687.61 -5.63965 5.932 0
M  V30 7201 N 690.273 -0.685099 -1.4193 0
M  V30 7202 C 691.205 0.0258679 -2.29185 0
M  V30 7203 C 692.218 0.755076 -1.44231 0
M  V30 7204 O 693.407 0.60752 -1.67844 0
M  V30 7205 C 690.507 1.06055 -3.21878 0
M  V30 7206 C 689.68 0.403088 -4.35539 0
M  V30 7207 C 688.739 1.33895 -5.0888 0
M  V30 7208 O 687.765 0.835326 -5.63037 0
M  V30 7209 N 688.967 2.6718 -5.15359 0
M  V30 7210 H 691.732 -0.723201 -2.90843 0
M  V30 7211 H 689.293 -0.53031 -1.52968 0
M  V30 7212 H 691.285 1.68813 -3.6781 0
M  V30 7213 H 689.855 1.71126 -2.616 0
M  V30 7214 H 689.075 -0.404185 -3.92122 0
M  V30 7215 H 690.363 -0.0545098 -5.08771 0
M  V30 7216 H 689.761 3.10626 -4.72788 0
M  V30 7217 H 688.318 3.25159 -5.64903 0
M  V30 7218 N 691.751 1.51645 -0.429126 0
M  V30 7219 C 692.979 2.06433 0.138994 0
M  V30 7220 C 693.394 1.29735 1.37165 0
M  V30 7221 O 692.751 0.354638 1.79021 0
M  V30 7222 C 692.802 3.58439 0.469452 0
M  V30 7223 O 692.523 4.32238 -0.714273 0
M  V30 7224 C 694.024 4.29712 1.08914 0
M  V30 7225 H 691.244 0.6709 0.0115608 0
M  V30 7226 H 693.788 1.9532 -0.605843 0
M  V30 7227 H 691.943 3.69494 1.16419 0
M  V30 7228 H 692.357 5.22704 -0.433633 0
M  V30 7229 H 693.831 5.37182 1.27042 0
M  V30 7230 H 694.308 3.87473 2.06788 0
M  V30 7231 H 694.914 4.2308 0.434028 0
M  V30 7232 N 693.229 0.160201 1.56784 0
M  V30 7233 C 694.176 -0.774416 2.1742 0
M  V30 7234 C 695.146 -1.23483 1.11091 0
M  V30 7235 O 696.331 -1.30499 1.39193 0
M  V30 7236 C 693.471 -2.00283 2.81035 0
M  V30 7237 C 692.584 -1.58701 4.01793 0
M  V30 7238 C 691.719 -2.76824 4.53367 0
M  V30 7239 C 690.758 -2.31679 5.66561 0
M  V30 7240 N 689.895 -3.42856 6.12694 0
M  V30 7241 H 694.735 -0.250542 2.96945 0
M  V30 7242 H 692.272 -0.111943 1.46673 0
M  V30 7243 H 694.23 -2.72316 3.16069 0
M  V30 7244 H 692.86 -2.5006 2.04132 0
M  V30 7245 H 691.912 -0.76384 3.72652 0
M  V30 7246 H 693.224 -1.21555 4.83762 0
M  V30 7247 H 692.378 -3.57029 4.90525 0
M  V30 7248 H 691.117 -3.17223 3.70433 0
M  V30 7249 H 690.122 -1.49917 5.28966 0
M  V30 7250 H 691.347 -1.9235 6.5129 0
M  V30 7251 H 689.293 -3.82852 5.32692 0
M  V30 7252 H 689.21 -3.09767 6.89624 0
M  V30 7253 H 690.478 -4.23379 6.545 0
M  V30 7254 N 694.707 -1.5719 -0.113559 0
M  V30 7255 C 695.932 -1.89702 -0.838336 0
M  V30 7256 C 696.357 -0.752679 -1.72384 0
M  V30 7257 O 695.715 0.296575 -1.78858 0
M  V30 7258 C 695.763 -3.20989 -1.64312 0
M  V30 7259 O 694.867 -3.07278 -2.75053 0
M  V30 7260 H 694.208 -0.622339 -0.231496 0
M  V30 7261 H 696.738 -2.04382 -0.0943228 0
M  V30 7262 H 696.748 -3.53843 -2.03123 0
M  V30 7263 H 695.423 -4.03869 -0.993119 0
M  V30 7264 H 694 -2.85901 -2.39406 0
M  V30 7265 N 696.185 0.383891 -1.52853 0
M  V30 7266 C 697.601 0.724316 -1.42218 0
M  V30 7267 C 697.801 1.93943 -0.546654 0
M  V30 7268 O 696.857 2.5249 -0.0220562 0
M  V30 7269 C 698.17 0.954635 -2.85144 0
M  V30 7270 C 699.718 1.05579 -2.94656 0
M  V30 7271 C 700.193 1.3187 -4.38605 0
M  V30 7272 N 701.684 1.38681 -4.41952 0
M  V30 7273 C 702.419 1.60699 -5.50421 0
M  V30 7274 N 701.915 1.80154 -6.68967 0
M  V30 7275 N 703.708 1.6292 -5.37972 0
M  V30 7276 H 695.859 -0.4156 -2.08294 0
M  V30 7277 H 698.122 -0.123776 -0.939885 0
M  V30 7278 H 697.828 0.133829 -3.51445 0
M  V30 7279 H 697.702 1.86788 -3.27704 0
M  V30 7280 H 700.089 1.86716 -2.2852 0
M  V30 7281 H 700.17 0.120338 -2.55517 0
M  V30 7282 H 699.814 0.512416 -5.05309 0
M  V30 7283 H 699.744 2.26708 -4.75301 0
M  V30 7284 H 702.235 1.25334 -3.56511 0
M  V30 7285 H 702.548 1.96476 -7.47407 0
M  V30 7286 H 700.893 1.77368 -6.71986 0
M  V30 7287 H 704.084 1.47276 -4.44328 0
M  V30 7288 H 704.257 1.79739 -6.22574 0
M  V30 7289 N 697.663 1.43903 0.642637 0
M  V30 7290 C 698.91 1.46079 1.40239 0
M  V30 7291 C 699.238 0.0890335 1.94296 0
M  V30 7292 O 698.493 -0.907533 1.73385 0
M  V30 7293 C 698.792 2.45907 2.59354 0
M  V30 7294 C 698.458 3.91522 2.23654 0
M  V30 7295 C 697.12 4.31179 2.1363 0
M  V30 7296 C 699.472 4.83242 1.95261 0
M  V30 7297 C 696.8 5.60495 1.73384 0
M  V30 7298 C 699.152 6.12933 1.56511 0
M  V30 7299 C 697.816 6.51556 1.4502 0
M  V30 7300 H 697.086 0.534542 0.513172 0
M  V30 7301 H 699.733 1.77047 0.72984 0
M  V30 7302 H 698.038 2.08381 3.3179 0
M  V30 7303 H 699.735 2.44842 3.17574 0
M  V30 7304 H 696.325 3.60142 2.32369 0
M  V30 7305 H 700.509 4.53367 2.0192 0
M  V30 7306 H 695.765 5.89249 1.63082 0
M  V30 7307 H 699.939 6.83469 1.33576 0
M  V30 7308 H 697.566 7.51663 1.13606 0
M  V30 7309 N 699.141 -0.881989 1.30609 0
M  V30 7310 C 700.369 -1.66711 1.22536 0
M  V30 7311 C 700.784 -1.87614 -0.2113 0
M  V30 7312 O 700.141 -1.42576 -1.13923 0
M  V30 7313 C 700.192 -3.04182 1.95335 0
M  V30 7314 O 699.913 -2.8422 3.33393 0
M  V30 7315 C 701.414 -3.98617 1.93956 0
M  V30 7316 H 698.634 -0.520124 0.423925 0
M  V30 7317 H 701.178 -1.10174 1.72285 0
M  V30 7318 H 699.333 -3.57442 1.49378 0
M  V30 7319 H 699.747 -3.71452 3.70302 0
M  V30 7320 H 701.221 -4.92433 2.49426 0
M  V30 7321 H 701.698 -4.29473 0.919198 0
M  V30 7322 H 702.304 -3.51292 2.39738 0
M  V30 7323 N 700.619 -1.13374 -1.09472 0
M  V30 7324 C 701.849 -0.917019 -1.85133 0
M  V30 7325 C 702.257 0.537568 -1.81402 0
M  V30 7326 O 701.6 1.38385 -1.20811 0
M  V30 7327 C 701.662 -1.32646 -3.34134 0
M  V30 7328 C 701.326 -2.79437 -3.61613 0
M  V30 7329 C 702.323 -3.77596 -3.57375 0
M  V30 7330 C 700.008 -3.16586 -3.89973 0
M  V30 7331 C 702.002 -5.10916 -3.81108 0
M  V30 7332 C 699.689 -4.50085 -4.13361 0
M  V30 7333 C 700.687 -5.47059 -4.0892 0
M  V30 7334 O 700.375 -6.78149 -4.31705 0
M  V30 7335 H 700.107 -0.326997 -0.591649 0
M  V30 7336 H 702.661 -1.51002 -1.39239 0
M  V30 7337 H 700.891 -0.676719 -3.80733 0
M  V30 7338 H 702.58 -1.08229 -3.91205 0
M  V30 7339 H 703.346 -3.50242 -3.35493 0
M  V30 7340 H 699.225 -2.41707 -3.92554 0
M  V30 7341 H 702.769 -5.86597 -3.77558 0
M  V30 7342 H 698.666 -4.77163 -4.34724 0
M  V30 7343 H 699.434 -6.84244 -4.49168 0
M  V30 7344 N 702.098 1.27442 -0.927168 0
M  V30 7345 C 703.514 1.46754 -0.627329 0
M  V30 7346 C 703.714 1.83902 0.823549 0
M  V30 7347 O 702.77 1.95215 1.60148 0
M  V30 7348 C 704.083 2.56045 -1.57674 0
M  V30 7349 C 705.631 2.69906 -1.58491 0
M  V30 7350 C 706.106 3.82355 -2.52128 0
M  V30 7351 N 707.597 3.89728 -2.50332 0
M  V30 7352 C 708.332 4.76155 -3.19475 0
M  V30 7353 N 707.828 5.67073 -3.97995 0
M  V30 7354 N 709.621 4.6988 -3.08496 0
M  V30 7355 H 701.772 1.01613 -1.86517 0
M  V30 7356 H 704.035 0.507443 -0.800753 0
M  V30 7357 H 703.741 2.35542 -2.61176 0
M  V30 7358 H 703.615 3.53423 -1.31804 0
M  V30 7359 H 706.002 2.89792 -0.557208 0
M  V30 7360 H 706.083 1.73018 -1.8841 0
M  V30 7361 H 705.727 3.63224 -3.55008 0
M  V30 7362 H 705.657 4.7867 -2.19505 0
M  V30 7363 H 708.148 3.24717 -1.93306 0
M  V30 7364 H 708.461 6.2988 -4.4774 0
M  V30 7365 H 706.806 5.6687 -4.02098 0
M  V30 7366 H 709.997 3.97848 -2.46646 0
M  V30 7367 H 710.17 5.37017 -3.62652 0
M  V30 7368 N 703.576 0.692616 1.41565 0
M  V30 7369 C 704.822 0.222664 2.01574 0
M  V30 7370 C 705.155 -1.1737 1.54719 0
M  V30 7371 O 704.43 -1.79161 0.757084 0
M  V30 7372 C 704.713 0.277064 3.59033 0
M  V30 7373 C 704.566 1.71016 4.16021 0
M  V30 7374 C 705.885 -0.36479 4.38586 0
M  V30 7375 H 703.004 0.0823839 0.732381 0
M  V30 7376 H 705.646 0.880778 1.68352 0
M  V30 7377 H 703.796 -0.283288 3.87466 0
M  V30 7378 H 705.468 2.32413 3.98475 0
M  V30 7379 H 703.711 2.24525 3.71175 0
M  V30 7380 H 704.382 1.69978 5.25178 0
M  V30 7381 H 706.858 0.112404 4.15948 0
M  V30 7382 H 705.734 -0.296169 5.481 0
M  V30 7383 H 705.995 -1.44506 4.17816 0
M  V30 7384 N 705.054 -1.51416 0.437162 0
M  V30 7385 C 706.284 -2.06204 -0.127859 0
M  V30 7386 C 706.692 -1.30463 -1.37026 0
M  V30 7387 O 706.035 -0.357516 -1.80187 0
M  V30 7388 C 706.097 -3.55783 -0.515632 0
M  V30 7389 C 705.761 -4.52776 0.619937 0
M  V30 7390 C 706.758 -4.98031 1.49201 0
M  V30 7391 C 704.443 -4.95878 0.800618 0
M  V30 7392 C 706.437 -5.85061 2.52947 0
M  V30 7393 C 704.124 -5.82699 1.84135 0
M  V30 7394 C 705.122 -6.27188 2.70416 0
M  V30 7395 O 704.81 -7.12284 3.72702 0
M  V30 7396 H 704.542 -0.675903 -0.011442 0
M  V30 7397 H 707.096 -1.95977 0.614986 0
M  V30 7398 H 705.326 -3.63793 -1.31118 0
M  V30 7399 H 707.015 -3.93087 -1.01179 0
M  V30 7400 H 707.781 -4.65426 1.36395 0
M  V30 7401 H 703.66 -4.60792 0.138617 0
M  V30 7402 H 707.204 -6.19708 3.20325 0
M  V30 7403 H 703.101 -6.14717 1.9696 0
M  V30 7404 H 703.869 -7.30462 3.69281 0
M  V30 7405 N 706.532 -0.168513 -1.56696 0
M  V30 7406 C 707.464 0.794249 -2.14998 0
M  V30 7407 C 708.477 1.1957 -1.10485 0
M  V30 7408 O 709.666 1.13604 -1.37682 0
M  V30 7409 C 706.766 2.08018 -2.67547 0
M  V30 7410 C 705.939 1.84274 -3.96689 0
M  V30 7411 C 704.998 2.97059 -4.3433 0
M  V30 7412 O 704.024 2.67815 -5.02259 0
M  V30 7413 N 705.226 4.24775 -3.9566 0
M  V30 7414 H 707.991 0.295832 -2.98236 0
M  V30 7415 H 705.552 0.0143611 -1.61894 0
M  V30 7416 H 707.544 2.82559 -2.89729 0
M  V30 7417 H 706.114 2.49059 -1.88914 0
M  V30 7418 H 705.334 0.936528 -3.82914 0
M  V30 7419 H 706.622 1.65773 -4.81037 0
M  V30 7420 H 706.02 4.51395 -3.40968 0
M  V30 7421 H 704.577 4.96027 -4.22848 0
M  V30 7422 N 708.01 1.57248 0.105221 0
M  V30 7423 C 708.973 2.00388 1.11252 0
M  V30 7424 C 709.973 0.89594 1.33527 0
M  V30 7425 O 711.163 1.16166 1.29811 0
M  V30 7426 C 708.295 2.35589 2.46395 0
M  V30 7427 H 709.488 2.90591 0.741424 0
M  V30 7428 H 707.041 1.52332 0.349956 0
M  V30 7429 H 707.776 1.4831 2.884 0
M  V30 7430 H 707.561 3.16408 2.31578 0
M  V30 7431 H 709.051 2.69658 3.18864 0
M  V30 7432 N 709.488 -0.375779 1.53054 0
M  V30 7433 C 710.735 -1.11948 1.68742 0
M  V30 7434 C 711.063 -1.89596 0.434015 0
M  V30 7435 O 710.318 -1.86787 -0.583867 0
M  V30 7436 C 710.617 -2.11356 2.88207 0
M  V30 7437 C 710.283 -1.50266 4.25124 0
M  V30 7438 C 708.945 -1.33333 4.62359 0
M  V30 7439 C 711.297 -1.05976 5.10312 0
M  V30 7440 C 708.625 -0.706765 5.82427 0
M  V30 7441 C 710.977 -0.447241 6.31017 0
M  V30 7442 C 709.641 -0.265314 6.66973 0
M  V30 7443 H 708.911 -0.409648 0.61747 0
M  V30 7444 H 711.558 -0.402492 1.87222 0
M  V30 7445 H 709.863 -2.89322 2.64197 0
M  V30 7446 H 711.56 -2.68833 2.97539 0
M  V30 7447 H 708.15 -1.64437 3.95801 0
M  V30 7448 H 712.334 -1.17855 4.82104 0
M  V30 7449 H 707.59 -0.554132 6.08884 0
M  V30 7450 H 711.764 -0.0958064 6.96334 0
M  V30 7451 H 709.391 0.222267 7.59875 0
M  V30 7452 N 710.966 -1.44241 -0.634997 0
M  V30 7453 C 711.896 -1.53632 -1.7584 0
M  V30 7454 C 712.877 -0.389603 -1.65578 0
M  V30 7455 O 714.062 -0.609219 -1.84397 0
M  V30 7456 C 711.192 -1.47644 -3.14354 0
M  V30 7457 C 710.146 -2.60752 -3.394 0
M  V30 7458 C 709.472 -2.39817 -4.77904 0
M  V30 7459 C 710.772 -4.02921 -3.32343 0
M  V30 7460 H 712.466 -2.47662 -1.68238 0
M  V30 7461 H 710.012 -1.19197 -0.807969 0
M  V30 7462 H 711.965 -1.52815 -3.92716 0
M  V30 7463 H 710.689 -0.501284 -3.2273 0
M  V30 7464 H 709.348 -2.54965 -2.63417 0
M  V30 7465 H 708.996 -1.40502 -4.82978 0
M  V30 7466 H 708.696 -3.15649 -4.9562 0
M  V30 7467 H 710.22 -2.46799 -5.585 0
M  V30 7468 H 711.634 -4.10098 -4.00615 0
M  V30 7469 H 710.031 -4.78925 -3.61595 0
M  V30 7470 H 711.101 -4.26766 -2.30215 0
M  V30 7471 N 712.444 0.87505 -1.31075 0
M  V30 7472 C 713.86 1.15997 -1.09622 0
M  V30 7473 C 714.06 2.01036 0.136611 0
M  V30 7474 O 713.116 2.38559 0.827397 0
M  V30 7475 C 714.429 1.85702 -2.36506 0
M  V30 7476 C 715.977 1.98425 -2.42067 0
M  V30 7477 C 716.452 2.71544 -3.68819 0
M  V30 7478 N 717.943 2.79084 -3.69684 0
M  V30 7479 C 718.678 3.36259 -4.64454 0
M  V30 7480 N 718.174 3.94406 -5.69575 0
M  V30 7481 N 719.967 3.34169 -4.51982 0
M  V30 7482 H 712.118 0.308258 -2.10151 0
M  V30 7483 H 714.381 0.199145 -0.926847 0
M  V30 7484 H 714.087 1.30663 -3.26527 0
M  V30 7485 H 713.961 2.86017 -2.45915 0
M  V30 7486 H 716.348 2.5263 -1.52518 0
M  V30 7487 H 716.429 0.971682 -2.36626 0
M  V30 7488 H 716.073 2.18008 -4.58732 0
M  V30 7489 H 716.003 3.73198 -3.71525 0
M  V30 7490 H 718.494 2.3781 -2.93691 0
M  V30 7491 H 718.807 4.36129 -6.37974 0
M  V30 7492 H 717.152 3.92797 -5.73355 0
M  V30 7493 H 720.343 2.87977 -3.69035 0
M  V30 7494 H 720.516 3.78431 -5.26017 0
M  V30 7495 N 713.922 1.13953 1.08869 0
M  V30 7496 C 715.17 0.903023 1.80803 0
M  V30 7497 C 715.491 -0.572151 1.86417 0
M  V30 7498 O 714.761 -1.41589 1.35386 0
M  V30 7499 H 713.341 0.331099 0.669614 0
M  V30 7500 H 716.003 1.43719 1.31647 0
M  V30 7501 H 715.099 1.29881 2.83791 0
M  V30 7502 N 715.4 -1.26948 0.933913 0
M  V30 7503 C 716.816 -1.46419 0.635103 0
M  V30 7504 C 717.016 -1.84336 -0.813785 0
M  V30 7505 O 716.072 -1.96061 -1.59111 0
M  V30 7506 C 717.385 -2.55206 1.5903 0
M  V30 7507 C 718.933 -2.69062 1.5992 0
M  V30 7508 C 719.408 -3.81013 2.54152 0
M  V30 7509 N 720.899 -3.88395 2.52395 0
M  V30 7510 C 721.634 -4.74454 3.21996 0
M  V30 7511 N 721.13 -5.64954 4.00997 0
M  V30 7512 N 722.923 -4.68237 3.10983 0
M  V30 7513 H 715.074 -1.00622 1.87053 0
M  V30 7514 H 717.337 -0.503189 0.803433 0
M  V30 7515 H 717.043 -2.34153 2.62422 0
M  V30 7516 H 716.917 -3.52719 1.33677 0
M  V30 7517 H 719.304 -2.89492 0.572569 0
M  V30 7518 H 719.385 -1.72016 1.89325 0
M  V30 7519 H 719.029 -3.61336 3.5693 0
M  V30 7520 H 718.959 -4.77499 2.22041 0
M  V30 7521 H 721.45 -3.23687 1.95025 0
M  V30 7522 H 721.763 -6.27496 4.51074 0
M  V30 7523 H 720.108 -5.6473 4.05099 0
M  V30 7524 H 723.299 -3.96535 2.48753 0
M  V30 7525 H 723.472 -5.35087 3.65494 0
M  V30 7526 N 716.879 -0.700114 -1.41195 0
M  V30 7527 C 717.809 -0.0521132 -2.33442 0
M  V30 7528 C 718.79 0.76228 -1.52063 0
M  V30 7529 O 719.975 0.714336 -1.80585 0
M  V30 7530 C 717.105 0.881693 -3.35922 0
M  V30 7531 C 716.059 0.174062 -4.27646 0
M  V30 7532 C 715.385 1.22254 -5.20536 0
M  V30 7533 C 716.685 -0.962396 -5.13357 0
M  V30 7534 H 718.379 -0.822574 -2.87879 0
M  V30 7535 H 715.925 -0.397011 -1.38419 0
M  V30 7536 H 717.878 1.34429 -3.99383 0
M  V30 7537 H 716.602 1.68387 -2.79845 0
M  V30 7538 H 715.261 -0.268551 -3.65615 0
M  V30 7539 H 714.909 2.01736 -4.60773 0
M  V30 7540 H 714.609 0.754038 -5.82742 0
M  V30 7541 H 716.133 1.68555 -5.86874 0
M  V30 7542 H 717.547 -0.579875 -5.7036 0
M  V30 7543 H 715.944 -1.35828 -5.84526 0
M  V30 7544 H 717.014 -1.80003 -4.50252 0
M  V30 7545 N 718.357 1.51182 -0.445186 0
M  V30 7546 C 719.582 2.07056 0.119445 0
M  V30 7547 C 720.007 1.30966 1.35016 0
M  V30 7548 O 719.365 0.349827 1.77893 0
M  V30 7549 C 719.413 3.58234 0.412428 0
M  V30 7550 O 718.517 3.84249 1.49754 0
M  V30 7551 H 717.858 0.663998 -0.00157797 0
M  V30 7552 H 720.388 1.94699 -0.628779 0
M  V30 7553 H 720.398 4.02617 0.660583 0
M  V30 7554 H 719.073 4.13038 -0.487049 0
M  V30 7555 H 717.65 3.51724 1.23873 0
M  V30 7556 N 719.835 0.176821 1.56605 0
M  V30 7557 C 721.084 -0.466833 1.96223 0
M  V30 7558 C 721.397 -1.64015 1.06576 0
M  V30 7559 O 722.603 -2.3504 1.35898 0
M  V30 7560 C 721.059 -0.881921 3.48927 0
M  V30 7561 C 720.667 0.266102 4.47209 0
M  V30 7562 C 722.411 -1.49368 3.97353 0
M  V30 7563 C 720.318 -0.168923 5.91159 0
M  V30 7564 H 719.248 -0.178178 0.732645 0
M  V30 7565 H 721.899 0.265929 1.81563 0
M  V30 7566 H 720.281 -1.67082 3.59026 0
M  V30 7567 H 721.455 1.04349 4.4883 0
M  V30 7568 H 719.77 0.788178 4.08872 0
M  V30 7569 H 722.367 -1.8313 5.02362 0
M  V30 7570 H 722.71 -2.3936 3.40606 0
M  V30 7571 H 723.243 -0.769114 3.90294 0
M  V30 7572 H 719.982 0.696351 6.51791 0
M  V30 7573 H 719.502 -0.911552 5.92833 0
M  V30 7574 H 721.181 -0.610938 6.44109 0
M  V30 7575 N 721.313 -1.57302 -0.09688 0
M  V30 7576 C 722.541 -1.90202 -0.814295 0
M  V30 7577 C 722.956 -0.770344 -1.72369 0
M  V30 7578 O 722.313 0.257764 -1.8067 0
M  V30 7579 C 722.364 -3.22708 -1.62916 0
M  V30 7580 O 722.085 -4.31522 -0.756343 0
M  V30 7581 C 723.586 -3.69459 -2.44979 0
M  V30 7582 H 720.806 -0.629275 -0.232925 0
M  V30 7583 H 723.35 -2.04364 -0.0746482 0
M  V30 7584 H 721.505 -3.1015 -2.32133 0
M  V30 7585 H 721.919 -5.07604 -1.32054 0
M  V30 7586 H 723.393 -4.64875 -2.9765 0
M  V30 7587 H 723.87 -2.97211 -3.23361 0
M  V30 7588 H 724.476 -3.84879 -1.80964 0
M  V30 7589 N 722.791 0.367657 -1.53252 0
M  V30 7590 C 724.068 1.12606 -1.59935 0
M  V30 7591 C 724.448 2.07167 -0.405606 0
M  V30 7592 O 723.796 2.20364 0.604323 0
M  V30 7593 C 724.006 1.86699 -2.94863 0
M  V30 7594 C 725.354 2.41306 -3.49366 0
M  V30 7595 O 726.378 1.96828 -2.96879 0
M  V30 7596 O 725.237 3.2261 -4.41118 0
M  V30 7597 H 722.331 0.516438 -0.645926 0
M  V30 7598 H 724.877 0.371088 -1.65593 0
M  V30 7599 H 723.649 1.17674 -3.73187 0
M  V30 7600 H 723.272 2.6911 -2.92687 0
M  V30 7601 N 724.269 1.44576 0.627338 0
M  V30 7602 C 725.515 1.47777 1.38888 0
M  V30 7603 C 725.848 0.111406 1.9388 0
M  V30 7604 O 725.123 -0.87149 1.73883 0
M  V30 7605 C 725.406 2.54119 2.55138 0
M  V30 7606 C 725.259 4.00128 2.0547 0
M  V30 7607 C 726.578 2.56929 3.57317 0
M  V30 7608 H 723.697 0.538048 0.50366 0
M  V30 7609 H 726.339 1.76277 0.708978 0
M  V30 7610 H 724.489 2.29948 3.13139 0
M  V30 7611 H 726.161 4.35444 1.5227 0
M  V30 7612 H 724.404 4.11724 1.36623 0
M  V30 7613 H 725.075 4.7019 2.89181 0
M  V30 7614 H 727.551 2.78536 3.09122 0
M  V30 7615 H 726.427 3.33234 4.36173 0
M  V30 7616 H 726.688 1.6127 4.11636 0
M  V30 7617 N 725.747 -0.868086 1.31537 0
M  V30 7618 C 726.975 -1.65402 1.24298 0
M  V30 7619 C 727.39 -1.87827 -0.191389 0
M  V30 7620 O 726.747 -1.43776 -1.12404 0
M  V30 7621 C 726.798 -3.02093 1.9855 0
M  V30 7622 O 726.519 -2.80668 3.36388 0
M  V30 7623 C 728.02 -3.96538 1.98173 0
M  V30 7624 H 725.24 -0.515598 0.429417 0
M  V30 7625 H 727.784 -1.0834 1.73444 0
M  V30 7626 H 725.939 -3.55838 1.53161 0
M  V30 7627 H 726.353 -3.67504 3.74221 0
M  V30 7628 H 727.827 -4.8976 2.54635 0
M  V30 7629 H 728.304 -4.28474 0.964697 0
M  V30 7630 H 728.91 -3.48729 2.4345 0
M  V30 7631 N 727.225 -1.14528 -1.08264 0
M  V30 7632 C 728.636 -0.925261 -1.6216 0
M  V30 7633 C 728.987 0.535587 -1.88748 0
M  V30 7634 O 728.112 1.4048 -1.64604 0
M  V30 7635 C 728.707 -1.67316 -2.94603 0
M  V30 7636 C 727.266 -1.49868 -3.45278 0
M  V30 7637 C 726.413 -1.69471 -2.19487 0
M  V30 7638 H 729.364 -1.29687 -0.914707 0
M  V30 7639 H 729.385 -1.13721 -3.63109 0
M  V30 7640 H 728.897 -2.73635 -2.75219 0
M  V30 7641 H 726.998 -0.459032 -3.69762 0
M  V30 7642 H 727.111 -2.2696 -4.21931 0
M  V30 7643 H 725.475 -1.12048 -2.2873 0
M  V30 7644 H 726.258 -2.77136 -2.0261 0
M  V30 7645 N 728.703 1.26451 -0.940633 0
M  V30 7646 C 729.928 1.98407 -0.60412 0
M  V30 7647 C 730.353 1.69584 0.81382 0
M  V30 7648 O 729.711 0.943553 1.54812 0
M  V30 7649 C 729.759 3.50387 -0.852136 0
M  V30 7650 O 728.863 4.1233 0.076013 0
M  V30 7651 H 728.204 0.622466 -0.231153 0
M  V30 7652 H 730.734 1.60932 -1.26342 0
M  V30 7653 H 730.744 4.00614 -0.772816 0
M  V30 7654 H 729.419 3.70696 -1.88566 0
M  V30 7655 H 727.996 3.7286 -0.0543187 0
M  V30 7656 N 730.181 0.707592 1.40822 0
M  V30 7657 C 731.113 0.0105968 2.29198 0
M  V30 7658 C 732.126 -0.732035 1.45414 0
M  V30 7659 O 733.315 -0.580741 1.68789 0
M  V30 7660 C 730.415 -1.00921 3.23525 0
M  V30 7661 C 729.588 -0.333747 4.36125 0
M  V30 7662 C 728.647 -1.25783 5.10945 0
M  V30 7663 O 727.673 -0.745646 5.64295 0
M  V30 7664 N 728.875 -2.58947 5.19545 0
M  V30 7665 H 731.64 0.76938 2.89656 0
M  V30 7666 H 729.201 0.554579 1.52105 0
M  V30 7667 H 731.193 -1.6294 3.70449 0
M  V30 7668 H 729.763 -1.66942 2.6429 0
M  V30 7669 H 728.983 0.466518 3.9143 0
M  V30 7670 H 730.271 0.135444 5.0862 0
M  V30 7671 H 729.669 -3.03065 4.7767 0
M  V30 7672 H 728.226 -3.16131 5.70004 0
M  V30 7673 N 731.66 -1.50943 0.453197 0
M  V30 7674 C 732.59 -2.31005 -0.34044 0
M  V30 7675 C 733.571 -1.37112 -1.00669 0
M  V30 7676 O 734.756 -1.66033 -1.0073 0
M  V30 7677 C 731.886 -3.16358 -1.433 0
M  V30 7678 C 730.84 -4.18658 -0.889363 0
M  V30 7679 C 730.166 -4.92633 -2.07887 0
M  V30 7680 C 731.466 -5.22227 0.0871142 0
M  V30 7681 H 733.16 -2.97601 0.327723 0
M  V30 7682 H 730.706 -1.43119 0.159054 0
M  V30 7683 H 732.659 -3.71155 -1.99555 0
M  V30 7684 H 731.383 -2.47613 -2.12968 0
M  V30 7685 H 730.042 -3.64936 -0.348915 0
M  V30 7686 H 729.69 -4.20376 -2.76211 0
M  V30 7687 H 729.39 -5.61819 -1.72143 0
M  V30 7688 H 730.914 -5.50258 -2.64666 0
M  V30 7689 H 732.328 -5.72001 -0.385656 0
M  V30 7690 H 730.725 -5.99032 0.357926 0
M  V30 7691 H 731.795 -4.74077 1.01879 0
M  V30 7692 N 733.138 -0.185124 -1.56509 0
M  V30 7693 C 734.085 0.739729 -2.18624 0
M  V30 7694 C 735.055 1.217 -1.13042 0
M  V30 7695 O 736.24 1.28268 -1.41251 0
M  V30 7696 C 733.38 1.95787 -2.84186 0
M  V30 7697 C 732.493 1.52289 -4.04267 0
M  V30 7698 C 731.628 2.69576 -4.57714 0
M  V30 7699 C 730.667 2.22636 -5.70175 0
M  V30 7700 N 729.804 3.33065 -6.18071 0
M  V30 7701 H 734.644 0.203269 -2.97306 0
M  V30 7702 H 732.181 0.0885946 -1.46833 0
M  V30 7703 H 734.139 2.67253 -3.20361 0
M  V30 7704 H 732.769 2.4678 -2.08085 0
M  V30 7705 H 731.821 0.704458 -3.7382 0
M  V30 7706 H 733.133 1.13843 -4.85635 0
M  V30 7707 H 732.287 3.4918 -4.96143 0
M  V30 7708 H 731.026 3.1129 -3.75433 0
M  V30 7709 H 730.031 1.41483 -5.31284 0
M  V30 7710 H 731.256 1.81964 -6.54267 0
M  V30 7711 H 729.202 3.74328 -5.38715 0
M  V30 7712 H 729.119 2.98756 -6.94464 0
M  V30 7713 H 730.387 4.12912 -6.61153 0
M  V30 7714 N 734.616 1.57351 0.0885366 0
M  V30 7715 C 735.893 1.77449 0.822873 0
M  V30 7716 C 736.273 0.768463 1.96616 0
M  V30 7717 O 735.621 -0.201757 2.27608 0
M  V30 7718 C 735.831 3.23425 1.31137 0
M  V30 7719 C 737.179 3.86791 1.75152 0
M  V30 7720 O 738.203 3.27215 1.40745 0
M  V30 7721 O 737.062 4.91568 2.38794 0
M  V30 7722 H 734.156 0.727653 0.393002 0
M  V30 7723 H 736.702 1.69556 0.0699095 0
M  V30 7724 H 735.474 3.88188 0.49254 0
M  V30 7725 H 735.097 3.35977 2.12615 0
M  V30 7726 N 736.094 -0.359525 1.53444 0
M  V30 7727 C 737.024 -1.44662 1.8329 0
M  V30 7728 C 738.005 -1.55617 0.68683 0
M  V30 7729 O 739.19 -1.70086 0.93725 0
M  V30 7730 C 736.32 -2.81923 2.02822 0
M  V30 7731 C 735.274 -2.85787 3.18606 0
M  V30 7732 C 734.6 -4.25781 3.23442 0
M  V30 7733 C 735.9 -2.52762 4.57065 0
M  V30 7734 H 737.594 -1.19934 2.74329 0
M  V30 7735 H 735.14 -0.575517 1.31999 0
M  V30 7736 H 737.093 -3.58005 2.22285 0
M  V30 7737 H 735.817 -3.08051 1.085 0
M  V30 7738 H 734.476 -2.12157 2.98973 0
M  V30 7739 H 734.124 -4.48994 2.26745 0
M  V30 7740 H 733.824 -4.29281 4.01238 0
M  V30 7741 H 735.348 -5.03727 3.45096 0
M  V30 7742 H 736.762 -3.18557 4.76649 0
M  V30 7743 H 735.159 -2.67569 5.37147 0
M  V30 7744 H 736.229 -1.47993 4.61764 0
M  V30 7745 N 737.572 -1.44907 -0.619662 0
M  V30 7746 C 738.821 -1.47569 -1.37501 0
M  V30 7747 C 739.134 -0.116707 -1.95252 0
M  V30 7748 O 740.34 -0.020909 -2.71492 0
M  V30 7749 C 738.796 -2.59851 -2.49009 0
M  V30 7750 C 738.404 -4.02008 -1.97722 0
M  V30 7751 C 740.148 -2.71746 -3.2612 0
M  V30 7752 C 738.055 -5.05693 -3.0664 0
M  V30 7753 H 736.985 -0.549068 -0.51676 0
M  V30 7754 H 739.636 -1.71009 -0.665437 0
M  V30 7755 H 738.018 -2.29671 -3.22594 0
M  V30 7756 H 739.192 -4.41809 -1.30925 0
M  V30 7757 H 737.507 -3.94456 -1.33392 0
M  V30 7758 H 740.104 -3.46382 -4.07337 0
M  V30 7759 H 740.447 -1.77959 -3.76346 0
M  V30 7760 H 740.98 -3.01392 -2.5963 0
M  V30 7761 H 737.719 -6.01148 -2.61345 0
M  V30 7762 H 737.239 -4.70473 -3.72042 0
M  V30 7763 H 738.918 -5.29906 -3.71226 0
M  V30 7764 N 739.05 0.861098 -1.31996 0
M  V30 7765 C 739.997 1.96912 -1.20392 0
M  V30 7766 C 740.967 1.65869 -0.0875899 0
M  V30 7767 O 742.152 1.88992 -0.262011 0
M  V30 7768 C 739.292 3.32435 -0.926335 0
M  V30 7769 C 738.405 3.76018 -2.12684 0
M  V30 7770 C 737.54 5.00301 -1.78529 0
M  V30 7771 C 736.579 5.36357 -2.94937 0
M  V30 7772 N 735.716 6.51818 -2.60917 0
M  V30 7773 H 740.556 2.06169 -2.1517 0
M  V30 7774 H 738.093 1.00917 -1.07024 0
M  V30 7775 H 740.051 4.10478 -0.745917 0
M  V30 7776 H 738.681 3.22796 -0.0153578 0
M  V30 7777 H 737.733 2.93683 -2.41774 0
M  V30 7778 H 739.045 3.98664 -2.99781 0
M  V30 7779 H 738.199 5.86034 -1.57001 0
M  V30 7780 H 736.938 4.79578 -0.886356 0
M  V30 7781 H 735.943 4.49139 -3.17103 0
M  V30 7782 H 737.168 5.59041 -3.85552 0
M  V30 7783 H 735.114 6.32624 -1.73558 0
M  V30 7784 H 735.031 6.7445 -3.41544 0
M  V30 7785 H 736.299 7.4072 -2.42804 0
M  V30 7786 N 740.528 1.15101 1.07655 0
M  V30 7787 C 741.475 0.844958 2.14777 0
M  V30 7788 C 742.445 -0.200798 1.64882 0
M  V30 7789 O 743.63 -0.0690278 1.90675 0
M  V30 7790 C 740.77 0.337018 3.4345 0
M  V30 7791 C 739.883 1.44398 4.07153 0
M  V30 7792 C 739.018 0.892487 5.23649 0
M  V30 7793 C 738.057 1.9766 5.79307 0
M  V30 7794 N 737.194 1.44171 6.87138 0
M  V30 7795 H 742.034 1.76242 2.40297 0
M  V30 7796 H 739.571 0.879435 1.17917 0
M  V30 7797 H 741.529 0.024256 4.17193 0
M  V30 7798 H 740.159 -0.543531 3.18191 0
M  V30 7799 H 739.211 1.87299 3.31094 0
M  V30 7800 H 740.523 2.26262 4.4453 0
M  V30 7801 H 739.677 0.532083 6.04362 0
M  V30 7802 H 738.416 0.0429854 4.87681 0
M  V30 7803 H 737.421 2.34586 4.97242 0
M  V30 7804 H 738.646 2.82982 6.17331 0
M  V30 7805 H 736.592 0.614518 6.53115 0
M  V30 7806 H 736.509 2.19665 7.23383 0
M  V30 7807 H 737.777 1.10945 7.71564 0
M  V30 7808 N 742.006 -1.2595 0.947325 0
M  V30 7809 C 743.283 -1.88676 0.515824 0
M  V30 7810 C 743.663 -1.85547 -1.00675 0
M  V30 7811 O 743.011 -1.31399 -1.8694 0
M  V30 7812 C 743.221 -3.31734 1.08415 0
M  V30 7813 C 744.569 -4.08545 1.15654 0
M  V30 7814 O 745.593 -3.40826 1.03517 0
M  V30 7815 O 744.452 -5.29663 1.34608 0
M  V30 7816 H 741.546 -0.809537 0.169055 0
M  V30 7817 H 744.092 -1.34075 1.04029 0
M  V30 7818 H 742.864 -3.28404 2.1276 0
M  V30 7819 H 742.487 -3.93882 0.542499 0
M  V30 7820 O 743.523 -0.8533 -1.37117 0
M  V30 7821 H 744.214 -0.44662 -1.88481 0
M  V30 END ATOM
M  V30 BEGIN BOND
M  V30 END BOND
M  V30 END CTAB
M  END
$$$$
