drugbank_target|P41145 Kappa-type opioid receptor (DB00193; DB00289; DB00295; DB00318; DB00321; DB00327; DB00370; DB00396; DB00454; DB00497; DB00514; DB00555; DB00611; DB00647; DB00652; DB00704; DB00708; DB00813; DB00825; DB00836; DB00844; DB00854; DB00899; DB00921; DB01183; DB01209; DB01221; DB01238; DB01439; DB01452; DB01497; DB01535; DB01548; DB01565; DB01571; DB05046; DB05104; DB05155; DB05443; DB06148; DB06204; DB06230; DB06274; DB06409; DB06738; DB06800; DB09173; DB09209; DB09272; DB11130; DB11186; DB11691; DB14146)
 OpenBabel12092119363D

  0  0  0     0  0            999 V3000
M  V30 BEGIN CTAB
M  V30 COUNTS 6051 6127 0 0 0
M  V30 BEGIN ATOM
M  V30 1 H -0.908 1.98254 -0.117106 0
M  V30 2 N 0 1.576 0 0
M  V30 3 C 0.933 2.03868 1.02534 0
M  V30 4 C 1.911 0.928543 1.3348 0
M  V30 5 O 3.095 1.19667 1.45644 0
M  V30 6 C 0.222 2.43627 2.35294 0
M  V30 7 C -0.732 3.65373 2.2001 0
M  V30 8 S 0.101 5.13292 1.52614 0
M  V30 9 C 1.257 5.56322 2.86805 0
M  V30 10 H 1.49 2.90518 0.631377 0
M  V30 11 H -0.977 1.52953 0.210867 0
M  V30 12 H 0.981 2.67203 3.11629 0
M  V30 13 H -0.358 1.57376 2.7183 0
M  V30 14 H -1.165 3.90944 3.18086 0
M  V30 15 H -1.563 3.418 1.51819 0
M  V30 16 H 0.729 5.58782 3.83104 0
M  V30 17 H 1.672 6.56266 2.65933 0
M  V30 18 H 2.08 4.83886 2.90714 0
M  V30 19 N 1.4781 -0.272755 1.55222 0
M  V30 20 C 2.7551 -1.02562 1.66555 0
M  V30 21 C 3.1351 -2.04282 0.532189 0
M  V30 22 O 2.4831 -2.23662 -0.467717 0
M  V30 23 C 2.6931 -1.6822 3.05782 0
M  V30 24 C 4.0411 -2.19373 3.63539 0
M  V30 25 O 5.0651 -1.78206 3.08417 0
M  V30 26 O 3.9241 -2.94883 4.60115 0
M  V30 27 H 1.0181 -0.475755 0.676451 0
M  V30 28 H 3.5641 -0.268593 1.67561 0
M  V30 29 H 2.3361 -0.945112 3.79715 0
M  V30 30 H 1.9591 -2.50609 3.08676 0
M  V30 31 N 2.9562 -1.48159 -0.537278 0
M  V30 32 C 4.1812 -1.59707 -1.32319 0
M  V30 33 C 4.6062 -0.254859 -1.86365 0
M  V30 34 O 3.9642 0.772378 -1.64024 0
M  V30 35 C 4.0122 -2.6412 -2.45505 0
M  V30 36 O 3.1162 -2.20774 -3.48328 0
M  V30 37 H 2.4572 -0.535791 -0.392204 0
M  V30 38 H 4.9872 -1.94092 -0.647268 0
M  V30 39 H 4.9972 -2.85166 -2.91795 0
M  V30 40 H 3.6722 -3.61567 -2.05528 0
M  V30 41 H 2.2492 -2.09911 -3.08207 0
M  V30 42 N 4.4343 0.785586 -1.36625 0
M  V30 43 C 5.8453 1.36101 -1.27803 0
M  V30 44 C 6.1963 1.96035 0.0804875 0
M  V30 45 O 5.3213 1.92834 0.982042 0
M  V30 46 C 5.9163 2.47442 -2.31426 0
M  V30 47 C 4.4753 3.00789 -2.26281 0
M  V30 48 C 3.6223 1.73896 -2.15999 0
M  V30 49 H 6.5733 0.586928 -1.47448 0
M  V30 50 H 6.5943 3.2656 -1.95291 0
M  V30 51 H 6.1063 2.03791 -3.30289 0
M  V30 52 H 4.2073 3.48851 -1.30896 0
M  V30 53 H 4.3203 3.57343 -3.19128 0
M  V30 54 H 2.6843 1.9628 -1.62316 0
M  V30 55 H 3.4673 1.32368 -3.16755 0
M  V30 56 N 5.9124 1.20967 1.01018 0
M  V30 57 C 7.1614 1.01796 1.74128 0
M  V30 58 C 7.4744 -0.449691 1.90361 0
M  V30 59 O 8.6804 -0.76068 2.60626 0
M  V30 60 C 7.1364 1.7727 3.13215 0
M  V30 61 C 6.7444 3.28171 3.04972 0
M  V30 62 C 8.4884 1.66489 3.90489 0
M  V30 63 C 6.3954 3.96156 4.39107 0
M  V30 64 H 5.3254 0.377276 0.652824 0
M  V30 65 H 7.9764 1.44651 1.12909 0
M  V30 66 H 6.3584 1.27205 3.75013 0
M  V30 67 H 7.5324 3.85499 2.52443 0
M  V30 68 H 5.8474 3.39437 2.41188 0
M  V30 69 H 8.4444 2.14617 4.89738 0
M  V30 70 H 8.7874 0.6222 4.11624 0
M  V30 71 H 9.3204 2.14003 3.35332 0
M  V30 72 H 6.0594 5.00604 4.23174 0
M  V30 73 H 5.5794 3.43617 4.91617 0
M  V30 74 H 7.2584 4.00774 5.07926 0
M  V30 75 N 7.3905 -1.2043 1.01659 0
M  V30 76 C 8.3225 -2.22626 0.544988 0
M  V30 77 C 9.3355 -1.58479 -0.372609 0
M  V30 78 O 10.5245 -1.77679 -0.170958 0
M  V30 79 C 7.6245 -3.38141 -0.22663 0
M  V30 80 C 6.7975 -4.31877 0.692876 0
M  V30 81 C 5.8565 -5.26191 -0.0311616 0
M  V30 82 O 4.8825 -5.6612 0.591343 0
M  V30 83 N 6.0845 -5.65618 -1.30601 0
M  V30 84 H 8.8495 -2.63716 1.42388 0
M  V30 85 H 6.4105 -1.34971 0.894116 0
M  V30 86 H 8.4025 -3.98239 -0.72024 0
M  V30 87 H 6.9725 -2.95943 -1.00681 0
M  V30 88 H 6.1925 -3.69746 1.36679 0
M  V30 89 H 7.4805 -4.91426 1.31824 0
M  V30 90 H 6.8785 -5.3519 -1.83269 0
M  V30 91 H 5.4355 -6.28025 -1.74435 0
M  V30 92 N 8.8686 -0.792821 -1.36206 0
M  V30 93 C 10.1176 -0.363353 -1.984 0
M  V30 94 C 10.4306 1.07172 -1.63626 0
M  V30 95 O 11.6366 1.60362 -2.19081 0
M  V30 96 C 10.0926 -0.59872 -3.54885 0
M  V30 97 C 9.7006 -2.04543 -3.9858 0
M  V30 98 C 11.4446 -0.233926 -4.23855 0
M  V30 99 C 9.3516 -2.22727 -5.47856 0
M  V30 100 H 8.2816 -0.13212 -0.742334 0
M  V30 101 H 10.9326 -0.974935 -1.55458 0
M  V30 102 H 9.3146 0.0826222 -3.95914 0
M  V30 103 H 10.4886 -2.76345 -3.68741 0
M  V30 104 H 8.8036 -2.36879 -3.42458 0
M  V30 105 H 11.4006 -0.348027 -5.33566 0
M  V30 106 H 11.7436 0.818351 -4.08177 0
M  V30 107 H 12.2766 -0.868639 -3.882 0
M  V30 108 H 9.0156 -3.2635 -5.68486 0
M  V30 109 H 8.5356 -1.55434 -5.7931 0
M  V30 110 H 10.2146 -2.03607 -6.14128 0
M  V30 111 N 10.3467 1.47872 -0.545128 0
M  V30 112 C 11.5937 2.02493 -0.0165858 0
M  V30 113 C 11.9217 1.42073 1.32836 0
M  V30 114 O 11.1767 0.561459 1.87473 0
M  V30 115 C 11.4757 3.57131 0.13867 0
M  V30 116 C 11.1417 4.36411 -1.13384 0
M  V30 117 C 9.8037 4.57792 -1.48256 0
M  V30 118 C 12.1557 4.82223 -1.97764 0
M  V30 119 C 9.4837 5.22233 -2.67376 0
M  V30 120 C 11.8357 5.47977 -3.16076 0
M  V30 121 C 10.4997 5.67593 -3.51275 0
M  V30 122 H 9.7697 0.740975 -0.00606918 0
M  V30 123 H 12.4167 1.77683 -0.714207 0
M  V30 124 H 10.7217 3.80865 0.919172 0
M  V30 125 H 12.4187 3.97031 0.562782 0
M  V30 126 H 9.0087 4.2004 -0.852297 0
M  V30 127 H 13.1927 4.65493 -1.72132 0
M  V30 128 H 8.4487 5.35616 -2.94831 0
M  V30 129 H 12.6227 5.8244 -3.81755 0
M  V30 130 H 10.2497 6.17298 -4.43675 0
M  V30 131 N 11.8248 0.280983 1.55075 0
M  V30 132 C 13.2408 -0.0729964 1.59433 0
M  V30 133 C 13.4408 -1.5411 1.29817 0
M  V30 134 O 12.4968 -2.29086 1.06187 0
M  V30 135 C 13.8098 0.306921 2.9913 0
M  V30 136 C 15.3578 0.254023 3.11968 0
M  V30 137 C 15.8328 0.608467 4.5394 0
M  V30 138 N 17.3238 0.560241 4.59799 0
M  V30 139 C 18.0588 0.80722 5.6769 0
M  V30 140 N 17.5548 1.11912 6.83701 0
M  V30 141 N 19.3478 0.735623 5.57266 0
M  V30 142 H 11.4988 1.238 1.7259 0
M  V30 143 H 13.7618 0.500547 0.805082 0
M  V30 144 H 13.4678 1.32816 3.25657 0
M  V30 145 H 13.3418 -0.349363 3.75579 0
M  V30 146 H 15.7288 -0.75794 2.852 0
M  V30 147 H 15.8098 0.944649 2.37718 0
M  V30 148 H 15.4538 1.61814 4.81434 0
M  V30 149 H 15.3838 -0.104013 5.26497 0
M  V30 150 H 17.8748 0.329288 3.76463 0
M  V30 151 H 18.1878 1.29409 7.61888 0
M  V30 152 H 16.5328 1.15695 6.85303 0
M  V30 153 H 19.7238 0.491752 4.6551 0
M  V30 154 H 19.8968 0.931482 6.4127 0
M  V30 155 N 13.3029 -1.57598 0.00835791 0
M  V30 156 C 14.5509 -1.90551 -0.6734 0
M  V30 157 C 14.8719 -0.883301 -1.73847 0
M  V30 158 O 14.1419 0.0781442 -1.95744 0
M  V30 159 H 12.7219 -0.703312 -0.251717 0
M  V30 160 H 15.3839 -1.94833 0.0512592 0
M  V30 161 H 14.4799 -2.9056 -1.13935 0
M  V30 162 N 14.781 0.264519 -1.55364 0
M  V30 163 C 15.691 1.34902 -1.91934 0
M  V30 164 C 16.707 1.53595 -0.817593 0
M  V30 165 O 17.883 1.67558 -1.11742 0
M  V30 166 C 14.948 2.68676 -2.19121 0
M  V30 167 C 14.009 2.58657 -3.4263 0
M  V30 168 C 13.242 3.86051 -3.68511 0
M  V30 169 O 13.465 4.87126 -2.96757 0
M  V30 170 O 12.399 3.85744 -4.62045 0
M  V30 171 H 16.225 1.06883 -2.8427 0
M  V30 172 H 13.81 0.463775 -1.42019 0
M  V30 173 H 15.692 3.47759 -2.37995 0
M  V30 174 H 14.367 2.96463 -1.29966 0
M  V30 175 H 13.274 1.7792 -3.29082 0
M  V30 176 H 14.607 2.35818 -4.32031 0
M  V30 177 N 16.2591 1.48442 0.529413 0
M  V30 178 C 17.6701 1.5002 1.11134 0
M  V30 179 C 18.0211 0.27031 1.94329 0
M  V30 180 O 17.1461 -0.622507 2.07253 0
M  V30 181 C 17.7411 2.71834 2.02217 0
M  V30 182 C 16.3001 2.76283 2.55627 0
M  V30 183 C 15.4471 2.43542 1.326 0
M  V30 184 H 18.3981 1.5555 0.314641 0
M  V30 185 H 18.4191 2.50384 2.8651 0
M  V30 186 H 17.9311 3.61331 1.41639 0
M  V30 187 H 16.0321 1.90995 3.19924 0
M  V30 188 H 16.1451 3.77725 2.94721 0
M  V30 189 H 14.5091 1.94709 1.64196 0
M  V30 190 H 15.2921 3.3528 0.737734 0
M  V30 191 N 17.7372 -0.778329 1.37039 0
M  V30 192 C 18.9852 -1.53361 1.31623 0
M  V30 193 C 19.3062 -1.94739 -0.100831 0
M  V30 194 O 18.5762 -1.65797 -1.04347 0
M  V30 195 H 17.1562 -0.568794 0.484234 0
M  V30 196 H 19.8182 -0.926742 1.71457 0
M  V30 197 H 18.9142 -2.43606 1.95096 0
M  V30 198 N 19.2153 -1.21501 -1.00376 0
M  V30 199 C 20.6263 -1.03146 -1.55621 0
M  V30 200 C 20.9773 0.408375 -1.91903 0
M  V30 201 O 20.1023 1.29177 -1.73616 0
M  V30 202 C 20.6973 -1.86612 -2.82775 0
M  V30 203 C 19.2563 -1.72586 -3.34501 0
M  V30 204 C 18.4033 -1.83747 -2.07683 0
M  V30 205 H 21.3543 -1.35505 -0.826081 0
M  V30 206 H 21.3753 -1.3771 -3.54706 0
M  V30 207 H 20.8873 -2.91399 -2.56336 0
M  V30 208 H 18.9883 -0.704877 -3.65872 0
M  V30 209 H 19.1013 -2.54623 -4.05837 0
M  V30 210 H 17.4653 -1.27069 -2.20739 0
M  V30 211 H 18.2483 -2.90044 -1.83655 0
M  V30 212 N 20.6934 1.19889 -1.02296 0
M  V30 213 C 21.9214 1.9339 -0.735399 0
M  V30 214 C 22.3364 1.75148 0.704887 0
M  V30 215 O 21.6934 1.06954 1.47875 0
M  V30 216 C 21.7444 3.45313 -1.06962 0
M  V30 217 O 21.4654 3.62964 -2.45334 0
M  V30 218 C 22.9664 4.35948 -0.804021 0
M  V30 219 H 20.1864 0.61448 -0.269546 0
M  V30 220 H 22.7304 1.522 -1.36585 0
M  V30 221 H 20.8854 3.84359 -0.484455 0
M  V30 222 H 21.2994 4.56886 -2.57595 0
M  V30 223 H 22.7734 5.41174 -1.0879 0
M  V30 224 H 23.2504 4.3842 0.261691 0
M  V30 225 H 23.8564 4.02574 -1.37164 0
M  V30 226 N 22.1715 0.800033 1.35784 0
M  V30 227 C 23.4115 0.382891 2.00782 0
M  V30 228 C 23.7755 -1.02891 1.62103 0
M  V30 229 O 24.9765 -1.54771 2.19771 0
M  V30 230 C 23.2475 0.553299 3.53091 0
M  V30 231 S 24.8065 0.225608 4.3822 0
M  V30 232 H 21.6245 0.145737 0.695904 0
M  V30 233 H 24.2265 1.04085 1.65489 0
M  V30 234 H 22.9305 1.58091 3.78729 0
M  V30 235 H 22.4615 -0.120214 3.93216 0
M  V30 236 H 24.4765 -0.969074 4.86645 0
M  V30 237 N 23.6496 -1.47581 0.552962 0
M  V30 238 C 24.6126 -2.28439 -0.186605 0
M  V30 239 C 25.6126 -1.36706 -0.84665 0
M  V30 240 O 26.8026 -1.59378 -0.703164 0
M  V30 241 C 23.9346 -3.16264 -1.2724 0
M  V30 242 H 25.1276 -2.95294 0.523609 0
M  V30 243 H 22.6806 -1.532 0.309745 0
M  V30 244 H 23.4156 -2.54091 -2.01514 0
M  V30 245 H 23.2006 -3.83769 -0.803968 0
M  V30 246 H 24.6906 -3.77198 -1.79196 0
M  V30 247 N 25.1277 -0.289203 -1.54924 0
M  V30 248 C 26.5387 0.205791 -1.85562 0
M  V30 249 C 26.8897 1.54351 -1.2112 0
M  V30 250 O 26.0147 2.10435 -0.504601 0
M  V30 251 C 26.6097 0.380177 -3.3666 0
M  V30 252 C 25.1687 0.819395 -3.67373 0
M  V30 253 C 24.3157 -0.079159 -2.77187 0
M  V30 254 H 27.2667 -0.510577 -1.50262 0
M  V30 255 H 27.2877 1.21659 -3.60526 0
M  V30 256 H 26.7997 -0.593589 -3.83534 0
M  V30 257 H 24.9007 1.80413 -3.26009 0
M  V30 258 H 25.0137 0.646957 -4.74712 0
M  V30 259 H 23.3777 0.439565 -2.50878 0
M  V30 260 H 24.1607 -1.04906 -3.26878 0
M  V30 261 N 26.6058 1.57591 -0.0167156 0
M  V30 262 C 27.8308 1.9598 0.67872 0
M  V30 263 C 28.2558 0.892546 1.65575 0
M  V30 264 O 27.6138 -0.147772 1.80697 0
M  V30 265 C 27.6618 3.33468 1.37227 0
M  V30 266 O 26.7658 3.28954 2.48722 0
M  V30 267 H 26.1068 0.639339 0.17928 0
M  V30 268 H 28.6368 2.04463 -0.0748802 0
M  V30 269 H 28.6468 3.69417 1.7319 0
M  V30 270 H 27.3218 4.10694 0.656007 0
M  V30 271 H 25.8988 3.04705 2.14963 0
M  V30 272 N 28.0839 -0.256276 1.55502 0
M  V30 273 C 29.0469 -1.30047 1.88734 0
M  V30 274 C 30.0469 -1.4154 0.763086 0
M  V30 275 O 31.2369 -1.40403 1.03115 0
M  V30 276 C 28.3689 -2.67953 2.10747 0
M  V30 277 H 29.5619 -1.01802 2.82093 0
M  V30 278 H 27.1149 -0.495134 1.4825 0
M  V30 279 H 27.8499 -3.01351 1.19825 0
M  V30 280 H 27.6349 -2.60993 2.92617 0
M  V30 281 H 29.1249 -3.43368 2.37673 0
M  V30 282 N 29.562 -1.4872 -0.521534 0
M  V30 283 C 30.802 -1.58771 -1.28729 0
M  V30 284 C 31.166 -0.259394 -1.9024 0
M  V30 285 O 32.367 -0.234942 -2.67771 0
M  V30 286 C 30.638 -2.70039 -2.34124 0
M  V30 287 S 32.197 -2.9991 -3.20312 0
M  V30 288 H 29.015 -0.560251 -0.437767 0
M  V30 289 H 31.617 -1.86283 -0.593188 0
M  V30 290 H 30.321 -3.65101 -1.87429 0
M  V30 291 H 29.852 -2.44455 -3.08229 0
M  V30 292 H 31.867 -2.39855 -4.34378 0
M  V30 293 N 31.0401 0.771051 -1.3745 0
M  V30 294 C 31.9701 1.89827 -1.3597 0
M  V30 295 C 32.9511 1.68562 -0.228216 0
M  V30 296 O 34.1361 1.8941 -0.428675 0
M  V30 297 C 31.2661 3.2712 -1.16662 0
M  V30 298 C 30.2201 3.6295 -2.2683 0
M  V30 299 C 29.5461 4.98791 -1.92644 0
M  V30 300 C 30.8461 3.69627 -3.69017 0
M  V30 301 H 32.5401 1.91323 -2.30295 0
M  V30 302 H 30.0861 0.919082 -1.10855 0
M  V30 303 H 32.0391 4.05615 -1.14256 0
M  V30 304 H 30.7631 3.26059 -0.187926 0
M  V30 305 H 29.4221 2.86763 -2.28392 0
M  V30 306 H 29.0701 4.94271 -0.933021 0
M  V30 307 H 28.7701 5.23733 -2.66416 0
M  V30 308 H 30.2941 5.79685 -1.91826 0
M  V30 309 H 31.7081 4.38273 -3.69581 0
M  V30 310 H 30.1051 4.06067 -4.41848 0
M  V30 311 H 31.1751 2.70273 -4.02592 0
M  V30 312 N 32.5182 1.22032 0.997298 0
M  V30 313 C 33.9292 1.0397 1.55071 0
M  V30 314 C 34.2802 -0.398192 1.92117 0
M  V30 315 O 33.4052 -1.28254 1.74298 0
M  V30 316 C 34.0002 1.88109 2.81781 0
M  V30 317 C 32.5592 1.74357 3.33581 0
M  V30 318 C 31.7062 1.84846 2.06706 0
M  V30 319 H 34.6572 1.35941 0.818883 0
M  V30 320 H 34.6782 1.39589 3.53971 0
M  V30 321 H 34.1902 2.92754 2.54787 0
M  V30 322 H 32.2912 0.72427 3.65493 0
M  V30 323 H 32.4042 2.56772 4.04481 0
M  V30 324 H 30.7682 1.28238 2.20062 0
M  V30 325 H 31.5512 2.91014 1.82114 0
M  V30 326 N 33.9963 -1.19345 1.0293 0
M  V30 327 C 35.4073 -1.70725 0.755633 0
M  V30 328 C 35.7583 -1.82326 -0.724676 0
M  V30 329 O 34.8833 -1.49471 -1.56484 0
M  V30 330 C 35.4783 -3.10084 1.36503 0
M  V30 331 C 34.0373 -3.58723 1.13994 0
M  V30 332 C 33.1843 -2.35577 1.46283 0
M  V30 333 H 36.1353 -1.0418 1.19718 0
M  V30 334 H 36.1563 -3.72787 0.762217 0
M  V30 335 H 35.6683 -3.01609 2.44241 0
M  V30 336 H 33.7693 -3.72512 0.0807901 0
M  V30 337 H 33.8823 -4.42816 1.82894 0
M  V30 338 H 32.2463 -2.38935 0.88217 0
M  V30 339 H 33.0293 -2.29731 2.55105 0
M  V30 340 N 35.4744 -0.807222 -1.35358 0
M  V30 341 C 36.4224 -0.20614 -2.31685 0
M  V30 342 C 37.4164 0.644445 -1.56663 0
M  V30 343 O 38.6224 0.537538 -1.71786 0
M  V30 344 H 34.9974 -0.0479006 -0.750473 0
M  V30 345 H 36.9684 -1.03369 -2.79924 0
M  V30 346 C 35.7174 0.630212 -3.41941 0
M  V30 347 H 35.0404 -0.0149558 -3.99797 0
M  V30 348 H 36.4804 1.01716 -4.11619 0
M  V30 349 C 34.9394 1.79601 -2.85035 0
M  V30 350 O 35.4694 2.89351 -2.78637 0
M  V30 351 N 33.6754 1.60774 -2.42074 0
M  V30 352 H 33.2224 0.715009 -2.47478 0
M  V30 353 H 33.1804 2.38933 -2.04349 0
M  V30 354 N 36.9525 1.47285 -0.560781 0
M  V30 355 C 38.1775 2.07359 -0.0410566 0
M  V30 356 C 38.6025 1.41017 1.24483 0
M  V30 357 O 37.9605 0.486368 1.74654 0
M  V30 358 C 38.0085 3.6035 0.134123 0
M  V30 359 O 37.1125 3.94681 1.19587 0
M  V30 360 H 36.4535 0.661887 -0.0529291 0
M  V30 361 H 38.9835 1.89252 -0.777482 0
M  V30 362 H 38.9935 4.0652 0.347207 0
M  V30 363 H 37.6685 4.08034 -0.805047 0
M  V30 364 H 36.2455 3.60251 0.962987 0
M  V30 365 N 38.4306 0.297415 1.54768 0
M  V30 366 C 39.6556 -0.318435 2.04941 0
M  V30 367 C 40.0806 -1.4701 1.17345 0
M  V30 368 O 39.4386 -1.80436 0.176758 0
M  V30 369 C 39.4866 -0.755749 3.52592 0
M  V30 370 O 38.5906 -1.86088 3.68028 0
M  V30 371 H 37.9316 -0.062421 0.661059 0
M  V30 372 H 40.4616 0.438215 1.99852 0
M  V30 373 H 40.4716 -1.04552 3.94376 0
M  V30 374 H 39.1466 0.0867233 4.1581 0
M  V30 375 H 37.7236 -1.57193 3.38149 0
M  V30 376 N 39.9087 -1.5758 0.0250728 0
M  V30 377 C 40.8717 -2.08896 -0.943139 0
M  V30 378 C 41.8717 -1.00321 -1.25668 0
M  V30 379 O 43.0617 -1.26495 -1.19769 0
M  V30 380 C 40.1937 -2.55143 -2.26086 0
M  V30 381 H 41.3867 -2.95723 -0.498775 0
M  V30 382 H 38.9397 -1.54703 -0.222888 0
M  V30 383 H 39.6747 -1.71633 -2.75159 0
M  V30 384 H 39.4597 -3.34461 -2.04641 0
M  V30 385 H 40.9497 -2.95083 -2.95492 0
M  V30 386 N 41.3868 0.248026 -1.55636 0
M  V30 387 C 42.6328 0.973427 -1.78594 0
M  V30 388 C 42.9878 1.83007 -0.593823 0
M  V30 389 O 42.2808 1.87097 0.412961 0
M  V30 390 C 42.4748 1.86819 -3.04686 0
M  V30 391 C 42.3038 1.09965 -4.36048 0
M  V30 392 C 41.0738 0.805204 -4.98843 0
M  V30 393 C 43.2718 0.477783 -5.12076 0
M  V30 394 N 41.2538 0.0124859 -6.13899 0
M  V30 395 C 42.6248 -0.179565 -6.1974 0
M  V30 396 C 44.6798 0.388136 -4.96385 0
M  V30 397 C 43.3828 -0.91795 -7.13419 0
M  V30 398 C 45.4088 -0.336716 -5.90441 0
M  V30 399 C 44.7708 -0.982705 -6.97511 0
M  V30 400 H 40.8698 0.337348 -0.705493 0
M  V30 401 H 43.4538 0.24667 -1.93131 0
M  V30 402 H 41.6248 2.56698 -2.9148 0
M  V30 403 H 43.3568 2.52907 -3.15944 0
M  V30 404 H 40.1118 1.11671 -4.60246 0
M  V30 405 H 40.5358 -0.371933 -6.75978 0
M  V30 406 H 45.1778 0.873237 -4.13684 0
M  V30 407 H 42.8958 -1.41466 -7.95621 0
M  V30 408 H 46.4818 -0.406731 -5.80377 0
M  V30 409 H 45.3618 -1.53464 -7.69037 0
M  V30 410 N 42.8649 1.48995 0.513639 0
M  V30 411 C 44.1119 1.57843 1.26854 0
M  V30 412 C 44.4399 0.259501 1.92761 0
M  V30 413 O 43.6949 -0.75159 1.80692 0
M  V30 414 C 43.9939 2.67756 2.36731 0
M  V30 415 C 43.6599 4.09669 1.88368 0
M  V30 416 C 42.3219 4.48291 1.74896 0
M  V30 417 C 44.6739 4.98537 1.52021 0
M  V30 418 C 42.0019 5.73568 1.23438 0
M  V30 419 C 44.3539 6.24319 1.0202 0
M  V30 420 C 43.0179 6.61783 0.871778 0
M  V30 421 H 42.2879 0.577587 0.464192 0
M  V30 422 H 44.9349 1.82778 0.571366 0
M  V30 423 H 43.2399 2.36743 3.12185 0
M  V30 424 H 44.9369 2.71813 2.9482 0
M  V30 425 H 41.5269 3.79176 1.99808 0
M  V30 426 H 45.7109 4.69363 1.61281 0
M  V30 427 H 40.9669 6.01304 1.10648 0
M  V30 428 H 45.1409 6.92566 0.729722 0
M  V30 429 H 42.7679 7.5874 0.470852 0
M  V30 430 N 44.343 -0.763751 1.37857 0
M  V30 431 C 45.754 -1.3405 1.29952 0
M  V30 432 C 46.105 -1.96138 -0.0492898 0
M  V30 433 O 45.23 -1.94372 -0.951239 0
M  V30 434 C 45.825 -2.43729 2.35333 0
M  V30 435 C 44.384 -2.97151 2.31037 0
M  V30 436 C 43.531 -1.70438 2.18738 0
M  V30 437 H 46.482 -0.563396 1.48363 0
M  V30 438 H 46.503 -3.23412 2.00462 0
M  V30 439 H 46.015 -1.9851 3.33489 0
M  V30 440 H 44.116 -3.46724 1.3643 0
M  V30 441 H 44.229 -3.52221 3.24772 0
M  V30 442 H 42.593 -1.93673 1.65418 0
M  V30 443 H 43.376 -1.27312 3.18821 0
M  V30 444 N 45.8211 -1.22559 -0.990812 0
M  V30 445 C 47.0691 -1.04933 -1.72724 0
M  V30 446 C 47.3901 0.416158 -1.90508 0
M  V30 447 O 46.6601 1.29918 -1.46622 0
M  V30 448 H 45.2401 -0.385296 -0.639965 0
M  V30 449 H 47.9021 -1.54105 -1.19322 0
M  V30 450 H 46.9981 -1.52886 -2.72089 0
M  V30 451 N 47.2992 1.18797 -1.03562 0
M  V30 452 C 48.5452 1.89192 -0.746867 0
M  V30 453 C 48.9002 1.78531 0.717245 0
M  V30 454 O 48.1932 1.17137 1.51622 0
M  V30 455 C 48.3872 3.38692 -1.14117 0
M  V30 456 C 48.2162 3.63902 -2.64207 0
M  V30 457 C 46.9862 3.81553 -3.31279 0
M  V30 458 C 49.1842 3.64903 -3.62423 0
M  V30 459 N 47.1662 3.94455 -4.70402 0
M  V30 460 C 48.5372 3.83458 -4.87196 0
M  V30 461 C 50.5922 3.47965 -3.56125 0
M  V30 462 C 49.2952 3.86829 -6.06429 0
M  V30 463 C 51.3212 3.52616 -4.7478 0
M  V30 464 C 50.6832 3.71663 -5.9837 0
M  V30 465 H 46.7822 0.711141 -0.325273 0
M  V30 466 H 49.3662 1.42727 -1.32428 0
M  V30 467 H 47.5372 3.83864 -0.591889 0
M  V30 468 H 49.2692 3.96634 -0.803966 0
M  V30 469 H 46.0242 3.80723 -2.81686 0
M  V30 470 H 46.4482 4.0474 -5.42692 0
M  V30 471 H 51.0902 3.32189 -2.61553 0
M  V30 472 H 48.8082 4.01395 -7.01362 0
M  V30 473 H 52.3942 3.40791 -4.71543 0
M  V30 474 H 51.2742 3.75145 -6.88648 0
M  V30 475 N 48.7773 0.814389 1.34928 0
M  V30 476 C 49.7403 0.235759 2.27984 0
M  V30 477 C 50.7403 -0.581412 1.49921 0
M  V30 478 O 51.9303 -0.398758 1.69575 0
M  V30 479 C 49.0623 -0.670433 3.34242 0
M  V30 480 H 50.2553 1.05659 2.80671 0
M  V30 481 H 47.8083 0.585614 1.44915 0
M  V30 482 H 48.5433 -1.51466 2.86755 0
M  V30 483 H 48.3283 -0.0860822 3.92005 0
M  V30 484 H 49.8183 -1.06935 4.03676 0
M  V30 485 N 50.2554 -1.46986 0.568584 0
M  V30 486 C 51.1654 -2.33942 -0.17555 0
M  V30 487 C 52.1814 -1.48891 -0.90041 0
M  V30 488 O 53.3574 -1.81794 -0.86676 0
M  V30 489 C 50.4224 -3.25811 -1.18524 0
M  V30 490 C 49.4834 -4.26757 -0.466582 0
M  V30 491 C 48.7164 -5.14236 -1.42817 0
M  V30 492 O 48.9394 -5.04379 -2.66379 0
M  V30 493 O 47.8734 -5.94412 -0.946453 0
M  V30 494 H 51.6994 -2.98896 0.538036 0
M  V30 495 H 49.2844 -1.4573 0.329097 0
M  V30 496 H 51.1664 -3.82527 -1.76779 0
M  V30 497 H 49.8414 -2.63471 -1.88055 0
M  V30 498 H 48.7484 -3.73769 0.157451 0
M  V30 499 H 50.0814 -4.91843 0.187485 0
M  V30 500 N 51.7335 -0.305618 -1.54608 0
M  V30 501 C 53.1445 0.186098 -1.8577 0
M  V30 502 C 53.4955 1.53058 -1.22751 0
M  V30 503 O 52.6205 2.09888 -0.526893 0
M  V30 504 C 53.2155 0.344449 -3.37044 0
M  V30 505 C 51.7745 0.780384 -3.68221 0
M  V30 506 C 50.9215 -0.108554 -2.77087 0
M  V30 507 H 53.8725 -0.526485 -1.49712 0
M  V30 508 H 53.8935 1.17828 -3.61796 0
M  V30 509 H 53.4055 -0.634235 -3.82883 0
M  V30 510 H 51.5065 1.76945 -3.27904 0
M  V30 511 H 51.6195 0.596572 -4.75371 0
M  V30 512 H 49.9835 0.412931 -2.5133 0
M  V30 513 H 50.7665 -1.08368 -3.25747 0
M  V30 514 N 53.2116 1.57565 -0.0334293 0
M  V30 515 C 54.4886 1.83282 0.683163 0
M  V30 516 C 54.8686 0.91823 1.90084 0
M  V30 517 O 54.2166 -0.025113 2.28486 0
M  V30 518 C 54.4266 3.32599 1.0573 0
M  V30 519 C 55.7746 3.99179 1.44711 0
M  V30 520 O 56.7986 3.3712 1.15015 0
M  V30 521 O 55.6576 5.08565 2.0006 0
M  V30 522 H 52.7516 0.755869 0.335546 0
M  V30 523 H 55.2976 1.69589 -0.0614402 0
M  V30 524 H 54.0696 3.90834 0.190828 0
M  V30 525 H 53.6926 3.51415 1.85993 0
M  V30 526 N 54.6897 -0.239769 1.55765 0
M  V30 527 C 55.9147 -0.988373 1.82335 0
M  V30 528 C 56.3397 -1.77886 0.611421 0
M  V30 529 O 55.6977 -1.75889 -0.439639 0
M  V30 530 C 55.7457 -1.89627 3.06715 0
M  V30 531 O 54.8497 -2.98904 2.84131 0
M  V30 532 H 54.1907 -0.280858 0.601677 0
M  V30 533 H 56.7207 -0.258597 2.02959 0
M  V30 534 H 56.7307 -2.30957 3.36338 0
M  V30 535 H 55.4057 -1.31511 3.9456 0
M  V30 536 H 53.9827 -2.61651 2.65694 0
M  V30 537 N 56.1678 -1.49265 -0.50573 0
M  V30 538 C 57.1158 -1.66065 -1.62866 0
M  V30 539 C 58.1098 -0.526636 -1.61006 0
M  V30 540 O 59.3158 -0.706126 -1.65571 0
M  V30 541 H 55.6908 -0.52356 -0.539805 0
M  V30 542 H 57.6618 -2.60329 -1.45848 0
M  V30 543 C 56.4108 -1.74008 -3.01026 0
M  V30 544 H 55.7338 -2.6064 -3.03161 0
M  V30 545 H 57.1738 -1.89798 -3.79147 0
M  V30 546 C 55.6328 -0.483868 -3.33407 0
M  V30 547 O 56.1628 0.392548 -3.99777 0
M  V30 548 N 54.3688 -0.348236 -2.88506 0
M  V30 549 H 53.9158 -1.06242 -2.34671 0
M  V30 550 H 53.8738 0.491204 -3.10539 0
M  V30 551 N 57.6459 0.756429 -1.3826 0
M  V30 552 C 58.8939 1.51248 -1.34047 0
M  V30 553 C 59.2149 1.94875 0.0698372 0
M  V30 554 O 58.4849 1.67436 1.01696 0
M  V30 555 H 57.0649 0.561018 -0.493222 0
M  V30 556 H 59.7269 0.899347 -1.7291 0
M  V30 557 H 58.8229 2.40472 -1.98947 0
M  V30 558 N 59.124 1.23083 0.984299 0
M  V30 559 C 60.349 1.088 1.76571 0
M  V30 560 C 60.774 -0.356657 1.84688 0
M  V30 561 O 60.132 -1.25788 1.30565 0
M  V30 562 C 60.18 1.71371 3.17277 0
M  V30 563 O 59.284 0.973213 4.00752 0
M  V30 564 H 58.625 0.381599 0.543395 0
M  V30 565 H 61.155 1.63057 1.23587 0
M  V30 566 H 61.165 1.76449 3.67872 0
M  V30 567 H 59.84 2.76493 3.10684 0
M  V30 568 H 58.417 0.999078 3.59267 0
M  V30 569 N 60.6021 -1.18246 1.0419 0
M  V30 570 C 61.5651 -2.20128 0.638452 0
M  V30 571 C 62.5651 -1.57885 -0.304805 0
M  V30 572 O 63.7551 -1.73967 -0.0900369 0
M  V30 573 C 60.8871 -3.4084 -0.0637751 0
M  V30 574 H 62.0801 -2.57336 1.54007 0
M  V30 575 H 59.6331 -1.32152 0.834598 0
M  V30 576 H 60.3681 -3.09166 -0.979136 0
M  V30 577 H 60.1531 -3.8726 0.614198 0
M  V30 578 H 61.6431 -4.16274 -0.332512 0
M  V30 579 N 62.0802 -0.821533 -1.34494 0
M  V30 580 C 63.3282 -0.408139 -1.97936 0
M  V30 581 C 63.6492 1.03193 -1.65457 0
M  V30 582 O 62.9192 1.71622 -0.944595 0
M  V30 583 H 61.4992 -0.147928 -0.732206 0
M  V30 584 H 64.1612 -1.05067 -1.64155 0
M  V30 585 H 63.2572 -0.52601 -3.07635 0
M  V30 586 N 63.5583 1.46682 -0.576371 0
M  V30 587 C 64.7833 2.07304 -0.0630475 0
M  V30 588 C 65.2083 1.42329 1.2298 0
M  V30 589 O 64.5663 0.504865 1.74129 0
M  V30 590 C 64.6143 3.60472 0.095895 0
M  V30 591 O 63.7183 3.95927 1.15394 0
M  V30 592 H 63.0593 0.661288 -0.0599463 0
M  V30 593 H 65.5893 1.88417 -0.797511 0
M  V30 594 H 65.5993 4.06865 0.304071 0
M  V30 595 H 64.2743 4.07157 -0.84828 0
M  V30 596 H 62.8513 3.61252 0.924724 0
M  V30 597 N 65.0364 0.313813 1.54444 0
M  V30 598 C 65.9464 -0.565714 2.27677 0
M  V30 599 C 66.9624 -1.13754 1.31666 0
M  V30 600 O 68.1384 -1.15959 1.64668 0
M  V30 601 C 65.2034 -1.71528 3.01296 0
M  V30 602 C 64.2644 -1.17624 4.12872 0
M  V30 603 C 63.4974 -2.27102 4.8297 0
M  V30 604 O 63.7204 -3.47256 4.52514 0
M  V30 605 O 62.6544 -1.9307 5.70094 0
M  V30 606 H 66.4804 0.0287296 3.03686 0
M  V30 607 H 64.0654 0.0798312 1.49187 0
M  V30 608 H 65.9474 -2.38476 3.4743 0
M  V30 609 H 64.6224 -2.29608 2.2817 0
M  V30 610 H 63.5294 -0.472124 3.71109 0
M  V30 611 H 64.8624 -0.640695 4.88012 0
M  V30 612 N 66.5145 -1.57545 0.0417849 0
M  V30 613 C 67.7915 -1.83642 -0.673433 0
M  V30 614 C 68.1715 -0.928298 -1.89594 0
M  V30 615 O 67.5195 0.0129955 -2.28496 0
M  V30 616 C 67.7295 -3.33155 -1.03964 0
M  V30 617 C 69.0775 -3.99941 -1.42592 0
M  V30 618 O 70.1015 -3.37725 -1.13226 0
M  V30 619 O 68.9605 -5.09619 -1.9736 0
M  V30 620 H 66.0545 -0.757638 -0.331533 0
M  V30 621 H 68.6005 -1.69554 0.070433 0
M  V30 622 H 67.3725 -3.9093 -0.170098 0
M  V30 623 H 66.9955 -3.52396 -1.84126 0
M  V30 624 N 67.9926 0.231505 -1.5589 0
M  V30 625 C 68.9556 1.27028 -1.90779 0
M  V30 626 C 69.9556 1.40308 -0.785507 0
M  V30 627 O 71.1456 1.38744 -1.05336 0
M  V30 628 C 68.2776 2.64566 -2.14983 0
M  V30 629 H 69.4706 0.973017 -2.83677 0
M  V30 630 H 67.0236 0.471486 -1.49019 0
M  V30 631 H 67.7586 2.99406 -1.24604 0
M  V30 632 H 67.5436 2.56305 -2.96732 0
M  V30 633 H 69.0336 3.39543 -2.43105 0
M  V30 634 N 69.4707 1.49531 0.497807 0
M  V30 635 C 70.4027 1.62559 1.61578 0
M  V30 636 C 71.4157 0.508134 1.54667 0
M  V30 637 O 72.6047 0.780309 1.60541 0
M  V30 638 C 69.7047 1.56925 3.00379 0
M  V30 639 C 68.8777 2.84257 3.3244 0
M  V30 640 C 67.9367 2.71632 4.50669 0
M  V30 641 O 66.9627 3.4557 4.52294 0
M  V30 642 N 68.1647 1.83391 5.5077 0
M  V30 643 H 70.9297 2.58981 1.50828 0
M  V30 644 H 68.4907 1.4666 0.685743 0
M  V30 645 H 70.4827 1.46129 3.77397 0
M  V30 646 H 69.0527 0.683483 3.05037 0
M  V30 647 H 68.2727 3.09381 2.44289 0
M  V30 648 H 69.5607 3.68666 3.5066 0
M  V30 649 H 68.9587 1.22583 5.52259 0
M  V30 650 H 67.5157 1.78515 6.26878 0
M  V30 651 N 70.9488 -0.749086 1.3866 0
M  V30 652 C 71.8788 -1.8764 1.38973 0
M  V30 653 C 72.8598 -1.68178 0.255004 0
M  V30 654 O 74.0448 -1.88704 0.458754 0
M  V30 655 C 71.1748 -3.25222 1.21851 0
M  V30 656 C 70.1288 -3.59295 2.32575 0
M  V30 657 C 69.4548 -4.95663 2.00555 0
M  V30 658 C 70.7548 -3.63709 3.7485 0
M  V30 659 H 72.4488 -1.87635 2.3331 0
M  V30 660 H 69.9948 -0.901329 1.12303 0
M  V30 661 H 71.9478 -4.03746 1.20695 0
M  V30 662 H 70.6718 -3.25719 0.239775 0
M  V30 663 H 69.3308 -2.83093 2.32925 0
M  V30 664 H 68.9788 -4.92724 1.01154 0
M  V30 665 H 68.6788 -5.19429 2.74714 0
M  V30 666 H 70.2028 -5.7656 2.01024 0
M  V30 667 H 71.6168 -4.32338 3.76506 0
M  V30 668 H 70.0138 -3.98986 4.48252 0
M  V30 669 H 71.0838 -2.63834 4.06841 0
M  V30 670 N 72.4269 -1.23603 -0.977757 0
M  V30 671 C 73.3369 -1.03632 -2.1047 0
M  V30 672 C 74.3529 0.0199435 -1.73989 0
M  V30 673 O 75.5289 -0.176076 -2.00629 0
M  V30 674 C 72.5939 -0.63276 -3.40877 0
M  V30 675 C 71.6549 -1.76437 -3.91367 0
M  V30 676 C 70.8879 -1.37997 -5.15551 0
M  V30 677 O 71.1109 -0.265357 -5.69782 0
M  V30 678 O 70.0449 -2.20201 -5.60174 0
M  V30 679 H 73.8709 -1.98086 -2.30208 0
M  V30 680 H 71.4559 -1.02332 -1.08851 0
M  V30 681 H 73.3379 -0.418761 -4.19314 0
M  V30 682 H 72.0129 0.282754 -3.22463 0
M  V30 683 H 70.9199 -2.03304 -3.14036 0
M  V30 684 H 72.2529 -2.6583 -4.14241 0
M  V30 685 N 73.905 1.17692 -1.04816 0
M  V30 686 C 75.316 1.69501 -0.782698 0
M  V30 687 C 75.667 1.83456 0.695577 0
M  V30 688 O 74.792 1.51942 1.54086 0
M  V30 689 C 75.387 3.07874 -1.41419 0
M  V30 690 C 73.946 3.56864 -1.19686 0
M  V30 691 C 73.093 2.3322 -1.50012 0
M  V30 692 H 76.044 1.02262 -1.2136 0
M  V30 693 H 76.065 3.71528 -0.821428 0
M  V30 694 H 75.577 2.97685 -2.49009 0
M  V30 695 H 73.678 3.72337 -0.140043 0
M  V30 696 H 73.791 4.39851 -1.89916 0
M  V30 697 H 72.155 2.37501 -0.920071 0
M  V30 698 H 72.938 2.25644 -2.58727 0
M  V30 699 N 75.3831 0.828654 1.34056 0
M  V30 700 C 76.3461 0.259927 2.27721 0
M  V30 701 C 77.3461 -0.565478 1.50529 0
M  V30 702 O 78.5361 -0.38075 1.69988 0
M  V30 703 C 75.6681 -0.634944 3.34935 0
M  V30 704 H 76.8611 1.0863 2.79534 0
M  V30 705 H 74.4141 0.600951 1.44285 0
M  V30 706 H 75.1491 -1.48416 2.88346 0
M  V30 707 H 74.9341 -0.0444999 3.92075 0
M  V30 708 H 76.4241 -1.02648 4.04788 0
M  V30 709 N 76.8612 -1.46375 0.584142 0
M  V30 710 C 77.8112 -2.27371 -0.169232 0
M  V30 711 C 78.7952 -1.35955 -0.860523 0
M  V30 712 O 79.9872 -1.60119 -0.754382 0
M  V30 713 C 77.1162 -3.22334 -1.18134 0
M  V30 714 C 76.2022 -4.21235 -0.492088 0
M  V30 715 N 76.5932 -5.03766 0.453129 0
M  V30 716 C 74.8912 -4.39773 -0.742652 0
M  V30 717 C 75.5922 -5.75366 0.85609 0
M  V30 718 N 74.5682 -5.43214 0.204926 0
M  V30 719 H 78.3702 -2.88572 0.557097 0
M  V30 720 H 75.8842 -1.57242 0.406042 0
M  V30 721 H 77.8812 -3.79071 -1.73525 0
M  V30 722 H 76.5412 -2.62693 -1.90847 0
M  V30 723 H 77.5522 -5.11227 0.828723 0
M  V30 724 H 74.2292 -3.91279 -1.45625 0
M  V30 725 H 75.6192 -6.5172 1.63434 0
M  V30 726 N 78.3393 -0.321999 -1.54275 0
M  V30 727 C 79.5883 0.281931 -1.9972 0
M  V30 728 C 79.9013 1.53369 -1.21397 0
M  V30 729 O 81.1073 2.21352 -1.57211 0
M  V30 730 C 79.5633 0.5529 -3.55628 0
M  V30 731 C 79.1713 -0.681721 -4.42783 0
M  V30 732 C 80.9153 1.11687 -4.09544 0
M  V30 733 C 78.8223 -0.382742 -5.9016 0
M  V30 734 H 77.7523 0.109124 -0.746062 0
M  V30 735 H 80.4033 -0.43398 -1.78294 0
M  V30 736 H 78.7853 1.32896 -3.73035 0
M  V30 737 H 79.9593 -1.45723 -4.37151 0
M  V30 738 H 78.2743 -1.1658 -3.99748 0
M  V30 739 H 80.8713 1.35515 -5.17242 0
M  V30 740 H 81.2143 2.06575 -3.61431 0
M  V30 741 H 81.7473 0.402032 -3.95763 0
M  V30 742 H 78.4863 -1.30076 -6.42464 0
M  V30 743 H 78.0063 0.355094 -5.98748 0
M  V30 744 H 79.6853 0.00800157 -6.47 0
M  V30 745 N 79.8174 1.5752 -0.0501392 0
M  V30 746 C 81.0424 1.97376 0.636997 0
M  V30 747 C 81.4674 0.927466 1.63645 0
M  V30 748 O 80.8254 -0.10941 1.8097 0
M  V30 749 C 80.8734 3.36304 1.30123 0
M  V30 750 O 79.9774 3.34156 2.41689 0
M  V30 751 H 79.3184 0.642998 0.165679 0
M  V30 752 H 81.8484 2.04258 -0.118233 0
M  V30 753 H 81.8584 3.73008 1.65315 0
M  V30 754 H 80.5334 4.11993 0.568746 0
M  V30 755 H 79.1104 3.09196 2.08451 0
M  V30 756 N 81.2955 -0.223234 1.56011 0
M  V30 757 C 82.7065 -0.790368 1.69145 0
M  V30 758 C 83.0575 -1.85055 0.651845 0
M  V30 759 O 82.1825 -2.15498 -0.197359 0
M  V30 760 C 82.7775 -1.4404 3.06656 0
M  V30 761 C 81.3365 -1.95494 3.2165 0
M  V30 762 C 80.4835 -0.814506 2.65068 0
M  V30 763 H 83.4345 0.00139011 1.587 0
M  V30 764 H 83.4555 -2.30916 3.0242 0
M  V30 765 H 82.9675 -0.668543 3.82298 0
M  V30 766 H 81.0685 -2.75487 2.50874 0
M  V30 767 H 81.1815 -2.13607 4.28846 0
M  V30 768 H 79.5455 -1.22137 2.23505 0
M  V30 769 H 80.3285 -0.0553515 3.43255 0
M  V30 770 N 82.7736 -1.49793 -0.48987 0
M  V30 771 C 83.7366 -1.66752 -1.57246 0
M  V30 772 C 84.7366 -0.538867 -1.51502 0
M  V30 773 O 85.9266 -0.805545 -1.54456 0
M  V30 774 C 83.0586 -1.67528 -2.96896 0
M  V30 775 H 84.2516 -2.63321 -1.43534 0
M  V30 776 H 81.8046 -1.38992 -0.714914 0
M  V30 777 H 82.5396 -0.725837 -3.16073 0
M  V30 778 H 82.3246 -2.49504 -3.02473 0
M  V30 779 H 83.8146 -1.82667 -3.7553 0
M  V30 780 N 84.2517 0.741722 -1.39055 0
M  V30 781 C 85.5007 1.49656 -1.35225 0
M  V30 782 C 85.8137 1.95533 0.0512708 0
M  V30 783 O 87.0197 2.7067 0.212138 0
M  V30 784 C 85.4757 2.70389 -2.37525 0
M  V30 785 C 85.0837 2.31489 -3.83558 0
M  V30 786 C 86.8277 3.48236 -2.42759 0
M  V30 787 C 84.7347 3.48903 -4.77515 0
M  V30 788 H 83.6647 0.56197 -0.502699 0
M  V30 789 H 86.3157 0.809727 -1.64668 0
M  V30 790 H 84.6977 3.41113 -2.01142 0
M  V30 791 H 85.8717 1.68354 -4.28945 0
M  V30 792 H 84.1867 1.66749 -3.81554 0
M  V30 793 H 86.7837 4.35558 -3.1015 0
M  V30 794 H 87.1267 3.90229 -1.45008 0
M  V30 795 H 87.6597 2.84535 -2.78002 0
M  V30 796 H 84.3987 3.11966 -5.76504 0
M  V30 797 H 83.9187 4.11041 -4.36813 0
M  V30 798 H 85.5977 4.15328 -4.96096 0
M  V30 799 N 85.7298 1.2412 0.971189 0
M  V30 800 C 87.1408 1.07236 1.52831 0
M  V30 801 C 87.4918 -0.357352 1.92918 0
M  V30 802 O 86.6168 -1.24528 1.76979 0
M  V30 803 C 87.2118 1.94043 2.77728 0
M  V30 804 C 85.7708 1.81394 3.29808 0
M  V30 805 C 84.9178 1.89189 2.02738 0
M  V30 806 H 87.8688 1.37648 0.789864 0
M  V30 807 H 87.8898 1.47066 3.5093 0
M  V30 808 H 87.4018 2.98093 2.4852 0
M  V30 809 H 85.5028 0.801634 3.63874 0
M  V30 810 H 85.6158 2.65294 3.98944 0
M  V30 811 H 83.9798 1.32877 2.17292 0
M  V30 812 H 84.7628 2.94812 1.759 0
M  V30 813 N 87.2079 -1.17134 1.05439 0
M  V30 814 C 88.4539 -1.87733 0.767077 0
M  V30 815 C 88.7869 -1.8098 -0.704253 0
M  V30 816 O 88.0619 -1.21951 -1.5152 0
M  V30 817 C 88.3449 -3.37659 1.25133 0
M  V30 818 C 88.1979 -3.53149 2.78578 0
M  V30 819 C 89.5169 -4.31768 0.852324 0
M  V30 820 H 86.6359 -0.681687 0.280129 0
M  V30 821 H 89.2779 -1.37732 1.30881 0
M  V30 822 H 87.4279 -3.80373 0.790469 0
M  V30 823 H 89.0999 -3.19434 3.32806 0
M  V30 824 H 87.3429 -2.95345 3.17732 0
M  V30 825 H 88.0139 -4.58403 3.07523 0
M  V30 826 H 90.4899 -3.96909 1.24911 0
M  V30 827 H 89.3659 -5.35199 1.21873 0
M  V30 828 H 89.6269 -4.41429 -0.243485 0
M  V30 829 N 88.686 -0.835752 -1.33615 0
M  V30 830 C 89.935 -0.426289 -1.97144 0
M  V30 831 C 90.248 1.01912 -1.66953 0
M  V30 832 O 91.454 1.53311 -2.24072 0
M  V30 833 C 89.91 -0.711321 -3.52801 0
M  V30 834 C 89.518 -2.1712 -3.91871 0
M  V30 835 C 91.262 -0.368654 -4.22896 0
M  V30 836 C 89.169 -2.40044 -5.40493 0
M  V30 837 H 88.099 -0.15567 -0.737755 0
M  V30 838 H 90.75 -1.0239 -1.52278 0
M  V30 839 H 89.132 -0.0433766 -3.95976 0
M  V30 840 H 90.306 -2.87936 -3.59763 0
M  V30 841 H 88.621 -2.47654 -3.34749 0
M  V30 842 H 91.218 -0.517601 -5.32189 0
M  V30 843 H 91.561 0.688078 -4.10574 0
M  V30 844 H 92.094 -0.991702 -3.8524 0
M  V30 845 H 88.833 -3.44271 -5.57815 0
M  V30 846 H 88.353 -1.73785 -5.74072 0
M  V30 847 H 90.032 -2.23042 -6.0734 0
M  V30 848 N 90.1641 1.46063 -0.591896 0
M  V30 849 C 91.4131 2.01547 -0.0786637 0
M  V30 850 C 91.7261 1.46796 1.29268 0
M  V30 851 O 92.9321 1.94157 1.89777 0
M  V30 852 C 91.3881 3.59787 -0.0900024 0
M  V30 853 C 90.9961 4.23534 -1.46023 0
M  V30 854 C 92.7401 4.22895 0.368806 0
M  V30 855 C 90.6471 5.73881 -1.4288 0
M  V30 856 H 89.5771 0.753564 -0.0256388 0
M  V30 857 H 92.2281 1.677 -0.744905 0
M  V30 858 H 90.6101 3.90752 0.642586 0
M  V30 859 H 91.7841 4.04167 -2.21328 0
M  V30 860 H 90.0991 3.72558 -1.85982 0
M  V30 861 H 92.6961 5.33116 0.411258 0
M  V30 862 H 93.0391 3.9247 1.38827 0
M  V30 863 H 93.5721 3.9659 -0.31001 0
M  V30 864 H 90.3111 6.0898 -2.42536 0
M  V30 865 H 89.8311 5.95486 -0.718095 0
M  V30 866 H 91.5101 6.36776 -1.14565 0
M  V30 867 N 91.6422 0.330177 1.54103 0
M  V30 868 C 92.8702 -0.272179 2.05102 0
M  V30 869 C 93.2852 -1.45267 1.20595 0
M  V30 870 O 92.6422 -1.8094 0.238144 0
M  V30 871 C 92.6932 -0.70023 3.54653 0
M  V30 872 O 92.4142 0.433301 4.35952 0
M  V30 873 C 93.9152 -1.3647 4.21771 0
M  V30 874 H 91.1352 -0.0549159 0.668749 0
M  V30 875 H 93.6792 0.478285 1.98828 0
M  V30 876 H 91.8342 -1.40066 3.61193 0
M  V30 877 H 92.2482 0.0947539 5.24414 0
M  V30 878 H 93.7222 -1.61509 5.27843 0
M  V30 879 H 94.1992 -2.31409 3.73292 0
M  V30 880 H 94.8052 -0.706675 4.19388 0
M  V30 881 N 93.1203 -1.57491 0.0584922 0
M  V30 882 C 94.0833 -2.1085 -0.898617 0
M  V30 883 C 95.0833 -1.02964 -1.23511 0
M  V30 884 O 96.2733 -1.29007 -1.17059 0
M  V30 885 C 93.4053 -2.59881 -2.20623 0
M  V30 886 H 94.5983 -2.96715 -0.435936 0
M  V30 887 H 92.1513 -1.55141 -0.190023 0
M  V30 888 H 92.8863 -1.77431 -2.71457 0
M  V30 889 H 92.6713 -3.38727 -1.97501 0
M  V30 890 H 94.1613 -3.01285 -2.89166 0
M  V30 891 N 94.5984 0.214957 -1.56127 0
M  V30 892 C 95.8444 0.939762 -1.79712 0
M  V30 893 C 96.1774 1.83723 -0.629247 0
M  V30 894 O 95.4524 1.90925 0.371197 0
M  V30 895 C 95.7354 1.77306 -3.13424 0
M  V30 896 C 95.5884 0.90164 -4.40671 0
M  V30 897 C 96.9074 2.74956 -3.43638 0
M  V30 898 H 94.0264 0.340214 -0.653776 0
M  V30 899 H 96.6684 0.20824 -1.88855 0
M  V30 900 H 94.8184 2.39673 -3.0576 0
M  V30 901 H 96.4904 0.294206 -4.60361 0
M  V30 902 H 94.7334 0.207368 -4.33304 0
M  V30 903 H 95.4044 1.51923 -5.30682 0
M  V30 904 H 97.8804 2.22724 -3.51473 0
M  V30 905 H 96.7564 3.30358 -4.38355 0
M  V30 906 H 97.0174 3.53023 -2.66134 0
M  V30 907 N 96.0765 1.50051 0.48192 0
M  V30 908 C 97.3065 1.63999 1.2565 0
M  V30 909 C 97.7145 0.318288 1.86504 0
M  V30 910 O 97.0575 -0.708534 1.69486 0
M  V30 911 C 97.1195 2.66504 2.4128 0
M  V30 912 C 96.7835 4.10352 2.01148 0
M  V30 913 C 97.7805 4.96562 1.54021 0
M  V30 914 C 95.4655 4.56203 2.10199 0
M  V30 915 C 97.4595 6.26668 1.16473 0
M  V30 916 C 95.1465 5.86318 1.72264 0
M  V30 917 C 96.1445 6.71375 1.25477 0
M  V30 918 O 95.8325 7.99062 0.880626 0
M  V30 919 H 95.5645 0.55456 0.386574 0
M  V30 920 H 98.1185 1.96954 0.582944 0
M  V30 921 H 96.3485 2.28769 3.11772 0
M  V30 922 H 98.0375 2.69783 3.03268 0
M  V30 923 H 98.8035 4.62358 1.46458 0
M  V30 924 H 94.6825 3.90152 2.45566 0
M  V30 925 H 98.2265 6.93011 0.798841 0
M  V30 926 H 94.1235 6.20046 1.79482 0
M  V30 927 H 94.8915 8.12239 1.01043 0
M  V30 928 N 97.5546 -0.734337 1.39446 0
M  V30 929 C 98.7796 -1.52866 1.40167 0
M  V30 930 C 99.2046 -1.881 -0.00171513 0
M  V30 931 O 98.5626 -1.51957 -0.988879 0
M  V30 932 C 98.6106 -2.79235 2.28167 0
M  V30 933 O 97.7146 -3.75185 1.71201 0
M  V30 934 H 97.0556 -0.461618 0.477289 0
M  V30 935 H 99.5856 -0.905949 1.8345 0
M  V30 936 H 99.5956 -3.27963 2.42702 0
M  V30 937 H 98.2706 -2.52923 3.30156 0
M  V30 938 H 96.8476 -3.33958 1.65912 0
M  V30 939 N 99.0327 -1.24633 -0.964593 0
M  V30 940 C 100.279 -1.08949 -1.71049 0
M  V30 941 C 100.612 0.370302 -1.90637 0
M  V30 942 O 99.8867 1.27349 -1.47011 0
M  V30 943 C 100.17 -1.83329 -3.0994 0
M  V30 944 C 100.023 -3.37077 -2.97824 0
M  V30 945 C 101.342 -1.60846 -4.09654 0
M  V30 946 H 98.4607 -0.397178 -0.620821 0
M  V30 947 H 101.103 -1.5334 -1.12191 0
M  V30 948 H 99.2527 -1.45597 -3.60186 0
M  V30 949 H 100.925 -3.84425 -2.5498 0
M  V30 950 H 99.1677 -3.65298 -2.33965 0
M  V30 951 H 99.8387 -3.84324 -3.96231 0
M  V30 952 H 102.315 -1.93674 -3.68279 0
M  V30 953 H 101.191 -2.1534 -5.04896 0
M  V30 954 H 101.452 -0.547434 -4.38698 0
M  V30 955 N 100.511 1.16574 -1.06058 0
M  V30 956 C 101.757 1.87324 -0.777022 0
M  V30 957 C 102.09 1.81351 0.694645 0
M  V30 958 O 101.365 1.22753 1.50871 0
M  V30 959 C 101.648 3.36991 -1.26922 0
M  V30 960 C 101.501 3.51667 -2.80447 0
M  V30 961 C 102.82 4.3131 -0.87521 0
M  V30 962 H 99.9388 0.680191 -0.28374 0
M  V30 963 H 102.581 1.37036 -1.3161 0
M  V30 964 H 100.731 3.79949 -0.81063 0
M  V30 965 H 102.403 3.17664 -3.34495 0
M  V30 966 H 100.646 2.93656 -3.19294 0
M  V30 967 H 101.317 4.56766 -3.0995 0
M  V30 968 H 103.793 3.9624 -1.27014 0
M  V30 969 H 102.669 5.34545 -1.2471 0
M  V30 970 H 102.93 4.41552 0.220071 0
M  V30 971 N 101.989 0.842826 1.3317 0
M  V30 972 C 103.236 0.440447 1.97652 0
M  V30 973 C 103.564 -1.00123 1.6675 0
M  V30 974 O 102.819 -1.7155 0.941761 0
M  V30 975 C 103.118 0.612607 3.52111 0
M  V30 976 C 102.784 2.02297 4.02972 0
M  V30 977 C 101.446 2.40874 4.16573 0
M  V30 978 C 103.798 2.94402 4.30089 0
M  V30 979 C 101.126 3.70852 4.54627 0
M  V30 980 C 103.478 4.23865 4.69597 0
M  V30 981 C 102.142 4.62392 4.81404 0
M  V30 982 H 101.412 0.161171 0.72326 0
M  V30 983 H 104.059 1.07061 1.58777 0
M  V30 984 H 102.364 -0.100849 3.9167 0
M  V30 985 H 104.061 0.2815 4.00011 0
M  V30 986 H 100.651 1.71338 3.92863 0
M  V30 987 H 104.835 2.65835 4.19101 0
M  V30 988 H 100.091 4.00501 4.61962 0
M  V30 989 H 104.265 4.95306 4.89536 0
M  V30 990 H 101.892 5.63154 5.10648 0
M  V30 991 N 103.467 -1.45747 0.599634 0
M  V30 992 C 104.713 -2.02592 0.0918643 0
M  V30 993 C 105.046 -1.46806 -1.27128 0
M  V30 994 O 104.321 -0.639658 -1.83681 0
M  V30 995 C 104.604 -3.60073 0.0443398 0
M  V30 996 C 104.457 -4.26208 1.43759 0
M  V30 997 C 105.776 -4.35309 -0.647608 0
M  V30 998 H 102.895 -0.736175 0.034857 0
M  V30 999 H 105.537 -1.73694 0.770081 0
M  V30 1000 H 103.687 -3.84823 -0.533224 0
M  V30 1001 H 105.359 -4.12668 2.06162 0
M  V30 1002 H 103.602 -3.84916 2.00056 0
M  V30 1003 H 104.273 -5.35069 1.35665 0
M  V30 1004 H 106.749 -4.15805 -0.156776 0
M  V30 1005 H 105.625 -5.45038 -0.649942 0
M  V30 1006 H 105.886 -4.07598 -1.71219 0
M  V30 1007 N 104.945 -0.338344 -1.53925 0
M  V30 1008 C 106.191 0.260143 -2.01125 0
M  V30 1009 C 106.524 1.50617 -1.22589 0
M  V30 1010 O 105.799 1.91979 -0.312113 0
M  V30 1011 C 106.082 0.579499 -3.55407 0
M  V30 1012 C 105.935 -0.678264 -4.44657 0
M  V30 1013 C 107.254 1.39122 -4.17532 0
M  V30 1014 H 104.373 0.0930772 -0.731099 0
M  V30 1015 H 107.015 -0.457852 -1.84401 0
M  V30 1016 H 105.165 1.19118 -3.69788 0
M  V30 1017 H 106.837 -1.31631 -4.42121 0
M  V30 1018 H 105.08 -1.3042 -4.13731 0
M  V30 1019 H 105.751 -0.410143 -5.50474 0
M  V30 1020 H 108.227 0.874035 -4.06817 0
M  V30 1021 H 107.103 1.58342 -5.25565 0
M  V30 1022 H 107.364 2.39178 -3.71815 0
M  V30 1023 N 106.423 1.57458 -0.0668435 0
M  V30 1024 C 107.671 1.92919 0.602214 0
M  V30 1025 C 107.992 0.947215 1.70449 0
M  V30 1026 O 107.262 -0.00544117 1.95899 0
M  V30 1027 H 105.842 0.71217 0.22544 0
M  V30 1028 H 108.504 1.94508 -0.123535 0
M  V30 1029 H 107.6 2.94589 1.03073 0
M  V30 1030 N 107.901 -0.206675 1.56239 0
M  V30 1031 C 108.831 -1.25909 1.96645 0
M  V30 1032 C 109.812 -1.48097 0.836734 0
M  V30 1033 O 110.997 -1.6003 1.10019 0
M  V30 1034 C 108.127 -2.6058 2.29599 0
M  V30 1035 C 107.081 -2.53024 3.452 0
M  V30 1036 C 106.407 -3.91861 3.63798 0
M  V30 1037 C 107.707 -2.06524 4.79734 0
M  V30 1038 H 109.401 -0.923369 2.84806 0
M  V30 1039 H 106.947 -0.442735 1.37025 0
M  V30 1040 H 108.9 -3.34375 2.56459 0
M  V30 1041 H 107.624 -2.95869 1.38307 0
M  V30 1042 H 106.283 -1.81684 3.18412 0
M  V30 1043 H 105.931 -4.24483 2.69857 0
M  V30 1044 H 105.631 -3.87683 4.4156 0
M  V30 1045 H 107.155 -4.67296 3.93022 0
M  V30 1046 H 108.569 -2.70072 5.05702 0
M  V30 1047 H 106.966 -2.13374 5.60885 0
M  V30 1048 H 108.036 -1.01802 4.74093 0
M  V30 1049 N 109.379 -1.50304 -0.473955 0
M  V30 1050 C 110.625 -1.61389 -1.22806 0
M  V30 1051 C 110.958 -0.311955 -1.91678 0
M  V30 1052 O 110.233 0.686384 -1.81986 0
M  V30 1053 C 110.516 -2.79219 -2.27396 0
M  V30 1054 C 110.369 -4.19286 -1.62848 0
M  V30 1055 C 111.688 -2.92614 -3.28732 0
M  V30 1056 H 108.807 -0.587399 -0.445119 0
M  V30 1057 H 111.449 -1.82681 -0.522265 0
M  V30 1058 H 109.599 -2.61195 -2.87592 0
M  V30 1059 H 111.271 -4.48892 -1.06271 0
M  V30 1060 H 109.514 -4.23677 -0.931693 0
M  V30 1061 H 110.185 -4.97655 -2.38838 0
M  V30 1062 H 112.661 -3.09105 -2.78556 0
M  V30 1063 H 111.537 -3.76688 -3.99246 0
M  V30 1064 H 111.798 -2.03107 -3.92683 0
M  V30 1065 N 110.857 0.726932 -1.39834 0
M  V30 1066 C 112.105 1.4837 -1.37225 0
M  V30 1067 C 112.426 1.94979 0.0284857 0
M  V30 1068 O 111.696 1.69555 0.981213 0
M  V30 1069 H 110.276 0.55043 -0.505011 0
M  V30 1070 H 112.938 0.862468 -1.74778 0
M  V30 1071 H 112.034 2.36198 -2.04003 0
M  V30 1072 N 112.336 1.25143 0.95797 0
M  V30 1073 C 113.284 1.05019 2.07542 0
M  V30 1074 C 114.278 -0.0178751 1.69391 0
M  V30 1075 O 115.484 0.137472 1.79474 0
M  V30 1076 H 111.859 0.32265 0.679265 0
M  V30 1077 H 113.83 1.99759 2.21673 0
M  V30 1078 C 112.579 0.682074 3.40944 0
M  V30 1079 H 111.902 1.49573 3.70767 0
M  V30 1080 H 113.342 0.580945 4.20001 0
M  V30 1081 C 111.801 -0.611608 3.31302 0
M  V30 1082 O 112.331 -1.65465 3.66038 0
M  V30 1083 N 110.537 -0.595982 2.84423 0
M  V30 1084 H 110.084 0.253192 2.56353 0
M  V30 1085 H 110.042 -1.46173 2.78354 0
M  V30 1086 N 113.814 -1.1601 1.06675 0
M  V30 1087 C 115.039 -1.91068 0.806706 0
M  V30 1088 C 115.464 -1.77112 -0.633485 0
M  V30 1089 O 114.822 -1.09908 -1.44187 0
M  V30 1090 C 114.87 -3.39655 1.21106 0
M  V30 1091 O 113.974 -4.10893 0.352189 0
M  V30 1092 H 113.315 -0.595125 0.294486 0
M  V30 1093 H 115.845 -1.46955 1.42356 0
M  V30 1094 H 115.855 -3.90434 1.18428 0
M  V30 1095 H 114.53 -3.49132 2.26008 0
M  V30 1096 H 113.107 -3.70285 0.440868 0
M  V30 1097 N 115.292 -0.849877 -1.32721 0
M  V30 1098 C 116.222 -0.306308 -2.31482 0
M  V30 1099 C 117.203 0.591952 -1.59468 0
M  V30 1100 O 118.388 0.513199 -1.87296 0
M  V30 1101 C 115.518 0.510204 -3.43532 0
M  V30 1102 C 114.472 -0.293209 -4.26994 0
M  V30 1103 C 113.798 0.647743 -5.30762 0
M  V30 1104 C 115.098 -1.51634 -4.99804 0
M  V30 1105 H 116.792 -1.13153 -2.77195 0
M  V30 1106 H 114.338 -0.545553 -1.33266 0
M  V30 1107 H 116.291 0.900856 -4.11658 0
M  V30 1108 H 115.015 1.36874 -2.96535 0
M  V30 1109 H 113.674 -0.665555 -3.60508 0
M  V30 1110 H 113.322 1.50299 -4.8002 0
M  V30 1111 H 113.022 0.11422 -5.87489 0
M  V30 1112 H 114.546 1.03567 -6.01753 0
M  V30 1113 H 115.96 -1.19824 -5.60638 0
M  V30 1114 H 114.357 -1.98745 -5.66234 0
M  V30 1115 H 115.427 -2.28018 -4.27943 0
M  V30 1116 N 116.77 1.45427 -0.607355 0
M  V30 1117 C 118.016 2.0254 -0.102607 0
M  V30 1118 C 118.349 1.47478 1.26348 0
M  V30 1119 O 117.624 0.64939 1.83339 0
M  V30 1120 C 117.907 3.60044 -0.0634347 0
M  V30 1121 C 117.76 4.2544 -1.46017 0
M  V30 1122 C 119.079 4.35646 0.624514 0
M  V30 1123 H 116.198 0.73598 -0.0387607 0
M  V30 1124 H 118.84 1.73284 -0.779282 0
M  V30 1125 H 116.99 3.85101 0.512808 0
M  V30 1126 H 118.662 4.11569 -2.08347 0
M  V30 1127 H 116.905 3.83849 -2.02094 0
M  V30 1128 H 117.576 5.34342 -1.385 0
M  V30 1129 H 120.052 4.15882 0.134723 0
M  V30 1130 H 118.928 5.45376 0.621028 0
M  V30 1131 H 119.189 4.08501 1.69055 0
M  V30 1132 N 118.248 0.346503 1.53744 0
M  V30 1133 C 119.181 -0.552023 2.21423 0
M  V30 1134 C 120.159 -1.09798 1.19929 0
M  V30 1135 O 121.343 -1.1577 1.4876 0
M  V30 1136 C 118.47 -1.75972 2.89398 0
M  V30 1137 C 117.516 -1.34295 4.04805 0
M  V30 1138 S 118.349 -0.360263 5.34287 0
M  V30 1139 C 119.505 -1.57473 6.05767 0
M  V30 1140 H 119.738 0.0228119 2.97291 0
M  V30 1141 H 117.271 0.130579 1.53847 0
M  V30 1142 H 119.229 -2.45256 3.2918 0
M  V30 1143 H 117.89 -2.30578 2.1329 0
M  V30 1144 H 117.083 -2.24349 4.51313 0
M  V30 1145 H 116.685 -0.729555 3.66815 0
M  V30 1146 H 118.977 -2.50875 6.29339 0
M  V30 1147 H 119.92 -1.15138 6.98676 0
M  V30 1148 H 120.328 -1.77212 5.35963 0
M  V30 1149 N 119.726 -1.57421 0.075193 0
M  V30 1150 C 120.973 -1.93618 -0.593146 0
M  V30 1151 C 121.301 -0.955484 -1.69413 0
M  V30 1152 O 120.556 0.0283251 -1.9568 0
M  V30 1153 C 120.855 -3.36428 -1.20626 0
M  V30 1154 C 120.521 -4.50307 -0.231078 0
M  V30 1155 C 119.183 -4.81186 0.0371936 0
M  V30 1156 C 121.535 -5.19374 0.435888 0
M  V30 1157 C 118.863 -5.78466 0.979461 0
M  V30 1158 C 121.215 -6.17665 1.3665 0
M  V30 1159 C 119.879 -6.46958 1.6432 0
M  V30 1160 H 119.149 -0.708499 -0.217047 0
M  V30 1161 H 121.796 -1.90937 0.146793 0
M  V30 1162 H 120.101 -3.35592 -2.02201 0
M  V30 1163 H 121.798 -3.61727 -1.73073 0
M  V30 1164 H 118.388 -4.26227 -0.450357 0
M  V30 1165 H 122.572 -4.95711 0.241748 0
M  V30 1166 H 117.828 -5.99487 1.20106 0
M  V30 1167 H 122.002 -6.70284 1.88924 0
M  V30 1168 H 119.629 -7.2215 2.37494 0
M  V30 1169 N 121.204 0.198386 -1.56346 0
M  V30 1170 C 122.45 0.920648 -1.80698 0
M  V30 1171 C 122.783 1.83045 -0.648697 0
M  V30 1172 O 122.058 1.91308 0.350925 0
M  V30 1173 C 122.341 1.73971 -3.15287 0
M  V30 1174 C 122.194 0.85485 -4.41602 0
M  V30 1175 C 123.513 2.71296 -3.46535 0
M  V30 1176 H 120.632 0.333261 -0.657348 0
M  V30 1177 H 123.274 0.188198 -1.89066 0
M  V30 1178 H 121.424 2.36416 -3.08285 0
M  V30 1179 H 123.096 0.245362 -4.60647 0
M  V30 1180 H 121.339 0.161398 -4.335 0
M  V30 1181 H 122.01 1.46286 -5.32264 0
M  V30 1182 H 124.486 2.18983 -3.53816 0
M  V30 1183 H 123.362 3.2569 -4.41834 0
M  V30 1184 H 123.623 3.5018 -2.69864 0
M  V30 1185 N 122.682 1.50554 0.465978 0
M  V30 1186 C 123.931 1.61038 1.21448 0
M  V30 1187 C 124.244 0.31865 1.92987 0
M  V30 1188 O 125.45 0.302469 2.6981 0
M  V30 1189 C 123.906 2.84283 2.20706 0
M  V30 1190 C 123.514 4.20352 1.54946 0
M  V30 1191 C 125.258 3.04115 2.96166 0
M  V30 1192 C 123.165 5.34778 2.5252 0
M  V30 1193 H 122.095 0.599718 0.457005 0
M  V30 1194 H 124.746 1.7699 0.484424 0
M  V30 1195 H 123.128 2.61901 2.97025 0
M  V30 1196 H 124.302 4.53008 0.843811 0
M  V30 1197 H 122.617 4.06167 0.917475 0
M  V30 1198 H 125.214 3.86774 3.69202 0
M  V30 1199 H 125.557 2.16045 3.55852 0
M  V30 1200 H 126.09 3.26702 2.26959 0
M  V30 1201 H 122.829 6.25018 1.97566 0
M  V30 1202 H 122.349 5.06534 3.21222 0
M  V30 1203 H 124.028 5.65561 3.14245 0
M  V30 1204 N 124.16 -0.719506 1.40217 0
M  V30 1205 C 125.409 -1.47486 1.37589 0
M  V30 1206 C 125.722 -1.9559 -0.0201568 0
M  V30 1207 O 126.928 -2.70973 -0.169049 0
M  V30 1208 C 125.384 -2.66575 2.41796 0
M  V30 1209 C 124.992 -2.25358 3.87192 0
M  V30 1210 C 126.736 -3.4433 2.48269 0
M  V30 1211 C 124.643 -3.41262 4.83005 0
M  V30 1212 H 123.573 -0.553901 0.511576 0
M  V30 1213 H 126.224 -0.783427 1.65936 0
M  V30 1214 H 124.606 -3.3787 2.06543 0
M  V30 1215 H 125.78 -1.61509 4.31569 0
M  V30 1216 H 124.095 -1.60657 3.84159 0
M  V30 1217 H 126.692 -4.30569 3.17041 0
M  V30 1218 H 127.035 -3.87872 1.51198 0
M  V30 1219 H 127.568 -2.80076 2.82493 0
M  V30 1220 H 124.307 -3.02755 5.81394 0
M  V30 1221 H 123.827 -4.0404 4.43297 0
M  V30 1222 H 125.506 -4.07383 5.02641 0
M  V30 1223 N 125.638 -1.25649 -0.95132 0
M  V30 1224 C 127.054 -1.02542 -1.223 0
M  V30 1225 C 127.254 0.255715 -1.99871 0
M  V30 1226 O 126.31 0.967558 -2.33226 0
M  V30 1227 C 127.623 -2.25065 -1.99415 0
M  V30 1228 C 129.171 -2.29861 -2.12446 0
M  V30 1229 C 129.646 -3.52048 -2.92961 0
M  V30 1230 N 131.137 -3.52465 -3.00538 0
M  V30 1231 C 131.872 -4.43672 -3.63239 0
M  V30 1232 N 131.368 -5.45157 -4.27523 0
M  V30 1233 N 133.161 -4.31346 -3.60412 0
M  V30 1234 H 125.312 -2.07951 -0.432471 0
M  V30 1235 H 127.575 -0.91339 -0.253816 0
M  V30 1236 H 127.281 -3.18194 -1.49817 0
M  V30 1237 H 127.155 -2.28502 -3.00111 0
M  V30 1238 H 129.542 -1.37252 -2.61239 0
M  V30 1239 H 129.623 -2.3044 -1.11044 0
M  V30 1240 H 129.267 -4.44981 -2.44856 0
M  V30 1241 H 129.197 -3.48715 -3.94596 0
M  V30 1242 H 131.688 -2.79056 -2.54826 0
M  V30 1243 H 132.001 -6.10958 -4.73234 0
M  V30 1244 H 130.346 -5.49025 -4.26141 0
M  V30 1245 H 133.537 -3.51288 -3.09377 0
M  V30 1246 H 133.71 -5.02624 -4.0899 0
M  V30 1247 N 127.117 1.15442 -1.07289 0
M  V30 1248 C 128.347 1.89821 -0.815576 0
M  V30 1249 C 128.755 1.7823 0.634867 0
M  V30 1250 O 128.098 1.13152 1.44715 0
M  V30 1251 C 128.16 3.40817 -1.14385 0
M  V30 1252 C 127.824 3.76193 -2.59476 0
M  V30 1253 C 128.821 3.77269 -3.57721 0
M  V30 1254 C 126.506 4.0652 -2.95037 0
M  V30 1255 C 128.5 4.08176 -4.89562 0
M  V30 1256 C 126.187 4.37092 -4.27076 0
M  V30 1257 C 127.185 4.37902 -5.24148 0
M  V30 1258 O 126.873 4.67741 -6.53815 0
M  V30 1259 H 126.605 0.608465 -0.294528 0
M  V30 1260 H 129.159 1.472 -1.43252 0
M  V30 1261 H 127.389 3.83835 -0.469865 0
M  V30 1262 H 129.078 3.96485 -0.869179 0
M  V30 1263 H 129.844 3.5394 -3.3159 0
M  V30 1264 H 125.723 4.05049 -2.20128 0
M  V30 1265 H 129.267 4.08723 -5.65324 0
M  V30 1266 H 125.164 4.59889 -4.5296 0
M  V30 1267 H 125.932 4.85509 -6.58957 0
M  V30 1268 N 128.595 0.856903 1.32268 0
M  V30 1269 C 129.823 0.475439 2.01363 0
M  V30 1270 C 130.238 -0.928486 1.64392 0
M  V30 1271 O 129.595 -1.60624 0.866387 0
M  V30 1272 C 129.646 0.607545 3.56358 0
M  V30 1273 O 129.367 1.95617 3.92002 0
M  V30 1274 C 130.868 0.225382 4.42727 0
M  V30 1275 H 128.088 0.186636 0.644521 0
M  V30 1276 H 130.632 1.15446 1.68797 0
M  V30 1277 H 128.787 -0.0237719 3.87393 0
M  V30 1278 H 129.201 1.95455 4.86721 0
M  V30 1279 H 130.675 0.368813 5.50767 0
M  V30 1280 H 131.152 -0.834369 4.31202 0
M  V30 1281 H 131.758 0.831864 4.17085 0
M  V30 1282 N 130.073 -1.45103 0.615059 0
M  V30 1283 C 131.02 -2.30586 -0.0993978 0
M  V30 1284 C 131.99 -1.42544 -0.852669 0
M  V30 1285 O 133.175 -1.71465 -0.836917 0
M  V30 1286 C 130.315 -3.27572 -1.08583 0
M  V30 1287 C 129.428 -4.30717 -0.332656 0
M  V30 1288 C 128.563 -5.14807 -1.30947 0
M  V30 1289 C 127.602 -6.09673 -0.544538 0
M  V30 1290 N 126.739 -6.86517 -1.47101 0
M  V30 1291 H 131.579 -2.91144 0.635542 0
M  V30 1292 H 129.116 -1.4346 0.325206 0
M  V30 1293 H 131.074 -3.82276 -1.67095 0
M  V30 1294 H 129.704 -2.68751 -1.78809 0
M  V30 1295 H 128.756 -3.78615 0.368107 0
M  V30 1296 H 130.068 -4.98102 0.263842 0
M  V30 1297 H 129.222 -5.73948 -1.96643 0
M  V30 1298 H 127.961 -4.47458 -1.9399 0
M  V30 1299 H 126.966 -5.49656 0.126003 0
M  V30 1300 H 128.191 -6.79052 0.080947 0
M  V30 1301 H 126.137 -6.21851 -2.08895 0
M  V30 1302 H 126.054 -7.50281 -0.928137 0
M  V30 1303 H 127.322 -7.50194 -2.11731 0
M  V30 1304 N 131.551 -0.354651 -1.53558 0
M  V30 1305 C 132.484 0.540273 -2.21712 0
M  V30 1306 C 133.462 1.09161 -1.2051 0
M  V30 1307 O 134.646 1.14979 -1.49372 0
M  V30 1308 C 131.773 1.74435 -2.90328 0
M  V30 1309 C 130.819 1.32146 -4.05512 0
M  V30 1310 S 131.652 0.331924 -5.3447 0
M  V30 1311 C 132.808 1.54258 -6.06593 0
M  V30 1312 H 133.041 -0.0385776 -2.97275 0
M  V30 1313 H 130.574 -0.138736 -1.53775 0
M  V30 1314 H 132.532 2.43507 -3.30476 0
M  V30 1315 H 131.193 2.29444 -2.1451 0
M  V30 1316 H 130.386 2.21952 -4.52497 0
M  V30 1317 H 129.988 0.710091 -3.67197 0
M  V30 1318 H 132.28 2.47534 -6.30661 0
M  V30 1319 H 133.223 1.11431 -6.99277 0
M  V30 1320 H 133.631 1.74367 -5.36895 0
M  V30 1321 N 133.029 1.57378 -0.0835403 0
M  V30 1322 C 133.976 2.13384 0.879539 0
M  V30 1323 C 134.946 1.04936 1.28754 0
M  V30 1324 O 136.131 1.32662 1.37133 0
M  V30 1325 C 133.271 2.70932 2.13752 0
M  V30 1326 C 132.384 3.93575 1.7811 0
M  V30 1327 C 131.519 4.39326 2.98607 0
M  V30 1328 C 130.558 5.54587 2.59037 0
M  V30 1329 N 129.695 5.95243 3.72331 0
M  V30 1330 H 134.535 2.9537 0.395076 0
M  V30 1331 H 132.072 1.45953 0.183349 0
M  V30 1332 H 134.03 3.02411 2.87408 0
M  V30 1333 H 132.66 1.91693 2.59718 0
M  V30 1334 H 131.712 3.68483 0.94469 0
M  V30 1335 H 133.024 4.77258 1.45005 0
M  V30 1336 H 132.178 4.72528 3.80529 0
M  V30 1337 H 130.917 3.5452 3.34913 0
M  V30 1338 H 129.922 5.21024 1.75539 0
M  V30 1339 H 131.147 6.41133 2.23887 0
M  V30 1340 H 129.093 5.13385 4.08378 0
M  V30 1341 H 129.01 6.73694 3.43034 0
M  V30 1342 H 130.278 6.33072 4.54797 0
M  V30 1343 N 134.507 -0.190092 1.56449 0
M  V30 1344 C 135.735 -0.925772 1.85033 0
M  V30 1345 C 136.15 -1.76638 0.666658 0
M  V30 1346 O 135.507 -1.78822 -0.364565 0
M  V30 1347 C 135.558 -1.81786 3.12468 0
M  V30 1348 O 135.279 -1.01118 4.26271 0
M  V30 1349 C 136.78 -2.6648 3.54265 0
M  V30 1350 H 134 -0.269872 0.614337 0
M  V30 1351 H 136.544 -0.195837 2.0356 0
M  V30 1352 H 134.699 -2.50136 2.95822 0
M  V30 1353 H 135.113 -1.61956 4.98869 0
M  V30 1354 H 136.587 -3.24722 4.46385 0
M  V30 1355 H 137.064 -3.40434 2.77491 0
M  V30 1356 H 137.67 -2.03493 3.73458 0
M  V30 1357 N 135.985 -1.50799 -0.457987 0
M  V30 1358 C 136.948 -1.7005 -1.53674 0
M  V30 1359 C 137.948 -0.570881 -1.50325 0
M  V30 1360 O 139.138 -0.838126 -1.52712 0
M  V30 1361 C 136.27 -1.73788 -2.93276 0
M  V30 1362 H 137.463 -2.66306 -1.37917 0
M  V30 1363 H 135.016 -1.40477 -0.685271 0
M  V30 1364 H 135.751 -0.792717 -3.14462 0
M  V30 1365 H 135.536 -2.55864 -2.97113 0
M  V30 1366 H 137.026 -1.90591 -3.71571 0
M  V30 1367 N 137.463 0.71206 -1.40597 0
M  V30 1368 C 138.691 1.50111 -1.42388 0
M  V30 1369 C 139.106 1.88784 -0.0245395 0
M  V30 1370 O 138.463 1.55681 0.952351 0
M  V30 1371 C 138.514 2.7742 -2.31776 0
M  V30 1372 O 138.235 2.40382 -3.66262 0
M  V30 1373 C 139.736 3.7129 -2.42196 0
M  V30 1374 H 136.956 0.46314 -0.485533 0
M  V30 1375 H 139.5 0.878068 -1.8469 0
M  V30 1376 H 137.655 3.36001 -1.92827 0
M  V30 1377 H 138.069 3.22324 -4.13772 0
M  V30 1378 H 139.543 4.57448 -3.08943 0
M  V30 1379 H 140.02 4.14641 -1.44809 0
M  V30 1380 H 140.626 3.18619 -2.81712 0
M  V30 1381 N 138.941 1.26152 0.944643 0
M  V30 1382 C 139.889 1.07215 2.06417 0
M  V30 1383 C 140.883 9.2007e-05 1.694 0
M  V30 1384 O 142.089 0.1565 1.79318 0
M  V30 1385 H 138.464 0.329837 0.675805 0
M  V30 1386 H 140.435 2.02099 2.19541 0
M  V30 1387 C 139.184 0.718197 3.40202 0
M  V30 1388 H 138.507 1.53497 3.69159 0
M  V30 1389 H 139.947 0.625459 4.19361 0
M  V30 1390 C 138.406 -0.576435 3.31932 0
M  V30 1391 O 138.936 -1.61574 3.67773 0
M  V30 1392 N 137.142 -0.565781 2.85039 0
M  V30 1393 H 136.689 0.280367 2.5607 0
M  V30 1394 H 136.647 -1.43213 2.79888 0
M  V30 1395 N 140.419 -1.14872 1.07899 0
M  V30 1396 C 141.668 -1.85135 0.800499 0
M  V30 1397 C 141.981 -1.83547 -0.676014 0
M  V30 1398 O 143.187 -2.49548 -1.06948 0
M  V30 1399 C 141.643 -3.3231 1.38197 0
M  V30 1400 C 141.251 -3.42329 2.8899 0
M  V30 1401 C 142.995 -4.0772 1.18174 0
M  V30 1402 C 140.902 -4.83684 3.403 0
M  V30 1403 H 139.832 -0.693563 0.29578 0
M  V30 1404 H 142.483 -1.29532 1.29976 0
M  V30 1405 H 140.865 -3.87618 0.810431 0
M  V30 1406 H 142.039 -2.97097 3.52236 0
M  V30 1407 H 140.354 -2.80369 3.07867 0
M  V30 1408 H 142.951 -5.12049 1.5398 0
M  V30 1409 H 143.294 -4.16124 0.12117 0
M  V30 1410 H 143.827 -3.58696 1.71994 0
M  V30 1411 H 140.566 -4.80465 4.45907 0
M  V30 1412 H 140.086 -5.29474 2.81811 0
M  V30 1413 H 141.765 -5.52558 3.36584 0
M  V30 1414 N 141.898 -0.863906 -1.31812 0
M  V30 1415 C 143.128 -0.485406 -2.00817 0
M  V30 1416 C 143.536 0.925007 -1.65046 0
M  V30 1417 O 142.879 1.61653 -0.872574 0
M  V30 1418 C 142.941 -0.555589 -3.55181 0
M  V30 1419 C 142.605 -1.92654 -4.14407 0
M  V30 1420 C 143.602 -2.89324 -4.31958 0
M  V30 1421 C 141.287 -2.2262 -4.50273 0
M  V30 1422 C 143.281 -4.14108 -4.84555 0
M  V30 1423 C 140.968 -3.47654 -5.02573 0
M  V30 1424 C 141.966 -4.43214 -5.19664 0
M  V30 1425 O 141.654 -5.66033 -5.70843 0
M  V30 1426 H 141.386 -0.188224 -0.649267 0
M  V30 1427 H 143.94 -1.16514 -1.69156 0
M  V30 1428 H 142.17 0.181037 -3.86276 0
M  V30 1429 H 143.859 -0.19138 -4.05449 0
M  V30 1430 H 144.625 -2.6748 -4.04573 0
M  V30 1431 H 140.504 -1.4902 -4.3625 0
M  V30 1432 H 144.048 -4.88703 -4.9781 0
M  V30 1433 H 139.945 -3.69345 -5.29391 0
M  V30 1434 H 140.713 -5.6812 -5.89222 0
M  V30 1435 N 143.376 1.44774 -0.622745 0
M  V30 1436 C 144.625 2.01334 -0.121397 0
M  V30 1437 C 144.938 1.49505 1.26125 0
M  V30 1438 O 146.144 1.98139 1.85616 0
M  V30 1439 C 144.6 3.59516 -0.166298 0
M  V30 1440 C 144.208 4.20342 -1.54974 0
M  V30 1441 C 145.952 4.23582 0.279021 0
M  V30 1442 C 143.859 5.70721 -1.55021 0
M  V30 1443 H 142.789 0.752851 -0.0416172 0
M  V30 1444 H 145.44 1.66083 -0.780309 0
M  V30 1445 H 143.822 3.92027 0.559557 0
M  V30 1446 H 144.996 3.99381 -2.29851 0
M  V30 1447 H 143.311 3.68529 -1.93843 0
M  V30 1448 H 145.908 5.33868 0.298083 0
M  V30 1449 H 146.251 3.95327 1.30471 0
M  V30 1450 H 146.784 3.95843 -0.394063 0
M  V30 1451 H 143.523 6.03698 -2.55399 0
M  V30 1452 H 143.043 5.93829 -0.844245 0
M  V30 1453 H 144.722 6.34203 -1.28047 0
M  V30 1454 N 144.854 0.36279 1.53368 0
M  V30 1455 C 146.101 -0.227776 2.01215 0
M  V30 1456 C 146.429 -1.49003 1.25014 0
M  V30 1457 O 145.684 -1.92876 0.331236 0
M  V30 1458 C 145.983 -0.568417 3.52851 0
M  V30 1459 C 145.649 0.59918 4.46901 0
M  V30 1460 C 144.311 0.919559 4.72332 0
M  V30 1461 C 146.663 1.38156 5.02556 0
M  V30 1462 C 143.991 2.02434 5.5067 0
M  V30 1463 C 146.343 2.47674 5.821 0
M  V30 1464 C 145.007 2.8025 6.05819 0
M  V30 1465 H 144.277 -0.083349 0.736297 0
M  V30 1466 H 146.924 0.494677 1.85001 0
M  V30 1467 H 145.229 -1.37185 3.66998 0
M  V30 1468 H 146.926 -1.03756 3.87344 0
M  V30 1469 H 143.516 0.339437 4.27254 0
M  V30 1470 H 147.7 1.14729 4.82857 0
M  V30 1471 H 142.956 2.28075 5.67267 0
M  V30 1472 H 147.13 3.08716 6.24234 0
M  V30 1473 H 144.757 3.65979 6.66306 0
M  V30 1474 N 146.332 -1.57332 0.0918853 0
M  V30 1475 C 147.28 -2.15075 -0.885747 0
M  V30 1476 C 148.274 -1.09277 -1.29441 0
M  V30 1477 O 149.48 -1.27627 -1.26931 0
M  V30 1478 H 145.855 -0.687966 -0.303656 0
M  V30 1479 H 147.826 -2.96047 -0.373995 0
M  V30 1480 C 146.575 -2.74325 -2.13638 0
M  V30 1481 H 145.898 -3.55418 -1.8308 0
M  V30 1482 H 147.338 -3.183 -2.80109 0
M  V30 1483 C 145.797 -1.70062 -2.90827 0
M  V30 1484 O 146.327 -1.13763 -3.85254 0
M  V30 1485 N 144.533 -1.40628 -2.54307 0
M  V30 1486 H 144.08 -1.866 -1.7759 0
M  V30 1487 H 144.038 -0.711043 -3.06254 0
M  V30 1488 N 147.81 0.181792 -1.56548 0
M  V30 1489 C 148.74 1.22765 -1.98623 0
M  V30 1490 C 149.721 1.46747 -0.860189 0
M  V30 1491 O 150.906 1.58259 -1.12551 0
M  V30 1492 C 148.036 2.56894 -2.33715 0
M  V30 1493 C 146.99 2.475 -3.49182 0
M  V30 1494 C 146.316 3.86023 -3.69986 0
M  V30 1495 C 147.616 1.98866 -4.82959 0
M  V30 1496 H 149.31 0.877942 -2.86239 0
M  V30 1497 H 146.856 0.42088 -1.37712 0
M  V30 1498 H 148.809 3.30253 -2.61746 0
M  V30 1499 H 147.533 2.93632 -1.42997 0
M  V30 1500 H 146.192 1.76596 -3.21262 0
M  V30 1501 H 145.84 4.20136 -2.76576 0
M  V30 1502 H 145.54 3.80609 -4.47672 0
M  V30 1503 H 147.064 4.60984 -4.00407 0
M  V30 1504 H 148.478 2.61992 -5.09934 0
M  V30 1505 H 146.875 2.04424 -5.64208 0
M  V30 1506 H 147.945 0.942465 -4.75653 0
M  V30 1507 N 149.288 1.51039 0.449983 0
M  V30 1508 C 150.251 1.70863 1.5277 0
M  V30 1509 C 151.251 0.578846 1.5002 0
M  V30 1510 O 152.441 0.846213 1.52266 0
M  V30 1511 C 149.573 1.75341 2.9235 0
M  V30 1512 H 150.766 2.67034 1.36502 0
M  V30 1513 H 148.319 1.40838 0.677812 0
M  V30 1514 H 149.054 0.809383 3.14037 0
M  V30 1515 H 148.839 2.57436 2.95752 0
M  V30 1516 H 150.329 1.92559 3.70555 0
M  V30 1517 N 150.766 -0.704594 1.40972 0
M  V30 1518 C 151.696 -1.83124 1.44872 0
M  V30 1519 C 152.677 -1.67281 0.30838 0
M  V30 1520 O 153.862 -1.87149 0.518556 0
M  V30 1521 C 150.992 -3.21181 1.32136 0
M  V30 1522 C 149.946 -3.51714 2.43888 0
M  V30 1523 C 149.272 -4.89032 2.16222 0
M  V30 1524 C 150.572 -3.516 3.86232 0
M  V30 1525 H 152.266 -1.80117 2.39161 0
M  V30 1526 H 149.812 -0.865145 1.15114 0
M  V30 1527 H 151.765 -3.99702 1.33479 0
M  V30 1528 H 150.489 -3.24791 0.343279 0
M  V30 1529 H 149.148 -2.75539 2.41813 0
M  V30 1530 H 148.796 -4.89256 1.16778 0
M  V30 1531 H 148.496 -5.10426 2.911 0
M  V30 1532 H 150.02 -5.69873 2.19265 0
M  V30 1533 H 151.434 -4.2014 3.9007 0
M  V30 1534 H 149.831 -3.84523 4.60719 0
M  V30 1535 H 150.901 -2.50757 4.15029 0
M  V30 1536 N 152.244 -1.26651 -0.937939 0
M  V30 1537 C 153.207 -1.08546 -2.01867 0
M  V30 1538 C 154.207 -0.0327327 -1.60767 0
M  V30 1539 O 155.397 -0.276427 -1.71993 0
M  V30 1540 C 152.529 -0.651711 -3.34613 0
M  V30 1541 H 153.722 -2.04502 -2.1936 0
M  V30 1542 H 151.275 -1.09294 -1.11734 0
M  V30 1543 H 152.01 0.309696 -3.22818 0
M  V30 1544 H 151.795 -1.41189 -3.65798 0
M  V30 1545 H 153.285 -0.546973 -4.14002 0
M  V30 1546 N 153.722 1.14298 -1.08507 0
M  V30 1547 C 154.999 1.81544 -0.728088 0
M  V30 1548 C 155.379 1.95838 0.78808 0
M  V30 1549 O 154.727 1.51904 1.70697 0
M  V30 1550 C 154.937 3.17169 -1.45619 0
M  V30 1551 C 156.285 3.9265 -1.61591 0
M  V30 1552 O 157.309 3.26762 -1.41793 0
M  V30 1553 O 156.168 5.10807 -1.94263 0
M  V30 1554 H 153.262 0.78491 -0.260471 0
M  V30 1555 H 155.808 1.21307 -1.18671 0
M  V30 1556 H 154.58 3.01934 -2.489 0
M  V30 1557 H 154.203 3.851 -0.989124 0
M  V30 1558 N 155.201 0.870884 1.31352 0
M  V30 1559 C 156.164 0.332243 2.26779 0
M  V30 1560 C 157.164 -0.517302 1.52252 0
M  V30 1561 O 158.354 -0.326477 1.71113 0
M  V30 1562 C 155.486 -0.528066 3.36785 0
M  V30 1563 H 156.679 1.17469 2.75937 0
M  V30 1564 H 154.232 0.64655 1.423 0
M  V30 1565 H 154.967 -1.39167 2.92922 0
M  V30 1566 H 154.752 0.0802582 3.92018 0
M  V30 1567 H 156.242 -0.897179 4.07849 0
M  V30 1568 N 156.679 -1.44442 0.630414 0
M  V30 1569 C 157.609 -2.33418 -0.0618083 0
M  V30 1570 C 158.59 -1.48165 -0.835541 0
M  V30 1571 O 159.775 -1.76886 -0.801564 0
M  V30 1572 C 156.905 -3.31222 -1.04449 0
M  V30 1573 C 155.859 -4.26288 -0.382436 0
M  V30 1574 C 155.185 -5.13954 -1.47497 0
M  V30 1575 C 156.485 -5.1744 0.710865 0
M  V30 1576 H 158.179 -2.91548 0.681184 0
M  V30 1577 H 155.725 -1.40191 0.329026 0
M  V30 1578 H 157.678 -3.92351 -1.53748 0
M  V30 1579 H 156.402 -2.71299 -1.81836 0
M  V30 1580 H 155.061 -3.6649 0.0899054 0
M  V30 1581 H 154.709 -4.50385 -2.2397 0
M  V30 1582 H 154.409 -5.7837 -1.03737 0
M  V30 1583 H 155.933 -5.77955 -1.96979 0
M  V30 1584 H 157.347 -5.72509 0.300996 0
M  V30 1585 H 155.744 -5.90455 1.07156 0
M  V30 1586 H 156.814 -4.58496 1.57829 0
M  V30 1587 N 158.157 -0.370918 -1.53173 0
M  V30 1588 C 159.403 0.217423 -2.01631 0
M  V30 1589 C 159.736 1.47983 -1.25756 0
M  V30 1590 O 159.011 1.91274 -0.352764 0
M  V30 1591 C 159.294 0.503982 -3.56556 0
M  V30 1592 C 159.147 -0.77243 -4.43118 0
M  V30 1593 C 160.466 1.30234 -4.20389 0
M  V30 1594 H 157.585 0.0775486 -0.732909 0
M  V30 1595 H 160.227 -0.496863 -1.83388 0
M  V30 1596 H 158.377 1.11248 -3.72231 0
M  V30 1597 H 160.049 -1.4098 -4.39229 0
M  V30 1598 H 158.292 -1.39167 -4.10871 0
M  V30 1599 H 158.963 -0.526815 -5.4948 0
M  V30 1600 H 161.439 0.787546 -4.08579 0
M  V30 1601 H 160.315 1.47158 -5.28806 0
M  V30 1602 H 160.576 2.31237 -3.76805 0
M  V30 1603 N 159.635 1.57281 -0.100228 0
M  V30 1604 C 160.863 1.98879 0.570509 0
M  V30 1605 C 161.278 0.979476 1.61405 0
M  V30 1606 O 160.635 -0.0302288 1.82475 0
M  V30 1607 C 160.686 3.4052 1.2136 0
M  V30 1608 O 160.407 4.37588 0.211786 0
M  V30 1609 C 161.908 3.97149 1.96945 0
M  V30 1610 H 159.128 0.653428 0.152555 0
M  V30 1611 H 161.672 2.03697 -0.18103 0
M  V30 1612 H 159.827 3.367 1.91603 0
M  V30 1613 H 160.241 5.20118 0.676607 0
M  V30 1614 H 161.715 4.98393 2.37294 0
M  V30 1615 H 162.192 3.3525 2.83733 0
M  V30 1616 H 162.798 4.04458 1.31506 0
M  V30 1617 N 161.113 -0.173488 1.56642 0
M  V30 1618 C 162.341 -0.906095 1.86004 0
M  V30 1619 C 162.756 -1.75921 0.685355 0
M  V30 1620 O 162.113 -1.79198 -0.345578 0
M  V30 1621 C 162.164 -1.78462 3.14378 0
M  V30 1622 O 161.885 -0.965914 4.27319 0
M  V30 1623 C 163.386 -2.62707 3.57071 0
M  V30 1624 H 160.606 -0.263341 0.617165 0
M  V30 1625 H 163.15 -0.174236 2.03756 0
M  V30 1626 H 161.305 -2.46984 2.98459 0
M  V30 1627 H 161.719 -1.56655 5.00559 0
M  V30 1628 H 163.193 -3.19969 4.49804 0
M  V30 1629 H 163.67 -3.37472 2.81086 0
M  V30 1630 H 164.276 -1.99521 3.75595 0
M  V30 1631 N 162.591 -1.51276 -0.441967 0
M  V30 1632 C 163.819 -1.67516 -1.21434 0
M  V30 1633 C 164.234 -0.37055 -1.85128 0
M  V30 1634 O 163.591 0.650498 -1.70513 0
M  V30 1635 C 163.642 -2.78748 -2.30177 0
M  V30 1636 O 163.363 -4.04154 -1.69089 0
M  V30 1637 C 164.864 -3.06217 -3.20541 0
M  V30 1638 H 162.084 -0.562276 -0.366178 0
M  V30 1639 H 164.628 -1.97666 -0.524244 0
M  V30 1640 H 162.783 -2.5121 -2.94911 0
M  V30 1641 H 163.197 -4.65894 -2.40922 0
M  V30 1642 H 164.671 -3.8764 -3.92987 0
M  V30 1643 H 165.148 -2.18439 -3.81026 0
M  V30 1644 H 165.754 -3.35397 -2.61513 0
M  V30 1645 N 164.069 0.697108 -1.41344 0
M  V30 1646 C 165.002 1.82134 -1.37486 0
M  V30 1647 C 165.98 1.60784 -0.242351 0
M  V30 1648 O 167.164 1.83553 -0.429012 0
M  V30 1649 C 164.291 3.18788 -1.14421 0
M  V30 1650 C 163.337 3.58932 -2.3037 0
M  V30 1651 S 164.17 3.63916 -3.92843 0
M  V30 1652 C 165.326 5.03298 -3.72078 0
M  V30 1653 H 165.559 1.85129 -2.32625 0
M  V30 1654 H 163.092 0.865671 -1.2785 0
M  V30 1655 H 165.05 3.97677 -1.018 0
M  V30 1656 H 163.711 3.13404 -0.20905 0
M  V30 1657 H 162.904 4.58202 -2.09922 0
M  V30 1658 H 162.506 2.87347 -2.39391 0
M  V30 1659 H 164.798 5.90753 -3.31688 0
M  V30 1660 H 165.741 5.28788 -4.70945 0
M  V30 1661 H 166.149 4.74764 -3.05384 0
M  V30 1662 N 165.547 1.27147 0.931209 0
M  V30 1663 C 166.958 1.12044 1.49342 0
M  V30 1664 C 167.309 -0.295795 1.93957 0
M  V30 1665 O 166.434 -1.18835 1.80852 0
M  V30 1666 C 167.029 2.02781 2.71414 0
M  V30 1667 C 165.588 1.91794 3.2387 0
M  V30 1668 C 164.735 1.95543 1.96617 0
M  V30 1669 H 167.686 1.40091 0.745672 0
M  V30 1670 H 167.707 1.58156 3.46074 0
M  V30 1671 H 167.219 3.05848 2.38911 0
M  V30 1672 H 165.32 0.916992 3.6114 0
M  V30 1673 H 165.433 2.77852 3.90302 0
M  V30 1674 H 163.797 1.39722 2.12955 0
M  V30 1675 H 164.58 3.00259 1.66432 0
M  V30 1676 N 167.025 -1.13721 1.09112 0
M  V30 1677 C 168.272 -1.84924 0.825192 0
M  V30 1678 C 168.6 -1.83347 -0.649151 0
M  V30 1679 O 167.855 -1.26449 -1.49362 0
M  V30 1680 C 168.154 -3.32861 1.30146 0
M  V30 1681 C 167.82 -3.54621 2.78486 0
M  V30 1682 C 166.482 -3.60268 3.18999 0
M  V30 1683 C 168.834 -3.62855 3.74146 0
M  V30 1684 C 166.162 -3.71679 4.53951 0
M  V30 1685 C 168.514 -3.75793 5.08883 0
M  V30 1686 C 167.178 -3.79692 5.4899 0
M  V30 1687 H 166.448 -0.676684 0.301959 0
M  V30 1688 H 169.095 -1.3428 1.36533 0
M  V30 1689 H 167.4 -3.85835 0.681064 0
M  V30 1690 H 169.097 -3.86395 1.07236 0
M  V30 1691 H 165.687 -3.50879 2.46134 0
M  V30 1692 H 169.871 -3.57775 3.43963 0
M  V30 1693 H 165.127 -3.72963 4.84467 0
M  V30 1694 H 169.301 -3.81107 5.82864 0
M  V30 1695 H 166.928 -3.88287 6.53558 0
M  V30 1696 N 168.503 -0.877838 -1.30888 0
M  V30 1697 C 169.435 -0.296607 -2.27273 0
M  V30 1698 C 170.448 0.544799 -1.53414 0
M  V30 1699 O 171.637 0.365511 -1.74718 0
M  V30 1700 C 168.737 0.597481 -3.33592 0
M  V30 1701 C 167.91 -0.213251 -4.3688 0
M  V30 1702 C 166.969 0.610208 -5.2265 0
M  V30 1703 O 165.995 0.035441 -5.69189 0
M  V30 1704 N 167.197 1.92071 -5.47804 0
M  V30 1705 H 169.962 -1.12492 -2.77787 0
M  V30 1706 H 167.523 -0.740105 -1.43993 0
M  V30 1707 H 169.515 1.15425 -3.87891 0
M  V30 1708 H 168.085 1.32647 -2.83061 0
M  V30 1709 H 167.305 -0.951466 -3.82545 0
M  V30 1710 H 168.593 -0.769262 -5.02951 0
M  V30 1711 H 167.991 2.4107 -5.11763 0
M  V30 1712 H 166.548 2.42508 -6.05007 0
M  V30 1713 N 169.982 1.44106 -0.638065 0
M  V30 1714 C 171.207 2.0685 -0.150916 0
M  V30 1715 C 171.632 1.47417 1.16833 0
M  V30 1716 O 170.99 0.578264 1.71831 0
M  V30 1717 C 171.038 3.60555 -0.05708 0
M  V30 1718 O 170.142 4.00465 0.984972 0
M  V30 1719 H 169.483 0.658151 -0.0879399 0
M  V30 1720 H 172.013 1.84865 -0.876707 0
M  V30 1721 H 172.023 4.07789 0.131232 0
M  V30 1722 H 170.698 4.03193 -1.02021 0
M  V30 1723 H 169.275 3.64849 0.770672 0
M  V30 1724 N 171.46 0.379036 1.52974 0
M  V30 1725 C 172.688 -0.20679 2.05864 0
M  V30 1726 C 173.103 -1.41356 1.25155 0
M  V30 1727 O 172.46 -1.8009 0.295588 0
M  V30 1728 C 172.511 -0.587045 3.56702 0
M  V30 1729 O 172.232 0.571776 4.34353 0
M  V30 1730 C 173.733 -1.22983 4.25899 0
M  V30 1731 H 170.953 -0.0336123 0.670158 0
M  V30 1732 H 173.497 0.541298 1.97206 0
M  V30 1733 H 171.652 -1.28504 3.65466 0
M  V30 1734 H 172.066 0.261544 5.23847 0
M  V30 1735 H 173.54 -1.44635 5.32715 0
M  V30 1736 H 174.017 -2.19416 3.80465 0
M  V30 1737 H 174.623 -0.572892 4.21424 0
M  V30 1738 N 172.938 -1.57226 0.108567 0
M  V30 1739 C 174.184 -1.95121 -0.552761 0
M  V30 1740 C 174.517 -0.991345 -1.66991 0
M  V30 1741 O 173.792 -0.0267211 -1.94482 0
M  V30 1742 C 174.075 -3.43039 -1.09528 0
M  V30 1743 C 173.928 -4.49797 0.0177332 0
M  V30 1744 C 175.247 -3.92567 -1.98945 0
M  V30 1745 H 172.366 -0.709496 -0.199461 0
M  V30 1746 H 175.008 -1.89126 0.182011 0
M  V30 1747 H 173.158 -3.48279 -1.72146 0
M  V30 1748 H 174.83 -4.56661 0.652584 0
M  V30 1749 H 173.073 -4.284 0.682309 0
M  V30 1750 H 173.744 -5.50528 -0.402919 0
M  V30 1751 H 176.22 -3.89565 -1.46214 0
M  V30 1752 H 175.096 -4.96605 -2.33827 0
M  V30 1753 H 175.357 -3.32648 -2.91201 0
M  V30 1754 N 174.416 0.165178 -1.56732 0
M  V30 1755 C 175.646 0.894919 -1.86212 0
M  V30 1756 C 176.054 1.76066 -0.692627 0
M  V30 1757 O 175.397 1.80387 0.347303 0
M  V30 1758 C 175.459 1.8174 -3.10179 0
M  V30 1759 C 175.123 1.13064 -4.42793 0
M  V30 1760 C 176.12 0.493169 -5.17556 0
M  V30 1761 C 173.805 1.12556 -4.89527 0
M  V30 1762 C 175.799 -0.140209 -6.37246 0
M  V30 1763 C 173.486 0.488366 -6.09145 0
M  V30 1764 C 174.484 -0.143411 -6.82849 0
M  V30 1765 O 174.172 -0.77055 -8.00199 0
M  V30 1766 H 173.904 0.265114 -0.621844 0
M  V30 1767 H 176.458 0.168242 -2.0471 0
M  V30 1768 H 174.688 2.58455 -2.87642 0
M  V30 1769 H 176.377 2.4175 -3.26055 0
M  V30 1770 H 177.143 0.489023 -4.82528 0
M  V30 1771 H 173.022 1.60672 -4.32094 0
M  V30 1772 H 176.566 -0.633932 -6.94714 0
M  V30 1773 H 172.463 0.490116 -6.43637 0
M  V30 1774 H 173.231 -0.670408 -8.1575 0
M  V30 1775 N 175.894 1.51508 0.433938 0
M  V30 1776 C 176.824 1.76016 1.53429 0
M  V30 1777 C 177.805 0.610112 1.58782 0
M  V30 1778 O 178.99 0.853177 1.74455 0
M  V30 1779 C 176.12 1.88831 2.9148 0
M  V30 1780 C 175.074 3.04288 3.00987 0
M  V30 1781 C 174.4 3.0229 4.4105 0
M  V30 1782 C 175.7 4.44193 2.74754 0
M  V30 1783 H 177.394 2.68152 1.33171 0
M  V30 1784 H 174.94 1.29035 0.639214 0
M  V30 1785 H 176.893 2.04559 3.6842 0
M  V30 1786 H 175.617 0.933455 3.12976 0
M  V30 1787 H 174.276 2.8827 2.26486 0
M  V30 1788 H 173.924 2.04576 4.59519 0
M  V30 1789 H 173.624 3.79822 4.4834 0
M  V30 1790 H 175.148 3.20116 5.1996 0
M  V30 1791 H 176.562 4.60544 3.41426 0
M  V30 1792 H 174.959 5.23457 2.9345 0
M  V30 1793 H 176.029 4.53996 1.70339 0
M  V30 1794 N 177.372 -0.689602 1.41712 0
M  V30 1795 C 178.305 -1.81403 1.3845 0
M  V30 1796 C 179.283 -1.60653 0.250874 0
M  V30 1797 O 180.467 -1.83323 0.43874 0
M  V30 1798 C 177.594 -3.18176 1.1611 0
M  V30 1799 C 176.64 -3.57705 2.3227 0
M  V30 1800 S 177.473 -3.61827 3.94767 0
M  V30 1801 C 178.629 -5.01318 3.74742 0
M  V30 1802 H 178.862 -1.83893 2.33603 0
M  V30 1803 H 176.395 -0.858878 1.28307 0
M  V30 1804 H 178.353 -3.97132 1.03907 0
M  V30 1805 H 177.014 -3.13288 0.225668 0
M  V30 1806 H 176.207 -4.57082 2.12349 0
M  V30 1807 H 175.809 -2.86073 2.40911 0
M  V30 1808 H 178.101 -5.88986 3.34817 0
M  V30 1809 H 179.044 -5.26283 4.73743 0
M  V30 1810 H 179.452 -4.73138 3.07898 0
M  V30 1811 N 178.85 -1.27639 -0.924453 0
M  V30 1812 C 179.798 -1.10485 -2.04685 0
M  V30 1813 C 180.792 -0.0270421 -1.69378 0
M  V30 1814 O 181.998 -0.185008 -1.79047 0
M  V30 1815 H 178.373 -0.340546 -0.670472 0
M  V30 1816 H 180.344 -2.05566 -2.16298 0
M  V30 1817 C 179.093 -0.772229 -3.39016 0
M  V30 1818 H 178.416 -1.59351 -3.66671 0
M  V30 1819 H 179.856 -0.692097 -4.18313 0
M  V30 1820 C 178.315 0.523554 -3.32807 0
M  V30 1821 O 178.845 1.55702 -3.70297 0
M  V30 1822 N 177.051 0.520363 -2.85903 0
M  V30 1823 H 176.598 -0.32107 -2.55591 0
M  V30 1824 H 176.556 1.38742 -2.82131 0
M  V30 1825 N 180.328 1.1314 -1.09713 0
M  V30 1826 C 181.553 1.88862 -0.857081 0
M  V30 1827 C 181.978 1.78729 0.586304 0
M  V30 1828 O 181.336 1.13692 1.41222 0
M  V30 1829 C 181.384 3.36325 -1.30069 0
M  V30 1830 O 180.488 4.09815 -0.461007 0
M  V30 1831 H 179.829 0.587108 -0.310162 0
M  V30 1832 H 182.359 1.43129 -1.46203 0
M  V30 1833 H 182.369 3.87157 -1.28738 0
M  V30 1834 H 181.044 3.43017 -2.35185 0
M  V30 1835 H 179.621 3.68986 -0.538888 0
M  V30 1836 N 181.806 0.884767 1.30421 0
M  V30 1837 C 183.052 0.513218 1.96819 0
M  V30 1838 C 183.407 -0.927347 1.68577 0
M  V30 1839 O 182.7 -1.64644 0.979941 0
M  V30 1840 C 182.894 0.724318 3.49983 0
M  V30 1841 C 182.723 2.18385 3.93113 0
M  V30 1842 C 181.493 2.82839 4.18725 0
M  V30 1843 C 183.691 3.15763 4.05953 0
M  V30 1844 N 181.673 4.1939 4.48314 0
M  V30 1845 C 183.044 4.37387 4.39423 0
M  V30 1846 C 185.099 3.11555 3.88379 0
M  V30 1847 C 183.802 5.55343 4.5715 0
M  V30 1848 C 185.828 4.28782 4.07308 0
M  V30 1849 C 185.19 5.49172 4.41123 0
M  V30 1850 H 181.289 0.237123 0.745182 0
M  V30 1851 H 183.873 1.14246 1.57658 0
M  V30 1852 H 182.044 0.124565 3.882 0
M  V30 1853 H 183.776 0.31969 4.03435 0
M  V30 1854 H 180.531 2.33708 4.11919 0
M  V30 1855 H 180.955 4.89911 4.67243 0
M  V30 1856 H 185.597 2.19576 3.61312 0
M  V30 1857 H 183.315 6.47826 4.8306 0
M  V30 1858 H 186.901 4.26995 3.95179 0
M  V30 1859 H 185.781 6.38371 4.55469 0
M  V30 1860 N 183.284 -1.43765 0.645699 0
M  V30 1861 C 184.695 -1.85193 0.236719 0
M  V30 1862 C 185.046 -1.54045 -1.21509 0
M  V30 1863 O 184.171 -0.985694 -1.92647 0
M  V30 1864 C 184.766 -3.36151 0.422845 0
M  V30 1865 C 183.325 -3.76338 0.0682492 0
M  V30 1866 C 182.472 -2.67538 0.729306 0
M  V30 1867 H 185.423 -1.34025 0.849883 0
M  V30 1868 H 185.444 -3.79032 -0.333904 0
M  V30 1869 H 184.956 -3.5879 1.47958 0
M  V30 1870 H 183.057 -3.59312 -0.986179 0
M  V30 1871 H 183.17 -4.76603 0.488469 0
M  V30 1872 H 181.534 -2.54176 0.163235 0
M  V30 1873 H 182.317 -2.93006 1.78892 0
M  V30 1874 N 184.763 -0.387143 -1.52771 0
M  V30 1875 C 186.01 0.195735 -2.01552 0
M  V30 1876 C 186.338 1.46995 -1.27369 0
M  V30 1877 O 185.593 1.92325 -0.361879 0
M  V30 1878 C 185.892 0.512209 -3.53711 0
M  V30 1879 C 185.558 -0.670202 -4.45891 0
M  V30 1880 C 184.22 -0.994586 -4.70809 0
M  V30 1881 C 186.572 -1.46134 -5.00294 0
M  V30 1882 C 183.9 -2.11169 -5.4738 0
M  V30 1883 C 186.252 -2.56903 -5.78086 0
M  V30 1884 C 184.916 -2.89852 -6.01284 0
M  V30 1885 H 184.186 0.0716246 -0.73753 0
M  V30 1886 H 186.833 -0.524046 -1.8419 0
M  V30 1887 H 185.138 1.31329 -3.69134 0
M  V30 1888 H 186.835 0.975804 -3.88946 0
M  V30 1889 H 183.425 -0.407366 -4.2666 0
M  V30 1890 H 187.609 -1.22397 -4.80971 0
M  V30 1891 H 182.865 -2.3707 -5.63567 0
M  V30 1892 H 187.039 -3.18608 -6.19243 0
M  V30 1893 H 184.666 -3.76533 -6.60399 0
M  V30 1894 N 186.241 1.57166 -0.116904 0
M  V30 1895 C 187.489 1.94737 0.540533 0
M  V30 1896 C 187.81 1.00096 1.67349 0
M  V30 1897 O 187.08 0.0568854 1.95817 0
M  V30 1898 H 185.66 0.718981 0.202669 0
M  V30 1899 H 188.322 1.94017 -0.185353 0
M  V30 1900 H 187.418 2.97719 0.936483 0
M  V30 1901 N 187.719 -0.156864 1.56817 0
M  V30 1902 C 188.996 -0.899244 1.73704 0
M  V30 1903 C 189.376 -1.99771 0.682254 0
M  V30 1904 O 188.724 -2.26515 -0.300522 0
M  V30 1905 C 188.934 -1.45075 3.17418 0
M  V30 1906 C 190.282 -1.91802 3.7881 0
M  V30 1907 O 191.306 -1.54838 3.20786 0
M  V30 1908 O 190.165 -2.5994 4.80722 0
M  V30 1909 H 187.259 -0.424267 0.709878 0
M  V30 1910 H 189.805 -0.143561 1.69092 0
M  V30 1911 H 188.577 -0.660846 3.85679 0
M  V30 1912 H 188.2 -2.27021 3.26416 0
M  V30 1913 N 189.197 -1.51736 -0.425897 0
M  V30 1914 C 190.443 -1.65214 -1.1761 0
M  V30 1915 C 190.776 -0.372778 -1.90589 0
M  V30 1916 O 190.051 0.628139 -1.84078 0
M  V30 1917 C 190.334 -2.86312 -2.18398 0
M  V30 1918 C 190.187 -4.24254 -1.49426 0
M  V30 1919 C 191.506 -3.02925 -3.19256 0
M  V30 1920 H 188.625 -0.601263 -0.426206 0
M  V30 1921 H 191.267 -1.8425 -0.463882 0
M  V30 1922 H 189.417 -2.70213 -2.79137 0
M  V30 1923 H 191.089 -4.52046 -0.919362 0
M  V30 1924 H 189.332 -4.26426 -0.796432 0
M  V30 1925 H 190.003 -5.05001 -2.22885 0
M  V30 1926 H 192.479 -3.1781 -2.68581 0
M  V30 1927 H 191.355 -3.89199 -3.8706 0
M  V30 1928 H 191.616 -2.15497 -3.86023 0
M  V30 1929 N 190.675 0.682077 -1.42076 0
M  V30 1930 C 191.605 1.80796 -1.47767 0
M  V30 1931 C 192.586 1.6677 -0.334954 0
M  V30 1932 O 193.771 1.863 -0.548264 0
M  V30 1933 C 190.901 3.19038 -1.37229 0
M  V30 1934 C 189.855 3.47789 -2.49453 0
M  V30 1935 C 189.181 4.8553 -2.23975 0
M  V30 1936 C 190.481 3.45411 -3.91776 0
M  V30 1937 H 192.175 1.7629 -2.41997 0
M  V30 1938 H 189.721 0.846721 -1.16476 0
M  V30 1939 H 191.674 3.97528 -1.39821 0
M  V30 1940 H 190.398 3.24204 -0.394907 0
M  V30 1941 H 189.057 2.71657 -2.46166 0
M  V30 1942 H 188.705 4.87337 -1.24547 0
M  V30 1943 H 188.405 5.0573 -2.99184 0
M  V30 1944 H 189.929 5.66312 -2.28304 0
M  V30 1945 H 191.343 4.13882 -3.96705 0
M  V30 1946 H 189.74 3.77145 -4.66778 0
M  V30 1947 H 190.81 2.44122 -4.18966 0
M  V30 1948 N 192.153 1.28127 0.917671 0
M  V30 1949 C 193.393 1.163 1.68088 0
M  V30 1950 C 193.757 -0.284515 1.8988 0
M  V30 1951 O 194.958 -0.525413 2.63615 0
M  V30 1952 C 193.229 1.93546 3.00457 0
M  V30 1953 S 194.788 1.98048 3.91564 0
M  V30 1954 H 191.606 0.415005 0.577315 0
M  V30 1955 H 194.208 1.62173 1.09179 0
M  V30 1956 H 192.912 2.97888 2.82295 0
M  V30 1957 H 192.443 1.48207 3.64415 0
M  V30 1958 H 194.458 1.08415 4.84211 0
M  V30 1959 N 193.631 -1.12557 1.10312 0
M  V30 1960 C 194.578 -2.18247 0.750781 0
M  V30 1961 C 195.548 -1.63853 -0.272293 0
M  V30 1962 O 196.733 -1.90195 -0.151862 0
M  V30 1963 C 193.873 -3.44591 0.187379 0
M  V30 1964 C 192.986 -4.13046 1.2656 0
M  V30 1965 C 192.121 -5.27034 0.663978 0
M  V30 1966 C 191.16 -5.87353 1.72287 0
M  V30 1967 N 190.297 -6.92757 1.1416 0
M  V30 1968 H 195.137 -2.47732 1.65628 0
M  V30 1969 H 192.674 -1.21629 0.827337 0
M  V30 1970 H 194.632 -4.16904 -0.157148 0
M  V30 1971 H 193.262 -3.15527 -0.681355 0
M  V30 1972 H 192.314 -3.38924 1.72727 0
M  V30 1973 H 193.626 -4.53947 2.06721 0
M  V30 1974 H 192.78 -6.06104 0.268824 0
M  V30 1975 H 191.519 -4.87407 -0.169082 0
M  V30 1976 H 190.524 -5.06971 2.12746 0
M  V30 1977 H 191.749 -6.29051 2.55875 0
M  V30 1978 H 189.695 -6.5517 0.329984 0
M  V30 1979 H 189.612 -7.3225 1.88007 0
M  V30 1980 H 190.88 -7.75658 0.772956 0
M  V30 1981 N 195.109 -0.891671 -1.2995 0
M  V30 1982 C 196.358 -0.509521 -1.95158 0
M  V30 1983 C 196.671 0.947388 -1.71125 0
M  V30 1984 O 197.877 1.43669 -2.30372 0
M  V30 1985 C 196.333 -0.860315 -3.49466 0
M  V30 1986 C 195.941 -2.33545 -3.8231 0
M  V30 1987 C 197.685 -0.547687 -4.20952 0
M  V30 1988 C 195.592 -2.62752 -5.29826 0
M  V30 1989 H 194.522 -0.18682 -0.730489 0
M  V30 1990 H 197.173 -1.08756 -1.47798 0
M  V30 1991 H 195.555 -0.211285 -3.95436 0
M  V30 1992 H 196.729 -3.02936 -3.47227 0
M  V30 1993 H 195.044 -2.61629 -3.23944 0
M  V30 1994 H 197.641 -0.742854 -5.29515 0
M  V30 1995 H 197.984 0.51332 -4.13123 0
M  V30 1996 H 198.517 -1.1542 -3.80688 0
M  V30 1997 H 195.256 -3.6762 -5.42712 0
M  V30 1998 H 194.776 -1.97977 -5.66185 0
M  V30 1999 H 196.455 -2.48601 -5.97333 0
M  V30 2000 N 196.587 1.43421 -0.653314 0
M  V30 2001 C 197.833 2.02111 -0.166992 0
M  V30 2002 C 198.166 1.51423 1.21592 0
M  V30 2003 O 197.441 0.707389 1.8118 0
M  V30 2004 C 197.724 3.5966 -0.177948 0
M  V30 2005 C 197.577 4.20579 -1.59478 0
M  V30 2006 C 198.896 4.37413 0.4856 0
M  V30 2007 H 196.015 0.734374 -0.0621557 0
M  V30 2008 H 198.657 1.70717 -0.834016 0
M  V30 2009 H 196.807 3.86537 0.390032 0
M  V30 2010 H 198.479 4.04732 -2.21336 0
M  V30 2011 H 196.722 3.77226 -2.14204 0
M  V30 2012 H 197.393 5.29665 -1.5543 0
M  V30 2013 H 199.869 4.161 0.00234528 0
M  V30 2014 H 198.745 5.47075 0.447207 0
M  V30 2015 H 199.006 4.13672 1.55974 0
M  V30 2016 N 198.065 0.39524 1.52563 0
M  V30 2017 C 199.314 -0.186321 2.00838 0
M  V30 2018 C 199.627 -1.47402 1.28577 0
M  V30 2019 O 200.833 -2.13599 1.67593 0
M  V30 2020 C 199.289 -0.382595 3.57861 0
M  V30 2021 C 198.897 0.892202 4.39026 0
M  V30 2022 C 200.641 -0.9202 4.14406 0
M  V30 2023 C 198.548 0.66388 5.87662 0
M  V30 2024 H 197.478 -0.0734041 0.750418 0
M  V30 2025 H 200.129 0.518552 1.76021 0
M  V30 2026 H 198.511 -1.14946 3.7895 0
M  V30 2027 H 199.685 1.66414 4.29701 0
M  V30 2028 H 198 1.35519 3.9373 0
M  V30 2029 H 200.597 -1.10683 5.23119 0
M  V30 2030 H 200.94 -1.89096 3.70875 0
M  V30 2031 H 201.473 -0.212751 3.97231 0
M  V30 2032 H 198.212 1.6058 6.35527 0
M  V30 2033 H 197.732 -0.0690193 5.9976 0
M  V30 2034 H 199.411 0.300699 6.46301 0
M  V30 2035 N 199.544 -1.57102 0.125237 0
M  V30 2036 C 200.769 -2.0019 -0.542101 0
M  V30 2037 C 201.194 -1.00449 -1.59034 0
M  V30 2038 O 200.552 0.0229423 -1.81285 0
M  V30 2039 C 200.6 -3.42129 -1.13929 0
M  V30 2040 O 199.704 -3.45307 -2.2547 0
M  V30 2041 H 199.045 -0.650171 -0.134812 0
M  V30 2042 H 201.575 -2.03461 0.215553 0
M  V30 2043 H 201.585 -3.80471 -1.4733 0
M  V30 2044 H 200.26 -4.14237 -0.371531 0
M  V30 2045 H 198.837 -3.1879 -1.93462 0
M  V30 2046 N 201.022 0.148545 -1.56898 0
M  V30 2047 C 202.271 0.85984 -1.82454 0
M  V30 2048 C 202.584 1.82406 -0.706229 0
M  V30 2049 O 203.79 2.57938 -0.847349 0
M  V30 2050 C 202.246 1.57967 -3.2338 0
M  V30 2051 C 201.854 0.65794 -4.43142 0
M  V30 2052 C 203.598 2.27784 -3.58211 0
M  V30 2053 C 201.505 1.3793 -5.75091 0
M  V30 2054 H 200.435 0.324834 -0.68044 0
M  V30 2055 H 203.086 0.112588 -1.83154 0
M  V30 2056 H 201.468 2.37249 -3.17063 0
M  V30 2057 H 202.642 -0.0995497 -4.60692 0
M  V30 2058 H 200.957 0.0682643 -4.16344 0
M  V30 2059 H 203.554 2.8239 -4.54048 0
M  V30 2060 H 203.897 3.04204 -2.84193 0
M  V30 2061 H 204.43 1.55421 -3.66182 0
M  V30 2062 H 201.169 0.656982 -6.52199 0
M  V30 2063 H 200.689 2.10954 -5.61479 0
M  V30 2064 H 202.368 1.92063 -6.17835 0
M  V30 2065 N 202.5 1.5196 0.417844 0
M  V30 2066 C 203.777 1.56146 1.17803 0
M  V30 2067 C 204.157 0.337275 2.08388 0
M  V30 2068 O 203.505 -0.676447 2.18258 0
M  V30 2069 C 203.715 2.88566 1.96293 0
M  V30 2070 C 205.063 3.41244 2.52662 0
M  V30 2071 O 206.087 2.90247 2.06483 0
M  V30 2072 O 204.946 4.30273 3.36938 0
M  V30 2073 H 202.04 0.628598 0.537395 0
M  V30 2074 H 204.586 1.64283 0.425331 0
M  V30 2075 H 203.358 3.69116 1.2988 0
M  V30 2076 H 202.981 2.83681 2.78587 0
M  V30 2077 N 203.978 -0.674533 1.42435 0
M  V30 2078 C 205.208 -1.46071 1.46105 0
M  V30 2079 C 205.616 -1.89067 0.0709605 0
M  V30 2080 O 204.959 -1.58731 -0.924677 0
M  V30 2081 C 205.021 -2.74145 2.32561 0
M  V30 2082 C 204.685 -2.53224 3.8043 0
M  V30 2083 C 205.682 -2.17809 4.72075 0
M  V30 2084 C 203.367 -2.6821 4.24698 0
M  V30 2085 C 205.361 -1.97648 6.05982 0
M  V30 2086 C 203.048 -2.47665 5.58664 0
M  V30 2087 C 204.046 -2.12437 6.49122 0
M  V30 2088 O 203.734 -1.9209 7.80613 0
M  V30 2089 H 203.466 -0.455959 0.499076 0
M  V30 2090 H 206.02 -0.836193 1.87609 0
M  V30 2091 H 204.25 -3.3908 1.85908 0
M  V30 2092 H 205.939 -3.36028 2.27683 0
M  V30 2093 H 206.705 -2.05826 4.39159 0
M  V30 2094 H 202.584 -2.94609 3.54579 0
M  V30 2095 H 206.128 -1.70075 6.7655 0
M  V30 2096 H 202.025 -2.59244 5.91154 0
M  V30 2097 H 202.793 -2.06686 7.91974 0
M  V30 2098 N 205.456 -1.28612 -0.910864 0
M  V30 2099 C 206.686 -1.1862 -1.69153 0
M  V30 2100 C 207.094 0.257324 -1.87442 0
M  V30 2101 O 206.437 1.18543 -1.40332 0
M  V30 2102 C 206.499 -1.81606 -3.10257 0
M  V30 2103 C 206.163 -3.30864 -3.15243 0
M  V30 2104 C 207.16 -4.27256 -2.96223 0
M  V30 2105 C 204.845 -3.71871 -3.37664 0
M  V30 2106 C 206.839 -5.62631 -2.99541 0
M  V30 2107 C 204.526 -5.07371 -3.40614 0
M  V30 2108 C 205.524 -6.02561 -3.21573 0
M  V30 2109 O 205.212 -7.35589 -3.2429 0
M  V30 2110 H 204.944 -0.412633 -0.535453 0
M  V30 2111 H 207.498 -1.70306 -1.14827 0
M  V30 2112 H 205.728 -1.24418 -3.66138 0
M  V30 2113 H 207.417 -1.66092 -3.70362 0
M  V30 2114 H 208.183 -3.9691 -2.78725 0
M  V30 2115 H 204.062 -2.98241 -3.5153 0
M  V30 2116 H 207.606 -6.36907 -2.84597 0
M  V30 2117 H 203.503 -5.37366 -3.57642 0
M  V30 2118 H 204.271 -7.44252 -3.40633 0
M  V30 2119 N 206.934 1.1197 -1.10907 0
M  V30 2120 C 207.882 2.19927 -0.757303 0
M  V30 2121 C 208.876 1.67564 0.248747 0
M  V30 2122 O 210.082 1.79672 0.108605 0
M  V30 2123 H 206.457 0.716925 -0.226987 0
M  V30 2124 H 208.428 2.46847 -1.67658 0
M  V30 2125 C 207.177 3.47061 -0.210671 0
M  V30 2126 H 206.5 3.87703 -0.976049 0
M  V30 2127 H 207.94 4.24 -0.0026584 0
M  V30 2128 C 206.399 3.19864 1.05777 0
M  V30 2129 O 206.929 3.40049 2.13845 0
M  V30 2130 N 205.135 2.73636 0.978349 0
M  V30 2131 H 204.682 2.5741 0.0988246 0
M  V30 2132 H 204.64 2.55815 1.82773 0
M  V30 2133 N 208.412 0.89855 1.29475 0
M  V30 2134 C 209.345 0.319981 2.25945 0
M  V30 2135 C 210.323 -0.567189 1.52387 0
M  V30 2136 O 211.507 -0.514254 1.8135 0
M  V30 2137 C 208.634 -0.544013 3.34303 0
M  V30 2138 C 207.68 0.275682 4.25608 0
M  V30 2139 S 208.513 1.67272 5.08704 0
M  V30 2140 C 209.669 0.815621 6.20563 0
M  V30 2141 H 209.902 1.13767 2.74671 0
M  V30 2142 H 207.435 0.69882 1.3768 0
M  V30 2143 H 209.393 -1.03673 3.97193 0
M  V30 2144 H 208.054 -1.33593 2.84274 0
M  V30 2145 H 207.247 -0.384263 5.02533 0
M  V30 2146 H 206.849 0.701496 3.67362 0
M  V30 2147 H 209.141 0.0385042 6.77489 0
M  V30 2148 H 210.084 1.55691 6.90772 0
M  V30 2149 H 210.492 0.370516 5.63283 0
M  V30 2150 N 209.89 -1.43072 0.660911 0
M  V30 2151 C 211.137 -2.01721 0.177445 0
M  V30 2152 C 211.465 -1.5218 -1.21126 0
M  V30 2153 O 210.72 -0.708659 -1.82419 0
M  V30 2154 C 211.019 -3.57103 0.145563 0
M  V30 2155 C 210.685 -4.26021 1.47705 0
M  V30 2156 C 209.347 -4.44563 1.84165 0
M  V30 2157 C 211.699 -4.64983 2.35458 0
M  V30 2158 C 209.027 -4.99334 3.0803 0
M  V30 2159 C 211.379 -5.21127 3.58622 0
M  V30 2160 C 210.043 -5.37884 3.95268 0
M  V30 2161 H 209.313 -0.73815 0.0649317 0
M  V30 2162 H 211.96 -1.71446 0.853144 0
M  V30 2163 H 210.265 -3.86965 -0.61361 0
M  V30 2164 H 211.962 -4.00248 -0.2455 0
M  V30 2165 H 208.552 -4.11939 1.18339 0
M  V30 2166 H 212.736 -4.50343 2.08579 0
M  V30 2167 H 207.992 -5.10493 3.36462 0
M  V30 2168 H 212.166 -5.50262 4.26831 0
M  V30 2169 H 209.793 -5.80089 4.91325 0
M  V30 2170 N 211.368 -0.403325 -1.52352 0
M  V30 2171 C 212.596 0.174012 -2.06167 0
M  V30 2172 C 213.011 1.39347 -1.27388 0
M  V30 2173 O 212.368 1.79597 -0.324201 0
M  V30 2174 C 212.419 0.530223 -3.5759 0
M  V30 2175 O 212.14 -0.640806 -4.33388 0
M  V30 2176 C 213.641 1.16192 -4.27802 0
M  V30 2177 H 210.861 0.0229464 -0.670608 0
M  V30 2178 H 213.405 -0.572604 -1.9632 0
M  V30 2179 H 211.56 1.22673 -3.67464 0
M  V30 2180 H 211.974 -0.344851 -5.23365 0
M  V30 2181 H 213.448 1.36141 -5.34948 0
M  V30 2182 H 213.925 2.13335 -3.83907 0
M  V30 2183 H 214.531 0.505775 -4.22282 0
M  V30 2184 N 212.846 1.57033 -0.133567 0
M  V30 2185 C 214.071 2.00475 0.531477 0
M  V30 2186 C 214.496 1.01291 1.58499 0
M  V30 2187 O 213.854 -0.0133279 1.81295 0
M  V30 2188 C 213.902 3.42729 1.12113 0
M  V30 2189 O 213.006 3.46498 2.23636 0
M  V30 2190 H 212.347 0.650876 0.131362 0
M  V30 2191 H 214.877 2.03344 -0.22634 0
M  V30 2192 H 214.887 3.81246 1.4531 0
M  V30 2193 H 213.562 4.14428 0.349557 0
M  V30 2194 H 212.139 3.19811 1.91769 0
M  V30 2195 N 214.325 -0.140222 1.56975 0
M  V30 2196 C 215.574 -0.850152 1.82908 0
M  V30 2197 C 215.887 -1.82028 0.715892 0
M  V30 2198 O 217.093 -2.57485 0.861016 0
M  V30 2199 C 215.549 -1.5625 3.24213 0
M  V30 2200 C 215.157 -0.63443 4.43485 0
M  V30 2201 C 216.901 -2.25881 3.59413 0
M  V30 2202 C 214.808 -1.34879 5.75814 0
M  V30 2203 H 213.738 -0.321221 0.682153 0
M  V30 2204 H 216.389 -0.102874 1.83211 0
M  V30 2205 H 214.771 -2.35565 3.18316 0
M  V30 2206 H 215.945 0.12398 4.60633 0
M  V30 2207 H 214.26 -0.0461836 4.16374 0
M  V30 2208 H 216.857 -2.79978 4.5554 0
M  V30 2209 H 217.2 -3.02693 2.85802 0
M  V30 2210 H 217.733 -1.53477 3.67001 0
M  V30 2211 H 214.472 -0.622385 6.52539 0
M  V30 2212 H 213.992 -2.07974 5.6259 0
M  V30 2213 H 215.671 -1.88784 6.18845 0
M  V30 2214 N 215.803 -1.52179 -0.40978 0
M  V30 2215 C 217.05 -1.66206 -1.15679 0
M  V30 2216 C 217.378 -0.391674 -1.90516 0
M  V30 2217 O 216.633 0.62533 -1.8544 0
M  V30 2218 C 216.932 -2.83428 -2.17723 0
M  V30 2219 C 216.598 -4.21672 -1.59699 0
M  V30 2220 C 215.26 -4.59274 -1.43599 0
M  V30 2221 C 217.612 -5.07825 -1.17317 0
M  V30 2222 C 214.94 -5.80709 -0.836328 0
M  V30 2223 C 217.292 -6.29864 -0.587691 0
M  V30 2224 C 215.956 -6.66216 -0.413818 0
M  V30 2225 H 215.226 -0.608192 -0.423301 0
M  V30 2226 H 217.873 -1.86279 -0.444097 0
M  V30 2227 H 216.178 -2.57687 -2.95135 0
M  V30 2228 H 217.875 -2.91477 -2.75394 0
M  V30 2229 H 214.465 -3.9204 -1.73213 0
M  V30 2230 H 218.649 -4.79359 -1.28565 0
M  V30 2231 H 213.905 -6.07498 -0.689626 0
M  V30 2232 H 218.079 -6.95948 -0.250894 0
M  V30 2233 H 215.706 -7.60182 0.0529471 0
M  V30 2234 N 217.281 0.66697 -1.42791 0
M  V30 2235 C 218.509 1.45505 -1.47091 0
M  V30 2236 C 218.924 1.8861 -0.0845873 0
M  V30 2237 O 218.281 1.58632 0.90234 0
M  V30 2238 C 218.332 2.69906 -2.40485 0
M  V30 2239 O 218.053 2.28608 -3.73725 0
M  V30 2240 C 219.554 3.63396 -2.53886 0
M  V30 2241 H 216.774 0.447459 -0.500022 0
M  V30 2242 H 219.318 0.818866 -1.8739 0
M  V30 2243 H 217.473 3.29696 -2.03419 0
M  V30 2244 H 217.887 3.08997 -4.23817 0
M  V30 2245 H 219.361 4.47387 -3.2334 0
M  V30 2246 H 219.838 4.09824 -1.57927 0
M  V30 2247 H 220.444 3.09495 -2.91706 0
M  V30 2248 N 218.759 1.29093 0.90403 0
M  V30 2249 C 219.689 1.16401 2.02418 0
M  V30 2250 C 220.67 0.0593085 1.69997 0
M  V30 2251 O 221.855 0.238021 1.92736 0
M  V30 2252 C 218.985 0.835233 3.37107 0
M  V30 2253 C 217.939 1.89578 3.83724 0
M  V30 2254 C 217.265 1.42041 5.15489 0
M  V30 2255 C 218.565 3.30394 4.04521 0
M  V30 2256 H 220.259 2.10109 2.13295 0
M  V30 2257 H 217.805 1.01157 1.02486 0
M  V30 2258 H 219.758 0.733169 4.14973 0
M  V30 2259 H 218.482 -0.137543 3.2631 0
M  V30 2260 H 217.141 1.98715 3.08071 0
M  V30 2261 H 216.789 0.436426 5.01103 0
M  V30 2262 H 216.489 2.12964 5.4765 0
M  V30 2263 H 218.013 1.33176 5.959 0
M  V30 2264 H 219.427 3.24123 4.72882 0
M  V30 2265 H 217.824 3.99237 4.48029 0
M  V30 2266 H 218.894 3.73692 3.09002 0
M  V30 2267 N 220.237 -1.11381 1.11499 0
M  V30 2268 C 221.465 -1.86934 0.88675 0
M  V30 2269 C 221.88 -1.80195 -0.563476 0
M  V30 2270 O 221.237 -1.18367 -1.38908 0
M  V30 2271 C 221.288 -3.35722 1.34064 0
M  V30 2272 O 221.009 -3.4232 2.73401 0
M  V30 2273 C 222.51 -4.2818 1.14791 0
M  V30 2274 H 219.73 -0.591117 0.317523 0
M  V30 2275 H 222.274 -1.40865 1.48248 0
M  V30 2276 H 220.429 -3.79294 0.788355 0
M  V30 2277 H 220.843 -4.34971 2.93087 0
M  V30 2278 H 222.317 -5.30817 1.5145 0
M  V30 2279 H 222.794 -4.39113 0.0875279 0
M  V30 2280 H 223.4 -3.90402 1.68721 0
M  V30 2281 N 221.715 -0.905404 -1.28997 0
M  V30 2282 C 222.648 -0.331959 -2.25773 0
M  V30 2283 C 223.626 0.559099 -1.52685 0
M  V30 2284 O 224.81 0.50463 -1.8162 0
M  V30 2285 C 221.937 0.526276 -3.34586 0
M  V30 2286 C 220.983 -0.298249 -4.25456 0
M  V30 2287 S 221.816 -1.69968 -5.0781 0
M  V30 2288 C 222.972 -0.848519 -6.20122 0
M  V30 2289 H 223.205 -1.15222 -2.74064 0
M  V30 2290 H 220.738 -0.706112 -1.37308 0
M  V30 2291 H 222.696 1.01565 -3.97737 0
M  V30 2292 H 221.357 1.32084 -2.84978 0
M  V30 2293 H 220.55 0.357607 -5.0273 0
M  V30 2294 H 220.152 -0.720968 -3.66985 0
M  V30 2295 H 222.444 -0.0744325 -6.77459 0
M  V30 2296 H 223.387 -1.59353 -6.89937 0
M  V30 2297 H 223.795 -0.400383 -5.63078 0
M  V30 2298 N 223.193 1.4272 -0.668489 0
M  V30 2299 C 224.126 2.28111 0.0637898 0
M  V30 2300 C 225.104 1.40705 0.814912 0
M  V30 2301 O 226.288 1.70146 0.81134 0
M  V30 2302 C 223.415 3.20429 1.0974 0
M  V30 2303 C 222.461 4.24197 0.442579 0
M  V30 2304 S 223.294 5.29563 -0.795173 0
M  V30 2305 C 224.45 6.25449 0.237516 0
M  V30 2306 H 224.683 2.8987 -0.660521 0
M  V30 2307 H 222.216 1.47456 -0.457821 0
M  V30 2308 H 224.174 3.74158 1.68868 0
M  V30 2309 H 222.835 2.57818 1.79411 0
M  V30 2310 H 222.028 4.88954 1.22227 0
M  V30 2311 H 221.63 3.73925 -0.0749554 0
M  V30 2312 H 223.922 6.68524 1.09915 0
M  V30 2313 H 224.865 7.07104 -0.375421 0
M  V30 2314 H 225.273 5.61511 0.580167 0
M  V30 2315 N 224.671 0.411399 1.52136 0
M  V30 2316 C 225.896 -0.165538 2.06738 0
M  V30 2317 C 226.321 -1.379 1.27926 0
M  V30 2318 O 225.679 -1.78628 0.310114 0
M  V30 2319 C 225.727 -0.492124 3.57226 0
M  V30 2320 O 224.831 -1.58276 3.80818 0
M  V30 2321 H 224.172 -0.0132132 0.663869 0
M  V30 2322 H 226.702 0.585253 1.96051 0
M  V30 2323 H 226.712 -0.750104 4.01045 0
M  V30 2324 H 225.387 0.394922 4.14021 0
M  V30 2325 H 223.964 -1.31677 3.48877 0
M  V30 2326 N 226.149 -1.5696 0.141893 0
M  V30 2327 C 227.395 -1.9625 -0.511248 0
M  V30 2328 C 227.728 -1.02654 -1.64851 0
M  V30 2329 O 227.003 -0.0679676 -1.94381 0
M  V30 2330 C 227.286 -3.45285 -1.02227 0
M  V30 2331 C 227.139 -4.49658 0.113138 0
M  V30 2332 C 228.458 -3.96698 -1.90574 0
M  V30 2333 H 225.577 -0.713567 -0.184367 0
M  V30 2334 H 228.219 -1.88698 0.222087 0
M  V30 2335 H 226.369 -3.51852 -1.64719 0
M  V30 2336 H 228.041 -4.55174 0.749302 0
M  V30 2337 H 226.284 -4.26857 0.773026 0
M  V30 2338 H 226.955 -5.51258 -0.286053 0
M  V30 2339 H 229.431 -3.92578 -1.37918 0
M  V30 2340 H 228.307 -5.01453 -2.2324 0
M  V30 2341 H 228.568 -3.3875 -2.84079 0
M  V30 2342 N 227.627 0.131896 -1.57047 0
M  V30 2343 C 228.904 0.871495 -1.75112 0
M  V30 2344 C 229.284 1.9866 -0.713949 0
M  V30 2345 O 228.632 2.26965 0.264447 0
M  V30 2346 C 228.842 1.40007 -3.19686 0
M  V30 2347 C 230.19 1.85752 -3.81813 0
M  V30 2348 O 231.214 1.49715 -3.23209 0
M  V30 2349 O 230.073 2.5226 -4.84796 0
M  V30 2350 H 227.167 0.412919 -0.716538 0
M  V30 2351 H 229.713 0.116641 -1.69299 0
M  V30 2352 H 228.485 0.599404 -3.86682 0
M  V30 2353 H 228.108 2.218 -3.29986 0
M  V30 2354 N 229.106 1.52395 0.401703 0
M  V30 2355 C 230.522 1.41363 0.740864 0
M  V30 2356 C 230.722 0.523982 1.94568 0
M  V30 2357 O 229.778 -0.00741204 2.52499 0
M  V30 2358 C 231.091 2.84011 0.987847 0
M  V30 2359 C 232.639 2.93404 1.09011 0
M  V30 2360 C 233.114 4.37036 1.3698 0
M  V30 2361 N 234.605 4.40304 1.43829 0
M  V30 2362 C 235.34 5.48508 1.67112 0
M  V30 2363 N 234.836 6.66819 1.87949 0
M  V30 2364 N 236.629 5.36034 1.69187 0
M  V30 2365 H 228.78 2.08765 -0.391262 0
M  V30 2366 H 231.043 0.941265 -0.112798 0
M  V30 2367 H 230.749 3.51265 0.174835 0
M  V30 2368 H 230.623 3.25502 1.906 0
M  V30 2369 H 233.01 2.26325 1.8937 0
M  V30 2370 H 233.091 2.55359 0.15015 0
M  V30 2371 H 232.735 5.04676 0.571353 0
M  V30 2372 H 232.665 4.72623 2.3224 0
M  V30 2373 H 235.156 3.55024 1.29486 0
M  V30 2374 H 235.469 7.45063 2.05185 0
M  V30 2375 H 233.814 6.6987 1.85199 0
M  V30 2376 H 237.005 4.42579 1.52451 0
M  V30 2377 H 237.178 6.20434 1.86993 0
M  V30 2378 N 230.584 -0.659388 1.43143 0
M  V30 2379 C 231.814 -1.44513 1.47646 0
M  V30 2380 C 232.222 -1.88981 0.0910095 0
M  V30 2381 O 231.565 -1.59702 -0.907789 0
M  V30 2382 C 231.627 -2.71663 2.35456 0
M  V30 2383 C 231.291 -2.49175 3.83094 0
M  V30 2384 C 232.288 -2.1279 4.74359 0
M  V30 2385 C 229.973 -2.63691 4.27519 0
M  V30 2386 C 231.967 -1.9121 6.08044 0
M  V30 2387 C 229.654 -2.41726 5.61259 0
M  V30 2388 C 230.652 -2.0554 6.51339 0
M  V30 2389 O 230.34 -1.838 7.82606 0
M  V30 2390 H 230.072 -0.45064 0.503884 0
M  V30 2391 H 232.626 -0.816248 1.88485 0
M  V30 2392 H 230.856 -3.37089 1.89493 0
M  V30 2393 H 232.545 -3.33595 2.31235 0
M  V30 2394 H 233.311 -2.01157 4.41317 0
M  V30 2395 H 229.19 -2.90832 3.57684 0
M  V30 2396 H 232.734 -1.62889 6.78316 0
M  V30 2397 H 228.631 -2.52959 5.9387 0
M  V30 2398 H 229.399 -1.98275 7.94122 0
M  V30 2399 N 232.062 -1.29571 -0.897171 0
M  V30 2400 C 233.311 -1.1706 -1.64256 0
M  V30 2401 C 233.624 0.276476 -1.93636 0
M  V30 2402 O 234.83 0.52294 -2.66416 0
M  V30 2403 C 233.286 -2.0475 -2.95982 0
M  V30 2404 C 232.894 -3.54295 -2.74187 0
M  V30 2405 C 234.638 -2.0097 -3.73914 0
M  V30 2406 C 232.545 -4.34081 -4.01656 0
M  V30 2407 H 231.475 -0.43452 -0.616205 0
M  V30 2408 H 234.126 -1.54229 -0.994268 0
M  V30 2409 H 232.508 -1.60452 -3.62038 0
M  V30 2410 H 233.682 -4.06662 -2.1671 0
M  V30 2411 H 231.997 -3.59773 -2.09648 0
M  V30 2412 H 234.594 -2.57838 -4.68427 0
M  V30 2413 H 234.937 -0.990273 -4.0435 0
M  V30 2414 H 235.47 -2.43325 -3.14703 0
M  V30 2415 H 232.209 -5.36671 -3.76384 0
M  V30 2416 H 231.729 -3.86483 -4.58684 0
M  V30 2417 H 233.408 -4.44877 -4.69781 0
M  V30 2418 N 233.54 1.10788 -1.12088 0
M  V30 2419 C 234.503 2.15207 -0.788577 0
M  V30 2420 C 235.503 1.59609 0.195317 0
M  V30 2421 O 236.693 1.74174 -0.0300193 0
M  V30 2422 C 233.825 3.4047 -0.171174 0
M  V30 2423 H 235.018 2.46116 -1.71368 0
M  V30 2424 H 232.571 1.26089 -0.923652 0
M  V30 2425 H 233.306 3.15176 0.763832 0
M  V30 2426 H 233.091 3.82109 -0.879514 0
M  V30 2427 H 234.581 4.17576 0.04496 0
M  V30 2428 N 235.018 0.912232 1.28515 0
M  V30 2429 C 236.264 0.545405 1.95328 0
M  V30 2430 C 236.597 -0.908313 1.71649 0
M  V30 2431 O 235.872 -1.64575 1.03659 0
M  V30 2432 C 236.155 0.853483 3.4984 0
M  V30 2433 C 236.008 2.35982 3.82926 0
M  V30 2434 C 237.327 0.348589 4.38717 0
M  V30 2435 H 234.446 0.199626 0.709449 0
M  V30 2436 H 237.088 1.1412 1.5191 0
M  V30 2437 H 235.238 0.34643 3.86952 0
M  V30 2438 H 236.91 2.93738 3.55691 0
M  V30 2439 H 235.153 2.81543 3.30024 0
M  V30 2440 H 235.824 2.52593 4.90816 0
M  V30 2441 H 238.3 0.78294 4.08668 0
M  V30 2442 H 237.176 0.593242 5.45685 0
M  V30 2443 H 237.437 -0.751049 4.35674 0
M  V30 2444 N 236.496 -1.42363 0.676048 0
M  V30 2445 C 237.736 -2.03392 0.20273 0
M  V30 2446 C 238.1 -1.52306 -1.16906 0
M  V30 2447 O 239.301 -2.05129 -1.73711 0
M  V30 2448 C 237.572 -3.56614 0.236947 0
M  V30 2449 S 239.131 -4.38489 -0.165186 0
M  V30 2450 H 235.949 -0.70611 0.0832418 0
M  V30 2451 H 238.551 -1.74093 0.88948 0
M  V30 2452 H 237.255 -3.91293 1.23767 0
M  V30 2453 H 236.786 -3.90587 -0.469596 0
M  V30 2454 H 238.801 -4.76093 -1.39822 0
M  V30 2455 N 237.974 -0.419461 -1.51915 0
M  V30 2456 C 238.924 0.418496 -2.24126 0
M  V30 2457 C 239.908 1.00495 -1.25656 0
M  V30 2458 O 241.1 0.926058 -1.50842 0
M  V30 2459 C 238.229 1.52899 -3.07371 0
M  V30 2460 C 237.315 0.952797 -4.13258 0
M  V30 2461 N 237.706 0.104175 -5.05693 0
M  V30 2462 C 236.004 1.22224 -4.28926 0
M  V30 2463 C 236.705 -0.21752 -5.81293 0
M  V30 2464 N 235.681 0.394293 -5.42168 0
M  V30 2465 H 239.483 -0.236048 -2.92951 0
M  V30 2466 H 236.997 -0.230481 -1.60756 0
M  V30 2467 H 238.994 2.14199 -3.57665 0
M  V30 2468 H 237.654 2.18605 -2.40088 0
M  V30 2469 H 238.665 -0.260924 -5.17242 0
M  V30 2470 H 235.342 1.87812 -3.72871 0
M  V30 2471 H 236.732 -0.906992 -6.6575 0
M  V30 2472 N 239.452 1.56882 -0.150215 0
M  V30 2473 C 240.863 1.82995 0.370076 0
M  V30 2474 C 241.214 1.06907 1.64515 0
M  V30 2475 O 240.339 0.315369 2.1409 0
M  V30 2476 C 240.934 3.31942 0.678208 0
M  V30 2477 C 239.493 3.58625 1.14301 0
M  V30 2478 C 238.64 2.76792 0.167778 0
M  V30 2479 H 241.591 1.54209 -0.374858 0
M  V30 2480 H 241.612 3.48272 1.53254 0
M  V30 2481 H 241.124 3.87294 -0.249991 0
M  V30 2482 H 239.225 3.08664 2.08704 0
M  V30 2483 H 239.338 4.67073 1.06676 0
M  V30 2484 H 237.702 2.45972 0.661037 0
M  V30 2485 H 238.485 3.34916 -0.754069 0
M  V30 2486 N 240.93 -0.123565 1.57115 0
M  V30 2487 C 242.176 -0.833386 1.84885 0
M  V30 2488 C 242.509 -1.79742 0.735292 0
M  V30 2489 O 241.784 -1.92764 -0.25925 0
M  V30 2490 C 242.067 -1.5873 3.23228 0
M  V30 2491 C 241.92 -0.643183 4.45178 0
M  V30 2492 C 243.239 -2.54453 3.59085 0
M  V30 2493 H 240.358 -0.301518 0.6725 0
M  V30 2494 H 243 -0.097778 1.89748 0
M  V30 2495 H 241.15 -2.21438 3.19214 0
M  V30 2496 H 242.822 -0.0253015 4.61293 0
M  V30 2497 H 241.065 0.0456139 4.33776 0
M  V30 2498 H 241.736 -1.20724 5.38637 0
M  V30 2499 H 244.212 -2.01853 3.63861 0
M  V30 2500 H 243.088 -3.04238 4.5687 0
M  V30 2501 H 243.349 -3.36906 2.86264 0
M  V30 2502 N 242.408 -1.52605 -0.393616 0
M  V30 2503 C 243.355 -1.77055 -1.48054 0
M  V30 2504 C 244.325 -0.61358 -1.54352 0
M  V30 2505 O 245.51 -0.852806 -1.70681 0
M  V30 2506 C 242.65 -1.94108 -2.85335 0
M  V30 2507 C 241.763 -3.21792 -2.88226 0
M  V30 2508 C 240.898 -3.29188 -4.16904 0
M  V30 2509 C 239.937 -4.51013 -4.13828 0
M  V30 2510 N 239.074 -4.55716 -5.34105 0
M  V30 2511 H 243.914 -2.69815 -1.26506 0
M  V30 2512 H 241.451 -1.33683 -0.61379 0
M  V30 2513 H 243.409 -2.01979 -3.65049 0
M  V30 2514 H 242.039 -1.04713 -3.05344 0
M  V30 2515 H 241.091 -3.23015 -2.00911 0
M  V30 2516 H 242.403 -4.11557 -2.8182 0
M  V30 2517 H 241.557 -3.36216 -5.05018 0
M  V30 2518 H 240.296 -2.37389 -4.26026 0
M  V30 2519 H 239.301 -4.44115 -3.24102 0
M  V30 2520 H 240.526 -5.44123 -4.06333 0
M  V30 2521 H 238.472 -3.66807 -5.43865 0
M  V30 2522 H 238.389 -5.39346 -5.29756 0
M  V30 2523 H 239.657 -4.66993 -6.2413 0
M  V30 2524 N 243.887 0.651787 -1.4349 0
M  V30 2525 C 244.85 1.74647 -1.48429 0
M  V30 2526 C 245.85 1.56513 -0.368817 0
M  V30 2527 O 247.04 1.62385 -0.630623 0
M  V30 2528 C 244.172 3.13533 -1.33827 0
M  V30 2529 H 245.365 1.71649 -2.4592 0
M  V30 2530 H 242.918 0.863573 -1.30277 0
M  V30 2531 H 243.653 3.22142 -0.37349 0
M  V30 2532 H 243.438 3.28101 -2.14691 0
M  V30 2533 H 244.928 3.93356 -1.40218 0
M  V30 2534 N 245.365 1.30045 0.890287 0
M  V30 2535 C 246.295 1.18541 2.01172 0
M  V30 2536 C 247.276 0.0773356 1.69924 0
M  V30 2537 O 248.461 0.25845 1.92473 0
M  V30 2538 C 245.591 0.870941 3.36202 0
M  V30 2539 C 244.545 1.93637 3.81692 0
M  V30 2540 C 243.871 1.475 5.13953 0
M  V30 2541 C 245.171 3.34666 4.00994 0
M  V30 2542 H 246.865 2.12359 2.11054 0
M  V30 2543 H 244.411 1.02238 1.01407 0
M  V30 2544 H 246.364 0.777141 4.14172 0
M  V30 2545 H 245.088 -0.102926 3.26438 0
M  V30 2546 H 243.747 2.01972 3.05946 0
M  V30 2547 H 243.395 0.489551 5.00612 0
M  V30 2548 H 243.095 2.1876 5.4536 0
M  V30 2549 H 244.619 1.39489 5.94454 0
M  V30 2550 H 246.033 3.2912 4.69417 0
M  V30 2551 H 244.43 4.03966 4.43769 0
M  V30 2552 H 245.5 3.76949 3.05021 0
M  V30 2553 N 246.843 -1.10192 1.12674 0
M  V30 2554 C 248.12 -1.78717 0.794965 0
M  V30 2555 C 248.5 -1.98628 -0.714853 0
M  V30 2556 O 247.848 -1.58135 -1.64941 0
M  V30 2557 C 248.058 -3.11546 1.5729 0
M  V30 2558 C 249.406 -3.86382 1.76052 0
M  V30 2559 O 250.43 -3.21274 1.53823 0
M  V30 2560 O 249.289 -5.03246 2.13087 0
M  V30 2561 H 246.383 -0.774702 0.289423 0
M  V30 2562 H 248.929 -1.16819 1.23091 0
M  V30 2563 H 247.701 -2.92489 2.59935 0
M  V30 2564 H 247.324 -3.81164 1.13137 0
M  V30 2565 N 248.321 -0.919034 -1.28029 0
M  V30 2566 C 249.568 -0.554934 -1.94748 0
M  V30 2567 C 249.896 0.90231 -1.72304 0
M  V30 2568 O 249.151 1.65767 -1.04018 0
M  V30 2569 C 249.45 -0.816855 -3.4794 0
M  V30 2570 C 249.116 -2.25448 -3.90492 0
M  V30 2571 C 247.778 -2.64752 -4.01821 0
M  V30 2572 C 250.13 -3.18977 -4.12193 0
M  V30 2573 C 247.458 -3.96727 -4.32232 0
M  V30 2574 C 249.81 -4.50523 -4.44086 0
M  V30 2575 C 248.474 -4.89673 -4.53626 0
M  V30 2576 H 247.744 -0.203065 -0.712633 0
M  V30 2577 H 250.391 -1.16136 -1.52265 0
M  V30 2578 H 248.696 -0.127677 -3.91592 0
M  V30 2579 H 250.393 -0.514238 -3.97689 0
M  V30 2580 H 246.983 -1.93952 -3.82205 0
M  V30 2581 H 251.167 -2.89817 -4.02889 0
M  V30 2582 H 246.423 -4.26754 -4.37825 0
M  V30 2583 H 250.597 -5.23005 -4.59825 0
M  V30 2584 H 248.224 -5.91969 -4.76946 0
M  V30 2585 N 249.799 1.42003 -0.683588 0
M  V30 2586 C 251.215 1.55625 -0.353976 0
M  V30 2587 C 251.415 1.66151 1.14 0
M  V30 2588 O 250.471 1.63329 1.92561 0
M  V30 2589 C 251.784 2.80171 -1.092 0
M  V30 2590 C 253.332 2.93954 -1.07518 0
M  V30 2591 C 253.807 4.21372 -1.79471 0
M  V30 2592 N 255.298 4.28303 -1.76381 0
M  V30 2593 C 256.033 5.25729 -2.28904 0
M  V30 2594 N 255.529 6.29254 -2.89846 0
M  V30 2595 N 257.322 5.17586 -2.19228 0
M  V30 2596 H 249.473 1.33415 -1.6527 0
M  V30 2597 H 251.736 0.64282 -0.696769 0
M  V30 2598 H 251.442 2.78561 -2.14701 0
M  V30 2599 H 251.316 3.7133 -0.662862 0
M  V30 2600 H 253.703 2.95086 -0.028475 0
M  V30 2601 H 253.784 2.04002 -1.54328 0
M  V30 2602 H 253.428 4.21001 -2.84114 0
M  V30 2603 H 253.358 5.10275 -1.30104 0
M  V30 2604 H 255.849 3.54119 -1.31939 0
M  V30 2605 H 256.162 6.99964 -3.27522 0
M  V30 2606 H 254.507 6.29791 -2.93919 0
M  V30 2607 H 257.698 4.35631 -1.71299 0
M  V30 2608 H 257.871 5.93348 -2.60466 0
M  V30 2609 N 251.277 0.427512 1.51691 0
M  V30 2610 C 252.505 -0.141191 2.06418 0
M  V30 2611 C 252.92 -1.37303 1.29589 0
M  V30 2612 O 252.277 -1.79059 0.352732 0
M  V30 2613 C 252.328 -0.473266 3.58389 0
M  V30 2614 O 252.049 0.709673 4.32314 0
M  V30 2615 C 253.55 -1.09371 4.29596 0
M  V30 2616 H 250.77 -0.0122747 0.670888 0
M  V30 2617 H 253.314 0.603764 1.95384 0
M  V30 2618 H 251.469 -1.16812 3.69369 0
M  V30 2619 H 251.883 0.42807 5.2275 0
M  V30 2620 H 253.357 -1.27613 5.37046 0
M  V30 2621 H 253.834 -2.072 3.87253 0
M  V30 2622 H 254.44 -0.43853 4.23033 0
M  V30 2623 N 252.755 -1.56801 0.158532 0
M  V30 2624 C 254.166 -1.83189 -0.360366 0
M  V30 2625 C 254.517 -1.07778 -1.63946 0
M  V30 2626 O 253.642 -0.326718 -2.13919 0
M  V30 2627 C 254.237 -3.32297 -0.660595 0
M  V30 2628 C 252.796 -3.59227 -1.12398 0
M  V30 2629 C 251.943 -2.76877 -0.153097 0
M  V30 2630 H 254.894 -1.54008 0.383031 0
M  V30 2631 H 254.915 -3.4908 -1.51405 0
M  V30 2632 H 254.427 -3.87156 0.270527 0
M  V30 2633 H 252.528 -3.09766 -2.07064 0
M  V30 2634 H 252.641 -4.67632 -1.04197 0
M  V30 2635 H 251.005 -2.46319 -0.647983 0
M  V30 2636 H 251.788 -3.34511 0.77182 0
M  V30 2637 N 254.233 0.115231 -1.57178 0
M  V30 2638 C 255.163 1.1423 -2.03651 0
M  V30 2639 C 256.144 1.42967 -0.921655 0
M  V30 2640 O 257.329 1.53343 -1.19162 0
M  V30 2641 C 254.459 2.4675 -2.44401 0
M  V30 2642 C 253.413 2.32467 -3.59365 0
M  V30 2643 C 252.739 3.69984 -3.86026 0
M  V30 2644 C 254.039 1.78203 -4.90959 0
M  V30 2645 H 255.733 0.755749 -2.89705 0
M  V30 2646 H 253.279 0.362093 -1.39373 0
M  V30 2647 H 255.232 3.18854 -2.75517 0
M  V30 2648 H 253.956 2.87302 -1.55322 0
M  V30 2649 H 252.615 1.62811 -3.28463 0
M  V30 2650 H 252.263 4.08028 -2.94147 0
M  V30 2651 H 251.963 3.61279 -4.63412 0
M  V30 2652 H 253.487 4.43587 -4.19599 0
M  V30 2653 H 254.901 2.40128 -5.20587 0
M  V30 2654 H 253.298 1.8031 -5.72371 0
M  V30 2655 H 254.368 0.739876 -4.79222 0
M  V30 2656 N 255.711 1.52812 0.385517 0
M  V30 2657 C 256.658 1.77838 1.47113 0
M  V30 2658 C 257.628 0.621757 1.54024 0
M  V30 2659 O 258.813 0.861846 1.70226 0
M  V30 2660 C 255.953 1.95618 2.84302 0
M  V30 2661 C 255.066 3.23316 2.86515 0
M  V30 2662 C 254.201 3.31394 4.15152 0
M  V30 2663 C 253.24 4.53201 4.1143 0
M  V30 2664 N 252.377 4.58542 5.3168 0
M  V30 2665 H 257.217 2.70482 1.25073 0
M  V30 2666 H 254.754 1.34006 0.606692 0
M  V30 2667 H 256.712 2.03912 3.63972 0
M  V30 2668 H 255.342 1.06331 3.04784 0
M  V30 2669 H 254.394 3.24076 1.99195 0
M  V30 2670 H 255.706 4.13045 2.79634 0
M  V30 2671 H 254.86 3.3889 5.03228 0
M  V30 2672 H 253.599 2.39645 4.24761 0
M  V30 2673 H 252.604 4.45827 3.21742 0
M  V30 2674 H 253.829 5.46271 4.03442 0
M  V30 2675 H 251.775 3.69686 5.41912 0
M  V30 2676 H 251.692 5.42148 5.26889 0
M  V30 2677 H 252.96 4.70296 6.21644 0
M  V30 2678 N 257.189 -0.644168 1.43834 0
M  V30 2679 C 258.152 -1.73857 1.49353 0
M  V30 2680 C 259.152 -1.56315 0.377112 0
M  V30 2681 O 260.342 -1.62048 0.639226 0
M  V30 2682 C 257.474 -3.12819 1.35488 0
M  V30 2683 H 258.667 -1.70342 2.46827 0
M  V30 2684 H 256.22 -0.856652 1.30733 0
M  V30 2685 H 256.955 -3.2194 0.390569 0
M  V30 2686 H 256.74 -3.26958 2.16428 0
M  V30 2687 H 258.23 -3.92606 1.42302 0
M  V30 2688 N 258.668 -1.30515 -0.883378 0
M  V30 2689 C 259.615 -1.17032 -1.98927 0
M  V30 2690 C 260.585 -0.0594241 -1.65994 0
M  V30 2691 O 261.77 -0.229895 -1.8941 0
M  V30 2692 C 258.91 -0.869777 -3.33959 0
M  V30 2693 C 258.023 -2.06271 -3.79574 0
M  V30 2694 C 257.158 -1.70011 -5.03259 0
M  V30 2695 C 256.197 -2.8579 -5.41286 0
M  V30 2696 N 255.334 -2.49816 -6.56153 0
M  V30 2697 H 260.174 -2.1164 -2.09792 0
M  V30 2698 H 257.711 -1.05296 -1.02719 0
M  V30 2699 H 259.669 -0.676138 -4.11685 0
M  V30 2700 H 258.299 0.0394332 -3.22776 0
M  V30 2701 H 257.351 -2.36755 -2.97744 0
M  V30 2702 H 258.663 -2.92971 -4.03694 0
M  V30 2703 H 257.817 -1.47032 -5.88614 0
M  V30 2704 H 256.556 -0.804829 -4.81013 0
M  V30 2705 H 255.561 -3.09434 -4.54456 0
M  V30 2706 H 256.786 -3.76008 -5.65504 0
M  V30 2707 H 254.732 -1.62795 -6.35479 0
M  V30 2708 H 254.649 -3.30048 -6.8015 0
M  V30 2709 H 255.917 -2.30197 -7.44735 0
M  V30 2710 N 260.146 1.09593 -1.13257 0
M  V30 2711 C 261.395 1.81105 -0.887917 0
M  V30 2712 C 261.708 1.86563 0.587672 0
M  V30 2713 O 262.914 2.54367 0.949204 0
M  V30 2714 C 261.37 3.25338 -1.53895 0
M  V30 2715 C 260.978 3.28151 -3.04994 0
M  V30 2716 C 262.722 4.01617 -1.37492 0
M  V30 2717 C 260.629 4.66897 -3.6299 0
M  V30 2718 H 259.559 0.678661 -0.328534 0
M  V30 2719 H 262.21 1.23183 -1.36008 0
M  V30 2720 H 260.592 3.8331 -0.994446 0
M  V30 2721 H 261.766 2.79953 -3.66009 0
M  V30 2722 H 260.081 2.65361 -3.20893 0
M  V30 2723 H 262.678 5.04119 -1.78235 0
M  V30 2724 H 263.021 4.15072 -0.31957 0
M  V30 2725 H 263.554 3.50082 -1.88912 0
M  V30 2726 H 260.293 4.58643 -4.68323 0
M  V30 2727 H 259.813 5.15426 -3.06752 0
M  V30 2728 H 261.492 5.3587 -3.62563 0
M  V30 2729 N 261.624 0.925811 1.2754 0
M  V30 2730 C 262.873 0.561084 1.93739 0
M  V30 2731 C 263.186 -0.901685 1.73577 0
M  V30 2732 O 264.392 -1.37511 2.34101 0
M  V30 2733 C 262.848 0.952668 3.47062 0
M  V30 2734 C 262.456 2.43599 3.75983 0
M  V30 2735 C 264.2 0.659103 4.19352 0
M  V30 2736 C 262.107 2.76707 5.22673 0
M  V30 2737 H 261.037 0.206122 0.725279 0
M  V30 2738 H 263.688 1.12637 1.44863 0
M  V30 2739 H 262.07 0.316053 3.94737 0
M  V30 2740 H 263.244 3.12035 3.39073 0
M  V30 2741 H 261.559 2.70125 3.16893 0
M  V30 2742 H 264.156 0.882985 5.27359 0
M  V30 2743 H 264.499 -0.403607 4.14339 0
M  V30 2744 H 265.032 1.25473 3.77494 0
M  V30 2745 H 261.771 3.8188 5.32774 0
M  V30 2746 H 261.291 2.12919 5.60737 0
M  V30 2747 H 262.97 2.6435 5.90532 0
M  V30 2748 N 263.102 -1.41638 0.69111 0
M  V30 2749 C 264.05 -2.32597 0.0115199 0
M  V30 2750 C 265.044 -1.5072 -0.773296 0
M  V30 2751 O 266.25 -1.66685 -0.67942 0
M  V30 2752 H 262.625 -0.751849 -0.0150746 0
M  V30 2753 H 264.596 -2.87593 0.795791 0
M  V30 2754 C 263.345 -3.35467 -0.914172 0
M  V30 2755 H 262.668 -3.9852 -0.319687 0
M  V30 2756 H 264.108 -4.01662 -1.35808 0
M  V30 2757 C 262.567 -2.69004 -2.02826 0
M  V30 2758 O 263.097 -2.53444 -3.11655 0
M  V30 2759 N 261.303 -2.2777 -1.80469 0
M  V30 2760 H 260.85 -2.40626 -0.919615 0
M  V30 2761 H 260.808 -1.83635 -2.55197 0
M  V30 2762 N 264.58 -0.43555 -1.51462 0
M  V30 2763 C 265.829 0.133007 -2.01261 0
M  V30 2764 C 266.142 1.43942 -1.32439 0
M  V30 2765 O 267.348 2.09081 -1.73198 0
M  V30 2766 C 265.804 0.287581 -3.58749 0
M  V30 2767 C 265.412 -1.00829 -4.36506 0
M  V30 2768 C 267.156 0.810004 -4.167 0
M  V30 2769 C 265.063 -0.819454 -5.85695 0
M  V30 2770 H 263.993 0.0534822 -0.752101 0
M  V30 2771 H 266.644 -0.565038 -1.74584 0
M  V30 2772 H 265.026 1.04859 -3.81865 0
M  V30 2773 H 266.2 -1.77749 -4.25138 0
M  V30 2774 H 264.515 -1.45911 -3.89999 0
M  V30 2775 H 267.112 0.967743 -5.2587 0
M  V30 2776 H 267.455 1.79196 -3.75758 0
M  V30 2777 H 267.988 0.107357 -3.97655 0
M  V30 2778 H 264.727 -1.77374 -6.31046 0
M  V30 2779 H 264.247 -0.0900208 -5.99732 0
M  V30 2780 H 265.926 -0.471949 -6.45276 0
M  V30 2781 N 266.058 1.56714 -0.166846 0
M  V30 2782 C 267.298 1.98641 0.481763 0
M  V30 2783 C 267.662 1.05038 1.6072 0
M  V30 2784 O 268.863 1.36087 2.31805 0
M  V30 2785 C 267.134 3.44362 0.956517 0
M  V30 2786 S 268.693 4.08317 1.60694 0
M  V30 2787 H 265.511 0.693873 0.155116 0
M  V30 2788 H 268.113 1.93719 -0.263251 0
M  V30 2789 H 266.817 4.10204 0.126936 0
M  V30 2790 H 266.348 3.53041 1.73568 0
M  V30 2791 H 268.363 4.02999 2.89494 0
M  V30 2792 N 267.536 -0.106894 1.57237 0
M  V30 2793 C 268.785 -0.811163 1.8467 0
M  V30 2794 C 269.098 -1.80469 0.754342 0
M  V30 2795 O 270.304 -2.55601 0.915439 0
M  V30 2796 C 268.76 -1.49337 3.27454 0
M  V30 2797 C 268.368 -0.540217 4.44731 0
M  V30 2798 C 270.112 -2.18206 3.64124 0
M  V30 2799 C 268.019 -1.22634 5.78545 0
M  V30 2800 H 266.949 -0.306679 0.688813 0
M  V30 2801 H 269.6 -0.0639887 1.83388 0
M  V30 2802 H 267.982 -2.2876 3.23241 0
M  V30 2803 H 269.156 0.221659 4.60267 0
M  V30 2804 H 267.471 0.042146 4.16379 0
M  V30 2805 H 270.068 -2.70253 4.61376 0
M  V30 2806 H 270.411 -2.96562 2.92158 0
M  V30 2807 H 270.944 -1.45658 3.70174 0
M  V30 2808 H 267.683 -0.483832 6.53712 0
M  V30 2809 H 267.203 -1.95993 5.66874 0
M  V30 2810 H 268.882 -1.75615 6.2271 0
M  V30 2811 N 269.014 -1.53014 -0.377408 0
M  V30 2812 C 270.26 -1.69821 -1.11948 0
M  V30 2813 C 270.615 -0.438581 -1.87335 0
M  V30 2814 O 269.908 0.568094 -1.82984 0
M  V30 2815 C 270.102 -2.87982 -2.11663 0
M  V30 2816 C 269.931 -4.25315 -1.46072 0
M  V30 2817 C 268.701 -4.90354 -1.21986 0
M  V30 2818 C 270.899 -5.06281 -0.904664 0
M  V30 2819 N 268.881 -6.11641 -0.526215 0
M  V30 2820 C 270.252 -6.19069 -0.339726 0
M  V30 2821 C 272.307 -4.91395 -0.8022 0
M  V30 2822 C 271.01 -7.18598 0.317669 0
M  V30 2823 C 273.036 -5.91187 -0.158606 0
M  V30 2824 C 272.398 -7.03289 0.39551 0
M  V30 2825 H 268.497 -0.674785 -0.395207 0
M  V30 2826 H 271.081 -1.90389 -0.407437 0
M  V30 2827 H 269.252 -2.68974 -2.80192 0
M  V30 2828 H 270.984 -2.93669 -2.78461 0
M  V30 2829 H 267.739 -4.49286 -1.49798 0
M  V30 2830 H 268.163 -6.76719 -0.195098 0
M  V30 2831 H 272.805 -4.04925 -1.21639 0
M  V30 2832 H 270.523 -8.04669 0.743836 0
M  V30 2833 H 274.109 -5.81744 -0.0804138 0
M  V30 2834 H 272.989 -7.79183 0.885648 0
M  V30 2835 N 270.492 0.636531 -1.44174 0
M  V30 2836 C 271.422 1.76003 -1.53444 0
M  V30 2837 C 272.403 1.65619 -0.387841 0
M  V30 2838 O 273.588 1.84461 -0.607257 0
M  V30 2839 C 270.718 3.14511 -1.4731 0
M  V30 2840 C 269.672 3.39677 -2.60391 0
M  V30 2841 C 268.998 4.78159 -2.39308 0
M  V30 2842 C 270.298 3.32772 -4.02567 0
M  V30 2843 H 271.992 1.68501 -2.47483 0
M  V30 2844 H 269.538 0.809237 -1.19111 0
M  V30 2845 H 271.491 3.92878 -1.52397 0
M  V30 2846 H 270.215 3.22783 -0.49785 0
M  V30 2847 H 268.874 2.63688 -2.54684 0
M  V30 2848 H 268.522 4.83128 -1.39988 0
M  V30 2849 H 268.222 4.95956 -3.15122 0
M  V30 2850 H 269.746 5.58762 -2.46205 0
M  V30 2851 H 271.16 4.01051 -4.09672 0
M  V30 2852 H 269.557 3.62104 -4.7854 0
M  V30 2853 H 270.627 2.30669 -4.2652 0
M  V30 2854 N 271.97 1.30982 0.876444 0
M  V30 2855 C 272.9 1.20668 1.99903 0
M  V30 2856 C 273.881 0.095354 1.69833 0
M  V30 2857 O 275.066 0.27885 1.92188 0
M  V30 2858 C 272.196 0.90655 3.3526 0
M  V30 2859 C 271.15 1.97675 3.79617 0
M  V30 2860 C 270.476 1.52943 5.1236 0
M  V30 2861 C 271.776 3.389 3.97422 0
M  V30 2862 H 273.47 2.14586 2.0879 0
M  V30 2863 H 271.016 1.03308 1.00317 0
M  V30 2864 H 272.969 0.821025 4.13324 0
M  V30 2865 H 271.693 -0.0682969 3.26529 0
M  V30 2866 H 270.352 2.05205 3.03787 0
M  V30 2867 H 270 0.54262 5.00065 0
M  V30 2868 H 269.7 2.24532 5.43009 0
M  V30 2869 H 271.224 1.45786 5.92941 0
M  V30 2870 H 272.638 3.34081 4.659 0
M  V30 2871 H 271.035 4.0865 4.3946 0
M  V30 2872 H 272.105 3.80163 3.01006 0
M  V30 2873 N 273.449 -1.08991 1.13837 0
M  V30 2874 C 274.674 -1.85551 0.926585 0
M  V30 2875 C 275.099 -1.80782 -0.519566 0
M  V30 2876 O 274.457 -1.18855 -1.36906 0
M  V30 2877 C 274.505 -3.31266 1.42462 0
M  V30 2878 O 273.609 -4.07822 0.612789 0
M  V30 2879 H 272.95 -0.575192 0.331738 0
M  V30 2880 H 275.48 -1.37604 1.51414 0
M  V30 2881 H 275.49 -3.82112 1.43019 0
M  V30 2882 H 274.165 -3.34052 2.47754 0
M  V30 2883 H 272.742 -3.66731 0.675463 0
M  V30 2884 N 274.927 -0.932562 -1.27047 0
M  V30 2885 C 276.152 -0.591474 -1.98787 0
M  V30 2886 C 276.577 0.824601 -1.69062 0
M  V30 2887 O 275.935 1.5541 -0.933677 0
M  V30 2888 C 275.983 -0.829808 -3.50922 0
M  V30 2889 O 275.087 0.102266 -4.12273 0
M  V30 2890 H 274.428 -0.227185 -0.623926 0
M  V30 2891 H 276.958 -1.25314 -1.61733 0
M  V30 2892 H 276.968 -0.747292 -4.01098 0
M  V30 2893 H 275.643 -1.86201 -3.7189 0
M  V30 2894 H 274.22 -0.0305761 -3.72887 0
M  V30 2895 N 276.405 1.4127 -0.698611 0
M  V30 2896 C 277.63 2.06024 -0.238512 0
M  V30 2897 C 278.055 1.5224 1.10475 0
M  V30 2898 O 277.413 0.650623 1.69223 0
M  V30 2899 C 277.461 3.59988 -0.209952 0
M  V30 2900 O 276.565 4.04282 0.814235 0
M  V30 2901 H 275.906 0.653829 -0.115775 0
M  V30 2902 H 278.436 1.8098 -0.954326 0
M  V30 2903 H 278.446 4.07979 -0.0418436 0
M  V30 2904 H 277.121 3.98503 -1.1903 0
M  V30 2905 H 275.698 3.6779 0.615234 0
M  V30 2906 N 277.883 0.443576 1.51229 0
M  V30 2907 C 279.129 -0.120975 2.02439 0
M  V30 2908 C 279.462 -1.41815 1.32674 0
M  V30 2909 O 278.737 -1.89373 0.443622 0
M  V30 2910 C 279.02 -0.333291 3.58554 0
M  V30 2911 C 278.873 0.982968 4.38928 0
M  V30 2912 C 280.192 -1.10028 4.26124 0
M  V30 2913 H 277.311 -0.0424923 0.735774 0
M  V30 2914 H 279.953 0.583794 1.80809 0
M  V30 2915 H 278.103 -0.933614 3.77115 0
M  V30 2916 H 279.775 1.61775 4.32003 0
M  V30 2917 H 278.018 1.58611 4.03763 0
M  V30 2918 H 278.689 0.788379 5.46341 0
M  V30 2919 H 281.165 -0.591711 4.11871 0
M  V30 2920 H 280.041 -1.21761 5.35225 0
M  V30 2921 H 280.302 -2.12996 3.87408 0
M  V30 2922 N 279.361 -1.56624 0.175154 0
M  V30 2923 C 280.609 -1.96609 -0.467885 0
M  V30 2924 C 280.93 -1.06238 -1.63519 0
M  V30 2925 O 280.2 -0.129523 -1.95471 0
M  V30 2926 H 278.78 -0.726008 -0.175845 0
M  V30 2927 H 281.442 -1.93195 0.257234 0
M  V30 2928 H 280.538 -3.00989 -0.825342 0
M  V30 2929 N 280.839 0.0985539 -1.57292 0
M  V30 2930 C 282.088 0.801358 -1.85098 0
M  V30 2931 C 282.401 1.80066 -0.763902 0
M  V30 2932 O 283.607 2.55112 -0.928981 0
M  V30 2933 C 282.063 1.47599 -3.28242 0
M  V30 2934 C 281.671 0.516624 -4.45011 0
M  V30 2935 C 283.415 2.16272 -3.65276 0
M  V30 2936 C 281.322 1.19564 -5.79188 0
M  V30 2937 H 280.252 0.303022 -0.69043 0
M  V30 2938 H 282.903 0.0542623 -1.8342 0
M  V30 2939 H 281.285 2.27042 -3.2445 0
M  V30 2940 H 282.459 -0.246065 -4.60143 0
M  V30 2941 H 280.774 -0.064227 -4.1635 0
M  V30 2942 H 283.371 2.67802 -4.62803 0
M  V30 2943 H 283.714 2.95009 -2.93727 0
M  V30 2944 H 284.247 1.43693 -3.70941 0
M  V30 2945 H 280.986 0.449157 -6.53959 0
M  V30 2946 H 280.506 1.92984 -5.67906 0
M  V30 2947 H 282.185 1.7231 -6.23633 0
M  V30 2948 N 282.317 1.53212 0.369288 0
M  V30 2949 C 283.542 1.73423 1.1375 0
M  V30 2950 C 283.967 0.460404 1.82378 0
M  V30 2951 O 283.325 -0.585298 1.71592 0
M  V30 2952 C 283.373 2.89769 2.1463 0
M  V30 2953 O 282.477 2.58119 3.21634 0
M  V30 2954 H 281.818 0.576061 0.330227 0
M  V30 2955 H 284.348 2.00083 0.427547 0
M  V30 2956 H 284.358 3.15829 2.58294 0
M  V30 2957 H 283.033 3.8217 1.64071 0
M  V30 2958 H 281.61 2.42864 2.82969 0
M  V30 2959 N 283.795 -0.628877 1.44509 0
M  V30 2960 C 284.758 -1.72263 1.51188 0
M  V30 2961 C 285.758 -1.55907 0.39367 0
M  V30 2962 O 286.948 -1.61361 0.656377 0
M  V30 2963 C 284.08 -3.11365 1.38798 0
M  V30 2964 H 285.273 -1.67714 2.4862 0
M  V30 2965 H 282.826 -0.842737 1.31634 0
M  V30 2966 H 283.561 -3.21507 0.424693 0
M  V30 2967 H 283.346 -3.24644 2.19884 0
M  V30 2968 H 284.836 -3.91075 1.46458 0
M  V30 2969 N 285.273 -1.31445 -0.869486 0
M  V30 2970 C 286.522 -1.20517 -1.61736 0
M  V30 2971 C 286.835 0.235341 -1.94179 0
M  V30 2972 O 288.041 0.466312 -2.67465 0
M  V30 2973 C 286.497 -2.10982 -2.91573 0
M  V30 2974 C 286.105 -3.60032 -2.66611 0
M  V30 2975 C 287.849 -2.08856 -3.69567 0
M  V30 2976 C 285.756 -4.42503 -3.92358 0
M  V30 2977 H 284.686 -0.447493 -0.606849 0
M  V30 2978 H 287.337 -1.56303 -0.96133 0
M  V30 2979 H 285.719 -1.68095 -3.58553 0
M  V30 2980 H 286.893 -4.11167 -2.08035 0
M  V30 2981 H 285.208 -3.64139 -2.0197 0
M  V30 2982 H 287.805 -2.67716 -4.62852 0
M  V30 2983 H 288.148 -1.07582 -4.02159 0
M  V30 2984 H 288.681 -2.49945 -3.09471 0
M  V30 2985 H 285.42 -5.44533 -3.64916 0
M  V30 2986 H 284.94 -3.96125 -4.50383 0
M  V30 2987 H 286.619 -4.54741 -4.60238 0
M  V30 2988 N 286.751 1.08385 -1.14413 0
M  V30 2989 C 287.997 1.81044 -0.913834 0
M  V30 2990 C 288.33 1.86004 0.558209 0
M  V30 2991 O 287.605 1.33606 1.4135 0
M  V30 2992 C 287.888 3.26648 -1.51569 0
M  V30 2993 C 287.741 3.29895 -3.0576 0
M  V30 2994 C 289.06 4.23629 -1.19273 0
M  V30 2995 H 286.179 0.65727 -0.333414 0
M  V30 2996 H 288.821 1.26896 -1.41412 0
M  V30 2997 H 286.971 3.72889 -1.09023 0
M  V30 2998 H 288.643 2.91977 -3.57137 0
M  V30 2999 H 286.886 2.69163 -3.40197 0
M  V30 3000 H 287.557 4.32516 -3.42977 0
M  V30 3001 H 290.033 3.85727 -1.56057 0
M  V30 3002 H 288.909 5.23822 -1.64017 0
M  V30 3003 H 289.17 4.41968 -0.108068 0
M  V30 3004 N 288.23 0.939286 1.26551 0
M  V30 3005 C 289.16 0.465044 2.28822 0
M  V30 3006 C 290.141 -0.480692 1.63167 0
M  V30 3007 O 291.326 -0.382955 1.90387 0
M  V30 3008 C 288.456 -0.27234 3.46231 0
M  V30 3009 C 287.41 0.58666 4.2396 0
M  V30 3010 C 286.736 -0.280573 5.33963 0
M  V30 3011 C 288.036 1.85704 4.88171 0
M  V30 3012 H 289.73 1.31979 2.68741 0
M  V30 3013 H 287.276 0.636061 1.29191 0
M  V30 3014 H 289.229 -0.615133 4.16886 0
M  V30 3015 H 287.953 -1.16121 3.0526 0
M  V30 3016 H 286.612 0.91232 3.55067 0
M  V30 3017 H 286.26 -1.16874 4.89234 0
M  V30 3018 H 285.96 0.29076 5.8688 0
M  V30 3019 H 287.484 -0.618678 6.07458 0
M  V30 3020 H 288.898 1.58161 5.51052 0
M  V30 3021 H 287.295 2.37279 5.51197 0
M  V30 3022 H 288.365 2.56957 4.11219 0
M  V30 3023 N 289.708 -1.40897 0.706093 0
M  V30 3024 C 290.956 -2.00657 0.241054 0
M  V30 3025 C 291.277 -1.56241 -1.16678 0
M  V30 3026 O 290.547 -0.79765 -1.78926 0
M  V30 3027 H 289.127 -0.742018 0.0861308 0
M  V30 3028 H 291.789 -1.72372 0.909604 0
M  V30 3029 H 290.885 -3.10958 0.266705 0
M  V30 3030 N 291.186 -0.45159 -1.50991 0
M  V30 3031 C 292.434 0.109857 -2.01801 0
M  V30 3032 C 292.755 1.41958 -1.3369 0
M  V30 3033 O 292.025 1.9003 -0.475951 0
M  V30 3034 H 290.605 0.0435884 -0.745727 0
M  V30 3035 H 293.267 -0.597557 -1.85514 0
M  V30 3036 H 292.363 0.275489 -3.10882 0
M  V30 3037 N 292.664 1.56529 -0.183458 0
M  V30 3038 C 293.892 2.01623 0.464285 0
M  V30 3039 C 294.307 1.06366 1.55986 0
M  V30 3040 O 293.664 0.0665398 1.82379 0
M  V30 3041 C 293.715 3.46475 1.03139 0
M  V30 3042 O 293.436 4.38095 -0.0204675 0
M  V30 3043 C 294.937 4.0703 1.75617 0
M  V30 3044 H 292.157 0.660596 0.117704 0
M  V30 3045 H 294.701 2.02451 -0.288751 0
M  V30 3046 H 292.856 3.46383 1.73486 0
M  V30 3047 H 293.27 5.22973 0.399952 0
M  V30 3048 H 294.744 5.10271 2.10542 0
M  V30 3049 H 295.221 3.49819 2.65563 0
M  V30 3050 H 295.827 4.1086 1.09882 0
M  V30 3051 N 294.142 -0.090211 1.57342 0
M  V30 3052 C 295.089 -1.10909 2.02405 0
M  V30 3053 C 296.059 -1.39523 0.901252 0
M  V30 3054 O 297.244 -1.50903 1.1676 0
M  V30 3055 C 294.384 -2.42277 2.45755 0
M  V30 3056 C 293.497 -2.20352 3.71576 0
M  V30 3057 C 292.632 -3.45154 4.03785 0
M  V30 3058 C 291.671 -3.18512 5.22701 0
M  V30 3059 N 290.808 -4.35593 5.50639 0
M  V30 3060 H 295.648 -0.71782 2.89225 0
M  V30 3061 H 293.185 -0.342901 1.43048 0
M  V30 3062 H 295.143 -3.18951 2.68935 0
M  V30 3063 H 293.773 -2.79242 1.61938 0
M  V30 3064 H 292.825 -1.34458 3.55844 0
M  V30 3065 H 294.137 -1.96661 4.58395 0
M  V30 3066 H 293.291 -4.30233 4.27767 0
M  V30 3067 H 292.03 -3.71904 3.15498 0
M  V30 3068 H 291.035 -2.31827 4.98534 0
M  V30 3069 H 292.26 -2.93103 6.12591 0
M  V30 3070 H 290.206 -4.6241 4.6531 0
M  V30 3071 H 290.123 -4.1511 6.31838 0
M  V30 3072 H 291.391 -5.21723 5.7916 0
M  V30 3073 N 295.62 -1.53406 -0.361157 0
M  V30 3074 C 296.866 -1.70054 -1.10496 0
M  V30 3075 C 297.199 -0.453278 -1.88836 0
M  V30 3076 O 296.474 0.5495 -1.86576 0
M  V30 3077 C 296.757 -2.95317 -2.06058 0
M  V30 3078 C 296.61 -4.3021 -1.31298 0
M  V30 3079 C 297.929 -3.16193 -3.06121 0
M  V30 3080 H 295.048 -0.618799 -0.400321 0
M  V30 3081 H 297.69 -1.86052 -0.385318 0
M  V30 3082 H 295.84 -2.81809 -2.67425 0
M  V30 3083 H 297.512 -4.55538 -0.726807 0
M  V30 3084 H 295.755 -4.29421 -0.614853 0
M  V30 3085 H 296.426 -5.14 -2.01265 0
M  V30 3086 H 298.902 -3.28916 -2.5486 0
M  V30 3087 H 297.778 -4.05266 -3.70204 0
M  V30 3088 H 298.039 -2.31676 -3.76535 0
M  V30 3089 N 297.098 0.621204 -1.44841 0
M  V30 3090 C 298.514 0.94048 -1.28946 0
M  V30 3091 C 298.714 2.00154 -0.23249 0
M  V30 3092 O 297.77 2.49651 0.378237 0
M  V30 3093 C 299.083 1.39433 -2.66419 0
M  V30 3094 C 300.631 1.50927 -2.74208 0
M  V30 3095 C 301.106 1.99692 -4.12174 0
M  V30 3096 N 302.597 2.06947 -4.144 0
M  V30 3097 C 303.332 2.45871 -5.1801 0
M  V30 3098 N 302.828 2.83862 -6.31977 0
M  V30 3099 N 304.621 2.46092 -5.05366 0
M  V30 3100 H 296.772 -0.0803548 -2.12248 0
M  V30 3101 H 299.035 0.0266913 -0.947624 0
M  V30 3102 H 298.741 0.688925 -3.44887 0
M  V30 3103 H 298.615 2.36347 -2.93973 0
M  V30 3104 H 301.002 2.20561 -1.96053 0
M  V30 3105 H 301.083 0.523627 -2.50383 0
M  V30 3106 H 300.727 1.30649 -4.90809 0
M  V30 3107 H 300.657 2.99146 -4.33381 0
M  V30 3108 H 303.148 1.80232 -3.32152 0
M  V30 3109 H 303.461 3.12405 -7.0684 0
M  V30 3110 H 301.806 2.8159 -6.35399 0
M  V30 3111 H 304.997 2.1581 -4.15384 0
M  V30 3112 H 305.17 2.76102 -5.86235 0
M  V30 3113 N 298.576 1.31904 0.862503 0
M  V30 3114 C 299.486 1.22161 2.00285 0
M  V30 3115 C 300.502 0.136785 1.73462 0
M  V30 3116 O 301.678 0.355994 1.98229 0
M  V30 3117 C 298.743 0.937093 3.33796 0
M  V30 3118 C 297.804 2.10957 3.73893 0
M  V30 3119 C 297.037 1.83853 5.01033 0
M  V30 3120 O 297.26 0.777274 5.65079 0
M  V30 3121 O 296.194 2.69741 5.38074 0
M  V30 3122 H 300.02 2.18008 2.11439 0
M  V30 3123 H 297.605 1.11716 0.991957 0
M  V30 3124 H 299.487 0.794583 4.13841 0
M  V30 3125 H 298.162 0.00871894 3.23699 0
M  V30 3126 H 297.069 2.30752 2.94456 0
M  V30 3127 H 298.402 3.02046 3.88625 0
M  V30 3128 N 300.054 -1.07777 1.14986 0
M  V30 3129 C 301.331 -1.7699 0.832695 0
M  V30 3130 C 301.711 -2.001 -0.672561 0
M  V30 3131 O 301.059 -1.61598 -1.6155 0
M  V30 3132 C 301.269 -3.08139 1.63863 0
M  V30 3133 C 302.617 -3.8256 1.84208 0
M  V30 3134 O 303.641 -3.17939 1.60603 0
M  V30 3135 O 302.5 -4.98612 2.23714 0
M  V30 3136 H 299.594 -0.768389 0.305791 0
M  V30 3137 H 302.14 -1.14182 1.25541 0
M  V30 3138 H 300.912 -2.86909 2.6608 0
M  V30 3139 H 300.535 -3.78678 1.21197 0
M  V30 3140 N 301.532 -0.945985 -1.26051 0
M  V30 3141 C 302.778 -0.597002 -1.93814 0
M  V30 3142 C 303.111 0.862484 -1.73997 0
M  V30 3143 O 302.386 1.61769 -1.07986 0
M  V30 3144 C 302.669 -0.945937 -3.47454 0
M  V30 3145 C 302.522 -2.46052 -3.76535 0
M  V30 3146 C 303.841 -0.464785 -4.37639 0
M  V30 3147 H 300.96 -0.218366 -0.703907 0
M  V30 3148 H 303.602 -1.18107 -1.48831 0
M  V30 3149 H 301.752 -0.448902 -3.85898 0
M  V30 3150 H 303.424 -3.03065 -3.47778 0
M  V30 3151 H 301.667 -2.90194 -3.22444 0
M  V30 3152 H 302.338 -2.65517 -4.83947 0
M  V30 3153 H 304.814 -0.891016 -4.06448 0
M  V30 3154 H 303.69 -0.737712 -5.4392 0
M  V30 3155 H 303.951 0.635274 -4.37512 0
M  V30 3156 N 303.011 1.40521 -0.713556 0
M  V30 3157 C 304.288 1.94775 -0.17943 0
M  V30 3158 C 304.668 1.65184 1.31444 0
M  V30 3159 O 304.016 0.968429 2.06963 0
M  V30 3160 C 304.226 3.45543 -0.489986 0
M  V30 3161 C 305.574 4.22442 -0.427536 0
M  V30 3162 O 306.598 3.53644 -0.425929 0
M  V30 3163 O 305.457 5.4501 -0.403292 0
M  V30 3164 H 302.551 0.826606 -0.0255192 0
M  V30 3165 H 305.097 1.5014 -0.790949 0
M  V30 3166 H 303.869 3.60432 -1.5233 0
M  V30 3167 H 303.492 3.97311 0.151598 0
M  V30 3168 N 304.489 0.459591 1.5075 0
M  V30 3169 C 305.735 -0.0994966 2.02556 0
M  V30 3170 C 306.068 -1.40399 1.3417 0
M  V30 3171 O 305.343 -1.88892 0.463683 0
M  V30 3172 C 305.626 -0.295242 3.58888 0
M  V30 3173 C 305.479 1.02947 4.37861 0
M  V30 3174 C 306.798 -1.05502 4.27267 0
M  V30 3175 H 303.917 -0.034686 0.736183 0
M  V30 3176 H 306.559 0.602938 1.8018 0
M  V30 3177 H 304.709 -0.893563 3.78084 0
M  V30 3178 H 306.381 1.66348 4.30263 0
M  V30 3179 H 304.624 1.62885 4.02058 0
M  V30 3180 H 305.295 0.846281 5.45474 0
M  V30 3181 H 307.771 -0.547993 4.12476 0
M  V30 3182 H 306.647 -1.16077 5.36486 0
M  V30 3183 H 306.908 -2.08875 3.89645 0
M  V30 3184 N 305.967 -1.56429 0.191757 0
M  V30 3185 C 307.216 -1.9666 -0.448088 0
M  V30 3186 C 307.529 -1.08136 -1.62991 0
M  V30 3187 O 308.735 -1.38135 -2.33733 0
M  V30 3188 C 307.191 -3.49753 -0.848585 0
M  V30 3189 C 306.799 -4.46935 0.308764 0
M  V30 3190 C 308.543 -3.9876 -1.4557 0
M  V30 3191 C 306.45 -5.91293 -0.112506 0
M  V30 3192 H 305.38 -0.734312 -0.171179 0
M  V30 3193 H 308.031 -1.81301 0.283242 0
M  V30 3194 H 306.413 -3.60604 -1.63649 0
M  V30 3195 H 307.587 -4.47813 1.08627 0
M  V30 3196 H 305.902 -4.08102 0.827158 0
M  V30 3197 H 308.499 -5.04086 -1.78328 0
M  V30 3198 H 308.842 -3.42875 -2.36099 0
M  V30 3199 H 309.375 -3.9101 -0.731836 0
M  V30 3200 H 306.114 -6.51097 0.758514 0
M  V30 3201 H 305.634 -5.93676 -0.854941 0
M  V30 3202 H 307.313 -6.44663 -0.549448 0
M  V30 3203 N 307.445 0.0818655 -1.57387 0
M  V30 3204 C 308.355 1.11642 -2.06333 0
M  V30 3205 C 309.371 1.43033 -0.99083 0
M  V30 3206 O 310.547 1.53411 -1.30488 0
M  V30 3207 C 307.612 2.41342 -2.48907 0
M  V30 3208 C 306.673 2.17014 -3.7041 0
M  V30 3209 C 305.906 3.4053 -4.10944 0
M  V30 3210 O 306.129 4.4927 -3.51444 0
M  V30 3211 O 305.063 3.29336 -5.03807 0
M  V30 3212 H 308.889 0.730657 -2.9478 0
M  V30 3213 H 306.474 0.295301 -1.46452 0
M  V30 3214 H 308.356 3.17691 -2.76858 0
M  V30 3215 H 307.031 2.79319 -1.63593 0
M  V30 3216 H 305.938 1.38403 -3.47556 0
M  V30 3217 H 307.271 1.83923 -4.56545 0
M  V30 3218 N 308.923 1.53595 0.353017 0
M  V30 3219 C 310.163 1.72094 1.10286 0
M  V30 3220 C 310.527 0.469217 1.86178 0
M  V30 3221 O 311.728 0.531083 2.63501 0
M  V30 3222 C 309.999 2.94386 2.02661 0
M  V30 3223 S 311.558 3.33651 2.84996 0
M  V30 3224 H 308.376 0.605433 0.372789 0
M  V30 3225 H 310.978 1.91722 0.38248 0
M  V30 3226 H 309.682 3.83669 1.45691 0
M  V30 3227 H 309.213 2.77197 2.79152 0
M  V30 3228 H 311.228 2.86645 4.0503 0
M  V30 3229 N 310.401 -0.613514 1.45168 0
M  V30 3230 C 311.626 -1.40437 1.52618 0
M  V30 3231 C 312.051 -1.87438 0.157707 0
M  V30 3232 O 311.409 -1.59791 -0.856537 0
M  V30 3233 C 311.457 -2.58894 2.51011 0
M  V30 3234 O 310.561 -3.59326 2.02382 0
M  V30 3235 H 309.902 -0.419506 0.514695 0
M  V30 3236 H 312.432 -0.747215 1.90467 0
M  V30 3237 H 312.442 -3.06214 2.69624 0
M  V30 3238 H 311.117 -2.24032 3.50403 0
M  V30 3239 H 309.694 -3.18695 1.93618 0
M  V30 3240 N 311.879 -1.3236 -0.855495 0
M  V30 3241 C 312.809 -1.23833 -1.97958 0
M  V30 3242 C 313.79 -0.122361 -1.69659 0
M  V30 3243 O 314.975 -0.30939 -1.9172 0
M  V30 3244 C 312.105 -0.959772 -3.33775 0
M  V30 3245 C 311.059 -2.03689 -3.76424 0
M  V30 3246 C 310.385 -1.61075 -5.09862 0
M  V30 3247 C 311.685 -3.4518 -3.9198 0
M  V30 3248 H 313.379 -2.1788 -2.0535 0
M  V30 3249 H 310.925 -1.04891 -0.986605 0
M  V30 3250 H 312.878 -0.886678 -4.11966 0
M  V30 3251 H 311.602 0.0163404 -3.26596 0
M  V30 3252 H 310.261 -2.10012 -3.00484 0
M  V30 3253 H 309.909 -0.622107 -4.99138 0
M  V30 3254 H 309.609 -2.33143 -5.39368 0
M  V30 3255 H 311.133 -1.55201 -5.90546 0
M  V30 3256 H 312.547 -3.4145 -4.60526 0
M  V30 3257 H 310.944 -4.1559 -4.32903 0
M  V30 3258 H 312.014 -3.84903 -2.94919 0
M  V30 3259 N 313.357 1.07166 -1.15556 0
M  V30 3260 C 314.289 2.14341 -0.811815 0
M  V30 3261 C 315.302 1.61835 0.177015 0
M  V30 3262 O 316.491 1.78439 -0.0464996 0
M  V30 3263 C 313.591 3.38387 -0.186481 0
M  V30 3264 C 312.764 4.20238 -1.21321 0
M  V30 3265 C 311.823 5.2266 -0.609302 0
M  V30 3266 O 310.849 5.54719 -1.27576 0
M  V30 3267 N 312.051 5.77306 0.608099 0
M  V30 3268 H 314.816 2.44431 -1.73417 0
M  V30 3269 H 312.377 1.23089 -1.0517 0
M  V30 3270 H 314.369 4.04044 0.230339 0
M  V30 3271 H 312.939 3.05994 0.639249 0
M  V30 3272 H 312.159 3.50369 -1.80652 0
M  V30 3273 H 313.447 4.71736 -1.90638 0
M  V30 3274 H 312.845 5.53513 1.1679 0
M  V30 3275 H 311.402 6.44583 0.96725 0
M  V30 3276 N 314.835 0.952656 1.25548 0
M  V30 3277 C 316.082 0.606373 1.93208 0
M  V30 3278 C 316.41 -0.85631 1.74636 0
M  V30 3279 O 315.665 -1.62951 1.08376 0
M  V30 3280 C 315.964 0.908818 3.45652 0
M  V30 3281 C 315.63 2.35722 3.84378 0
M  V30 3282 C 314.292 2.75312 3.9466 0
M  V30 3283 C 316.644 3.29793 4.03591 0
M  V30 3284 C 313.972 4.08047 4.21562 0
M  V30 3285 C 316.324 4.62138 4.31985 0
M  V30 3286 C 314.988 5.01528 4.40484 0
M  V30 3287 H 314.258 0.221888 0.706998 0
M  V30 3288 H 316.905 1.20132 1.49133 0
M  V30 3289 H 315.21 0.231456 3.91116 0
M  V30 3290 H 316.907 0.619498 3.96186 0
M  V30 3291 H 313.497 2.04017 3.76928 0
M  V30 3292 H 317.681 3.00397 3.95064 0
M  V30 3293 H 312.937 4.38212 4.26357 0
M  V30 3294 H 317.111 5.35012 4.45797 0
M  V30 3295 H 314.738 6.04406 4.61083 0
M  V30 3296 N 316.313 -1.40141 0.720998 0
M  V30 3297 C 317.724 -1.83678 0.334553 0
M  V30 3298 C 318.075 -1.6027 -1.13173 0
M  V30 3299 O 317.2 -1.08643 -1.87152 0
M  V30 3300 C 317.795 -3.33437 0.600437 0
M  V30 3301 C 316.354 -3.75447 0.267642 0
M  V30 3302 C 315.501 -2.63296 0.870097 0
M  V30 3303 H 318.452 -1.29331 0.919732 0
M  V30 3304 H 318.473 -3.80269 -0.132517 0
M  V30 3305 H 317.985 -3.50442 1.66768 0
M  V30 3306 H 316.086 -3.64035 -0.794329 0
M  V30 3307 H 316.199 -4.73344 0.74042 0
M  V30 3308 H 314.563 -2.52954 0.297739 0
M  V30 3309 H 315.346 -2.83112 1.94172 0
M  V30 3310 N 317.792 -0.46758 -1.50504 0
M  V30 3311 C 319.069 0.15003 -1.95024 0
M  V30 3312 C 319.449 1.57304 -1.40779 0
M  V30 3313 O 318.797 2.20281 -0.607319 0
M  V30 3314 C 319.007 0.0969324 -3.48865 0
M  V30 3315 C 320.355 0.287565 -4.23625 0
M  V30 3316 O 321.379 0.173678 -3.55776 0
M  V30 3317 O 320.238 0.517186 -5.44047 0
M  V30 3318 H 317.332 0.113582 -0.819163 0
M  V30 3319 H 319.878 -0.52773 -1.61286 0
M  V30 3320 H 318.65 -0.896732 -3.80886 0
M  V30 3321 H 318.273 0.816303 -3.8913 0
M  V30 3322 N 319.27 1.56325 -0.20005 0
M  V30 3323 C 320.547 1.89484 0.48529 0
M  V30 3324 C 320.927 1.1143 1.79294 0
M  V30 3325 O 320.275 0.216919 2.27468 0
M  V30 3326 C 320.485 3.41923 0.699243 0
M  V30 3327 C 321.833 4.12256 1.01638 0
M  V30 3328 O 322.857 3.47402 0.786792 0
M  V30 3329 O 321.716 5.26887 1.45095 0
M  V30 3330 H 318.81 0.787144 0.253639 0
M  V30 3331 H 321.356 1.67985 -0.240633 0
M  V30 3332 H 320.128 3.90658 -0.224008 0
M  V30 3333 H 319.751 3.69131 1.47744 0
M  V30 3334 N 320.748 -0.0735177 1.57428 0
M  V30 3335 C 322.025 -0.805903 1.78226 0
M  V30 3336 C 322.405 -1.95874 0.787189 0
M  V30 3337 O 321.753 -2.2779 -0.180029 0
M  V30 3338 C 321.963 -1.28045 3.24662 0
M  V30 3339 C 323.311 -1.71453 3.88444 0
M  V30 3340 O 324.335 -1.37616 3.28543 0
M  V30 3341 O 323.194 -2.34093 4.93825 0
M  V30 3342 H 320.288 -0.386041 0.73137 0
M  V30 3343 H 322.834 -0.0537269 1.69615 0
M  V30 3344 H 321.606 -0.455476 3.8864 0
M  V30 3345 H 321.229 -2.094 3.37991 0
M  V30 3346 N 322.226 -1.5378 -0.344866 0
M  V30 3347 C 323.456 -1.74646 -1.10374 0
M  V30 3348 C 323.864 -0.48491 -1.8288 0
M  V30 3349 O 323.207 0.553062 -1.75177 0
M  V30 3350 C 323.269 -2.87145 -2.16306 0
M  V30 3351 C 322.933 -4.26795 -1.63386 0
M  V30 3352 C 323.93 -5.08412 -1.08688 0
M  V30 3353 C 321.615 -4.73276 -1.68272 0
M  V30 3354 C 323.609 -6.34609 -0.595792 0
M  V30 3355 C 321.296 -5.99446 -1.18776 0
M  V30 3356 C 322.294 -6.79946 -0.645215 0
M  V30 3357 O 321.982 -8.03745 -0.157626 0
M  V30 3358 H 321.714 -0.587112 -0.335075 0
M  V30 3359 H 324.268 -2.01403 -0.403252 0
M  V30 3360 H 322.498 -2.55909 -2.89909 0
M  V30 3361 H 324.187 -2.95992 -2.77747 0
M  V30 3362 H 324.953 -4.73666 -1.04236 0
M  V30 3363 H 320.832 -4.10677 -2.09442 0
M  V30 3364 H 324.376 -6.97389 -0.171654 0
M  V30 3365 H 320.273 -6.33687 -1.22928 0
M  V30 3366 H 321.041 -8.18038 -0.275037 0
M  V30 3367 N 323.704 0.605807 -1.45491 0
M  V30 3368 C 324.929 1.39625 -1.53361 0
M  V30 3369 C 325.354 1.87351 -0.167645 0
M  V30 3370 O 324.712 1.60243 0.848051 0
M  V30 3371 C 324.76 2.57559 -2.5238 0
M  V30 3372 O 323.864 3.58248 -2.04285 0
M  V30 3373 H 323.205 0.416771 -0.516912 0
M  V30 3374 H 325.735 0.737103 -1.90861 0
M  V30 3375 H 325.745 3.0478 -2.71244 0
M  V30 3376 H 324.42 2.22171 -3.51586 0
M  V30 3377 H 322.997 3.17664 -1.95305 0
M  V30 3378 N 325.182 1.32811 0.848464 0
M  V30 3379 C 326.428 1.24917 1.60522 0
M  V30 3380 C 326.783 -0.185761 1.91501 0
M  V30 3381 O 326.076 -1.12524 1.55077 0
M  V30 3382 C 326.27 2.04831 2.92881 0
M  V30 3383 C 326.099 3.55949 2.74828 0
M  V30 3384 C 324.869 4.25277 2.72887 0
M  V30 3385 C 327.067 4.50476 2.48145 0
M  V30 3386 N 325.049 5.62408 2.46111 0
M  V30 3387 C 326.42 5.75427 2.30832 0
M  V30 3388 C 328.475 4.39665 2.33664 0
M  V30 3389 C 327.178 6.90789 2.00508 0
M  V30 3390 C 329.204 5.54833 2.04731 0
M  V30 3391 C 328.566 6.78787 1.88223 0
M  V30 3392 H 324.665 0.512279 0.590842 0
M  V30 3393 H 327.249 1.67246 0.996839 0
M  V30 3394 H 325.42 1.64837 3.51686 0
M  V30 3395 H 327.152 1.88782 3.57971 0
M  V30 3396 H 323.907 3.77456 2.86049 0
M  V30 3397 H 324.331 6.3467 2.35634 0
M  V30 3398 H 328.973 3.44477 2.45144 0
M  V30 3399 H 326.691 7.85984 1.87765 0
M  V30 3400 H 330.277 5.48398 1.94295 0
M  V30 3401 H 329.157 7.66396 1.66155 0
M  V30 3402 N 326.66 -1.06551 1.16123 0
M  V30 3403 C 327.906 -1.79719 0.952505 0
M  V30 3404 C 328.261 -1.85396 -0.514385 0
M  V30 3405 O 327.554 -1.33263 -1.37665 0
M  V30 3406 C 327.748 -3.23911 1.51052 0
M  V30 3407 C 327.577 -3.32284 3.03013 0
M  V30 3408 C 326.347 -3.42371 3.71632 0
M  V30 3409 C 328.545 -3.22363 4.00732 0
M  V30 3410 N 326.527 -3.39732 5.11327 0
M  V30 3411 C 327.898 -3.26937 5.26794 0
M  V30 3412 C 329.953 -3.0623 3.92591 0
M  V30 3413 C 328.656 -3.17035 6.45663 0
M  V30 3414 C 330.682 -2.97665 5.11028 0
M  V30 3415 C 330.044 -3.02858 6.35969 0
M  V30 3416 H 326.143 -0.670585 0.402293 0
M  V30 3417 H 328.727 -1.27125 1.4747 0
M  V30 3418 H 326.898 -3.74907 1.01484 0
M  V30 3419 H 328.63 -3.85242 1.2398 0
M  V30 3420 H 325.385 -3.47058 3.22254 0
M  V30 3421 H 325.809 -3.41919 5.84312 0
M  V30 3422 H 330.451 -3.01063 2.96852 0
M  V30 3423 H 328.169 -3.2096 7.41627 0
M  V30 3424 H 331.755 -2.86273 5.06497 0
M  V30 3425 H 330.635 -2.96286 7.26075 0
M  V30 3426 N 328.138 -0.959301 -1.25041 0
M  V30 3427 C 329.415 -0.533805 -1.88175 0
M  V30 3428 C 329.795 0.988994 -1.865 0
M  V30 3429 O 329.143 1.85677 -1.33177 0
M  V30 3430 C 329.353 -1.11575 -3.30684 0
M  V30 3431 C 330.701 -1.19548 -4.07423 0
M  V30 3432 O 331.725 -1.06765 -3.39823 0
M  V30 3433 O 330.584 -1.39656 -5.28354 0
M  V30 3434 H 327.678 -0.176772 -0.807887 0
M  V30 3435 H 330.224 -1.05303 -1.33076 0
M  V30 3436 H 328.996 -2.15884 -3.26358 0
M  V30 3437 H 328.619 -0.580059 -3.93346 0
M  V30 3438 N 329.616 1.39756 -0.72842 0
M  V30 3439 C 330.546 2.33289 -0.0991354 0
M  V30 3440 C 331.527 1.53568 0.731489 0
M  V30 3441 O 332.712 1.81987 0.677807 0
M  V30 3442 C 329.842 3.3763 0.813834 0
M  V30 3443 C 328.796 4.2791 0.0878663 0
M  V30 3444 C 328.122 5.22894 1.11741 0
M  V30 3445 C 329.422 5.11314 -1.06563 0
M  V30 3446 H 331.116 2.86163 -0.880408 0
M  V30 3447 H 328.662 1.37591 -0.424819 0
M  V30 3448 H 330.615 4.0201 1.26355 0
M  V30 3449 H 329.339 2.83181 1.62715 0
M  V30 3450 H 327.998 3.65 -0.342159 0
M  V30 3451 H 327.646 4.64744 1.92412 0
M  V30 3452 H 327.346 5.84143 0.636477 0
M  V30 3453 H 328.87 5.90151 1.56697 0
M  V30 3454 H 330.284 5.69076 -0.694671 0
M  V30 3455 H 328.681 5.81671 -1.47577 0
M  V30 3456 H 329.751 4.46534 -1.89038 0
M  V30 3457 N 331.094 0.475555 1.50254 0
M  V30 3458 C 332.341 -0.0778919 2.0235 0
M  V30 3459 C 332.669 -1.39319 1.35722 0
M  V30 3460 O 331.924 -1.89888 0.473395 0
M  V30 3461 C 332.223 -0.305114 3.56095 0
M  V30 3462 C 331.889 0.92903 4.41225 0
M  V30 3463 C 330.551 1.26739 4.6421 0
M  V30 3464 C 332.903 1.75054 4.90923 0
M  V30 3465 C 330.231 2.42724 5.34137 0
M  V30 3466 C 332.583 2.9017 5.62125 0
M  V30 3467 C 331.247 3.24416 5.83362 0
M  V30 3468 H 330.517 -0.0285027 0.740452 0
M  V30 3469 H 333.164 0.630543 1.80821 0
M  V30 3470 H 331.469 -1.09584 3.76163 0
M  V30 3471 H 333.166 -0.747377 3.93974 0
M  V30 3472 H 329.756 0.655428 4.23559 0
M  V30 3473 H 333.94 1.50231 4.73016 0
M  V30 3474 H 329.196 2.69525 5.48786 0
M  V30 3475 H 333.37 3.54169 5.99614 0
M  V30 3476 H 330.997 4.14396 6.37323 0
M  V30 3477 N 332.573 -1.56217 0.208337 0
M  V30 3478 C 333.506 -2.15633 -0.746842 0
M  V30 3479 C 334.484 -1.09685 -1.20034 0
M  V30 3480 O 335.668 -1.3787 -1.28547 0
M  V30 3481 C 332.795 -2.72594 -2.01023 0
M  V30 3482 C 331.841 -3.91251 -1.69779 0
M  V30 3483 S 332.674 -5.28962 -0.834209 0
M  V30 3484 C 333.83 -5.89353 -2.10745 0
M  V30 3485 H 334.063 -2.96315 -0.241789 0
M  V30 3486 H 331.596 -1.54398 -0.00682183 0
M  V30 3487 H 333.554 -3.06053 -2.73572 0
M  V30 3488 H 332.215 -1.91929 -2.48641 0
M  V30 3489 H 331.408 -4.29562 -2.63614 0
M  V30 3490 H 331.01 -3.58869 -1.05303 0
M  V30 3491 H 333.302 -6.04522 -3.05875 0
M  V30 3492 H 334.245 -6.85661 -1.76845 0
M  V30 3493 H 334.653 -5.1807 -2.24196 0
M  V30 3494 N 334.051 0.0651679 -1.57465 0
M  V30 3495 C 334.998 1.07675 -2.04144 0
M  V30 3496 C 335.968 1.38071 -0.923335 0
M  V30 3497 O 337.153 1.49026 -1.19146 0
M  V30 3498 C 334.293 2.38337 -2.49579 0
M  V30 3499 C 333.406 2.14413 -3.75035 0
M  V30 3500 C 332.541 3.38686 -4.09225 0
M  V30 3501 C 331.58 3.10156 -5.27702 0
M  V30 3502 N 330.717 4.26778 -5.57499 0
M  V30 3503 H 335.557 0.671716 -2.90331 0
M  V30 3504 H 333.094 0.3201 -1.43575 0
M  V30 3505 H 335.052 3.14632 -2.73975 0
M  V30 3506 H 333.682 2.7663 -1.6636 0
M  V30 3507 H 332.734 1.2878 -3.57939 0
M  V30 3508 H 334.046 1.89344 -4.61466 0
M  V30 3509 H 333.2 4.23373 -4.34558 0
M  V30 3510 H 331.939 3.66837 -3.21374 0
M  V30 3511 H 330.944 2.23866 -5.02159 0
M  V30 3512 H 332.169 2.8332 -6.17176 0
M  V30 3513 H 330.115 4.54948 -4.72608 0
M  V30 3514 H 330.032 4.05005 -6.38362 0
M  V30 3515 H 331.3 5.12443 -5.87386 0
M  V30 3516 N 335.529 1.53961 0.336706 0
M  V30 3517 C 336.778 1.70751 1.07363 0
M  V30 3518 C 337.091 0.481061 1.89592 0
M  V30 3519 O 338.297 0.530046 2.66276 0
M  V30 3520 C 336.753 3.01965 1.95818 0
M  V30 3521 C 336.361 4.31971 1.18764 0
M  V30 3522 C 338.105 3.28121 2.69327 0
M  V30 3523 C 336.012 5.54255 2.06289 0
M  V30 3524 H 334.942 0.636292 0.404535 0
M  V30 3525 H 337.593 1.80459 0.332681 0
M  V30 3526 H 335.975 2.86132 2.7376 0
M  V30 3527 H 337.149 4.5853 0.456849 0
M  V30 3528 H 335.464 4.12481 0.569946 0
M  V30 3529 H 338.061 4.16673 3.35094 0
M  V30 3530 H 338.404 2.45426 3.36261 0
M  V30 3531 H 338.937 3.44762 1.98454 0
M  V30 3532 H 335.676 6.39513 1.43885 0
M  V30 3533 H 335.196 5.31935 2.77138 0
M  V30 3534 H 336.875 5.90159 2.65182 0
M  V30 3535 N 337.007 -0.598083 1.45811 0
M  V30 3536 C 338.247 -1.36802 1.5187 0
M  V30 3537 C 338.611 -1.9133 0.160224 0
M  V30 3538 O 339.812 -2.6863 0.0955302 0
M  V30 3539 C 338.083 -2.47835 2.57513 0
M  V30 3540 S 339.642 -3.35458 2.82866 0
M  V30 3541 H 336.46 -0.466278 0.536755 0
M  V30 3542 H 339.062 -0.689152 1.82951 0
M  V30 3543 H 337.766 -2.06141 3.54872 0
M  V30 3544 H 337.297 -3.20512 2.28114 0
M  V30 3545 H 339.312 -4.46251 2.16967 0
M  V30 3546 N 338.485 -1.33259 -0.841409 0
M  V30 3547 C 339.731 -1.24757 -1.59886 0
M  V30 3548 C 340.064 0.186913 -1.93298 0
M  V30 3549 O 339.339 1.12757 -1.5848 0
M  V30 3550 C 339.622 -2.12036 -2.91055 0
M  V30 3551 C 339.475 -3.63929 -2.6434 0
M  V30 3552 C 340.794 -1.9916 -3.92458 0
M  V30 3553 H 337.913 -0.454542 -0.580138 0
M  V30 3554 H 340.555 -1.63335 -0.970647 0
M  V30 3555 H 338.705 -1.79265 -3.44669 0
M  V30 3556 H 340.377 -4.06978 -2.17178 0
M  V30 3557 H 338.62 -3.85935 -1.98082 0
M  V30 3558 H 339.291 -4.20341 -3.57796 0
M  V30 3559 H 341.767 -2.27895 -3.48143 0
M  V30 3560 H 340.643 -2.62484 -4.82072 0
M  V30 3561 H 340.904 -0.963082 -4.31482 0
M  V30 3562 N 339.963 1.05934 -1.16686 0
M  V30 3563 C 341.21 1.788 -0.950622 0
M  V30 3564 C 341.538 1.87384 0.521305 0
M  V30 3565 O 340.793 1.36438 1.40297 0
M  V30 3566 C 341.092 3.23105 -1.52767 0
M  V30 3567 C 340.758 3.34594 -3.02254 0
M  V30 3568 C 339.42 3.37437 -3.43059 0
M  V30 3569 C 341.772 3.36219 -3.98254 0
M  V30 3570 C 339.1 3.39525 -4.78477 0
M  V30 3571 C 341.452 3.39845 -5.33562 0
M  V30 3572 C 340.116 3.40971 -5.73842 0
M  V30 3573 H 339.386 0.654275 -0.347857 0
M  V30 3574 H 342.033 1.24555 -1.45459 0
M  V30 3575 H 340.338 3.80227 -0.94524 0
M  V30 3576 H 342.035 3.7809 -1.336 0
M  V30 3577 H 338.625 3.3309 -2.6972 0
M  V30 3578 H 342.809 3.33231 -3.67792 0
M  V30 3579 H 338.065 3.38703 -5.09009 0
M  V30 3580 H 342.239 3.4005 -6.07733 0
M  V30 3581 H 339.866 3.42342 -6.78753 0
M  V30 3582 N 341.441 0.965919 1.2453 0
M  V30 3583 C 342.69 0.622437 1.91856 0
M  V30 3584 C 343.003 -0.846006 1.76358 0
M  V30 3585 O 344.209 -1.29993 2.38357 0
M  V30 3586 C 342.665 1.0626 3.43856 0
M  V30 3587 C 342.273 2.55437 3.68043 0
M  V30 3588 C 344.017 0.792183 4.17043 0
M  V30 3589 C 341.924 2.93196 5.13605 0
M  V30 3590 H 340.854 0.229092 0.718354 0
M  V30 3591 H 343.505 1.17189 1.41206 0
M  V30 3592 H 341.887 0.441476 3.93531 0
M  V30 3593 H 343.061 3.22665 3.28974 0
M  V30 3594 H 341.376 2.8007 3.08139 0
M  V30 3595 H 343.973 1.05031 5.24283 0
M  V30 3596 H 344.316 -0.271584 4.15413 0
M  V30 3597 H 344.849 1.37419 3.73311 0
M  V30 3598 H 341.588 3.98636 5.20355 0
M  V30 3599 H 341.108 2.30651 5.53679 0
M  V30 3600 H 342.787 2.83004 5.81823 0
M  V30 3601 N 342.919 -1.39368 0.735821 0
M  V30 3602 C 344.166 -2.00497 0.284123 0
M  V30 3603 C 344.494 -1.58387 -1.12889 0
M  V30 3604 O 343.749 -0.804359 -1.78406 0
M  V30 3605 C 344.048 -3.5583 0.334651 0
M  V30 3606 C 343.714 -4.17593 1.7008 0
M  V30 3607 C 342.376 -4.34176 2.07472 0
M  V30 3608 C 344.728 -4.51848 2.59775 0
M  V30 3609 C 342.056 -4.82304 3.34065 0
M  V30 3610 C 344.408 -5.01384 3.85741 0
M  V30 3611 C 343.072 -5.16175 4.23225 0
M  V30 3612 H 342.342 -0.73367 0.103968 0
M  V30 3613 H 344.989 -1.66683 0.942825 0
M  V30 3614 H 343.294 -3.89674 -0.407625 0
M  V30 3615 H 344.991 -4.00986 -0.0329927 0
M  V30 3616 H 341.581 -4.05087 1.40008 0
M  V30 3617 H 345.765 -4.38653 2.32157 0
M  V30 3618 H 341.021 -4.91941 3.63049 0
M  V30 3619 H 345.195 -5.26863 4.55399 0
M  V30 3620 H 342.822 -5.5323 5.21384 0
M  V30 3621 N 344.397 -0.483516 -1.5 0
M  V30 3622 C 345.36 0.292965 -2.2732 0
M  V30 3623 C 346.36 0.909499 -1.32608 0
M  V30 3624 O 347.55 0.776745 -1.55924 0
M  V30 3625 C 344.682 1.41854 -3.09984 0
M  V30 3626 H 345.875 -0.385289 -2.97415 0
M  V30 3627 H 343.428 -0.237942 -1.54478 0
M  V30 3628 H 344.163 2.13148 -2.44414 0
M  V30 3629 H 343.948 0.982114 -3.79601 0
M  V30 3630 H 345.438 1.96597 -3.68429 0
M  V30 3631 N 345.875 1.56104 -0.216619 0
M  V30 3632 C 347.122 1.98172 0.416416 0
M  V30 3633 C 347.45 1.10413 1.60122 0
M  V30 3634 O 346.705 0.147967 1.9514 0
M  V30 3635 C 347.004 3.45923 0.898464 0
M  V30 3636 C 346.67 4.50559 -0.175288 0
M  V30 3637 C 345.332 4.78897 -0.470271 0
M  V30 3638 C 347.684 5.1334 -0.901728 0
M  V30 3639 C 345.012 5.67299 -1.4963 0
M  V30 3640 C 347.364 6.02853 -1.91705 0
M  V30 3641 C 346.028 6.29537 -2.21901 0
M  V30 3642 H 345.298 0.725164 0.152377 0
M  V30 3643 H 347.945 1.88839 -0.318103 0
M  V30 3644 H 346.25 3.52434 1.71165 0
M  V30 3645 H 347.947 3.75841 1.39803 0
M  V30 3646 H 344.537 4.28551 0.0647806 0
M  V30 3647 H 348.721 4.91521 -0.687072 0
M  V30 3648 H 343.977 5.86239 -1.73592 0
M  V30 3649 H 348.151 6.50552 -2.48505 0
M  V30 3650 H 345.778 6.97835 -3.01548 0
M  V30 3651 N 347.353 -0.0568162 1.57498 0
M  V30 3652 C 348.599 -0.75422 1.88253 0
M  V30 3653 C 348.932 -1.76461 0.810865 0
M  V30 3654 O 348.207 -1.93691 -0.177259 0
M  V30 3655 C 348.49 -1.44878 3.2967 0
M  V30 3656 C 348.343 -0.453789 4.47505 0
M  V30 3657 C 349.662 -2.38994 3.69554 0
M  V30 3658 H 346.781 -0.272724 0.684683 0
M  V30 3659 H 349.423 -0.0172113 1.89992 0
M  V30 3660 H 347.573 -2.077 3.28318 0
M  V30 3661 H 349.245 0.170371 4.60985 0
M  V30 3662 H 347.488 0.229552 4.33192 0
M  V30 3663 H 348.159 -0.977699 5.43273 0
M  V30 3664 H 350.635 -1.86239 3.72095 0
M  V30 3665 H 349.511 -2.84587 4.69363 0
M  V30 3666 H 349.772 -3.24461 3.00296 0
M  V30 3667 N 348.832 -1.54138 -0.328536 0
M  V30 3668 C 350.081 -1.71318 -1.06456 0
M  V30 3669 C 350.394 -0.491109 -1.89334 0
M  V30 3670 O 351.6 -0.54416 -2.65991 0
M  V30 3671 C 350.056 -3.03 -1.94214 0
M  V30 3672 C 349.664 -4.32595 -1.16471 0
M  V30 3673 C 351.408 -3.29544 -2.67583 0
M  V30 3674 C 349.315 -5.55341 -2.03347 0
M  V30 3675 H 348.245 -0.638429 -0.401155 0
M  V30 3676 H 350.896 -1.80633 -0.323106 0
M  V30 3677 H 349.278 -2.87579 -2.72239 0
M  V30 3678 H 350.452 -4.58766 -0.432525 0
M  V30 3679 H 348.767 -4.12777 -0.548063 0
M  V30 3680 H 351.364 -4.18444 -3.3288 0
M  V30 3681 H 351.707 -2.47206 -3.34955 0
M  V30 3682 H 352.24 -3.45809 -1.96623 0
M  V30 3683 H 348.979 -6.40268 -1.40491 0
M  V30 3684 H 348.499 -5.33397 -2.74313 0
M  V30 3685 H 350.178 -5.91557 -2.62049 0
M  V30 3686 N 350.31 0.590341 -1.46126 0
M  V30 3687 C 351.721 1.17243 -1.45296 0
M  V30 3688 C 352.072 1.95281 -0.189723 0
M  V30 3689 O 351.197 2.04502 0.707674 0
M  V30 3690 C 351.792 2.13284 -2.6324 0
M  V30 3691 C 350.351 2.66832 -2.65476 0
M  V30 3692 C 349.498 1.42557 -2.3785 0
M  V30 3693 H 352.449 0.378692 -1.54116 0
M  V30 3694 H 352.47 2.96619 -2.38323 0
M  V30 3695 H 351.982 1.56459 -3.55165 0
M  V30 3696 H 350.083 3.27548 -1.77603 0
M  V30 3697 H 350.196 3.10088 -3.65215 0
M  V30 3698 H 348.56 1.72107 -1.87753 0
M  V30 3699 H 349.343 0.875741 -3.31942 0
M  V30 3700 N 351.788 1.33704 0.83433 0
M  V30 3701 C 353.034 1.25603 1.59222 0
M  V30 3702 C 353.367 -0.176659 1.93395 0
M  V30 3703 O 352.642 -1.11915 1.59076 0
M  V30 3704 C 352.925 2.13576 2.89926 0
M  V30 3705 C 352.778 3.65326 2.62406 0
M  V30 3706 C 354.097 2.01238 3.91397 0
M  V30 3707 H 351.216 0.457613 0.577719 0
M  V30 3708 H 353.858 1.63848 0.961972 0
M  V30 3709 H 352.008 1.8109 3.43713 0
M  V30 3710 H 353.68 4.08124 2.15017 0
M  V30 3711 H 351.923 3.8698 1.96033 0
M  V30 3712 H 352.594 4.22232 3.55562 0
M  V30 3713 H 355.07 2.29738 3.46929 0
M  V30 3714 H 353.946 2.65036 4.80673 0
M  V30 3715 H 354.207 0.985951 4.30966 0
M  V30 3716 N 353.266 -1.05314 1.17247 0
M  V30 3717 C 354.196 -2.1498 0.911362 0
M  V30 3718 C 355.177 -1.69471 -0.146169 0
M  V30 3719 O 356.362 -1.942 0.003812 0
M  V30 3720 C 353.492 -3.4472 0.422528 0
M  V30 3721 C 352.446 -4.03789 1.4191 0
M  V30 3722 C 351.772 -5.28858 0.788274 0
M  V30 3723 C 353.072 -4.41418 2.7919 0
M  V30 3724 H 354.766 -2.3708 1.82848 0
M  V30 3725 H 352.312 -1.13938 0.880569 0
M  V30 3726 H 354.265 -4.20787 0.227289 0
M  V30 3727 H 352.989 -3.22269 -0.530123 0
M  V30 3728 H 351.648 -3.2979 1.60106 0
M  V30 3729 H 351.296 -5.02709 -0.171173 0
M  V30 3730 H 350.996 -5.69338 1.45353 0
M  V30 3731 H 352.52 -6.07612 0.603282 0
M  V30 3732 H 353.934 -5.08524 2.64719 0
M  V30 3733 H 352.331 -4.92913 3.42282 0
M  V30 3734 H 353.401 -3.51819 3.33693 0
M  V30 3735 N 354.744 -0.972509 -1.24016 0
M  V30 3736 C 355.993 -0.632603 -1.91523 0
M  V30 3737 C 356.306 0.836641 -1.76804 0
M  V30 3738 O 357.512 1.28728 -2.39043 0
M  V30 3739 C 355.968 -1.08082 -3.43287 0
M  V30 3740 C 355.576 -2.57386 -3.66683 0
M  V30 3741 C 357.32 -0.814288 -4.16617 0
M  V30 3742 C 355.227 -2.95915 -5.12043 0
M  V30 3743 H 354.157 -0.232898 -0.717129 0
M  V30 3744 H 356.808 -1.17936 -1.40582 0
M  V30 3745 H 355.19 -0.462339 -3.93292 0
M  V30 3746 H 356.364 -3.24405 -3.27258 0
M  V30 3747 H 354.679 -2.81701 -3.06649 0
M  V30 3748 H 357.276 -1.0781 -5.23718 0
M  V30 3749 H 357.619 0.24955 -4.15551 0
M  V30 3750 H 358.152 -1.39397 -3.72577 0
M  V30 3751 H 354.891 -4.0139 -5.18234 0
M  V30 3752 H 354.411 -2.33584 -5.52448 0
M  V30 3753 H 356.09 -2.86086 -5.80314 0
M  V30 3754 N 356.222 1.38976 -0.743202 0
M  V30 3755 C 357.471 1.99581 -0.291592 0
M  V30 3756 C 357.784 1.59656 1.13001 0
M  V30 3757 O 358.99 2.13157 1.68156 0
M  V30 3758 C 357.446 3.56813 -0.470391 0
M  V30 3759 C 357.054 4.05695 -1.90041 0
M  V30 3760 C 358.798 4.24423 -0.0809709 0
M  V30 3761 C 356.705 5.5553 -2.02832 0
M  V30 3762 H 355.635 0.746615 -0.105272 0
M  V30 3763 H 358.286 1.58872 -0.918258 0
M  V30 3764 H 356.668 3.95359 0.225299 0
M  V30 3765 H 357.842 3.78464 -2.62872 0
M  V30 3766 H 356.157 3.50775 -2.24379 0
M  V30 3767 H 358.754 5.34474 -0.155445 0
M  V30 3768 H 359.097 4.04962 0.96497 0
M  V30 3769 H 359.63 3.9108 -0.728124 0
M  V30 3770 H 356.369 5.79881 -3.05643 0
M  V30 3771 H 355.889 5.84537 -1.34448 0
M  V30 3772 H 357.568 6.21069 -1.81335 0
M  V30 3773 N 357.7 0.491464 1.49741 0
M  V30 3774 C 358.949 -0.0582189 2.01616 0
M  V30 3775 C 359.262 -1.38927 1.3769 0
M  V30 3776 O 360.468 -2.02509 1.80838 0
M  V30 3777 C 358.924 -0.154235 3.59569 0
M  V30 3778 C 358.532 1.1696 4.32463 0
M  V30 3779 C 360.276 -0.65479 4.1942 0
M  V30 3780 C 358.183 1.03627 5.8225 0
M  V30 3781 H 357.113 -0.0255317 0.753568 0
M  V30 3782 H 359.764 0.629445 1.72367 0
M  V30 3783 H 358.146 -0.906138 3.85493 0
M  V30 3784 H 359.32 1.93405 4.18248 0
M  V30 3785 H 357.635 1.60285 3.84315 0
M  V30 3786 H 360.232 -0.771903 5.29099 0
M  V30 3787 H 360.575 -1.65127 3.8215 0
M  V30 3788 H 361.108 0.040304 3.9778 0
M  V30 3789 H 357.847 2.00672 6.24028 0
M  V30 3790 H 357.367 0.312546 5.98985 0
M  V30 3791 H 359.046 0.711114 6.4308 0
M  V30 3792 N 359.178 -1.55987 0.224894 0
M  V30 3793 C 360.424 -1.98684 -0.406502 0
M  V30 3794 C 360.757 -1.11248 -1.59177 0
M  V30 3795 O 360.032 -0.170909 -1.93748 0
M  V30 3796 C 360.315 -3.50218 -0.837808 0
M  V30 3797 C 360.168 -4.48426 0.351332 0
M  V30 3798 C 361.487 -4.06243 -1.69278 0
M  V30 3799 H 358.606 -0.722337 -0.146283 0
M  V30 3800 H 361.248 -1.87255 0.321799 0
M  V30 3801 H 359.398 -3.60089 -1.45837 0
M  V30 3802 H 361.07 -4.50562 0.989526 0
M  V30 3803 H 359.313 -4.22159 0.998207 0
M  V30 3804 H 359.984 -5.52 0.00655905 0
M  V30 3805 H 362.46 -3.99337 -1.16914 0
M  V30 3806 H 361.336 -5.12581 -1.96346 0
M  V30 3807 H 361.597 -3.53332 -2.65723 0
M  V30 3808 N 360.656 0.0484629 -1.57525 0
M  V30 3809 C 361.896 0.748196 -1.90214 0
M  V30 3810 C 362.26 1.73545 -0.821347 0
M  V30 3811 O 363.461 2.48201 -1.03198 0
M  V30 3812 C 361.732 1.41727 -3.28098 0
M  V30 3813 S 363.291 2.14884 -3.82584 0
M  V30 3814 H 360.109 0.248307 -0.666232 0
M  V30 3815 H 362.711 0.00343188 -1.955 0
M  V30 3816 H 361.415 0.685244 -4.04639 0
M  V30 3817 H 360.946 2.20099 -3.26068 0
M  V30 3818 H 362.961 3.41755 -3.59747 0
M  V30 3819 N 362.134 1.5431 0.320358 0
M  V30 3820 C 363.364 1.7638 1.07582 0
M  V30 3821 C 363.772 0.513944 1.82086 0
M  V30 3822 O 363.115 -0.525123 1.76035 0
M  V30 3823 C 363.177 2.9055 2.1171 0
M  V30 3824 C 362.841 4.2934 1.56575 0
M  V30 3825 C 363.838 5.10077 1.00586 0
M  V30 3826 C 361.523 4.75893 1.60722 0
M  V30 3827 C 363.517 6.35477 0.494756 0
M  V30 3828 C 361.204 6.0126 1.09224 0
M  V30 3829 C 362.202 6.80886 0.53696 0
M  V30 3830 O 361.89 8.03894 0.0297371 0
M  V30 3831 H 361.622 0.592369 0.325692 0
M  V30 3832 H 364.176 2.02019 0.37116 0
M  V30 3833 H 362.406 2.60489 2.85801 0
M  V30 3834 H 364.095 3.00373 2.73003 0
M  V30 3835 H 364.861 4.75265 0.966869 0
M  V30 3836 H 360.74 4.13957 2.02882 0
M  V30 3837 H 364.284 6.97574 0.0606842 0
M  V30 3838 H 360.181 6.35562 1.12831 0
M  V30 3839 H 360.949 8.18372 0.14486 0
M  V30 3840 N 363.613 -0.582584 1.46437 0
M  V30 3841 C 364.841 -1.36682 1.55324 0
M  V30 3842 C 365.256 -1.87796 0.194409 0
M  V30 3843 O 364.613 -1.63623 -0.808318 0
M  V30 3844 C 364.664 -2.55426 2.55812 0
M  V30 3845 O 364.385 -2.0643 3.86417 0
M  V30 3846 C 365.886 -3.47976 2.74641 0
M  V30 3847 H 363.106 -0.417545 0.525259 0
M  V30 3848 H 365.65 -0.708219 1.91845 0
M  V30 3849 H 363.805 -3.17275 2.22295 0
M  V30 3850 H 364.219 -2.83762 4.41111 0
M  V30 3851 H 365.693 -4.27775 3.48874 0
M  V30 3852 H 366.17 -3.99919 1.81553 0
M  V30 3853 H 366.776 -2.91962 3.09255 0
M  V30 3854 N 365.091 -1.34144 -0.827227 0
M  V30 3855 C 366.021 -1.28005 -1.95287 0
M  V30 3856 C 367.002 -0.158321 -1.69362 0
M  V30 3857 O 368.187 -0.349987 -1.9102 0
M  V30 3858 C 365.317 -1.03036 -3.31664 0
M  V30 3859 C 364.271 -2.11628 -3.72019 0
M  V30 3860 C 363.597 -1.71854 -5.0633 0
M  V30 3861 C 364.897 -3.53417 -3.8457 0
M  V30 3862 H 366.591 -2.22187 -2.00682 0
M  V30 3863 H 364.137 -1.0696 -0.964135 0
M  V30 3864 H 366.09 -0.973863 -4.09993 0
M  V30 3865 H 364.814 -0.0529391 -3.26557 0
M  V30 3866 H 363.473 -2.16339 -2.95961 0
M  V30 3867 H 363.121 -0.727841 -4.97706 0
M  V30 3868 H 362.821 -2.44531 -5.34302 0
M  V30 3869 H 364.345 -1.67692 -5.87122 0
M  V30 3870 H 365.759 -3.51142 -4.5318 0
M  V30 3871 H 364.156 -4.24679 -4.2399 0
M  V30 3872 H 365.226 -3.91072 -2.86689 0
M  V30 3873 N 366.569 1.04691 -1.17803 0
M  V30 3874 C 367.502 2.12068 -0.842765 0
M  V30 3875 C 368.48 1.61455 0.192608 0
M  V30 3876 O 369.664 1.88359 0.072995 0
M  V30 3877 C 366.791 3.37715 -0.258063 0
M  V30 3878 C 365.837 4.07164 -1.26962 0
M  V30 3879 S 366.67 4.55047 -2.82299 0
M  V30 3880 C 367.826 5.83935 -2.25323 0
M  V30 3881 H 368.059 2.4018 -1.75217 0
M  V30 3882 H 365.592 1.17366 -1.00323 0
M  V30 3883 H 367.55 4.10435 0.0727935 0
M  V30 3884 H 366.211 3.0773 0.629357 0
M  V30 3885 H 365.404 4.9746 -0.809263 0
M  V30 3886 H 365.006 3.40533 -1.54639 0
M  V30 3887 H 367.298 6.57552 -1.63192 0
M  V30 3888 H 368.241 6.34725 -3.13894 0
M  V30 3889 H 368.649 5.3874 -1.68582 0
M  V30 3890 N 368.047 0.979072 1.23499 0
M  V30 3891 C 369.296 0.642751 1.91185 0
M  V30 3892 C 369.609 -0.827253 1.77245 0
M  V30 3893 O 370.815 -1.27458 2.39722 0
M  V30 3894 C 369.271 1.09901 3.42709 0
M  V30 3895 C 368.879 2.59327 3.65313 0
M  V30 3896 C 370.623 0.836371 4.16179 0
M  V30 3897 C 368.53 2.98627 5.10467 0
M  V30 3898 H 367.46 0.236698 0.715884 0
M  V30 3899 H 370.111 1.1868 1.39955 0
M  V30 3900 H 368.493 0.48319 3.93041 0
M  V30 3901 H 369.667 3.26136 3.25533 0
M  V30 3902 H 367.982 2.83323 3.05151 0
M  V30 3903 H 370.579 1.10586 5.23139 0
M  V30 3904 H 370.922 -0.227509 4.15678 0
M  V30 3905 H 371.455 1.41371 3.71832 0
M  V30 3906 H 368.194 4.04133 5.16098 0
M  V30 3907 H 367.714 2.3651 5.51201 0
M  V30 3908 H 369.393 2.89159 5.78788 0
M  V30 3909 N 369.525 -1.3858 0.750561 0
M  V30 3910 C 370.455 -2.33102 0.136237 0
M  V30 3911 C 371.436 -1.54713 -0.706965 0
M  V30 3912 O 372.621 -1.83043 -0.648769 0
M  V30 3913 C 369.751 -3.38882 -0.760017 0
M  V30 3914 C 368.705 -4.27995 -0.0197785 0
M  V30 3915 C 368.031 -5.24605 -1.03408 0
M  V30 3916 C 369.331 -5.09554 1.14684 0
M  V30 3917 H 371.025 -2.84726 0.925822 0
M  V30 3918 H 368.571 -1.36898 0.446654 0
M  V30 3919 H 370.524 -4.0397 -1.19943 0
M  V30 3920 H 369.248 -2.85734 -1.58189 0
M  V30 3921 H 367.907 -3.64409 0.400184 0
M  V30 3922 H 367.555 -4.67746 -1.84994 0
M  V30 3923 H 367.255 -5.85081 -0.543464 0
M  V30 3924 H 368.779 -5.9257 -1.47288 0
M  V30 3925 H 370.193 -5.67899 0.785118 0
M  V30 3926 H 368.59 -5.7925 1.56812 0
M  V30 3927 H 369.66 -4.4347 1.96118 0
M  V30 3928 N 371.003 -0.499398 -1.49478 0
M  V30 3929 C 372.419 -0.155261 -1.58843 0
M  V30 3930 C 372.619 1.34008 -1.50479 0
M  V30 3931 O 371.675 2.11589 -1.37791 0
M  V30 3932 C 372.988 -0.730636 -2.91689 0
M  V30 3933 C 374.536 -0.696599 -3.0515 0
M  V30 3934 C 375.011 -1.25001 -4.40612 0
M  V30 3935 N 376.502 -1.21064 -4.47099 0
M  V30 3936 C 377.237 -1.60905 -5.50361 0
M  V30 3937 N 376.733 -2.08331 -6.60735 0
M  V30 3938 N 378.526 -1.52331 -5.41065 0
M  V30 3939 H 370.677 -1.47162 -1.53158 0
M  V30 3940 H 372.94 -0.610309 -0.725415 0
M  V30 3941 H 372.646 -1.77928 -3.03372 0
M  V30 3942 H 372.52 -0.190161 -3.7672 0
M  V30 3943 H 374.907 0.343204 -2.93097 0
M  V30 3944 H 374.988 -1.2742 -2.21806 0
M  V30 3945 H 374.632 -2.28859 -4.53416 0
M  V30 3946 H 374.562 -0.64836 -5.22593 0
M  V30 3947 H 377.053 -0.863128 -3.67911 0
M  V30 3948 H 377.366 -2.36805 -7.35624 0
M  V30 3949 H 375.711 -2.12304 -6.6178 0
M  V30 3950 H 378.902 -1.151 -4.53729 0
M  V30 3951 H 379.075 -1.83704 -6.21415 0
M  V30 3952 N 372.481 1.55866 -0.233164 0
M  V30 3953 C 373.411 2.23783 0.666599 0
M  V30 3954 C 374.392 1.21343 1.19205 0
M  V30 3955 O 375.577 1.4996 1.23392 0
M  V30 3956 C 372.707 2.92671 1.86978 0
M  V30 3957 C 371.661 4.01682 1.47768 0
M  V30 3958 C 370.987 4.57926 2.76058 0
M  V30 3959 C 372.287 5.18126 0.658993 0
M  V30 3960 H 373.981 2.99232 0.100306 0
M  V30 3961 H 371.527 1.43924 0.046804 0
M  V30 3962 H 373.48 3.3888 2.50476 0
M  V30 3963 H 372.204 2.14688 2.46123 0
M  V30 3964 H 370.863 3.56222 0.866106 0
M  V30 3965 H 370.511 3.76659 3.33372 0
M  V30 3966 H 370.211 5.31505 2.50552 0
M  V30 3967 H 371.735 5.06859 3.40479 0
M  V30 3968 H 373.149 5.60644 1.19795 0
M  V30 3969 H 371.546 5.98009 0.500552 0
M  V30 3970 H 372.616 4.83763 -0.331856 0
M  V30 3971 N 373.959 -0.0401083 1.57549 0
M  V30 3972 C 374.906 -1.04413 2.05831 0
M  V30 3973 C 375.876 -1.36585 0.945184 0
M  V30 3974 O 377.061 -1.47112 1.21502 0
M  V30 3975 C 374.201 -2.34336 2.53339 0
M  V30 3976 C 373.314 -2.08419 3.78398 0
M  V30 3977 C 372.449 -3.32133 4.14561 0
M  V30 3978 C 371.488 -3.01721 5.3257 0
M  V30 3979 N 370.625 -4.17855 5.64218 0
M  V30 3980 H 375.465 -0.625442 2.91363 0
M  V30 3981 H 373.002 -0.297218 1.44066 0
M  V30 3982 H 374.96 -3.10234 2.78946 0
M  V30 3983 H 373.59 -2.73948 1.7074 0
M  V30 3984 H 372.642 -1.23069 3.59942 0
M  V30 3985 H 373.954 -1.81978 4.64419 0
M  V30 3986 H 373.108 -4.16406 4.41238 0
M  V30 3987 H 371.847 -3.61678 3.2717 0
M  V30 3988 H 370.852 -2.15849 5.05657 0
M  V30 3989 H 372.077 -2.73466 6.21605 0
M  V30 3990 H 370.023 -4.47372 4.79786 0
M  V30 3991 H 369.94 -3.94798 6.44725 0
M  V30 3992 H 371.208 -5.03033 5.95465 0
M  V30 3993 N 375.437 -1.54477 -0.31217 0
M  V30 3994 C 376.662 -1.77526 -1.07235 0
M  V30 3995 C 377.087 -0.527775 -1.80544 0
M  V30 3996 O 376.445 0.52121 -1.73646 0
M  V30 3997 C 376.493 -2.97535 -2.03728 0
M  V30 3998 O 375.597 -2.69878 -3.11833 0
M  V30 3999 H 374.938 -0.58792 -0.30862 0
M  V30 4000 H 377.468 -2.01532 -0.352993 0
M  V30 4001 H 377.478 -3.25198 -2.46395 0
M  V30 4002 H 376.153 -3.87996 -1.49774 0
M  V30 4003 H 374.73 -2.53199 -2.7376 0
M  V30 4004 N 376.915 0.57481 -1.46744 0
M  V30 4005 C 378.161 1.3347 -1.52688 0
M  V30 4006 C 378.494 1.93353 -0.181229 0
M  V30 4007 O 377.769 1.76912 0.808237 0
M  V30 4008 C 378.052 2.45811 -2.63152 0
M  V30 4009 C 377.905 1.90912 -4.07275 0
M  V30 4010 C 379.224 3.47822 -2.69644 0
M  V30 4011 H 376.343 0.483935 -0.555856 0
M  V30 4012 H 378.985 0.644968 -1.78718 0
M  V30 4013 H 377.135 3.04646 -2.41088 0
M  V30 4014 H 378.807 1.36473 -4.4065 0
M  V30 4015 H 377.05 1.21691 -4.16382 0
M  V30 4016 H 377.721 2.72042 -4.80309 0
M  V30 4017 H 380.197 2.9888 -2.895 0
M  V30 4018 H 379.073 4.23876 -3.48742 0
M  V30 4019 H 379.334 4.05555 -1.76005 0
M  V30 4020 N 378.394 1.34581 0.820102 0
M  V30 4021 C 379.81 1.14325 1.11364 0
M  V30 4022 C 380.01 -0.0533648 2.01429 0
M  V30 4023 O 379.066 -0.728044 2.41776 0
M  V30 4024 C 380.379 2.43983 1.75764 0
M  V30 4025 C 381.927 2.50065 1.88246 0
M  V30 4026 C 382.402 3.79732 2.56061 0
M  V30 4027 N 383.893 3.80908 2.63558 0
M  V30 4028 C 384.628 4.77961 3.16766 0
M  V30 4029 N 384.124 5.85397 3.70517 0
M  V30 4030 N 385.917 4.65413 3.15194 0
M  V30 4031 H 378.068 2.11246 0.221096 0
M  V30 4032 H 380.331 0.934289 0.160649 0
M  V30 4033 H 380.037 3.31651 1.1705 0
M  V30 4034 H 379.911 2.57531 2.75604 0
M  V30 4035 H 382.298 1.62834 2.46108 0
M  V30 4036 H 382.379 2.40442 0.873006 0
M  V30 4037 H 382.023 4.67354 1.98853 0
M  V30 4038 H 381.953 3.86639 3.57516 0
M  V30 4039 H 384.444 3.03274 2.25463 0
M  V30 4040 H 384.757 6.55463 4.09376 0
M  V30 4041 H 383.102 5.89107 3.68752 0
M  V30 4042 H 386.293 3.80627 2.72471 0
M  V30 4043 H 386.466 5.41216 3.56356 0
M  V30 4044 N 379.872 -1.04064 1.18357 0
M  V30 4045 C 380.802 -2.14001 0.934113 0
M  V30 4046 C 381.783 -1.69616 -0.128186 0
M  V30 4047 O 382.968 -1.94185 0.0244093 0
M  V30 4048 C 380.098 -3.44253 0.459066 0
M  V30 4049 C 379.052 -4.02261 1.46185 0
M  V30 4050 C 378.378 -5.27992 0.844322 0
M  V30 4051 C 379.678 -4.38432 2.83856 0
M  V30 4052 H 381.372 -2.35127 1.85352 0
M  V30 4053 H 378.918 -1.12998 0.892604 0
M  V30 4054 H 380.871 -4.20522 0.271907 0
M  V30 4055 H 379.595 -3.22813 -0.495912 0
M  V30 4056 H 378.254 -3.28074 1.63595 0
M  V30 4057 H 377.902 -5.02862 -0.117845 0
M  V30 4058 H 377.602 -5.67765 1.51384 0
M  V30 4059 H 379.126 -6.06938 0.667693 0
M  V30 4060 H 380.54 -5.05688 2.70098 0
M  V30 4061 H 378.937 -4.89254 3.47491 0
M  V30 4062 H 380.007 -3.4826 3.37406 0
M  V30 4063 N 381.35 -0.985608 -1.22978 0
M  V30 4064 C 382.28 -0.549649 -2.26939 0
M  V30 4065 C 383.261 0.419803 -1.64838 0
M  V30 4066 O 384.446 0.31203 -1.91677 0
M  V30 4067 C 381.576 0.143652 -3.47003 0
M  V30 4068 C 380.53 -0.743606 -4.21491 0
M  V30 4069 C 379.856 0.0822027 -5.34637 0
M  V30 4070 C 381.156 -2.03694 -4.80943 0
M  V30 4071 H 382.85 -1.41862 -2.63658 0
M  V30 4072 H 380.396 -0.683571 -1.26741 0
M  V30 4073 H 382.349 0.459985 -4.18882 0
M  V30 4074 H 381.073 1.04711 -3.09359 0
M  V30 4075 H 379.732 -1.04347 -3.51436 0
M  V30 4076 H 379.38 0.986359 -4.93234 0
M  V30 4077 H 379.08 -0.508377 -5.85397 0
M  V30 4078 H 380.604 0.392797 -6.09335 0
M  V30 4079 H 382.018 -1.78504 -5.44802 0
M  V30 4080 H 380.415 -2.57573 -5.42011 0
M  V30 4081 H 381.485 -2.72042 -4.01399 0
M  V30 4082 N 382.828 1.3818 -0.7579 0
M  V30 4083 C 384.053 2.04827 -0.325679 0
M  V30 4084 C 384.478 1.56788 1.03919 0
M  V30 4085 O 383.836 0.721811 1.66312 0
M  V30 4086 C 383.884 3.58774 -0.362447 0
M  V30 4087 O 382.988 4.07372 0.642033 0
M  V30 4088 H 382.329 0.64833 -0.143402 0
M  V30 4089 H 384.859 1.7677 -1.03023 0
M  V30 4090 H 384.869 4.07434 -0.214844 0
M  V30 4091 H 383.544 3.93096 -1.35824 0
M  V30 4092 H 382.121 3.70068 0.458688 0
M  V30 4093 N 384.306 0.507319 1.49211 0
M  V30 4094 C 385.554 -0.0348839 2.0207 0
M  V30 4095 C 385.875 -1.36898 1.38866 0
M  V30 4096 O 385.145 -1.88133 0.546151 0
M  V30 4097 H 383.725 -0.0158812 0.746831 0
M  V30 4098 H 386.387 0.665998 1.83168 0
M  V30 4099 H 385.483 -0.159917 3.1169 0
M  V30 4100 N 385.784 -1.5574 0.241426 0
M  V30 4101 C 387.009 -2.0366 -0.392111 0
M  V30 4102 C 387.434 -1.11969 -1.51144 0
M  V30 4103 O 386.792 -0.111594 -1.80956 0
M  V30 4104 C 386.84 -3.49638 -0.882371 0
M  V30 4105 O 385.944 -3.6108 -1.99235 0
M  V30 4106 H 385.285 -0.658379 -0.0862122 0
M  V30 4107 H 387.815 -2.01302 0.365881 0
M  V30 4108 H 387.825 -3.90351 -1.18702 0
M  V30 4109 H 386.5 -4.15852 -0.0632361 0
M  V30 4110 H 385.077 -3.32262 -1.69282 0
M  V30 4111 N 387.262 0.0317525 -1.57568 0
M  V30 4112 C 388.678 0.38735 -1.54828 0
M  V30 4113 C 388.878 1.7677 -0.967187 0
M  V30 4114 O 387.934 2.45581 -0.587063 0
M  V30 4115 C 389.247 0.291667 -2.99282 0
M  V30 4116 C 390.795 0.368946 -3.10818 0
M  V30 4117 C 391.27 0.302741 -4.56998 0
M  V30 4118 N 392.761 0.361617 -4.61786 0
M  V30 4119 C 393.496 0.333238 -5.72431 0
M  V30 4120 N 392.992 0.257308 -6.92322 0
M  V30 4121 N 394.785 0.382769 -5.60795 0
M  V30 4122 H 386.936 -0.871609 -1.93692 0
M  V30 4123 H 389.199 -0.331161 -0.888277 0
M  V30 4124 H 388.905 -0.656794 -3.45513 0
M  V30 4125 H 388.779 1.08638 -3.61217 0
M  V30 4126 H 391.166 1.30784 -2.64536 0
M  V30 4127 H 391.247 -0.455066 -2.5172 0
M  V30 4128 H 390.891 -0.632473 -5.03947 0
M  V30 4129 H 390.821 1.14482 -5.14005 0
M  V30 4130 H 393.312 0.422923 -3.75526 0
M  V30 4131 H 393.625 0.24068 -7.72425 0
M  V30 4132 H 391.97 0.223396 -6.94641 0
M  V30 4133 H 395.161 0.44006 -4.66027 0
M  V30 4134 H 395.334 0.357184 -6.47015 0
M  V30 4135 N 388.74 1.54641 0.303973 0
M  V30 4136 C 389.65 1.88439 1.39743 0
M  V30 4137 C 390.666 0.778239 1.55626 0
M  V30 4138 O 391.842 1.07442 1.70347 0
M  V30 4139 C 388.907 2.12212 2.74166 0
M  V30 4140 C 387.968 3.35936 2.67293 0
M  V30 4141 C 387.201 3.58566 3.95305 0
M  V30 4142 O 387.424 2.84263 4.9452 0
M  V30 4143 O 386.358 4.52078 3.97378 0
M  V30 4144 H 390.184 2.81458 1.14083 0
M  V30 4145 H 387.769 1.40793 0.499768 0
M  V30 4146 H 389.651 2.29067 3.53704 0
M  V30 4147 H 388.326 1.22379 2.99675 0
M  V30 4148 H 387.233 3.24448 1.86237 0
M  V30 4149 H 388.566 4.2589 2.46736 0
M  V30 4150 N 390.218 -0.567019 1.47046 0
M  V30 4151 C 391.165 -1.67489 1.58796 0
M  V30 4152 C 392.135 -1.60399 0.43144 0
M  V30 4153 O 393.32 -1.79378 0.650233 0
M  V30 4154 C 390.46 -3.05821 1.59899 0
M  V30 4155 C 389.573 -3.2342 2.86397 0
M  V30 4156 C 388.708 -4.52093 2.789 0
M  V30 4157 C 387.747 -4.6309 4.00267 0
M  V30 4158 N 386.884 -5.83106 3.91064 0
M  V30 4159 H 391.724 -1.56785 2.53422 0
M  V30 4160 H 389.261 -0.763896 1.2571 0
M  V30 4161 H 391.219 -3.8591 1.58522 0
M  V30 4162 H 389.849 -3.15384 0.687929 0
M  V30 4163 H 388.901 -2.3683 2.97684 0
M  V30 4164 H 390.213 -3.27412 3.76301 0
M  V30 4165 H 389.367 -5.4043 2.75718 0
M  V30 4166 H 388.106 -4.50565 1.86662 0
M  V30 4167 H 387.111 -3.73168 4.03765 0
M  V30 4168 H 388.336 -4.66386 4.93621 0
M  V30 4169 H 386.282 -5.82546 3.01623 0
M  V30 4170 H 386.199 -5.88434 4.74638 0
M  V30 4171 H 387.467 -6.73831 3.91882 0
M  V30 4172 N 391.696 -1.35014 -0.812953 0
M  V30 4173 C 392.973 -1.18502 -1.55617 0
M  V30 4174 C 393.353 0.238421 -2.09749 0
M  V30 4175 O 392.701 1.2411 -1.91857 0
M  V30 4176 C 392.911 -2.24783 -2.66971 0
M  V30 4177 C 394.259 -2.60268 -3.35478 0
M  V30 4178 O 395.283 -2.23648 -2.77236 0
M  V30 4179 O 394.142 -3.2321 -4.40678 0
M  V30 4180 H 391.236 -0.459984 -0.687272 0
M  V30 4181 H 393.782 -1.46677 -0.853464 0
M  V30 4182 H 392.554 -3.20284 -2.24798 0
M  V30 4183 H 392.177 -1.97841 -3.44884 0
M  V30 4184 N 393.175 1.03435 -1.18907 0
M  V30 4185 C 394.591 1.28973 -0.940111 0
M  V30 4186 C 394.791 1.97676 0.390691 0
M  V30 4187 O 393.847 2.26127 1.12352 0
M  V30 4188 C 395.16 2.14221 -2.11021 0
M  V30 4189 C 396.708 2.27547 -2.14922 0
M  V30 4190 C 397.183 3.16164 -3.31367 0
M  V30 4191 N 398.674 3.23752 -3.31269 0
M  V30 4192 C 399.409 3.92495 -4.18014 0
M  V30 4193 N 398.905 4.63515 -5.14904 0
M  V30 4194 N 400.698 3.88838 -4.05908 0
M  V30 4195 H 392.849 0.57252 -2.04538 0
M  V30 4196 H 395.112 0.315184 -0.894071 0
M  V30 4197 H 394.818 1.71054 -3.073 0
M  V30 4198 H 394.692 3.14919 -2.0762 0
M  V30 4199 H 397.079 2.69947 -1.19217 0
M  V30 4200 H 397.16 1.26418 -2.22378 0
M  V30 4201 H 396.804 2.74474 -4.27348 0
M  V30 4202 H 396.734 4.17339 -3.21148 0
M  V30 4203 H 399.225 2.73167 -2.61129 0
M  V30 4204 H 399.538 5.13583 -5.77453 0
M  V30 4205 H 397.883 4.62398 -5.18857 0
M  V30 4206 H 401.074 3.32491 -3.29495 0
M  V30 4207 H 401.247 4.4214 -4.73726 0
M  V30 4208 N 394.653 0.992116 1.22453 0
M  V30 4209 C 395.601 0.534644 2.26372 0
M  V30 4210 C 396.595 -0.414293 1.64256 0
M  V30 4211 O 397.801 -0.286899 1.77699 0
M  V30 4212 H 394.176 0.154502 0.735957 0
M  V30 4213 H 396.147 1.42256 2.62309 0
M  V30 4214 C 394.896 -0.135815 3.47435 0
M  V30 4215 H 394.219 0.585311 3.95492 0
M  V30 4216 H 395.659 -0.419374 4.21921 0
M  V30 4217 C 394.118 -1.37089 3.07747 0
M  V30 4218 O 394.648 -2.46629 3.17076 0
M  V30 4219 N 392.854 -1.24585 2.62539 0
M  V30 4220 H 392.401 -0.354542 2.55149 0
M  V30 4221 H 392.359 -2.07327 2.36353 0
M  V30 4222 N 396.131 -1.37776 0.765217 0
M  V30 4223 C 397.061 -2.32945 0.160953 0
M  V30 4224 C 398.042 -1.55454 -0.690516 0
M  V30 4225 O 399.227 -1.83721 -0.629318 0
M  V30 4226 C 396.357 -3.39669 -0.724031 0
M  V30 4227 C 395.311 -4.27992 0.0256173 0
M  V30 4228 C 394.637 -5.25673 -0.978383 0
M  V30 4229 C 395.937 -5.08309 1.20082 0
M  V30 4230 H 397.631 -2.83728 0.955969 0
M  V30 4231 H 395.177 -1.36416 0.461149 0
M  V30 4232 H 397.13 -4.05219 -1.15652 0
M  V30 4233 H 395.854 -2.87396 -1.5515 0
M  V30 4234 H 394.513 -3.63964 0.438812 0
M  V30 4235 H 394.161 -4.69682 -1.80022 0
M  V30 4236 H 393.861 -5.85625 -0.481378 0
M  V30 4237 H 395.385 -5.94098 -1.40995 0
M  V30 4238 H 396.799 -5.67034 0.845307 0
M  V30 4239 H 395.196 -5.77554 1.62947 0
M  V30 4240 H 396.266 -4.41365 2.00811 0
M  V30 4241 N 397.609 -0.515225 -1.4894 0
M  V30 4242 C 399.025 -0.172099 -1.58669 0
M  V30 4243 C 399.225 1.32405 -1.51892 0
M  V30 4244 O 398.281 2.10116 -1.40027 0
M  V30 4245 C 399.594 -0.761533 -2.90897 0
M  V30 4246 C 401.142 -0.728926 -3.04394 0
M  V30 4247 C 401.617 -1.29667 -4.39261 0
M  V30 4248 N 403.108 -1.25799 -4.4579 0
M  V30 4249 C 403.843 -1.66733 -5.48623 0
M  V30 4250 N 403.339 -2.15327 -6.58488 0
M  V30 4251 N 405.132 -1.58061 -5.39419 0
M  V30 4252 H 397.283 -1.48778 -1.51588 0
M  V30 4253 H 399.546 -0.617968 -0.718901 0
M  V30 4254 H 399.252 -1.81136 -3.01468 0
M  V30 4255 H 399.126 -0.230106 -3.76497 0
M  V30 4256 H 401.513 0.312098 -2.93445 0
M  V30 4257 H 401.594 -1.29766 -2.20442 0
M  V30 4258 H 401.238 -2.33655 -4.50963 0
M  V30 4259 H 401.168 -0.703752 -5.21876 0
M  V30 4260 H 403.659 -0.902102 -3.66975 0
M  V30 4261 H 403.972 -2.44594 -7.33071 0
M  V30 4262 H 402.317 -2.19311 -6.59491 0
M  V30 4263 H 405.508 -1.19906 -4.52482 0
M  V30 4264 H 405.681 -1.90284 -6.19432 0
M  V30 4265 N 399.087 1.5561 -0.249682 0
M  V30 4266 C 400.503 1.59254 0.105103 0
M  V30 4267 C 400.703 1.26685 1.56694 0
M  V30 4268 O 399.759 1.0155 2.31179 0
M  V30 4269 C 401.072 2.99687 -0.246592 0
M  V30 4270 C 402.62 3.12416 -0.191118 0
M  V30 4271 C 403.095 4.55074 -0.516885 0
M  V30 4272 N 404.586 4.60835 -0.467489 0
M  V30 4273 C 405.321 5.69201 -0.69268 0
M  V30 4274 N 404.817 6.85817 -0.981146 0
M  V30 4275 N 406.61 5.58635 -0.623198 0
M  V30 4276 H 398.761 1.75049 -1.20298 0
M  V30 4277 H 401.024 0.815003 -0.484225 0
M  V30 4278 H 400.73 3.28267 -1.26228 0
M  V30 4279 H 400.604 3.74798 0.424962 0
M  V30 4280 H 402.991 2.83615 0.815247 0
M  V30 4281 H 403.072 2.39573 -0.896563 0
M  V30 4282 H 402.716 4.84596 -1.52082 0
M  V30 4283 H 402.646 5.26181 0.210068 0
M  V30 4284 H 405.137 3.7705 -0.253373 0
M  V30 4285 H 405.45 7.64341 -1.14032 0
M  V30 4286 H 403.795 6.87494 -1.01865 0
M  V30 4287 H 406.986 4.66406 -0.397863 0
M  V30 4288 H 407.159 6.43017 -0.802093 0
M  V30 4289 N 400.565 -0.0233959 1.57583 0
M  V30 4290 C 401.814 -0.712133 1.8871 0
M  V30 4291 C 402.127 -1.76217 0.848944 0
M  V30 4292 O 403.333 -2.50389 1.04964 0
M  V30 4293 C 401.789 -1.3177 3.3491 0
M  V30 4294 C 401.397 -0.303715 4.46969 0
M  V30 4295 C 403.141 -1.98598 3.75179 0
M  V30 4296 C 401.048 -0.917945 5.84233 0
M  V30 4297 H 399.978 -0.269735 0.704101 0
M  V30 4298 H 402.629 0.0333114 1.8347 0
M  V30 4299 H 401.011 -2.11304 3.34913 0
M  V30 4300 H 402.185 0.465325 4.58445 0
M  V30 4301 H 400.5 0.2628 4.1557 0
M  V30 4302 H 403.097 -2.45416 4.75053 0
M  V30 4303 H 403.44 -2.80659 3.07468 0
M  V30 4304 H 403.973 -1.25831 3.77374 0
M  V30 4305 H 400.712 -0.136633 6.55358 0
M  V30 4306 H 400.232 -1.65669 5.76467 0
M  V30 4307 H 401.911 -1.4236 6.31144 0
M  V30 4308 N 402.043 -1.548 -0.295768 0
M  V30 4309 C 403.271 -1.78327 -1.04914 0
M  V30 4310 C 403.686 -0.545316 -1.80753 0
M  V30 4311 O 403.043 0.485013 -1.75937 0
M  V30 4312 C 403.094 -2.99418 -2.02561 0
M  V30 4313 O 402.815 -4.18431 -1.29798 0
M  V30 4314 C 404.316 -3.35375 -2.89895 0
M  V30 4315 H 401.536 -0.594618 -0.310918 0
M  V30 4316 H 404.08 -2.01763 -0.333454 0
M  V30 4317 H 402.235 -2.78175 -2.69624 0
M  V30 4318 H 402.649 -4.86736 -1.95419 0
M  V30 4319 H 404.123 -4.23332 -3.54251 0
M  V30 4320 H 404.6 -2.53761 -3.58472 0
M  V30 4321 H 405.206 -3.58796 -2.28355 0
M  V30 4322 N 403.521 0.559213 -1.47345 0
M  V30 4323 C 404.937 0.884943 -1.32819 0
M  V30 4324 C 405.137 1.98988 -0.317173 0
M  V30 4325 O 404.193 2.51031 0.272011 0
M  V30 4326 C 405.506 1.28007 -2.72093 0
M  V30 4327 C 407.054 1.39161 -2.80363 0
M  V30 4328 C 407.529 1.82031 -4.20272 0
M  V30 4329 N 409.02 1.89185 -4.22804 0
M  V30 4330 C 409.755 2.2368 -5.27973 0
M  V30 4331 N 409.251 2.56802 -6.43447 0
M  V30 4332 N 411.044 2.24436 -5.15349 0
M  V30 4333 H 403.195 -0.170304 -2.11716 0
M  V30 4334 H 405.458 -0.0135247 -0.947904 0
M  V30 4335 H 405.164 0.542027 -3.47498 0
M  V30 4336 H 405.038 2.23665 -3.03733 0
M  V30 4337 H 407.425 2.12048 -2.05231 0
M  V30 4338 H 407.506 0.41696 -2.52379 0
M  V30 4339 H 407.15 1.09715 -4.95908 0
M  V30 4340 H 407.08 2.80495 -4.45679 0
M  V30 4341 H 409.571 1.65982 -3.39497 0
M  V30 4342 H 409.884 2.82144 -7.19454 0
M  V30 4343 H 408.229 2.54387 -6.46771 0
M  V30 4344 H 411.42 1.97998 -4.24163 0
M  V30 4345 H 411.593 2.50989 -5.97418 0
M  V30 4346 N 404.999 1.35443 0.805782 0
M  V30 4347 C 405.929 1.31095 1.93226 0
M  V30 4348 C 406.91 0.185244 1.69088 0
M  V30 4349 O 408.095 0.380332 1.90439 0
M  V30 4350 C 405.225 1.08299 3.29983 0
M  V30 4351 C 404.179 2.17519 3.68605 0
M  V30 4352 C 403.505 1.79887 5.03532 0
M  V30 4353 C 404.805 3.5949 3.78898 0
M  V30 4354 H 406.499 2.25352 1.97122 0
M  V30 4355 H 404.045 1.0848 0.946996 0
M  V30 4356 H 405.998 1.03897 4.08391 0
M  V30 4357 H 404.722 0.104885 3.26432 0
M  V30 4358 H 403.381 2.2102 2.92482 0
M  V30 4359 H 403.029 0.80693 4.96485 0
M  V30 4360 H 402.729 2.53001 5.30344 0
M  V30 4361 H 404.253 1.77011 5.84379 0
M  V30 4362 H 405.667 3.58307 4.47536 0
M  V30 4363 H 404.064 4.31371 4.1718 0
M  V30 4364 H 405.134 3.95584 2.80431 0
M  V30 4365 N 406.477 -1.02803 1.19454 0
M  V30 4366 C 407.723 -1.76478 0.999171 0
M  V30 4367 C 408.056 -1.88456 -0.468828 0
M  V30 4368 O 407.331 -1.40198 -1.34814 0
M  V30 4369 C 407.614 -3.19044 1.66981 0
M  V30 4370 C 407.467 -3.14932 3.21151 0
M  V30 4371 C 408.786 -4.17456 1.39349 0
M  V30 4372 H 405.905 -0.640614 0.364393 0
M  V30 4373 H 408.547 -1.20005 1.47305 0
M  V30 4374 H 406.697 -3.67263 1.2669 0
M  V30 4375 H 408.369 -2.74605 3.70661 0
M  V30 4376 H 406.612 -2.52625 3.52652 0
M  V30 4377 H 407.283 -4.1566 3.63223 0
M  V30 4378 H 409.759 -3.77842 1.74283 0
M  V30 4379 H 408.635 -5.154 1.88823 0
M  V30 4380 H 408.896 -4.40949 0.318813 0
M  V30 4381 N 407.956 -0.998596 -1.21925 0
M  V30 4382 C 408.886 -0.573688 -2.26343 0
M  V30 4383 C 409.867 0.402296 -1.65274 0
M  V30 4384 O 411.052 0.291683 -1.91997 0
M  V30 4385 C 408.182 0.106839 -3.47136 0
M  V30 4386 C 407.136 -0.788269 -4.20678 0
M  V30 4387 C 406.462 0.0254927 -5.34694 0
M  V30 4388 C 407.762 -2.08784 -4.78755 0
M  V30 4389 H 409.456 -1.44651 -2.62138 0
M  V30 4390 H 407.002 -0.696975 -1.26009 0
M  V30 4391 H 408.955 0.415531 -4.19346 0
M  V30 4392 H 407.679 1.01424 -3.10452 0
M  V30 4393 H 406.338 -1.08069 -3.50309 0
M  V30 4394 H 405.986 0.933989 -4.94253 0
M  V30 4395 H 405.686 -0.570437 -5.84825 0
M  V30 4396 H 407.21 0.328147 -6.09718 0
M  V30 4397 H 408.624 -1.84272 -5.42878 0
M  V30 4398 H 407.021 -2.63307 -5.39249 0
M  V30 4399 H 408.091 -2.76284 -3.98491 0
M  V30 4400 N 409.434 1.37368 -0.772513 0
M  V30 4401 C 410.68 1.99969 -0.337681 0
M  V30 4402 C 411.013 1.61184 1.08321 0
M  V30 4403 O 410.288 0.858395 1.74533 0
M  V30 4404 C 410.571 3.56858 -0.482121 0
M  V30 4405 C 410.424 4.0555 -1.94549 0
M  V30 4406 C 411.743 4.39955 0.113143 0
M  V30 4407 H 408.862 0.726464 -0.124171 0
M  V30 4408 H 411.504 1.63034 -0.975699 0
M  V30 4409 H 409.654 3.88452 0.0610361 0
M  V30 4410 H 411.326 3.84518 -2.54841 0
M  V30 4411 H 409.569 3.57715 -2.45403 0
M  V30 4412 H 410.24 5.14587 -1.9976 0
M  V30 4413 H 412.716 4.14623 -0.35031 0
M  V30 4414 H 411.592 5.48897 -0.0180514 0
M  V30 4415 H 411.853 4.25403 1.20354 0
M  V30 4416 N 410.912 0.523116 1.48665 0
M  V30 4417 C 412.158 -0.0134963 2.02796 0
M  V30 4418 C 412.491 -1.34582 1.40004 0
M  V30 4419 O 411.766 -1.86756 0.543381 0
M  V30 4420 C 412.049 -0.14276 3.59817 0
M  V30 4421 C 411.902 1.21425 4.331 0
M  V30 4422 C 413.221 -0.872856 4.31357 0
M  V30 4423 H 410.34 -0.00343074 0.736992 0
M  V30 4424 H 412.982 0.678816 1.7746 0
M  V30 4425 H 411.132 -0.732401 3.81534 0
M  V30 4426 H 412.804 1.84447 4.2282 0
M  V30 4427 H 411.047 1.79791 3.94788 0
M  V30 4428 H 411.718 1.07687 5.41394 0
M  V30 4429 H 414.194 -0.372555 4.14429 0
M  V30 4430 H 413.07 -0.932185 5.40927 0
M  V30 4431 H 413.331 -1.92161 3.98154 0
M  V30 4432 N 412.39 -1.55475 0.257931 0
M  V30 4433 C 413.636 -1.99502 -0.364266 0
M  V30 4434 C 413.969 -1.146 -1.56782 0
M  V30 4435 O 413.244 -0.211968 -1.93342 0
M  V30 4436 C 413.527 -3.51917 -0.763333 0
M  V30 4437 C 413.38 -4.4758 0.446371 0
M  V30 4438 C 414.699 -4.09742 -1.60623 0
M  V30 4439 H 411.818 -0.725277 -0.130929 0
M  V30 4440 H 414.46 -1.8653 0.361446 0
M  V30 4441 H 412.61 -3.63101 -1.38166 0
M  V30 4442 H 414.282 -4.48362 1.08487 0
M  V30 4443 H 412.525 -4.19947 1.08753 0
M  V30 4444 H 413.196 -5.51862 0.123645 0
M  V30 4445 H 415.672 -4.01727 -1.08418 0
M  V30 4446 H 414.548 -5.16631 -1.85429 0
M  V30 4447 H 414.809 -3.58889 -2.58169 0
M  V30 4448 N 413.868 0.0150385 -1.57593 0
M  V30 4449 C 414.831 0.995996 -2.06428 0
M  V30 4450 C 415.831 1.2818 -0.970903 0
M  V30 4451 O 417.021 1.22949 -1.23406 0
M  V30 4452 C 414.153 2.32506 -2.49307 0
M  V30 4453 H 415.346 0.573873 -2.94358 0
M  V30 4454 H 412.899 0.262186 -1.54085 0
M  V30 4455 H 413.634 2.79438 -1.64575 0
M  V30 4456 H 413.419 2.13087 -3.29145 0
M  V30 4457 H 414.909 3.02906 -2.87468 0
M  V30 4458 N 415.346 1.54954 0.287554 0
M  V30 4459 C 416.592 1.75132 1.02257 0
M  V30 4460 C 416.925 0.542858 1.86458 0
M  V30 4461 O 416.2 -0.459856 1.88986 0
M  V30 4462 C 416.483 3.04812 1.91733 0
M  V30 4463 C 416.336 4.35985 1.10622 0
M  V30 4464 C 417.655 3.30438 2.90687 0
M  V30 4465 H 414.774 0.637194 0.370341 0
M  V30 4466 H 417.416 1.87678 0.296111 0
M  V30 4467 H 415.566 2.94247 2.53675 0
M  V30 4468 H 417.238 4.58487 0.508636 0
M  V30 4469 H 415.481 4.31865 0.409271 0
M  V30 4470 H 416.152 5.23017 1.76513 0
M  V30 4471 H 418.628 3.40701 2.38877 0
M  V30 4472 H 417.504 4.22467 3.50447 0
M  V30 4473 H 417.765 2.49377 3.65053 0
M  V30 4474 N 416.824 -0.551391 1.4764 0
M  V30 4475 C 418.071 -1.3083 1.54563 0
M  V30 4476 C 418.399 -1.93359 0.210361 0
M  V30 4477 O 417.654 -1.78721 -0.797332 0
M  V30 4478 C 417.953 -2.43469 2.61644 0
M  V30 4479 C 417.619 -1.98732 4.04742 0
M  V30 4480 C 416.281 -1.86248 4.43695 0
M  V30 4481 C 418.633 -1.64659 4.94507 0
M  V30 4482 C 415.961 -1.37995 5.70241 0
M  V30 4483 C 418.313 -1.17875 6.21521 0
M  V30 4484 C 416.977 -1.03992 6.5935 0
M  V30 4485 H 416.247 -0.478741 0.565587 0
M  V30 4486 H 418.894 -0.617697 1.81264 0
M  V30 4487 H 417.199 -3.18109 2.28722 0
M  V30 4488 H 418.896 -3.01642 2.64222 0
M  V30 4489 H 415.486 -2.09393 3.73968 0
M  V30 4490 H 419.67 -1.73174 4.65107 0
M  V30 4491 H 414.926 -1.25915 5.98294 0
M  V30 4492 H 419.1 -0.905739 6.90485 0
M  V30 4493 H 416.727 -0.663794 7.57296 0
M  V30 4494 N 418.302 -1.35869 -0.798587 0
M  V30 4495 C 419.548 -1.2978 -1.55836 0
M  V30 4496 C 419.881 0.125322 -1.93795 0
M  V30 4497 O 419.156 1.07658 -1.61987 0
M  V30 4498 C 419.439 -2.21188 -2.84162 0
M  V30 4499 C 419.292 -3.72155 -2.52628 0
M  V30 4500 C 420.611 -2.11545 -3.85923 0
M  V30 4501 H 417.73 -0.472769 -0.565383 0
M  V30 4502 H 420.372 -1.66341 -0.918192 0
M  V30 4503 H 418.522 -1.90139 -3.38791 0
M  V30 4504 H 420.194 -4.13682 -2.04121 0
M  V30 4505 H 418.437 -3.92042 -1.85704 0
M  V30 4506 H 419.108 -4.31511 -3.44242 0
M  V30 4507 H 421.584 -2.38855 -3.40716 0
M  V30 4508 H 420.46 -2.77688 -4.73477 0
M  V30 4509 H 420.721 -1.09987 -4.282 0
M  V30 4510 N 419.78 1.02168 -1.19998 0
M  V30 4511 C 421.026 1.75945 -1.00852 0
M  V30 4512 C 421.359 1.88702 0.458828 0
M  V30 4513 O 420.634 1.40911 1.34069 0
M  V30 4514 C 420.917 3.18154 -1.68671 0
M  V30 4515 C 420.77 3.13224 -3.22817 0
M  V30 4516 C 422.089 4.16711 -1.41561 0
M  V30 4517 H 419.208 0.638673 -0.367785 0
M  V30 4518 H 421.85 1.19222 -1.4794 0
M  V30 4519 H 420 3.66586 -1.28636 0
M  V30 4520 H 421.672 2.72635 -3.72112 0
M  V30 4521 H 419.915 2.50751 -3.53986 0
M  V30 4522 H 420.586 4.13728 -3.65422 0
M  V30 4523 H 423.062 3.76913 -1.76284 0
M  V30 4524 H 421.938 5.14391 -1.91553 0
M  V30 4525 H 422.199 4.40774 -0.342193 0
M  V30 4526 N 421.258 1.00505 1.21394 0
M  V30 4527 C 422.498 0.696149 1.9218 0
M  V30 4528 C 422.862 -0.759099 1.76357 0
M  V30 4529 O 424.063 -1.17998 2.41516 0
M  V30 4530 C 422.334 1.10571 3.39866 0
M  V30 4531 S 423.893 0.91702 4.29111 0
M  V30 4532 H 420.711 0.254147 0.664026 0
M  V30 4533 H 423.313 1.28988 1.46909 0
M  V30 4534 H 422.017 2.16096 3.489 0
M  V30 4535 H 421.548 0.504268 3.90155 0
M  V30 4536 H 423.563 -0.185855 4.95852 0
M  V30 4537 N 422.737 -1.36956 0.779787 0
M  V30 4538 C 423.983 -2.00237 0.357324 0
M  V30 4539 C 424.338 -1.60787 -1.05666 0
M  V30 4540 O 423.631 -0.847836 -1.71821 0
M  V30 4541 C 423.825 -3.54585 0.447686 0
M  V30 4542 C 423.654 -4.09025 1.86891 0
M  V30 4543 C 422.424 -4.39612 2.49138 0
M  V30 4544 C 424.622 -4.29461 2.82963 0
M  V30 4545 N 422.604 -4.79816 3.82949 0
M  V30 4546 C 423.975 -4.72363 4.01588 0
M  V30 4547 C 426.03 -4.1161 2.80145 0
M  V30 4548 C 424.733 -4.99284 5.17791 0
M  V30 4549 C 426.759 -4.39672 3.95528 0
M  V30 4550 C 426.121 -4.82822 5.12896 0
M  V30 4551 H 422.22 -0.76148 0.177968 0
M  V30 4552 H 424.804 -1.6613 1.01533 0
M  V30 4553 H 422.975 -3.87982 -0.180184 0
M  V30 4554 H 424.707 -4.047 0.0023955 0
M  V30 4555 H 421.462 -4.28975 2.00693 0
M  V30 4556 H 421.886 -5.04216 4.51769 0
M  V30 4557 H 426.528 -3.77415 1.90572 0
M  V30 4558 H 424.246 -5.32365 6.07958 0
M  V30 4559 H 427.832 -4.27441 3.94697 0
M  V30 4560 H 426.712 -5.04118 6.00695 0
M  V30 4561 N 424.215 -0.530993 -1.48385 0
M  V30 4562 C 425.443 -0.00134122 -2.069 0
M  V30 4563 C 425.858 1.2805 -1.3874 0
M  V30 4564 O 425.215 1.76204 -0.475244 0
M  V30 4565 C 425.266 0.225256 -3.60798 0
M  V30 4566 O 424.987 -1.0058 -4.26398 0
M  V30 4567 C 426.488 0.795172 -4.3611 0
M  V30 4568 H 423.708 -0.0339704 -0.67014 0
M  V30 4569 H 426.252 -0.736926 -1.90761 0
M  V30 4570 H 424.407 0.910891 -3.76539 0
M  V30 4571 H 424.821 -0.787165 -5.1856 0
M  V30 4572 H 426.295 0.903143 -5.44562 0
M  V30 4573 H 426.772 1.80031 -4.00606 0
M  V30 4574 H 427.378 0.146069 -4.25049 0
M  V30 4575 N 425.693 1.55336 -0.266172 0
M  V30 4576 C 427.104 1.85236 0.233315 0
M  V30 4577 C 427.455 1.18816 1.56132 0
M  V30 4578 O 426.58 0.473307 2.11161 0
M  V30 4579 C 427.175 3.36059 0.430113 0
M  V30 4580 C 425.734 3.66116 0.873842 0
M  V30 4581 C 424.881 2.77274 -0.0380016 0
M  V30 4582 H 427.832 1.51004 -0.488214 0
M  V30 4583 H 427.853 3.58681 1.26998 0
M  V30 4584 H 427.365 3.84373 -0.536588 0
M  V30 4585 H 425.466 3.23295 1.85233 0
M  V30 4586 H 425.579 4.73699 0.717358 0
M  V30 4587 H 423.943 2.50198 0.476759 0
M  V30 4588 H 424.726 3.284 -1.00042 0
M  V30 4589 N 427.171 -0.0066808 1.57599 0
M  V30 4590 C 428.42 -0.692078 1.89455 0
M  V30 4591 C 428.733 -1.75306 0.867586 0
M  V30 4592 O 429.939 -2.49262 1.07614 0
M  V30 4593 C 428.395 -1.2821 3.36289 0
M  V30 4594 C 428.003 -0.256291 4.47266 0
M  V30 4595 C 429.747 -1.94608 3.77264 0
M  V30 4596 C 427.654 -0.855927 5.85173 0
M  V30 4597 H 426.584 -0.262252 0.706923 0
M  V30 4598 H 429.235 0.052769 1.83424 0
M  V30 4599 H 427.617 -2.0774 3.37135 0
M  V30 4600 H 428.791 0.513923 4.57925 0
M  V30 4601 H 427.106 0.306862 4.15268 0
M  V30 4602 H 429.703 -2.40364 4.77629 0
M  V30 4603 H 430.046 -2.77382 3.10427 0
M  V30 4604 H 430.579 -1.21822 3.78688 0
M  V30 4605 H 427.318 -0.0671161 6.55466 0
M  V30 4606 H 426.838 -1.59546 5.78191 0
M  V30 4607 H 428.517 -1.35658 6.32618 0
M  V30 4608 N 428.649 -1.55105 -0.279332 0
M  V30 4609 C 429.599 -1.83937 -1.34727 0
M  V30 4610 C 430.583 -0.69785 -1.44979 0
M  V30 4611 O 431.775 -0.95904 -1.48766 0
M  V30 4612 C 428.904 -2.1092 -2.70864 0
M  V30 4613 C 427.99 -3.31314 -2.64748 0
M  V30 4614 N 428.381 -4.51371 -2.2825 0
M  V30 4615 C 426.679 -3.33777 -2.95819 0
M  V30 4616 C 427.38 -5.33447 -2.31969 0
M  V30 4617 N 426.356 -4.71697 -2.7019 0
M  V30 4618 H 430.158 -2.74309 -1.05506 0
M  V30 4619 H 427.672 -1.54896 -0.487959 0
M  V30 4620 H 429.669 -2.2973 -3.47893 0
M  V30 4621 H 428.329 -1.21828 -3.00979 0
M  V30 4622 H 429.34 -4.77584 -2.00335 0
M  V30 4623 H 426.017 -2.54858 -3.30687 0
M  V30 4624 H 427.407 -6.39424 -2.06365 0
M  V30 4625 N 430.127 0.543554 -1.4793 0
M  V30 4626 C 431.376 1.29649 -1.54512 0
M  V30 4627 C 431.689 1.94382 -0.217973 0
M  V30 4628 O 432.895 2.71017 -0.161908 0
M  V30 4629 C 431.351 2.35175 -2.72435 0
M  V30 4630 C 430.959 1.76572 -4.11736 0
M  V30 4631 C 432.703 3.11564 -2.8832 0
M  V30 4632 C 430.61 2.79958 -5.20939 0
M  V30 4633 H 429.54 0.487541 -0.57517 0
M  V30 4634 H 432.191 0.575708 -1.74235 0
M  V30 4635 H 430.573 3.10229 -2.46118 0
M  V30 4636 H 431.747 1.07799 -4.48013 0
M  V30 4637 H 430.062 1.12722 -4.00852 0
M  V30 4638 H 432.659 3.88794 -3.67074 0
M  V30 4639 H 433.002 3.66594 -1.97268 0
M  V30 4640 H 433.535 2.43623 -3.14472 0
M  V30 4641 H 430.274 2.29766 -6.13912 0
M  V30 4642 H 429.794 3.47101 -4.89164 0
M  V30 4643 H 431.473 3.43198 -5.48474 0
M  V30 4644 N 431.605 1.3629 0.791371 0
M  V30 4645 C 432.852 1.30412 1.54916 0
M  V30 4646 C 433.18 -0.117162 1.94147 0
M  V30 4647 O 432.435 -1.08599 1.62803 0
M  V30 4648 C 432.734 2.17068 2.8393 0
M  V30 4649 C 432.4 3.65645 2.63846 0
M  V30 4650 C 431.062 4.0614 2.58077 0
M  V30 4651 C 433.414 4.59855 2.45322 0
M  V30 4652 C 430.742 5.3899 2.31748 0
M  V30 4653 C 433.094 5.9292 2.2052 0
M  V30 4654 C 431.758 6.32542 2.13183 0
M  V30 4655 H 431.028 0.47721 0.566879 0
M  V30 4656 H 433.675 1.68325 0.913172 0
M  V30 4657 H 431.98 1.72085 3.51986 0
M  V30 4658 H 433.677 2.09846 3.4171 0
M  V30 4659 H 430.267 3.33518 2.69191 0
M  V30 4660 H 434.451 4.29443 2.48782 0
M  V30 4661 H 429.707 5.68672 2.24548 0
M  V30 4662 H 433.881 6.65487 2.05182 0
M  V30 4663 H 431.508 7.35412 1.92544 0
M  V30 4664 N 433.083 -1.0153 1.20538 0
M  V30 4665 C 434.332 -1.74558 1.01057 0
M  V30 4666 C 434.645 -1.90168 -0.457756 0
M  V30 4667 O 435.851 -2.60301 -0.771722 0
M  V30 4668 C 434.307 -3.13963 1.75941 0
M  V30 4669 C 433.915 -3.06361 3.26875 0
M  V30 4670 C 435.659 -3.91191 1.64832 0
M  V30 4671 C 433.566 -4.40782 3.94291 0
M  V30 4672 H 432.496 -0.654417 0.374505 0
M  V30 4673 H 435.147 -1.13521 1.44171 0
M  V30 4674 H 433.529 -3.75549 1.25614 0
M  V30 4675 H 434.703 -2.54074 3.84425 0
M  V30 4676 H 433.018 -2.42625 3.38411 0
M  V30 4677 H 435.615 -4.90644 2.12539 0
M  V30 4678 H 435.958 -4.11884 0.604745 0
M  V30 4679 H 436.491 -3.36236 2.12579 0
M  V30 4680 H 433.23 -4.25292 4.98805 0
M  V30 4681 H 432.75 -4.9307 3.41529 0
M  V30 4682 H 434.429 -5.09621 3.98617 0
M  V30 4683 N 434.561 -1.01147 -1.20859 0
M  V30 4684 C 435.491 -0.597663 -2.25722 0
M  V30 4685 C 436.472 0.384744 -1.65692 0
M  V30 4686 O 437.657 0.271303 -1.92296 0
M  V30 4687 C 434.787 0.0700149 -3.47229 0
M  V30 4688 C 433.741 -0.832843 -4.19819 0
M  V30 4689 C 433.067 -0.0312202 -5.34691 0
M  V30 4690 C 434.367 -2.1385 -4.76514 0
M  V30 4691 H 436.061 -1.47423 -2.60589 0
M  V30 4692 H 433.607 -0.710301 -1.25263 0
M  V30 4693 H 435.56 0.37103 -4.19763 0
M  V30 4694 H 434.284 0.981259 -3.11511 0
M  V30 4695 H 432.943 -1.11778 -3.49144 0
M  V30 4696 H 432.591 0.881515 -4.95215 0
M  V30 4697 H 432.291 -0.632434 -5.84187 0
M  V30 4698 H 433.815 0.26346 -6.10031 0
M  V30 4699 H 435.229 -1.9002 -5.40893 0
M  V30 4700 H 433.626 -2.69012 -5.36426 0
M  V30 4701 H 434.696 -2.80495 -3.95538 0
M  V30 4702 N 436.039 1.36541 -0.78704 0
M  V30 4703 C 437.285 1.99599 -0.358872 0
M  V30 4704 C 437.618 1.62323 1.06606 0
M  V30 4705 O 436.893 0.876858 1.73613 0
M  V30 4706 C 437.176 3.56327 -0.519944 0
M  V30 4707 C 437.029 4.03464 -1.98839 0
M  V30 4708 C 438.348 4.4005 0.0664737 0
M  V30 4709 H 435.467 0.725107 -0.131869 0
M  V30 4710 H 438.109 1.6199 -0.992936 0
M  V30 4711 H 436.259 3.88495 0.0198321 0
M  V30 4712 H 437.931 3.81793 -2.58905 0
M  V30 4713 H 436.174 3.55092 -2.49183 0
M  V30 4714 H 436.845 5.12439 -2.05207 0
M  V30 4715 H 439.321 4.14228 -0.394267 0
M  V30 4716 H 438.197 5.48847 -0.0762682 0
M  V30 4717 H 438.458 4.26655 1.15835 0
M  V30 4718 N 437.518 0.538854 1.48102 0
M  V30 4719 C 438.428 -0.222648 2.33541 0
M  V30 4720 C 439.444 -0.930225 1.47047 0
M  V30 4721 O 440.62 -0.903211 1.80011 0
M  V30 4722 C 437.685 -1.25064 3.23357 0
M  V30 4723 C 436.746 -0.552469 4.2573 0
M  V30 4724 C 435.979 -1.53149 5.11254 0
M  V30 4725 O 436.202 -2.76487 4.9891 0
M  V30 4726 O 435.136 -1.06602 5.92385 0
M  V30 4727 H 438.962 0.477707 2.99919 0
M  V30 4728 H 436.547 0.299669 1.46364 0
M  V30 4729 H 438.429 -1.8445 3.78888 0
M  V30 4730 H 437.104 -1.93325 2.59629 0
M  V30 4731 H 436.011 0.082114 3.7401 0
M  V30 4732 H 437.344 0.0883526 4.92121 0
M  V30 4733 N 438.996 -1.55193 0.274407 0
M  V30 4734 C 439.959 -2.212 -0.600279 0
M  V30 4735 C 440.959 -1.18963 -1.08187 0
M  V30 4736 O 442.149 -1.43873 -0.982158 0
M  V30 4737 C 439.281 -2.87739 -1.82809 0
M  V30 4738 H 440.474 -2.9989 -0.0239682 0
M  V30 4739 H 438.027 -1.5628 0.0250192 0
M  V30 4740 H 438.762 -2.13058 -2.44493 0
M  V30 4741 H 438.547 -3.62658 -1.49069 0
M  V30 4742 H 440.037 -3.38171 -2.45011 0
M  V30 4743 N 440.474 -0.00167713 -1.576 0
M  V30 4744 C 441.404 0.988091 -2.11563 0
M  V30 4745 C 442.385 1.35736 -1.02517 0
M  V30 4746 O 443.57 1.44082 -1.30208 0
M  V30 4747 C 440.7 2.27941 -2.62031 0
M  V30 4748 C 439.654 2.0517 -3.75619 0
M  V30 4749 C 438.98 3.4033 -4.12407 0
M  V30 4750 C 440.28 1.41294 -5.02825 0
M  V30 4751 H 441.974 0.538771 -2.94513 0
M  V30 4752 H 439.52 0.257712 -1.41675 0
M  V30 4753 H 441.473 2.97539 -2.9841 0
M  V30 4754 H 440.197 2.74989 -1.76205 0
M  V30 4755 H 438.856 1.37998 -3.39635 0
M  V30 4756 H 438.504 3.85085 -3.23603 0
M  V30 4757 H 438.204 3.25909 -4.88935 0
M  V30 4758 H 439.728 4.1124 -4.51347 0
M  V30 4759 H 441.142 2.00851 -5.36965 0
M  V30 4760 H 439.539 1.37356 -5.84169 0
M  V30 4761 H 440.609 0.382362 -4.8339 0
M  V30 4762 N 441.952 1.55251 0.271103 0
M  V30 4763 C 443.2 1.75599 1.00047 0
M  V30 4764 C 443.521 0.561188 1.8675 0
M  V30 4765 O 442.791 -0.423846 1.9126 0
M  V30 4766 H 441.371 0.647562 0.372387 0
M  V30 4767 H 444.033 1.92656 0.294876 0
M  V30 4768 H 443.129 2.65766 1.6363 0
M  V30 4769 N 443.43 -0.535701 1.48216 0
M  V30 4770 C 444.655 -1.32149 1.59848 0
M  V30 4771 C 445.08 -1.86338 0.256842 0
M  V30 4772 O 444.438 -1.64107 -0.770632 0
M  V30 4773 C 444.486 -2.45224 2.64381 0
M  V30 4774 O 443.59 -3.48093 2.21144 0
M  V30 4775 H 442.931 -0.391634 0.536208 0
M  V30 4776 H 445.461 -0.645202 1.94161 0
M  V30 4777 H 445.471 -2.91491 2.85476 0
M  V30 4778 H 444.146 -2.05143 3.61786 0
M  V30 4779 H 442.723 -3.07984 2.10239 0
M  V30 4780 N 444.908 -1.36708 -0.784132 0
M  V30 4781 C 446.136 -1.34398 -1.57305 0
M  V30 4782 C 446.551 0.0735577 -1.88657 0
M  V30 4783 O 445.908 1.03193 -1.50524 0
M  V30 4784 C 445.959 -2.17053 -2.89085 0
M  V30 4785 O 445.68 -3.53281 -2.59083 0
M  V30 4786 C 447.181 -2.22583 -3.83369 0
M  V30 4787 H 444.401 -0.460819 -0.487736 0
M  V30 4788 H 446.945 -1.79879 -0.972819 0
M  V30 4789 H 445.1 -1.75113 -3.45564 0
M  V30 4790 H 445.514 -3.9647 -3.43383 0
M  V30 4791 H 446.988 -2.84763 -4.72878 0
M  V30 4792 H 447.465 -1.23075 -4.21603 0
M  V30 4793 H 448.071 -2.64781 -3.32823 0
M  V30 4794 N 446.386 1.0089 -1.21074 0
M  V30 4795 C 447.611 1.78727 -1.05221 0
M  V30 4796 C 448.036 1.83932 0.393795 0
M  V30 4797 O 447.394 1.28004 1.28393 0
M  V30 4798 C 447.442 3.20665 -1.64944 0
M  V30 4799 O 446.546 4.02632 -0.892273 0
M  V30 4800 H 445.887 0.550973 -0.370574 0
M  V30 4801 H 448.417 1.26847 -1.60534 0
M  V30 4802 H 448.427 3.71352 -1.69002 0
M  V30 4803 H 447.102 3.16191 -2.70177 0
M  V30 4804 H 445.679 3.61207 -0.926492 0
M  V30 4805 N 447.864 1.01787 1.20321 0
M  V30 4806 C 448.814 0.559976 2.21016 0
M  V30 4807 C 449.798 -0.385366 1.56217 0
M  V30 4808 O 450.99 -0.208126 1.75772 0
M  V30 4809 C 448.119 -0.0990553 3.43157 0
M  V30 4810 C 447.205 0.86807 4.15121 0
M  V30 4811 N 447.596 2.0261 4.63447 0
M  V30 4812 C 445.894 0.689162 4.40643 0
M  V30 4813 C 446.595 2.63518 5.18588 0
M  V30 4814 N 445.571 1.91569 5.08726 0
M  V30 4815 H 449.373 1.44281 2.56048 0
M  V30 4816 H 446.887 0.883381 1.36272 0
M  V30 4817 H 448.884 -0.444643 4.14522 0
M  V30 4818 H 447.544 -0.977709 3.0963 0
M  V30 4819 H 448.555 2.40598 4.58621 0
M  V30 4820 H 445.232 -0.14133 4.17261 0
M  V30 4821 H 446.622 3.61527 5.66346 0
M  V30 4822 N 449.342 -1.36122 0.79427 0
M  V30 4823 C 450.567 -2.03891 0.379871 0
M  V30 4824 C 450.992 -1.59488 -0.997251 0
M  V30 4825 O 450.35 -0.765652 -1.64339 0
M  V30 4826 C 450.398 -3.57687 0.457442 0
M  V30 4827 O 449.502 -4.08931 -0.5338 0
M  V30 4828 H 448.843 -0.6443 0.160541 0
M  V30 4829 H 451.373 -1.73976 1.07673 0
M  V30 4830 H 451.383 -4.06721 0.322792 0
M  V30 4831 H 450.058 -3.89357 1.46199 0
M  V30 4832 H 448.635 -3.71154 -0.360409 0
M  V30 4833 N 450.82 -0.546701 -1.47814 0
M  V30 4834 C 452.048 -0.0232857 -2.06887 0
M  V30 4835 C 452.463 1.26571 -1.4009 0
M  V30 4836 O 451.82 1.7569 -0.493906 0
M  V30 4837 C 451.871 0.186975 -3.61016 0
M  V30 4838 O 451.592 -1.05097 -4.25307 0
M  V30 4839 C 453.093 0.748872 -4.36929 0
M  V30 4840 H 450.313 -0.0410763 -0.669742 0
M  V30 4841 H 452.857 -0.757117 -1.89968 0
M  V30 4842 H 451.012 0.870903 -3.77484 0
M  V30 4843 H 451.426 -0.842121 -5.17695 0
M  V30 4844 H 452.9 0.845334 -5.45489 0
M  V30 4845 H 453.377 1.75772 -4.02493 0
M  V30 4846 H 453.983 0.100979 -4.2518 0
M  V30 4847 N 452.299 1.55045 -0.282633 0
M  V30 4848 C 453.262 2.21515 0.588539 0
M  V30 4849 C 454.262 1.19535 1.07554 0
M  V30 4850 O 455.452 1.44391 0.974514 0
M  V30 4851 C 452.584 2.88704 1.8128 0
M  V30 4852 H 453.777 2.99899 0.00806397 0
M  V30 4853 H 451.33 1.56265 -0.0333067 0
M  V30 4854 H 452.065 2.14352 2.43359 0
M  V30 4855 H 451.85 3.63443 1.47144 0
M  V30 4856 H 453.34 3.39465 2.43214 0
M  V30 4857 N 453.777 0.010035 1.57597 0
M  V30 4858 C 454.74 -0.963029 2.07986 0
M  V30 4859 C 455.74 -1.26619 0.991173 0
M  V30 4860 O 456.93 -1.2097 1.25347 0
M  V30 4861 C 454.062 -2.2851 2.52974 0
M  V30 4862 H 455.255 -0.526971 2.95234 0
M  V30 4863 H 452.808 -0.237639 1.54483 0
M  V30 4864 H 453.543 -2.76784 1.69 0
M  V30 4865 H 453.328 -2.07824 3.32493 0
M  V30 4866 H 454.818 -2.98294 2.9225 0
M  V30 4867 N 455.255 -1.55392 -0.262866 0
M  V30 4868 C 456.185 -1.91978 -1.32917 0
M  V30 4869 C 457.166 -0.7828 -1.51017 0
M  V30 4870 O 458.351 -1.04178 -1.63892 0
M  V30 4871 C 455.481 -2.20055 -2.68687 0
M  V30 4872 C 454.435 -3.35854 -2.65304 0
M  V30 4873 C 453.761 -3.49435 -4.04721 0
M  V30 4874 C 455.061 -4.71977 -2.23685 0
M  V30 4875 H 456.755 -2.81292 -1.02544 0
M  V30 4876 H 454.301 -1.3534 -0.491846 0
M  V30 4877 H 456.254 -2.44237 -3.43404 0
M  V30 4878 H 454.978 -1.27551 -3.00663 0
M  V30 4879 H 453.637 -3.11655 -1.93045 0
M  V30 4880 H 453.285 -2.54379 -4.33936 0
M  V30 4881 H 452.985 -4.27297 -4.0335 0
M  V30 4882 H 454.509 -3.7592 -4.81161 0
M  V30 4883 H 455.923 -4.95637 -2.88127 0
M  V30 4884 H 454.32 -5.52828 -2.33456 0
M  V30 4885 H 455.39 -4.70115 -1.18827 0
M  V30 4886 N 456.733 0.527833 -1.48498 0
M  V30 4887 C 457.958 1.313 -1.60546 0
M  V30 4888 C 458.383 1.86199 -0.26672 0
M  V30 4889 O 457.741 1.64513 0.761918 0
M  V30 4890 C 457.789 2.43818 -2.65678 0
M  V30 4891 O 456.893 3.46916 -2.22987 0
M  V30 4892 H 456.234 0.388784 -0.538277 0
M  V30 4893 H 458.764 0.634896 -1.945 0
M  V30 4894 H 458.774 2.89973 -2.87018 0
M  V30 4895 H 457.449 2.03222 -3.62869 0
M  V30 4896 H 456.026 3.06864 -2.11869 0
M  V30 4897 N 458.211 1.37122 0.776871 0
M  V30 4898 C 459.436 1.354 1.57104 0
M  V30 4899 C 459.861 -0.0595562 1.88006 0
M  V30 4900 O 459.219 -1.03514 1.48844 0
M  V30 4901 C 459.267 2.19472 2.8612 0
M  V30 4902 O 458.371 1.59582 3.80273 0
M  V30 4903 H 457.712 0.462869 0.476076 0
M  V30 4904 H 460.242 1.80577 0.961932 0
M  V30 4905 H 460.252 2.32502 3.35271 0
M  V30 4906 H 458.927 3.22222 2.62956 0
M  V30 4907 H 457.504 1.55564 3.38902 0
M  V30 4908 N 459.689 -1.00246 1.21608 0
M  V30 4909 C 460.919 -1.77373 1.05935 0
M  V30 4910 C 461.327 -1.85059 -0.393686 0
M  V30 4911 O 460.67 -1.31289 -1.28487 0
M  V30 4912 C 460.732 -3.22705 1.58435 0
M  V30 4913 C 460.396 -3.38591 3.06929 0
M  V30 4914 C 461.393 -3.2667 4.04454 0
M  V30 4915 C 459.078 -3.6395 3.46187 0
M  V30 4916 C 461.072 -3.39877 5.39224 0
M  V30 4917 C 458.759 -3.768 4.81108 0
M  V30 4918 C 459.757 -3.6477 5.77436 0
M  V30 4919 O 459.445 -3.77206 7.09909 0
M  V30 4920 H 459.177 -0.56419 0.372378 0
M  V30 4921 H 461.731 -1.26971 1.61454 0
M  V30 4922 H 459.961 -3.74255 0.973147 0
M  V30 4923 H 461.65 -3.81515 1.38568 0
M  V30 4924 H 462.416 -3.06999 3.75468 0
M  V30 4925 H 458.295 -3.72395 2.71741 0
M  V30 4926 H 461.839 -3.30404 6.14393 0
M  V30 4927 H 457.736 -3.95975 5.09779 0
M  V30 4928 H 458.504 -3.94138 7.17355 0
M  V30 4929 N 461.167 -1.02423 -1.1978 0
M  V30 4930 C 462.397 -0.736387 -1.93031 0
M  V30 4931 C 462.805 0.708023 -1.75453 0
M  V30 4932 O 462.148 1.4927 -1.07071 0
M  V30 4933 C 462.21 -1.00194 -3.45255 0
M  V30 4934 C 461.874 -2.43698 -3.86601 0
M  V30 4935 C 462.871 -3.41814 -3.91738 0
M  V30 4936 C 460.556 -2.77975 -4.18372 0
M  V30 4937 C 462.55 -4.72265 -4.28071 0
M  V30 4938 C 460.237 -4.08636 -4.54378 0
M  V30 4939 C 461.235 -5.05592 -4.59201 0
M  V30 4940 O 460.923 -6.33914 -4.94376 0
M  V30 4941 H 460.655 -0.269116 -0.620123 0
M  V30 4942 H 463.209 -1.37043 -1.52998 0
M  V30 4943 H 461.439 -0.310747 -3.85449 0
M  V30 4944 H 463.128 -0.704488 -3.9974 0
M  V30 4945 H 463.894 -3.16671 -3.67348 0
M  V30 4946 H 459.773 -2.0319 -4.13805 0
M  V30 4947 H 463.317 -5.4794 -4.3175 0
M  V30 4948 H 459.214 -4.33556 -4.78226 0
M  V30 4949 H 459.982 -6.38317 -5.12341 0
M  V30 4950 N 462.645 1.35699 -0.801477 0
M  V30 4951 C 463.892 1.98913 -0.379459 0
M  V30 4952 C 464.22 1.63592 1.05204 0
M  V30 4953 O 463.475 0.888563 1.74365 0
M  V30 4954 C 463.774 3.53828 -0.504041 0
M  V30 4955 C 463.44 4.09002 -1.8981 0
M  V30 4956 C 462.102 4.23783 -2.27951 0
M  V30 4957 C 464.454 4.38939 -2.81038 0
M  V30 4958 C 461.782 4.65816 -3.56696 0
M  V30 4959 C 464.134 4.82409 -4.09224 0
M  V30 4960 C 462.798 4.95395 -4.4737 0
M  V30 4961 H 462.068 0.727874 -0.138854 0
M  V30 4962 H 464.715 1.61994 -1.02128 0
M  V30 4963 H 463.02 3.91175 0.221242 0
M  V30 4964 H 464.717 4.00687 -0.158361 0
M  V30 4965 H 461.307 3.97946 -1.59176 0
M  V30 4966 H 465.491 4.27077 -2.52821 0
M  V30 4967 H 460.747 4.74059 -3.86106 0
M  V30 4968 H 464.921 5.04535 -4.80018 0
M  V30 4969 H 462.548 5.27724 -5.47185 0
M  V30 4970 N 464.123 0.554532 1.47522 0
M  V30 4971 C 465.363 0.0317994 2.04375 0
M  V30 4972 C 465.727 -1.29242 1.41988 0
M  V30 4973 O 466.928 -1.90269 1.89872 0
M  V30 4974 C 465.199 -0.0623344 3.57346 0
M  V30 4975 S 466.758 -0.531578 4.35568 0
M  V30 4976 H 463.576 0.0238553 0.7106 0
M  V30 4977 H 466.178 0.74066 1.80927 0
M  V30 4978 H 464.882 0.905857 4.00278 0
M  V30 4979 H 464.413 -0.794831 3.85287 0
M  V30 4980 H 466.428 -1.79175 4.62721 0
M  V30 4981 N 465.601 -1.54893 0.290851 0
M  V30 4982 C 466.85 -1.99111 -0.322113 0
M  V30 4983 C 467.163 -1.18283 -1.55784 0
M  V30 4984 O 468.369 -1.5272 -2.24475 0
M  V30 4985 C 466.825 -3.54442 -0.624438 0
M  V30 4986 C 466.433 -4.44066 0.592373 0
M  V30 4987 C 468.177 -4.07211 -1.19916 0
M  V30 4988 C 466.084 -5.90812 0.263762 0
M  V30 4989 H 465.014 -0.743712 -0.124133 0
M  V30 4990 H 467.665 -1.79132 0.39797 0
M  V30 4991 H 466.047 -3.70281 -1.40384 0
M  V30 4992 H 467.221 -4.39999 1.36886 0
M  V30 4993 H 465.536 -4.02015 1.08502 0
M  V30 4994 H 468.133 -5.14407 -1.45909 0
M  V30 4995 H 468.476 -3.57196 -2.13815 0
M  V30 4996 H 469.009 -3.94873 -0.481687 0
M  V30 4997 H 465.748 -6.44955 1.17105 0
M  V30 4998 H 465.268 -5.97911 -0.475655 0
M  V30 4999 H 466.947 -6.46852 -0.138354 0
M  V30 5000 N 467.08 -0.0183926 -1.57589 0
M  V30 5001 C 468.043 0.951986 -2.08494 0
M  V30 5002 C 469.043 1.26092 -0.997874 0
M  V30 5003 O 470.233 1.20304 -1.25987 0
M  V30 5004 C 467.365 2.27165 -2.54182 0
M  V30 5005 H 468.558 0.511307 -2.95509 0
M  V30 5006 H 466.111 0.229444 -1.54607 0
M  V30 5007 H 466.846 2.75884 -1.70465 0
M  V30 5008 H 466.631 2.06057 -3.33591 0
M  V30 5009 H 468.121 2.9674 -2.93828 0
M  V30 5010 N 468.558 1.5553 0.254621 0
M  V30 5011 C 469.488 1.9268 1.31897 0
M  V30 5012 C 470.469 0.790797 1.506 0
M  V30 5013 O 471.654 1.05045 1.63337 0
M  V30 5014 C 468.784 2.21477 2.67517 0
M  V30 5015 C 467.738 3.37256 2.63519 0
M  V30 5016 C 467.064 3.51576 4.02862 0
M  V30 5017 C 468.364 4.73157 2.21179 0
M  V30 5018 H 470.058 2.81832 1.01051 0
M  V30 5019 H 467.604 1.35599 0.484662 0
M  V30 5020 H 469.557 2.46055 3.42104 0
M  V30 5021 H 468.281 1.29144 2.99982 0
M  V30 5022 H 466.94 3.12675 1.9139 0
M  V30 5023 H 466.588 2.56676 4.32581 0
M  V30 5024 H 466.288 4.2943 4.01078 0
M  V30 5025 H 467.812 3.78467 4.79161 0
M  V30 5026 H 469.226 4.97158 2.85494 0
M  V30 5027 H 467.623 5.54058 2.30521 0
M  V30 5028 H 468.693 4.70739 1.16332 0
M  V30 5029 N 470.036 -0.519951 1.48776 0
M  V30 5030 C 471.284 -1.2727 1.56993 0
M  V30 5031 C 471.605 -1.9339 0.25004 0
M  V30 5032 O 470.875 -1.81822 -0.729216 0
M  V30 5033 H 469.455 -0.472732 0.578389 0
M  V30 5034 H 472.117 -0.604234 1.85297 0
M  V30 5035 H 471.213 -2.04669 2.3562 0
M  V30 5036 N 471.514 -1.37532 -0.769588 0
M  V30 5037 C 472.744 -1.35861 -1.55645 0
M  V30 5038 C 473.152 0.0574398 -1.89113 0
M  V30 5039 O 472.495 1.03021 -1.52093 0
M  V30 5040 C 472.557 -2.13431 -2.89288 0
M  V30 5041 C 472.221 -3.62378 -2.78444 0
M  V30 5042 C 473.218 -4.56215 -2.49326 0
M  V30 5043 C 470.903 -4.05529 -2.96398 0
M  V30 5044 C 472.897 -5.91181 -2.38294 0
M  V30 5045 C 470.584 -5.40579 -2.84987 0
M  V30 5046 C 471.582 -6.33218 -2.55975 0
M  V30 5047 O 471.27 -7.65787 -2.44594 0
M  V30 5048 H 471.002 -0.467001 -0.48876 0
M  V30 5049 H 473.556 -1.81505 -0.961515 0
M  V30 5050 H 471.786 -1.62481 -3.50909 0
M  V30 5051 H 473.475 -2.04368 -3.50697 0
M  V30 5052 H 474.241 -4.24187 -2.35139 0
M  V30 5053 H 470.12 -3.33781 -3.1798 0
M  V30 5054 H 473.664 -6.63457 -2.15571 0
M  V30 5055 H 469.561 -5.72209 -2.98743 0
M  V30 5056 H 470.329 -7.76132 -2.59927 0
M  V30 5057 N 472.992 0.995999 -1.22138 0
M  V30 5058 C 474.22 1.77066 -1.07029 0
M  V30 5059 C 474.635 1.8495 0.379357 0
M  V30 5060 O 473.992 1.3174 1.26297 0
M  V30 5061 C 474.043 3.20533 -1.67155 0
M  V30 5062 O 473.764 3.13082 -3.06449 0
M  V30 5063 C 475.265 4.14461 -1.5728 0
M  V30 5064 H 472.485 0.556179 -0.375374 0
M  V30 5065 H 475.029 1.25238 -1.61666 0
M  V30 5066 H 473.184 3.6944 -1.16589 0
M  V30 5067 H 473.598 4.03283 -3.35355 0
M  V30 5068 H 475.072 5.1289 -2.04078 0
M  V30 5069 H 475.549 4.36005 -0.528795 0
M  V30 5070 H 476.155 3.71449 -2.07136 0
M  V30 5071 N 474.47 1.03057 1.19235 0
M  V30 5072 C 475.418 0.606391 2.24557 0
M  V30 5073 C 476.412 -0.361826 1.65491 0
M  V30 5074 O 477.618 -0.23022 1.78522 0
M  V30 5075 H 473.993 0.177838 0.730669 0
M  V30 5076 H 475.964 1.50529 2.5765 0
M  V30 5077 C 474.713 -0.0252127 3.47691 0
M  V30 5078 H 474.036 0.710838 3.9343 0
M  V30 5079 H 475.476 -0.284931 4.23042 0
M  V30 5080 C 473.935 -1.27229 3.11953 0
M  V30 5081 O 474.465 -2.36416 3.24762 0
M  V30 5082 N 472.671 -1.16169 2.6637 0
M  V30 5083 H 472.218 -0.273189 2.56147 0
M  V30 5084 H 472.176 -1.99703 2.42829 0
M  V30 5085 N 475.948 -1.35272 0.808662 0
M  V30 5086 C 477.173 -2.03477 0.401475 0
M  V30 5087 C 477.598 -1.60537 -0.980279 0
M  V30 5088 O 476.956 -0.78304 -1.63518 0
M  V30 5089 C 477.004 -3.57181 0.495354 0
M  V30 5090 O 476.108 -4.09474 -0.490397 0
M  V30 5091 H 475.449 -0.642561 0.167366 0
M  V30 5092 H 477.979 -1.72824 1.09512 0
M  V30 5093 H 477.989 -4.06356 0.365912 0
M  V30 5094 H 476.664 -3.87784 1.5032 0
M  V30 5095 H 475.241 -3.71516 -0.321023 0
M  V30 5096 N 477.426 -0.562348 -1.47226 0
M  V30 5097 C 478.651 -0.0432632 -2.07355 0
M  V30 5098 C 479.076 1.24332 -1.41149 0
M  V30 5099 O 478.434 1.74603 -0.488226 0
M  V30 5100 C 478.482 0.130288 -3.60365 0
M  V30 5101 O 477.586 1.19166 -3.94808 0
M  V30 5102 H 476.927 -0.0536334 -0.66183 0
M  V30 5103 H 479.457 -0.779495 -1.89169 0
M  V30 5104 H 479.467 0.342881 -4.06557 0
M  V30 5105 H 478.142 -0.809389 -4.07948 0
M  V30 5106 H 476.719 0.959153 -3.60354 0
M  V30 5107 N 478.904 1.54736 -0.299062 0
M  V30 5108 C 479.834 2.26409 0.571085 0
M  V30 5109 C 480.815 1.2629 1.13951 0
M  V30 5110 O 482 1.55059 1.16921 0
M  V30 5111 C 479.13 3.00338 1.74396 0
M  V30 5112 C 478.084 4.07588 1.30599 0
M  V30 5113 C 477.41 4.69222 2.56387 0
M  V30 5114 C 478.71 5.20455 0.438645 0
M  V30 5115 H 480.404 2.99388 -0.0266991 0
M  V30 5116 H 477.95 1.43993 -0.0142812 0
M  V30 5117 H 479.903 3.49198 2.35878 0
M  V30 5118 H 478.627 2.24934 2.36796 0
M  V30 5119 H 477.286 3.59575 0.71424 0
M  V30 5120 H 476.934 3.9046 3.17097 0
M  V30 5121 H 476.634 5.41653 2.27784 0
M  V30 5122 H 478.158 5.20844 3.18675 0
M  V30 5123 H 479.572 5.65221 0.959085 0
M  V30 5124 H 477.969 5.99594 0.246466 0
M  V30 5125 H 479.039 4.8192 -0.536738 0
M  V30 5126 N 480.382 0.0267497 1.57577 0
M  V30 5127 C 481.33 -0.973923 2.11229 0
M  V30 5128 C 482.324 -1.33849 1.03831 0
M  V30 5129 O 483.53 -1.321 1.22269 0
M  V30 5130 H 479.905 -0.331844 0.674821 0
M  V30 5131 H 481.876 -0.496092 2.94247 0
M  V30 5132 C 480.625 -2.24798 2.65257 0
M  V30 5133 H 479.948 -1.9762 3.47543 0
M  V30 5134 H 481.388 -2.93031 3.06445 0
M  V30 5135 C 479.847 -2.97611 1.57891 0
M  V30 5136 O 480.377 -3.89629 0.97735 0
M  V30 5137 N 478.583 -2.59905 1.29992 0
M  V30 5138 H 478.13 -1.85154 1.79097 0
M  V30 5139 H 478.088 -3.08932 0.583798 0
M  V30 5140 N 481.861 -1.55662 -0.24637 0
M  V30 5141 C 483.272 -1.67953 -0.81539 0
M  V30 5142 C 483.623 -0.624302 -1.86002 0
M  V30 5143 O 482.748 0.229328 -2.15181 0
M  V30 5144 C 483.343 -3.04484 -1.48576 0
M  V30 5145 C 481.902 -3.18713 -2.00248 0
M  V30 5146 C 481.049 -2.6383 -0.853766 0
M  V30 5147 H 484 -1.58685 -0.0221692 0
M  V30 5148 H 484.021 -2.98959 -2.3538 0
M  V30 5149 H 483.533 -3.81264 -0.725222 0
M  V30 5150 H 481.634 -2.46757 -2.79181 0
M  V30 5151 H 481.747 -4.25628 -2.1995 0
M  V30 5152 H 480.111 -2.21667 -1.25442 0
M  V30 5153 H 480.894 -3.43135 -0.106302 0
M  V30 5154 N 483.339 0.512053 -1.4905 0
M  V30 5155 C 484.588 1.26343 -1.57227 0
M  V30 5156 C 484.901 1.93876 -0.259155 0
M  V30 5157 O 486.107 2.70612 -0.219358 0
M  V30 5158 C 484.563 2.29343 -2.77362 0
M  V30 5159 C 484.171 1.67799 -4.15388 0
M  V30 5160 C 485.915 3.05378 -2.94864 0
M  V30 5161 C 483.822 2.68845 -5.2676 0
M  V30 5162 H 482.752 0.475231 -0.585382 0
M  V30 5163 H 485.403 0.53862 -1.75417 0
M  V30 5164 H 483.785 3.04938 -2.52643 0
M  V30 5165 H 484.959 0.982715 -4.50199 0
M  V30 5166 H 483.274 1.04194 -4.03153 0
M  V30 5167 H 485.871 3.80921 -3.75238 0
M  V30 5168 H 486.214 3.62327 -2.05 0
M  V30 5169 H 486.747 2.36898 -3.19569 0
M  V30 5170 H 483.486 2.16692 -6.18647 0
M  V30 5171 H 483.006 3.36647 -4.96416 0
M  V30 5172 H 484.685 3.31487 -5.5563 0
M  V30 5173 N 484.817 1.37938 0.762283 0
M  V30 5174 C 485.747 1.37176 1.88958 0
M  V30 5175 C 486.728 0.238945 1.68413 0
M  V30 5176 O 487.913 0.440726 1.89133 0
M  V30 5177 C 485.043 1.18742 3.2637 0
M  V30 5178 C 483.997 2.29136 3.61498 0
M  V30 5179 C 483.323 1.95816 4.97554 0
M  V30 5180 C 484.623 3.71363 3.6727 0
M  V30 5181 H 486.317 2.31509 1.89853 0
M  V30 5182 H 483.863 1.11438 0.912005 0
M  V30 5183 H 485.816 1.16837 4.04879 0
M  V30 5184 H 484.54 0.208683 3.25933 0
M  V30 5185 H 483.199 2.30213 2.85303 0
M  V30 5186 H 482.847 0.964475 4.93667 0
M  V30 5187 H 482.547 2.69745 5.22026 0
M  V30 5188 H 484.071 1.95513 5.78452 0
M  V30 5189 H 485.485 3.72364 4.35911 0
M  V30 5190 H 483.882 4.44425 4.03245 0
M  V30 5191 H 484.952 4.04305 2.67704 0
M  V30 5192 N 486.295 -0.989507 1.22664 0
M  V30 5193 C 487.525 -1.7624 1.0781 0
M  V30 5194 C 487.933 -1.85466 -0.374036 0
M  V30 5195 O 487.276 -1.32645 -1.27087 0
M  V30 5196 C 487.338 -3.21007 1.61849 0
M  V30 5197 C 487.002 -3.35316 3.10503 0
M  V30 5198 C 487.999 -3.22362 4.07896 0
M  V30 5199 C 485.684 -3.60258 3.50028 0
M  V30 5200 C 487.678 -3.34139 5.42798 0
M  V30 5201 C 485.365 -3.71676 4.85078 0
M  V30 5202 C 486.363 -3.58625 5.81272 0
M  V30 5203 O 486.051 -3.69655 7.1387 0
M  V30 5204 H 485.783 -0.560209 0.378341 0
M  V30 5205 H 488.337 -1.25252 1.62792 0
M  V30 5206 H 486.567 -3.73202 1.01279 0
M  V30 5207 H 488.256 -3.80024 1.42606 0
M  V30 5208 H 489.022 -3.03 3.78703 0
M  V30 5209 H 484.901 -3.69492 2.75675 0
M  V30 5210 H 488.445 -3.23869 6.17863 0
M  V30 5211 H 484.342 -3.90545 5.1395 0
M  V30 5212 H 485.11 -3.86507 7.21495 0
M  V30 5213 N 487.773 -1.03688 -1.18687 0
M  V30 5214 C 488.736 -0.629115 -2.20397 0
M  V30 5215 C 489.736 0.311495 -1.57754 0
M  V30 5216 O 490.926 0.0974107 -1.73927 0
M  V30 5217 C 488.058 0.0782231 -3.4081 0
M  V30 5218 H 489.251 -1.52915 -2.57987 0
M  V30 5219 H 486.804 -0.828988 -1.32505 0
M  V30 5220 H 487.539 0.992233 -3.08748 0
M  V30 5221 H 487.324 -0.597776 -3.87517 0
M  V30 5222 H 488.814 0.350156 -4.16129 0
M  V30 5223 N 489.251 1.34841 -0.815825 0
M  V30 5224 C 490.498 1.98499 -0.400535 0
M  V30 5225 C 490.826 1.64699 1.03463 0
M  V30 5226 O 490.081 0.907006 1.73412 0
M  V30 5227 C 490.38 3.53273 -0.541541 0
M  V30 5228 C 490.046 4.06966 -1.94138 0
M  V30 5229 C 488.708 4.21341 -2.32433 0
M  V30 5230 C 491.06 4.35933 -2.85677 0
M  V30 5231 C 488.388 4.62007 -3.61617 0
M  V30 5232 C 490.74 4.78042 -4.14317 0
M  V30 5233 C 489.404 4.90622 -4.52599 0
M  V30 5234 H 488.674 0.72636 -0.146566 0
M  V30 5235 H 491.321 1.60902 -1.0384 0
M  V30 5236 H 489.626 3.91387 0.179741 0
M  V30 5237 H 491.323 4.00497 -0.20085 0
M  V30 5238 H 487.913 3.96235 -1.63388 0
M  V30 5239 H 492.097 4.24372 -2.57337 0
M  V30 5240 H 487.353 4.69937 -3.91113 0
M  V30 5241 H 491.527 4.99415 -4.85342 0
M  V30 5242 H 489.154 5.2189 -5.52752 0
M  V30 5243 N 490.729 0.570148 1.46925 0
M  V30 5244 C 491.659 -0.158274 2.32963 0
M  V30 5245 C 492.64 -0.896093 1.44583 0
M  V30 5246 O 493.825 -0.874022 1.7342 0
M  V30 5247 C 490.955 -1.18055 3.26619 0
M  V30 5248 C 489.909 -0.558379 4.24342 0
M  V30 5249 C 489.235 -1.68623 5.07415 0
M  V30 5250 C 490.535 0.496295 5.19937 0
M  V30 5251 H 492.229 0.560046 2.94115 0
M  V30 5252 H 489.775 0.270775 1.41431 0
M  V30 5253 H 491.728 -1.69841 3.85658 0
M  V30 5254 H 490.452 -1.92899 2.63548 0
M  V30 5255 H 489.111 -0.0617157 3.66548 0
M  V30 5256 H 488.759 -2.42402 4.40738 0
M  V30 5257 H 488.459 -1.27564 5.73586 0
M  V30 5258 H 489.983 -2.20709 5.69315 0
M  V30 5259 H 491.397 0.0640052 5.73264 0
M  V30 5260 H 489.794 0.82649 5.94381 0
M  V30 5261 H 490.864 1.38735 4.6463 0
M  V30 5262 N 492.207 -1.54576 0.307264 0
M  V30 5263 C 493.484 -1.92377 -0.353605 0
M  V30 5264 C 493.864 -1.23517 -1.71192 0
M  V30 5265 O 493.212 -0.373101 -2.25433 0
M  V30 5266 C 493.422 -3.45928 -0.462039 0
M  V30 5267 C 494.77 -4.18278 -0.729975 0
M  V30 5268 O 495.794 -3.51997 -0.545605 0
M  V30 5269 O 494.653 -5.3563 -1.08454 0
M  V30 5270 H 491.747 -0.802747 -0.198812 0
M  V30 5271 H 494.293 -1.65929 0.355783 0
M  V30 5272 H 493.065 -3.88187 0.492592 0
M  V30 5273 H 492.688 -3.78431 -1.21965 0
M  V30 5274 N 493.685 -0.035106 -1.57561 0
M  V30 5275 C 494.595 0.960295 -2.14046 0
M  V30 5276 C 495.611 1.3529 -1.0942 0
M  V30 5277 O 496.787 1.43309 -1.41508 0
M  V30 5278 C 493.852 2.22214 -2.66124 0
M  V30 5279 C 492.913 1.8894 -3.85487 0
M  V30 5280 C 492.146 3.09109 -4.35072 0
M  V30 5281 O 492.369 4.21963 -3.83802 0
M  V30 5282 O 491.303 2.91058 -5.26848 0
M  V30 5283 H 495.129 0.509983 -2.99387 0
M  V30 5284 H 492.714 0.185853 -1.48239 0
M  V30 5285 H 494.596 2.96279 -2.99661 0
M  V30 5286 H 493.271 2.66414 -1.83862 0
M  V30 5287 H 492.178 1.12241 -3.56865 0
M  V30 5288 H 493.511 1.49551 -4.6893 0
M  V30 5289 N 495.163 1.55791 0.238111 0
M  V30 5290 C 496.111 1.91885 1.31464 0
M  V30 5291 C 497.105 0.798929 1.49377 0
M  V30 5292 O 498.311 0.983626 1.50747 0
M  V30 5293 H 494.686 0.609551 0.440399 0
M  V30 5294 H 496.657 2.81747 0.982925 0
M  V30 5295 C 495.406 2.23763 2.6613 0
M  V30 5296 H 494.729 3.09444 2.53149 0
M  V30 5297 H 496.169 2.52915 3.40309 0
M  V30 5298 C 494.628 1.05699 3.1989 0
M  V30 5299 O 495.158 0.309524 4.00506 0
M  V30 5300 N 493.364 0.845251 2.78036 0
M  V30 5301 H 492.911 1.4548 2.12588 0
M  V30 5302 H 492.869 0.0569973 3.14348 0
M  V30 5303 N 496.642 -0.504142 1.49319 0
M  V30 5304 C 497.889 -1.25846 1.58647 0
M  V30 5305 C 498.217 -1.92592 0.27177 0
M  V30 5306 O 497.472 -1.81167 -0.74007 0
M  V30 5307 C 497.771 -2.35021 2.69258 0
M  V30 5308 C 497.437 -1.85755 4.1086 0
M  V30 5309 C 496.099 -1.72038 4.49395 0
M  V30 5310 C 498.451 -1.48844 4.99495 0
M  V30 5311 C 495.779 -1.19783 5.74342 0
M  V30 5312 C 498.131 -0.980422 6.24956 0
M  V30 5313 C 496.795 -0.829622 6.62324 0
M  V30 5314 H 496.065 -0.460505 0.580531 0
M  V30 5315 H 498.712 -0.559716 1.83138 0
M  V30 5316 H 497.017 -3.10672 2.38726 0
M  V30 5317 H 498.714 -2.93083 2.73685 0
M  V30 5318 H 495.304 -1.9739 3.80441 0
M  V30 5319 H 499.488 -1.5829 4.70381 0
M  V30 5320 H 494.744 -1.06817 6.01997 0
M  V30 5321 H 498.918 -0.685608 6.93017 0
M  V30 5322 H 496.545 -0.42253 7.59025 0
M  V30 5323 N 498.12 -1.38341 -0.754957 0
M  V30 5324 C 499.067 -1.3546 -1.86867 0
M  V30 5325 C 500.037 -0.217369 -1.64672 0
M  V30 5326 O 501.222 -0.409383 -1.86356 0
M  V30 5327 C 498.362 -1.18413 -3.24149 0
M  V30 5328 C 497.475 -2.41511 -3.58185 0
M  V30 5329 C 496.61 -2.17205 -4.84763 0
M  V30 5330 C 495.649 -3.36081 -5.11582 0
M  V30 5331 N 494.786 -3.11219 -6.29354 0
M  V30 5332 H 499.626 -2.30672 -1.88664 0
M  V30 5333 H 497.163 -1.14607 -0.922154 0
M  V30 5334 H 499.121 -1.06545 -4.03366 0
M  V30 5335 H 497.751 -0.268397 -3.21682 0
M  V30 5336 H 496.803 -2.64056 -2.73822 0
M  V30 5337 H 498.115 -3.30115 -3.73932 0
M  V30 5338 H 497.269 -2.02465 -5.7192 0
M  V30 5339 H 496.008 -1.25964 -4.71152 0
M  V30 5340 H 495.013 -3.51341 -4.22894 0
M  V30 5341 H 496.238 -4.28196 -5.27091 0
M  V30 5342 H 494.184 -2.22624 -6.17069 0
M  V30 5343 H 494.101 -3.93373 -6.45596 0
M  V30 5344 H 495.369 -3.00132 -7.19403 0
M  V30 5345 N 499.598 0.982988 -1.23187 0
M  V30 5346 C 501.014 1.2487 -0.993967 0
M  V30 5347 C 501.214 1.99155 0.306498 0
M  V30 5348 O 500.27 2.30688 1.0266 0
M  V30 5349 C 501.583 2.05078 -2.19917 0
M  V30 5350 C 503.131 2.18227 -2.2438 0
M  V30 5351 C 503.606 3.01825 -3.44479 0
M  V30 5352 N 505.097 3.09411 -3.44702 0
M  V30 5353 C 505.832 3.74412 -4.34285 0
M  V30 5354 N 505.328 4.41259 -5.341 0
M  V30 5355 N 507.121 3.71273 -4.22035 0
M  V30 5356 H 499.272 0.485253 -2.06783 0
M  V30 5357 H 501.535 0.276979 -0.906635 0
M  V30 5358 H 501.241 1.57867 -3.14279 0
M  V30 5359 H 501.115 3.05829 -2.2079 0
M  V30 5360 H 503.502 2.64648 -1.30559 0
M  V30 5361 H 503.583 1.16873 -2.2754 0
M  V30 5362 H 503.227 2.56102 -4.38605 0
M  V30 5363 H 503.157 4.03342 -3.38559 0
M  V30 5364 H 505.648 2.61845 -2.7248 0
M  V30 5365 H 505.961 4.88629 -5.98717 0
M  V30 5366 H 504.306 4.39975 -5.38002 0
M  V30 5367 H 507.497 3.18217 -3.43301 0
M  V30 5368 H 507.67 4.21649 -4.92053 0
M  V30 5369 N 501.076 1.04316 1.18135 0
M  V30 5370 C 502.316 0.756937 1.89868 0
M  V30 5371 C 502.68 -0.702609 1.78682 0
M  V30 5372 O 503.881 -1.10255 2.45148 0
M  V30 5373 C 502.152 1.21327 3.36176 0
M  V30 5374 S 503.711 1.05307 4.25976 0
M  V30 5375 H 500.529 0.275143 0.655604 0
M  V30 5376 H 503.131 1.33597 1.42731 0
M  V30 5377 H 501.835 2.27086 3.41848 0
M  V30 5378 H 501.366 0.628137 3.88353 0
M  V30 5379 H 503.381 -0.0280093 4.96192 0
M  V30 5380 N 502.554 -1.34406 0.822964 0
M  V30 5381 C 503.801 -1.98284 0.411057 0
M  V30 5382 C 504.129 -1.65245 -1.02588 0
M  V30 5383 O 503.384 -0.91619 -1.72929 0
M  V30 5384 C 503.683 -3.52981 0.560268 0
M  V30 5385 C 503.349 -4.05931 1.96293 0
M  V30 5386 C 502.011 -4.20103 2.34664 0
M  V30 5387 C 504.363 -4.34412 2.87985 0
M  V30 5388 C 501.691 -4.60082 3.64062 0
M  V30 5389 C 504.043 -4.75838 4.16847 0
M  V30 5390 C 502.707 -4.88215 4.55195 0
M  V30 5391 H 501.977 -0.725573 0.150416 0
M  V30 5392 H 504.624 -1.60349 1.04692 0
M  V30 5393 H 502.929 -3.91477 -0.158982 0
M  V30 5394 H 504.626 -4.00385 0.222087 0
M  V30 5395 H 501.216 -3.95363 1.65487 0
M  V30 5396 H 505.4 -4.23001 2.59584 0
M  V30 5397 H 500.656 -4.67856 3.93599 0
M  V30 5398 H 504.83 -4.96834 4.87984 0
M  V30 5399 H 502.457 -5.18952 5.55512 0
M  V30 5400 N 504.032 -0.577932 -1.46621 0
M  V30 5401 C 505.448 -0.239242 -1.57797 0
M  V30 5402 C 505.648 1.25843 -1.57371 0
M  V30 5403 O 504.704 2.03988 -1.48813 0
M  V30 5404 C 506.017 -0.884227 -2.87405 0
M  V30 5405 C 507.565 -0.857373 -3.01028 0
M  V30 5406 C 508.04 -1.48181 -4.33366 0
M  V30 5407 N 509.531 -1.44593 -4.40053 0
M  V30 5408 C 510.266 -1.89852 -5.41058 0
M  V30 5409 N 509.762 -2.43062 -6.48762 0
M  V30 5410 N 511.555 -1.80797 -5.3223 0
M  V30 5411 H 503.706 -1.55073 -1.45142 0
M  V30 5412 H 505.969 -0.647903 -0.692044 0
M  V30 5413 H 505.675 -1.93759 -2.93514 0
M  V30 5414 H 505.549 -0.389585 -3.75183 0
M  V30 5415 H 507.936 0.187357 -2.94505 0
M  V30 5416 H 508.017 -1.38999 -2.14739 0
M  V30 5417 H 507.661 -2.52572 -4.40647 0
M  V30 5418 H 507.591 -0.924464 -5.18422 0
M  V30 5419 H 510.082 -1.05694 -3.62819 0
M  V30 5420 H 510.395 -2.75466 -7.22038 0
M  V30 5421 H 508.74 -2.47085 -6.49595 0
M  V30 5422 H 511.931 -1.38989 -4.46989 0
M  V30 5423 H 512.104 -2.16385 -6.10804 0
M  V30 5424 N 505.51 1.54411 -0.315457 0
M  V30 5425 C 506.787 1.92562 0.343398 0
M  V30 5426 C 507.167 1.24423 1.70535 0
M  V30 5427 O 506.515 0.385051 2.25232 0
M  V30 5428 C 506.725 3.46168 0.443687 0
M  V30 5429 C 508.073 4.18659 0.707783 0
M  V30 5430 O 509.097 3.52281 0.52693 0
M  V30 5431 O 507.956 5.36198 1.05612 0
M  V30 5432 H 505.05 0.80379 0.194552 0
M  V30 5433 H 507.596 1.65738 -0.364577 0
M  V30 5434 H 506.368 3.8792 -0.513172 0
M  V30 5435 H 505.991 3.79073 1.19956 0
M  V30 5436 N 506.988 0.0434614 1.5754 0
M  V30 5437 C 508.235 -0.632035 1.92384 0
M  V30 5438 C 508.563 -1.71304 0.921157 0
M  V30 5439 O 507.818 -1.95583 -0.067744 0
M  V30 5440 C 508.117 -1.2738 3.3393 0
M  V30 5441 C 507.783 -0.321757 4.49751 0
M  V30 5442 C 506.445 -0.0597611 4.81163 0
M  V30 5443 C 508.797 0.331158 5.20147 0
M  V30 5444 C 506.125 0.862715 5.80322 0
M  V30 5445 C 508.477 1.24178 6.20292 0
M  V30 5446 C 507.141 1.51252 6.50138 0
M  V30 5447 H 506.411 -0.231278 0.703983 0
M  V30 5448 H 509.058 0.108294 1.91194 0
M  V30 5449 H 507.363 -2.08921 3.3145 0
M  V30 5450 H 509.06 -1.80326 3.58167 0
M  V30 5451 H 505.65 -0.53614 4.25233 0
M  V30 5452 H 509.834 0.141826 4.96097 0
M  V30 5453 H 505.09 1.08003 6.01785 0
M  V30 5454 H 509.264 1.75381 6.73954 0
M  V30 5455 H 506.891 2.22897 7.26788 0
M  V30 5456 N 508.466 -1.55915 -0.229846 0
M  V30 5457 C 509.706 -1.80314 -0.962614 0
M  V30 5458 C 510.07 -0.61568 -1.81861 0
M  V30 5459 O 511.271 -0.738795 -2.58448 0
M  V30 5460 C 509.542 -3.0956 -1.78627 0
M  V30 5461 S 511.101 -3.55243 -2.57581 0
M  V30 5462 H 507.919 -0.633142 -0.323499 0
M  V30 5463 H 510.521 -1.94155 -0.228919 0
M  V30 5464 H 509.225 -3.94033 -1.14742 0
M  V30 5465 H 508.756 -2.98503 -2.56241 0
M  V30 5466 H 510.771 -3.17924 -3.80971 0
M  V30 5467 N 509.944 0.496216 -1.49584 0
M  V30 5468 C 511.191 1.25003 -1.59312 0
M  V30 5469 C 511.519 1.92445 -0.28198 0
M  V30 5470 O 510.774 1.81557 0.730452 0
M  V30 5471 C 511.073 2.3359 -2.705 0
M  V30 5472 C 510.739 1.83574 -4.11839 0
M  V30 5473 C 509.401 1.69653 -4.50302 0
M  V30 5474 C 511.753 1.46193 -5.00277 0
M  V30 5475 C 509.081 1.16736 -5.74969 0
M  V30 5476 C 511.433 0.947265 -6.25468 0
M  V30 5477 C 510.097 0.794485 -6.62755 0
M  V30 5478 H 509.367 0.45742 -0.582965 0
M  V30 5479 H 512.014 0.549996 -1.83432 0
M  V30 5480 H 510.319 3.09401 -2.40371 0
M  V30 5481 H 512.016 2.91627 -2.75235 0
M  V30 5482 H 508.606 1.9537 -3.81482 0
M  V30 5483 H 512.79 1.55793 -4.71214 0
M  V30 5484 H 508.046 1.03623 -6.02555 0
M  V30 5485 H 512.22 0.648846 -6.93371 0
M  V30 5486 H 509.847 0.382271 -7.59238 0
M  V30 5487 N 511.423 1.38739 0.74761 0
M  V30 5488 C 512.834 1.31507 1.32524 0
M  V30 5489 C 513.185 -0.0263963 1.96182 0
M  V30 5490 O 512.31 -0.92849 1.95469 0
M  V30 5491 C 512.905 2.38162 2.40966 0
M  V30 5492 C 511.464 2.34489 2.94434 0
M  V30 5493 C 510.611 2.20712 1.67873 0
M  V30 5494 H 513.562 1.4901 0.546043 0
M  V30 5495 H 513.583 2.04222 3.21051 0
M  V30 5496 H 513.095 3.35783 1.94605 0
M  V30 5497 H 511.196 1.40467 3.45108 0
M  V30 5498 H 511.309 3.28861 3.48407 0
M  V30 5499 H 509.673 1.67667 1.91729 0
M  V30 5500 H 510.456 3.20285 1.23582 0
M  V30 5501 N 512.901 -0.976442 1.23707 0
M  V30 5502 C 513.831 -2.08749 1.04624 0
M  V30 5503 C 514.812 -1.70057 -0.0380956 0
M  V30 5504 O 515.997 -1.93782 0.127308 0
M  V30 5505 C 513.127 -3.41335 0.640902 0
M  V30 5506 C 512.081 -3.93947 1.67302 0
M  V30 5507 C 511.407 -5.22774 1.12301 0
M  V30 5508 C 512.707 -4.22769 3.06697 0
M  V30 5509 H 514.401 -2.24972 1.97555 0
M  V30 5510 H 511.947 -1.08108 0.951247 0
M  V30 5511 H 513.9 -4.18489 0.494434 0
M  V30 5512 H 512.624 -3.24988 -0.324099 0
M  V30 5513 H 511.283 -3.18941 1.80755 0
M  V30 5514 H 510.931 -5.0278 0.148877 0
M  V30 5515 H 510.631 -5.58942 1.81267 0
M  V30 5516 H 512.155 -6.02546 0.988479 0
M  V30 5517 H 513.569 -4.90659 2.96524 0
M  V30 5518 H 511.966 -4.70147 3.72937 0
M  V30 5519 H 513.036 -3.29885 3.55392 0
M  V30 5520 N 514.379 -1.04941 -1.1758 0
M  V30 5521 C 515.326 -0.648155 -2.21512 0
M  V30 5522 C 516.296 0.348431 -1.62404 0
M  V30 5523 O 517.481 0.240419 -1.89279 0
M  V30 5524 C 514.621 -0.0264291 -3.4509 0
M  V30 5525 C 513.734 -1.07154 -4.185 0
M  V30 5526 C 512.869 -0.417403 -5.29558 0
M  V30 5527 C 511.908 -1.447 -5.94751 0
M  V30 5528 N 511.045 -0.817203 -6.97328 0
M  V30 5529 H 515.885 -1.53891 -2.55189 0
M  V30 5530 H 513.422 -0.769699 -1.25356 0
M  V30 5531 H 515.38 0.351456 -4.15717 0
M  V30 5532 H 514.01 0.827802 -3.12005 0
M  V30 5533 H 513.062 -1.56728 -3.46613 0
M  V30 5534 H 514.374 -1.8532 -4.63096 0
M  V30 5535 H 513.528 0.0142061 -6.06698 0
M  V30 5536 H 512.267 0.396265 -4.86087 0
M  V30 5537 H 511.272 -1.88865 -5.16343 0
M  V30 5538 H 512.497 -2.26252 -6.40302 0
M  V30 5539 H 510.443 -0.0239995 -6.55996 0
M  V30 5540 H 510.36 -1.53644 -7.40223 0
M  V30 5541 H 511.628 -0.410283 -7.7842 0
M  V30 5542 N 515.857 1.33968 -0.830081 0
M  V30 5543 C 516.79 2.27303 -0.202182 0
M  V30 5544 C 517.768 1.49235 0.645581 0
M  V30 5545 O 518.952 1.78433 0.607762 0
M  V30 5546 C 516.079 3.31025 0.716932 0
M  V30 5547 C 515.125 4.26466 -0.0542271 0
M  V30 5548 S 515.958 5.16707 -1.40622 0
M  V30 5549 C 517.114 6.23962 -0.492167 0
M  V30 5550 H 517.347 2.8021 -0.99346 0
M  V30 5551 H 514.88 1.41124 -0.626359 0
M  V30 5552 H 516.838 3.91271 1.24165 0
M  V30 5553 H 515.499 2.76951 1.4818 0
M  V30 5554 H 514.692 4.99858 0.644785 0
M  V30 5555 H 514.294 3.7051 -0.509722 0
M  V30 5556 H 516.586 6.76774 0.31347 0
M  V30 5557 H 517.529 6.97927 -1.19599 0
M  V30 5558 H 517.937 5.64447 -0.0774176 0
M  V30 5559 N 517.335 0.585699 1.46312 0
M  V30 5560 C 518.751 0.247607 1.57668 0
M  V30 5561 C 518.951 -1.25007 1.58037 0
M  V30 5562 O 518.007 -2.03196 1.49893 0
M  V30 5563 C 519.32 0.899456 2.86933 0
M  V30 5564 C 520.868 0.873326 3.00569 0
M  V30 5565 C 521.343 1.50477 4.32574 0
M  V30 5566 N 522.834 1.46925 4.3928 0
M  V30 5567 C 523.569 1.92719 5.40044 0
M  V30 5568 N 523.065 2.46499 6.47464 0
M  V30 5569 N 524.858 1.83617 5.31264 0
M  V30 5570 H 517.009 1.55841 1.44317 0
M  V30 5571 H 519.272 0.651564 0.688599 0
M  V30 5572 H 518.978 1.95313 2.92482 0
M  V30 5573 H 518.852 0.409476 3.74971 0
M  V30 5574 H 521.239 -0.171736 2.946 0
M  V30 5575 H 521.32 1.40136 2.13999 0
M  V30 5576 H 520.964 2.54905 4.39302 0
M  V30 5577 H 520.894 0.951944 5.17924 0
M  V30 5578 H 523.385 1.07616 3.62253 0
M  V30 5579 H 523.698 2.79291 7.20567 0
M  V30 5580 H 522.043 2.50526 6.48276 0
M  V30 5581 H 525.234 1.41358 4.46246 0
M  V30 5582 H 525.407 2.19622 6.09648 0
M  V30 5583 N 518.813 -1.54241 0.323641 0
M  V30 5584 C 519.746 -2.20579 -0.584833 0
M  V30 5585 C 520.724 -1.18286 -1.11567 0
M  V30 5586 O 521.908 -1.47025 -1.17966 0
M  V30 5587 C 519.035 -2.86754 -1.80249 0
M  V30 5588 C 518.081 -4.02767 -1.4029 0
M  V30 5589 S 518.914 -5.33693 -0.439539 0
M  V30 5590 C 520.07 -6.03362 -1.66448 0
M  V30 5591 H 520.303 -2.97292 -0.0213238 0
M  V30 5592 H 517.836 -1.54024 0.107726 0
M  V30 5593 H 519.794 -3.25503 -2.50116 0
M  V30 5594 H 518.455 -2.09844 -2.33719 0
M  V30 5595 H 517.648 -4.47933 -2.31024 0
M  V30 5596 H 517.25 -3.65692 -0.783928 0
M  V30 5597 H 519.542 -6.25546 -2.6019 0
M  V30 5598 H 520.485 -6.9689 -1.25498 0
M  V30 5599 H 520.893 -5.33273 -1.85149 0
M  V30 5600 N 520.291 -0.0518155 -1.57515 0
M  V30 5601 C 521.201 0.937539 -2.15052 0
M  V30 5602 C 522.217 1.34121 -1.10849 0
M  V30 5603 O 523.393 1.418 -1.4302 0
M  V30 5604 C 520.458 2.19379 -2.68466 0
M  V30 5605 C 519.519 1.84841 -3.87469 0
M  V30 5606 C 518.752 3.04477 -4.38326 0
M  V30 5607 O 518.975 4.17868 -3.88256 0
M  V30 5608 O 517.909 2.85453 -5.29906 0
M  V30 5609 H 521.735 0.478201 -2.99912 0
M  V30 5610 H 519.32 0.17012 -1.48428 0
M  V30 5611 H 521.202 2.93084 -3.02787 0
M  V30 5612 H 519.877 2.64449 -1.86677 0
M  V30 5613 H 518.784 1.08449 -3.58036 0
M  V30 5614 H 520.117 1.44569 -4.7049 0
M  V30 5615 N 521.769 1.56035 0.221574 0
M  V30 5616 C 523.185 1.49026 0.571271 0
M  V30 5617 C 523.385 0.746912 1.87146 0
M  V30 5618 O 522.441 0.286566 2.50869 0
M  V30 5619 C 523.754 2.93579 0.650522 0
M  V30 5620 C 525.302 3.04099 0.741151 0
M  V30 5621 C 525.777 4.5001 0.851747 0
M  V30 5622 N 527.268 4.54053 0.915968 0
M  V30 5623 C 528.003 5.64232 1.02125 0
M  V30 5624 N 527.499 6.84164 1.09049 0
M  V30 5625 N 529.292 5.52084 1.05639 0
M  V30 5626 H 521.443 2.02791 -0.63162 0
M  V30 5627 H 523.706 0.921736 -0.221602 0
M  V30 5628 H 523.412 3.50912 -0.235253 0
M  V30 5629 H 523.286 3.45476 1.51413 0
M  V30 5630 H 525.673 2.4683 1.61737 0
M  V30 5631 H 525.754 2.55371 -0.148128 0
M  V30 5632 H 525.398 5.07896 -0.0200117 0
M  V30 5633 H 525.328 4.96444 1.75644 0
M  V30 5634 H 527.819 3.67683 0.872782 0
M  V30 5635 H 528.132 7.63883 1.1706 0
M  V30 5636 H 526.477 6.86875 1.05962 0
M  V30 5637 H 529.668 4.57317 0.998953 0
M  V30 5638 H 529.841 6.37983 1.13498 0
M  V30 5639 N 523.247 -0.488276 1.49845 0
M  V30 5640 C 524.179 -1.60539 1.63584 0
M  V30 5641 C 525.192 -1.5434 0.517972 0
M  V30 5642 O 526.381 -1.60041 0.790516 0
M  V30 5643 C 523.481 -2.99374 1.58835 0
M  V30 5644 C 522.654 -3.30624 2.86368 0
M  V30 5645 C 521.713 -4.4893 2.74496 0
M  V30 5646 O 520.739 -4.50085 3.48443 0
M  V30 5647 N 521.941 -5.49591 1.86894 0
M  V30 5648 H 524.706 -1.49176 2.59936 0
M  V30 5649 H 522.267 -0.67639 1.47094 0
M  V30 5650 H 524.259 -3.76459 1.48529 0
M  V30 5651 H 522.829 -3.04595 0.702892 0
M  V30 5652 H 522.049 -2.42314 3.1093 0
M  V30 5653 H 523.337 -3.48305 3.70892 0
M  V30 5654 H 522.735 -5.51467 1.26097 0
M  V30 5655 H 521.292 -6.25728 1.82503 0
M  V30 5656 N 524.725 -1.39134 -0.740242 0
M  V30 5657 C 525.95 -1.39518 -1.53459 0
M  V30 5658 C 526.375 0.00968883 -1.88098 0
M  V30 5659 O 525.733 0.995312 -1.51536 0
M  V30 5660 C 525.781 -2.26981 -2.802 0
M  V30 5661 O 524.885 -1.69609 -3.75908 0
M  V30 5662 H 524.226 -0.475328 -0.463637 0
M  V30 5663 H 526.756 -1.83064 -0.913717 0
M  V30 5664 H 526.766 -2.41309 -3.28989 0
M  V30 5665 H 525.441 -3.29081 -2.5432 0
M  V30 5666 H 524.018 -1.64495 -3.34658 0
M  V30 5667 N 526.204 0.969867 -1.24223 0
M  V30 5668 C 527.432 1.74756 -1.10761 0
M  V30 5669 C 527.847 1.85713 0.340041 0
M  V30 5670 O 527.204 1.34389 1.23474 0
M  V30 5671 C 527.255 3.16915 -1.73917 0
M  V30 5672 O 526.976 3.06511 -3.13021 0
M  V30 5673 C 528.477 4.11032 -1.66036 0
M  V30 5674 H 525.697 0.548092 -0.387087 0
M  V30 5675 H 528.241 1.2178 -1.64286 0
M  V30 5676 H 526.396 3.66884 -1.244 0
M  V30 5677 H 526.81 3.96079 -3.43834 0
M  V30 5678 H 528.284 5.08446 -2.14911 0
M  V30 5679 H 528.761 4.34785 -0.621159 0
M  V30 5680 H 529.367 3.66972 -2.14969 0
M  V30 5681 N 527.682 1.05563 1.17022 0
M  V30 5682 C 528.907 0.788437 1.91829 0
M  V30 5683 C 529.332 -0.650356 1.76499 0
M  V30 5684 O 528.69 -1.45229 1.08527 0
M  V30 5685 C 528.738 1.1786 3.40795 0
M  V30 5686 O 527.842 0.312965 4.11211 0
M  V30 5687 H 527.183 0.288794 0.597908 0
M  V30 5688 H 529.713 1.40948 1.48307 0
M  V30 5689 H 529.723 1.14697 3.91546 0
M  V30 5690 H 528.398 2.22666 3.51273 0
M  V30 5691 H 526.975 0.405515 3.70689 0
M  V30 5692 N 529.16 -1.33526 0.837174 0
M  V30 5693 C 530.576 -1.50727 0.524743 0
M  V30 5694 C 530.776 -1.77792 -0.948279 0
M  V30 5695 O 529.832 -1.83719 -1.73216 0
M  V30 5696 C 531.145 -2.66299 1.39661 0
M  V30 5697 C 532.693 -2.80183 1.39521 0
M  V30 5698 C 533.168 -3.98815 2.25189 0
M  V30 5699 N 534.659 -4.06047 2.2289 0
M  V30 5700 C 535.394 -4.97032 2.85915 0
M  V30 5701 N 534.89 -5.93143 3.57985 0
M  V30 5702 N 536.683 -4.90015 2.75394 0
M  V30 5703 H 528.834 -1.1422 1.79074 0
M  V30 5704 H 531.097 -0.561399 0.763894 0
M  V30 5705 H 530.803 -2.52974 2.4433 0
M  V30 5706 H 530.677 -3.61663 1.07145 0
M  V30 5707 H 533.064 -2.92942 0.356253 0
M  V30 5708 H 533.145 -1.85586 1.76044 0
M  V30 5709 H 532.789 -3.86817 3.29143 0
M  V30 5710 H 532.719 -4.92654 1.86009 0
M  V30 5711 H 535.21 -3.37262 1.70478 0
M  V30 5712 H 535.523 -6.59227 4.03286 0
M  V30 5713 H 533.868 -5.93223 3.62093 0
M  V30 5714 H 537.059 -4.13894 2.18654 0
M  V30 5715 H 537.232 -5.60724 3.24796 0
M  V30 5716 N 530.638 -0.59345 -1.46 0
M  V30 5717 C 531.884 -0.0832754 -2.02629 0
M  V30 5718 C 532.217 1.27749 -1.46266 0
M  V30 5719 O 531.492 1.8395 -0.631866 0
M  V30 5720 C 531.775 -0.0290756 -3.60088 0
M  V30 5721 C 531.628 -1.41951 -4.26814 0
M  V30 5722 C 532.947 0.666055 -4.35031 0
M  V30 5723 H 530.066 -0.031736 -0.736316 0
M  V30 5724 H 532.708 -0.762711 -1.74019 0
M  V30 5725 H 530.858 0.549532 -3.84594 0
M  V30 5726 H 532.53 -2.04411 -4.13538 0
M  V30 5727 H 530.773 -1.98422 -3.8576 0
M  V30 5728 H 531.444 -1.33395 -5.3564 0
M  V30 5729 H 533.92 0.174401 -4.15734 0
M  V30 5730 H 532.796 0.673041 -5.44758 0
M  V30 5731 H 533.057 1.72946 -4.06869 0
M  V30 5732 N 532.116 1.54067 -0.331816 0
M  V30 5733 C 533.532 1.59587 0.0205388 0
M  V30 5734 C 533.732 1.34813 1.49759 0
M  V30 5735 O 532.788 1.13661 2.25471 0
M  V30 5736 C 534.101 2.97959 -0.405103 0
M  V30 5737 C 535.649 3.10964 -0.356454 0
M  V30 5738 C 536.124 4.51694 -0.757384 0
M  V30 5739 N 537.615 4.57709 -0.71111 0
M  V30 5740 C 538.35 5.64729 -0.993427 0
M  V30 5741 N 537.846 6.79652 -1.3433 0
M  V30 5742 N 539.639 5.54546 -0.918442 0
M  V30 5743 H 531.79 1.68426 -1.29407 0
M  V30 5744 H 534.053 0.78819 -0.526745 0
M  V30 5745 H 533.759 3.21115 -1.43451 0
M  V30 5746 H 533.633 3.76524 0.225692 0
M  V30 5747 H 536.02 2.87538 0.663763 0
M  V30 5748 H 536.101 2.34484 -1.02229 0
M  V30 5749 H 535.745 4.75853 -1.77555 0
M  V30 5750 H 535.675 5.26555 -0.0691444 0
M  V30 5751 H 538.166 3.75176 -0.452883 0
M  V30 5752 H 538.479 7.57221 -1.54388 0
M  V30 5753 H 536.824 6.81128 -1.38164 0
M  V30 5754 H 540.015 4.63641 -0.644536 0
M  V30 5755 H 540.188 6.37861 -1.14181 0
M  V30 5756 N 533.594 0.0601682 1.57485 0
M  V30 5757 C 534.542 -0.928899 2.13247 0
M  V30 5758 C 535.536 -1.31616 1.06647 0
M  V30 5759 O 536.742 -1.29476 1.25043 0
M  V30 5760 H 533.117 -0.317455 0.681708 0
M  V30 5761 H 535.088 -0.433566 2.95233 0
M  V30 5762 C 533.837 -2.19121 2.69965 0
M  V30 5763 H 533.16 -1.90204 3.51657 0
M  V30 5764 H 534.6 -2.86465 3.12592 0
M  V30 5765 C 533.059 -2.94195 1.64168 0
M  V30 5766 O 533.589 -3.87468 1.05978 0
M  V30 5767 N 531.795 -2.57089 1.35476 0
M  V30 5768 H 531.342 -1.81314 1.82984 0
M  V30 5769 H 531.3 -3.07624 0.649196 0
M  V30 5770 N 535.072 -1.5615 -0.213296 0
M  V30 5771 C 536.3 -1.83638 -0.953139 0
M  V30 5772 C 536.715 -0.640362 -1.77609 0
M  V30 5773 O 536.072 0.391071 -1.78261 0
M  V30 5774 C 536.123 -3.09735 -1.86405 0
M  V30 5775 O 535.844 -4.24723 -1.07435 0
M  V30 5776 C 537.345 -3.5027 -2.71709 0
M  V30 5777 H 534.565 -0.610263 -0.278962 0
M  V30 5778 H 537.109 -2.03247 -0.226035 0
M  V30 5779 H 535.264 -2.92077 -2.545 0
M  V30 5780 H 535.678 -4.9641 -1.69343 0
M  V30 5781 H 537.152 -4.41515 -3.31313 0
M  V30 5782 H 537.629 -2.72406 -3.44516 0
M  V30 5783 H 538.235 -3.70396 -2.09015 0
M  V30 5784 N 536.55 0.480323 -1.50102 0
M  V30 5785 C 537.796 1.23489 -1.60867 0
M  V30 5786 C 538.129 1.91809 -0.303827 0
M  V30 5787 O 537.404 1.81694 0.694092 0
M  V30 5788 C 537.687 2.28578 -2.78252 0
M  V30 5789 C 537.54 1.64624 -4.18592 0
M  V30 5790 C 538.859 3.2997 -2.91218 0
M  V30 5791 H 535.978 0.447605 -0.585507 0
M  V30 5792 H 538.62 0.530005 -1.82458 0
M  V30 5793 H 536.77 2.88697 -2.59974 0
M  V30 5794 H 538.442 1.08173 -4.48438 0
M  V30 5795 H 536.685 0.949645 -4.23278 0
M  V30 5796 H 537.356 2.40946 -4.96638 0
M  V30 5797 H 539.832 2.79864 -3.07921 0
M  V30 5798 H 538.708 4.00839 -3.74993 0
M  V30 5799 H 538.969 3.93541 -2.0144 0
M  V30 5800 N 538.028 1.39524 0.732853 0
M  V30 5801 C 538.96 1.34318 1.85718 0
M  V30 5802 C 539.973 0.251576 1.60844 0
M  V30 5803 O 541.162 0.510685 1.71039 0
M  V30 5804 C 538.262 1.06334 3.21786 0
M  V30 5805 C 537.435 2.26813 3.73998 0
M  V30 5806 C 536.494 1.95253 4.88634 0
M  V30 5807 O 535.52 2.67957 5.02183 0
M  V30 5808 N 536.722 0.919984 5.73164 0
M  V30 5809 H 539.487 2.3121 1.90688 0
M  V30 5810 H 537.048 1.33654 0.91368 0
M  V30 5811 H 539.04 0.832363 3.96048 0
M  V30 5812 H 537.61 0.181682 3.12072 0
M  V30 5813 H 536.83 2.65849 2.91064 0
M  V30 5814 H 538.118 3.0717 4.05616 0
M  V30 5815 H 537.516 0.317487 5.64808 0
M  V30 5816 H 536.073 0.748905 6.47483 0
M  V30 5817 N 539.506 -0.963266 1.24736 0
M  V30 5818 C 540.783 -1.68248 0.9976 0
M  V30 5819 C 541.163 -2.05599 -0.478776 0
M  V30 5820 O 540.511 -1.7626 -1.45412 0
M  V30 5821 C 540.721 -2.91118 1.92487 0
M  V30 5822 C 542.069 -3.63261 2.19833 0
M  V30 5823 O 543.093 -3.01184 1.90176 0
M  V30 5824 O 541.952 -4.75019 2.7022 0
M  V30 5825 H 539.046 -0.735744 0.377637 0
M  V30 5826 H 541.592 -1.01696 1.35853 0
M  V30 5827 H 540.364 -2.60242 2.92215 0
M  V30 5828 H 539.987 -3.65402 1.56738 0
M  V30 5829 N 540.985 -1.06182 -1.16461 0
M  V30 5830 C 542.396 -0.802426 -1.68576 0
M  V30 5831 C 542.747 0.67412 -1.84255 0
M  V30 5832 O 541.872 1.52303 -1.5373 0
M  V30 5833 C 542.467 -1.45002 -3.06202 0
M  V30 5834 C 541.026 -1.23843 -3.55443 0
M  V30 5835 C 540.173 -1.52724 -2.31454 0
M  V30 5836 H 543.124 -1.22545 -1.00839 0
M  V30 5837 H 543.145 -0.864731 -3.70544 0
M  V30 5838 H 542.657 -2.52466 -2.94759 0
M  V30 5839 H 540.758 -0.183487 -3.72148 0
M  V30 5840 H 540.871 -1.95036 -4.37604 0
M  V30 5841 H 539.235 -0.947726 -2.36411 0
M  V30 5842 H 540.018 -2.61343 -2.22609 0
M  V30 5843 N 542.463 1.3308 -0.844243 0
M  V30 5844 C 543.426 2.27403 -0.286485 0
M  V30 5845 C 544.426 1.51179 0.547872 0
M  V30 5846 O 545.616 1.70421 0.360886 0
M  V30 5847 C 542.748 3.35653 0.595813 0
M  V30 5848 H 543.941 2.78248 -1.11885 0
M  V30 5849 H 541.494 1.43574 -0.617749 0
M  V30 5850 H 542.229 2.90058 1.4504 0
M  V30 5851 H 542.014 3.921 -0.00125994 0
M  V30 5852 H 543.504 4.05958 0.979168 0
M  V30 5853 N 543.941 0.601185 1.45683 0
M  V30 5854 C 545.171 0.0999093 2.06358 0
M  V30 5855 C 545.579 -1.21831 1.44754 0
M  V30 5856 O 544.922 -1.75157 0.553695 0
M  V30 5857 C 544.984 -0.12085 3.59297 0
M  V30 5858 C 544.648 1.11459 4.432 0
M  V30 5859 C 545.645 2.03118 4.7858 0
M  V30 5860 C 543.33 1.34162 4.84051 0
M  V30 5861 C 545.324 3.15814 5.53661 0
M  V30 5862 C 543.011 2.4716 5.58888 0
M  V30 5863 C 544.009 3.37814 5.93608 0
M  V30 5864 O 543.697 4.48846 6.66928 0
M  V30 5865 H 543.429 0.0630316 0.673055 0
M  V30 5866 H 545.983 0.826982 1.88016 0
M  V30 5867 H 544.213 -0.902744 3.76015 0
M  V30 5868 H 545.902 -0.572925 4.01836 0
M  V30 5869 H 546.668 1.86801 4.47583 0
M  V30 5870 H 542.547 0.645018 4.56465 0
M  V30 5871 H 546.091 3.86596 5.8068 0
M  V30 5872 H 541.988 2.63432 5.89299 0
M  V30 5873 H 542.756 4.47446 6.85371 0
M  V30 5874 N 545.419 -1.53889 0.339982 0
M  V30 5875 C 546.349 -2.27843 -0.510856 0
M  V30 5876 C 547.33 -1.29267 -1.10563 0
M  V30 5877 O 548.515 -1.58104 -1.12768 0
M  V30 5878 C 545.645 -3.04857 -1.66372 0
M  V30 5879 C 544.599 -4.10907 -1.19746 0
M  V30 5880 C 543.925 -4.75855 -2.43857 0
M  V30 5881 C 545.225 -5.21435 -0.300501 0
M  V30 5882 H 546.919 -2.99212 0.106067 0
M  V30 5883 H 544.465 -1.43904 0.0524533 0
M  V30 5884 H 546.418 -3.5533 -2.26537 0
M  V30 5885 H 545.142 -2.31133 -2.30749 0
M  V30 5886 H 543.801 -3.61342 -0.618654 0
M  V30 5887 H 543.449 -3.9873 -3.06633 0
M  V30 5888 H 543.149 -5.47502 -2.13343 0
M  V30 5889 H 544.673 -5.2911 -3.04754 0
M  V30 5890 H 546.087 -5.67565 -0.80889 0
M  V30 5891 H 544.484 -6.00036 -0.0874076 0
M  V30 5892 H 545.554 -4.80328 0.664321 0
M  V30 5893 N 546.897 -0.0685191 -1.57451 0
M  V30 5894 C 548.313 0.288101 -1.56978 0
M  V30 5895 C 548.513 1.70262 -1.07765 0
M  V30 5896 O 547.569 2.4135 -0.742054 0
M  V30 5897 C 548.882 0.100745 -3.00531 0
M  V30 5898 C 550.43 0.170531 -3.12535 0
M  V30 5899 C 550.905 0.0114944 -4.57999 0
M  V30 5900 N 552.396 0.0672065 -4.63151 0
M  V30 5901 C 553.131 -0.0314813 -5.73391 0
M  V30 5902 N 552.627 -0.183503 -6.92557 0
M  V30 5903 N 554.42 0.0253489 -5.62094 0
M  V30 5904 H 546.571 -0.993026 -1.87757 0
M  V30 5905 H 548.834 -0.386981 -0.865419 0
M  V30 5906 H 548.54 -0.875197 -3.40636 0
M  V30 5907 H 548.414 0.854457 -3.67395 0
M  V30 5908 H 550.801 1.13696 -2.72318 0
M  V30 5909 H 550.882 -0.614229 -2.48316 0
M  V30 5910 H 550.526 -0.951684 -4.98904 0
M  V30 5911 H 550.456 0.815617 -5.20245 0
M  V30 5912 H 552.947 0.183246 -3.77455 0
M  V30 5913 H 553.26 -0.251041 -7.72392 0
M  V30 5914 H 551.605 -0.218822 -6.94655 0
M  V30 5915 H 554.796 0.142794 -4.67882 0
M  V30 5916 H 554.969 -0.0550166 -6.47977 0
M  V30 5917 N 548.375 1.56261 0.205012 0
M  V30 5918 C 549.652 1.70856 0.952233 0
M  V30 5919 C 550.032 0.620501 2.01775 0
M  V30 5920 O 549.38 -0.370035 2.25484 0
M  V30 5921 C 549.59 3.12807 1.54767 0
M  V30 5922 C 550.938 3.72733 2.0336 0
M  V30 5923 O 551.962 3.15873 1.64629 0
M  V30 5924 O 550.821 4.72501 2.746 0
M  V30 5925 H 547.915 0.696496 0.445895 0
M  V30 5926 H 550.461 1.6857 0.195489 0
M  V30 5927 H 549.233 3.83465 0.779132 0
M  V30 5928 H 548.856 3.1928 2.36951 0
M  V30 5929 N 549.853 -0.472356 1.50355 0
M  V30 5930 C 551.102 -1.2213 1.60522 0
M  V30 5931 C 551.415 -1.9312 0.310466 0
M  V30 5932 O 552.621 -2.69936 0.291029 0
M  V30 5933 C 551.077 -2.21909 2.83345 0
M  V30 5934 C 550.685 -1.56727 4.19691 0
M  V30 5935 C 552.429 -2.97453 3.02856 0
M  V30 5936 C 550.336 -2.54785 5.33703 0
M  V30 5937 H 549.266 -0.459543 0.597776 0
M  V30 5938 H 551.917 -0.491922 1.76783 0
M  V30 5939 H 550.299 -2.98133 2.60639 0
M  V30 5940 H 551.473 -0.863007 4.52646 0
M  V30 5941 H 549.788 -0.934685 4.05774 0
M  V30 5942 H 552.385 -3.70838 3.85205 0
M  V30 5943 H 552.728 -3.56764 2.14534 0
M  V30 5944 H 553.261 -2.28342 3.25737 0
M  V30 5945 H 550 -2.00214 6.24175 0
M  V30 5946 H 549.52 -3.23367 5.05167 0
M  V30 5947 H 551.199 -3.16639 5.64224 0
M  V30 5948 N 551.331 -1.39911 -0.725443 0
M  V30 5949 C 552.608 -1.28158 -1.47766 0
M  V30 5950 C 552.988 0.104545 -2.10841 0
M  V30 5951 O 552.336 1.11657 -1.99361 0
M  V30 5952 C 552.546 -2.41306 -2.52135 0
M  V30 5953 C 553.894 -2.81076 -3.18247 0
M  V30 5954 O 554.918 -2.40827 -2.62452 0
M  V30 5955 O 553.777 -3.50581 -4.19231 0
M  V30 5956 H 550.871 -0.502761 -0.656628 0
M  V30 5957 H 553.417 -1.51808 -0.758456 0
M  V30 5958 H 552.189 -3.33932 -2.03974 0
M  V30 5959 H 551.812 -2.19374 -3.31603 0
M  V30 5960 N 552.809 0.956637 -1.25245 0
M  V30 5961 C 554.057 1.69764 -1.09657 0
M  V30 5962 C 554.378 1.91583 0.363464 0
M  V30 5963 O 553.648 1.50149 1.25825 0
M  V30 5964 H 552.228 0.629097 -0.402798 0
M  V30 5965 H 554.89 1.15026 -1.57337 0
M  V30 5966 H 553.986 2.67769 -1.60331 0
M  V30 5967 N 554.287 1.06798 1.15896 0
M  V30 5968 C 555.22 0.627503 2.19403 0
M  V30 5969 C 556.198 -0.352352 1.58736 0
M  V30 5970 O 557.382 -0.260111 1.86697 0
M  V30 5971 C 554.509 -0.079356 3.38607 0
M  V30 5972 C 553.555 0.858057 4.17779 0
M  V30 5973 S 554.388 2.35605 4.80885 0
M  V30 5974 C 555.544 1.66083 6.03463 0
M  V30 5975 H 555.777 1.50441 2.56427 0
M  V30 5976 H 553.31 0.881427 1.26768 0
M  V30 5977 H 555.268 -0.48095 4.07673 0
M  V30 5978 H 553.929 -0.932524 2.99938 0
M  V30 5979 H 553.122 0.310108 5.03045 0
M  V30 5980 H 552.724 1.19977 3.54234 0
M  V30 5981 H 555.016 0.969337 6.7053 0
M  V30 5982 H 555.959 2.49159 6.62816 0
M  V30 5983 H 556.367 1.14122 5.52844 0
M  V30 5984 N 555.766 -1.3263 0.851289 0
M  V30 5985 C 556.714 -2.30882 0.282202 0
M  V30 5986 C 557.708 -1.58697 -0.592589 0
M  V30 5987 O 558.914 -1.73461 -0.480768 0
M  V30 5988 H 555.289 -0.748492 0.0725487 0
M  V30 5989 H 557.26 -2.76374 1.12516 0
M  V30 5990 C 556.009 -3.43828 -0.517449 0
M  V30 5991 H 555.332 -3.99532 0.146392 0
M  V30 5992 H 556.772 -4.1474 -0.88128 0
M  V30 5993 C 555.231 -2.90786 -1.70133 0
M  V30 5994 O 555.761 -2.88 -2.80034 0
M  V30 5995 N 553.967 -2.4723 -1.52728 0
M  V30 5996 H 553.514 -2.49695 -0.633257 0
M  V30 5997 H 553.472 -2.12094 -2.32085 0
M  V30 5998 N 557.244 -0.608902 -1.45362 0
M  V30 5999 C 558.191 0.109172 -2.30542 0
M  V30 6000 C 559.161 0.858704 -1.42181 0
M  V30 6001 O 560.346 0.844178 -1.71109 0
M  V30 6002 C 557.486 1.09971 -3.27109 0
M  V30 6003 C 556.599 0.350911 -4.30572 0
M  V30 6004 C 555.734 1.33129 -5.14247 0
M  V30 6005 C 554.773 0.570377 -6.09437 0
M  V30 6006 N 553.91 1.5001 -6.85887 0
M  V30 6007 H 558.75 -0.623195 -2.91411 0
M  V30 6008 H 556.287 -0.319122 -1.43597 0
M  V30 6009 H 558.245 1.68714 -3.81564 0
M  V30 6010 H 556.875 1.79947 -2.67991 0
M  V30 6011 H 555.927 -0.352054 -3.78767 0
M  V30 6012 H 557.239 -0.242725 -4.98209 0
M  V30 6013 H 556.393 1.99074 -5.73109 0
M  V30 6014 H 555.132 1.95885 -4.46632 0
M  V30 6015 H 554.137 -0.102702 -5.49704 0
M  V30 6016 H 555.362 -0.0521607 -6.7908 0
M  V30 6017 H 553.308 2.11529 -6.2096 0
M  V30 6018 H 553.225 0.959934 -7.49881 0
M  V30 6019 H 554.493 2.14909 -7.49289 0
M  V30 6020 N 558.722 1.53707 -0.348139 0
M  V30 6021 C 560.133 1.86213 0.134797 0
M  V30 6022 C 560.484 1.26925 1.49614 0
M  V30 6023 O 559.609 0.584573 2.08355 0
M  V30 6024 C 560.204 3.37866 0.251371 0
M  V30 6025 C 558.763 3.70233 0.678543 0
M  V30 6026 C 557.91 2.76683 -0.184925 0
M  V30 6027 H 560.861 1.48204 -0.567571 0
M  V30 6028 H 560.882 3.64908 1.07806 0
M  V30 6029 H 560.394 3.80988 -0.739581 0
M  V30 6030 H 558.495 3.32659 1.67835 0
M  V30 6031 H 558.608 4.76836 0.465251 0
M  V30 6032 H 556.972 2.52374 0.343465 0
M  V30 6033 H 557.755 3.22635 -1.1731 0
M  V30 6034 N 560.2 0.0768682 1.57412 0
M  V30 6035 C 561.446 -0.591961 1.93968 0
M  V30 6036 C 561.779 -1.68954 0.9575 0
M  V30 6037 O 561.054 -1.94496 -0.0124675 0
M  V30 6038 C 561.337 -1.16418 3.40762 0
M  V30 6039 C 561.19 -0.0728933 4.49741 0
M  V30 6040 C 562.509 -2.06814 3.88479 0
M  V30 6041 H 559.628 -0.213716 0.705333 0
M  V30 6042 H 562.27 0.14387 1.89455 0
M  V30 6043 H 560.42 -1.79128 3.4474 0
M  V30 6044 H 562.092 0.560446 4.57883 0
M  V30 6045 H 560.335 0.595859 4.29688 0
M  V30 6046 H 561.006 -0.513755 5.49604 0
M  V30 6047 H 563.482 -1.54033 3.8654 0
M  V30 6048 H 562.358 -2.43785 4.91793 0
M  V30 6049 H 562.619 -2.97844 3.26713 0
M  V30 6050 O 561.717 -1.61375 -0.0636308 0
M  V30 6051 H 562.408 -1.81049 -0.688533 0
M  V30 END ATOM
M  V30 BEGIN BOND
M  V30 END BOND
M  V30 END CTAB
M  END
$$$$
