drugbank_target|P08842 Steryl-sulfatase (DB02292; DB02735)
 OpenBabel12092119493D

  0  0  0     0  0            999 V3000
M  V30 BEGIN CTAB
M  V30 COUNTS 9167 9301 0 0 0
M  V30 BEGIN ATOM
M  V30 1 H -0.908 1.98254 -0.117106 0
M  V30 2 N 0 1.576 0 0
M  V30 3 C 0.933 2.03868 1.02534 0
M  V30 4 C 1.911 0.928543 1.3348 0
M  V30 5 O 3.095 1.19667 1.45644 0
M  V30 6 C 0.222 2.43627 2.35294 0
M  V30 7 C -0.732 3.65373 2.2001 0
M  V30 8 S 0.101 5.13292 1.52614 0
M  V30 9 C 1.257 5.56322 2.86805 0
M  V30 10 H 1.49 2.90518 0.631377 0
M  V30 11 H -0.977 1.52953 0.210867 0
M  V30 12 H 0.981 2.67203 3.11629 0
M  V30 13 H -0.358 1.57376 2.7183 0
M  V30 14 H -1.165 3.90944 3.18086 0
M  V30 15 H -1.563 3.418 1.51819 0
M  V30 16 H 0.729 5.58782 3.83104 0
M  V30 17 H 1.672 6.56266 2.65933 0
M  V30 18 H 2.08 4.83886 2.90714 0
M  V30 19 N 1.4781 -0.272755 1.55222 0
M  V30 20 C 2.8891 -0.84378 1.66545 0
M  V30 21 C 3.2401 -1.87035 0.592641 0
M  V30 22 O 2.3651 -2.14761 -0.265818 0
M  V30 23 C 2.9601 -1.53723 3.01918 0
M  V30 24 C 1.5191 -2.05628 3.15268 0
M  V30 25 C 0.6661 -0.898424 2.62343 0
M  V30 26 H 3.6171 -0.0490998 1.58624 0
M  V30 27 H 3.6381 -2.40421 2.94921 0
M  V30 28 H 3.1501 -0.78983 3.79978 0
M  V30 29 H 1.2511 -2.83329 2.41983 0
M  V30 30 H 1.3641 -2.27142 4.21833 0
M  V30 31 H -0.2719 -1.29186 2.19506 0
M  V30 32 H 0.5111 -0.164528 3.42906 0
M  V30 33 N 2.9562 -1.48159 -0.537278 0
M  V30 34 C 3.8862 -1.65029 -1.6519 0
M  V30 35 C 4.8672 -0.499281 -1.62607 0
M  V30 36 O 6.0522 -0.730972 -1.79918 0
M  V30 37 C 3.1822 -1.68303 -3.03795 0
M  V30 38 C 2.1362 -2.8283 -3.21234 0
M  V30 39 C 1.4622 -2.71189 -4.60826 0
M  V30 40 C 2.7622 -4.24211 -3.04701 0
M  V30 41 H 4.4562 -2.58341 -1.51328 0
M  V30 42 H 2.0022 -1.24325 -0.726585 0
M  V30 43 H 3.9552 -1.78693 -3.81637 0
M  V30 44 H 2.6792 -0.715635 -3.18663 0
M  V30 45 H 1.3382 -2.71983 -2.45807 0
M  V30 46 H 0.9862 -1.72435 -4.7252 0
M  V30 47 H 0.6862 -3.48035 -4.7344 0
M  V30 48 H 2.2102 -2.83537 -5.40777 0
M  V30 49 H 3.6242 -4.3593 -3.72341 0
M  V30 50 H 2.0212 -5.01998 -3.28813 0
M  V30 51 H 3.0912 -4.41184 -2.01209 0
M  V30 52 N 4.4343 0.785586 -1.36625 0
M  V30 53 C 5.8503 1.08419 -1.17122 0
M  V30 54 C 6.0503 2.015 0.00208491 0
M  V30 55 O 5.1063 2.43551 0.666278 0
M  V30 56 C 6.4193 1.69498 -2.48377 0
M  V30 57 C 7.9673 1.81821 -2.54775 0
M  V30 58 C 8.4423 2.46315 -3.86126 0
M  V30 59 N 9.9333 2.53779 -3.87492 0
M  V30 60 C 10.6683 3.045 -4.85868 0
M  V30 61 N 10.1643 3.55499 -5.94637 0
M  V30 62 N 11.9573 3.03247 -4.73284 0
M  V30 63 H 4.1083 0.167264 -2.1174 0
M  V30 64 H 6.3713 0.13682 -0.938075 0
M  V30 65 H 6.0773 1.08571 -3.34522 0
M  V30 66 H 5.9513 2.6896 -2.64462 0
M  V30 67 H 8.3383 2.41884 -1.69045 0
M  V30 68 H 8.4193 0.811532 -2.42586 0
M  V30 69 H 8.0633 1.86895 -4.72263 0
M  V30 70 H 7.9933 3.47561 -3.95612 0
M  V30 71 H 10.4843 2.17672 -3.08913 0
M  V30 72 H 10.7973 3.92562 -6.65669 0
M  V30 73 H 9.1423 3.5364 -5.98301 0
M  V30 74 H 12.3333 2.62696 -3.87438 0
M  V30 75 H 12.5063 3.42467 -5.50109 0
M  V30 76 N 5.9124 1.20967 1.01018 0
M  V30 77 C 6.8594 0.964281 2.09691 0
M  V30 78 C 7.8294 -0.107853 1.65749 0
M  V30 79 O 9.0144 0.0381987 1.90762 0
M  V30 80 C 6.1544 0.52943 3.41015 0
M  V30 81 C 5.2674 1.67043 3.98398 0
M  V30 82 C 4.4024 1.18525 5.17808 0
M  V30 83 C 3.4414 2.29892 5.67288 0
M  V30 84 N 2.5784 1.82546 6.77954 0
M  V30 85 H 7.4184 1.89463 2.30017 0
M  V30 86 H 4.9554 0.944289 1.1279 0
M  V30 87 H 6.9134 0.258588 4.16398 0
M  V30 88 H 5.5434 -0.363919 3.20742 0
M  V30 89 H 4.5954 2.05603 3.20049 0
M  V30 90 H 5.9074 2.50877 4.31117 0
M  V30 91 H 5.0614 0.870762 6.00419 0
M  V30 92 H 3.8004 0.316887 4.86669 0
M  V30 93 H 2.8054 2.6215 4.83278 0
M  V30 94 H 4.0304 3.17216 6.00459 0
M  V30 95 H 1.9764 0.980454 6.48632 0
M  V30 96 H 1.8934 2.59956 7.09901 0
M  V30 97 H 3.1614 1.54115 7.64113 0
M  V30 98 N 7.3905 -1.2043 1.01659 0
M  V30 99 C 8.3235 -2.21924 0.531521 0
M  V30 100 C 9.3015 -1.57054 -0.421032 0
M  V30 101 O 10.4855 -1.85389 -0.341035 0
M  V30 102 C 7.6125 -3.37942 -0.226496 0
M  V30 103 C 6.6585 -4.21115 0.67561 0
M  V30 104 S 7.4915 -4.90674 2.14475 0
M  V30 105 C 8.6475 -6.10113 1.3969 0
M  V30 106 H 8.8805 -2.62725 1.3915 0
M  V30 107 H 6.4135 -1.30481 0.825479 0
M  V30 108 H 8.3715 -4.05196 -0.657738 0
M  V30 109 H 7.0325 -2.956 -1.06205 0
M  V30 110 H 6.2255 -5.03918 0.091108 0
M  V30 111 H 5.8275 -3.59115 1.04463 0
M  V30 112 H 8.1195 -6.7411 0.676897 0
M  V30 113 H 9.0625 -6.73022 2.20107 0
M  V30 114 H 9.4705 -5.57283 0.899786 0
M  V30 115 N 8.8686 -0.792821 -1.36206 0
M  V30 116 C 9.8156 -0.191653 -2.30003 0
M  V30 117 C 10.7856 0.666453 -1.52143 0
M  V30 118 O 11.9706 0.61442 -1.80636 0
M  V30 119 C 9.1106 0.664848 -3.38635 0
M  V30 120 C 8.2236 -0.212175 -4.31479 0
M  V30 121 C 7.3586 0.651022 -5.27196 0
M  V30 122 C 6.3976 -0.227247 -6.11678 0
M  V30 123 N 5.5346 0.595127 -6.99573 0
M  V30 124 H 10.3746 -0.996978 -2.80828 0
M  V30 125 H 7.9116 -0.503206 -1.38225 0
M  V30 126 H 9.8696 1.17645 -4.00269 0
M  V30 127 H 8.4996 1.43557 -2.89122 0
M  V30 128 H 7.5516 -0.841777 -3.70969 0
M  V30 129 H 8.8636 -0.888751 -4.90818 0
M  V30 130 H 8.0176 1.2283 -5.94136 0
M  V30 131 H 6.7566 1.36121 -4.68319 0
M  V30 132 H 5.7616 -0.816904 -5.43697 0
M  V30 133 H 6.9866 -0.93509 -6.72631 0
M  V30 134 H 4.9326 1.28955 -6.432 0
M  V30 135 H 4.8496 -0.0236952 -7.55996 0
M  V30 136 H 6.1176 1.15613 -7.70879 0
M  V30 137 N 10.3467 1.47872 -0.545128 0
M  V30 138 C 11.5957 2.01695 -0.0145033 0
M  V30 139 C 11.9087 1.42609 1.33873 0
M  V30 140 O 13.1147 1.88021 1.95858 0
M  V30 141 C 11.5707 3.59892 0.0245068 0
M  V30 142 C 11.1787 4.27966 -1.32475 0
M  V30 143 C 12.9227 4.21507 0.50316 0
M  V30 144 C 10.8297 5.78136 -1.2455 0
M  V30 145 H 9.7597 0.753998 -0.00165172 0
M  V30 146 H 12.4107 1.69985 -0.691175 0
M  V30 147 H 10.7927 3.88509 0.766575 0
M  V30 148 H 11.9667 4.11003 -2.08357 0
M  V30 149 H 10.2817 3.78286 -1.74036 0
M  V30 150 H 12.8787 5.31538 0.580656 0
M  V30 151 H 13.2217 3.87855 1.51243 0
M  V30 152 H 13.7547 3.97376 -0.183681 0
M  V30 153 H 10.4937 6.16388 -2.23039 0
M  V30 154 H 10.0137 5.97469 -0.528282 0
M  V30 155 H 11.6927 6.40099 -0.942488 0
M  V30 156 N 11.8248 0.280983 1.55075 0
M  V30 157 C 13.2358 -0.215629 1.85451 0
M  V30 158 C 13.5868 -1.54991 1.203 0
M  V30 159 O 12.7118 -2.10699 0.493435 0
M  V30 160 C 13.3068 -0.398026 3.36454 0
M  V30 161 C 11.8658 -0.838866 3.66933 0
M  V30 162 C 11.0128 0.064458 2.77225 0
M  V30 163 H 13.9638 0.502601 1.50531 0
M  V30 164 H 13.9848 -1.23569 3.59876 0
M  V30 165 H 13.4968 0.573241 3.83843 0
M  V30 166 H 11.5978 -1.8214 3.25048 0
M  V30 167 H 11.7108 -0.672123 4.74362 0
M  V30 168 H 10.0748 -0.452863 2.50642 0
M  V30 169 H 10.8578 1.03172 3.2743 0
M  V30 170 N 13.3029 -1.57598 0.00835791 0
M  V30 171 C 14.5499 -1.90928 -0.674732 0
M  V30 172 C 14.8779 -0.88277 -1.73313 0
M  V30 173 O 14.1329 0.111294 -1.95383 0
M  V30 174 C 14.4319 -3.3101 -1.34787 0
M  V30 175 C 14.0979 -4.48922 -0.421861 0
M  V30 176 C 12.7599 -4.8091 -0.166927 0
M  V30 177 C 15.1119 -5.20755 0.215211 0
M  V30 178 C 12.4399 -5.821 0.733232 0
M  V30 179 C 14.7919 -6.22905 1.1033 0
M  V30 180 C 13.4559 -6.53346 1.36733 0
M  V30 181 H 12.7259 -0.698656 -0.246902 0
M  V30 182 H 15.3729 -1.91387 0.0656779 0
M  V30 183 H 13.6779 -3.26714 -2.16253 0
M  V30 184 H 15.3749 -3.54061 -1.8826 0
M  V30 185 H 11.9649 -4.23934 -0.630729 0
M  V30 186 H 16.1489 -4.9629 0.0312829 0
M  V30 187 H 11.4049 -6.04042 0.945712 0
M  V30 188 H 15.5789 -6.77694 1.60325 0
M  V30 189 H 13.2059 -7.31573 2.06652 0
M  V30 190 N 14.781 0.264519 -1.55364 0
M  V30 191 C 15.711 1.33121 -1.91836 0
M  V30 192 C 16.692 1.51101 -0.781192 0
M  V30 193 O 17.877 1.64003 -1.04003 0
M  V30 194 C 15.007 2.68921 -2.19769 0
M  V30 195 C 13.961 2.65661 -3.35571 0
M  V30 196 C 13.287 4.05093 -3.49004 0
M  V30 197 C 14.587 2.24187 -4.71739 0
M  V30 198 H 16.281 1.02844 -2.81182 0
M  V30 199 H 13.827 0.493286 -1.35287 0
M  V30 200 H 15.78 3.43663 -2.43872 0
M  V30 201 H 14.504 3.00799 -1.27231 0
M  V30 202 H 13.163 1.93377 -3.1145 0
M  V30 203 H 12.811 4.34206 -2.53917 0
M  V30 204 H 12.511 4.03804 -4.26868 0
M  V30 205 H 14.035 4.81561 -3.75408 0
M  V30 206 H 15.449 2.88654 -4.9533 0
M  V30 207 H 13.846 2.34044 -5.52579 0
M  V30 208 H 14.916 1.19327 -4.69988 0
M  V30 209 N 16.2591 1.48442 0.529413 0
M  V30 210 C 17.1891 1.65902 1.64313 0
M  V30 211 C 18.1701 0.507897 1.6234 0
M  V30 212 O 19.3551 0.740503 1.79528 0
M  V30 213 C 16.4851 1.69911 3.02898 0
M  V30 214 C 15.4391 2.8453 3.19729 0
M  V30 215 C 14.7651 2.73629 4.59381 0
M  V30 216 C 16.0651 4.25821 3.02447 0
M  V30 217 H 17.7591 2.5914 1.49955 0
M  V30 218 H 15.3051 1.24709 0.719982 0
M  V30 219 H 17.2581 1.80715 3.80684 0
M  V30 220 H 15.9821 0.732524 3.18279 0
M  V30 221 H 14.6411 2.73283 2.44361 0
M  V30 222 H 14.2891 1.74938 4.71599 0
M  V30 223 H 13.9891 3.50541 4.71588 0
M  V30 224 H 15.5131 2.86401 5.39265 0
M  V30 225 H 16.9271 4.37898 3.70024 0
M  V30 226 H 15.3241 5.03735 3.26146 0
M  V30 227 H 16.3941 4.42244 1.98867 0
M  V30 228 N 17.7372 -0.778329 1.37039 0
M  V30 229 C 18.6672 -1.90546 1.34962 0
M  V30 230 C 19.6482 -1.68681 0.219274 0
M  V30 231 O 20.8332 -1.89634 0.418624 0
M  V30 232 C 17.9632 -3.27734 1.14925 0
M  V30 233 C 16.9172 -3.64147 2.24902 0
M  V30 234 C 16.2432 -4.99806 1.89996 0
M  V30 235 C 17.5432 -3.71579 3.67051 0
M  V30 236 H 19.2372 -1.92541 2.29277 0
M  V30 237 H 16.7832 -0.924948 1.10366 0
M  V30 238 H 18.7362 -4.06215 1.12104 0
M  V30 239 H 17.4602 -3.26154 0.170631 0
M  V30 240 H 16.1192 -2.8797 2.26868 0
M  V30 241 H 15.7672 -4.94759 0.906796 0
M  V30 242 H 15.4672 -5.25139 2.63634 0
M  V30 243 H 16.9912 -5.80694 1.88749 0
M  V30 244 H 18.4052 -4.40227 3.67251 0
M  V30 245 H 16.8022 -4.08405 4.39688 0
M  V30 246 H 17.8722 -2.72404 4.01154 0
M  V30 247 N 19.2153 -1.21501 -1.00376 0
M  V30 248 C 20.4623 -1.03299 -1.74171 0
M  V30 249 C 20.7903 0.433326 -1.89612 0
M  V30 250 O 20.0453 1.33779 -1.42834 0
M  V30 251 C 20.3443 -1.67673 -3.15627 0
M  V30 252 C 20.0103 -3.17533 -3.2013 0
M  V30 253 C 18.6723 -3.58427 -3.21067 0
M  V30 254 C 21.0243 -4.13504 -3.17275 0
M  V30 255 C 18.3523 -4.93794 -3.16835 0
M  V30 256 C 20.7043 -5.48834 -3.14585 0
M  V30 257 C 19.3683 -5.89123 -3.13831 0
M  V30 258 H 18.6383 -0.377999 -0.637336 0
M  V30 259 H 21.2853 -1.51111 -1.17634 0
M  V30 260 H 19.5903 -1.12158 -3.75404 0
M  V30 261 H 21.2873 -1.51091 -3.71446 0
M  V30 262 H 17.8773 -2.84965 -3.20145 0
M  V30 263 H 22.0613 -3.82936 -3.15711 0
M  V30 264 H 17.3173 -5.24255 -3.1459 0
M  V30 265 H 21.4913 -6.22934 -3.1133 0
M  V30 266 H 19.1183 -6.93984 -3.10307 0
M  V30 267 N 20.6934 1.19889 -1.02296 0
M  V30 268 C 21.9404 1.8942 -0.715972 0
M  V30 269 C 22.2684 1.79251 0.754944 0
M  V30 270 O 21.5234 1.17526 1.56481 0
M  V30 271 C 21.8224 3.39883 -1.10518 0
M  V30 272 C 21.4884 3.70254 -2.57337 0
M  V30 273 C 20.1504 3.78254 -2.97452 0
M  V30 274 C 22.5024 3.84052 -3.52354 0
M  V30 275 C 19.8304 3.97514 -4.31509 0
M  V30 276 C 22.1824 4.04824 -4.86108 0
M  V30 277 C 20.8464 4.11054 -5.25919 0
M  V30 278 H 20.1164 0.693138 -0.261993 0
M  V30 279 H 22.7634 1.42012 -1.28472 0
M  V30 280 H 21.0684 3.8915 -0.454953 0
M  V30 281 H 22.7654 3.9199 -0.845261 0
M  V30 282 H 19.3554 3.64632 -2.25258 0
M  V30 283 H 23.5394 3.77221 -3.22518 0
M  V30 284 H 18.7954 4.00574 -4.61898 0
M  V30 285 H 22.9694 4.14442 -5.59653 0
M  V30 286 H 20.5964 4.2573 -6.29808 0
M  V30 287 N 22.1715 0.800033 1.35784 0
M  V30 288 C 23.1015 0.220184 2.3246 0
M  V30 289 C 24.0825 -0.65073 1.57161 0
M  V30 290 O 25.2675 -0.582359 1.85263 0
M  V30 291 C 22.3975 -0.637353 3.41402 0
M  V30 292 C 21.3515 0.134531 4.27789 0
M  V30 293 C 20.6775 -0.844285 5.27992 0
M  V30 294 C 21.9775 1.32979 5.05088 0
M  V30 295 H 23.6715 1.02787 2.81203 0
M  V30 296 H 21.2175 0.495717 1.35199 0
M  V30 297 H 23.1705 -1.05302 4.08031 0
M  V30 298 H 21.8945 -1.47785 2.91251 0
M  V30 299 H 20.5535 0.531296 3.6273 0
M  V30 300 H 20.2015 -1.68011 4.74111 0
M  V30 301 H 19.9015 -0.332184 5.8666 0
M  V30 302 H 21.4255 -1.2583 5.97494 0
M  V30 303 H 22.8395 0.98934 5.64699 0
M  V30 304 H 21.2365 1.77593 5.7322 0
M  V30 305 H 22.3065 2.11978 4.36111 0
M  V30 306 N 23.6496 -1.47581 0.552962 0
M  V30 307 C 24.8956 -2.03369 0.0355807 0
M  V30 308 C 25.2506 -1.42016 -1.29805 0
M  V30 309 O 24.5436 -0.564917 -1.83083 0
M  V30 310 C 24.7376 -3.57199 -0.119728 0
M  V30 311 C 24.5666 -4.33468 1.1973 0
M  V30 312 C 23.3366 -4.7353 1.76345 0
M  V30 313 C 25.5346 -4.68866 2.11351 0
M  V30 314 N 23.5166 -5.34426 3.02097 0
M  V30 315 C 24.8876 -5.3002 3.21681 0
M  V30 316 C 26.9426 -4.50795 2.11397 0
M  V30 317 C 25.6456 -5.75011 4.32151 0
M  V30 318 C 27.6716 -4.96782 3.20876 0
M  V30 319 C 27.0336 -5.57981 4.29926 0
M  V30 320 H 23.1326 -0.780058 0.0550806 0
M  V30 321 H 25.7166 -1.80117 0.739315 0
M  V30 322 H 23.8876 -3.80227 -0.792579 0
M  V30 323 H 25.6196 -3.99627 -0.638792 0
M  V30 324 H 22.3746 -4.55352 1.30196 0
M  V30 325 H 22.7986 -5.69421 3.66182 0
M  V30 326 H 27.4406 -4.0284 1.28372 0
M  V30 327 H 25.1586 -6.21959 5.15938 0
M  V30 328 H 28.7446 -4.84573 3.21994 0
M  V30 329 H 27.6246 -5.92918 5.13243 0
M  V30 330 N 25.1277 -0.289203 -1.54924 0
M  V30 331 C 26.0377 0.601863 -2.26748 0
M  V30 332 C 27.0537 1.15834 -1.2984 0
M  V30 333 O 28.2297 1.18564 -1.62802 0
M  V30 334 C 25.2947 1.76299 -2.98529 0
M  V30 335 C 24.3557 1.24178 -4.10948 0
M  V30 336 C 23.5887 2.34757 -4.79296 0
M  V30 337 O 23.8117 3.54411 -4.46933 0
M  V30 338 O 22.7457 2.02115 -5.66951 0
M  V30 339 H 26.5717 0.0195879 -3.03694 0
M  V30 340 H 24.1567 -0.0560868 -1.49295 0
M  V30 341 H 26.0387 2.43973 -3.43592 0
M  V30 342 H 24.7137 2.33209 -2.24488 0
M  V30 343 H 23.6207 0.531104 -3.70311 0
M  V30 344 H 24.9537 0.718252 -4.86931 0
M  V30 345 N 26.6058 1.57591 -0.0167156 0
M  V30 346 C 27.5688 2.08393 0.954204 0
M  V30 347 C 28.5688 0.996531 1.26198 0
M  V30 348 O 29.7588 1.25858 1.20438 0
M  V30 349 C 26.8908 2.5394 2.27436 0
M  V30 350 H 28.0838 2.95455 0.514451 0
M  V30 351 H 25.6368 1.54582 0.231089 0
M  V30 352 H 26.3718 1.70171 2.76066 0
M  V30 353 H 26.1568 3.33371 2.06412 0
M  V30 354 H 27.6468 2.93512 2.97053 0
M  V30 355 N 28.0839 -0.256276 1.55502 0
M  V30 356 C 28.9939 -1.33882 1.92647 0
M  V30 357 C 30.0099 -1.53159 0.825727 0
M  V30 358 O 31.1859 -1.66963 1.12629 0
M  V30 359 C 28.2509 -2.6751 2.20543 0
M  V30 360 C 27.3119 -2.56836 3.43997 0
M  V30 361 C 26.5449 -3.84092 3.70553 0
M  V30 362 O 26.7679 -4.85545 2.99336 0
M  V30 363 O 25.7019 -3.83288 4.64084 0
M  V30 364 H 29.5279 -1.05374 2.84833 0
M  V30 365 H 27.1129 -0.456237 1.42263 0
M  V30 366 H 28.9949 -3.46492 2.39835 0
M  V30 367 H 27.6699 -2.9577 1.31536 0
M  V30 368 H 26.5769 -1.76172 3.30021 0
M  V30 369 H 27.9099 -2.33523 4.33275 0
M  V30 370 N 29.562 -1.4872 -0.521534 0
M  V30 371 C 30.787 -1.61101 -1.30618 0
M  V30 372 C 31.212 -0.274611 -1.86085 0
M  V30 373 O 30.57 0.754937 -1.64834 0
M  V30 374 C 30.618 -2.66709 -2.4269 0
M  V30 375 O 29.722 -2.24456 -3.45967 0
M  V30 376 H 29.063 -0.539921 -0.386499 0
M  V30 377 H 31.593 -1.94767 -0.626645 0
M  V30 378 H 31.603 -2.88245 -2.88754 0
M  V30 379 H 30.278 -3.63727 -2.01682 0
M  V30 380 H 28.855 -2.13168 -3.05964 0
M  V30 381 N 31.0401 0.771051 -1.3745 0
M  V30 382 C 31.9901 1.87456 -1.29785 0
M  V30 383 C 32.9741 1.59827 -0.185541 0
M  V30 384 O 34.1661 1.71945 -0.419997 0
M  V30 385 C 31.2951 3.24935 -1.1078 0
M  V30 386 C 30.3811 3.58514 -2.26558 0
M  V30 387 N 30.7721 3.6327 -3.5195 0
M  V30 388 C 29.0701 3.88683 -2.18727 0
M  V30 389 C 29.7711 3.93616 -4.283 0
M  V30 390 N 28.7471 4.09551 -3.57448 0
M  V30 391 H 32.5491 1.89386 -2.24745 0
M  V30 392 H 30.0631 0.967531 -1.30432 0
M  V30 393 H 32.0601 4.03881 -1.03374 0
M  V30 394 H 30.7201 3.24268 -0.16738 0
M  V30 395 H 31.7311 3.45458 -3.85848 0
M  V30 396 H 28.4081 3.95834 -1.32746 0
M  V30 397 H 29.7981 4.04066 -5.36824 0
M  V30 398 N 32.5182 1.22032 0.997298 0
M  V30 399 C 33.4812 0.987909 2.06816 0
M  V30 400 C 34.4812 -0.0440084 1.6074 0
M  V30 401 O 35.6712 0.194053 1.73116 0
M  V30 402 C 32.8032 0.49132 3.37341 0
M  V30 403 H 33.9962 1.93803 2.28868 0
M  V30 404 H 31.5492 1.03838 1.16822 0
M  V30 405 H 32.2842 -0.463364 3.20973 0
M  V30 406 H 32.0692 1.23575 3.72118 0
M  V30 407 H 33.5592 0.348824 4.16141 0
M  V30 408 N 33.9963 -1.19345 1.0293 0
M  V30 409 C 34.9593 -2.20793 0.615069 0
M  V30 410 C 35.9593 -1.57553 -0.321533 0
M  V30 411 O 37.1493 -1.73862 -0.108483 0
M  V30 412 C 34.2813 -3.40754 -0.0999222 0
M  V30 413 H 35.4743 -2.58955 1.51269 0
M  V30 414 H 33.0273 -1.3303 0.820534 0
M  V30 415 H 33.7623 -3.0811 -1.01187 0
M  V30 416 H 33.5473 -3.87889 0.57309 0
M  V30 417 H 35.0373 -4.15898 -0.376645 0
M  V30 418 N 35.4744 -0.807222 -1.35358 0
M  V30 419 C 36.6994 -0.399309 -2.0352 0
M  V30 420 C 37.1244 0.981986 -1.60433 0
M  V30 421 O 36.4824 1.63601 -0.781299 0
M  V30 422 C 36.5304 -0.491552 -3.57234 0
M  V30 423 O 35.6344 0.494754 -4.09421 0
M  V30 424 H 34.9754 -0.166682 -0.642739 0
M  V30 425 H 37.5054 -1.09328 -1.72941 0
M  V30 426 H 37.5154 -0.361588 -4.06395 0
M  V30 427 H 36.1904 -1.49907 -3.87944 0
M  V30 428 H 34.7674 0.324977 -3.71481 0
M  V30 429 N 36.9525 1.47285 -0.560781 0
M  V30 430 C 38.3685 1.58065 -0.22081 0
M  V30 431 C 38.5685 1.55892 1.27671 0
M  V30 432 O 37.6245 1.46422 2.0571 0
M  V30 433 C 38.9375 2.88418 -0.850625 0
M  V30 434 C 40.4855 3.02009 -0.822184 0
M  V30 435 C 40.9605 4.35066 -1.43113 0
M  V30 436 N 42.4515 4.41711 -1.39448 0
M  V30 437 C 43.1865 5.43237 -1.83525 0
M  V30 438 N 42.6825 6.51555 -2.35474 0
M  V30 439 N 44.4755 5.34304 -1.74574 0
M  V30 440 H 36.6265 1.46941 -1.53369 0
M  V30 441 H 38.8895 0.699558 -0.639783 0
M  V30 442 H 38.5955 2.95755 -1.9032 0
M  V30 443 H 38.4695 3.75612 -0.345773 0
M  V30 444 H 40.8565 2.94266 0.221714 0
M  V30 445 H 40.9375 2.16347 -1.36483 0
M  V30 446 H 40.5815 4.43565 -2.47412 0
M  V30 447 H 40.5115 5.19465 -0.863899 0
M  V30 448 H 43.0025 3.64027 -1.01452 0
M  V30 449 H 43.3155 7.25203 -2.67021 0
M  V30 450 H 41.6605 6.52435 -2.39487 0
M  V30 451 H 44.8515 4.48581 -1.33763 0
M  V30 452 H 45.0245 6.13288 -2.09242 0
M  V30 453 N 38.4306 0.297415 1.54768 0
M  V30 454 C 39.8416 -0.195947 1.85669 0
M  V30 455 C 40.1926 -1.53707 1.21937 0
M  V30 456 O 39.3176 -2.10164 0.515754 0
M  V30 457 C 39.9126 -0.362318 3.36857 0
M  V30 458 C 38.4716 -0.799901 3.67802 0
M  V30 459 C 37.6186 0.0938578 2.77141 0
M  V30 460 H 40.5696 0.518538 1.4999 0
M  V30 461 H 40.5906 -1.19745 3.61167 0
M  V30 462 H 40.1026 0.613921 3.83214 0
M  V30 463 H 38.2036 -1.78682 3.26961 0
M  V30 464 H 38.3166 -0.621773 4.75048 0
M  V30 465 H 36.6806 -0.426254 2.51108 0
M  V30 466 H 37.4636 1.06639 3.26318 0
M  V30 467 N 39.9087 -1.5758 0.0250728 0
M  V30 468 C 40.8567 -2.11125 -0.97617 0
M  V30 469 C 41.8507 -1.03689 -1.33959 0
M  V30 470 O 43.0567 -1.22128 -1.3223 0
M  V30 471 H 39.4317 -0.674468 -0.332561 0
M  V30 472 H 41.4027 -2.94194 -0.499223 0
M  V30 473 C 40.1517 -2.65017 -2.2508 0
M  V30 474 H 39.4747 -3.47333 -1.9799 0
M  V30 475 H 40.9147 -3.06133 -2.93357 0
M  V30 476 C 39.3737 -1.57574 -2.97779 0
M  V30 477 O 39.9037 -0.973203 -3.89733 0
M  V30 478 N 38.1097 -1.29716 -2.60043 0
M  V30 479 H 37.6567 -1.789 -1.85345 0
M  V30 480 H 37.6147 -0.58051 -3.08994 0
M  V30 481 N 41.3868 0.248026 -1.55636 0
M  V30 482 C 42.6358 0.974134 -1.76617 0
M  V30 483 C 42.9488 1.86528 -0.588796 0
M  V30 484 O 44.1548 2.62805 -0.681594 0
M  V30 485 C 42.6108 1.78213 -3.12679 0
M  V30 486 C 42.2188 0.93843 -4.38061 0
M  V30 487 C 43.9628 2.50104 -3.42999 0
M  V30 488 C 41.8698 1.74225 -5.65155 0
M  V30 489 H 40.7998 0.36745 -0.658405 0
M  V30 490 H 43.4508 0.22884 -1.82067 0
M  V30 491 H 41.8328 2.56933 -3.01333 0
M  V30 492 H 43.0068 0.193635 -4.60393 0
M  V30 493 H 41.3218 0.332905 -4.15067 0
M  V30 494 H 43.9188 3.10694 -4.3517 0
M  V30 495 H 44.2618 3.21662 -2.64271 0
M  V30 496 H 44.7948 1.78395 -3.55556 0
M  V30 497 H 41.5338 1.07043 -6.46701 0
M  V30 498 H 41.0538 2.46235 -5.46926 0
M  V30 499 H 42.7328 2.30967 -6.0437 0
M  V30 500 N 42.8649 1.48995 0.513639 0
M  V30 501 C 44.1139 1.57093 1.2651 0
M  V30 502 C 44.4269 0.257091 1.93903 0
M  V30 503 O 45.6329 0.216478 2.70636 0
M  V30 504 C 44.0889 2.77118 2.29638 0
M  V30 505 C 43.6969 4.15209 1.68241 0
M  V30 506 C 45.4409 2.94538 3.05692 0
M  V30 507 C 43.3479 5.26474 2.69406 0
M  V30 508 H 42.2779 0.584876 0.475854 0
M  V30 509 H 44.9289 1.7536 0.540487 0
M  V30 510 H 43.3109 2.52319 3.05207 0
M  V30 511 H 44.4849 4.50094 0.987505 0
M  V30 512 H 42.7999 4.03042 1.04623 0
M  V30 513 H 45.3969 3.74832 3.8132 0
M  V30 514 H 45.7399 2.04614 3.62545 0
M  V30 515 H 46.2729 3.19316 2.37238 0
M  V30 516 H 43.0119 6.18417 2.17351 0
M  V30 517 H 42.5319 4.96058 3.37175 0
M  V30 518 H 44.2109 5.55277 3.32078 0
M  V30 519 N 44.343 -0.763751 1.37857 0
M  V30 520 C 45.273 -1.89103 1.36975 0
M  V30 521 C 46.254 -1.68439 0.237152 0
M  V30 522 O 47.439 -1.8918 0.438713 0
M  V30 523 C 44.569 -3.26496 1.18395 0
M  V30 524 C 43.523 -3.61741 2.28751 0
M  V30 525 C 42.849 -4.97762 1.95286 0
M  V30 526 C 44.149 -3.67665 3.70972 0
M  V30 527 H 45.843 -1.90099 2.31307 0
M  V30 528 H 43.389 -0.91319 1.11341 0
M  V30 529 H 45.342 -4.05003 1.16406 0
M  V30 530 H 44.066 -3.25955 0.205215 0
M  V30 531 H 42.725 -2.85547 2.29909 0
M  V30 532 H 42.373 -4.93769 0.959221 0
M  V30 533 H 42.073 -5.22313 2.69189 0
M  V30 534 H 43.597 -5.7866 1.94898 0
M  V30 535 H 45.011 -4.36307 3.719 0
M  V30 536 H 43.408 -4.03718 4.43995 0
M  V30 537 H 44.478 -2.68134 4.0402 0
M  V30 538 N 45.8211 -1.22559 -0.990812 0
M  V30 539 C 47.0671 -1.05297 -1.73322 0
M  V30 540 C 47.4001 0.410655 -1.89808 0
M  V30 541 O 46.6751 1.30439 -1.44277 0
M  V30 542 C 46.9581 -1.76713 -3.13759 0
M  V30 543 C 46.8111 -3.30684 -3.04907 0
M  V30 544 C 48.1301 -1.52121 -4.12974 0
M  V30 545 H 45.2491 -0.38392 -0.629106 0
M  V30 546 H 47.8911 -1.50926 -1.15418 0
M  V30 547 H 46.0411 -1.37924 -3.63193 0
M  V30 548 H 47.7131 -3.7893 -2.63077 0
M  V30 549 H 45.9561 -3.60253 -2.41661 0
M  V30 550 H 46.6271 -3.75833 -4.04294 0
M  V30 551 H 49.1031 -1.85819 -3.72304 0
M  V30 552 H 47.9791 -2.04582 -5.0935 0
M  V30 553 H 48.2401 -0.454257 -4.3976 0
M  V30 554 N 47.2992 1.18797 -1.03562 0
M  V30 555 C 48.2322 2.2105 -0.56676 0
M  V30 556 C 49.2102 1.57704 0.395993 0
M  V30 557 O 50.3942 1.85908 0.311498 0
M  V30 558 C 47.5212 3.38259 0.172704 0
M  V30 559 C 46.5672 4.19987 -0.74252 0
M  V30 560 S 47.4002 4.87199 -2.22254 0
M  V30 561 C 48.5562 6.07813 -1.49379 0
M  V30 562 H 48.7892 2.60478 -1.43312 0
M  V30 563 H 46.3222 1.29151 -0.846133 0
M  V30 564 H 48.2802 4.06191 0.593191 0
M  V30 565 H 46.9412 2.97252 1.01488 0
M  V30 566 H 46.1342 5.03709 -0.171265 0
M  V30 567 H 45.7362 3.57408 -1.10163 0
M  V30 568 H 48.0282 6.72948 -0.784056 0
M  V30 569 H 48.9712 6.69435 -2.30786 0
M  V30 570 H 49.3792 5.55781 -0.988331 0
M  V30 571 N 48.7773 0.814389 1.34928 0
M  V30 572 C 49.7403 0.235759 2.27984 0
M  V30 573 C 50.7403 -0.581412 1.49921 0
M  V30 574 O 51.9303 -0.398758 1.69575 0
M  V30 575 C 49.0623 -0.670433 3.34242 0
M  V30 576 H 50.2553 1.05659 2.80671 0
M  V30 577 H 47.8083 0.585614 1.44915 0
M  V30 578 H 48.5433 -1.51466 2.86755 0
M  V30 579 H 48.3283 -0.0860822 3.92005 0
M  V30 580 H 49.8183 -1.06935 4.03676 0
M  V30 581 N 50.2554 -1.46986 0.568584 0
M  V30 582 C 51.5324 -1.95592 -0.0174074 0
M  V30 583 C 51.9124 -1.51124 -1.47393 0
M  V30 584 O 51.2604 -0.755329 -2.15655 0
M  V30 585 C 51.4704 -3.48719 0.139913 0
M  V30 586 C 52.8184 -4.246 0.000426376 0
M  V30 587 O 53.8424 -3.56135 0.0680316 0
M  V30 588 O 52.7014 -5.46302 -0.146988 0
M  V30 589 H 49.7954 -0.82498 -0.0577599 0
M  V30 590 H 52.3414 -1.57335 0.635909 0
M  V30 591 H 51.1134 -3.73927 1.15301 0
M  V30 592 H 50.7364 -3.93771 -0.550491 0
M  V30 593 N 51.7335 -0.305618 -1.54608 0
M  V30 594 C 53.0105 0.355652 -1.92339 0
M  V30 595 C 53.3905 1.71324 -1.23335 0
M  V30 596 O 52.7385 2.25473 -0.370702 0
M  V30 597 C 52.9485 0.46572 -3.45879 0
M  V30 598 C 54.2965 0.734426 -4.182 0
M  V30 599 O 55.3205 0.54935 -3.51938 0
M  V30 600 O 54.1795 1.09024 -5.35515 0
M  V30 601 H 51.2735 0.199666 -0.802535 0
M  V30 602 H 53.8195 -0.354017 -1.65966 0
M  V30 603 H 52.5915 -0.488461 -3.88239 0
M  V30 604 H 52.2145 1.22367 -3.78301 0
M  V30 605 N 53.2116 1.57565 -0.0334293 0
M  V30 606 C 54.1416 2.13511 0.945265 0
M  V30 607 C 55.1226 1.05231 1.33643 0
M  V30 608 O 56.3076 1.33084 1.41429 0
M  V30 609 C 53.4376 2.6657 2.22616 0
M  V30 610 C 52.3916 3.79676 1.97561 0
M  V30 611 C 51.7176 4.1918 3.31952 0
M  V30 612 C 53.0176 5.0557 1.31135 0
M  V30 613 H 54.7116 2.95538 0.479325 0
M  V30 614 H 52.2576 1.42166 0.229115 0
M  V30 615 H 54.2106 3.04344 2.91466 0
M  V30 616 H 52.9346 1.8171 2.71384 0
M  V30 617 H 51.5936 3.42347 1.31127 0
M  V30 618 H 51.2416 3.31296 3.78487 0
M  V30 619 H 50.9416 4.95402 3.15992 0
M  V30 620 H 52.4656 4.59541 4.02063 0
M  V30 621 H 53.8796 5.40903 1.89992 0
M  V30 622 H 52.2766 5.86818 1.25559 0
M  V30 623 H 53.3466 4.84062 0.284894 0
M  V30 624 N 54.6897 -0.239769 1.55765 0
M  V30 625 C 55.9377 -0.964892 1.77579 0
M  V30 626 C 56.2587 -1.85582 0.598699 0
M  V30 627 O 55.5287 -1.92075 -0.385226 0
M  V30 628 H 54.1087 -0.359265 0.654933 0
M  V30 629 H 56.7707 -0.256001 1.93211 0
M  V30 630 H 55.8667 -1.58243 2.69009 0
M  V30 631 N 56.1678 -1.49265 -0.50573 0
M  V30 632 C 57.4168 -1.57761 -1.25675 0
M  V30 633 C 57.7298 -0.267371 -1.93764 0
M  V30 634 O 58.9358 -0.230827 -2.70517 0
M  V30 635 C 57.3918 -2.78332 -2.28165 0
M  V30 636 C 56.9998 -4.16096 -1.66037 0
M  V30 637 C 58.7438 -2.96155 -3.04125 0
M  V30 638 C 56.6508 -5.27895 -2.6661 0
M  V30 639 H 55.5808 -0.587391 -0.472745 0
M  V30 640 H 58.2318 -1.75644 -0.53118 0
M  V30 641 H 56.6138 -2.53934 -3.03865 0
M  V30 642 H 57.7878 -4.50612 -0.963622 0
M  V30 643 H 56.1028 -4.03591 -1.02484 0
M  V30 644 H 58.6998 -3.76849 -3.79327 0
M  V30 645 H 59.0428 -2.06534 -3.61455 0
M  V30 646 H 59.5758 -3.2057 -2.35541 0
M  V30 647 H 56.3148 -6.1956 -2.14068 0
M  V30 648 H 55.8348 -4.97839 -3.34539 0
M  V30 649 H 57.5138 -5.57031 -3.29129 0
M  V30 650 N 57.6459 0.756429 -1.3826 0
M  V30 651 C 58.8939 1.51248 -1.34047 0
M  V30 652 C 59.2149 1.94875 0.0698372 0
M  V30 653 O 58.4849 1.67436 1.01696 0
M  V30 654 H 57.0649 0.561018 -0.493222 0
M  V30 655 H 59.7269 0.899347 -1.7291 0
M  V30 656 H 58.8229 2.40472 -1.98947 0
M  V30 657 N 59.124 1.23083 0.984299 0
M  V30 658 C 60.401 0.9689 1.69917 0
M  V30 659 C 60.781 -0.513604 2.04757 0
M  V30 660 O 60.129 -1.48383 1.73767 0
M  V30 661 C 60.339 1.87518 2.94343 0
M  V30 662 C 61.687 2.13636 3.6694 0
M  V30 663 O 62.711 1.85036 3.04368 0
M  V30 664 O 61.57 2.62119 4.79537 0
M  V30 665 H 58.664 0.365095 0.742048 0
M  V30 666 H 61.21 1.34107 1.03987 0
M  V30 667 H 59.982 2.87756 2.65164 0
M  V30 668 H 59.605 1.50514 3.6801 0
M  V30 669 N 60.6021 -1.18246 1.0419 0
M  V30 670 C 62.0131 -1.69914 0.773698 0
M  V30 671 C 62.3641 -1.83085 -0.705297 0
M  V30 672 O 61.4891 -1.51123 -1.5489 0
M  V30 673 C 62.0841 -3.08619 1.39784 0
M  V30 674 C 60.6431 -3.57494 1.17792 0
M  V30 675 C 59.7901 -2.34013 1.48773 0
M  V30 676 H 62.7411 -1.02904 1.20816 0
M  V30 677 H 62.7621 -3.71958 0.801714 0
M  V30 678 H 62.2741 -2.99001 2.47426 0
M  V30 679 H 60.3751 -3.72406 0.120295 0
M  V30 680 H 60.4881 -4.40852 1.87581 0
M  V30 681 H 58.8521 -2.37986 0.907463 0
M  V30 682 H 59.6351 -2.27013 2.57527 0
M  V30 683 N 62.0802 -0.821533 -1.34494 0
M  V30 684 C 63.3282 -0.408139 -1.97936 0
M  V30 685 C 63.6492 1.03193 -1.65457 0
M  V30 686 O 62.9192 1.71622 -0.944595 0
M  V30 687 H 61.4992 -0.147928 -0.732206 0
M  V30 688 H 64.1612 -1.05067 -1.64155 0
M  V30 689 H 63.2572 -0.52601 -3.07635 0
M  V30 690 N 63.5583 1.46682 -0.576371 0
M  V30 691 C 64.7983 2.04306 -0.0621356 0
M  V30 692 C 65.1623 1.4389 1.2712 0
M  V30 693 O 66.3633 1.92675 1.87429 0
M  V30 694 C 64.6343 3.57399 0.00927922 0
M  V30 695 S 66.1933 4.36309 0.466859 0
M  V30 696 H 63.0113 0.710167 -0.0344016 0
M  V30 697 H 65.6133 1.79807 -0.767437 0
M  V30 698 H 64.3173 3.98889 -0.965178 0
M  V30 699 H 63.8483 3.86424 0.737547 0
M  V30 700 H 65.8633 4.6533 1.72287 0
M  V30 701 N 65.0364 0.313813 1.54444 0
M  V30 702 C 66.2664 -0.293491 2.04505 0
M  V30 703 C 66.6744 -1.47086 1.19005 0
M  V30 704 O 66.0174 -1.82481 0.211257 0
M  V30 705 C 66.0794 -0.800455 3.50475 0
M  V30 706 C 65.7434 0.253322 4.56297 0
M  V30 707 C 66.7404 1.08612 5.08428 0
M  V30 708 C 64.4254 0.398708 5.00715 0
M  V30 709 C 66.4194 2.05013 6.0353 0
M  V30 710 C 64.1064 1.36614 5.95634 0
M  V30 711 C 65.1044 2.19033 6.46926 0
M  V30 712 O 64.7924 3.14134 7.39983 0
M  V30 713 H 64.5244 -0.0658325 0.672787 0
M  V30 714 H 67.0784 0.455177 2.00293 0
M  V30 715 H 65.3084 -1.59987 3.52053 0
M  V30 716 H 66.9974 -1.32504 3.83663 0
M  V30 717 H 67.7634 0.984736 4.74898 0
M  V30 718 H 63.6424 -0.23289 4.60411 0
M  V30 719 H 67.1864 2.69382 6.4349 0
M  V30 720 H 63.0834 1.4682 6.28581 0
M  V30 721 H 63.8514 3.0926 7.57826 0
M  V30 722 N 66.5145 -1.57545 0.0417849 0
M  V30 723 C 67.7625 -1.91937 -0.632829 0
M  V30 724 C 68.0835 -0.919978 -1.71934 0
M  V30 725 O 67.3535 0.0366064 -1.95866 0
M  V30 726 H 65.9335 -0.708493 -0.236742 0
M  V30 727 H 68.5955 -1.9468 0.0925745 0
M  V30 728 H 67.6915 -2.92912 -1.07746 0
M  V30 729 N 67.9926 0.231505 -1.5589 0
M  V30 730 C 68.9406 1.30649 -1.92441 0
M  V30 731 C 69.9346 1.49037 -0.805254 0
M  V30 732 O 71.1406 1.50329 -0.990007 0
M  V30 733 H 67.5156 0.437812 -0.611412 0
M  V30 734 H 69.4866 0.970973 -2.82161 0
M  V30 735 C 68.2356 2.65179 -2.24889 0
M  V30 736 H 67.5586 2.51835 -3.10514 0
M  V30 737 H 68.9986 3.39234 -2.54355 0
M  V30 738 C 67.4576 3.19439 -1.07054 0
M  V30 739 O 67.9876 4.00371 -0.326499 0
M  V30 740 N 66.1936 2.77675 -0.85703 0
M  V30 741 H 65.7406 2.11969 -1.46379 0
M  V30 742 H 65.6986 3.14321 -0.0703223 0
M  V30 743 N 69.4707 1.49531 0.497807 0
M  V30 744 C 70.4177 1.66436 1.59899 0
M  V30 745 C 71.3877 0.505793 1.58212 0
M  V30 746 O 72.5727 0.733202 1.7615 0
M  V30 747 C 69.7127 1.7399 2.98029 0
M  V30 748 C 68.8257 3.01172 3.09708 0
M  V30 749 C 67.9607 2.99686 4.38591 0
M  V30 750 C 66.9997 4.21434 4.43914 0
M  V30 751 N 66.1367 4.1784 5.64229 0
M  V30 752 H 70.9767 2.60459 1.44793 0
M  V30 753 H 68.5137 1.29137 0.704423 0
M  V30 754 H 70.4717 1.76352 3.78095 0
M  V30 755 H 69.1017 0.834301 3.11832 0
M  V30 756 H 68.1537 3.08408 2.22685 0
M  V30 757 H 69.4657 3.91165 3.09502 0
M  V30 758 H 68.6197 3.00628 5.2698 0
M  V30 759 H 67.3587 2.07477 4.41367 0
M  V30 760 H 66.3637 4.20733 3.53926 0
M  V30 761 H 67.5887 5.14839 4.42851 0
M  V30 762 H 65.5347 3.28469 5.67841 0
M  V30 763 H 65.4517 5.01571 5.65652 0
M  V30 764 H 66.7197 4.22889 6.54817 0
M  V30 765 N 70.9488 -0.749086 1.3866 0
M  V30 766 C 72.1768 -1.53834 1.38358 0
M  V30 767 C 72.5918 -1.88783 -0.0255219 0
M  V30 768 O 71.9488 -1.53101 -0.993292 0
M  V30 769 C 71.9998 -2.83468 2.2434 0
M  V30 770 O 71.7208 -2.50008 3.5976 0
M  V30 771 C 73.2218 -3.7758 2.32267 0
M  V30 772 H 70.4418 -0.47585 0.473083 0
M  V30 773 H 72.9858 -0.926726 1.82297 0
M  V30 774 H 71.1408 -3.40995 1.83851 0
M  V30 775 H 71.5548 -3.33182 4.05081 0
M  V30 776 H 73.0288 -4.65478 2.96706 0
M  V30 777 H 73.5058 -4.18334 1.33765 0
M  V30 778 H 74.1118 -3.25976 2.73166 0
M  V30 779 N 72.4269 -1.23603 -0.977757 0
M  V30 780 C 73.6759 -1.06377 -1.71368 0
M  V30 781 C 73.9889 0.399062 -1.91486 0
M  V30 782 O 75.1949 0.691312 -2.62551 0
M  V30 783 C 73.6509 -1.85512 -3.08404 0
M  V30 784 C 73.2589 -3.36141 -2.96164 0
M  V30 785 C 75.0029 -1.76783 -3.85938 0
M  V30 786 C 72.9099 -4.07659 -4.28449 0
M  V30 787 H 71.8399 -0.394452 -0.642591 0
M  V30 788 H 74.4909 -1.47594 -1.09034 0
M  V30 789 H 72.8729 -1.37103 -3.71509 0
M  V30 790 H 74.0469 -3.92056 -2.42133 0
M  V30 791 H 72.3619 -3.45712 -2.32104 0
M  V30 792 H 74.9589 -2.27526 -4.83876 0
M  V30 793 H 75.3019 -0.731116 -4.0983 0
M  V30 794 H 75.8349 -2.22818 -3.2954 0
M  V30 795 H 72.5739 -5.11648 -4.09752 0
M  V30 796 H 72.0939 -3.5653 -4.82334 0
M  V30 797 H 73.7729 -4.141 -4.97122 0
M  V30 798 N 73.905 1.17692 -1.04816 0
M  V30 799 C 75.321 1.39863 -0.768794 0
M  V30 800 C 75.521 1.91118 0.638451 0
M  V30 801 O 74.577 2.10036 1.40146 0
M  V30 802 C 75.89 2.39274 -1.82122 0
M  V30 803 C 77.438 2.52987 -1.843 0
M  V30 804 C 77.913 3.55669 -2.88555 0
M  V30 805 N 79.404 3.63183 -2.87493 0
M  V30 806 C 80.139 4.42381 -3.64811 0
M  V30 807 N 79.635 5.25125 -4.51903 0
M  V30 808 N 81.428 4.37217 -3.53267 0
M  V30 809 H 73.579 0.82752 -1.95617 0
M  V30 810 H 75.842 0.426123 -0.846831 0
M  V30 811 H 75.548 2.08678 -2.83102 0
M  V30 812 H 75.422 3.38725 -1.65967 0
M  V30 813 H 77.809 2.82896 -0.839869 0
M  V30 814 H 77.89 1.53623 -2.04532 0
M  V30 815 H 77.534 3.26499 -3.89051 0
M  V30 816 H 77.464 4.54728 -2.65575 0
M  V30 817 H 79.955 3.04103 -2.24343 0
M  V30 818 H 80.268 5.82728 -5.07591 0
M  V30 819 H 78.613 5.24519 -4.55966 0
M  V30 820 H 81.804 3.71626 -2.84625 0
M  V30 821 H 81.977 4.98696 -4.13771 0
M  V30 822 N 75.3831 0.828654 1.34056 0
M  V30 823 C 76.6111 0.43262 2.02326 0
M  V30 824 C 77.0261 -0.963147 1.62385 0
M  V30 825 O 76.3831 -1.62425 0.832121 0
M  V30 826 C 76.4341 0.53182 3.57567 0
M  V30 827 O 76.1551 1.87258 3.96063 0
M  V30 828 C 77.6561 0.131422 4.43105 0
M  V30 829 H 74.8761 0.172923 0.648335 0
M  V30 830 H 77.4201 1.1184 1.71208 0
M  V30 831 H 75.5751 -0.105938 3.87255 0
M  V30 832 H 75.9891 1.85087 4.90758 0
M  V30 833 H 77.4631 0.251904 5.51425 0
M  V30 834 H 77.9401 -0.925645 4.29335 0
M  V30 835 H 78.5461 0.743207 4.18756 0
M  V30 836 N 76.8612 -1.46375 0.584142 0
M  V30 837 C 78.2722 -1.86031 0.157959 0
M  V30 838 C 78.6232 -1.48753 -1.27933 0
M  V30 839 O 77.7482 -0.903098 -1.96655 0
M  V30 840 C 78.3432 -3.37642 0.279892 0
M  V30 841 C 76.9022 -3.76289 -0.09143 0
M  V30 842 C 76.0492 -2.7039 0.615178 0
M  V30 843 H 79.0002 -1.37509 0.792274 0
M  V30 844 H 79.0212 -3.77275 -0.494364 0
M  V30 845 H 78.5332 -3.64742 1.32607 0
M  V30 846 H 76.6342 -3.54806 -1.13769 0
M  V30 847 H 76.7472 -4.78246 0.285886 0
M  V30 848 H 75.1112 -2.5464 0.0552833 0
M  V30 849 H 75.8942 -3.0033 1.66303 0
M  V30 850 N 78.3393 -0.321999 -1.54275 0
M  V30 851 C 79.2873 0.560206 -2.25753 0
M  V30 852 C 80.2813 1.11984 -1.27106 0
M  V30 853 O 81.4873 1.06806 -1.44888 0
M  V30 854 H 77.8623 0.199304 -0.725108 0
M  V30 855 H 79.8333 -0.0649365 -2.98329 0
M  V30 856 C 78.5823 1.71023 -3.02731 0
M  V30 857 H 77.9053 1.28885 -3.78456 0
M  V30 858 H 79.3453 2.30314 -3.55993 0
M  V30 859 C 77.8043 2.62692 -2.10938 0
M  V30 860 O 78.3343 3.64364 -1.6912 0
M  V30 861 N 76.5403 2.30891 -1.76459 0
M  V30 862 H 76.0873 1.48253 -2.10663 0
M  V30 863 H 76.0453 2.92487 -1.1532 0
M  V30 864 N 79.8174 1.5752 -0.0501392 0
M  V30 865 C 81.0664 1.91827 0.623328 0
M  V30 866 C 81.3794 0.930222 1.72065 0
M  V30 867 O 82.5854 1.1653 2.4522 0
M  V30 868 C 81.0414 3.40692 1.16003 0
M  V30 869 C 80.6494 4.479 0.0948811 0
M  V30 870 C 82.3934 3.84034 1.80881 0
M  V30 871 C 80.3004 5.87879 0.644411 0
M  V30 872 H 79.2304 0.715918 0.236596 0
M  V30 873 H 81.8814 1.83115 -0.118861 0
M  V30 874 H 80.2634 3.44405 1.9545 0
M  V30 875 H 81.4374 4.55775 -0.678675 0
M  V30 876 H 79.7524 4.13892 -0.45637 0
M  V30 877 H 82.3494 4.85984 2.22988 0
M  V30 878 H 82.6924 3.20225 2.6601 0
M  V30 879 H 83.2254 3.82833 1.0809 0
M  V30 880 H 79.9644 6.55282 -0.169229 0
M  V30 881 H 79.4844 5.83567 1.38598 0
M  V30 882 H 81.1634 6.37098 1.12763 0
M  V30 883 N 81.2955 -0.223234 1.56011 0
M  V30 884 C 82.5725 -0.972108 1.69733 0
M  V30 885 C 82.9525 -2.02485 0.59691 0
M  V30 886 O 82.3005 -2.25037 -0.396324 0
M  V30 887 C 82.5105 -1.58407 3.10979 0
M  V30 888 C 83.8585 -2.07696 3.70334 0
M  V30 889 O 84.8825 -1.68304 3.1393 0
M  V30 890 O 83.7415 -2.80096 4.69264 0
M  V30 891 H 80.8355 -0.453993 0.691245 0
M  V30 892 H 83.3815 -0.215149 1.68331 0
M  V30 893 H 82.1535 -0.823831 3.82529 0
M  V30 894 H 81.7765 -2.40661 3.16493 0
M  V30 895 N 82.7736 -1.49793 -0.48987 0
M  V30 896 C 84.1896 -1.36803 -0.822022 0
M  V30 897 C 84.3896 -0.409652 -1.97292 0
M  V30 898 O 83.4456 0.154614 -2.52026 0
M  V30 899 C 84.7586 -2.77768 -1.15175 0
M  V30 900 C 86.3066 -2.86549 -1.25931 0
M  V30 901 C 86.7816 -4.28306 -1.62228 0
M  V30 902 N 88.2726 -4.31169 -1.69256 0
M  V30 903 C 89.0076 -5.37832 -1.98807 0
M  V30 904 N 88.5036 -6.54726 -2.26507 0
M  V30 905 N 90.2966 -5.25258 -2.00152 0
M  V30 906 H 82.4476 -2.10691 0.268881 0
M  V30 907 H 84.7106 -0.946241 0.057728 0
M  V30 908 H 84.4166 -3.49648 -0.379335 0
M  V30 909 H 84.2906 -3.13836 -2.09253 0
M  V30 910 H 86.6776 -2.14899 -2.02243 0
M  V30 911 H 86.7586 -2.54049 -0.298776 0
M  V30 912 H 86.4026 -5.00486 -0.864622 0
M  V30 913 H 86.3326 -4.58279 -2.594 0
M  V30 914 H 88.8236 -3.4687 -1.49965 0
M  V30 915 H 89.1366 -7.31833 -2.48276 0
M  V30 916 H 87.4816 -6.57933 -2.23939 0
M  V30 917 H 90.6726 -4.32938 -1.77996 0
M  V30 918 H 90.8456 -6.08476 -2.22848 0
M  V30 919 N 84.2517 0.741722 -1.39055 0
M  V30 920 C 85.1817 1.869 -1.39966 0
M  V30 921 C 86.1627 1.6804 -0.26392 0
M  V30 922 O 87.3477 1.88458 -0.468755 0
M  V30 923 C 84.4777 3.24572 -1.23574 0
M  V30 924 C 83.4317 3.58056 -2.34477 0
M  V30 925 C 82.7577 4.94593 -2.0318 0
M  V30 926 C 84.0577 3.61716 -3.76774 0
M  V30 927 H 85.7517 1.86395 -2.34302 0
M  V30 928 H 83.2977 0.895361 -1.1278 0
M  V30 929 H 85.2507 4.031 -1.22834 0
M  V30 930 H 83.9747 3.25587 -0.257045 0
M  V30 931 H 82.6337 2.81854 -2.34423 0
M  V30 932 H 82.2817 4.92181 -1.03765 0
M  V30 933 H 81.9817 5.17964 -2.77465 0
M  V30 934 H 83.5057 5.75486 -2.04079 0
M  V30 935 H 84.9197 4.30335 -3.78794 0
M  V30 936 H 83.3167 3.96603 -4.50362 0
M  V30 937 H 84.3867 2.61672 -4.08235 0
M  V30 938 N 85.7298 1.2412 0.971189 0
M  V30 939 C 86.6928 1.03156 2.04674 0
M  V30 940 C 87.6928 -0.00990322 1.60797 0
M  V30 941 O 88.8828 0.230729 1.72665 0
M  V30 942 C 86.0148 0.562765 3.36223 0
M  V30 943 H 87.2078 1.98614 2.24705 0
M  V30 944 H 84.7608 1.06293 1.14593 0
M  V30 945 H 85.4958 -0.395176 3.21883 0
M  V30 946 H 85.2808 1.31441 3.69413 0
M  V30 947 H 86.7708 0.437015 4.15307 0
M  V30 948 N 87.2079 -1.17134 1.05439 0
M  V30 949 C 88.4329 -1.91913 0.786396 0
M  V30 950 C 88.8579 -1.7643 -0.652234 0
M  V30 951 O 88.2159 -1.08372 -1.45345 0
M  V30 952 C 88.2639 -3.40921 1.17497 0
M  V30 953 O 87.3679 -4.11244 0.308589 0
M  V30 954 H 86.7089 -0.598215 0.288158 0
M  V30 955 H 89.2389 -1.48457 1.4079 0
M  V30 956 H 89.2489 -3.91668 1.14281 0
M  V30 957 H 87.9239 -3.5151 2.22292 0
M  V30 958 H 86.5009 -3.70731 0.40157 0
M  V30 959 N 88.686 -0.835752 -1.33615 0
M  V30 960 C 89.934 -0.429109 -1.97492 0
M  V30 961 C 90.255 1.01433 -1.66543 0
M  V30 962 O 89.525 1.70611 -0.962744 0
M  V30 963 H 88.105 -0.155686 -0.730596 0
M  V30 964 H 90.767 -1.06802 -1.63031 0
M  V30 965 H 89.863 -0.55861 -3.0706 0
M  V30 966 N 90.1641 1.46063 -0.591896 0
M  V30 967 C 91.4121 2.01938 -0.0808391 0
M  V30 968 C 91.7331 1.46475 1.28725 0
M  V30 969 O 91.0031 0.652944 1.84698 0
M  V30 970 H 89.5831 0.746516 -0.0268938 0
M  V30 971 H 92.2451 1.79055 -0.769752 0
M  V30 972 H 91.3411 3.12094 -0.0187578 0
M  V30 973 N 91.6422 0.330177 1.54103 0
M  V30 974 C 92.8882 -0.270806 2.00984 0
M  V30 975 C 93.2212 -1.51265 1.21789 0
M  V30 976 O 92.4962 -1.92142 0.301927 0
M  V30 977 C 92.7792 -0.598339 3.55094 0
M  V30 978 C 92.6322 0.654674 4.4501 0
M  V30 979 C 93.9512 -1.41334 4.16789 0
M  V30 980 H 91.0702 -0.0969531 0.730595 0
M  V30 981 H 93.7122 0.448066 1.84641 0
M  V30 982 H 91.8622 -1.21078 3.69151 0
M  V30 983 H 93.5342 1.29285 4.42813 0
M  V30 984 H 91.7772 1.28224 4.14416 0
M  V30 985 H 92.4482 0.380944 5.50684 0
M  V30 986 H 94.9242 -0.895597 4.06347 0
M  V30 987 H 93.8002 -1.61127 5.24718 0
M  V30 988 H 94.0612 -2.41146 3.70541 0
M  V30 989 N 93.1203 -1.57491 0.0584922 0
M  V30 990 C 94.0673 -2.11958 -0.913376 0
M  V30 991 C 95.0373 -1.02875 -1.30407 0
M  V30 992 O 96.2223 -1.30464 -1.39226 0
M  V30 993 C 93.3623 -2.67497 -2.18035 0
M  V30 994 C 92.4753 -3.90691 -1.84349 0
M  V30 995 C 91.6103 -4.3452 -3.05559 0
M  V30 996 C 90.6493 -5.50395 -2.67827 0
M  V30 997 N 89.7863 -5.89244 -3.81754 0
M  V30 998 H 94.6263 -2.94704 -0.442017 0
M  V30 999 H 92.1633 -1.45643 -0.206545 0
M  V30 1000 H 94.1213 -2.978 -2.92183 0
M  V30 1001 H 92.7513 -1.87537 -2.62735 0
M  V30 1002 H 91.8033 -3.66934 -1.00319 0
M  V30 1003 H 93.1153 -4.7489 -1.5258 0
M  V30 1004 H 92.2693 -4.66414 -3.87998 0
M  V30 1005 H 91.0083 -3.49147 -3.40511 0
M  V30 1006 H 90.0133 -5.18165 -1.83806 0
M  V30 1007 H 91.2383 -6.3749 -2.34059 0
M  V30 1008 H 89.1843 -5.06823 -4.16493 0
M  V30 1009 H 89.1013 -6.68151 -3.53708 0
M  V30 1010 H 90.3693 -6.25756 -4.64811 0
M  V30 1011 N 94.5984 0.214957 -1.56127 0
M  V30 1012 C 95.5284 1.2695 -1.95974 0
M  V30 1013 C 96.5094 1.48539 -0.828868 0
M  V30 1014 O 97.6944 1.60611 -1.09168 0
M  V30 1015 C 94.8244 2.61794 -2.28214 0
M  V30 1016 C 93.7784 2.54851 -3.43853 0
M  V30 1017 C 93.1044 3.93785 -3.61715 0
M  V30 1018 C 94.4044 2.09065 -4.78632 0
M  V30 1019 H 96.0984 0.93846 -2.84312 0
M  V30 1020 H 93.6444 0.449996 -1.36788 0
M  V30 1021 H 95.5974 3.35731 -2.54682 0
M  V30 1022 H 94.3214 2.96599 -1.36736 0
M  V30 1023 H 92.9804 1.8337 -3.17444 0
M  V30 1024 H 92.6284 4.25908 -2.67602 0
M  V30 1025 H 92.3284 3.90019 -4.39498 0
M  V30 1026 H 93.8524 4.69374 -3.90539 0
M  V30 1027 H 95.2664 2.7275 -5.04262 0
M  V30 1028 H 93.6634 2.16346 -5.59745 0
M  V30 1029 H 94.7334 1.04315 -4.73547 0
M  V30 1030 N 96.0765 1.50051 0.48192 0
M  V30 1031 C 97.3045 1.64237 1.25832 0
M  V30 1032 C 97.7195 0.321336 1.86045 0
M  V30 1033 O 97.0765 -0.695478 1.68729 0
M  V30 1034 C 97.1275 2.72548 2.37487 0
M  V30 1035 O 96.8485 3.99529 1.79745 0
M  V30 1036 C 98.3495 2.9761 3.28547 0
M  V30 1037 H 95.5695 0.55237 0.380957 0
M  V30 1038 H 98.1135 1.96207 0.576467 0
M  V30 1039 H 96.2685 2.43303 3.01467 0
M  V30 1040 H 96.6825 4.59342 2.5319 0
M  V30 1041 H 98.1565 3.77084 4.03127 0
M  V30 1042 H 98.6335 2.0826 3.86684 0
M  V30 1043 H 99.2395 3.28345 2.70314 0
M  V30 1044 N 97.5546 -0.734337 1.39446 0
M  V30 1045 C 98.4866 -1.85861 1.34121 0
M  V30 1046 C 99.4996 -1.60871 0.249864 0
M  V30 1047 O 100.689 -1.71093 0.508865 0
M  V30 1048 C 97.7886 -3.21899 1.05991 0
M  V30 1049 C 96.9616 -3.74239 2.26415 0
M  V30 1050 C 96.0206 -4.88841 1.94733 0
M  V30 1051 O 95.0466 -5.02468 2.67422 0
M  V30 1052 N 96.2486 -5.73261 0.913884 0
M  V30 1053 H 99.0136 -1.90934 2.31007 0
M  V30 1054 H 96.5746 -0.915102 1.33557 0
M  V30 1055 H 98.5666 -3.96136 0.828147 0
M  V30 1056 H 97.1366 -3.12091 0.178361 0
M  V30 1057 H 96.3566 -2.91347 2.65539 0
M  V30 1058 H 97.6446 -4.05942 3.06738 0
M  V30 1059 H 97.0426 -5.64842 0.311476 0
M  V30 1060 H 95.5996 -6.47563 0.742015 0
M  V30 1061 N 99.0327 -1.24633 -0.964593 0
M  V30 1062 C 99.9827 -1.00841 -2.04487 0
M  V30 1063 C 100.967 0.0512468 -1.60818 0
M  V30 1064 O 102.159 -0.162865 -1.76249 0
M  V30 1065 C 99.2877 -0.618474 -3.37683 0
M  V30 1066 C 98.3737 -1.71437 -3.87905 0
M  V30 1067 N 98.7647 -2.9477 -4.11029 0
M  V30 1068 C 97.0627 -1.5926 -4.16596 0
M  V30 1069 C 97.7637 -3.65834 -4.52261 0
M  V30 1070 N 96.7397 -2.9341 -4.57615 0
M  V30 1071 H 100.542 -1.94487 -2.20345 0
M  V30 1072 H 98.0557 -1.14805 -1.14863 0
M  V30 1073 H 100.053 -0.429247 -4.14684 0
M  V30 1074 H 98.7127 0.310766 -3.23209 0
M  V30 1075 H 99.7237 -3.30917 -3.9839 0
M  V30 1076 H 96.4007 -0.731606 -4.1104 0
M  V30 1077 H 97.7907 -4.71646 -4.78539 0
M  V30 1078 N 100.511 1.16574 -1.06058 0
M  V30 1079 C 101.441 2.23057 -0.690488 0
M  V30 1080 C 102.422 1.67141 0.315901 0
M  V30 1081 O 103.607 1.93253 0.191556 0
M  V30 1082 C 100.737 3.47222 -0.073625 0
M  V30 1083 C 99.6908 4.16016 -1.00573 0
M  V30 1084 C 99.0168 5.34104 -0.252289 0
M  V30 1085 C 100.317 4.67264 -2.33371 0
M  V30 1086 H 102.011 2.54271 -1.58072 0
M  V30 1087 H 99.5568 1.22218 -0.76149 0
M  V30 1088 H 101.51 4.20939 0.19714 0
M  V30 1089 H 100.234 3.15302 0.85161 0
M  V30 1090 H 98.8928 3.44223 -1.2612 0
M  V30 1091 H 98.5408 4.98437 0.675988 0
M  V30 1092 H 98.2408 5.81072 -0.873455 0
M  V30 1093 H 99.7648 6.10599 0.0109857 0
M  V30 1094 H 101.179 5.32573 -2.12223 0
M  V30 1095 H 99.5758 5.24843 -2.90963 0
M  V30 1096 H 100.646 3.83602 -2.96611 0
M  V30 1097 N 101.989 0.842826 1.3317 0
M  V30 1098 C 102.952 0.284065 2.27433 0
M  V30 1099 C 103.952 -0.54948 1.5112 0
M  V30 1100 O 105.142 -0.362699 1.70382 0
M  V30 1101 C 102.274 -0.599384 3.35589 0
M  V30 1102 H 103.467 1.11589 2.78366 0
M  V30 1103 H 101.02 0.616221 1.4364 0
M  V30 1104 H 101.755 -1.45349 2.89904 0
M  V30 1105 H 101.54 -0.00291266 3.921 0
M  V30 1106 H 103.03 -0.983488 4.05854 0
M  V30 1107 N 103.467 -1.45747 0.599634 0
M  V30 1108 C 104.43 -2.28917 -0.113835 0
M  V30 1109 C 105.43 -1.3933 -0.802729 0
M  V30 1110 O 106.62 -1.61534 -0.652103 0
M  V30 1111 C 103.752 -3.20152 -1.17114 0
M  V30 1112 H 104.945 -2.93478 0.617289 0
M  V30 1113 H 102.498 -1.52137 0.358327 0
M  V30 1114 H 103.233 -2.60374 -1.93329 0
M  V30 1115 H 103.018 -3.86133 -0.681468 0
M  V30 1116 H 104.508 -3.82708 -1.67105 0
M  V30 1117 N 104.945 -0.338344 -1.53925 0
M  V30 1118 C 106.17 0.263987 -2.05713 0
M  V30 1119 C 106.595 1.43847 -1.21201 0
M  V30 1120 O 105.953 1.79904 -0.224535 0
M  V30 1121 C 106.001 0.662 -3.54471 0
M  V30 1122 O 105.105 1.76265 -3.72833 0
M  V30 1123 H 104.446 0.0448722 -0.662482 0
M  V30 1124 H 106.976 -0.491048 -1.9862 0
M  V30 1125 H 106.986 0.940594 -3.9701 0
M  V30 1126 H 105.661 -0.196937 -4.15433 0
M  V30 1127 H 104.238 1.48173 -3.42198 0
M  V30 1128 N 106.423 1.57458 -0.0668435 0
M  V30 1129 C 107.834 1.80776 0.466558 0
M  V30 1130 C 108.185 0.980361 1.69951 0
M  V30 1131 O 107.31 0.201441 2.1546 0
M  V30 1132 C 107.905 3.27881 0.85321 0
M  V30 1133 C 106.464 3.52062 1.3315 0
M  V30 1134 C 105.611 2.75513 0.314264 0
M  V30 1135 H 108.562 1.5598 -0.292588 0
M  V30 1136 H 108.583 3.39659 1.715 0
M  V30 1137 H 108.095 3.88075 -0.0443439 0
M  V30 1138 H 106.196 2.97167 2.24772 0
M  V30 1139 H 106.309 4.60762 1.31285 0
M  V30 1140 H 104.673 2.42123 0.790492 0
M  V30 1141 H 105.456 3.38442 -0.575477 0
M  V30 1142 N 107.901 -0.206675 1.56239 0
M  V30 1143 C 108.831 -1.25909 1.96645 0
M  V30 1144 C 109.812 -1.48097 0.836734 0
M  V30 1145 O 110.997 -1.6003 1.10019 0
M  V30 1146 C 108.127 -2.6058 2.29599 0
M  V30 1147 C 107.081 -2.53024 3.452 0
M  V30 1148 C 106.407 -3.91861 3.63798 0
M  V30 1149 C 107.707 -2.06524 4.79734 0
M  V30 1150 H 109.401 -0.923369 2.84806 0
M  V30 1151 H 106.947 -0.442735 1.37025 0
M  V30 1152 H 108.9 -3.34375 2.56459 0
M  V30 1153 H 107.624 -2.95869 1.38307 0
M  V30 1154 H 106.283 -1.81684 3.18412 0
M  V30 1155 H 105.931 -4.24483 2.69857 0
M  V30 1156 H 105.631 -3.87683 4.4156 0
M  V30 1157 H 107.155 -4.67296 3.93022 0
M  V30 1158 H 108.569 -2.70072 5.05702 0
M  V30 1159 H 106.966 -2.13374 5.60885 0
M  V30 1160 H 108.036 -1.01802 4.74093 0
M  V30 1161 N 109.379 -1.50304 -0.473955 0
M  V30 1162 C 110.619 -1.62786 -1.23612 0
M  V30 1163 C 110.983 -0.319786 -1.89318 0
M  V30 1164 O 112.184 -0.320012 -2.66888 0
M  V30 1165 C 110.455 -2.77351 -2.25414 0
M  V30 1166 S 112.014 -3.09948 -3.10608 0
M  V30 1167 H 108.832 -0.573895 -0.419721 0
M  V30 1168 H 111.434 -1.88076 -0.533623 0
M  V30 1169 H 110.138 -3.70879 -1.75719 0
M  V30 1170 H 109.669 -2.54137 -3.00296 0
M  V30 1171 H 111.684 -2.53553 -4.26527 0
M  V30 1172 N 110.857 0.726932 -1.39834 0
M  V30 1173 C 112.085 1.51613 -1.40787 0
M  V30 1174 C 112.5 1.88799 -0.00451505 0
M  V30 1175 O 111.857 1.54662 0.968809 0
M  V30 1176 C 111.908 2.79863 -2.28821 0
M  V30 1177 O 111.629 2.44253 -3.63692 0
M  V30 1178 C 113.13 3.73837 -2.38245 0
M  V30 1179 H 110.35 0.468264 -0.480593 0
M  V30 1180 H 112.894 0.897607 -1.83748 0
M  V30 1181 H 111.049 3.38027 -1.89252 0
M  V30 1182 H 111.463 3.26695 -4.1033 0
M  V30 1183 H 112.937 4.60699 -3.04073 0
M  V30 1184 H 113.414 4.16153 -1.40403 0
M  V30 1185 H 114.02 3.21589 -2.78317 0
M  V30 1186 N 112.336 1.25143 0.95797 0
M  V30 1187 C 113.747 1.08851 1.51685 0
M  V30 1188 C 114.098 -0.33687 1.93286 0
M  V30 1189 O 113.223 -1.22644 1.7829 0
M  V30 1190 C 113.818 1.96978 2.75654 0
M  V30 1191 C 112.377 1.84881 3.27866 0
M  V30 1192 C 111.524 1.91329 2.0072 0
M  V30 1193 H 114.475 1.38478 0.77522 0
M  V30 1194 H 114.496 1.5078 3.4935 0
M  V30 1195 H 114.008 3.00712 2.45345 0
M  V30 1196 H 112.109 0.840182 3.63004 0
M  V30 1197 H 112.222 2.6951 3.96107 0
M  V30 1198 H 110.586 1.35174 2.15871 0
M  V30 1199 H 111.369 2.96661 1.72764 0
M  V30 1200 N 113.814 -1.1601 1.06675 0
M  V30 1201 C 115.039 -1.91068 0.806706 0
M  V30 1202 C 115.464 -1.77112 -0.633485 0
M  V30 1203 O 114.822 -1.09908 -1.44187 0
M  V30 1204 C 114.87 -3.39655 1.21106 0
M  V30 1205 O 113.974 -4.10893 0.352189 0
M  V30 1206 H 113.315 -0.595125 0.294486 0
M  V30 1207 H 115.845 -1.46955 1.42356 0
M  V30 1208 H 115.855 -3.90434 1.18428 0
M  V30 1209 H 114.53 -3.49132 2.26008 0
M  V30 1210 H 113.107 -3.70285 0.440868 0
M  V30 1211 N 115.292 -0.849877 -1.32721 0
M  V30 1212 C 116.708 -0.539102 -1.50219 0
M  V30 1213 C 116.908 0.931271 -1.78689 0
M  V30 1214 O 115.964 1.71455 -1.85363 0
M  V30 1215 C 117.277 -1.42196 -2.64954 0
M  V30 1216 C 118.825 -1.42189 -2.78839 0
M  V30 1217 C 119.3 -2.28985 -3.96648 0
M  V30 1218 N 120.791 -2.26754 -4.03902 0
M  V30 1219 C 121.526 -2.90644 -4.94281 0
M  V30 1220 N 121.022 -3.63629 -5.897 0
M  V30 1221 N 122.815 -2.80057 -4.87365 0
M  V30 1222 H 114.966 -1.80156 -1.12506 0
M  V30 1223 H 117.229 -0.769217 -0.554085 0
M  V30 1224 H 116.935 -2.46733 -2.50631 0
M  V30 1225 H 116.809 -1.10591 -3.60624 0
M  V30 1226 H 119.196 -0.38419 -2.92588 0
M  V30 1227 H 119.277 -1.77807 -1.83898 0
M  V30 1228 H 118.921 -3.32819 -3.83658 0
M  V30 1229 H 118.851 -1.90702 -4.90857 0
M  V30 1230 H 121.342 -1.73688 -3.3562 0
M  V30 1231 H 121.655 -4.09558 -6.55349 0
M  V30 1232 H 120 -3.67737 -5.89741 0
M  V30 1233 H 123.191 -2.22593 -4.11789 0
M  V30 1234 H 123.364 -3.30132 -5.57599 0
M  V30 1235 N 116.77 1.45427 -0.607355 0
M  V30 1236 C 117.733 2.28974 0.101693 0
M  V30 1237 C 118.733 1.39754 0.795329 0
M  V30 1238 O 119.923 1.61878 0.643527 0
M  V30 1239 C 117.055 3.20768 1.15414 0
M  V30 1240 H 118.248 2.93147 -0.632844 0
M  V30 1241 H 115.801 1.51945 -0.366391 0
M  V30 1242 H 116.536 2.61395 1.91945 0
M  V30 1243 H 116.321 3.86489 0.66098 0
M  V30 1244 H 117.811 3.83589 1.65073 0
M  V30 1245 N 118.248 0.346503 1.53744 0
M  V30 1246 C 119.211 -0.496439 2.23759 0
M  V30 1247 C 120.211 -1.0252 1.2388 0
M  V30 1248 O 121.401 -0.913974 1.48297 0
M  V30 1249 C 118.533 -1.69187 2.95954 0
M  V30 1250 H 119.726 0.115952 2.99676 0
M  V30 1251 H 117.279 0.0978939 1.55993 0
M  V30 1252 H 118.014 -2.34288 2.24231 0
M  V30 1253 H 117.799 -1.31989 3.69217 0
M  V30 1254 H 119.289 -2.28969 3.49232 0
M  V30 1255 N 119.726 -1.57421 0.075193 0
M  V30 1256 C 120.973 -1.93618 -0.593146 0
M  V30 1257 C 121.301 -0.955484 -1.69413 0
M  V30 1258 O 120.556 0.0283251 -1.9568 0
M  V30 1259 C 120.855 -3.36428 -1.20626 0
M  V30 1260 C 120.521 -4.50307 -0.231078 0
M  V30 1261 C 119.183 -4.81186 0.0371936 0
M  V30 1262 C 121.535 -5.19374 0.435888 0
M  V30 1263 C 118.863 -5.78466 0.979461 0
M  V30 1264 C 121.215 -6.17665 1.3665 0
M  V30 1265 C 119.879 -6.46958 1.6432 0
M  V30 1266 H 119.149 -0.708499 -0.217047 0
M  V30 1267 H 121.796 -1.90937 0.146793 0
M  V30 1268 H 120.101 -3.35592 -2.02201 0
M  V30 1269 H 121.798 -3.61727 -1.73073 0
M  V30 1270 H 118.388 -4.26227 -0.450357 0
M  V30 1271 H 122.572 -4.95711 0.241748 0
M  V30 1272 H 117.828 -5.99487 1.20106 0
M  V30 1273 H 122.002 -6.70284 1.88924 0
M  V30 1274 H 119.629 -7.2215 2.37494 0
M  V30 1275 N 121.204 0.198386 -1.56346 0
M  V30 1276 C 122.137 1.27381 -1.89339 0
M  V30 1277 C 123.115 1.44106 -0.753134 0
M  V30 1278 O 124.299 1.59549 -1.00381 0
M  V30 1279 C 121.426 2.6409 -2.12071 0
M  V30 1280 C 120.472 2.64253 -3.34772 0
M  V30 1281 S 121.305 2.16013 -4.89999 0
M  V30 1282 C 122.461 3.54553 -5.15794 0
M  V30 1283 H 122.694 0.992058 -2.8026 0
M  V30 1284 H 120.227 0.401726 -1.49082 0
M  V30 1285 H 122.185 3.42786 -2.2585 0
M  V30 1286 H 120.846 2.89478 -1.21906 0
M  V30 1287 H 120.039 3.64768 -3.47794 0
M  V30 1288 H 119.641 1.93637 -3.1997 0
M  V30 1289 H 121.933 4.50396 -5.06112 0
M  V30 1290 H 122.876 3.46428 -6.1757 0
M  V30 1291 H 123.284 3.49313 -4.43442 0
M  V30 1292 N 122.682 1.50554 0.465978 0
M  V30 1293 C 123.91 1.65563 1.24083 0
M  V30 1294 C 124.325 0.341051 1.85694 0
M  V30 1295 O 123.682 -0.677543 1.69457 0
M  V30 1296 C 123.733 2.75051 2.34583 0
M  V30 1297 O 123.454 4.01413 1.75497 0
M  V30 1298 C 124.955 3.01078 3.25372 0
M  V30 1299 H 122.175 0.55638 0.375077 0
M  V30 1300 H 124.719 1.96807 0.555624 0
M  V30 1301 H 122.874 2.46486 2.9887 0
M  V30 1302 H 123.288 4.62002 2.48303 0
M  V30 1303 H 124.762 3.81339 3.99105 0
M  V30 1304 H 125.239 2.12349 3.84453 0
M  V30 1305 H 125.845 3.31194 2.66816 0
M  V30 1306 N 124.16 -0.719506 1.40217 0
M  V30 1307 C 125.408 -1.47641 1.3801 0
M  V30 1308 C 125.729 -1.94992 -0.018145 0
M  V30 1309 O 124.999 -1.70073 -0.972207 0
M  V30 1310 H 123.579 -0.547744 0.507923 0
M  V30 1311 H 126.241 -0.853187 1.75233 0
M  V30 1312 H 125.337 -2.35112 2.05253 0
M  V30 1313 N 125.638 -1.25649 -0.95132 0
M  V30 1314 C 127.054 -1.02542 -1.223 0
M  V30 1315 C 127.254 0.255715 -1.99871 0
M  V30 1316 O 126.31 0.967558 -2.33226 0
M  V30 1317 C 127.623 -2.25065 -1.99415 0
M  V30 1318 C 129.171 -2.29861 -2.12446 0
M  V30 1319 C 129.646 -3.52048 -2.92961 0
M  V30 1320 N 131.137 -3.52465 -3.00538 0
M  V30 1321 C 131.872 -4.43672 -3.63239 0
M  V30 1322 N 131.368 -5.45157 -4.27523 0
M  V30 1323 N 133.161 -4.31346 -3.60412 0
M  V30 1324 H 125.312 -2.07951 -0.432471 0
M  V30 1325 H 127.575 -0.91339 -0.253816 0
M  V30 1326 H 127.281 -3.18194 -1.49817 0
M  V30 1327 H 127.155 -2.28502 -3.00111 0
M  V30 1328 H 129.542 -1.37252 -2.61239 0
M  V30 1329 H 129.623 -2.3044 -1.11044 0
M  V30 1330 H 129.267 -4.44981 -2.44856 0
M  V30 1331 H 129.197 -3.48715 -3.94596 0
M  V30 1332 H 131.688 -2.79056 -2.54826 0
M  V30 1333 H 132.001 -6.10958 -4.73234 0
M  V30 1334 H 130.346 -5.49025 -4.26141 0
M  V30 1335 H 133.537 -3.51288 -3.09377 0
M  V30 1336 H 133.71 -5.02624 -4.0899 0
M  V30 1337 N 127.117 1.15442 -1.07289 0
M  V30 1338 C 128.347 1.89821 -0.815576 0
M  V30 1339 C 128.755 1.7823 0.634867 0
M  V30 1340 O 128.098 1.13152 1.44715 0
M  V30 1341 C 128.16 3.40817 -1.14385 0
M  V30 1342 C 127.824 3.76193 -2.59476 0
M  V30 1343 C 128.821 3.77269 -3.57721 0
M  V30 1344 C 126.506 4.0652 -2.95037 0
M  V30 1345 C 128.5 4.08176 -4.89562 0
M  V30 1346 C 126.187 4.37092 -4.27076 0
M  V30 1347 C 127.185 4.37902 -5.24148 0
M  V30 1348 O 126.873 4.67741 -6.53815 0
M  V30 1349 H 126.605 0.608465 -0.294528 0
M  V30 1350 H 129.159 1.472 -1.43252 0
M  V30 1351 H 127.389 3.83835 -0.469865 0
M  V30 1352 H 129.078 3.96485 -0.869179 0
M  V30 1353 H 129.844 3.5394 -3.3159 0
M  V30 1354 H 125.723 4.05049 -2.20128 0
M  V30 1355 H 129.267 4.08723 -5.65324 0
M  V30 1356 H 125.164 4.59889 -4.5296 0
M  V30 1357 H 125.932 4.85509 -6.58957 0
M  V30 1358 N 128.595 0.856903 1.32268 0
M  V30 1359 C 130.006 0.515711 1.79436 0
M  V30 1360 C 130.357 -0.966586 1.70738 0
M  V30 1361 O 129.482 -1.75409 1.26731 0
M  V30 1362 C 130.077 0.929335 3.25805 0
M  V30 1363 C 128.636 0.640006 3.70919 0
M  V30 1364 C 127.783 1.12784 2.53328 0
M  V30 1365 H 130.734 1.04389 1.19535 0
M  V30 1366 H 130.755 0.246633 3.797 0
M  V30 1367 H 130.267 2.00821 3.32103 0
M  V30 1368 H 128.368 -0.428051 3.70133 0
M  V30 1369 H 128.481 1.20788 4.63624 0
M  V30 1370 H 126.845 0.548033 2.48734 0
M  V30 1371 H 127.628 2.21387 2.62379 0
M  V30 1372 N 130.073 -1.45103 0.615059 0
M  V30 1373 C 131.319 -2.02483 0.113347 0
M  V30 1374 C 131.652 -1.48146 -1.25564 0
M  V30 1375 O 130.927 -0.659104 -1.82992 0
M  V30 1376 C 131.21 -3.60005 0.0825278 0
M  V30 1377 C 131.063 -4.2466 1.48271 0
M  V30 1378 C 132.382 -4.35972 -0.601401 0
M  V30 1379 H 129.501 -0.735764 0.0426632 0
M  V30 1380 H 132.143 -1.72868 0.788461 0
M  V30 1381 H 130.293 -3.85367 -0.492378 0
M  V30 1382 H 131.965 -4.10458 2.10527 0
M  V30 1383 H 130.208 -3.82772 2.04127 0
M  V30 1384 H 130.879 -5.336 1.41332 0
M  V30 1385 H 133.355 -4.15947 -0.112666 0
M  V30 1386 H 132.231 -5.45697 -0.592097 0
M  V30 1387 H 132.492 -4.09391 -1.66887 0
M  V30 1388 N 131.551 -0.354651 -1.53558 0
M  V30 1389 C 132.967 -0.00315426 -1.596 0
M  V30 1390 C 133.167 1.47741 -1.37021 0
M  V30 1391 O 132.223 2.23759 -1.16996 0
M  V30 1392 C 133.536 -0.44929 -2.97325 0
M  V30 1393 C 135.084 -0.402578 -3.104 0
M  V30 1394 C 135.559 -0.824355 -4.5052 0
M  V30 1395 N 137.05 -0.778979 -4.56603 0
M  V30 1396 C 137.785 -1.07715 -5.63192 0
M  V30 1397 N 137.281 -1.44405 -6.77583 0
M  V30 1398 N 139.074 -1.00066 -5.53121 0
M  V30 1399 H 131.225 -1.31893 -1.66487 0
M  V30 1400 H 133.488 -0.538388 -0.780284 0
M  V30 1401 H 133.194 -1.48202 -3.1895 0
M  V30 1402 H 133.068 0.169772 -3.76818 0
M  V30 1403 H 135.455 0.621004 -2.88492 0
M  V30 1404 H 135.536 -1.05699 -2.32941 0
M  V30 1405 H 135.18 -1.846 -4.73165 0
M  V30 1406 H 135.11 -0.147304 -5.26394 0
M  V30 1407 H 137.601 -0.508528 -3.74463 0
M  V30 1408 H 137.914 -1.65612 -7.54846 0
M  V30 1409 H 136.259 -1.4826 -6.79002 0
M  V30 1410 H 139.45 -0.713293 -4.62633 0
M  V30 1411 H 139.623 -1.23638 -6.36096 0
M  V30 1412 N 133.029 1.57378 -0.0835403 0
M  V30 1413 C 134.254 1.98682 0.594987 0
M  V30 1414 C 134.679 0.961969 1.61641 0
M  V30 1415 O 134.037 -0.0709989 1.81161 0
M  V30 1416 C 134.085 3.38988 1.2296 0
M  V30 1417 O 133.189 3.39208 2.34546 0
M  V30 1418 H 132.53 0.646368 0.152002 0
M  V30 1419 H 135.06 2.03961 -0.161533 0
M  V30 1420 H 135.07 3.76431 1.57366 0
M  V30 1421 H 133.745 4.13107 0.481228 0
M  V30 1422 H 132.322 3.13548 2.01846 0
M  V30 1423 N 134.507 -0.190092 1.56449 0
M  V30 1424 C 135.755 -0.907908 1.80559 0
M  V30 1425 C 136.076 -1.83583 0.657438 0
M  V30 1426 O 135.346 -1.93203 -0.323924 0
M  V30 1427 H 133.926 -0.338247 0.666032 0
M  V30 1428 H 136.588 -0.194403 1.93928 0
M  V30 1429 H 135.684 -1.49604 2.73907 0
M  V30 1430 N 135.985 -1.50799 -0.457987 0
M  V30 1431 C 136.918 -1.65273 -1.57353 0
M  V30 1432 C 137.896 -0.500578 -1.54703 0
M  V30 1433 O 139.08 -0.721781 -1.74134 0
M  V30 1434 C 136.207 -1.64737 -2.95938 0
M  V30 1435 C 135.253 -2.8567 -3.16693 0
M  V30 1436 S 136.086 -4.46791 -2.95191 0
M  V30 1437 C 137.242 -4.48968 -4.36095 0
M  V30 1438 H 137.475 -2.59633 -1.44838 0
M  V30 1439 H 135.008 -1.40225 -0.64625 0
M  V30 1440 H 136.966 -1.65112 -3.7583 0
M  V30 1441 H 135.627 -0.715899 -3.05833 0
M  V30 1442 H 134.82 -2.81637 -4.17967 0
M  V30 1443 H 134.422 -2.8293 -2.44594 0
M  V30 1444 H 136.714 -4.23337 -5.28954 0
M  V30 1445 H 137.657 -5.50664 -4.45168 0
M  V30 1446 H 138.065 -3.78522 -4.18786 0
M  V30 1447 N 137.463 0.71206 -1.40597 0
M  V30 1448 C 138.426 1.80785 -1.40888 0
M  V30 1449 C 139.426 1.57937 -0.302103 0
M  V30 1450 O 140.616 1.64913 -0.561182 0
M  V30 1451 C 137.748 3.18927 -1.20409 0
M  V30 1452 H 138.941 1.81924 -2.38419 0
M  V30 1453 H 136.494 0.91805 -1.26497 0
M  V30 1454 H 137.229 3.23436 -0.236522 0
M  V30 1455 H 137.014 3.36911 -2.00582 0
M  V30 1456 H 138.504 3.98949 -1.23408 0
M  V30 1457 N 138.941 1.26152 0.944643 0
M  V30 1458 C 140.166 1.14363 1.7302 0
M  V30 1459 C 140.591 -0.29772 1.85729 0
M  V30 1460 O 139.949 -1.2157 1.34501 0
M  V30 1461 C 139.997 1.81378 3.11664 0
M  V30 1462 O 139.101 1.10022 3.97453 0
M  V30 1463 H 138.442 0.398694 0.53098 0
M  V30 1464 H 140.972 1.66906 1.18337 0
M  V30 1465 H 140.982 1.88064 3.62072 0
M  V30 1466 H 139.657 2.86237 3.0173 0
M  V30 1467 H 138.234 1.11287 3.55907 0
M  V30 1468 N 140.419 -1.14872 1.07899 0
M  V30 1469 C 141.665 -1.86289 0.81657 0
M  V30 1470 C 142.02 -1.8107 -0.65049 0
M  V30 1471 O 141.313 -1.22684 -1.47171 0
M  V30 1472 C 141.507 -3.34223 1.26609 0
M  V30 1473 C 141.336 -3.53846 2.77531 0
M  V30 1474 C 140.106 -3.68995 3.45212 0
M  V30 1475 C 142.304 -3.51201 3.75716 0
M  V30 1476 N 140.286 -3.76725 4.84718 0
M  V30 1477 C 141.657 -3.65112 5.01092 0
M  V30 1478 C 143.712 -3.34507 3.68794 0
M  V30 1479 C 142.415 -3.64056 6.20368 0
M  V30 1480 C 144.441 -3.34752 4.8754 0
M  V30 1481 C 143.803 -3.49199 6.11751 0
M  V30 1482 H 139.902 -0.698579 0.351443 0
M  V30 1483 H 142.486 -1.37713 1.37634 0
M  V30 1484 H 140.657 -3.81402 0.73395 0
M  V30 1485 H 142.389 -3.93377 0.95062 0
M  V30 1486 H 139.144 -3.70006 2.95622 0
M  V30 1487 H 139.568 -3.8432 5.5734 0
M  V30 1488 H 144.21 -3.22253 2.73702 0
M  V30 1489 H 141.928 -3.75087 7.15776 0
M  V30 1490 H 145.514 -3.23055 4.83866 0
M  V30 1491 H 144.394 -3.49328 7.02097 0
M  V30 1492 N 141.898 -0.863906 -1.31812 0
M  V30 1493 C 143.123 -0.48527 -2.01643 0
M  V30 1494 C 143.548 0.913058 -1.64453 0
M  V30 1495 O 142.906 1.6014 -0.849985 0
M  V30 1496 C 142.954 -0.642625 -3.54828 0
M  V30 1497 O 142.058 0.320659 -4.11151 0
M  V30 1498 H 141.399 -0.193793 -0.635091 0
M  V30 1499 H 143.929 -1.16565 -1.68148 0
M  V30 1500 H 143.939 -0.533628 -4.04495 0
M  V30 1501 H 142.614 -1.66227 -3.81237 0
M  V30 1502 H 141.191 0.167126 -3.72525 0
M  V30 1503 N 143.376 1.44774 -0.622745 0
M  V30 1504 C 144.792 1.56986 -0.287652 0
M  V30 1505 C 144.992 1.61167 1.20944 0
M  V30 1506 O 144.048 1.55015 1.99315 0
M  V30 1507 C 145.361 2.84551 -0.972188 0
M  V30 1508 C 146.909 2.9825 -0.949536 0
M  V30 1509 C 147.384 4.28605 -1.61437 0
M  V30 1510 N 148.875 4.35399 -1.58057 0
M  V30 1511 C 149.61 5.34964 -2.064 0
M  V30 1512 N 149.106 6.40981 -2.62897 0
M  V30 1513 N 150.899 5.26419 -1.97078 0
M  V30 1514 H 143.05 1.40304 -1.59463 0
M  V30 1515 H 145.313 0.671794 -0.668878 0
M  V30 1516 H 145.019 2.87417 -2.02693 0
M  V30 1517 H 144.893 3.73807 -0.504771 0
M  V30 1518 H 147.28 2.94941 0.0967067 0
M  V30 1519 H 147.361 2.10364 -1.45536 0
M  V30 1520 H 147.005 4.32672 -2.66002 0
M  V30 1521 H 146.935 5.15334 -1.08344 0
M  V30 1522 H 149.426 3.59397 -1.16801 0
M  V30 1523 H 149.739 7.13225 -2.97539 0
M  V30 1524 H 148.084 6.4169 -2.66943 0
M  V30 1525 H 151.275 4.42504 -1.52669 0
M  V30 1526 H 151.448 6.03861 -2.35066 0
M  V30 1527 N 144.854 0.36279 1.53368 0
M  V30 1528 C 146.082 -0.228613 2.05633 0
M  V30 1529 C 146.497 -1.42676 1.23649 0
M  V30 1530 O 145.854 -1.80394 0.27647 0
M  V30 1531 C 145.905 -0.624845 3.56059 0
M  V30 1532 O 145.626 0.525675 4.34935 0
M  V30 1533 C 147.127 -1.27493 4.24571 0
M  V30 1534 H 144.347 -0.0407183 0.669763 0
M  V30 1535 H 146.891 0.520352 1.97769 0
M  V30 1536 H 145.046 -1.32373 3.64083 0
M  V30 1537 H 145.46 0.205969 5.24095 0
M  V30 1538 H 146.934 -1.50277 5.31151 0
M  V30 1539 H 147.411 -2.23439 3.78116 0
M  V30 1540 H 148.017 -0.617558 4.20792 0
M  V30 1541 N 146.332 -1.57332 0.0918853 0
M  V30 1542 C 147.58 -1.93853 -0.571446 0
M  V30 1543 C 147.901 -0.974212 -1.6892 0
M  V30 1544 O 147.171 -0.0257254 -1.95883 0
M  V30 1545 H 145.751 -0.715666 -0.214082 0
M  V30 1546 H 148.413 -1.94287 0.154464 0
M  V30 1547 H 147.509 -2.96191 -0.983729 0
M  V30 1548 N 147.81 0.181792 -1.56548 0
M  V30 1549 C 149.056 0.901431 -1.81665 0
M  V30 1550 C 149.389 1.82347 -0.668075 0
M  V30 1551 O 148.664 1.91669 0.330615 0
M  V30 1552 C 148.947 1.70618 -3.17115 0
M  V30 1553 C 148.8 0.807964 -4.42484 0
M  V30 1554 C 150.119 2.67605 -3.49393 0
M  V30 1555 H 147.238 0.32627 -0.660846 0
M  V30 1556 H 149.88 0.168134 -1.89255 0
M  V30 1557 H 148.03 2.33133 -3.10775 0
M  V30 1558 H 149.702 0.19649 -4.60881 0
M  V30 1559 H 147.945 0.115411 -4.33646 0
M  V30 1560 H 148.616 1.40632 -5.33785 0
M  V30 1561 H 151.092 2.15218 -3.56118 0
M  V30 1562 H 149.968 3.20985 -4.45264 0
M  V30 1563 H 150.229 3.47298 -2.73563 0
M  V30 1564 N 149.288 1.51039 0.449983 0
M  V30 1565 C 150.535 1.63081 1.20045 0
M  V30 1566 C 150.863 0.341024 1.91487 0
M  V30 1567 O 150.118 -0.674276 1.83717 0
M  V30 1568 C 150.417 2.77556 2.25161 0
M  V30 1569 C 150.083 4.17289 1.70823 0
M  V30 1570 C 148.745 4.55305 1.55725 0
M  V30 1571 C 151.097 5.04536 1.3074 0
M  V30 1572 C 148.425 5.78287 0.989999 0
M  V30 1573 C 150.777 6.28085 0.754482 0
M  V30 1574 C 149.441 6.64885 0.590308 0
M  V30 1575 H 148.711 0.596755 0.439277 0
M  V30 1576 H 151.358 1.85037 0.49333 0
M  V30 1577 H 149.663 2.49771 3.01863 0
M  V30 1578 H 151.36 2.84073 2.83026 0
M  V30 1579 H 147.95 3.8731 1.83546 0
M  V30 1580 H 152.134 4.75782 1.41229 0
M  V30 1581 H 147.39 6.05456 0.850451 0
M  V30 1582 H 151.564 6.95038 0.435324 0
M  V30 1583 H 149.191 7.60055 0.14862 0
M  V30 1584 N 150.766 -0.704594 1.40972 0
M  V30 1585 C 151.696 -1.83124 1.44872 0
M  V30 1586 C 152.677 -1.67281 0.30838 0
M  V30 1587 O 153.862 -1.87149 0.518556 0
M  V30 1588 C 150.992 -3.21181 1.32136 0
M  V30 1589 C 149.946 -3.51714 2.43888 0
M  V30 1590 C 149.272 -4.89032 2.16222 0
M  V30 1591 C 150.572 -3.516 3.86232 0
M  V30 1592 H 152.266 -1.80117 2.39161 0
M  V30 1593 H 149.812 -0.865145 1.15114 0
M  V30 1594 H 151.765 -3.99702 1.33479 0
M  V30 1595 H 150.489 -3.24791 0.343279 0
M  V30 1596 H 149.148 -2.75539 2.41813 0
M  V30 1597 H 148.796 -4.89256 1.16778 0
M  V30 1598 H 148.496 -5.10426 2.911 0
M  V30 1599 H 150.02 -5.69873 2.19265 0
M  V30 1600 H 151.434 -4.2014 3.9007 0
M  V30 1601 H 149.831 -3.84523 4.60719 0
M  V30 1602 H 150.901 -2.50757 4.15029 0
M  V30 1603 N 152.244 -1.26651 -0.937939 0
M  V30 1604 C 153.491 -1.12387 -1.6845 0
M  V30 1605 C 153.819 0.332208 -1.91642 0
M  V30 1606 O 153.074 1.2602 -1.49725 0
M  V30 1607 C 153.373 -1.84168 -3.06295 0
M  V30 1608 C 153.039 -3.34056 -3.02849 0
M  V30 1609 C 151.701 -3.74942 -3.01616 0
M  V30 1610 C 154.053 -4.29741 -2.9491 0
M  V30 1611 C 151.381 -5.09894 -2.90215 0
M  V30 1612 C 153.733 -5.64738 -2.8505 0
M  V30 1613 C 152.397 -6.0493 -2.82162 0
M  V30 1614 H 151.667 -0.411252 -0.616403 0
M  V30 1615 H 154.314 -1.57134 -1.09459 0
M  V30 1616 H 152.619 -1.319 -3.6893 0
M  V30 1617 H 154.316 -1.70569 -3.62915 0
M  V30 1618 H 150.906 -3.01534 -3.0459 0
M  V30 1619 H 155.09 -3.99133 -2.94969 0
M  V30 1620 H 150.346 -5.40194 -2.86358 0
M  V30 1621 H 154.52 -6.38561 -2.77872 0
M  V30 1622 H 152.147 -7.09457 -2.73084 0
M  V30 1623 N 153.722 1.14298 -1.08507 0
M  V30 1624 C 154.95 1.89219 -0.836876 0
M  V30 1625 C 155.365 1.78638 0.611054 0
M  V30 1626 O 154.722 1.14643 1.41998 0
M  V30 1627 C 154.773 3.39158 -1.25116 0
M  V30 1628 O 154.494 3.49449 -2.64229 0
M  V30 1629 C 155.995 4.31073 -1.03398 0
M  V30 1630 H 153.215 0.599328 -0.301739 0
M  V30 1631 H 155.759 1.44746 -1.44461 0
M  V30 1632 H 153.914 3.81251 -0.687514 0
M  V30 1633 H 154.328 4.42589 -2.81452 0
M  V30 1634 H 155.802 5.34646 -1.37323 0
M  V30 1635 H 156.279 4.3919 0.0289259 0
M  V30 1636 H 156.885 3.94738 -1.58311 0
M  V30 1637 N 155.201 0.870884 1.31352 0
M  V30 1638 C 156.164 0.332243 2.26779 0
M  V30 1639 C 157.164 -0.517302 1.52252 0
M  V30 1640 O 158.354 -0.326477 1.71113 0
M  V30 1641 C 155.486 -0.528066 3.36785 0
M  V30 1642 H 156.679 1.17469 2.75937 0
M  V30 1643 H 154.232 0.64655 1.423 0
M  V30 1644 H 154.967 -1.39167 2.92922 0
M  V30 1645 H 154.752 0.0802582 3.92018 0
M  V30 1646 H 156.242 -0.897179 4.07849 0
M  V30 1647 N 156.679 -1.44442 0.630414 0
M  V30 1648 C 157.904 -2.06927 0.139944 0
M  V30 1649 C 158.329 -1.46795 -1.17613 0
M  V30 1650 O 157.687 -0.569144 -1.72135 0
M  V30 1651 C 157.735 -3.6058 0.0379581 0
M  V30 1652 O 156.839 -3.99937 -1.0062 0
M  V30 1653 H 156.18 -0.658608 0.0844483 0
M  V30 1654 H 158.71 -1.85327 0.866891 0
M  V30 1655 H 158.72 -4.07714 -0.152856 0
M  V30 1656 H 157.395 -4.03728 0.998809 0
M  V30 1657 H 155.972 -3.64436 -0.79001 0
M  V30 1658 N 158.157 -0.370918 -1.53173 0
M  V30 1659 C 159.382 0.220293 -2.06227 0
M  V30 1660 C 159.807 1.41243 -1.24225 0
M  V30 1661 O 159.165 1.79387 -0.262645 0
M  V30 1662 C 159.213 0.586663 -3.55796 0
M  V30 1663 O 158.317 1.68317 -3.76488 0
M  V30 1664 H 157.658 0.0308099 -0.663285 0
M  V30 1665 H 160.188 -0.533068 -1.97534 0
M  V30 1666 H 160.198 0.85617 -3.98916 0
M  V30 1667 H 158.873 -0.285013 -4.14922 0
M  V30 1668 H 157.45 1.40881 -3.45264 0
M  V30 1669 N 159.635 1.57281 -0.100228 0
M  V30 1670 C 160.883 1.94153 0.561157 0
M  V30 1671 C 161.204 0.983157 1.68401 0
M  V30 1672 O 160.474 0.0361132 1.95867 0
M  V30 1673 H 159.054 0.716791 0.210283 0
M  V30 1674 H 161.716 1.94202 -0.164765 0
M  V30 1675 H 160.812 2.96709 0.968008 0
M  V30 1676 N 161.113 -0.173488 1.56642 0
M  V30 1677 C 162.361 -0.888706 1.81512 0
M  V30 1678 C 162.682 -1.82875 0.676872 0
M  V30 1679 O 161.952 -1.93536 -0.303414 0
M  V30 1680 H 160.532 -0.331164 0.669582 0
M  V30 1681 H 163.194 -0.173823 1.94123 0
M  V30 1682 H 162.29 -1.46691 2.75478 0
M  V30 1683 N 162.591 -1.51276 -0.441967 0
M  V30 1684 C 163.521 -1.752 -1.54361 0
M  V30 1685 C 164.502 -0.601682 -1.59103 0
M  V30 1686 O 165.687 -0.843913 -1.74905 0
M  V30 1687 C 162.817 -1.87282 -2.92477 0
M  V30 1688 C 161.771 -3.02687 -3.02596 0
M  V30 1689 C 161.097 -2.99947 -4.42647 0
M  V30 1690 C 162.397 -4.4273 -2.77106 0
M  V30 1691 H 164.091 -2.67442 -1.34592 0
M  V30 1692 H 161.637 -1.28694 -0.646048 0
M  V30 1693 H 163.59 -2.02602 -3.695 0
M  V30 1694 H 162.314 -0.916844 -3.13467 0
M  V30 1695 H 160.973 -2.87065 -2.28012 0
M  V30 1696 H 160.621 -2.02136 -4.60597 0
M  V30 1697 H 160.321 -3.77439 -4.50348 0
M  V30 1698 H 161.845 -3.17354 -5.2165 0
M  V30 1699 H 163.259 -4.58727 -3.43864 0
M  V30 1700 H 161.656 -5.21893 -2.96222 0
M  V30 1701 H 162.726 -4.53087 -1.72744 0
M  V30 1702 N 164.069 0.697108 -1.41344 0
M  V30 1703 C 165.48 1.27697 -1.36199 0
M  V30 1704 C 165.831 1.9615 -0.0443463 0
M  V30 1705 O 164.956 1.98689 0.857419 0
M  V30 1706 C 165.551 2.32223 -2.46694 0
M  V30 1707 C 164.11 2.8579 -2.44952 0
M  V30 1708 C 163.257 1.59807 -2.26621 0
M  V30 1709 H 166.208 0.491968 -1.50882 0
M  V30 1710 H 166.229 3.1348 -2.15664 0
M  V30 1711 H 165.741 1.82373 -3.42581 0
M  V30 1712 H 163.842 3.3982 -1.52817 0
M  V30 1713 H 163.955 3.36325 -3.41207 0
M  V30 1714 H 162.319 1.8556 -1.7447 0
M  V30 1715 H 163.102 1.11956 -3.24532 0
M  V30 1716 N 165.547 1.27147 0.931209 0
M  V30 1717 C 166.775 1.16082 1.71267 0
M  V30 1718 C 167.19 -0.282772 1.8667 0
M  V30 1719 O 166.547 -1.19283 1.38122 0
M  V30 1720 C 166.598 1.8358 3.11417 0
M  V30 1721 O 166.319 3.22299 2.96741 0
M  V30 1722 C 167.82 1.78597 4.05732 0
M  V30 1723 H 165.04 0.403758 0.535929 0
M  V30 1724 H 167.584 1.67953 1.16671 0
M  V30 1725 H 165.739 1.35623 3.62885 0
M  V30 1726 H 166.153 3.55851 3.85319 0
M  V30 1727 H 167.627 2.30444 5.01597 0
M  V30 1728 H 168.104 0.754564 4.3267 0
M  V30 1729 H 168.71 2.26152 3.60188 0
M  V30 1730 N 167.025 -1.13721 1.09112 0
M  V30 1731 C 168.302 -1.81155 0.737706 0
M  V30 1732 C 168.682 -1.96253 -0.777683 0
M  V30 1733 O 168.03 -1.52807 -1.69889 0
M  V30 1734 C 168.24 -3.16392 1.47299 0
M  V30 1735 C 169.588 -3.91787 1.63671 0
M  V30 1736 O 170.612 -3.26005 1.43524 0
M  V30 1737 O 169.471 -5.0977 1.96969 0
M  V30 1738 H 166.565 -0.783518 0.26463 0
M  V30 1739 H 169.111 -1.20676 1.19312 0
M  V30 1740 H 167.883 -3.0061 2.50498 0
M  V30 1741 H 167.506 -3.8457 1.00953 0
M  V30 1742 N 168.503 -0.877838 -1.30888 0
M  V30 1743 C 169.413 -0.343096 -2.32078 0
M  V30 1744 C 170.429 0.551022 -1.65045 0
M  V30 1745 O 171.605 0.445854 -1.96403 0
M  V30 1746 C 168.67 0.439905 -3.43898 0
M  V30 1747 C 167.731 -0.483111 -4.26573 0
M  V30 1748 C 166.964 0.262616 -5.33053 0
M  V30 1749 O 167.187 1.48967 -5.50604 0
M  V30 1750 O 166.121 -0.383593 -6.00676 0
M  V30 1751 H 169.947 -1.18203 -2.79753 0
M  V30 1752 H 167.532 -0.64145 -1.34929 0
M  V30 1753 H 169.414 0.883504 -4.12034 0
M  V30 1754 H 168.089 1.25526 -2.98371 0
M  V30 1755 H 166.996 -0.975374 -3.61161 0
M  V30 1756 H 168.329 -1.26427 -4.75686 0
M  V30 1757 N 169.982 1.44106 -0.638065 0
M  V30 1758 C 171.231 2.01194 -0.142744 0
M  V30 1759 C 171.544 1.50835 1.24532 0
M  V30 1760 O 172.75 2.00096 1.83504 0
M  V30 1761 C 171.206 3.59319 -0.20442 0
M  V30 1762 C 170.814 4.18674 -1.59423 0
M  V30 1763 C 172.558 4.23854 0.234079 0
M  V30 1764 C 170.465 5.69045 -1.61065 0
M  V30 1765 H 169.395 0.752367 -0.0495998 0
M  V30 1766 H 172.046 1.65246 -0.797881 0
M  V30 1767 H 170.428 3.92598 0.517946 0
M  V30 1768 H 171.602 3.96921 -2.34074 0
M  V30 1769 H 169.917 3.66453 -1.97741 0
M  V30 1770 H 172.514 5.34155 0.241443 0
M  V30 1771 H 172.857 3.96688 1.2627 0
M  V30 1772 H 173.39 3.95403 -0.436025 0
M  V30 1773 H 170.129 6.00956 -2.61787 0
M  V30 1774 H 169.649 5.929 -0.90718 0
M  V30 1775 H 171.328 6.32809 -1.34766 0
M  V30 1776 N 171.46 0.379036 1.52974 0
M  V30 1777 C 172.688 -0.20679 2.05864 0
M  V30 1778 C 173.103 -1.41356 1.25155 0
M  V30 1779 O 172.46 -1.8009 0.295588 0
M  V30 1780 C 172.511 -0.587045 3.56702 0
M  V30 1781 O 172.232 0.571776 4.34353 0
M  V30 1782 C 173.733 -1.22983 4.25899 0
M  V30 1783 H 170.953 -0.0336123 0.670158 0
M  V30 1784 H 173.497 0.541298 1.97206 0
M  V30 1785 H 171.652 -1.28504 3.65466 0
M  V30 1786 H 172.066 0.261544 5.23847 0
M  V30 1787 H 173.54 -1.44635 5.32715 0
M  V30 1788 H 174.017 -2.19416 3.80465 0
M  V30 1789 H 174.623 -0.572892 4.21424 0
M  V30 1790 N 172.938 -1.57226 0.108567 0
M  V30 1791 C 174.185 -1.94833 -0.551943 0
M  V30 1792 C 174.513 -0.991204 -1.67348 0
M  V30 1793 O 173.768 -0.0131878 -1.95696 0
M  V30 1794 C 174.067 -3.38911 -1.13463 0
M  V30 1795 C 173.733 -4.50696 -0.135509 0
M  V30 1796 C 172.395 -4.80998 0.139252 0
M  V30 1797 C 174.747 -5.18333 0.545957 0
M  V30 1798 C 172.075 -5.76259 1.10194 0
M  V30 1799 C 174.427 -6.14627 1.49721 0
M  V30 1800 C 173.091 -6.43327 1.78006 0
M  V30 1801 H 172.361 -0.712944 -0.20197 0
M  V30 1802 H 175.008 -1.90582 0.18726 0
M  V30 1803 H 173.313 -3.39805 -1.95037 0
M  V30 1804 H 175.01 -3.65317 -1.65362 0
M  V30 1805 H 171.6 -4.27087 -0.359846 0
M  V30 1806 H 175.784 -4.95087 0.346842 0
M  V30 1807 H 171.04 -5.96804 1.32795 0
M  V30 1808 H 175.214 -6.66126 2.03099 0
M  V30 1809 H 172.841 -7.1695 2.52759 0
M  V30 1810 N 174.416 0.165178 -1.56732 0
M  V30 1811 C 175.379 1.18822 -1.95995 0
M  V30 1812 C 176.379 1.3685 -0.84431 0
M  V30 1813 O 177.569 1.34152 -1.11126 0
M  V30 1814 C 174.701 2.5521 -2.26011 0
M  V30 1815 H 175.894 0.851825 -2.87548 0
M  V30 1816 H 173.447 0.407857 -1.50885 0
M  V30 1817 H 174.182 2.93852 -1.37191 0
M  V30 1818 H 173.967 2.43489 -3.07336 0
M  V30 1819 H 175.457 3.28927 -2.57288 0
M  V30 1820 N 175.894 1.51508 0.433938 0
M  V30 1821 C 176.841 1.73068 1.52696 0
M  V30 1822 C 177.811 0.572441 1.55924 0
M  V30 1823 O 178.996 0.807253 1.72882 0
M  V30 1824 C 176.136 1.86474 2.90381 0
M  V30 1825 C 175.249 3.14037 2.96656 0
M  V30 1826 C 174.384 3.18019 4.25485 0
M  V30 1827 C 173.423 4.39882 4.2564 0
M  V30 1828 N 172.56 4.41394 5.45999 0
M  V30 1829 H 177.4 2.66366 1.33615 0
M  V30 1830 H 174.937 1.32008 0.649018 0
M  V30 1831 H 176.895 1.92229 3.70275 0
M  V30 1832 H 175.525 0.965809 3.08013 0
M  V30 1833 H 174.577 3.17575 2.09404 0
M  V30 1834 H 175.889 4.0394 2.92633 0
M  V30 1835 H 175.043 3.22708 5.13755 0
M  V30 1836 H 173.782 2.2601 4.3217 0
M  V30 1837 H 172.787 4.35366 3.35763 0
M  V30 1838 H 174.012 5.33159 4.20617 0
M  V30 1839 H 171.958 3.52258 5.53399 0
M  V30 1840 H 171.875 5.25111 5.4387 0
M  V30 1841 H 173.143 4.50281 6.36292 0
M  V30 1842 N 177.372 -0.689602 1.41712 0
M  V30 1843 C 178.302 -1.81577 1.46806 0
M  V30 1844 C 179.283 -1.66945 0.326105 0
M  V30 1845 O 180.468 -1.86588 0.538377 0
M  V30 1846 C 177.598 -3.19762 1.35535 0
M  V30 1847 C 176.552 -3.49107 2.47605 0
M  V30 1848 C 175.878 -4.86711 2.21397 0
M  V30 1849 C 177.178 -3.47483 3.89939 0
M  V30 1850 H 178.872 -1.7757 2.41058 0
M  V30 1851 H 176.418 -0.852887 1.16025 0
M  V30 1852 H 178.371 -3.98263 1.3771 0
M  V30 1853 H 177.095 -3.24409 0.377708 0
M  V30 1854 H 175.754 -2.72959 2.44722 0
M  V30 1855 H 175.402 -4.8799 1.21961 0
M  V30 1856 H 175.102 -5.0731 2.96497 0
M  V30 1857 H 176.626 -5.67515 2.25297 0
M  V30 1858 H 178.04 -4.1598 3.94505 0
M  V30 1859 H 176.437 -3.79615 4.64771 0
M  V30 1860 H 177.507 -2.46341 4.17665 0
M  V30 1861 N 178.85 -1.27639 -0.924453 0
M  V30 1862 C 179.78 -1.13166 -2.04244 0
M  V30 1863 C 180.761 -0.032256 -1.70069 0
M  V30 1864 O 181.946 -0.207328 -1.9309 0
M  V30 1865 C 179.076 -0.781496 -3.38393 0
M  V30 1866 C 178.03 -1.83449 -3.86692 0
M  V30 1867 C 177.356 -1.33822 -5.17683 0
M  V30 1868 C 178.656 -3.23917 -4.09726 0
M  V30 1869 H 180.35 -2.06689 -2.1661 0
M  V30 1870 H 177.896 -0.995136 -1.04082 0
M  V30 1871 H 179.849 -0.667057 -4.16087 0
M  V30 1872 H 178.573 0.189439 -3.2605 0
M  V30 1873 H 177.232 -1.93789 -3.11193 0
M  V30 1874 H 176.88 -0.35665 -5.01734 0
M  V30 1875 H 176.58 -2.04224 -5.50968 0
M  V30 1876 H 178.104 -1.23679 -5.97943 0
M  V30 1877 H 179.518 -3.16559 -4.77978 0
M  V30 1878 H 177.915 -3.92059 -4.54324 0
M  V30 1879 H 178.985 -3.68729 -3.14908 0
M  V30 1880 N 180.328 1.1314 -1.09713 0
M  V30 1881 C 181.275 2.18642 -0.739196 0
M  V30 1882 C 182.245 1.63706 0.280978 0
M  V30 1883 O 183.43 1.90111 0.161946 0
M  V30 1884 C 180.57 3.44685 -0.169102 0
M  V30 1885 C 179.683 4.13711 -1.24367 0
M  V30 1886 C 178.818 5.27379 -0.636019 0
M  V30 1887 C 177.857 5.88259 -1.69169 0
M  V30 1888 N 176.994 6.93352 -1.10485 0
M  V30 1889 H 181.834 2.48607 -1.64312 0
M  V30 1890 H 179.371 1.22066 -0.820875 0
M  V30 1891 H 181.329 4.16815 0.179256 0
M  V30 1892 H 179.959 3.15161 0.698079 0
M  V30 1893 H 179.011 3.39835 -1.70927 0
M  V30 1894 H 180.323 4.55037 -2.04311 0
M  V30 1895 H 179.477 6.06238 -0.236677 0
M  V30 1896 H 178.216 4.8731 0.194928 0
M  V30 1897 H 177.221 5.08092 -2.10055 0
M  V30 1898 H 178.446 6.30399 -2.52536 0
M  V30 1899 H 176.392 6.55335 -0.295234 0
M  V30 1900 H 176.309 7.33236 -1.84121 0
M  V30 1901 H 177.577 7.76057 -0.73181 0
M  V30 1902 N 181.806 0.884767 1.30421 0
M  V30 1903 C 183.083 0.423185 1.90967 0
M  V30 1904 C 183.463 -1.09605 1.80416 0
M  V30 1905 O 182.811 -1.93126 1.22125 0
M  V30 1906 C 183.021 0.921056 3.36627 0
M  V30 1907 C 184.369 0.955903 4.137 0
M  V30 1908 O 185.393 0.867706 3.4547 0
M  V30 1909 O 184.252 1.08614 5.35598 0
M  V30 1910 H 181.346 0.129369 0.816819 0
M  V30 1911 H 183.892 0.973653 1.3899 0
M  V30 1912 H 182.664 1.96489 3.3839 0
M  V30 1913 H 182.287 0.349741 3.96059 0
M  V30 1914 N 183.284 -1.43765 0.645699 0
M  V30 1915 C 184.216 -2.29027 -0.0890605 0
M  V30 1916 C 185.229 -1.42093 -0.794563 0
M  V30 1917 O 186.418 -1.66104 -0.653575 0
M  V30 1918 C 183.518 -3.18831 -1.14891 0
M  V30 1919 C 182.691 -4.34261 -0.523043 0
M  V30 1920 C 181.75 -5.04994 -1.47878 0
M  V30 1921 O 180.776 -5.6052 -0.990277 0
M  V30 1922 N 181.978 -5.07795 -2.81291 0
M  V30 1923 H 184.743 -2.92727 0.64272 0
M  V30 1924 H 182.304 -1.54373 0.487924 0
M  V30 1925 H 184.296 -3.63015 -1.78892 0
M  V30 1926 H 182.866 -2.56782 -1.78275 0
M  V30 1927 H 182.086 -3.93088 0.295896 0
M  V30 1928 H 183.374 -5.08728 -0.0858147 0
M  V30 1929 H 182.772 -4.64042 -3.23546 0
M  V30 1930 H 181.329 -5.55721 -3.40614 0
M  V30 1931 N 184.763 -0.387143 -1.52771 0
M  V30 1932 C 186.011 0.195349 -2.01154 0
M  V30 1933 C 186.332 1.475 -1.27549 0
M  V30 1934 O 185.602 1.91878 -0.394924 0
M  V30 1935 H 184.182 0.075178 -0.743207 0
M  V30 1936 H 186.844 -0.518337 -1.87881 0
M  V30 1937 H 185.94 0.407096 -3.09434 0
M  V30 1938 N 186.241 1.57166 -0.116904 0
M  V30 1939 C 187.471 1.99184 0.548586 0
M  V30 1940 C 187.879 0.995436 1.60897 0
M  V30 1941 O 187.222 -0.0201293 1.83689 0
M  V30 1942 C 187.284 3.37611 1.23526 0
M  V30 1943 C 186.948 4.55857 0.323077 0
M  V30 1944 C 187.945 5.18056 -0.437476 0
M  V30 1945 C 185.63 5.01751 0.234761 0
M  V30 1946 C 187.624 6.24536 -1.2741 0
M  V30 1947 C 185.311 6.08093 -0.605496 0
M  V30 1948 C 186.309 6.69352 -1.35856 0
M  V30 1949 O 185.997 7.7364 -2.18487 0
M  V30 1950 H 185.729 0.659148 0.149999 0
M  V30 1951 H 188.283 2.0443 -0.199428 0
M  V30 1952 H 186.513 3.29113 2.0303 0
M  V30 1953 H 188.202 3.63932 1.79745 0
M  V30 1954 H 188.968 4.83516 -0.379105 0
M  V30 1955 H 184.847 4.53817 0.810601 0
M  V30 1956 H 188.391 6.72281 -1.86237 0
M  V30 1957 H 184.288 6.42063 -0.665268 0
M  V30 1958 H 185.056 7.90727 -2.11406 0
M  V30 1959 N 187.719 -0.156864 1.56817 0
M  V30 1960 C 188.944 -0.890331 1.87318 0
M  V30 1961 C 189.369 -1.74394 0.704855 0
M  V30 1962 O 188.727 -1.77972 -0.345786 0
M  V30 1963 C 188.775 -1.73102 3.16336 0
M  V30 1964 O 187.879 -2.83422 2.99576 0
M  V30 1965 H 187.22 -0.24857 0.615718 0
M  V30 1966 H 189.75 -0.150649 2.04045 0
M  V30 1967 H 189.76 -2.12803 3.48107 0
M  V30 1968 H 188.435 -1.10412 4.00976 0
M  V30 1969 H 187.012 -2.47199 2.7919 0
M  V30 1970 N 189.197 -1.51736 -0.425897 0
M  V30 1971 C 190.425 -1.68794 -1.1965 0
M  V30 1972 C 190.84 -0.390164 -1.84725 0
M  V30 1973 O 190.197 0.632376 -1.71194 0
M  V30 1974 C 190.248 -2.81174 -2.27208 0
M  V30 1975 O 189.969 -4.05925 -1.64793 0
M  V30 1976 C 191.47 -3.09599 -3.17275 0
M  V30 1977 H 188.69 -0.566128 -0.360194 0
M  V30 1978 H 191.234 -1.98211 -0.503249 0
M  V30 1979 H 189.389 -2.54324 -2.9223 0
M  V30 1980 H 189.803 -4.68423 -2.35967 0
M  V30 1981 H 191.277 -3.91786 -3.88854 0
M  V30 1982 H 191.754 -2.22468 -3.78688 0
M  V30 1983 H 192.36 -3.38151 -2.57941 0
M  V30 1984 N 190.675 0.682077 -1.42076 0
M  V30 1985 C 191.638 1.77756 -1.44691 0
M  V30 1986 C 192.638 1.5726 -0.335535 0
M  V30 1987 O 193.828 1.63686 -0.596037 0
M  V30 1988 C 190.96 3.16301 -1.27146 0
M  V30 1989 H 192.153 1.76826 -2.42224 0
M  V30 1990 H 189.706 0.891012 -1.28416 0
M  V30 1991 H 190.441 3.22862 -0.305075 0
M  V30 1992 H 190.226 3.32581 -2.07683 0
M  V30 1993 H 191.716 3.96241 -1.31843 0
M  V30 1994 N 192.153 1.28127 0.917671 0
M  V30 1995 C 193.083 1.14248 2.03641 0
M  V30 1996 C 194.064 0.0412748 1.7005 0
M  V30 1997 O 195.249 0.217566 1.92977 0
M  V30 1998 C 192.379 0.799431 3.37974 0
M  V30 1999 C 191.333 1.85497 3.85713 0
M  V30 2000 C 190.659 1.36565 5.16966 0
M  V30 2001 C 191.959 3.26085 4.08002 0
M  V30 2002 H 193.653 2.07835 2.15511 0
M  V30 2003 H 191.199 1.00064 1.03553 0
M  V30 2004 H 193.152 0.689114 4.15727 0
M  V30 2005 H 191.876 -0.172145 3.26146 0
M  V30 2006 H 190.535 1.95437 3.10161 0
M  V30 2007 H 190.183 0.383253 5.01538 0
M  V30 2008 H 189.883 2.07143 5.49878 0
M  V30 2009 H 191.407 1.26848 5.97279 0
M  V30 2010 H 192.821 3.19089 4.76293 0
M  V30 2011 H 191.218 3.94462 4.52238 0
M  V30 2012 H 192.288 3.70394 3.12948 0
M  V30 2013 N 193.631 -1.12557 1.10312 0
M  V30 2014 C 194.88 -1.83395 0.839588 0
M  V30 2015 C 195.193 -1.84939 -0.636929 0
M  V30 2016 O 196.399 -2.51761 -1.01631 0
M  V30 2017 C 194.855 -3.29303 1.45215 0
M  V30 2018 C 194.463 -3.36122 2.96186 0
M  V30 2019 C 196.207 -4.05121 1.26796 0
M  V30 2020 C 194.114 -4.76357 3.50483 0
M  V30 2021 H 193.044 -0.687133 0.310425 0
M  V30 2022 H 195.695 -1.26746 1.32694 0
M  V30 2023 H 194.077 -3.85812 0.892469 0
M  V30 2024 H 195.251 -2.89559 3.58458 0
M  V30 2025 H 193.566 -2.73776 3.13745 0
M  V30 2026 H 196.163 -5.08668 1.64806 0
M  V30 2027 H 196.506 -4.15773 0.209409 0
M  V30 2028 H 197.039 -3.54967 1.79563 0
M  V30 2029 H 193.778 -4.70899 4.55998 0
M  V30 2030 H 193.298 -5.23377 2.92978 0
M  V30 2031 H 194.977 -5.45294 3.48228 0
M  V30 2032 N 195.109 -0.891671 -1.2995 0
M  V30 2033 C 196.357 -0.512486 -1.95494 0
M  V30 2034 C 196.678 0.942776 -1.70695 0
M  V30 2035 O 195.948 1.66374 -1.03424 0
M  V30 2036 H 194.528 -0.186533 -0.723336 0
M  V30 2037 H 197.19 -1.13621 -1.58355 0
M  V30 2038 H 196.286 -0.688342 -3.04415 0
M  V30 2039 N 196.587 1.43421 -0.653314 0
M  V30 2040 C 197.534 2.30768 0.0382271 0
M  V30 2041 C 198.504 1.44755 0.814576 0
M  V30 2042 O 199.689 1.73624 0.791162 0
M  V30 2043 C 196.829 3.30336 0.998599 0
M  V30 2044 C 195.942 4.31448 0.218342 0
M  V30 2045 C 195.077 5.18098 1.17252 0
M  V30 2046 C 194.116 6.10902 0.382702 0
M  V30 2047 N 193.253 6.90176 1.28848 0
M  V30 2048 H 198.093 2.89357 -0.712511 0
M  V30 2049 H 195.63 1.42548 -0.363128 0
M  V30 2050 H 197.588 3.86572 1.56901 0
M  V30 2051 H 196.218 2.73397 1.71621 0
M  V30 2052 H 195.27 3.77506 -0.46836 0
M  V30 2053 H 196.582 4.97227 -0.395812 0
M  V30 2054 H 195.736 5.7896 1.81356 0
M  V30 2055 H 194.475 4.52444 1.82058 0
M  V30 2056 H 193.48 5.49128 -0.27169 0
M  V30 2057 H 194.705 6.78598 -0.260957 0
M  V30 2058 H 192.651 6.27171 1.92334 0
M  V30 2059 H 192.568 7.52478 0.728887 0
M  V30 2060 H 193.836 7.55543 1.91766 0
M  V30 2061 N 198.065 0.39524 1.52563 0
M  V30 2062 C 199.311 -0.177763 2.02622 0
M  V30 2063 C 199.666 -1.43974 1.27629 0
M  V30 2064 O 198.959 -1.87995 0.36992 0
M  V30 2065 C 199.153 -0.493444 3.53977 0
M  V30 2066 C 198.982 0.736392 4.4363 0
M  V30 2067 C 197.752 1.25744 4.89404 0
M  V30 2068 C 199.95 1.61046 4.88435 0
M  V30 2069 N 197.932 2.44421 5.63145 0
M  V30 2070 C 199.303 2.64359 5.60816 0
M  V30 2071 C 201.358 1.62985 4.70468 0
M  V30 2072 C 200.061 3.69505 6.17137 0
M  V30 2073 C 202.087 2.67042 5.27677 0
M  V30 2074 C 201.449 3.69077 5.99968 0
M  V30 2075 H 197.548 -0.0269794 0.781534 0
M  V30 2076 H 200.132 0.546466 1.86874 0
M  V30 2077 H 198.303 -1.18672 3.69826 0
M  V30 2078 H 200.035 -1.05412 3.90731 0
M  V30 2079 H 196.79 0.817546 4.6649 0
M  V30 2080 H 197.214 3.04485 6.04663 0
M  V30 2081 H 201.856 0.854442 4.14076 0
M  V30 2082 H 199.574 4.4791 6.72608 0
M  V30 2083 H 203.16 2.69433 5.15652 0
M  V30 2084 H 202.04 4.48273 6.43444 0
M  V30 2085 N 199.544 -1.57102 0.125237 0
M  V30 2086 C 200.494 -2.12202 -0.833936 0
M  V30 2087 C 201.478 -1.04433 -1.22403 0
M  V30 2088 O 202.67 -1.30655 -1.19408 0
M  V30 2089 C 199.799 -2.72994 -2.08157 0
M  V30 2090 C 198.885 -3.87852 -1.71556 0
M  V30 2091 N 199.276 -4.9464 -1.05662 0
M  V30 2092 C 197.574 -3.98153 -2.00973 0
M  V30 2093 C 198.275 -5.74953 -0.883376 0
M  V30 2094 N 197.251 -5.24985 -1.41036 0
M  V30 2095 H 201.053 -2.92141 -0.321035 0
M  V30 2096 H 198.567 -1.62217 -0.0770315 0
M  V30 2097 H 200.564 -3.10816 -2.77847 0
M  V30 2098 H 199.224 -1.9452 -2.59985 0
M  V30 2099 H 200.235 -5.12872 -0.719878 0
M  V30 2100 H 196.912 -3.30728 -2.54804 0
M  V30 2101 H 198.302 -6.70904 -0.365675 0
M  V30 2102 N 201.022 0.148545 -1.56898 0
M  V30 2103 C 201.952 1.18524 -2.01182 0
M  V30 2104 C 202.933 1.4489 -0.891123 0
M  V30 2105 O 204.118 1.55836 -1.15882 0
M  V30 2106 C 201.248 2.51879 -2.39112 0
M  V30 2107 C 200.202 2.40038 -3.54353 0
M  V30 2108 C 199.528 3.78089 -3.78091 0
M  V30 2109 C 200.828 1.88577 -4.87069 0
M  V30 2110 H 202.522 0.817029 -2.88036 0
M  V30 2111 H 200.068 0.391575 -1.38574 0
M  V30 2112 H 202.021 3.24627 -2.68692 0
M  V30 2113 H 200.745 2.90532 -1.49193 0
M  V30 2114 H 199.404 1.69742 -3.24936 0
M  V30 2115 H 199.052 4.14175 -2.85426 0
M  V30 2116 H 198.752 3.71028 -4.55645 0
M  V30 2117 H 200.276 4.52387 -4.10095 0
M  V30 2118 H 201.69 2.51117 -5.15377 0
M  V30 2119 H 200.087 1.9241 -5.68417 0
M  V30 2120 H 201.157 0.84136 -4.77545 0
M  V30 2121 N 202.5 1.5196 0.417844 0
M  V30 2122 C 203.748 1.65263 1.16329 0
M  V30 2123 C 204.069 0.380634 1.91249 0
M  V30 2124 O 203.339 -0.604214 1.86349 0
M  V30 2125 H 201.919 0.60912 0.432414 0
M  V30 2126 H 204.581 1.88969 0.477162 0
M  V30 2127 H 203.677 2.4896 1.88217 0
M  V30 2128 N 203.978 -0.674533 1.42435 0
M  V30 2129 C 204.911 -1.79924 1.40366 0
M  V30 2130 C 205.889 -1.60378 0.267899 0
M  V30 2131 O 207.073 -1.82847 0.458159 0
M  V30 2132 C 204.2 -3.16927 1.19478 0
M  V30 2133 C 203.246 -3.55221 2.36051 0
M  V30 2134 S 204.079 -3.5762 3.98583 0
M  V30 2135 C 205.235 -4.97315 3.80038 0
M  V30 2136 H 205.468 -1.81405 2.35541 0
M  V30 2137 H 203.001 -0.845221 1.29211 0
M  V30 2138 H 204.959 -3.96007 1.08114 0
M  V30 2139 H 203.62 -3.13031 0.258883 0
M  V30 2140 H 202.813 -4.54804 2.17185 0
M  V30 2141 H 202.415 -2.83502 2.43932 0
M  V30 2142 H 204.707 -5.85401 3.41045 0
M  V30 2143 H 205.65 -5.21228 4.79298 0
M  V30 2144 H 206.058 -4.69845 3.12899 0
M  V30 2145 N 205.456 -1.28612 -0.910864 0
M  V30 2146 C 206.681 -1.1891 -1.69927 0
M  V30 2147 C 207.106 0.248372 -1.86453 0
M  V30 2148 O 206.464 1.17961 -1.37676 0
M  V30 2149 C 206.512 -1.89578 -3.06745 0
M  V30 2150 O 205.616 -1.20521 -3.94396 0
M  V30 2151 H 204.957 -0.412632 -0.520222 0
M  V30 2152 H 207.487 -1.69985 -1.1387 0
M  V30 2153 H 207.497 -1.97597 -3.56958 0
M  V30 2154 H 206.172 -2.94136 -2.94035 0
M  V30 2155 H 204.749 -1.20684 -3.52831 0
M  V30 2156 N 206.934 1.1197 -1.10907 0
M  V30 2157 C 208.174 1.85224 -0.864378 0
M  V30 2158 C 208.538 1.82411 0.599178 0
M  V30 2159 O 209.739 2.51057 0.960416 0
M  V30 2160 C 208.01 3.2868 -1.40371 0
M  V30 2161 S 209.569 4.1925 -1.29518 0
M  V30 2162 H 206.387 0.63878 -0.312219 0
M  V30 2163 H 208.989 1.3485 -1.41548 0
M  V30 2164 H 207.693 3.28289 -2.46281 0
M  V30 2165 H 207.224 3.84121 -0.849402 0
M  V30 2166 H 209.239 4.95539 -0.256059 0
M  V30 2167 N 208.412 0.89855 1.29475 0
M  V30 2168 C 209.362 0.346767 2.25348 0
M  V30 2169 C 210.346 -0.532509 1.51833 0
M  V30 2170 O 211.538 -0.374714 1.72988 0
M  V30 2171 C 208.667 -0.425681 3.40651 0
M  V30 2172 C 207.753 0.46845 4.21505 0
M  V30 2173 N 208.144 1.57514 4.80648 0
M  V30 2174 C 206.442 0.26603 4.45206 0
M  V30 2175 C 207.143 2.12889 5.41344 0
M  V30 2176 N 206.119 1.42208 5.24669 0
M  V30 2177 H 209.921 1.19219 2.68634 0
M  V30 2178 H 207.435 0.749473 1.44072 0
M  V30 2179 H 209.432 -0.837716 4.08397 0
M  V30 2180 H 208.092 -1.26838 2.98902 0
M  V30 2181 H 209.103 1.95789 4.79465 0
M  V30 2182 H 205.78 -0.538394 4.14014 0
M  V30 2183 H 207.17 3.05901 5.98226 0
M  V30 2184 N 209.89 -1.43072 0.660911 0
M  V30 2185 C 211.115 -2.06584 0.183805 0
M  V30 2186 C 211.54 -1.49257 -1.14472 0
M  V30 2187 O 210.898 -0.605528 -1.70889 0
M  V30 2188 C 210.946 -3.60418 0.114434 0
M  V30 2189 O 210.05 -4.01981 -0.921137 0
M  V30 2190 H 209.391 -0.656669 0.0983994 0
M  V30 2191 H 211.921 -1.83447 0.906006 0
M  V30 2192 H 211.931 -4.07946 -0.0663394 0
M  V30 2193 H 210.606 -4.01519 1.08422 0
M  V30 2194 H 209.183 -3.66029 -0.71253 0
M  V30 2195 N 211.368 -0.403325 -1.52352 0
M  V30 2196 C 212.315 0.425011 -2.26853 0
M  V30 2197 C 213.285 1.04598 -1.29029 0
M  V30 2198 O 214.47 1.07135 -1.57882 0
M  V30 2199 C 211.61 1.53888 -3.08889 0
M  V30 2200 C 210.723 0.939396 -4.21663 0
M  V30 2201 C 209.858 2.02547 -4.91068 0
M  V30 2202 C 208.897 1.40263 -5.95813 0
M  V30 2203 N 208.034 2.4286 -6.58759 0
M  V30 2204 H 212.874 -0.21674 -2.97211 0
M  V30 2205 H 210.411 -0.118722 -1.4662 0
M  V30 2206 H 212.369 2.19558 -3.54753 0
M  V30 2207 H 210.999 2.15074 -2.40714 0
M  V30 2208 H 210.051 0.171898 -3.80011 0
M  V30 2209 H 211.363 0.44436 -4.96817 0
M  V30 2210 H 210.517 2.75958 -5.40308 0
M  V30 2211 H 209.256 2.55415 -4.15469 0
M  V30 2212 H 208.261 0.653833 -5.45898 0
M  V30 2213 H 209.486 0.881719 -6.73352 0
M  V30 2214 H 207.432 2.94871 -5.85992 0
M  V30 2215 H 207.349 1.98152 -7.2957 0
M  V30 2216 H 208.617 3.15858 -7.12639 0
M  V30 2217 N 212.846 1.57033 -0.133567 0
M  V30 2218 C 214.074 2.00044 0.528195 0
M  V30 2219 C 214.489 1.01349 1.59291 0
M  V30 2220 O 213.846 0.00848369 1.82498 0
M  V30 2221 C 213.897 3.43018 1.1411 0
M  V30 2222 O 213.618 4.37939 0.11892 0
M  V30 2223 C 215.119 4.01237 1.88477 0
M  V30 2224 H 212.339 0.656517 0.138661 0
M  V30 2225 H 214.883 2.03267 -0.224196 0
M  V30 2226 H 213.038 3.40688 1.84418 0
M  V30 2227 H 213.452 5.21436 0.56613 0
M  V30 2228 H 214.926 5.03314 2.26669 0
M  V30 2229 H 215.403 3.41193 2.76558 0
M  V30 2230 H 216.009 4.07156 1.22898 0
M  V30 2231 N 214.325 -0.140222 1.56975 0
M  V30 2232 C 215.602 -0.880769 1.74648 0
M  V30 2233 C 215.982 -1.99036 0.703404 0
M  V30 2234 O 215.33 -2.26821 -0.27648 0
M  V30 2235 C 215.54 -1.417 3.18939 0
M  V30 2236 C 216.888 -1.87774 3.80823 0
M  V30 2237 O 217.912 -1.51427 3.2241 0
M  V30 2238 O 216.771 -2.54827 4.83452 0
M  V30 2239 H 213.865 -0.416713 0.714338 0
M  V30 2240 H 216.411 -0.125618 1.69234 0
M  V30 2241 H 215.183 -0.619902 3.86359 0
M  V30 2242 H 214.806 -2.23546 3.28805 0
M  V30 2243 N 215.803 -1.52179 -0.40978 0
M  V30 2244 C 217.05 -1.66206 -1.15679 0
M  V30 2245 C 217.378 -0.391674 -1.90516 0
M  V30 2246 O 216.633 0.62533 -1.8544 0
M  V30 2247 C 216.932 -2.83428 -2.17723 0
M  V30 2248 C 216.598 -4.21672 -1.59699 0
M  V30 2249 C 215.26 -4.59274 -1.43599 0
M  V30 2250 C 217.612 -5.07825 -1.17317 0
M  V30 2251 C 214.94 -5.80709 -0.836328 0
M  V30 2252 C 217.292 -6.29864 -0.587691 0
M  V30 2253 C 215.956 -6.66216 -0.413818 0
M  V30 2254 H 215.226 -0.608192 -0.423301 0
M  V30 2255 H 217.873 -1.86279 -0.444097 0
M  V30 2256 H 216.178 -2.57687 -2.95135 0
M  V30 2257 H 217.875 -2.91477 -2.75394 0
M  V30 2258 H 214.465 -3.9204 -1.73213 0
M  V30 2259 H 218.649 -4.79359 -1.28565 0
M  V30 2260 H 213.905 -6.07498 -0.689626 0
M  V30 2261 H 218.079 -6.95948 -0.250894 0
M  V30 2262 H 215.706 -7.60182 0.0529471 0
M  V30 2263 N 217.281 0.66697 -1.42791 0
M  V30 2264 C 218.521 1.43892 -1.4517 0
M  V30 2265 C 218.885 1.91877 -0.0687551 0
M  V30 2266 O 220.086 2.6878 0.0327455 0
M  V30 2267 C 218.357 2.59839 -2.45395 0
M  V30 2268 S 219.916 3.48572 -2.66539 0
M  V30 2269 H 216.734 0.491356 -0.513897 0
M  V30 2270 H 219.336 0.775656 -1.79454 0
M  V30 2271 H 218.04 2.22838 -3.44632 0
M  V30 2272 H 217.571 3.3103 -2.12562 0
M  V30 2273 H 219.586 4.56094 -1.95429 0
M  V30 2274 N 218.759 1.29093 0.90403 0
M  V30 2275 C 219.709 1.10482 1.99443 0
M  V30 2276 C 220.693 0.0255401 1.6088 0
M  V30 2277 O 221.885 0.24677 1.75271 0
M  V30 2278 C 219.014 0.778882 3.34348 0
M  V30 2279 C 218.1 1.89749 3.79284 0
M  V30 2280 N 218.491 3.14045 3.96497 0
M  V30 2281 C 216.789 1.78955 4.08523 0
M  V30 2282 C 217.49 3.86996 4.34292 0
M  V30 2283 N 216.466 3.14909 4.43095 0
M  V30 2284 H 220.268 2.04778 2.10815 0
M  V30 2285 H 217.782 1.20155 1.09255 0
M  V30 2286 H 219.779 0.62661 4.12164 0
M  V30 2287 H 218.439 -0.156205 3.24324 0
M  V30 2288 H 219.45 3.49548 3.82148 0
M  V30 2289 H 216.127 0.926886 4.07081 0
M  V30 2290 H 217.517 4.93941 4.55491 0
M  V30 2291 N 220.237 -1.11381 1.11499 0
M  V30 2292 C 221.187 -2.15555 0.74298 0
M  V30 2293 C 222.171 -1.58894 -0.253276 0
M  V30 2294 O 223.363 -1.76897 -0.0602918 0
M  V30 2295 C 220.492 -3.42782 0.188481 0
M  V30 2296 C 219.578 -4.064 1.21244 0
M  V30 2297 N 219.969 -4.44864 2.40685 0
M  V30 2298 C 218.267 -4.3333 1.05552 0
M  V30 2299 C 218.968 -4.94715 3.05994 0
M  V30 2300 N 217.944 -4.90909 2.33472 0
M  V30 2301 H 221.746 -2.43074 1.65203 0
M  V30 2302 H 219.26 -1.28401 0.994329 0
M  V30 2303 H 221.257 -4.16789 -0.0961693 0
M  V30 2304 H 219.917 -3.16727 -0.715149 0
M  V30 2305 H 220.928 -4.36876 2.78136 0
M  V30 2306 H 217.605 -4.1698 0.208372 0
M  V30 2307 H 218.995 -5.34103 4.07656 0
M  V30 2308 N 221.715 -0.905404 -1.28997 0
M  V30 2309 C 223.126 -0.581953 -1.77398 0
M  V30 2310 C 223.477 0.902552 -1.74208 0
M  V30 2311 O 222.602 1.70584 -1.33154 0
M  V30 2312 C 223.197 -1.04961 -3.22131 0
M  V30 2313 C 221.756 -0.777229 -3.68288 0
M  V30 2314 C 220.903 -1.22109 -2.48967 0
M  V30 2315 H 223.854 -1.08754 -1.15578 0
M  V30 2316 H 223.875 -0.387387 -3.78523 0
M  V30 2317 H 223.387 -2.13008 -3.24421 0
M  V30 2318 H 221.488 0.290383 -3.71467 0
M  V30 2319 H 221.601 -1.37911 -4.58822 0
M  V30 2320 H 219.965 -0.639971 -2.46529 0
M  V30 2321 H 220.748 -2.30972 -2.53982 0
M  V30 2322 N 223.193 1.4272 -0.668489 0
M  V30 2323 C 224.123 2.335 -0.000100175 0
M  V30 2324 C 225.104 1.50328 0.795964 0
M  V30 2325 O 226.289 1.78949 0.754385 0
M  V30 2326 C 223.419 3.33874 0.956302 0
M  V30 2327 C 222.373 4.27152 0.269278 0
M  V30 2328 C 221.699 5.17684 1.33818 0
M  V30 2329 C 222.999 5.15373 -0.847805 0
M  V30 2330 H 224.693 2.89639 -0.758244 0
M  V30 2331 H 222.239 1.39269 -0.366079 0
M  V30 2332 H 224.192 3.9629 1.43292 0
M  V30 2333 H 222.916 2.76025 1.74579 0
M  V30 2334 H 221.575 3.66123 -0.187042 0
M  V30 2335 H 221.223 4.56165 2.1195 0
M  V30 2336 H 220.923 5.80918 0.883659 0
M  V30 2337 H 222.447 5.82974 1.81586 0
M  V30 2338 H 223.861 5.7151 -0.452681 0
M  V30 2339 H 222.258 5.87407 -1.22773 0
M  V30 2340 H 223.328 4.5415 -1.69929 0
M  V30 2341 N 224.671 0.411399 1.52136 0
M  V30 2342 C 225.621 -0.430376 2.23901 0
M  V30 2343 C 226.605 -1.0116 1.25121 0
M  V30 2344 O 227.797 -0.934044 1.50348 0
M  V30 2345 C 224.926 -1.54527 3.06556 0
M  V30 2346 C 224.012 -0.9747 4.12747 0
M  V30 2347 N 224.403 -0.130991 5.0563 0
M  V30 2348 C 222.701 -1.24497 4.28271 0
M  V30 2349 C 223.402 0.186689 5.814 0
M  V30 2350 N 222.378 -0.42304 5.41951 0
M  V30 2351 H 226.18 0.220509 2.93072 0
M  V30 2352 H 223.694 0.221952 1.60876 0
M  V30 2353 H 225.691 -2.16093 3.56524 0
M  V30 2354 H 224.351 -2.19875 2.38925 0
M  V30 2355 H 225.362 0.23349 5.17373 0
M  V30 2356 H 222.039 -1.89787 3.7187 0
M  V30 2357 H 223.429 0.871673 6.66222 0
M  V30 2358 N 226.149 -1.5696 0.141893 0
M  V30 2359 C 227.099 -2.13074 -0.811383 0
M  V30 2360 C 228.083 -1.05726 -1.21288 0
M  V30 2361 O 229.275 -1.31914 -1.18015 0
M  V30 2362 C 226.404 -2.75186 -2.0525 0
M  V30 2363 C 225.49 -3.8965 -1.67432 0
M  V30 2364 N 225.881 -4.95733 -1.0041 0
M  V30 2365 C 224.179 -4.00262 -1.96739 0
M  V30 2366 C 224.88 -5.75858 -0.822345 0
M  V30 2367 N 223.856 -5.26452 -1.3546 0
M  V30 2368 H 227.658 -2.92465 -0.290031 0
M  V30 2369 H 225.172 -1.6229 -0.0598218 0
M  V30 2370 H 227.169 -3.13745 -2.74535 0
M  V30 2371 H 225.829 -1.97266 -2.57907 0
M  V30 2372 H 226.84 -5.13607 -0.665441 0
M  V30 2373 H 223.517 -3.33412 -2.51282 0
M  V30 2374 H 224.907 -6.71254 -0.294496 0
M  V30 2375 N 227.627 0.131896 -1.57047 0
M  V30 2376 C 228.875 0.840269 -1.83804 0
M  V30 2377 C 229.196 1.81017 -0.72512 0
M  V30 2378 O 228.466 1.94272 0.251995 0
M  V30 2379 H 227.046 0.313294 -0.678127 0
M  V30 2380 H 229.708 0.122294 -1.94516 0
M  V30 2381 H 228.804 1.39335 -2.79271 0
M  V30 2382 N 229.106 1.52395 0.401703 0
M  V30 2383 C 230.353 1.66817 1.14796 0
M  V30 2384 C 230.681 0.401772 1.90305 0
M  V30 2385 O 229.936 -0.615487 1.85769 0
M  V30 2386 C 230.235 2.84578 2.16217 0
M  V30 2387 C 229.901 4.22513 1.5746 0
M  V30 2388 C 228.563 4.60029 1.41161 0
M  V30 2389 C 230.915 5.0844 1.14622 0
M  V30 2390 C 228.243 5.81144 0.80552 0
M  V30 2391 C 230.595 6.30167 0.55428 0
M  V30 2392 C 229.259 6.66426 0.378482 0
M  V30 2393 H 228.529 0.610428 0.420069 0
M  V30 2394 H 231.176 1.86512 0.434212 0
M  V30 2395 H 229.481 2.59248 2.93764 0
M  V30 2396 H 231.178 2.92933 2.73845 0
M  V30 2397 H 227.768 3.92953 1.71132 0
M  V30 2398 H 231.952 4.80034 1.26021 0
M  V30 2399 H 227.208 6.07855 0.657399 0
M  V30 2400 H 231.382 6.96071 0.213983 0
M  V30 2401 H 229.009 7.60143 -0.0932606 0
M  V30 2402 N 230.584 -0.659388 1.43143 0
M  V30 2403 C 231.532 -1.79374 1.4808 0
M  V30 2404 C 232.526 -1.65639 0.354988 0
M  V30 2405 O 233.732 -1.7206 0.528704 0
M  V30 2406 H 230.107 -0.591705 0.4641 0
M  V30 2407 H 232.078 -1.72329 2.43609 0
M  V30 2408 C 230.827 -3.17606 1.41499 0
M  V30 2409 H 230.15 -3.28809 2.27431 0
M  V30 2410 H 231.59 -3.96951 1.49015 0
M  V30 2411 C 230.049 -3.36642 0.131765 0
M  V30 2412 O 230.579 -3.93461 -0.809386 0
M  V30 2413 N 228.785 -2.90567 0.0439396 0
M  V30 2414 H 228.332 -2.44513 0.810619 0
M  V30 2415 H 228.29 -3.03681 -0.813969 0
M  V30 2416 N 232.062 -1.29571 -0.897171 0
M  V30 2417 C 233.292 -1.20408 -1.67886 0
M  V30 2418 C 233.7 0.237429 -1.87704 0
M  V30 2419 O 233.043 1.17048 -1.41582 0
M  V30 2420 C 233.105 -1.84887 -3.08314 0
M  V30 2421 C 232.769 -3.34189 -3.11716 0
M  V30 2422 C 233.766 -4.30374 -2.91675 0
M  V30 2423 C 231.451 -3.75431 -3.33701 0
M  V30 2424 C 233.445 -5.65776 -2.93557 0
M  V30 2425 C 231.132 -5.10955 -3.35214 0
M  V30 2426 C 232.13 -6.05938 -3.15164 0
M  V30 2427 O 231.818 -7.38987 -3.1647 0
M  V30 2428 H 231.55 -0.418289 -0.531046 0
M  V30 2429 H 234.104 -1.71514 -1.13014 0
M  V30 2430 H 232.334 -1.28295 -3.64798 0
M  V30 2431 H 234.023 -1.70011 -3.6858 0
M  V30 2432 H 234.789 -3.99844 -2.74499 0
M  V30 2433 H 230.668 -3.01953 -3.48347 0
M  V30 2434 H 234.212 -6.39889 -2.77826 0
M  V30 2435 H 230.109 -5.4113 -3.51922 0
M  V30 2436 H 230.877 -7.47823 -3.3272 0
M  V30 2437 N 233.54 1.10788 -1.12088 0
M  V30 2438 C 234.787 1.82671 -0.873931 0
M  V30 2439 C 235.115 1.85004 0.600311 0
M  V30 2440 O 234.37 1.30365 1.45957 0
M  V30 2441 C 234.669 3.29294 -1.38926 0
M  V30 2442 C 234.335 3.47113 -2.87791 0
M  V30 2443 C 232.997 3.51684 -3.28439 0
M  V30 2444 C 235.349 3.52808 -3.83635 0
M  V30 2445 C 232.677 3.59513 -4.63646 0
M  V30 2446 C 235.029 3.62169 -5.18668 0
M  V30 2447 C 233.693 3.65003 -5.58864 0
M  V30 2448 H 232.963 0.668441 -0.319794 0
M  V30 2449 H 235.61 1.30613 -1.40045 0
M  V30 2450 H 233.915 3.83894 -0.783122 0
M  V30 2451 H 235.612 3.83416 -1.17443 0
M  V30 2452 H 232.202 3.4423 -2.5535 0
M  V30 2453 H 236.386 3.4853 -3.53328 0
M  V30 2454 H 231.642 3.59987 -4.94185 0
M  V30 2455 H 235.816 3.6552 -5.92763 0
M  V30 2456 H 233.443 3.70822 -6.63623 0
M  V30 2457 N 235.018 0.912232 1.28515 0
M  V30 2458 C 236.248 0.559604 1.98877 0
M  V30 2459 C 236.656 -0.863113 1.68366 0
M  V30 2460 O 235.999 -1.58304 0.931969 0
M  V30 2461 C 236.061 0.68703 3.52874 0
M  V30 2462 C 235.725 2.07901 4.06972 0
M  V30 2463 C 236.722 3.05157 4.20922 0
M  V30 2464 C 234.407 2.39178 4.417 0
M  V30 2465 C 236.401 4.31806 4.68852 0
M  V30 2466 C 234.088 3.66068 4.89324 0
M  V30 2467 C 235.086 4.62195 5.02856 0
M  V30 2468 O 234.774 5.86829 5.49442 0
M  V30 2469 H 234.506 0.212191 0.641834 0
M  V30 2470 H 237.06 1.22712 1.64715 0
M  V30 2471 H 235.29 -0.0375486 3.86682 0
M  V30 2472 H 236.979 0.341727 4.04459 0
M  V30 2473 H 237.745 2.82311 3.94367 0
M  V30 2474 H 233.624 1.65109 4.30418 0
M  V30 2475 H 237.168 5.06842 4.79329 0
M  V30 2476 H 233.065 3.88739 5.15318 0
M  V30 2477 H 233.833 5.89597 5.6773 0
M  V30 2478 N 236.496 -1.42363 0.676048 0
M  V30 2479 C 237.744 -2.01123 0.198437 0
M  V30 2480 C 238.065 -1.53731 -1.19966 0
M  V30 2481 O 237.335 -0.759518 -1.80577 0
M  V30 2482 H 235.915 -0.743678 0.0703721 0
M  V30 2483 H 238.577 -1.74263 0.872837 0
M  V30 2484 H 237.673 -3.11454 0.200686 0
M  V30 2485 N 237.974 -0.419461 -1.51915 0
M  V30 2486 C 239.223 0.154346 -2.01109 0
M  V30 2487 C 239.536 1.45338 -1.30905 0
M  V30 2488 O 240.742 2.10906 -1.7097 0
M  V30 2489 C 239.198 0.325615 -3.58424 0
M  V30 2490 C 238.806 -0.961934 -4.37551 0
M  V30 2491 C 240.55 0.854155 -4.15818 0
M  V30 2492 C 238.457 -0.757287 -5.86531 0
M  V30 2493 H 237.387 0.0614563 -0.751491 0
M  V30 2494 H 240.038 -0.54649 -1.75173 0
M  V30 2495 H 238.42 1.08903 -3.80731 0
M  V30 2496 H 239.594 -1.7323 -4.26999 0
M  V30 2497 H 237.909 -1.41766 -3.91524 0
M  V30 2498 H 240.506 1.02346 -5.24814 0
M  V30 2499 H 240.849 1.83172 -3.73837 0
M  V30 2500 H 241.382 0.149528 -3.97519 0
M  V30 2501 H 238.121 -1.70671 -6.32892 0
M  V30 2502 H 237.641 -0.0264061 -5.99794 0
M  V30 2503 H 239.32 -0.403482 -6.45741 0
M  V30 2504 N 239.452 1.56882 -0.150215 0
M  V30 2505 C 240.677 2.01027 0.510184 0
M  V30 2506 C 241.102 1.02966 1.57415 0
M  V30 2507 O 240.46 0.00590158 1.81299 0
M  V30 2508 C 240.508 3.43899 1.08472 0
M  V30 2509 O 239.612 3.4885 2.19948 0
M  V30 2510 H 238.953 0.652233 0.124451 0
M  V30 2511 H 241.483 2.03093 -0.247894 0
M  V30 2512 H 241.493 3.82766 1.41259 0
M  V30 2513 H 240.168 4.14776 0.305582 0
M  V30 2514 H 238.745 3.21827 1.88366 0
M  V30 2515 N 240.93 -0.123565 1.57115 0
M  V30 2516 C 241.86 -1.15309 2.03042 0
M  V30 2517 C 242.841 -1.43454 0.914061 0
M  V30 2518 O 244.026 -1.53973 1.18347 0
M  V30 2519 C 241.156 -2.48043 2.43089 0
M  V30 2520 C 240.11 -2.3437 3.58127 0
M  V30 2521 C 239.436 -3.72026 3.84059 0
M  V30 2522 C 240.736 -1.80804 4.90007 0
M  V30 2523 H 242.43 -0.771102 2.893 0
M  V30 2524 H 239.976 -0.369479 1.39179 0
M  V30 2525 H 241.929 -3.20311 2.73823 0
M  V30 2526 H 240.653 -2.88122 1.53796 0
M  V30 2527 H 239.312 -1.64551 3.27595 0
M  V30 2528 H 238.96 -4.09582 2.91979 0
M  V30 2529 H 238.66 -3.63732 4.6149 0
M  V30 2530 H 240.184 -4.45806 4.1724 0
M  V30 2531 H 241.598 -2.42886 5.19307 0
M  V30 2532 H 239.995 -1.83343 5.71407 0
M  V30 2533 H 241.065 -0.76528 4.78823 0
M  V30 2534 N 242.408 -1.52605 -0.393616 0
M  V30 2535 C 243.636 -1.71294 -1.16043 0
M  V30 2536 C 244.051 -0.429259 -1.83855 0
M  V30 2537 O 243.408 0.595921 -1.72496 0
M  V30 2538 C 243.459 -2.8593 -2.21193 0
M  V30 2539 O 243.18 -4.09329 -1.56146 0
M  V30 2540 C 244.681 -3.16259 -3.10636 0
M  V30 2541 H 241.901 -0.573641 -0.348104 0
M  V30 2542 H 244.445 -1.99234 -0.461092 0
M  V30 2543 H 242.6 -2.60465 -2.86769 0
M  V30 2544 H 243.014 -4.73323 -2.25978 0
M  V30 2545 H 244.488 -3.99946 -3.80456 0
M  V30 2546 H 244.965 -2.3045 -3.73884 0
M  V30 2547 H 245.571 -3.43547 -2.50711 0
M  V30 2548 N 243.887 0.651787 -1.4349 0
M  V30 2549 C 244.835 1.78586 -1.49029 0
M  V30 2550 C 245.829 1.65448 -0.363767 0
M  V30 2551 O 247.035 1.71777 -0.537821 0
M  V30 2552 H 243.41 0.589236 -0.467231 0
M  V30 2553 H 245.381 1.71035 -2.44519 0
M  V30 2554 C 244.13 3.16851 -1.43181 0
M  V30 2555 H 243.453 3.27598 -2.29171 0
M  V30 2556 H 244.893 3.96156 -1.51118 0
M  V30 2557 C 243.352 3.36568 -0.149616 0
M  V30 2558 O 243.882 3.93885 0.788509 0
M  V30 2559 N 242.088 2.90539 -0.0593484 0
M  V30 2560 H 241.635 2.4408 -0.823575 0
M  V30 2561 H 241.593 3.04108 0.797853 0
M  V30 2562 N 245.365 1.30045 0.890287 0
M  V30 2563 C 246.295 1.18541 2.01172 0
M  V30 2564 C 247.276 0.0773356 1.69924 0
M  V30 2565 O 248.461 0.25845 1.92473 0
M  V30 2566 C 245.591 0.870941 3.36202 0
M  V30 2567 C 244.545 1.93637 3.81692 0
M  V30 2568 C 243.871 1.475 5.13953 0
M  V30 2569 C 245.171 3.34666 4.00994 0
M  V30 2570 H 246.865 2.12359 2.11054 0
M  V30 2571 H 244.411 1.02238 1.01407 0
M  V30 2572 H 246.364 0.777141 4.14172 0
M  V30 2573 H 245.088 -0.102926 3.26438 0
M  V30 2574 H 243.747 2.01972 3.05946 0
M  V30 2575 H 243.395 0.489551 5.00612 0
M  V30 2576 H 243.095 2.1876 5.4536 0
M  V30 2577 H 244.619 1.39489 5.94454 0
M  V30 2578 H 246.033 3.2912 4.69417 0
M  V30 2579 H 244.43 4.03966 4.43769 0
M  V30 2580 H 245.5 3.76949 3.05021 0
M  V30 2581 N 246.843 -1.10192 1.12674 0
M  V30 2582 C 248.259 -1.34235 0.863317 0
M  V30 2583 C 248.459 -1.95062 -0.505277 0
M  V30 2584 O 247.515 -2.19192 -1.25345 0
M  V30 2585 C 248.828 -2.2616 1.98172 0
M  V30 2586 C 250.376 -2.3969 2.0129 0
M  V30 2587 C 250.851 -3.34946 3.1237 0
M  V30 2588 N 252.342 -3.42515 3.11829 0
M  V30 2589 C 253.077 -4.16199 3.94419 0
M  V30 2590 N 252.573 -4.92747 4.87004 0
M  V30 2591 N 254.366 -4.11843 3.82547 0
M  V30 2592 H 246.517 -0.690798 2.00853 0
M  V30 2593 H 248.78 -0.366774 0.874174 0
M  V30 2594 H 248.486 -1.8868 2.96804 0
M  V30 2595 H 248.36 -3.26488 1.88906 0
M  V30 2596 H 250.747 -2.76438 1.03276 0
M  V30 2597 H 250.828 -1.39169 2.14629 0
M  V30 2598 H 250.472 -2.98923 4.10619 0
M  V30 2599 H 250.402 -4.35353 2.96269 0
M  V30 2600 H 252.893 -2.87926 2.44759 0
M  V30 2601 H 253.206 -5.46376 5.46528 0
M  V30 2602 H 251.551 -4.91862 4.91016 0
M  V30 2603 H 254.742 -3.51136 3.0955 0
M  V30 2604 H 254.915 -4.69007 4.47142 0
M  V30 2605 N 248.321 -0.919034 -1.28029 0
M  V30 2606 C 249.598 -0.473668 -1.89778 0
M  V30 2607 C 249.978 1.04783 -1.83259 0
M  V30 2608 O 249.326 1.8982 -1.27202 0
M  V30 2609 C 249.536 -1.00998 -3.34066 0
M  V30 2610 C 250.884 -1.06525 -4.1102 0
M  V30 2611 O 251.908 -0.958996 -3.43048 0
M  V30 2612 O 250.767 -1.22776 -5.3253 0
M  V30 2613 H 247.861 -0.15098 -0.813101 0
M  V30 2614 H 250.407 -1.01016 -1.36359 0
M  V30 2615 H 249.179 -2.05392 -3.33061 0
M  V30 2616 H 248.802 -0.454626 -3.94992 0
M  V30 2617 N 249.799 1.42003 -0.683588 0
M  V30 2618 C 251.039 2.03282 -0.213513 0
M  V30 2619 C 251.403 1.52924 1.16097 0
M  V30 2620 O 252.604 2.06048 1.7262 0
M  V30 2621 C 250.875 3.56483 -0.255856 0
M  V30 2622 S 252.434 4.3857 0.14193 0
M  V30 2623 H 249.252 0.705659 -0.0869853 0
M  V30 2624 H 251.854 1.73619 -0.8987 0
M  V30 2625 H 250.558 3.90631 -1.25841 0
M  V30 2626 H 250.089 3.90831 0.448875 0
M  V30 2627 H 252.104 4.76828 1.37295 0
M  V30 2628 N 251.277 0.427512 1.51691 0
M  V30 2629 C 252.224 -0.388867 2.275 0
M  V30 2630 C 253.194 -1.02532 1.30677 0
M  V30 2631 O 254.379 -1.0461 1.59566 0
M  V30 2632 C 251.519 -1.48954 3.11298 0
M  V30 2633 C 250.632 -0.872194 4.23104 0
M  V30 2634 C 249.767 -1.94709 4.94228 0
M  V30 2635 C 248.806 -1.30766 5.97969 0
M  V30 2636 N 247.943 -2.32349 6.62539 0
M  V30 2637 H 252.783 0.263997 2.96828 0
M  V30 2638 H 250.32 0.142033 1.46413 0
M  V30 2639 H 252.278 -2.13887 3.58201 0
M  V30 2640 H 250.908 -2.11217 2.44105 0
M  V30 2641 H 249.96 -0.111419 3.80237 0
M  V30 2642 H 251.272 -0.365264 4.97461 0
M  V30 2643 H 250.426 -2.67327 5.44629 0
M  V30 2644 H 249.165 -2.48773 4.1948 0
M  V30 2645 H 248.17 -0.566902 5.4687 0
M  V30 2646 H 249.395 -0.774483 6.74669 0
M  V30 2647 H 247.341 -2.85511 5.90609 0
M  V30 2648 H 247.258 -1.8652 7.3263 0
M  V30 2649 H 248.526 -3.04481 7.17574 0
M  V30 2650 N 252.755 -1.56801 0.158532 0
M  V30 2651 C 254.166 -1.83189 -0.360366 0
M  V30 2652 C 254.517 -1.07778 -1.63946 0
M  V30 2653 O 253.642 -0.326718 -2.13919 0
M  V30 2654 C 254.237 -3.32297 -0.660595 0
M  V30 2655 C 252.796 -3.59227 -1.12398 0
M  V30 2656 C 251.943 -2.76877 -0.153097 0
M  V30 2657 H 254.894 -1.54008 0.383031 0
M  V30 2658 H 254.915 -3.4908 -1.51405 0
M  V30 2659 H 254.427 -3.87156 0.270527 0
M  V30 2660 H 252.528 -3.09766 -2.07064 0
M  V30 2661 H 252.641 -4.67632 -1.04197 0
M  V30 2662 H 251.005 -2.46319 -0.647983 0
M  V30 2663 H 251.788 -3.34511 0.77182 0
M  V30 2664 N 254.233 0.115231 -1.57178 0
M  V30 2665 C 255.481 0.820727 -1.84685 0
M  V30 2666 C 255.802 1.80237 -0.744279 0
M  V30 2667 O 255.072 1.94529 0.231375 0
M  V30 2668 H 253.652 0.306084 -0.681411 0
M  V30 2669 H 256.314 0.101656 -1.94635 0
M  V30 2670 H 255.41 1.36366 -2.80733 0
M  V30 2671 N 255.711 1.52812 0.385517 0
M  V30 2672 C 256.621 1.80766 1.49535 0
M  V30 2673 C 257.637 0.694651 1.59532 0
M  V30 2674 O 258.813 0.982611 1.75803 0
M  V30 2675 C 255.878 1.97381 2.85029 0
M  V30 2676 C 254.939 3.21295 2.84724 0
M  V30 2677 C 254.172 3.37108 4.13756 0
M  V30 2678 O 254.395 2.5765 5.08893 0
M  V30 2679 O 253.329 4.30378 4.20783 0
M  V30 2680 H 257.155 2.75015 1.28842 0
M  V30 2681 H 254.74 1.37946 0.573697 0
M  V30 2682 H 256.622 2.09996 3.65349 0
M  V30 2683 H 255.297 1.06322 3.05741 0
M  V30 2684 H 254.204 3.1412 2.03174 0
M  V30 2685 H 255.537 4.12212 2.68965 0
M  V30 2686 N 257.189 -0.644168 1.43834 0
M  V30 2687 C 258.437 -1.40117 1.45642 0
M  V30 2688 C 258.758 -1.94814 0.0852413 0
M  V30 2689 O 258.028 -1.74988 -0.880688 0
M  V30 2690 H 256.608 -0.52005 0.536243 0
M  V30 2691 H 259.27 -0.7591 1.7951 0
M  V30 2692 H 258.366 -2.23902 2.17427 0
M  V30 2693 N 258.668 -1.30515 -0.883378 0
M  V30 2694 C 259.893 -1.22487 -1.67367 0
M  V30 2695 C 260.318 0.208767 -1.86938 0
M  V30 2696 O 259.676 1.15015 -1.40148 0
M  V30 2697 C 259.724 -1.96041 -3.02655 0
M  V30 2698 O 258.828 -1.28859 -3.91751 0
M  V30 2699 H 258.169 -0.423573 -0.511353 0
M  V30 2700 H 260.699 -1.72362 -1.10239 0
M  V30 2701 H 260.709 -2.05124 -3.52687 0
M  V30 2702 H 259.384 -3.00307 -2.8773 0
M  V30 2703 H 257.961 -1.28141 -3.50192 0
M  V30 2704 N 260.146 1.09593 -1.13257 0
M  V30 2705 C 261.392 1.82003 -0.89458 0
M  V30 2706 C 261.725 1.85402 0.577906 0
M  V30 2707 O 261 1.32099 1.42759 0
M  V30 2708 C 261.283 3.28237 -1.48096 0
M  V30 2709 C 261.136 3.3312 -3.02244 0
M  V30 2710 C 262.455 4.24871 -1.14774 0
M  V30 2711 H 259.574 0.66077 -0.326424 0
M  V30 2712 H 262.216 1.28389 -1.40058 0
M  V30 2713 H 260.366 3.74024 -1.05062 0
M  V30 2714 H 262.038 2.95748 -3.54021 0
M  V30 2715 H 260.281 2.72756 -3.37323 0
M  V30 2716 H 260.952 4.3613 -3.38371 0
M  V30 2717 H 263.428 3.87361 -1.51957 0
M  V30 2718 H 262.304 5.25532 -1.58452 0
M  V30 2719 H 262.565 4.42058 -0.0611849 0
M  V30 2720 N 261.624 0.925811 1.2754 0
M  V30 2721 C 262.871 0.565255 1.94451 0
M  V30 2722 C 263.199 -0.89316 1.7278 0
M  V30 2723 O 262.454 -1.65213 1.04895 0
M  V30 2724 C 262.753 0.835296 3.47502 0
M  V30 2725 C 262.419 2.27515 3.89291 0
M  V30 2726 C 261.081 2.66879 4.00411 0
M  V30 2727 C 263.433 3.21158 4.10496 0
M  V30 2728 C 260.761 3.99014 4.30122 0
M  V30 2729 C 263.113 4.52871 4.4169 0
M  V30 2730 C 261.777 4.92072 4.51023 0
M  V30 2731 H 261.047 0.206841 0.711546 0
M  V30 2732 H 263.694 1.16942 1.51647 0
M  V30 2733 H 261.999 0.148442 3.91519 0
M  V30 2734 H 263.696 0.535322 3.97411 0
M  V30 2735 H 260.286 1.95976 3.81171 0
M  V30 2736 H 264.47 2.9195 4.01346 0
M  V30 2737 H 259.726 4.2907 4.35556 0
M  V30 2738 H 263.9 5.25436 4.57045 0
M  V30 2739 H 261.527 5.9449 4.738 0
M  V30 2740 N 263.102 -1.41638 0.69111 0
M  V30 2741 C 264.33 -2.05628 0.22909 0
M  V30 2742 C 264.745 -1.51992 -1.11999 0
M  V30 2743 O 264.102 -0.666322 -1.69901 0
M  V30 2744 C 264.153 -3.61084 0.173283 0
M  V30 2745 O 263.874 -4.12735 1.46907 0
M  V30 2746 C 265.375 -4.42213 -0.310266 0
M  V30 2747 H 262.595 -0.662327 0.107534 0
M  V30 2748 H 265.139 -1.81489 0.942438 0
M  V30 2749 H 263.294 -3.84278 -0.490858 0
M  V30 2750 H 263.708 -5.06743 1.35322 0
M  V30 2751 H 265.182 -5.51194 -0.298196 0
M  V30 2752 H 265.659 -4.1799 -1.34838 0
M  V30 2753 H 266.265 -4.24074 0.322716 0
M  V30 2754 N 264.58 -0.43555 -1.51462 0
M  V30 2755 C 265.808 0.130242 -2.0649 0
M  V30 2756 C 266.223 1.36614 -1.30315 0
M  V30 2757 O 265.58 1.78869 -0.362223 0
M  V30 2758 C 265.631 0.454253 -3.58635 0
M  V30 2759 O 265.352 -0.73259 -4.31931 0
M  V30 2760 C 266.853 1.07091 -4.3017 0
M  V30 2761 H 264.073 0.00871669 -0.670943 0
M  V30 2762 H 266.617 -0.614117 -1.95061 0
M  V30 2763 H 264.772 1.14851 -3.69984 0
M  V30 2764 H 265.186 -0.455787 -5.22516 0
M  V30 2765 H 266.66 1.24764 -5.37716 0
M  V30 2766 H 267.137 2.05144 -3.88346 0
M  V30 2767 H 267.743 0.416089 -4.2326 0
M  V30 2768 N 266.058 1.56714 -0.166846 0
M  V30 2769 C 267.306 1.96358 0.478305 0
M  V30 2770 C 267.627 1.0537 1.6408 0
M  V30 2771 O 266.897 0.119154 1.95537 0
M  V30 2772 H 265.477 0.725065 0.179692 0
M  V30 2773 H 268.139 1.93329 -0.246985 0
M  V30 2774 H 267.235 3.00547 0.841292 0
M  V30 2775 N 267.536 -0.106894 1.57237 0
M  V30 2776 C 268.783 -0.812526 1.85484 0
M  V30 2777 C 269.111 -1.79304 0.753687 0
M  V30 2778 O 268.366 -1.94047 -0.253853 0
M  V30 2779 C 268.665 -1.58628 3.20268 0
M  V30 2780 C 268.331 -0.748967 4.44636 0
M  V30 2781 C 266.993 -0.518104 4.78403 0
M  V30 2782 C 269.345 -0.166122 5.20935 0
M  V30 2783 C 266.673 0.305659 5.85903 0
M  V30 2784 C 269.025 0.644899 6.29304 0
M  V30 2785 C 267.689 0.885965 6.61594 0
M  V30 2786 H 266.959 -0.297324 0.678734 0
M  V30 2787 H 269.606 -0.0744332 1.91355 0
M  V30 2788 H 267.911 -2.39562 3.10028 0
M  V30 2789 H 269.608 -2.13643 3.39349 0
M  V30 2790 H 266.198 -0.939006 4.18187 0
M  V30 2791 H 270.382 -0.33167 4.95191 0
M  V30 2792 H 265.638 0.501528 6.0934 0
M  V30 2793 H 269.812 1.10345 6.87602 0
M  V30 2794 H 267.439 1.52609 7.44725 0
M  V30 2795 N 269.014 -1.53014 -0.377408 0
M  V30 2796 C 269.961 -1.78616 -1.46168 0
M  V30 2797 C 270.931 -0.629917 -1.53692 0
M  V30 2798 O 272.116 -0.870861 -1.69766 0
M  V30 2799 C 269.256 -1.97123 -2.8326 0
M  V30 2800 C 268.369 -3.24831 -2.84796 0
M  V30 2801 C 267.504 -3.33591 -4.13389 0
M  V30 2802 C 266.543 -4.55377 -4.09021 0
M  V30 2803 N 265.68 -4.61355 -5.29241 0
M  V30 2804 H 270.52 -2.71142 -1.23637 0
M  V30 2805 H 268.057 -1.34326 -0.599577 0
M  V30 2806 H 270.015 -2.05839 -3.62886 0
M  V30 2807 H 268.645 -1.07946 -3.04216 0
M  V30 2808 H 267.697 -3.25128 -1.97474 0
M  V30 2809 H 269.009 -4.14523 -2.77439 0
M  V30 2810 H 268.163 -3.41554 -5.01424 0
M  V30 2811 H 266.902 -2.41894 -4.23484 0
M  V30 2812 H 265.907 -4.47527 -3.19373 0
M  V30 2813 H 267.132 -5.48402 -4.00539 0
M  V30 2814 H 265.078 -3.72554 -5.39944 0
M  V30 2815 H 264.995 -5.44935 -5.24006 0
M  V30 2816 H 266.263 -4.73586 -6.19141 0
M  V30 2817 N 270.492 0.636531 -1.44174 0
M  V30 2818 C 271.908 0.954104 -1.27941 0
M  V30 2819 C 272.108 2.0039 -0.211248 0
M  V30 2820 O 271.164 2.49236 0.404695 0
M  V30 2821 C 272.477 1.4225 -2.64925 0
M  V30 2822 C 274.025 1.53827 -2.72592 0
M  V30 2823 C 274.5 2.04053 -4.10032 0
M  V30 2824 N 275.991 2.11331 -4.12182 0
M  V30 2825 C 276.726 2.51352 -5.15374 0
M  V30 2826 N 276.222 2.90549 -6.2893 0
M  V30 2827 N 278.015 2.51438 -5.02728 0
M  V30 2828 H 270.166 -0.0578386 -2.12321 0
M  V30 2829 H 272.429 0.0367406 -0.947288 0
M  V30 2830 H 272.135 0.725466 -3.44136 0
M  V30 2831 H 272.009 2.39451 -2.9145 0
M  V30 2832 H 274.396 2.22628 -1.93702 0
M  V30 2833 H 274.477 0.550154 -2.49814 0
M  V30 2834 H 274.121 1.35848 -4.89395 0
M  V30 2835 H 274.051 3.03726 -4.30184 0
M  V30 2836 H 276.542 1.83745 -3.30222 0
M  V30 2837 H 276.855 3.19884 -7.03487 0
M  V30 2838 H 275.2 2.88313 -6.32377 0
M  V30 2839 H 278.391 2.20203 -4.13072 0
M  V30 2840 H 278.564 2.82304 -5.83274 0
M  V30 2841 N 271.97 1.30982 0.876444 0
M  V30 2842 C 272.9 1.20668 1.99903 0
M  V30 2843 C 273.881 0.095354 1.69833 0
M  V30 2844 O 275.066 0.27885 1.92188 0
M  V30 2845 C 272.196 0.90655 3.3526 0
M  V30 2846 C 271.15 1.97675 3.79617 0
M  V30 2847 C 270.476 1.52943 5.1236 0
M  V30 2848 C 271.776 3.389 3.97422 0
M  V30 2849 H 273.47 2.14586 2.0879 0
M  V30 2850 H 271.016 1.03308 1.00317 0
M  V30 2851 H 272.969 0.821025 4.13324 0
M  V30 2852 H 271.693 -0.0682969 3.26529 0
M  V30 2853 H 270.352 2.05205 3.03787 0
M  V30 2854 H 270 0.54262 5.00065 0
M  V30 2855 H 269.7 2.24532 5.43009 0
M  V30 2856 H 271.224 1.45786 5.92941 0
M  V30 2857 H 272.638 3.34081 4.659 0
M  V30 2858 H 271.035 4.0865 4.3946 0
M  V30 2859 H 272.105 3.80163 3.01006 0
M  V30 2860 N 273.449 -1.08991 1.13837 0
M  V30 2861 C 274.695 -1.81526 0.90422 0
M  V30 2862 C 275.028 -1.85706 -0.568066 0
M  V30 2863 O 274.303 -1.32855 -1.42056 0
M  V30 2864 C 274.586 -3.27447 1.49835 0
M  V30 2865 C 274.439 -3.31512 3.04006 0
M  V30 2866 C 275.758 -4.24256 1.17025 0
M  V30 2867 H 272.877 -0.659029 0.329923 0
M  V30 2868 H 275.519 -1.27644 1.40737 0
M  V30 2869 H 273.669 -3.73462 1.07044 0
M  V30 2870 H 275.341 -2.93867 3.55584 0
M  V30 2871 H 273.584 -2.70963 3.38765 0
M  V30 2872 H 274.255 -4.34329 3.40679 0
M  V30 2873 H 276.731 -3.86549 1.54009 0
M  V30 2874 H 275.607 -5.24684 1.61237 0
M  V30 2875 H 275.868 -4.42019 0.0846274 0
M  V30 2876 N 274.927 -0.932562 -1.27047 0
M  V30 2877 C 276.174 -0.575559 -1.94148 0
M  V30 2878 C 276.502 0.883984 -1.73251 0
M  V30 2879 O 275.757 1.64655 -1.0577 0
M  V30 2880 C 276.056 -0.853713 -3.47054 0
M  V30 2881 C 275.722 -2.29577 -3.88079 0
M  V30 2882 C 274.384 -2.68999 -3.9899 0
M  V30 2883 C 276.736 -3.23331 -4.08787 0
M  V30 2884 C 274.064 -4.01289 -4.28 0
M  V30 2885 C 276.416 -4.55207 -4.39282 0
M  V30 2886 C 275.08 -4.94457 -4.48407 0
M  V30 2887 H 274.35 -0.210612 -0.710439 0
M  V30 2888 H 276.997 -1.17744 -1.51025 0
M  V30 2889 H 275.302 -0.169204 -3.91434 0
M  V30 2890 H 276.999 -0.55639 -3.97121 0
M  V30 2891 H 273.589 -1.97994 -3.80127 0
M  V30 2892 H 277.773 -2.94074 -3.99793 0
M  V30 2893 H 273.029 -4.31374 -4.33275 0
M  V30 2894 H 277.203 -5.27852 -4.54252 0
M  V30 2895 H 274.83 -5.96994 -4.7064 0
M  V30 2896 N 276.405 1.4127 -0.698611 0
M  V30 2897 C 277.335 2.33447 -0.049629 0
M  V30 2898 C 278.316 1.51982 0.763898 0
M  V30 2899 O 279.501 1.80509 0.716257 0
M  V30 2900 C 276.631 3.35828 0.885267 0
M  V30 2901 C 275.585 4.27627 0.178613 0
M  V30 2902 C 274.911 5.20406 1.22807 0
M  V30 2903 C 276.211 5.13459 -0.956933 0
M  V30 2904 H 277.905 2.87966 -0.81951 0
M  V30 2905 H 275.451 1.38461 -0.395538 0
M  V30 2906 H 277.404 3.9924 1.34854 0
M  V30 2907 H 276.128 2.79666 1.68685 0
M  V30 2908 H 274.787 3.65643 -0.26466 0
M  V30 2909 H 274.435 4.60558 2.02226 0
M  V30 2910 H 274.135 5.82661 0.760239 0
M  V30 2911 H 275.659 5.86695 1.69179 0
M  V30 2912 H 277.073 5.70421 -0.573805 0
M  V30 2913 H 275.47 5.8467 -1.35205 0
M  V30 2914 H 276.54 4.50443 -1.79524 0
M  V30 2915 N 277.883 0.443576 1.51229 0
M  V30 2916 C 279.294 -0.0180867 1.86691 0
M  V30 2917 C 279.645 -1.41384 1.36033 0
M  V30 2918 O 278.77 -2.04291 0.713722 0
M  V30 2919 C 279.365 -0.039597 3.38777 0
M  V30 2920 C 277.924 -0.445692 3.73752 0
M  V30 2921 C 277.071 0.357584 2.74985 0
M  V30 2922 H 280.022 0.659138 1.44364 0
M  V30 2923 H 280.043 -0.847761 3.70936 0
M  V30 2924 H 279.555 0.976382 3.75617 0
M  V30 2925 H 277.656 -1.46704 3.42503 0
M  V30 2926 H 277.769 -0.166155 4.78812 0
M  V30 2927 H 276.133 -0.184973 2.54027 0
M  V30 2928 H 276.916 1.37256 3.14668 0
M  V30 2929 N 279.361 -1.56624 0.175154 0
M  V30 2930 C 280.291 -2.21155 -0.749195 0
M  V30 2931 C 281.272 -1.16836 -1.23626 0
M  V30 2932 O 282.457 -1.45277 -1.28873 0
M  V30 2933 C 279.587 -2.8553 -1.97711 0
M  V30 2934 C 278.541 -3.95921 -1.62575 0
M  V30 2935 C 277.867 -4.47365 -2.92864 0
M  V30 2936 C 279.167 -5.15323 -0.850838 0
M  V30 2937 H 280.861 -2.98653 -0.211295 0
M  V30 2938 H 278.407 -1.43651 -0.100188 0
M  V30 2939 H 280.36 -3.2935 -2.62881 0
M  V30 2940 H 279.084 -2.05406 -2.53921 0
M  V30 2941 H 277.743 -3.52762 -0.997719 0
M  V30 2942 H 277.391 -3.64027 -3.47122 0
M  V30 2943 H 277.091 -5.21839 -2.70106 0
M  V30 2944 H 278.615 -4.93873 -3.59056 0
M  V30 2945 H 280.029 -5.55812 -1.40521 0
M  V30 2946 H 278.426 -5.95739 -0.722154 0
M  V30 2947 H 279.496 -4.84661 0.152082 0
M  V30 2948 N 280.839 0.0985539 -1.57292 0
M  V30 2949 C 281.771 1.14595 -1.98496 0
M  V30 2950 C 282.784 1.36512 -0.887031 0
M  V30 2951 O 283.973 1.35225 -1.16518 0
M  V30 2952 C 281.073 2.50216 -2.28572 0
M  V30 2953 C 280.246 2.48624 -3.59868 0
M  V30 2954 C 279.305 3.66146 -3.7792 0
M  V30 2955 O 278.331 3.48795 -4.49812 0
M  V30 2956 N 279.533 4.85496 -3.18235 0
M  V30 2957 H 282.298 0.795277 -2.88956 0
M  V30 2958 H 279.859 0.287579 -1.59325 0
M  V30 2959 H 281.851 3.27432 -2.37845 0
M  V30 2960 H 280.421 2.77387 -1.44136 0
M  V30 2961 H 279.641 1.56978 -3.61596 0
M  V30 2962 H 280.929 2.44635 -4.46129 0
M  V30 2963 H 280.327 5.02497 -2.59833 0
M  V30 2964 H 278.884 5.60317 -3.32999 0
M  V30 2965 N 282.317 1.53212 0.369288 0
M  V30 2966 C 283.566 1.68436 1.10961 0
M  V30 2967 C 283.879 0.440738 1.9057 0
M  V30 2968 O 285.085 0.473446 2.6734 0
M  V30 2969 C 283.541 2.97744 2.0218 0
M  V30 2970 C 283.149 4.29355 1.279 0
M  V30 2971 C 284.893 3.22334 2.76226 0
M  V30 2972 C 282.8 5.49755 2.17999 0
M  V30 2973 H 281.73 0.627568 0.41794 0
M  V30 2974 H 284.381 1.79713 0.370884 0
M  V30 2975 H 282.763 2.8026 2.79768 0
M  V30 2976 H 283.937 4.57458 0.554007 0
M  V30 2977 H 282.252 4.11179 0.657311 0
M  V30 2978 H 284.849 4.09471 3.43857 0
M  V30 2979 H 285.192 2.38238 3.41392 0
M  V30 2980 H 285.725 3.40475 2.05723 0
M  V30 2981 H 282.464 6.36318 1.57417 0
M  V30 2982 H 281.984 5.25937 2.88359 0
M  V30 2983 H 283.663 5.84401 2.77641 0
M  V30 2984 N 283.795 -0.628877 1.44509 0
M  V30 2985 C 285.041 -1.39045 1.47629 0
M  V30 2986 C 285.374 -1.93892 0.109343 0
M  V30 2987 O 284.649 -1.7379 -0.87334 0
M  V30 2988 C 284.932 -2.55408 2.53848 0
M  V30 2989 C 284.785 -2.05896 3.99909 0
M  V30 2990 C 286.104 -3.5759 2.56549 0
M  V30 2991 H 283.223 -0.504232 0.537512 0
M  V30 2992 H 285.865 -0.710854 1.76201 0
M  V30 2993 H 284.015 -3.13384 2.29615 0
M  V30 2994 H 285.687 -1.52734 4.35282 0
M  V30 2995 H 283.93 -1.37061 4.11578 0
M  V30 2996 H 284.601 -2.89681 4.69882 0
M  V30 2997 H 287.077 -3.09419 2.78207 0
M  V30 2998 H 285.953 -4.36527 3.32769 0
M  V30 2999 H 286.214 -4.11808 1.60832 0
M  V30 3000 N 285.273 -1.31445 -0.869486 0
M  V30 3001 C 286.521 -1.20918 -1.61936 0
M  V30 3002 C 286.842 0.232683 -1.93607 0
M  V30 3003 O 286.112 1.15352 -1.58338 0
M  V30 3004 H 284.692 -0.44454 -0.600328 0
M  V30 3005 H 287.354 -1.64776 -1.0409 0
M  V30 3006 H 286.45 -1.78124 -2.56278 0
M  V30 3007 N 286.751 1.08385 -1.14413 0
M  V30 3008 C 287.997 1.81044 -0.913834 0
M  V30 3009 C 288.33 1.86004 0.558209 0
M  V30 3010 O 287.605 1.33606 1.4135 0
M  V30 3011 C 287.888 3.26648 -1.51569 0
M  V30 3012 C 287.741 3.29895 -3.0576 0
M  V30 3013 C 289.06 4.23629 -1.19273 0
M  V30 3014 H 286.179 0.65727 -0.333414 0
M  V30 3015 H 288.821 1.26896 -1.41412 0
M  V30 3016 H 286.971 3.72889 -1.09023 0
M  V30 3017 H 288.643 2.91977 -3.57137 0
M  V30 3018 H 286.886 2.69163 -3.40197 0
M  V30 3019 H 287.557 4.32516 -3.42977 0
M  V30 3020 H 290.033 3.85727 -1.56057 0
M  V30 3021 H 288.909 5.23822 -1.64017 0
M  V30 3022 H 289.17 4.41968 -0.108068 0
M  V30 3023 N 288.23 0.939286 1.26551 0
M  V30 3024 C 289.458 0.602536 1.97932 0
M  V30 3025 C 289.873 -0.82206 1.69964 0
M  V30 3026 O 289.23 -1.54789 0.966784 0
M  V30 3027 C 289.281 0.832946 3.51773 0
M  V30 3028 O 289.002 2.20151 3.78768 0
M  V30 3029 C 290.503 0.506483 4.40397 0
M  V30 3030 H 287.723 0.227248 0.631347 0
M  V30 3031 H 290.267 1.25948 1.61113 0
M  V30 3032 H 288.422 0.222644 3.8676 0
M  V30 3033 H 288.836 2.26013 4.73306 0
M  V30 3034 H 290.31 0.718333 5.47306 0
M  V30 3035 H 290.787 -0.558451 4.35635 0
M  V30 3036 H 291.393 1.09543 4.10951 0
M  V30 3037 N 289.708 -1.40897 0.706093 0
M  V30 3038 C 290.638 -2.33418 0.0620085 0
M  V30 3039 C 291.619 -1.52385 -0.755827 0
M  V30 3040 O 292.804 -1.80886 -0.706674 0
M  V30 3041 C 289.934 -3.36293 -0.867445 0
M  V30 3042 C 288.888 -4.27716 -0.155932 0
M  V30 3043 C 288.214 -5.2105 -1.20046 0
M  V30 3044 C 289.514 -5.12944 0.984149 0
M  V30 3045 H 291.208 -2.87527 0.83477 0
M  V30 3046 H 288.754 -1.38249 0.402875 0
M  V30 3047 H 290.707 -3.99949 -1.32735 0
M  V30 3048 H 289.431 -2.80556 -1.67199 0
M  V30 3049 H 288.09 -3.65498 0.284047 0
M  V30 3050 H 287.738 -4.61624 -1.99781 0
M  V30 3051 H 287.438 -5.83056 -0.729328 0
M  V30 3052 H 288.962 -5.87584 -1.66066 0
M  V30 3053 H 290.376 -5.70109 0.604048 0
M  V30 3054 H 288.773 -5.83945 1.38304 0
M  V30 3055 H 289.843 -4.49485 1.81911 0
M  V30 3056 N 291.186 -0.45159 -1.50991 0
M  V30 3057 C 292.116 0.342898 -2.30969 0
M  V30 3058 C 293.097 1.00815 -1.37005 0
M  V30 3059 O 294.282 1.00907 -1.65926 0
M  V30 3060 C 291.412 1.43637 -3.16205 0
M  V30 3061 C 290.366 0.893818 -4.18563 0
M  V30 3062 C 289.692 2.08411 -4.92411 0
M  V30 3063 C 290.992 -0.0815568 -5.22236 0
M  V30 3064 H 292.686 -0.324556 -2.97636 0
M  V30 3065 H 290.232 -0.157531 -1.43136 0
M  V30 3066 H 292.185 1.9995 -3.70942 0
M  V30 3067 H 290.909 2.13232 -2.47386 0
M  V30 3068 H 289.568 0.352798 -3.64898 0
M  V30 3069 H 289.216 2.76658 -4.20082 0
M  V30 3070 H 288.916 1.72741 -5.61636 0
M  V30 3071 H 290.44 2.65251 -5.49976 0
M  V30 3072 H 291.854 0.391742 -5.7196 0
M  V30 3073 H 290.251 -0.351551 -5.99069 0
M  V30 3074 H 291.321 -1.01374 -4.74185 0
M  V30 3075 N 292.664 1.56529 -0.183458 0
M  V30 3076 C 293.892 2.01623 0.464285 0
M  V30 3077 C 294.307 1.06366 1.55986 0
M  V30 3078 O 293.664 0.0665398 1.82379 0
M  V30 3079 C 293.715 3.46475 1.03139 0
M  V30 3080 O 293.436 4.38095 -0.0204675 0
M  V30 3081 C 294.937 4.0703 1.75617 0
M  V30 3082 H 292.157 0.660596 0.117704 0
M  V30 3083 H 294.701 2.02451 -0.288751 0
M  V30 3084 H 292.856 3.46383 1.73486 0
M  V30 3085 H 293.27 5.22973 0.399952 0
M  V30 3086 H 294.744 5.10271 2.10542 0
M  V30 3087 H 295.221 3.49819 2.65563 0
M  V30 3088 H 295.827 4.1086 1.09882 0
M  V30 3089 N 294.142 -0.090211 1.57342 0
M  V30 3090 C 295.072 -1.10976 2.05443 0
M  V30 3091 C 296.053 -1.41482 0.944284 0
M  V30 3092 O 297.238 -1.51428 1.21586 0
M  V30 3093 C 294.368 -2.42831 2.48295 0
M  V30 3094 C 293.322 -2.26721 3.63018 0
M  V30 3095 C 292.648 -3.63796 3.91863 0
M  V30 3096 C 293.948 -1.7037 4.93732 0
M  V30 3097 H 295.642 -0.709564 2.9087 0
M  V30 3098 H 293.188 -0.339874 1.39932 0
M  V30 3099 H 295.141 -3.14431 2.80555 0
M  V30 3100 H 293.865 -2.84795 1.59873 0
M  V30 3101 H 292.524 -1.57565 3.31012 0
M  V30 3102 H 292.172 -4.03297 3.00601 0
M  V30 3103 H 291.872 -3.53861 4.69101 0
M  V30 3104 H 293.396 -4.36855 4.26603 0
M  V30 3105 H 294.81 -2.31816 5.24342 0
M  V30 3106 H 293.207 -1.71181 5.75167 0
M  V30 3107 H 294.277 -0.663542 4.80339 0
M  V30 3108 N 295.62 -1.53406 -0.361157 0
M  V30 3109 C 296.583 -1.79479 -1.42548 0
M  V30 3110 C 297.583 -0.665327 -1.4639 0
M  V30 3111 O 298.773 -0.933549 -1.47073 0
M  V30 3112 C 295.905 -1.92087 -2.8163 0
M  V30 3113 H 297.098 -2.74538 -1.20701 0
M  V30 3114 H 294.651 -1.4455 -0.594546 0
M  V30 3115 H 295.386 -0.991099 -3.08784 0
M  V30 3116 H 295.171 -2.74241 -2.80239 0
M  V30 3117 H 296.661 -2.13836 -3.58697 0
M  V30 3118 N 297.098 0.621204 -1.44841 0
M  V30 3119 C 298.061 1.71459 -1.521 0
M  V30 3120 C 299.061 1.55696 -0.401933 0
M  V30 3121 O 300.251 1.61011 -0.664925 0
M  V30 3122 C 297.383 3.10624 -1.40447 0
M  V30 3123 H 298.576 1.66394 -2.49506 0
M  V30 3124 H 296.129 0.835745 -1.3208 0
M  V30 3125 H 296.864 3.21277 -0.441737 0
M  V30 3126 H 296.649 3.23473 -2.21602 0
M  V30 3127 H 298.139 3.90293 -1.4853 0
M  V30 3128 N 298.576 1.31904 0.862503 0
M  V30 3129 C 299.506 1.22782 1.98612 0
M  V30 3130 C 300.487 0.113362 1.69722 0
M  V30 3131 O 301.672 0.299218 1.91881 0
M  V30 3132 C 298.802 0.942058 3.34279 0
M  V30 3133 C 297.756 2.0169 3.77499 0
M  V30 3134 C 297.082 1.58369 5.10709 0
M  V30 3135 C 298.382 3.43096 3.93805 0
M  V30 3136 H 300.076 2.16788 2.06502 0
M  V30 3137 H 297.622 1.04366 0.992154 0
M  V30 3138 H 299.575 0.864818 4.1243 0
M  V30 3139 H 298.299 -0.0336603 3.26583 0
M  V30 3140 H 296.958 2.08416 3.01593 0
M  V30 3141 H 296.606 0.595628 4.99461 0
M  V30 3142 H 296.306 2.30279 5.40597 0
M  V30 3143 H 297.83 1.52067 5.91361 0
M  V30 3144 H 299.244 3.39003 4.62331 0
M  V30 3145 H 297.641 4.13288 4.35101 0
M  V30 3146 H 298.711 3.83334 2.96957 0
M  V30 3147 N 300.054 -1.07777 1.14986 0
M  V30 3148 C 301.002 -2.16964 0.838406 0
M  V30 3149 C 301.996 -1.68372 -0.186386 0
M  V30 3150 O 303.202 -1.79951 -0.0418465 0
M  V30 3151 H 299.577 -0.708006 0.253439 0
M  V30 3152 H 301.548 -2.40454 1.76704 0
M  V30 3153 C 300.297 -3.4604 0.339335 0
M  V30 3154 H 299.62 -3.83813 1.11927 0
M  V30 3155 H 301.06 -4.23698 0.160021 0
M  V30 3156 C 299.519 -3.23569 -0.938325 0
M  V30 3157 O 300.049 -3.47752 -2.01077 0
M  V30 3158 N 298.255 -2.77079 -0.876117 0
M  V30 3159 H 297.802 -2.576 -0.00322037 0
M  V30 3160 H 297.76 -2.62422 -1.73153 0
M  V30 3161 N 301.532 -0.945985 -1.26051 0
M  V30 3162 C 302.772 -0.603665 -1.95282 0
M  V30 3163 C 303.136 0.842377 -1.72534 0
M  V30 3164 O 304.337 1.29387 -2.35611 0
M  V30 3165 C 302.608 -0.942292 -3.44754 0
M  V30 3166 S 304.167 -0.711242 -4.32997 0
M  V30 3167 H 300.985 -0.222176 -0.675395 0
M  V30 3168 H 303.587 -1.21832 -1.52896 0
M  V30 3169 H 302.291 -1.99203 -3.58812 0
M  V30 3170 H 301.822 -0.317546 -3.92116 0
M  V30 3171 H 303.837 0.422221 -4.944 0
M  V30 3172 N 303.011 1.40521 -0.713556 0
M  V30 3173 C 303.941 2.33381 -0.0743864 0
M  V30 3174 C 304.922 1.52784 0.747735 0
M  V30 3175 O 306.107 1.81258 0.697071 0
M  V30 3176 C 303.237 3.36748 0.849598 0
M  V30 3177 C 302.191 4.27793 0.133247 0
M  V30 3178 C 301.517 5.21679 1.17281 0
M  V30 3179 C 302.817 5.12415 -1.01134 0
M  V30 3180 H 304.511 2.87081 -0.850007 0
M  V30 3181 H 302.057 1.38034 -0.410201 0
M  V30 3182 H 304.01 4.00648 1.30612 0
M  V30 3183 H 302.734 2.81439 1.65709 0
M  V30 3184 H 301.393 3.65342 -0.303426 0
M  V30 3185 H 301.041 4.62677 1.9733 0
M  V30 3186 H 300.741 5.83435 0.698397 0
M  V30 3187 H 302.265 5.88456 1.62947 0
M  V30 3188 H 303.679 5.69781 -0.634274 0
M  V30 3189 H 302.076 5.83203 -1.41399 0
M  V30 3190 H 303.146 4.48514 -1.84292 0
M  V30 3191 N 304.489 0.459591 1.5075 0
M  V30 3192 C 305.737 -0.0991532 2.01857 0
M  V30 3193 C 306.058 -1.41247 1.34441 0
M  V30 3194 O 305.328 -1.89775 0.486022 0
M  V30 3195 H 303.908 -0.039633 0.745948 0
M  V30 3196 H 306.57 0.607387 1.85194 0
M  V30 3197 H 305.666 -0.258998 3.11023 0
M  V30 3198 N 305.967 -1.56429 0.191757 0
M  V30 3199 C 306.897 -2.21937 -0.725696 0
M  V30 3200 C 307.878 -1.1814 -1.2238 0
M  V30 3201 O 309.063 -1.46636 -1.27325 0
M  V30 3202 C 306.193 -2.87611 -1.94672 0
M  V30 3203 C 305.147 -3.97623 -1.58366 0
M  V30 3204 C 304.473 -4.50446 -2.88102 0
M  V30 3205 C 305.773 -5.16197 -0.796133 0
M  V30 3206 H 307.467 -2.98861 -0.179606 0
M  V30 3207 H 305.013 -1.43749 -0.0849464 0
M  V30 3208 H 306.966 -3.3212 -2.59373 0
M  V30 3209 H 305.69 -2.08087 -2.51728 0
M  V30 3210 H 304.349 -3.53801 -0.960247 0
M  V30 3211 H 303.997 -3.67688 -3.43241 0
M  V30 3212 H 303.697 -5.24675 -2.64556 0
M  V30 3213 H 305.221 -4.97654 -3.53798 0
M  V30 3214 H 306.635 -5.57271 -1.34618 0
M  V30 3215 H 305.032 -5.96471 -0.658928 0
M  V30 3216 H 306.102 -4.84473 0.203478 0
M  V30 3217 N 307.445 0.0818655 -1.57387 0
M  V30 3218 C 308.375 1.09885 -2.06028 0
M  V30 3219 C 309.356 1.4098 -0.951774 0
M  V30 3220 O 310.541 1.50781 -1.22387 0
M  V30 3221 C 307.671 2.4151 -2.4958 0
M  V30 3222 C 306.625 2.24792 -3.64215 0
M  V30 3223 C 305.951 3.61712 -3.93787 0
M  V30 3224 C 307.251 1.67749 -4.94629 0
M  V30 3225 H 308.945 0.694128 -2.91243 0
M  V30 3226 H 306.491 0.332448 -1.4011 0
M  V30 3227 H 308.444 3.12939 -2.82219 0
M  V30 3228 H 307.168 2.83943 -1.61381 0
M  V30 3229 H 305.827 1.55807 -3.31843 0
M  V30 3230 H 305.475 4.01697 -3.02735 0
M  V30 3231 H 305.175 3.51368 -4.70971 0
M  V30 3232 H 306.699 4.34587 -4.28913 0
M  V30 3233 H 308.113 2.29032 -5.25564 0
M  V30 3234 H 306.51 1.68128 -5.76067 0
M  V30 3235 H 307.58 0.638059 -4.80684 0
M  V30 3236 N 308.923 1.53595 0.353017 0
M  V30 3237 C 309.873 1.77299 1.43349 0
M  V30 3238 C 310.857 0.627884 1.48143 0
M  V30 3239 O 312.049 0.88697 1.53173 0
M  V30 3240 C 309.178 1.97757 2.80619 0
M  V30 3241 C 308.264 3.18305 2.80254 0
M  V30 3242 N 308.655 4.39967 2.49526 0
M  V30 3243 C 306.953 3.19283 3.11407 0
M  V30 3244 C 307.654 5.21772 2.57156 0
M  V30 3245 N 306.63 4.58269 2.92388 0
M  V30 3246 H 310.432 2.68963 1.18474 0
M  V30 3247 H 307.946 1.52391 0.561306 0
M  V30 3248 H 309.943 2.1287 3.58458 0
M  V30 3249 H 308.603 1.07329 3.06448 0
M  V30 3250 H 309.614 4.67482 2.22893 0
M  V30 3251 H 306.291 2.3879 3.4247 0
M  V30 3252 H 307.681 6.2885 2.36638 0
M  V30 3253 N 310.401 -0.613514 1.45168 0
M  V30 3254 C 311.647 -1.37471 1.49096 0
M  V30 3255 C 311.98 -1.93765 0.129901 0
M  V30 3256 O 311.255 -1.74707 -0.854858 0
M  V30 3257 C 311.538 -2.52701 2.56542 0
M  V30 3258 C 311.391 -2.01643 4.0207 0
M  V30 3259 C 312.71 -3.54849 2.60327 0
M  V30 3260 H 309.829 -0.498502 0.54283 0
M  V30 3261 H 312.471 -0.692125 1.76945 0
M  V30 3262 H 310.621 -3.10931 2.32926 0
M  V30 3263 H 312.293 -1.48108 4.36877 0
M  V30 3264 H 310.536 -1.32688 4.13009 0
M  V30 3265 H 311.207 -2.84681 4.72928 0
M  V30 3266 H 313.683 -3.0645 2.81474 0
M  V30 3267 H 312.559 -4.32973 3.37381 0
M  V30 3268 H 312.82 -4.10079 1.6519 0
M  V30 3269 N 311.879 -1.3236 -0.855495 0
M  V30 3270 C 313.29 -1.2056 -1.42556 0
M  V30 3271 C 313.641 0.182209 -1.95352 0
M  V30 3272 O 312.766 1.08088 -1.87472 0
M  V30 3273 C 313.361 -2.1826 -2.59129 0
M  V30 3274 C 311.92 -2.10351 -3.12137 0
M  V30 3275 C 311.067 -2.06674 -1.84882 0
M  V30 3276 H 314.018 -1.442 -0.662727 0
M  V30 3277 H 314.039 -1.78064 -3.36264 0
M  V30 3278 H 313.551 -3.19257 -2.20673 0
M  V30 3279 H 311.652 -1.12599 -3.55179 0
M  V30 3280 H 311.765 -3.00135 -3.73438 0
M  V30 3281 H 310.129 -1.51901 -2.04446 0
M  V30 3282 H 310.912 -3.09451 -1.48643 0
M  V30 3283 N 313.357 1.07166 -1.15556 0
M  V30 3284 C 314.287 2.16403 -0.877046 0
M  V30 3285 C 315.268 1.69217 0.173111 0
M  V30 3286 O 316.453 1.94181 0.027084 0
M  V30 3287 C 313.583 3.45349 -0.367632 0
M  V30 3288 C 312.537 4.05995 -1.35468 0
M  V30 3289 C 311.863 5.30045 -0.704038 0
M  V30 3290 C 313.163 4.45804 -2.72132 0
M  V30 3291 H 314.857 2.39959 -1.79053 0
M  V30 3292 H 312.403 1.15325 -0.862331 0
M  V30 3293 H 314.356 4.21095 -0.160317 0
M  V30 3294 H 313.08 3.21385 0.581326 0
M  V30 3295 H 311.739 3.32296 -1.54839 0
M  V30 3296 H 311.387 5.02373 0.251128 0
M  V30 3297 H 311.087 5.71579 -1.36277 0
M  V30 3298 H 312.611 6.08495 -0.50654 0
M  V30 3299 H 314.025 5.12671 -2.56595 0
M  V30 3300 H 312.422 4.98296 -3.34397 0
M  V30 3301 H 313.492 3.57083 -3.28054 0
M  V30 3302 N 314.835 0.952656 1.25548 0
M  V30 3303 C 316.083 0.605176 1.92826 0
M  V30 3304 C 316.404 -0.860261 1.74999 0
M  V30 3305 O 315.674 -1.6125 1.11244 0
M  V30 3306 H 314.254 0.220832 0.713612 0
M  V30 3307 H 316.916 1.21047 1.52754 0
M  V30 3308 H 316.012 0.832798 3.00784 0
M  V30 3309 N 316.313 -1.40141 0.720998 0
M  V30 3310 C 317.559 -2.01084 0.263231 0
M  V30 3311 C 317.892 -1.57052 -1.14229 0
M  V30 3312 O 317.167 -0.793027 -1.77599 0
M  V30 3313 C 317.45 -3.58401 0.349344 0
M  V30 3314 C 317.303 -4.12491 1.79363 0
M  V30 3315 C 318.622 -4.39231 -0.276351 0
M  V30 3316 H 315.741 -0.730572 0.0971228 0
M  V30 3317 H 318.383 -1.66543 0.914518 0
M  V30 3318 H 316.533 -3.87958 -0.205165 0
M  V30 3319 H 318.205 -3.93711 2.40394 0
M  V30 3320 H 316.448 -3.66576 2.31958 0
M  V30 3321 H 317.119 -5.21646 1.80524 0
M  V30 3322 H 319.595 -4.15637 0.196184 0
M  V30 3323 H 318.471 -5.48586 -0.185681 0
M  V30 3324 H 318.732 -4.20643 -1.36059 0
M  V30 3325 N 317.792 -0.46758 -1.50504 0
M  V30 3326 C 319.039 0.0886219 -2.02306 0
M  V30 3327 C 319.367 1.40037 -1.34981 0
M  V30 3328 O 318.622 1.90136 -0.463318 0
M  V30 3329 C 318.921 0.323995 -3.55928 0
M  V30 3330 C 318.587 -0.905618 -4.41712 0
M  V30 3331 C 317.249 -1.24275 -4.64875 0
M  V30 3332 C 319.601 -1.72448 -4.91845 0
M  V30 3333 C 316.929 -2.39888 -5.35417 0
M  V30 3334 C 319.281 -2.87185 -5.63656 0
M  V30 3335 C 317.945 -3.21317 -5.85074 0
M  V30 3336 H 317.215 0.0324291 -0.74029 0
M  V30 3337 H 319.862 -0.620945 -1.81153 0
M  V30 3338 H 318.167 1.11577 -3.75577 0
M  V30 3339 H 319.864 0.76826 -3.93572 0
M  V30 3340 H 316.454 -0.632956 -4.239 0
M  V30 3341 H 320.638 -1.4772 -4.73806 0
M  V30 3342 H 315.894 -2.66611 -5.50208 0
M  V30 3343 H 320.068 -3.50985 -6.01484 0
M  V30 3344 H 317.695 -4.1101 -6.39511 0
M  V30 3345 N 319.27 1.56325 -0.20005 0
M  V30 3346 C 320.517 1.97719 0.437411 0
M  V30 3347 C 320.845 1.08709 1.61284 0
M  V30 3348 O 320.1 0.127261 1.95286 0
M  V30 3349 C 320.399 3.4495 0.935103 0
M  V30 3350 C 320.065 4.5072 -0.12749 0
M  V30 3351 C 318.727 4.79368 -0.419451 0
M  V30 3352 C 321.079 5.14268 -0.847231 0
M  V30 3353 C 318.407 5.68854 -1.43604 0
M  V30 3354 C 320.759 6.04852 -1.85301 0
M  V30 3355 C 319.423 6.31855 -2.15211 0
M  V30 3356 H 318.693 0.723507 0.16006 0
M  V30 3357 H 321.34 1.89166 -0.298056 0
M  V30 3358 H 319.645 3.50599 1.74894 0
M  V30 3359 H 321.342 3.74337 1.43781 0
M  V30 3360 H 317.932 4.28458 0.11023 0
M  V30 3361 H 322.116 4.92222 -0.634901 0
M  V30 3362 H 317.372 5.88047 -1.67364 0
M  V30 3363 H 321.546 6.53152 -2.41591 0
M  V30 3364 H 319.173 7.00994 -2.94129 0
M  V30 3365 N 320.748 -0.0735177 1.57428 0
M  V30 3366 C 321.973 -0.789787 1.91774 0
M  V30 3367 C 322.398 -1.70413 0.796306 0
M  V30 3368 O 321.756 -1.79555 -0.250961 0
M  V30 3369 C 321.804 -1.5609 3.25067 0
M  V30 3370 O 320.908 -2.67144 3.14178 0
M  V30 3371 H 320.249 -0.215582 0.628029 0
M  V30 3372 H 322.779 -0.0422781 2.04556 0
M  V30 3373 H 322.789 -1.94052 3.58898 0
M  V30 3374 H 321.464 -0.890015 4.06265 0
M  V30 3375 H 320.041 -2.32052 2.91901 0
M  V30 3376 N 322.226 -1.5378 -0.344866 0
M  V30 3377 C 323.156 -1.84662 -1.42906 0
M  V30 3378 C 324.137 -0.701648 -1.54955 0
M  V30 3379 O 325.322 -0.953438 -1.69184 0
M  V30 3380 C 322.452 -2.05503 -2.79974 0
M  V30 3381 C 321.406 -3.21318 -2.82734 0
M  V30 3382 C 320.732 -3.2749 -4.22675 0
M  V30 3383 C 322.032 -4.59456 -2.48389 0
M  V30 3384 H 323.726 -2.75461 -1.17311 0
M  V30 3385 H 321.272 -1.32542 -0.562896 0
M  V30 3386 H 323.225 -2.25691 -3.55867 0
M  V30 3387 H 321.949 -1.11434 -3.07002 0
M  V30 3388 H 320.608 -3.00984 -2.09294 0
M  V30 3389 H 320.256 -2.31019 -4.4681 0
M  V30 3390 H 319.956 -4.05316 -4.25433 0
M  V30 3391 H 321.48 -3.49887 -5.00412 0
M  V30 3392 H 322.894 -4.79667 -3.13995 0
M  V30 3393 H 321.291 -5.39675 -2.62432 0
M  V30 3394 H 322.361 -4.63155 -1.4358 0
M  V30 3395 N 323.704 0.605807 -1.45491 0
M  V30 3396 C 324.634 1.72709 -1.57143 0
M  V30 3397 C 325.615 1.6476 -0.422884 0
M  V30 3398 O 326.8 1.83132 -0.646247 0
M  V30 3399 C 323.93 3.11316 -1.53948 0
M  V30 3400 C 322.884 3.34077 -2.67537 0
M  V30 3401 C 322.21 4.72975 -2.49397 0
M  V30 3402 C 323.51 3.24158 -4.09535 0
M  V30 3403 H 325.204 1.63214 -2.51001 0
M  V30 3404 H 322.75 0.78379 -1.208 0
M  V30 3405 H 324.703 3.89557 -1.60696 0
M  V30 3406 H 323.427 3.21655 -0.566205 0
M  V30 3407 H 322.086 2.58227 -2.6022 0
M  V30 3408 H 321.734 4.8005 -1.50205 0
M  V30 3409 H 321.434 4.8916 -3.25571 0
M  V30 3410 H 322.958 5.53414 -2.58002 0
M  V30 3411 H 324.372 3.92271 -4.18086 0
M  V30 3412 H 322.769 3.51872 -4.86113 0
M  V30 3413 H 323.839 2.2157 -4.31317 0
M  V30 3414 N 325.182 1.32811 0.848464 0
M  V30 3415 C 326.429 1.23724 1.60308 0
M  V30 3416 C 326.757 -0.1994 1.93475 0
M  V30 3417 O 326.012 -1.15406 1.5805 0
M  V30 3418 C 326.311 2.04831 2.92881 0
M  V30 3419 C 325.977 3.54125 2.79117 0
M  V30 3420 C 324.639 3.94829 2.7507 0
M  V30 3421 C 326.991 4.49036 2.64606 0
M  V30 3422 C 324.319 5.28675 2.544 0
M  V30 3423 C 326.671 5.83033 2.4547 0
M  V30 3424 C 325.335 6.22931 2.39819 0
M  V30 3425 H 324.605 0.452737 0.586609 0
M  V30 3426 H 327.252 1.64301 0.983743 0
M  V30 3427 H 325.557 1.57001 3.58968 0
M  V30 3428 H 327.254 1.95164 3.50303 0
M  V30 3429 H 323.844 3.21801 2.83094 0
M  V30 3430 H 328.028 4.18505 2.66772 0
M  V30 3431 H 323.284 5.58637 2.48465 0
M  V30 3432 H 327.458 6.56186 2.33222 0
M  V30 3433 H 325.085 7.26584 2.23562 0
M  V30 3434 N 326.66 -1.06551 1.16123 0
M  V30 3435 C 327.59 -2.15935 0.88851 0
M  V30 3436 C 328.571 -1.69306 -0.164135 0
M  V30 3437 O 329.756 -1.94193 -0.0167857 0
M  V30 3438 C 326.886 -3.45149 0.385942 0
M  V30 3439 C 325.84 -4.05271 1.3762 0
M  V30 3440 C 325.166 -5.29664 0.732137 0
M  V30 3441 C 326.466 -4.44355 2.74493 0
M  V30 3442 H 328.16 -2.39006 1.80323 0
M  V30 3443 H 325.706 -1.14866 0.868435 0
M  V30 3444 H 327.659 -4.21004 0.182647 0
M  V30 3445 H 326.383 -3.21689 -0.564274 0
M  V30 3446 H 325.042 -3.3147 1.56599 0
M  V30 3447 H 324.69 -5.02499 -0.224483 0
M  V30 3448 H 324.39 -5.70848 1.39307 0
M  V30 3449 H 325.914 -6.08218 0.538802 0
M  V30 3450 H 327.328 -5.11303 2.59311 0
M  V30 3451 H 325.725 -4.96515 3.37035 0
M  V30 3452 H 326.795 -3.55339 3.29943 0
M  V30 3453 N 328.138 -0.959301 -1.25041 0
M  V30 3454 C 329.101 -0.487677 -2.23952 0
M  V30 3455 C 330.101 0.41119 -1.55454 0
M  V30 3456 O 331.291 0.207825 -1.72956 0
M  V30 3457 C 328.423 0.294807 -3.39623 0
M  V30 3458 H 329.616 -1.36198 -2.67189 0
M  V30 3459 H 327.169 -0.743042 -1.37508 0
M  V30 3460 H 327.904 1.18658 -3.01813 0
M  V30 3461 H 327.689 -0.35012 -3.90534 0
M  V30 3462 H 329.179 0.614089 -4.1306 0
M  V30 3463 N 329.616 1.39756 -0.72842 0
M  V30 3464 C 330.579 2.29012 -0.0927297 0
M  V30 3465 C 331.579 1.45992 0.674025 0
M  V30 3466 O 332.769 1.66749 0.50402 0
M  V30 3467 C 329.901 3.29396 0.878137 0
M  V30 3468 H 331.094 2.86729 -0.879011 0
M  V30 3469 H 328.647 1.48293 -0.493847 0
M  V30 3470 H 329.382 2.76722 1.69101 0
M  V30 3471 H 329.167 3.907 0.331051 0
M  V30 3472 H 330.657 3.96199 1.3197 0
M  V30 3473 N 331.094 0.475555 1.50254 0
M  V30 3474 C 332.024 -0.30611 2.31485 0
M  V30 3475 C 333.005 -0.986228 1.38591 0
M  V30 3476 O 334.19 -0.982541 1.67511 0
M  V30 3477 C 331.32 -1.38588 3.1845 0
M  V30 3478 C 330.274 -0.827115 4.19932 0
M  V30 3479 C 329.6 -2.00551 4.95665 0
M  V30 3480 C 330.9 0.16463 5.2204 0
M  V30 3481 H 332.594 0.371866 2.97082 0
M  V30 3482 H 330.14 0.180282 1.42867 0
M  V30 3483 H 332.093 -1.94023 3.74076 0
M  V30 3484 H 330.817 -2.09269 2.50747 0
M  V30 3485 H 329.476 -0.294702 3.65414 0
M  V30 3486 H 329.124 -2.6994 4.2443 0
M  V30 3487 H 328.824 -1.63784 5.64313 0
M  V30 3488 H 330.348 -2.56468 5.54127 0
M  V30 3489 H 331.762 -0.300699 5.72511 0
M  V30 3490 H 330.159 0.446813 5.98434 0
M  V30 3491 H 331.229 1.08905 4.72512 0
M  V30 3492 N 332.573 -1.56217 0.208337 0
M  V30 3493 C 333.822 -1.97124 -0.427204 0
M  V30 3494 C 334.135 -1.09859 -1.61835 0
M  V30 3495 O 335.341 -1.40606 -2.32255 0
M  V30 3496 C 333.797 -3.50633 -0.811442 0
M  V30 3497 C 333.405 -4.46582 0.35615 0
M  V30 3498 C 335.149 -4.00282 -1.41332 0
M  V30 3499 C 333.056 -5.91379 -0.0497852 0
M  V30 3500 H 331.986 -0.736086 -0.163381 0
M  V30 3501 H 334.637 -1.8099 0.302456 0
M  V30 3502 H 333.019 -3.62319 -1.59815 0
M  V30 3503 H 334.193 -4.46636 1.1337 0
M  V30 3504 H 332.508 -4.07202 0.870396 0
M  V30 3505 H 335.105 -5.0595 -1.72972 0
M  V30 3506 H 335.448 -3.45359 -2.32449 0
M  V30 3507 H 335.981 -3.91764 -0.690323 0
M  V30 3508 H 332.72 -6.50255 0.827529 0
M  V30 3509 H 332.24 -5.94549 -0.791926 0
M  V30 3510 H 333.919 -6.45209 -0.481042 0
M  V30 3511 N 334.051 0.0651679 -1.57465 0
M  V30 3512 C 334.981 1.07693 -2.07182 0
M  V30 3513 C 335.962 1.39962 -0.966673 0
M  V30 3514 O 337.147 1.49475 -1.2398 0
M  V30 3515 C 334.277 2.3885 -2.52127 0
M  V30 3516 C 333.231 2.20917 -3.66579 0
M  V30 3517 C 332.557 3.57515 -3.97601 0
M  V30 3518 C 333.857 1.62493 -4.9638 0
M  V30 3519 H 335.551 0.663199 -2.91962 0
M  V30 3520 H 333.097 0.317569 -1.40455 0
M  V30 3521 H 335.05 3.09928 -2.85522 0
M  V30 3522 H 333.774 2.82215 -1.64384 0
M  V30 3523 H 332.433 1.52279 -3.33477 0
M  V30 3524 H 332.081 3.98463 -3.06979 0
M  V30 3525 H 331.781 3.46353 -4.74672 0
M  V30 3526 H 333.305 4.30013 -4.33499 0
M  V30 3527 H 334.719 2.23445 -5.27963 0
M  V30 3528 H 333.116 1.62009 -5.77818 0
M  V30 3529 H 334.186 0.587041 -4.81333 0
M  V30 3530 N 335.529 1.53961 0.336706 0
M  V30 3531 C 336.757 1.75483 1.09605 0
M  V30 3532 C 337.172 0.4972 1.82136 0
M  V30 3533 O 336.529 -0.53149 1.74589 0
M  V30 3534 C 336.58 2.93943 2.10428 0
M  V30 3535 O 336.301 4.14842 1.40846 0
M  V30 3536 C 337.802 3.27571 2.98684 0
M  V30 3537 H 335.022 0.586166 0.326574 0
M  V30 3538 H 337.566 2.00808 0.38683 0
M  V30 3539 H 335.721 2.70929 2.76905 0
M  V30 3540 H 336.135 4.81383 2.08255 0
M  V30 3541 H 337.609 4.13791 3.6535 0
M  V30 3542 H 338.086 2.44168 3.65074 0
M  V30 3543 H 338.692 3.52615 2.37787 0
M  V30 3544 N 337.007 -0.598083 1.45811 0
M  V30 3545 C 337.937 -1.71873 1.58057 0
M  V30 3546 C 338.918 -1.64533 0.431615 0
M  V30 3547 O 340.103 -1.82787 0.65595 0
M  V30 3548 C 337.233 -3.10495 1.55597 0
M  V30 3549 C 336.187 -3.32654 2.69305 0
M  V30 3550 C 335.513 -4.71646 2.51902 0
M  V30 3551 C 336.813 -3.21981 4.11248 0
M  V30 3552 H 338.507 -1.61881 2.51863 0
M  V30 3553 H 336.053 -0.777372 1.21214 0
M  V30 3554 H 338.006 -3.88699 1.6276 0
M  V30 3555 H 336.73 -3.2135 0.583255 0
M  V30 3556 H 335.389 -2.56843 2.61586 0
M  V30 3557 H 335.037 -4.79246 1.52748 0
M  V30 3558 H 334.737 -4.87426 3.2816 0
M  V30 3559 H 336.261 -5.52038 2.60933 0
M  V30 3560 H 337.675 -3.90049 4.20161 0
M  V30 3561 H 336.072 -3.49289 4.87972 0
M  V30 3562 H 337.142 -2.1928 4.32486 0
M  V30 3563 N 338.485 -1.33259 -0.841409 0
M  V30 3564 C 339.732 -1.24572 -1.5965 0
M  V30 3565 C 340.06 0.189137 -1.93578 0
M  V30 3566 O 339.315 1.14566 -1.5866 0
M  V30 3567 C 339.614 -2.06381 -2.9179 0
M  V30 3568 C 339.28 -3.556 -2.77235 0
M  V30 3569 C 337.942 -3.96282 -2.72973 0
M  V30 3570 C 340.294 -4.50433 -2.62221 0
M  V30 3571 C 337.622 -5.30017 -2.51592 0
M  V30 3572 C 339.974 -5.84327 -2.42374 0
M  V30 3573 C 338.638 -6.24194 -2.36512 0
M  V30 3574 H 337.908 -0.455842 -0.5842 0
M  V30 3575 H 340.555 -1.6482 -0.975016 0
M  V30 3576 H 338.86 -1.58903 -3.5813 0
M  V30 3577 H 340.557 -1.97019 -3.49263 0
M  V30 3578 H 337.147 -3.23298 -2.81384 0
M  V30 3579 H 341.331 -4.19914 -2.64549 0
M  V30 3580 H 336.587 -5.59947 -2.45499 0
M  V30 3581 H 340.761 -6.57414 -2.29739 0
M  V30 3582 H 338.388 -7.27759 -2.19706 0
M  V30 3583 N 339.963 1.05934 -1.16686 0
M  V30 3584 C 340.893 2.1546 -0.899949 0
M  V30 3585 C 341.874 1.69391 0.155154 0
M  V30 3586 O 343.059 1.94199 0.00648693 0
M  V30 3587 C 340.189 3.44939 -0.404241 0
M  V30 3588 C 339.143 4.04536 -1.39767 0
M  V30 3589 C 338.469 5.29268 -0.760216 0
M  V30 3590 C 339.769 4.42893 -2.76845 0
M  V30 3591 H 341.463 2.38046 -1.81588 0
M  V30 3592 H 339.009 1.14404 -0.874514 0
M  V30 3593 H 340.962 4.20901 -0.204971 0
M  V30 3594 H 339.686 3.21983 0.547206 0
M  V30 3595 H 338.345 3.30635 -1.58355 0
M  V30 3596 H 337.993 5.02611 0.197831 0
M  V30 3597 H 337.693 5.70101 -1.42332 0
M  V30 3598 H 339.217 6.07924 -0.57105 0
M  V30 3599 H 340.631 5.09921 -2.62019 0
M  V30 3600 H 339.028 4.94721 -3.39663 0
M  V30 3601 H 340.098 3.53584 -3.31823 0
M  V30 3602 N 341.441 0.965919 1.2453 0
M  V30 3603 C 342.689 0.625593 1.92174 0
M  V30 3604 C 343.01 -0.841652 1.75901 0
M  V30 3605 O 342.28 -1.60061 1.12948 0
M  V30 3606 H 340.86 0.228388 0.71123 0
M  V30 3607 H 343.522 1.2266 1.51461 0
M  V30 3608 H 342.618 0.864653 2.99884 0
M  V30 3609 N 342.919 -1.39368 0.735821 0
M  V30 3610 C 344.166 -2.00497 0.284123 0
M  V30 3611 C 344.494 -1.58387 -1.12889 0
M  V30 3612 O 343.749 -0.804359 -1.78406 0
M  V30 3613 C 344.048 -3.5583 0.334651 0
M  V30 3614 C 343.714 -4.17593 1.7008 0
M  V30 3615 C 342.376 -4.34176 2.07472 0
M  V30 3616 C 344.728 -4.51848 2.59775 0
M  V30 3617 C 342.056 -4.82304 3.34065 0
M  V30 3618 C 344.408 -5.01384 3.85741 0
M  V30 3619 C 343.072 -5.16175 4.23225 0
M  V30 3620 H 342.342 -0.73367 0.103968 0
M  V30 3621 H 344.989 -1.66683 0.942825 0
M  V30 3622 H 343.294 -3.89674 -0.407625 0
M  V30 3623 H 344.991 -4.00986 -0.0329927 0
M  V30 3624 H 341.581 -4.05087 1.40008 0
M  V30 3625 H 345.765 -4.38653 2.32157 0
M  V30 3626 H 341.021 -4.91941 3.63049 0
M  V30 3627 H 345.195 -5.26863 4.55399 0
M  V30 3628 H 342.822 -5.5323 5.21384 0
M  V30 3629 N 344.397 -0.483516 -1.5 0
M  V30 3630 C 345.327 0.293829 -2.31644 0
M  V30 3631 C 346.308 0.978864 -1.39112 0
M  V30 3632 O 347.493 0.973644 -1.68029 0
M  V30 3633 C 344.623 1.36897 -3.19181 0
M  V30 3634 C 343.577 0.804833 -4.20365 0
M  V30 3635 C 342.903 1.9792 -4.96721 0
M  V30 3636 C 344.203 -0.192313 -5.21946 0
M  V30 3637 H 345.897 -0.387616 -2.9688 0
M  V30 3638 H 343.443 -0.187856 -1.42769 0
M  V30 3639 H 345.396 1.92037 -3.751 0
M  V30 3640 H 344.12 2.07936 -2.51853 0
M  V30 3641 H 342.779 0.275319 -3.65565 0
M  V30 3642 H 342.427 2.67686 -4.25856 0
M  V30 3643 H 342.127 1.60789 -5.65173 0
M  V30 3644 H 343.651 2.53526 -5.55479 0
M  V30 3645 H 345.065 0.270333 -5.72662 0
M  V30 3646 H 343.462 -0.478543 -5.98189 0
M  V30 3647 H 344.532 -1.11409 -4.71928 0
M  V30 3648 N 345.875 1.56104 -0.216619 0
M  V30 3649 C 346.825 2.16703 0.708798 0
M  V30 3650 C 347.809 1.11392 1.16106 0
M  V30 3651 O 349.001 1.37395 1.11587 0
M  V30 3652 C 346.13 2.84666 1.91886 0
M  V30 3653 C 345.216 3.97195 1.48651 0
M  V30 3654 N 345.607 4.99959 0.766434 0
M  V30 3655 C 343.905 4.09193 1.77418 0
M  V30 3656 C 344.606 5.79126 0.546659 0
M  V30 3657 N 343.582 5.32315 1.10188 0
M  V30 3658 H 347.384 2.93516 0.150162 0
M  V30 3659 H 344.898 1.6239 -0.0176768 0
M  V30 3660 H 346.895 3.26486 2.59253 0
M  V30 3661 H 345.555 2.09347 2.48202 0
M  V30 3662 H 346.566 5.16197 0.419634 0
M  V30 3663 H 343.243 3.45021 2.35088 0
M  V30 3664 H 344.633 6.71895 -0.026103 0
M  V30 3665 N 347.353 -0.0568162 1.57498 0
M  V30 3666 C 348.583 -0.764515 1.91934 0
M  V30 3667 C 348.991 -1.70877 0.81227 0
M  V30 3668 O 348.334 -1.82351 -0.222213 0
M  V30 3669 C 348.396 -1.5994 3.21962 0
M  V30 3670 C 348.06 -0.822925 4.4953 0
M  V30 3671 C 349.057 -0.135464 5.19723 0
M  V30 3672 C 346.742 -0.785666 4.96117 0
M  V30 3673 C 348.736 0.578861 6.34766 0
M  V30 3674 C 346.423 -0.0675784 6.11063 0
M  V30 3675 C 347.421 0.613471 6.80239 0
M  V30 3676 O 347.109 1.31996 7.92989 0
M  V30 3677 H 346.841 -0.221647 0.63863 0
M  V30 3678 H 349.395 -0.0268218 2.05382 0
M  V30 3679 H 347.625 -2.38026 3.04763 0
M  V30 3680 H 349.314 -2.18715 3.41934 0
M  V30 3681 H 350.08 -0.155458 4.84751 0
M  V30 3682 H 345.959 -1.30524 4.42136 0
M  V30 3683 H 349.503 1.111 6.88696 0
M  V30 3684 H 345.4 -0.0455636 6.45484 0
M  V30 3685 H 346.168 1.23077 8.09194 0
M  V30 3686 N 348.832 -1.54138 -0.328536 0
M  V30 3687 C 350.079 -1.72105 -1.06706 0
M  V30 3688 C 350.407 -0.492111 -1.88171 0
M  V30 3689 O 349.662 0.526153 -1.88494 0
M  V30 3690 C 349.961 -2.9457 -2.02393 0
M  V30 3691 C 349.627 -4.29544 -1.37122 0
M  V30 3692 C 348.289 -4.6624 -1.19052 0
M  V30 3693 C 350.641 -5.1333 -0.902331 0
M  V30 3694 C 347.969 -5.84325 -0.527331 0
M  V30 3695 C 350.321 -6.32094 -0.252988 0
M  V30 3696 C 348.985 -6.67473 -0.0600901 0
M  V30 3697 H 348.255 -0.629775 -0.390466 0
M  V30 3698 H 350.902 -1.88372 -0.34473 0
M  V30 3699 H 349.207 -2.72969 -2.81061 0
M  V30 3700 H 350.904 -3.05665 -2.59557 0
M  V30 3701 H 347.494 -4.0067 -1.52188 0
M  V30 3702 H 351.678 -4.855 -1.02974 0
M  V30 3703 H 346.934 -6.103 -0.366634 0
M  V30 3704 H 351.108 -6.96299 0.118366 0
M  V30 3705 H 348.735 -7.58832 0.455828 0
M  V30 3706 N 350.31 0.590341 -1.46126 0
M  V30 3707 C 351.726 0.912917 -1.30912 0
M  V30 3708 C 351.926 1.99616 -0.274893 0
M  V30 3709 O 350.982 2.50397 0.325197 0
M  V30 3710 C 352.295 1.3375 -2.69317 0
M  V30 3711 C 353.843 1.45077 -2.77348 0
M  V30 3712 C 354.318 1.90904 -4.16317 0
M  V30 3713 N 355.809 1.9811 -4.18696 0
M  V30 3714 C 356.544 2.34828 -5.23109 0
M  V30 3715 N 356.04 2.70393 -6.37856 0
M  V30 3716 N 357.833 2.35317 -5.10473 0
M  V30 3717 H 349.984 -0.125358 -2.1203 0
M  V30 3718 H 352.247 0.00658481 -0.947977 0
M  V30 3719 H 351.953 0.615614 -3.4627 0
M  V30 3720 H 351.827 2.30058 -2.9892 0
M  V30 3721 H 354.214 2.16353 -2.00687 0
M  V30 3722 H 354.295 0.4704 -2.51438 0
M  V30 3723 H 353.939 1.20209 -4.9347 0
M  V30 3724 H 353.869 2.89886 -4.39629 0
M  V30 3725 H 356.36 1.73146 -3.359 0
M  V30 3726 H 356.673 2.97341 -7.13308 0
M  V30 3727 H 355.018 2.68048 -6.41229 0
M  V30 3728 H 358.209 2.0695 -4.19868 0
M  V30 3729 H 358.382 2.63605 -5.9196 0
M  V30 3730 N 351.788 1.33704 0.83433 0
M  V30 3731 C 353.199 1.22813 1.4062 0
M  V30 3732 C 353.55 -0.151107 1.95617 0
M  V30 3733 O 352.675 -1.05092 1.89168 0
M  V30 3734 C 353.27 2.22355 2.55624 0
M  V30 3735 C 351.829 2.1529 3.08751 0
M  V30 3736 C 350.976 2.09589 1.8157 0
M  V30 3737 H 353.927 1.45236 0.639702 0
M  V30 3738 H 353.948 1.83391 3.33389 0
M  V30 3739 H 353.46 3.22728 2.15566 0
M  V30 3740 H 351.561 1.18235 3.53343 0
M  V30 3741 H 351.674 3.06038 3.68616 0
M  V30 3742 H 350.038 1.55134 2.02004 0
M  V30 3743 H 350.821 3.11777 1.43701 0
M  V30 3744 N 353.266 -1.05314 1.17247 0
M  V30 3745 C 354.196 -2.1498 0.911362 0
M  V30 3746 C 355.177 -1.69471 -0.146169 0
M  V30 3747 O 356.362 -1.942 0.003812 0
M  V30 3748 C 353.492 -3.4472 0.422528 0
M  V30 3749 C 352.446 -4.03789 1.4191 0
M  V30 3750 C 351.772 -5.28858 0.788274 0
M  V30 3751 C 353.072 -4.41418 2.7919 0
M  V30 3752 H 354.766 -2.3708 1.82848 0
M  V30 3753 H 352.312 -1.13938 0.880569 0
M  V30 3754 H 354.265 -4.20787 0.227289 0
M  V30 3755 H 352.989 -3.22269 -0.530123 0
M  V30 3756 H 351.648 -3.2979 1.60106 0
M  V30 3757 H 351.296 -5.02709 -0.171173 0
M  V30 3758 H 350.996 -5.69338 1.45353 0
M  V30 3759 H 352.52 -6.07612 0.603282 0
M  V30 3760 H 353.934 -5.08524 2.64719 0
M  V30 3761 H 352.331 -4.92913 3.42282 0
M  V30 3762 H 353.401 -3.51819 3.33693 0
M  V30 3763 N 354.744 -0.972509 -1.24016 0
M  V30 3764 C 355.692 -0.498562 -2.27194 0
M  V30 3765 C 356.686 0.440372 -1.63576 0
M  V30 3766 O 357.892 0.315133 -1.7722 0
M  V30 3767 H 354.267 -0.142775 -0.738322 0
M  V30 3768 H 356.238 -1.38065 -2.64539 0
M  V30 3769 C 354.987 0.191072 -3.47175 0
M  V30 3770 H 354.31 -0.522318 -3.96373 0
M  V30 3771 H 355.75 0.486445 -4.212 0
M  V30 3772 C 354.209 1.41967 -3.05527 0
M  V30 3773 O 354.739 2.51642 -3.13112 0
M  V30 3774 N 352.945 1.28746 -2.60524 0
M  V30 3775 H 352.492 0.395089 -2.54552 0
M  V30 3776 H 352.45 2.11061 -2.33025 0
M  V30 3777 N 356.222 1.38976 -0.743202 0
M  V30 3778 C 357.462 2.02193 -0.29954 0
M  V30 3779 C 357.826 1.5771 1.09506 0
M  V30 3780 O 359.027 2.13184 1.63726 0
M  V30 3781 C 357.298 3.55077 -0.406822 0
M  V30 3782 S 358.857 4.38778 -0.0442109 0
M  V30 3783 H 355.675 0.701335 -0.116836 0
M  V30 3784 H 358.277 1.69651 -0.971529 0
M  V30 3785 H 356.981 3.84942 -1.42295 0
M  V30 3786 H 356.512 3.92383 0.282707 0
M  V30 3787 H 358.527 4.82222 1.16947 0
M  V30 3788 N 357.7 0.491464 1.49741 0
M  V30 3789 C 358.947 -0.0564256 2.02421 0
M  V30 3790 C 359.275 -1.37872 1.37192 0
M  V30 3791 O 358.53 -1.89375 0.493508 0
M  V30 3792 C 358.829 -0.267329 3.56399 0
M  V30 3793 C 358.495 0.975775 4.40215 0
M  V30 3794 C 357.157 1.31655 4.62839 0
M  V30 3795 C 359.509 1.80251 4.89039 0
M  V30 3796 C 356.837 2.48375 5.31532 0
M  V30 3797 C 359.189 2.96116 5.59015 0
M  V30 3798 C 357.853 3.30585 5.79888 0
M  V30 3799 H 357.123 -0.0206476 0.740712 0
M  V30 3800 H 359.77 0.649686 1.80143 0
M  V30 3801 H 358.075 -1.05588 3.77304 0
M  V30 3802 H 359.772 -0.705549 3.94744 0
M  V30 3803 H 356.362 0.700315 4.2284 0
M  V30 3804 H 360.546 1.55239 4.71396 0
M  V30 3805 H 355.802 2.7533 5.45897 0
M  V30 3806 H 359.976 3.60509 5.95824 0
M  V30 3807 H 357.603 4.21132 6.32892 0
M  V30 3808 N 359.178 -1.55987 0.224894 0
M  V30 3809 C 360.111 -2.16413 -0.723929 0
M  V30 3810 C 361.089 -1.10952 -1.18863 0
M  V30 3811 O 362.273 -1.39225 -1.27077 0
M  V30 3812 C 359.4 -2.74711 -1.98121 0
M  V30 3813 C 358.446 -3.9303 -1.6562 0
M  V30 3814 S 359.279 -5.29817 -0.778058 0
M  V30 3815 C 360.435 -5.91555 -2.04483 0
M  V30 3816 H 360.668 -2.96555 -0.210347 0
M  V30 3817 H 358.201 -1.54397 0.00955457 0
M  V30 3818 H 360.159 -3.08938 -2.70311 0
M  V30 3819 H 358.82 -1.94555 -2.46591 0
M  V30 3820 H 358.013 -4.32334 -2.59043 0
M  V30 3821 H 357.615 -3.59966 -1.01491 0
M  V30 3822 H 359.907 -6.07732 -2.99446 0
M  V30 3823 H 360.85 -6.87498 -1.69563 0
M  V30 3824 H 361.258 -5.20419 -2.18688 0
M  V30 3825 N 360.656 0.0484629 -1.57525 0
M  V30 3826 C 361.589 1.08755 -2.00618 0
M  V30 3827 C 362.567 1.36272 -0.887058 0
M  V30 3828 O 363.751 1.49255 -1.15131 0
M  V30 3829 C 360.878 2.42675 -2.36277 0
M  V30 3830 C 359.924 2.31142 -3.58435 0
M  V30 3831 S 360.757 1.68326 -5.08357 0
M  V30 3832 C 361.913 3.03776 -5.47239 0
M  V30 3833 H 362.146 0.720415 -2.88439 0
M  V30 3834 H 359.679 0.257801 -1.52233 0
M  V30 3835 H 361.637 3.19699 -2.57494 0
M  V30 3836 H 360.298 2.76541 -1.48942 0
M  V30 3837 H 359.491 3.29957 -3.80978 0
M  V30 3838 H 359.093 1.62258 -3.36969 0
M  V30 3839 H 361.385 4.00106 -5.46737 0
M  V30 3840 H 362.328 2.85988 -6.47778 0
M  V30 3841 H 362.736 3.05456 -4.74718 0
M  V30 3842 N 362.134 1.5431 0.320358 0
M  V30 3843 C 363.55 1.45091 0.664889 0
M  V30 3844 C 363.75 0.626382 1.91517 0
M  V30 3845 O 362.806 0.126443 2.52183 0
M  V30 3846 C 364.119 2.88848 0.83591 0
M  V30 3847 C 365.667 2.9877 0.933046 0
M  V30 3848 C 366.142 4.43683 1.13621 0
M  V30 3849 N 367.633 4.47309 1.20287 0
M  V30 3850 C 368.368 5.56595 1.37801 0
M  V30 3851 N 367.864 6.75844 1.52338 0
M  V30 3852 N 369.657 5.44248 1.40535 0
M  V30 3853 H 361.808 2.06398 -0.501374 0
M  V30 3854 H 364.071 0.933963 -0.162534 0
M  V30 3855 H 363.777 3.51698 -0.0116092 0
M  V30 3856 H 363.651 3.35148 1.73078 0
M  V30 3857 H 366.038 2.36045 1.77107 0
M  V30 3858 H 366.119 2.55796 0.0145782 0
M  V30 3859 H 365.763 5.06995 0.303032 0
M  V30 3860 H 365.693 4.84269 2.0686 0
M  V30 3861 H 368.184 3.61388 1.10485 0
M  V30 3862 H 368.497 7.54892 1.65403 0
M  V30 3863 H 366.842 6.78746 1.4943 0
M  V30 3864 H 370.033 4.50038 1.28777 0
M  V30 3865 H 370.206 6.29473 1.53842 0
M  V30 3866 N 363.613 -0.582584 1.46437 0
M  V30 3867 C 364.561 -1.71272 1.5738 0
M  V30 3868 C 365.555 -1.63524 0.44229 0
M  V30 3869 O 366.761 -1.69016 0.619166 0
M  V30 3870 H 363.136 -0.566273 0.494813 0
M  V30 3871 H 365.107 -1.59174 2.52401 0
M  V30 3872 C 363.856 -3.09658 1.58136 0
M  V30 3873 H 363.179 -3.16291 2.44541 0
M  V30 3874 H 364.619 -3.88494 1.69847 0
M  V30 3875 C 363.078 -3.3547 0.310026 0
M  V30 3876 O 363.608 -3.97199 -0.599683 0
M  V30 3877 N 361.814 -2.89925 0.197901 0
M  V30 3878 H 361.361 -2.39873 0.93909 0
M  V30 3879 H 361.319 -3.07568 -0.65185 0
M  V30 3880 N 365.091 -1.34144 -0.827227 0
M  V30 3881 C 366.321 -1.29138 -1.61267 0
M  V30 3882 C 366.729 0.137597 -1.88699 0
M  V30 3883 O 366.072 1.09379 -1.47587 0
M  V30 3884 C 366.134 -2.0097 -2.9808 0
M  V30 3885 C 365.798 -3.50242 -2.93563 0
M  V30 3886 C 366.795 -4.4523 -2.68452 0
M  V30 3887 C 364.48 -3.92592 -3.13331 0
M  V30 3888 C 366.474 -5.80542 -2.63154 0
M  V30 3889 C 364.161 -5.28005 -3.07658 0
M  V30 3890 C 365.159 -6.21792 -2.82602 0
M  V30 3891 O 364.847 -7.54723 -2.76853 0
M  V30 3892 H 364.579 -0.445851 -0.508127 0
M  V30 3893 H 367.133 -1.77263 -1.03763 0
M  V30 3894 H 365.363 -1.47451 -3.57484 0
M  V30 3895 H 367.052 -1.89309 -3.5905 0
M  V30 3896 H 367.818 -4.13832 -2.52919 0
M  V30 3897 H 363.697 -3.19994 -3.31851 0
M  V30 3898 H 367.241 -6.53717 -2.43516 0
M  V30 3899 H 363.138 -5.59023 -3.22743 0
M  V30 3900 H 363.906 -7.64409 -2.92611 0
M  V30 3901 N 366.569 1.04691 -1.17803 0
M  V30 3902 C 367.479 2.16057 -0.914151 0
M  V30 3903 C 368.495 1.73589 0.119503 0
M  V30 3904 O 369.671 2.01308 -0.0609468 0
M  V30 3905 C 366.736 3.4394 -0.436603 0
M  V30 3906 C 365.797 4.00825 -1.53746 0
M  V30 3907 C 365.03 5.22604 -1.0826 0
M  V30 3908 O 365.253 5.70367 0.0612244 0
M  V30 3909 O 364.187 5.7186 -1.87775 0
M  V30 3910 H 368.013 2.41169 -1.84584 0
M  V30 3911 H 365.598 1.1453 -0.959334 0
M  V30 3912 H 367.48 4.21024 -0.178057 0
M  V30 3913 H 366.155 3.20316 0.466869 0
M  V30 3914 H 365.062 3.25158 -1.84995 0
M  V30 3915 H 366.395 4.28778 -2.41683 0
M  V30 3916 N 368.047 0.979072 1.23499 0
M  V30 3917 C 369.296 0.642751 1.91185 0
M  V30 3918 C 369.609 -0.827253 1.77245 0
M  V30 3919 O 370.815 -1.27458 2.39722 0
M  V30 3920 C 369.271 1.09901 3.42709 0
M  V30 3921 C 368.879 2.59327 3.65313 0
M  V30 3922 C 370.623 0.836371 4.16179 0
M  V30 3923 C 368.53 2.98627 5.10467 0
M  V30 3924 H 367.46 0.236698 0.715884 0
M  V30 3925 H 370.111 1.1868 1.39955 0
M  V30 3926 H 368.493 0.48319 3.93041 0
M  V30 3927 H 369.667 3.26136 3.25533 0
M  V30 3928 H 367.982 2.83323 3.05151 0
M  V30 3929 H 370.579 1.10586 5.23139 0
M  V30 3930 H 370.922 -0.227509 4.15678 0
M  V30 3931 H 371.455 1.41371 3.71832 0
M  V30 3932 H 368.194 4.04133 5.16098 0
M  V30 3933 H 367.714 2.3651 5.51201 0
M  V30 3934 H 369.393 2.89159 5.78788 0
M  V30 3935 N 369.525 -1.3858 0.750561 0
M  V30 3936 C 370.774 -1.99424 0.302172 0
M  V30 3937 C 371.087 -1.60254 -1.12152 0
M  V30 3938 O 372.293 -2.14046 -1.67023 0
M  V30 3939 C 370.749 -3.56558 0.489307 0
M  V30 3940 C 370.357 -4.04682 1.92189 0
M  V30 3941 C 372.101 -4.24374 0.103478 0
M  V30 3942 C 370.008 -5.54446 2.05775 0
M  V30 3943 H 368.938 -0.746046 0.10923 0
M  V30 3944 H 371.589 -1.58383 0.92667 0
M  V30 3945 H 369.971 -3.95472 -0.204329 0
M  V30 3946 H 371.145 -3.77065 2.64875 0
M  V30 3947 H 369.46 -3.4958 2.26236 0
M  V30 3948 H 372.057 -5.34384 0.183787 0
M  V30 3949 H 372.4 -4.05468 -0.943481 0
M  V30 3950 H 372.933 -3.90688 0.748854 0
M  V30 3951 H 369.672 -5.78252 3.08714 0
M  V30 3952 H 369.192 -5.83816 1.37546 0
M  V30 3953 H 370.871 -6.20099 1.84626 0
M  V30 3954 N 371.003 -0.499398 -1.49478 0
M  V30 3955 C 371.935 0.316575 -2.27003 0
M  V30 3956 C 372.948 0.932047 -1.33479 0
M  V30 3957 O 374.137 0.815658 -1.58774 0
M  V30 3958 C 371.237 1.46055 -3.05812 0
M  V30 3959 C 370.41 0.952679 -4.26899 0
M  V30 3960 C 369.469 1.97407 -4.87767 0
M  V30 3961 O 368.495 1.54326 -5.4788 0
M  V30 3962 N 369.697 3.30436 -4.77276 0
M  V30 3963 H 372.462 -0.348168 -2.97671 0
M  V30 3964 H 370.023 -0.33185 -1.58463 0
M  V30 3965 H 372.015 2.14135 -3.43407 0
M  V30 3966 H 370.585 2.02948 -2.37762 0
M  V30 3967 H 369.805 0.0968248 -3.94081 0
M  V30 3968 H 371.093 0.59174 -5.05347 0
M  V30 3969 H 370.491 3.68126 -4.29534 0
M  V30 3970 H 369.048 3.94235 -5.19059 0
M  V30 3971 N 372.481 1.55866 -0.233164 0
M  V30 3972 C 373.413 2.18099 0.704668 0
M  V30 3973 C 374.426 1.15334 1.14899 0
M  V30 3974 O 375.615 1.42262 1.07814 0
M  V30 3975 C 372.715 2.7592 1.96777 0
M  V30 3976 C 371.888 4.03969 1.67713 0
M  V30 3977 C 370.947 4.46242 2.78845 0
M  V30 3978 O 369.973 5.12903 2.46818 0
M  V30 3979 N 371.175 4.12886 4.08051 0
M  V30 3980 H 373.94 2.99205 0.172258 0
M  V30 3981 H 371.501 1.61815 -0.0525945 0
M  V30 3982 H 373.493 3.01165 2.70337 0
M  V30 3983 H 372.063 1.99051 2.41034 0
M  V30 3984 H 371.283 3.86459 0.777391 0
M  V30 3985 H 372.571 4.8748 1.4574 0
M  V30 3986 H 371.969 3.59342 4.3691 0
M  V30 3987 H 370.526 4.42997 4.78118 0
M  V30 3988 N 373.959 -0.0401083 1.57549 0
M  V30 3989 C 375.37 -0.588097 1.77196 0
M  V30 3990 C 375.721 -1.76209 0.862832 0
M  V30 3991 O 374.846 -2.16331 0.0548389 0
M  V30 3992 C 375.441 -1.07363 3.21339 0
M  V30 3993 C 374 -1.56723 3.42221 0
M  V30 3994 C 373.147 -0.50041 2.72747 0
M  V30 3995 H 376.098 0.186119 1.57605 0
M  V30 3996 H 376.119 -1.94143 3.27244 0
M  V30 3997 H 375.631 -0.218975 3.87482 0
M  V30 3998 H 373.732 -2.4441 2.81237 0
M  V30 3999 H 373.845 -1.62234 4.50796 0
M  V30 4000 H 372.209 -0.952894 2.36203 0
M  V30 4001 H 372.992 0.344599 3.41566 0
M  V30 4002 N 375.437 -1.54477 -0.31217 0
M  V30 4003 C 376.37 -1.79519 -1.40884 0
M  V30 4004 C 377.348 -0.645753 -1.49227 0
M  V30 4005 O 378.532 -0.884468 -1.66461 0
M  V30 4006 C 375.659 -1.92194 -2.78889 0
M  V30 4007 C 374.705 -3.14555 -2.88023 0
M  V30 4008 S 375.538 -4.72893 -2.51262 0
M  V30 4009 C 376.694 -4.8849 -3.91317 0
M  V30 4010 H 376.927 -2.72256 -1.19432 0
M  V30 4011 H 374.46 -1.45746 -0.509654 0
M  V30 4012 H 376.418 -2.00182 -3.58382 0
M  V30 4013 H 375.079 -1.00414 -2.97617 0
M  V30 4014 H 374.272 -3.20193 -3.89221 0
M  V30 4015 H 373.874 -3.04955 -2.16514 0
M  V30 4016 H 376.166 -4.71826 -4.86196 0
M  V30 4017 H 377.109 -5.90588 -3.90656 0
M  V30 4018 H 377.517 -4.16715 -3.80801 0
M  V30 4019 N 376.915 0.57481 -1.46744 0
M  V30 4020 C 378.14 1.36341 -1.56288 0
M  V30 4021 C 378.565 1.86954 -0.207347 0
M  V30 4022 O 377.923 1.62006 0.813871 0
M  V30 4023 C 377.971 2.52147 -2.57787 0
M  V30 4024 O 377.075 3.53834 -2.11838 0
M  V30 4025 H 376.416 0.405713 -0.525636 0
M  V30 4026 H 378.946 0.696453 -1.92382 0
M  V30 4027 H 378.956 2.98958 -2.77648 0
M  V30 4028 H 377.631 2.14663 -3.5622 0
M  V30 4029 H 376.208 3.1345 -2.01999 0
M  V30 4030 N 378.394 1.34581 0.820102 0
M  V30 4031 C 379.624 1.29991 1.6058 0
M  V30 4032 C 380.032 -0.127588 1.88769 0
M  V30 4033 O 379.375 -1.08595 1.48165 0
M  V30 4034 C 379.437 2.02548 2.9701 0
M  V30 4035 C 379.101 3.51794 2.91701 0
M  V30 4036 C 380.098 4.46647 2.66087 0
M  V30 4037 C 377.783 3.94249 3.11245 0
M  V30 4038 C 379.777 5.81929 2.60071 0
M  V30 4039 C 377.464 5.2963 3.04853 0
M  V30 4040 C 378.462 6.23282 2.793 0
M  V30 4041 O 378.15 7.56181 2.72847 0
M  V30 4042 H 377.882 0.448539 0.505756 0
M  V30 4043 H 380.436 1.77811 1.02822 0
M  V30 4044 H 378.666 1.49345 3.56697 0
M  V30 4045 H 380.355 1.91211 3.58041 0
M  V30 4046 H 381.121 4.15168 2.5072 0
M  V30 4047 H 377 3.21749 3.30149 0
M  V30 4048 H 380.544 6.54999 2.40046 0
M  V30 4049 H 376.441 5.60727 3.19774 0
M  V30 4050 H 377.209 7.6595 2.88553 0
M  V30 4051 N 379.872 -1.04064 1.18357 0
M  V30 4052 C 381.149 -1.74252 0.888581 0
M  V30 4053 C 381.529 -2.02138 -0.60856 0
M  V30 4054 O 380.877 -1.66656 -1.56327 0
M  V30 4055 C 381.087 -3.0277 1.73584 0
M  V30 4056 C 382.435 -3.76506 1.96286 0
M  V30 4057 O 383.459 -3.12668 1.70637 0
M  V30 4058 O 382.318 -4.91243 2.39464 0
M  V30 4059 H 379.412 -0.758271 0.330082 0
M  V30 4060 H 381.958 -1.1013 1.2911 0
M  V30 4061 H 380.73 -2.78299 2.75073 0
M  V30 4062 H 380.353 -3.74631 1.33183 0
M  V30 4063 N 381.35 -0.985608 -1.22978 0
M  V30 4064 C 382.298 -0.522631 -2.26652 0
M  V30 4065 C 383.292 0.422998 -1.64034 0
M  V30 4066 O 384.498 0.296319 -1.77544 0
M  V30 4067 H 380.873 -0.150597 -0.736766 0
M  V30 4068 H 382.844 -1.40863 -2.63059 0
M  V30 4069 C 381.593 0.154238 -3.47358 0
M  V30 4070 H 380.916 -0.564329 -3.95797 0
M  V30 4071 H 382.356 0.441744 -4.21693 0
M  V30 4072 C 380.815 1.38719 -3.07016 0
M  V30 4073 O 381.345 2.48307 -3.15764 0
M  V30 4074 N 379.551 1.25975 -2.61875 0
M  V30 4075 H 379.098 0.368068 -2.54957 0
M  V30 4076 H 379.056 2.08578 -2.3525 0
M  V30 4077 N 382.828 1.3818 -0.7579 0
M  V30 4078 C 383.758 2.33027 -0.148597 0
M  V30 4079 C 384.739 1.55085 0.69875 0
M  V30 4080 O 385.924 1.83384 0.639053 0
M  V30 4081 C 383.054 3.3928 0.742034 0
M  V30 4082 C 382.008 4.28 -0.00291946 0
M  V30 4083 C 381.334 5.25146 1.00625 0
M  V30 4084 C 382.634 5.08938 -1.17385 0
M  V30 4085 H 384.328 2.84231 -0.940909 0
M  V30 4086 H 381.874 1.36659 -0.453908 0
M  V30 4087 H 383.827 4.046 1.17799 0
M  V30 4088 H 382.551 2.86569 1.56671 0
M  V30 4089 H 381.21 3.64192 -0.419504 0
M  V30 4090 H 380.858 4.68721 1.8251 0
M  V30 4091 H 380.558 5.85361 0.512428 0
M  V30 4092 H 382.082 5.93342 1.44143 0
M  V30 4093 H 383.496 5.67474 -0.815224 0
M  V30 4094 H 381.893 5.7841 -1.59882 0
M  V30 4095 H 382.963 4.42424 -1.98468 0
M  V30 4096 N 384.306 0.507319 1.49211 0
M  V30 4097 C 385.534 -0.0315749 2.06876 0
M  V30 4098 C 385.949 -1.30241 1.36685 0
M  V30 4099 O 385.306 -1.76937 0.447152 0
M  V30 4100 C 385.357 -0.282627 3.60393 0
M  V30 4101 O 385.078 0.937835 4.27944 0
M  V30 4102 C 386.579 -0.864453 4.3479 0
M  V30 4103 H 383.799 0.0233048 0.670595 0
M  V30 4104 H 386.343 0.706484 1.91909 0
M  V30 4105 H 384.498 -0.97068 3.75042 0
M  V30 4106 H 384.912 0.704567 5.19746 0
M  V30 4107 H 386.386 -0.989664 5.43056 0
M  V30 4108 H 386.863 -1.86382 3.97692 0
M  V30 4109 H 387.469 -0.213672 4.24763 0
M  V30 4110 N 385.784 -1.5574 0.241426 0
M  V30 4111 C 386.716 -2.18469 -0.693091 0
M  V30 4112 C 387.729 -1.15942 -1.14286 0
M  V30 4113 O 388.918 -1.42832 -1.07058 0
M  V30 4114 C 386.018 -2.7696 -1.95311 0
M  V30 4115 C 385.191 -4.04853 -1.65568 0
M  V30 4116 C 384.25 -4.47715 -2.76474 0
M  V30 4117 O 383.276 -5.14205 -2.44094 0
M  V30 4118 N 384.478 -4.15044 -4.05855 0
M  V30 4119 H 387.243 -2.99292 -0.156388 0
M  V30 4120 H 384.804 -1.61784 0.0611752 0
M  V30 4121 H 386.796 -3.02594 -2.68736 0
M  V30 4122 H 385.366 -2.00326 -2.39975 0
M  V30 4123 H 384.586 -3.86865 -0.756886 0
M  V30 4124 H 385.874 -4.88246 -1.43153 0
M  V30 4125 H 385.272 -3.61654 -4.34998 0
M  V30 4126 H 383.829 -4.45526 -4.75762 0
M  V30 4127 N 387.262 0.0317525 -1.57568 0
M  V30 4128 C 388.678 0.38735 -1.54828 0
M  V30 4129 C 388.878 1.7677 -0.967187 0
M  V30 4130 O 387.934 2.45581 -0.587063 0
M  V30 4131 C 389.247 0.291667 -2.99282 0
M  V30 4132 C 390.795 0.368946 -3.10818 0
M  V30 4133 C 391.27 0.302741 -4.56998 0
M  V30 4134 N 392.761 0.361617 -4.61786 0
M  V30 4135 C 393.496 0.333238 -5.72431 0
M  V30 4136 N 392.992 0.257308 -6.92322 0
M  V30 4137 N 394.785 0.382769 -5.60795 0
M  V30 4138 H 386.936 -0.871609 -1.93692 0
M  V30 4139 H 389.199 -0.331161 -0.888277 0
M  V30 4140 H 388.905 -0.656794 -3.45513 0
M  V30 4141 H 388.779 1.08638 -3.61217 0
M  V30 4142 H 391.166 1.30784 -2.64536 0
M  V30 4143 H 391.247 -0.455066 -2.5172 0
M  V30 4144 H 390.891 -0.632473 -5.03947 0
M  V30 4145 H 390.821 1.14482 -5.14005 0
M  V30 4146 H 393.312 0.422923 -3.75526 0
M  V30 4147 H 393.625 0.24068 -7.72425 0
M  V30 4148 H 391.97 0.223396 -6.94641 0
M  V30 4149 H 395.161 0.44006 -4.66027 0
M  V30 4150 H 395.334 0.357184 -6.47015 0
M  V30 4151 N 388.74 1.54641 0.303973 0
M  V30 4152 C 389.67 1.88386 1.3796 0
M  V30 4153 C 390.651 0.742485 1.5304 0
M  V30 4154 O 391.836 0.997959 1.66597 0
M  V30 4155 C 388.966 2.12854 2.74427 0
M  V30 4156 C 387.92 3.28702 2.74115 0
M  V30 4157 C 387.246 3.38582 4.13844 0
M  V30 4158 C 388.546 4.65881 2.3612 0
M  V30 4159 H 390.24 2.78474 1.09966 0
M  V30 4160 H 387.786 1.33988 0.527556 0
M  V30 4161 H 389.739 2.35047 3.49758 0
M  V30 4162 H 388.463 1.19535 3.03939 0
M  V30 4163 H 387.122 3.06428 2.0124 0
M  V30 4164 H 386.77 2.42784 4.40528 0
M  V30 4165 H 386.47 4.16453 4.14537 0
M  V30 4166 H 387.994 3.63031 4.90959 0
M  V30 4167 H 389.408 4.87823 3.01167 0
M  V30 4168 H 387.805 5.46444 2.48031 0
M  V30 4169 H 388.875 4.66799 1.3125 0
M  V30 4170 N 390.218 -0.567019 1.47046 0
M  V30 4171 C 391.446 -1.35027 1.56765 0
M  V30 4172 C 391.861 -1.8758 0.214316 0
M  V30 4173 O 391.218 -1.64471 -0.790919 0
M  V30 4174 C 391.269 -2.52698 2.58507 0
M  V30 4175 O 390.99 -2.0232 3.88585 0
M  V30 4176 C 392.491 -3.45043 2.78316 0
M  V30 4177 H 389.711 -0.41195 0.529658 0
M  V30 4178 H 392.255 -0.687832 1.92585 0
M  V30 4179 H 390.41 -3.149 2.25648 0
M  V30 4180 H 390.824 -2.79068 4.44096 0
M  V30 4181 H 392.298 -4.2405 3.53391 0
M  V30 4182 H 392.775 -3.97971 1.85784 0
M  V30 4183 H 393.381 -2.88665 3.12334 0
M  V30 4184 N 391.696 -1.35014 -0.812953 0
M  V30 4185 C 392.942 -1.2812 -1.57204 0
M  V30 4186 C 393.275 0.145869 -1.93651 0
M  V30 4187 O 392.55 1.0937 -1.60836 0
M  V30 4188 C 392.833 -2.18162 -2.86492 0
M  V30 4189 C 392.686 -3.69454 -2.56561 0
M  V30 4190 C 394.005 -2.07439 -3.88145 0
M  V30 4191 H 391.124 -0.466746 -0.570366 0
M  V30 4192 H 393.766 -1.65357 -0.935783 0
M  V30 4193 H 391.916 -1.86535 -3.40789 0
M  V30 4194 H 393.588 -4.11493 -2.08497 0
M  V30 4195 H 391.831 -3.9005 -1.89851 0
M  V30 4196 H 392.502 -4.27835 -3.48799 0
M  V30 4197 H 394.978 -2.35228 -3.4323 0
M  V30 4198 H 393.854 -2.7265 -4.76396 0
M  V30 4199 H 394.115 -1.05439 -4.29343 0
M  V30 4200 N 393.175 1.03435 -1.18907 0
M  V30 4201 C 394.085 2.15075 -0.937015 0
M  V30 4202 C 395.101 1.73706 0.101085 0
M  V30 4203 O 396.277 2.01232 -0.0822948 0
M  V30 4204 C 393.342 3.43458 -0.473057 0
M  V30 4205 C 392.403 3.99172 -1.57989 0
M  V30 4206 C 391.636 5.21427 -1.13797 0
M  V30 4207 O 391.859 5.704 0.000725941 0
M  V30 4208 O 390.793 5.69837 -1.9383 0
M  V30 4209 H 394.619 2.39198 -1.87131 0
M  V30 4210 H 392.204 1.13506 -0.971427 0
M  V30 4211 H 394.086 4.20811 -0.222702 0
M  V30 4212 H 392.761 3.20793 0.432869 0
M  V30 4213 H 391.668 3.23178 -1.88433 0
M  V30 4214 H 393.001 4.2619 -2.46217 0
M  V30 4215 N 394.653 0.992116 1.22453 0
M  V30 4216 C 395.616 0.546883 2.2258 0
M  V30 4217 C 396.616 -0.369829 1.56489 0
M  V30 4218 O 397.806 -0.161896 1.73446 0
M  V30 4219 C 394.938 -0.204659 3.40285 0
M  V30 4220 H 396.131 1.43234 2.63484 0
M  V30 4221 H 393.684 0.779239 1.3549 0
M  V30 4222 H 394.419 -1.10614 3.04853 0
M  V30 4223 H 394.204 0.45354 3.89468 0
M  V30 4224 H 395.694 -0.504358 4.14543 0
M  V30 4225 N 396.131 -1.37776 0.765217 0
M  V30 4226 C 397.094 -2.28686 0.153416 0
M  V30 4227 C 398.094 -1.47727 -0.635081 0
M  V30 4228 O 399.284 -1.68027 -0.459632 0
M  V30 4229 C 396.416 -3.31608 -0.790495 0
M  V30 4230 H 397.609 -2.84297 0.954723 0
M  V30 4231 H 395.162 -1.46932 0.53299 0
M  V30 4232 H 395.897 -2.81109 -1.61705 0
M  V30 4233 H 395.682 -3.9144 -0.227348 0
M  V30 4234 H 397.172 -3.99559 -1.21419 0
M  V30 4235 N 397.609 -0.515225 -1.4894 0
M  V30 4236 C 398.541 0.292481 -2.27326 0
M  V30 4237 C 399.554 0.917838 -1.3446 0
M  V30 4238 O 400.743 0.798772 -1.5963 0
M  V30 4239 C 397.843 1.42803 -3.07344 0
M  V30 4240 C 397.016 0.907347 -4.27885 0
M  V30 4241 C 396.075 1.92222 -4.89834 0
M  V30 4242 O 395.101 1.48506 -5.49486 0
M  V30 4243 N 396.303 3.25355 -4.80754 0
M  V30 4244 H 399.068 -0.379721 -2.97285 0
M  V30 4245 H 396.629 -0.348638 -1.58102 0
M  V30 4246 H 398.621 2.10481 -3.45658 0
M  V30 4247 H 397.191 2.00414 -2.39902 0
M  V30 4248 H 396.411 0.0550218 -3.94162 0
M  V30 4249 H 397.699 0.538108 -5.05946 0
M  V30 4250 H 397.097 3.6355 -4.33414 0
M  V30 4251 H 395.654 3.88707 -5.23211 0
M  V30 4252 N 399.087 1.5561 -0.249682 0
M  V30 4253 C 400.334 1.99011 0.374287 0
M  V30 4254 C 400.662 1.13785 1.57744 0
M  V30 4255 O 399.917 0.189326 1.94782 0
M  V30 4256 C 400.216 3.4775 0.824887 0
M  V30 4257 C 399.882 4.50086 -0.270819 0
M  V30 4258 C 398.544 4.77791 -0.571746 0
M  V30 4259 C 400.896 5.11312 -1.01041 0
M  V30 4260 C 398.224 5.63997 -1.61629 0
M  V30 4261 C 400.576 5.98651 -2.0445 0
M  V30 4262 C 399.24 6.24688 -2.35204 0
M  V30 4263 H 398.51 0.728233 0.136961 0
M  V30 4264 H 401.157 1.88122 -0.358087 0
M  V30 4265 H 399.462 3.55985 1.63651 0
M  V30 4266 H 401.159 3.78721 1.31799 0
M  V30 4267 H 397.749 4.28592 -0.026136 0
M  V30 4268 H 401.933 4.89953 -0.791177 0
M  V30 4269 H 397.189 5.82425 -1.85988 0
M  V30 4270 H 401.363 6.45135 -2.62248 0
M  V30 4271 H 398.99 6.91281 -3.16282 0
M  V30 4272 N 400.565 -0.0233959 1.57583 0
M  V30 4273 C 401.814 -0.712133 1.8871 0
M  V30 4274 C 402.127 -1.76217 0.848944 0
M  V30 4275 O 403.333 -2.50389 1.04964 0
M  V30 4276 C 401.789 -1.3177 3.3491 0
M  V30 4277 C 401.397 -0.303715 4.46969 0
M  V30 4278 C 403.141 -1.98598 3.75179 0
M  V30 4279 C 401.048 -0.917945 5.84233 0
M  V30 4280 H 399.978 -0.269735 0.704101 0
M  V30 4281 H 402.629 0.0333114 1.8347 0
M  V30 4282 H 401.011 -2.11304 3.34913 0
M  V30 4283 H 402.185 0.465325 4.58445 0
M  V30 4284 H 400.5 0.2628 4.1557 0
M  V30 4285 H 403.097 -2.45416 4.75053 0
M  V30 4286 H 403.44 -2.80659 3.07468 0
M  V30 4287 H 403.973 -1.25831 3.77374 0
M  V30 4288 H 400.712 -0.136633 6.55358 0
M  V30 4289 H 400.232 -1.65669 5.76467 0
M  V30 4290 H 401.911 -1.4236 6.31144 0
M  V30 4291 N 402.043 -1.548 -0.295768 0
M  V30 4292 C 402.975 -1.82492 -1.3867 0
M  V30 4293 C 403.988 -0.708134 -1.46592 0
M  V30 4294 O 405.177 -0.985686 -1.48817 0
M  V30 4295 C 402.277 -1.95256 -2.76999 0
M  V30 4296 C 401.45 -3.25709 -2.91946 0
M  V30 4297 C 400.509 -3.28824 -4.10806 0
M  V30 4298 O 399.535 -4.02328 -4.02643 0
M  V30 4299 N 400.737 -2.5459 -5.21694 0
M  V30 4300 H 403.502 -2.76646 -1.15269 0
M  V30 4301 H 401.063 -1.54438 -0.485849 0
M  V30 4302 H 403.055 -1.94736 -3.54768 0
M  V30 4303 H 401.625 -1.08072 -2.93324 0
M  V30 4304 H 400.845 -3.38959 -2.01247 0
M  V30 4305 H 402.133 -4.11786 -2.98847 0
M  V30 4306 H 401.531 -1.94512 -5.31208 0
M  V30 4307 H 400.088 -2.59818 -5.97778 0
M  V30 4308 N 403.521 0.559213 -1.47345 0
M  V30 4309 C 404.937 0.884943 -1.32819 0
M  V30 4310 C 405.137 1.98988 -0.317173 0
M  V30 4311 O 404.193 2.51031 0.272011 0
M  V30 4312 C 405.506 1.28007 -2.72093 0
M  V30 4313 C 407.054 1.39161 -2.80363 0
M  V30 4314 C 407.529 1.82031 -4.20272 0
M  V30 4315 N 409.02 1.89185 -4.22804 0
M  V30 4316 C 409.755 2.2368 -5.27973 0
M  V30 4317 N 409.251 2.56802 -6.43447 0
M  V30 4318 N 411.044 2.24436 -5.15349 0
M  V30 4319 H 403.195 -0.170304 -2.11716 0
M  V30 4320 H 405.458 -0.0135247 -0.947904 0
M  V30 4321 H 405.164 0.542027 -3.47498 0
M  V30 4322 H 405.038 2.23665 -3.03733 0
M  V30 4323 H 407.425 2.12048 -2.05231 0
M  V30 4324 H 407.506 0.41696 -2.52379 0
M  V30 4325 H 407.15 1.09715 -4.95908 0
M  V30 4326 H 407.08 2.80495 -4.45679 0
M  V30 4327 H 409.571 1.65982 -3.39497 0
M  V30 4328 H 409.884 2.82144 -7.19454 0
M  V30 4329 H 408.229 2.54387 -6.46771 0
M  V30 4330 H 411.42 1.97998 -4.24163 0
M  V30 4331 H 411.593 2.50989 -5.97418 0
M  V30 4332 N 404.999 1.35443 0.805782 0
M  V30 4333 C 405.947 1.28465 1.93906 0
M  V30 4334 C 406.941 0.17943 1.68447 0
M  V30 4335 O 408.147 0.345459 1.76654 0
M  V30 4336 H 404.522 0.399528 0.637088 0
M  V30 4337 H 406.493 2.24206 1.96912 0
M  V30 4338 C 405.242 1.07432 3.30687 0
M  V30 4339 H 404.565 1.91716 3.50835 0
M  V30 4340 H 406.005 1.06591 4.10383 0
M  V30 4341 C 404.464 -0.22179 3.36169 0
M  V30 4342 O 404.994 -1.21731 3.82811 0
M  V30 4343 N 403.2 -0.260841 2.89427 0
M  V30 4344 H 402.747 0.549884 2.51663 0
M  V30 4345 H 402.705 -1.12777 2.93477 0
M  V30 4346 N 406.477 -1.02803 1.19454 0
M  V30 4347 C 407.705 -1.79841 1.02297 0
M  V30 4348 C 408.12 -1.83879 -0.428259 0
M  V30 4349 O 407.477 -1.28345 -1.29745 0
M  V30 4350 C 407.528 -3.24852 1.58598 0
M  V30 4351 O 407.249 -3.21097 2.98041 0
M  V30 4352 C 408.75 -4.18485 1.46236 0
M  V30 4353 H 405.97 -0.565936 0.360496 0
M  V30 4354 H 408.514 -1.2948 1.58288 0
M  V30 4355 H 406.669 -3.72401 1.06753 0
M  V30 4356 H 407.083 -4.12033 3.24545 0
M  V30 4357 H 408.557 -5.18121 1.90407 0
M  V30 4358 H 409.034 -4.37254 0.41301 0
M  V30 4359 H 409.64 -3.76811 1.97215 0
M  V30 4360 N 407.956 -0.998596 -1.21925 0
M  V30 4361 C 408.866 -0.562736 -2.27751 0
M  V30 4362 C 409.882 0.391203 -1.69545 0
M  V30 4363 O 411.058 0.256625 -1.99758 0
M  V30 4364 C 408.123 0.11012 -3.46525 0
M  V30 4365 C 407.184 -0.887495 -4.20026 0
M  V30 4366 C 406.417 -0.246654 -5.3313 0
M  V30 4367 O 406.64 0.958088 -5.62296 0
M  V30 4368 O 405.574 -0.954374 -5.94286 0
M  V30 4369 H 409.4 -1.44329 -2.67213 0
M  V30 4370 H 406.985 -0.767135 -1.28201 0
M  V30 4371 H 408.867 0.486756 -4.18579 0
M  V30 4372 H 407.542 0.965154 -3.08976 0
M  V30 4373 H 406.449 -1.31517 -3.5022 0
M  V30 4374 H 407.782 -1.71191 -4.6147 0
M  V30 4375 N 409.434 1.37368 -0.772513 0
M  V30 4376 C 410.662 2.03942 -0.348588 0
M  V30 4377 C 411.077 1.58264 1.02947 0
M  V30 4378 O 410.434 0.764246 1.65727 0
M  V30 4379 C 410.485 3.5946 -0.38351 0
M  V30 4380 O 410.206 4.03468 -1.70721 0
M  V30 4381 C 411.707 4.4327 0.0519152 0
M  V30 4382 H 408.927 0.654931 -0.145966 0
M  V30 4383 H 411.471 1.75686 -1.04665 0
M  V30 4384 H 409.626 3.86486 0.265978 0
M  V30 4385 H 410.04 4.97991 -1.64636 0
M  V30 4386 H 411.514 5.51995 -0.0236733 0
M  V30 4387 H 411.991 4.2514 1.10238 0
M  V30 4388 H 412.597 4.21471 -0.569415 0
M  V30 4389 N 410.912 0.523116 1.48665 0
M  V30 4390 C 412.323 0.0808997 1.86525 0
M  V30 4391 C 412.674 -1.33975 1.43336 0
M  V30 4392 O 411.799 -2.00221 0.821009 0
M  V30 4393 C 412.394 0.140037 3.3851 0
M  V30 4394 C 410.953 -0.246948 3.75589 0
M  V30 4395 C 410.1 0.502845 2.72703 0
M  V30 4396 H 413.051 0.734736 1.40667 0
M  V30 4397 H 413.072 -0.649945 3.74908 0
M  V30 4398 H 412.584 1.17412 3.69914 0
M  V30 4399 H 410.685 -1.28343 3.49798 0
M  V30 4400 H 410.798 0.0878859 4.79019 0
M  V30 4401 H 409.162 -0.0500581 2.54651 0
M  V30 4402 H 409.945 1.53743 3.0695 0
M  V30 4403 N 412.39 -1.55475 0.257931 0
M  V30 4404 C 413.637 -1.99207 -0.363728 0
M  V30 4405 C 413.965 -1.1462 -1.57139 0
M  V30 4406 O 413.22 -0.199653 -1.94679 0
M  V30 4407 C 413.519 -3.48183 -0.806433 0
M  V30 4408 C 413.185 -4.49936 0.294684 0
M  V30 4409 C 411.847 -4.77481 0.597076 0
M  V30 4410 C 414.199 -5.10769 1.03751 0
M  V30 4411 C 411.527 -5.63132 1.64618 0
M  V30 4412 C 413.879 -5.97558 2.07622 0
M  V30 4413 C 412.543 -6.23432 2.38514 0
M  V30 4414 H 411.813 -0.728949 -0.133097 0
M  V30 4415 H 414.46 -1.8793 0.368059 0
M  V30 4416 H 412.765 -3.56848 -1.61761 0
M  V30 4417 H 414.462 -3.79415 -1.29789 0
M  V30 4418 H 411.052 -4.28572 0.0488649 0
M  V30 4419 H 415.236 -4.89527 0.817149 0
M  V30 4420 H 410.492 -5.8143 1.89074 0
M  V30 4421 H 414.666 -6.43735 2.65666 0
M  V30 4422 H 412.293 -6.89594 3.19943 0
M  V30 4423 N 413.868 0.0150385 -1.57593 0
M  V30 4424 C 414.798 1.01047 -2.10503 0
M  V30 4425 C 415.779 1.36816 -1.01071 0
M  V30 4426 O 416.964 1.45455 -1.28672 0
M  V30 4427 C 414.094 2.30708 -2.59598 0
M  V30 4428 C 413.048 2.09142 -3.73421 0
M  V30 4429 C 412.374 3.44685 -4.08774 0
M  V30 4430 C 413.674 1.46619 -5.01298 0
M  V30 4431 H 415.368 0.569978 -2.93925 0
M  V30 4432 H 412.914 0.272724 -1.41394 0
M  V30 4433 H 414.867 3.00687 -2.95238 0
M  V30 4434 H 413.591 2.76843 -1.73279 0
M  V30 4435 H 412.25 1.41592 -3.38153 0
M  V30 4436 H 411.898 3.88495 -3.195 0
M  V30 4437 H 411.598 3.31077 -4.8545 0
M  V30 4438 H 413.122 4.16004 -4.4696 0
M  V30 4439 H 414.536 2.06535 -5.34805 0
M  V30 4440 H 412.933 1.43544 -5.82679 0
M  V30 4441 H 414.003 0.433611 -4.82957 0
M  V30 4442 N 415.346 1.54954 0.287554 0
M  V30 4443 C 416.276 1.89839 1.35954 0
M  V30 4444 C 417.257 0.758675 1.52244 0
M  V30 4445 O 418.442 1.01557 1.65529 0
M  V30 4446 C 415.572 2.15753 2.72154 0
M  V30 4447 C 414.526 3.3159 2.70614 0
M  V30 4448 C 413.852 3.42952 4.10229 0
M  V30 4449 C 415.152 4.68359 2.31165 0
M  V30 4450 H 416.846 2.79625 1.07007 0
M  V30 4451 H 414.392 1.3454 0.513316 0
M  V30 4452 H 416.345 2.38743 3.47246 0
M  V30 4453 H 415.069 1.22752 3.02654 0
M  V30 4454 H 413.728 3.08545 1.97979 0
M  V30 4455 H 413.376 2.47443 4.37928 0
M  V30 4456 H 413.076 4.20826 4.10097 0
M  V30 4457 H 414.6 3.68218 4.87081 0
M  V30 4458 H 416.014 4.9099 2.95976 0
M  V30 4459 H 414.411 5.49044 2.42221 0
M  V30 4460 H 415.481 4.68165 1.26291 0
M  V30 4461 N 416.824 -0.551391 1.4764 0
M  V30 4462 C 418.07 -1.31024 1.54792 0
M  V30 4463 C 418.403 -1.9304 0.211967 0
M  V30 4464 O 417.678 -1.78175 -0.77999 0
M  V30 4465 C 417.961 -2.41593 2.67029 0
M  V30 4466 C 417.814 -1.84408 4.10261 0
M  V30 4467 C 419.133 -3.43488 2.75143 0
M  V30 4468 H 416.252 -0.475031 0.563485 0
M  V30 4469 H 418.894 -0.616454 1.79722 0
M  V30 4470 H 417.044 -3.00772 2.45904 0
M  V30 4471 H 418.716 -1.29445 4.42766 0
M  V30 4472 H 416.959 -1.15051 4.18265 0
M  V30 4473 H 417.63 -2.64367 4.84576 0
M  V30 4474 H 420.106 -2.94236 2.94218 0
M  V30 4475 H 418.982 -4.18274 3.55441 0
M  V30 4476 H 419.243 -4.02703 1.82435 0
M  V30 4477 N 418.302 -1.35869 -0.798587 0
M  V30 4478 C 419.232 -1.32118 -1.92528 0
M  V30 4479 C 420.213 -0.194209 -1.68988 0
M  V30 4480 O 421.398 -0.390426 -1.90235 0
M  V30 4481 C 418.528 -1.10047 -3.29404 0
M  V30 4482 C 417.482 -2.19471 -3.67446 0
M  V30 4483 C 416.808 -1.82555 -5.02571 0
M  V30 4484 C 418.108 -3.61495 -3.76987 0
M  V30 4485 H 419.802 -2.26394 -1.95924 0
M  V30 4486 H 417.348 -1.08981 -0.94123 0
M  V30 4487 H 419.301 -1.06061 -4.07835 0
M  V30 4488 H 418.025 -0.122195 -3.26371 0
M  V30 4489 H 416.684 -2.22568 -2.91306 0
M  V30 4490 H 416.332 -0.833249 -4.9605 0
M  V30 4491 H 416.032 -2.5581 -5.28995 0
M  V30 4492 H 417.556 -1.80108 -5.83432 0
M  V30 4493 H 418.97 -3.60676 -4.4563 0
M  V30 4494 H 417.367 -4.33577 -4.14887 0
M  V30 4495 H 418.437 -3.97065 -2.78329 0
M  V30 4496 N 419.78 1.02168 -1.19998 0
M  V30 4497 C 421.005 1.79833 -1.03319 0
M  V30 4498 C 421.43 1.83504 0.413281 0
M  V30 4499 O 420.788 1.26635 1.29743 0
M  V30 4500 C 420.836 3.22396 -1.61533 0
M  V30 4501 O 419.94 4.03555 -0.849519 0
M  V30 4502 H 419.281 0.554872 -0.364709 0
M  V30 4503 H 421.811 1.28542 -1.59179 0
M  V30 4504 H 421.821 3.73124 -1.65054 0
M  V30 4505 H 420.496 3.19039 -2.66809 0
M  V30 4506 H 419.073 3.62169 -0.888129 0
M  V30 4507 N 421.258 1.00505 1.21394 0
M  V30 4508 C 422.488 0.705584 1.94178 0
M  V30 4509 C 422.896 -0.735846 1.74304 0
M  V30 4510 O 422.239 -1.50954 1.04683 0
M  V30 4511 C 422.301 0.94689 3.46806 0
M  V30 4512 C 421.965 2.37517 3.90429 0
M  V30 4513 C 422.962 3.35539 3.97127 0
M  V30 4514 C 420.647 2.71284 4.22742 0
M  V30 4515 C 422.641 4.65395 4.3553 0
M  V30 4516 C 420.328 4.01356 4.60822 0
M  V30 4517 C 421.326 4.98223 4.67186 0
M  V30 4518 O 421.014 6.25969 5.04399 0
M  V30 4519 H 420.746 0.259216 0.624326 0
M  V30 4520 H 423.3 1.34592 1.55159 0
M  V30 4521 H 421.53 0.249386 3.85895 0
M  V30 4522 H 423.219 0.640804 4.0081 0
M  V30 4523 H 423.985 3.10786 3.7234 0
M  V30 4524 H 419.864 1.96581 4.16985 0
M  V30 4525 H 423.408 5.41002 4.40412 0
M  V30 4526 H 419.305 4.25893 4.85063 0
M  V30 4527 H 420.073 6.30085 5.22431 0
M  V30 4528 N 422.737 -1.36956 0.779787 0
M  V30 4529 C 423.667 -2.32761 0.185651 0
M  V30 4530 C 424.648 -1.56177 -0.673989 0
M  V30 4531 O 425.833 -1.84378 -0.609797 0
M  V30 4532 C 422.963 -3.40418 -0.687964 0
M  V30 4533 C 421.917 -4.27941 0.0710102 0
M  V30 4534 C 421.243 -5.26681 -0.922573 0
M  V30 4535 C 422.543 -5.07006 1.25467 0
M  V30 4536 H 424.237 -2.82698 0.986008 0
M  V30 4537 H 421.783 -1.3592 0.475592 0
M  V30 4538 H 423.736 -4.06423 -1.11348 0
M  V30 4539 H 422.46 -2.89025 -1.52093 0
M  V30 4540 H 421.119 -3.63478 0.47739 0
M  V30 4541 H 420.767 -4.71565 -1.7503 0
M  V30 4542 H 420.467 -5.86103 -0.419237 0
M  V30 4543 H 421.991 -5.9556 -1.34686 0
M  V30 4544 H 423.405 -5.66105 0.905401 0
M  V30 4545 H 421.802 -5.75793 1.69063 0
M  V30 4546 H 422.872 -4.3921 2.05481 0
M  V30 4547 N 424.215 -0.530993 -1.48385 0
M  V30 4548 C 425.165 0.251092 -2.26613 0
M  V30 4549 C 426.149 0.908977 -1.32765 0
M  V30 4550 O 427.341 0.811616 -1.57295 0
M  V30 4551 C 424.47 1.29677 -3.17866 0
M  V30 4552 C 423.556 0.643627 -4.19188 0
M  V30 4553 N 423.947 -0.271223 -5.05072 0
M  V30 4554 C 422.245 0.900711 -4.3681 0
M  V30 4555 C 422.946 -0.648109 -5.78078 0
M  V30 4556 N 421.922 -0.00895987 -5.43599 0
M  V30 4557 H 425.724 -0.452702 -2.90393 0
M  V30 4558 H 423.238 -0.349091 -1.58604 0
M  V30 4559 H 425.235 1.87079 -3.72568 0
M  V30 4560 H 423.895 2.00193 -2.55642 0
M  V30 4561 H 424.906 -0.643883 -5.13882 0
M  V30 4562 H 421.583 1.59636 -3.85775 0
M  V30 4563 H 422.973 -1.39833 -6.57188 0
M  V30 4564 N 425.693 1.55336 -0.266172 0
M  V30 4565 C 426.939 1.99692 0.353681 0
M  V30 4566 C 427.272 1.1543 1.56172 0
M  V30 4567 O 426.547 0.222218 1.93226 0
M  V30 4568 C 426.83 3.52316 0.74466 0
M  V30 4569 C 426.683 4.47337 -0.470101 0
M  V30 4570 C 428.002 4.10588 1.58447 0
M  V30 4571 H 425.121 0.725961 0.12708 0
M  V30 4572 H 427.763 1.86336 -0.371333 0
M  V30 4573 H 425.913 3.63829 1.36239 0
M  V30 4574 H 427.585 4.4778 -1.10864 0
M  V30 4575 H 425.828 4.19364 -1.10978 0
M  V30 4576 H 426.499 5.51788 -0.15291 0
M  V30 4577 H 428.975 4.02297 1.06286 0
M  V30 4578 H 427.851 5.17607 1.82686 0
M  V30 4579 H 428.112 3.60253 2.56262 0
M  V30 4580 N 427.171 -0.0066808 1.57599 0
M  V30 4581 C 428.121 -1.0086 2.04478 0
M  V30 4582 C 429.105 -1.30714 0.938231 0
M  V30 4583 O 430.297 -1.29924 1.20203 0
M  V30 4584 C 427.426 -2.30273 2.54615 0
M  V30 4585 C 426.512 -2.03413 3.72134 0
M  V30 4586 N 426.903 -1.46688 4.84062 0
M  V30 4587 C 425.201 -2.33589 3.79937 0
M  V30 4588 C 425.902 -1.36146 5.65543 0
M  V30 4589 N 424.878 -1.84477 5.1134 0
M  V30 4590 H 428.68 -0.564402 2.8843 0
M  V30 4591 H 426.194 -0.212521 1.61003 0
M  V30 4592 H 428.191 -3.02885 2.86472 0
M  V30 4593 H 426.851 -2.75352 1.72079 0
M  V30 4594 H 427.862 -1.14658 5.05049 0
M  V30 4595 H 424.539 -2.81589 3.08243 0
M  V30 4596 H 425.929 -0.925873 6.6549 0
M  V30 4597 N 428.649 -1.55105 -0.279332 0
M  V30 4598 C 429.877 -1.7943 -1.03017 0
M  V30 4599 C 430.292 -0.564456 -1.80165 0
M  V30 4600 O 429.649 0.466326 -1.76442 0
M  V30 4601 C 429.7 -3.0155 -1.99374 0
M  V30 4602 O 429.421 -4.19784 -1.25352 0
M  V30 4603 C 430.922 -3.3843 -2.86321 0
M  V30 4604 H 428.142 -0.597882 -0.304594 0
M  V30 4605 H 430.686 -2.02105 -0.312035 0
M  V30 4606 H 428.841 -2.81019 -2.66659 0
M  V30 4607 H 429.255 -4.88781 -1.90246 0
M  V30 4608 H 430.729 -4.27066 -3.49741 0
M  V30 4609 H 431.206 -2.57549 -3.5576 0
M  V30 4610 H 431.812 -3.61197 -2.24536 0
M  V30 4611 N 430.127 0.543554 -1.4793 0
M  V30 4612 C 431.09 1.63156 -1.60975 0
M  V30 4613 C 432.09 1.53346 -0.483899 0
M  V30 4614 O 433.28 1.5726 -0.749339 0
M  V30 4615 C 430.412 3.02743 -1.56716 0
M  V30 4616 H 431.605 1.52934 -2.57975 0
M  V30 4617 H 429.158 0.764557 -1.36324 0
M  V30 4618 H 429.893 3.18484 -0.611418 0
M  V30 4619 H 429.678 3.11272 -2.38438 0
M  V30 4620 H 431.168 3.81871 -1.6901 0
M  V30 4621 N 431.605 1.3629 0.791371 0
M  V30 4622 C 432.535 1.33137 1.91825 0
M  V30 4623 C 433.516 0.203168 1.68882 0
M  V30 4624 O 434.701 0.400509 1.90025 0
M  V30 4625 C 431.831 1.11793 3.28816 0
M  V30 4626 C 430.785 2.21417 3.66277 0
M  V30 4627 C 430.111 1.85218 5.01596 0
M  V30 4628 C 431.411 3.63489 3.75064 0
M  V30 4629 H 433.105 2.2743 1.9472 0
M  V30 4630 H 430.651 1.09479 0.935437 0
M  V30 4631 H 432.604 1.08222 4.07266 0
M  V30 4632 H 431.328 0.139501 3.26302 0
M  V30 4633 H 429.987 2.2411 2.90121 0
M  V30 4634 H 429.635 0.859544 4.95602 0
M  V30 4635 H 429.335 2.58611 5.27631 0
M  V30 4636 H 430.859 1.832 5.82469 0
M  V30 4637 H 432.273 3.63034 4.43711 0
M  V30 4638 H 430.67 4.35771 4.12582 0
M  V30 4639 H 431.74 3.98536 2.76219 0
M  V30 4640 N 433.083 -1.0153 1.20538 0
M  V30 4641 C 434.33 -1.75149 1.01633 0
M  V30 4642 C 434.658 -1.89189 -0.451399 0
M  V30 4643 O 433.913 -1.41551 -1.35136 0
M  V30 4644 C 434.212 -3.17213 1.64654 0
M  V30 4645 C 433.878 -3.23146 3.14464 0
M  V30 4646 C 432.54 -3.24472 3.55347 0
M  V30 4647 C 434.892 -3.21207 4.10458 0
M  V30 4648 C 432.22 -3.21532 4.90748 0
M  V30 4649 C 434.572 -3.19808 5.45807 0
M  V30 4650 C 433.236 -3.19439 5.86102 0
M  V30 4651 H 432.506 -0.640914 0.3719 0
M  V30 4652 H 435.153 -1.19071 1.49981 0
M  V30 4653 H 433.458 -3.76457 1.08571 0
M  V30 4654 H 435.155 -3.72871 1.4754 0
M  V30 4655 H 431.745 -3.2285 2.81897 0
M  V30 4656 H 435.929 -3.19351 3.79906 0
M  V30 4657 H 431.185 -3.19578 5.21229 0
M  V30 4658 H 435.359 -3.1726 6.19935 0
M  V30 4659 H 432.986 -3.16915 6.90991 0
M  V30 4660 N 434.561 -1.01147 -1.20859 0
M  V30 4661 C 435.786 -0.716698 -1.94623 0
M  V30 4662 C 436.211 0.715415 -1.73964 0
M  V30 4663 O 435.569 1.49157 -1.03062 0
M  V30 4664 C 435.617 -1.0513 -3.44935 0
M  V30 4665 O 434.721 -0.160131 -4.12089 0
M  V30 4666 H 434.062 -0.266404 -0.608214 0
M  V30 4667 H 436.592 -1.35346 -1.53436 0
M  V30 4668 H 436.602 -1.00086 -3.95533 0
M  V30 4669 H 435.277 -2.09475 -3.59295 0
M  V30 4670 H 433.854 -0.267657 -3.71938 0
M  V30 4671 N 436.039 1.36541 -0.78704 0
M  V30 4672 C 437.264 2.0409 -0.369053 0
M  V30 4673 C 437.689 1.58957 1.00569 0
M  V30 4674 O 437.047 0.756926 1.64743 0
M  V30 4675 C 437.095 3.57924 -0.438466 0
M  V30 4676 O 436.199 4.08642 0.555479 0
M  V30 4677 H 435.54 0.645142 -0.157122 0
M  V30 4678 H 438.07 1.74545 -1.06749 0
M  V30 4679 H 438.08 4.06887 -0.301218 0
M  V30 4680 H 436.755 3.90127 -1.44132 0
M  V30 4681 H 435.332 3.70958 0.380088 0
M  V30 4682 N 437.518 0.538854 1.48102 0
M  V30 4683 C 438.465 -0.219042 2.29758 0
M  V30 4684 C 439.435 -0.925562 1.37922 0
M  V30 4685 O 440.62 -0.924855 1.66886 0
M  V30 4686 C 437.76 -1.25452 3.2149 0
M  V30 4687 C 436.873 -0.555943 4.28408 0
M  V30 4688 C 436.008 -1.57512 5.0731 0
M  V30 4689 C 435.047 -0.860498 6.06021 0
M  V30 4690 N 434.184 -1.82564 6.77949 0
M  V30 4691 H 439.024 0.483449 2.94052 0
M  V30 4692 H 436.561 0.250247 1.44956 0
M  V30 4693 H 438.519 -1.86727 3.7308 0
M  V30 4694 H 437.149 -1.92528 2.591 0
M  V30 4695 H 436.201 0.170938 3.80016 0
M  V30 4696 H 437.513 0.00474616 4.988 0
M  V30 4697 H 436.667 -2.26191 5.62959 0
M  V30 4698 H 435.406 -2.16972 4.36778 0
M  V30 4699 H 434.411 -0.159686 5.49568 0
M  V30 4700 H 435.636 -0.271897 6.78555 0
M  V30 4701 H 433.582 -2.40915 6.10161 0
M  V30 4702 H 433.499 -1.31662 7.44447 0
M  V30 4703 H 434.767 -2.50414 7.38182 0
M  V30 4704 N 438.996 -1.55193 0.274407 0
M  V30 4705 C 440.273 -1.91584 -0.394331 0
M  V30 4706 C 440.653 -1.19858 -1.73774 0
M  V30 4707 O 440.001 -0.3252 -2.26174 0
M  V30 4708 C 440.211 -3.4487 -0.535311 0
M  V30 4709 C 441.559 -4.16636 -0.818534 0
M  V30 4710 O 442.583 -3.5076 -0.620146 0
M  V30 4711 O 441.442 -5.33209 -1.19792 0
M  V30 4712 H 438.536 -0.798349 -0.215794 0
M  V30 4713 H 441.082 -1.66646 0.320507 0
M  V30 4714 H 439.854 -3.89145 0.410141 0
M  V30 4715 H 439.477 -3.75759 -1.29964 0
M  V30 4716 N 440.474 -0.00167713 -1.576 0
M  V30 4717 C 441.721 0.68282 -1.90641 0
M  V30 4718 C 442.049 1.73686 -0.875415 0
M  V30 4719 O 441.304 1.95334 0.119575 0
M  V30 4720 C 441.603 1.36189 -3.30435 0
M  V30 4721 C 441.269 0.440887 -4.48739 0
M  V30 4722 C 439.931 0.187312 -4.80835 0
M  V30 4723 C 442.283 -0.193134 -5.20842 0
M  V30 4724 C 439.611 -0.70855 -5.82406 0
M  V30 4725 C 441.963 -1.07688 -6.23367 0
M  V30 4726 C 440.627 -1.33962 -6.53919 0
M  V30 4727 H 439.897 0.249862 -0.697603 0
M  V30 4728 H 442.544 -0.0575642 -1.91413 0
M  V30 4729 H 440.849 2.17636 -3.25794 0
M  V30 4730 H 442.546 1.89759 -3.5326 0
M  V30 4731 H 439.136 0.648694 -4.23663 0
M  V30 4732 H 443.32 -0.0102445 -4.96299 0
M  V30 4733 H 438.576 -0.920097 -6.04437 0
M  V30 4734 H 442.75 -1.57451 -6.78367 0
M  V30 4735 H 440.377 -2.03549 -7.32442 0
M  V30 4736 N 441.952 1.55251 0.271103 0
M  V30 4737 C 442.915 1.87484 1.31842 0
M  V30 4738 C 443.915 0.749545 1.42262 0
M  V30 4739 O 445.105 1.01771 1.4138 0
M  V30 4740 C 442.237 2.0818 2.69951 0
M  V30 4741 H 443.43 2.81108 1.0449 0
M  V30 4742 H 440.983 1.47771 0.509258 0
M  V30 4743 H 441.718 1.16944 3.02481 0
M  V30 4744 H 441.503 2.90114 2.63774 0
M  V30 4745 H 442.993 2.34385 3.4562 0
M  V30 4746 N 443.43 -0.535701 1.48216 0
M  V30 4747 C 444.678 -1.28928 1.55634 0
M  V30 4748 C 444.999 -1.93645 0.229514 0
M  V30 4749 O 444.269 -1.81038 -0.74846 0
M  V30 4750 H 442.849 -0.47884 0.573342 0
M  V30 4751 H 445.511 -0.623853 1.84646 0
M  V30 4752 H 444.607 -2.07157 2.33436 0
M  V30 4753 N 444.908 -1.36708 -0.784132 0
M  V30 4754 C 445.855 -1.31466 -1.89698 0
M  V30 4755 C 446.825 -0.18239 -1.65096 0
M  V30 4756 O 448.01 -0.369762 -1.87183 0
M  V30 4757 C 445.15 -1.1151 -3.26588 0
M  V30 4758 C 444.263 -2.33859 -3.63227 0
M  V30 4759 C 443.398 -2.06873 -4.89262 0
M  V30 4760 C 442.437 -3.25154 -5.18595 0
M  V30 4761 N 441.574 -2.978 -6.35814 0
M  V30 4762 H 446.414 -2.26619 -1.93515 0
M  V30 4763 H 443.951 -1.12625 -0.946256 0
M  V30 4764 H 445.909 -0.979653 -4.05535 0
M  V30 4765 H 444.539 -0.200103 -3.22179 0
M  V30 4766 H 443.591 -2.58188 -2.79362 0
M  V30 4767 H 444.903 -3.22109 -3.8085 0
M  V30 4768 H 444.057 -1.90289 -5.76086 0
M  V30 4769 H 442.796 -1.15942 -4.73718 0
M  V30 4770 H 441.801 -3.42292 -4.30251 0
M  V30 4771 H 443.026 -4.1692 -5.36055 0
M  V30 4772 H 440.972 -2.09485 -6.21653 0
M  V30 4773 H 440.889 -3.7959 -6.53794 0
M  V30 4774 H 442.157 -2.84805 -7.25607 0
M  V30 4775 N 446.386 1.0089 -1.21074 0
M  V30 4776 C 447.611 1.78727 -1.05221 0
M  V30 4777 C 448.036 1.83932 0.393795 0
M  V30 4778 O 447.394 1.28004 1.28393 0
M  V30 4779 C 447.442 3.20665 -1.64944 0
M  V30 4780 O 446.546 4.02632 -0.892273 0
M  V30 4781 H 445.887 0.550973 -0.370574 0
M  V30 4782 H 448.417 1.26847 -1.60534 0
M  V30 4783 H 448.427 3.71352 -1.69002 0
M  V30 4784 H 447.102 3.16191 -2.70177 0
M  V30 4785 H 445.679 3.61207 -0.926492 0
M  V30 4786 N 447.864 1.01787 1.20321 0
M  V30 4787 C 448.796 0.547357 2.22568 0
M  V30 4788 C 449.809 -0.370922 1.58518 0
M  V30 4789 O 450.998 -0.169067 1.77698 0
M  V30 4790 C 448.098 -0.223031 3.38165 0
M  V30 4791 C 447.271 0.697472 4.31803 0
M  V30 4792 C 446.33 -0.025562 5.26194 0
M  V30 4793 O 445.356 0.597367 5.66057 0
M  V30 4794 N 446.558 -1.29999 5.65757 0
M  V30 4795 H 449.323 1.42668 2.63564 0
M  V30 4796 H 446.884 0.895552 1.34876 0
M  V30 4797 H 448.876 -0.716002 3.98316 0
M  V30 4798 H 447.446 -1.00366 2.9605 0
M  V30 4799 H 446.666 1.37073 3.69601 0
M  V30 4800 H 447.954 1.32347 4.91286 0
M  V30 4801 H 447.352 -1.827 5.35385 0
M  V30 4802 H 445.909 -1.73766 6.28211 0
M  V30 4803 N 449.342 -1.36122 0.79427 0
M  V30 4804 C 450.292 -2.27373 0.169017 0
M  V30 4805 C 451.276 -1.4719 -0.649913 0
M  V30 4806 O 452.468 -1.69518 -0.50919 0
M  V30 4807 C 449.597 -3.36264 -0.691455 0
M  V30 4808 C 448.683 -4.2388 0.13653 0
M  V30 4809 N 449.074 -4.91519 1.19345 0
M  V30 4810 C 447.372 -4.45921 -0.0838499 0
M  V30 4811 C 448.073 -5.56369 1.6979 0
M  V30 4812 N 447.049 -5.34204 1.00634 0
M  V30 4813 H 450.851 -2.77154 0.977897 0
M  V30 4814 H 448.365 -1.49504 0.634208 0
M  V30 4815 H 450.362 -4.00572 -1.15534 0
M  V30 4816 H 449.022 -2.88037 -1.49883 0
M  V30 4817 H 450.033 -4.9334 1.57594 0
M  V30 4818 H 446.71 -4.08518 -0.861341 0
M  V30 4819 H 448.1 -6.20368 2.58055 0
M  V30 4820 N 450.82 -0.546701 -1.47814 0
M  V30 4821 C 452.068 -0.0187037 -2.02091 0
M  V30 4822 C 452.389 1.33168 -1.42447 0
M  V30 4823 O 451.659 1.86619 -0.595839 0
M  V30 4824 H 450.239 -0.00392531 -0.74699 0
M  V30 4825 H 452.901 -0.714327 -1.81338 0
M  V30 4826 H 451.997 0.0772219 -3.12004 0
M  V30 4827 N 452.299 1.55045 -0.282633 0
M  V30 4828 C 453.545 2.00056 0.332481 0
M  V30 4829 C 453.878 1.1708 1.54939 0
M  V30 4830 O 453.153 0.2427 1.9298 0
M  V30 4831 C 453.436 3.53086 0.70725 0
M  V30 4832 C 453.289 4.46813 -0.517521 0
M  V30 4833 C 454.608 4.12245 1.54084 0
M  V30 4834 H 451.727 0.727268 0.119373 0
M  V30 4835 H 454.369 1.85932 -0.391076 0
M  V30 4836 H 452.519 3.65253 1.32372 0
M  V30 4837 H 454.191 4.46579 -1.15607 0
M  V30 4838 H 452.434 4.18163 -1.1542 0
M  V30 4839 H 453.105 5.51595 -0.211426 0
M  V30 4840 H 455.581 4.03401 1.02013 0
M  V30 4841 H 454.457 5.19515 1.77186 0
M  V30 4842 H 454.718 3.62951 2.52427 0
M  V30 4843 N 453.777 0.010035 1.57597 0
M  V30 4844 C 455.007 -0.682422 1.95004 0
M  V30 4845 C 455.415 -1.67278 0.884014 0
M  V30 4846 O 454.758 -1.83129 -0.144672 0
M  V30 4847 C 454.82 -1.46141 3.28456 0
M  V30 4848 C 454.484 -0.631523 4.52615 0
M  V30 4849 C 455.481 0.0850905 5.1983 0
M  V30 4850 C 453.166 -0.574539 4.99003 0
M  V30 4851 C 455.16 0.847566 6.3174 0
M  V30 4852 C 452.847 0.191655 6.10799 0
M  V30 4853 C 453.845 0.901432 6.77025 0
M  V30 4854 O 453.533 1.65511 7.86677 0
M  V30 4855 H 453.265 -0.194361 0.647456 0
M  V30 4856 H 455.819 0.060312 2.05311 0
M  V30 4857 H 454.049 -2.24885 3.14585 0
M  V30 4858 H 455.738 -2.04016 3.50902 0
M  V30 4859 H 456.504 0.0502812 4.84974 0
M  V30 4860 H 452.383 -1.11654 4.47274 0
M  V30 4861 H 455.927 1.4021 6.83364 0
M  V30 4862 H 451.824 0.228249 6.45096 0
M  V30 4863 H 452.592 1.57287 8.03245 0
M  V30 4864 N 455.255 -1.55392 -0.262866 0
M  V30 4865 C 456.503 -1.76127 -0.991147 0
M  V30 4866 C 456.824 -0.571083 -1.8645 0
M  V30 4867 O 456.094 0.413698 -1.91482 0
M  V30 4868 H 454.674 -0.649528 -0.368948 0
M  V30 4869 H 457.336 -1.9281 -0.284655 0
M  V30 4870 H 456.432 -2.6663 -1.62219 0
M  V30 4871 N 456.733 0.527833 -1.48498 0
M  V30 4872 C 458.01 1.28905 -1.47115 0
M  V30 4873 C 458.39 2.10297 -0.184007 0
M  V30 4874 O 457.738 2.12728 0.834218 0
M  V30 4875 C 457.948 2.16866 -2.73441 0
M  V30 4876 C 459.296 2.76936 -3.21857 0
M  V30 4877 O 460.32 2.27152 -2.74373 0
M  V30 4878 O 459.179 3.67496 -4.04486 0
M  V30 4879 H 456.273 0.581918 -0.587623 0
M  V30 4880 H 458.819 0.544311 -1.60734 0
M  V30 4881 H 457.591 1.56521 -3.58632 0
M  V30 4882 H 457.214 2.98583 -2.62553 0
M  V30 4883 N 458.211 1.37122 0.776871 0
M  V30 4884 C 459.174 1.32301 1.8716 0
M  V30 4885 C 460.174 0.228099 1.59174 0
M  V30 4886 O 461.364 0.483642 1.67352 0
M  V30 4887 C 458.496 1.054 3.24197 0
M  V30 4888 H 459.689 2.29673 1.92848 0
M  V30 4889 H 457.242 1.22077 0.97606 0
M  V30 4890 H 457.977 0.0853872 3.24188 0
M  V30 4891 H 457.762 1.84648 3.45901 0
M  V30 4892 H 459.252 1.04664 4.04271 0
M  V30 4893 N 459.689 -1.00246 1.21608 0
M  V30 4894 C 460.935 -1.74319 1.03638 0
M  V30 4895 C 461.268 -1.89408 -0.428749 0
M  V30 4896 O 460.543 -1.43026 -1.3181 0
M  V30 4897 C 460.826 -3.15431 1.73711 0
M  V30 4898 C 460.679 -3.08049 3.27759 0
M  V30 4899 C 461.998 -4.14407 1.48173 0
M  V30 4900 H 459.117 -0.632741 0.377899 0
M  V30 4901 H 461.759 -1.16853 1.49818 0
M  V30 4902 H 459.909 -3.64493 1.34452 0
M  V30 4903 H 461.581 -2.66681 3.76403 0
M  V30 4904 H 459.824 -2.45088 3.57931 0
M  V30 4905 H 460.495 -4.07862 3.71958 0
M  V30 4906 H 462.971 -3.74061 1.82258 0
M  V30 4907 H 461.847 -5.11279 1.99713 0
M  V30 4908 H 462.108 -4.40174 0.412273 0
M  V30 4909 N 461.167 -1.02423 -1.1978 0
M  V30 4910 C 462.077 -0.610919 -2.26506 0
M  V30 4911 C 463.093 0.355152 -1.70337 0
M  V30 4912 O 464.269 0.214195 -2.00258 0
M  V30 4913 C 461.334 0.0365921 -3.46681 0
M  V30 4914 C 460.395 -0.976389 -4.18049 0
M  V30 4915 C 459.628 -0.359683 -5.32487 0
M  V30 4916 O 459.851 0.838601 -5.64202 0
M  V30 4917 O 458.785 -1.08022 -5.92127 0
M  V30 4918 H 462.611 -1.49965 -2.64091 0
M  V30 4919 H 460.196 -0.794156 -1.26545 0
M  V30 4920 H 462.078 0.39786 -4.19518 0
M  V30 4921 H 460.753 0.899398 -3.10954 0
M  V30 4922 H 459.66 -1.38916 -3.47352 0
M  V30 4923 H 460.993 -1.80941 -4.57735 0
M  V30 4924 N 462.645 1.35699 -0.801477 0
M  V30 4925 C 463.555 2.33661 -0.209691 0
M  V30 4926 C 464.571 1.6162 0.644591 0
M  V30 4927 O 465.747 1.93529 0.557545 0
M  V30 4928 C 462.812 3.40816 0.636033 0
M  V30 4929 C 461.873 4.28639 -0.238147 0
M  V30 4930 C 461.106 5.30676 0.567307 0
M  V30 4931 O 461.329 5.41174 1.8024 0
M  V30 4932 O 460.263 6.01887 -0.0391336 0
M  V30 4933 H 464.089 2.8606 -1.01996 0
M  V30 4934 H 461.674 1.38379 -0.563164 0
M  V30 4935 H 463.556 4.06301 1.11791 0
M  V30 4936 H 462.231 2.90696 1.42399 0
M  V30 4937 H 461.138 3.66152 -0.767044 0
M  V30 4938 H 462.471 4.82143 -0.989915 0
M  V30 4939 N 464.123 0.554532 1.47522 0
M  V30 4940 C 465.056 -0.242442 2.26908 0
M  V30 4941 C 466.034 -0.922722 1.33883 0
M  V30 4942 O 467.218 -0.942244 1.63261 0
M  V30 4943 C 464.345 -1.34525 3.10839 0
M  V30 4944 C 463.391 -0.773805 4.19422 0
M  V30 4945 S 464.224 0.377525 5.34168 0
M  V30 4946 C 465.38 -0.727164 6.21662 0
M  V30 4947 H 465.613 0.431218 2.94156 0
M  V30 4948 H 463.146 0.3408 1.50592 0
M  V30 4949 H 465.104 -1.97683 3.59766 0
M  V30 4950 H 463.765 -1.99073 2.42958 0
M  V30 4951 H 462.958 -1.60187 4.77866 0
M  V30 4952 H 462.56 -0.218448 3.73361 0
M  V30 4953 H 464.852 -1.61992 6.57849 0
M  V30 4954 H 465.795 -0.180135 7.07871 0
M  V30 4955 H 466.203 -1.01863 5.55233 0
M  V30 4956 N 465.601 -1.54893 0.290851 0
M  V30 4957 C 466.878 -1.91991 -0.373989 0
M  V30 4958 C 467.258 -1.21694 -1.72493 0
M  V30 4959 O 466.606 -0.34917 -2.25816 0
M  V30 4960 C 466.816 -3.45419 -0.498703 0
M  V30 4961 C 468.164 -4.1748 -0.774298 0
M  V30 4962 O 469.188 -3.51398 -0.582908 0
M  V30 4963 O 468.047 -5.3445 -1.14129 0
M  V30 4964 H 465.141 -0.800593 -0.207315 0
M  V30 4965 H 467.687 -1.66297 0.338164 0
M  V30 4966 H 466.459 -3.88688 0.451392 0
M  V30 4967 H 466.082 -3.77117 -1.25972 0
M  V30 4968 N 467.08 -0.0183926 -1.57589 0
M  V30 4969 C 468.326 0.657813 -1.92469 0
M  V30 4970 C 468.681 1.70349 -0.894375 0
M  V30 4971 O 467.974 1.91384 0.0910389 0
M  V30 4972 C 468.168 1.32676 -3.31861 0
M  V30 4973 C 467.997 0.347403 -4.48356 0
M  V30 4974 C 466.767 -0.0488653 -5.05276 0
M  V30 4975 C 468.965 -0.393931 -5.12789 0
M  V30 4976 N 466.947 -1.02451 -6.05291 0
M  V30 4977 C 468.318 -1.22367 -6.07804 0
M  V30 4978 C 470.373 -0.455789 -4.95809 0
M  V30 4979 C 469.076 -2.10966 -6.87667 0
M  V30 4980 C 471.102 -1.32908 -5.76272 0
M  V30 4981 C 470.464 -2.14662 -6.70894 0
M  V30 4982 H 466.563 0.21335 -0.752334 0
M  V30 4983 H 469.147 -0.0830547 -1.94523 0
M  V30 4984 H 467.318 2.03782 -3.30647 0
M  V30 4985 H 469.05 1.95913 -3.54119 0
M  V30 4986 H 465.805 0.323356 -4.72495 0
M  V30 4987 H 466.229 -1.50826 -6.59985 0
M  V30 4988 H 470.871 0.162017 -4.22489 0
M  V30 4989 H 468.589 -2.73807 -7.603 0
M  V30 4990 H 472.175 -1.38109 -5.6517 0
M  V30 4991 H 471.055 -2.81143 -7.32071 0
M  V30 4992 N 468.558 1.5553 0.254621 0
M  V30 4993 C 469.783 1.81383 1.00573 0
M  V30 4994 C 470.208 0.594419 1.78461 0
M  V30 4995 O 469.566 -0.456403 1.75461 0
M  V30 4996 C 469.614 3.04892 1.92545 0
M  V30 4997 O 468.718 2.81266 3.01601 0
M  V30 4998 H 468.059 0.598969 0.286587 0
M  V30 4999 H 470.589 2.02703 0.277952 0
M  V30 5000 H 470.599 3.34119 2.34155 0
M  V30 5001 H 469.274 3.93287 1.3527 0
M  V30 5002 H 467.851 2.63185 2.64174 0
M  V30 5003 N 470.036 -0.519951 1.48776 0
M  V30 5004 C 471.282 -1.27711 1.57536 0
M  V30 5005 C 471.615 -1.92547 0.252866 0
M  V30 5006 O 470.89 -1.7979 -0.742021 0
M  V30 5007 C 471.173 -2.35875 2.72094 0
M  V30 5008 C 471.026 -1.75664 4.1408 0
M  V30 5009 C 472.345 -3.37575 2.82367 0
M  V30 5010 H 469.464 -0.462971 0.573434 0
M  V30 5011 H 472.106 -0.578194 1.80989 0
M  V30 5012 H 470.256 -2.95488 2.52228 0
M  V30 5013 H 471.928 -1.20025 4.45412 0
M  V30 5014 H 470.171 -1.06154 4.20611 0
M  V30 5015 H 470.842 -2.54029 4.90075 0
M  V30 5016 H 473.318 -2.87929 3.00393 0
M  V30 5017 H 472.194 -4.1064 3.64233 0
M  V30 5018 H 472.455 -3.98743 1.90936 0
M  V30 5019 N 471.514 -1.37532 -0.769588 0
M  V30 5020 C 472.762 -1.32597 -1.5252 0
M  V30 5021 C 473.083 0.0884294 -1.94799 0
M  V30 5022 O 472.353 1.03289 -1.66458 0
M  V30 5023 H 470.933 -0.487846 -0.565699 0
M  V30 5024 H 473.595 -1.72044 -0.915806 0
M  V30 5025 H 472.691 -1.96643 -2.42359 0
M  V30 5026 N 472.992 0.995999 -1.22138 0
M  V30 5027 C 473.924 2.08745 -0.946485 0
M  V30 5028 C 474.937 1.62633 0.0737356 0
M  V30 5029 O 476.126 1.77782 -0.159886 0
M  V30 5030 C 473.226 3.36516 -0.401305 0
M  V30 5031 C 472.399 4.11672 -1.47801 0
M  V30 5032 C 471.458 5.17728 -0.940461 0
M  V30 5033 O 470.484 5.45482 -1.62596 0
M  V30 5034 N 471.686 5.80005 0.239723 0
M  V30 5035 H 474.451 2.32908 -1.88611 0
M  V30 5036 H 472.012 1.16152 -1.12785 0
M  V30 5037 H 474.004 4.04691 -0.0270837 0
M  V30 5038 H 472.574 3.0944 0.443354 0
M  V30 5039 H 471.794 3.38171 -2.02568 0
M  V30 5040 H 473.082 4.58657 -2.20253 0
M  V30 5041 H 472.48 5.5982 0.813518 0
M  V30 5042 H 471.037 6.4943 0.555361 0
M  V30 5043 N 474.47 1.03057 1.19235 0
M  V30 5044 C 475.719 0.72326 1.88287 0
M  V30 5045 C 476.032 -0.751333 1.80594 0
M  V30 5046 O 477.238 -1.17176 2.44912 0
M  V30 5047 C 475.694 1.24338 3.3774 0
M  V30 5048 C 475.302 2.74587 3.53986 0
M  V30 5049 C 477.046 1.01213 4.12257 0
M  V30 5050 C 474.953 3.20009 4.97341 0
M  V30 5051 H 473.883 0.266848 0.705201 0
M  V30 5052 H 476.534 1.24509 1.34795 0
M  V30 5053 H 474.916 0.649457 3.90638 0
M  V30 5054 H 476.09 3.39649 3.11408 0
M  V30 5055 H 474.405 2.9601 2.9286 0
M  V30 5056 H 477.002 1.32675 5.17978 0
M  V30 5057 H 477.345 -0.051001 4.16269 0
M  V30 5058 H 477.878 1.57014 3.65501 0
M  V30 5059 H 474.617 4.25659 4.98493 0
M  V30 5060 H 474.137 2.59676 5.40674 0
M  V30 5061 H 475.816 3.13447 5.66003 0
M  V30 5062 N 475.948 -1.35272 0.808662 0
M  V30 5063 C 476.878 -2.32315 0.234981 0
M  V30 5064 C 477.859 -1.57572 -0.64071 0
M  V30 5065 O 479.044 -1.8563 -0.570551 0
M  V30 5066 C 476.174 -3.41801 -0.615601 0
M  V30 5067 C 475.128 -4.27694 0.161767 0
M  V30 5068 C 474.454 -5.28519 -0.810649 0
M  V30 5069 C 475.754 -5.04231 1.36193 0
M  V30 5070 H 477.448 -2.80543 1.04575 0
M  V30 5071 H 474.994 -1.3488 0.504315 0
M  V30 5072 H 476.947 -4.08693 -1.02702 0
M  V30 5073 H 475.671 -2.92186 -1.45928 0
M  V30 5074 H 474.33 -3.62384 0.554382 0
M  V30 5075 H 473.978 -4.75171 -1.64988 0
M  V30 5076 H 473.678 -5.8686 -0.294822 0
M  V30 5077 H 475.202 -5.98283 -1.22023 0
M  V30 5078 H 476.616 -5.64058 1.02528 0
M  V30 5079 H 475.013 -5.72077 1.81239 0
M  V30 5080 H 476.083 -4.34753 2.14751 0
M  V30 5081 N 477.426 -0.562348 -1.47226 0
M  V30 5082 C 478.374 0.195476 -2.31777 0
M  V30 5083 C 479.368 0.90433 -1.43242 0
M  V30 5084 O 480.574 0.825031 -1.59979 0
M  V30 5085 H 476.949 0.0819095 -0.747526 0
M  V30 5086 H 478.92 -0.536753 -2.93533 0
M  V30 5087 C 477.669 1.20902 -3.26003 0
M  V30 5088 H 476.992 0.672997 -3.94095 0
M  V30 5089 H 478.432 1.71006 -3.87986 0
M  V30 5090 C 476.891 2.25955 -2.49891 0
M  V30 5091 O 477.421 3.32969 -2.2471 0
M  V30 5092 N 475.627 2.00019 -2.1081 0
M  V30 5093 H 475.174 1.13006 -2.31489 0
M  V30 5094 H 475.132 2.70523 -1.60201 0
M  V30 5095 N 478.904 1.54736 -0.299062 0
M  V30 5096 C 479.834 2.26409 0.571085 0
M  V30 5097 C 480.815 1.2629 1.13951 0
M  V30 5098 O 482 1.55059 1.16921 0
M  V30 5099 C 479.13 3.00338 1.74396 0
M  V30 5100 C 478.084 4.07588 1.30599 0
M  V30 5101 C 477.41 4.69222 2.56387 0
M  V30 5102 C 478.71 5.20455 0.438645 0
M  V30 5103 H 480.404 2.99388 -0.0266991 0
M  V30 5104 H 477.95 1.43993 -0.0142812 0
M  V30 5105 H 479.903 3.49198 2.35878 0
M  V30 5106 H 478.627 2.24934 2.36796 0
M  V30 5107 H 477.286 3.59575 0.71424 0
M  V30 5108 H 476.934 3.9046 3.17097 0
M  V30 5109 H 476.634 5.41653 2.27784 0
M  V30 5110 H 478.158 5.20844 3.18675 0
M  V30 5111 H 479.572 5.65221 0.959085 0
M  V30 5112 H 477.969 5.99594 0.246466 0
M  V30 5113 H 479.039 4.8192 -0.536738 0
M  V30 5114 N 480.382 0.0267497 1.57577 0
M  V30 5115 C 481.312 -0.954308 2.13108 0
M  V30 5116 C 482.293 -1.34088 1.04663 0
M  V30 5117 O 483.478 -1.41992 1.32484 0
M  V30 5118 C 480.608 -2.23744 2.65624 0
M  V30 5119 C 479.562 -1.99168 3.78835 0
M  V30 5120 C 478.888 -3.33726 4.17769 0
M  V30 5121 C 480.188 -1.33277 5.0501 0
M  V30 5122 H 481.882 -0.491848 2.95332 0
M  V30 5123 H 479.428 -0.23514 1.42067 0
M  V30 5124 H 481.381 -2.92754 3.03106 0
M  V30 5125 H 480.105 -2.72151 1.80558 0
M  V30 5126 H 478.764 -1.32577 3.41788 0
M  V30 5127 H 478.412 -3.79888 3.29688 0
M  V30 5128 H 478.112 -3.18089 4.94058 0
M  V30 5129 H 479.636 -4.04008 4.57832 0
M  V30 5130 H 481.05 -1.92283 5.40093 0
M  V30 5131 H 479.447 -1.28045 5.8628 0
M  V30 5132 H 480.517 -0.305411 4.83937 0
M  V30 5133 N 481.861 -1.55662 -0.24637 0
M  V30 5134 C 483.138 -1.68272 -0.997198 0
M  V30 5135 C 483.518 -0.566785 -2.03349 0
M  V30 5136 O 482.866 0.429688 -2.24424 0
M  V30 5137 C 483.076 -3.08594 -1.63006 0
M  V30 5138 C 484.424 -3.6721 -2.13171 0
M  V30 5139 O 485.448 -3.11397 -1.72946 0
M  V30 5140 O 484.307 -4.65054 -2.87031 0
M  V30 5141 H 481.401 -0.684429 -0.464205 0
M  V30 5142 H 483.947 -1.67993 -0.240114 0
M  V30 5143 H 482.719 -3.81264 -0.880527 0
M  V30 5144 H 482.342 -3.12886 -2.45333 0
M  V30 5145 N 483.339 0.512053 -1.4905 0
M  V30 5146 C 484.249 1.64139 -1.67617 0
M  V30 5147 C 485.265 1.64786 -0.558701 0
M  V30 5148 O 486.441 1.8341 -0.832034 0
M  V30 5149 C 483.506 3.00548 -1.72835 0
M  V30 5150 C 482.567 3.10615 -2.96339 0
M  V30 5151 C 481.8 4.40517 -3.01298 0
M  V30 5152 O 482.023 5.28671 -2.14157 0
M  V30 5153 O 480.957 4.55325 -3.93653 0
M  V30 5154 H 484.783 1.51407 -2.63267 0
M  V30 5155 H 482.368 0.687131 -1.32661 0
M  V30 5156 H 484.25 3.81641 -1.78683 0
M  V30 5157 H 482.925 3.13566 -0.803616 0
M  V30 5158 H 481.832 2.2875 -2.96014 0
M  V30 5159 H 483.165 3.0252 -3.88256 0
M  V30 5160 N 484.817 1.37938 0.762283 0
M  V30 5161 C 485.747 1.37176 1.88958 0
M  V30 5162 C 486.728 0.238945 1.68413 0
M  V30 5163 O 487.913 0.440726 1.89133 0
M  V30 5164 C 485.043 1.18742 3.2637 0
M  V30 5165 C 483.997 2.29136 3.61498 0
M  V30 5166 C 483.323 1.95816 4.97554 0
M  V30 5167 C 484.623 3.71363 3.6727 0
M  V30 5168 H 486.317 2.31509 1.89853 0
M  V30 5169 H 483.863 1.11438 0.912005 0
M  V30 5170 H 485.816 1.16837 4.04879 0
M  V30 5171 H 484.54 0.208683 3.25933 0
M  V30 5172 H 483.199 2.30213 2.85303 0
M  V30 5173 H 482.847 0.964475 4.93667 0
M  V30 5174 H 482.547 2.69745 5.22026 0
M  V30 5175 H 484.071 1.95513 5.78452 0
M  V30 5176 H 485.485 3.72364 4.35911 0
M  V30 5177 H 483.882 4.44425 4.03245 0
M  V30 5178 H 484.952 4.04305 2.67704 0
M  V30 5179 N 486.295 -0.989507 1.22664 0
M  V30 5180 C 487.711 -1.25395 0.987331 0
M  V30 5181 C 487.911 -1.9899 -0.317056 0
M  V30 5182 O 486.967 -2.30141 -1.03882 0
M  V30 5183 C 488.28 -2.06242 2.18826 0
M  V30 5184 C 489.828 -2.19413 2.23219 0
M  V30 5185 C 490.303 -3.03648 3.42873 0
M  V30 5186 N 491.794 -3.11234 3.43056 0
M  V30 5187 C 492.529 -3.7671 4.32293 0
M  V30 5188 N 492.025 -4.44085 5.31752 0
M  V30 5189 N 493.818 -3.73505 4.2006 0
M  V30 5190 H 485.969 -0.496212 2.06522 0
M  V30 5191 H 488.232 -0.281784 0.905153 0
M  V30 5192 H 487.938 -1.59531 3.13437 0
M  V30 5193 H 487.812 -3.06996 2.19165 0
M  V30 5194 H 490.199 -2.65336 1.29154 0
M  V30 5195 H 490.28 -1.18078 2.26917 0
M  V30 5196 H 489.924 -2.58424 4.37241 0
M  V30 5197 H 489.854 -4.05132 3.36416 0
M  V30 5198 H 492.345 -2.63287 2.71088 0
M  V30 5199 H 492.658 -4.91797 5.96117 0
M  V30 5200 H 491.003 -4.42822 5.35662 0
M  V30 5201 H 494.194 -3.20033 3.41609 0
M  V30 5202 H 494.367 -4.24253 4.8981 0
M  V30 5203 N 487.773 -1.03688 -1.18687 0
M  V30 5204 C 488.703 -0.645407 -2.24403 0
M  V30 5205 C 489.684 0.349511 -1.66471 0
M  V30 5206 O 490.869 0.230453 -1.92828 0
M  V30 5207 C 487.999 -0.00365337 -3.473 0
M  V30 5208 C 486.953 -0.921705 -4.17958 0
M  V30 5209 C 486.279 -0.144629 -5.34504 0
M  V30 5210 C 487.579 -2.23909 -4.71871 0
M  V30 5211 H 489.273 -1.52917 -2.57404 0
M  V30 5212 H 486.819 -0.736711 -1.23728 0
M  V30 5213 H 488.772 0.281908 -4.20456 0
M  V30 5214 H 487.496 0.914963 -3.13522 0
M  V30 5215 H 486.155 -1.19159 -3.46694 0
M  V30 5216 H 485.803 0.776274 -4.96974 0
M  V30 5217 H 485.503 -0.756206 -5.82714 0
M  V30 5218 H 487.027 0.134004 -6.10453 0
M  V30 5219 H 488.441 -2.0145 -5.36741 0
M  V30 5220 H 486.838 -2.8033 -5.30599 0
M  V30 5221 H 487.908 -2.88822 -3.895 0
M  V30 5222 N 489.251 1.34841 -0.815825 0
M  V30 5223 C 490.214 2.27959 -0.238185 0
M  V30 5224 C 491.214 1.49983 0.579816 0
M  V30 5225 O 492.404 1.69617 0.396953 0
M  V30 5226 C 489.536 3.34314 0.666876 0
M  V30 5227 H 490.729 2.80558 -1.05958 0
M  V30 5228 H 488.282 1.44852 -0.587156 0
M  V30 5229 H 489.017 2.86916 1.5116 0
M  V30 5230 H 488.802 3.92014 0.0819106 0
M  V30 5231 H 490.292 4.0379 1.06506 0
M  V30 5232 N 490.729 0.570148 1.46925 0
M  V30 5233 C 491.677 -0.183181 2.31878 0
M  V30 5234 C 492.671 -0.896721 1.43719 0
M  V30 5235 O 493.877 -0.816536 1.60414 0
M  V30 5236 H 490.252 -0.077944 0.74795 0
M  V30 5237 H 492.223 0.552312 2.93244 0
M  V30 5238 C 490.972 -1.19172 3.2664 0
M  V30 5239 H 490.295 -0.652088 3.94446 0
M  V30 5240 H 491.735 -1.68946 3.88887 0
M  V30 5241 C 490.194 -2.24627 2.51086 0
M  V30 5242 O 490.724 -3.31773 2.26472 0
M  V30 5243 N 488.93 -1.98898 2.11867 0
M  V30 5244 H 488.477 -1.11777 2.32086 0
M  V30 5245 H 488.435 -2.6967 1.61634 0
M  V30 5246 N 492.207 -1.54576 0.307264 0
M  V30 5247 C 493.484 -1.92377 -0.353605 0
M  V30 5248 C 493.864 -1.23517 -1.71192 0
M  V30 5249 O 493.212 -0.373101 -2.25433 0
M  V30 5250 C 493.422 -3.45928 -0.462039 0
M  V30 5251 C 494.77 -4.18278 -0.729975 0
M  V30 5252 O 495.794 -3.51997 -0.545605 0
M  V30 5253 O 494.653 -5.3563 -1.08454 0
M  V30 5254 H 491.747 -0.802747 -0.198812 0
M  V30 5255 H 494.293 -1.65929 0.355783 0
M  V30 5256 H 493.065 -3.88187 0.492592 0
M  V30 5257 H 492.688 -3.78431 -1.21965 0
M  V30 5258 N 493.685 -0.035106 -1.57561 0
M  V30 5259 C 494.913 0.652258 -1.9635 0
M  V30 5260 C 495.328 1.65317 -0.911897 0
M  V30 5261 O 494.685 1.82194 0.105657 0
M  V30 5262 C 494.736 1.35337 -3.35211 0
M  V30 5263 O 494.457 0.392548 -4.36338 0
M  V30 5264 C 495.958 2.13199 -3.88666 0
M  V30 5265 H 493.178 0.179444 -0.646561 0
M  V30 5266 H 495.722 -0.0966459 -2.04271 0
M  V30 5267 H 493.877 2.05362 -3.28489 0
M  V30 5268 H 494.291 0.891097 -5.16875 0
M  V30 5269 H 495.765 2.577 -4.88154 0
M  V30 5270 H 496.242 2.97353 -3.23231 0
M  V30 5271 H 496.848 1.48118 -3.98674 0
M  V30 5272 N 495.163 1.55791 0.238111 0
M  V30 5273 C 496.093 1.94068 1.29846 0
M  V30 5274 C 497.074 0.806726 1.49753 0
M  V30 5275 O 498.259 1.06772 1.62214 0
M  V30 5276 C 495.389 2.24302 2.65153 0
M  V30 5277 C 494.343 3.40032 2.59927 0
M  V30 5278 C 493.669 3.55829 3.99111 0
M  V30 5279 C 494.969 4.75476 2.16148 0
M  V30 5280 H 496.663 2.82887 0.980563 0
M  V30 5281 H 494.209 1.36105 0.470253 0
M  V30 5282 H 496.162 2.4967 3.39475 0
M  V30 5283 H 494.886 1.32318 2.98596 0
M  V30 5284 H 493.545 3.14687 1.88063 0
M  V30 5285 H 493.193 2.6125 4.29834 0
M  V30 5286 H 492.893 4.3366 3.96501 0
M  V30 5287 H 494.417 3.83528 4.7512 0
M  V30 5288 H 495.831 5.00158 2.80205 0
M  V30 5289 H 494.228 5.56472 2.24631 0
M  V30 5290 H 495.298 4.71946 1.11333 0
M  V30 5291 N 496.642 -0.504142 1.49319 0
M  V30 5292 C 497.891 -1.25507 1.57895 0
M  V30 5293 C 498.204 -1.93735 0.269433 0
M  V30 5294 O 499.41 -2.70492 0.233706 0
M  V30 5295 C 497.866 -2.27869 2.78574 0
M  V30 5296 C 497.474 -1.65594 4.16272 0
M  V30 5297 C 499.218 -3.0381 2.96479 0
M  V30 5298 C 497.125 -2.66048 5.28178 0
M  V30 5299 H 496.055 -0.47212 0.587894 0
M  V30 5300 H 498.706 -0.52931 1.757 0
M  V30 5301 H 497.088 -3.03594 2.54257 0
M  V30 5302 H 498.262 -0.958826 4.50714 0
M  V30 5303 H 496.577 -1.02055 4.037 0
M  V30 5304 H 499.174 -3.78925 3.77253 0
M  V30 5305 H 499.517 -3.61235 2.06918 0
M  V30 5306 H 500.05 -2.352 3.20821 0
M  V30 5307 H 496.789 -2.13408 6.19788 0
M  V30 5308 H 496.309 -3.34009 4.98195 0
M  V30 5309 H 497.988 -3.28536 5.57381 0
M  V30 5310 N 498.12 -1.38341 -0.754957 0
M  V30 5311 C 499.35 -1.37504 -1.54195 0
M  V30 5312 C 499.758 0.0373787 -1.89163 0
M  V30 5313 O 499.101 1.01402 -1.53178 0
M  V30 5314 C 499.163 -2.16488 -2.87008 0
M  V30 5315 C 498.827 -3.65311 -2.74585 0
M  V30 5316 C 499.824 -4.58834 -2.44474 0
M  V30 5317 C 497.509 -4.08649 -2.9208 0
M  V30 5318 C 499.503 -5.93675 -2.32011 0
M  V30 5319 C 497.19 -5.43571 -2.79237 0
M  V30 5320 C 498.188 -6.35898 -2.49245 0
M  V30 5321 O 497.876 -7.68338 -2.36458 0
M  V30 5322 H 497.608 -0.472159 -0.483779 0
M  V30 5323 H 500.162 -1.82515 -0.94221 0
M  V30 5324 H 498.392 -1.66194 -3.49166 0
M  V30 5325 H 500.081 -2.08076 -3.4851 0
M  V30 5326 H 500.847 -4.26657 -2.30627 0
M  V30 5327 H 496.726 -3.37134 -3.14422 0
M  V30 5328 H 500.27 -6.65706 -2.08522 0
M  V30 5329 H 496.167 -5.75345 -2.92657 0
M  V30 5330 H 496.935 -7.78845 -2.5168 0
M  V30 5331 N 499.598 0.982988 -1.23187 0
M  V30 5332 C 500.845 1.72392 -1.06241 0
M  V30 5333 C 501.173 1.9032 0.40108 0
M  V30 5334 O 500.428 1.45084 1.31336 0
M  V30 5335 C 500.727 3.12736 -1.73006 0
M  V30 5336 C 500.393 3.14695 -3.22921 0
M  V30 5337 C 499.055 3.14937 -3.63824 0
M  V30 5338 C 501.407 3.10211 -4.1883 0
M  V30 5339 C 498.735 3.08408 -4.99101 0
M  V30 5340 C 501.087 3.05224 -5.54095 0
M  V30 5341 C 499.751 3.03787 -5.94365 0
M  V30 5342 H 499.021 0.630829 -0.388762 0
M  V30 5343 H 501.668 1.15053 -1.53085 0
M  V30 5344 H 499.973 3.73446 -1.18514 0
M  V30 5345 H 501.67 3.68828 -1.57374 0
M  V30 5346 H 498.26 3.15262 -2.90358 0
M  V30 5347 H 502.444 3.09166 -3.8824 0
M  V30 5348 H 497.7 3.05646 -5.29519 0
M  V30 5349 H 501.874 3.00712 -6.28128 0
M  V30 5350 H 499.501 2.98483 -6.99151 0
M  V30 5351 N 501.076 1.04316 1.18135 0
M  V30 5352 C 502.304 0.768117 1.92113 0
M  V30 5353 C 502.719 -0.675057 1.76319 0
M  V30 5354 O 502.076 -1.46038 1.09449 0
M  V30 5355 C 502.127 1.12808 3.43448 0
M  V30 5356 O 501.848 2.5146 3.58747 0
M  V30 5357 C 503.349 0.8779 4.3452 0
M  V30 5358 H 500.569 0.279937 0.609817 0
M  V30 5359 H 503.113 1.39149 1.49859 0
M  V30 5360 H 501.268 0.549623 3.83481 0
M  V30 5361 H 501.682 2.65313 4.52448 0
M  V30 5362 H 503.156 1.17959 5.39249 0
M  V30 5363 H 503.633 -0.187239 4.38801 0
M  V30 5364 H 504.239 1.43977 4.00188 0
M  V30 5365 N 502.554 -1.34406 0.822964 0
M  V30 5366 C 503.779 -2.0304 0.423034 0
M  V30 5367 C 504.204 -1.61568 -0.963196 0
M  V30 5368 O 503.562 -0.800339 -1.62678 0
M  V30 5369 C 503.61 -3.56636 0.53321 0
M  V30 5370 O 502.714 -4.09971 -0.446939 0
M  V30 5371 H 502.055 -0.64075 0.174171 0
M  V30 5372 H 504.585 -1.71653 1.11339 0
M  V30 5373 H 504.595 -4.05945 0.408991 0
M  V30 5374 H 503.27 -3.86168 1.54425 0
M  V30 5375 H 501.847 -3.71835 -0.281601 0
M  V30 5376 N 504.032 -0.577932 -1.46621 0
M  V30 5377 C 505.309 0.00495287 -1.95599 0
M  V30 5378 C 505.689 1.46428 -1.5206 0
M  V30 5379 O 505.037 2.1517 -0.769046 0
M  V30 5380 C 505.247 -0.162114 -3.48623 0
M  V30 5381 C 506.595 -0.0274623 -4.24591 0
M  V30 5382 O 507.619 -0.0907067 -3.56084 0
M  V30 5383 O 506.478 0.1122 -5.46385 0
M  V30 5384 H 503.572 0.0525057 -0.825332 0
M  V30 5385 H 506.118 -0.645914 -1.56927 0
M  V30 5386 H 504.89 -1.17679 -3.73185 0
M  V30 5387 H 504.513 0.525407 -3.94113 0
M  V30 5388 N 505.51 1.54411 -0.315457 0
M  V30 5389 C 506.442 2.21527 0.588067 0
M  V30 5390 C 507.455 1.21263 1.08624 0
M  V30 5391 O 508.644 1.47777 1.00121 0
M  V30 5392 C 505.744 2.85963 1.81875 0
M  V30 5393 C 504.917 4.12291 1.46063 0
M  V30 5394 C 503.976 4.60396 2.54799 0
M  V30 5395 O 503.002 5.25265 2.19283 0
M  V30 5396 N 504.204 4.33935 3.85591 0
M  V30 5397 H 506.969 2.99697 0.013414 0
M  V30 5398 H 504.53 1.61308 -0.138295 0
M  V30 5399 H 506.522 3.15071 2.53993 0
M  V30 5400 H 505.092 2.11548 2.30144 0
M  V30 5401 H 504.312 3.90036 0.571445 0
M  V30 5402 H 505.6 4.9452 1.19695 0
M  V30 5403 H 504.998 3.81996 4.17248 0
M  V30 5404 H 503.555 4.67718 4.53964 0
M  V30 5405 N 506.988 0.0434614 1.5754 0
M  V30 5406 C 508.236 -0.630786 1.92004 0
M  V30 5407 C 508.557 -1.71836 0.921807 0
M  V30 5408 O 507.827 -1.9587 -0.034522 0
M  V30 5409 H 506.407 -0.235988 0.708745 0
M  V30 5410 H 509.069 0.0946462 1.9467 0
M  V30 5411 H 508.165 -1.07434 2.93026 0
M  V30 5412 N 508.466 -1.55915 -0.229846 0
M  V30 5413 C 509.429 -1.90914 -1.26824 0
M  V30 5414 C 510.429 -0.786999 -1.40225 0
M  V30 5415 O 511.619 -1.05484 -1.38632 0
M  V30 5416 C 508.751 -2.15264 -2.64337 0
M  V30 5417 H 509.944 -2.8378 -0.969998 0
M  V30 5418 H 507.497 -1.49069 -0.4699 0
M  V30 5419 H 508.232 -1.24923 -2.99274 0
M  V30 5420 H 508.017 -2.97005 -2.55989 0
M  V30 5421 H 509.507 -2.43467 -3.39284 0
M  V30 5422 N 509.944 0.496216 -1.49584 0
M  V30 5423 C 510.894 1.59422 -1.62999 0
M  V30 5424 C 511.878 1.53402 -0.485457 0
M  V30 5425 O 513.07 1.60851 -0.738649 0
M  V30 5426 C 510.199 2.98009 -1.70427 0
M  V30 5427 C 509.285 3.09008 -2.90473 0
M  V30 5428 N 509.676 2.89884 -4.14489 0
M  V30 5429 C 507.974 3.40115 -2.8851 0
M  V30 5430 C 508.675 3.0519 -4.95211 0
M  V30 5431 N 507.651 3.3428 -4.2867 0
M  V30 5432 H 511.453 1.43297 -2.56599 0
M  V30 5433 H 508.967 0.702443 -1.46422 0
M  V30 5434 H 510.964 3.76926 -1.78136 0
M  V30 5435 H 509.624 3.152 -0.77967 0
M  V30 5436 H 510.635 2.65963 -4.44392 0
M  V30 5437 H 507.312 3.63452 -2.05448 0
M  V30 5438 H 508.702 2.94856 -6.03746 0
M  V30 5439 N 511.423 1.38739 0.74761 0
M  V30 5440 C 512.669 1.35475 1.50912 0
M  V30 5441 C 513.002 -0.0533093 1.94127 0
M  V30 5442 O 512.277 -1.01572 1.65871 0
M  V30 5443 C 512.56 2.31582 2.75757 0
M  V30 5444 C 512.413 3.81274 2.38642 0
M  V30 5445 C 513.732 2.25722 3.77806 0
M  V30 5446 H 510.851 0.493427 0.547447 0
M  V30 5447 H 513.493 1.69634 0.855823 0
M  V30 5448 H 511.643 2.02582 3.31501 0
M  V30 5449 H 513.315 4.20972 1.88626 0
M  V30 5450 H 511.558 3.98664 1.71025 0
M  V30 5451 H 512.229 4.4399 3.27989 0
M  V30 5452 H 514.705 2.51336 3.31616 0
M  V30 5453 H 513.581 2.95069 4.62845 0
M  V30 5454 H 513.842 1.25803 4.23823 0
M  V30 5455 N 512.901 -0.976442 1.23707 0
M  V30 5456 C 513.811 -2.10359 1.03856 0
M  V30 5457 C 514.827 -1.73991 -0.0180919 0
M  V30 5458 O 516.003 -2.0061 0.178211 0
M  V30 5459 C 513.068 -3.40809 0.636387 0
M  V30 5460 C 512.129 -3.91179 1.76854 0
M  V30 5461 C 511.362 -5.15404 1.38546 0
M  V30 5462 O 511.585 -5.69754 0.27142 0
M  V30 5463 O 510.519 -5.5994 2.20797 0
M  V30 5464 H 514.345 -2.29997 1.98331 0
M  V30 5465 H 511.93 -1.08742 1.02448 0
M  V30 5466 H 513.812 -4.19269 0.423223 0
M  V30 5467 H 512.487 -3.22493 -0.279322 0
M  V30 5468 H 511.394 -3.13819 2.03638 0
M  V30 5469 H 512.727 -4.13958 2.6627 0
M  V30 5470 N 514.379 -1.04941 -1.1758 0
M  V30 5471 C 515.289 -0.658826 -2.25159 0
M  V30 5472 C 516.305 0.318941 -1.71052 0
M  V30 5473 O 517.481 0.171669 -2.00667 0
M  V30 5474 C 514.546 -0.0369522 -3.4668 0
M  V30 5475 C 513.607 -1.06484 -4.15884 0
M  V30 5476 C 512.84 -0.472551 -5.31604 0
M  V30 5477 O 513.063 0.718736 -5.65854 0
M  V30 5478 O 511.997 -1.20557 -5.89703 0
M  V30 5479 H 515.823 -1.55533 -2.60851 0
M  V30 5480 H 513.408 -0.820819 -1.24832 0
M  V30 5481 H 515.29 0.308784 -4.20267 0
M  V30 5482 H 513.965 0.833238 -3.12792 0
M  V30 5483 H 512.872 -1.46253 -3.44327 0
M  V30 5484 H 514.205 -1.9061 -4.53794 0
M  V30 5485 N 515.857 1.33968 -0.830081 0
M  V30 5486 C 517.103 1.98357 -0.422191 0
M  V30 5487 C 517.436 1.65633 1.01387 0
M  V30 5488 O 516.711 0.931648 1.70735 0
M  V30 5489 C 516.994 3.54492 -0.633043 0
M  V30 5490 C 516.847 3.96934 -2.11574 0
M  V30 5491 C 518.166 4.40039 -0.0735584 0
M  V30 5492 H 515.285 0.720544 -0.154871 0
M  V30 5493 H 517.927 1.58749 -1.04397 0
M  V30 5494 H 516.077 3.88361 -0.103775 0
M  V30 5495 H 517.749 3.73363 -2.7092 0
M  V30 5496 H 515.992 3.46984 -2.60354 0
M  V30 5497 H 516.663 5.05651 -2.21406 0
M  V30 5498 H 519.139 4.12764 -0.52585 0
M  V30 5499 H 518.015 5.48327 -0.250841 0
M  V30 5500 H 518.276 4.30124 1.02202 0
M  V30 5501 N 517.335 0.585699 1.46312 0
M  V30 5502 C 518.56 0.0762461 2.0726 0
M  V30 5503 C 518.985 -1.22071 1.43109 0
M  V30 5504 O 518.343 -1.73804 0.515942 0
M  V30 5505 C 518.391 -0.0729404 3.60526 0
M  V30 5506 O 517.495 -1.1287 3.96654 0
M  V30 5507 H 516.836 0.0641558 0.660893 0
M  V30 5508 H 519.366 0.809492 1.87905 0
M  V30 5509 H 519.376 -0.278158 4.07051 0
M  V30 5510 H 518.051 0.874188 4.06609 0
M  V30 5511 H 516.628 -0.901703 3.61834 0
M  V30 5512 N 518.813 -1.54241 0.323641 0
M  V30 5513 C 520.038 -2.05452 -0.283605 0
M  V30 5514 C 520.463 -1.19823 -1.44997 0
M  V30 5515 O 519.821 -0.207358 -1.8011 0
M  V30 5516 C 519.869 -3.53823 -0.695795 0
M  V30 5517 O 518.973 -3.71134 -1.79815 0
M  V30 5518 H 518.314 -0.662024 -0.0511917 0
M  V30 5519 H 520.844 -1.99079 0.472073 0
M  V30 5520 H 520.854 -3.96094 -0.978434 0
M  V30 5521 H 519.529 -4.15602 0.157287 0
M  V30 5522 H 518.106 -3.40768 -1.51431 0
M  V30 5523 N 520.291 -0.0518155 -1.57515 0
M  V30 5524 C 521.238 0.922352 -2.11569 0
M  V30 5525 C 522.208 1.30842 -1.02321 0
M  V30 5526 O 523.393 1.39778 -1.29872 0
M  V30 5527 C 520.533 2.19167 -2.6657 0
M  V30 5528 C 519.646 1.86003 -3.89906 0
M  V30 5529 C 518.781 3.07398 -4.33221 0
M  V30 5530 C 517.82 2.70158 -5.49255 0
M  V30 5531 N 516.957 3.84248 -5.8762 0
M  V30 5532 H 521.797 0.454506 -2.94514 0
M  V30 5533 H 519.334 0.212718 -1.45554 0
M  V30 5534 H 521.292 2.93443 -2.96559 0
M  V30 5535 H 519.922 2.63528 -1.86421 0
M  V30 5536 H 518.974 1.01874 -3.66505 0
M  V30 5537 H 520.286 1.54592 -4.74239 0
M  V30 5538 H 519.44 3.89972 -4.64765 0
M  V30 5539 H 518.179 3.41988 -3.477 0
M  V30 5540 H 517.184 1.86001 -5.17382 0
M  V30 5541 H 518.409 2.36759 -6.36492 0
M  V30 5542 H 516.355 4.18638 -5.05053 0
M  V30 5543 H 516.272 3.56538 -6.66646 0
M  V30 5544 H 517.54 4.6746 -6.2378 0
M  V30 5545 N 521.769 1.56035 0.221574 0
M  V30 5546 C 523.017 1.78693 0.944102 0
M  V30 5547 C 523.338 0.620317 1.8487 0
M  V30 5548 O 522.608 -0.362784 1.92512 0
M  V30 5549 H 521.188 0.659082 0.351597 0
M  V30 5550 H 523.85 1.93497 0.233435 0
M  V30 5551 H 522.946 2.70837 1.55093 0
M  V30 5552 N 523.247 -0.488276 1.49845 0
M  V30 5553 C 524.157 -1.61451 1.70207 0
M  V30 5554 C 525.173 -1.63877 0.584846 0
M  V30 5555 O 526.349 -1.82063 0.861107 0
M  V30 5556 C 523.414 -2.9776 1.77594 0
M  V30 5557 C 522.475 -3.05861 3.01243 0
M  V30 5558 C 521.708 -4.35668 3.08268 0
M  V30 5559 O 521.931 -5.25197 2.22541 0
M  V30 5560 O 520.865 -4.49005 4.00847 0
M  V30 5561 H 524.691 -1.47199 2.65643 0
M  V30 5562 H 522.276 -0.665939 1.33737 0
M  V30 5563 H 524.158 -3.7875 1.84732 0
M  V30 5564 H 522.833 -3.12248 0.8534 0
M  V30 5565 H 521.74 -2.24012 2.99616 0
M  V30 5566 H 523.073 -2.96304 3.9302 0
M  V30 5567 N 524.725 -1.39134 -0.740242 0
M  V30 5568 C 525.974 -1.35384 -1.49512 0
M  V30 5569 C 526.287 0.04919 -1.95538 0
M  V30 5570 O 527.493 0.209257 -2.70692 0
M  V30 5571 C 525.949 -2.37812 -2.70136 0
M  V30 5572 C 525.557 -3.83804 -2.31081 0
M  V30 5573 C 527.301 -2.4313 -3.47977 0
M  V30 5574 C 525.208 -4.77886 -3.48395 0
M  V30 5575 H 524.138 -0.503297 -0.561434 0
M  V30 5576 H 526.789 -1.64754 -0.807974 0
M  V30 5577 H 525.171 -2.01505 -3.40899 0
M  V30 5578 H 526.345 -4.29123 -1.67898 0
M  V30 5579 H 524.66 -3.81732 -1.66343 0
M  V30 5580 H 527.257 -3.10614 -4.35228 0
M  V30 5581 H 527.6 -1.45423 -3.90074 0
M  V30 5582 H 528.133 -2.78304 -2.84239 0
M  V30 5583 H 524.872 -5.76836 -3.11353 0
M  V30 5584 H 524.392 -4.3725 -4.10576 0
M  V30 5585 H 526.071 -4.96538 -4.148 0
M  V30 5586 N 526.204 0.969867 -1.24223 0
M  V30 5587 C 527.154 2.04913 -0.999732 0
M  V30 5588 C 528.138 1.60795 0.0580636 0
M  V30 5589 O 529.33 1.76317 -0.155392 0
M  V30 5590 C 526.459 3.37942 -0.604154 0
M  V30 5591 C 525.545 3.88628 -1.69791 0
M  V30 5592 N 525.936 4.12274 -2.93025 0
M  V30 5593 C 524.234 4.17268 -1.57492 0
M  V30 5594 C 524.935 4.53808 -3.63914 0
M  V30 5595 N 523.911 4.58855 -2.91468 0
M  V30 5596 H 527.713 2.21168 -1.93551 0
M  V30 5597 H 525.227 1.15349 -1.14317 0
M  V30 5598 H 527.224 4.14863 -0.411665 0
M  V30 5599 H 525.884 3.23075 0.324465 0
M  V30 5600 H 526.895 3.99789 -3.29225 0
M  V30 5601 H 523.572 4.11346 -0.714175 0
M  V30 5602 H 524.962 4.80534 -4.69614 0
M  V30 5603 N 527.682 1.05563 1.17022 0
M  V30 5604 C 528.93 0.76642 1.87004 0
M  V30 5605 C 529.251 -0.708854 1.8166 0
M  V30 5606 O 528.521 -1.51242 1.2451 0
M  V30 5607 H 527.101 0.280516 0.692329 0
M  V30 5608 H 529.763 1.33557 1.41945 0
M  V30 5609 H 528.859 1.08472 2.92644 0
M  V30 5610 N 529.16 -1.33526 0.837174 0
M  V30 5611 C 530.408 -1.97446 0.431211 0
M  V30 5612 C 530.729 -1.6665 -1.01255 0
M  V30 5613 O 529.999 -0.964559 -1.70508 0
M  V30 5614 H 528.579 -0.73043 0.156463 0
M  V30 5615 H 531.241 -1.62918 1.06976 0
M  V30 5616 H 530.337 -3.07001 0.561877 0
M  V30 5617 N 530.638 -0.59345 -1.46 0
M  V30 5618 C 531.863 -0.0872365 -2.07216 0
M  V30 5619 C 532.288 1.2131 -1.43755 0
M  V30 5620 O 531.646 1.73528 -0.525152 0
M  V30 5621 C 531.694 0.0538197 -3.6056 0
M  V30 5622 O 530.798 1.10765 -3.97247 0
M  V30 5623 H 530.139 -0.0676598 -0.660544 0
M  V30 5624 H 532.669 -0.819445 -1.87473 0
M  V30 5625 H 532.679 0.256567 -4.07193 0
M  V30 5626 H 531.354 -0.895739 -4.0614 0
M  V30 5627 H 529.931 0.882501 -3.62307 0
M  V30 5628 N 532.116 1.54067 -0.331816 0
M  V30 5629 C 533.064 2.26105 0.54582 0
M  V30 5630 C 534.058 1.27816 1.11173 0
M  V30 5631 O 535.264 1.45565 1.05882 0
M  V30 5632 H 531.639 0.726363 0.194683 0
M  V30 5633 H 533.61 2.98282 -0.083931 0
M  V30 5634 C 532.359 3.03814 1.69092 0
M  V30 5635 H 531.682 3.79269 1.26473 0
M  V30 5636 H 533.122 3.57453 2.28043 0
M  V30 5637 C 531.581 2.12606 2.61343 0
M  V30 5638 O 532.111 1.71437 3.6328 0
M  V30 5639 N 530.317 1.77925 2.29763 0
M  V30 5640 H 529.864 2.11602 1.46909 0
M  V30 5641 H 529.822 1.1718 2.91747 0
M  V30 5642 N 533.594 0.0601682 1.57485 0
M  V30 5643 C 534.842 -0.610386 1.92662 0
M  V30 5644 C 535.163 -1.70849 0.939981 0
M  V30 5645 O 534.433 -1.95895 -0.0137455 0
M  V30 5646 H 533.013 -0.228457 0.711208 0
M  V30 5647 H 535.675 0.115288 1.94559 0
M  V30 5648 H 534.771 -1.0432 2.94149 0
M  V30 5649 N 535.072 -1.5615 -0.213296 0
M  V30 5650 C 536.321 -1.78743 -0.93455 0
M  V30 5651 C 536.634 -0.630199 -1.8517 0
M  V30 5652 O 537.84 -0.739966 -2.61222 0
M  V30 5653 C 536.296 -3.16571 -1.71203 0
M  V30 5654 C 535.904 -4.40043 -0.840617 0
M  V30 5655 C 537.648 -3.48485 -2.42401 0
M  V30 5656 C 535.555 -5.68895 -1.61592 0
M  V30 5657 H 534.485 -0.666426 -0.352692 0
M  V30 5658 H 537.136 -1.82532 -0.188227 0
M  V30 5659 H 535.518 -3.06981 -2.50157 0
M  V30 5660 H 536.692 -4.6071 -0.0910326 0
M  V30 5661 H 535.007 -4.15706 -0.240365 0
M  V30 5662 H 537.604 -4.41983 -3.00924 0
M  V30 5663 H 537.947 -2.71371 -3.15695 0
M  V30 5664 H 538.48 -3.59442 -1.7043 0
M  V30 5665 H 535.219 -6.48925 -0.926106 0
M  V30 5666 H 534.739 -5.52275 -2.33991 0
M  V30 5667 H 536.418 -6.09365 -2.17447 0
M  V30 5668 N 536.55 0.480323 -1.50102 0
M  V30 5669 C 537.78 1.25475 -1.64133 0
M  V30 5670 C 538.188 1.8647 -0.320272 0
M  V30 5671 O 537.531 1.69561 0.70673 0
M  V30 5672 C 537.593 2.40996 -2.6676 0
M  V30 5673 C 537.257 2.00711 -4.10565 0
M  V30 5674 C 538.254 1.53492 -4.96725 0
M  V30 5675 C 535.939 2.09714 -4.56427 0
M  V30 5676 C 537.933 1.15806 -6.26792 0
M  V30 5677 C 535.62 1.7164 -5.86501 0
M  V30 5678 C 536.618 1.24763 -6.71508 0
M  V30 5679 O 536.306 0.872122 -7.99155 0
M  V30 5680 H 536.038 0.385983 -0.554971 0
M  V30 5681 H 538.592 0.580848 -1.97016 0
M  V30 5682 H 536.822 3.11528 -2.291 0
M  V30 5683 H 538.511 3.02981 -2.70106 0
M  V30 5684 H 539.277 1.45966 -4.62514 0
M  V30 5685 H 535.156 2.4515 -3.90413 0
M  V30 5686 H 538.7 0.791465 -6.93096 0
M  V30 5687 H 534.597 1.78822 -6.20236 0
M  V30 5688 H 535.365 1.00178 -8.12346 0
M  V30 5689 N 538.028 1.39524 0.732853 0
M  V30 5690 C 538.975 1.38416 1.84688 0
M  V30 5691 C 539.945 0.243539 1.64305 0
M  V30 5692 O 541.13 0.438979 1.85681 0
M  V30 5693 C 538.27 1.23555 3.22224 0
M  V30 5694 C 537.383 2.47179 3.54298 0
M  V30 5695 C 536.518 2.2489 4.81246 0
M  V30 5696 C 535.557 3.44178 5.0617 0
M  V30 5697 N 534.694 3.21192 6.24323 0
M  V30 5698 H 539.534 2.33645 1.84971 0
M  V30 5699 H 537.071 1.16059 0.903804 0
M  V30 5700 H 539.029 1.12949 4.0162 0
M  V30 5701 H 537.659 0.31954 3.21215 0
M  V30 5702 H 536.711 2.68379 2.69587 0
M  V30 5703 H 538.023 3.36022 3.68633 0
M  V30 5704 H 537.177 2.11538 5.68627 0
M  V30 5705 H 535.916 1.33443 4.69089 0
M  V30 5706 H 534.921 3.58025 4.17251 0
M  V30 5707 H 536.146 4.36528 5.20212 0
M  V30 5708 H 534.092 2.32413 6.1345 0
M  V30 5709 H 534.009 4.03594 6.39256 0
M  V30 5710 H 535.277 3.1154 7.14537 0
M  V30 5711 N 539.506 -0.963266 1.24736 0
M  V30 5712 C 540.754 -1.70343 1.08755 0
M  V30 5713 C 541.075 -1.91387 -0.373619 0
M  V30 5714 O 540.345 -1.4948 -1.2662 0
M  V30 5715 H 538.925 -0.631224 0.399456 0
M  V30 5716 H 541.587 -1.15859 1.56725 0
M  V30 5717 H 540.683 -2.68616 1.58909 0
M  V30 5718 N 540.985 -1.06182 -1.16461 0
M  V30 5719 C 542.233 -0.776326 -1.86595 0
M  V30 5720 C 542.554 0.69921 -1.82033 0
M  V30 5721 O 541.824 1.50579 -1.2531 0
M  V30 5722 H 540.404 -0.284184 -0.690832 0
M  V30 5723 H 543.066 -1.34308 -1.41235 0
M  V30 5724 H 542.162 -1.10022 -2.92064 0
M  V30 5725 N 542.463 1.3308 -0.844243 0
M  V30 5726 C 543.41 2.29104 -0.279323 0
M  V30 5727 C 544.38 1.54577 0.607882 0
M  V30 5728 O 545.565 1.8285 0.545009 0
M  V30 5729 C 542.705 3.40927 0.53508 0
M  V30 5730 C 541.818 4.30354 -0.376749 0
M  V30 5731 C 540.953 5.29297 0.449276 0
M  V30 5732 C 539.992 6.10365 -0.460606 0
M  V30 5733 N 539.129 7.01335 0.327612 0
M  V30 5734 H 543.969 2.76817 -1.10346 0
M  V30 5735 H 541.506 1.36203 -0.555611 0
M  V30 5736 H 543.464 4.04469 1.02278 0
M  V30 5737 H 542.094 2.94391 1.32414 0
M  V30 5738 H 541.146 3.67485 -0.982791 0
M  V30 5739 H 542.458 4.87067 -1.07549 0
M  V30 5740 H 541.612 5.98392 1.00058 0
M  V30 5741 H 540.351 4.73174 1.18143 0
M  V30 5742 H 539.356 5.40182 -1.02388 0
M  V30 5743 H 540.581 6.68571 -1.1912 0
M  V30 5744 H 538.527 6.47655 1.04305 0
M  V30 5745 H 538.444 7.55355 -0.3123 0
M  V30 5746 H 539.712 7.74731 0.86098 0
M  V30 5747 N 543.941 0.601185 1.45683 0
M  V30 5748 C 544.904 -0.111398 2.28929 0
M  V30 5749 C 545.904 -0.801246 1.39416 0
M  V30 5750 O 547.094 -0.650383 1.61603 0
M  V30 5751 C 544.226 -1.16773 3.20276 0
M  V30 5752 H 545.419 0.620412 2.93413 0
M  V30 5753 H 542.972 0.359946 1.52099 0
M  V30 5754 H 543.707 -1.93051 2.60579 0
M  V30 5755 H 543.492 -0.677358 3.86205 0
M  V30 5756 H 544.982 -1.66698 3.82886 0
M  V30 5757 N 545.419 -1.53889 0.339982 0
M  V30 5758 C 546.367 -2.26391 -0.533822 0
M  V30 5759 C 547.361 -1.28404 -1.10493 0
M  V30 5760 O 548.567 -1.46124 -1.05108 0
M  V30 5761 H 544.942 -0.727385 -0.190828 0
M  V30 5762 H 546.913 -2.98233 0.0997484 0
M  V30 5763 C 545.662 -3.04707 -1.67479 0
M  V30 5764 H 544.985 -3.79934 -1.2446 0
M  V30 5765 H 546.425 -3.58657 -2.26144 0
M  V30 5766 C 544.884 -2.13989 -2.60212 0
M  V30 5767 O 545.414 -1.73361 -3.62366 0
M  V30 5768 N 543.62 -1.79141 -2.28816 0
M  V30 5769 H 543.167 -2.12378 -1.45785 0
M  V30 5770 H 543.125 -1.18725 -2.91121 0
M  V30 5771 N 546.897 -0.0685191 -1.57451 0
M  V30 5772 C 547.845 0.917577 -2.13736 0
M  V30 5773 C 548.839 1.31049 -1.07344 0
M  V30 5774 O 550.045 1.28811 -1.25728 0
M  V30 5775 H 546.42 0.313835 -0.683382 0
M  V30 5776 H 548.391 0.417903 -2.95459 0
M  V30 5777 C 547.14 2.17686 -2.71123 0
M  V30 5778 H 546.463 1.88336 -3.52661 0
M  V30 5779 H 547.903 2.84803 -3.14107 0
M  V30 5780 C 546.362 2.9332 -1.65726 0
M  V30 5781 O 546.892 3.86901 -1.08031 0
M  V30 5782 N 545.098 2.56367 -1.36837 0
M  V30 5783 H 544.645 1.80341 -1.83943 0
M  V30 5784 H 544.603 3.07276 -0.665501 0
M  V30 5785 N 548.375 1.56261 0.205012 0
M  V30 5786 C 549.621 1.81211 0.923805 0
M  V30 5787 C 549.976 0.644065 1.813 0
M  V30 5788 O 549.269 -0.361208 1.88164 0
M  V30 5789 C 549.463 3.09722 1.78345 0
M  V30 5790 C 549.292 4.38915 0.978979 0
M  V30 5791 C 548.062 5.00874 0.667332 0
M  V30 5792 C 550.26 5.13199 0.336386 0
M  V30 5793 N 548.242 6.137 -0.156814 0
M  V30 5794 C 549.613 6.19009 -0.350402 0
M  V30 5795 C 551.668 4.97266 0.251101 0
M  V30 5796 C 550.371 7.10616 -1.11434 0
M  V30 5797 C 552.397 5.89288 -0.499413 0
M  V30 5798 C 551.759 6.94536 -1.17468 0
M  V30 5799 H 547.858 0.714528 0.317764 0
M  V30 5800 H 550.442 1.93738 0.193317 0
M  V30 5801 H 548.613 2.98448 2.48563 0
M  V30 5802 H 550.345 3.22798 2.44098 0
M  V30 5803 H 547.1 4.63151 0.989366 0
M  V30 5804 H 547.524 6.74695 -0.558206 0
M  V30 5805 H 552.166 4.15935 0.758823 0
M  V30 5806 H 549.884 7.91417 -1.63353 0
M  V30 5807 H 553.47 5.79034 -0.566627 0
M  V30 5808 H 552.35 7.64513 -1.74613 0
M  V30 5809 N 549.853 -0.472356 1.50355 0
M  V30 5810 C 550.763 -1.59637 1.7191 0
M  V30 5811 C 551.779 -1.63247 0.602195 0
M  V30 5812 O 552.955 -1.81139 0.880369 0
M  V30 5813 C 550.02 -2.9586 1.80742 0
M  V30 5814 C 549.081 -3.02649 3.04471 0
M  V30 5815 C 548.314 -4.32374 3.12872 0
M  V30 5816 O 548.537 -5.22807 2.28099 0
M  V30 5817 O 547.471 -4.44728 4.05587 0
M  V30 5818 H 551.297 -1.44373 2.67189 0
M  V30 5819 H 548.882 -0.651717 1.34436 0
M  V30 5820 H 550.764 -3.7677 1.88739 0
M  V30 5821 H 549.439 -3.11325 0.88647 0
M  V30 5822 H 548.346 -2.20821 3.01975 0
M  V30 5823 H 549.679 -2.92119 3.9614 0
M  V30 5824 N 551.331 -1.39911 -0.725443 0
M  V30 5825 C 552.579 -1.37382 -1.48224 0
M  V30 5826 C 552.9 0.0264107 -1.94982 0
M  V30 5827 O 552.17 0.979408 -1.6966 0
M  V30 5828 H 550.75 -0.505596 -0.549892 0
M  V30 5829 H 553.412 -1.7487 -0.860608 0
M  V30 5830 H 552.508 -2.04254 -2.3598 0
M  V30 5831 N 552.809 0.956637 -1.25245 0
M  V30 5832 C 554.057 1.69764 -1.09657 0
M  V30 5833 C 554.378 1.91583 0.363464 0
M  V30 5834 O 553.648 1.50149 1.25825 0
M  V30 5835 H 552.228 0.629097 -0.402798 0
M  V30 5836 H 554.89 1.15026 -1.57337 0
M  V30 5837 H 553.986 2.67769 -1.60331 0
M  V30 5838 N 554.287 1.06798 1.15896 0
M  V30 5839 C 555.536 0.782796 1.8589 0
M  V30 5840 C 555.849 -0.693498 1.82893 0
M  V30 5841 O 557.055 -1.09325 2.48516 0
M  V30 5842 C 555.511 1.3502 3.33613 0
M  V30 5843 C 555.119 2.8571 3.45071 0
M  V30 5844 C 556.863 1.14278 4.08829 0
M  V30 5845 C 554.77 3.35669 4.86909 0
M  V30 5846 H 553.7 0.289149 0.696354 0
M  V30 5847 H 556.351 1.28734 1.30766 0
M  V30 5848 H 554.733 0.773407 3.88374 0
M  V30 5849 H 555.907 3.49385 3.00445 0
M  V30 5850 H 554.222 3.05178 2.83294 0
M  V30 5851 H 556.819 1.49087 5.13495 0
M  V30 5852 H 557.162 0.0814575 4.1622 0
M  V30 5853 H 557.695 1.68563 3.60321 0
M  V30 5854 H 554.434 4.41302 4.84698 0
M  V30 5855 H 553.954 2.76745 5.32139 0
M  V30 5856 H 555.633 3.31296 5.55745 0
M  V30 5857 N 555.766 -1.3263 0.851289 0
M  V30 5858 C 557.182 -1.50162 0.5407 0
M  V30 5859 C 557.382 -1.78788 -0.929369 0
M  V30 5860 O 556.438 -1.85545 -1.71258 0
M  V30 5861 C 557.751 -2.64803 1.42478 0
M  V30 5862 C 559.299 -2.78688 1.42485 0
M  V30 5863 C 559.774 -3.96405 2.29407 0
M  V30 5864 N 561.265 -4.0366 2.27184 0
M  V30 5865 C 562 -4.93971 2.9117 0
M  V30 5866 N 561.496 -5.89313 3.64256 0
M  V30 5867 N 563.289 -4.87066 2.80576 0
M  V30 5868 H 555.44 -1.12315 1.80275 0
M  V30 5869 H 557.703 -0.553266 0.769806 0
M  V30 5870 H 557.409 -2.50368 2.46999 0
M  V30 5871 H 557.283 -3.60506 1.10974 0
M  V30 5872 H 559.67 -2.92547 0.387304 0
M  V30 5873 H 559.751 -1.83708 1.78002 0
M  V30 5874 H 559.395 -3.83304 3.33228 0
M  V30 5875 H 559.325 -4.90654 1.91224 0
M  V30 5876 H 561.816 -3.35435 1.74045 0
M  V30 5877 H 562.129 -6.54913 4.10255 0
M  V30 5878 H 560.474 -5.8935 3.68364 0
M  V30 5879 H 563.665 -4.11552 2.23031 0
M  V30 5880 H 563.838 -5.57248 3.30725 0
M  V30 5881 N 557.244 -0.608902 -1.45362 0
M  V30 5882 C 558.49 -0.104762 -2.02529 0
M  V30 5883 C 558.823 1.26191 -1.47613 0
M  V30 5884 O 558.098 1.8327 -0.65134 0
M  V30 5885 C 558.381 -0.0672661 -3.60037 0
M  V30 5886 C 558.234 -1.4647 -4.25284 0
M  V30 5887 C 559.553 0.619877 -4.35713 0
M  V30 5888 H 556.672 -0.0395438 -0.735938 0
M  V30 5889 H 559.314 -0.781126 -1.73201 0
M  V30 5890 H 557.464 0.50871 -3.85155 0
M  V30 5891 H 559.136 -2.08785 -4.11347 0
M  V30 5892 H 557.379 -2.02502 -3.83634 0
M  V30 5893 H 558.05 -1.39069 -5.34195 0
M  V30 5894 H 560.526 0.130297 -4.15896 0
M  V30 5895 H 559.402 0.615224 -5.45441 0
M  V30 5896 H 559.663 1.68621 -4.0868 0
M  V30 5897 N 558.722 1.53707 -0.348139 0
M  V30 5898 C 560.133 1.86213 0.134797 0
M  V30 5899 C 560.484 1.26925 1.49614 0
M  V30 5900 O 559.609 0.584573 2.08355 0
M  V30 5901 C 560.204 3.37866 0.251371 0
M  V30 5902 C 558.763 3.70233 0.678543 0
M  V30 5903 C 557.91 2.76683 -0.184925 0
M  V30 5904 H 560.861 1.48204 -0.567571 0
M  V30 5905 H 560.882 3.64908 1.07806 0
M  V30 5906 H 560.394 3.80988 -0.739581 0
M  V30 5907 H 558.495 3.32659 1.67835 0
M  V30 5908 H 558.608 4.76836 0.465251 0
M  V30 5909 H 556.972 2.52374 0.343465 0
M  V30 5910 H 557.755 3.22635 -1.1731 0
M  V30 5911 N 560.2 0.0768682 1.57412 0
M  V30 5912 C 561.448 -0.589918 1.93299 0
M  V30 5913 C 561.769 -1.69842 0.958049 0
M  V30 5914 O 561.039 -1.95899 0.00703261 0
M  V30 5915 H 559.619 -0.220901 0.713591 0
M  V30 5916 H 562.281 0.135917 1.94425 0
M  V30 5917 H 561.377 -1.01195 2.95239 0
M  V30 5918 N 561.678 -1.56367 -0.196722 0
M  V30 5919 C 562.927 -1.79724 -0.915539 0
M  V30 5920 C 563.24 -0.649804 -1.84491 0
M  V30 5921 O 564.446 -0.767631 -2.60422 0
M  V30 5922 C 562.902 -3.18369 -1.67836 0
M  V30 5923 C 562.51 -4.4091 -0.793897 0
M  V30 5924 C 564.254 -3.51037 -2.38691 0
M  V30 5925 C 562.161 -5.70577 -1.55549 0
M  V30 5926 H 561.091 -0.67013 -0.345604 0
M  V30 5927 H 563.742 -1.82721 -0.168856 0
M  V30 5928 H 562.124 -3.09617 -2.46887 0
M  V30 5929 H 563.298 -4.60781 -0.042163 0
M  V30 5930 H 561.613 -4.15937 -0.19626 0
M  V30 5931 H 564.21 -4.4515 -2.96219 0
M  V30 5932 H 564.553 -2.74704 -3.12799 0
M  V30 5933 H 565.086 -3.61229 -1.66608 0
M  V30 5934 H 561.825 -6.49871 -0.857226 0
M  V30 5935 H 561.345 -5.54726 -2.2812 0
M  V30 5936 H 563.024 -6.11637 -2.10971 0
M  V30 5937 N 563.156 0.464375 -1.50603 0
M  V30 5938 C 564.086 1.56944 -1.72889 0
M  V30 5939 C 565.067 1.59979 -0.577997 0
M  V30 5940 O 566.252 1.76138 -0.817855 0
M  V30 5941 C 563.382 2.95225 -1.8292 0
M  V30 5942 C 562.336 3.07056 -2.98162 0
M  V30 5943 C 561.662 4.47051 -2.93343 0
M  V30 5944 C 562.962 2.83648 -4.38567 0
M  V30 5945 H 564.656 1.38547 -2.65415 0
M  V30 5946 H 562.202 0.665082 -1.27721 0
M  V30 5947 H 564.155 3.72467 -1.97095 0
M  V30 5948 H 562.879 3.14793 -0.870209 0
M  V30 5949 H 561.538 2.32248 -2.83648 0
M  V30 5950 H 561.186 4.63547 -1.95276 0
M  V30 5951 H 560.886 4.55902 -3.70712 0
M  V30 5952 H 562.41 5.26304 -3.09575 0
M  V30 5953 H 563.824 3.50636 -4.53572 0
M  V30 5954 H 562.221 3.03937 -5.17438 0
M  V30 5955 H 563.291 1.79451 -4.50472 0
M  V30 5956 N 564.634 1.40294 0.718013 0
M  V30 5957 C 566.05 1.2227 1.02577 0
M  V30 5958 C 566.25 0.0961976 2.0127 0
M  V30 5959 O 565.306 -0.546695 2.46511 0
M  V30 5960 C 566.619 2.56348 1.57182 0
M  V30 5961 C 568.167 2.6334 1.69178 0
M  V30 5962 C 568.642 3.9768 2.27188 0
M  V30 5963 N 570.133 3.99409 2.34578 0
M  V30 5964 C 570.868 5.00141 2.8044 0
M  V30 5965 N 570.364 6.11268 3.26073 0
M  V30 5966 N 572.157 4.87511 2.79802 0
M  V30 5967 H 564.308 2.12304 0.0637899 0
M  V30 5968 H 566.571 0.943632 0.0909036 0
M  V30 5969 H 566.277 3.3942 0.921262 0
M  V30 5970 H 566.151 2.77266 2.55741 0
M  V30 5971 H 568.538 1.80641 2.33351 0
M  V30 5972 H 568.619 2.46255 0.692247 0
M  V30 5973 H 568.263 4.80817 1.63638 0
M  V30 5974 H 568.193 4.12093 3.27852 0
M  V30 5975 H 570.684 3.19162 2.02346 0
M  V30 5976 H 570.997 6.84023 3.59628 0
M  V30 5977 H 569.342 6.14837 3.24038 0
M  V30 5978 H 572.533 3.9979 2.43487 0
M  V30 5979 H 572.706 5.66158 3.15228 0
M  V30 5980 N 566.112 -0.949982 1.2575 0
M  V30 5981 C 567.358 -1.69822 1.11947 0
M  V30 5982 C 567.713 -1.89455 -0.335334 0
M  V30 5983 O 567.006 -1.45778 -1.24336 0
M  V30 5984 C 567.2 -3.08039 1.81237 0
M  V30 5985 C 567.029 -3.0189 3.33305 0
M  V30 5986 C 565.799 -3.05391 4.02573 0
M  V30 5987 C 567.997 -2.827 4.29634 0
M  V30 5988 N 565.979 -2.89449 5.4138 0
M  V30 5989 C 567.35 -2.75237 5.55558 0
M  V30 5990 C 569.405 -2.67416 4.19992 0
M  V30 5991 C 568.108 -2.54051 6.72942 0
M  V30 5992 C 570.134 -2.47602 5.37073 0
M  V30 5993 C 569.496 -2.40863 6.6194 0
M  V30 5994 H 565.595 -0.629188 0.464378 0
M  V30 5995 H 568.179 -1.1249 1.58916 0
M  V30 5996 H 566.35 -3.63528 1.36756 0
M  V30 5997 H 568.082 -3.71671 1.60134 0
M  V30 5998 H 564.837 -3.14763 3.53866 0
M  V30 5999 H 565.261 -2.84669 6.14241 0
M  V30 6000 H 569.903 -2.71398 3.24196 0
M  V30 6001 H 567.621 -2.48811 7.68842 0
M  V30 6002 H 571.207 -2.36694 5.31477 0
M  V30 6003 H 570.087 -2.25732 7.51009 0
M  V30 6004 N 567.59 -1.07411 -1.15328 0
M  V30 6005 C 569.001 -0.820261 -1.67716 0
M  V30 6006 C 569.352 0.654539 -1.8496 0
M  V30 6007 O 568.477 1.50664 -1.55337 0
M  V30 6008 C 569.072 -1.48242 -3.04647 0
M  V30 6009 C 567.631 -1.27606 -3.5411 0
M  V30 6010 C 566.778 -1.5517 -2.29821 0
M  V30 6011 H 569.729 -1.23608 -0.995332 0
M  V30 6012 H 569.75 -0.903984 -3.69606 0
M  V30 6013 H 569.262 -2.55578 -2.92064 0
M  V30 6014 H 567.363 -0.222948 -3.71932 0
M  V30 6015 H 567.476 -1.99667 -4.35511 0
M  V30 6016 H 565.84 -0.972747 -2.35393 0
M  V30 6017 H 566.623 -2.63689 -2.19824 0
M  V30 6018 N 569.068 1.32177 -0.85831 0
M  V30 6019 C 570.484 1.49873 -0.548656 0
M  V30 6020 C 570.684 1.79278 0.919874 0
M  V30 6021 O 569.74 1.86451 1.70271 0
M  V30 6022 C 571.053 2.64043 -1.4388 0
M  V30 6023 C 572.601 2.77928 -1.43961 0
M  V30 6024 C 573.076 3.95182 -2.31506 0
M  V30 6025 N 574.567 4.0245 -2.29321 0
M  V30 6026 C 575.302 4.9242 -2.93786 0
M  V30 6027 N 574.798 5.87373 -3.67376 0
M  V30 6028 N 576.591 4.85572 -2.83155 0
M  V30 6029 H 568.742 1.11357 -1.80868 0
M  V30 6030 H 571.005 0.549175 -0.772729 0
M  V30 6031 H 570.711 2.49055 -2.48324 0
M  V30 6032 H 570.585 3.59912 -1.12885 0
M  V30 6033 H 572.972 2.92338 -0.402813 0
M  V30 6034 H 573.053 1.82762 -1.78974 0
M  V30 6035 H 572.697 3.81531 -3.35256 0
M  V30 6036 H 572.627 4.89633 -1.93823 0
M  V30 6037 H 575.118 3.34507 -1.75822 0
M  V30 6038 H 575.431 6.52728 -4.13722 0
M  V30 6039 H 573.776 5.87388 -3.71484 0
M  V30 6040 H 576.967 4.10363 -2.25211 0
M  V30 6041 H 577.14 5.55486 -3.33676 0
M  V30 6042 N 570.547 0.616602 1.45037 0
M  V30 6043 C 571.793 0.115501 2.02471 0
M  V30 6044 C 572.126 -1.25406 1.4828 0
M  V30 6045 O 571.401 -1.82922 0.661051 0
M  V30 6046 C 571.684 0.0863588 3.59996 0
M  V30 6047 C 571.537 1.48723 4.24501 0
M  V30 6048 C 572.856 -0.596762 4.36035 0
M  V30 6049 H 569.975 0.0434461 0.735718 0
M  V30 6050 H 572.617 0.7903 1.72784 0
M  V30 6051 H 570.767 -0.488277 3.85419 0
M  V30 6052 H 572.439 2.10964 4.10234 0
M  V30 6053 H 570.682 2.04534 3.82555 0
M  V30 6054 H 571.353 1.419 5.3345 0
M  V30 6055 H 573.829 -0.10824 4.15959 0
M  V30 6056 H 572.705 -0.586289 5.4576 0
M  V30 6057 H 572.966 -1.66451 4.09569 0
M  V30 6058 N 572.025 -1.5352 0.356285 0
M  V30 6059 C 573.274 -2.00298 -0.237373 0
M  V30 6060 C 573.587 -1.24784 -1.50627 0
M  V30 6061 O 574.793 -1.62103 -2.17795 0
M  V30 6062 C 573.249 -3.56771 -0.473545 0
M  V30 6063 C 572.857 -4.41154 0.780183 0
M  V30 6064 C 574.601 -4.1193 -1.02537 0
M  V30 6065 C 572.508 -5.89161 0.514108 0
M  V30 6066 H 571.438 -0.748307 -0.092478 0
M  V30 6067 H 574.089 -1.77283 0.473588 0
M  V30 6068 H 572.471 -3.75902 -1.24553 0
M  V30 6069 H 573.645 -4.33797 1.55425 0
M  V30 6070 H 571.96 -3.97052 1.25455 0
M  V30 6071 H 574.557 -5.20133 -1.2396 0
M  V30 6072 H 574.9 -3.65943 -1.98473 0
M  V30 6073 H 575.433 -3.96561 -0.313775 0
M  V30 6074 H 572.172 -6.39408 1.44355 0
M  V30 6075 H 571.692 -5.9939 -0.221632 0
M  V30 6076 H 573.371 -6.46857 0.136122 0
M  V30 6077 N 573.503 -0.0852151 -1.57369 0
M  V30 6078 C 574.435 0.907099 -2.10486 0
M  V30 6079 C 575.448 1.25259 -1.03991 0
M  V30 6080 O 576.637 1.20743 -1.31467 0
M  V30 6081 C 573.737 2.21908 -2.56145 0
M  V30 6082 C 572.91 2.05042 -3.86363 0
M  V30 6083 C 571.969 3.19664 -4.17973 0
M  V30 6084 O 570.995 2.94062 -4.87356 0
M  V30 6085 N 572.197 4.45151 -3.72587 0
M  V30 6086 H 574.962 0.453505 -2.96249 0
M  V30 6087 H 572.523 0.100157 -1.6159 0
M  V30 6088 H 574.515 2.97519 -2.74343 0
M  V30 6089 H 573.085 2.58723 -1.75446 0
M  V30 6090 H 572.305 1.13819 -3.77411 0
M  V30 6091 H 573.593 1.91039 -4.71574 0
M  V30 6092 H 572.991 4.68834 -3.16561 0
M  V30 6093 H 571.548 5.17744 -3.9596 0
M  V30 6094 N 574.981 1.5647 0.188427 0
M  V30 6095 C 575.944 1.9421 1.21718 0
M  V30 6096 C 576.944 0.823901 1.38089 0
M  V30 6097 O 578.134 1.09122 1.35787 0
M  V30 6098 C 575.266 2.22197 2.58537 0
M  V30 6099 H 576.459 2.86252 0.894418 0
M  V30 6100 H 574.012 1.50263 0.430211 0
M  V30 6101 H 574.747 1.32814 2.95856 0
M  V30 6102 H 574.532 3.03688 2.48025 0
M  V30 6103 H 576.022 2.52376 3.3271 0
M  V30 6104 N 576.459 -0.456382 1.50847 0
M  V30 6105 C 577.707 -1.20497 1.62249 0
M  V30 6106 C 578.028 -1.92156 0.331839 0
M  V30 6107 O 577.298 -1.84751 -0.651443 0
M  V30 6108 H 575.878 -0.447775 0.597918 0
M  V30 6109 H 578.54 -0.525099 1.87693 0
M  V30 6110 H 577.636 -1.94492 2.44089 0
M  V30 6111 N 577.937 -1.40673 -0.710563 0
M  V30 6112 C 578.869 -1.37256 -1.83558 0
M  V30 6113 C 579.882 -0.277133 -1.60424 0
M  V30 6114 O 581.071 -0.537831 -1.70205 0
M  V30 6115 C 578.171 -1.1144 -3.20054 0
M  V30 6116 C 577.344 -2.32734 -3.70342 0
M  V30 6117 C 576.403 -2.03002 -4.85465 0
M  V30 6118 O 575.429 -2.75912 -4.97857 0
M  V30 6119 N 576.631 -1.01105 -5.71627 0
M  V30 6120 H 579.396 -2.34215 -1.86985 0
M  V30 6121 H 576.957 -1.35091 -0.892301 0
M  V30 6122 H 578.949 -0.895265 -3.94673 0
M  V30 6123 H 577.519 -0.231307 -3.11743 0
M  V30 6124 H 576.739 -2.70446 -2.86798 0
M  V30 6125 H 578.027 -3.13584 -4.00678 0
M  V30 6126 H 577.425 -0.407303 -5.64232 0
M  V30 6127 H 575.982 -0.85182 -6.4621 0
M  V30 6128 N 579.415 0.9433 -1.26252 0
M  V30 6129 C 580.362 2.0417 -1.07625 0
M  V30 6130 C 581.332 1.6609 0.0180738 0
M  V30 6131 O 582.517 1.90276 -0.141289 0
M  V30 6132 C 579.657 3.37653 -0.713043 0
M  V30 6133 C 578.77 3.88783 -1.8834 0
M  V30 6134 C 577.905 5.10642 -1.4635 0
M  V30 6135 C 576.944 5.54028 -2.60229 0
M  V30 6136 N 576.081 6.67092 -2.18936 0
M  V30 6137 H 580.921 2.19436 -2.01623 0
M  V30 6138 H 578.458 1.07519 -1.00389 0
M  V30 6139 H 580.416 4.14391 -0.483358 0
M  V30 6140 H 579.046 3.22241 0.18996 0
M  V30 6141 H 578.098 3.08464 -2.22608 0
M  V30 6142 H 579.41 4.16922 -2.73821 0
M  V30 6143 H 578.564 5.94832 -1.19414 0
M  V30 6144 H 577.303 4.84244 -0.579568 0
M  V30 6145 H 576.308 4.68396 -2.87898 0
M  V30 6146 H 577.533 5.82429 -3.49219 0
M  V30 6147 H 575.479 6.42381 -1.32974 0
M  V30 6148 H 575.396 6.94806 -2.97961 0
M  V30 6149 H 576.664 7.54662 -1.95206 0
M  V30 6150 N 580.893 1.08022 1.14757 0
M  V30 6151 C 582.142 0.802468 1.8505 0
M  V30 6152 C 582.455 -0.674061 1.83619 0
M  V30 6153 O 583.661 -1.06683 2.49662 0
M  V30 6154 C 582.117 1.38551 3.32162 0
M  V30 6155 C 581.725 2.89354 3.42021 0
M  V30 6156 C 583.469 1.18608 4.07594 0
M  V30 6157 C 581.376 3.40815 4.83321 0
M  V30 6158 H 580.306 0.296518 0.693248 0
M  V30 6159 H 582.957 1.30114 1.29393 0
M  V30 6160 H 581.339 0.814556 3.87532 0
M  V30 6161 H 582.513 3.52552 2.96722 0
M  V30 6162 H 580.828 3.08165 2.80041 0
M  V30 6163 H 583.425 1.54525 5.11885 0
M  V30 6164 H 583.768 0.125599 4.1611 0
M  V30 6165 H 584.301 1.72375 3.58513 0
M  V30 6166 H 581.04 4.46418 4.79991 0
M  V30 6167 H 580.56 2.82374 5.29174 0
M  V30 6168 H 582.239 3.37171 5.522 0
M  V30 6169 N 582.371 -1.3172 0.865308 0
M  V30 6170 C 583.648 -1.91574 0.394789 0
M  V30 6171 C 584.028 -1.78769 -1.12271 0
M  V30 6172 O 583.376 -1.19245 -1.94918 0
M  V30 6173 C 583.586 -3.37957 0.870982 0
M  V30 6174 C 584.934 -4.15073 0.894384 0
M  V30 6175 O 585.958 -3.4672 0.816325 0
M  V30 6176 O 584.817 -5.37151 1.00651 0
M  V30 6177 H 581.911 -0.818649 0.117229 0
M  V30 6178 H 584.457 -1.4042 0.952913 0
M  V30 6179 H 583.229 -3.41269 1.91444 0
M  V30 6180 H 582.852 -3.96534 0.290907 0
M  V30 6181 N 583.85 -0.624285 -1.44708 0
M  V30 6182 C 584.76 0.0861083 -2.34442 0
M  V30 6183 C 585.776 0.84291 -1.5222 0
M  V30 6184 O 586.952 0.796723 -1.84971 0
M  V30 6185 C 584.017 1.05999 -3.30099 0
M  V30 6186 C 583.077 0.303316 -4.28227 0
M  V30 6187 C 582.311 1.23081 -5.19314 0
M  V30 6188 O 582.534 2.46929 -5.14181 0
M  V30 6189 O 581.468 0.71883 -5.97592 0
M  V30 6190 H 585.293 -0.651756 -2.96624 0
M  V30 6191 H 582.879 -0.384493 -1.44368 0
M  V30 6192 H 584.76 1.62046 -3.88997 0
M  V30 6193 H 583.436 1.77859 -2.70459 0
M  V30 6194 H 582.343 -0.300033 -3.72895 0
M  V30 6195 H 583.676 -0.375123 -4.90768 0
M  V30 6196 N 585.328 1.53329 -0.364422 0
M  V30 6197 C 586.739 1.86345 0.115039 0
M  V30 6198 C 587.09 1.28505 1.4826 0
M  V30 6199 O 586.215 0.606639 2.07723 0
M  V30 6200 C 586.81 3.38114 0.215522 0
M  V30 6201 C 585.369 3.70932 0.639237 0
M  V30 6202 C 584.516 2.76471 -0.214261 0
M  V30 6203 H 587.467 1.47593 -0.583258 0
M  V30 6204 H 587.488 3.66031 1.0393 0
M  V30 6205 H 587 3.80182 -0.779948 0
M  V30 6206 H 585.101 3.3442 1.64298 0
M  V30 6207 H 585.214 4.77302 0.41465 0
M  V30 6208 H 583.578 2.52724 0.316678 0
M  V30 6209 H 584.361 3.21373 -1.20725 0
M  V30 6210 N 586.806 0.0935595 1.57322 0
M  V30 6211 C 588.034 -0.578934 1.98635 0
M  V30 6212 C 588.449 -1.61819 0.972626 0
M  V30 6213 O 587.806 -1.82461 -0.0379638 0
M  V30 6214 C 587.857 -1.22802 3.40003 0
M  V30 6215 O 587.578 -0.230334 4.37494 0
M  V30 6216 C 589.079 -1.98627 3.96311 0
M  V30 6217 H 586.299 -0.155324 0.652775 0
M  V30 6218 H 588.843 0.172393 2.03772 0
M  V30 6219 H 586.998 -1.93029 3.35885 0
M  V30 6220 H 587.412 -0.698649 5.19826 0
M  V30 6221 H 588.886 -2.39405 4.97382 0
M  V30 6222 H 589.363 -2.85151 3.34044 0
M  V30 6223 H 589.969 -1.3322 4.03897 0
M  V30 6224 N 588.284 -1.56567 -0.180126 0
M  V30 6225 C 589.509 -1.85975 -0.918041 0
M  V30 6226 C 589.934 -0.678888 -1.75422 0
M  V30 6227 O 589.292 0.372168 -1.77439 0
M  V30 6228 C 589.34 -3.13731 -1.77779 0
M  V30 6229 O 588.444 -2.95335 -2.87838 0
M  V30 6230 H 587.785 -0.61196 -0.257683 0
M  V30 6231 H 590.315 -2.03798 -0.180923 0
M  V30 6232 H 590.325 -3.4491 -2.17948 0
M  V30 6233 H 589 -3.99293 -1.16352 0
M  V30 6234 H 587.577 -2.7549 -2.51316 0
M  V30 6235 N 589.762 0.448376 -1.51087 0
M  V30 6236 C 590.71 1.56407 -1.72161 0
M  V30 6237 C 591.704 1.58878 -0.587721 0
M  V30 6238 O 592.91 1.62755 -0.768822 0
M  V30 6239 H 589.285 0.519423 -0.543786 0
M  V30 6240 H 591.256 1.35803 -2.65707 0
M  V30 6241 C 590.005 2.94163 -1.85373 0
M  V30 6242 H 589.328 2.9299 -2.72024 0
M  V30 6243 H 590.768 3.71625 -2.04135 0
M  V30 6244 C 589.227 3.31317 -0.610803 0
M  V30 6245 O 589.757 4.00985 0.239636 0
M  V30 6246 N 587.963 2.86966 -0.458127 0
M  V30 6247 H 587.51 2.30443 -1.15124 0
M  V30 6248 H 587.468 3.12188 0.372289 0
M  V30 6249 N 591.24 1.41047 0.703093 0
M  V30 6250 C 592.173 1.36713 1.82715 0
M  V30 6251 C 593.151 0.235533 1.60885 0
M  V30 6252 O 594.335 0.421227 1.83733 0
M  V30 6253 C 591.462 1.13069 3.1927 0
M  V30 6254 C 590.508 2.28846 3.59905 0
M  V30 6255 S 591.341 3.91297 3.65578 0
M  V30 6256 C 592.497 3.69941 5.04871 0
M  V30 6257 H 592.73 2.31838 1.86114 0
M  V30 6258 H 590.263 1.27481 0.871083 0
M  V30 6259 H 592.221 1.00113 3.98105 0
M  V30 6260 H 590.882 0.195763 3.13489 0
M  V30 6261 H 590.075 2.07977 4.59088 0
M  V30 6262 H 589.677 2.3817 2.88359 0
M  V30 6263 H 591.969 3.29181 5.92154 0
M  V30 6264 H 592.912 4.68699 5.30779 0
M  V30 6265 H 593.32 3.03369 4.76054 0
M  V30 6266 N 592.718 -0.936591 1.26751 0
M  V30 6267 C 593.995 -1.66094 1.03306 0
M  V30 6268 C 594.375 -2.06568 -0.435058 0
M  V30 6269 O 593.723 -1.79305 -1.41641 0
M  V30 6270 C 593.933 -2.86969 1.98619 0
M  V30 6271 C 595.281 -3.58516 2.27489 0
M  V30 6272 O 596.305 -2.97082 1.96522 0
M  V30 6273 O 595.164 -4.69181 2.80235 0
M  V30 6274 H 592.258 -0.727568 0.393158 0
M  V30 6275 H 594.804 -0.987914 1.3798 0
M  V30 6276 H 593.576 -2.53985 2.9767 0
M  V30 6277 H 593.199 -3.61996 1.64454 0
M  V30 6278 N 594.196 -1.08629 -1.14182 0
M  V30 6279 C 595.445 -0.812271 -1.84621 0
M  V30 6280 C 595.758 0.664313 -1.83973 0
M  V30 6281 O 596.964 1.05357 -2.50224 0
M  V30 6282 C 595.42 -1.4031 -3.31423 0
M  V30 6283 C 595.028 -2.91164 -3.40481 0
M  V30 6284 C 596.772 -1.20767 -4.06959 0
M  V30 6285 C 594.679 -3.43373 -4.81507 0
M  V30 6286 H 593.609 -0.30019 -0.691666 0
M  V30 6287 H 596.26 -1.30798 -1.28701 0
M  V30 6288 H 594.642 -0.835096 -3.87094 0
M  V30 6289 H 595.816 -3.5412 -2.94848 0
M  V30 6290 H 594.131 -3.09646 -2.78403 0
M  V30 6291 H 596.728 -1.57237 -5.11058 0
M  V30 6292 H 597.071 -0.147664 -4.16038 0
M  V30 6293 H 597.604 -1.74274 -3.57594 0
M  V30 6294 H 594.343 -4.48958 -4.77616 0
M  V30 6295 H 593.863 -2.85176 -5.27669 0
M  V30 6296 H 595.542 -3.40095 -5.50404 0
M  V30 6297 N 595.674 1.31259 -0.872281 0
M  V30 6298 C 596.921 1.96622 -0.484365 0
M  V30 6299 C 597.249 1.68939 0.963841 0
M  V30 6300 O 596.504 0.97974 1.6941 0
M  V30 6301 C 596.803 3.50659 -0.690889 0
M  V30 6302 C 596.469 3.98366 -2.11224 0
M  V30 6303 C 595.131 4.11104 -2.50094 0
M  V30 6304 C 597.483 4.23425 -3.0391 0
M  V30 6305 C 594.811 4.46254 -3.80887 0
M  V30 6306 C 597.163 4.60039 -4.3422 0
M  V30 6307 C 595.827 4.70984 -4.73001 0
M  V30 6308 H 595.097 0.71949 -0.177242 0
M  V30 6309 H 597.744 1.56353 -1.10571 0
M  V30 6310 H 596.049 3.91798 0.0135782 0
M  V30 6311 H 597.746 3.99284 -0.370534 0
M  V30 6312 H 594.336 3.88949 -1.80047 0
M  V30 6313 H 598.52 4.13075 -2.75104 0
M  V30 6314 H 593.776 4.52926 -4.10692 0
M  V30 6315 H 597.95 4.78381 -5.06088 0
M  V30 6316 H 595.577 4.97977 -5.7439 0
M  V30 6317 N 597.152 0.631951 1.44375 0
M  V30 6318 C 598.563 0.219036 1.85411 0
M  V30 6319 C 598.914 -1.22974 1.52879 0
M  V30 6320 O 598.039 -1.93579 0.967266 0
M  V30 6321 C 598.634 0.39075 3.36539 0
M  V30 6322 C 597.193 0.0323351 3.76386 0
M  V30 6323 C 596.34 0.703744 2.68221 0
M  V30 6324 H 599.291 0.837056 1.3483 0
M  V30 6325 H 599.312 -0.370056 3.78696 0
M  V30 6326 H 598.824 1.44527 3.60185 0
M  V30 6327 H 596.925 -1.02042 3.58355 0
M  V30 6328 H 597.038 0.442969 4.77048 0
M  V30 6329 H 595.402 0.138974 2.54321 0
M  V30 6330 H 596.185 1.76088 2.947 0
M  V30 6331 N 598.631 -1.53133 0.372548 0
M  V30 6332 C 599.859 -2.05774 -0.215515 0
M  V30 6333 C 600.274 -1.24555 -1.41886 0
M  V30 6334 O 599.631 -0.287951 -1.80214 0
M  V30 6335 C 599.682 -3.5645 -0.602161 0
M  V30 6336 O 599.403 -4.34591 0.553359 0
M  V30 6337 C 600.904 -4.25374 -1.24787 0
M  V30 6338 H 598.124 -0.670009 -0.0364529 0
M  V30 6339 H 600.668 -1.97434 0.532934 0
M  V30 6340 H 598.823 -3.64918 -1.30052 0
M  V30 6341 H 599.237 -5.23954 0.239336 0
M  V30 6342 H 600.711 -5.32097 -1.46891 0
M  V30 6343 H 601.188 -3.79531 -2.21026 0
M  V30 6344 H 601.794 -4.21177 -0.590752 0
M  V30 6345 N 600.109 -0.101901 -1.5727 0
M  V30 6346 C 601.355 0.561027 -1.94885 0
M  V30 6347 C 601.688 1.6741 -0.984258 0
M  V30 6348 O 600.963 1.94491 -0.0184767 0
M  V30 6349 C 601.246 1.10982 -3.42571 0
M  V30 6350 C 601.099 0.00133418 -4.498 0
M  V30 6351 C 602.418 2.00608 -3.9172 0
M  V30 6352 H 599.537 0.202467 -0.708644 0
M  V30 6353 H 602.179 -0.173992 -1.89202 0
M  V30 6354 H 600.329 1.73621 -3.47546 0
M  V30 6355 H 602.001 -0.63322 -4.56933 0
M  V30 6356 H 600.244 -0.664143 -4.28686 0
M  V30 6357 H 600.915 0.426253 -5.50352 0
M  V30 6358 H 603.391 1.47864 -3.88941 0
M  V30 6359 H 602.267 2.3593 -4.95609 0
M  V30 6360 H 602.528 2.92608 -3.3141 0
M  V30 6361 N 601.587 1.56661 0.17182 0
M  V30 6362 C 602.55 1.9549 1.19651 0
M  V30 6363 C 603.55 0.838501 1.37207 0
M  V30 6364 O 604.74 1.10556 1.34622 0
M  V30 6365 C 601.872 2.24927 2.56166 0
M  V30 6366 H 603.065 2.87184 0.864007 0
M  V30 6367 H 600.618 1.50711 0.41425 0
M  V30 6368 H 601.353 1.35944 2.94431 0
M  V30 6369 H 601.138 3.06301 2.4479 0
M  V30 6370 H 602.628 2.55891 3.30014 0
M  V30 6371 N 603.065 -0.440357 1.51323 0
M  V30 6372 C 604.012 -1.53429 1.72419 0
M  V30 6373 C 604.982 -1.56165 0.565826 0
M  V30 6374 O 606.167 -1.73222 0.799917 0
M  V30 6375 C 603.307 -2.91169 1.85242 0
M  V30 6376 C 602.42 -2.97985 3.12777 0
M  V30 6377 C 601.555 -4.26829 3.16212 0
M  V30 6378 C 600.594 -4.27501 4.38074 0
M  V30 6379 N 599.731 -5.47866 4.39076 0
M  V30 6380 H 604.571 -1.34743 2.65797 0
M  V30 6381 H 602.108 -0.654608 1.31732 0
M  V30 6382 H 604.066 -3.71087 1.90658 0
M  V30 6383 H 602.696 -3.0842 0.952744 0
M  V30 6384 H 601.748 -2.10749 3.16685 0
M  V30 6385 H 603.06 -2.94342 4.02696 0
M  V30 6386 H 602.214 -5.15118 3.20527 0
M  V30 6387 H 600.953 -4.33124 2.24176 0
M  V30 6388 H 599.958 -3.37606 4.33938 0
M  V30 6389 H 601.183 -4.22873 5.31371 0
M  V30 6390 H 599.129 -5.54887 3.49909 0
M  V30 6391 H 599.046 -5.46091 5.22801 0
M  V30 6392 H 600.314 -6.38195 4.4758 0
M  V30 6393 N 604.543 -1.41418 -0.695603 0
M  V30 6394 C 605.473 -1.46035 -1.82197 0
M  V30 6395 C 606.454 -0.319025 -1.67082 0
M  V30 6396 O 607.639 -0.530462 -1.86815 0
M  V30 6397 C 604.769 -1.34179 -3.20333 0
M  V30 6398 C 603.723 -2.46123 -3.50154 0
M  V30 6399 C 603.049 -2.19332 -4.87645 0
M  V30 6400 C 604.349 -3.88463 -3.49133 0
M  V30 6401 H 606.043 -2.40303 -1.78591 0
M  V30 6402 H 603.589 -1.15663 -0.857797 0
M  V30 6403 H 605.542 -1.36021 -3.98844 0
M  V30 6404 H 604.266 -0.363952 -3.24566 0
M  V30 6405 H 602.925 -2.43563 -2.73994 0
M  V30 6406 H 602.573 -1.19891 -4.88503 0
M  V30 6407 H 602.273 -2.94344 -5.08562 0
M  V30 6408 H 603.797 -2.22889 -5.68465 0
M  V30 6409 H 605.211 -3.92738 -4.17648 0
M  V30 6410 H 603.608 -4.63158 -3.81582 0
M  V30 6411 H 604.678 -4.16617 -2.48109 0
M  V30 6412 N 606.021 0.929856 -1.27246 0
M  V30 6413 C 606.984 2.01172 -1.09829 0
M  V30 6414 C 607.984 1.60743 -0.0429687 0
M  V30 6415 O 609.174 1.71813 -0.287373 0
M  V30 6416 C 606.306 3.34191 -0.673003 0
M  V30 6417 H 607.499 2.18054 -2.05895 0
M  V30 6418 H 605.052 1.11036 -1.10003 0
M  V30 6419 H 605.787 3.23009 0.289134 0
M  V30 6420 H 605.572 3.64892 -1.43515 0
M  V30 6421 H 607.062 4.13646 -0.573323 0
M  V30 6422 N 607.499 1.09233 1.13605 0
M  V30 6423 C 608.747 0.825525 1.84471 0
M  V30 6424 C 609.068 -0.650702 1.83823 0
M  V30 6425 O 608.338 -1.47204 1.29259 0
M  V30 6426 H 606.918 0.3024 0.683054 0
M  V30 6427 H 609.58 1.38006 1.37624 0
M  V30 6428 H 608.676 1.17727 2.89045 0
M  V30 6429 N 608.977 -1.30795 0.87923 0
M  V30 6430 C 609.94 -2.26563 0.346676 0
M  V30 6431 C 610.94 -1.52578 -0.507597 0
M  V30 6432 O 612.13 -1.71318 -0.315575 0
M  V30 6433 C 609.262 -3.37115 -0.506611 0
M  V30 6434 H 610.455 -2.75183 1.19223 0
M  V30 6435 H 608.008 -1.41886 0.655598 0
M  V30 6436 H 608.743 -2.93802 -1.37299 0
M  V30 6437 H 608.528 -3.91959 0.105218 0
M  V30 6438 H 610.018 -4.08412 -0.871192 0
M  V30 6439 N 610.455 -0.639598 -1.44038 0
M  V30 6440 C 611.866 -0.228866 -1.85292 0
M  V30 6441 C 612.217 1.22161 -1.53529 0
M  V30 6442 O 611.342 1.93064 -0.977518 0
M  V30 6443 C 611.937 -0.408592 -3.36327 0
M  V30 6444 C 610.496 -0.0522953 -3.76364 0
M  V30 6445 C 609.643 -0.717959 -2.67844 0
M  V30 6446 H 612.594 -0.844194 -1.34384 0
M  V30 6447 H 612.615 0.349968 -3.78887 0
M  V30 6448 H 612.127 -1.46435 -3.59414 0
M  V30 6449 H 610.228 1.0014 -3.58891 0
M  V30 6450 H 610.341 -0.468261 -4.76806 0
M  V30 6451 H 608.705 -0.152459 -2.54243 0
M  V30 6452 H 609.488 -1.77648 -2.93762 0
M  V30 6453 N 611.933 1.52934 -0.380664 0
M  V30 6454 C 612.863 2.29118 0.450268 0
M  V30 6455 C 613.844 1.32153 1.07096 0
M  V30 6456 O 615.029 1.61038 1.08537 0
M  V30 6457 C 612.159 3.09161 1.58231 0
M  V30 6458 C 611.113 4.13938 1.0881 0
M  V30 6459 C 610.439 4.82153 2.31155 0
M  V30 6460 C 611.739 5.22048 0.162146 0
M  V30 6461 H 613.433 2.98826 -0.185361 0
M  V30 6462 H 610.979 1.43715 -0.0905886 0
M  V30 6463 H 612.932 3.61211 2.17036 0
M  V30 6464 H 611.656 2.3717 2.2454 0
M  V30 6465 H 610.315 3.62855 0.522633 0
M  V30 6466 H 609.963 4.06719 2.95953 0
M  V30 6467 H 609.663 5.52966 1.98752 0
M  V30 6468 H 611.187 5.37004 2.90618 0
M  V30 6469 H 612.601 5.6951 0.658126 0
M  V30 6470 H 610.998 6.00057 -0.0717122 0
M  V30 6471 H 612.068 4.78398 -0.791438 0
M  V30 6472 N 613.412 0.11024 1.57214 0
M  V30 6473 C 614.823 -0.416527 1.81994 0
M  V30 6474 C 615.174 -1.67183 1.02686 0
M  V30 6475 O 614.299 -2.14823 0.260782 0
M  V30 6476 C 614.894 -0.762466 3.30109 0
M  V30 6477 C 613.453 -1.23391 3.556 0
M  V30 6478 C 612.6 -0.238166 2.76275 0
M  V30 6479 H 615.551 0.335491 1.55113 0
M  V30 6480 H 615.572 -1.62068 3.44259 0
M  V30 6481 H 615.084 0.151346 3.87805 0
M  V30 6482 H 613.185 -2.16492 3.03253 0
M  V30 6483 H 613.298 -1.18528 4.64207 0
M  V30 6484 H 611.662 -0.723421 2.4421 0
M  V30 6485 H 612.445 0.668591 3.36727 0
M  V30 6486 N 614.89 -1.56749 -0.16351 0
M  V30 6487 C 615.8 -2.00255 -1.2221 0
M  V30 6488 C 616.816 -0.915194 -1.47987 0
M  V30 6489 O 617.992 -1.22342 -1.59982 0
M  V30 6490 C 615.057 -2.36035 -2.53946 0
M  V30 6491 C 614.118 -3.58637 -2.35962 0
M  V30 6492 C 613.351 -3.92701 -3.61416 0
M  V30 6493 O 613.574 -3.27632 -4.66919 0
M  V30 6494 O 612.508 -4.86019 -3.55062 0
M  V30 6495 H 616.334 -2.90586 -0.882794 0
M  V30 6496 H 613.919 -1.44721 -0.370978 0
M  V30 6497 H 615.801 -2.59982 -3.31643 0
M  V30 6498 H 614.476 -1.48863 -2.8744 0
M  V30 6499 H 613.383 -3.39898 -1.5627 0
M  V30 6500 H 614.716 -4.46374 -2.0739 0
M  V30 6501 N 616.368 0.432326 -1.51554 0
M  V30 6502 C 617.645 1.19288 -1.55015 0
M  V30 6503 C 618.025 2.08701 -0.317375 0
M  V30 6504 O 617.373 2.17602 0.697243 0
M  V30 6505 C 617.583 1.99037 -2.86679 0
M  V30 6506 C 618.931 2.55907 -3.38817 0
M  V30 6507 O 619.955 2.09243 -2.88263 0
M  V30 6508 O 618.814 3.41029 -4.27038 0
M  V30 6509 H 615.908 0.543369 -0.623441 0
M  V30 6510 H 618.454 0.440988 -1.6387 0
M  V30 6511 H 617.226 1.33397 -3.6786 0
M  V30 6512 H 616.849 2.81281 -2.8101 0
M  V30 6513 N 617.846 1.41785 0.688094 0
M  V30 6514 C 619.262 1.24419 0.999608 0
M  V30 6515 C 619.462 0.138868 2.01021 0
M  V30 6516 O 618.518 -0.494283 2.47615 0
M  V30 6517 C 619.831 2.59625 1.51709 0
M  V30 6518 C 621.379 2.66869 1.63554 0
M  V30 6519 C 621.854 4.0241 2.18702 0
M  V30 6520 N 623.345 4.04295 2.26053 0
M  V30 6521 C 624.08 5.05977 2.69768 0
M  V30 6522 N 623.576 6.18047 3.13033 0
M  V30 6523 N 625.369 4.93336 2.69398 0
M  V30 6524 H 617.52 2.12392 0.0187427 0
M  V30 6525 H 619.783 0.945347 0.0708673 0
M  V30 6526 H 619.489 3.41297 0.849059 0
M  V30 6527 H 619.363 2.82628 2.49803 0
M  V30 6528 H 621.75 1.8555 2.29467 0
M  V30 6529 H 621.831 2.47668 0.639857 0
M  V30 6530 H 621.475 4.8418 1.53402 0
M  V30 6531 H 621.405 4.18955 3.19037 0
M  V30 6532 H 623.896 3.23383 1.9553 0
M  V30 6533 H 624.209 6.91498 3.45038 0
M  V30 6534 H 622.554 6.21572 3.10923 0
M  V30 6535 H 625.745 4.04865 2.34952 0
M  V30 6536 H 625.918 5.72717 3.03148 0
M  V30 6537 N 619.324 -0.923095 1.27737 0
M  V30 6538 C 620.573 -1.66581 1.13727 0
M  V30 6539 C 620.886 -1.9304 -0.315433 0
M  V30 6540 O 622.092 -2.65309 -0.57651 0
M  V30 6541 C 620.548 -3.00047 1.98745 0
M  V30 6542 C 620.156 -2.8127 3.48699 0
M  V30 6543 C 621.9 -3.77887 1.93395 0
M  V30 6544 C 619.807 -4.1032 4.25901 0
M  V30 6545 H 618.737 -0.624834 0.422017 0
M  V30 6546 H 621.388 -1.02514 1.52194 0
M  V30 6547 H 619.77 -3.65197 1.53125 0
M  V30 6548 H 620.944 -2.24859 4.02213 0
M  V30 6549 H 619.259 -2.16854 3.55476 0
M  V30 6550 H 621.856 -4.73526 2.48348 0
M  V30 6551 H 622.199 -4.06264 0.908605 0
M  V30 6552 H 622.732 -3.19541 2.36935 0
M  V30 6553 H 619.471 -3.8712 5.28978 0
M  V30 6554 H 618.991 -4.66377 3.77163 0
M  V30 6555 H 620.67 -4.78648 4.35321 0
M  V30 6556 N 620.802 -1.09834 -1.13024 0
M  V30 6557 C 622.051 -0.831806 -1.83749 0
M  V30 6558 C 622.364 0.644763 -1.84668 0
M  V30 6559 O 623.57 1.02697 -2.51327 0
M  V30 6560 C 622.026 -1.43817 -3.29916 0
M  V30 6561 C 621.634 -2.94759 -3.37374 0
M  V30 6562 C 623.378 -1.25077 -4.05655 0
M  V30 6563 C 621.285 -3.48461 -4.77838 0
M  V30 6564 H 620.215 -0.30751 -0.688443 0
M  V30 6565 H 622.866 -1.32156 -1.27307 0
M  V30 6566 H 621.248 -0.876106 -3.86187 0
M  V30 6567 H 622.422 -3.57228 -2.91076 0
M  V30 6568 H 620.737 -3.12581 -2.75103 0
M  V30 6569 H 623.334 -1.62649 -5.09362 0
M  V30 6570 H 623.677 -0.191782 -4.15858 0
M  V30 6571 H 624.21 -1.78057 -3.55725 0
M  V30 6572 H 620.949 -4.53998 -4.72828 0
M  V30 6573 H 620.469 -2.90757 -5.24615 0
M  V30 6574 H 622.148 -3.45914 -5.46766 0
M  V30 6575 N 622.28 1.30327 -0.886154 0
M  V30 6576 C 623.557 1.90922 -0.425217 0
M  V30 6577 C 623.937 1.80533 1.09413 0
M  V30 6578 O 623.285 1.2233 1.92996 0
M  V30 6579 C 623.495 3.36529 -0.924638 0
M  V30 6580 C 624.843 4.13598 -0.960305 0
M  V30 6581 O 625.867 3.45377 -0.871382 0
M  V30 6582 O 624.726 5.35482 -1.09184 0
M  V30 6583 H 621.82 0.81668 -0.130238 0
M  V30 6584 H 624.366 1.38886 -0.975132 0
M  V30 6585 H 623.138 3.38181 -1.96849 0
M  V30 6586 H 622.761 3.96021 -0.353955 0
M  V30 6587 N 623.758 0.647228 1.43697 0
M  V30 6588 C 625.006 0.157876 2.01482 0
M  V30 6589 C 625.327 -1.23039 1.51282 0
M  V30 6590 O 624.597 -1.82071 0.722982 0
M  V30 6591 H 623.177 0.0553745 0.744945 0
M  V30 6592 H 625.839 0.83755 1.75986 0
M  V30 6593 H 624.935 0.137895 3.11795 0
M  V30 6594 N 625.236 -1.5273 0.388769 0
M  V30 6595 C 626.652 -1.59553 0.0387049 0
M  V30 6596 C 626.852 -1.40278 -1.44652 0
M  V30 6597 O 625.908 -1.21951 -2.21098 0
M  V30 6598 C 627.221 -2.9625 0.515409 0
M  V30 6599 C 628.769 -3.09426 0.471621 0
M  V30 6600 C 629.244 -4.48572 0.924505 0
M  V30 6601 N 630.735 -4.54754 0.880496 0
M  V30 6602 C 631.47 -5.60653 1.20234 0
M  V30 6603 N 630.966 -6.74198 1.59463 0
M  V30 6604 N 632.759 -5.50755 1.12363 0
M  V30 6605 H 624.91 -1.63508 1.35569 0
M  V30 6606 H 627.173 -0.768097 0.555636 0
M  V30 6607 H 626.879 -3.15569 1.5527 0
M  V30 6608 H 626.753 -3.77102 -0.085792 0
M  V30 6609 H 629.14 -2.89804 -0.556588 0
M  V30 6610 H 629.221 -2.30528 1.10862 0
M  V30 6611 H 628.865 -4.68936 1.95094 0
M  V30 6612 H 628.795 -5.25935 0.264524 0
M  V30 6613 H 631.286 -3.73237 0.591815 0
M  V30 6614 H 631.599 -7.5097 1.82385 0
M  V30 6615 H 629.944 -6.75531 1.63349 0
M  V30 6616 H 633.135 -4.6093 0.816169 0
M  V30 6617 H 633.308 -6.33184 1.37777 0
M  V30 6618 N 626.714 -0.118576 -1.57153 0
M  V30 6619 C 627.991 0.583062 -1.86708 0
M  V30 6620 C 628.371 1.84841 -1.01967 0
M  V30 6621 O 627.719 2.28288 -0.0984673 0
M  V30 6622 C 627.929 0.875912 -3.3783 0
M  V30 6623 C 629.277 1.22916 -4.0642 0
M  V30 6624 O 630.301 0.966188 -3.42846 0
M  V30 6625 O 629.16 1.72269 -5.18638 0
M  V30 6626 H 626.254 0.294185 -0.772906 0
M  V30 6627 H 628.8 -0.153048 -1.69008 0
M  V30 6628 H 627.572 -0.0207776 -3.91294 0
M  V30 6629 H 627.195 1.66719 -3.60958 0
M  V30 6630 N 628.193 1.56834 0.155195 0
M  V30 6631 C 629.123 2.00678 1.19376 0
M  V30 6632 C 630.104 0.884973 1.45266 0
M  V30 6633 O 631.289 1.1522 1.56326 0
M  V30 6634 C 628.419 2.38042 2.5289 0
M  V30 6635 C 627.373 3.53332 2.41538 0
M  V30 6636 C 626.699 3.76485 3.79688 0
M  V30 6637 C 627.999 4.86265 1.9064 0
M  V30 6638 H 629.693 2.87688 0.829232 0
M  V30 6639 H 627.239 1.38407 0.397445 0
M  V30 6640 H 629.192 2.67314 3.25763 0
M  V30 6641 H 627.916 1.4796 2.91162 0
M  V30 6642 H 626.575 3.24213 1.71117 0
M  V30 6643 H 626.223 2.83667 4.15382 0
M  V30 6644 H 625.923 4.54068 3.72956 0
M  V30 6645 H 627.447 4.08174 4.54122 0
M  V30 6646 H 628.861 5.14308 2.53299 0
M  V30 6647 H 627.258 5.67597 1.94818 0
M  V30 6648 H 628.328 4.77184 0.861596 0
M  V30 6649 N 629.671 -0.424282 1.51781 0
M  V30 6650 C 630.604 -1.53633 1.68737 0
M  V30 6651 C 631.582 -1.53549 0.534915 0
M  V30 6652 O 632.766 -1.72483 0.760391 0
M  V30 6653 C 629.893 -2.92195 1.71288 0
M  V30 6654 C 628.939 -3.10251 2.92654 0
M  V30 6655 S 629.772 -2.85166 4.53256 0
M  V30 6656 C 630.928 -4.25986 4.58571 0
M  V30 6657 H 631.161 -1.39018 2.62795 0
M  V30 6658 H 628.694 -0.614854 1.41629 0
M  V30 6659 H 630.652 -3.72059 1.73443 0
M  V30 6660 H 629.313 -3.04162 0.783847 0
M  V30 6661 H 628.506 -4.1159 2.90877 0
M  V30 6662 H 628.108 -2.38231 2.88308 0
M  V30 6663 H 630.4 -5.19392 4.35015 0
M  V30 6664 H 631.343 -4.32792 5.60444 0
M  V30 6665 H 631.751 -4.1025 3.87757 0
M  V30 6666 N 631.149 -1.42148 -0.680565 0
M  V30 6667 C 632.56 -1.3768 -1.26099 0
M  V30 6668 C 632.911 -0.0672348 -1.96085 0
M  V30 6669 O 632.036 0.834172 -1.99676 0
M  V30 6670 C 632.631 -2.49387 -2.29328 0
M  V30 6671 C 631.19 -2.4827 -2.82911 0
M  V30 6672 C 630.337 -2.2847 -1.57152 0
M  V30 6673 H 633.288 -1.51446 -0.474326 0
M  V30 6674 H 633.309 -2.19307 -3.10941 0
M  V30 6675 H 632.821 -3.44686 -1.78363 0
M  V30 6676 H 630.922 -1.56773 -3.38013 0
M  V30 6677 H 631.035 -3.45109 -3.3232 0
M  V30 6678 H 629.399 -1.76623 -1.83511 0
M  V30 6679 H 630.182 -3.25816 -1.0816 0
M  V30 6680 N 632.627 0.916307 -1.28225 0
M  V30 6681 C 633.557 2.0352 -1.14464 0
M  V30 6682 C 634.538 1.70045 -0.0430844 0
M  V30 6683 O 635.723 1.92954 -0.219619 0
M  V30 6684 C 632.853 3.37889 -0.803027 0
M  V30 6685 C 631.807 3.85516 -1.85908 0
M  V30 6686 C 631.133 5.1682 -1.37116 0
M  V30 6687 C 632.433 4.07655 -3.26519 0
M  V30 6688 H 634.127 2.1529 -2.08064 0
M  V30 6689 H 631.673 1.03446 -1.00174 0
M  V30 6690 H 633.626 4.15654 -0.693537 0
M  V30 6691 H 632.35 3.26164 0.168674 0
M  V30 6692 H 631.009 3.09953 -1.95767 0
M  V30 6693 H 630.657 5.01497 -0.38859 0
M  V30 6694 H 630.357 5.49657 -2.07728 0
M  V30 6695 H 631.881 5.97143 -1.27484 0
M  V30 6696 H 633.295 4.75953 -3.19596 0
M  V30 6697 H 631.692 4.51818 -3.94943 0
M  V30 6698 H 632.762 3.12553 -3.70727 0
M  V30 6699 N 634.105 1.10431 1.1244 0
M  V30 6700 C 635.035 0.775143 2.20258 0
M  V30 6701 C 636.016 -0.25186 1.68225 0
M  V30 6702 O 637.201 -0.117637 1.93843 0
M  V30 6703 C 634.331 0.206133 3.46688 0
M  V30 6704 C 633.285 1.16382 4.11873 0
M  V30 6705 C 632.611 0.456014 5.32752 0
M  V30 6706 C 633.911 2.5104 4.58013 0
M  V30 6707 H 635.605 1.67665 2.4805 0
M  V30 6708 H 633.151 0.807595 1.19222 0
M  V30 6709 H 635.104 -0.036291 4.21384 0
M  V30 6710 H 633.828 -0.730614 3.18323 0
M  V30 6711 H 632.487 1.39169 3.39157 0
M  V30 6712 H 632.135 -0.485203 5.00654 0
M  V30 6713 H 631.835 1.09466 5.77314 0
M  V30 6714 H 633.359 0.222135 6.10196 0
M  V30 6715 H 634.773 2.32401 5.24083 0
M  V30 6716 H 633.17 3.10789 5.13352 0
M  V30 6717 H 634.24 3.11039 3.71998 0
M  V30 6718 N 635.583 -1.29855 0.893053 0
M  V30 6719 C 636.493 -2.31661 0.370157 0
M  V30 6720 C 637.509 -1.65677 -0.531723 0
M  V30 6721 O 638.685 -1.9691 -0.422902 0
M  V30 6722 C 635.75 -3.44388 -0.399741 0
M  V30 6723 C 634.811 -4.2598 0.532861 0
M  V30 6724 C 634.044 -5.33324 -0.200388 0
M  V30 6725 O 634.267 -5.52305 -1.42531 0
M  V30 6726 O 633.201 -6.00188 0.453668 0
M  V30 6727 H 637.027 -2.78354 1.2146 0
M  V30 6728 H 634.612 -1.34171 0.657153 0
M  V30 6729 H 636.494 -4.13037 -0.835358 0
M  V30 6730 H 635.169 -2.99815 -1.22035 0
M  V30 6731 H 634.076 -3.59998 1.01746 0
M  V30 6732 H 635.409 -4.74178 1.3197 0
M  V30 6733 N 637.061 -0.65484 -1.43351 0
M  V30 6734 C 638.309 -0.168559 -2.01396 0
M  V30 6735 C 638.63 1.22235 -1.51933 0
M  V30 6736 O 637.9 1.81685 -0.732627 0
M  V30 6737 H 636.48 -0.0593244 -0.744641 0
M  V30 6738 H 639.142 -0.846871 -1.75539 0
M  V30 6739 H 638.238 -0.154428 -3.11718 0
M  V30 6740 N 638.539 1.52521 -0.396863 0
M  V30 6741 C 639.486 2.26671 0.434624 0
M  V30 6742 C 640.456 1.28584 1.05144 0
M  V30 6743 O 641.641 1.57426 1.07804 0
M  V30 6744 C 638.781 3.08234 1.55196 0
M  V30 6745 C 637.894 4.21261 0.957262 0
M  V30 6746 C 637.029 4.90205 2.04627 0
M  V30 6747 C 636.068 5.95213 1.42787 0
M  V30 6748 N 635.205 6.57723 2.45651 0
M  V30 6749 H 640.045 2.973 -0.204139 0
M  V30 6750 H 637.582 1.46669 -0.112505 0
M  V30 6751 H 639.54 3.53819 2.2106 0
M  V30 6752 H 638.17 2.398 2.16092 0
M  V30 6753 H 637.222 3.79935 0.188005 0
M  V30 6754 H 638.534 4.96624 0.465416 0
M  V30 6755 H 637.688 5.39133 2.78246 0
M  V30 6756 H 636.427 4.14383 2.57174 0
M  V30 6757 H 635.432 5.45616 0.676968 0
M  V30 6758 H 636.657 6.72972 0.910255 0
M  V30 6759 H 634.603 5.84737 2.97353 0
M  V30 6760 H 634.52 7.28723 2.01243 0
M  V30 6761 H 635.788 7.11293 3.18876 0
M  V30 6762 N 640.017 0.126909 1.57088 0
M  V30 6763 C 641.242 -0.53997 2.00248 0
M  V30 6764 C 641.667 -1.58927 1.00618 0
M  V30 6765 O 641.025 -1.81288 -0.0210131 0
M  V30 6766 C 641.073 -1.13565 3.4225 0
M  V30 6767 O 640.177 -2.25103 3.45547 0
M  V30 6768 H 639.518 -0.13412 0.650314 0
M  V30 6769 H 642.048 0.217718 2.03438 0
M  V30 6770 H 642.058 -1.46925 3.80627 0
M  V30 6771 H 640.733 -0.367122 4.14277 0
M  V30 6772 H 639.31 -1.93123 3.18995 0
M  V30 6773 N 641.495 -1.56914 -0.146875 0
M  V30 6774 C 642.427 -1.94878 -1.20645 0
M  V30 6775 C 643.44 -0.844633 -1.39175 0
M  V30 6776 O 644.629 -1.12304 -1.38744 0
M  V30 6777 C 641.729 -2.20769 -2.57127 0
M  V30 6778 C 640.902 -3.52053 -2.59572 0
M  V30 6779 C 639.961 -3.66482 -3.77594 0
M  V30 6780 O 638.987 -4.38873 -3.62462 0
M  V30 6781 N 640.189 -3.03156 -4.95052 0
M  V30 6782 H 642.954 -2.86374 -0.883757 0
M  V30 6783 H 640.515 -1.58366 -0.336436 0
M  V30 6784 H 642.507 -2.27664 -3.34591 0
M  V30 6785 H 641.077 -1.35538 -2.81688 0
M  V30 6786 H 640.297 -3.56598 -1.68023 0
M  V30 6787 H 641.585 -4.38396 -2.58238 0
M  V30 6788 H 640.983 -2.44258 -5.10249 0
M  V30 6789 H 639.54 -3.15611 -5.70292 0
M  V30 6790 N 642.974 0.416227 -1.52004 0
M  V30 6791 C 644.39 0.754319 -1.40649 0
M  V30 6792 C 644.59 1.95059 -0.505392 0
M  V30 6793 O 643.646 2.5248 0.0315057 0
M  V30 6794 C 644.959 1.0149 -2.83055 0
M  V30 6795 C 646.507 1.11805 -2.9235 0
M  V30 6796 C 646.982 1.41144 -4.35709 0
M  V30 6797 N 648.473 1.48024 -4.38911 0
M  V30 6798 C 649.208 1.72338 -5.46889 0
M  V30 6799 N 648.704 1.94303 -6.64995 0
M  V30 6800 N 650.497 1.74294 -5.34395 0
M  V30 6801 H 642.648 -0.371324 -2.09129 0
M  V30 6802 H 644.911 -0.103811 -0.942299 0
M  V30 6803 H 644.617 0.208345 -3.51082 0
M  V30 6804 H 644.491 1.93697 -3.23668 0
M  V30 6805 H 646.878 1.91521 -2.24508 0
M  V30 6806 H 646.959 0.17451 -2.55204 0
M  V30 6807 H 646.603 0.619484 -5.04108 0
M  V30 6808 H 646.533 2.36739 -4.70385 0
M  V30 6809 H 649.024 1.32868 -3.53772 0
M  V30 6810 H 649.337 2.12286 -7.43071 0
M  V30 6811 H 647.682 1.91582 -6.68073 0
M  V30 6812 H 650.873 1.56667 -4.41104 0
M  V30 6813 H 651.046 1.92904 -6.18621 0
M  V30 6814 N 644.452 1.42507 0.673017 0
M  V30 6815 C 645.677 1.4668 1.46627 0
M  V30 6816 C 646.102 0.080066 1.8793 0
M  V30 6817 O 645.46 -0.921879 1.56112 0
M  V30 6818 C 645.508 2.40091 2.69051 0
M  V30 6819 O 644.612 1.8735 3.67387 0
M  V30 6820 H 643.953 0.496908 0.44043 0
M  V30 6821 H 646.483 1.87215 0.825334 0
M  V30 6822 H 646.493 2.56731 3.17101 0
M  V30 6823 H 645.168 3.4084 2.3833 0
M  V30 6824 H 643.745 1.80274 3.26429 0
M  V30 6825 N 645.93 -0.909495 1.28709 0
M  V30 6826 C 647.207 -1.63865 1.06806 0
M  V30 6827 C 647.587 -2.07445 -0.391143 0
M  V30 6828 O 646.935 -1.82269 -1.37805 0
M  V30 6829 C 647.145 -2.82692 2.04661 0
M  V30 6830 C 648.493 -3.5361 2.35042 0
M  V30 6831 O 649.517 -2.92847 2.02779 0
M  V30 6832 O 648.376 -4.63131 2.90124 0
M  V30 6833 H 645.47 -0.719065 0.408502 0
M  V30 6834 H 648.016 -0.958424 1.40044 0
M  V30 6835 H 646.788 -2.47614 3.0299 0
M  V30 6836 H 646.411 -3.58426 1.72095 0
M  V30 6837 N 647.408 -1.11026 -1.11852 0
M  V30 6838 C 648.358 -0.733836 -2.15868 0
M  V30 6839 C 649.342 0.26001 -1.58785 0
M  V30 6840 O 650.534 0.0677901 -1.7687 0
M  V30 6841 C 647.663 -0.173948 -3.42859 0
M  V30 6842 C 646.749 -1.1952 -4.0691 0
M  V30 6843 N 647.14 -2.38797 -4.45881 0
M  V30 6844 C 645.438 -1.03714 -4.33773 0
M  V30 6845 C 646.139 -3.03894 -4.96007 0
M  V30 6846 N 645.115 -2.31389 -4.91894 0
M  V30 6847 H 648.917 -1.64171 -2.43773 0
M  V30 6848 H 646.431 -0.988877 -1.28822 0
M  V30 6849 H 648.428 0.113836 -4.16745 0
M  V30 6850 H 647.088 0.728568 -3.16421 0
M  V30 6851 H 648.099 -2.76281 -4.38051 0
M  V30 6852 H 644.776 -0.190694 -4.17064 0
M  V30 6853 H 646.166 -4.05389 -5.35826 0
M  V30 6854 N 648.886 1.2938 -0.899927 0
M  V30 6855 C 649.796 2.31462 -0.382437 0
M  V30 6856 C 650.812 1.65956 0.522929 0
M  V30 6857 O 651.988 1.97131 0.412454 0
M  V30 6858 C 649.053 3.44595 0.381472 0
M  V30 6859 C 648.114 4.25692 -0.555444 0
M  V30 6860 C 647.347 5.33422 0.172102 0
M  V30 6861 O 647.57 5.53053 1.396 0
M  V30 6862 O 646.504 5.99939 -0.485491 0
M  V30 6863 H 650.33 2.77706 -1.22934 0
M  V30 6864 H 647.915 1.33821 -0.664259 0
M  V30 6865 H 649.797 4.13474 0.813442 0
M  V30 6866 H 648.472 3.00458 1.20443 0
M  V30 6867 H 647.379 3.59453 -1.03653 0
M  V30 6868 H 648.712 4.73471 -1.34483 0
M  V30 6869 N 650.364 0.662433 1.43002 0
M  V30 6870 C 651.611 0.179591 2.01702 0
M  V30 6871 C 651.939 -1.20964 1.52309 0
M  V30 6872 O 651.194 -1.82343 0.7106 0
M  V30 6873 C 651.493 0.149363 3.57088 0
M  V30 6874 C 651.159 1.48158 4.25864 0
M  V30 6875 C 649.821 1.84638 4.44367 0
M  V30 6876 C 652.173 2.35953 4.64732 0
M  V30 6877 C 649.501 3.08561 4.99006 0
M  V30 6878 C 651.853 3.59176 5.20745 0
M  V30 6879 C 650.517 3.95841 5.37463 0
M  V30 6880 H 649.787 0.0657172 0.73808 0
M  V30 6881 H 652.434 0.854968 1.71355 0
M  V30 6882 H 650.739 -0.609491 3.8703 0
M  V30 6883 H 652.436 -0.241241 4.00274 0
M  V30 6884 H 649.026 1.18777 4.11813 0
M  V30 6885 H 653.21 2.09058 4.50121 0
M  V30 6886 H 648.466 3.37005 5.10135 0
M  V30 6887 H 652.64 4.27417 5.49807 0
M  V30 6888 H 650.267 4.91942 5.79566 0
M  V30 6889 N 651.842 -1.52309 0.404946 0
M  V30 6890 C 652.772 -2.29805 -0.41376 0
M  V30 6891 C 653.753 -1.3384 -1.0498 0
M  V30 6892 O 654.938 -1.62745 -1.05961 0
M  V30 6893 C 652.068 -3.11639 -1.53292 0
M  V30 6894 C 651.022 -4.15616 -1.02211 0
M  V30 6895 C 650.348 -4.8577 -2.23455 0
M  V30 6896 C 651.648 -5.2224 -0.0790725 0
M  V30 6897 H 653.342 -2.98493 0.232878 0
M  V30 6898 H 650.888 -1.43552 0.113441 0
M  V30 6899 H 652.841 -3.64618 -2.11262 0
M  V30 6900 H 651.565 -2.40712 -2.20738 0
M  V30 6901 H 650.224 -3.63641 -0.46484 0
M  V30 6902 H 649.872 -4.11376 -2.89445 0
M  V30 6903 H 649.572 -5.56058 -1.89929 0
M  V30 6904 H 651.096 -5.4156 -2.82038 0
M  V30 6905 H 652.51 -5.70485 -0.567438 0
M  V30 6906 H 650.907 -5.99867 0.167167 0
M  V30 6907 H 651.977 -4.77078 0.867447 0
M  V30 6908 N 653.32 -0.135238 -1.57019 0
M  V30 6909 C 654.567 0.518794 -1.95742 0
M  V30 6910 C 654.895 1.65642 -1.01947 0
M  V30 6911 O 654.15 1.95645 -0.0464016 0
M  V30 6912 C 654.449 1.07694 -3.40788 0
M  V30 6913 C 654.115 0.058992 -4.50861 0
M  V30 6914 C 652.777 -0.220872 -4.80693 0
M  V30 6915 C 655.129 -0.633856 -5.17331 0
M  V30 6916 C 652.457 -1.19959 -5.74305 0
M  V30 6917 C 654.809 -1.60131 -6.11997 0
M  V30 6918 C 653.473 -1.889 -6.40213 0
M  V30 6919 H 652.743 0.18984 -0.716269 0
M  V30 6920 H 655.39 -0.219581 -1.90237 0
M  V30 6921 H 653.695 1.89241 -3.43067 0
M  V30 6922 H 655.392 1.59137 -3.68071 0
M  V30 6923 H 651.982 0.287304 -4.27636 0
M  V30 6924 H 656.166 -0.430823 -4.94427 0
M  V30 6925 H 651.422 -1.42905 -5.94465 0
M  V30 6926 H 655.596 -2.14376 -6.62583 0
M  V30 6927 H 653.223 -2.64891 -7.12556 0
M  V30 6928 N 654.798 1.5699 0.138552 0
M  V30 6929 C 655.748 1.9532 1.17619 0
M  V30 6930 C 656.732 0.825545 1.38107 0
M  V30 6931 O 657.924 1.08908 1.39528 0
M  V30 6932 C 655.053 2.34451 2.50774 0
M  V30 6933 C 654.139 3.53805 2.33844 0
M  V30 6934 N 654.53 4.70088 1.86685 0
M  V30 6935 C 652.828 3.59055 2.64567 0
M  V30 6936 C 653.529 5.52165 1.82998 0
M  V30 6937 N 652.505 4.94108 2.26624 0
M  V30 6938 H 656.307 2.82694 0.803809 0
M  V30 6939 H 653.821 1.5866 0.346519 0
M  V30 6940 H 655.818 2.60119 3.25797 0
M  V30 6941 H 654.478 1.48431 2.88788 0
M  V30 6942 H 655.489 4.93681 1.56523 0
M  V30 6943 H 652.166 2.83596 3.06398 0
M  V30 6944 H 653.556 6.55407 1.47957 0
M  V30 6945 N 656.276 -0.40816 1.52223 0
M  V30 6946 C 657.506 -1.17501 1.69932 0
M  V30 6947 C 657.914 -1.84729 0.408874 0
M  V30 6948 O 657.257 -1.7274 -0.625025 0
M  V30 6949 C 657.319 -2.27994 2.77955 0
M  V30 6950 C 656.983 -1.80894 4.19674 0
M  V30 6951 C 657.98 -1.29618 5.03483 0
M  V30 6952 C 655.665 -1.87698 4.65913 0
M  V30 6953 C 657.659 -0.857695 6.31603 0
M  V30 6954 C 655.346 -1.43461 5.94022 0
M  V30 6955 C 656.344 -0.925822 6.76696 0
M  V30 6956 O 656.032 -0.489841 8.02406 0
M  V30 6957 H 655.764 -0.359065 0.572755 0
M  V30 6958 H 658.318 -0.486188 1.99563 0
M  V30 6959 H 656.548 -3.00243 2.43703 0
M  V30 6960 H 658.237 -2.89749 2.84254 0
M  V30 6961 H 659.003 -1.23733 4.68951 0
M  V30 6962 H 654.882 -2.26244 4.01665 0
M  V30 6963 H 658.426 -0.459879 6.96083 0
M  V30 6964 H 654.323 -1.49026 6.28062 0
M  V30 6965 H 655.091 -0.613062 8.16201 0
M  V30 6966 N 657.755 -1.42862 -0.66545 0
M  V30 6967 C 658.995 -1.45323 -1.43738 0
M  V30 6968 C 659.359 -0.0707969 -1.91869 0
M  V30 6969 O 660.56 0.0298852 -2.68783 0
M  V30 6970 C 658.831 -2.45671 -2.59577 0
M  V30 6971 S 660.39 -2.6691 -3.48288 0
M  V30 6972 H 657.208 -0.51442 -0.490809 0
M  V30 6973 H 659.81 -1.79537 -0.773745 0
M  V30 6974 H 658.514 -3.44869 -2.22471 0
M  V30 6975 H 658.045 -2.12914 -3.30804 0
M  V30 6976 H 660.06 -1.95914 -4.55886 0
M  V30 6977 N 659.233 0.902656 -1.29189 0
M  V30 6978 C 660.181 2.0278 -1.13943 0
M  V30 6979 C 661.175 1.69308 -0.055787 0
M  V30 6980 O 662.381 1.78707 -0.215371 0
M  V30 6981 H 658.756 0.664595 -0.351877 0
M  V30 6982 H 660.727 2.12778 -2.09208 0
M  V30 6983 C 659.476 3.37657 -0.82966 0
M  V30 6984 H 658.799 3.63913 -1.65551 0
M  V30 6985 H 660.239 4.17078 -0.762998 0
M  V30 6986 C 658.698 3.33648 0.466991 0
M  V30 6987 O 659.228 3.72886 1.49395 0
M  V30 6988 N 657.434 2.86745 0.471761 0
M  V30 6989 H 656.981 2.55009 -0.364406 0
M  V30 6990 H 656.939 2.84446 1.33933 0
M  V30 6991 N 660.711 1.11618 1.11262 0
M  V30 6992 C 661.674 0.779447 2.15539 0
M  V30 6993 C 662.674 -0.202081 1.59525 0
M  V30 6994 O 663.864 0.0226356 1.74185 0
M  V30 6995 C 660.996 0.15674 3.40539 0
M  V30 6996 H 662.189 1.70324 2.4684 0
M  V30 6997 H 659.742 0.918298 1.26479 0
M  V30 6998 H 660.477 -0.777186 3.1485 0
M  V30 6999 H 660.262 0.863308 3.82478 0
M  V30 7000 H 661.752 -0.062661 4.17553 0
M  V30 7001 N 662.189 -1.289 0.906776 0
M  V30 7002 C 663.419 -1.99112 0.551168 0
M  V30 7003 C 663.827 -1.67998 -0.870243 0
M  V30 7004 O 663.17 -0.92525 -1.58697 0
M  V30 7005 C 663.232 -3.53162 0.672065 0
M  V30 7006 C 662.896 -4.07849 2.06174 0
M  V30 7007 C 663.893 -4.22212 3.0337 0
M  V30 7008 C 661.578 -4.4271 2.37304 0
M  V30 7009 C 663.572 -4.70678 4.29815 0
M  V30 7010 C 661.259 -4.90871 3.6399 0
M  V30 7011 C 662.257 -5.04811 4.6006 0
M  V30 7012 O 661.945 -5.51925 5.84495 0
M  V30 7013 H 661.677 -0.642728 0.209469 0
M  V30 7014 H 664.231 -1.65234 1.22012 0
M  V30 7015 H 662.461 -3.86662 -0.05394 0
M  V30 7016 H 664.15 -4.046 0.324579 0
M  V30 7017 H 664.916 -3.9556 2.80637 0
M  V30 7018 H 660.795 -4.31114 1.63283 0
M  V30 7019 H 664.339 -4.81474 5.04806 0
M  V30 7020 H 660.236 -5.16961 3.86551 0
M  V30 7021 H 661.004 -5.70225 5.87185 0
M  V30 7022 N 663.667 -0.670007 -1.42649 0
M  V30 7023 C 664.597 -0.00258501 -2.335 0
M  V30 7024 C 665.578 0.794364 -1.50412 0
M  V30 7025 O 666.763 0.75248 -1.79029 0
M  V30 7026 C 663.893 0.952748 -3.33976 0
M  V30 7027 C 662.847 0.264733 -4.2718 0
M  V30 7028 C 662.173 1.33267 -5.17826 0
M  V30 7029 C 663.473 -0.853289 -5.15283 0
M  V30 7030 H 665.167 -0.761326 -2.89559 0
M  V30 7031 H 662.713 -0.367561 -1.3923 0
M  V30 7032 H 664.666 1.4287 -3.96442 0
M  V30 7033 H 663.39 1.74285 -2.7621 0
M  V30 7034 H 662.049 -0.190938 -3.66102 0
M  V30 7035 H 661.697 2.11464 -4.5639 0
M  V30 7036 H 661.397 0.877476 -5.81011 0
M  V30 7037 H 662.921 1.80965 -5.83167 0
M  V30 7038 H 664.335 -0.458763 -5.71462 0
M  V30 7039 H 662.732 -1.23398 -5.87276 0
M  V30 7040 H 663.802 -1.70412 -4.53969 0
M  V30 7041 N 665.145 1.52092 -0.413018 0
M  V30 7042 C 666.093 2.28681 0.425199 0
M  V30 7043 C 667.087 1.3353 1.04241 0
M  V30 7044 O 668.293 1.50973 0.980166 0
M  V30 7045 H 664.668 0.735661 0.155906 0
M  V30 7046 H 666.639 2.97418 -0.241926 0
M  V30 7047 C 665.388 3.1235 1.5275 0
M  V30 7048 H 664.711 3.85439 1.06191 0
M  V30 7049 H 666.151 3.69038 2.08774 0
M  V30 7050 C 664.61 2.26161 2.49706 0
M  V30 7051 O 665.14 1.90452 3.53682 0
M  V30 7052 N 663.346 1.89854 2.20008 0
M  V30 7053 H 662.893 2.19092 1.35486 0
M  V30 7054 H 662.851 1.3248 2.85125 0
M  V30 7055 N 666.623 0.143563 1.56945 0
M  V30 7056 C 667.586 -0.783295 2.154 0
M  V30 7057 C 668.586 -1.17763 1.09492 0
M  V30 7058 O 669.776 -1.09912 1.35148 0
M  V30 7059 C 666.908 -2.06248 2.7143 0
M  V30 7060 H 668.101 -0.274863 2.98638 0
M  V30 7061 H 665.654 -0.105859 1.55941 0
M  V30 7062 H 666.389 -2.61466 1.91849 0
M  V30 7063 H 666.174 -1.78897 3.4891 0
M  V30 7064 H 667.664 -2.72453 3.16479 0
M  V30 7065 N 668.101 -1.57061 -0.130224 0
M  V30 7066 C 669.347 -1.8453 -0.841216 0
M  V30 7067 C 669.68 -0.727666 -1.80052 0
M  V30 7068 O 668.955 0.267419 -1.92653 0
M  V30 7069 C 669.238 -3.22553 -1.60099 0
M  V30 7070 C 669.091 -4.44901 -0.662048 0
M  V30 7071 C 670.41 -3.58003 -2.55973 0
M  V30 7072 H 667.529 -0.671215 -0.304366 0
M  V30 7073 H 670.171 -1.89705 -0.105821 0
M  V30 7074 H 668.321 -3.18272 -2.22789 0
M  V30 7075 H 669.993 -4.61278 -0.0448559 0
M  V30 7076 H 668.236 -4.33791 0.0272253 0
M  V30 7077 H 668.907 -5.3812 -1.23006 0
M  V30 7078 H 671.383 -3.63002 -2.03393 0
M  V30 7079 H 670.259 -4.55576 -3.06172 0
M  V30 7080 H 670.52 -2.84833 -3.38116 0
M  V30 7081 N 669.579 0.400081 -1.52437 0
M  V30 7082 C 670.995 0.739359 -1.41441 0
M  V30 7083 C 671.195 1.94512 -0.526053 0
M  V30 7084 O 670.251 2.525 0.00472502 0
M  V30 7085 C 671.564 0.984824 -2.84116 0
M  V30 7086 C 673.112 1.08698 -2.93519 0
M  V30 7087 C 673.587 1.36515 -4.37181 0
M  V30 7088 N 675.078 1.43361 -4.40457 0
M  V30 7089 C 675.813 1.66528 -5.48686 0
M  V30 7090 N 675.309 1.87239 -6.67018 0
M  V30 7091 N 677.102 1.68617 -5.36213 0
M  V30 7092 H 669.253 -0.393484 -2.08723 0
M  V30 7093 H 671.516 -0.1138 -0.941145 0
M  V30 7094 H 671.222 0.171096 -3.51284 0
M  V30 7095 H 671.096 1.90253 -3.25705 0
M  V30 7096 H 673.483 1.89129 -2.26526 0
M  V30 7097 H 673.564 0.147432 -2.55375 0
M  V30 7098 H 673.208 0.565982 -5.04737 0
M  V30 7099 H 673.138 2.31737 -4.7287 0
M  V30 7100 H 675.629 1.29108 -3.55161 0
M  V30 7101 H 675.942 2.04392 -7.45281 0
M  V30 7102 H 674.287 1.84486 -6.70067 0
M  V30 7103 H 677.478 1.5198 -4.42741 0
M  V30 7104 H 677.651 1.86332 -6.20632 0
M  V30 7105 N 671.057 1.43213 0.657864 0
M  V30 7106 C 672.303 1.45795 1.41829 0
M  V30 7107 C 672.658 0.0792176 1.92237 0
M  V30 7108 O 671.951 -0.901406 1.69072 0
M  V30 7109 C 672.145 2.43143 2.61947 0
M  V30 7110 C 671.974 3.90345 2.23295 0
M  V30 7111 C 670.744 4.58749 2.11843 0
M  V30 7112 C 672.942 4.80308 1.83873 0
M  V30 7113 N 670.924 5.90898 1.66473 0
M  V30 7114 C 672.295 6.01693 1.49549 0
M  V30 7115 C 674.35 4.67609 1.71015 0
M  V30 7116 C 673.053 7.11792 1.03657 0
M  V30 7117 C 675.079 5.77707 1.26527 0
M  V30 7118 C 674.441 6.98215 0.931379 0
M  V30 7119 H 670.54 0.588628 0.514822 0
M  V30 7120 H 673.124 1.7936 0.7575 0
M  V30 7121 H 671.295 2.11612 3.25692 0
M  V30 7122 H 673.027 2.36193 3.28626 0
M  V30 7123 H 669.782 4.1319 2.31453 0
M  V30 7124 H 670.206 6.61034 1.46163 0
M  V30 7125 H 674.848 3.74902 1.95469 0
M  V30 7126 H 672.566 8.04332 0.779502 0
M  V30 7127 H 676.152 5.69899 1.17074 0
M  V30 7128 H 675.032 7.81959 0.592379 0
M  V30 7129 N 672.536 -0.895792 1.29666 0
M  V30 7130 C 673.486 -1.98736 1.1175 0
M  V30 7131 C 674.47 -1.6086 0.0357834 0
M  V30 7132 O 675.662 -1.75111 0.257926 0
M  V30 7133 C 672.791 -3.33845 0.800156 0
M  V30 7134 C 671.877 -3.78068 1.9216 0
M  V30 7135 N 672.268 -3.94489 3.16563 0
M  V30 7136 C 670.566 -4.07376 1.81552 0
M  V30 7137 C 671.267 -4.31819 3.89753 0
M  V30 7138 N 670.243 -4.41081 3.17724 0
M  V30 7139 H 674.045 -2.09507 2.06117 0
M  V30 7140 H 671.559 -1.08488 1.20848 0
M  V30 7141 H 673.556 -4.11757 0.652841 0
M  V30 7142 H 672.216 -3.24417 -0.135551 0
M  V30 7143 H 673.227 -3.79914 3.51974 0
M  V30 7144 H 669.904 -4.06483 0.952787 0
M  V30 7145 H 671.294 -4.52337 4.96831 0
M  V30 7146 N 674.014 -1.12206 -1.10668 0
M  V30 7147 C 675.425 -0.890657 -1.64086 0
M  V30 7148 C 675.776 0.575502 -1.8757 0
M  V30 7149 O 674.901 1.4394 -1.61587 0
M  V30 7150 C 675.496 -1.61029 -2.98085 0
M  V30 7151 C 674.055 -1.4251 -3.48379 0
M  V30 7152 C 673.202 -1.64778 -2.23033 0
M  V30 7153 H 676.153 -1.27718 -0.94201 0
M  V30 7154 H 676.174 -1.05993 -3.65439 0
M  V30 7155 H 675.686 -2.67735 -2.80962 0
M  V30 7156 H 673.787 -0.380497 -3.70652 0
M  V30 7157 H 673.9 -2.17959 -4.26651 0
M  V30 7158 H 672.264 -1.07171 -2.31055 0
M  V30 7159 H 673.047 -2.72776 -2.08443 0
M  V30 7160 N 675.492 1.28418 -0.913599 0
M  V30 7161 C 676.424 2.26368 -0.359169 0
M  V30 7162 C 677.437 1.54858 0.502285 0
M  V30 7163 O 678.626 1.75659 0.31719 0
M  V30 7164 C 675.726 3.35112 0.50526 0
M  V30 7165 C 674.899 4.36126 -0.333648 0
M  V30 7166 C 673.958 5.24134 0.465845 0
M  V30 7167 O 672.984 5.6907 -0.121538 0
M  V30 7168 N 674.186 5.52892 1.76891 0
M  V30 7169 H 676.951 2.74579 -1.2011 0
M  V30 7170 H 674.512 1.41898 -0.779532 0
M  V30 7171 H 676.504 3.90926 1.04684 0
M  V30 7172 H 675.074 2.86611 1.2479 0
M  V30 7173 H 674.294 3.79776 -1.0566 0
M  V30 7174 H 675.582 5.00638 -0.907669 0
M  V30 7175 H 674.98 5.18217 2.26865 0
M  V30 7176 H 673.537 6.11464 2.25732 0
M  V30 7177 N 676.97 0.677563 1.42291 0
M  V30 7178 C 677.918 -0.0106755 2.32598 0
M  V30 7179 C 678.912 -0.787643 1.49975 0
M  V30 7180 O 680.118 -0.695295 1.66029 0
M  V30 7181 H 676.493 -0.0222482 0.751671 0
M  V30 7182 H 678.464 0.768312 2.88339 0
M  V30 7183 C 677.213 -0.946142 3.3458 0
M  V30 7184 H 676.536 -0.357701 3.98197 0
M  V30 7185 H 677.976 -1.39634 4.00348 0
M  V30 7186 C 676.435 -2.05383 2.67057 0
M  V30 7187 O 676.965 -3.1406 2.50458 0
M  V30 7188 N 675.171 -1.82635 2.26038 0
M  V30 7189 H 674.718 -0.942534 2.39737 0
M  V30 7190 H 674.676 -2.56937 1.81192 0
M  V30 7191 N 678.448 -1.51871 0.421078 0
M  V30 7192 C 679.673 -2.0684 -0.152371 0
M  V30 7193 C 680.098 -1.28802 -1.37083 0
M  V30 7194 O 679.456 -0.321482 -1.78427 0
M  V30 7195 C 679.504 -3.57532 -0.469368 0
M  V30 7196 O 678.608 -3.81818 -1.55848 0
M  V30 7197 H 677.949 -0.663939 -0.00898586 0
M  V30 7198 H 680.479 -1.95674 0.597724 0
M  V30 7199 H 680.489 -4.01515 -0.724553 0
M  V30 7200 H 679.164 -4.13761 0.421276 0
M  V30 7201 H 677.741 -3.49709 -1.29453 0
M  V30 7202 N 679.926 -0.151884 -1.56866 0
M  V30 7203 C 681.154 0.504813 -2.00647 0
M  V30 7204 C 681.569 1.58098 -1.03201 0
M  V30 7205 O 680.926 1.82476 -0.0297814 0
M  V30 7206 C 680.977 1.10099 -3.44326 0
M  V30 7207 O 680.698 0.0678021 -4.38048 0
M  V30 7208 C 682.199 1.83782 -4.03409 0
M  V30 7209 H 679.419 0.130989 -0.65809 0
M  V30 7210 H 681.963 -0.247903 -2.02992 0
M  V30 7211 H 680.118 1.8043 -3.42817 0
M  V30 7212 H 680.532 0.505237 -5.22061 0
M  V30 7213 H 682.006 2.2078 -5.05925 0
M  V30 7214 H 682.483 2.72557 -3.44397 0
M  V30 7215 H 683.089 1.18138 -4.08563 0
M  V30 7216 N 681.404 1.57128 0.121893 0
M  V30 7217 C 682.629 1.89254 0.848385 0
M  V30 7218 C 683.054 0.743527 1.72781 0
M  V30 7219 O 682.412 -0.306056 1.78698 0
M  V30 7220 C 682.46 3.20113 1.66012 0
M  V30 7221 O 681.564 3.05815 2.76679 0
M  V30 7222 H 680.905 0.621103 0.234793 0
M  V30 7223 H 683.435 2.0433 0.10516 0
M  V30 7224 H 683.445 3.52761 2.04996 0
M  V30 7225 H 682.12 4.03336 1.01452 0
M  V30 7226 H 680.697 2.84627 2.40918 0
M  V30 7227 N 682.882 -0.391992 1.52647 0
M  V30 7228 C 684.131 -1.13449 1.6677 0
M  V30 7229 C 684.444 -1.91203 0.412399 0
M  V30 7230 O 685.65 -2.68013 0.433707 0
M  V30 7231 C 684.106 -2.06577 2.9471 0
M  V30 7232 C 683.714 -1.3426 4.27409 0
M  V30 7233 C 685.458 -2.80981 3.18198 0
M  V30 7234 C 683.365 -2.26136 5.46458 0
M  V30 7235 H 682.295 -0.427211 0.621295 0
M  V30 7236 H 684.946 -0.397522 1.79142 0
M  V30 7237 H 683.328 -2.83898 2.76076 0
M  V30 7238 H 684.502 -0.621856 4.56585 0
M  V30 7239 H 682.817 -0.718279 4.10158 0
M  V30 7240 H 685.414 -3.49898 4.04321 0
M  V30 7241 H 685.757 -3.44891 2.33144 0
M  V30 7242 H 686.29 -2.10754 3.37383 0
M  V30 7243 H 683.029 -1.66846 6.33911 0
M  V30 7244 H 682.549 -2.96134 5.21598 0
M  V30 7245 H 684.228 -2.86286 5.80215 0
M  V30 7246 N 684.36 -1.4356 -0.65026 0
M  V30 7247 C 685.606 -1.46545 -1.41054 0
M  V30 7248 C 685.961 -0.0894113 -1.92192 0
M  V30 7249 O 685.254 0.892427 -1.69547 0
M  V30 7250 C 685.448 -2.44528 -2.60654 0
M  V30 7251 C 685.277 -3.91524 -2.21222 0
M  V30 7252 C 684.047 -4.59866 -2.09408 0
M  V30 7253 C 686.245 -4.81276 -1.81323 0
M  V30 7254 N 684.227 -5.91772 -1.63337 0
M  V30 7255 C 685.598 -6.02478 -1.46356 0
M  V30 7256 C 687.653 -4.6851 -1.68532 0
M  V30 7257 C 686.356 -7.12332 -0.998805 0
M  V30 7258 C 688.382 -5.78369 -1.23461 0
M  V30 7259 C 687.744 -6.98699 -0.894337 0
M  V30 7260 H 683.843 -0.59135 -0.511693 0
M  V30 7261 H 686.427 -1.79759 -0.747978 0
M  V30 7262 H 684.598 -2.13336 -3.24565 0
M  V30 7263 H 686.33 -2.37932 -3.27369 0
M  V30 7264 H 683.085 -4.14412 -2.29259 0
M  V30 7265 H 683.509 -6.61799 -1.42655 0
M  V30 7266 H 688.151 -3.75933 -1.93479 0
M  V30 7267 H 685.869 -8.04734 -0.736835 0
M  V30 7268 H 689.455 -5.70512 -1.1405 0
M  V30 7269 H 688.335 -7.82263 -0.550901 0
M  V30 7270 N 685.838 0.888903 -1.30139 0
M  V30 7271 C 686.785 1.99422 -1.16188 0
M  V30 7272 C 687.755 1.66017 -0.0523869 0
M  V30 7273 O 688.94 1.89506 -0.221864 0
M  V30 7274 C 686.08 3.34325 -0.855612 0
M  V30 7275 C 685.193 3.80445 -2.0466 0
M  V30 7276 C 684.328 5.03975 -1.67876 0
M  V30 7277 C 683.367 5.42492 -2.83493 0
M  V30 7278 N 682.504 6.57206 -2.47032 0
M  V30 7279 H 687.344 2.10687 -2.10749 0
M  V30 7280 H 684.881 1.03165 -1.04859 0
M  V30 7281 H 686.839 4.11968 -0.658681 0
M  V30 7282 H 685.469 3.22756 0.0531155 0
M  V30 7283 H 684.521 2.98745 -2.3549 0
M  V30 7284 H 685.833 4.04933 -2.91257 0
M  V30 7285 H 684.987 5.89232 -1.44535 0
M  V30 7286 H 683.726 4.8135 -0.784431 0
M  V30 7287 H 682.731 4.55764 -3.07505 0
M  V30 7288 H 683.956 5.67093 -3.73607 0
M  V30 7289 H 681.902 6.36164 -1.601 0
M  V30 7290 H 681.819 6.81543 -3.27161 0
M  V30 7291 H 683.087 7.45704 -2.27038 0
M  V30 7292 N 687.317 1.12792 1.10072 0
M  V30 7293 C 688.28 0.802264 2.14701 0
M  V30 7294 C 689.28 -0.18515 1.59731 0
M  V30 7295 O 690.47 0.041109 1.74151 0
M  V30 7296 C 687.602 0.19285 3.40354 0
M  V30 7297 H 688.795 1.72932 2.45019 0
M  V30 7298 H 686.348 0.931662 1.25498 0
M  V30 7299 H 687.083 -0.743748 3.15656 0
M  V30 7300 H 686.868 0.903827 3.81541 0
M  V30 7301 H 688.358 -0.0183704 4.17596 0
M  V30 7302 N 688.795 -1.27931 0.920396 0
M  V30 7303 C 690.042 -1.94689 0.557007 0
M  V30 7304 C 690.37 -1.724 -0.900476 0
M  V30 7305 O 689.625 -1.04194 -1.65657 0
M  V30 7306 C 689.924 -3.47853 0.820558 0
M  V30 7307 C 689.59 -3.90252 2.25863 0
M  V30 7308 C 688.252 -4.01539 2.65179 0
M  V30 7309 C 690.604 -4.11853 3.19415 0
M  V30 7310 C 687.932 -4.3181 3.97187 0
M  V30 7311 C 690.284 -4.43606 4.50995 0
M  V30 7312 C 688.948 -4.53105 4.90155 0
M  V30 7313 H 688.218 -0.712416 0.203823 0
M  V30 7314 H 690.865 -1.52142 1.16298 0
M  V30 7315 H 689.17 -3.91578 0.131844 0
M  V30 7316 H 690.867 -3.97634 0.51847 0
M  V30 7317 H 687.457 -3.81999 1.94358 0
M  V30 7318 H 691.641 -4.0258 2.90246 0
M  V30 7319 H 686.897 -4.37371 4.2722 0
M  V30 7320 H 691.071 -4.59268 5.23494 0
M  V30 7321 H 688.698 -4.76315 5.92476 0
M  V30 7322 N 690.273 -0.685099 -1.4193 0
M  V30 7323 C 691.52 -0.211658 -2.01391 0
M  V30 7324 C 691.848 1.18526 -1.54214 0
M  V30 7325 O 691.103 1.81189 -0.739519 0
M  V30 7326 C 691.402 -0.206154 -3.56805 0
M  V30 7327 C 691.068 -1.54915 -4.23453 0
M  V30 7328 C 689.73 -1.91684 -4.41373 0
M  V30 7329 C 692.082 -2.43317 -4.60919 0
M  V30 7330 C 689.41 -3.16461 -4.94034 0
M  V30 7331 C 691.762 -3.67415 -5.14965 0
M  V30 7332 C 690.426 -4.04341 -5.31098 0
M  V30 7333 H 689.696 -0.0774511 -0.736941 0
M  V30 7334 H 692.343 -0.882121 -1.69973 0
M  V30 7335 H 690.648 0.547841 -3.87951 0
M  V30 7336 H 692.345 0.17753 -4.00607 0
M  V30 7337 H 688.935 -1.25314 -4.09871 0
M  V30 7338 H 693.119 -2.16192 -4.46738 0
M  V30 7339 H 688.375 -3.45078 -5.04709 0
M  V30 7340 H 692.549 -4.3611 -5.42938 0
M  V30 7341 H 690.176 -5.01101 -5.71666 0
M  V30 7342 N 691.751 1.51645 -0.429126 0
M  V30 7343 C 692.998 2.02015 0.140079 0
M  V30 7344 C 693.326 1.31374 1.43427 0
M  V30 7345 O 692.581 0.414779 1.91254 0
M  V30 7346 C 692.88 3.54989 0.414472 0
M  V30 7347 C 692.546 4.43874 -0.792911 0
M  V30 7348 C 691.208 4.67887 -1.12404 0
M  V30 7349 C 693.56 4.96074 -1.59875 0
M  V30 7350 C 690.888 5.41348 -2.26184 0
M  V30 7351 C 693.24 5.70782 -2.72747 0
M  V30 7352 C 691.904 5.93062 -3.06324 0
M  V30 7353 H 691.174 0.739225 0.0512585 0
M  V30 7354 H 693.821 1.82675 -0.574641 0
M  V30 7355 H 692.126 3.72615 1.21099 0
M  V30 7356 H 693.823 3.91489 0.868173 0
M  V30 7357 H 690.413 4.25374 -0.524871 0
M  V30 7358 H 694.597 4.77412 -1.35614 0
M  V30 7359 H 689.853 5.56815 -2.52522 0
M  V30 7360 H 694.027 6.10221 -3.35564 0
M  V30 7361 H 691.654 6.49764 -3.94602 0
M  V30 7362 N 693.229 0.160201 1.56784 0
M  V30 7363 C 694.457 -0.494165 2.00912 0
M  V30 7364 C 694.872 -1.57548 1.04038 0
M  V30 7365 O 694.229 -1.82457 0.0394581 0
M  V30 7366 C 694.28 -1.08271 3.44905 0
M  V30 7367 O 694.001 -0.0445704 4.38077 0
M  V30 7368 C 695.502 -1.8164 4.04378 0
M  V30 7369 H 692.722 -0.127498 0.658776 0
M  V30 7370 H 695.266 0.258665 2.02858 0
M  V30 7371 H 693.421 -1.78609 3.4377 0
M  V30 7372 H 693.835 -0.477544 5.22322 0
M  V30 7373 H 695.309 -2.18094 5.07089 0
M  V30 7374 H 695.786 -2.70727 3.45838 0
M  V30 7375 H 696.392 -1.15969 4.09184 0
M  V30 7376 N 694.707 -1.5719 -0.113559 0
M  V30 7377 C 696.118 -1.74259 -0.670116 0
M  V30 7378 C 696.469 -0.779694 -1.80042 0
M  V30 7379 O 695.594 0.0461353 -2.16351 0
M  V30 7380 C 696.189 -3.15981 -1.22236 0
M  V30 7381 C 694.748 -3.34537 -1.72516 0
M  V30 7382 C 693.895 -2.70116 -0.627098 0
M  V30 7383 H 696.846 -1.58301 0.112396 0
M  V30 7384 H 696.867 -3.17832 -2.09197 0
M  V30 7385 H 696.379 -3.86038 -0.39949 0
M  V30 7386 H 694.48 -2.6953 -2.57263 0
M  V30 7387 H 694.593 -4.42737 -1.83086 0
M  V30 7388 H 692.957 -2.31501 -1.06204 0
M  V30 7389 H 693.74 -3.42802 0.184889 0
M  V30 7390 N 696.185 0.383891 -1.52853 0
M  V30 7391 C 697.133 1.48965 -1.7864 0
M  V30 7392 C 698.127 1.56242 -0.654577 0
M  V30 7393 O 699.333 1.59347 -0.83716 0
M  V30 7394 H 695.708 0.495892 -0.565328 0
M  V30 7395 H 697.679 1.24411 -2.71228 0
M  V30 7396 C 696.428 2.86036 -1.97683 0
M  V30 7397 H 695.751 2.81188 -2.84206 0
M  V30 7398 H 697.191 3.62632 -2.19713 0
M  V30 7399 C 695.65 3.28428 -0.750776 0
M  V30 7400 O 696.18 4.0164 0.0693491 0
M  V30 7401 N 694.386 2.84765 -0.579427 0
M  V30 7402 H 693.933 2.25353 -1.24795 0
M  V30 7403 H 693.891 3.13486 0.239544 0
M  V30 7404 N 697.663 1.43903 0.642637 0
M  V30 7405 C 698.91 1.46079 1.40239 0
M  V30 7406 C 699.238 0.0890335 1.94296 0
M  V30 7407 O 698.493 -0.907533 1.73385 0
M  V30 7408 C 698.792 2.45907 2.59354 0
M  V30 7409 C 698.458 3.91522 2.23654 0
M  V30 7410 C 697.12 4.31179 2.1363 0
M  V30 7411 C 699.472 4.83242 1.95261 0
M  V30 7412 C 696.8 5.60495 1.73384 0
M  V30 7413 C 699.152 6.12933 1.56511 0
M  V30 7414 C 697.816 6.51556 1.4502 0
M  V30 7415 H 697.086 0.534542 0.513172 0
M  V30 7416 H 699.733 1.77047 0.72984 0
M  V30 7417 H 698.038 2.08381 3.3179 0
M  V30 7418 H 699.735 2.44842 3.17574 0
M  V30 7419 H 696.325 3.60142 2.32369 0
M  V30 7420 H 700.509 4.53367 2.0192 0
M  V30 7421 H 695.765 5.89249 1.63082 0
M  V30 7422 H 699.939 6.83469 1.33576 0
M  V30 7423 H 697.566 7.51663 1.13606 0
M  V30 7424 N 699.141 -0.881989 1.30609 0
M  V30 7425 C 700.089 -2.00942 1.17155 0
M  V30 7426 C 701.083 -1.69198 0.0827154 0
M  V30 7427 O 702.289 -1.78342 0.243775 0
M  V30 7428 H 698.664 -0.658913 0.362406 0
M  V30 7429 H 700.635 -2.09423 2.12567 0
M  V30 7430 C 699.384 -3.36294 0.883273 0
M  V30 7431 H 698.707 -3.61233 1.7132 0
M  V30 7432 H 700.147 -4.15812 0.829255 0
M  V30 7433 C 698.606 -3.34348 -0.413851 0
M  V30 7434 O 699.136 -3.75216 -1.43444 0
M  V30 7435 N 697.342 -2.87459 -0.426082 0
M  V30 7436 H 696.889 -2.54397 0.40493 0
M  V30 7437 H 696.847 -2.8654 -1.29391 0
M  V30 7438 N 700.619 -1.13374 -1.09472 0
M  V30 7439 C 702.03 -0.90801 -1.63132 0
M  V30 7440 C 702.381 0.555576 -1.8817 0
M  V30 7441 O 701.506 1.42218 -1.63104 0
M  V30 7442 C 702.101 -1.64182 -2.96361 0
M  V30 7443 C 700.66 -1.46197 -3.46848 0
M  V30 7444 C 699.807 -1.67134 -2.21273 0
M  V30 7445 H 702.758 -1.2871 -0.928411 0
M  V30 7446 H 702.779 -1.09863 -3.64294 0
M  V30 7447 H 702.291 -2.707 -2.78106 0
M  V30 7448 H 700.392 -0.419788 -3.70228 0
M  V30 7449 H 700.505 -2.22472 -4.24315 0
M  V30 7450 H 698.869 -1.09616 -2.29905 0
M  V30 7451 H 699.652 -2.74971 -2.05538 0
M  V30 7452 N 702.098 1.27442 -0.927168 0
M  V30 7453 C 703.344 1.94679 -0.568164 0
M  V30 7454 C 703.677 1.72697 0.888219 0
M  V30 7455 O 702.952 1.05573 1.63354 0
M  V30 7456 C 703.235 3.4882 -0.894253 0
M  V30 7457 C 703.088 3.80146 -2.40435 0
M  V30 7458 C 704.407 4.38281 -0.399766 0
M  V30 7459 H 701.526 0.707071 -0.207892 0
M  V30 7460 H 704.168 1.50568 -1.15885 0
M  V30 7461 H 702.318 3.86522 -0.391566 0
M  V30 7462 H 703.99 3.52238 -2.97869 0
M  V30 7463 H 702.233 3.26716 -2.85375 0
M  V30 7464 H 702.904 4.87835 -2.58304 0
M  V30 7465 H 705.38 4.07726 -0.83058 0
M  V30 7466 H 704.256 5.44955 -0.656885 0
M  V30 7467 H 704.517 4.36521 0.700153 0
M  V30 7468 N 703.576 0.692616 1.41565 0
M  V30 7469 C 704.824 0.221896 2.00878 0
M  V30 7470 C 705.145 -1.18164 1.5512 0
M  V30 7471 O 704.415 -1.79679 0.78054 0
M  V30 7472 H 702.995 0.0790463 0.742806 0
M  V30 7473 H 705.657 0.893115 1.73232 0
M  V30 7474 H 704.753 0.23702 3.11199 0
M  V30 7475 N 705.054 -1.51416 0.437162 0
M  V30 7476 C 706.279 -2.0699 -0.130424 0
M  V30 7477 C 706.704 -1.30249 -1.35709 0
M  V30 7478 O 706.062 -0.340388 -1.78076 0
M  V30 7479 C 706.11 -3.5801 -0.43142 0
M  V30 7480 O 705.214 -3.8345 -1.5179 0
M  V30 7481 H 704.555 -0.663997 -0.00194339 0
M  V30 7482 H 707.085 -1.95029 0.618445 0
M  V30 7483 H 707.095 -4.02261 -0.681926 0
M  V30 7484 H 705.77 -4.13291 0.465137 0
M  V30 7485 H 704.347 -3.51062 -1.25737 0
M  V30 7486 N 706.532 -0.168513 -1.56696 0
M  V30 7487 C 707.48 0.779791 -2.19139 0
M  V30 7488 C 708.474 1.23957 -1.1546 0
M  V30 7489 O 709.68 1.20555 -1.33666 0
M  V30 7490 H 706.055 0.269739 -0.701958 0
M  V30 7491 H 708.026 0.229156 -2.97519 0
M  V30 7492 C 706.775 2.00003 -2.84419 0
M  V30 7493 H 706.098 1.65527 -3.63924 0
M  V30 7494 H 707.538 2.64251 -3.31583 0
M  V30 7495 C 705.997 2.82187 -1.84044 0
M  V30 7496 O 706.527 3.79247 -1.32418 0
M  V30 7497 N 704.733 2.47145 -1.52864 0
M  V30 7498 H 704.28 1.68277 -1.9504 0
M  V30 7499 H 704.238 3.02422 -0.859569 0
M  V30 7500 N 708.01 1.57248 0.105221 0
M  V30 7501 C 709.258 1.85204 0.808951 0
M  V30 7502 C 709.579 0.75574 1.7976 0
M  V30 7503 O 708.849 -0.218984 1.94672 0
M  V30 7504 H 707.429 0.683346 0.301739 0
M  V30 7505 H 710.091 1.94695 0.0892605 0
M  V30 7506 H 709.187 2.81595 1.34575 0
M  V30 7507 N 709.488 -0.375779 1.53054 0
M  V30 7508 C 710.728 -1.12828 1.70438 0
M  V30 7509 C 711.092 -1.86854 0.441527 0
M  V30 7510 O 712.293 -2.64261 0.491908 0
M  V30 7511 C 710.564 -2.07009 2.91345 0
M  V30 7512 S 712.123 -2.89917 3.29383 0
M  V30 7513 H 708.941 -0.381736 0.599832 0
M  V30 7514 H 711.543 -0.4109 1.91133 0
M  V30 7515 H 710.247 -1.51371 3.81464 0
M  V30 7516 H 709.778 -2.83236 2.73022 0
M  V30 7517 H 711.793 -4.0924 2.80601 0
M  V30 7518 N 710.966 -1.44241 -0.634997 0
M  V30 7519 C 712.213 -1.46821 -1.39463 0
M  V30 7520 C 712.541 -0.0993362 -1.94246 0
M  V30 7521 O 711.796 0.898325 -1.73864 0
M  V30 7522 C 712.095 -2.47279 -2.58046 0
M  V30 7523 C 711.761 -3.92703 -2.21574 0
M  V30 7524 C 710.423 -4.32306 -2.1134 0
M  V30 7525 C 712.775 -4.84271 -1.92695 0
M  V30 7526 C 710.103 -5.61407 -1.70409 0
M  V30 7527 C 712.455 -6.13755 -1.53258 0
M  V30 7528 C 711.119 -6.52316 -1.41562 0
M  V30 7529 H 710.389 -0.537256 -0.51033 0
M  V30 7530 H 713.036 -1.77431 -0.720441 0
M  V30 7531 H 711.341 -2.10138 -3.3068 0
M  V30 7532 H 713.038 -2.46523 -3.16271 0
M  V30 7533 H 709.628 -3.61369 -2.30456 0
M  V30 7534 H 713.812 -4.54432 -1.99513 0
M  V30 7535 H 709.068 -5.90105 -1.59955 0
M  V30 7536 H 713.242 -6.84168 -1.29949 0
M  V30 7537 H 710.869 -7.52255 -1.09619 0
M  V30 7538 N 712.444 0.87505 -1.31075 0
M  V30 7539 C 713.407 1.96333 -1.18263 0
M  V30 7540 C 714.407 1.60416 -0.111106 0
M  V30 7541 O 715.597 1.7044 -0.359987 0
M  V30 7542 C 712.729 3.31036 -0.81414 0
M  V30 7543 H 713.922 2.09125 -2.14958 0
M  V30 7544 H 711.475 1.06271 -1.14614 0
M  V30 7545 H 712.21 3.23944 0.151875 0
M  V30 7546 H 711.995 3.58476 -1.58862 0
M  V30 7547 H 713.485 4.10842 -0.748249 0
M  V30 7548 N 713.922 1.13953 1.08869 0
M  V30 7549 C 715.15 0.92817 1.84912 0
M  V30 7550 C 715.565 -0.523197 1.81406 0
M  V30 7551 O 714.922 -1.36237 1.21432 0
M  V30 7552 C 714.973 1.41509 3.32652 0
M  V30 7553 O 714.694 2.80959 3.36145 0
M  V30 7554 C 716.195 1.243 4.25517 0
M  V30 7555 H 713.415 0.330612 0.583898 0
M  V30 7556 H 715.959 1.51349 1.37527 0
M  V30 7557 H 714.114 0.872648 3.77444 0
M  V30 7558 H 714.528 3.02704 4.28335 0
M  V30 7559 H 716.002 1.63237 5.27312 0
M  V30 7560 H 716.479 0.18532 4.38809 0
M  V30 7561 H 717.085 1.77375 3.86546 0
M  V30 7562 N 715.4 -1.26948 0.933913 0
M  V30 7563 C 716.35 -2.24306 0.408779 0
M  V30 7564 C 717.334 -1.53243 -0.490435 0
M  V30 7565 O 718.526 -1.73956 -0.326866 0
M  V30 7566 C 715.655 -3.41695 -0.331578 0
M  V30 7567 C 714.741 -4.20053 0.58451 0
M  V30 7568 N 715.132 -4.76122 1.70709 0
M  V30 7569 C 713.43 -4.44303 0.388703 0
M  V30 7570 C 714.131 -5.35267 2.27737 0
M  V30 7571 N 713.107 -5.20548 1.56622 0
M  V30 7572 H 716.909 -2.65244 1.26582 0
M  V30 7573 H 714.423 -1.4195 0.788919 0
M  V30 7574 H 716.42 -4.10552 -0.724774 0
M  V30 7575 H 715.08 -3.02286 -1.18547 0
M  V30 7576 H 716.091 -4.73884 2.08937 0
M  V30 7577 H 712.768 -4.15341 -0.424016 0
M  V30 7578 H 714.158 -5.89563 3.22282 0
M  V30 7579 N 716.879 -0.700114 -1.41195 0
M  V30 7580 C 718.125 -0.233351 -2.01453 0
M  V30 7581 C 718.458 1.16548 -1.55339 0
M  V30 7582 O 717.733 1.78756 -0.766575 0
M  V30 7583 C 718.016 -0.2961 -3.58881 0
M  V30 7584 C 717.869 -1.7322 -4.15108 0
M  V30 7585 C 719.188 0.341525 -4.38773 0
M  V30 7586 H 716.307 -0.0862667 -0.731934 0
M  V30 7587 H 718.949 -0.889693 -1.67882 0
M  V30 7588 H 717.099 0.262736 -3.87611 0
M  V30 7589 H 718.771 -2.34523 -3.97236 0
M  V30 7590 H 717.014 -2.2649 -3.69979 0
M  V30 7591 H 717.685 -1.7276 -5.24269 0
M  V30 7592 H 720.161 -0.134461 -4.15883 0
M  V30 7593 H 719.037 0.267098 -5.4825 0
M  V30 7594 H 719.298 1.42289 -4.18577 0
M  V30 7595 N 718.357 1.51182 -0.445186 0
M  V30 7596 C 719.597 2.04061 0.117717 0
M  V30 7597 C 719.961 1.32158 1.39278 0
M  V30 7598 O 721.162 1.75452 2.03642 0
M  V30 7599 C 719.433 3.55933 0.323445 0
M  V30 7600 S 720.992 4.30516 0.848627 0
M  V30 7601 H 717.81 0.710442 0.028165 0
M  V30 7602 H 720.412 1.85858 -0.606391 0
M  V30 7603 H 719.116 4.0583 -0.610764 0
M  V30 7604 H 718.647 3.78444 1.07441 0
M  V30 7605 H 720.662 4.48382 2.12528 0
M  V30 7606 N 719.835 0.176821 1.56605 0
M  V30 7607 C 721.082 -0.466715 1.97048 0
M  V30 7608 C 721.41 -1.6288 1.06302 0
M  V30 7609 O 720.665 -1.95453 0.0982571 0
M  V30 7610 C 720.964 -0.986208 3.43524 0
M  V30 7611 C 720.63 0.0605667 4.50859 0
M  V30 7612 C 719.292 0.348242 4.79938 0
M  V30 7613 C 721.644 0.770794 5.15469 0
M  V30 7614 C 718.972 1.35144 5.70923 0
M  V30 7615 C 721.324 1.76301 6.07537 0
M  V30 7616 C 719.988 2.05808 6.3498 0
M  V30 7617 H 719.258 -0.170783 0.721051 0
M  V30 7618 H 721.905 0.269942 1.89588 0
M  V30 7619 H 720.21 -1.80079 3.47964 0
M  V30 7620 H 721.907 -1.49323 3.72161 0
M  V30 7621 H 718.497 -0.173823 4.28247 0
M  V30 7622 H 722.681 0.56176 4.9311 0
M  V30 7623 H 717.937 1.58616 5.90467 0
M  V30 7624 H 722.111 2.31868 6.56666 0
M  V30 7625 H 719.738 2.8369 7.05283 0
M  V30 7626 N 721.313 -1.57302 -0.09688 0
M  V30 7627 C 722.553 -1.87823 -0.806334 0
M  V30 7628 C 722.917 -0.767593 -1.75989 0
M  V30 7629 O 724.118 -0.955173 -2.51257 0
M  V30 7630 C 722.389 -3.23585 -1.51749 0
M  V30 7631 S 723.948 -3.75795 -2.26547 0
M  V30 7632 H 720.766 -0.658281 -0.268676 0
M  V30 7633 H 723.368 -1.95397 -0.0635476 0
M  V30 7634 H 722.072 -4.0234 -0.809348 0
M  V30 7635 H 721.603 -3.19145 -2.30021 0
M  V30 7636 H 723.618 -3.49068 -3.52656 0
M  V30 7637 N 722.791 0.367657 -1.53252 0
M  V30 7638 C 724.038 1.11052 -1.69333 0
M  V30 7639 C 724.366 1.89363 -0.444064 0
M  V30 7640 O 723.621 1.87094 0.573953 0
M  V30 7641 C 723.92 2.09825 -2.89324 0
M  V30 7642 C 723.586 1.4801 -4.25915 0
M  V30 7643 C 722.248 1.30879 -4.6306 0
M  V30 7644 C 724.6 1.03268 -5.10867 0
M  V30 7645 C 721.928 0.675868 -5.82794 0
M  V30 7646 C 724.28 0.41377 -6.31245 0
M  V30 7647 C 722.944 0.229939 -6.67104 0
M  V30 7648 H 722.214 0.406367 -0.619634 0
M  V30 7649 H 724.861 0.392558 -1.87433 0
M  V30 7650 H 723.166 2.87917 -2.65728 0
M  V30 7651 H 724.863 2.67252 -2.98961 0
M  V30 7652 H 721.453 1.62336 -3.96667 0
M  V30 7653 H 725.637 1.15297 -4.82722 0
M  V30 7654 H 720.893 0.521833 -6.09169 0
M  V30 7655 H 725.067 0.0588768 -6.96375 0
M  V30 7656 H 722.694 -0.262562 -7.59746 0
M  V30 7657 N 724.269 1.44576 0.627338 0
M  V30 7658 C 725.517 1.47267 1.38408 0
M  V30 7659 C 725.838 0.107971 1.94701 0
M  V30 7660 O 725.108 -0.860206 1.76004 0
M  V30 7661 H 723.688 0.542276 0.513756 0
M  V30 7662 H 726.35 1.80383 0.738099 0
M  V30 7663 H 725.446 2.20025 2.21349 0
M  V30 7664 N 725.747 -0.868086 1.31537 0
M  V30 7665 C 726.972 -1.65926 1.24432 0
M  V30 7666 C 727.397 -1.87169 -0.186936 0
M  V30 7667 O 726.755 -1.4148 -1.13371 0
M  V30 7668 C 726.803 -3.00347 1.9956 0
M  V30 7669 O 725.907 -3.90221 1.33422 0
M  V30 7670 H 725.248 -0.506375 0.429512 0
M  V30 7671 H 727.778 -1.0822 1.73637 0
M  V30 7672 H 727.788 -3.50269 2.09226 0
M  V30 7673 H 726.463 -2.84205 3.03645 0
M  V30 7674 H 725.04 -3.48672 1.32219 0
M  V30 7675 N 727.225 -1.14528 -1.08264 0
M  V30 7676 C 728.455 -0.936604 -1.8415 0
M  V30 7677 C 728.863 0.518298 -1.81962 0
M  V30 7678 O 728.206 1.37096 -1.22272 0
M  V30 7679 C 728.268 -1.36182 -3.32708 0
M  V30 7680 C 727.932 -2.83257 -3.58629 0
M  V30 7681 C 728.929 -3.81366 -3.5335 0
M  V30 7682 C 726.614 -3.20704 -3.86593 0
M  V30 7683 C 728.608 -5.14929 -3.75668 0
M  V30 7684 C 726.295 -4.54443 -4.08564 0
M  V30 7685 C 727.293 -5.51365 -4.03095 0
M  V30 7686 O 726.981 -6.8269 -4.24488 0
M  V30 7687 H 726.713 -0.333254 -0.588148 0
M  V30 7688 H 729.267 -1.5247 -1.3763 0
M  V30 7689 H 727.497 -0.717063 -3.79994 0
M  V30 7690 H 729.186 -1.12372 -3.90035 0
M  V30 7691 H 729.952 -3.53781 -3.31759 0
M  V30 7692 H 725.831 -2.45857 -3.89969 0
M  V30 7693 H 729.375 -5.90568 -3.71315 0
M  V30 7694 H 725.272 -4.81747 -4.29639 0
M  V30 7695 H 726.04 -6.8897 -4.41886 0
M  V30 7696 N 728.703 1.26451 -0.940633 0
M  V30 7697 C 729.949 1.94065 -0.58878 0
M  V30 7698 C 730.282 1.7363 0.869853 0
M  V30 7699 O 729.557 1.073 1.62225 0
M  V30 7700 C 729.84 3.47852 -0.931199 0
M  V30 7701 C 729.693 3.77575 -2.44453 0
M  V30 7702 C 731.012 4.37832 -0.446229 0
M  V30 7703 H 728.131 0.704827 -0.21538 0
M  V30 7704 H 730.773 1.4933 -1.17475 0
M  V30 7705 H 728.923 3.86085 -0.432539 0
M  V30 7706 H 730.595 3.49059 -3.01588 0
M  V30 7707 H 728.838 3.23671 -2.88825 0
M  V30 7708 H 729.509 4.85068 -2.63464 0
M  V30 7709 H 731.985 4.06822 -0.873778 0
M  V30 7710 H 730.861 5.44228 -0.714648 0
M  V30 7711 H 731.122 4.37239 0.653815 0
M  V30 7712 N 730.181 0.707592 1.40822 0
M  V30 7713 C 731.409 0.253073 2.05346 0
M  V30 7714 C 731.824 -1.10218 1.53289 0
M  V30 7715 O 731.181 -1.69112 0.686105 0
M  V30 7716 C 731.232 0.215411 3.60858 0
M  V30 7717 O 730.953 1.51714 4.10992 0
M  V30 7718 C 732.454 -0.258636 4.42545 0
M  V30 7719 H 729.674 0.115256 0.661027 0
M  V30 7720 H 732.218 0.963555 1.80377 0
M  V30 7721 H 730.373 -0.445978 3.84824 0
M  V30 7722 H 730.787 1.41226 5.05129 0
M  V30 7723 H 732.261 -0.233849 5.51504 0
M  V30 7724 H 732.738 -1.2995 4.19535 0
M  V30 7725 H 733.344 0.372186 4.23668 0
M  V30 7726 N 731.66 -1.50943 0.453197 0
M  V30 7727 C 732.61 -2.25003 -0.368467 0
M  V30 7728 C 733.594 -1.27864 -0.976714 0
M  V30 7729 O 734.786 -1.52867 -0.892228 0
M  V30 7730 C 731.915 -3.10701 -1.46014 0
M  V30 7731 C 731.001 -4.15278 -0.860506 0
M  V30 7732 N 731.392 -5.05799 0.00849611 0
M  V30 7733 C 729.69 -4.31542 -1.1264 0
M  V30 7734 C 730.391 -5.80664 0.346951 0
M  V30 7735 N 729.367 -5.42912 -0.273426 0
M  V30 7736 H 733.169 -2.92352 0.301246 0
M  V30 7737 H 730.683 -1.60203 0.266233 0
M  V30 7738 H 732.68 -3.62348 -2.06179 0
M  V30 7739 H 731.34 -2.44898 -2.13202 0
M  V30 7740 H 732.351 -5.16533 0.376077 0
M  V30 7741 H 729.028 -3.76962 -1.7946 0
M  V30 7742 H 730.418 -6.63565 1.05507 0
M  V30 7743 N 733.138 -0.185124 -1.56509 0
M  V30 7744 C 734.088 0.752315 -2.15231 0
M  V30 7745 C 735.072 1.18327 -1.0903 0
M  V30 7746 O 736.264 1.14333 -1.35119 0
M  V30 7747 C 733.393 1.97583 -2.80742 0
M  V30 7748 C 732.479 1.56623 -3.94119 0
M  V30 7749 N 732.87 0.867008 -4.98314 0
M  V30 7750 C 731.168 1.85626 -4.05535 0
M  V30 7751 C 731.869 0.663228 -5.77907 0
M  V30 7752 N 730.845 1.20891 -5.29987 0
M  V30 7753 H 734.647 0.209267 -2.93154 0
M  V30 7754 H 732.161 0.0150444 -1.62393 0
M  V30 7755 H 734.158 2.65779 -3.21197 0
M  V30 7756 H 732.818 2.52369 -2.04303 0
M  V30 7757 H 733.829 0.52355 -5.15247 0
M  V30 7758 H 730.506 2.41992 -3.40215 0
M  V30 7759 H 731.896 0.109273 -6.71811 0
M  V30 7760 N 734.616 1.57351 0.0885366 0
M  V30 7761 C 735.893 1.77449 0.822873 0
M  V30 7762 C 736.273 0.768463 1.96616 0
M  V30 7763 O 735.621 -0.201757 2.27608 0
M  V30 7764 C 735.831 3.23425 1.31137 0
M  V30 7765 C 737.179 3.86791 1.75152 0
M  V30 7766 O 738.203 3.27215 1.40745 0
M  V30 7767 O 737.062 4.91568 2.38794 0
M  V30 7768 H 734.156 0.727653 0.393002 0
M  V30 7769 H 736.702 1.69556 0.0699095 0
M  V30 7770 H 735.474 3.88188 0.49254 0
M  V30 7771 H 735.097 3.35977 2.12615 0
M  V30 7772 N 736.094 -0.359525 1.53444 0
M  V30 7773 C 737.505 -0.936009 1.61542 0
M  V30 7774 C 737.856 -1.90069 0.486633 0
M  V30 7775 O 736.981 -2.12929 -0.386047 0
M  V30 7776 C 737.576 -1.70441 2.92806 0
M  V30 7777 C 736.135 -2.23015 3.03218 0
M  V30 7778 C 735.282 -1.04438 2.56881 0
M  V30 7779 H 738.233 -0.138134 1.58098 0
M  V30 7780 H 738.254 -2.56609 2.80948 0
M  V30 7781 H 737.766 -1.00205 3.74941 0
M  V30 7782 H 735.867 -2.96475 2.25684 0
M  V30 7783 H 735.98 -2.50481 4.08407 0
M  V30 7784 H 734.344 -1.41314 2.11902 0
M  V30 7785 H 735.127 -0.356905 3.4144 0
M  V30 7786 N 737.572 -1.44907 -0.619662 0
M  V30 7787 C 738.983 -1.42905 -1.20146 0
M  V30 7788 C 739.334 -0.150341 -1.95623 0
M  V30 7789 O 738.459 0.748732 -2.03034 0
M  V30 7790 C 739.054 -2.58889 -2.18545 0
M  V30 7791 C 737.613 -2.60046 -2.72127 0
M  V30 7792 C 736.76 -2.3493 -1.4732 0
M  V30 7793 H 739.711 -1.53321 -0.409666 0
M  V30 7794 H 739.732 -2.32298 -3.0136 0
M  V30 7795 H 739.244 -3.51941 -1.63583 0
M  V30 7796 H 737.345 -1.70968 -3.3106 0
M  V30 7797 H 737.458 -3.58893 -3.17384 0
M  V30 7798 H 735.822 -1.84248 -1.75855 0
M  V30 7799 H 736.605 -3.3011 -0.942442 0
M  V30 7800 N 739.05 0.861098 -1.31996 0
M  V30 7801 C 739.98 1.98482 -1.22993 0
M  V30 7802 C 740.961 1.6971 -0.115168 0
M  V30 7803 O 742.146 1.91849 -0.30126 0
M  V30 7804 C 739.276 3.34179 -0.945615 0
M  V30 7805 C 738.23 3.77284 -2.02091 0
M  V30 7806 C 737.556 5.1054 -1.58912 0
M  V30 7807 C 738.856 3.93439 -3.43515 0
M  V30 7808 H 740.55 2.06271 -2.17008 0
M  V30 7809 H 738.096 0.991043 -1.04472 0
M  V30 7810 H 740.049 4.12338 -0.869206 0
M  V30 7811 H 738.773 3.26586 0.0301849 0
M  V30 7812 H 737.432 3.01371 -2.08737 0
M  V30 7813 H 737.08 4.99397 -0.600942 0
M  V30 7814 H 736.78 5.40352 -2.30854 0
M  V30 7815 H 738.304 5.91199 -1.52696 0
M  V30 7816 H 739.718 4.6197 -3.39495 0
M  V30 7817 H 738.115 4.34661 -4.13751 0
M  V30 7818 H 739.185 2.96548 -3.8365 0
M  V30 7819 N 740.528 1.15101 1.07655 0
M  V30 7820 C 741.458 0.867864 2.16773 0
M  V30 7821 C 742.439 -0.180283 1.69142 0
M  V30 7822 O 743.624 -0.0353152 1.94168 0
M  V30 7823 C 740.754 0.35299 3.45501 0
M  V30 7824 C 739.708 1.33746 4.06566 0
M  V30 7825 C 739.034 0.681562 5.30338 0
M  V30 7826 C 740.334 2.7024 4.46954 0
M  V30 7827 H 742.028 1.78034 2.40716 0
M  V30 7828 H 739.574 0.857435 1.15689 0
M  V30 7829 H 741.527 0.142465 4.21159 0
M  V30 7830 H 740.251 -0.594945 3.21135 0
M  V30 7831 H 738.91 1.53429 3.32949 0
M  V30 7832 H 738.558 -0.272422 5.02262 0
M  V30 7833 H 738.258 1.33853 5.72151 0
M  V30 7834 H 739.782 0.48074 6.08705 0
M  V30 7835 H 741.196 2.5442 5.13754 0
M  V30 7836 H 739.593 3.32282 4.99709 0
M  V30 7837 H 740.663 3.26537 3.58471 0
M  V30 7838 N 742.006 -1.2595 0.947325 0
M  V30 7839 C 743.253 -1.93463 0.598178 0
M  V30 7840 C 743.581 -1.74271 -0.863705 0
M  V30 7841 O 742.836 -1.07684 -1.63409 0
M  V30 7842 C 743.135 -3.46034 0.894158 0
M  V30 7843 C 742.801 -3.85373 2.3409 0
M  V30 7844 C 741.463 -3.95823 2.73637 0
M  V30 7845 C 743.815 -4.04986 3.2808 0
M  V30 7846 C 741.143 -4.23288 4.06257 0
M  V30 7847 C 743.495 -4.3394 4.60303 0
M  V30 7848 C 742.159 -4.42606 4.99656 0
M  V30 7849 H 741.429 -0.707933 0.218889 0
M  V30 7850 H 744.076 -1.4964 1.19499 0
M  V30 7851 H 742.381 -3.9121 0.214874 0
M  V30 7852 H 744.078 -3.96445 0.602698 0
M  V30 7853 H 740.668 -3.7779 2.02417 0
M  V30 7854 H 744.852 -3.96333 2.9872 0
M  V30 7855 H 740.108 -4.28211 4.36401 0
M  V30 7856 H 744.282 -4.48061 5.33118 0
M  V30 7857 H 741.909 -4.63641 6.02446 0
M  V30 7858 N 743.484 -0.715051 -1.40445 0
M  V30 7859 C 744.761 -0.181503 -1.94756 0
M  V30 7860 C 745.141 1.31268 -1.65324 0
M  V30 7861 O 744.489 2.0686 -0.970631 0
M  V30 7862 C 744.699 -0.493663 -3.45491 0
M  V30 7863 C 746.047 -0.432032 -4.22396 0
M  V30 7864 O 747.071 -0.429692 -3.53599 0
M  V30 7865 O 745.93 -0.409091 -5.44967 0
M  V30 7866 H 743.024 -0.0263989 -0.826579 0
M  V30 7867 H 745.57 -0.792546 -1.50056 0
M  V30 7868 H 744.342 -1.52713 -3.6027 0
M  V30 7869 H 743.965 0.14737 -3.97327 0
M  V30 7870 N 744.962 1.50701 -0.461195 0
M  V30 7871 C 746.211 2.01458 0.0988277 0
M  V30 7872 C 746.524 1.34863 1.41673 0
M  V30 7873 O 747.73 1.76721 2.06111 0
M  V30 7874 C 746.186 3.59186 0.226648 0
M  V30 7875 C 745.794 4.34732 -1.08223 0
M  V30 7876 C 747.538 4.18015 0.73916 0
M  V30 7877 C 745.445 5.8422 -0.918747 0
M  V30 7878 H 744.375 0.7529 0.040709 0
M  V30 7879 H 747.026 1.736 -0.594589 0
M  V30 7880 H 745.408 3.83589 0.983621 0
M  V30 7881 H 746.582 4.22059 -1.84939 0
M  V30 7882 H 744.897 3.87466 -1.52509 0
M  V30 7883 H 747.494 5.27436 0.878347 0
M  V30 7884 H 747.837 3.78746 1.72793 0
M  V30 7885 H 748.37 3.9778 0.0398469 0
M  V30 7886 H 745.109 6.27944 -1.88059 0
M  V30 7887 H 744.629 5.99493 -0.191801 0
M  V30 7888 H 746.308 6.44382 -0.581405 0
M  V30 7889 N 746.441 0.193421 1.56409 0
M  V30 7890 C 747.666 -0.454552 2.02358 0
M  V30 7891 C 748.091 -1.54516 1.07268 0
M  V30 7892 O 747.449 -1.81214 0.0558962 0
M  V30 7893 C 747.497 -0.989469 3.46759 0
M  V30 7894 O 746.601 -2.10244 3.54783 0
M  V30 7895 H 745.942 -0.106417 0.655417 0
M  V30 7896 H 748.472 0.303807 2.02332 0
M  V30 7897 H 748.482 -1.30649 3.86516 0
M  V30 7898 H 747.157 -0.191083 4.15461 0
M  V30 7899 H 745.734 -1.79419 3.26899 0
M  V30 7900 N 747.919 -1.57396 -0.0801906 0
M  V30 7901 C 748.866 -2.03107 -1.09618 0
M  V30 7902 C 749.836 -0.910118 -1.38946 0
M  V30 7903 O 751.021 -1.17719 -1.50156 0
M  V30 7904 C 748.161 -2.47293 -2.40708 0
M  V30 7905 C 747.274 -3.72972 -2.17982 0
M  V30 7906 C 746.409 -4.05975 -3.42576 0
M  V30 7907 C 745.448 -5.24719 -3.15177 0
M  V30 7908 N 744.585 -5.53401 -4.32078 0
M  V30 7909 H 749.425 -2.89677 -0.69939 0
M  V30 7910 H 746.962 -1.43263 -0.333785 0
M  V30 7911 H 748.92 -2.7096 -3.17232 0
M  V30 7912 H 747.55 -1.63713 -2.78205 0
M  V30 7913 H 746.602 -3.56693 -1.32189 0
M  V30 7914 H 747.914 -4.59638 -1.93738 0
M  V30 7915 H 747.068 -4.30498 -4.275 0
M  V30 7916 H 745.807 -3.17859 -3.69887 0
M  V30 7917 H 744.812 -5 -2.28648 0
M  V30 7918 H 746.037 -6.14445 -2.89197 0
M  V30 7919 H 743.983 -4.68245 -4.59437 0
M  V30 7920 H 743.9 -6.34469 -4.11078 0
M  V30 7921 H 745.168 -5.8247 -5.18024 0
M  V30 7922 N 749.397 0.351382 -1.53633 0
M  V30 7923 C 750.674 1.10903 -1.6112 0
M  V30 7924 C 751.054 2.06725 -0.427556 0
M  V30 7925 O 750.402 2.20992 0.580916 0
M  V30 7926 C 750.612 1.83561 -2.96827 0
M  V30 7927 C 751.96 2.37587 -3.51906 0
M  V30 7928 O 752.984 1.93669 -2.9895 0
M  V30 7929 O 751.843 3.17913 -4.44515 0
M  V30 7930 H 748.937 0.509558 -0.651368 0
M  V30 7931 H 751.483 0.353504 -1.65977 0
M  V30 7932 H 750.255 1.1371 -3.74414 0
M  V30 7933 H 749.878 2.6599 -2.95525 0
M  V30 7934 N 750.875 1.45233 0.611969 0
M  V30 7935 C 752.286 1.4354 1.19387 0
M  V30 7936 C 752.637 0.160713 1.95541 0
M  V30 7937 O 751.762 -0.737954 2.03429 0
M  V30 7938 C 752.357 2.60045 2.17169 0
M  V30 7939 C 750.916 2.61486 2.70744 0
M  V30 7940 C 750.063 2.35708 1.46072 0
M  V30 7941 H 753.014 1.53536 0.401529 0
M  V30 7942 H 753.035 2.33893 3.00124 0
M  V30 7943 H 752.547 3.52803 1.61714 0
M  V30 7944 H 750.648 1.72721 3.30149 0
M  V30 7945 H 750.761 3.60572 3.15476 0
M  V30 7946 H 749.125 1.85178 1.74875 0
M  V30 7947 H 749.908 3.30606 0.924922 0
M  V30 7948 N 752.353 -0.854086 1.3245 0
M  V30 7949 C 753.769 -1.14238 1.11453 0
M  V30 7950 C 753.969 -2.01228 -0.10461 0
M  V30 7951 O 753.025 -2.39845 -0.789339 0
M  V30 7952 C 754.338 -1.81916 2.39431 0
M  V30 7953 C 755.886 -1.94549 2.45193 0
M  V30 7954 C 756.361 -2.65642 3.73093 0
M  V30 7955 N 757.852 -2.73167 3.74078 0
M  V30 7956 C 758.587 -3.28828 4.69744 0
M  V30 7957 N 758.083 -3.85295 5.75778 0
M  V30 7958 N 759.876 -3.26936 4.57241 0
M  V30 7959 H 752.027 -0.274786 2.10615 0
M  V30 7960 H 754.29 -0.184375 0.929898 0
M  V30 7961 H 753.996 -1.25452 3.28565 0
M  V30 7962 H 753.87 -2.82068 2.50434 0
M  V30 7963 H 756.257 -2.50172 1.56518 0
M  V30 7964 H 756.338 -0.933914 2.38142 0
M  V30 7965 H 755.982 -2.10683 4.62142 0
M  V30 7966 H 755.912 -3.6724 3.77415 0
M  V30 7967 H 758.403 -2.33108 2.97438 0
M  V30 7968 H 758.716 -4.25925 6.44832 0
M  V30 7969 H 757.061 -3.83625 5.79531 0
M  V30 7970 H 760.252 -2.8207 3.7357 0
M  V30 7971 H 760.425 -3.70014 5.31971 0
M  V30 7972 N 753.831 -1.1567 -1.07043 0
M  V30 7973 C 754.741 -0.870435 -2.17855 0
M  V30 7974 C 755.757 0.154452 -1.73313 0
M  V30 7975 O 756.933 -0.0203759 -2.0139 0
M  V30 7976 C 753.998 -0.367219 -3.4475 0
M  V30 7977 C 753.059 -1.45639 -4.03841 0
M  V30 7978 C 752.292 -0.977092 -5.2468 0
M  V30 7979 O 752.515 0.176127 -5.70128 0
M  V30 7980 O 751.449 -1.76215 -5.75527 0
M  V30 7981 H 755.275 -1.79687 -2.44839 0
M  V30 7982 H 752.86 -0.936064 -1.1644 0
M  V30 7983 H 754.742 -0.0931947 -4.21297 0
M  V30 7984 H 753.417 0.53131 -3.1931 0
M  V30 7985 H 752.324 -1.78406 -3.28819 0
M  V30 7986 H 753.657 -2.32995 -4.3356 0
M  V30 7987 N 755.309 1.25446 -0.953992 0
M  V30 7988 C 756.725 1.4539 -0.658316 0
M  V30 7989 C 756.925 1.85607 0.784356 0
M  V30 7990 O 755.981 1.98568 1.55972 0
M  V30 7991 C 757.294 2.52643 -1.6307 0
M  V30 7992 C 758.842 2.66484 -1.64181 0
M  V30 7993 C 759.317 3.76921 -2.60182 0
M  V30 7994 N 760.808 3.84331 -2.58542 0
M  V30 7995 C 761.543 4.69271 -3.29503 0
M  V30 7996 N 761.039 5.58503 -4.09934 0
M  V30 7997 N 762.832 4.6323 -3.18393 0
M  V30 7998 H 754.983 0.976337 -1.8863 0
M  V30 7999 H 757.246 0.490343 -0.811337 0
M  V30 8000 H 756.952 2.29949 -2.66114 0
M  V30 8001 H 756.826 3.50547 -1.39271 0
M  V30 8002 H 759.213 2.88545 -0.618552 0
M  V30 8003 H 759.294 1.68982 -1.92038 0
M  V30 8004 H 758.938 3.55612 -3.62633 0
M  V30 8005 H 758.868 4.73906 -2.29609 0
M  V30 8006 H 761.359 3.20544 -2.0015 0
M  V30 8007 H 761.672 6.20241 -4.61 0
M  V30 8008 H 760.017 5.58214 -4.14032 0
M  V30 8009 H 763.208 3.92527 -2.5503 0
M  V30 8010 H 763.381 5.29204 -3.73961 0
M  V30 8011 N 756.787 0.722489 1.40064 0
M  V30 8012 C 757.735 0.063329 2.32514 0
M  V30 8013 C 758.729 -0.73953 1.52405 0
M  V30 8014 O 759.935 -0.642122 1.68157 0
M  V30 8015 H 756.31 0.00167692 0.751998 0
M  V30 8016 H 758.281 0.859656 2.85749 0
M  V30 8017 C 757.03 -0.839219 3.3742 0
M  V30 8018 H 756.353 -0.230836 3.99133 0
M  V30 8019 H 757.793 -1.26827 4.04587 0
M  V30 8020 C 756.252 -1.96783 2.73456 0
M  V30 8021 O 756.782 -3.05933 2.60323 0
M  V30 8022 N 754.988 -1.75351 2.31734 0
M  V30 8023 H 754.535 -0.865787 2.42615 0
M  V30 8024 H 754.493 -2.51043 1.89275 0
M  V30 8025 N 758.265 -1.50454 0.469181 0
M  V30 8026 C 759.676 -1.86695 0.0136034 0
M  V30 8027 C 760.027 -1.38413 -1.39055 0
M  V30 8028 O 759.152 -0.748294 -2.03051 0
M  V30 8029 C 759.747 -3.38795 0.0179098 0
M  V30 8030 C 758.306 -3.74455 -0.382191 0
M  V30 8031 C 757.453 -2.74338 0.404207 0
M  V30 8032 H 760.404 -1.43225 0.683547 0
M  V30 8033 H 760.425 -3.72321 -0.78468 0
M  V30 8034 H 759.937 -3.73906 1.04 0
M  V30 8035 H 758.038 -3.44944 -1.4087 0
M  V30 8036 H 758.151 -4.79025 -0.084862 0
M  V30 8037 H 756.515 -2.54305 -0.141829 0
M  V30 8038 H 757.298 -3.12293 1.42577 0
M  V30 8039 N 759.743 -0.201713 -1.56304 0
M  V30 8040 C 760.673 0.71155 -2.22394 0
M  V30 8041 C 761.654 1.21625 -1.18917 0
M  V30 8042 O 762.839 1.26388 -1.47444 0
M  V30 8043 C 759.969 1.92837 -2.88845 0
M  V30 8044 C 758.923 1.55831 -3.98623 0
M  V30 8045 C 758.249 2.85228 -4.52271 0
M  V30 8046 C 759.549 0.763249 -5.16693 0
M  V30 8047 H 761.243 0.160573 -2.98969 0
M  V30 8048 H 758.789 0.0757916 -1.438 0
M  V30 8049 H 760.742 2.57253 -3.33764 0
M  V30 8050 H 759.466 2.50398 -2.09686 0
M  V30 8051 H 758.125 0.9377 -3.54405 0
M  V30 8052 H 757.773 3.40893 -3.69866 0
M  V30 8053 H 757.473 2.6121 -5.26349 0
M  V30 8054 H 758.997 3.50622 -4.99897 0
M  V30 8055 H 760.411 1.31066 -5.58117 0
M  V30 8056 H 758.808 0.620935 -5.96879 0
M  V30 8057 H 759.878 -0.234322 -4.84334 0
M  V30 8058 N 761.222 1.57436 0.0718424 0
M  V30 8059 C 762.45 1.91474 0.783932 0
M  V30 8060 C 762.865 0.797669 1.71122 0
M  V30 8061 O 762.222 -0.228989 1.81058 0
M  V30 8062 C 762.273 3.25259 1.57761 0
M  V30 8063 O 761.994 4.3267 0.687596 0
M  V30 8064 C 763.495 3.7331 2.3907 0
M  V30 8065 H 760.715 0.632901 0.222885 0
M  V30 8066 H 763.259 2.04457 0.0421262 0
M  V30 8067 H 761.414 3.13804 2.27169 0
M  V30 8068 H 761.828 5.09641 1.23962 0
M  V30 8069 H 763.302 4.69551 2.90216 0
M  V30 8070 H 763.779 3.02318 3.18591 0
M  V30 8071 H 764.385 3.8771 1.74818 0
M  V30 8072 N 762.7 -0.34323 1.53817 0
M  V30 8073 C 764.111 -0.918823 1.62525 0
M  V30 8074 C 764.462 -1.89542 0.506765 0
M  V30 8075 O 763.587 -2.13326 -0.363441 0
M  V30 8076 C 764.182 -1.67326 2.94597 0
M  V30 8077 C 762.741 -2.19786 3.05567 0
M  V30 8078 C 761.888 -1.01708 2.57974 0
M  V30 8079 H 764.839 -0.121358 1.58235 0
M  V30 8080 H 764.86 -2.53615 2.83654 0
M  V30 8081 H 764.372 -0.962223 3.75983 0
M  V30 8082 H 762.473 -2.94065 2.28816 0
M  V30 8083 H 762.586 -2.46135 4.1104 0
M  V30 8084 H 760.95 -1.39058 2.13389 0
M  V30 8085 H 761.733 -0.320671 3.41799 0
M  V30 8086 N 764.178 -1.45556 -0.604258 0
M  V30 8087 C 765.141 -1.54091 -1.69672 0
M  V30 8088 C 766.141 -0.420076 -1.55216 0
M  V30 8089 O 767.331 -0.683671 -1.60224 0
M  V30 8090 C 764.463 -1.44063 -3.08964 0
M  V30 8091 H 765.656 -2.51431 -1.6347 0
M  V30 8092 H 763.209 -1.33046 -0.820273 0
M  V30 8093 H 763.944 -0.479201 -3.2074 0
M  V30 8094 H 763.729 -2.25362 -3.20865 0
M  V30 8095 H 765.219 -1.53075 -3.88533 0
M  V30 8096 N 765.656 0.84705 -1.32902 0
M  V30 8097 C 766.881 1.63925 -1.27056 0
M  V30 8098 C 767.306 1.87443 0.157136 0
M  V30 8099 O 766.664 1.43266 1.11106 0
M  V30 8100 C 766.712 2.97134 -2.04313 0
M  V30 8101 O 765.816 3.88049 -1.39614 0
M  V30 8102 H 765.157 0.499477 -0.437514 0
M  V30 8103 H 767.687 1.05443 -1.75336 0
M  V30 8104 H 767.697 3.46896 -2.14772 0
M  V30 8105 H 766.372 2.79339 -3.08128 0
M  V30 8106 H 764.949 3.46525 -1.3775 0
M  V30 8107 N 767.134 1.16236 1.06428 0
M  V30 8108 C 768.044 0.881976 2.1739 0
M  V30 8109 C 769.06 -0.145259 1.73393 0
M  V30 8110 O 770.236 0.0310558 2.01376 0
M  V30 8111 C 767.301 0.385496 3.4455 0
M  V30 8112 C 766.362 1.47779 4.03063 0
M  V30 8113 C 765.595 1.0049 5.24154 0
M  V30 8114 O 765.818 -0.145889 5.70213 0
M  V30 8115 O 764.752 1.79265 5.74585 0
M  V30 8116 H 768.578 1.80983 2.43883 0
M  V30 8117 H 766.163 0.942226 1.15942 0
M  V30 8118 H 768.045 0.115536 4.21242 0
M  V30 8119 H 766.72 -0.514369 3.19587 0
M  V30 8120 H 765.627 1.80147 3.27869 0
M  V30 8121 H 766.96 2.35291 4.32318 0
M  V30 8122 N 768.612 -1.24939 0.960631 0
M  V30 8123 C 770.023 -1.74701 0.658529 0
M  V30 8124 C 770.374 -1.77967 -0.825959 0
M  V30 8125 O 769.499 -1.40444 -1.64634 0
M  V30 8126 C 770.094 -3.17263 1.18867 0
M  V30 8127 C 768.653 -3.64561 0.936614 0
M  V30 8128 C 767.8 -2.43423 1.32817 0
M  V30 8129 H 770.751 -1.10741 1.13676 0
M  V30 8130 H 770.772 -3.76481 0.551589 0
M  V30 8131 H 770.284 -3.14854 2.26912 0
M  V30 8132 H 768.385 -3.72378 -0.128608 0
M  V30 8133 H 768.498 -4.52392 1.57729 0
M  V30 8134 H 766.862 -2.43513 0.746548 0
M  V30 8135 H 767.645 -2.437 2.41796 0
M  V30 8136 N 770.09 -0.729906 -1.39679 0
M  V30 8137 C 771.506 -0.404951 -1.54377 0
M  V30 8138 C 771.706 1.08476 -1.6981 0
M  V30 8139 O 770.762 1.87087 -1.69572 0
M  V30 8140 C 772.075 -1.18352 -2.76429 0
M  V30 8141 C 773.623 -1.17124 -2.9026 0
M  V30 8142 C 774.098 -1.93227 -4.15244 0
M  V30 8143 N 775.589 -1.90368 -4.22273 0
M  V30 8144 C 776.324 -2.46065 -5.17918 0
M  V30 8145 N 775.82 -3.10378 -6.19385 0
M  V30 8146 N 777.613 -2.36127 -5.10099 0
M  V30 8147 H 769.764 -1.69567 -1.27909 0
M  V30 8148 H 772.027 -0.717527 -0.619564 0
M  V30 8149 H 771.733 -2.23743 -2.71352 0
M  V30 8150 H 771.607 -0.784589 -3.6895 0
M  V30 8151 H 773.994 -0.125478 -2.94833 0
M  V30 8152 H 774.075 -1.60951 -1.98817 0
M  V30 8153 H 773.719 -2.97802 -4.11432 0
M  V30 8154 H 773.649 -1.4681 -5.05722 0
M  V30 8155 H 776.14 -1.4351 -3.4959 0
M  V30 8156 H 776.453 -3.50358 -6.88817 0
M  V30 8157 H 774.798 -3.14467 -6.19787 0
M  V30 8158 H 777.989 -1.85529 -4.29763 0
M  V30 8159 H 778.162 -2.79833 -5.84463 0
M  V30 8160 N 771.568 1.50203 -0.477153 0
M  V30 8161 C 772.815 2.02358 0.0757385 0
M  V30 8162 C 773.143 1.3587 1.39174 0
M  V30 8163 O 772.398 0.475415 1.89838 0
M  V30 8164 C 772.697 3.56127 0.301325 0
M  V30 8165 C 772.363 4.41126 -0.933725 0
M  V30 8166 C 771.025 4.64075 -1.27233 0
M  V30 8167 C 773.377 4.90737 -1.75576 0
M  V30 8168 C 770.705 5.33878 -2.43292 0
M  V30 8169 C 773.057 5.61816 -2.90768 0
M  V30 8170 C 771.721 5.83016 -3.25036 0
M  V30 8171 H 770.991 0.740482 0.0277147 0
M  V30 8172 H 773.638 1.80754 -0.632467 0
M  V30 8173 H 771.943 3.76279 1.09183 0
M  V30 8174 H 773.64 3.94053 0.743184 0
M  V30 8175 H 770.23 4.23489 -0.659935 0
M  V30 8176 H 774.414 4.72856 -1.50734 0
M  V30 8177 H 769.67 5.48499 -2.70109 0
M  V30 8178 H 773.844 5.99237 -3.54807 0
M  V30 8179 H 771.471 6.36881 -4.15074 0
M  V30 8180 N 773.046 0.209999 1.56195 0
M  V30 8181 C 774.276 -0.429373 2.02089 0
M  V30 8182 C 774.684 -1.54703 1.0892 0
M  V30 8183 O 774.027 -1.83485 0.0889535 0
M  V30 8184 C 774.089 -1.03266 3.44349 0
M  V30 8185 C 773.753 -0.0518873 4.56971 0
M  V30 8186 C 774.75 0.744249 5.14545 0
M  V30 8187 C 772.435 0.0635185 5.0226 0
M  V30 8188 C 774.429 1.64261 6.15871 0
M  V30 8189 C 772.116 0.965423 6.03426 0
M  V30 8190 C 773.114 1.75352 6.60106 0
M  V30 8191 O 772.802 2.64029 7.59305 0
M  V30 8192 H 772.534 -0.110604 0.66689 0
M  V30 8193 H 775.088 0.320436 2.02885 0
M  V30 8194 H 773.318 -1.83134 3.40586 0
M  V30 8195 H 775.007 -1.57823 3.73961 0
M  V30 8196 H 775.773 0.665476 4.80413 0
M  V30 8197 H 771.652 -0.539762 4.57829 0
M  V30 8198 H 775.196 2.25819 6.60039 0
M  V30 8199 H 771.093 1.04526 6.36981 0
M  V30 8200 H 771.861 2.57974 7.76783 0
M  V30 8201 N 774.524 -1.57472 -0.0634922 0
M  V30 8202 C 775.434 -2.07621 -1.09227 0
M  V30 8203 C 776.45 -1.00746 -1.41867 0
M  V30 8204 O 777.626 -1.32269 -1.51878 0
M  V30 8205 C 774.691 -2.51707 -2.38421 0
M  V30 8206 C 773.752 -3.72917 -2.12676 0
M  V30 8207 C 772.985 -4.14891 -3.3571 0
M  V30 8208 O 773.208 -3.56663 -4.45137 0
M  V30 8209 O 772.142 -5.07616 -3.23434 0
M  V30 8210 H 775.968 -2.95612 -0.696205 0
M  V30 8211 H 773.553 -1.46787 -0.27819 0
M  V30 8212 H 775.435 -2.80547 -3.14438 0
M  V30 8213 H 774.11 -1.66842 -2.77391 0
M  V30 8214 H 773.017 -3.49148 -1.34337 0
M  V30 8215 H 774.35 -4.5866 -1.78583 0
M  V30 8216 N 776.003 0.335068 -1.53997 0
M  V30 8217 C 777.252 1.07182 -1.70865 0
M  V30 8218 C 777.565 1.89541 -0.483078 0
M  V30 8219 O 778.771 2.66219 -0.532879 0
M  V30 8220 C 777.227 1.95497 -3.02174 0
M  V30 8221 C 776.835 1.18304 -4.32097 0
M  V30 8222 C 778.579 2.68978 -3.28407 0
M  V30 8223 C 776.486 2.05699 -5.54474 0
M  V30 8224 H 775.416 0.403857 -0.636722 0
M  V30 8225 H 778.067 0.33076 -1.80494 0
M  V30 8226 H 776.449 2.73456 -2.86423 0
M  V30 8227 H 777.623 0.451969 -4.58578 0
M  V30 8228 H 775.938 0.565556 -4.12541 0
M  V30 8229 H 778.535 3.34651 -4.17029 0
M  V30 8230 H 778.878 3.36 -2.45784 0
M  V30 8231 H 779.411 1.98087 -3.44973 0
M  V30 8232 H 776.15 1.43204 -6.39666 0
M  V30 8233 H 775.67 2.76572 -5.32229 0
M  V30 8234 H 777.349 2.64554 -5.90441 0
M  V30 8235 N 777.481 1.45874 0.596531 0
M  V30 8236 C 778.411 1.5824 1.71705 0
M  V30 8237 C 779.392 0.433366 1.64487 0
M  V30 8238 O 780.577 0.657895 1.82717 0
M  V30 8239 C 777.707 1.55927 3.10329 0
M  V30 8240 C 776.661 2.69659 3.32367 0
M  V30 8241 C 775.987 2.52403 4.71377 0
M  V30 8242 C 777.287 4.11591 3.21544 0
M  V30 8243 H 778.981 2.52035 1.61613 0
M  V30 8244 H 776.527 1.21297 0.776082 0
M  V30 8245 H 778.48 1.63173 3.88526 0
M  V30 8246 H 777.204 0.586674 3.21288 0
M  V30 8247 H 775.863 2.61859 2.56564 0
M  V30 8248 H 775.511 1.53258 4.79083 0
M  V30 8249 H 775.211 3.28679 4.87077 0
M  V30 8250 H 776.735 2.6152 5.5176 0
M  V30 8251 H 778.149 4.20576 3.89601 0
M  V30 8252 H 776.546 4.88344 3.4877 0
M  V30 8253 H 777.616 4.32719 2.1882 0
M  V30 8254 N 778.959 -0.83999 1.33349 0
M  V30 8255 C 779.906 -1.94972 1.23509 0
M  V30 8256 C 780.876 -1.65709 0.113967 0
M  V30 8257 O 782.061 -1.88552 0.292045 0
M  V30 8258 C 779.201 -3.30919 0.979105 0
M  V30 8259 C 778.314 -3.72587 2.18639 0
M  V30 8260 C 777.449 -4.97397 1.86465 0
M  V30 8261 C 776.488 -5.31597 3.03432 0
M  V30 8262 N 775.625 -6.47584 2.71254 0
M  V30 8263 H 780.465 -2.0272 2.18423 0
M  V30 8264 H 778.002 -0.992017 1.08616 0
M  V30 8265 H 779.96 -4.09239 0.811126 0
M  V30 8266 H 778.59 -3.22731 0.0667099 0
M  V30 8267 H 777.642 -2.89799 2.46416 0
M  V30 8268 H 778.954 -3.93844 3.06086 0
M  V30 8269 H 778.108 -5.83462 1.66305 0
M  V30 8270 H 776.847 -4.78107 0.96254 0
M  V30 8271 H 775.852 -4.44037 3.24208 0
M  V30 8272 H 777.077 -5.52836 3.94397 0
M  V30 8273 H 775.023 -6.29783 1.836 0
M  V30 8274 H 774.94 -6.68931 3.52231 0
M  V30 8275 H 776.208 -7.36764 2.54558 0
M  V30 8276 N 780.437 -1.16799 -1.0581 0
M  V30 8277 C 781.683 -0.953935 -1.78963 0
M  V30 8278 C 782.016 0.516638 -1.87202 0
M  V30 8279 O 781.291 1.38338 -1.36721 0
M  V30 8280 C 781.574 -1.58808 -3.23191 0
M  V30 8281 C 781.427 -3.13032 -3.23003 0
M  V30 8282 C 782.746 -1.2868 -4.20867 0
M  V30 8283 H 779.865 -0.347972 -0.64968 0
M  V30 8284 H 782.507 -1.44204 -1.23715 0
M  V30 8285 H 780.657 -1.17303 -3.70368 0
M  V30 8286 H 782.329 -3.63553 -2.83949 0
M  V30 8287 H 780.572 -3.46108 -2.61518 0
M  V30 8288 H 781.243 -3.52527 -4.24769 0
M  V30 8289 H 783.719 -1.6461 -3.82155 0
M  V30 8290 H 782.595 -1.75645 -5.20038 0
M  V30 8291 H 782.856 -0.206491 -4.41618 0
M  V30 8292 N 781.915 1.24427 -0.967243 0
M  V30 8293 C 782.848 2.23885 -0.441683 0
M  V30 8294 C 783.826 1.55231 0.483963 0
M  V30 8295 O 785.01 1.83865 0.415445 0
M  V30 8296 C 782.137 3.36755 0.362458 0
M  V30 8297 C 781.183 4.23495 -0.505407 0
M  V30 8298 S 782.016 4.98916 -1.94534 0
M  V30 8299 C 783.172 6.15245 -1.14997 0
M  V30 8300 H 783.405 2.68118 -1.28453 0
M  V30 8301 H 780.938 1.337 -0.772243 0
M  V30 8302 H 782.896 4.02218 0.820445 0
M  V30 8303 H 781.557 2.91081 1.18027 0
M  V30 8304 H 780.75 5.03876 0.111979 0
M  V30 8305 H 780.352 3.63032 -0.899104 0
M  V30 8306 H 782.644 6.7629 -0.404769 0
M  V30 8307 H 783.587 6.81343 -1.92814 0
M  V30 8308 H 783.995 5.60455 -0.674543 0
M  V30 8309 N 783.393 0.737304 1.3929 0
M  V30 8310 C 784.325 0.0592106 2.29124 0
M  V30 8311 C 785.338 -0.701026 1.46934 0
M  V30 8312 O 786.527 -0.544808 1.69983 0
M  V30 8313 C 783.627 -0.940358 3.25592 0
M  V30 8314 C 782.8 -0.241163 4.36735 0
M  V30 8315 C 781.859 -1.14916 5.13498 0
M  V30 8316 O 780.885 -0.625783 5.6575 0
M  V30 8317 N 782.087 -2.47869 5.2492 0
M  V30 8318 H 784.852 0.830647 2.87959 0
M  V30 8319 H 782.413 0.586718 1.50895 0
M  V30 8320 H 784.405 -1.55046 3.73822 0
M  V30 8321 H 782.975 -1.61299 2.67771 0
M  V30 8322 H 782.195 0.549441 3.90352 0
M  V30 8323 H 783.483 0.243299 5.08218 0
M  V30 8324 H 782.881 -2.92864 4.83991 0
M  V30 8325 H 781.438 -3.03969 5.76581 0
M  V30 8326 N 784.871 -1.49948 0.485112 0
M  V30 8327 C 785.781 -2.32587 -0.306697 0
M  V30 8328 C 786.797 -1.43598 -0.982632 0
M  V30 8329 O 787.973 -1.76638 -0.967519 0
M  V30 8330 C 785.038 -3.18638 -1.3664 0
M  V30 8331 C 784.099 -4.23462 -0.705589 0
M  V30 8332 C 783.332 -5.05401 -1.7148 0
M  V30 8333 O 783.555 -4.88618 -2.94293 0
M  V30 8334 O 782.489 -5.88157 -1.27889 0
M  V30 8335 H 786.315 -3.01447 0.369272 0
M  V30 8336 H 783.9 -1.47349 0.246709 0
M  V30 8337 H 785.782 -3.71992 -1.9799 0
M  V30 8338 H 784.457 -2.52491 -2.02559 0
M  V30 8339 H 783.364 -3.74063 -0.0527733 0
M  V30 8340 H 784.697 -4.92119 -0.0891187 0
M  V30 8341 N 786.349 -0.21828 -1.56081 0
M  V30 8342 C 787.312 0.679633 -2.18892 0
M  V30 8343 C 788.312 1.12405 -1.14986 0
M  V30 8344 O 789.502 1.03339 -1.40238 0
M  V30 8345 C 786.634 1.93063 -2.80962 0
M  V30 8346 H 787.827 0.132066 -2.99609 0
M  V30 8347 H 785.38 0.0313374 -1.56269 0
M  V30 8348 H 786.115 2.52015 -2.04106 0
M  V30 8349 H 785.9 1.62046 -3.57048 0
M  V30 8350 H 787.39 2.57043 -3.29118 0
M  V30 8351 N 787.827 1.57504 0.0551401 0
M  V30 8352 C 788.79 2.03826 1.04821 0
M  V30 8353 C 789.79 0.937968 1.30609 0
M  V30 8354 O 790.98 1.20237 1.2605 0
M  V30 8355 C 788.112 2.43309 2.38775 0
M  V30 8356 H 789.305 2.92802 0.6486 0
M  V30 8357 H 786.858 1.53368 0.301315 0
M  V30 8358 H 787.593 1.5741 2.83536 0
M  V30 8359 H 787.378 3.23615 2.21395 0
M  V30 8360 H 788.868 2.79666 3.10124 0
M  V30 8361 N 789.305 -0.326896 1.54172 0
M  V30 8362 C 790.582 -1.08326 1.62864 0
M  V30 8363 C 790.962 -2.06018 0.46039 0
M  V30 8364 O 790.31 -2.21889 -0.545685 0
M  V30 8365 C 790.52 -1.78816 2.9971 0
M  V30 8366 C 791.868 -2.31958 3.55641 0
M  V30 8367 O 792.892 -1.88888 3.01993 0
M  V30 8368 O 791.751 -3.10801 4.49517 0
M  V30 8369 H 788.845 -0.499131 0.659392 0
M  V30 8370 H 791.391 -0.327054 1.66519 0
M  V30 8371 H 790.163 -1.07739 3.76176 0
M  V30 8372 H 789.786 -2.61255 2.99719 0
M  V30 8373 N 790.784 -1.46188 -0.588786 0
M  V30 8374 C 792.2 -1.31009 -0.911524 0
M  V30 8375 C 792.4 -0.277017 -1.99587 0
M  V30 8376 O 791.456 0.322532 -2.50432 0
M  V30 8377 C 792.769 -2.69459 -1.33463 0
M  V30 8378 C 794.317 -2.77502 -1.44782 0
M  V30 8379 C 794.792 -4.1652 -1.90461 0
M  V30 8380 N 796.283 -4.18907 -1.97665 0
M  V30 8381 C 797.018 -5.23359 -2.34271 0
M  V30 8382 N 796.514 -6.38143 -2.69714 0
M  V30 8383 N 798.307 -5.10723 -2.34774 0
M  V30 8384 H 790.458 -2.12016 0.127614 0
M  V30 8385 H 792.721 -0.947984 -0.00557599 0
M  V30 8386 H 792.427 -3.46336 -0.611929 0
M  V30 8387 H 792.301 -2.99165 -2.2974 0
M  V30 8388 H 794.688 -2.00917 -2.1614 0
M  V30 8389 H 794.769 -2.51488 -0.467724 0
M  V30 8390 H 794.413 -4.93597 -1.19684 0
M  V30 8391 H 794.343 -4.39937 -2.89418 0
M  V30 8392 H 796.834 -3.36084 -1.72789 0
M  V30 8393 H 797.147 -7.13624 -2.96582 0
M  V30 8394 H 795.492 -6.41514 -2.67366 0
M  V30 8395 H 798.683 -4.20088 -2.06503 0
M  V30 8396 H 798.856 -5.9224 -2.62975 0
M  V30 8397 N 792.262 0.832906 -1.33792 0
M  V30 8398 C 793.212 1.93178 -1.21105 0
M  V30 8399 C 794.196 1.60506 -0.112491 0
M  V30 8400 O 795.388 1.73681 -0.341179 0
M  V30 8401 C 792.517 3.29647 -0.958526 0
M  V30 8402 C 791.603 3.68469 -2.0998 0
M  V30 8403 N 791.994 3.78936 -3.35024 0
M  V30 8404 C 790.292 3.98249 -2.00782 0
M  V30 8405 C 790.993 4.12731 -4.09912 0
M  V30 8406 N 789.969 4.25419 -3.38407 0
M  V30 8407 H 793.771 1.99434 -2.15878 0
M  V30 8408 H 791.285 1.02598 -1.25886 0
M  V30 8409 H 793.282 4.08173 -0.848552 0
M  V30 8410 H 791.942 3.24694 -0.019387 0
M  V30 8411 H 792.953 3.62688 -3.69699 0
M  V30 8412 H 789.63 4.01474 -1.14564 0
M  V30 8413 H 791.02 4.28117 -5.17847 0
M  V30 8414 N 793.74 1.17359 1.05189 0
M  V30 8415 C 794.968 0.986529 1.81866 0
M  V30 8416 C 795.383 -0.46522 1.82979 0
M  V30 8417 O 794.74 -1.32305 1.25705 0
M  V30 8418 C 794.791 1.52021 3.27982 0
M  V30 8419 O 794.512 2.91511 3.27037 0
M  V30 8420 C 796.013 1.37774 4.21347 0
M  V30 8421 H 793.233 0.349021 0.573084 0
M  V30 8422 H 795.777 1.55648 1.32643 0
M  V30 8423 H 793.932 0.992287 3.74476 0
M  V30 8424 H 794.346 3.16178 4.18488 0
M  V30 8425 H 795.82 1.7993 5.21852 0
M  V30 8426 H 796.297 0.32483 4.37997 0
M  V30 8427 H 796.903 1.89583 3.80708 0
M  V30 8428 N 795.218 -1.23913 0.973828 0
M  V30 8429 C 796.15 -2.24397 0.466763 0
M  V30 8430 C 797.163 -1.57078 -0.427828 0
M  V30 8431 O 798.352 -1.76973 -0.233019 0
M  V30 8432 C 795.452 -3.37141 -0.344798 0
M  V30 8433 C 794.625 -4.34037 0.541349 0
M  V30 8434 C 793.684 -5.2576 -0.215243 0
M  V30 8435 O 792.71 -5.67842 0.39291 0
M  V30 8436 N 793.912 -5.60702 -1.5031 0
M  V30 8437 H 796.677 -2.68536 1.33074 0
M  V30 8438 H 794.238 -1.38017 0.846346 0
M  V30 8439 H 796.23 -3.95476 -0.859133 0
M  V30 8440 H 794.8 -2.92239 -1.10974 0
M  V30 8441 H 794.02 -3.74302 1.23659 0
M  V30 8442 H 795.308 -4.95738 1.1455 0
M  V30 8443 H 794.706 -5.28451 -2.01882 0
M  V30 8444 H 793.263 -6.21538 -1.96301 0
M  V30 8445 N 796.696 -0.74468 -1.38897 0
M  V30 8446 C 797.924 -0.307428 -2.04603 0
M  V30 8447 C 798.339 1.06115 -1.56157 0
M  V30 8448 O 797.696 1.67233 -0.730701 0
M  V30 8449 C 797.747 -0.31101 -3.6016 0
M  V30 8450 O 797.468 -1.62557 -4.06825 0
M  V30 8451 C 798.969 0.141213 -4.43075 0
M  V30 8452 H 796.189 -0.132741 -0.657739 0
M  V30 8453 H 798.733 -1.01104 -1.77759 0
M  V30 8454 H 796.888 0.343792 -3.85872 0
M  V30 8455 H 797.302 -1.54569 -5.01207 0
M  V30 8456 H 798.776 0.0875449 -5.51931 0
M  V30 8457 H 799.253 1.18782 -4.22833 0
M  V30 8458 H 799.859 -0.484383 -4.22533 0
M  V30 8459 N 798.174 1.49689 -0.493057 0
M  V30 8460 C 799.104 2.31826 0.279073 0
M  V30 8461 C 800.085 1.39733 0.969987 0
M  V30 8462 O 801.27 1.68646 0.962925 0
M  V30 8463 C 798.4 3.20046 1.34862 0
M  V30 8464 C 797.354 4.20869 0.77805 0
M  V30 8465 C 796.68 4.97971 1.94753 0
M  V30 8466 C 797.98 5.21813 -0.225543 0
M  V30 8467 H 799.674 2.96627 -0.406512 0
M  V30 8468 H 797.22 1.42647 -0.196943 0
M  V30 8469 H 799.173 3.76315 1.89645 0
M  V30 8470 H 797.897 2.53172 2.06328 0
M  V30 8471 H 796.556 3.65733 0.252036 0
M  V30 8472 H 796.204 4.27552 2.64969 0
M  V30 8473 H 795.904 5.66186 1.57187 0
M  V30 8474 H 797.428 5.57082 2.49984 0
M  V30 8475 H 798.842 5.72823 0.233864 0
M  V30 8476 H 797.239 5.97872 -0.516622 0
M  V30 8477 H 798.309 4.71209 -1.14412 0
M  V30 8478 N 799.652 0.226554 1.55963 0
M  V30 8479 C 801.063 -0.280381 1.84583 0
M  V30 8480 C 801.414 -1.59105 1.14804 0
M  V30 8481 O 800.539 -2.12297 0.419414 0
M  V30 8482 C 801.134 -0.515499 3.34855 0
M  V30 8483 C 799.693 -0.966733 3.63774 0
M  V30 8484 C 798.84 -0.0325753 2.77281 0
M  V30 8485 H 801.791 0.449626 1.52197 0
M  V30 8486 H 801.812 -1.36085 3.55332 0
M  V30 8487 H 801.324 0.438594 3.85614 0
M  V30 8488 H 799.425 -1.93401 3.18476 0
M  V30 8489 H 799.538 -0.837679 4.7172 0
M  V30 8490 H 797.902 -0.540279 2.48904 0
M  V30 8491 H 798.685 0.916524 3.30839 0
M  V30 8492 N 801.13 -1.57531 -0.0467866 0
M  V30 8493 C 802.04 -2.08768 -1.07018 0
M  V30 8494 C 803.056 -1.02245 -1.40791 0
M  V30 8495 O 804.232 -1.33873 -1.50466 0
M  V30 8496 C 801.297 -2.54221 -2.35738 0
M  V30 8497 C 800.358 -3.75152 -2.08709 0
M  V30 8498 C 799.591 -4.18428 -3.31291 0
M  V30 8499 O 799.814 -3.61365 -4.4133 0
M  V30 8500 O 798.748 -5.11018 -3.18032 0
M  V30 8501 H 802.574 -2.96334 -0.664812 0
M  V30 8502 H 800.159 -1.47074 -0.262605 0
M  V30 8503 H 802.041 -2.83866 -3.11445 0
M  V30 8504 H 800.716 -1.69774 -2.75605 0
M  V30 8505 H 799.623 -3.50553 -1.30627 0
M  V30 8506 H 800.956 -4.60528 -1.73708 0
M  V30 8507 N 802.608 0.318715 -1.54344 0
M  V30 8508 C 803.854 1.05765 -1.73037 0
M  V30 8509 C 804.187 1.87514 -0.505181 0
M  V30 8510 O 803.462 1.88021 0.497838 0
M  V30 8511 C 803.745 1.97836 -3.00887 0
M  V30 8512 C 803.598 1.19384 -4.33668 0
M  V30 8513 C 804.917 2.97285 -3.24514 0
M  V30 8514 H 802.036 0.383104 -0.629603 0
M  V30 8515 H 804.678 0.333864 -1.87044 0
M  V30 8516 H 802.828 2.59552 -2.89076 0
M  V30 8517 H 804.5 0.600906 -4.57369 0
M  V30 8518 H 802.743 0.496198 -4.30953 0
M  V30 8519 H 803.414 1.87014 -5.19355 0
M  V30 8520 H 805.89 2.45693 -3.35819 0
M  V30 8521 H 804.766 3.58887 -4.15321 0
M  V30 8522 H 805.027 3.70003 -2.41971 0
M  V30 8523 N 804.086 1.46499 0.581025 0
M  V30 8524 C 805.497 1.4604 1.16315 0
M  V30 8525 C 805.848 0.202154 1.95156 0
M  V30 8526 O 804.973 -0.694638 2.04948 0
M  V30 8527 C 805.568 2.64593 2.11604 0
M  V30 8528 C 804.127 2.6717 2.65136 0
M  V30 8529 C 803.274 2.38753 1.4104 0
M  V30 8530 H 806.225 1.54354 0.368871 0
M  V30 8531 H 806.246 2.40207 2.95095 0
M  V30 8532 H 805.758 3.56154 1.54194 0
M  V30 8533 H 803.859 1.79685 3.26411 0
M  V30 8534 H 803.972 3.67182 3.07757 0
M  V30 8535 H 802.336 1.88845 1.70908 0
M  V30 8536 H 803.119 3.32493 0.854588 0
M  V30 8537 N 805.565 -0.825799 1.34232 0
M  V30 8538 C 806.842 -1.56741 1.17011 0
M  V30 8539 C 807.222 -2.09512 -0.258425 0
M  V30 8540 O 806.57 -1.90664 -1.25935 0
M  V30 8541 C 806.78 -2.69104 2.22225 0
M  V30 8542 C 808.128 -3.37947 2.57055 0
M  V30 8543 O 809.152 -2.79358 2.20992 0
M  V30 8544 O 808.011 -4.43743 3.1899 0
M  V30 8545 H 805.105 -0.69163 0.453405 0
M  V30 8546 H 807.651 -0.867422 1.45856 0
M  V30 8547 H 806.423 -2.27844 3.18124 0
M  V30 8548 H 806.046 -3.46756 1.94541 0
M  V30 8549 N 807.043 -1.17915 -1.04565 0
M  V30 8550 C 807.975 -0.859359 -2.1248 0
M  V30 8551 C 808.988 0.140922 -1.62189 0
M  V30 8552 O 810.177 -0.0862361 -1.78292 0
M  V30 8553 C 807.277 -0.261811 -3.37887 0
M  V30 8554 C 806.45 -1.30651 -4.17431 0
M  V30 8555 C 805.509 -0.725575 -5.21174 0
M  V30 8556 O 804.535 -1.39901 -5.51739 0
M  V30 8557 N 805.737 0.479351 -5.78517 0
M  V30 8558 H 808.502 -1.78818 -2.40508 0
M  V30 8559 H 806.063 -1.07885 -1.20716 0
M  V30 8560 H 808.055 0.14028 -4.04457 0
M  V30 8561 H 806.625 0.570929 -3.07342 0
M  V30 8562 H 805.845 -1.88412 -3.46258 0
M  V30 8563 H 807.133 -2.01099 -4.67372 0
M  V30 8564 H 806.531 1.04431 -5.55977 0
M  V30 8565 H 805.088 0.823427 -6.46578 0
M  V30 8566 N 808.521 1.23394 -0.980386 0
M  V30 8567 C 809.768 1.91809 -0.649261 0
M  V30 8568 C 810.096 1.765 0.817197 0
M  V30 8569 O 809.351 1.11979 1.60497 0
M  V30 8570 C 809.65 3.43542 -0.985588 0
M  V30 8571 C 809.316 3.79031 -2.44225 0
M  V30 8572 C 807.978 3.88429 -2.84035 0
M  V30 8573 C 810.33 3.96145 -3.38702 0
M  V30 8574 C 807.658 4.12368 -4.17336 0
M  V30 8575 C 810.01 4.21583 -4.71646 0
M  V30 8576 C 808.674 4.29203 -5.11215 0
M  V30 8577 H 807.944 0.70188 -0.237581 0
M  V30 8578 H 810.591 1.4642 -1.23424 0
M  V30 8579 H 808.896 3.90503 -0.318521 0
M  V30 8580 H 810.593 3.94708 -0.707596 0
M  V30 8581 H 807.183 3.7229 -2.12362 0
M  V30 8582 H 811.367 3.88274 -3.09123 0
M  V30 8583 H 806.623 4.1649 -4.47601 0
M  V30 8584 H 810.797 4.33769 -5.4481 0
M  V30 8585 H 808.424 4.47505 -6.14527 0
M  V30 8586 N 809.999 0.752036 1.385 0
M  V30 8587 C 811.224 0.316993 2.04963 0
M  V30 8588 C 811.649 -1.04582 1.56346 0
M  V30 8589 O 811.007 -1.66616 0.714755 0
M  V30 8590 C 811.055 0.347235 3.58924 0
M  V30 8591 O 810.159 -0.659296 4.07096 0
M  V30 8592 H 809.5 0.140652 0.648932 0
M  V30 8593 H 812.03 1.02272 1.77205 0
M  V30 8594 H 812.04 0.19757 4.07521 0
M  V30 8595 H 810.715 1.34157 3.93668 0
M  V30 8596 H 809.292 -0.474371 3.6987 0
M  V30 8597 N 811.477 -1.49425 0.500989 0
M  V30 8598 C 812.723 -2.03369 -0.0355945 0
M  V30 8599 C 813.078 -1.37387 -1.34694 0
M  V30 8600 O 812.371 -0.500516 -1.84947 0
M  V30 8601 C 812.565 -3.56562 -0.24463 0
M  V30 8602 C 812.394 -4.37392 1.04491 0
M  V30 8603 C 811.164 -4.7941 1.59669 0
M  V30 8604 C 813.362 -4.75974 1.94817 0
M  V30 8605 N 811.344 -5.44668 2.83214 0
M  V30 8606 C 812.715 -5.4095 3.0294 0
M  V30 8607 C 814.77 -4.57915 1.95495 0
M  V30 8608 C 813.473 -5.89779 4.11768 0
M  V30 8609 C 815.499 -5.07705 3.03298 0
M  V30 8610 C 814.861 -5.72682 4.1014 0
M  V30 8611 H 810.96 -0.781507 0.0277547 0
M  V30 8612 H 813.544 -1.82594 0.675844 0
M  V30 8613 H 811.715 -3.77221 -0.925126 0
M  V30 8614 H 813.447 -3.97147 -0.778219 0
M  V30 8615 H 810.202 -4.59629 1.14185 0
M  V30 8616 H 810.626 -5.81884 3.46035 0
M  V30 8617 H 815.268 -4.07085 1.14199 0
M  V30 8618 H 812.986 -6.3963 4.93862 0
M  V30 8619 H 816.572 -4.95542 3.04843 0
M  V30 8620 H 815.452 -6.10512 4.92184 0
M  V30 8621 N 812.955 -0.234822 -1.55841 0
M  V30 8622 C 813.903 0.686145 -2.22249 0
M  V30 8623 C 814.897 1.18948 -1.20614 0
M  V30 8624 O 816.103 1.14777 -1.38659 0
M  V30 8625 H 812.478 0.239724 -0.712767 0
M  V30 8626 H 814.449 0.102762 -2.98223 0
M  V30 8627 C 813.198 1.8776 -2.92646 0
M  V30 8628 H 812.521 1.49943 -3.70617 0
M  V30 8629 H 813.961 2.4995 -3.42493 0
M  V30 8630 C 812.42 2.74127 -1.95847 0
M  V30 8631 O 812.95 3.7329 -1.48384 0
M  V30 8632 N 811.156 2.4044 -1.63209 0
M  V30 8633 H 810.703 1.59854 -2.02001 0
M  V30 8634 H 810.661 2.98504 -0.987063 0
M  V30 8635 N 814.433 1.57553 0.0384317 0
M  V30 8636 C 815.381 2.07021 1.06043 0
M  V30 8637 C 816.375 0.982078 1.38028 0
M  V30 8638 O 817.581 1.16702 1.37042 0
M  V30 8639 H 813.956 0.660522 0.359464 0
M  V30 8640 H 815.927 2.91944 0.617339 0
M  V30 8641 C 814.676 2.55734 2.35574 0
M  V30 8642 H 813.999 3.39074 2.11822 0
M  V30 8643 H 815.439 2.94066 3.05452 0
M  V30 8644 C 813.898 1.45449 3.03885 0
M  V30 8645 O 814.428 0.815402 3.93337 0
M  V30 8646 N 812.634 1.19134 2.65058 0
M  V30 8647 H 812.181 1.71288 1.92401 0
M  V30 8648 H 812.139 0.455554 3.11082 0
M  V30 8649 N 815.911 -0.310526 1.54511 0
M  V30 8650 C 817.158 -1.04691 1.73338 0
M  V30 8651 C 817.486 -1.87584 0.514038 0
M  V30 8652 O 816.741 -1.89096 -0.504119 0
M  V30 8653 C 817.04 -1.98942 2.96912 0
M  V30 8654 C 816.706 -1.321 4.31115 0
M  V30 8655 C 815.368 -1.13603 4.67598 0
M  V30 8656 C 817.72 -0.842362 5.14348 0
M  V30 8657 C 815.048 -0.459102 5.84901 0
M  V30 8658 C 817.4 -0.179202 6.32346 0
M  V30 8659 C 816.064 0.0178111 6.67498 0
M  V30 8660 H 815.334 -0.38309 0.634289 0
M  V30 8661 H 817.981 -0.322723 1.88761 0
M  V30 8662 H 816.286 -2.77856 2.76231 0
M  V30 8663 H 817.983 -2.55972 3.08674 0
M  V30 8664 H 814.573 -1.47502 4.02419 0
M  V30 8665 H 818.757 -0.973013 4.86668 0
M  V30 8666 H 814.013 -0.295385 6.10686 0
M  V30 8667 H 818.187 0.199619 6.96114 0
M  V30 8668 H 815.814 0.544356 7.58249 0
M  V30 8669 N 817.389 -1.46805 -0.573248 0
M  V30 8670 C 818.319 -1.60951 -1.69165 0
M  V30 8671 C 819.3 -0.45948 -1.63777 0
M  V30 8672 O 820.485 -0.68688 -1.81647 0
M  V30 8673 C 817.615 -1.60844 -3.07809 0
M  V30 8674 C 816.569 -2.74913 -3.28035 0
M  V30 8675 C 815.895 -2.59871 -4.67302 0
M  V30 8676 C 817.195 -4.16654 -3.14955 0
M  V30 8677 H 818.889 -2.54574 -1.57582 0
M  V30 8678 H 816.435 -1.22516 -0.756686 0
M  V30 8679 H 818.388 -1.69334 -3.85881 0
M  V30 8680 H 817.112 -0.637714 -3.20314 0
M  V30 8681 H 815.771 -2.65908 -2.52366 0
M  V30 8682 H 815.419 -1.60861 -4.76585 0
M  V30 8683 H 815.119 -3.36386 -4.81786 0
M  V30 8684 H 816.643 -2.70265 -5.4753 0
M  V30 8685 H 818.057 -4.26721 -3.82861 0
M  V30 8686 H 816.454 -4.93831 -3.40956 0
M  V30 8687 H 817.524 -4.36146 -2.11908 0
M  V30 8688 N 818.867 0.818669 -1.34668 0
M  V30 8689 C 820.113 1.577 -1.28461 0
M  V30 8690 C 820.468 1.91867 0.143057 0
M  V30 8691 O 819.761 1.57545 1.09041 0
M  V30 8692 C 819.955 2.88245 -2.11304 0
M  V30 8693 C 819.784 2.66831 -3.61982 0
M  V30 8694 C 818.554 2.63346 -4.3125 0
M  V30 8695 C 820.752 2.38049 -4.55892 0
M  V30 8696 N 818.734 2.33522 -5.67751 0
M  V30 8697 C 820.105 2.17957 -5.80426 0
M  V30 8698 C 822.16 2.23812 -4.44761 0
M  V30 8699 C 820.863 1.8507 -6.95084 0
M  V30 8700 C 822.889 1.92321 -5.59255 0
M  V30 8701 C 822.251 1.73056 -6.82811 0
M  V30 8702 H 818.35 0.579284 -0.525314 0
M  V30 8703 H 820.934 0.959336 -1.69425 0
M  V30 8704 H 819.105 3.47927 -1.7263 0
M  V30 8705 H 820.837 3.53677 -1.96709 0
M  V30 8706 H 817.592 2.7757 -3.83734 0
M  V30 8707 H 818.016 2.21438 -6.39761 0
M  V30 8708 H 822.658 2.3741 -3.49852 0
M  V30 8709 H 820.376 1.7021 -7.89971 0
M  V30 8710 H 823.962 1.82031 -5.5259 0
M  V30 8711 H 822.842 1.49042 -7.69907 0
M  V30 8712 N 820.346 1.18468 1.03938 0
M  V30 8713 C 821.293 0.912859 2.1198 0
M  V30 8714 C 822.263 -0.14824 1.65437 0
M  V30 8715 O 823.448 -0.008331 1.90798 0
M  V30 8716 C 820.588 0.446114 3.42204 0
M  V30 8717 C 819.701 1.57278 4.02353 0
M  V30 8718 C 818.836 1.05863 5.20544 0
M  V30 8719 C 817.875 2.1599 5.72726 0
M  V30 8720 N 817.012 1.65959 6.82204 0
M  V30 8721 H 821.852 1.83798 2.34569 0
M  V30 8722 H 819.389 0.916504 1.15059 0
M  V30 8723 H 821.347 0.15697 4.16905 0
M  V30 8724 H 819.977 -0.442025 3.19759 0
M  V30 8725 H 819.029 1.97737 3.24968 0
M  V30 8726 H 820.341 2.40289 4.37107 0
M  V30 8727 H 819.495 0.724087 6.02364 0
M  V30 8728 H 818.234 0.198116 4.87297 0
M  V30 8729 H 817.239 2.50287 4.89527 0
M  V30 8730 H 818.464 3.02479 6.08016 0
M  V30 8731 H 816.41 0.82199 6.5083 0
M  V30 8732 H 816.327 2.42567 7.16029 0
M  V30 8733 H 817.595 1.35436 7.67644 0
M  V30 8734 N 821.824 -1.22873 0.986916 0
M  V30 8735 C 823.235 -1.73264 0.695438 0
M  V30 8736 C 823.586 -1.79679 -0.788023 0
M  V30 8737 O 822.711 -1.43905 -1.61618 0
M  V30 8738 C 823.306 -3.14671 1.2557 0
M  V30 8739 C 821.865 -3.62492 1.01373 0
M  V30 8740 C 821.012 -2.40551 1.37951 0
M  V30 8741 H 823.963 -1.08304 1.15999 0
M  V30 8742 H 823.984 -3.75226 0.631322 0
M  V30 8743 H 823.496 -3.0997 2.33539 0
M  V30 8744 H 821.597 -3.72567 -0.0495917 0
M  V30 8745 H 821.71 -4.48944 1.67289 0
M  V30 8746 H 820.074 -2.41875 0.798033 0
M  V30 8747 H 820.857 -2.38516 2.46911 0
M  V30 8748 N 823.302 -0.75937 -1.38099 0
M  V30 8749 C 824.548 -0.327559 -2.00745 0
M  V30 8750 C 824.903 1.08042 -1.592 0
M  V30 8751 O 824.196 1.7306 -0.822236 0
M  V30 8752 C 824.39 -0.394999 -3.55211 0
M  V30 8753 C 824.219 -1.80798 -4.11755 0
M  V30 8754 C 822.989 -2.42585 -4.43262 0
M  V30 8755 C 825.187 -2.76556 -4.33614 0
M  V30 8756 N 823.169 -3.75784 -4.85448 0
M  V30 8757 C 824.54 -3.94532 -4.78273 0
M  V30 8758 C 826.595 -2.74004 -4.15724 0
M  V30 8759 C 825.298 -5.10322 -5.06916 0
M  V30 8760 C 827.324 -3.88957 -4.45496 0
M  V30 8761 C 826.686 -5.05672 -4.90383 0
M  V30 8762 H 822.785 -0.166644 -0.764038 0
M  V30 8763 H 825.369 -0.99056 -1.67619 0
M  V30 8764 H 823.54 0.237761 -3.87672 0
M  V30 8765 H 825.272 0.0576828 -4.04659 0
M  V30 8766 H 822.027 -1.94302 -4.31907 0
M  V30 8767 H 822.451 -4.44234 -5.10867 0
M  V30 8768 H 827.093 -1.84948 -3.80203 0
M  V30 8769 H 824.811 -5.99988 -5.41332 0
M  V30 8770 H 828.397 -3.88308 -4.33253 0
M  V30 8771 H 827.277 -5.93146 -5.1298 0
M  V30 8772 N 824.78 1.49157 -0.508906 0
M  V30 8773 C 825.71 2.32109 0.254469 0
M  V30 8774 C 826.691 1.40754 0.955111 0
M  V30 8775 O 827.876 1.69658 0.944983 0
M  V30 8776 C 825.006 3.21458 1.3146 0
M  V30 8777 C 823.96 4.2167 0.733368 0
M  V30 8778 C 823.286 5.00009 1.8946 0
M  V30 8779 C 824.586 5.21544 -0.280875 0
M  V30 8780 H 826.28 2.9618 -0.43795 0
M  V30 8781 H 823.826 1.4243 -0.212062 0
M  V30 8782 H 825.779 3.78305 1.85643 0
M  V30 8783 H 824.503 2.55346 2.03632 0
M  V30 8784 H 823.162 3.65979 0.213231 0
M  V30 8785 H 822.81 4.30338 2.60419 0
M  V30 8786 H 822.51 5.67821 1.51173 0
M  V30 8787 H 824.034 5.59702 2.44061 0
M  V30 8788 H 825.448 5.73039 0.173095 0
M  V30 8789 H 823.845 5.97291 -0.580006 0
M  V30 8790 H 824.915 4.69969 -1.19404 0
M  V30 8791 N 826.258 0.243083 1.55714 0
M  V30 8792 C 827.19 -0.690766 2.18543 0
M  V30 8793 C 828.203 -1.14163 1.16064 0
M  V30 8794 O 829.392 -1.06906 1.42946 0
M  V30 8795 C 826.492 -1.95016 2.77168 0
M  V30 8796 C 825.665 -1.65137 4.05029 0
M  V30 8797 C 824.724 -2.75998 4.48009 0
M  V30 8798 O 823.75 -2.43547 5.14464 0
M  V30 8799 N 824.952 -4.05414 4.15476 0
M  V30 8800 H 827.717 -0.153203 2.99308 0
M  V30 8801 H 825.278 0.0628968 1.61778 0
M  V30 8802 H 827.27 -2.68414 3.0288 0
M  V30 8803 H 825.84 -2.39762 2.00582 0
M  V30 8804 H 825.06 -0.752768 3.86946 0
M  V30 8805 H 826.348 -1.42633 4.88399 0
M  V30 8806 H 825.746 -4.34613 3.62116 0
M  V30 8807 H 824.303 -4.75288 4.46032 0
M  V30 8808 N 827.736 -1.57571 -0.0300757 0
M  V30 8809 C 828.666 -2.0953 -1.03051 0
M  V30 8810 C 829.647 -0.99761 -1.37774 0
M  V30 8811 O 830.832 -1.27279 -1.46676 0
M  V30 8812 C 827.962 -2.57385 -2.33174 0
M  V30 8813 C 826.916 -3.71409 -2.12696 0
M  V30 8814 C 826.242 -4.05467 -3.4857 0
M  V30 8815 C 827.542 -4.99877 -1.51396 0
M  V30 8816 H 829.236 -2.93367 -0.597999 0
M  V30 8817 H 826.782 -1.41127 -0.286203 0
M  V30 8818 H 828.735 -2.92355 -3.03491 0
M  V30 8819 H 827.459 -1.70629 -2.78484 0
M  V30 8820 H 826.118 -3.36786 -1.44813 0
M  V30 8821 H 825.766 -3.15779 -3.91526 0
M  V30 8822 H 825.466 -4.82269 -3.35694 0
M  V30 8823 H 826.99 -4.4297 -4.2025 0
M  V30 8824 H 828.404 -5.3281 -2.11629 0
M  V30 8825 H 826.801 -5.81283 -1.49098 0
M  V30 8826 H 827.871 -4.82522 -0.479676 0
M  V30 8827 N 829.214 0.302327 -1.54673 0
M  V30 8828 C 830.454 1.04568 -1.75627 0
M  V30 8829 C 830.818 1.84535 -0.530175 0
M  V30 8830 O 832.019 2.61613 -0.61743 0
M  V30 8831 C 830.29 1.92873 -3.0089 0
M  V30 8832 S 831.849 2.73872 -3.4284 0
M  V30 8833 H 828.667 0.352682 -0.617362 0
M  V30 8834 H 831.269 0.319239 -1.92876 0
M  V30 8835 H 829.973 1.32998 -3.88252 0
M  V30 8836 H 829.504 2.69887 -2.86225 0
M  V30 8837 H 831.519 3.95386 -2.99807 0
M  V30 8838 N 830.692 1.47107 0.565454 0
M  V30 8839 C 831.932 1.5488 1.33385 0
M  V30 8840 C 832.296 0.202804 1.90926 0
M  V30 8841 O 833.497 0.155345 2.68351 0
M  V30 8842 C 831.768 2.62969 2.42037 0
M  V30 8843 S 833.327 2.90269 3.29074 0
M  V30 8844 H 830.145 0.547008 0.454206 0
M  V30 8845 H 832.747 1.8444 0.648228 0
M  V30 8846 H 831.451 3.59376 1.98185 0
M  V30 8847 H 830.982 2.35197 3.15351 0
M  V30 8848 H 832.997 2.26854 4.41307 0
M  V30 8849 N 832.17 -0.811516 1.35101 0
M  V30 8850 C 833.581 -1.38515 1.25182 0
M  V30 8851 C 833.932 -1.95846 -0.117883 0
M  V30 8852 O 833.057 -1.90925 -1.01866 0
M  V30 8853 C 833.652 -2.51813 2.26662 0
M  V30 8854 C 832.211 -3.05052 2.20499 0
M  V30 8855 C 831.358 -1.77987 2.12641 0
M  V30 8856 H 834.309 -0.614959 1.46301 0
M  V30 8857 H 834.33 -3.30228 1.89023 0
M  V30 8858 H 833.842 -2.10057 3.2634 0
M  V30 8859 H 831.943 -3.51285 1.24215 0
M  V30 8860 H 832.056 -3.63368 3.1225 0
M  V30 8861 H 830.42 -1.99342 1.5854 0
M  V30 8862 H 831.203 -1.38389 3.14171 0
M  V30 8863 N 833.648 -1.19017 -1.03309 0
M  V30 8864 C 834.873 -1.01598 -1.80811 0
M  V30 8865 C 835.298 0.430773 -1.83101 0
M  V30 8866 O 834.656 1.30946 -1.25391 0
M  V30 8867 C 834.704 -1.5845 -3.23923 0
M  V30 8868 O 833.808 -0.810972 -4.04348 0
M  V30 8869 H 833.149 -0.359398 -0.558327 0
M  V30 8870 H 835.679 -1.57945 -1.30055 0
M  V30 8871 H 835.689 -1.61486 -3.74682 0
M  V30 8872 H 834.364 -2.63752 -3.21571 0
M  V30 8873 H 832.941 -0.85353 -3.63 0
M  V30 8874 N 835.127 1.22348 -0.993418 0
M  V30 8875 C 836.355 1.95125 -0.688021 0
M  V30 8876 C 836.77 1.73377 0.747388 0
M  V30 8877 O 836.127 1.03317 1.50439 0
M  V30 8878 C 836.178 3.47819 -0.985097 0
M  V30 8879 O 835.899 3.68838 -2.3641 0
M  V30 8880 C 837.4 4.37779 -0.697474 0
M  V30 8881 H 834.62 0.62087 -0.254481 0
M  V30 8882 H 837.164 1.55485 -1.32833 0
M  V30 8883 H 835.319 3.85426 -0.390583 0
M  V30 8884 H 835.733 4.63032 -2.46377 0
M  V30 8885 H 837.207 5.43666 -0.955604 0
M  V30 8886 H 837.684 4.37651 0.368524 0
M  V30 8887 H 838.29 4.05799 -1.27306 0
M  V30 8888 N 836.605 0.766683 1.37694 0
M  V30 8889 C 837.853 0.328065 1.9942 0
M  V30 8890 C 838.174 -1.09775 1.61166 0
M  V30 8891 O 837.444 -1.75288 0.874686 0
M  V30 8892 H 836.024 0.11831 0.737572 0
M  V30 8893 H 838.686 0.983686 1.68255 0
M  V30 8894 H 837.782 0.401647 3.09505 0
M  V30 8895 N 838.083 -1.48885 0.516809 0
M  V30 8896 C 839.013 -2.32241 -0.242157 0
M  V30 8897 C 839.994 -1.41258 -0.947633 0
M  V30 8898 O 841.179 -1.70156 -0.935973 0
M  V30 8899 C 838.309 -3.22151 -1.29754 0
M  V30 8900 C 837.263 -4.22053 -0.710995 0
M  V30 8901 C 836.589 -5.01007 -1.86806 0
M  V30 8902 C 837.889 -5.21388 0.30853 0
M  V30 8903 H 839.583 -2.95943 0.453651 0
M  V30 8904 H 837.129 -1.42316 0.219612 0
M  V30 8905 H 839.082 -3.79284 -1.83634 0
M  V30 8906 H 837.806 -2.56423 -2.02274 0
M  V30 8907 H 836.465 -3.66087 -0.193819 0
M  V30 8908 H 836.113 -4.31713 -2.58133 0
M  V30 8909 H 835.813 -5.68615 -1.48159 0
M  V30 8910 H 837.337 -5.60989 -2.4109 0
M  V30 8911 H 838.751 -5.73122 -0.142703 0
M  V30 8912 H 837.148 -5.96975 0.611673 0
M  V30 8913 H 838.218 -4.69329 1.21894 0
M  V30 8914 N 839.561 -0.251338 -1.55583 0
M  V30 8915 C 840.786 0.379136 -2.03905 0
M  V30 8916 C 841.211 1.50428 -1.12929 0
M  V30 8917 O 840.569 1.80882 -0.123114 0
M  V30 8918 C 840.617 0.86009 -3.50193 0
M  V30 8919 O 839.721 1.96932 -3.62342 0
M  V30 8920 H 839.062 0.0820183 -0.658915 0
M  V30 8921 H 841.592 -0.378692 -2.01065 0
M  V30 8922 H 841.602 1.16214 -3.91099 0
M  V30 8923 H 840.277 0.0367559 -4.15884 0
M  V30 8924 H 838.854 1.67163 -3.33333 0
M  V30 8925 N 841.039 1.57585 0.0217189 0
M  V30 8926 C 842.279 1.91457 0.715803 0
M  V30 8927 C 842.643 0.850685 1.72126 0
M  V30 8928 O 843.844 1.07396 2.46413 0
M  V30 8929 C 842.115 3.30456 1.36138 0
M  V30 8930 S 843.674 3.86176 2.0836 0
M  V30 8931 H 840.492 0.67035 0.236963 0
M  V30 8932 H 843.094 1.95477 -0.0297511 0
M  V30 8933 H 841.798 4.05744 0.616465 0
M  V30 8934 H 841.329 3.29757 2.14532 0
M  V30 8935 H 843.344 3.65496 3.356 0
M  V30 8936 N 842.517 -0.29412 1.54831 0
M  V30 8937 C 843.449 -1.38476 1.82639 0
M  V30 8938 C 844.462 -1.46517 0.709694 0
M  V30 8939 O 845.651 -1.48712 0.987269 0
M  V30 8940 C 842.751 -2.76791 1.95551 0
M  V30 8941 C 841.924 -2.91599 3.26019 0
M  V30 8942 C 840.983 -4.10456 3.29261 0
M  V30 8943 O 840.009 -4.02214 4.02756 0
M  V30 8944 N 841.211 -5.21422 2.55145 0
M  V30 8945 H 843.976 -1.14974 2.76769 0
M  V30 8946 H 841.537 -0.484206 1.5449 0
M  V30 8947 H 843.529 -3.5456 1.95113 0
M  V30 8948 H 842.099 -2.93209 1.08384 0
M  V30 8949 H 841.319 -2.00886 3.39173 0
M  V30 8950 H 842.607 -2.98409 4.12104 0
M  V30 8951 H 842.005 -5.31 1.95078 0
M  V30 8952 H 840.562 -5.97501 2.60454 0
M  V30 8953 N 843.995 -1.47404 -0.557645 0
M  V30 8954 C 845.235 -1.55585 -1.32562 0
M  V30 8955 C 845.599 -0.212926 -1.90816 0
M  V30 8956 O 846.8 -0.169574 -2.68265 0
M  V30 8957 C 845.071 -2.64249 -2.40639 0
M  V30 8958 S 846.63 -2.9201 -3.2753 0
M  V30 8959 H 843.448 -0.549409 -0.451298 0
M  V30 8960 H 846.05 -1.84782 -0.638438 0
M  V30 8961 H 844.754 -3.60421 -1.96277 0
M  V30 8962 H 844.285 -2.36866 -3.14099 0
M  V30 8963 H 846.3 -2.29191 -4.40098 0
M  V30 8964 N 845.473 0.80434 -1.35529 0
M  V30 8965 C 846.75 1.5486 -1.1949 0
M  V30 8966 C 847.13 2.09897 0.22506 0
M  V30 8967 O 846.478 1.92643 1.22886 0
M  V30 8968 C 846.688 2.65535 -2.26478 0
M  V30 8969 C 848.036 3.33814 -2.62399 0
M  V30 8970 O 849.06 2.75807 -2.25409 0
M  V30 8971 O 847.919 4.38612 -3.26009 0
M  V30 8972 H 845.013 0.68433 -0.464351 0
M  V30 8973 H 847.559 0.844107 -1.47217 0
M  V30 8974 H 846.331 2.22754 -3.21709 0
M  V30 8975 H 845.954 3.43617 -2.00033 0
M  V30 8976 N 846.951 1.19563 1.02676 0
M  V30 8977 C 848.367 0.948304 1.28372 0
M  V30 8978 C 848.567 -0.378096 1.97921 0
M  V30 8979 O 847.623 -1.1091 2.26838 0
M  V30 8980 C 848.936 2.12381 2.12873 0
M  V30 8981 C 850.484 2.16366 2.26174 0
M  V30 8982 C 850.959 3.33374 3.14048 0
M  V30 8983 N 852.45 3.33323 3.21636 0
M  V30 8984 C 853.185 4.20504 3.89825 0
M  V30 8985 N 852.681 5.17845 4.60227 0
M  V30 8986 N 854.474 4.08375 3.86246 0
M  V30 8987 H 846.625 2.04899 0.559485 0
M  V30 8988 H 848.888 0.89606 0.309484 0
M  V30 8989 H 848.594 3.08383 1.69094 0
M  V30 8990 H 848.468 2.09621 3.1359 0
M  V30 8991 H 850.855 1.20933 2.69182 0
M  V30 8992 H 850.936 2.23179 1.25 0
M  V30 8993 H 850.58 4.29087 2.71747 0
M  V30 8994 H 850.51 3.23798 4.15286 0
M  V30 8995 H 853.001 2.62863 2.71498 0
M  V30 8996 H 853.314 5.80712 5.09896 0
M  V30 8997 H 851.659 5.21791 4.59085 0
M  V30 8998 H 854.85 3.31606 3.30386 0
M  V30 8999 H 855.023 4.76532 4.39114 0
M  V30 9000 N 848.429 -1.21819 0.999893 0
M  V30 9001 C 849.339 -2.27691 0.565159 0
M  V30 9002 C 850.355 -1.69587 -0.389398 0
M  V30 9003 O 851.531 -1.99786 -0.254499 0
M  V30 9004 C 848.596 -3.46537 -0.106432 0
M  V30 9005 C 847.657 -4.19932 0.891964 0
M  V30 9006 C 846.89 -5.33103 0.252327 0
M  V30 9007 O 847.113 -5.62398 -0.952103 0
M  V30 9008 O 846.047 -5.94184 0.960698 0
M  V30 9009 H 849.873 -2.67059 1.44613 0
M  V30 9010 H 847.458 -1.28119 0.768499 0
M  V30 9011 H 849.34 -4.18631 -0.482301 0
M  V30 9012 H 848.015 -3.09079 -0.961865 0
M  V30 9013 H 846.922 -3.5008 1.3189 0
M  V30 9014 H 848.255 -4.61287 1.71682 0
M  V30 9015 N 849.908 -0.773975 -1.37286 0
M  V30 9016 C 850.855 -0.159938 -2.30245 0
M  V30 9017 C 851.825 0.687356 -1.51211 0
M  V30 9018 O 853.01 0.639255 -1.79773 0
M  V30 9019 C 850.15 0.711452 -3.37687 0
M  V30 9020 C 849.263 -0.152692 -4.3173 0
M  V30 9021 C 848.398 0.723613 -5.26248 0
M  V30 9022 C 847.437 -0.14293 -6.11933 0
M  V30 9023 N 846.574 0.691479 -6.98687 0
M  V30 9024 H 851.414 -0.958182 -2.82175 0
M  V30 9025 H 848.951 -0.48411 -1.38906 0
M  V30 9026 H 850.909 1.2315 -3.9861 0
M  V30 9027 H 849.539 1.47528 -2.87116 0
M  V30 9028 H 848.591 -0.790574 -3.72094 0
M  V30 9029 H 849.903 -0.821027 -4.91997 0
M  V30 9030 H 849.057 1.31006 -5.92387 0
M  V30 9031 H 847.796 1.42562 -4.66398 0
M  V30 9032 H 846.801 -0.7419 -5.44771 0
M  V30 9033 H 848.026 -0.842305 -6.73856 0
M  V30 9034 H 845.972 1.37806 -6.41362 0
M  V30 9035 H 845.889 0.0804911 -7.55957 0
M  V30 9036 H 847.157 1.26225 -7.69212 0
M  V30 9037 N 851.386 1.48609 -0.524698 0
M  V30 9038 C 852.318 2.27508 0.278 0
M  V30 9039 C 853.331 1.35042 0.909258 0
M  V30 9040 O 854.52 1.60136 0.788592 0
M  V30 9041 C 851.62 3.08247 1.40843 0
M  V30 9042 C 850.793 4.28455 0.880083 0
M  V30 9043 C 849.852 4.91048 1.891 0
M  V30 9044 O 848.878 5.5042 1.45005 0
M  V30 9045 N 850.08 4.82816 3.22288 0
M  V30 9046 H 852.845 2.97037 -0.398642 0
M  V30 9047 H 850.406 1.57876 -0.358698 0
M  V30 9048 H 852.398 3.46992 2.08276 0
M  V30 9049 H 850.968 2.41173 1.98883 0
M  V30 9050 H 850.188 3.94189 0.0299228 0
M  V30 9051 H 851.476 5.06279 0.505881 0
M  V30 9052 H 850.874 4.3572 3.60783 0
M  V30 9053 H 849.431 5.25676 3.85368 0
M  V30 9054 N 852.864 0.259585 1.55447 0
M  V30 9055 C 854.141 -0.412595 1.91199 0
M  V30 9056 C 854.521 -1.74909 1.18194 0
M  V30 9057 O 853.869 -2.26474 0.303603 0
M  V30 9058 C 854.079 -0.568195 3.44344 0
M  V30 9059 C 855.427 -0.858253 4.15836 0
M  V30 9060 O 856.451 -0.653588 3.50152 0
M  V30 9061 O 855.31 -1.24874 5.32042 0
M  V30 9062 H 852.404 -0.223403 0.796254 0
M  V30 9063 H 854.95 0.30459 1.66944 0
M  V30 9064 H 853.722 0.372989 3.89518 0
M  V30 9065 H 853.345 -1.33544 3.74502 0
M  V30 9066 N 854.342 -1.57594 -0.0133615 0
M  V30 9067 C 855.289 -2.07574 -1.00905 0
M  V30 9068 C 856.259 -0.968231 -1.34961 0
M  V30 9069 O 857.444 -1.23981 -1.45028 0
M  V30 9070 C 854.584 -2.5728 -2.30002 0
M  V30 9071 C 853.697 -3.81881 -2.01967 0
M  V30 9072 C 852.832 -4.20139 -3.25049 0
M  V30 9073 C 851.871 -5.37614 -2.92639 0
M  V30 9074 N 851.008 -5.71229 -4.08218 0
M  V30 9075 H 855.848 -2.92382 -0.575899 0
M  V30 9076 H 853.385 -1.4455 -0.272722 0
M  V30 9077 H 855.343 -2.84171 -3.05454 0
M  V30 9078 H 853.973 -1.75365 -2.71011 0
M  V30 9079 H 853.025 -3.61979 -1.16942 0
M  V30 9080 H 854.337 -4.67441 -1.74069 0
M  V30 9081 H 853.491 -4.48242 -4.08857 0
M  V30 9082 H 852.23 -3.33262 -3.56073 0
M  V30 9083 H 851.235 -5.09248 -2.07235 0
M  V30 9084 H 852.46 -6.26157 -2.62876 0
M  V30 9085 H 850.406 -4.8731 -4.39164 0
M  V30 9086 H 850.323 -6.51333 -3.83799 0
M  V30 9087 H 851.591 -6.03917 -4.92854 0
M  V30 9088 N 855.82 0.285905 -1.54985 0
M  V30 9089 C 857.236 0.632405 -1.46536 0
M  V30 9090 C 857.436 1.90074 -0.668888 0
M  V30 9091 O 856.492 2.51839 -0.182586 0
M  V30 9092 C 857.805 0.771361 -2.90638 0
M  V30 9093 C 859.353 0.866262 -3.00774 0
M  V30 9094 C 859.828 1.0371 -4.46103 0
M  V30 9095 N 861.319 1.10294 -4.49877 0
M  V30 9096 C 862.054 1.25369 -5.59527 0
M  V30 9097 N 861.55 1.37246 -6.7907 0
M  V30 9098 N 863.343 1.28377 -5.47244 0
M  V30 9099 H 855.494 -0.547226 -2.0523 0
M  V30 9100 H 857.757 -0.183298 -0.930111 0
M  V30 9101 H 857.463 -0.0899485 -3.51585 0
M  V30 9102 H 857.337 1.65569 -3.3892 0
M  V30 9103 H 859.724 1.71805 -2.39931 0
M  V30 9104 H 859.805 -0.0424049 -2.55765 0
M  V30 9105 H 859.449 0.190021 -5.07544 0
M  V30 9106 H 859.379 1.96022 -4.88757 0
M  V30 9107 H 861.87 1.02407 -3.6376 0
M  V30 9108 H 862.183 1.48546 -7.58389 0
M  V30 9109 H 860.528 1.34274 -6.81906 0
M  V30 9110 H 863.719 1.1872 -4.52795 0
M  V30 9111 H 863.892 1.39782 -6.32744 0
M  V30 9112 N 857.298 1.47698 0.54982 0
M  V30 9113 C 858.228 1.63622 1.66583 0
M  V30 9114 C 859.209 0.485477 1.63025 0
M  V30 9115 O 860.394 0.715692 1.80531 0
M  V30 9116 C 857.524 1.65721 3.05211 0
M  V30 9117 C 856.478 2.80097 3.2362 0
M  V30 9118 C 855.804 2.67272 4.63109 0
M  V30 9119 C 857.104 4.21612 3.08286 0
M  V30 9120 H 858.798 2.57049 1.53512 0
M  V30 9121 H 856.344 1.23705 0.737099 0
M  V30 9122 H 858.297 1.75451 3.83138 0
M  V30 9123 H 857.021 0.688593 3.19258 0
M  V30 9124 H 855.68 2.69889 2.48104 0
M  V30 9125 H 855.328 1.68422 4.73965 0
M  V30 9126 H 855.028 3.44008 4.76374 0
M  V30 9127 H 856.552 2.78942 5.43161 0
M  V30 9128 H 857.966 4.32758 3.76024 0
M  V30 9129 H 856.363 4.99193 3.33057 0
M  V30 9130 H 857.433 4.39462 2.04942 0
M  V30 9131 N 858.776 -0.797141 1.35954 0
M  V30 9132 C 860.001 -1.59097 1.33053 0
M  V30 9133 C 860.426 -1.87897 -0.0874592 0
M  V30 9134 O 859.784 -1.47291 -1.05712 0
M  V30 9135 C 859.832 -2.89346 2.152 0
M  V30 9136 O 858.936 -3.826 1.5392 0
M  V30 9137 H 858.277 -0.482895 0.45575 0
M  V30 9138 H 860.807 -0.988633 1.79129 0
M  V30 9139 H 860.817 -3.38686 2.27499 0
M  V30 9140 H 859.492 -2.6771 3.18283 0
M  V30 9141 H 858.069 -3.41174 1.50516 0
M  V30 9142 N 860.254 -1.20106 -1.0204 0
M  V30 9143 C 861.67 -0.955099 -1.27867 0
M  V30 9144 C 861.87 0.367595 -1.98119 0
M  V30 9145 O 860.926 1.09705 -2.27423 0
M  V30 9146 C 862.239 -2.13507 -2.11744 0
M  V30 9147 C 863.787 -2.17563 -2.25023 0
M  V30 9148 C 864.262 -3.35035 -3.12275 0
M  V30 9149 N 865.753 -3.35024 -3.19864 0
M  V30 9150 C 866.488 -4.22566 -3.8759 0
M  V30 9151 N 865.984 -5.20278 -4.57474 0
M  V30 9152 N 867.777 -4.10418 -3.84075 0
M  V30 9153 H 859.928 -2.05193 -0.54861 0
M  V30 9154 H 862.191 -0.897689 -0.304728 0
M  V30 9155 H 861.897 -3.09275 -1.67456 0
M  V30 9156 H 861.771 -2.11281 -3.12474 0
M  V30 9157 H 864.158 -1.22359 -2.68537 0
M  V30 9158 H 864.239 -2.23838 -1.23815 0
M  V30 9159 H 863.883 -4.30522 -2.69468 0
M  V30 9160 H 863.813 -3.25996 -4.13563 0
M  V30 9161 H 866.304 -2.64299 -2.701 0
M  V30 9162 H 866.617 -5.83408 -5.06809 0
M  V30 9163 H 864.962 -5.24219 -4.56311 0
M  V30 9164 H 868.153 -3.33353 -3.28623 0
M  V30 9165 H 868.326 -4.78854 -4.36581 0
M  V30 9166 O 861.771 1.15001 -1.13389 0
M  V30 9167 H 862.462 1.74049 -0.85009 0
M  V30 END ATOM
M  V30 BEGIN BOND
M  V30 END BOND
M  V30 END CTAB
M  END
$$$$
