drugbank_target|P62593 Beta-lactamase TEM (DB02614; DB02642; DB02841; DB04035; DB04037; DB04430; DB07464; DB07466; DB07599; DB08551; DB09060; DB12107; DB12377)
 OpenBabel12092120433D

  0  0  0     0  0            999 V3000
M  V30 BEGIN CTAB
M  V30 COUNTS 4439 4481 0 0 0
M  V30 BEGIN ATOM
M  V30 1 H -0.908 1.98254 -0.117106 0
M  V30 2 N 0 1.576 0 0
M  V30 3 C 0.933 2.03868 1.02534 0
M  V30 4 C 1.911 0.928543 1.3348 0
M  V30 5 O 3.095 1.19667 1.45644 0
M  V30 6 C 0.222 2.43627 2.35294 0
M  V30 7 C -0.732 3.65373 2.2001 0
M  V30 8 S 0.101 5.13292 1.52614 0
M  V30 9 C 1.257 5.56322 2.86805 0
M  V30 10 H 1.49 2.90518 0.631377 0
M  V30 11 H -0.977 1.52953 0.210867 0
M  V30 12 H 0.981 2.67203 3.11629 0
M  V30 13 H -0.358 1.57376 2.7183 0
M  V30 14 H -1.165 3.90944 3.18086 0
M  V30 15 H -1.563 3.418 1.51819 0
M  V30 16 H 0.729 5.58782 3.83104 0
M  V30 17 H 1.672 6.56266 2.65933 0
M  V30 18 H 2.08 4.83886 2.90714 0
M  V30 19 N 1.4781 -0.272755 1.55222 0
M  V30 20 C 2.7031 -1.02683 1.80197 0
M  V30 21 C 3.1281 -1.79142 0.573551 0
M  V30 22 O 2.4861 -1.74917 -0.476849 0
M  V30 23 C 2.5341 -1.9609 3.02624 0
M  V30 24 O 1.6381 -3.04863 2.77727 0
M  V30 25 H 0.9791 -0.293557 0.595584 0
M  V30 26 H 3.5091 -0.30159 2.02365 0
M  V30 27 H 3.5191 -2.38039 3.31363 0
M  V30 28 H 2.1941 -1.39851 3.91682 0
M  V30 29 H 0.7711 -2.67228 2.60084 0
M  V30 30 N 2.9562 -1.48159 -0.537278 0
M  V30 31 C 4.2052 -1.5506 -1.28993 0
M  V30 32 C 4.5182 -0.226211 -1.94288 0
M  V30 33 O 5.7242 -0.173395 -2.70946 0
M  V30 34 C 4.1802 -2.73429 -2.34018 0
M  V30 35 C 3.7882 -4.1248 -1.74825 0
M  V30 36 C 5.5322 -2.89638 -3.10339 0
M  V30 37 C 3.4392 -5.22121 -2.77747 0
M  V30 38 H 2.3692 -0.577231 -0.485098 0
M  V30 39 H 5.0202 -1.74478 -0.568317 0
M  V30 40 H 3.4022 -2.47431 -3.09182 0
M  V30 41 H 4.5762 -4.48466 -1.05899 0
M  V30 42 H 2.8912 -4.01327 -1.11022 0
M  V30 43 H 5.4882 -3.68718 -3.87235 0
M  V30 44 H 5.8312 -1.9882 -3.65754 0
M  V30 45 H 6.3642 -3.15502 -2.42288 0
M  V30 46 H 3.1032 -6.1488 -2.27161 0
M  V30 47 H 2.6232 -4.90631 -3.45024 0
M  V30 48 H 4.3022 -5.49924 -3.4087 0
M  V30 49 N 4.4343 0.785586 -1.36625 0
M  V30 50 C 5.3663 1.90711 -1.2713 0
M  V30 51 C 6.3793 1.61688 -0.189986 0
M  V30 52 O 7.5683 1.72864 -0.445014 0
M  V30 53 C 4.6683 3.25611 -0.939713 0
M  V30 54 C 3.8413 3.82385 -2.12369 0
M  V30 55 C 2.9003 4.95732 -1.76456 0
M  V30 56 O 1.9263 5.12047 -2.48589 0
M  V30 57 N 3.1283 5.76258 -0.700492 0
M  V30 58 H 5.8933 1.99376 -2.23762 0
M  V30 59 H 3.4543 0.964041 -1.30069 0
M  V30 60 H 5.4463 3.98937 -0.680554 0
M  V30 61 H 4.0163 3.12538 -0.0624074 0
M  V30 62 H 3.2363 3.01001 -2.54543 0
M  V30 63 H 4.5243 4.17047 -2.9146 0
M  V30 64 H 3.9223 5.65609 -0.101624 0
M  V30 65 H 2.4793 6.4987 -0.501165 0
M  V30 66 N 5.9124 1.20967 1.01018 0
M  V30 67 C 6.8624 0.93182 2.08089 0
M  V30 68 C 7.8464 -0.110898 1.60517 0
M  V30 69 O 9.0384 0.0973392 1.76732 0
M  V30 70 C 6.1674 0.492719 3.39746 0
M  V30 71 C 5.2534 1.56922 3.94 0
M  V30 72 N 5.6444 2.79312 4.21686 0
M  V30 73 C 3.9424 1.43688 4.2222 0
M  V30 74 C 4.6434 3.48797 4.65527 0
M  V30 75 N 3.6194 2.76224 4.68189 0
M  V30 76 H 7.4214 1.86175 2.27412 0
M  V30 77 H 4.9354 1.10463 1.19045 0
M  V30 78 H 6.9324 0.275044 4.15992 0
M  V30 79 H 5.5924 -0.430509 3.21833 0
M  V30 80 H 6.6034 3.15903 4.10397 0
M  V30 81 H 3.2804 0.578548 4.13472 0
M  V30 82 H 4.6704 4.53561 4.95714 0
M  V30 83 N 7.3905 -1.2043 1.01659 0
M  V30 84 C 8.6375 -1.89797 0.705917 0
M  V30 85 C 8.9655 -1.78848 -0.764439 0
M  V30 86 O 8.2205 -1.16694 -1.57102 0
M  V30 87 C 8.5195 -3.40464 1.08714 0
M  V30 88 C 8.1855 -3.71614 2.5537 0
M  V30 89 C 6.8475 -3.79826 2.95441 0
M  V30 90 C 9.1995 -3.85915 3.50313 0
M  V30 91 C 6.5275 -3.99797 4.29394 0
M  V30 92 C 8.8795 -4.07396 4.83954 0
M  V30 93 C 7.5435 -4.13837 5.23732 0
M  V30 94 H 6.8135 -0.694518 0.258313 0
M  V30 95 H 9.4605 -1.42691 1.27717 0
M  V30 96 H 7.7655 -3.89385 0.434309 0
M  V30 97 H 9.4625 -3.92433 0.824461 0
M  V30 98 H 6.0525 -3.65822 2.23321 0
M  V30 99 H 10.2365 -3.78926 3.20513 0
M  V30 100 H 5.4925 -4.03018 4.59768 0
M  V30 101 H 9.6665 -4.17404 5.57447 0
M  V30 102 H 7.2935 -4.29064 6.27541 0
M  V30 103 N 8.8686 -0.792821 -1.36206 0
M  V30 104 C 10.2846 -0.474903 -1.52371 0
M  V30 105 C 10.4846 1.00622 -1.74578 0
M  V30 106 O 9.5406 1.79162 -1.77924 0
M  V30 107 C 10.8536 -1.3083 -2.70747 0
M  V30 108 C 12.4016 -1.30234 -2.84619 0
M  V30 109 C 12.8766 -2.11956 -4.06004 0
M  V30 110 N 14.3676 -2.09419 -4.13156 0
M  V30 111 C 15.1026 -2.69419 -5.06163 0
M  V30 112 N 14.5986 -3.3829 -6.04592 0
M  V30 113 N 16.3916 -2.59134 -4.98804 0
M  V30 114 H 8.5426 -1.75222 -1.20046 0
M  V30 115 H 10.8056 -0.745024 -0.586211 0
M  V30 116 H 10.5116 -2.35881 -2.6087 0
M  V30 117 H 10.3856 -0.95196 -3.6499 0
M  V30 118 H 12.7726 -0.259748 -2.93955 0
M  V30 119 H 12.8536 -1.69847 -1.91274 0
M  V30 120 H 12.4976 -3.16248 -3.97429 0
M  V30 121 H 12.4276 -1.69711 -4.98503 0
M  V30 122 H 14.9186 -1.59297 -3.42685 0
M  V30 123 H 15.2316 -3.81394 -6.7213 0
M  V30 124 H 13.5766 -3.42393 -6.04807 0
M  V30 125 H 16.7676 -2.04927 -4.20859 0
M  V30 126 H 16.9406 -3.06185 -5.711 0
M  V30 127 N 10.3467 1.47872 -0.545128 0
M  V30 128 C 11.5927 2.02793 -0.0166104 0
M  V30 129 C 11.9257 1.41987 1.32489 0
M  V30 130 O 11.2007 0.571045 1.85928 0
M  V30 131 C 11.4837 3.59989 0.0893294 0
M  V30 132 C 11.3367 4.3125 -1.27841 0
M  V30 133 C 12.6557 4.32606 0.808724 0
M  V30 134 H 9.7747 0.736962 -0.00751035 0
M  V30 135 H 12.4167 1.76433 -0.705085 0
M  V30 136 H 10.5667 3.82579 0.675681 0
M  V30 137 H 12.2387 4.20035 -1.90704 0
M  V30 138 H 10.4817 3.92076 -1.85632 0
M  V30 139 H 11.1527 5.39736 -1.15713 0
M  V30 140 H 13.6287 4.14936 0.310992 0
M  V30 141 H 12.5047 5.42251 0.851782 0
M  V30 142 H 12.7657 4.00963 1.86229 0
M  V30 143 N 11.8248 0.280983 1.55075 0
M  V30 144 C 12.7878 -0.590896 2.21452 0
M  V30 145 C 13.7878 -1.07682 1.19421 0
M  V30 146 O 14.9778 -0.97605 1.44288 0
M  V30 147 C 12.1098 -1.81587 2.88511 0
M  V30 148 H 13.3028 -0.0112554 2.99898 0
M  V30 149 H 10.8558 0.0316438 1.56268 0
M  V30 150 H 11.5908 -2.43587 2.14093 0
M  V30 151 H 11.3758 -1.4753 3.63287 0
M  V30 152 H 12.8658 -2.43575 3.39206 0
M  V30 153 N 13.3029 -1.57598 0.00835791 0
M  V30 154 C 14.2329 -2.1198 -0.979113 0
M  V30 155 C 15.2139 -1.03091 -1.35301 0
M  V30 156 O 16.3989 -1.30818 -1.43528 0
M  V30 157 C 13.5289 -2.62995 -2.26828 0
M  V30 158 C 12.4829 -3.76485 -2.03576 0
M  V30 159 C 11.8089 -4.13846 -3.38579 0
M  V30 160 C 13.1089 -5.0342 -1.39161 0
M  V30 161 H 14.8029 -2.94738 -0.526281 0
M  V30 162 H 12.3489 -1.41783 -0.251704 0
M  V30 163 H 14.3019 -2.99669 -2.96271 0
M  V30 164 H 13.0259 -1.7737 -2.7424 0
M  V30 165 H 11.6849 -3.40217 -1.36557 0
M  V30 166 H 11.3329 -3.25232 -3.83709 0
M  V30 167 H 11.0329 -4.90312 -3.23834 0
M  V30 168 H 12.5569 -4.53086 -4.09323 0
M  V30 169 H 13.9709 -5.37812 -1.98573 0
M  V30 170 H 12.3679 -5.84746 -1.34878 0
M  V30 171 H 13.4379 -4.83548 -0.361868 0
M  V30 172 N 14.781 0.264519 -1.55364 0
M  V30 173 C 16.03 0.992812 -1.75574 0
M  V30 174 C 16.343 1.87142 -0.568979 0
M  V30 175 O 17.549 2.63513 -0.653682 0
M  V30 176 C 16.005 1.81519 -3.10771 0
M  V30 177 C 15.613 0.984839 -4.37041 0
M  V30 178 C 17.357 2.53727 -3.40327 0
M  V30 179 C 15.264 1.80209 -5.63275 0
M  V30 180 H 14.194 0.374412 -0.65447 0
M  V30 181 H 16.845 0.248138 -1.81815 0
M  V30 182 H 15.227 2.60115 -2.98591 0
M  V30 183 H 16.401 0.242455 -4.60162 0
M  V30 184 H 14.716 0.37691 -4.14691 0
M  V30 185 H 17.313 3.15292 -4.3185 0
M  V30 186 H 17.656 3.24447 -2.60845 0
M  V30 187 H 18.189 1.82156 -3.53644 0
M  V30 188 H 14.928 1.13896 -6.45529 0
M  V30 189 H 14.448 2.52022 -5.44284 0
M  V30 190 H 16.127 2.37364 -6.01887 0
M  V30 191 N 16.2591 1.48442 0.529413 0
M  V30 192 C 17.6701 1.5002 1.11134 0
M  V30 193 C 18.0211 0.27031 1.94329 0
M  V30 194 O 17.1461 -0.622507 2.07253 0
M  V30 195 C 17.7411 2.71834 2.02217 0
M  V30 196 C 16.3001 2.76283 2.55627 0
M  V30 197 C 15.4471 2.43542 1.326 0
M  V30 198 H 18.3981 1.5555 0.314641 0
M  V30 199 H 18.4191 2.50384 2.8651 0
M  V30 200 H 17.9311 3.61331 1.41639 0
M  V30 201 H 16.0321 1.90995 3.19924 0
M  V30 202 H 16.1451 3.77725 2.94721 0
M  V30 203 H 14.5091 1.94709 1.64196 0
M  V30 204 H 15.2921 3.3528 0.737734 0
M  V30 205 N 17.7372 -0.778329 1.37039 0
M  V30 206 C 18.9842 -1.53665 1.31884 0
M  V30 207 C 19.3122 -1.9425 -0.0986303 0
M  V30 208 O 18.5672 -1.63832 -1.07041 0
M  V30 209 C 18.8662 -2.81845 2.19768 0
M  V30 210 C 18.5322 -2.60345 3.68146 0
M  V30 211 C 17.1942 -2.5419 4.08584 0
M  V30 212 C 19.5462 -2.40923 4.62175 0
M  V30 213 C 16.8742 -2.26594 5.41177 0
M  V30 214 C 19.2262 -2.14852 5.94997 0
M  V30 215 C 17.8902 -2.07137 6.34547 0
M  V30 216 H 17.1602 -0.562299 0.482598 0
M  V30 217 H 19.8072 -0.897069 1.69189 0
M  V30 218 H 18.1122 -3.50328 1.75436 0
M  V30 219 H 19.8092 -3.39692 2.13097 0
M  V30 220 H 16.3992 -2.65996 3.36072 0
M  V30 221 H 20.5832 -2.44673 4.31797 0
M  V30 222 H 15.8392 -2.19111 5.70789 0
M  V30 223 H 20.0132 -1.98822 6.67415 0
M  V30 224 H 17.6402 -1.85518 7.37216 0
M  V30 225 N 19.2153 -1.21501 -1.00376 0
M  V30 226 C 20.4623 -1.03299 -1.74171 0
M  V30 227 C 20.7903 0.433326 -1.89612 0
M  V30 228 O 20.0453 1.33779 -1.42834 0
M  V30 229 C 20.3443 -1.67673 -3.15627 0
M  V30 230 C 20.0103 -3.17533 -3.2013 0
M  V30 231 C 18.6723 -3.58427 -3.21067 0
M  V30 232 C 21.0243 -4.13504 -3.17275 0
M  V30 233 C 18.3523 -4.93794 -3.16835 0
M  V30 234 C 20.7043 -5.48834 -3.14585 0
M  V30 235 C 19.3683 -5.89123 -3.13831 0
M  V30 236 H 18.6383 -0.377999 -0.637336 0
M  V30 237 H 21.2853 -1.51111 -1.17634 0
M  V30 238 H 19.5903 -1.12158 -3.75404 0
M  V30 239 H 21.2873 -1.51091 -3.71446 0
M  V30 240 H 17.8773 -2.84965 -3.20145 0
M  V30 241 H 22.0613 -3.82936 -3.15711 0
M  V30 242 H 17.3173 -5.24255 -3.1459 0
M  V30 243 H 21.4913 -6.22934 -3.1133 0
M  V30 244 H 19.1183 -6.93984 -3.10307 0
M  V30 245 N 20.6934 1.19889 -1.02296 0
M  V30 246 C 21.6564 2.21116 -0.603351 0
M  V30 247 C 22.6564 1.5738 0.329884 0
M  V30 248 O 23.8464 1.73802 0.117702 0
M  V30 249 C 20.9784 3.40696 0.117992 0
M  V30 250 H 22.1714 2.59754 -1.49893 0
M  V30 251 H 19.7244 1.33463 -0.813468 0
M  V30 252 H 20.4594 3.07569 1.0282 0
M  V30 253 H 20.2444 3.88188 -0.552511 0
M  V30 254 H 21.7344 4.15692 0.398696 0
M  V30 255 N 22.1715 0.800033 1.35784 0
M  V30 256 C 23.1345 0.211565 2.28221 0
M  V30 257 C 24.1345 -0.59728 1.49296 0
M  V30 258 O 25.3245 -0.416721 1.69142 0
M  V30 259 C 22.4565 -0.705846 3.33513 0
M  V30 260 H 23.6495 1.02677 2.81776 0
M  V30 261 H 21.2025 0.570211 1.45528 0
M  V30 262 H 21.9375 -1.54498 2.85133 0
M  V30 263 H 21.7225 -0.127655 3.91892 0
M  V30 264 H 23.2125 -1.11211 4.02519 0
M  V30 265 N 23.6496 -1.47581 0.552962 0
M  V30 266 C 24.8966 -2.02482 0.0273243 0
M  V30 267 C 25.2246 -1.42776 -1.32081 0
M  V30 268 O 24.4796 -0.571393 -1.87173 0
M  V30 269 C 24.7786 -3.57199 -0.119728 0
M  V30 270 C 24.4446 -4.35804 1.15697 0
M  V30 271 C 23.1066 -4.57 1.50681 0
M  V30 272 C 25.4586 -4.81167 2.00319 0
M  V30 273 C 22.7866 -5.20807 2.70142 0
M  V30 274 C 25.1386 -5.46293 3.18978 0
M  V30 275 C 23.8026 -5.65722 3.54281 0
M  V30 276 H 23.0726 -0.740933 0.00999866 0
M  V30 277 H 25.7196 -1.77302 0.72362 0
M  V30 278 H 24.0246 -3.81348 -0.89896 0
M  V30 279 H 25.7216 -3.97324 -0.541718 0
M  V30 280 H 22.3116 -4.19582 0.874561 0
M  V30 281 H 26.4956 -4.64574 1.74599 0
M  V30 282 H 21.7516 -5.34045 2.97668 0
M  V30 283 H 25.9256 -5.80407 3.84838 0
M  V30 284 H 23.5526 -6.14936 4.46942 0
M  V30 285 N 25.1277 -0.289203 -1.54924 0
M  V30 286 C 26.3677 0.324536 -2.01807 0
M  V30 287 C 26.7317 1.5199 -1.17316 0
M  V30 288 O 27.9327 2.20422 -1.53843 0
M  V30 289 C 26.2037 0.683578 -3.50802 0
M  V30 290 S 27.7627 1.28185 -4.19659 0
M  V30 291 H 24.5807 0.100236 -0.703899 0
M  V30 292 H 27.1827 -0.414325 -1.91059 0
M  V30 293 H 25.8867 -0.195073 -4.09936 0
M  V30 294 H 25.4177 1.45354 -3.65562 0
M  V30 295 H 27.4327 2.57006 -4.24456 0
M  V30 296 N 26.6058 1.57591 -0.0167156 0
M  V30 297 C 27.5358 2.12496 0.967858 0
M  V30 298 C 28.5168 1.03807 1.34752 0
M  V30 299 O 29.7018 1.31577 1.42833 0
M  V30 300 C 26.8318 2.64194 2.25431 0
M  V30 301 C 25.7858 3.77559 2.01576 0
M  V30 302 C 25.1118 4.15636 3.36379 0
M  V30 303 C 26.4118 5.04151 1.36489 0
M  V30 304 H 28.1058 2.95013 0.510643 0
M  V30 305 H 25.6518 1.41915 0.244181 0
M  V30 306 H 27.6048 3.01236 2.94678 0
M  V30 307 H 26.3288 1.78821 2.73296 0
M  V30 308 H 24.9878 3.40937 1.34751 0
M  V30 309 H 24.6358 3.27263 3.81979 0
M  V30 310 H 24.3358 4.92022 3.21229 0
M  V30 311 H 25.8598 4.5525 4.06915 0
M  V30 312 H 27.2738 5.38857 1.95718 0
M  V30 313 H 25.6708 5.85453 1.31776 0
M  V30 314 H 26.7408 4.83733 0.336219 0
M  V30 315 N 28.0839 -0.256276 1.55502 0
M  V30 316 C 29.4949 -0.826068 1.67431 0
M  V30 317 C 29.8459 -1.86396 0.612446 0
M  V30 318 O 28.9709 -2.15031 -0.243025 0
M  V30 319 C 29.5659 -1.50512 3.03532 0
M  V30 320 C 28.1249 -2.02273 3.17431 0
M  V30 321 C 27.2719 -0.870548 2.63281 0
M  V30 322 H 30.2229 -0.0322728 1.58667 0
M  V30 323 H 30.2439 -2.37279 2.97454 0
M  V30 324 H 29.7559 -0.749484 3.80794 0
M  V30 325 H 27.8569 -2.80746 2.44974 0
M  V30 326 H 27.9699 -2.22655 4.24219 0
M  V30 327 H 26.3339 -1.26851 2.20864 0
M  V30 328 H 27.1169 -0.128149 3.43061 0
M  V30 329 N 29.562 -1.4872 -0.521534 0
M  V30 330 C 30.808 -1.574 -1.27879 0
M  V30 331 C 31.141 -0.250817 -1.92573 0
M  V30 332 O 30.416 0.743934 -1.79711 0
M  V30 333 C 30.699 -2.71843 -2.36164 0
M  V30 334 C 30.552 -4.13893 -1.76105 0
M  V30 335 C 31.871 -2.82008 -3.37875 0
M  V30 336 H 28.99 -0.572941 -0.463581 0
M  V30 337 H 31.632 -1.80927 -0.580119 0
M  V30 338 H 29.782 -2.51914 -2.95756 0
M  V30 339 H 31.454 -4.45284 -1.20499 0
M  V30 340 H 29.697 -4.20498 -1.06601 0
M  V30 341 H 30.368 -4.89804 -2.5455 0
M  V30 342 H 32.844 -3.00086 -2.88249 0
M  V30 343 H 31.72 -3.63796 -4.11028 0
M  V30 344 H 31.981 -1.90511 -3.98946 0
M  V30 345 N 31.0401 0.771051 -1.3745 0
M  V30 346 C 32.2871 1.52963 -1.32697 0
M  V30 347 C 32.6151 1.94299 0.0883274 0
M  V30 348 O 31.8701 1.64397 1.0617 0
M  V30 349 C 32.1691 2.80676 -2.2126 0
M  V30 350 C 31.8351 2.58389 -3.69521 0
M  V30 351 C 30.4971 2.52019 -4.09927 0
M  V30 352 C 32.8491 2.38469 -4.63446 0
M  V30 353 C 30.1771 2.23721 -5.42371 0
M  V30 354 C 32.5291 2.11694 -5.96128 0
M  V30 355 C 31.1931 2.03769 -6.35637 0
M  V30 356 H 30.4631 0.559732 -0.485573 0
M  V30 357 H 33.1101 0.888083 -1.69662 0
M  V30 358 H 31.4151 3.49392 -1.77291 0
M  V30 359 H 33.1121 3.38557 -2.14895 0
M  V30 360 H 29.7021 2.6421 -3.37478 0
M  V30 361 H 33.8861 2.4238 -4.33089 0
M  V30 362 H 29.1421 2.16081 -5.71943 0
M  V30 363 H 33.3161 1.9528 -6.6846 0
M  V30 364 H 30.9431 1.81606 -7.38189 0
M  V30 365 N 32.5182 1.22032 0.997298 0
M  V30 366 C 33.4812 0.987909 2.06816 0
M  V30 367 C 34.4812 -0.0440084 1.6074 0
M  V30 368 O 35.6712 0.194053 1.73116 0
M  V30 369 C 32.8032 0.49132 3.37341 0
M  V30 370 H 33.9962 1.93803 2.28868 0
M  V30 371 H 31.5492 1.03838 1.16822 0
M  V30 372 H 32.2842 -0.463364 3.20973 0
M  V30 373 H 32.0692 1.23575 3.72118 0
M  V30 374 H 33.5592 0.348824 4.16141 0
M  V30 375 N 33.9963 -1.19345 1.0293 0
M  V30 376 C 34.9463 -2.20472 0.58104 0
M  V30 377 C 35.9303 -1.56578 -0.370442 0
M  V30 378 O 37.1223 -1.75963 -0.191344 0
M  V30 379 C 34.2513 -3.43236 -0.066306 0
M  V30 380 C 33.3373 -4.14274 0.907642 0
M  V30 381 N 33.7283 -4.61492 2.07023 0
M  V30 382 C 32.0263 -4.39966 0.731177 0
M  V30 383 C 32.7273 -5.1605 2.68454 0
M  V30 384 N 31.7033 -5.06875 1.96414 0
M  V30 385 H 35.5053 -2.54659 1.46717 0
M  V30 386 H 33.0193 -1.35423 0.896345 0
M  V30 387 H 35.0163 -4.14927 -0.405068 0
M  V30 388 H 33.6763 -3.10549 -0.948118 0
M  V30 389 H 34.6873 -4.56304 2.44963 0
M  V30 390 H 31.3643 -4.17377 -0.101507 0
M  V30 391 H 32.7543 -5.6287 3.66915 0
M  V30 392 N 35.4744 -0.807222 -1.35358 0
M  V30 393 C 36.8854 -0.44876 -1.81226 0
M  V30 394 C 37.2364 1.02929 -1.67033 0
M  V30 395 O 36.3614 1.79991 -1.20133 0
M  V30 396 C 36.9564 -0.807774 -3.2903 0
M  V30 397 C 35.5154 -0.501901 -3.73039 0
M  V30 398 C 34.6624 -1.03304 -2.57339 0
M  V30 399 H 37.6134 -0.998808 -1.23327 0
M  V30 400 H 37.6344 -0.10554 -3.80354 0
M  V30 401 H 37.1464 -1.88357 -3.39328 0
M  V30 402 H 35.2474 0.565128 -3.68289 0
M  V30 403 H 35.3604 -1.03497 -4.67787 0
M  V30 404 H 33.7244 -0.455339 -2.50597 0
M  V30 405 H 34.5074 -2.11496 -2.70415 0
M  V30 406 N 36.9525 1.47285 -0.560781 0
M  V30 407 C 37.8625 2.33846 0.187954 0
M  V30 408 C 38.8785 1.48412 0.908293 0
M  V30 409 O 40.0545 1.81332 0.876388 0
M  V30 410 C 37.1195 3.25178 1.2025 0
M  V30 411 C 36.1805 4.26504 0.489208 0
M  V30 412 C 35.4135 5.13472 1.45542 0
M  V30 413 O 35.6365 5.02959 2.6905 0
M  V30 414 O 34.5705 5.93902 0.977963 0
M  V30 415 H 38.3965 2.99177 -0.522177 0
M  V30 416 H 35.9815 1.45903 -0.321364 0
M  V30 417 H 37.8635 3.81584 1.78805 0
M  V30 418 H 36.5385 2.6247 1.89449 0
M  V30 419 H 35.4455 3.73847 -0.137627 0
M  V30 420 H 36.7785 4.91935 -0.161399 0
M  V30 421 N 38.4306 0.297415 1.54768 0
M  V30 422 C 39.6586 -0.315623 2.04478 0
M  V30 423 C 40.0736 -1.47792 1.17486 0
M  V30 424 O 39.4306 -1.81404 0.19971 0
M  V30 425 C 39.4816 -0.7753 3.53088 0
M  V30 426 O 39.2026 0.340732 4.36773 0
M  V30 427 C 40.7036 -1.45386 4.18781 0
M  V30 428 H 37.9236 -0.0690887 0.667434 0
M  V30 429 H 40.4676 0.436003 1.99798 0
M  V30 430 H 38.6226 -1.47696 3.58141 0
M  V30 431 H 39.0366 -0.0165035 5.24497 0
M  V30 432 H 40.5106 -1.72669 5.24299 0
M  V30 433 H 40.9876 -2.39275 3.68299 0
M  V30 434 H 41.5936 -0.795475 4.17795 0
M  V30 435 N 39.9087 -1.5758 0.0250728 0
M  V30 436 C 40.8387 -2.13007 -0.956575 0
M  V30 437 C 41.8197 -1.0452 -1.342 0
M  V30 438 O 43.0047 -1.32332 -1.42133 0
M  V30 439 C 40.1347 -2.65386 -2.24026 0
M  V30 440 C 39.0887 -3.78623 -1.99571 0
M  V30 441 C 38.4147 -4.17414 -3.3417 0
M  V30 442 C 39.7147 -5.04867 -1.33814 0
M  V30 443 H 41.4087 -2.9528 -0.494991 0
M  V30 444 H 38.9547 -1.42042 -0.236651 0
M  V30 445 H 40.9077 -3.02794 -2.93076 0
M  V30 446 H 39.6317 -1.80268 -2.72343 0
M  V30 447 H 38.2907 -3.41646 -1.32941 0
M  V30 448 H 37.9387 -3.29284 -3.80238 0
M  V30 449 H 37.6387 -4.93719 -3.18615 0
M  V30 450 H 39.1627 -4.57402 -4.04495 0
M  V30 451 H 40.5767 -5.39888 -1.92857 0
M  V30 452 H 38.9737 -5.86144 -1.28669 0
M  V30 453 H 40.0437 -4.83904 -0.310561 0
M  V30 454 N 41.3868 0.248026 -1.55636 0
M  V30 455 C 42.6328 0.97767 -1.77678 0
M  V30 456 C 42.9658 1.85016 -0.590135 0
M  V30 457 O 42.2408 1.90095 0.411611 0
M  V30 458 C 42.5238 1.83914 -3.09593 0
M  V30 459 C 42.3768 0.99491 -4.38659 0
M  V30 460 C 43.6958 2.82183 -3.37729 0
M  V30 461 H 40.8148 0.354005 -0.646413 0
M  V30 462 H 43.4568 0.248253 -1.88371 0
M  V30 463 H 41.6068 2.46104 -3.00608 0
M  V30 464 H 43.2788 0.391789 -4.59633 0
M  V30 465 H 41.5218 0.299231 -4.32767 0
M  V30 466 H 42.1928 1.63145 -5.2734 0
M  V30 467 H 44.6688 2.30129 -3.4667 0
M  V30 468 H 43.5448 3.39582 -4.31249 0
M  V30 469 H 43.8058 3.58588 -2.58586 0
M  V30 470 N 42.8649 1.48995 0.513639 0
M  V30 471 C 43.8119 1.6473 1.61656 0
M  V30 472 C 44.7819 0.488984 1.58739 0
M  V30 473 O 45.9669 0.714478 1.76918 0
M  V30 474 C 43.1069 1.7082 2.99858 0
M  V30 475 C 42.2199 2.9787 3.12885 0
M  V30 476 C 41.3549 2.95017 4.41744 0
M  V30 477 C 40.3939 4.16702 4.48359 0
M  V30 478 N 39.5309 4.11832 5.68629 0
M  V30 479 H 44.3709 2.58909 1.47547 0
M  V30 480 H 41.9079 1.28382 0.71808 0
M  V30 481 H 43.8659 1.72331 3.79944 0
M  V30 482 H 42.4959 0.801181 3.12699 0
M  V30 483 H 41.5479 3.06029 2.25944 0
M  V30 484 H 42.8599 3.8786 3.13633 0
M  V30 485 H 42.0139 2.95021 5.30139 0
M  V30 486 H 40.7529 2.02784 4.43542 0
M  V30 487 H 39.7579 4.16955 3.58369 0
M  V30 488 H 40.9829 5.10113 4.48287 0
M  V30 489 H 38.9289 3.22428 5.71293 0
M  V30 490 H 38.8459 4.95543 5.7094 0
M  V30 491 H 40.1139 4.1592 6.59266 0
M  V30 492 N 44.343 -0.763751 1.37857 0
M  V30 493 C 45.589 -1.52483 1.33704 0
M  V30 494 C 45.922 -1.94051 -0.0759612 0
M  V30 495 O 45.197 -1.64675 -1.03501 0
M  V30 496 C 45.48 -2.78441 2.28348 0
M  V30 497 C 45.333 -2.43075 3.78463 0
M  V30 498 C 46.652 -3.80415 2.21298 0
M  V30 499 H 43.771 -0.553169 0.487005 0
M  V30 500 H 46.413 -0.875562 1.68624 0
M  V30 501 H 44.563 -3.33842 1.987 0
M  V30 502 H 46.235 -1.93527 4.18742 0
M  V30 503 H 44.478 -1.75666 3.96641 0
M  V30 504 H 45.149 -3.33149 4.40132 0
M  V30 505 H 47.625 -3.34527 2.47449 0
M  V30 506 H 46.501 -4.66257 2.89647 0
M  V30 507 H 46.762 -4.25262 1.20849 0
M  V30 508 N 45.8211 -1.22559 -0.990812 0
M  V30 509 C 46.7681 -0.997519 -2.0813 0
M  V30 510 C 47.7381 0.0814702 -1.659 0
M  V30 511 O 48.9231 -0.0685424 -1.90677 0
M  V30 512 C 46.0631 -0.583615 -3.40129 0
M  V30 513 C 45.1761 -1.7336 -3.9569 0
M  V30 514 C 44.3111 -1.26748 -5.15857 0
M  V30 515 C 43.3501 -2.38888 -5.63559 0
M  V30 516 N 42.4871 -1.93308 -6.74964 0
M  V30 517 H 47.3271 -1.93099 -2.26973 0
M  V30 518 H 44.8641 -0.962114 -1.11273 0
M  V30 519 H 46.8221 -0.324801 -4.15934 0
M  V30 520 H 45.4521 0.312845 -3.2128 0
M  V30 521 H 44.5041 -2.10669 -3.16738 0
M  V30 522 H 45.8161 -2.57704 -4.27071 0
M  V30 523 H 44.9701 -0.966173 -5.98957 0
M  V30 524 H 43.7091 -0.394272 -4.86104 0
M  V30 525 H 42.7141 -2.69805 -4.79046 0
M  V30 526 H 43.9391 -3.26728 -5.95336 0
M  V30 527 H 41.8851 -1.08352 -6.4699 0
M  V30 528 H 41.8021 -2.71217 -7.05675 0
M  V30 529 H 43.0701 -1.66252 -7.61564 0
M  V30 530 N 47.2992 1.18797 -1.03562 0
M  V30 531 C 48.5762 1.84469 -0.650434 0
M  V30 532 C 48.9562 1.92319 0.870433 0
M  V30 533 O 48.3042 1.44528 1.76986 0
M  V30 534 C 48.5142 3.2306 -1.32036 0
M  V30 535 C 49.8622 3.9915 -1.44792 0
M  V30 536 O 50.8862 3.32481 -1.27806 0
M  V30 537 O 49.7452 5.18587 -1.72423 0
M  V30 538 H 46.8392 0.795251 -0.226946 0
M  V30 539 H 49.3852 1.26231 -1.13419 0
M  V30 540 H 48.1572 3.1222 -2.3587 0
M  V30 541 H 47.7802 3.88949 -0.8249 0
M  V30 542 N 48.7773 0.814389 1.34928 0
M  V30 543 C 49.7403 0.235759 2.27984 0
M  V30 544 C 50.7403 -0.581412 1.49921 0
M  V30 545 O 51.9303 -0.398758 1.69575 0
M  V30 546 C 49.0623 -0.670433 3.34242 0
M  V30 547 H 50.2553 1.05659 2.80671 0
M  V30 548 H 47.8083 0.585614 1.44915 0
M  V30 549 H 48.5433 -1.51466 2.86755 0
M  V30 550 H 48.3283 -0.0860822 3.92005 0
M  V30 551 H 49.8183 -1.06935 4.03676 0
M  V30 552 N 50.2554 -1.46986 0.568584 0
M  V30 553 C 51.1654 -2.33942 -0.17555 0
M  V30 554 C 52.1814 -1.48891 -0.90041 0
M  V30 555 O 53.3574 -1.81794 -0.86676 0
M  V30 556 C 50.4224 -3.25811 -1.18524 0
M  V30 557 C 49.4834 -4.26757 -0.466582 0
M  V30 558 C 48.7164 -5.14236 -1.42817 0
M  V30 559 O 48.9394 -5.04379 -2.66379 0
M  V30 560 O 47.8734 -5.94412 -0.946453 0
M  V30 561 H 51.6994 -2.98896 0.538036 0
M  V30 562 H 49.2844 -1.4573 0.329097 0
M  V30 563 H 51.1664 -3.82527 -1.76779 0
M  V30 564 H 49.8414 -2.63471 -1.88055 0
M  V30 565 H 48.7484 -3.73769 0.157451 0
M  V30 566 H 50.0814 -4.91843 0.187485 0
M  V30 567 N 51.7335 -0.305618 -1.54608 0
M  V30 568 C 53.0105 0.355652 -1.92339 0
M  V30 569 C 53.3905 1.71324 -1.23335 0
M  V30 570 O 52.7385 2.25473 -0.370702 0
M  V30 571 C 52.9485 0.46572 -3.45879 0
M  V30 572 C 54.2965 0.734426 -4.182 0
M  V30 573 O 55.3205 0.54935 -3.51938 0
M  V30 574 O 54.1795 1.09024 -5.35515 0
M  V30 575 H 51.2735 0.199666 -0.802535 0
M  V30 576 H 53.8195 -0.354017 -1.65966 0
M  V30 577 H 52.5915 -0.488461 -3.88239 0
M  V30 578 H 52.2145 1.22367 -3.78301 0
M  V30 579 N 53.2116 1.57565 -0.0334293 0
M  V30 580 C 54.1436 2.0739 0.975811 0
M  V30 581 C 55.1566 0.998166 1.2861 0
M  V30 582 O 56.3456 1.27426 1.25 0
M  V30 583 C 53.4456 2.4871 2.30209 0
M  V30 584 C 52.6186 3.79413 2.17634 0
M  V30 585 C 51.6776 4.07237 3.33233 0
M  V30 586 O 50.7036 4.77425 3.09927 0
M  V30 587 N 51.9056 3.5775 4.5716 0
M  V30 588 H 54.6706 2.94598 0.55066 0
M  V30 589 H 52.2316 1.61173 0.15323 0
M  V30 590 H 54.2236 2.64413 3.06378 0
M  V30 591 H 52.7936 1.66845 2.64351 0
M  V30 592 H 52.0136 3.73465 1.26165 0
M  V30 593 H 53.3016 4.65038 2.0644 0
M  V30 594 H 52.6996 3.00976 4.78989 0
M  V30 595 H 51.2566 3.78724 5.30482 0
M  V30 596 N 54.6897 -0.239769 1.55765 0
M  V30 597 C 55.6197 -1.30052 1.9393 0
M  V30 598 C 56.6007 -1.49839 0.805132 0
M  V30 599 O 57.7857 -1.62328 1.06599 0
M  V30 600 C 54.9157 -2.65391 2.2402 0
M  V30 601 C 53.8697 -2.60289 3.39755 0
M  V30 602 C 53.1957 -3.99489 3.55405 0
M  V30 603 C 54.4957 -2.16654 4.75246 0
M  V30 604 H 56.1897 -0.983573 2.82783 0
M  V30 605 H 53.7357 -0.471701 1.36055 0
M  V30 606 H 55.6887 -3.3974 2.49308 0
M  V30 607 H 54.4127 -2.98736 1.32 0
M  V30 608 H 53.0717 -1.88398 3.14487 0
M  V30 609 H 52.7197 -4.30112 2.60793 0
M  V30 610 H 52.4197 -3.96962 4.33238 0
M  V30 611 H 53.9437 -4.75528 3.83022 0
M  V30 612 H 55.3577 -2.80737 4.99859 0
M  V30 613 H 53.7547 -2.25223 5.56232 0
M  V30 614 H 54.8247 -1.11835 4.71827 0
M  V30 615 N 56.1678 -1.49265 -0.50573 0
M  V30 616 C 57.4158 -1.582 -1.25766 0
M  V30 617 C 57.7368 -0.268482 -1.93143 0
M  V30 618 O 57.0068 0.711833 -1.8251 0
M  V30 619 H 55.5868 -0.582873 -0.467191 0
M  V30 620 H 58.2488 -1.85865 -0.586525 0
M  V30 621 H 57.3448 -2.37563 -2.02412 0
M  V30 622 N 57.6459 0.756429 -1.3826 0
M  V30 623 C 58.6089 1.85176 -1.35065 0
M  V30 624 C 59.6089 1.58818 -0.251703 0
M  V30 625 O 60.7989 1.66615 -0.508433 0
M  V30 626 C 57.9309 3.22596 -1.10201 0
M  V30 627 H 59.1239 1.89417 -2.3251 0
M  V30 628 H 56.6769 0.95783 -1.23512 0
M  V30 629 H 57.4119 3.24025 -0.133504 0
M  V30 630 H 57.1969 3.43122 -1.89762 0
M  V30 631 H 58.6869 4.02673 -1.10654 0
M  V30 632 N 59.124 1.23083 0.984299 0
M  V30 633 C 60.54 0.992637 1.24975 0
M  V30 634 C 60.74 -0.308618 1.99123 0
M  V30 635 O 59.796 -1.02905 2.30579 0
M  V30 636 C 61.109 2.19698 2.05312 0
M  V30 637 C 62.657 2.24147 2.18465 0
M  V30 638 C 63.132 3.44157 3.02192 0
M  V30 639 N 64.623 3.44372 3.09777 0
M  V30 640 C 65.358 4.33886 3.74874 0
M  V30 641 N 64.854 5.3363 4.41827 0
M  V30 642 N 66.647 4.21639 3.71721 0
M  V30 643 H 58.798 2.06731 0.487453 0
M  V30 644 H 61.061 0.906339 0.277944 0
M  V30 645 H 60.767 3.1411 1.58201 0
M  V30 646 H 60.641 2.20465 3.06064 0
M  V30 647 H 63.028 1.30277 2.64786 0
M  V30 648 H 63.109 2.27415 1.17115 0
M  V30 649 H 62.753 4.38332 2.56568 0
M  V30 650 H 62.683 3.3813 4.03702 0
M  V30 651 H 65.174 2.72201 2.62135 0
M  V30 652 H 65.487 5.98196 4.89266 0
M  V30 653 H 63.832 5.37534 4.40548 0
M  V30 654 H 67.023 3.42962 3.18582 0
M  V30 655 H 67.196 4.91604 4.22173 0
M  V30 656 N 60.6021 -1.18246 1.0419 0
M  V30 657 C 61.8481 -1.88536 0.747122 0
M  V30 658 C 62.1811 -1.80223 -0.723409 0
M  V30 659 O 61.4561 -1.20337 -1.52804 0
M  V30 660 C 61.7391 -3.38968 1.21544 0
M  V30 661 C 61.5921 -3.56084 2.74816 0
M  V30 662 C 62.9111 -4.32648 0.806482 0
M  V30 663 H 60.0301 -0.684619 0.272883 0
M  V30 664 H 62.6721 -1.39113 1.29413 0
M  V30 665 H 60.8221 -3.8119 0.750081 0
M  V30 666 H 62.4941 -3.22946 3.29399 0
M  V30 667 H 60.7371 -2.98699 3.14582 0
M  V30 668 H 61.4081 -4.61639 3.02644 0
M  V30 669 H 63.8841 -3.98211 1.20695 0
M  V30 670 H 62.7601 -5.36462 1.1619 0
M  V30 671 H 63.0211 -4.41146 -0.29029 0
M  V30 672 N 62.0802 -0.821533 -1.34494 0
M  V30 673 C 63.3282 -0.408139 -1.97936 0
M  V30 674 C 63.6492 1.03193 -1.65457 0
M  V30 675 O 62.9192 1.71622 -0.944595 0
M  V30 676 H 61.4992 -0.147928 -0.732206 0
M  V30 677 H 64.1612 -1.05067 -1.64155 0
M  V30 678 H 63.2572 -0.52601 -3.07635 0
M  V30 679 N 63.5583 1.46682 -0.576371 0
M  V30 680 C 64.7883 2.06498 -0.0648694 0
M  V30 681 C 65.1963 1.42665 1.24271 0
M  V30 682 O 64.5393 0.523886 1.76071 0
M  V30 683 C 64.6013 3.5904 0.181816 0
M  V30 684 C 64.2653 4.45028 -1.0392 0
M  V30 685 C 65.2623 4.81959 -1.94966 0
M  V30 686 C 62.9473 4.86259 -1.25927 0
M  V30 687 C 64.9413 5.58942 -3.06371 0
M  V30 688 C 62.6283 5.63002 -2.37638 0
M  V30 689 C 63.6263 5.99257 -3.2769 0
M  V30 690 O 63.3143 6.7445 -4.37461 0
M  V30 691 H 63.0463 0.674028 -0.0515987 0
M  V30 692 H 65.6003 1.89393 -0.794951 0
M  V30 693 H 63.8303 3.74429 0.966436 0
M  V30 694 H 65.5193 4.00806 0.641047 0
M  V30 695 H 66.2853 4.50689 -1.79177 0
M  V30 696 H 62.1643 4.57494 -0.567448 0
M  V30 697 H 65.7083 5.87158 -3.76684 0
M  V30 698 H 61.6053 5.93686 -2.53392 0
M  V30 699 H 62.3733 6.92867 -4.35749 0
M  V30 700 N 65.0364 0.313813 1.54444 0
M  V30 701 C 66.2854 -0.292519 1.99568 0
M  V30 702 C 66.5984 -1.54011 1.20582 0
M  V30 703 O 67.8044 -2.22183 1.56035 0
M  V30 704 C 66.2604 -0.571752 3.55329 0
M  V30 705 C 65.8684 0.658229 4.43138 0
M  V30 706 C 67.6124 -1.13857 4.08946 0
M  V30 707 C 65.5194 0.351439 5.90355 0
M  V30 708 H 64.4494 -0.113079 0.745472 0
M  V30 709 H 67.1004 0.424518 1.78522 0
M  V30 710 H 65.4824 -1.34872 3.72325 0
M  V30 711 H 66.6564 1.43403 4.37918 0
M  V30 712 H 64.9714 1.14458 4.0036 0
M  V30 713 H 67.5684 -1.38257 5.16516 0
M  V30 714 H 67.9114 -2.08489 3.6033 0
M  V30 715 H 68.4444 -0.423015 3.95544 0
M  V30 716 H 65.1834 1.26667 6.43145 0
M  V30 717 H 64.7034 -0.386842 5.98551 0
M  V30 718 H 66.3824 -0.0423134 6.46986 0
M  V30 719 N 66.5145 -1.57545 0.0417849 0
M  V30 720 C 67.4245 -2.14451 -0.951213 0
M  V30 721 C 68.4405 -1.09992 -1.34825 0
M  V30 722 O 69.6165 -1.42114 -1.42708 0
M  V30 723 C 66.6815 -2.67063 -2.21084 0
M  V30 724 C 65.7425 -3.86284 -1.87304 0
M  V30 725 C 64.9755 -4.36378 -3.07261 0
M  V30 726 O 65.1985 -3.85587 -4.20332 0
M  V30 727 O 64.1325 -5.28077 -2.88822 0
M  V30 728 H 67.9585 -2.99601 -0.497287 0
M  V30 729 H 65.5435 -1.48317 -0.179567 0
M  V30 730 H 67.4255 -3.00914 -2.95006 0
M  V30 731 H 66.1005 -1.84989 -2.65633 0
M  V30 732 H 65.0075 -3.57338 -1.10727 0
M  V30 733 H 66.3405 -4.6956 -1.47562 0
M  V30 734 N 67.9926 0.231505 -1.5589 0
M  V30 735 C 68.9226 1.29022 -1.94617 0
M  V30 736 C 69.9036 1.4941 -0.813067 0
M  V30 737 O 71.0886 1.6176 -1.07459 0
M  V30 738 C 68.2186 2.64199 -2.25424 0
M  V30 739 C 67.1726 2.58484 -3.41131 0
M  V30 740 C 66.4986 3.97599 -3.57518 0
M  V30 741 C 67.7986 2.1413 -4.76388 0
M  V30 742 H 69.4926 0.968563 -2.83301 0
M  V30 743 H 67.0386 0.464479 -1.36303 0
M  V30 744 H 68.9916 3.38413 -2.51107 0
M  V30 745 H 67.7156 2.98032 -1.33583 0
M  V30 746 H 66.3746 1.86727 -3.15481 0
M  V30 747 H 66.0226 4.28723 -2.6307 0
M  V30 748 H 65.7226 3.94659 -4.35337 0
M  V30 749 H 67.2466 4.7349 -3.85538 0
M  V30 750 H 68.6606 2.78083 -5.01341 0
M  V30 751 H 67.0576 2.2227 -5.57419 0
M  V30 752 H 68.1276 1.09331 -4.72414 0
M  V30 753 N 69.4707 1.49531 0.497807 0
M  V30 754 C 70.7477 1.49682 1.25915 0
M  V30 755 C 71.1277 0.226339 2.09883 0
M  V30 756 O 70.4757 -0.791189 2.14365 0
M  V30 757 C 70.6857 2.77755 2.11313 0
M  V30 758 C 72.0337 3.27371 2.70395 0
M  V30 759 O 73.0577 2.78894 2.21578 0
M  V30 760 O 71.9167 4.11808 3.59272 0
M  V30 761 H 69.0107 0.599228 0.56996 0
M  V30 762 H 71.5567 1.61798 0.511816 0
M  V30 763 H 70.3287 3.61713 1.49264 0
M  V30 764 H 69.9517 2.68515 2.93233 0
M  V30 765 N 70.9488 -0.749086 1.3866 0
M  V30 766 C 71.8788 -1.8764 1.38973 0
M  V30 767 C 72.8598 -1.68178 0.255004 0
M  V30 768 O 74.0448 -1.88704 0.458754 0
M  V30 769 C 71.1748 -3.25222 1.21851 0
M  V30 770 C 70.1288 -3.59295 2.32575 0
M  V30 771 C 69.4548 -4.95663 2.00555 0
M  V30 772 C 70.7548 -3.63709 3.7485 0
M  V30 773 H 72.4488 -1.87635 2.3331 0
M  V30 774 H 69.9948 -0.901329 1.12303 0
M  V30 775 H 71.9478 -4.03746 1.20695 0
M  V30 776 H 70.6718 -3.25719 0.239775 0
M  V30 777 H 69.3308 -2.83093 2.32925 0
M  V30 778 H 68.9788 -4.92724 1.01154 0
M  V30 779 H 68.6788 -5.19429 2.74714 0
M  V30 780 H 70.2028 -5.7656 2.01024 0
M  V30 781 H 71.6168 -4.32338 3.76506 0
M  V30 782 H 70.0138 -3.98986 4.48252 0
M  V30 783 H 71.0838 -2.63834 4.06841 0
M  V30 784 N 72.4269 -1.23603 -0.977757 0
M  V30 785 C 73.3749 -1.01704 -2.09187 0
M  V30 786 C 74.3689 0.0448214 -1.69341 0
M  V30 787 O 75.5749 -0.108902 -1.7967 0
M  V30 788 H 71.9499 -0.311803 -0.684312 0
M  V30 789 H 73.9209 -1.96207 -2.24823 0
M  V30 790 C 72.6699 -0.627746 -3.41986 0
M  V30 791 H 71.9929 -1.43656 -3.73099 0
M  V30 792 H 73.4329 -0.514053 -4.20872 0
M  V30 793 C 71.8919 0.664238 -3.30287 0
M  V30 794 O 72.4219 1.71268 -3.6336 0
M  V30 795 N 70.6279 0.641156 -2.83439 0
M  V30 796 H 70.1749 -0.212376 -2.56723 0
M  V30 797 H 70.1329 1.50583 -2.75993 0
M  V30 798 N 73.905 1.17692 -1.04816 0
M  V30 799 C 75.13 1.92327 -0.776207 0
M  V30 800 C 75.555 1.76082 0.661581 0
M  V30 801 O 74.913 1.076 1.45917 0
M  V30 802 C 74.961 3.41539 -1.15687 0
M  V30 803 O 74.065 4.11402 -0.286775 0
M  V30 804 H 73.406 0.599735 -0.284981 0
M  V30 805 H 75.936 1.49201 -1.4 0
M  V30 806 H 75.946 3.92269 -1.12202 0
M  V30 807 H 74.621 3.52684 -2.20425 0
M  V30 808 H 73.198 3.70939 -0.381903 0
M  V30 809 N 75.3831 0.828654 1.34056 0
M  V30 810 C 76.6311 0.41863 1.97717 0
M  V30 811 C 76.9521 -1.02314 1.66002 0
M  V30 812 O 76.2221 -1.71119 0.953683 0
M  V30 813 H 74.8021 0.151809 0.731412 0
M  V30 814 H 77.4641 1.05936 1.63596 0
M  V30 815 H 76.5601 0.542318 3.07352 0
M  V30 816 N 76.8612 -1.46375 0.584142 0
M  V30 817 C 77.8082 -2.30323 -0.148286 0
M  V30 818 C 78.7782 -1.40703 -0.882713 0
M  V30 819 O 79.9632 -1.69651 -0.873099 0
M  V30 820 C 77.1032 -3.25196 -1.15507 0
M  V30 821 C 76.2162 -4.29915 -0.423943 0
M  V30 822 C 75.3512 -5.11914 -1.41838 0
M  V30 823 C 74.3902 -6.08381 -0.673736 0
M  V30 824 N 73.5272 -6.83242 -1.6163 0
M  V30 825 H 78.3672 -2.92427 0.573644 0
M  V30 826 H 75.9042 -1.44118 0.294703 0
M  V30 827 H 77.8622 -3.78646 -1.75166 0
M  V30 828 H 76.4922 -2.64898 -1.8447 0
M  V30 829 H 75.5442 -3.7931 0.287714 0
M  V30 830 H 76.8562 -4.98549 0.158128 0
M  V30 831 H 76.0102 -5.69648 -2.08773 0
M  V30 832 H 74.7492 -4.43243 -2.03438 0
M  V30 833 H 73.7542 -5.49799 0.00938483 0
M  V30 834 H 74.9792 -6.79071 -0.0631082 0
M  V30 835 H 72.9252 -6.1728 -2.22038 0
M  V30 836 H 72.8422 -7.48144 -1.08707 0
M  V30 837 H 74.1102 -7.45534 -2.27596 0
M  V30 838 N 78.3393 -0.321999 -1.54275 0
M  V30 839 C 79.5883 0.281931 -1.9972 0
M  V30 840 C 79.9013 1.53369 -1.21397 0
M  V30 841 O 81.1073 2.21352 -1.57211 0
M  V30 842 C 79.5633 0.5529 -3.55628 0
M  V30 843 C 79.1713 -0.681721 -4.42783 0
M  V30 844 C 80.9153 1.11687 -4.09544 0
M  V30 845 C 78.8223 -0.382742 -5.9016 0
M  V30 846 H 77.7523 0.109124 -0.746062 0
M  V30 847 H 80.4033 -0.43398 -1.78294 0
M  V30 848 H 78.7853 1.32896 -3.73035 0
M  V30 849 H 79.9593 -1.45723 -4.37151 0
M  V30 850 H 78.2743 -1.1658 -3.99748 0
M  V30 851 H 80.8713 1.35515 -5.17242 0
M  V30 852 H 81.2143 2.06575 -3.61431 0
M  V30 853 H 81.7473 0.402032 -3.95763 0
M  V30 854 H 78.4863 -1.30076 -6.42464 0
M  V30 855 H 78.0063 0.355094 -5.98748 0
M  V30 856 H 79.6853 0.00800157 -6.47 0
M  V30 857 N 79.8174 1.5752 -0.0501392 0
M  V30 858 C 80.7474 2.14502 0.922566 0
M  V30 859 C 81.7284 1.06642 1.3252 0
M  V30 860 O 82.9134 1.34577 1.4001 0
M  V30 861 C 80.0434 2.68916 2.19776 0
M  V30 862 C 78.9974 3.8175 1.93523 0
M  V30 863 C 78.3234 4.22677 3.27487 0
M  V30 864 C 79.6234 5.06932 1.25765 0
M  V30 865 H 81.3174 2.9603 0.447952 0
M  V30 866 H 78.8634 1.42401 0.214024 0
M  V30 867 H 80.8164 3.07419 2.88222 0
M  V30 868 H 79.5404 1.84578 2.69441 0
M  V30 869 H 78.1994 3.43718 1.27489 0
M  V30 870 H 77.8474 3.35291 3.74952 0
M  V30 871 H 77.5474 4.98725 3.1072 0
M  V30 872 H 79.0714 4.63779 3.97166 0
M  V30 873 H 80.4854 5.42888 1.84244 0
M  V30 874 H 78.8824 5.88116 1.19328 0
M  V30 875 H 79.9524 4.84337 0.233536 0
M  V30 876 N 81.2955 -0.223234 1.56011 0
M  V30 877 C 82.2055 -1.29766 1.95443 0
M  V30 878 C 83.2215 -1.51373 0.858028 0
M  V30 879 O 84.3975 -1.64536 1.16146 0
M  V30 880 C 81.4625 -2.62772 2.26167 0
M  V30 881 C 80.5235 -2.49482 3.49367 0
M  V30 882 C 79.7565 -3.76145 3.78616 0
M  V30 883 O 79.9795 -4.79087 3.09568 0
M  V30 884 O 78.9135 -3.73358 4.72109 0
M  V30 885 H 82.7395 -0.99309 2.87004 0
M  V30 886 H 80.3245 -0.425958 1.43199 0
M  V30 887 H 82.2065 -3.41327 2.47131 0
M  V30 888 H 80.8815 -2.92913 1.37781 0
M  V30 889 H 79.7885 -1.69133 3.33684 0
M  V30 890 H 81.1215 -2.2428 4.38131 0
M  V30 891 N 82.7736 -1.49793 -0.48987 0
M  V30 892 C 83.9986 -1.63836 -1.27172 0
M  V30 893 C 84.4236 -0.31402 -1.8546 0
M  V30 894 O 83.7816 0.719803 -1.66399 0
M  V30 895 C 83.8296 -2.71797 -2.36978 0
M  V30 896 O 82.9336 -2.31744 -3.41128 0
M  V30 897 H 82.2746 -0.547997 -0.37496 0
M  V30 898 H 84.8046 -1.96053 -0.585191 0
M  V30 899 H 84.8146 -2.94305 -2.82575 0
M  V30 900 H 83.4896 -3.67923 -1.93921 0
M  V30 901 H 82.0666 -2.1961 -3.01373 0
M  V30 902 N 84.2517 0.741722 -1.39055 0
M  V30 903 C 85.4987 1.50114 -1.35912 0
M  V30 904 C 85.8267 1.94443 0.0470937 0
M  V30 905 O 85.0817 1.66612 1.02659 0
M  V30 906 C 85.3807 2.7592 -2.27163 0
M  V30 907 C 85.0467 2.50493 -3.74919 0
M  V30 908 C 83.7087 2.43267 -4.1518 0
M  V30 909 C 86.0607 2.28585 -4.684 0
M  V30 910 C 83.3887 2.12166 -5.46994 0
M  V30 911 C 85.7407 1.99002 -6.00484 0
M  V30 912 C 84.4047 1.90241 -6.39816 0
M  V30 913 H 83.6747 0.549306 -0.497336 0
M  V30 914 H 86.3217 0.851896 -1.71508 0
M  V30 915 H 84.6267 3.45553 -1.84663 0
M  V30 916 H 86.3237 3.33923 -2.22028 0
M  V30 917 H 82.9137 2.56992 -3.43006 0
M  V30 918 H 87.0977 2.33139 -4.38132 0
M  V30 919 H 82.3537 2.03901 -5.76398 0
M  V30 920 H 86.5277 1.81057 -6.72452 0
M  V30 921 H 84.1547 1.65907 -7.41875 0
M  V30 922 N 85.7298 1.2412 0.971189 0
M  V30 923 C 87.1458 1.00584 1.23916 0
M  V30 924 C 87.3458 -0.287481 1.99439 0
M  V30 925 O 86.4018 -1.00454 2.31658 0
M  V30 926 C 87.7148 2.21864 2.0297 0
M  V30 927 C 89.2628 2.26452 2.16076 0
M  V30 928 C 89.7378 3.47343 2.98524 0
M  V30 929 N 91.2288 3.47639 3.06107 0
M  V30 930 C 91.9638 4.37837 3.70251 0
M  V30 931 N 91.4598 5.38286 4.36142 0
M  V30 932 N 93.2528 4.25558 3.67228 0
M  V30 933 H 85.4038 2.07236 0.465499 0
M  V30 934 H 87.6668 0.909236 0.268315 0
M  V30 935 H 87.3728 3.15771 1.54861 0
M  V30 936 H 87.2468 2.23698 3.03709 0
M  V30 937 H 89.6338 1.33078 2.6339 0
M  V30 938 H 89.7148 2.28645 1.14696 0
M  V30 939 H 89.3588 4.41029 2.51905 0
M  V30 940 H 89.2888 3.42393 4.00093 0
M  V30 941 H 91.7798 2.74966 2.59233 0
M  V30 942 H 92.0928 6.03352 4.82894 0
M  V30 943 H 90.4378 5.42176 4.34822 0
M  V30 944 H 93.6288 3.46322 3.14927 0
M  V30 945 H 93.8018 4.96054 4.16935 0
M  V30 946 N 87.2079 -1.17134 1.05439 0
M  V30 947 C 88.6189 -1.69084 0.791676 0
M  V30 948 C 88.9699 -1.83822 -0.685839 0
M  V30 949 O 88.0949 -1.52757 -1.53278 0
M  V30 950 C 88.6899 -3.07119 1.4305 0
M  V30 951 C 87.2489 -3.56225 1.21577 0
M  V30 952 C 86.3959 -2.32421 1.51247 0
M  V30 953 H 89.3469 -1.01617 1.219 0
M  V30 954 H 89.3679 -3.71087 0.84112 0
M  V30 955 H 88.8799 -2.9636 2.50584 0
M  V30 956 H 86.9809 -3.72257 0.159787 0
M  V30 957 H 87.0939 -4.38837 1.92246 0
M  V30 958 H 85.4579 -2.3701 0.932653 0
M  V30 959 H 86.2409 -2.24268 2.5992 0
M  V30 960 N 88.686 -0.835752 -1.33615 0
M  V30 961 C 89.596 -0.269088 -2.33052 0
M  V30 962 C 90.612 0.603251 -1.63208 0
M  V30 963 O 91.788 0.508112 -1.94885 0
M  V30 964 C 88.853 0.549091 -3.42324 0
M  V30 965 C 87.914 -0.347156 -4.27894 0
M  V30 966 C 87.147 0.43207 -5.31948 0
M  V30 967 O 87.37 1.66409 -5.45586 0
M  V30 968 O 86.304 -0.192298 -6.01593 0
M  V30 969 H 90.13 -1.09243 -2.83372 0
M  V30 970 H 87.715 -0.598198 -1.36901 0
M  V30 971 H 89.597 1.01414 -4.09015 0
M  V30 972 H 88.272 1.34955 -2.94226 0
M  V30 973 H 87.179 -0.859979 -3.64081 0
M  V30 974 H 88.512 -1.1123 -4.79467 0
M  V30 975 N 90.1641 1.46063 -0.591896 0
M  V30 976 C 91.0741 2.34192 0.13831 0
M  V30 977 C 92.0901 1.50305 0.876608 0
M  V30 978 O 93.2661 1.8315 0.837728 0
M  V30 979 C 90.3311 3.27656 1.13326 0
M  V30 980 C 89.3921 4.27445 0.39863 0
M  V30 981 C 88.6251 5.16443 1.34618 0
M  V30 982 O 88.8481 5.08553 2.58321 0
M  V30 983 O 87.7821 5.95843 0.851768 0
M  V30 984 H 91.6081 2.98002 -0.58552 0
M  V30 985 H 89.1931 1.45188 -0.352239 0
M  V30 986 H 91.0751 3.85291 1.70671 0
M  V30 987 H 89.7501 2.6643 1.83839 0
M  V30 988 H 88.6571 3.73471 -0.216895 0
M  V30 989 H 89.9901 4.91482 -0.265709 0
M  V30 990 N 91.6422 0.330177 1.54103 0
M  V30 991 C 93.0582 -0.0222371 1.59585 0
M  V30 992 C 93.2582 -1.49902 1.34654 0
M  V30 993 O 92.3142 -2.25592 1.13421 0
M  V30 994 C 93.6272 0.401932 2.98002 0
M  V30 995 C 95.1752 0.353145 3.11001 0
M  V30 996 C 95.6502 0.752576 4.51775 0
M  V30 997 N 97.1412 0.706239 4.57784 0
M  V30 998 C 97.8762 0.987417 5.64834 0
M  V30 999 N 97.3722 1.33607 6.79795 0
M  V30 1000 N 99.1652 0.91254 5.54643 0
M  V30 1001 H 91.3162 1.29228 1.68564 0
M  V30 1002 H 93.5792 0.525906 0.78875 0
M  V30 1003 H 93.2852 1.4311 3.21267 0
M  V30 1004 H 93.1592 -0.229699 3.765 0
M  V30 1005 H 95.5462 -0.666822 2.87467 0
M  V30 1006 H 95.6272 1.0198 2.34593 0
M  V30 1007 H 95.2712 1.77049 4.76042 0
M  V30 1008 H 95.2012 0.0635409 5.26562 0
M  V30 1009 H 97.6922 0.44889 3.75224 0
M  V30 1010 H 98.0052 1.53582 7.57385 0
M  V30 1011 H 96.3502 1.37439 6.81275 0
M  V30 1012 H 99.5412 0.639601 4.6371 0
M  V30 1013 H 99.7142 1.13503 6.37982 0
M  V30 1014 N 93.1203 -1.57491 0.0584922 0
M  V30 1015 C 94.3673 -1.92978 -0.613648 0
M  V30 1016 C 94.6953 -0.937461 -1.70417 0
M  V30 1017 O 93.9503 0.049078 -1.95638 0
M  V30 1018 C 94.2493 -3.3513 -1.24188 0
M  V30 1019 C 93.9153 -4.50037 -0.278826 0
M  V30 1020 C 92.5773 -4.81198 -0.0138447 0
M  V30 1021 C 94.9293 -5.19807 0.380777 0
M  V30 1022 C 92.2573 -5.79473 0.918052 0
M  V30 1023 C 94.6093 -6.19079 1.30091 0
M  V30 1024 C 93.2733 -6.48665 1.57449 0
M  V30 1025 H 92.5433 -0.706157 -0.22455 0
M  V30 1026 H 95.1903 -1.91082 0.126533 0
M  V30 1027 H 93.4953 -3.33429 -2.05749 0
M  V30 1028 H 95.1923 -3.59871 -1.769 0
M  V30 1029 H 91.7823 -4.25726 -0.495539 0
M  V30 1030 H 95.9663 -4.95939 0.189158 0
M  V30 1031 H 91.2223 -6.00727 1.1374 0
M  V30 1032 H 95.3963 -6.7225 1.81804 0
M  V30 1033 H 93.0233 -7.24628 2.29822 0
M  V30 1034 N 94.5984 0.214957 -1.56127 0
M  V30 1035 C 96.0094 0.781386 -1.69562 0
M  V30 1036 C 96.3604 1.84707 -0.66165 0
M  V30 1037 O 95.4854 2.156 0.185927 0
M  V30 1038 C 96.0804 1.42411 -3.07416 0
M  V30 1039 C 94.6394 1.93786 -3.22683 0
M  V30 1040 C 93.7864 0.800438 -2.65496 0
M  V30 1041 H 96.7374 -0.00980633 -1.58697 0
M  V30 1042 H 96.7584 2.29309 -3.0364 0
M  V30 1043 H 96.2704 0.64826 -3.82648 0
M  V30 1044 H 94.3714 2.74152 -2.52332 0
M  V30 1045 H 94.4844 2.1133 -4.29973 0
M  V30 1046 H 92.8484 1.2095 -2.2415 0
M  V30 1047 H 93.6314 0.0371471 -3.4328 0
M  V30 1048 N 96.0765 1.50051 0.48192 0
M  V30 1049 C 97.0095 1.62749 1.59963 0
M  V30 1050 C 97.9875 0.475903 1.5548 0
M  V30 1051 O 99.1715 0.693986 1.7526 0
M  V30 1052 C 96.2985 1.60008 2.98522 0
M  V30 1053 C 95.3445 2.80596 3.21198 0
M  V30 1054 S 96.1775 4.42038 3.02262 0
M  V30 1055 C 97.3335 4.41973 4.43182 0
M  V30 1056 H 97.5665 2.57296 1.4895 0
M  V30 1057 H 95.0995 1.39179 0.668477 0
M  V30 1058 H 97.0575 1.59112 3.78409 0
M  V30 1059 H 95.7185 0.667153 3.06933 0
M  V30 1060 H 94.9115 2.74952 4.22395 0
M  V30 1061 H 94.5135 2.79003 2.49065 0
M  V30 1062 H 96.8055 4.14868 5.35622 0
M  V30 1063 H 97.7485 5.43512 4.53873 0
M  V30 1064 H 98.1565 3.71812 4.24755 0
M  V30 1065 N 97.5546 -0.734337 1.39446 0
M  V30 1066 C 98.4876 -1.85715 1.32609 0
M  V30 1067 C 99.4656 -1.6137 0.199636 0
M  V30 1068 O 100.65 -1.84626 0.380195 0
M  V30 1069 C 97.7766 -3.21709 1.05929 0
M  V30 1070 C 96.8226 -3.64913 2.20773 0
M  V30 1071 S 97.6556 -3.74203 3.83056 0
M  V30 1072 C 98.8116 -5.12986 3.58603 0
M  V30 1073 H 99.0446 -1.91232 2.27635 0
M  V30 1074 H 96.5776 -0.899263 1.25509 0
M  V30 1075 H 98.5356 -4.00236 0.912203 0
M  V30 1076 H 97.1966 -3.13848 0.125883 0
M  V30 1077 H 96.3896 -4.63606 1.97699 0
M  V30 1078 H 95.9916 -2.93593 2.31688 0
M  V30 1079 H 98.2836 -5.99339 3.15909 0
M  V30 1080 H 99.2266 -5.41088 4.5676 0
M  V30 1081 H 99.6346 -4.82694 2.9269 0
M  V30 1082 N 99.0327 -1.24633 -0.964593 0
M  V30 1083 C 100.258 -1.11596 -1.74818 0
M  V30 1084 C 100.683 0.32723 -1.85232 0
M  V30 1085 O 100.041 1.23695 -1.32549 0
M  V30 1086 C 100.089 -1.76397 -3.1451 0
M  V30 1087 O 99.1927 -1.03685 -3.99153 0
M  V30 1088 H 98.5337 -0.390196 -0.537255 0
M  V30 1089 H 101.064 -1.65002 -1.20977 0
M  V30 1090 H 101.074 -1.8228 -3.65018 0
M  V30 1091 H 99.7487 -2.81401 -3.06246 0
M  V30 1092 H 98.3257 -1.05611 -3.57632 0
M  V30 1093 N 100.511 1.16574 -1.06058 0
M  V30 1094 C 101.739 1.90952 -0.796552 0
M  V30 1095 C 102.154 1.77302 0.648808 0
M  V30 1096 O 101.511 1.11605 1.44397 0
M  V30 1097 C 101.562 3.41736 -1.17894 0
M  V30 1098 O 101.283 3.54975 -2.56758 0
M  V30 1099 C 102.784 4.33169 -0.942308 0
M  V30 1100 H 100.004 0.605594 -0.288959 0
M  V30 1101 H 102.548 1.47777 -1.41358 0
M  V30 1102 H 100.703 3.82623 -0.606491 0
M  V30 1103 H 101.117 4.4846 -2.72 0
M  V30 1104 H 102.591 5.37439 -1.25952 0
M  V30 1105 H 103.068 4.3903 0.122078 0
M  V30 1106 H 103.674 3.98007 -1.49902 0
M  V30 1107 N 101.989 0.842826 1.3317 0
M  V30 1108 C 103.236 0.440447 1.97652 0
M  V30 1109 C 103.564 -1.00123 1.6675 0
M  V30 1110 O 102.819 -1.7155 0.941761 0
M  V30 1111 C 103.118 0.612607 3.52111 0
M  V30 1112 C 102.784 2.02297 4.02972 0
M  V30 1113 C 101.446 2.40874 4.16573 0
M  V30 1114 C 103.798 2.94402 4.30089 0
M  V30 1115 C 101.126 3.70852 4.54627 0
M  V30 1116 C 103.478 4.23865 4.69597 0
M  V30 1117 C 102.142 4.62392 4.81404 0
M  V30 1118 H 101.412 0.161171 0.72326 0
M  V30 1119 H 104.059 1.07061 1.58777 0
M  V30 1120 H 102.364 -0.100849 3.9167 0
M  V30 1121 H 104.061 0.2815 4.00011 0
M  V30 1122 H 100.651 1.71338 3.92863 0
M  V30 1123 H 104.835 2.65835 4.19101 0
M  V30 1124 H 100.091 4.00501 4.61962 0
M  V30 1125 H 104.265 4.95306 4.89536 0
M  V30 1126 H 101.892 5.63154 5.10648 0
M  V30 1127 N 103.467 -1.45747 0.599634 0
M  V30 1128 C 104.414 -2.30467 -0.123849 0
M  V30 1129 C 105.384 -1.41632 -0.86774 0
M  V30 1130 O 106.569 -1.70568 -0.855056 0
M  V30 1131 C 103.709 -3.26402 -1.12051 0
M  V30 1132 C 102.822 -4.3034 -0.37832 0
M  V30 1133 C 101.957 -5.13389 -1.364 0
M  V30 1134 C 100.996 -6.09061 -0.609171 0
M  V30 1135 N 100.133 -6.84918 -1.54374 0
M  V30 1136 H 104.973 -2.91802 0.604627 0
M  V30 1137 H 102.51 -1.43797 0.309972 0
M  V30 1138 H 104.468 -3.80482 -1.7114 0
M  V30 1139 H 103.098 -2.66839 -1.8165 0
M  V30 1140 H 102.15 -3.78984 0.327929 0
M  V30 1141 H 103.462 -4.98354 0.210997 0
M  V30 1142 H 102.616 -5.7183 -2.02719 0
M  V30 1143 H 101.355 -4.45376 -1.98725 0
M  V30 1144 H 100.36 -5.49758 0.0676979 0
M  V30 1145 H 101.585 -6.79099 0.00891991 0
M  V30 1146 H 99.531 -6.19601 -2.15478 0
M  V30 1147 H 99.448 -7.49254 -1.00766 0
M  V30 1148 H 100.716 -7.47906 -2.19676 0
M  V30 1149 N 104.945 -0.338344 -1.53925 0
M  V30 1150 C 106.191 0.260143 -2.01125 0
M  V30 1151 C 106.524 1.50617 -1.22589 0
M  V30 1152 O 105.799 1.91979 -0.312113 0
M  V30 1153 C 106.082 0.579499 -3.55407 0
M  V30 1154 C 105.935 -0.678264 -4.44657 0
M  V30 1155 C 107.254 1.39122 -4.17532 0
M  V30 1156 H 104.373 0.0930772 -0.731099 0
M  V30 1157 H 107.015 -0.457852 -1.84401 0
M  V30 1158 H 105.165 1.19118 -3.69788 0
M  V30 1159 H 106.837 -1.31631 -4.42121 0
M  V30 1160 H 105.08 -1.3042 -4.13731 0
M  V30 1161 H 105.751 -0.410143 -5.50474 0
M  V30 1162 H 108.227 0.874035 -4.06817 0
M  V30 1163 H 107.103 1.58342 -5.25565 0
M  V30 1164 H 107.364 2.39178 -3.71815 0
M  V30 1165 N 106.423 1.57458 -0.0668435 0
M  V30 1166 C 107.353 2.15468 0.899764 0
M  V30 1167 C 108.334 1.08042 1.31381 0
M  V30 1168 O 109.519 1.36054 1.38574 0
M  V30 1169 C 106.649 2.71232 2.16911 0
M  V30 1170 C 105.603 3.83781 1.89463 0
M  V30 1171 C 104.929 4.26127 3.22986 0
M  V30 1172 C 106.229 5.08238 1.20381 0
M  V30 1173 H 107.923 2.96488 0.416529 0
M  V30 1174 H 105.469 1.4262 0.198908 0
M  V30 1175 H 107.422 3.10458 2.84945 0
M  V30 1176 H 106.146 1.87426 2.67468 0
M  V30 1177 H 104.805 3.45051 1.23836 0
M  V30 1178 H 104.453 3.39249 3.71374 0
M  V30 1179 H 104.153 5.01993 3.05413 0
M  V30 1180 H 105.677 4.67966 3.92225 0
M  V30 1181 H 107.091 5.44811 1.78475 0
M  V30 1182 H 105.488 5.89349 1.13083 0
M  V30 1183 H 106.558 4.84558 0.182153 0
M  V30 1184 N 107.901 -0.206675 1.56239 0
M  V30 1185 C 108.831 -1.25909 1.96645 0
M  V30 1186 C 109.812 -1.48097 0.836734 0
M  V30 1187 O 110.997 -1.6003 1.10019 0
M  V30 1188 C 108.127 -2.6058 2.29599 0
M  V30 1189 C 107.081 -2.53024 3.452 0
M  V30 1190 C 106.407 -3.91861 3.63798 0
M  V30 1191 C 107.707 -2.06524 4.79734 0
M  V30 1192 H 109.401 -0.923369 2.84806 0
M  V30 1193 H 106.947 -0.442735 1.37025 0
M  V30 1194 H 108.9 -3.34375 2.56459 0
M  V30 1195 H 107.624 -2.95869 1.38307 0
M  V30 1196 H 106.283 -1.81684 3.18412 0
M  V30 1197 H 105.931 -4.24483 2.69857 0
M  V30 1198 H 105.631 -3.87683 4.4156 0
M  V30 1199 H 107.155 -4.67296 3.93022 0
M  V30 1200 H 108.569 -2.70072 5.05702 0
M  V30 1201 H 106.966 -2.13374 5.60885 0
M  V30 1202 H 108.036 -1.01802 4.74093 0
M  V30 1203 N 109.379 -1.50304 -0.473955 0
M  V30 1204 C 110.619 -1.62786 -1.23612 0
M  V30 1205 C 110.983 -0.319786 -1.89318 0
M  V30 1206 O 112.184 -0.320012 -2.66888 0
M  V30 1207 C 110.455 -2.77351 -2.25414 0
M  V30 1208 S 112.014 -3.09948 -3.10608 0
M  V30 1209 H 108.832 -0.573895 -0.419721 0
M  V30 1210 H 111.434 -1.88076 -0.533623 0
M  V30 1211 H 110.138 -3.70879 -1.75719 0
M  V30 1212 H 109.669 -2.54137 -3.00296 0
M  V30 1213 H 111.684 -2.53553 -4.26527 0
M  V30 1214 N 110.857 0.726932 -1.39834 0
M  V30 1215 C 112.105 1.4837 -1.37225 0
M  V30 1216 C 112.426 1.94979 0.0284857 0
M  V30 1217 O 111.696 1.69555 0.981213 0
M  V30 1218 H 110.276 0.55043 -0.505011 0
M  V30 1219 H 112.938 0.862468 -1.74778 0
M  V30 1220 H 112.034 2.36198 -2.04003 0
M  V30 1221 N 112.336 1.25143 0.95797 0
M  V30 1222 C 113.299 1.05321 2.03569 0
M  V30 1223 C 114.299 0.007152 1.60798 0
M  V30 1224 O 115.489 0.24903 1.72411 0
M  V30 1225 C 112.621 0.598394 3.35607 0
M  V30 1226 H 113.814 2.00986 2.22586 0
M  V30 1227 H 111.367 1.07502 1.13459 0
M  V30 1228 H 112.102 -0.361014 3.22284 0
M  V30 1229 H 111.887 1.35351 3.67998 0
M  V30 1230 H 113.377 0.48104 4.1482 0
M  V30 1231 N 113.814 -1.1601 1.06675 0
M  V30 1232 C 115.06 -1.86909 0.786945 0
M  V30 1233 C 115.393 -1.81717 -0.685018 0
M  V30 1234 O 114.668 -1.23551 -1.50218 0
M  V30 1235 C 114.951 -3.36313 1.28707 0
M  V30 1236 C 114.804 -3.50175 2.82308 0
M  V30 1237 C 116.123 -4.3084 0.898071 0
M  V30 1238 H 113.242 -0.678677 0.287343 0
M  V30 1239 H 115.884 -1.36336 1.32334 0
M  V30 1240 H 114.034 -3.79513 0.830768 0
M  V30 1241 H 115.706 -3.15886 3.36175 0
M  V30 1242 H 113.949 -2.91959 3.20847 0
M  V30 1243 H 114.62 -4.55116 3.12368 0
M  V30 1244 H 117.096 -3.95561 1.29114 0
M  V30 1245 H 115.972 -5.33876 1.27543 0
M  V30 1246 H 116.233 -4.41662 -0.196651 0
M  V30 1247 N 115.292 -0.849877 -1.32721 0
M  V30 1248 C 116.222 -0.306308 -2.31482 0
M  V30 1249 C 117.203 0.591952 -1.59468 0
M  V30 1250 O 118.388 0.513199 -1.87296 0
M  V30 1251 C 115.518 0.510204 -3.43532 0
M  V30 1252 C 114.472 -0.293209 -4.26994 0
M  V30 1253 C 113.798 0.647743 -5.30762 0
M  V30 1254 C 115.098 -1.51634 -4.99804 0
M  V30 1255 H 116.792 -1.13153 -2.77195 0
M  V30 1256 H 114.338 -0.545553 -1.33266 0
M  V30 1257 H 116.291 0.900856 -4.11658 0
M  V30 1258 H 115.015 1.36874 -2.96535 0
M  V30 1259 H 113.674 -0.665555 -3.60508 0
M  V30 1260 H 113.322 1.50299 -4.8002 0
M  V30 1261 H 113.022 0.11422 -5.87489 0
M  V30 1262 H 114.546 1.03567 -6.01753 0
M  V30 1263 H 115.96 -1.19824 -5.60638 0
M  V30 1264 H 114.357 -1.98745 -5.66234 0
M  V30 1265 H 115.427 -2.28018 -4.27943 0
M  V30 1266 N 116.77 1.45427 -0.607355 0
M  V30 1267 C 117.995 2.07124 -0.107006 0
M  V30 1268 C 118.42 1.44906 1.19933 0
M  V30 1269 O 117.778 0.541687 1.73019 0
M  V30 1270 C 117.826 3.60595 0.0194119 0
M  V30 1271 O 116.93 3.98285 1.0697 0
M  V30 1272 H 116.271 0.659868 -0.0739597 0
M  V30 1273 H 118.801 1.86683 -0.837297 0
M  V30 1274 H 118.811 4.07419 0.2177 0
M  V30 1275 H 117.486 4.05266 -0.934453 0
M  V30 1276 H 116.063 3.63133 0.847889 0
M  V30 1277 N 118.248 0.346503 1.53744 0
M  V30 1278 C 119.664 -0.00530975 1.59599 0
M  V30 1279 C 119.864 -1.48465 1.36236 0
M  V30 1280 O 118.92 -2.24376 1.15808 0
M  V30 1281 C 120.233 0.433516 2.97559 0
M  V30 1282 C 121.781 0.386111 3.10609 0
M  V30 1283 C 122.256 0.800451 4.50951 0
M  V30 1284 N 123.747 0.754753 4.5701 0
M  V30 1285 C 124.482 1.04727 5.63755 0
M  V30 1286 N 123.978 1.4081 6.7834 0
M  V30 1287 N 125.771 0.971316 5.53644 0
M  V30 1288 H 117.922 1.31009 1.67184 0
M  V30 1289 H 120.185 0.534242 0.783128 0
M  V30 1290 H 119.891 1.46509 3.19731 0
M  V30 1291 H 119.765 -0.189753 3.76722 0
M  V30 1292 H 122.152 -0.636295 2.88158 0
M  V30 1293 H 122.233 1.04462 2.33498 0
M  V30 1294 H 121.877 1.82088 4.74137 0
M  V30 1295 H 121.807 0.119386 5.26465 0
M  V30 1296 H 124.298 0.488662 3.74727 0
M  V30 1297 H 124.611 1.61607 7.55714 0
M  V30 1298 H 122.956 1.44657 6.79779 0
M  V30 1299 H 126.147 0.688748 4.63005 0
M  V30 1300 H 126.32 1.20263 6.36742 0
M  V30 1301 N 119.726 -1.57421 0.075193 0
M  V30 1302 C 120.972 -1.93905 -0.594025 0
M  V30 1303 C 121.305 -0.955701 -1.69056 0
M  V30 1304 O 120.58 0.0145373 -1.94495 0
M  V30 1305 C 120.863 -3.40638 -1.1678 0
M  V30 1306 C 120.716 -4.49733 -0.0776792 0
M  V30 1307 C 122.035 -3.88259 -2.07228 0
M  V30 1308 H 119.154 -0.705105 -0.214466 0
M  V30 1309 H 121.796 -1.8947 0.141854 0
M  V30 1310 H 119.946 -3.44549 -1.79494 0
M  V30 1311 H 121.618 -4.57942 0.555573 0
M  V30 1312 H 119.861 -4.29751 0.591286 0
M  V30 1313 H 120.532 -5.49549 -0.519603 0
M  V30 1314 H 123.008 -3.86376 -1.54445 0
M  V30 1315 H 121.884 -4.91533 -2.44308 0
M  V30 1316 H 122.145 -3.26396 -2.98191 0
M  V30 1317 N 121.204 0.198386 -1.56346 0
M  V30 1318 C 122.481 0.944982 -1.71258 0
M  V30 1319 C 122.861 2.0151 -0.629048 0
M  V30 1320 O 122.209 2.25639 0.360473 0
M  V30 1321 C 122.419 1.5344 -3.1346 0
M  V30 1322 C 123.767 2.01778 -3.73591 0
M  V30 1323 O 124.791 1.63288 -3.16568 0
M  V30 1324 O 123.65 2.72594 -4.73661 0
M  V30 1325 H 120.744 0.442939 -0.69838 0
M  V30 1326 H 123.29 0.188342 -1.68652 0
M  V30 1327 H 122.062 0.762869 -3.83792 0
M  V30 1328 H 121.685 2.35596 -3.20282 0
M  V30 1329 N 122.682 1.50554 0.465978 0
M  V30 1330 C 123.645 1.69233 1.54574 0
M  V30 1331 C 124.645 0.562901 1.50626 0
M  V30 1332 O 125.835 0.830016 1.53155 0
M  V30 1333 C 122.967 1.7223 2.94193 0
M  V30 1334 H 124.16 2.65571 1.39327 0
M  V30 1335 H 121.713 1.40111 0.692711 0
M  V30 1336 H 122.448 0.77603 3.14878 0
M  V30 1337 H 122.233 2.54285 2.98466 0
M  V30 1338 H 123.723 1.88618 3.72576 0
M  V30 1339 N 124.16 -0.719506 1.40217 0
M  V30 1340 C 125.408 -1.47641 1.3801 0
M  V30 1341 C 125.729 -1.94992 -0.018145 0
M  V30 1342 O 124.999 -1.70073 -0.972207 0
M  V30 1343 H 123.579 -0.547744 0.507923 0
M  V30 1344 H 126.241 -0.853187 1.75233 0
M  V30 1345 H 125.337 -2.35112 2.05253 0
M  V30 1346 N 125.638 -1.25649 -0.95132 0
M  V30 1347 C 126.57 -1.02112 -2.05197 0
M  V30 1348 C 127.583 0.0150571 -1.62793 0
M  V30 1349 O 128.772 -0.223874 -1.77091 0
M  V30 1350 C 125.872 -0.522361 -3.3485 0
M  V30 1351 C 125.045 -1.62546 -4.06076 0
M  V30 1352 C 124.104 -1.12649 -5.14001 0
M  V30 1353 O 123.13 -1.82156 -5.39266 0
M  V30 1354 N 124.332 0.03047 -5.80492 0
M  V30 1355 H 127.097 -1.96885 -2.25957 0
M  V30 1356 H 124.658 -1.16899 -1.1201 0
M  V30 1357 H 126.65 -0.172961 -4.0433 0
M  V30 1358 H 125.22 0.33151 -3.10837 0
M  V30 1359 H 124.44 -2.14628 -3.30649 0
M  V30 1360 H 125.728 -2.36644 -4.50419 0
M  V30 1361 H 125.126 0.611169 -5.62389 0
M  V30 1362 H 123.683 0.320875 -6.5101 0
M  V30 1363 N 127.117 1.15442 -1.07289 0
M  V30 1364 C 128.027 2.23786 -0.704057 0
M  V30 1365 C 129.043 1.7166 0.284413 0
M  V30 1366 O 130.219 2.00972 0.131205 0
M  V30 1367 C 127.284 3.46535 -0.106792 0
M  V30 1368 C 126.345 4.13654 -1.14842 0
M  V30 1369 C 125.578 5.30544 -0.57956 0
M  V30 1370 O 125.801 5.67187 0.604585 0
M  V30 1371 O 124.735 5.87154 -1.32414 0
M  V30 1372 H 128.561 2.57664 -1.60757 0
M  V30 1373 H 126.146 1.23152 -0.845803 0
M  V30 1374 H 128.028 4.20804 0.224048 0
M  V30 1375 H 126.703 3.14407 0.770049 0
M  V30 1376 H 125.61 3.4131 -1.5316 0
M  V30 1377 H 126.943 4.49861 -1.99714 0
M  V30 1378 N 128.595 0.856903 1.32268 0
M  V30 1379 C 129.527 0.260412 2.27716 0
M  V30 1380 C 130.54 -0.569137 1.52528 0
M  V30 1381 O 131.729 -0.39326 1.74114 0
M  V30 1382 C 128.829 -0.650477 3.32599 0
M  V30 1383 C 128.002 0.14372 4.37164 0
M  V30 1384 C 127.061 -0.69328 5.21613 0
M  V30 1385 O 126.087 -0.12599 5.69061 0
M  V30 1386 N 127.289 -2.00761 5.44679 0
M  V30 1387 H 130.054 1.08059 2.79541 0
M  V30 1388 H 127.615 0.717103 1.45152 0
M  V30 1389 H 129.607 -1.21581 3.86005 0
M  V30 1390 H 128.177 -1.37133 2.80915 0
M  V30 1391 H 127.397 0.890486 3.8401 0
M  V30 1392 H 128.685 0.68915 5.04111 0
M  V30 1393 H 128.083 -2.49181 5.07863 0
M  V30 1394 H 126.64 -2.52103 6.01072 0
M  V30 1395 N 130.073 -1.45103 0.615059 0
M  V30 1396 C 131.003 -2.33339 -0.0865619 0
M  V30 1397 C 131.984 -1.4727 -0.851209 0
M  V30 1398 O 133.169 -1.76026 -0.820281 0
M  V30 1399 C 130.299 -3.30095 -1.07956 0
M  V30 1400 C 129.253 -4.25858 -0.427628 0
M  V30 1401 C 128.579 -5.12361 -1.5294 0
M  V30 1402 C 129.879 -5.18165 0.655944 0
M  V30 1403 H 131.573 -2.92254 0.650224 0
M  V30 1404 H 129.119 -1.40532 0.314138 0
M  V30 1405 H 131.072 -3.90698 -1.57901 0
M  V30 1406 H 129.796 -2.69355 -1.84703 0
M  V30 1407 H 128.455 -3.66564 0.0510292 0
M  V30 1408 H 128.103 -4.47984 -2.28734 0
M  V30 1409 H 127.803 -5.77238 -1.09865 0
M  V30 1410 H 129.327 -5.75833 -2.03098 0
M  V30 1411 H 130.741 -5.72796 0.240257 0
M  V30 1412 H 129.138 -5.91559 1.00888 0
M  V30 1413 H 130.208 -4.60144 1.52957 0
M  V30 1414 N 131.551 -0.354651 -1.53558 0
M  V30 1415 C 132.799 0.237972 -2.00694 0
M  V30 1416 C 133.12 1.50173 -1.24391 0
M  V30 1417 O 132.39 1.92673 -0.354135 0
M  V30 1418 H 130.97 0.0909256 -0.741446 0
M  V30 1419 H 133.632 -0.478368 -1.88938 0
M  V30 1420 H 132.728 0.47264 -3.085 0
M  V30 1421 N 133.029 1.57378 -0.0835403 0
M  V30 1422 C 134.445 1.57246 0.273109 0
M  V30 1423 C 134.645 1.09385 1.69225 0
M  V30 1424 O 133.701 0.765051 2.40631 0
M  V30 1425 C 135.014 3.00614 0.0720628 0
M  V30 1426 C 136.562 3.12684 0.1407 0
M  V30 1427 C 137.037 4.57989 -0.0322094 0
M  V30 1428 N 138.528 4.63194 0.0230085 0
M  V30 1429 C 139.263 5.73335 -0.0861941 0
M  V30 1430 N 138.759 6.9235 -0.24958 0
M  V30 1431 N 140.552 5.62093 -0.0282886 0
M  V30 1432 H 132.703 1.86801 -1.0109 0
M  V30 1433 H 134.966 0.861687 -0.395222 0
M  V30 1434 H 134.672 3.39786 -0.907662 0
M  V30 1435 H 134.546 3.68193 0.81936 0
M  V30 1436 H 136.933 2.73391 1.11092 0
M  V30 1437 H 137.014 2.47719 -0.637896 0
M  V30 1438 H 136.658 4.97973 -0.999247 0
M  V30 1439 H 136.588 5.21 0.765937 0
M  V30 1440 H 139.079 3.77613 0.14722 0
M  V30 1441 H 139.392 7.72117 -0.324733 0
M  V30 1442 H 137.737 6.94415 -0.285097 0
M  V30 1443 H 140.928 4.67997 0.0981408 0
M  V30 1444 H 141.101 6.47895 -0.116845 0
M  V30 1445 N 134.507 -0.190092 1.56449 0
M  V30 1446 C 135.923 -0.54113 1.50146 0
M  V30 1447 C 136.123 -1.85603 0.784465 0
M  V30 1448 O 135.179 -2.5024 0.337051 0
M  V30 1449 C 136.492 -0.591241 2.9483 0
M  V30 1450 C 138.04 -0.679732 3.0553 0
M  V30 1451 C 138.515 -0.760908 4.51635 0
M  V30 1452 N 140.006 -0.824302 4.55806 0
M  V30 1453 C 140.741 -0.907365 5.66175 0
M  V30 1454 N 140.237 -0.952422 6.86222 0
M  V30 1455 N 142.03 -0.94494 5.541 0
M  V30 1456 H 134.181 0.67235 2.01478 0
M  V30 1457 H 136.444 0.240127 0.917084 0
M  V30 1458 H 136.15 0.305905 3.50367 0
M  V30 1459 H 136.024 -1.44422 3.48457 0
M  V30 1460 H 138.411 -1.56731 2.50039 0
M  V30 1461 H 138.492 0.199549 2.5502 0
M  V30 1462 H 138.136 0.122336 5.07753 0
M  V30 1463 H 138.066 -1.65606 4.99882 0
M  V30 1464 H 140.557 -0.798526 3.69367 0
M  V30 1465 H 140.87 -1.01645 7.66086 0
M  V30 1466 H 139.215 -0.921014 6.8887 0
M  V30 1467 H 142.406 -0.906612 4.59236 0
M  V30 1468 H 142.579 -1.00622 6.4014 0
M  V30 1469 N 135.985 -1.50799 -0.457987 0
M  V30 1470 C 137.234 -1.6168 -1.20593 0
M  V30 1471 C 137.547 -0.32888 -1.92815 0
M  V30 1472 O 138.753 -0.316773 -2.69646 0
M  V30 1473 C 137.209 -2.8545 -2.19195 0
M  V30 1474 C 136.817 -4.21168 -1.52715 0
M  V30 1475 C 138.561 -3.05681 -2.94549 0
M  V30 1476 C 136.468 -5.3611 -2.4968 0
M  V30 1477 H 135.398 -0.602134 -0.453818 0
M  V30 1478 H 138.049 -1.77245 -0.475031 0
M  V30 1479 H 136.431 -2.63472 -2.95632 0
M  V30 1480 H 137.605 -4.53449 -0.819775 0
M  V30 1481 H 135.92 -4.06648 -0.895922 0
M  V30 1482 H 138.517 -3.88727 -3.67145 0
M  V30 1483 H 138.86 -2.17929 -3.54701 0
M  V30 1484 H 139.393 -3.27901 -2.25223 0
M  V30 1485 H 136.132 -6.26057 -1.94249 0
M  V30 1486 H 135.652 -5.0823 -3.18532 0
M  V30 1487 H 137.331 -5.6722 -3.11241 0
M  V30 1488 N 137.463 0.71206 -1.40597 0
M  V30 1489 C 138.413 1.81783 -1.37619 0
M  V30 1490 C 139.397 1.58896 -0.253162 0
M  V30 1491 O 140.589 1.70009 -0.492547 0
M  V30 1492 C 137.718 3.19944 -1.24462 0
M  V30 1493 C 136.804 3.48582 -2.4156 0
M  V30 1494 N 137.195 3.48016 -3.67041 0
M  V30 1495 C 135.493 3.79056 -2.35016 0
M  V30 1496 C 136.194 3.75096 -4.44609 0
M  V30 1497 N 135.17 3.94022 -3.74497 0
M  V30 1498 H 138.972 1.79683 -2.32575 0
M  V30 1499 H 136.486 0.91134 -1.34419 0
M  V30 1500 H 138.483 3.99133 -1.20411 0
M  V30 1501 H 137.143 3.23267 -0.304762 0
M  V30 1502 H 138.154 3.28782 -4.00153 0
M  V30 1503 H 134.831 3.89848 -1.49415 0
M  V30 1504 H 136.221 3.80934 -5.53479 0
M  V30 1505 N 138.941 1.26152 0.944643 0
M  V30 1506 C 140.171 1.14094 1.72239 0
M  V30 1507 C 140.579 -0.306931 1.86694 0
M  V30 1508 O 139.922 -1.22222 1.3714 0
M  V30 1509 C 139.984 1.73316 3.14963 0
M  V30 1510 C 139.648 3.2239 3.23904 0
M  V30 1511 C 140.645 4.19252 3.07447 0
M  V30 1512 C 138.33 3.62788 3.47405 0
M  V30 1513 C 140.324 5.54491 3.14353 0
M  V30 1514 C 138.011 4.98162 3.53947 0
M  V30 1515 C 139.009 5.93823 3.37436 0
M  V30 1516 O 138.697 7.26732 3.43679 0
M  V30 1517 H 138.429 0.398292 0.546205 0
M  V30 1518 H 140.983 1.67201 1.19301 0
M  V30 1519 H 139.213 1.14667 3.69308 0
M  V30 1520 H 140.902 1.56214 3.74636 0
M  V30 1521 H 141.668 3.8938 2.8915 0
M  V30 1522 H 137.547 2.88816 3.59313 0
M  V30 1523 H 141.091 6.29137 3.01384 0
M  V30 1524 H 136.988 5.27695 3.71763 0
M  V30 1525 H 137.756 7.3496 3.60245 0
M  V30 1526 N 140.419 -1.14872 1.07899 0
M  V30 1527 C 141.644 -1.90202 0.826926 0
M  V30 1528 C 142.069 -1.77774 -0.614664 0
M  V30 1529 O 141.427 -1.11431 -1.43013 0
M  V30 1530 C 141.475 -3.38352 1.24702 0
M  V30 1531 O 140.579 -4.10497 0.39575 0
M  V30 1532 H 139.92 -0.591968 0.300782 0
M  V30 1533 H 142.45 -1.45437 1.43907 0
M  V30 1534 H 142.46 -3.89156 1.22563 0
M  V30 1535 H 141.135 -3.46715 2.29698 0
M  V30 1536 H 139.712 -3.69796 0.480117 0
M  V30 1537 N 141.898 -0.863906 -1.31812 0
M  V30 1538 C 142.83 -0.272485 -2.27575 0
M  V30 1539 C 143.843 0.56104 -1.52827 0
M  V30 1540 O 145.032 0.384021 -1.7432 0
M  V30 1541 C 142.132 0.63283 -3.32939 0
M  V30 1542 C 141.305 -0.166902 -4.37081 0
M  V30 1543 C 140.364 0.665608 -5.21973 0
M  V30 1544 O 139.39 0.0958091 -5.69119 0
M  V30 1545 N 140.592 1.9787 -5.45736 0
M  V30 1546 H 143.357 -1.0954 -2.78964 0
M  V30 1547 H 140.918 -0.724791 -1.4477 0
M  V30 1548 H 142.91 1.19532 -3.86645 0
M  V30 1549 H 141.48 1.35642 -2.81638 0
M  V30 1550 H 140.7 -0.910838 -3.83533 0
M  V30 1551 H 141.988 -0.715874 -5.03739 0
M  V30 1552 H 141.386 2.46484 -5.09178 0
M  V30 1553 H 139.943 2.48911 -6.024 0
M  V30 1554 N 143.376 1.44774 -0.622745 0
M  V30 1555 C 144.324 2.32387 0.0994683 0
M  V30 1556 C 145.318 1.46859 0.844326 0
M  V30 1557 O 146.524 1.63254 0.758174 0
M  V30 1558 H 142.899 0.750273 0.0509291 0
M  V30 1559 H 144.87 2.91062 -0.65767 0
M  V30 1560 C 143.619 3.30723 1.07319 0
M  V30 1561 H 142.942 3.96541 0.509462 0
M  V30 1562 H 144.382 3.94725 1.54817 0
M  V30 1563 C 142.841 2.59021 2.15429 0
M  V30 1564 O 143.371 2.38286 3.23393 0
M  V30 1565 N 141.577 2.189 1.91131 0
M  V30 1566 H 141.124 2.35964 1.03337 0
M  V30 1567 H 141.082 1.71251 2.63668 0
M  V30 1568 N 144.854 0.36279 1.53368 0
M  V30 1569 C 146.131 -0.284021 1.93527 0
M  V30 1570 C 146.511 -1.66628 1.29608 0
M  V30 1571 O 145.859 -2.23942 0.45413 0
M  V30 1572 C 146.069 -0.337028 3.47369 0
M  V30 1573 C 147.417 -0.578708 4.20638 0
M  V30 1574 O 148.441 -0.418352 3.53735 0
M  V30 1575 O 147.3 -0.89074 5.39192 0
M  V30 1576 H 144.394 -0.169743 0.809393 0
M  V30 1577 H 146.94 0.41537 1.64538 0
M  V30 1578 H 145.712 0.632217 3.86159 0
M  V30 1579 H 145.335 -1.08243 3.82582 0
M  V30 1580 N 146.332 -1.57332 0.0918853 0
M  V30 1581 C 147.262 -2.16872 -0.865371 0
M  V30 1582 C 148.243 -1.10118 -1.29646 0
M  V30 1583 O 149.428 -1.38242 -1.36392 0
M  V30 1584 C 146.558 -2.74649 -2.12569 0
M  V30 1585 C 145.512 -3.86747 -1.83333 0
M  V30 1586 C 144.838 -4.31212 -3.16166 0
M  V30 1587 C 146.138 -5.10089 -1.1228 0
M  V30 1588 H 147.832 -2.97114 -0.369307 0
M  V30 1589 H 145.378 -1.42918 -0.176194 0
M  V30 1590 H 147.331 -3.14952 -2.7997 0
M  V30 1591 H 146.055 -1.91657 -2.64452 0
M  V30 1592 H 144.714 -3.46978 -1.18331 0
M  V30 1593 H 144.362 -3.45115 -3.6593 0
M  V30 1594 H 144.062 -5.06788 -2.97388 0
M  V30 1595 H 145.586 -4.74146 -3.84731 0
M  V30 1596 H 147 -5.47582 -1.69785 0
M  V30 1597 H 145.397 -5.91073 -1.03693 0
M  V30 1598 H 146.467 -4.84786 -0.105041 0
M  V30 1599 N 147.81 0.181792 -1.56548 0
M  V30 1600 C 149.056 0.901431 -1.81665 0
M  V30 1601 C 149.389 1.82347 -0.668075 0
M  V30 1602 O 148.664 1.91669 0.330615 0
M  V30 1603 C 148.947 1.70618 -3.17115 0
M  V30 1604 C 148.8 0.807964 -4.42484 0
M  V30 1605 C 150.119 2.67605 -3.49393 0
M  V30 1606 H 147.238 0.32627 -0.660846 0
M  V30 1607 H 149.88 0.168134 -1.89255 0
M  V30 1608 H 148.03 2.33133 -3.10775 0
M  V30 1609 H 149.702 0.19649 -4.60881 0
M  V30 1610 H 147.945 0.115411 -4.33646 0
M  V30 1611 H 148.616 1.40632 -5.33785 0
M  V30 1612 H 151.092 2.15218 -3.56118 0
M  V30 1613 H 149.968 3.20985 -4.45264 0
M  V30 1614 H 150.229 3.47298 -2.73563 0
M  V30 1615 N 149.288 1.51039 0.449983 0
M  V30 1616 C 150.198 1.74261 1.57067 0
M  V30 1617 C 151.214 0.626363 1.62335 0
M  V30 1618 O 152.39 0.907162 1.79812 0
M  V30 1619 C 149.455 1.85114 2.93144 0
M  V30 1620 C 148.516 3.0893 2.98095 0
M  V30 1621 C 147.749 3.19256 4.27681 0
M  V30 1622 O 147.972 2.35835 5.19363 0
M  V30 1623 O 146.906 4.12144 4.38658 0
M  V30 1624 H 150.732 2.69303 1.40391 0
M  V30 1625 H 148.317 1.35389 0.631688 0
M  V30 1626 H 150.199 1.94311 3.73926 0
M  V30 1627 H 148.874 0.932588 3.09975 0
M  V30 1628 H 147.781 3.0522 2.16314 0
M  V30 1629 H 149.114 4.00433 2.86206 0
M  V30 1630 N 150.766 -0.704594 1.40972 0
M  V30 1631 C 151.996 -1.49138 1.42974 0
M  V30 1632 C 152.404 -1.89175 0.0308406 0
M  V30 1633 O 151.747 -1.56734 -0.958138 0
M  V30 1634 C 151.809 -2.79016 2.26694 0
M  V30 1635 C 151.473 -2.61236 3.74973 0
M  V30 1636 C 152.47 -2.27773 4.67349 0
M  V30 1637 C 150.155 -2.77158 4.18914 0
M  V30 1638 C 152.149 -2.10457 6.01653 0
M  V30 1639 C 149.836 -2.59459 5.53285 0
M  V30 1640 C 150.834 -2.26158 6.4447 0
M  V30 1641 O 150.522 -2.08605 7.76363 0
M  V30 1642 H 150.254 -0.466443 0.489292 0
M  V30 1643 H 152.808 -0.8758 1.85793 0
M  V30 1644 H 151.038 -3.42947 1.78673 0
M  V30 1645 H 152.727 -3.40782 2.20504 0
M  V30 1646 H 153.493 -2.15095 4.34694 0
M  V30 1647 H 149.372 -3.02064 3.48251 0
M  V30 1648 H 152.916 -1.84387 6.72791 0
M  V30 1649 H 148.813 -2.71725 5.85522 0
M  V30 1650 H 149.581 -2.23439 7.87412 0
M  V30 1651 N 152.244 -1.26651 -0.937939 0
M  V30 1652 C 153.469 -1.15279 -1.72411 0
M  V30 1653 C 153.894 0.287866 -1.85884 0
M  V30 1654 O 153.252 1.20855 -1.35143 0
M  V30 1655 C 153.3 -1.83028 -3.10698 0
M  V30 1656 O 152.404 -1.12128 -3.96864 0
M  V30 1657 H 151.745 -0.401504 -0.528858 0
M  V30 1658 H 154.275 -1.67531 -1.1745 0
M  V30 1659 H 154.285 -1.89981 -3.6107 0
M  V30 1660 H 152.96 -2.87833 -3.00208 0
M  V30 1661 H 151.537 -1.13173 -3.55312 0
M  V30 1662 N 153.722 1.14298 -1.08507 0
M  V30 1663 C 155.133 1.66926 -0.836227 0
M  V30 1664 C 155.484 1.85576 0.63686 0
M  V30 1665 O 154.609 1.56767 1.49175 0
M  V30 1666 C 155.204 3.03219 -1.51142 0
M  V30 1667 C 153.763 3.52876 -1.30979 0
M  V30 1668 C 152.91 2.2833 -1.57356 0
M  V30 1669 H 155.861 0.983491 -1.24552 0
M  V30 1670 H 155.882 3.68726 -0.939211 0
M  V30 1671 H 155.394 2.89612 -2.58353 0
M  V30 1672 H 153.495 3.71703 -0.258429 0
M  V30 1673 H 153.608 4.33586 -2.03814 0
M  V30 1674 H 151.972 2.34454 -0.995164 0
M  V30 1675 H 152.755 2.17298 -2.65775 0
M  V30 1676 N 155.201 0.870884 1.31352 0
M  V30 1677 C 156.447 0.482987 1.96965 0
M  V30 1678 C 156.78 -0.962462 1.68672 0
M  V30 1679 O 156.055 -1.6779 0.98371 0
M  V30 1680 C 156.338 0.741752 3.52378 0
M  V30 1681 C 156.191 2.2368 3.9024 0
M  V30 1682 C 157.51 0.208838 4.39604 0
M  V30 1683 H 154.629 0.176955 0.715441 0
M  V30 1684 H 157.271 1.09229 1.55464 0
M  V30 1685 H 155.421 0.223149 3.87859 0
M  V30 1686 H 157.093 2.82273 3.64856 0
M  V30 1687 H 155.336 2.70901 3.38814 0
M  V30 1688 H 156.007 2.3685 4.98604 0
M  V30 1689 H 158.483 0.652529 4.10952 0
M  V30 1690 H 157.359 0.419336 5.47296 0
M  V30 1691 H 157.62 -0.889275 4.33064 0
M  V30 1692 N 156.679 -1.44442 0.630414 0
M  V30 1693 C 157.907 -2.06414 0.141671 0
M  V30 1694 C 158.322 -1.47105 -1.18345 0
M  V30 1695 O 157.679 -0.593662 -1.72574 0
M  V30 1696 C 157.73 -3.61494 0.0199784 0
M  V30 1697 O 157.451 -4.18594 1.29269 0
M  V30 1698 C 158.952 -4.40499 -0.497544 0
M  V30 1699 H 156.172 -0.666292 0.0793452 0
M  V30 1700 H 158.716 -1.85323 0.864614 0
M  V30 1701 H 156.871 -3.8185 -0.653402 0
M  V30 1702 H 157.285 -5.12026 1.13707 0
M  V30 1703 H 158.759 -5.49433 -0.531708 0
M  V30 1704 H 159.236 -4.11895 -1.52445 0
M  V30 1705 H 159.842 -4.25061 0.142562 0
M  V30 1706 N 158.157 -0.370918 -1.53173 0
M  V30 1707 C 159.067 0.480823 -2.2962 0
M  V30 1708 C 160.083 1.08789 -1.35798 0
M  V30 1709 O 161.259 1.09768 -1.68858 0
M  V30 1710 C 158.324 1.60227 -3.07454 0
M  V30 1711 C 157.385 1.0222 -4.16953 0
M  V30 1712 C 156.618 2.0902 -4.91066 0
M  V30 1713 O 156.841 3.30222 -4.65091 0
M  V30 1714 O 155.775 1.71778 -5.76867 0
M  V30 1715 H 159.601 -0.141421 -3.03371 0
M  V30 1716 H 157.186 -0.135146 -1.48787 0
M  V30 1717 H 159.068 2.25417 -3.56041 0
M  V30 1718 H 157.743 2.20982 -2.36535 0
M  V30 1719 H 156.65 0.334064 -3.72605 0
M  V30 1720 H 157.983 0.459131 -4.90054 0
M  V30 1721 N 159.635 1.57281 -0.100228 0
M  V30 1722 C 160.582 2.14305 0.856858 0
M  V30 1723 C 161.552 1.06296 1.27634 0
M  V30 1724 O 162.737 1.34109 1.35718 0
M  V30 1725 C 159.877 2.73184 2.10866 0
M  V30 1726 C 158.99 3.95442 1.73925 0
M  V30 1727 C 158.125 4.42468 2.93931 0
M  V30 1728 C 157.164 5.57303 2.5314 0
M  V30 1729 N 156.301 5.99158 3.65997 0
M  V30 1730 H 161.141 2.95772 0.363726 0
M  V30 1731 H 158.678 1.46139 0.167858 0
M  V30 1732 H 160.636 3.05442 2.84185 0
M  V30 1733 H 159.266 1.94437 2.57671 0
M  V30 1734 H 158.318 3.69464 0.905554 0
M  V30 1735 H 159.63 4.78769 1.39935 0
M  V30 1736 H 158.784 4.76537 3.75496 0
M  V30 1737 H 157.523 3.58052 3.31134 0
M  V30 1738 H 156.528 5.22857 1.70003 0
M  V30 1739 H 157.753 6.43471 2.17075 0
M  V30 1740 H 155.699 5.17687 4.02909 0
M  V30 1741 H 155.616 6.77295 3.35869 0
M  V30 1742 H 156.884 6.3786 4.48057 0
M  V30 1743 N 161.113 -0.173488 1.56642 0
M  V30 1744 C 162.063 -1.21941 1.92651 0
M  V30 1745 C 163.047 -1.39912 0.794577 0
M  V30 1746 O 164.239 -1.41919 1.05773 0
M  V30 1747 C 161.368 -2.55935 2.28806 0
M  V30 1748 C 160.454 -2.41667 3.48508 0
M  V30 1749 N 160.845 -1.9711 4.65813 0
M  V30 1750 C 159.143 -2.72499 3.53072 0
M  V30 1751 C 159.844 -1.95253 5.47952 0
M  V30 1752 N 158.82 -2.37575 4.88937 0
M  V30 1753 H 162.622 -0.866581 2.80834 0
M  V30 1754 H 160.136 -0.381776 1.57849 0
M  V30 1755 H 162.133 -3.31511 2.52797 0
M  V30 1756 H 160.793 -2.92022 1.41961 0
M  V30 1757 H 161.804 -1.67481 4.90072 0
M  V30 1758 H 158.481 -3.12639 2.767 0
M  V30 1759 H 159.871 -1.6252 6.51948 0
M  V30 1760 N 162.591 -1.51276 -0.441967 0
M  V30 1761 C 163.521 -1.752 -1.54361 0
M  V30 1762 C 164.502 -0.601682 -1.59103 0
M  V30 1763 O 165.687 -0.843913 -1.74905 0
M  V30 1764 C 162.817 -1.87282 -2.92477 0
M  V30 1765 C 161.771 -3.02687 -3.02596 0
M  V30 1766 C 161.097 -2.99947 -4.42647 0
M  V30 1767 C 162.397 -4.4273 -2.77106 0
M  V30 1768 H 164.091 -2.67442 -1.34592 0
M  V30 1769 H 161.637 -1.28694 -0.646048 0
M  V30 1770 H 163.59 -2.02602 -3.695 0
M  V30 1771 H 162.314 -0.916844 -3.13467 0
M  V30 1772 H 160.973 -2.87065 -2.28012 0
M  V30 1773 H 160.621 -2.02136 -4.60597 0
M  V30 1774 H 160.321 -3.77439 -4.50348 0
M  V30 1775 H 161.845 -3.17354 -5.2165 0
M  V30 1776 H 163.259 -4.58727 -3.43864 0
M  V30 1777 H 161.656 -5.21893 -2.96222 0
M  V30 1778 H 162.726 -4.53087 -1.72744 0
M  V30 1779 N 164.069 0.697108 -1.41344 0
M  V30 1780 C 165.297 1.48593 -1.43972 0
M  V30 1781 C 165.712 1.88747 -0.0445612 0
M  V30 1782 O 165.069 1.56682 0.935785 0
M  V30 1783 C 165.12 2.74946 -2.34706 0
M  V30 1784 O 164.841 2.36484 -3.68791 0
M  V30 1785 C 166.342 3.687 -2.46121 0
M  V30 1786 H 163.562 0.457964 -0.490418 0
M  V30 1787 H 166.106 0.858429 -1.8561 0
M  V30 1788 H 164.261 3.33937 -1.9638 0
M  V30 1789 H 164.675 3.17918 -4.17167 0
M  V30 1790 H 166.149 4.54145 -3.13777 0
M  V30 1791 H 166.626 4.13081 -1.49199 0
M  V30 1792 H 167.232 3.15613 -2.85076 0
M  V30 1793 N 165.547 1.27147 0.931209 0
M  V30 1794 C 166.824 1.0401 1.65654 0
M  V30 1795 C 167.204 -0.426297 2.06751 0
M  V30 1796 O 166.552 -1.40879 1.79904 0
M  V30 1797 C 166.762 1.99834 2.86125 0
M  V30 1798 C 168.11 2.29007 3.57549 0
M  V30 1799 O 169.134 1.97779 2.96246 0
M  V30 1800 O 167.993 2.82222 4.67989 0
M  V30 1801 H 165.087 0.396239 0.725895 0
M  V30 1802 H 167.633 1.38397 0.982056 0
M  V30 1803 H 166.405 2.98744 2.52721 0
M  V30 1804 H 166.028 1.65987 3.61295 0
M  V30 1805 N 167.025 -1.13721 1.09112 0
M  V30 1806 C 168.273 -1.84559 0.823562 0
M  V30 1807 C 168.594 -1.83754 -0.652658 0
M  V30 1808 O 167.864 -1.29102 -1.47342 0
M  V30 1809 H 166.444 -0.683376 0.301673 0
M  V30 1810 H 169.106 -1.37771 1.37859 0
M  V30 1811 H 168.202 -2.8917 1.17419 0
M  V30 1812 N 168.503 -0.877838 -1.30888 0
M  V30 1813 C 169.436 -0.283995 -2.26426 0
M  V30 1814 C 170.414 0.591361 -1.51465 0
M  V30 1815 O 171.598 0.54304 -1.80509 0
M  V30 1816 C 168.725 0.597129 -3.33395 0
M  V30 1817 C 167.771 -0.207937 -4.25993 0
M  V30 1818 S 168.604 -1.59158 -5.11301 0
M  V30 1819 C 169.76 -0.716791 -6.21782 0
M  V30 1820 H 169.993 -1.09383 -2.76446 0
M  V30 1821 H 167.526 -0.676828 -1.38775 0
M  V30 1822 H 169.484 1.09978 -3.95493 0
M  V30 1823 H 168.145 1.38099 -2.82113 0
M  V30 1824 H 167.338 0.464163 -5.01858 0
M  V30 1825 H 166.94 -0.642963 -3.68432 0
M  V30 1826 H 169.232 0.0692833 -6.77465 0
M  V30 1827 H 170.175 -1.44682 -6.93161 0
M  V30 1828 H 170.583 -0.280855 -5.63801 0
M  V30 1829 N 169.982 1.44106 -0.638065 0
M  V30 1830 C 171.21 2.06336 -0.152615 0
M  V30 1831 C 171.625 1.47731 1.17563 0
M  V30 1832 O 170.982 0.602806 1.72257 0
M  V30 1833 C 171.033 3.61479 -0.0391491 0
M  V30 1834 O 170.754 4.17903 -1.31487 0
M  V30 1835 C 172.255 4.40757 0.474176 0
M  V30 1836 H 169.475 0.665862 -0.0828776 0
M  V30 1837 H 172.019 1.84862 -0.87443 0
M  V30 1838 H 170.174 3.82191 0.633142 0
M  V30 1839 H 170.588 5.11416 -1.16421 0
M  V30 1840 H 172.062 5.49707 0.502562 0
M  V30 1841 H 172.539 4.12697 1.50258 0
M  V30 1842 H 173.145 4.24979 -0.165102 0
M  V30 1843 N 171.46 0.379036 1.52974 0
M  V30 1844 C 172.706 -0.206727 2.01744 0
M  V30 1845 C 173.039 -1.47314 1.26539 0
M  V30 1846 O 172.314 -1.91084 0.362903 0
M  V30 1847 C 172.597 -0.485066 3.56818 0
M  V30 1848 C 172.45 0.795919 4.42702 0
M  V30 1849 C 173.769 -1.28003 4.21074 0
M  V30 1850 H 170.888 -0.0736607 0.73331 0
M  V30 1851 H 173.53 0.506581 1.83122 0
M  V30 1852 H 171.68 -1.09272 3.72816 0
M  V30 1853 H 173.352 1.43307 4.38476 0
M  V30 1854 H 171.595 1.41344 4.10127 0
M  V30 1855 H 172.266 0.555947 5.49193 0
M  V30 1856 H 174.742 -0.765867 4.08991 0
M  V30 1857 H 173.618 -1.44352 5.29579 0
M  V30 1858 H 173.879 -2.29236 3.78026 0
M  V30 1859 N 172.938 -1.57226 0.108567 0
M  V30 1860 C 174.354 -1.5766 -0.248058 0
M  V30 1861 C 174.554 -1.12063 -1.67464 0
M  V30 1862 O 173.61 -0.803236 -2.39383 0
M  V30 1863 C 174.923 -3.0069 -0.0242287 0
M  V30 1864 C 176.471 -3.12868 -0.0909372 0
M  V30 1865 C 176.946 -4.57879 0.105067 0
M  V30 1866 N 178.437 -4.63172 0.0506846 0
M  V30 1867 C 179.172 -5.73126 0.177396 0
M  V30 1868 N 178.668 -6.91866 0.359696 0
M  V30 1869 N 180.461 -5.61977 0.117709 0
M  V30 1870 H 172.612 -1.85169 1.04049 0
M  V30 1871 H 174.875 -0.85529 0.40888 0
M  V30 1872 H 174.581 -3.38299 0.961604 0
M  V30 1873 H 174.455 -3.6945 -0.76068 0
M  V30 1874 H 176.842 -2.75124 -1.06729 0
M  V30 1875 H 176.923 -2.46672 0.677225 0
M  V30 1876 H 176.567 -4.96321 1.07834 0
M  V30 1877 H 176.497 -5.22153 -0.682954 0
M  V30 1878 H 178.988 -3.778 -0.0871266 0
M  V30 1879 H 179.301 -7.71503 0.447529 0
M  V30 1880 H 177.646 -6.93874 0.395536 0
M  V30 1881 H 180.837 -4.68094 -0.0236741 0
M  V30 1882 H 181.01 -6.47627 0.219905 0
M  V30 1883 N 174.416 0.165178 -1.56732 0
M  V30 1884 C 175.326 1.22423 -2.00125 0
M  V30 1885 C 176.342 1.48084 -0.913619 0
M  V30 1886 O 177.518 1.60112 -1.22172 0
M  V30 1887 C 174.583 2.54197 -2.35764 0
M  V30 1888 C 173.644 2.36343 -3.58386 0
M  V30 1889 C 172.877 3.61834 -3.92316 0
M  V30 1890 O 173.1 4.67267 -3.27135 0
M  V30 1891 O 172.034 3.55579 -4.85641 0
M  V30 1892 H 175.86 0.885886 -2.90492 0
M  V30 1893 H 173.445 0.372518 -1.44681 0
M  V30 1894 H 175.327 3.3192 -2.59629 0
M  V30 1895 H 174.002 2.87598 -1.48557 0
M  V30 1896 H 172.909 1.56632 -3.39731 0
M  V30 1897 H 174.242 2.07865 -4.46154 0
M  V30 1898 N 175.894 1.51508 0.433938 0
M  V30 1899 C 176.824 1.76016 1.53429 0
M  V30 1900 C 177.805 0.610112 1.58782 0
M  V30 1901 O 178.99 0.853177 1.74455 0
M  V30 1902 C 176.12 1.88831 2.9148 0
M  V30 1903 C 175.074 3.04288 3.00987 0
M  V30 1904 C 174.4 3.0229 4.4105 0
M  V30 1905 C 175.7 4.44193 2.74754 0
M  V30 1906 H 177.394 2.68152 1.33171 0
M  V30 1907 H 174.94 1.29035 0.639214 0
M  V30 1908 H 176.893 2.04559 3.6842 0
M  V30 1909 H 175.617 0.933455 3.12976 0
M  V30 1910 H 174.276 2.8827 2.26486 0
M  V30 1911 H 173.924 2.04576 4.59519 0
M  V30 1912 H 173.624 3.79822 4.4834 0
M  V30 1913 H 175.148 3.20116 5.1996 0
M  V30 1914 H 176.562 4.60544 3.41426 0
M  V30 1915 H 174.959 5.23457 2.9345 0
M  V30 1916 H 176.029 4.53996 1.70339 0
M  V30 1917 N 177.372 -0.689602 1.41712 0
M  V30 1918 C 178.612 -1.46184 1.42862 0
M  V30 1919 C 178.976 -1.91962 0.0382204 0
M  V30 1920 O 180.177 -2.68694 -0.0755019 0
M  V30 1921 C 178.448 -2.6371 2.4123 0
M  V30 1922 S 180.007 -3.52768 2.6096 0
M  V30 1923 H 176.825 -0.49947 0.506015 0
M  V30 1924 H 179.427 -0.804107 1.78198 0
M  V30 1925 H 178.131 -2.28293 3.41044 0
M  V30 1926 H 177.662 -3.3437 2.07269 0
M  V30 1927 H 179.677 -4.59146 1.88148 0
M  V30 1928 N 178.85 -1.27639 -0.924453 0
M  V30 1929 C 180.075 -1.17101 -1.71179 0
M  V30 1930 C 180.5 0.268134 -1.86179 0
M  V30 1931 O 179.858 1.19415 -1.36418 0
M  V30 1932 C 179.906 -1.86313 -3.08739 0
M  V30 1933 O 179.01 -1.16331 -3.95652 0
M  V30 1934 H 178.351 -0.407091 -0.524569 0
M  V30 1935 H 180.881 -1.68767 -1.15666 0
M  V30 1936 H 180.891 -1.938 -3.59034 0
M  V30 1937 H 179.566 -2.91001 -2.97138 0
M  V30 1938 H 178.143 -1.16935 -3.54091 0
M  V30 1939 N 180.328 1.1314 -1.09713 0
M  V30 1940 C 181.291 2.16831 -0.742751 0
M  V30 1941 C 182.291 1.59159 0.229129 0
M  V30 1942 O 183.481 1.74199 0.00693237 0
M  V30 1943 C 180.613 3.40756 -0.0989168 0
M  V30 1944 H 181.806 2.49695 -1.66109 0
M  V30 1945 H 179.359 1.2802 -0.896699 0
M  V30 1946 H 180.094 3.13485 0.830514 0
M  V30 1947 H 179.879 3.83888 -0.798265 0
M  V30 1948 H 181.369 4.17386 0.133524 0
M  V30 1949 N 181.806 0.884767 1.30421 0
M  V30 1950 C 182.769 0.356277 2.26414 0
M  V30 1951 C 183.769 -0.501124 1.52792 0
M  V30 1952 O 184.959 -0.30831 1.7145 0
M  V30 1953 C 182.091 -0.492316 3.37326 0
M  V30 1954 H 183.284 1.20389 2.74675 0
M  V30 1955 H 180.837 0.661607 1.41607 0
M  V30 1956 H 181.572 -1.36052 2.94381 0
M  V30 1957 H 181.357 0.121832 3.91911 0
M  V30 1958 H 182.847 -0.853871 4.08777 0
M  V30 1959 N 183.284 -1.43765 0.645699 0
M  V30 1960 C 184.533 -2.01116 0.153412 0
M  V30 1961 C 184.846 -1.51493 -1.23731 0
M  V30 1962 O 186.052 -2.01067 -1.8244 0
M  V30 1963 C 184.508 -3.59206 0.223473 0
M  V30 1964 C 184.116 -4.17823 1.61642 0
M  V30 1965 C 185.86 -4.23972 -0.211597 0
M  V30 1966 C 183.767 -5.68183 1.64081 0
M  V30 1967 H 182.697 -0.752093 0.0535891 0
M  V30 1968 H 185.348 -1.6482 0.806633 0
M  V30 1969 H 183.73 -3.92867 -0.497118 0
M  V30 1970 H 184.904 -3.95674 2.36176 0
M  V30 1971 H 183.219 -3.65399 1.99681 0
M  V30 1972 H 185.816 -5.34275 -0.213112 0
M  V30 1973 H 186.159 -3.97352 -1.24165 0
M  V30 1974 H 186.692 -3.95166 0.456988 0
M  V30 1975 H 183.431 -5.99559 2.64971 0
M  V30 1976 H 182.951 -5.9241 0.938611 0
M  V30 1977 H 184.63 -6.32085 1.3812 0
M  V30 1978 N 184.763 -0.387143 -1.52771 0
M  V30 1979 C 185.991 0.195869 -2.05971 0
M  V30 1980 C 186.406 1.40691 -1.25903 0
M  V30 1981 O 185.763 1.79931 -0.305134 0
M  V30 1982 C 185.814 0.56812 -3.57008 0
M  V30 1983 O 185.535 -0.594803 -4.34043 0
M  V30 1984 C 187.036 1.20723 -4.26545 0
M  V30 1985 H 184.256 0.0300578 -0.670326 0
M  V30 1986 H 186.8 -0.551749 -1.96916 0
M  V30 1987 H 184.955 1.26564 -3.66143 0
M  V30 1988 H 185.369 -0.289322 -5.23701 0
M  V30 1989 H 186.843 1.41807 -5.33474 0
M  V30 1990 H 187.32 2.17395 -3.81623 0
M  V30 1991 H 187.926 0.550535 -4.21722 0
M  V30 1992 N 186.241 1.57166 -0.116904 0
M  V30 1993 C 187.174 2.10912 0.871291 0
M  V30 1994 C 188.152 1.025 1.26224 0
M  V30 1995 O 189.336 1.3014 1.36366 0
M  V30 1996 C 186.463 2.6041 2.16574 0
M  V30 1997 C 185.509 3.80687 1.92302 0
M  V30 1998 S 186.342 5.23199 1.14119 0
M  V30 1999 C 187.498 5.76064 2.44748 0
M  V30 2000 H 187.731 2.94401 0.414138 0
M  V30 2001 H 185.264 1.54096 0.096829 0
M  V30 2002 H 187.222 2.89583 2.9095 0
M  V30 2003 H 185.883 1.77106 2.59408 0
M  V30 2004 H 185.076 4.13462 2.8821 0
M  V30 2005 H 184.678 3.5212 1.26047 0
M  V30 2006 H 186.97 5.8566 3.406 0
M  V30 2007 H 187.913 6.74184 2.16521 0
M  V30 2008 H 188.321 5.04117 2.54019 0
M  V30 2009 N 187.719 -0.156864 1.56817 0
M  V30 2010 C 188.944 -0.890331 1.87318 0
M  V30 2011 C 189.369 -1.74394 0.704855 0
M  V30 2012 O 188.727 -1.77972 -0.345786 0
M  V30 2013 C 188.775 -1.73102 3.16336 0
M  V30 2014 O 187.879 -2.83422 2.99576 0
M  V30 2015 H 187.22 -0.24857 0.615718 0
M  V30 2016 H 189.75 -0.150649 2.04045 0
M  V30 2017 H 189.76 -2.12803 3.48107 0
M  V30 2018 H 188.435 -1.10412 4.00976 0
M  V30 2019 H 187.012 -2.47199 2.7919 0
M  V30 2020 N 189.197 -1.51736 -0.425897 0
M  V30 2021 C 190.474 -1.55519 -1.1863 0
M  V30 2022 C 190.854 -0.326219 -2.08564 0
M  V30 2023 O 190.202 0.688012 -2.17896 0
M  V30 2024 C 190.412 -2.87521 -1.9782 0
M  V30 2025 C 191.76 -3.39899 -2.54468 0
M  V30 2026 O 192.784 -2.89148 -2.08019 0
M  V30 2027 O 191.643 -4.2848 -3.39215 0
M  V30 2028 H 188.737 -0.625739 -0.540721 0
M  V30 2029 H 191.283 -1.64055 -0.434038 0
M  V30 2030 H 190.055 -3.68422 -1.31836 0
M  V30 2031 H 189.678 -2.822 -2.80088 0
M  V30 2032 N 190.675 0.682077 -1.42076 0
M  V30 2033 C 191.623 1.81707 -1.45208 0
M  V30 2034 C 192.617 1.66183 -0.328591 0
M  V30 2035 O 193.823 1.7288 -0.501264 0
M  V30 2036 H 190.198 0.599014 -0.454628 0
M  V30 2037 H 192.169 1.76183 -2.40836 0
M  V30 2038 C 190.918 3.19816 -1.36428 0
M  V30 2039 H 190.241 3.32385 -2.22171 0
M  V30 2040 H 191.681 3.99272 -1.42681 0
M  V30 2041 C 190.14 3.36809 -0.078191 0
M  V30 2042 O 190.67 3.92124 0.87188 0
M  V30 2043 N 188.876 2.906 0.00229266 0
M  V30 2044 H 188.423 2.45772 -0.771616 0
M  V30 2045 H 188.381 3.02347 0.862179 0
M  V30 2046 N 192.153 1.28127 0.917671 0
M  V30 2047 C 193.381 1.17892 1.70026 0
M  V30 2048 C 193.796 -0.262958 1.8696 0
M  V30 2049 O 193.153 -1.17811 1.3938 0
M  V30 2050 C 193.204 1.86872 3.09453 0
M  V30 2051 O 192.925 3.25428 2.93306 0
M  V30 2052 C 194.426 1.8289 4.03815 0
M  V30 2053 H 191.646 0.40942 0.531617 0
M  V30 2054 H 194.19 1.69181 1.14883 0
M  V30 2055 H 192.345 1.39464 3.61426 0
M  V30 2056 H 192.759 3.59918 3.81523 0
M  V30 2057 H 194.233 2.35751 4.99125 0
M  V30 2058 H 194.71 0.800412 4.31845 0
M  V30 2059 H 195.316 2.29959 3.57769 0
M  V30 2060 N 193.631 -1.12557 1.10312 0
M  V30 2061 C 194.594 -2.16434 0.75424 0
M  V30 2062 C 195.594 -1.59278 -0.220685 0
M  V30 2063 O 196.784 -1.742 0.00230591 0
M  V30 2064 C 193.916 -3.40699 0.116987 0
M  V30 2065 H 195.109 -2.48811 1.67431 0
M  V30 2066 H 192.662 -1.27542 0.903475 0
M  V30 2067 H 193.397 -3.13921 -0.813877 0
M  V30 2068 H 193.182 -3.83459 0.818613 0
M  V30 2069 H 194.672 -4.17451 -0.111387 0
M  V30 2070 N 195.109 -0.891671 -1.2995 0
M  V30 2071 C 196.072 -0.36828 -2.26222 0
M  V30 2072 C 197.072 0.493014 -1.53056 0
M  V30 2073 O 198.262 0.299213 -1.71611 0
M  V30 2074 C 195.394 0.47442 -3.37583 0
M  V30 2075 H 196.587 -1.21844 -2.74033 0
M  V30 2076 H 194.14 -0.669107 -1.41254 0
M  V30 2077 H 194.875 1.34489 -2.95099 0
M  V30 2078 H 194.66 -0.142615 -3.91841 0
M  V30 2079 H 196.15 0.83218 -4.09224 0
M  V30 2080 N 196.587 1.43421 -0.653314 0
M  V30 2081 C 197.535 2.32546 0.0501531 0
M  V30 2082 C 198.529 1.48617 0.812985 0
M  V30 2083 O 199.735 1.64825 0.723375 0
M  V30 2084 H 196.11 0.751185 0.0350032 0
M  V30 2085 H 198.081 2.89602 -0.719261 0
M  V30 2086 C 196.83 3.32925 1.00279 0
M  V30 2087 H 196.153 3.97532 0.425236 0
M  V30 2088 H 197.593 3.9792 1.46409 0
M  V30 2089 C 196.052 2.63532 2.09886 0
M  V30 2090 O 196.582 2.45092 3.18265 0
M  V30 2091 N 194.788 2.22905 1.86445 0
M  V30 2092 H 194.335 2.38103 0.98309 0
M  V30 2093 H 194.293 1.76805 2.59976 0
M  V30 2094 N 198.065 0.39524 1.52563 0
M  V30 2095 C 198.995 -0.428384 2.29537 0
M  V30 2096 C 199.976 -1.05831 1.33169 0
M  V30 2097 O 201.161 -1.06995 1.62067 0
M  V30 2098 C 198.291 -1.55274 3.10656 0
M  V30 2099 C 197.245 -1.04855 4.14957 0
M  V30 2100 C 196.571 -2.26543 4.84337 0
M  V30 2101 C 197.871 -0.112324 5.22179 0
M  V30 2102 H 199.565 0.213867 2.98635 0
M  V30 2103 H 197.111 0.104298 1.43622 0
M  V30 2104 H 199.064 -2.1358 3.63265 0
M  V30 2105 H 197.788 -2.22266 2.39302 0
M  V30 2106 H 196.447 -0.487985 3.63338 0
M  V30 2107 H 196.095 -2.92059 4.09525 0
M  V30 2108 H 195.795 -1.93466 5.54837 0
M  V30 2109 H 197.319 -2.85481 5.39753 0
M  V30 2110 H 198.733 -0.603752 5.70112 0
M  V30 2111 H 197.13 0.128968 5.99961 0
M  V30 2112 H 198.2 0.837052 4.77621 0
M  V30 2113 N 199.544 -1.57102 0.125237 0
M  V30 2114 C 200.474 -2.18659 -0.819174 0
M  V30 2115 C 201.455 -1.12843 -1.27281 0
M  V30 2116 O 202.64 -1.41104 -1.33429 0
M  V30 2117 C 199.77 -2.79096 -2.06695 0
M  V30 2118 C 198.724 -3.90548 -1.75088 0
M  V30 2119 C 198.05 -4.37821 -3.06948 0
M  V30 2120 C 199.35 -5.12356 -1.01435 0
M  V30 2121 H 201.044 -2.9783 -0.306202 0
M  V30 2122 H 198.59 -1.4326 -0.145839 0
M  V30 2123 H 200.543 -3.2082 -2.73226 0
M  V30 2124 H 199.267 -1.97223 -2.60328 0
M  V30 2125 H 197.926 -3.49409 -1.10944 0
M  V30 2126 H 197.574 -3.52799 -3.58527 0
M  V30 2127 H 197.274 -5.12982 -2.86571 0
M  V30 2128 H 198.798 -4.822 -3.74587 0
M  V30 2129 H 200.212 -5.5106 -1.58132 0
M  V30 2130 H 198.609 -5.9314 -0.911319 0
M  V30 2131 H 199.679 -4.849 -0.00218681 0
M  V30 2132 N 201.022 0.148545 -1.56898 0
M  V30 2133 C 201.952 1.18524 -2.01182 0
M  V30 2134 C 202.933 1.4489 -0.891123 0
M  V30 2135 O 204.118 1.55836 -1.15882 0
M  V30 2136 C 201.248 2.51879 -2.39112 0
M  V30 2137 C 200.202 2.40038 -3.54353 0
M  V30 2138 C 199.528 3.78089 -3.78091 0
M  V30 2139 C 200.828 1.88577 -4.87069 0
M  V30 2140 H 202.522 0.817029 -2.88036 0
M  V30 2141 H 200.068 0.391575 -1.38574 0
M  V30 2142 H 202.021 3.24627 -2.68692 0
M  V30 2143 H 200.745 2.90532 -1.49193 0
M  V30 2144 H 199.404 1.69742 -3.24936 0
M  V30 2145 H 199.052 4.14175 -2.85426 0
M  V30 2146 H 198.752 3.71028 -4.55645 0
M  V30 2147 H 200.276 4.52387 -4.10095 0
M  V30 2148 H 201.69 2.51117 -5.15377 0
M  V30 2149 H 200.087 1.9241 -5.68417 0
M  V30 2150 H 201.157 0.84136 -4.77545 0
M  V30 2151 N 202.5 1.5196 0.417844 0
M  V30 2152 C 203.728 1.69426 1.18753 0
M  V30 2153 C 204.143 0.399955 1.84515 0
M  V30 2154 O 203.5 -0.623288 1.71527 0
M  V30 2155 C 203.551 2.82375 2.25714 0
M  V30 2156 O 203.272 4.06793 1.62638 0
M  V30 2157 C 204.773 3.11277 3.15628 0
M  V30 2158 H 201.993 0.568031 0.357186 0
M  V30 2159 H 204.537 1.98475 0.49273 0
M  V30 2160 H 202.692 2.5587 2.90877 0
M  V30 2161 H 203.106 4.69667 2.3348 0
M  V30 2162 H 204.58 3.93843 3.86771 0
M  V30 2163 H 205.057 2.24473 3.77503 0
M  V30 2164 H 205.663 3.39515 2.56144 0
M  V30 2165 N 203.978 -0.674533 1.42435 0
M  V30 2166 C 205.206 -1.46283 1.46317 0
M  V30 2167 C 205.621 -1.88653 0.0745836 0
M  V30 2168 O 204.978 -1.58151 -0.91074 0
M  V30 2169 C 205.029 -2.71178 2.3905 0
M  V30 2170 O 204.75 -2.30586 3.72507 0
M  V30 2171 C 206.251 -3.64738 2.51955 0
M  V30 2172 H 203.471 -0.450104 0.497642 0
M  V30 2173 H 206.015 -0.828792 1.86953 0
M  V30 2174 H 204.17 -3.3077 2.01667 0
M  V30 2175 H 204.584 -3.11241 4.22172 0
M  V30 2176 H 206.058 -4.49096 3.20962 0
M  V30 2177 H 206.535 -4.10656 1.55752 0
M  V30 2178 H 207.141 -3.11038 2.90061 0
M  V30 2179 N 205.456 -1.28612 -0.910864 0
M  V30 2180 C 206.705 -1.15311 -1.65488 0
M  V30 2181 C 207.018 0.296999 -1.93332 0
M  V30 2182 O 208.224 0.551168 -2.65847 0
M  V30 2183 C 206.68 -2.01599 -2.98137 0
M  V30 2184 C 206.288 -3.51367 -2.7793 0
M  V30 2185 C 208.032 -1.96993 -3.76024 0
M  V30 2186 C 205.939 -4.29797 -4.06237 0
M  V30 2187 H 204.869 -0.42796 -0.620779 0
M  V30 2188 H 207.52 -1.53166 -1.01057 0
M  V30 2189 H 205.902 -1.56603 -3.63719 0
M  V30 2190 H 207.076 -4.0434 -2.21011 0
M  V30 2191 H 205.391 -3.57529 -2.13452 0
M  V30 2192 H 207.988 -2.52856 -4.71135 0
M  V30 2193 H 208.331 -0.94733 -4.05378 0
M  V30 2194 H 208.864 -2.39973 -3.17266 0
M  V30 2195 H 205.603 -5.32648 -3.82055 0
M  V30 2196 H 205.123 -3.81596 -4.62757 0
M  V30 2197 H 206.802 -4.39869 -4.74473 0
M  V30 2198 N 206.934 1.1197 -1.10907 0
M  V30 2199 C 208.182 1.83225 -0.852819 0
M  V30 2200 C 208.503 1.84769 0.623341 0
M  V30 2201 O 207.773 1.3143 1.45269 0
M  V30 2202 H 206.353 0.67849 -0.312507 0
M  V30 2203 H 209.015 1.3556 -1.40033 0
M  V30 2204 H 208.111 2.87265 -1.22005 0
M  V30 2205 N 208.412 0.89855 1.29475 0
M  V30 2206 C 209.66 0.522847 1.9522 0
M  V30 2207 C 209.981 -0.93371 1.71192 0
M  V30 2208 O 209.251 -1.65823 1.04305 0
M  V30 2209 H 207.831 0.190366 0.722336 0
M  V30 2210 H 210.493 1.14459 1.5775 0
M  V30 2211 H 209.589 0.704476 3.04045 0
M  V30 2212 N 209.89 -1.43072 0.660911 0
M  V30 2213 C 211.301 -1.84932 0.256348 0
M  V30 2214 C 211.652 -1.55325 -1.19868 0
M  V30 2215 O 210.777 -1.00607 -1.91591 0
M  V30 2216 C 211.372 -3.35684 0.458475 0
M  V30 2217 C 209.931 -3.76245 0.108161 0
M  V30 2218 C 209.078 -2.66749 0.757641 0
M  V30 2219 H 212.029 -1.33116 0.864051 0
M  V30 2220 H 212.05 -3.79365 -0.293683 0
M  V30 2221 H 211.562 -3.572 1.51755 0
M  V30 2222 H 209.663 -3.60338 -0.948014 0
M  V30 2223 H 209.776 -4.76058 0.538992 0
M  V30 2224 H 208.14 -2.53989 0.190185 0
M  V30 2225 H 208.923 -2.91092 1.81989 0
M  V30 2226 N 211.368 -0.403325 -1.52352 0
M  V30 2227 C 212.315 0.425011 -2.26853 0
M  V30 2228 C 213.285 1.04598 -1.29029 0
M  V30 2229 O 214.47 1.07135 -1.57882 0
M  V30 2230 C 211.61 1.53888 -3.08889 0
M  V30 2231 C 210.723 0.939396 -4.21663 0
M  V30 2232 C 209.858 2.02547 -4.91068 0
M  V30 2233 C 208.897 1.40263 -5.95813 0
M  V30 2234 N 208.034 2.4286 -6.58759 0
M  V30 2235 H 212.874 -0.21674 -2.97211 0
M  V30 2236 H 210.411 -0.118722 -1.4662 0
M  V30 2237 H 212.369 2.19558 -3.54753 0
M  V30 2238 H 210.999 2.15074 -2.40714 0
M  V30 2239 H 210.051 0.171898 -3.80011 0
M  V30 2240 H 211.363 0.44436 -4.96817 0
M  V30 2241 H 210.517 2.75958 -5.40308 0
M  V30 2242 H 209.256 2.55415 -4.15469 0
M  V30 2243 H 208.261 0.653833 -5.45898 0
M  V30 2244 H 209.486 0.881719 -6.73352 0
M  V30 2245 H 207.432 2.94871 -5.85992 0
M  V30 2246 H 207.349 1.98152 -7.2957 0
M  V30 2247 H 208.617 3.15858 -7.12639 0
M  V30 2248 N 212.846 1.57033 -0.133567 0
M  V30 2249 C 213.756 2.19632 0.824564 0
M  V30 2250 C 214.772 1.17666 1.28182 0
M  V30 2251 O 215.948 1.50193 1.3418 0
M  V30 2252 C 213.013 2.79499 2.05137 0
M  V30 2253 C 212.074 3.96548 1.64464 0
M  V30 2254 C 211.307 4.5355 2.81297 0
M  V30 2255 O 211.53 4.09438 3.97136 0
M  V30 2256 O 210.464 5.44018 2.57542 0
M  V30 2257 H 214.29 3.01991 0.321766 0
M  V30 2258 H 211.875 1.49112 0.0927889 0
M  V30 2259 H 213.757 3.17602 2.7696 0
M  V30 2260 H 212.432 2.00162 2.54395 0
M  V30 2261 H 211.339 3.63186 0.897048 0
M  V30 2262 H 212.672 4.77364 1.19934 0
M  V30 2263 N 214.325 -0.140222 1.56975 0
M  V30 2264 C 215.255 -1.17456 2.01808 0
M  V30 2265 C 216.236 -1.44415 0.898794 0
M  V30 2266 O 217.421 -1.5522 1.16707 0
M  V30 2267 C 214.551 -2.50607 2.40444 0
M  V30 2268 C 213.505 -2.38155 3.55621 0
M  V30 2269 C 212.831 -3.76078 3.80091 0
M  V30 2270 C 214.131 -1.85991 4.88062 0
M  V30 2271 H 215.825 -0.801743 2.88466 0
M  V30 2272 H 213.371 -0.38422 1.38779 0
M  V30 2273 H 215.324 -3.23197 2.7041 0
M  V30 2274 H 214.048 -2.89737 1.50732 0
M  V30 2275 H 212.707 -1.68016 3.25832 0
M  V30 2276 H 212.355 -4.12656 2.87618 0
M  V30 2277 H 212.055 -3.68606 4.57606 0
M  V30 2278 H 213.579 -4.50206 4.12488 0
M  V30 2279 H 214.993 -2.4838 5.16701 0
M  V30 2280 H 213.39 -1.89393 5.6943 0
M  V30 2281 H 214.46 -0.816023 4.77984 0
M  V30 2282 N 215.803 -1.52179 -0.40978 0
M  V30 2283 C 217.031 -1.70054 -1.17853 0
M  V30 2284 C 217.446 -0.409735 -1.843 0
M  V30 2285 O 216.803 0.614183 -1.71855 0
M  V30 2286 C 216.854 -2.83568 -2.24213 0
M  V30 2287 O 216.575 -4.0765 -1.60478 0
M  V30 2288 C 218.076 -3.12947 -3.13973 0
M  V30 2289 H 215.296 -0.569917 -0.354169 0
M  V30 2290 H 217.84 -1.98734 -0.482198 0
M  V30 2291 H 215.995 -2.57409 -2.89516 0
M  V30 2292 H 216.409 -4.70899 -2.30986 0
M  V30 2293 H 217.883 -3.95889 -3.84677 0
M  V30 2294 H 218.36 -2.26472 -3.76307 0
M  V30 2295 H 218.966 -3.40868 -2.5434 0
M  V30 2296 N 217.281 0.66697 -1.42791 0
M  V30 2297 C 218.244 1.76211 -1.46568 0
M  V30 2298 C 219.244 1.56896 -0.352196 0
M  V30 2299 O 220.434 1.63044 -0.613364 0
M  V30 2300 C 217.566 3.14935 -1.30494 0
M  V30 2301 H 218.759 1.74247 -2.44086 0
M  V30 2302 H 216.312 0.877342 -1.29354 0
M  V30 2303 H 217.047 3.2252 -0.339301 0
M  V30 2304 H 216.832 3.30359 -2.11199 0
M  V30 2305 H 218.322 3.94821 -1.36038 0
M  V30 2306 N 218.759 1.29093 0.90403 0
M  V30 2307 C 220.006 1.16813 1.65411 0
M  V30 2308 C 220.334 -0.28128 1.92455 0
M  V30 2309 O 219.589 -1.22006 1.53013 0
M  V30 2310 C 219.888 1.92224 3.01305 0
M  V30 2311 C 219.554 3.41968 2.93885 0
M  V30 2312 C 218.216 3.82807 2.91569 0
M  V30 2313 C 220.568 4.37409 2.83413 0
M  V30 2314 C 217.896 5.1741 2.76594 0
M  V30 2315 C 220.248 5.72097 2.69977 0
M  V30 2316 C 218.912 6.12199 2.66024 0
M  V30 2317 H 218.182 0.42745 0.605283 0
M  V30 2318 H 220.829 1.59981 1.05254 0
M  V30 2319 H 219.134 1.41635 3.65304 0
M  V30 2320 H 220.831 1.80131 3.58265 0
M  V30 2321 H 217.421 3.09504 2.96488 0
M  V30 2322 H 221.605 4.06813 2.84283 0
M  V30 2323 H 216.861 5.47596 2.71935 0
M  V30 2324 H 221.035 6.45704 2.60844 0
M  V30 2325 H 218.662 7.16448 2.54178 0
M  V30 2326 N 220.237 -1.11381 1.11499 0
M  V30 2327 C 221.167 -2.19509 0.796125 0
M  V30 2328 C 222.148 -1.68458 -0.235796 0
M  V30 2329 O 223.333 -1.93947 -0.0991344 0
M  V30 2330 C 220.463 -3.46475 0.239205 0
M  V30 2331 C 219.417 -4.10744 1.20307 0
M  V30 2332 C 218.743 -5.32293 0.50683 0
M  V30 2333 C 220.043 -4.55597 2.55399 0
M  V30 2334 H 221.737 -2.46439 1.70024 0
M  V30 2335 H 219.283 -1.18446 0.818935 0
M  V30 2336 H 221.236 -4.214 0.00392006 0
M  V30 2337 H 219.96 -3.19006 -0.700206 0
M  V30 2338 H 218.619 -3.37813 1.42399 0
M  V30 2339 H 218.267 -5.01095 -0.437408 0
M  V30 2340 H 217.967 -5.76243 1.1497 0
M  V30 2341 H 219.491 -6.09956 0.280351 0
M  V30 2342 H 220.905 -5.21841 2.37391 0
M  V30 2343 H 219.302 -5.10363 3.15673 0
M  V30 2344 H 220.372 -3.69013 3.14575 0
M  V30 2345 N 221.715 -0.905404 -1.28997 0
M  V30 2346 C 222.665 -0.358713 -2.25161 0
M  V30 2347 C 223.649 0.524449 -1.52113 0
M  V30 2348 O 224.841 0.365534 -1.73184 0
M  V30 2349 C 221.97 0.407609 -3.40872 0
M  V30 2350 C 221.056 -0.490797 -4.21251 0
M  V30 2351 N 221.447 -1.60061 -4.79806 0
M  V30 2352 C 219.745 -0.289636 -4.45059 0
M  V30 2353 C 220.446 -2.15757 -5.40207 0
M  V30 2354 N 219.422 -1.44988 -5.23908 0
M  V30 2355 H 223.224 -1.20642 -2.67998 0
M  V30 2356 H 220.738 -0.757103 -1.43672 0
M  V30 2357 H 222.735 0.816046 -4.08835 0
M  V30 2358 H 221.395 1.25251 -2.9957 0
M  V30 2359 H 222.406 -1.98329 -4.7842 0
M  V30 2360 H 219.083 0.51643 -4.14294 0
M  V30 2361 H 220.473 -3.09069 -5.96595 0
M  V30 2362 N 223.193 1.4272 -0.668489 0
M  V30 2363 C 224.141 2.32586 0.0254857 0
M  V30 2364 C 225.135 1.49471 0.797176 0
M  V30 2365 O 226.341 1.65583 0.705853 0
M  V30 2366 H 222.716 0.751514 0.0270339 0
M  V30 2367 H 224.687 2.88823 -0.749936 0
M  V30 2368 C 223.436 3.3397 0.967427 0
M  V30 2369 H 222.759 3.97961 0.383048 0
M  V30 2370 H 224.199 3.9945 1.42181 0
M  V30 2371 C 222.658 2.65744 2.0708 0
M  V30 2372 O 223.188 2.48454 3.15648 0
M  V30 2373 N 221.394 2.2487 1.8407 0
M  V30 2374 H 220.941 2.39132 0.95778 0
M  V30 2375 H 220.899 1.79552 2.58086 0
M  V30 2376 N 224.671 0.411399 1.52136 0
M  V30 2377 C 225.604 -0.457614 2.23565 0
M  V30 2378 C 226.582 -1.04613 1.24478 0
M  V30 2379 O 227.766 -1.09356 1.53536 0
M  V30 2380 C 224.893 -1.6354 2.96602 0
M  V30 2381 C 223.939 -1.17005 4.10137 0
M  V30 2382 S 224.772 -0.13333 5.35334 0
M  V30 2383 C 225.928 -1.31638 6.119 0
M  V30 2384 H 226.161 0.148883 2.96927 0
M  V30 2385 H 223.694 0.195713 1.53155 0
M  V30 2386 H 225.652 -2.31074 3.39286 0
M  V30 2387 H 224.313 -2.21324 2.22878 0
M  V30 2388 H 223.506 -2.05005 4.60422 0
M  V30 2389 H 223.108 -0.573319 3.6958 0
M  V30 2390 H 225.4 -2.23957 6.39413 0
M  V30 2391 H 226.343 -0.854014 7.02931 0
M  V30 2392 H 226.751 -1.54321 5.42997 0
M  V30 2393 N 226.149 -1.5696 0.141893 0
M  V30 2394 C 227.397 -1.95573 -0.509484 0
M  V30 2395 C 227.718 -1.02746 -1.65736 0
M  V30 2396 O 226.988 -0.0880311 -1.95702 0
M  V30 2397 H 225.568 -0.722115 -0.191205 0
M  V30 2398 H 228.23 -1.93697 0.216196 0
M  V30 2399 H 227.326 -2.99171 -0.889 0
M  V30 2400 N 227.627 0.131896 -1.57047 0
M  V30 2401 C 228.904 0.871495 -1.75112 0
M  V30 2402 C 229.284 1.9866 -0.713949 0
M  V30 2403 O 228.632 2.26965 0.264447 0
M  V30 2404 C 228.842 1.40007 -3.19686 0
M  V30 2405 C 230.19 1.85752 -3.81813 0
M  V30 2406 O 231.214 1.49715 -3.23209 0
M  V30 2407 O 230.073 2.5226 -4.84796 0
M  V30 2408 H 227.167 0.412919 -0.716538 0
M  V30 2409 H 229.713 0.116641 -1.69299 0
M  V30 2410 H 228.485 0.599404 -3.86682 0
M  V30 2411 H 228.108 2.218 -3.29986 0
M  V30 2412 N 229.106 1.52395 0.401703 0
M  V30 2413 C 230.056 1.72649 1.48917 0
M  V30 2414 C 231.04 0.580436 1.50066 0
M  V30 2415 O 232.232 0.83779 1.55917 0
M  V30 2416 C 229.361 1.88729 2.86769 0
M  V30 2417 C 228.447 3.09228 2.90239 0
M  V30 2418 N 228.838 4.31805 2.63396 0
M  V30 2419 C 227.136 3.09214 3.21408 0
M  V30 2420 C 227.837 5.13326 2.73625 0
M  V30 2421 N 226.813 4.48735 3.06819 0
M  V30 2422 H 230.615 2.65058 1.26971 0
M  V30 2423 H 228.129 1.50528 0.609504 0
M  V30 2424 H 230.126 2.01358 3.65049 0
M  V30 2425 H 228.786 0.975252 3.09708 0
M  V30 2426 H 229.797 4.60154 2.37653 0
M  V30 2427 H 226.474 2.27774 3.49893 0
M  V30 2428 H 227.864 6.21003 2.56524 0
M  V30 2429 N 230.584 -0.659388 1.43143 0
M  V30 2430 C 231.83 -1.42145 1.44647 0
M  V30 2431 C 232.163 -1.9408 0.0681907 0
M  V30 2432 O 231.438 -1.71899 -0.910007 0
M  V30 2433 C 231.721 -2.60735 2.48373 0
M  V30 2434 C 231.574 -2.14332 3.95451 0
M  V30 2435 C 232.893 -3.62951 2.48906 0
M  V30 2436 H 230.012 -0.51552 0.526696 0
M  V30 2437 H 232.654 -0.748069 1.74654 0
M  V30 2438 H 230.804 -3.18184 2.22916 0
M  V30 2439 H 232.476 -1.61932 4.31944 0
M  V30 2440 H 230.719 -1.4576 4.08578 0
M  V30 2441 H 231.39 -2.99583 4.63631 0
M  V30 2442 H 233.866 -3.1525 2.71582 0
M  V30 2443 H 232.742 -4.43487 3.23435 0
M  V30 2444 H 233.003 -4.15126 1.52061 0
M  V30 2445 N 232.062 -1.29571 -0.897171 0
M  V30 2446 C 233.29 -1.20583 -1.68129 0
M  V30 2447 C 233.705 0.233181 -1.87354 0
M  V30 2448 O 233.062 1.15579 -1.41236 0
M  V30 2449 C 233.113 -1.91772 -3.06441 0
M  V30 2450 O 232.834 -3.30053 -2.88091 0
M  V30 2451 C 234.335 -1.89291 -4.00854 0
M  V30 2452 H 231.555 -0.417826 -0.525036 0
M  V30 2453 H 234.099 -1.70987 -1.12177 0
M  V30 2454 H 232.254 -1.45196 -3.59161 0
M  V30 2455 H 232.668 -3.65942 -3.75748 0
M  V30 2456 H 234.142 -2.43662 -4.95311 0
M  V30 2457 H 234.619 -0.869014 -4.30517 0
M  V30 2458 H 235.225 -2.35622 -3.54066 0
M  V30 2459 N 233.54 1.10788 -1.12088 0
M  V30 2460 C 234.956 1.34691 -0.856186 0
M  V30 2461 C 235.156 1.94791 0.515615 0
M  V30 2462 O 234.212 2.18524 1.26505 0
M  V30 2463 C 235.525 2.27208 -1.9697 0
M  V30 2464 C 237.073 2.40755 -2.00016 0
M  V30 2465 C 237.548 3.36598 -3.1059 0
M  V30 2466 N 239.039 3.44164 -3.10008 0
M  V30 2467 C 239.774 4.18284 -3.92206 0
M  V30 2468 N 239.27 4.95322 -4.84384 0
M  V30 2469 N 241.063 4.13865 -3.80357 0
M  V30 2470 H 233.214 0.70144 -2.00483 0
M  V30 2471 H 235.477 0.371405 -0.872217 0
M  V30 2472 H 235.183 1.90251 -2.958 0
M  V30 2473 H 235.057 3.27485 -1.87172 0
M  V30 2474 H 237.444 2.76982 -1.01808 0
M  V30 2475 H 237.525 1.40305 -2.13888 0
M  V30 2476 H 237.169 3.01096 -4.09028 0
M  V30 2477 H 237.099 4.36918 -2.93956 0
M  V30 2478 H 239.59 2.8922 -2.43228 0
M  V30 2479 H 239.903 5.49267 -5.43623 0
M  V30 2480 H 238.248 4.94459 -4.884 0
M  V30 2481 H 241.439 3.52773 -3.07683 0
M  V30 2482 H 241.612 4.71372 -4.44649 0
M  V30 2483 N 235.018 0.912232 1.28515 0
M  V30 2484 C 235.948 0.416403 2.29757 0
M  V30 2485 C 236.929 -0.515194 1.6211 0
M  V30 2486 O 238.114 -0.423253 1.89532 0
M  V30 2487 C 235.244 -0.34572 3.45575 0
M  V30 2488 C 234.198 0.496599 4.25109 0
M  V30 2489 C 233.524 -0.393771 5.33248 0
M  V30 2490 C 234.824 1.75307 4.92001 0
M  V30 2491 H 236.518 1.26249 2.7148 0
M  V30 2492 H 234.064 0.608515 1.30511 0
M  V30 2493 H 236.017 -0.703422 4.15488 0
M  V30 2494 H 234.741 -1.2257 3.02728 0
M  V30 2495 H 233.4 0.8368 3.56922 0
M  V30 2496 H 233.048 -1.27225 4.86644 0
M  V30 2497 H 232.748 0.166209 5.87365 0
M  V30 2498 H 234.272 -0.747389 6.06009 0
M  V30 2499 H 235.686 1.46437 5.54283 0
M  V30 2500 H 234.083 2.25534 5.56106 0
M  V30 2501 H 235.153 2.48176 4.16577 0
M  V30 2502 N 236.496 -1.42363 0.676048 0
M  V30 2503 C 237.773 -1.95183 0.127726 0
M  V30 2504 C 238.153 -1.61641 -1.35777 0
M  V30 2505 O 237.501 -0.913216 -2.09458 0
M  V30 2506 C 237.711 -3.46721 0.398199 0
M  V30 2507 C 239.059 -4.23427 0.315383 0
M  V30 2508 O 240.083 -3.54649 0.332016 0
M  V30 2509 O 238.942 -5.45888 0.25865 0
M  V30 2510 H 236.036 -0.826992 0.00359427 0
M  V30 2511 H 238.582 -1.52184 0.750864 0
M  V30 2512 H 237.354 -3.64344 1.4272 0
M  V30 2513 H 236.977 -3.96769 -0.256885 0
M  V30 2514 N 237.974 -0.419461 -1.51915 0
M  V30 2515 C 239.39 -0.0708431 -1.59443 0
M  V30 2516 C 239.59 1.41796 -1.43164 0
M  V30 2517 O 238.646 2.18596 -1.26381 0
M  V30 2518 C 239.959 -0.574991 -2.95151 0
M  V30 2519 C 241.507 -0.533867 -3.08413 0
M  V30 2520 C 241.982 -1.01469 -4.46618 0
M  V30 2521 N 243.473 -0.971939 -4.52888 0
M  V30 2522 C 244.208 -1.31505 -5.58116 0
M  V30 2523 N 243.704 -1.73014 -6.70849 0
M  V30 2524 N 245.497 -1.23436 -5.48379 0
M  V30 2525 H 237.648 -1.38836 -1.60743 0
M  V30 2526 H 239.911 -0.570998 -0.756747 0
M  V30 2527 H 239.617 -1.61597 -3.12377 0
M  V30 2528 H 239.491 0.00979777 -3.77199 0
M  V30 2529 H 241.878 0.498086 -2.90866 0
M  V30 2530 H 241.959 -1.15484 -2.28248 0
M  V30 2531 H 241.603 -2.04502 -4.6491 0
M  V30 2532 H 241.533 -0.370433 -5.25295 0
M  V30 2533 H 244.024 -0.666893 -3.71969 0
M  V30 2534 H 244.337 -1.97479 -7.47143 0
M  V30 2535 H 242.682 -1.76926 -6.72103 0
M  V30 2536 H 245.873 -0.908869 -4.59192 0
M  V30 2537 H 246.046 -1.50506 -6.30279 0
M  V30 2538 N 239.452 1.56882 -0.150215 0
M  V30 2539 C 240.698 1.97299 0.494427 0
M  V30 2540 C 241.053 1.0338 1.62266 0
M  V30 2541 O 240.346 0.0694497 1.91474 0
M  V30 2542 C 240.54 3.41801 1.04437 0
M  V30 2543 C 240.369 4.49691 -0.0290451 0
M  V30 2544 C 239.139 5.03095 -0.47156 0
M  V30 2545 C 241.337 5.07693 -0.821703 0
M  V30 2546 N 239.319 5.94593 -1.52749 0
M  V30 2547 C 240.69 5.95431 -1.72805 0
M  V30 2548 C 242.745 4.90256 -0.869134 0
M  V30 2549 C 241.448 6.67599 -2.67777 0
M  V30 2550 C 243.474 5.63127 -1.8067 0
M  V30 2551 C 242.836 6.50576 -2.70057 0
M  V30 2552 H 238.935 0.76755 0.149639 0
M  V30 2553 H 241.519 1.93145 -0.24556 0
M  V30 2554 H 239.69 3.46541 1.75396 0
M  V30 2555 H 241.422 3.69272 1.6559 0
M  V30 2556 H 238.177 4.73543 -0.0732101 0
M  V30 2557 H 238.601 6.45047 -2.05531 0
M  V30 2558 H 243.243 4.22363 -0.192134 0
M  V30 2559 H 240.961 7.34717 -3.36476 0
M  V30 2560 H 244.547 5.51629 -1.84924 0
M  V30 2561 H 243.427 7.05974 -3.41424 0
M  V30 2562 N 240.93 -0.123565 1.57115 0
M  V30 2563 C 241.84 -1.17074 2.033 0
M  V30 2564 C 242.856 -1.4561 0.952559 0
M  V30 2565 O 244.032 -1.56817 1.26374 0
M  V30 2566 C 241.097 -2.47857 2.42421 0
M  V30 2567 C 240.158 -2.26758 3.64526 0
M  V30 2568 C 239.391 -3.51305 4.01771 0
M  V30 2569 O 239.614 -4.5843 3.39409 0
M  V30 2570 O 238.548 -3.42578 4.94898 0
M  V30 2571 H 242.374 -0.808555 2.92739 0
M  V30 2572 H 239.959 -0.334027 1.45618 0
M  V30 2573 H 241.841 -3.2492 2.68338 0
M  V30 2574 H 240.516 -2.83558 1.5613 0
M  V30 2575 H 239.423 -1.47569 3.43765 0
M  V30 2576 H 240.756 -1.95963 4.51508 0
M  V30 2577 N 242.408 -1.52605 -0.393616 0
M  V30 2578 C 243.819 -1.59417 -0.971761 0
M  V30 2579 C 244.17 -0.444173 -1.91106 0
M  V30 2580 O 243.295 0.433382 -2.12016 0
M  V30 2581 C 243.89 -2.88936 -1.76921 0
M  V30 2582 C 242.449 -2.98175 -2.29714 0
M  V30 2583 C 241.596 -2.54491 -1.10135 0
M  V30 2584 H 244.547 -1.57751 -0.173317 0
M  V30 2585 H 244.568 -2.75163 -2.62804 0
M  V30 2586 H 244.08 -3.72616 -1.08532 0
M  V30 2587 H 242.181 -2.19024 -3.01429 0
M  V30 2588 H 242.294 -4.02726 -2.59517 0
M  V30 2589 H 240.658 -2.08702 -1.45999 0
M  V30 2590 H 241.441 -3.4056 -0.432874 0
M  V30 2591 N 243.887 0.651787 -1.4349 0
M  V30 2592 C 244.797 1.79368 -1.5121 0
M  V30 2593 C 245.813 1.69361 -0.399093 0
M  V30 2594 O 246.989 1.90505 -0.653431 0
M  V30 2595 C 244.054 3.15653 -1.43401 0
M  V30 2596 C 243.115 3.37446 -2.65384 0
M  V30 2597 C 242.348 4.67229 -2.57939 0
M  V30 2598 O 242.571 5.46676 -1.62792 0
M  V30 2599 O 241.505 4.90773 -3.48462 0
M  V30 2600 H 245.331 1.7581 -2.47638 0
M  V30 2601 H 242.916 0.810447 -1.25507 0
M  V30 2602 H 244.798 3.96935 -1.41494 0
M  V30 2603 H 243.473 3.19798 -0.501085 0
M  V30 2604 H 242.38 2.55923 -2.72863 0
M  V30 2605 H 243.713 3.38148 -3.57654 0
M  V30 2606 N 245.365 1.30045 0.890287 0
M  V30 2607 C 246.295 1.18541 2.01172 0
M  V30 2608 C 247.276 0.0773356 1.69924 0
M  V30 2609 O 248.461 0.25845 1.92473 0
M  V30 2610 C 245.591 0.870941 3.36202 0
M  V30 2611 C 244.545 1.93637 3.81692 0
M  V30 2612 C 243.871 1.475 5.13953 0
M  V30 2613 C 245.171 3.34666 4.00994 0
M  V30 2614 H 246.865 2.12359 2.11054 0
M  V30 2615 H 244.411 1.02238 1.01407 0
M  V30 2616 H 246.364 0.777141 4.14172 0
M  V30 2617 H 245.088 -0.102926 3.26438 0
M  V30 2618 H 243.747 2.01972 3.05946 0
M  V30 2619 H 243.395 0.489551 5.00612 0
M  V30 2620 H 243.095 2.1876 5.4536 0
M  V30 2621 H 244.619 1.39489 5.94454 0
M  V30 2622 H 246.033 3.2912 4.69417 0
M  V30 2623 H 244.43 4.03966 4.43769 0
M  V30 2624 H 245.5 3.76949 3.05021 0
M  V30 2625 N 246.843 -1.10192 1.12674 0
M  V30 2626 C 247.791 -2.18694 0.792196 0
M  V30 2627 C 248.785 -1.67938 -0.222058 0
M  V30 2628 O 249.991 -1.79822 -0.0800074 0
M  V30 2629 H 246.366 -0.713223 0.238364 0
M  V30 2630 H 248.337 -2.44149 1.71564 0
M  V30 2631 C 247.086 -3.46682 0.265859 0
M  V30 2632 H 246.409 -3.86101 1.03761 0
M  V30 2633 H 247.849 -4.23942 0.0701128 0
M  V30 2634 C 246.308 -3.21506 -1.00675 0
M  V30 2635 O 246.838 -3.43408 -2.08408 0
M  V30 2636 N 245.044 -2.75158 -0.934692 0
M  V30 2637 H 244.591 -2.57535 -0.0578604 0
M  V30 2638 H 244.549 -2.58691 -1.7868 0
M  V30 2639 N 248.321 -0.919034 -1.28029 0
M  V30 2640 C 249.231 -0.416756 -2.30869 0
M  V30 2641 C 250.247 0.498235 -1.66714 0
M  V30 2642 O 251.423 0.383144 -1.97722 0
M  V30 2643 C 248.488 0.330274 -3.45123 0
M  V30 2644 C 247.549 -0.618578 -4.2482 0
M  V30 2645 C 246.782 0.0928959 -5.33619 0
M  V30 2646 O 247.005 1.31375 -5.55065 0
M  V30 2647 O 245.939 -0.574499 -5.99152 0
M  V30 2648 H 249.765 -1.27043 -2.75851 0
M  V30 2649 H 247.35 -0.684052 -1.3282 0
M  V30 2650 H 249.232 0.751972 -4.14636 0
M  V30 2651 H 247.907 1.1597 -3.02213 0
M  V30 2652 H 246.814 -1.08978 -3.57875 0
M  V30 2653 H 248.147 -1.41497 -4.71423 0
M  V30 2654 N 249.799 1.42003 -0.683588 0
M  V30 2655 C 250.762 2.29191 -0.0198243 0
M  V30 2656 C 251.762 1.43773 0.72013 0
M  V30 2657 O 252.952 1.65061 0.556815 0
M  V30 2658 C 250.084 3.26435 0.982487 0
M  V30 2659 H 251.277 2.8938 -0.787345 0
M  V30 2660 H 248.83 1.49789 -0.446418 0
M  V30 2661 H 249.565 2.71203 1.77819 0
M  V30 2662 H 249.35 3.89449 0.455182 0
M  V30 2663 H 250.84 3.918 1.44508 0
M  V30 2664 N 251.277 0.427512 1.51691 0
M  V30 2665 C 252.526 -0.143679 2.01188 0
M  V30 2666 C 252.839 -1.44642 1.31674 0
M  V30 2667 O 254.045 -2.09997 1.72086 0
M  V30 2668 C 252.501 -0.306602 3.58592 0
M  V30 2669 C 252.109 0.985125 4.37035 0
M  V30 2670 C 253.853 -0.832091 4.16265 0
M  V30 2671 C 251.76 0.788382 5.86122 0
M  V30 2672 H 250.69 -0.0574701 0.751807 0
M  V30 2673 H 253.341 0.555772 1.74881 0
M  V30 2674 H 251.723 -1.06882 3.81303 0
M  V30 2675 H 252.897 1.75492 4.26074 0
M  V30 2676 H 251.212 1.4384 3.90767 0
M  V30 2677 H 253.809 -0.995617 5.25349 0
M  V30 2678 H 254.152 -1.81186 3.74803 0
M  V30 2679 H 254.685 -0.128444 3.97593 0
M  V30 2680 H 251.424 1.74025 6.31978 0
M  V30 2681 H 250.944 0.0582143 5.99772 0
M  V30 2682 H 252.623 0.437722 6.45518 0
M  V30 2683 N 252.755 -1.56801 0.158532 0
M  V30 2684 C 254.166 -1.83189 -0.360366 0
M  V30 2685 C 254.517 -1.07778 -1.63946 0
M  V30 2686 O 253.642 -0.326718 -2.13919 0
M  V30 2687 C 254.237 -3.32297 -0.660595 0
M  V30 2688 C 252.796 -3.59227 -1.12398 0
M  V30 2689 C 251.943 -2.76877 -0.153097 0
M  V30 2690 H 254.894 -1.54008 0.383031 0
M  V30 2691 H 254.915 -3.4908 -1.51405 0
M  V30 2692 H 254.427 -3.87156 0.270527 0
M  V30 2693 H 252.528 -3.09766 -2.07064 0
M  V30 2694 H 252.641 -4.67632 -1.04197 0
M  V30 2695 H 251.005 -2.46319 -0.647983 0
M  V30 2696 H 251.788 -3.34511 0.77182 0
M  V30 2697 N 254.233 0.115231 -1.57178 0
M  V30 2698 C 255.181 1.16014 -2.01602 0
M  V30 2699 C 256.175 1.42653 -0.913587 0
M  V30 2700 O 257.381 1.42571 -1.09879 0
M  V30 2701 H 253.756 0.391252 -0.642204 0
M  V30 2702 H 255.727 0.758998 -2.88586 0
M  V30 2703 C 254.476 2.47767 -2.4394 0
M  V30 2704 H 253.799 2.28108 -3.28339 0
M  V30 2705 H 255.239 3.19432 -2.78818 0
M  V30 2706 C 253.698 3.10617 -1.30455 0
M  V30 2707 O 254.228 3.96846 -0.622585 0
M  V30 2708 N 252.434 2.70553 -1.06064 0
M  V30 2709 H 251.981 2.00527 -1.61699 0
M  V30 2710 H 251.939 3.12934 -0.303284 0
M  V30 2711 N 255.711 1.52812 0.385517 0
M  V30 2712 C 256.988 1.5861 1.14465 0
M  V30 2713 C 257.368 0.381402 2.07626 0
M  V30 2714 O 256.716 -0.629999 2.19643 0
M  V30 2715 C 256.926 2.92664 1.90128 0
M  V30 2716 C 258.274 3.46526 2.45367 0
M  V30 2717 O 259.298 2.94562 2.0028 0
M  V30 2718 O 258.157 4.37323 3.27736 0
M  V30 2719 H 255.251 0.639855 0.523941 0
M  V30 2720 H 257.797 1.65149 0.390389 0
M  V30 2721 H 256.569 3.71788 1.22022 0
M  V30 2722 H 256.192 2.89527 2.72507 0
M  V30 2723 N 257.189 -0.644168 1.43834 0
M  V30 2724 C 258.099 -1.78563 1.52159 0
M  V30 2725 C 259.115 -1.69147 0.408069 0
M  V30 2726 O 260.291 -1.90156 0.663524 0
M  V30 2727 C 257.356 -3.14888 1.45073 0
M  V30 2728 C 256.417 -3.36034 2.6717 0
M  V30 2729 C 255.65 -4.65855 2.60413 0
M  V30 2730 O 255.873 -5.45805 1.65689 0
M  V30 2731 O 254.807 -4.88918 3.5106 0
M  V30 2732 H 258.633 -1.74494 2.48567 0
M  V30 2733 H 256.218 -0.80378 1.25935 0
M  V30 2734 H 258.1 -3.96179 1.43597 0
M  V30 2735 H 256.775 -3.19528 0.518037 0
M  V30 2736 H 255.682 -2.54472 2.74217 0
M  V30 2737 H 257.015 -3.36247 3.59442 0
M  V30 2738 N 258.668 -1.30515 -0.883378 0
M  V30 2739 C 260.084 -1.08881 -1.16692 0
M  V30 2740 C 260.284 0.149409 -2.00945 0
M  V30 2741 O 259.34 0.84257 -2.38027 0
M  V30 2742 C 260.653 -2.35319 -1.87204 0
M  V30 2743 C 262.201 -2.40799 -1.99962 0
M  V30 2744 C 262.676 -3.67083 -2.73887 0
M  V30 2745 N 264.167 -3.679 -2.81432 0
M  V30 2746 C 264.902 -4.62303 -3.3921 0
M  V30 2747 N 264.398 -5.67052 -3.98025 0
M  V30 2748 N 266.191 -4.49845 -3.3704 0
M  V30 2749 H 258.342 -2.09951 -0.321633 0
M  V30 2750 H 260.605 -0.92556 -0.205043 0
M  V30 2751 H 260.311 -3.25689 -1.3274 0
M  V30 2752 H 260.185 -2.44089 -2.87577 0
M  V30 2753 H 262.572 -1.50907 -2.53597 0
M  V30 2754 H 262.653 -2.36003 -0.98673 0
M  V30 2755 H 262.297 -4.57334 -2.20925 0
M  V30 2756 H 262.227 -3.69141 -3.75556 0
M  V30 2757 H 264.718 -2.92171 -2.39676 0
M  V30 2758 H 265.031 -6.35184 -4.40183 0
M  V30 2759 H 263.376 -5.70842 -3.96439 0
M  V30 2760 H 266.567 -3.67194 -2.90321 0
M  V30 2761 H 266.74 -5.23597 -3.81772 0
M  V30 2762 N 260.146 1.09593 -1.13257 0
M  V30 2763 C 261.423 1.78293 -0.804432 0
M  V30 2764 C 261.803 1.99004 0.70431 0
M  V30 2765 O 261.151 1.59007 1.641 0
M  V30 2766 C 261.361 3.10707 -1.5894 0
M  V30 2767 C 262.709 3.85443 -1.78099 0
M  V30 2768 O 263.733 3.20454 -1.55525 0
M  V30 2769 O 262.592 5.02108 -2.15753 0
M  V30 2770 H 259.686 0.773156 -0.293528 0
M  V30 2771 H 262.232 1.16164 -1.23709 0
M  V30 2772 H 261.004 2.91106 -2.61482 0
M  V30 2773 H 260.627 3.80558 -1.15157 0
M  V30 2774 N 261.624 0.925811 1.2754 0
M  V30 2775 C 262.852 0.581509 1.9856 0
M  V30 2776 C 263.267 -0.840041 1.69082 0
M  V30 2777 O 262.624 -1.55805 0.950312 0
M  V30 2778 C 262.675 0.795589 3.52637 0
M  V30 2779 O 262.396 2.16121 3.81082 0
M  V30 2780 C 263.897 0.459744 4.4091 0
M  V30 2781 H 261.117 0.220538 0.633722 0
M  V30 2782 H 263.661 1.24232 1.6244 0
M  V30 2783 H 261.816 0.18161 3.86974 0
M  V30 2784 H 262.23 2.2098 4.75676 0
M  V30 2785 H 263.704 0.660244 5.48037 0
M  V30 2786 H 264.181 -0.604625 4.35018 0
M  V30 2787 H 264.787 1.05178 4.12089 0
M  V30 2788 N 263.102 -1.41638 0.69111 0
M  V30 2789 C 264.33 -2.05628 0.22909 0
M  V30 2790 C 264.745 -1.51992 -1.11999 0
M  V30 2791 O 264.102 -0.666322 -1.69901 0
M  V30 2792 C 264.153 -3.61084 0.173283 0
M  V30 2793 O 263.874 -4.12735 1.46907 0
M  V30 2794 C 265.375 -4.42213 -0.310266 0
M  V30 2795 H 262.595 -0.662327 0.107534 0
M  V30 2796 H 265.139 -1.81489 0.942438 0
M  V30 2797 H 263.294 -3.84278 -0.490858 0
M  V30 2798 H 263.708 -5.06743 1.35322 0
M  V30 2799 H 265.182 -5.51194 -0.298196 0
M  V30 2800 H 265.659 -4.1799 -1.34838 0
M  V30 2801 H 266.265 -4.24074 0.322716 0
M  V30 2802 N 264.58 -0.43555 -1.51462 0
M  V30 2803 C 265.513 0.421989 -2.24264 0
M  V30 2804 C 266.491 1.02619 -1.26127 0
M  V30 2805 O 267.675 1.069 -1.55257 0
M  V30 2806 C 264.802 1.588 -2.99166 0
M  V30 2807 C 263.848 1.10465 -4.11946 0
M  V30 2808 S 264.681 0.048146 -5.35478 0
M  V30 2809 C 265.837 1.21887 -6.13917 0
M  V30 2810 H 266.07 -0.196102 -2.96653 0
M  V30 2811 H 263.603 -0.220054 -1.52824 0
M  V30 2812 H 265.561 2.25647 -3.42919 0
M  V30 2813 H 264.222 2.1775 -2.26371 0
M  V30 2814 H 263.415 1.97654 -4.63626 0
M  V30 2815 H 263.017 0.51445 -3.70445 0
M  V30 2816 H 265.309 2.13756 -6.42895 0
M  V30 2817 H 266.252 0.742076 -7.04201 0
M  V30 2818 H 266.66 1.45663 -5.45383 0
M  V30 2819 N 266.058 1.56714 -0.166846 0
M  V30 2820 C 267.469 1.83378 0.350646 0
M  V30 2821 C 267.82 1.08646 1.63372 0
M  V30 2822 O 266.945 0.338058 2.13743 0
M  V30 2823 C 267.54 3.32643 0.642963 0
M  V30 2824 C 266.099 3.59818 1.10491 0
M  V30 2825 C 265.246 2.76954 0.138411 0
M  V30 2826 H 268.197 1.53803 -0.391193 0
M  V30 2827 H 268.218 3.49878 1.49551 0
M  V30 2828 H 267.73 3.87007 -0.291055 0
M  V30 2829 H 265.831 3.1086 2.05418 0
M  V30 2830 H 265.944 4.68178 1.01716 0
M  V30 2831 H 264.308 2.4666 0.634911 0
M  V30 2832 H 265.091 3.34097 -0.789549 0
M  V30 2833 N 267.536 -0.106894 1.57237 0
M  V30 2834 C 268.499 -1.11466 2.0027 0
M  V30 2835 C 269.499 -1.33623 0.894519 0
M  V30 2836 O 270.689 -1.29935 1.16028 0
M  V30 2837 C 267.821 -2.46646 2.35327 0
M  V30 2838 H 269.014 -0.744516 2.90512 0
M  V30 2839 H 266.567 -0.351576 1.52295 0
M  V30 2840 H 267.302 -2.88558 1.48003 0
M  V30 2841 H 267.087 -2.31915 3.16161 0
M  V30 2842 H 268.577 -3.19151 2.69318 0
M  V30 2843 N 269.014 -1.53014 -0.377408 0
M  V30 2844 C 269.977 -1.77957 -1.44444 0
M  V30 2845 C 270.977 -0.649763 -1.47087 0
M  V30 2846 O 272.167 -0.917897 -1.48055 0
M  V30 2847 C 269.299 -1.89089 -2.83651 0
M  V30 2848 H 270.492 -2.73243 -1.23606 0
M  V30 2849 H 268.045 -1.43912 -0.609844 0
M  V30 2850 H 268.78 -0.958293 -3.09818 0
M  V30 2851 H 268.565 -2.71254 -2.83132 0
M  V30 2852 H 270.055 -2.1002 -3.60945 0
M  V30 2853 N 270.492 0.636531 -1.44174 0
M  V30 2854 C 271.425 1.76139 -1.45087 0
M  V30 2855 C 272.403 1.59611 -0.310326 0
M  V30 2856 O 273.587 1.81568 -0.506477 0
M  V30 2857 C 270.714 3.13648 -1.27839 0
M  V30 2858 C 269.76 3.48838 -2.45386 0
M  V30 2859 S 270.593 3.46927 -4.07924 0
M  V30 2860 C 271.749 4.87064 -3.9309 0
M  V30 2861 H 271.982 1.75096 -2.40268 0
M  V30 2862 H 269.515 0.810666 -1.31406 0
M  V30 2863 H 271.473 3.93002 -1.18575 0
M  V30 2864 H 270.134 3.12235 -0.341787 0
M  V30 2865 H 269.327 4.48886 -2.29167 0
M  V30 2866 H 268.929 2.76935 -2.51362 0
M  V30 2867 H 271.221 5.76153 -3.56446 0
M  V30 2868 H 272.164 5.08337 -4.92949 0
M  V30 2869 H 272.572 4.61384 -3.25246 0
M  V30 2870 N 271.97 1.30982 0.876444 0
M  V30 2871 C 272.933 1.18054 1.96459 0
M  V30 2872 C 273.933 0.109399 1.60427 0
M  V30 2873 O 275.123 0.358173 1.70478 0
M  V30 2874 C 272.255 0.810616 3.31122 0
M  V30 2875 H 273.448 2.14735 2.09354 0
M  V30 2876 H 271.001 1.145 1.06392 0
M  V30 2877 H 271.736 -0.155322 3.23928 0
M  V30 2878 H 271.521 1.58481 3.58645 0
M  V30 2879 H 273.011 0.743876 4.10921 0
M  V30 2880 N 273.449 -1.08991 1.13837 0
M  V30 2881 C 274.677 -1.85011 0.926202 0
M  V30 2882 C 275.092 -1.8135 -0.525127 0
M  V30 2883 O 274.449 -1.21287 -1.36366 0
M  V30 2884 C 274.5 -3.32802 1.41155 0
M  V30 2885 O 274.221 -3.36444 2.80601 0
M  V30 2886 C 275.722 -4.25649 1.23847 0
M  V30 2887 H 272.942 -0.584249 0.32999 0
M  V30 2888 H 275.486 -1.37688 1.51202 0
M  V30 2889 H 273.641 -3.77536 0.868631 0
M  V30 2890 H 274.055 -4.28657 3.02248 0
M  V30 2891 H 275.529 -5.27485 1.62675 0
M  V30 2892 H 276.006 -4.38828 0.18065 0
M  V30 2893 H 276.612 -3.86735 1.76964 0
M  V30 2894 N 274.927 -0.932562 -1.27047 0
M  V30 2895 C 276.155 -0.592031 -1.98249 0
M  V30 2896 C 276.57 0.831062 -1.69525 0
M  V30 2897 O 275.927 1.55299 -0.958561 0
M  V30 2898 C 275.978 -0.814279 -3.5221 0
M  V30 2899 O 275.699 -2.18139 -3.7993 0
M  V30 2900 C 277.2 -0.483121 -4.4066 0
M  V30 2901 H 274.42 -0.223896 -0.632544 0
M  V30 2902 H 276.964 -1.25091 -1.61779 0
M  V30 2903 H 275.119 -0.20213 -3.86872 0
M  V30 2904 H 275.533 -2.235 -4.74498 0
M  V30 2905 H 277.007 -0.689298 -5.47679 0
M  V30 2906 H 277.484 0.581546 -4.35333 0
M  V30 2907 H 278.09 -1.07362 -4.11526 0
M  V30 2908 N 276.405 1.4127 -0.698611 0
M  V30 2909 C 277.335 2.33447 -0.049629 0
M  V30 2910 C 278.316 1.51982 0.763898 0
M  V30 2911 O 279.501 1.80509 0.716257 0
M  V30 2912 C 276.631 3.35828 0.885267 0
M  V30 2913 C 275.585 4.27627 0.178613 0
M  V30 2914 C 274.911 5.20406 1.22807 0
M  V30 2915 C 276.211 5.13459 -0.956933 0
M  V30 2916 H 277.905 2.87966 -0.81951 0
M  V30 2917 H 275.451 1.38461 -0.395538 0
M  V30 2918 H 277.404 3.9924 1.34854 0
M  V30 2919 H 276.128 2.79666 1.68685 0
M  V30 2920 H 274.787 3.65643 -0.26466 0
M  V30 2921 H 274.435 4.60558 2.02226 0
M  V30 2922 H 274.135 5.82661 0.760239 0
M  V30 2923 H 275.659 5.86695 1.69179 0
M  V30 2924 H 277.073 5.70421 -0.573805 0
M  V30 2925 H 275.47 5.8467 -1.35205 0
M  V30 2926 H 276.54 4.50443 -1.79524 0
M  V30 2927 N 277.883 0.443576 1.51229 0
M  V30 2928 C 279.299 0.0962001 1.5931 0
M  V30 2929 C 279.499 -1.39501 1.45402 0
M  V30 2930 O 278.555 -2.16557 1.29843 0
M  V30 2931 C 279.868 0.621875 2.94199 0
M  V30 2932 C 281.416 0.582865 3.07525 0
M  V30 2933 C 281.891 1.08562 4.44948 0
M  V30 2934 N 283.382 1.04387 4.51284 0
M  V30 2935 C 284.117 1.40368 5.55954 0
M  V30 2936 N 283.613 1.83664 6.68011 0
M  V30 2937 N 285.406 1.32145 5.46346 0
M  V30 2938 H 277.557 1.41376 1.58514 0
M  V30 2939 H 279.82 0.582965 0.747567 0
M  V30 2940 H 279.526 1.66546 3.09767 0
M  V30 2941 H 279.4 0.0502125 3.77167 0
M  V30 2942 H 281.787 -0.451749 2.91622 0
M  V30 2943 H 281.868 1.191 2.26382 0
M  V30 2944 H 281.512 2.11873 4.61598 0
M  V30 2945 H 281.442 0.453956 5.2464 0
M  V30 2946 H 283.933 0.725986 3.70861 0
M  V30 2947 H 284.246 2.0934 7.43906 0
M  V30 2948 H 282.591 1.87596 6.69203 0
M  V30 2949 H 285.782 0.981808 4.57688 0
M  V30 2950 H 285.955 1.60514 6.27805 0
M  V30 2951 N 279.361 -1.56624 0.175154 0
M  V30 2952 C 280.308 -2.18149 -0.753634 0
M  V30 2953 C 281.278 -1.12265 -1.22417 0
M  V30 2954 O 282.463 -1.40432 -1.29165 0
M  V30 2955 C 279.603 -2.82933 -1.97592 0
M  V30 2956 C 278.716 -4.03289 -1.5486 0
M  V30 2957 C 277.851 -4.55988 -2.72485 0
M  V30 2958 C 276.89 -5.68746 -2.26262 0
M  V30 2959 N 276.027 -6.15938 -3.36994 0
M  V30 2960 H 280.867 -2.9717 -0.222195 0
M  V30 2961 H 278.404 -1.46774 -0.0979422 0
M  V30 2962 H 280.362 -3.18653 -2.69288 0
M  V30 2963 H 278.992 -2.06509 -2.481 0
M  V30 2964 H 278.044 -3.73364 -0.728246 0
M  V30 2965 H 279.356 -4.849 -1.16933 0
M  V30 2966 H 278.51 -4.9391 -3.52332 0
M  V30 2967 H 277.249 -3.73443 -3.13674 0
M  V30 2968 H 276.254 -5.30372 -1.44863 0
M  V30 2969 H 277.479 -6.53095 -1.86127 0
M  V30 2970 H 275.425 -5.36321 -3.77751 0
M  V30 2971 H 275.342 -6.92548 -3.03172 0
M  V30 2972 H 276.61 -6.58511 -4.17114 0
M  V30 2973 N 280.839 0.0985539 -1.57292 0
M  V30 2974 C 281.769 1.12064 -2.04851 0
M  V30 2975 C 282.75 1.41981 -0.936767 0
M  V30 2976 O 283.935 1.52071 -1.20781 0
M  V30 2977 C 281.065 2.44144 -2.47004 0
M  V30 2978 C 280.019 2.28643 -3.6181 0
M  V30 2979 C 279.345 3.65869 -3.89929 0
M  V30 2980 C 280.645 1.72986 -4.92822 0
M  V30 2981 H 282.339 0.724979 -2.9049 0
M  V30 2982 H 279.885 0.34729 -1.39749 0
M  V30 2983 H 281.838 3.15914 -2.78884 0
M  V30 2984 H 280.562 2.85639 -1.5836 0
M  V30 2985 H 279.221 1.59318 -3.30172 0
M  V30 2986 H 278.869 4.04885 -2.98458 0
M  V30 2987 H 278.569 3.56344 -4.67218 0
M  V30 2988 H 280.093 4.39112 -4.2428 0
M  V30 2989 H 281.507 2.34593 -5.23105 0
M  V30 2990 H 279.904 1.74229 -5.74251 0
M  V30 2991 H 280.974 0.689007 -4.7998 0
M  V30 2992 N 282.317 1.53212 0.369288 0
M  V30 2993 C 283.247 1.82365 1.45826 0
M  V30 2994 C 284.228 0.676907 1.56051 0
M  V30 2995 O 285.413 0.926401 1.70679 0
M  V30 2996 C 282.543 2.01023 2.83208 0
M  V30 2997 C 281.497 3.1678 2.8781 0
M  V30 2998 C 280.823 3.20724 4.27832 0
M  V30 2999 C 282.123 4.55447 2.55667 0
M  V30 3000 H 283.817 2.73559 1.21678 0
M  V30 3001 H 281.363 1.3163 0.583911 0
M  V30 3002 H 283.316 2.20001 3.59413 0
M  V30 3003 H 282.04 1.06536 3.08736 0
M  V30 3004 H 280.699 2.97616 2.14056 0
M  V30 3005 H 280.347 2.23882 4.50429 0
M  V30 3006 H 280.047 3.98496 4.31827 0
M  V30 3007 H 281.571 3.41881 5.05915 0
M  V30 3008 H 282.985 4.74611 3.21586 0
M  V30 3009 H 281.382 5.35432 2.70984 0
M  V30 3010 H 282.452 4.60812 1.5093 0
M  V30 3011 N 283.795 -0.628877 1.44509 0
M  V30 3012 C 285.023 -1.41554 1.50897 0
M  V30 3013 C 285.438 -1.8832 0.134564 0
M  V30 3014 O 284.795 -1.60969 -0.859965 0
M  V30 3015 C 284.846 -2.63435 2.47556 0
M  V30 3016 O 284.567 -2.18619 3.79654 0
M  V30 3017 C 286.068 -3.56537 2.63431 0
M  V30 3018 H 283.288 -0.434044 0.511709 0
M  V30 3019 H 285.832 -0.768895 1.89495 0
M  V30 3020 H 283.987 -3.24187 2.12089 0
M  V30 3021 H 284.401 -2.97652 4.31861 0
M  V30 3022 H 285.875 -4.38657 3.35088 0
M  V30 3023 H 286.352 -4.05493 1.68738 0
M  V30 3024 H 286.958 -3.01653 2.9981 0
M  V30 3025 N 285.273 -1.31445 -0.869486 0
M  V30 3026 C 286.521 -1.20918 -1.61936 0
M  V30 3027 C 286.842 0.232683 -1.93607 0
M  V30 3028 O 286.112 1.15352 -1.58338 0
M  V30 3029 H 284.692 -0.44454 -0.600328 0
M  V30 3030 H 287.354 -1.64776 -1.0409 0
M  V30 3031 H 286.45 -1.78124 -2.56278 0
M  V30 3032 N 286.751 1.08385 -1.14413 0
M  V30 3033 C 287.661 2.18856 -0.844951 0
M  V30 3034 C 288.677 1.73121 0.174668 0
M  V30 3035 O 289.853 2.014 0.00312857 0
M  V30 3036 C 286.918 3.45155 -0.32696 0
M  V30 3037 C 285.979 4.05513 -1.40916 0
M  V30 3038 C 285.212 5.25784 -0.915793 0
M  V30 3039 O 285.435 5.69884 0.242651 0
M  V30 3040 O 284.369 5.77545 -1.69487 0
M  V30 3041 H 288.195 2.46919 -1.76818 0
M  V30 3042 H 285.78 1.17524 -0.922411 0
M  V30 3043 H 287.662 4.21377 -0.0440211 0
M  V30 3044 H 286.337 3.18668 0.568539 0
M  V30 3045 H 285.244 3.30879 -1.74556 0
M  V30 3046 H 286.577 4.3625 -2.27919 0
M  V30 3047 N 288.23 0.939286 1.26551 0
M  V30 3048 C 289.16 0.465044 2.28822 0
M  V30 3049 C 290.141 -0.480692 1.63167 0
M  V30 3050 O 291.326 -0.382955 1.90387 0
M  V30 3051 C 288.456 -0.27234 3.46231 0
M  V30 3052 C 287.41 0.58666 4.2396 0
M  V30 3053 C 286.736 -0.280573 5.33963 0
M  V30 3054 C 288.036 1.85704 4.88171 0
M  V30 3055 H 289.73 1.31979 2.68741 0
M  V30 3056 H 287.276 0.636061 1.29191 0
M  V30 3057 H 289.229 -0.615133 4.16886 0
M  V30 3058 H 287.953 -1.16121 3.0526 0
M  V30 3059 H 286.612 0.91232 3.55067 0
M  V30 3060 H 286.26 -1.16874 4.89234 0
M  V30 3061 H 285.96 0.29076 5.8688 0
M  V30 3062 H 287.484 -0.618678 6.07458 0
M  V30 3063 H 288.898 1.58161 5.51052 0
M  V30 3064 H 287.295 2.37279 5.51197 0
M  V30 3065 H 288.365 2.56957 4.11219 0
M  V30 3066 N 289.708 -1.40897 0.706093 0
M  V30 3067 C 290.638 -2.33418 0.0620085 0
M  V30 3068 C 291.619 -1.52385 -0.755827 0
M  V30 3069 O 292.804 -1.80886 -0.706674 0
M  V30 3070 C 289.934 -3.36293 -0.867445 0
M  V30 3071 C 288.888 -4.27716 -0.155932 0
M  V30 3072 C 288.214 -5.2105 -1.20046 0
M  V30 3073 C 289.514 -5.12944 0.984149 0
M  V30 3074 H 291.208 -2.87527 0.83477 0
M  V30 3075 H 288.754 -1.38249 0.402875 0
M  V30 3076 H 290.707 -3.99949 -1.32735 0
M  V30 3077 H 289.431 -2.80556 -1.67199 0
M  V30 3078 H 288.09 -3.65498 0.284047 0
M  V30 3079 H 287.738 -4.61624 -1.99781 0
M  V30 3080 H 287.438 -5.83056 -0.729328 0
M  V30 3081 H 288.962 -5.87584 -1.66066 0
M  V30 3082 H 290.376 -5.70109 0.604048 0
M  V30 3083 H 288.773 -5.83945 1.38304 0
M  V30 3084 H 289.843 -4.49485 1.81911 0
M  V30 3085 N 291.186 -0.45159 -1.50991 0
M  V30 3086 C 292.414 0.108334 -2.06616 0
M  V30 3087 C 292.829 1.35224 -1.31757 0
M  V30 3088 O 292.186 1.78475 -0.381174 0
M  V30 3089 C 292.237 0.41619 -3.59096 0
M  V30 3090 O 291.958 -0.778361 -4.3113 0
M  V30 3091 C 293.459 1.02523 -4.31282 0
M  V30 3092 H 290.679 0.00159995 -0.670998 0
M  V30 3093 H 293.223 -0.634771 -1.94399 0
M  V30 3094 H 291.378 1.10921 -3.71181 0
M  V30 3095 H 291.792 -0.511181 -5.22003 0
M  V30 3096 H 293.266 1.19053 -5.39009 0
M  V30 3097 H 293.743 2.01013 -3.905 0
M  V30 3098 H 294.349 0.371173 -4.23677 0
M  V30 3099 N 292.664 1.56529 -0.183458 0
M  V30 3100 C 293.594 2.21549 0.737456 0
M  V30 3101 C 294.575 1.17489 1.23005 0
M  V30 3102 O 295.76 1.45959 1.281 0
M  V30 3103 C 292.89 2.86575 1.96194 0
M  V30 3104 C 291.844 3.96778 1.60473 0
M  V30 3105 C 291.17 4.48911 2.90487 0
M  V30 3106 C 292.47 5.15767 0.823497 0
M  V30 3107 H 294.164 2.98761 0.195453 0
M  V30 3108 H 291.71 1.43702 0.0925686 0
M  V30 3109 H 293.663 3.30739 2.61131 0
M  V30 3110 H 292.387 2.06749 2.52828 0
M  V30 3111 H 291.046 3.53286 0.978997 0
M  V30 3112 H 290.694 3.65862 3.45186 0
M  V30 3113 H 290.394 5.23265 2.67335 0
M  V30 3114 H 291.918 4.95771 3.56432 0
M  V30 3115 H 293.332 5.56549 1.37571 0
M  V30 3116 H 291.729 5.96114 0.690551 0
M  V30 3117 H 292.799 4.84574 -0.177782 0
M  V30 3118 N 294.142 -0.090211 1.57342 0
M  V30 3119 C 295.105 -1.09335 2.01441 0
M  V30 3120 C 296.105 -1.32666 0.908641 0
M  V30 3121 O 297.295 -1.28697 1.174 0
M  V30 3122 C 294.427 -2.44136 2.3793 0
M  V30 3123 H 295.62 -0.713662 2.91285 0
M  V30 3124 H 293.173 -0.335404 1.52659 0
M  V30 3125 H 293.908 -2.86972 1.51055 0
M  V30 3126 H 293.693 -2.28548 3.18603 0
M  V30 3127 H 295.183 -3.16277 2.72688 0
M  V30 3128 N 295.62 -1.53406 -0.361157 0
M  V30 3129 C 296.845 -1.74024 -1.12829 0
M  V30 3130 C 297.27 -0.470069 -1.82132 0
M  V30 3131 O 296.628 0.57619 -1.719 0
M  V30 3132 C 296.676 -2.90903 -2.13091 0
M  V30 3133 O 295.78 -2.59821 -3.20261 0
M  V30 3134 H 295.121 -0.577804 -0.327168 0
M  V30 3135 H 297.651 -2.00307 -0.41693 0
M  V30 3136 H 297.661 -3.17194 -2.56616 0
M  V30 3137 H 296.336 -3.83034 -1.62042 0
M  V30 3138 H 294.913 -2.44362 -2.81677 0
M  V30 3139 N 297.098 0.621204 -1.44841 0
M  V30 3140 C 298.514 0.94048 -1.28946 0
M  V30 3141 C 298.714 2.00154 -0.23249 0
M  V30 3142 O 297.77 2.49651 0.378237 0
M  V30 3143 C 299.083 1.39433 -2.66419 0
M  V30 3144 C 300.631 1.50927 -2.74208 0
M  V30 3145 C 301.106 1.99692 -4.12174 0
M  V30 3146 N 302.597 2.06947 -4.144 0
M  V30 3147 C 303.332 2.45871 -5.1801 0
M  V30 3148 N 302.828 2.83862 -6.31977 0
M  V30 3149 N 304.621 2.46092 -5.05366 0
M  V30 3150 H 296.772 -0.0803548 -2.12248 0
M  V30 3151 H 299.035 0.0266913 -0.947624 0
M  V30 3152 H 298.741 0.688925 -3.44887 0
M  V30 3153 H 298.615 2.36347 -2.93973 0
M  V30 3154 H 301.002 2.20561 -1.96053 0
M  V30 3155 H 301.083 0.523627 -2.50383 0
M  V30 3156 H 300.727 1.30649 -4.90809 0
M  V30 3157 H 300.657 2.99146 -4.33381 0
M  V30 3158 H 303.148 1.80232 -3.32152 0
M  V30 3159 H 303.461 3.12405 -7.0684 0
M  V30 3160 H 301.806 2.8159 -6.35399 0
M  V30 3161 H 304.997 2.1581 -4.15384 0
M  V30 3162 H 305.17 2.76102 -5.86235 0
M  V30 3163 N 298.576 1.31904 0.862503 0
M  V30 3164 C 299.508 1.16005 1.97675 0
M  V30 3165 C 300.521 0.0971234 1.6251 0
M  V30 3166 O 301.71 0.345337 1.75128 0
M  V30 3167 C 298.81 0.751791 3.30456 0
M  V30 3168 C 297.983 1.90133 3.93914 0
M  V30 3169 C 297.042 1.4779 5.05019 0
M  V30 3170 O 296.068 2.18872 5.25437 0
M  V30 3171 N 297.27 0.369491 5.79323 0
M  V30 3172 H 300.035 2.11982 2.11857 0
M  V30 3173 H 297.596 1.24337 1.03691 0
M  V30 3174 H 299.588 0.451084 4.02178 0
M  V30 3175 H 298.158 -0.116593 3.12382 0
M  V30 3176 H 297.378 2.36896 3.15078 0
M  V30 3177 H 298.666 2.67111 4.33047 0
M  V30 3178 H 298.064 -0.222299 5.65263 0
M  V30 3179 H 296.621 0.128354 6.51674 0
M  V30 3180 N 300.054 -1.07777 1.14986 0
M  V30 3181 C 300.986 -2.14769 0.800436 0
M  V30 3182 C 301.999 -1.61739 -0.185595 0
M  V30 3183 O 303.188 -1.78462 0.0370358 0
M  V30 3184 C 300.288 -3.38481 0.168533 0
M  V30 3185 C 299.461 -4.20876 1.1909 0
M  V30 3186 C 298.52 -5.22976 0.581575 0
M  V30 3187 O 297.546 -5.55388 1.24633 0
M  V30 3188 N 298.748 -5.76976 -0.638706 0
M  V30 3189 H 301.513 -2.45348 1.72118 0
M  V30 3190 H 299.074 -1.23645 1.04515 0
M  V30 3191 H 301.066 -4.03916 -0.251764 0
M  V30 3192 H 299.636 -3.05651 -0.655467 0
M  V30 3193 H 298.856 -3.51322 1.78791 0
M  V30 3194 H 300.144 -4.7274 1.88133 0
M  V30 3195 H 299.542 -5.52886 -1.19723 0
M  V30 3196 H 298.099 -6.44061 -1.00142 0
M  V30 3197 N 301.532 -0.945985 -1.26051 0
M  V30 3198 C 302.462 -0.477172 -2.28572 0
M  V30 3199 C 303.443 0.472032 -1.63419 0
M  V30 3200 O 304.628 0.372853 -1.90587 0
M  V30 3201 C 301.758 0.253975 -3.4637 0
M  V30 3202 C 300.712 -0.609135 -4.23643 0
M  V30 3203 C 300.038 0.252252 -5.34105 0
M  V30 3204 C 301.338 -1.8829 -4.8718 0
M  V30 3205 H 303.032 -1.33402 -2.68038 0
M  V30 3206 H 300.578 -0.642904 -1.28852 0
M  V30 3207 H 302.531 0.593016 -4.17207 0
M  V30 3208 H 301.255 1.145 -3.05871 0
M  V30 3209 H 299.914 -0.931138 -3.54578 0
M  V30 3210 H 299.562 1.14278 -4.89846 0
M  V30 3211 H 299.262 -0.32188 -5.86718 0
M  V30 3212 H 300.786 0.586454 -6.07777 0
M  V30 3213 H 302.2 -1.61081 -5.50205 0
M  V30 3214 H 300.597 -2.40199 -5.49931 0
M  V30 3215 H 301.667 -2.59134 -4.09851 0
M  V30 3216 N 303.011 1.40521 -0.713556 0
M  V30 3217 C 304.26 2.00155 -0.249192 0
M  V30 3218 C 304.573 1.57224 1.16362 0
M  V30 3219 O 305.779 2.09542 1.72639 0
M  V30 3220 C 304.235 3.5773 -0.3946 0
M  V30 3221 C 303.843 4.09635 -1.81392 0
M  V30 3222 C 305.587 4.24499 0.00907364 0
M  V30 3223 C 303.494 5.59707 -1.91003 0
M  V30 3224 H 302.424 0.74868 -0.0894114 0
M  V30 3225 H 305.075 1.60784 -0.884352 0
M  V30 3226 H 303.457 3.94792 0.30911 0
M  V30 3227 H 304.631 3.83955 -2.54785 0
M  V30 3228 H 302.946 3.55456 -2.16888 0
M  V30 3229 H 305.543 5.34683 -0.0420404 0
M  V30 3230 H 305.886 4.02824 1.05065 0
M  V30 3231 H 306.419 3.92536 -0.645007 0
M  V30 3232 H 303.158 5.86234 -2.93275 0
M  V30 3233 H 302.678 5.87258 -1.22019 0
M  V30 3234 H 304.357 6.24776 -1.6812 0
M  V30 3235 N 304.489 0.459591 1.5075 0
M  V30 3236 C 305.766 -0.160371 1.94941 0
M  V30 3237 C 306.146 -1.58048 1.39943 0
M  V30 3238 O 305.494 -2.206 0.595629 0
M  V30 3239 C 305.704 -0.115432 3.48809 0
M  V30 3240 C 307.052 -0.310026 4.23467 0
M  V30 3241 O 308.076 -0.192543 3.55679 0
M  V30 3242 O 306.935 -0.546031 5.43765 0
M  V30 3243 H 304.029 -0.117925 0.818549 0
M  V30 3244 H 306.575 0.519169 1.61563 0
M  V30 3245 H 305.347 0.87652 3.81357 0
M  V30 3246 H 304.97 -0.836928 3.88692 0
M  V30 3247 N 305.967 -1.56429 0.191757 0
M  V30 3248 C 307.213 -1.98541 -0.441943 0
M  V30 3249 C 307.568 -1.07646 -1.59468 0
M  V30 3250 O 306.861 -0.120191 -1.91223 0
M  V30 3251 C 307.055 -3.44449 -0.953384 0
M  V30 3252 C 306.884 -4.49456 0.148262 0
M  V30 3253 C 305.654 -5.01668 0.604781 0
M  V30 3254 C 307.852 -5.05336 0.95602 0
M  V30 3255 N 305.834 -5.90334 1.6846 0
M  V30 3256 C 307.205 -5.9064 1.88531 0
M  V30 3257 C 309.26 -4.87779 0.998811 0
M  V30 3258 C 307.963 -6.60264 2.85383 0
M  V30 3259 C 309.989 -5.58139 1.95537 0
M  V30 3260 C 309.351 -6.43187 2.8721 0
M  V30 3261 H 305.45 -0.771247 -0.129236 0
M  V30 3262 H 308.034 -1.92426 0.296682 0
M  V30 3263 H 306.205 -3.5107 -1.66146 0
M  V30 3264 H 307.937 -3.73533 -1.55741 0
M  V30 3265 H 304.692 -4.73183 0.198736 0
M  V30 3266 H 305.116 -6.39371 2.22561 0
M  V30 3267 H 309.758 -4.21705 0.304048 0
M  V30 3268 H 307.476 -7.25538 3.55837 0
M  V30 3269 H 311.062 -5.46532 1.99484 0
M  V30 3270 H 309.942 -6.96674 3.60022 0
M  V30 3271 N 307.445 0.0818655 -1.57387 0
M  V30 3272 C 308.378 1.12986 -1.98266 0
M  V30 3273 C 309.356 1.38123 -0.857954 0
M  V30 3274 O 310.54 1.51663 -1.1194 0
M  V30 3275 C 307.667 2.47632 -2.31076 0
M  V30 3276 C 306.713 2.38693 -3.53452 0
M  V30 3277 S 307.546 1.79071 -5.04672 0
M  V30 3278 C 308.702 3.15316 -5.40673 0
M  V30 3279 H 308.935 0.781435 -2.86846 0
M  V30 3280 H 306.468 0.290034 -1.51651 0
M  V30 3281 H 308.426 3.25089 -2.50654 0
M  V30 3282 H 307.087 2.79638 -1.43043 0
M  V30 3283 H 306.28 3.37964 -3.73893 0
M  V30 3284 H 305.882 1.69369 -3.33452 0
M  V30 3285 H 308.174 4.11613 -5.38127 0
M  V30 3286 H 309.117 2.99664 -6.41566 0
M  V30 3287 H 309.525 3.15457 -4.68132 0
M  V30 3288 N 308.923 1.53595 0.353017 0
M  V30 3289 C 309.833 1.83897 1.45667 0
M  V30 3290 C 310.849 0.728334 1.58023 0
M  V30 3291 O 312.025 1.01968 1.73679 0
M  V30 3292 C 309.09 2.03383 2.80778 0
M  V30 3293 C 308.151 3.27262 2.77845 0
M  V30 3294 C 307.384 3.45809 4.06512 0
M  V30 3295 O 307.607 2.68387 5.03314 0
M  V30 3296 O 306.541 4.39207 4.11559 0
M  V30 3297 H 310.367 2.77686 1.2298 0
M  V30 3298 H 307.952 1.39132 0.544308 0
M  V30 3299 H 309.834 2.17698 3.60812 0
M  V30 3300 H 308.509 1.12783 3.03417 0
M  V30 3301 H 307.416 3.18359 1.96465 0
M  V30 3302 H 308.749 4.17824 2.60161 0
M  V30 3303 N 310.401 -0.613514 1.45168 0
M  V30 3304 C 311.364 -1.7065 1.53007 0
M  V30 3305 C 312.364 -1.5548 0.410184 0
M  V30 3306 O 313.554 -1.60656 0.673455 0
M  V30 3307 C 310.686 -3.09875 1.42093 0
M  V30 3308 H 311.879 -1.65068 2.50385 0
M  V30 3309 H 309.432 -0.828728 1.32521 0
M  V30 3310 H 310.167 -3.21039 0.458769 0
M  V30 3311 H 309.952 -3.22293 2.23315 0
M  V30 3312 H 311.442 -3.895 1.50598 0
M  V30 3313 N 311.879 -1.3236 -0.855495 0
M  V30 3314 C 313.156 -1.13491 -1.59309 0
M  V30 3315 C 313.536 0.30503 -2.08885 0
M  V30 3316 O 312.884 1.30151 -1.87811 0
M  V30 3317 C 313.094 -2.16176 -2.73987 0
M  V30 3318 C 314.442 -2.49463 -3.43589 0
M  V30 3319 O 315.466 -2.14715 -2.84211 0
M  V30 3320 O 314.325 -3.09027 -4.50738 0
M  V30 3321 H 311.419 -0.437887 -0.701559 0
M  V30 3322 H 313.965 -1.43887 -0.899696 0
M  V30 3323 H 312.737 -3.1297 -2.34873 0
M  V30 3324 H 312.36 -1.86769 -3.51003 0
M  V30 3325 N 313.357 1.07166 -1.15556 0
M  V30 3326 C 314.304 2.14417 -0.854055 0
M  V30 3327 C 315.274 1.64965 0.193806 0
M  V30 3328 O 316.459 1.90703 0.0609443 0
M  V30 3329 C 313.599 3.43304 -0.351574 0
M  V30 3330 C 312.712 4.06537 -1.46123 0
M  V30 3331 C 311.847 5.23266 -0.914677 0
M  V30 3332 C 310.886 5.78464 -2.00114 0
M  V30 3333 N 310.023 6.86521 -1.47083 0
M  V30 3334 H 314.863 2.39548 -1.77259 0
M  V30 3335 H 312.4 1.17543 -0.884425 0
M  V30 3336 H 314.358 4.17179 -0.0419409 0
M  V30 3337 H 312.988 3.18419 0.530037 0
M  V30 3338 H 312.04 3.30297 -1.88701 0
M  V30 3339 H 313.352 4.43567 -2.28144 0
M  V30 3340 H 312.506 6.04131 -0.557698 0
M  V30 3341 H 311.245 4.87658 -0.0636583 0
M  V30 3342 H 310.25 4.96243 -2.36692 0
M  V30 3343 H 311.475 6.16126 -2.85597 0
M  V30 3344 H 309.421 6.52849 -0.642198 0
M  V30 3345 H 309.338 7.22446 -2.22729 0
M  V30 3346 H 310.606 7.71087 -1.14215 0
M  V30 3347 N 314.835 0.952656 1.25548 0
M  V30 3348 C 316.081 0.607272 1.93494 0
M  V30 3349 C 316.414 -0.853245 1.74452 0
M  V30 3350 O 315.689 -1.61194 1.08843 0
M  V30 3351 C 315.972 0.96435 3.46947 0
M  V30 3352 C 315.825 2.48045 3.75225 0
M  V30 3353 C 317.144 0.487987 4.37386 0
M  V30 3354 H 314.263 0.222096 0.702739 0
M  V30 3355 H 316.905 1.18895 1.48203 0
M  V30 3356 H 315.055 0.469361 3.85654 0
M  V30 3357 H 316.727 3.04905 3.46166 0
M  V30 3358 H 314.97 2.919 3.209 0
M  V30 3359 H 315.641 2.6808 4.82532 0
M  V30 3360 H 318.117 0.912558 4.0597 0
M  V30 3361 H 316.993 0.766547 5.43521 0
M  V30 3362 H 317.254 -0.612063 4.37843 0
M  V30 3363 N 316.313 -1.40141 0.720998 0
M  V30 3364 C 317.276 -2.29058 0.0805834 0
M  V30 3365 C 318.276 -1.45632 -0.681758 0
M  V30 3366 O 319.466 -1.6648 -0.512856 0
M  V30 3367 C 316.598 -3.28925 -0.895593 0
M  V30 3368 H 317.791 -2.87191 0.863793 0
M  V30 3369 H 315.344 -1.48553 0.485975 0
M  V30 3370 H 316.079 -2.75822 -1.70566 0
M  V30 3371 H 315.864 -3.90519 -0.351766 0
M  V30 3372 H 317.354 -3.95494 -1.34069 0
M  V30 3373 N 317.792 -0.46758 -1.50504 0
M  V30 3374 C 319.04 0.0884469 -2.01906 0
M  V30 3375 C 319.361 1.40532 -1.35188 0
M  V30 3376 O 318.631 1.89515 -0.496079 0
M  V30 3377 H 317.211 0.0356765 -0.746148 0
M  V30 3378 H 319.873 -0.6172 -1.84869 0
M  V30 3379 H 318.969 0.2425 -3.11156 0
M  V30 3380 N 319.27 1.56325 -0.20005 0
M  V30 3381 C 320.681 1.8408 0.31167 0
M  V30 3382 C 321.032 1.12087 1.61031 0
M  V30 3383 O 320.157 0.38332 2.12978 0
M  V30 3384 C 320.752 3.33932 0.57226 0
M  V30 3385 C 319.311 3.6208 1.02834 0
M  V30 3386 C 318.458 2.77186 0.079634 0
M  V30 3387 H 321.409 1.52939 -0.423729 0
M  V30 3388 H 321.43 3.52971 1.42096 0
M  V30 3389 H 320.942 3.86303 -0.37308 0
M  V30 3390 H 319.043 3.15147 1.98778 0
M  V30 3391 H 319.156 4.7023 0.917624 0
M  V30 3392 H 317.52 2.47951 0.582448 0
M  V30 3393 H 318.303 3.32347 -0.860238 0
M  V30 3394 N 320.748 -0.0735177 1.57428 0
M  V30 3395 C 321.678 -1.0879 2.06608 0
M  V30 3396 C 322.659 -1.40473 0.959237 0
M  V30 3397 O 323.844 -1.5013 1.23185 0
M  V30 3398 C 320.974 -2.40183 2.50857 0
M  V30 3399 C 319.928 -2.22858 3.65402 0
M  V30 3400 C 319.254 -3.59619 3.957 0
M  V30 3401 C 320.554 -1.65123 4.95511 0
M  V30 3402 H 322.248 -0.678673 2.91607 0
M  V30 3403 H 319.794 -0.325013 1.40284 0
M  V30 3404 H 321.747 -3.11437 2.83874 0
M  V30 3405 H 320.471 -2.83083 1.62885 0
M  V30 3406 H 319.13 -1.54045 3.32664 0
M  V30 3407 H 318.778 -4.00086 3.04861 0
M  V30 3408 H 318.478 -3.48866 4.72828 0
M  V30 3409 H 320.002 -4.32306 4.31212 0
M  V30 3410 H 321.416 -2.26241 5.26771 0
M  V30 3411 H 319.813 -1.65071 5.7695 0
M  V30 3412 H 320.883 -0.612559 4.81015 0
M  V30 3413 N 322.226 -1.5378 -0.344866 0
M  V30 3414 C 323.156 -1.84662 -1.42906 0
M  V30 3415 C 324.137 -0.701648 -1.54955 0
M  V30 3416 O 325.322 -0.953438 -1.69184 0
M  V30 3417 C 322.452 -2.05503 -2.79974 0
M  V30 3418 C 321.406 -3.21318 -2.82734 0
M  V30 3419 C 320.732 -3.2749 -4.22675 0
M  V30 3420 C 322.032 -4.59456 -2.48389 0
M  V30 3421 H 323.726 -2.75461 -1.17311 0
M  V30 3422 H 321.272 -1.32542 -0.562896 0
M  V30 3423 H 323.225 -2.25691 -3.55867 0
M  V30 3424 H 321.949 -1.11434 -3.07002 0
M  V30 3425 H 320.608 -3.00984 -2.09294 0
M  V30 3426 H 320.256 -2.31019 -4.4681 0
M  V30 3427 H 319.956 -4.05316 -4.25433 0
M  V30 3428 H 321.48 -3.49887 -5.00412 0
M  V30 3429 H 322.894 -4.79667 -3.13995 0
M  V30 3430 H 321.291 -5.39675 -2.62432 0
M  V30 3431 H 322.361 -4.63155 -1.4358 0
M  V30 3432 N 323.704 0.605807 -1.45491 0
M  V30 3433 C 325.12 0.926751 -1.29936 0
M  V30 3434 C 325.32 1.99896 -0.253706 0
M  V30 3435 O 324.376 2.50038 0.351737 0
M  V30 3436 C 325.689 1.36599 -2.67883 0
M  V30 3437 C 327.237 1.4801 -2.75793 0
M  V30 3438 C 327.712 1.95309 -4.14268 0
M  V30 3439 N 329.203 2.0254 -4.16571 0
M  V30 3440 C 329.938 2.40363 -5.20589 0
M  V30 3441 N 329.434 2.77143 -6.34952 0
M  V30 3442 N 331.227 2.40718 -5.07948 0
M  V30 3443 H 323.378 -0.102862 -2.12151 0
M  V30 3444 H 325.641 0.016639 -0.947854 0
M  V30 3445 H 325.347 0.652306 -3.45598 0
M  V30 3446 H 325.221 2.33215 -2.96463 0
M  V30 3447 H 327.608 2.1847 -1.98381 0
M  V30 3448 H 327.689 0.497041 -2.50925 0
M  V30 3449 H 327.333 1.25436 -4.92167 0
M  V30 3450 H 327.263 2.94532 -4.3653 0
M  V30 3451 H 329.754 1.76699 -3.34045 0
M  V30 3452 H 330.067 3.0489 -7.10114 0
M  V30 3453 H 328.412 2.74834 -6.3835 0
M  V30 3454 H 331.603 2.11392 -4.1765 0
M  V30 3455 H 331.776 2.69869 -5.89131 0
M  V30 3456 N 325.182 1.32811 0.848464 0
M  V30 3457 C 326.407 1.26882 1.6406 0
M  V30 3458 C 326.832 -0.15913 1.87426 0
M  V30 3459 O 326.19 -1.11258 1.43148 0
M  V30 3460 C 326.238 2.03997 2.97351 0
M  V30 3461 O 325.342 1.39201 3.88197 0
M  V30 3462 H 324.683 0.436982 0.499943 0
M  V30 3463 H 327.213 1.75224 1.0563 0
M  V30 3464 H 327.223 2.14403 3.47124 0
M  V30 3465 H 325.898 3.0783 2.79666 0
M  V30 3466 H 324.475 1.37381 3.46671 0
M  V30 3467 N 326.66 -1.06551 1.16123 0
M  V30 3468 C 327.623 -2.12132 0.867906 0
M  V30 3469 C 328.623 -1.60224 -0.135944 0
M  V30 3470 O 329.813 -1.73943 0.0946422 0
M  V30 3471 C 326.945 -3.396 0.297419 0
M  V30 3472 H 328.138 -2.39586 1.80385 0
M  V30 3473 H 325.691 -1.22574 0.969812 0
M  V30 3474 H 326.426 -3.17794 -0.64633 0
M  V30 3475 H 326.211 -3.78581 1.02073 0
M  V30 3476 H 327.701 -4.17455 0.110052 0
M  V30 3477 N 328.138 -0.959301 -1.25041 0
M  V30 3478 C 329.068 -0.501388 -2.28053 0
M  V30 3479 C 330.049 0.454673 -1.63911 0
M  V30 3480 O 331.234 0.352618 -1.90972 0
M  V30 3481 C 328.364 0.217224 -3.4662 0
M  V30 3482 C 327.318 -0.654034 -4.22973 0
M  V30 3483 C 326.644 0.195589 -5.34342 0
M  V30 3484 C 327.944 -1.93447 -4.85155 0
M  V30 3485 H 329.638 -1.36238 -2.66608 0
M  V30 3486 H 327.184 -0.656534 -1.28163 0
M  V30 3487 H 329.137 0.548732 -4.17812 0
M  V30 3488 H 327.861 1.1125 -3.07068 0
M  V30 3489 H 326.52 -0.968693 -3.5357 0
M  V30 3490 H 326.168 1.09076 -4.91031 0
M  V30 3491 H 325.868 -0.384091 -5.86343 0
M  V30 3492 H 327.392 0.521958 -6.08365 0
M  V30 3493 H 328.806 -1.66908 -5.48466 0
M  V30 3494 H 327.203 -2.46018 -5.47353 0
M  V30 3495 H 328.273 -2.63466 -4.07079 0
M  V30 3496 N 329.616 1.39756 -0.72842 0
M  V30 3497 C 331.027 1.83498 -0.344289 0
M  V30 3498 C 331.378 1.60868 1.12321 0
M  V30 3499 O 330.503 1.09634 1.86573 0
M  V30 3500 C 331.098 3.33114 -0.618112 0
M  V30 3501 C 329.657 3.753 -0.287549 0
M  V30 3502 C 328.804 2.62831 -0.884048 0
M  V30 3503 H 331.755 1.28842 -0.926578 0
M  V30 3504 H 331.776 3.80334 0.112349 0
M  V30 3505 H 331.288 3.49553 -1.68625 0
M  V30 3506 H 329.389 3.64451 0.775012 0
M  V30 3507 H 329.502 4.72945 -0.765512 0
M  V30 3508 H 327.866 2.52792 -0.311149 0
M  V30 3509 H 328.649 2.82078 -1.95671 0
M  V30 3510 N 331.094 0.475555 1.50254 0
M  V30 3511 C 332.057 -0.305016 2.27161 0
M  V30 3512 C 333.057 -0.916519 1.32123 0
M  V30 3513 O 334.247 -0.785003 1.5551 0
M  V30 3514 C 331.379 -1.43496 3.09227 0
M  V30 3515 H 332.572 0.369511 2.97615 0
M  V30 3516 H 330.125 0.229747 1.54602 0
M  V30 3517 H 330.86 -2.14441 2.43281 0
M  V30 3518 H 330.645 -1.00223 3.79075 0
M  V30 3519 H 332.135 -1.98548 3.67381 0
M  V30 3520 N 332.573 -1.56217 0.208337 0
M  V30 3521 C 333.821 -1.97558 -0.426076 0
M  V30 3522 C 334.142 -1.09683 -1.61229 0
M  V30 3523 O 333.412 -0.170956 -1.95153 0
M  V30 3524 H 331.992 -0.729575 -0.160405 0
M  V30 3525 H 334.654 -1.92606 0.298155 0
M  V30 3526 H 333.75 -3.02672 -0.761312 0
M  V30 3527 N 334.051 0.0651679 -1.57465 0
M  V30 3528 C 335.297 0.758912 -1.88712 0
M  V30 3529 C 335.652 1.7485 -0.802819 0
M  V30 3530 O 334.945 1.90632 0.192359 0
M  V30 3531 C 335.139 1.50081 -3.24362 0
M  V30 3532 C 334.968 0.584579 -4.45884 0
M  V30 3533 C 333.738 0.219039 -5.04825 0
M  V30 3534 C 335.936 -0.121559 -5.14156 0
M  V30 3535 N 333.918 -0.702222 -6.09871 0
M  V30 3536 C 335.289 -0.899767 -6.13436 0
M  V30 3537 C 337.344 -0.192331 -4.97528 0
M  V30 3538 C 336.047 -1.74218 -6.97883 0
M  V30 3539 C 338.073 -1.02174 -5.82507 0
M  V30 3540 C 337.435 -1.78798 -6.8133 0
M  V30 3541 H 333.534 0.25293 -0.739967 0
M  V30 3542 H 336.118 0.0201744 -1.9469 0
M  V30 3543 H 334.289 2.21023 -3.1938 0
M  V30 3544 H 336.021 2.14409 -3.43236 0
M  V30 3545 H 332.776 0.57336 -4.70117 0
M  V30 3546 H 333.2 -1.15629 -6.67052 0
M  V30 3547 H 337.842 0.385741 -4.21037 0
M  V30 3548 H 335.56 -2.3312 -7.73745 0
M  V30 3549 H 339.146 -1.07957 -5.71696 0
M  V30 3550 H 338.026 -2.41942 -7.45945 0
M  V30 3551 N 335.529 1.53961 0.336706 0
M  V30 3552 C 336.776 1.71536 1.07618 0
M  V30 3553 C 337.104 0.482125 1.8843 0
M  V30 3554 O 336.359 -0.536142 1.88213 0
M  V30 3555 C 336.658 2.93493 2.03953 0
M  V30 3556 C 336.324 4.28811 1.39399 0
M  V30 3557 C 334.986 4.65602 1.21523 0
M  V30 3558 C 337.338 5.12844 0.929541 0
M  V30 3559 C 334.666 5.84037 0.558312 0
M  V30 3560 C 337.018 6.31951 0.286505 0
M  V30 3561 C 335.682 6.67432 0.0954869 0
M  V30 3562 H 334.952 0.627696 0.393801 0
M  V30 3563 H 337.599 1.88186 0.354715 0
M  V30 3564 H 335.904 2.71475 2.82504 0
M  V30 3565 H 337.601 3.04285 2.61174 0
M  V30 3566 H 334.191 3.99858 1.54311 0
M  V30 3567 H 338.375 4.84947 1.05548 0
M  V30 3568 H 333.631 6.10097 0.398995 0
M  V30 3569 H 337.805 6.96352 -0.0814376 0
M  V30 3570 H 335.432 7.59063 -0.415579 0
M  V30 3571 N 337.007 -0.598083 1.45811 0
M  V30 3572 C 338.256 -1.35295 1.49594 0
M  V30 3573 C 338.569 -1.95057 0.145679 0
M  V30 3574 O 339.775 -2.71431 0.0612099 0
M  V30 3575 C 338.231 -2.45124 2.63519 0
M  V30 3576 C 337.839 -1.91732 4.04899 0
M  V30 3577 C 339.583 -3.2205 2.76558 0
M  V30 3578 C 337.49 -2.991 5.1019 0
M  V30 3579 H 336.42 -0.508552 0.556679 0
M  V30 3580 H 339.071 -0.639977 1.71978 0
M  V30 3581 H 337.453 -3.19149 2.34435 0
M  V30 3582 H 338.627 -1.24352 4.43704 0
M  V30 3583 H 336.942 -1.27522 3.96393 0
M  V30 3584 H 339.539 -4.0215 3.52391 0
M  V30 3585 H 339.882 -3.73663 1.83526 0
M  V30 3586 H 340.415 -2.55127 3.05213 0
M  V30 3587 H 337.154 -2.52393 6.04961 0
M  V30 3588 H 336.674 -3.65017 4.75944 0
M  V30 3589 H 338.353 -3.63318 5.35359 0
M  V30 3590 N 338.485 -1.33259 -0.841409 0
M  V30 3591 C 339.448 -1.23221 -1.9326 0
M  V30 3592 C 340.448 -0.151895 -1.60081 0
M  V30 3593 O 341.638 -0.403246 -1.69468 0
M  V30 3594 C 338.77 -0.898123 -3.28856 0
M  V30 3595 H 339.963 -2.2021 -2.03587 0
M  V30 3596 H 337.516 -1.17281 -1.03319 0
M  V30 3597 H 338.251 0.0693841 -3.24226 0
M  V30 3598 H 338.036 -1.67934 -3.54317 0
M  V30 3599 H 339.526 -0.852563 -4.08805 0
M  V30 3600 N 339.963 1.05934 -1.16686 0
M  V30 3601 C 341.24 1.75643 -0.860747 0
M  V30 3602 C 341.62 2.01144 0.640641 0
M  V30 3603 O 340.968 1.64147 1.58959 0
M  V30 3604 C 341.178 3.05493 -1.68745 0
M  V30 3605 C 342.526 3.79581 -1.90271 0
M  V30 3606 O 343.55 3.15344 -1.65641 0
M  V30 3607 O 342.409 4.9499 -2.31618 0
M  V30 3608 H 339.503 0.763426 -0.317977 0
M  V30 3609 H 342.049 1.1217 -1.27342 0
M  V30 3610 H 340.821 2.8264 -2.70611 0
M  V30 3611 H 340.444 3.76702 -1.27206 0
M  V30 3612 N 341.441 0.965919 1.2453 0
M  V30 3613 C 342.388 0.49402 2.25451 0
M  V30 3614 C 343.358 -0.45948 1.59618 0
M  V30 3615 O 344.543 -0.370238 1.87173 0
M  V30 3616 C 341.683 -0.211359 3.44452 0
M  V30 3617 C 340.796 0.7807 4.24887 0
M  V30 3618 C 339.931 0.0516105 5.31175 0
M  V30 3619 C 338.97 1.03385 6.03306 0
M  V30 3620 N 338.107 0.334887 7.01301 0
M  V30 3621 H 342.947 1.35946 2.65184 0
M  V30 3622 H 340.484 0.681515 1.3036 0
M  V30 3623 H 342.442 -0.637 4.12308 0
M  V30 3624 H 341.072 -1.04077 3.05562 0
M  V30 3625 H 340.124 1.32479 3.56586 0
M  V30 3626 H 341.436 1.52978 4.74762 0
M  V30 3627 H 340.59 -0.432114 6.05159 0
M  V30 3628 H 339.329 -0.730179 4.82203 0
M  V30 3629 H 338.334 1.52847 5.28127 0
M  V30 3630 H 339.559 1.81606 6.54367 0
M  V30 3631 H 337.505 -0.427959 6.54603 0
M  V30 3632 H 337.422 1.02287 7.49048 0
M  V30 3633 H 338.69 -0.126928 7.79397 0
M  V30 3634 N 342.919 -1.39368 0.735821 0
M  V30 3635 C 344.144 -2.05319 0.293052 0
M  V30 3636 C 344.569 -1.55115 -1.064 0
M  V30 3637 O 343.927 -0.695261 -1.67439 0
M  V30 3638 C 343.975 -3.59305 0.305323 0
M  V30 3639 O 343.079 -4.06299 -0.706761 0
M  V30 3640 H 342.42 -0.650529 0.13307 0
M  V30 3641 H 344.95 -1.78386 1.00197 0
M  V30 3642 H 344.96 -4.07724 0.149997 0
M  V30 3643 H 343.635 -3.95207 1.29553 0
M  V30 3644 H 342.212 -3.69292 -0.517504 0
M  V30 3645 N 344.397 -0.483516 -1.5 0
M  V30 3646 C 345.645 0.067027 -2.01989 0
M  V30 3647 C 345.966 1.3909 -1.36671 0
M  V30 3648 O 345.236 1.88978 -0.516152 0
M  V30 3649 H 343.816 0.0277606 -0.746484 0
M  V30 3650 H 346.478 -0.636773 -1.84204 0
M  V30 3651 H 345.574 0.209484 -3.11396 0
M  V30 3652 N 345.875 1.56104 -0.216619 0
M  V30 3653 C 346.838 2.18819 0.681962 0
M  V30 3654 C 347.838 1.14866 1.12528 0
M  V30 3655 O 349.028 1.40128 1.03488 0
M  V30 3656 C 346.16 2.80756 1.93362 0
M  V30 3657 H 347.353 2.99595 0.135254 0
M  V30 3658 H 344.906 1.56265 0.0330003 0
M  V30 3659 H 345.641 2.03837 2.52232 0
M  V30 3660 H 345.426 3.56876 1.62426 0
M  V30 3661 H 346.916 3.28844 2.57393 0
M  V30 3662 N 347.353 -0.0568162 1.57498 0
M  V30 3663 C 348.601 -0.751617 1.87604 0
M  V30 3664 C 348.922 -1.77351 0.81066 0
M  V30 3665 O 348.192 -1.95254 -0.159018 0
M  V30 3666 H 346.772 -0.280583 0.692302 0
M  V30 3667 H 349.434 -0.0293483 1.94878 0
M  V30 3668 H 348.53 -1.25852 2.856 0
M  V30 3669 N 348.832 -1.54138 -0.328536 0
M  V30 3670 C 349.742 -1.86192 -1.42723 0
M  V30 3671 C 350.758 -0.753382 -1.56844 0
M  V30 3672 O 351.934 -1.04718 -1.72035 0
M  V30 3673 C 348.999 -2.07824 -2.77507 0
M  V30 3674 C 348.06 -3.31641 -2.72603 0
M  V30 3675 C 347.293 -3.52232 -4.00959 0
M  V30 3676 O 347.516 -2.7636 -4.9898 0
M  V30 3677 O 346.45 -4.45699 -4.0452 0
M  V30 3678 H 350.276 -2.79608 -1.18547 0
M  V30 3679 H 347.861 -1.3998 -0.522104 0
M  V30 3680 H 349.743 -2.23411 -3.57303 0
M  V30 3681 H 348.418 -1.17596 -3.01584 0
M  V30 3682 H 347.325 -3.21444 -1.91376 0
M  V30 3683 H 348.658 -4.2191 -2.53481 0
M  V30 3684 N 350.31 0.590341 -1.46126 0
M  V30 3685 C 351.726 0.912917 -1.30912 0
M  V30 3686 C 351.926 1.99616 -0.274893 0
M  V30 3687 O 350.982 2.50397 0.325197 0
M  V30 3688 C 352.295 1.3375 -2.69317 0
M  V30 3689 C 353.843 1.45077 -2.77348 0
M  V30 3690 C 354.318 1.90904 -4.16317 0
M  V30 3691 N 355.809 1.9811 -4.18696 0
M  V30 3692 C 356.544 2.34828 -5.23109 0
M  V30 3693 N 356.04 2.70393 -6.37856 0
M  V30 3694 N 357.833 2.35317 -5.10473 0
M  V30 3695 H 349.984 -0.125358 -2.1203 0
M  V30 3696 H 352.247 0.00658481 -0.947977 0
M  V30 3697 H 351.953 0.615614 -3.4627 0
M  V30 3698 H 351.827 2.30058 -2.9892 0
M  V30 3699 H 354.214 2.16353 -2.00687 0
M  V30 3700 H 354.295 0.4704 -2.51438 0
M  V30 3701 H 353.939 1.20209 -4.9347 0
M  V30 3702 H 353.869 2.89886 -4.39629 0
M  V30 3703 H 356.36 1.73146 -3.359 0
M  V30 3704 H 356.673 2.97341 -7.13308 0
M  V30 3705 H 355.018 2.68048 -6.41229 0
M  V30 3706 H 358.209 2.0695 -4.19868 0
M  V30 3707 H 358.382 2.63605 -5.9196 0
M  V30 3708 N 351.788 1.33704 0.83433 0
M  V30 3709 C 353.036 1.25169 1.58673 0
M  V30 3710 C 353.357 -0.18127 1.94156 0
M  V30 3711 O 352.627 -1.11113 1.6134 0
M  V30 3712 H 351.207 0.4603 0.58833 0
M  V30 3713 H 353.869 1.67478 0.996847 0
M  V30 3714 H 352.965 1.84856 2.51465 0
M  V30 3715 N 353.266 -1.05314 1.17247 0
M  V30 3716 C 354.491 -1.82509 0.985148 0
M  V30 3717 C 354.916 -1.82343 -0.461788 0
M  V30 3718 O 354.274 -1.23151 -1.33055 0
M  V30 3719 C 354.322 -3.26566 1.52929 0
M  V30 3720 O 353.426 -4.05666 0.742225 0
M  V30 3721 H 352.767 -0.564347 0.349869 0
M  V30 3722 H 355.297 -1.32718 1.55715 0
M  V30 3723 H 355.307 -3.77369 1.55103 0
M  V30 3724 H 353.982 -3.26001 2.58256 0
M  V30 3725 H 352.559 -3.64397 0.791794 0
M  V30 3726 N 354.744 -0.972509 -1.24016 0
M  V30 3727 C 356.16 -0.679827 -1.44397 0
M  V30 3728 C 356.36 0.756716 -1.86751 0
M  V30 3729 O 355.416 1.53007 -2.00861 0
M  V30 3730 C 356.729 -1.66803 -2.50195 0
M  V30 3731 C 358.277 -1.68119 -2.64017 0
M  V30 3732 C 358.752 -2.65748 -3.73017 0
M  V30 3733 N 360.243 -2.64219 -3.8045 0
M  V30 3734 C 360.978 -3.36433 -4.64328 0
M  V30 3735 N 360.474 -4.1818 -5.52356 0
M  V30 3736 N 362.267 -3.25235 -4.58453 0
M  V30 3737 H 354.418 -1.90059 -0.948228 0
M  V30 3738 H 356.681 -0.818527 -0.478245 0
M  V30 3739 H 356.387 -2.69498 -2.25973 0
M  V30 3740 H 356.261 -1.4446 -3.48441 0
M  V30 3741 H 358.648 -0.661319 -2.87594 0
M  V30 3742 H 358.729 -1.94525 -1.66113 0
M  V30 3743 H 358.373 -3.67872 -3.50189 0
M  V30 3744 H 358.303 -2.36619 -4.70446 0
M  V30 3745 H 360.794 -2.04887 -3.17537 0
M  V30 3746 H 361.107 -4.70157 -6.13329 0
M  V30 3747 H 359.452 -4.22273 -5.52006 0
M  V30 3748 H 362.643 -2.60829 -3.88698 0
M  V30 3749 H 362.816 -3.81776 -5.23594 0
M  V30 3750 N 356.222 1.38976 -0.743202 0
M  V30 3751 C 357.47 1.99948 -0.29417 0
M  V30 3752 C 357.791 1.59279 1.12495 0
M  V30 3753 O 357.061 0.844808 1.76748 0
M  V30 3754 H 355.641 0.739473 -0.105774 0
M  V30 3755 H 358.303 1.699 -0.954986 0
M  V30 3756 H 357.399 3.10142 -0.349056 0
M  V30 3757 N 357.7 0.491464 1.49741 0
M  V30 3758 C 358.949 -0.0582189 2.01616 0
M  V30 3759 C 359.262 -1.38927 1.3769 0
M  V30 3760 O 360.468 -2.02509 1.80838 0
M  V30 3761 C 358.924 -0.154235 3.59569 0
M  V30 3762 C 358.532 1.1696 4.32463 0
M  V30 3763 C 360.276 -0.65479 4.1942 0
M  V30 3764 C 358.183 1.03627 5.8225 0
M  V30 3765 H 357.113 -0.0255317 0.753568 0
M  V30 3766 H 359.764 0.629445 1.72367 0
M  V30 3767 H 358.146 -0.906138 3.85493 0
M  V30 3768 H 359.32 1.93405 4.18248 0
M  V30 3769 H 357.635 1.60285 3.84315 0
M  V30 3770 H 360.232 -0.771903 5.29099 0
M  V30 3771 H 360.575 -1.65127 3.8215 0
M  V30 3772 H 361.108 0.040304 3.9778 0
M  V30 3773 H 357.847 2.00672 6.24028 0
M  V30 3774 H 357.367 0.312546 5.98985 0
M  V30 3775 H 359.046 0.711114 6.4308 0
M  V30 3776 N 359.178 -1.55987 0.224894 0
M  V30 3777 C 360.427 -1.97566 -0.406273 0
M  V30 3778 C 360.74 -1.11569 -1.6066 0
M  V30 3779 O 361.946 -1.43062 -2.3075 0
M  V30 3780 C 360.402 -3.51474 -0.774207 0
M  V30 3781 C 360.01 -4.46179 0.403496 0
M  V30 3782 C 361.754 -4.01758 -1.37079 0
M  V30 3783 C 359.661 -5.91399 0.0129412 0
M  V30 3784 H 358.591 -0.737777 -0.155565 0
M  V30 3785 H 361.242 -1.80659 0.321635 0
M  V30 3786 H 359.624 -3.63994 -1.55963 0
M  V30 3787 H 360.798 -4.45409 1.18101 0
M  V30 3788 H 359.113 -4.06255 0.913536 0
M  V30 3789 H 361.71 -5.07756 -1.67596 0
M  V30 3790 H 362.053 -3.47805 -2.28773 0
M  V30 3791 H 362.586 -3.92475 -0.648733 0
M  V30 3792 H 359.325 -6.49341 0.896451 0
M  V30 3793 H 358.845 -5.95356 -0.728821 0
M  V30 3794 H 360.524 -6.45683 -0.412582 0
M  V30 3795 N 360.656 0.0484629 -1.57525 0
M  V30 3796 C 361.619 1.03956 -2.04269 0
M  V30 3797 C 362.619 1.30211 -0.943496 0
M  V30 3798 O 363.809 1.25539 -1.20771 0
M  V30 3799 C 360.941 2.37742 -2.44319 0
M  V30 3800 H 362.134 0.636182 -2.93075 0
M  V30 3801 H 359.687 0.294811 -1.53494 0
M  V30 3802 H 360.422 2.82866 -1.5861 0
M  V30 3803 H 360.207 2.20021 -3.24551 0
M  V30 3804 H 361.697 3.08936 -2.80978 0
M  V30 3805 N 362.134 1.5431 0.320358 0
M  V30 3806 C 363.097 1.83195 1.3774 0
M  V30 3807 C 364.097 0.703906 1.44575 0
M  V30 3808 O 365.287 0.972214 1.44546 0
M  V30 3809 C 362.419 1.99487 2.76438 0
M  V30 3810 H 363.612 2.77642 1.1338 0
M  V30 3811 H 361.165 1.46076 0.556012 0
M  V30 3812 H 361.9 1.07262 3.06048 0
M  V30 3813 H 361.685 2.81575 2.7287 0
M  V30 3814 H 363.175 2.23271 3.52902 0
M  V30 3815 N 363.613 -0.582584 1.46437 0
M  V30 3816 C 364.543 -1.70187 1.59871 0
M  V30 3817 C 365.524 -1.64066 0.449042 0
M  V30 3818 O 366.709 -1.82081 0.6753 0
M  V30 3819 C 363.839 -3.08827 1.58881 0
M  V30 3820 C 362.793 -3.29779 2.72819 0
M  V30 3821 C 362.119 -4.68947 2.5689 0
M  V30 3822 C 363.419 -3.17601 4.1464 0
M  V30 3823 H 365.113 -1.592 2.53566 0
M  V30 3824 H 362.659 -0.764472 1.22032 0
M  V30 3825 H 364.612 -3.86951 1.66873 0
M  V30 3826 H 363.336 -3.20713 0.617306 0
M  V30 3827 H 361.995 -2.54054 2.64296 0
M  V30 3828 H 361.643 -4.77599 1.57823 0
M  V30 3829 H 361.343 -4.83919 3.33312 0
M  V30 3830 H 362.867 -5.4924 2.66773 0
M  V30 3831 H 364.281 -3.8557 4.24274 0
M  V30 3832 H 362.678 -3.44094 4.9165 0
M  V30 3833 H 363.748 -2.14681 4.34788 0
M  V30 3834 N 365.091 -1.34144 -0.827227 0
M  V30 3835 C 366.339 -1.26009 -1.58007 0
M  V30 3836 C 366.66 0.170971 -1.94249 0
M  V30 3837 O 365.93 1.10256 -1.61927 0
M  V30 3838 H 364.51 -0.463414 -0.585881 0
M  V30 3839 H 367.172 -1.68005 -0.987951 0
M  V30 3840 H 366.268 -1.86187 -2.50481 0
M  V30 3841 N 366.569 1.04691 -1.17803 0
M  V30 3842 C 367.98 1.59238 -0.974689 0
M  V30 3843 C 368.331 1.90306 0.477292 0
M  V30 3844 O 367.456 1.68846 1.35352 0
M  V30 3845 C 368.051 2.89318 -1.76296 0
M  V30 3846 C 366.61 3.40506 -1.60414 0
M  V30 3847 C 365.757 2.14172 -1.76141 0
M  V30 3848 H 368.708 0.874395 -1.32439 0
M  V30 3849 H 368.729 3.5944 -1.24833 0
M  V30 3850 H 368.241 2.66675 -2.81968 0
M  V30 3851 H 366.342 3.68175 -0.572519 0
M  V30 3852 H 366.455 4.14753 -2.39827 0
M  V30 3853 H 364.819 2.25176 -1.19028 0
M  V30 3854 H 365.602 1.93992 -2.83235 0
M  V30 3855 N 368.047 0.979072 1.23499 0
M  V30 3856 C 369.324 0.563674 1.87302 0
M  V30 3857 C 369.704 -0.959199 1.88049 0
M  V30 3858 O 369.052 -1.83535 1.36114 0
M  V30 3859 C 369.262 1.16822 3.28867 0
M  V30 3860 C 370.61 1.26014 4.0547 0
M  V30 3861 O 371.634 1.12158 3.38082 0
M  V30 3862 O 370.493 1.48044 5.26066 0
M  V30 3863 H 367.587 0.189602 0.804972 0
M  V30 3864 H 370.133 1.07407 1.31384 0
M  V30 3865 H 368.905 2.21049 3.22883 0
M  V30 3866 H 368.528 0.642564 3.92373 0
M  V30 3867 N 369.525 -1.3858 0.750561 0
M  V30 3868 C 370.773 -1.99789 0.30477 0
M  V30 3869 C 371.094 -1.59874 -1.11649 0
M  V30 3870 O 370.364 -0.85417 -1.76297 0
M  V30 3871 H 368.944 -0.738902 0.109694 0
M  V30 3872 H 371.606 -1.69391 0.963983 0
M  V30 3873 H 370.702 -3.09952 0.365499 0
M  V30 3874 N 371.003 -0.499398 -1.49478 0
M  V30 3875 C 371.95 0.279881 -2.29097 0
M  V30 3876 C 372.92 0.961805 -1.3542 0
M  V30 3877 O 374.105 0.968777 -1.64376 0
M  V30 3878 C 371.245 1.33932 -3.18051 0
M  V30 3879 C 370.358 0.669333 -4.26783 0
M  V30 3880 C 369.493 1.70907 -5.02955 0
M  V30 3881 C 368.532 1.02087 -6.03527 0
M  V30 3882 N 367.669 2.00474 -6.7287 0
M  V30 3883 H 372.509 -0.405317 -2.95231 0
M  V30 3884 H 370.046 -0.211726 -1.45568 0
M  V30 3885 H 372.004 1.96553 -3.67998 0
M  V30 3886 H 370.634 1.9933 -2.53904 0
M  V30 3887 H 369.686 -0.0701234 -3.80335 0
M  V30 3888 H 370.998 0.127503 -4.98637 0
M  V30 3889 H 370.152 2.41037 -5.56764 0
M  V30 3890 H 368.891 2.28476 -4.30871 0
M  V30 3891 H 367.896 0.305338 -5.48951 0
M  V30 3892 H 369.121 0.451708 -6.77596 0
M  V30 3893 H 367.067 2.57007 -6.03559 0
M  V30 3894 H 366.984 1.51353 -7.40694 0
M  V30 3895 H 368.252 2.69897 -7.31284 0
M  V30 3896 N 372.481 1.55866 -0.233164 0
M  V30 3897 C 373.892 1.847 0.272554 0
M  V30 3898 C 374.243 1.15477 1.58617 0
M  V30 3899 O 373.368 0.42841 2.12117 0
M  V30 3900 C 373.963 3.35071 0.501299 0
M  V30 3901 C 372.522 3.6418 0.951304 0
M  V30 3902 C 371.669 2.77292 0.0208209 0
M  V30 3903 H 374.62 1.52005 -0.456074 0
M  V30 3904 H 374.641 3.55906 1.34577 0
M  V30 3905 H 374.153 3.85424 -0.454936 0
M  V30 3906 H 372.254 3.19293 1.92049 0
M  V30 3907 H 372.367 4.72071 0.817675 0
M  V30 3908 H 370.731 2.49131 0.529723 0
M  V30 3909 H 371.514 3.30448 -0.93054 0
M  V30 3910 N 373.959 -0.0401083 1.57549 0
M  V30 3911 C 375.184 -0.748931 1.93406 0
M  V30 3912 C 375.609 -1.68686 0.832274 0
M  V30 3913 O 374.967 -1.80047 -0.212818 0
M  V30 3914 C 375.015 -1.4916 3.28304 0
M  V30 3915 O 374.119 -2.6042 3.19774 0
M  V30 3916 H 373.46 -0.202212 0.63246 0
M  V30 3917 H 375.99 0.00112086 2.046 0
M  V30 3918 H 376 -1.86395 3.62934 0
M  V30 3919 H 374.675 -0.80364 4.08062 0
M  V30 3920 H 373.252 -2.25808 2.96758 0
M  V30 3921 N 375.437 -1.54477 -0.31217 0
M  V30 3922 C 376.853 -1.45442 -0.657185 0
M  V30 3923 C 377.053 -0.63653 -1.91182 0
M  V30 3924 O 376.109 -0.139815 -2.52113 0
M  V30 3925 C 377.422 -2.89287 -0.82058 0
M  V30 3926 C 378.97 -2.9926 -0.917188 0
M  V30 3927 C 379.445 -4.44279 -1.11267 0
M  V30 3928 N 380.936 -4.4794 -1.17914 0
M  V30 3929 C 381.671 -5.57318 -1.34848 0
M  V30 3930 N 381.167 -6.76642 -1.48752 0
M  V30 3931 N 382.96 -5.44986 -1.37647 0
M  V30 3932 H 375.111 -2.06129 0.512313 0
M  V30 3933 H 377.374 -0.933088 0.167485 0
M  V30 3934 H 377.08 -3.51687 0.0302604 0
M  V30 3935 H 376.954 -3.36061 -1.71298 0
M  V30 3936 H 379.341 -2.36981 -1.75852 0
M  V30 3937 H 379.422 -2.558 -0.00101257 0
M  V30 3938 H 379.066 -5.07149 -0.27614 0
M  V30 3939 H 378.996 -4.85359 -2.04289 0
M  V30 3940 H 381.487 -3.61969 -1.08567 0
M  V30 3941 H 381.8 -7.55758 -1.61397 0
M  V30 3942 H 380.145 -6.79529 -1.45828 0
M  V30 3943 H 383.336 -4.50715 -1.26388 0
M  V30 3944 H 383.509 -6.3028 -1.50501 0
M  V30 3945 N 376.915 0.57481 -1.46744 0
M  V30 3946 C 378.164 1.32898 -1.51727 0
M  V30 3947 C 378.477 1.948 -0.176692 0
M  V30 3948 O 379.683 2.71299 -0.104385 0
M  V30 3949 C 378.139 2.40901 -2.67385 0
M  V30 3950 C 377.747 1.85266 -4.07898 0
M  V30 3951 C 379.491 3.17609 -2.81646 0
M  V30 3952 C 377.398 2.90945 -5.14883 0
M  V30 3953 H 376.328 0.499631 -0.564699 0
M  V30 3954 H 378.979 0.612536 -1.72975 0
M  V30 3955 H 377.361 3.15379 -2.39483 0
M  V30 3956 H 378.535 1.17278 -4.45626 0
M  V30 3957 H 376.85 1.21199 -3.98371 0
M  V30 3958 H 379.447 3.96493 -3.58744 0
M  V30 3959 H 379.79 3.70696 -1.89448 0
M  V30 3960 H 380.323 2.50239 -3.09233 0
M  V30 3961 H 377.062 2.42736 -6.089 0
M  V30 3962 H 376.582 3.57398 -4.81691 0
M  V30 3963 H 378.261 3.54755 -5.41071 0
M  V30 3964 N 378.394 1.34581 0.820102 0
M  V30 3965 C 379.64 1.27285 1.57881 0
M  V30 3966 C 379.973 -0.156137 1.93571 0
M  V30 3967 O 379.248 -1.10222 1.60254 0
M  V30 3968 C 379.531 2.16639 2.87645 0
M  V30 3969 C 379.384 3.68088 2.58517 0
M  V30 3970 C 380.703 2.05378 3.8924 0
M  V30 3971 H 377.822 0.463714 0.572833 0
M  V30 3972 H 380.464 1.64859 0.944539 0
M  V30 3973 H 378.614 1.84725 3.41773 0
M  V30 3974 H 380.286 4.10382 2.10676 0
M  V30 3975 H 378.529 3.89038 1.91917 0
M  V30 3976 H 379.2 4.2598 3.51063 0
M  V30 3977 H 381.676 2.33404 3.44473 0
M  V30 3978 H 380.552 2.7012 4.77835 0
M  V30 3979 H 380.813 1.0316 4.29896 0
M  V30 3980 N 379.872 -1.04064 1.18357 0
M  V30 3981 C 381.118 -1.77528 0.980397 0
M  V30 3982 C 381.451 -1.87948 -0.48879 0
M  V30 3983 O 380.726 -1.3876 -1.36293 0
M  V30 3984 C 381.009 -3.20797 1.63588 0
M  V30 3985 C 380.862 -3.1832 3.17793 0
M  V30 3986 C 382.181 -4.18911 1.34914 0
M  V30 3987 H 379.3 -0.644443 0.357578 0
M  V30 3988 H 381.942 -1.2156 1.46024 0
M  V30 3989 H 380.092 -3.68586 1.22788 0
M  V30 3990 H 381.764 -2.78521 3.67728 0
M  V30 3991 H 380.007 -2.56351 3.49952 0
M  V30 3992 H 380.678 -4.19489 3.58794 0
M  V30 3993 H 383.154 -3.7967 1.70265 0
M  V30 3994 H 382.03 -5.17374 1.83346 0
M  V30 3995 H 382.291 -4.41262 0.272027 0
M  V30 3996 N 381.35 -0.985608 -1.22978 0
M  V30 3997 C 382.599 -0.652881 -1.90841 0
M  V30 3998 C 382.912 0.817842 -1.77681 0
M  V30 3999 O 384.118 1.26185 -2.40395 0
M  V30 4000 C 382.574 -1.11717 -3.42122 0
M  V30 4001 C 382.182 -2.6126 -3.63933 0
M  V30 4002 C 383.926 -0.85843 -4.1573 0
M  V30 4003 C 381.833 -3.0133 -5.08876 0
M  V30 4004 H 380.763 -0.240491 -0.714619 0
M  V30 4005 H 383.414 -1.1942 -1.39324 0
M  V30 4006 H 381.796 -0.504027 -3.92779 0
M  V30 4007 H 382.97 -3.27858 -3.23799 0
M  V30 4008 H 381.285 -2.84937 -3.03644 0
M  V30 4009 H 383.882 -1.13359 -5.22546 0
M  V30 4010 H 384.225 0.205461 -4.15793 0
M  V30 4011 H 384.758 -1.43341 -3.71077 0
M  V30 4012 H 381.497 -4.06864 -5.13947 0
M  V30 4013 H 381.017 -2.3943 -5.49939 0
M  V30 4014 H 382.696 -2.92224 -5.77247 0
M  V30 4015 N 382.828 1.3818 -0.7579 0
M  V30 4016 C 384.058 2.04004 -0.326463 0
M  V30 4017 C 384.466 1.57286 1.05156 0
M  V30 4018 O 383.809 0.743144 1.67997 0
M  V30 4019 C 383.871 3.58444 -0.275402 0
M  V30 4020 C 383.535 4.28237 -1.59569 0
M  V30 4021 C 384.532 4.53312 -2.54566 0
M  V30 4022 C 382.217 4.66341 -1.86631 0
M  V30 4023 C 384.211 5.15531 -3.74842 0
M  V30 4024 C 381.898 5.28283 -3.0718 0
M  V30 4025 C 382.896 5.52814 -4.01106 0
M  V30 4026 O 382.584 6.13465 -5.19534 0
M  V30 4027 H 382.316 0.662026 -0.136739 0
M  V30 4028 H 384.87 1.7777 -1.02893 0
M  V30 4029 H 383.1 3.83667 0.483337 0
M  V30 4030 H 384.789 4.05701 0.127099 0
M  V30 4031 H 385.555 4.24299 -2.34936 0
M  V30 4032 H 381.434 4.46591 -1.14358 0
M  V30 4033 H 384.978 5.34594 -4.48168 0
M  V30 4034 H 380.875 5.56719 -3.26702 0
M  V30 4035 H 381.643 6.31951 -5.20173 0
M  V30 4036 N 384.306 0.507319 1.49211 0
M  V30 4037 C 385.534 -0.0315749 2.06876 0
M  V30 4038 C 385.949 -1.30241 1.36685 0
M  V30 4039 O 385.306 -1.76937 0.447152 0
M  V30 4040 C 385.357 -0.282627 3.60393 0
M  V30 4041 O 385.078 0.937835 4.27944 0
M  V30 4042 C 386.579 -0.864453 4.3479 0
M  V30 4043 H 383.799 0.0233048 0.670595 0
M  V30 4044 H 386.343 0.706484 1.91909 0
M  V30 4045 H 384.498 -0.97068 3.75042 0
M  V30 4046 H 384.912 0.704567 5.19746 0
M  V30 4047 H 386.386 -0.989664 5.43056 0
M  V30 4048 H 386.863 -1.86382 3.97692 0
M  V30 4049 H 387.469 -0.213672 4.24763 0
M  V30 4050 N 385.784 -1.5574 0.241426 0
M  V30 4051 C 387.012 -2.03208 -0.389134 0
M  V30 4052 C 387.427 -1.12082 -1.51931 0
M  V30 4053 O 386.784 -0.134183 -1.82006 0
M  V30 4054 C 386.835 -3.50064 -0.902087 0
M  V30 4055 O 386.556 -4.37717 0.18305 0
M  V30 4056 C 388.057 -4.13268 -1.60389 0
M  V30 4057 H 385.277 -0.664509 -0.0931053 0
M  V30 4058 H 387.821 -2.0124 0.36369 0
M  V30 4059 H 385.976 -3.52583 -1.60511 0
M  V30 4060 H 386.39 -5.24097 -0.205579 0
M  V30 4061 H 387.864 -5.17733 -1.91458 0
M  V30 4062 H 388.341 -3.59434 -2.52397 0
M  V30 4063 H 388.947 -4.14655 -0.945576 0
M  V30 4064 N 387.262 0.0317525 -1.57568 0
M  V30 4065 C 388.51 0.721676 -1.88776 0
M  V30 4066 C 388.831 1.76039 -0.838772 0
M  V30 4067 O 388.101 1.95482 0.127935 0
M  V30 4068 H 386.681 0.269534 -0.696678 0
M  V30 4069 H 389.343 -0.00165879 -1.949 0
M  V30 4070 H 388.439 1.21293 -2.87566 0
M  V30 4071 N 388.74 1.54641 0.303973 0
M  V30 4072 C 389.965 1.78092 1.06292 0
M  V30 4073 C 390.39 0.537342 1.80262 0
M  V30 4074 O 389.748 -0.511993 1.7392 0
M  V30 4075 C 389.796 2.98612 2.02147 0
M  V30 4076 O 388.9 2.71528 3.10397 0
M  V30 4077 H 388.241 0.589548 0.305497 0
M  V30 4078 H 390.771 2.01716 0.3423 0
M  V30 4079 H 390.781 3.265 2.44667 0
M  V30 4080 H 389.456 3.88785 1.47714 0
M  V30 4081 H 388.033 2.54648 2.72413 0
M  V30 4082 N 390.218 -0.567019 1.47046 0
M  V30 4083 C 391.15 -1.68985 1.54844 0
M  V30 4084 C 392.163 -1.56869 0.435431 0
M  V30 4085 O 393.352 -1.64006 0.70457 0
M  V30 4086 C 390.452 -3.07373 1.42742 0
M  V30 4087 C 389.625 -3.45339 2.6844 0
M  V30 4088 C 388.684 -4.62849 2.50314 0
M  V30 4089 O 387.71 -4.67922 3.24095 0
M  V30 4090 N 388.912 -5.58726 1.57499 0
M  V30 4091 H 391.677 -1.62745 2.51663 0
M  V30 4092 H 389.238 -0.753411 1.43302 0
M  V30 4093 H 391.23 -3.83803 1.28365 0
M  V30 4094 H 389.8 -3.07893 0.540445 0
M  V30 4095 H 389.02 -2.58455 2.97648 0
M  V30 4096 H 390.308 -3.67476 3.51907 0
M  V30 4097 H 389.706 -5.57376 0.966876 0
M  V30 4098 H 388.263 -6.34523 1.49078 0
M  V30 4099 N 391.696 -1.35014 -0.812953 0
M  V30 4100 C 392.659 -1.27292 -1.90602 0
M  V30 4101 C 393.659 -0.185817 -1.59723 0
M  V30 4102 O 394.849 -0.439102 -1.68575 0
M  V30 4103 C 391.981 -0.967676 -3.26877 0
M  V30 4104 H 393.174 -2.24479 -1.9887 0
M  V30 4105 H 390.727 -1.19446 -1.00808 0
M  V30 4106 H 391.462 0.0005954 -3.243 0
M  V30 4107 H 391.247 -1.75412 -3.50675 0
M  V30 4108 H 392.737 -0.939085 -4.06904 0
M  V30 4109 N 393.175 1.03435 -1.18907 0
M  V30 4110 C 394.403 1.80381 -1.01342 0
M  V30 4111 C 394.818 1.83649 0.438005 0
M  V30 4112 O 394.175 1.27655 1.30424 0
M  V30 4113 C 394.226 3.25689 -1.56873 0
M  V30 4114 O 393.947 3.22673 -2.96334 0
M  V30 4115 C 395.448 4.19255 -1.44014 0
M  V30 4116 H 392.668 0.56784 -0.35749 0
M  V30 4117 H 395.212 1.30317 -1.576 0
M  V30 4118 H 393.367 3.72962 -1.04777 0
M  V30 4119 H 393.781 4.13748 -3.22355 0
M  V30 4120 H 395.255 5.19123 -1.87657 0
M  V30 4121 H 395.732 4.37467 -0.389815 0
M  V30 4122 H 396.338 3.77851 -1.95214 0
M  V30 4123 N 394.653 0.992116 1.22453 0
M  V30 4124 C 395.586 0.486701 2.22949 0
M  V30 4125 C 396.564 -0.45259 1.56174 0
M  V30 4126 O 397.748 -0.378317 1.84665 0
M  V30 4127 C 394.875 -0.294537 3.37417 0
M  V30 4128 C 393.921 0.590628 4.22391 0
M  V30 4129 S 394.754 2.04546 4.94895 0
M  V30 4130 C 395.91 1.27369 6.12803 0
M  V30 4131 H 396.143 1.33828 2.65475 0
M  V30 4132 H 393.676 0.799023 1.32117 0
M  V30 4133 H 395.634 -0.739241 4.03789 0
M  V30 4134 H 394.295 -1.12139 2.934 0
M  V30 4135 H 393.488 -0.0104375 5.03999 0
M  V30 4136 H 393.09 0.972064 3.61147 0
M  V30 4137 H 395.382 0.540943 6.75337 0
M  V30 4138 H 396.325 2.06502 6.7732 0
M  V30 4139 H 396.733 0.787324 5.58983 0
M  V30 4140 N 396.131 -1.37776 0.765217 0
M  V30 4141 C 397.408 -1.93975 0.251596 0
M  V30 4142 C 397.788 -1.69949 -1.25222 0
M  V30 4143 O 397.136 -1.04457 -2.03226 0
M  V30 4144 C 397.346 -3.43487 0.617895 0
M  V30 4145 C 398.694 -4.20564 0.584029 0
M  V30 4146 O 399.718 -3.5182 0.556888 0
M  V30 4147 O 398.577 -5.43138 0.605291 0
M  V30 4148 H 395.671 -0.82509 0.0561806 0
M  V30 4149 H 398.217 -1.47101 0.846128 0
M  V30 4150 H 396.989 -3.5453 1.65602 0
M  V30 4151 H 396.612 -3.976 -0.00403411 0
M  V30 4152 N 397.609 -0.515225 -1.4894 0
M  V30 4153 C 398.519 0.259774 -2.33157 0
M  V30 4154 C 399.535 0.953501 -1.45548 0
M  V30 4155 O 400.711 0.931735 -1.78552 0
M  V30 4156 C 397.776 1.30193 -3.21326 0
M  V30 4157 C 396.837 0.620129 -4.24797 0
M  V30 4158 C 396.07 1.61263 -5.08753 0
M  V30 4159 O 396.293 2.84389 -4.94448 0
M  V30 4160 O 395.227 1.16013 -5.90614 0
M  V30 4161 H 399.053 -0.429932 -3.00641 0
M  V30 4162 H 396.638 -0.276346 -1.46822 0
M  V30 4163 H 398.52 1.90455 -3.75905 0
M  V30 4164 H 397.195 1.97431 -2.56521 0
M  V30 4165 H 396.102 -0.0226019 -3.74093 0
M  V30 4166 H 397.435 -0.0100493 -4.92199 0
M  V30 4167 N 399.087 1.5561 -0.249682 0
M  V30 4168 C 400.503 1.59254 0.105103 0
M  V30 4169 C 400.703 1.26685 1.56694 0
M  V30 4170 O 399.759 1.0155 2.31179 0
M  V30 4171 C 401.072 2.99687 -0.246592 0
M  V30 4172 C 402.62 3.12416 -0.191118 0
M  V30 4173 C 403.095 4.55074 -0.516885 0
M  V30 4174 N 404.586 4.60835 -0.467489 0
M  V30 4175 C 405.321 5.69201 -0.69268 0
M  V30 4176 N 404.817 6.85817 -0.981146 0
M  V30 4177 N 406.61 5.58635 -0.623198 0
M  V30 4178 H 398.761 1.75049 -1.20298 0
M  V30 4179 H 401.024 0.815003 -0.484225 0
M  V30 4180 H 400.73 3.28267 -1.26228 0
M  V30 4181 H 400.604 3.74798 0.424962 0
M  V30 4182 H 402.991 2.83615 0.815247 0
M  V30 4183 H 403.072 2.39573 -0.896563 0
M  V30 4184 H 402.716 4.84596 -1.52082 0
M  V30 4185 H 402.646 5.26181 0.210068 0
M  V30 4186 H 405.137 3.7705 -0.253373 0
M  V30 4187 H 405.45 7.64341 -1.14032 0
M  V30 4188 H 403.795 6.87494 -1.01865 0
M  V30 4189 H 406.986 4.66406 -0.397863 0
M  V30 4190 H 407.159 6.43017 -0.802093 0
M  V30 4191 N 400.565 -0.0233959 1.57583 0
M  V30 4192 C 401.513 -1.04063 2.08023 0
M  V30 4193 C 402.507 -1.37084 0.995204 0
M  V30 4194 O 403.713 -1.35923 1.18004 0
M  V30 4195 H 400.088 -0.353144 0.663922 0
M  V30 4196 H 402.059 -0.589453 2.9252 0
M  V30 4197 C 400.808 -2.33123 2.57971 0
M  V30 4198 H 400.131 -2.08577 3.4108 0
M  V30 4199 H 401.571 -3.02632 2.96967 0
M  V30 4200 C 400.03 -3.02483 1.48342 0
M  V30 4201 O 400.56 -3.92541 0.852898 0
M  V30 4202 N 398.766 -2.63909 1.21658 0
M  V30 4203 H 398.313 -1.90758 1.73116 0
M  V30 4204 H 398.271 -3.10633 0.485218 0
M  V30 4205 N 402.043 -1.548 -0.295768 0
M  V30 4206 C 403.459 -1.4613 -0.641722 0
M  V30 4207 C 403.659 -0.656771 -1.90496 0
M  V30 4208 O 402.715 -0.166547 -2.5195 0
M  V30 4209 C 404.028 -2.90141 -0.789852 0
M  V30 4210 C 405.576 -3.00216 -0.885396 0
M  V30 4211 C 406.051 -4.45434 -1.06548 0
M  V30 4212 N 407.542 -4.49166 -1.13156 0
M  V30 4213 C 408.277 -5.58717 -1.28929 0
M  V30 4214 N 407.773 -6.78182 -1.41567 0
M  V30 4215 N 409.566 -5.46415 -1.31859 0
M  V30 4216 H 401.717 -2.05574 0.534147 0
M  V30 4217 H 403.98 -0.931259 0.177372 0
M  V30 4218 H 403.686 -3.51635 0.0675598 0
M  V30 4219 H 403.56 -3.37859 -1.67724 0
M  V30 4220 H 405.947 -2.38833 -1.73329 0
M  V30 4221 H 406.028 -2.55787 0.0261185 0
M  V30 4222 H 405.672 -5.07413 -0.222335 0
M  V30 4223 H 405.602 -4.87499 -1.9913 0
M  V30 4224 H 408.093 -3.631 -1.04721 0
M  V30 4225 H 408.406 -7.57428 -1.53372 0
M  V30 4226 H 406.751 -6.81037 -1.38613 0
M  V30 4227 H 409.942 -4.5203 -1.21601 0
M  V30 4228 H 410.115 -6.31841 -1.43808 0
M  V30 4229 N 403.521 0.559213 -1.47345 0
M  V30 4230 C 404.453 1.68161 -1.55738 0
M  V30 4231 C 405.466 1.56636 -0.443744 0
M  V30 4232 O 406.655 1.6363 -0.713258 0
M  V30 4233 C 403.755 3.06611 -1.4437 0
M  V30 4234 C 402.928 3.4391 -2.70268 0
M  V30 4235 C 401.987 4.61515 -2.52765 0
M  V30 4236 O 401.013 4.66197 -3.26572 0
M  V30 4237 N 402.215 5.57883 -1.6046 0
M  V30 4238 H 404.98 1.61408 -2.52522 0
M  V30 4239 H 402.541 0.7458 -1.43699 0
M  V30 4240 H 404.533 3.83117 -1.30398 0
M  V30 4241 H 403.103 3.07602 -0.556766 0
M  V30 4242 H 402.323 2.56873 -2.99015 0
M  V30 4243 H 403.611 3.65605 -3.53851 0
M  V30 4244 H 403.009 5.56855 -0.996422 0
M  V30 4245 H 401.566 6.33723 -1.52441 0
M  V30 4246 N 404.999 1.35443 0.805782 0
M  V30 4247 C 406.248 1.28097 1.55801 0
M  V30 4248 C 406.561 -0.142428 1.95081 0
M  V30 4249 O 407.767 -0.33817 2.69386 0
M  V30 4250 C 406.223 2.24653 2.81174 0
M  V30 4251 C 405.831 3.72342 2.49129 0
M  V30 4252 C 407.575 2.2625 3.59181 0
M  V30 4253 C 405.482 4.60719 3.70799 0
M  V30 4254 H 404.412 0.475937 0.584808 0
M  V30 4255 H 407.063 1.60712 0.885661 0
M  V30 4256 H 405.445 1.85011 3.50124 0
M  V30 4257 H 406.619 4.20624 1.88181 0
M  V30 4258 H 404.934 3.73361 1.84366 0
M  V30 4259 H 407.531 2.89495 4.49552 0
M  V30 4260 H 407.874 1.26647 3.96568 0
M  V30 4261 H 408.407 2.64426 2.97193 0
M  V30 4262 H 405.146 5.61324 3.3852 0
M  V30 4263 H 404.666 4.17163 4.3097 0
M  V30 4264 H 406.345 4.76182 4.38018 0
M  V30 4265 N 406.477 -1.02803 1.19454 0
M  V30 4266 C 407.44 -2.09264 0.934955 0
M  V30 4267 C 408.44 -1.60576 -0.0849015 0
M  V30 4268 O 409.63 -1.73554 0.149933 0
M  V30 4269 C 406.762 -3.38482 0.40531 0
M  V30 4270 H 407.955 -2.33726 1.87916 0
M  V30 4271 H 405.508 -1.19426 1.00832 0
M  V30 4272 H 406.243 -3.19689 -0.544899 0
M  V30 4273 H 406.028 -3.75142 1.14065 0
M  V30 4274 H 407.518 -4.16894 0.242806 0
M  V30 4275 N 407.956 -0.998596 -1.21925 0
M  V30 4276 C 408.866 -0.562736 -2.27751 0
M  V30 4277 C 409.882 0.391203 -1.69545 0
M  V30 4278 O 411.058 0.256625 -1.99758 0
M  V30 4279 C 408.123 0.11012 -3.46525 0
M  V30 4280 C 407.184 -0.887495 -4.20026 0
M  V30 4281 C 406.417 -0.246654 -5.3313 0
M  V30 4282 O 406.64 0.958088 -5.62296 0
M  V30 4283 O 405.574 -0.954374 -5.94286 0
M  V30 4284 H 409.4 -1.44329 -2.67213 0
M  V30 4285 H 406.985 -0.767135 -1.28201 0
M  V30 4286 H 408.867 0.486756 -4.18579 0
M  V30 4287 H 407.542 0.965154 -3.08976 0
M  V30 4288 H 406.449 -1.31517 -3.5022 0
M  V30 4289 H 407.782 -1.71191 -4.6147 0
M  V30 4290 N 409.434 1.37368 -0.772513 0
M  V30 4291 C 410.683 1.98918 -0.333861 0
M  V30 4292 C 410.996 1.62017 1.09589 0
M  V30 4293 O 412.202 2.16676 1.63596 0
M  V30 4294 C 410.658 3.55735 -0.545971 0
M  V30 4295 C 410.266 4.01573 -1.98603 0
M  V30 4296 C 412.01 4.24156 -0.170979 0
M  V30 4297 C 409.917 5.51102 -2.1457 0
M  V30 4298 H 408.847 0.744214 -0.121085 0
M  V30 4299 H 411.498 1.56888 -0.95175 0
M  V30 4300 H 409.88 3.95748 0.141387 0
M  V30 4301 H 411.054 3.72803 -2.7084 0
M  V30 4302 H 409.369 3.45937 -2.31769 0
M  V30 4303 H 411.966 5.34024 -0.26878 0
M  V30 4304 H 412.309 4.06917 0.878855 0
M  V30 4305 H 412.842 3.89447 -0.810914 0
M  V30 4306 H 409.581 5.73268 -3.17875 0
M  V30 4307 H 409.101 5.81554 -1.46817 0
M  V30 4308 H 410.78 6.17083 -1.94468 0
M  V30 4309 N 410.912 0.523116 1.48665 0
M  V30 4310 C 412.16 -0.0134497 2.02096 0
M  V30 4311 C 412.481 -1.35418 1.40311 0
M  V30 4312 O 411.751 -1.87543 0.566074 0
M  V30 4313 H 410.331 -0.00795915 0.746958 0
M  V30 4314 H 412.993 0.685388 1.82451 0
M  V30 4315 H 412.089 -0.126849 3.11842 0
M  V30 4316 N 412.39 -1.55475 0.257931 0
M  V30 4317 C 413.353 -2.20551 -0.623706 0
M  V30 4318 C 414.353 -1.17809 -1.09443 0
M  V30 4319 O 415.543 -1.42823 -0.997362 0
M  V30 4320 C 412.675 -2.85784 -1.8585 0
M  V30 4321 H 413.868 -2.99848 -0.0557743 0
M  V30 4322 H 411.421 -1.56298 0.0084422 0
M  V30 4323 H 412.156 -2.10453 -2.46739 0
M  V30 4324 H 411.941 -3.61057 -1.52907 0
M  V30 4325 H 413.431 -3.35553 -2.48584 0
M  V30 4326 N 413.868 0.0150385 -1.57593 0
M  V30 4327 C 415.093 0.718067 -1.94573 0
M  V30 4328 C 415.518 1.6734 -0.859005 0
M  V30 4329 O 414.876 1.80362 0.184147 0
M  V30 4330 C 414.924 1.43918 -3.30636 0
M  V30 4331 O 414.028 2.55299 -3.23876 0
M  V30 4332 H 413.369 0.192125 -0.635597 0
M  V30 4333 H 415.899 -0.0336708 -2.04572 0
M  V30 4334 H 415.909 1.80598 -3.65853 0
M  V30 4335 H 414.584 0.738619 -4.09289 0
M  V30 4336 H 413.161 2.21058 -3.00312 0
M  V30 4337 N 415.346 1.54954 0.287554 0
M  V30 4338 C 416.276 1.89839 1.35954 0
M  V30 4339 C 417.257 0.758675 1.52244 0
M  V30 4340 O 418.442 1.01557 1.65529 0
M  V30 4341 C 415.572 2.15753 2.72154 0
M  V30 4342 C 414.526 3.3159 2.70614 0
M  V30 4343 C 413.852 3.42952 4.10229 0
M  V30 4344 C 415.152 4.68359 2.31165 0
M  V30 4345 H 416.846 2.79625 1.07007 0
M  V30 4346 H 414.392 1.3454 0.513316 0
M  V30 4347 H 416.345 2.38743 3.47246 0
M  V30 4348 H 415.069 1.22752 3.02654 0
M  V30 4349 H 413.728 3.08545 1.97979 0
M  V30 4350 H 413.376 2.47443 4.37928 0
M  V30 4351 H 413.076 4.20826 4.10097 0
M  V30 4352 H 414.6 3.68218 4.87081 0
M  V30 4353 H 416.014 4.9099 2.95976 0
M  V30 4354 H 414.411 5.49044 2.42221 0
M  V30 4355 H 415.481 4.68165 1.26291 0
M  V30 4356 N 416.824 -0.551391 1.4764 0
M  V30 4357 C 418.073 -1.30467 1.53822 0
M  V30 4358 C 418.386 -1.94495 0.207661 0
M  V30 4359 O 419.592 -2.71099 0.147533 0
M  V30 4360 C 418.048 -2.36616 2.71184 0
M  V30 4361 C 417.656 -1.78754 4.10793 0
M  V30 4362 C 419.4 -3.13088 2.86663 0
M  V30 4363 C 417.307 -2.82717 5.19447 0
M  V30 4364 H 416.237 -0.490584 0.572576 0
M  V30 4365 H 418.888 -0.58494 1.73927 0
M  V30 4366 H 417.27 -3.11529 2.4447 0
M  V30 4367 H 418.444 -1.10173 4.47435 0
M  V30 4368 H 416.759 -1.14846 4.00249 0
M  V30 4369 H 419.356 -3.90736 3.65007 0
M  V30 4370 H 419.699 -3.67635 1.95321 0
M  V30 4371 H 420.232 -2.45288 3.13175 0
M  V30 4372 H 416.971 -2.33018 6.12685 0
M  V30 4373 H 416.491 -3.4969 4.87316 0
M  V30 4374 H 418.17 -3.46102 5.46646 0
M  V30 4375 N 418.302 -1.35869 -0.798587 0
M  V30 4376 C 419.249 -1.29446 -1.91082 0
M  V30 4377 C 420.219 -0.16487 -1.6528 0
M  V30 4378 O 421.404 -0.349888 -1.87564 0
M  V30 4379 C 418.544 -1.0804 -3.27752 0
M  V30 4380 C 417.657 -2.29993 -3.65687 0
M  V30 4381 C 416.792 -2.01673 -4.91428 0
M  V30 4382 C 415.831 -3.19636 -5.22015 0
M  V30 4383 N 414.968 -2.91039 -6.38937 0
M  V30 4384 H 419.808 -2.24553 -1.95907 0
M  V30 4385 H 417.345 -1.11615 -0.958148 0
M  V30 4386 H 419.303 -0.936586 -4.06551 0
M  V30 4387 H 417.933 -0.16592 -3.22373 0
M  V30 4388 H 416.985 -2.55211 -2.82085 0
M  V30 4389 H 418.297 -3.18052 -3.84245 0
M  V30 4390 H 417.451 -1.84168 -5.78072 0
M  V30 4391 H 416.19 -1.10911 -4.74921 0
M  V30 4392 H 415.195 -3.37709 -4.33858 0
M  V30 4393 H 416.42 -4.11211 -5.40447 0
M  V30 4394 H 414.366 -2.0288 -6.2384 0
M  V30 4395 H 414.283 -3.72635 -6.57784 0
M  V30 4396 H 415.551 -2.77093 -7.28587 0
M  V30 4397 N 419.78 1.02168 -1.19998 0
M  V30 4398 C 420.73 2.08969 -0.911921 0
M  V30 4399 C 421.714 1.60404 0.12621 0
M  V30 4400 O 422.906 1.76817 -0.0804706 0
M  V30 4401 C 420.035 3.402 -0.460277 0
M  V30 4402 C 419.121 3.9548 -1.53155 0
M  V30 4403 N 419.512 4.24332 -2.75275 0
M  V30 4404 C 417.81 4.23572 -1.39653 0
M  V30 4405 C 418.511 4.68834 -3.44339 0
M  V30 4406 N 417.487 4.70804 -2.71744 0
M  V30 4407 H 421.289 2.29178 -1.83997 0
M  V30 4408 H 418.803 1.20094 -1.09322 0
M  V30 4409 H 420.8 4.16235 -0.235337 0
M  V30 4410 H 419.46 3.21408 0.4612 0
M  V30 4411 H 420.471 4.13393 -3.11973 0
M  V30 4412 H 417.148 4.14005 -0.539067 0
M  V30 4413 H 418.538 5.00019 -4.4881 0
M  V30 4414 N 421.258 1.00505 1.21394 0
M  V30 4415 C 422.504 0.698477 1.91031 0
M  V30 4416 C 422.859 -0.762448 1.76648 0
M  V30 4417 O 422.152 -1.54554 1.13241 0
M  V30 4418 C 422.346 1.0546 3.41486 0
M  V30 4419 C 422.175 2.5486 3.70508 0
M  V30 4420 C 420.945 3.21461 3.8986 0
M  V30 4421 C 423.143 3.53019 3.74008 0
M  V30 4422 N 421.125 4.60211 4.06299 0
M  V30 4423 C 422.496 4.77279 3.95733 0
M  V30 4424 C 424.551 3.47154 3.56915 0
M  V30 4425 C 423.254 5.96388 4.02137 0
M  V30 4426 C 425.28 4.65652 3.64585 0
M  V30 4427 C 424.642 5.88717 3.86771 0
M  V30 4428 H 420.741 0.30707 0.719189 0
M  V30 4429 H 423.325 1.28753 1.46051 0
M  V30 4430 H 421.496 0.494007 3.85246 0
M  V30 4431 H 423.228 0.702765 3.98552 0
M  V30 4432 H 419.983 2.71906 3.87768 0
M  V30 4433 H 420.407 5.32216 4.1842 0
M  V30 4434 H 425.049 2.53015 3.38738 0
M  V30 4435 H 422.767 6.90919 4.19114 0
M  V30 4436 H 426.353 4.62717 3.52681 0
M  V30 4437 H 425.233 6.78877 3.92549 0
M  V30 4438 O 422.775 -1.32987 0.916334 0
M  V30 4439 H 423.466 -1.86192 0.534057 0
M  V30 END ATOM
M  V30 BEGIN BOND
M  V30 END BOND
M  V30 END CTAB
M  END
$$$$
