drugbank_target|Q9Y617 Phosphoserine aminotransferase (DB00114; DB00142)
 OpenBabel12092119353D

  0  0  0     0  0            999 V3000
M  V30 BEGIN CTAB
M  V30 COUNTS 5716 5775 0 0 0
M  V30 BEGIN ATOM
M  V30 1 H -0.908 1.98254 -0.117106 0
M  V30 2 N 0 1.576 0 0
M  V30 3 C 0.933 2.03868 1.02534 0
M  V30 4 C 1.911 0.928543 1.3348 0
M  V30 5 O 3.095 1.19667 1.45644 0
M  V30 6 C 0.222 2.43627 2.35294 0
M  V30 7 C -0.732 3.65373 2.2001 0
M  V30 8 S 0.101 5.13292 1.52614 0
M  V30 9 C 1.257 5.56322 2.86805 0
M  V30 10 H 1.49 2.90518 0.631377 0
M  V30 11 H -0.977 1.52953 0.210867 0
M  V30 12 H 0.981 2.67203 3.11629 0
M  V30 13 H -0.358 1.57376 2.7183 0
M  V30 14 H -1.165 3.90944 3.18086 0
M  V30 15 H -1.563 3.418 1.51819 0
M  V30 16 H 0.729 5.58782 3.83104 0
M  V30 17 H 1.672 6.56266 2.65933 0
M  V30 18 H 2.08 4.83886 2.90714 0
M  V30 19 N 1.4781 -0.272755 1.55222 0
M  V30 20 C 2.7551 -1.02562 1.66555 0
M  V30 21 C 3.1351 -2.04282 0.532189 0
M  V30 22 O 2.4831 -2.23662 -0.467717 0
M  V30 23 C 2.6931 -1.6822 3.05782 0
M  V30 24 C 4.0411 -2.19373 3.63539 0
M  V30 25 O 5.0651 -1.78206 3.08417 0
M  V30 26 O 3.9241 -2.94883 4.60115 0
M  V30 27 H 1.0181 -0.475755 0.676451 0
M  V30 28 H 3.5641 -0.268593 1.67561 0
M  V30 29 H 2.3361 -0.945112 3.79715 0
M  V30 30 H 1.9591 -2.50609 3.08676 0
M  V30 31 N 2.9562 -1.48159 -0.537278 0
M  V30 32 C 3.9192 -1.61665 -1.62472 0
M  V30 33 C 4.9192 -0.490395 -1.5314 0
M  V30 34 O 6.1092 -0.755998 -1.5694 0
M  V30 35 C 3.2412 -1.57997 -3.02076 0
M  V30 36 H 4.4342 -2.58621 -1.51839 0
M  V30 37 H 1.9872 -1.36647 -0.758771 0
M  V30 38 H 2.7222 -0.624913 -3.18222 0
M  V30 39 H 2.5072 -2.39755 -3.10258 0
M  V30 40 H 3.9972 -1.70627 -3.81151 0
M  V30 41 N 4.4343 0.785586 -1.36625 0
M  V30 42 C 5.8453 1.36101 -1.27803 0
M  V30 43 C 6.1963 1.96035 0.0804875 0
M  V30 44 O 5.3213 1.92834 0.982042 0
M  V30 45 C 5.9163 2.47442 -2.31426 0
M  V30 46 C 4.4753 3.00789 -2.26281 0
M  V30 47 C 3.6223 1.73896 -2.15999 0
M  V30 48 H 6.5733 0.586928 -1.47448 0
M  V30 49 H 6.5943 3.2656 -1.95291 0
M  V30 50 H 6.1063 2.03791 -3.30289 0
M  V30 51 H 4.2073 3.48851 -1.30896 0
M  V30 52 H 4.3203 3.57343 -3.19128 0
M  V30 53 H 2.6843 1.9628 -1.62316 0
M  V30 54 H 3.4673 1.32368 -3.16755 0
M  V30 55 N 5.9124 1.20967 1.01018 0
M  V30 56 C 7.3284 0.965905 1.27053 0
M  V30 57 C 7.5284 -0.350785 1.98423 0
M  V30 58 O 6.5844 -1.07773 2.28344 0
M  V30 59 C 7.8974 2.15294 2.09926 0
M  V30 60 C 9.4454 2.19463 2.23171 0
M  V30 61 C 9.9204 3.3767 3.09424 0
M  V30 62 N 11.4114 3.37724 3.17012 0
M  V30 63 C 12.1464 4.25837 3.83993 0
M  V30 64 N 11.6424 5.24138 4.53047 0
M  V30 65 N 13.4354 4.1366 3.80581 0
M  V30 66 H 5.5864 2.0565 0.531194 0
M  V30 67 H 7.8494 0.90024 0.297106 0
M  V30 68 H 7.5554 3.10684 1.64828 0
M  V30 69 H 7.4294 2.13923 3.10672 0
M  V30 70 H 9.8164 1.24632 2.6749 0
M  V30 71 H 9.8974 2.2488 1.21912 0
M  V30 72 H 9.5414 4.32791 2.65808 0
M  V30 73 H 9.4714 3.29491 4.10784 0
M  V30 74 H 11.9624 2.6658 2.6785 0
M  V30 75 H 12.2754 5.87684 5.01844 0
M  V30 76 H 10.6204 5.28068 4.5185 0
M  V30 77 H 13.8114 3.36127 3.25785 0
M  V30 78 H 13.9844 4.82538 4.32505 0
M  V30 79 N 7.3905 -1.2043 1.01659 0
M  V30 80 C 8.3225 -2.22626 0.544988 0
M  V30 81 C 9.3355 -1.58479 -0.372609 0
M  V30 82 O 10.5245 -1.77679 -0.170958 0
M  V30 83 C 7.6245 -3.38141 -0.22663 0
M  V30 84 C 6.7975 -4.31877 0.692876 0
M  V30 85 C 5.8565 -5.26191 -0.0311616 0
M  V30 86 O 4.8825 -5.6612 0.591343 0
M  V30 87 N 6.0845 -5.65618 -1.30601 0
M  V30 88 H 8.8495 -2.63716 1.42388 0
M  V30 89 H 6.4105 -1.34971 0.894116 0
M  V30 90 H 8.4025 -3.98239 -0.72024 0
M  V30 91 H 6.9725 -2.95943 -1.00681 0
M  V30 92 H 6.1925 -3.69746 1.36679 0
M  V30 93 H 7.4805 -4.91426 1.31824 0
M  V30 94 H 6.8785 -5.3519 -1.83269 0
M  V30 95 H 5.4355 -6.28025 -1.74435 0
M  V30 96 N 8.8686 -0.792821 -1.36206 0
M  V30 97 C 10.1146 -0.36733 -1.99446 0
M  V30 98 C 10.4476 1.05917 -1.62774 0
M  V30 99 O 9.7226 1.7324 -0.88421 0
M  V30 100 C 10.0056 -0.535044 -3.56103 0
M  V30 101 C 9.8586 -2.00548 -4.02617 0
M  V30 102 C 11.1776 0.0478191 -4.40074 0
M  V30 103 H 8.2966 -0.134941 -0.724541 0
M  V30 104 H 10.9386 -0.999794 -1.61568 0
M  V30 105 H 9.0886 0.00336329 -3.885 0
M  V30 106 H 10.7606 -2.60521 -3.80692 0
M  V30 107 H 9.0036 -2.50686 -3.54032 0
M  V30 108 H 9.6746 -2.07377 -5.11565 0
M  V30 109 H 12.1506 -0.411822 -4.14057 0
M  V30 110 H 11.0266 -0.0995336 -5.4881 0
M  V30 111 H 11.2876 1.14025 -4.27142 0
M  V30 112 N 10.3467 1.47872 -0.545128 0
M  V30 113 C 11.5927 2.02793 -0.0166104 0
M  V30 114 C 11.9257 1.41987 1.32489 0
M  V30 115 O 11.2007 0.571045 1.85928 0
M  V30 116 C 11.4837 3.59989 0.0893294 0
M  V30 117 C 11.3367 4.3125 -1.27841 0
M  V30 118 C 12.6557 4.32606 0.808724 0
M  V30 119 H 9.7747 0.736962 -0.00751035 0
M  V30 120 H 12.4167 1.76433 -0.705085 0
M  V30 121 H 10.5667 3.82579 0.675681 0
M  V30 122 H 12.2387 4.20035 -1.90704 0
M  V30 123 H 10.4817 3.92076 -1.85632 0
M  V30 124 H 11.1527 5.39736 -1.15713 0
M  V30 125 H 13.6287 4.14936 0.310992 0
M  V30 126 H 12.5047 5.42251 0.851782 0
M  V30 127 H 12.7657 4.00963 1.86229 0
M  V30 128 N 11.8248 0.280983 1.55075 0
M  V30 129 C 12.7728 -0.619864 2.24188 0
M  V30 130 C 13.7668 -1.15315 1.24092 0
M  V30 131 O 14.9728 -1.1061 1.42005 0
M  V30 132 H 11.3478 -0.218459 0.719569 0
M  V30 133 H 13.3188 -0.0141831 2.98397 0
M  V30 134 C 12.0678 -1.7899 2.98091 0
M  V30 135 H 11.3908 -1.38874 3.74905 0
M  V30 136 H 12.8308 -2.39672 3.49762 0
M  V30 137 C 11.2898 -2.68192 2.03899 0
M  V30 138 O 11.8198 -3.6872 1.594 0
M  V30 139 N 10.0258 -2.35488 1.70275 0
M  V30 140 H 9.5728 -1.53787 2.06658 0
M  V30 141 H 9.5308 -2.95442 1.07524 0
M  V30 142 N 13.3029 -1.57598 0.00835791 0
M  V30 143 C 14.5499 -1.90928 -0.674732 0
M  V30 144 C 14.8779 -0.88277 -1.73313 0
M  V30 145 O 14.1329 0.111294 -1.95383 0
M  V30 146 C 14.4319 -3.3101 -1.34787 0
M  V30 147 C 14.0979 -4.48922 -0.421861 0
M  V30 148 C 12.7599 -4.8091 -0.166927 0
M  V30 149 C 15.1119 -5.20755 0.215211 0
M  V30 150 C 12.4399 -5.821 0.733232 0
M  V30 151 C 14.7919 -6.22905 1.1033 0
M  V30 152 C 13.4559 -6.53346 1.36733 0
M  V30 153 H 12.7259 -0.698656 -0.246902 0
M  V30 154 H 15.3729 -1.91387 0.0656779 0
M  V30 155 H 13.6779 -3.26714 -2.16253 0
M  V30 156 H 15.3749 -3.54061 -1.8826 0
M  V30 157 H 11.9649 -4.23934 -0.630729 0
M  V30 158 H 16.1489 -4.9629 0.0312829 0
M  V30 159 H 11.4049 -6.04042 0.945712 0
M  V30 160 H 15.5789 -6.77694 1.60325 0
M  V30 161 H 13.2059 -7.31573 2.06652 0
M  V30 162 N 14.781 0.264519 -1.55364 0
M  V30 163 C 16.029 0.993021 -1.76021 0
M  V30 164 C 16.35 1.86511 -0.569099 0
M  V30 165 O 15.62 1.91438 0.415735 0
M  V30 166 H 14.2 0.369639 -0.649135 0
M  V30 167 H 16.862 0.286707 -1.9278 0
M  V30 168 H 15.958 1.62502 -2.66457 0
M  V30 169 N 16.2591 1.48442 0.529413 0
M  V30 170 C 17.6701 1.5002 1.11134 0
M  V30 171 C 18.0211 0.27031 1.94329 0
M  V30 172 O 17.1461 -0.622507 2.07253 0
M  V30 173 C 17.7411 2.71834 2.02217 0
M  V30 174 C 16.3001 2.76283 2.55627 0
M  V30 175 C 15.4471 2.43542 1.326 0
M  V30 176 H 18.3981 1.5555 0.314641 0
M  V30 177 H 18.4191 2.50384 2.8651 0
M  V30 178 H 17.9311 3.61331 1.41639 0
M  V30 179 H 16.0321 1.90995 3.19924 0
M  V30 180 H 16.1451 3.77725 2.94721 0
M  V30 181 H 14.5091 1.94709 1.64196 0
M  V30 182 H 15.2921 3.3528 0.737734 0
M  V30 183 N 17.7372 -0.778329 1.37039 0
M  V30 184 C 18.9852 -1.53361 1.31623 0
M  V30 185 C 19.3062 -1.94739 -0.100831 0
M  V30 186 O 18.5762 -1.65797 -1.04347 0
M  V30 187 H 17.1562 -0.568794 0.484234 0
M  V30 188 H 19.8182 -0.926742 1.71457 0
M  V30 189 H 18.9142 -2.43606 1.95096 0
M  V30 190 N 19.2153 -1.21501 -1.00376 0
M  V30 191 C 20.6263 -1.03146 -1.55621 0
M  V30 192 C 20.9773 0.408375 -1.91903 0
M  V30 193 O 20.1023 1.29177 -1.73616 0
M  V30 194 C 20.6973 -1.86612 -2.82775 0
M  V30 195 C 19.2563 -1.72586 -3.34501 0
M  V30 196 C 18.4033 -1.83747 -2.07683 0
M  V30 197 H 21.3543 -1.35505 -0.826081 0
M  V30 198 H 21.3753 -1.3771 -3.54706 0
M  V30 199 H 20.8873 -2.91399 -2.56336 0
M  V30 200 H 18.9883 -0.704877 -3.65872 0
M  V30 201 H 19.1013 -2.54623 -4.05837 0
M  V30 202 H 17.4653 -1.27069 -2.20739 0
M  V30 203 H 18.2483 -2.90044 -1.83655 0
M  V30 204 N 20.6934 1.19889 -1.02296 0
M  V30 205 C 21.6564 2.21116 -0.603351 0
M  V30 206 C 22.6564 1.5738 0.329884 0
M  V30 207 O 23.8464 1.73802 0.117702 0
M  V30 208 C 20.9784 3.40696 0.117992 0
M  V30 209 H 22.1714 2.59754 -1.49893 0
M  V30 210 H 19.7244 1.33463 -0.813468 0
M  V30 211 H 20.4594 3.07569 1.0282 0
M  V30 212 H 20.2444 3.88188 -0.552511 0
M  V30 213 H 21.7344 4.15692 0.398696 0
M  V30 214 N 22.1715 0.800033 1.35784 0
M  V30 215 C 23.1185 0.203848 2.29898 0
M  V30 216 C 24.0885 -0.658375 1.52495 0
M  V30 217 O 25.2735 -0.604832 1.8096 0
M  V30 218 C 22.4135 -0.64688 3.38983 0
M  V30 219 C 21.5265 0.235054 4.3136 0
M  V30 220 C 20.6615 -0.623054 5.27533 0
M  V30 221 C 19.7005 0.259682 6.11549 0
M  V30 222 N 18.8375 -0.558019 6.99879 0
M  V30 223 H 23.6775 1.01186 2.80295 0
M  V30 224 H 21.2145 0.51053 1.37957 0
M  V30 225 H 23.1725 -1.15521 4.00887 0
M  V30 226 H 21.8025 -1.42021 2.89879 0
M  V30 227 H 20.8545 0.861438 3.70518 0
M  V30 228 H 22.1665 0.914768 4.9034 0
M  V30 229 H 21.3205 -1.19678 5.94779 0
M  V30 230 H 20.0595 -1.33636 4.69034 0
M  V30 231 H 19.0645 0.845726 5.43256 0
M  V30 232 H 20.2895 0.970748 6.72126 0
M  V30 233 H 18.2355 -1.25542 6.43875 0
M  V30 234 H 18.1525 0.0637872 7.55973 0
M  V30 235 H 19.4205 -1.11523 7.71481 0
M  V30 236 N 23.6496 -1.47581 0.552962 0
M  V30 237 C 24.5796 -2.32762 -0.185451 0
M  V30 238 C 25.5606 -1.43527 -0.912905 0
M  V30 239 O 26.7456 -1.72388 -0.894201 0
M  V30 240 C 23.8756 -3.25219 -1.21859 0
M  V30 241 C 22.8296 -4.23661 -0.607864 0
M  V30 242 C 22.1556 -5.05413 -1.74533 0
M  V30 243 C 23.4556 -5.20481 0.435582 0
M  V30 244 H 25.1496 -2.94749 0.525684 0
M  V30 245 H 22.6956 -1.41738 0.254251 0
M  V30 246 H 24.6486 -3.8365 -1.7433 0
M  V30 247 H 23.3726 -2.61279 -1.95961 0
M  V30 248 H 22.0316 -3.66451 -0.104489 0
M  V30 249 H 21.6796 -4.3788 -2.47529 0
M  V30 250 H 21.3796 -5.72059 -1.34249 0
M  V30 251 H 22.9036 -5.66701 -2.27338 0
M  V30 252 H 24.3176 -5.733 -0.00290157 0
M  V30 253 H 22.7146 -5.95305 0.757067 0
M  V30 254 H 23.7846 -4.66217 1.33303 0
M  V30 255 N 25.1277 -0.289203 -1.54924 0
M  V30 256 C 26.5387 0.205791 -1.85562 0
M  V30 257 C 26.8897 1.54351 -1.2112 0
M  V30 258 O 26.0147 2.10435 -0.504601 0
M  V30 259 C 26.6097 0.380177 -3.3666 0
M  V30 260 C 25.1687 0.819395 -3.67373 0
M  V30 261 C 24.3157 -0.079159 -2.77187 0
M  V30 262 H 27.2667 -0.510577 -1.50262 0
M  V30 263 H 27.2877 1.21659 -3.60526 0
M  V30 264 H 26.7997 -0.593589 -3.83534 0
M  V30 265 H 24.9007 1.80413 -3.26009 0
M  V30 266 H 25.0137 0.646957 -4.74712 0
M  V30 267 H 23.3777 0.439565 -2.50878 0
M  V30 268 H 24.1607 -1.04906 -3.26878 0
M  V30 269 N 26.6058 1.57591 -0.0167156 0
M  V30 270 C 27.5558 2.05953 0.978137 0
M  V30 271 C 28.5398 0.957532 1.29306 0
M  V30 272 O 29.7318 1.22119 1.28125 0
M  V30 273 C 26.8608 2.58006 2.26468 0
M  V30 274 C 25.9468 3.75113 1.97867 0
M  V30 275 N 26.3378 4.86187 1.39486 0
M  V30 276 C 24.6358 3.83363 2.27924 0
M  V30 277 C 25.3368 5.67502 1.27735 0
M  V30 278 N 24.3128 5.14023 1.76866 0
M  V30 279 H 28.1148 2.89236 0.521522 0
M  V30 280 H 25.6288 1.61301 0.188596 0
M  V30 281 H 27.6258 2.90937 2.98599 0
M  V30 282 H 26.2858 1.76148 2.72767 0
M  V30 283 H 27.2968 5.06695 1.07147 0
M  V30 284 H 23.9738 3.1239 2.76982 0
M  V30 285 H 25.3638 6.66791 0.826978 0
M  V30 286 N 28.0839 -0.256276 1.55502 0
M  V30 287 C 29.3089 -1.00766 1.81276 0
M  V30 288 C 29.7339 -1.78524 0.59252 0
M  V30 289 O 29.0919 -1.75413 -0.45827 0
M  V30 290 C 29.1399 -1.92869 3.04687 0
M  V30 291 O 28.2439 -3.019 2.80945 0
M  V30 292 H 27.5849 -0.287224 0.598664 0
M  V30 293 H 30.1149 -0.280109 2.02674 0
M  V30 294 H 30.1249 -2.34511 3.33869 0
M  V30 295 H 28.7999 -1.35689 3.93143 0
M  V30 296 H 27.3769 -2.64454 2.62904 0
M  V30 297 N 29.562 -1.4872 -0.521534 0
M  V30 298 C 30.808 -1.574 -1.27879 0
M  V30 299 C 31.141 -0.250817 -1.92573 0
M  V30 300 O 30.416 0.743934 -1.79711 0
M  V30 301 C 30.699 -2.71843 -2.36164 0
M  V30 302 C 30.552 -4.13893 -1.76105 0
M  V30 303 C 31.871 -2.82008 -3.37875 0
M  V30 304 H 28.99 -0.572941 -0.463581 0
M  V30 305 H 31.632 -1.80927 -0.580119 0
M  V30 306 H 29.782 -2.51914 -2.95756 0
M  V30 307 H 31.454 -4.45284 -1.20499 0
M  V30 308 H 29.697 -4.20498 -1.06601 0
M  V30 309 H 30.368 -4.89804 -2.5455 0
M  V30 310 H 32.844 -3.00086 -2.88249 0
M  V30 311 H 31.72 -3.63796 -4.11028 0
M  V30 312 H 31.981 -1.90511 -3.98946 0
M  V30 313 N 31.0401 0.771051 -1.3745 0
M  V30 314 C 31.9701 1.89827 -1.3597 0
M  V30 315 C 32.9511 1.68562 -0.228216 0
M  V30 316 O 34.1361 1.8941 -0.428675 0
M  V30 317 C 31.2661 3.2712 -1.16662 0
M  V30 318 C 30.2201 3.6295 -2.2683 0
M  V30 319 C 29.5461 4.98791 -1.92644 0
M  V30 320 C 30.8461 3.69627 -3.69017 0
M  V30 321 H 32.5401 1.91323 -2.30295 0
M  V30 322 H 30.0861 0.919082 -1.10855 0
M  V30 323 H 32.0391 4.05615 -1.14256 0
M  V30 324 H 30.7631 3.26059 -0.187926 0
M  V30 325 H 29.4221 2.86763 -2.28392 0
M  V30 326 H 29.0701 4.94271 -0.933021 0
M  V30 327 H 28.7701 5.23733 -2.66416 0
M  V30 328 H 30.2941 5.79685 -1.91826 0
M  V30 329 H 31.7081 4.38273 -3.69581 0
M  V30 330 H 30.1051 4.06067 -4.41848 0
M  V30 331 H 31.1751 2.70273 -4.02592 0
M  V30 332 N 32.5182 1.22032 0.997298 0
M  V30 333 C 33.4482 1.01065 2.10495 0
M  V30 334 C 34.4292 -0.0669542 1.69968 0
M  V30 335 O 35.6142 0.0943987 1.9397 0
M  V30 336 C 32.7442 0.582874 3.42374 0
M  V30 337 C 31.6982 1.60592 3.96729 0
M  V30 338 C 31.0242 1.03412 5.24605 0
M  V30 339 C 32.3242 2.99478 4.27914 0
M  V30 340 H 34.0182 1.93708 2.28292 0
M  V30 341 H 31.5642 0.932761 1.09707 0
M  V30 342 H 33.5172 0.423332 4.19268 0
M  V30 343 H 32.2412 -0.379213 3.24391 0
M  V30 344 H 30.9002 1.75316 3.21963 0
M  V30 345 H 30.5482 0.063518 5.0296 0
M  V30 346 H 30.2482 1.71754 5.61938 0
M  V30 347 H 31.7722 0.886066 6.04137 0
M  V30 348 H 33.1862 2.88153 4.95622 0
M  V30 349 H 31.5832 3.64903 4.76409 0
M  V30 350 H 32.6532 3.49742 3.3587 0
M  V30 351 N 33.9963 -1.19345 1.0293 0
M  V30 352 C 34.9063 -2.26245 0.620515 0
M  V30 353 C 35.9223 -1.70486 -0.347928 0
M  V30 354 O 37.0983 -2.00347 -0.205704 0
M  V30 355 C 34.1633 -3.46693 -0.0218957 0
M  V30 356 C 33.2243 -4.17632 0.994102 0
M  V30 357 C 32.4573 -5.32329 0.382253 0
M  V30 358 O 32.6803 -5.64552 -0.814676 0
M  V30 359 O 31.6143 -5.91664 1.10531 0
M  V30 360 H 35.4403 -2.63453 1.51083 0
M  V30 361 H 33.0253 -1.26207 0.799513 0
M  V30 362 H 34.9073 -4.19683 -0.380072 0
M  V30 363 H 33.5823 -3.11333 -0.886209 0
M  V30 364 H 32.4893 -3.4676 1.40387 0
M  V30 365 H 33.8223 -4.56964 1.8288 0
M  V30 366 N 35.4744 -0.807222 -1.35358 0
M  V30 367 C 36.7234 -0.384376 -1.98004 0
M  V30 368 C 37.0364 1.0543 -1.64754 0
M  V30 369 O 38.2424 1.58029 -2.20769 0
M  V30 370 C 36.6984 -0.636326 -3.5423 0
M  V30 371 C 36.3064 -2.08759 -3.96388 0
M  V30 372 C 38.0504 -0.278869 -4.23583 0
M  V30 373 C 35.9574 -2.28525 -5.45463 0
M  V30 374 H 34.8874 -0.139986 -0.740891 0
M  V30 375 H 37.5384 -0.991369 -1.54415 0
M  V30 376 H 35.9204 0.0406256 -3.95979 0
M  V30 377 H 37.0944 -2.8024 -3.6579 0
M  V30 378 H 35.4094 -2.40497 -3.39926 0
M  V30 379 H 38.0064 -0.404599 -5.33167 0
M  V30 380 H 38.3494 0.775012 -4.09022 0
M  V30 381 H 38.8824 -0.909764 -3.87257 0
M  V30 382 H 35.6214 -3.32361 -5.64992 0
M  V30 383 H 35.1414 -1.61569 -5.77629 0
M  V30 384 H 36.8204 -2.10109 -6.11934 0
M  V30 385 N 36.9525 1.47285 -0.560781 0
M  V30 386 C 37.8845 2.28118 0.222438 0
M  V30 387 C 38.8975 1.37219 0.876056 0
M  V30 388 O 40.0865 1.62011 0.749307 0
M  V30 389 C 37.1865 3.1159 1.33285 0
M  V30 390 C 36.3595 4.30473 0.77534 0
M  V30 391 C 35.4185 4.95513 1.77069 0
M  V30 392 O 34.4445 5.53792 1.31539 0
M  V30 393 N 35.6465 4.90531 3.10418 0
M  V30 394 H 38.4115 2.95976 -0.470958 0
M  V30 395 H 35.9725 1.56955 -0.39709 0
M  V30 396 H 37.9645 3.51967 1.99752 0
M  V30 397 H 36.5345 2.45951 1.92943 0
M  V30 398 H 35.7545 3.94144 -0.0662113 0
M  V30 399 H 37.0425 5.07362 0.382272 0
M  V30 400 H 36.4405 4.44389 3.5005 0
M  V30 401 H 34.9975 5.34917 3.72434 0
M  V30 402 N 38.4306 0.297415 1.54768 0
M  V30 403 C 39.3776 -0.580276 2.23386 0
M  V30 404 C 40.3476 -1.13238 1.21517 0
M  V30 405 O 41.5326 -1.17757 1.50126 0
M  V30 406 C 38.6726 -1.74801 2.97555 0
M  V30 407 C 37.7856 -1.22764 4.1419 0
M  V30 408 C 36.9206 -2.35895 4.75949 0
M  V30 409 C 35.9596 -1.80974 5.84735 0
M  V30 410 N 35.0966 -2.87664 6.40464 0
M  V30 411 H 39.9366 0.0114833 2.97998 0
M  V30 412 H 37.4736 0.0174361 1.4709 0
M  V30 413 H 39.4316 -2.43475 3.38786 0
M  V30 414 H 38.0616 -2.31145 2.25326 0
M  V30 415 H 37.1136 -0.433271 3.77924 0
M  V30 416 H 38.4256 -0.785551 4.92575 0
M  V30 417 H 37.5796 -3.12523 5.20014 0
M  V30 418 H 36.3186 -2.83429 3.96887 0
M  V30 419 H 35.3236 -1.02834 5.40097 0
M  V30 420 H 36.5486 -1.34348 6.65678 0
M  V30 421 H 34.4946 -3.34538 5.64287 0
M  V30 422 H 34.4116 -2.4794 7.14186 0
M  V30 423 H 35.6796 -3.642 6.89187 0
M  V30 424 N 39.9087 -1.5758 0.0250728 0
M  V30 425 C 40.8187 -2.1343 -0.973905 0
M  V30 426 C 41.8347 -1.08556 -1.35984 0
M  V30 427 O 43.0107 -1.40592 -1.44207 0
M  V30 428 C 40.0757 -2.64703 -2.23904 0
M  V30 429 C 39.1367 -3.84276 -1.91391 0
M  V30 430 C 38.3697 -4.33095 -3.11873 0
M  V30 431 O 38.5927 -3.81107 -4.24398 0
M  V30 432 O 37.5267 -5.24984 -2.94406 0
M  V30 433 H 41.3527 -2.99057 -0.529036 0
M  V30 434 H 38.9377 -1.48118 -0.195288 0
M  V30 435 H 40.8197 -2.97769 -2.98181 0
M  V30 436 H 39.4947 -1.82161 -2.6758 0
M  V30 437 H 38.4017 -3.56143 -1.14511 0
M  V30 438 H 39.7347 -4.67968 -1.52534 0
M  V30 439 N 41.3868 0.248026 -1.55636 0
M  V30 440 C 42.3168 1.31079 -1.93237 0
M  V30 441 C 43.2978 1.50264 -0.797174 0
M  V30 442 O 44.4828 1.62891 -1.05737 0
M  V30 443 C 41.6128 2.66575 -2.22609 0
M  V30 444 C 40.5668 2.62087 -3.3837 0
M  V30 445 C 39.8928 4.01369 -3.53281 0
M  V30 446 C 41.1928 2.19171 -4.7409 0
M  V30 447 H 42.8868 0.998556 -2.82257 0
M  V30 448 H 40.4328 0.47891 -1.35803 0
M  V30 449 H 42.3858 3.41057 -2.47503 0
M  V30 450 H 41.1098 2.99432 -1.30414 0
M  V30 451 H 39.7688 1.90063 -3.13483 0
M  V30 452 H 39.4168 4.31489 -2.58508 0
M  V30 453 H 39.1168 3.99254 -4.31127 0
M  V30 454 H 40.6408 4.77552 -3.80495 0
M  V30 455 H 42.0548 2.83384 -4.98363 0
M  V30 456 H 40.4518 2.2817 -5.5503 0
M  V30 457 H 41.5218 1.14336 -4.71227 0
M  V30 458 N 42.8649 1.48995 0.513639 0
M  V30 459 C 43.7949 1.67636 1.62544 0
M  V30 460 C 44.7759 0.525087 1.61793 0
M  V30 461 O 45.9609 0.759502 1.78732 0
M  V30 462 C 43.0909 1.73114 3.01079 0
M  V30 463 C 42.0449 2.87905 3.16693 0
M  V30 464 C 41.3709 2.78486 4.56453 0
M  V30 465 C 42.6709 4.29005 2.97913 0
M  V30 466 H 44.3649 2.60716 1.47198 0
M  V30 467 H 41.9109 1.25465 0.706714 0
M  V30 468 H 43.8639 1.84742 3.78746 0
M  V30 469 H 42.5879 0.766241 3.17484 0
M  V30 470 H 41.2469 2.75859 2.41448 0
M  V30 471 H 40.8949 1.7993 4.69717 0
M  V30 472 H 40.5949 3.55523 4.67843 0
M  V30 473 H 42.1189 2.92104 5.36197 0
M  V30 474 H 43.5329 4.41798 3.65359 0
M  V30 475 H 41.9299 5.07166 3.20785 0
M  V30 476 H 42.9999 4.44329 1.94165 0
M  V30 477 N 44.343 -0.763751 1.37857 0
M  V30 478 C 45.62 -1.51244 1.24035 0
M  V30 479 C 46 -2.10472 -0.162649 0
M  V30 480 O 45.348 -1.96206 -1.17112 0
M  V30 481 C 45.558 -2.58694 2.34261 0
M  V30 482 C 46.906 -3.25878 2.72193 0
M  V30 483 O 47.93 -2.68993 2.33497 0
M  V30 484 O 46.789 -4.2874 3.38887 0
M  V30 485 H 43.883 -0.670243 0.484462 0
M  V30 486 H 46.429 -0.800031 1.49658 0
M  V30 487 H 45.201 -2.13105 3.2818 0
M  V30 488 H 44.824 -3.37527 2.10146 0
M  V30 489 N 45.8211 -1.22559 -0.990812 0
M  V30 490 C 47.0511 -1.07623 -1.76355 0
M  V30 491 C 47.4591 0.37601 -1.85426 0
M  V30 492 O 46.8021 1.27228 -1.32509 0
M  V30 493 C 46.8641 -1.61507 -3.21179 0
M  V30 494 C 46.5281 -3.10146 -3.35646 0
M  V30 495 C 47.5251 -4.07553 -3.22796 0
M  V30 496 C 45.2101 -3.49644 -3.60631 0
M  V30 497 C 47.2041 -5.42442 -3.34716 0
M  V30 498 C 44.8911 -4.84682 -3.72192 0
M  V30 499 C 45.8891 -5.8089 -3.59243 0
M  V30 500 O 45.5771 -7.13476 -3.70415 0
M  V30 501 H 45.3091 -0.377745 -0.560611 0
M  V30 502 H 47.8631 -1.62658 -1.25425 0
M  V30 503 H 46.0931 -1.00881 -3.73309 0
M  V30 504 H 47.7821 -1.42202 -3.80175 0
M  V30 505 H 48.5481 -3.78381 -3.03403 0
M  V30 506 H 44.4271 -2.75282 -3.69785 0
M  V30 507 H 47.9711 -6.17518 -3.24526 0
M  V30 508 H 43.8681 -5.13534 -3.91092 0
M  V30 509 H 44.6361 -7.21083 -3.87275 0
M  V30 510 N 47.2992 1.18797 -1.03562 0
M  V30 511 C 48.2462 2.22253 -0.622259 0
M  V30 512 C 49.2162 1.61987 0.36736 0
M  V30 513 O 50.4012 1.88986 0.262492 0
M  V30 514 C 47.5412 3.45097 0.0138462 0
M  V30 515 C 46.6542 4.19722 -1.02263 0
M  V30 516 C 45.7892 5.30009 -0.355573 0
M  V30 517 C 44.8282 5.96399 -1.37749 0
M  V30 518 N 43.9652 6.98234 -0.735766 0
M  V30 519 H 48.8052 2.56968 -1.50903 0
M  V30 520 H 46.3422 1.26245 -0.755017 0
M  V30 521 H 48.3002 4.15279 0.399948 0
M  V30 522 H 46.9302 3.11018 0.864158 0
M  V30 523 H 45.9822 3.48418 -1.52673 0
M  V30 524 H 47.2942 4.65227 -1.79903 0
M  V30 525 H 46.4482 6.0664 0.0850095 0
M  V30 526 H 45.1872 4.85592 0.452967 0
M  V30 527 H 44.1922 5.18512 -1.82826 0
M  V30 528 H 45.4172 6.42899 -2.18764 0
M  V30 529 H 43.3632 6.55979 0.0525597 0
M  V30 530 H 43.2802 7.41965 -1.44995 0
M  V30 531 H 44.5482 7.78845 -0.31941 0
M  V30 532 N 48.7773 0.814389 1.34928 0
M  V30 533 C 50.0253 0.397636 1.9815 0
M  V30 534 C 50.3463 -1.04069 1.64908 0
M  V30 535 O 49.6163 -1.72121 0.93548 0
M  V30 536 H 48.1963 0.144043 0.732981 0
M  V30 537 H 50.8583 1.04195 1.6471 0
M  V30 538 H 49.9543 0.509688 3.0791 0
M  V30 539 N 50.2554 -1.46986 0.568584 0
M  V30 540 C 51.5014 -2.02741 0.0488709 0
M  V30 541 C 51.8344 -1.44077 -1.30214 0
M  V30 542 O 51.1094 -0.600552 -1.84996 0
M  V30 543 C 51.3924 -3.60086 -0.032047 0
M  V30 544 C 51.2454 -4.29162 1.34686 0
M  V30 545 C 52.5644 -4.33838 -0.739798 0
M  V30 546 H 49.6834 -0.736749 0.0192338 0
M  V30 547 H 52.3254 -1.75289 0.733065 0
M  V30 548 H 50.4754 -3.83606 -0.61473 0
M  V30 549 H 52.1474 -4.16948 1.97362 0
M  V30 550 H 50.3904 -3.89073 1.91846 0
M  V30 551 H 51.0614 -5.37826 1.24285 0
M  V30 552 H 53.5374 -4.15378 -0.244939 0
M  V30 553 H 52.4134 -5.43537 -0.765406 0
M  V30 554 H 52.6744 -4.03875 -1.79827 0
M  V30 555 N 51.7335 -0.305618 -1.54608 0
M  V30 556 C 52.9815 0.301701 -1.99835 0
M  V30 557 C 53.3025 1.54054 -1.19551 0
M  V30 558 O 52.5725 1.93702 -0.292658 0
M  V30 559 H 51.1525 0.114468 -0.738178 0
M  V30 560 H 53.8145 -0.418016 -1.90364 0
M  V30 561 H 52.9105 0.570548 -3.06841 0
M  V30 562 N 53.2116 1.57565 -0.0334293 0
M  V30 563 C 54.4606 1.91155 0.643639 0
M  V30 564 C 54.7736 0.91192 1.73042 0
M  V30 565 O 55.9796 1.13923 2.46442 0
M  V30 566 C 54.4356 3.39443 1.1961 0
M  V30 567 C 54.0436 4.47774 0.142381 0
M  V30 568 C 55.7876 3.82094 1.84944 0
M  V30 569 C 53.6946 5.87162 0.706727 0
M  V30 570 H 52.6246 0.713368 0.244176 0
M  V30 571 H 55.2756 1.8323 -0.0994323 0
M  V30 572 H 53.6576 3.42313 1.99092 0
M  V30 573 H 54.8316 4.56469 -0.630296 0
M  V30 574 H 53.1466 4.14352 -0.412446 0
M  V30 575 H 55.7436 4.83591 2.2813 0
M  V30 576 H 56.0866 3.17386 2.69392 0
M  V30 577 H 56.6196 3.81665 1.12145 0
M  V30 578 H 53.3586 6.55424 -0.0997178 0
M  V30 579 H 52.8786 5.82064 1.44779 0
M  V30 580 H 54.5576 6.35866 1.19514 0
M  V30 581 N 54.6897 -0.239769 1.55765 0
M  V30 582 C 55.9147 -0.988373 1.82335 0
M  V30 583 C 56.3397 -1.77886 0.611421 0
M  V30 584 O 55.6977 -1.75889 -0.439639 0
M  V30 585 C 55.7457 -1.89627 3.06715 0
M  V30 586 O 54.8497 -2.98904 2.84131 0
M  V30 587 H 54.1907 -0.280858 0.601677 0
M  V30 588 H 56.7207 -0.258597 2.02959 0
M  V30 589 H 56.7307 -2.30957 3.36338 0
M  V30 590 H 55.4057 -1.31511 3.9456 0
M  V30 591 H 53.9827 -2.61651 2.65694 0
M  V30 592 N 56.1678 -1.49265 -0.50573 0
M  V30 593 C 57.4138 -1.58748 -1.26202 0
M  V30 594 C 57.7468 -0.271227 -1.92297 0
M  V30 595 O 57.0218 0.724831 -1.80489 0
M  V30 596 C 57.3048 -2.74332 -2.33268 0
M  V30 597 C 57.1578 -4.15737 -1.71705 0
M  V30 598 C 58.4768 -2.85576 -3.34865 0
M  V30 599 H 55.5958 -0.577826 -0.457478 0
M  V30 600 H 58.2378 -1.81532 -0.560897 0
M  V30 601 H 56.3878 -2.55036 -2.93068 0
M  V30 602 H 58.0598 -4.46537 -1.15769 0
M  V30 603 H 56.3028 -4.21605 -1.02135 0
M  V30 604 H 56.9738 -4.92477 -2.49341 0
M  V30 605 H 59.4498 -3.03127 -2.8505 0
M  V30 606 H 58.3258 -3.68135 -4.07146 0
M  V30 607 H 58.5868 -1.94732 -3.96903 0
M  V30 608 N 57.6459 0.756429 -1.3826 0
M  V30 609 C 58.5759 1.88374 -1.37976 0
M  V30 610 C 59.5569 1.68311 -0.246082 0
M  V30 611 O 60.7419 1.88944 -0.44874 0
M  V30 612 C 57.8719 3.25864 -1.20125 0
M  V30 613 C 56.8259 3.60523 -2.30666 0
M  V30 614 C 56.1519 4.9672 -1.97923 0
M  V30 615 C 57.4519 3.65692 -3.72916 0
M  V30 616 H 59.1459 1.88869 -2.32312 0
M  V30 617 H 56.6919 0.907272 -1.11824 0
M  V30 618 H 58.6449 4.0438 -1.18552 0
M  V30 619 H 57.3689 3.25841 -0.222498 0
M  V30 620 H 56.0279 2.84324 -2.3142 0
M  V30 621 H 55.6759 4.93253 -0.985393 0
M  V30 622 H 55.3759 5.20878 -2.71955 0
M  V30 623 H 56.8999 5.77618 -1.97964 0
M  V30 624 H 58.3139 4.34328 -3.74208 0
M  V30 625 H 56.7109 4.01358 -4.4613 0
M  V30 626 H 57.7809 2.65987 -4.05436 0
M  V30 627 N 59.124 1.23083 0.984299 0
M  V30 628 C 60.034 1.02515 2.11016 0
M  V30 629 C 61.05 -0.0291702 1.73976 0
M  V30 630 O 62.226 0.165434 2.00719 0
M  V30 631 C 59.291 0.614673 3.41208 0
M  V30 632 C 58.352 1.74359 3.92297 0
M  V30 633 C 57.585 1.35261 5.16275 0
M  V30 634 O 57.808 0.235136 5.69915 0
M  V30 635 O 56.742 2.17227 5.61334 0
M  V30 636 H 60.568 1.96862 2.31255 0
M  V30 637 H 58.153 1.01753 1.09392 0
M  V30 638 H 60.035 0.396518 4.1953 0
M  V30 639 H 58.71 -0.299851 3.22308 0
M  V30 640 H 57.617 2.01635 3.1511 0
M  V30 641 H 58.95 2.63629 4.15645 0
M  V30 642 N 60.6021 -1.18246 1.0419 0
M  V30 643 C 61.5351 -2.20746 0.578474 0
M  V30 644 C 62.5131 -1.57912 -0.387624 0
M  V30 645 O 63.6971 -1.86071 -0.301634 0
M  V30 646 C 60.8241 -3.38346 -0.154762 0
M  V30 647 C 59.8701 -4.19587 0.764782 0
M  V30 648 S 60.7031 -4.86014 2.24835 0
M  V30 649 C 61.8591 -6.07012 1.526 0
M  V30 650 H 62.0921 -2.59715 1.44691 0
M  V30 651 H 59.6251 -1.287 0.85297 0
M  V30 652 H 61.5831 -4.065 -0.571641 0
M  V30 653 H 60.2441 -2.97786 -0.999105 0
M  V30 654 H 59.4371 -5.03611 0.197976 0
M  V30 655 H 59.0391 -3.56818 1.12057 0
M  V30 656 H 61.3311 -6.72523 0.819733 0
M  V30 657 H 62.2741 -6.68202 2.34333 0
M  V30 658 H 62.6821 -5.55249 1.01779 0
M  V30 659 N 62.0802 -0.821533 -1.34494 0
M  V30 660 C 63.3052 -0.420873 -2.03085 0
M  V30 661 C 63.7302 0.964915 -1.61465 0
M  V30 662 O 63.0882 1.62763 -0.798607 0
M  V30 663 C 63.1362 -0.529414 -3.56693 0
M  V30 664 O 62.2402 0.451302 -4.09923 0
M  V30 665 H 61.5812 -0.173489 -0.640935 0
M  V30 666 H 64.1112 -1.11157 -1.71771 0
M  V30 667 H 64.1212 -0.404671 -4.05988 0
M  V30 668 H 62.7962 -1.54014 -3.86332 0
M  V30 669 H 61.3732 0.285558 -3.71805 0
M  V30 670 N 63.5583 1.46682 -0.576371 0
M  V30 671 C 64.5083 2.27278 0.181288 0
M  V30 672 C 65.4923 1.35497 0.867721 0
M  V30 673 O 66.6843 1.59717 0.762863 0
M  V30 674 C 63.8133 3.21703 1.19841 0
M  V30 675 C 62.8993 4.20969 0.51442 0
M  V30 676 N 63.2903 5.03999 -0.426407 0
M  V30 677 C 61.5883 4.39373 0.765963 0
M  V30 678 C 62.2893 5.75812 -0.825565 0
M  V30 679 N 61.2653 5.43315 -0.176116 0
M  V30 680 H 65.0673 2.88863 -0.541785 0
M  V30 681 H 62.5813 1.57455 -0.397697 0
M  V30 682 H 64.5783 3.78145 1.75533 0
M  V30 683 H 63.2383 2.61677 1.92238 0
M  V30 684 H 64.2493 5.11659 -0.8016 0
M  V30 685 H 60.9263 3.90502 1.47698 0
M  V30 686 H 62.3163 6.52577 -1.59976 0
M  V30 687 N 65.0364 0.313813 1.54444 0
M  V30 688 C 66.4524 -0.0391619 1.59552 0
M  V30 689 C 66.6524 -1.51322 1.33056 0
M  V30 690 O 65.7084 -2.26782 1.11022 0
M  V30 691 C 67.0214 0.370302 2.98411 0
M  V30 692 C 68.5694 0.320139 3.11358 0
M  V30 693 C 69.0444 0.704617 4.52547 0
M  V30 694 N 70.5354 0.657645 4.58508 0
M  V30 695 C 71.2704 0.927453 5.6585 0
M  V30 696 N 70.7664 1.26389 6.81174 0
M  V30 697 N 72.5594 0.853662 5.5558 0
M  V30 698 H 64.7104 1.27433 1.69925 0
M  V30 699 H 66.9734 0.517511 0.794284 0
M  V30 700 H 66.6794 1.39694 3.22767 0
M  V30 701 H 66.5534 -0.269619 3.76235 0
M  V30 702 H 68.9404 -0.697275 2.86744 0
M  V30 703 H 69.0214 0.99486 2.35661 0
M  V30 704 H 68.6654 1.7199 4.77893 0
M  V30 705 H 68.5954 0.00768843 5.26599 0
M  V30 706 H 71.0864 0.409067 3.75679 0
M  V30 707 H 71.3994 1.4554 7.58972 0
M  V30 708 H 69.7444 1.30206 6.82694 0
M  V30 709 H 72.9354 0.590383 4.64362 0
M  V30 710 H 73.1084 1.0673 6.3915 0
M  V30 711 N 66.5145 -1.57545 0.0417849 0
M  V30 712 C 67.7395 -1.97035 -0.647455 0
M  V30 713 C 68.1645 -0.918775 -1.64135 0
M  V30 714 O 67.5225 0.119006 -1.80909 0
M  V30 715 C 67.5705 -3.35609 -1.31905 0
M  V30 716 O 66.6745 -3.3287 -2.43457 0
M  V30 717 H 66.0155 -0.64211 -0.169086 0
M  V30 718 H 68.5455 -2.04318 0.107399 0
M  V30 719 H 68.5555 -3.72126 -1.67291 0
M  V30 720 H 67.2305 -4.11685 -0.590586 0
M  V30 721 H 65.8075 -3.08087 -2.10088 0
M  V30 722 N 67.9926 0.231505 -1.5589 0
M  V30 723 C 69.2176 0.978689 -1.82856 0
M  V30 724 C 69.6426 1.77559 -0.620846 0
M  V30 725 O 69.0006 1.76119 0.430305 0
M  V30 726 C 69.0486 1.87997 -3.07716 0
M  V30 727 O 68.1526 2.97393 -2.85712 0
M  V30 728 H 67.4936 0.277663 -0.603158 0
M  V30 729 H 70.0236 0.24783 -2.03093 0
M  V30 730 H 70.0336 2.2917 -3.37558 0
M  V30 731 H 68.7086 1.29417 -3.95252 0
M  V30 732 H 67.2856 2.60238 -2.67078 0
M  V30 733 N 69.4707 1.49531 0.497807 0
M  V30 734 C 70.7477 1.49682 1.25915 0
M  V30 735 C 71.1277 0.226339 2.09883 0
M  V30 736 O 70.4757 -0.791189 2.14365 0
M  V30 737 C 70.6857 2.77755 2.11313 0
M  V30 738 C 72.0337 3.27371 2.70395 0
M  V30 739 O 73.0577 2.78894 2.21578 0
M  V30 740 O 71.9167 4.11808 3.59272 0
M  V30 741 H 69.0107 0.599228 0.56996 0
M  V30 742 H 71.5567 1.61798 0.511816 0
M  V30 743 H 70.3287 3.61713 1.49264 0
M  V30 744 H 69.9517 2.68515 2.93233 0
M  V30 745 N 70.9488 -0.749086 1.3866 0
M  V30 746 C 72.1958 -1.50833 1.35114 0
M  V30 747 C 72.5238 -1.94415 -0.0574049 0
M  V30 748 O 71.7788 -1.66065 -1.03541 0
M  V30 749 C 72.0778 -2.7712 2.25697 0
M  V30 750 C 71.7438 -2.52477 3.73585 0
M  V30 751 C 70.4058 -2.45466 4.13884 0
M  V30 752 C 72.7578 -2.31066 4.67181 0
M  V30 753 C 70.0858 -2.15064 5.45861 0
M  V30 754 C 72.4378 -2.02183 5.9942 0
M  V30 755 C 71.1018 -1.93631 6.38798 0
M  V30 756 H 70.3718 -0.551936 0.494416 0
M  V30 757 H 73.0188 -0.860979 1.71054 0
M  V30 758 H 71.3238 -3.46528 1.82827 0
M  V30 759 H 73.0208 -3.35096 2.20254 0
M  V30 760 H 69.6108 -2.58807 3.41638 0
M  V30 761 H 73.7948 -2.35459 4.3689 0
M  V30 762 H 69.0508 -2.06954 5.75308 0
M  V30 763 H 73.2248 -1.8462 6.71482 0
M  V30 764 H 70.8518 -1.69839 7.40985 0
M  V30 765 N 72.4269 -1.23603 -0.977757 0
M  V30 766 C 73.3899 -1.02069 -2.05218 0
M  V30 767 C 74.3899 0.0184305 -1.60789 0
M  V30 768 O 75.5799 -0.221569 -1.72785 0
M  V30 769 C 72.7119 -0.544926 -3.36517 0
M  V30 770 H 73.9049 -1.9742 -2.25755 0
M  V30 771 H 71.4579 -1.05684 -1.15155 0
M  V30 772 H 72.1929 0.412241 -3.21669 0
M  V30 773 H 71.9779 -1.2948 -3.70105 0
M  V30 774 H 73.4679 -0.414985 -4.15533 0
M  V30 775 N 73.905 1.17692 -1.04816 0
M  V30 776 C 74.852 2.21581 -0.645797 0
M  V30 777 C 75.822 1.62367 0.350159 0
M  V30 778 O 77.007 1.89254 0.242433 0
M  V30 779 C 74.147 3.45092 -0.0227568 0
M  V30 780 C 73.26 4.18613 -1.06709 0
M  V30 781 C 72.395 5.29602 -0.411767 0
M  V30 782 C 71.434 5.94904 -1.44067 0
M  V30 783 N 70.571 6.97414 -0.809781 0
M  V30 784 H 75.411 2.55353 -1.5362 0
M  V30 785 H 72.948 1.25438 -0.768364 0
M  V30 786 H 74.906 4.15679 0.35588 0
M  V30 787 H 73.536 3.11917 0.831122 0
M  V30 788 H 72.588 3.46779 -1.5636 0
M  V30 789 H 73.9 4.63293 -1.84827 0
M  V30 790 H 73.054 6.06696 0.0206623 0
M  V30 791 H 71.793 4.86045 0.401438 0
M  V30 792 H 70.798 5.16544 -1.88316 0
M  V30 793 H 72.023 6.40542 -2.25571 0
M  V30 794 H 69.969 6.55998 -0.0170186 0
M  V30 795 H 69.886 7.40386 -1.52856 0
M  V30 796 H 71.154 7.78463 -0.401999 0
M  V30 797 N 75.3831 0.828654 1.34056 0
M  V30 798 C 76.6321 0.415828 1.97367 0
M  V30 799 C 76.9451 -1.02796 1.6641 0
M  V30 800 O 78.1511 -1.54497 2.23255 0
M  V30 801 C 76.6071 0.692601 3.53173 0
M  V30 802 C 76.2151 2.15038 3.93017 0
M  V30 803 C 77.9591 0.346222 4.23086 0
M  V30 804 C 75.8661 2.37174 5.41758 0
M  V30 805 H 74.7961 0.151755 0.738571 0
M  V30 806 H 77.4471 1.01581 1.52819 0
M  V30 807 H 75.8291 0.0223764 3.95994 0
M  V30 808 H 77.0031 2.86024 3.61285 0
M  V30 809 H 75.3181 2.45875 3.36057 0
M  V30 810 H 77.9151 0.48937 5.32456 0
M  V30 811 H 78.2581 -0.709842 4.10204 0
M  V30 812 H 78.7911 0.971258 3.85761 0
M  V30 813 H 75.5301 3.41308 5.59633 0
M  V30 814 H 75.0501 1.70738 5.74986 0
M  V30 815 H 76.7291 2.19818 6.08514 0
M  V30 816 N 76.8612 -1.46375 0.584142 0
M  V30 817 C 78.1102 -2.01585 0.0679741 0
M  V30 818 C 78.4232 -1.46109 -1.30045 0
M  V30 819 O 79.6292 -1.93148 -1.90804 0
M  V30 820 C 78.0852 -3.5983 0.0709207 0
M  V30 821 C 77.6932 -4.24303 1.43775 0
M  V30 822 C 79.4372 -4.22693 -0.391228 0
M  V30 823 C 77.3442 -5.74631 1.39834 0
M  V30 824 H 76.2742 -0.753689 0.0216421 0
M  V30 825 H 78.9252 -1.68093 0.736001 0
M  V30 826 H 77.3072 -3.90405 -0.663299 0
M  V30 827 H 78.4812 -4.05335 2.19181 0
M  V30 828 H 76.7962 -3.73539 1.84004 0
M  V30 829 H 79.3932 -5.3289 -0.439524 0
M  V30 830 H 79.7362 -3.91728 -1.40906 0
M  V30 831 H 80.2692 -3.96749 0.288974 0
M  V30 832 H 77.0082 -6.10258 2.39303 0
M  V30 833 H 76.5282 -5.95858 0.686505 0
M  V30 834 H 78.2072 -6.37375 1.11187 0
M  V30 835 N 78.3393 -0.321999 -1.54275 0
M  V30 836 C 79.2873 0.560206 -2.25753 0
M  V30 837 C 80.2813 1.11984 -1.27106 0
M  V30 838 O 81.4873 1.06806 -1.44888 0
M  V30 839 H 77.8623 0.199304 -0.725108 0
M  V30 840 H 79.8333 -0.0649365 -2.98329 0
M  V30 841 C 78.5823 1.71023 -3.02731 0
M  V30 842 H 77.9053 1.28885 -3.78456 0
M  V30 843 H 79.3453 2.30314 -3.55993 0
M  V30 844 C 77.8043 2.62692 -2.10938 0
M  V30 845 O 78.3343 3.64364 -1.6912 0
M  V30 846 N 76.5403 2.30891 -1.76459 0
M  V30 847 H 76.0873 1.48253 -2.10663 0
M  V30 848 H 76.0453 2.92487 -1.1532 0
M  V30 849 N 79.8174 1.5752 -0.0501392 0
M  V30 850 C 80.7654 2.12651 0.942459 0
M  V30 851 C 81.7594 1.05807 1.32292 0
M  V30 852 O 82.9654 1.24217 1.3027 0
M  V30 853 H 79.3404 0.679673 0.321789 0
M  V30 854 H 81.3114 2.94951 0.452356 0
M  V30 855 C 80.0604 2.68565 2.20836 0
M  V30 856 H 79.3834 3.50439 1.92439 0
M  V30 857 H 80.8234 3.10761 2.8845 0
M  V30 858 C 79.2824 1.62291 2.95234 0
M  V30 859 O 79.8124 1.03508 3.88135 0
M  V30 860 N 78.0184 1.33836 2.57946 0
M  V30 861 H 77.5654 1.81826 1.82475 0
M  V30 862 H 77.5234 0.629595 3.08032 0
M  V30 863 N 81.2955 -0.223234 1.56011 0
M  V30 864 C 82.5235 -0.964812 1.83027 0
M  V30 865 C 82.9385 -1.78013 0.62904 0
M  V30 866 O 82.2955 -1.78008 -0.402414 0
M  V30 867 C 82.3465 -1.88373 3.08542 0
M  V30 868 O 82.0675 -1.10137 4.2403 0
M  V30 869 C 83.5685 -2.73934 3.48533 0
M  V30 870 H 80.7885 -0.282842 0.608475 0
M  V30 871 H 83.3325 -0.238971 2.03099 0
M  V30 872 H 81.4875 -2.56354 2.9045 0
M  V30 873 H 81.9015 -1.72501 4.95322 0
M  V30 874 H 83.3755 -3.34117 4.39397 0
M  V30 875 H 83.8525 -3.46244 2.70207 0
M  V30 876 H 84.4585 -2.11369 3.69057 0
M  V30 877 N 82.7736 -1.49793 -0.48987 0
M  V30 878 C 83.6836 -1.70036 -1.61632 0
M  V30 879 C 84.6996 -0.583102 -1.63939 0
M  V30 880 O 85.8756 -0.859169 -1.82154 0
M  V30 881 C 82.9406 -1.77277 -2.97949 0
M  V30 882 C 82.0016 -3.00918 -3.06181 0
M  V30 883 C 81.2346 -3.07804 -4.35996 0
M  V30 884 O 81.4576 -2.21982 -5.25433 0
M  V30 885 O 80.3916 -4.00369 -4.49431 0
M  V30 886 H 84.2176 -2.65486 -1.47482 0
M  V30 887 H 81.8026 -1.33666 -0.667362 0
M  V30 888 H 83.6846 -1.84329 -3.78947 0
M  V30 889 H 82.3596 -0.850076 -3.12339 0
M  V30 890 H 81.2666 -2.99377 -2.2433 0
M  V30 891 H 82.5996 -3.92704 -2.96723 0
M  V30 892 N 84.2517 0.741722 -1.39055 0
M  V30 893 C 85.1997 1.87702 -1.3737 0
M  V30 894 C 86.1937 1.67427 -0.257812 0
M  V30 895 O 87.3997 1.7485 -0.427489 0
M  V30 896 H 83.7747 0.617757 -0.428812 0
M  V30 897 H 85.7457 1.86239 -2.33147 0
M  V30 898 C 84.4947 3.25315 -1.22741 0
M  V30 899 H 83.8177 3.41509 -2.07873 0
M  V30 900 H 85.2577 4.04964 -1.25618 0
M  V30 901 C 83.7167 3.36838 0.0647316 0
M  V30 902 O 84.2467 3.88073 1.03741 0
M  V30 903 N 82.4527 2.90329 0.125544 0
M  V30 904 H 81.9997 2.48823 -0.666682 0
M  V30 905 H 81.9577 2.98418 0.989639 0
M  V30 906 N 85.7298 1.2412 0.971189 0
M  V30 907 C 86.6598 1.05508 2.08304 0
M  V30 908 C 87.6408 -0.0308864 1.70072 0
M  V30 909 O 88.8258 0.135521 1.93727 0
M  V30 910 C 85.9558 0.655365 3.4106 0
M  V30 911 C 84.9098 1.68971 3.93234 0
M  V30 912 C 84.2358 1.14516 5.22293 0
M  V30 913 C 85.5358 3.08487 4.21465 0
M  V30 914 H 87.2298 1.98507 2.24132 0
M  V30 915 H 84.7758 0.955821 1.07704 0
M  V30 916 H 86.7288 0.51217 4.18276 0
M  V30 917 H 85.4528 -0.31032 3.25122 0
M  V30 918 H 84.1118 1.82106 3.18171 0
M  V30 919 H 83.7598 0.170189 5.02712 0
M  V30 920 H 83.4598 1.83635 5.58168 0
M  V30 921 H 84.9838 1.01401 6.02121 0
M  V30 922 H 86.3978 2.98601 4.89398 0
M  V30 923 H 84.7948 3.74926 4.68562 0
M  V30 924 H 85.8648 3.56787 3.28376 0
M  V30 925 N 87.2079 -1.17134 1.05439 0
M  V30 926 C 88.4539 -1.87733 0.767077 0
M  V30 927 C 88.7869 -1.8098 -0.704253 0
M  V30 928 O 88.0619 -1.21951 -1.5152 0
M  V30 929 C 88.3449 -3.37659 1.25133 0
M  V30 930 C 88.1979 -3.53149 2.78578 0
M  V30 931 C 89.5169 -4.31768 0.852324 0
M  V30 932 H 86.6359 -0.681687 0.280129 0
M  V30 933 H 89.2779 -1.37732 1.30881 0
M  V30 934 H 87.4279 -3.80373 0.790469 0
M  V30 935 H 89.0999 -3.19434 3.32806 0
M  V30 936 H 87.3429 -2.95345 3.17732 0
M  V30 937 H 88.0139 -4.58403 3.07523 0
M  V30 938 H 90.4899 -3.96909 1.24911 0
M  V30 939 H 89.3659 -5.35199 1.21873 0
M  V30 940 H 89.6269 -4.41429 -0.243485 0
M  V30 941 N 88.686 -0.835752 -1.33615 0
M  V30 942 C 90.102 -0.523139 -1.50783 0
M  V30 943 C 90.302 0.950171 -1.77691 0
M  V30 944 O 89.358 1.73411 -1.83534 0
M  V30 945 C 90.671 -1.39378 -2.66448 0
M  V30 946 C 92.219 -1.39223 -2.80332 0
M  V30 947 C 92.694 -2.24765 -3.99055 0
M  V30 948 N 94.185 -2.22458 -4.06284 0
M  V30 949 C 94.92 -2.85386 -4.97336 0
M  V30 950 N 94.416 -3.57354 -5.93523 0
M  V30 951 N 96.209 -2.74872 -4.90308 0
M  V30 952 H 88.36 -1.78952 -1.14411 0
M  V30 953 H 90.623 -0.763297 -0.562212 0
M  V30 954 H 90.329 -2.44061 -2.53234 0
M  V30 955 H 90.203 -1.0676 -3.61776 0
M  V30 956 H 92.59 -0.353136 -2.92979 0
M  V30 957 H 92.671 -1.75846 -1.85773 0
M  V30 958 H 92.315 -3.28732 -3.87167 0
M  V30 959 H 92.245 -1.85485 -4.92852 0
M  V30 960 H 94.736 -1.70119 -3.37443 0
M  V30 961 H 95.049 -4.02584 -6.59656 0
M  V30 962 H 93.394 -3.61461 -5.93608 0
M  V30 963 H 96.585 -2.18213 -4.14126 0
M  V30 964 H 96.758 -3.24199 -5.61069 0
M  V30 965 N 90.1641 1.46063 -0.591896 0
M  V30 966 C 91.0741 2.34192 0.13831 0
M  V30 967 C 92.0901 1.50305 0.876608 0
M  V30 968 O 93.2661 1.8315 0.837728 0
M  V30 969 C 90.3311 3.27656 1.13326 0
M  V30 970 C 89.3921 4.27445 0.39863 0
M  V30 971 C 88.6251 5.16443 1.34618 0
M  V30 972 O 88.8481 5.08553 2.58321 0
M  V30 973 O 87.7821 5.95843 0.851768 0
M  V30 974 H 91.6081 2.98002 -0.58552 0
M  V30 975 H 89.1931 1.45188 -0.352239 0
M  V30 976 H 91.0751 3.85291 1.70671 0
M  V30 977 H 89.7501 2.6643 1.83839 0
M  V30 978 H 88.6571 3.73471 -0.216895 0
M  V30 979 H 89.9901 4.91482 -0.265709 0
M  V30 980 N 91.6422 0.330177 1.54103 0
M  V30 981 C 92.5722 -0.525353 2.27513 0
M  V30 982 C 93.5532 -1.11383 1.2856 0
M  V30 983 O 94.7382 -1.13773 1.57383 0
M  V30 984 C 91.8682 -1.6831 3.03791 0
M  V30 985 C 90.8222 -1.2236 4.10137 0
M  V30 986 C 90.1482 -2.46882 4.74293 0
M  V30 987 C 91.4482 -0.333697 5.21233 0
M  V30 988 H 93.1422 0.087013 2.99274 0
M  V30 989 H 90.6882 0.0432893 1.43935 0
M  V30 990 H 92.6412 -2.28795 3.5388 0
M  V30 991 H 91.3652 -2.32216 2.29659 0
M  V30 992 H 90.0242 -0.64165 3.60941 0
M  V30 993 H 89.6722 -3.09165 3.96769 0
M  V30 994 H 89.3722 -2.16825 5.46133 0
M  V30 995 H 90.8962 -3.08117 5.27159 0
M  V30 996 H 92.3102 -0.845013 5.67038 0
M  V30 997 H 90.7072 -0.125612 5.99969 0
M  V30 998 H 91.7772 0.633724 4.80741 0
M  V30 999 N 93.1203 -1.57491 0.0584922 0
M  V30 1000 C 94.0503 -2.14988 -0.911178 0
M  V30 1001 C 95.0313 -1.07343 -1.31952 0
M  V30 1002 O 96.2163 -1.35318 -1.39294 0
M  V30 1003 C 93.3463 -2.70078 -2.18347 0
M  V30 1004 C 92.3003 -3.82771 -1.91495 0
M  V30 1005 C 91.6263 -4.24408 -3.25241 0
M  V30 1006 C 92.9263 -5.07592 -1.23075 0
M  V30 1007 H 94.6203 -2.96263 -0.432246 0
M  V30 1008 H 92.1663 -1.42512 -0.206469 0
M  V30 1009 H 94.1193 -3.08943 -2.86587 0
M  V30 1010 H 92.8433 -1.86005 -2.68458 0
M  V30 1011 H 91.5023 -3.44389 -1.25664 0
M  V30 1012 H 91.1503 -3.37275 -3.73168 0
M  V30 1013 H 90.8503 -5.00366 -3.08071 0
M  V30 1014 H 92.3743 -4.65879 -3.94701 0
M  V30 1015 H 93.7883 -5.43857 -1.81362 0
M  V30 1016 H 92.1853 -5.88741 -1.16207 0
M  V30 1017 H 93.2553 -4.84454 -0.207847 0
M  V30 1018 N 94.5984 0.214957 -1.56127 0
M  V30 1019 C 95.5614 1.24997 -1.92116 0
M  V30 1020 C 96.5614 1.39467 -0.800344 0
M  V30 1021 O 97.7514 1.37619 -1.06802 0
M  V30 1022 C 94.8834 2.62271 -2.17777 0
M  V30 1023 H 96.0764 0.942875 -2.84693 0
M  V30 1024 H 93.6294 0.455654 -1.49511 0
M  V30 1025 H 94.3644 2.98068 -1.27773 0
M  V30 1026 H 94.1494 2.53143 -2.99434 0
M  V30 1027 H 95.6394 3.36946 -2.46693 0
M  V30 1028 N 96.0765 1.50051 0.48192 0
M  V30 1029 C 97.3225 1.60736 1.2366 0
M  V30 1030 C 97.6555 0.301786 1.91841 0
M  V30 1031 O 96.9305 -0.696025 1.8162 0
M  V30 1032 C 97.2135 2.78009 2.28874 0
M  V30 1033 C 97.0665 4.18416 1.65069 0
M  V30 1034 C 98.3855 2.90867 3.30279 0
M  V30 1035 H 95.5045 0.585031 0.448228 0
M  V30 1036 H 98.1465 1.82402 0.531946 0
M  V30 1037 H 96.2965 2.59667 2.88973 0
M  V30 1038 H 97.9685 4.48322 1.0865 0
M  V30 1039 H 96.2115 4.23177 0.954148 0
M  V30 1040 H 96.8825 4.96381 2.41474 0
M  V30 1041 H 99.3585 3.07623 2.80191 0
M  V30 1042 H 98.2345 3.74566 4.01238 0
M  V30 1043 H 98.4955 2.01021 3.93755 0
M  V30 1044 N 97.5546 -0.734337 1.39446 0
M  V30 1045 C 98.9656 -1.31264 1.32766 0
M  V30 1046 C 99.3166 -1.96198 -0.00767497 0
M  V30 1047 O 98.4416 -1.96346 -0.909796 0
M  V30 1048 C 99.0366 -2.38682 2.4045 0
M  V30 1049 C 97.5956 -2.92184 2.37288 0
M  V30 1050 C 96.7426 -1.6576 2.22304 0
M  V30 1051 H 99.6936 -0.531799 1.49525 0
M  V30 1052 H 99.7146 -3.19087 2.07276 0
M  V30 1053 H 99.2266 -1.91392 3.37625 0
M  V30 1054 H 97.3276 -3.43752 1.43754 0
M  V30 1055 H 97.4406 -3.45253 3.3217 0
M  V30 1056 H 95.8046 -1.9012 1.69489 0
M  V30 1057 H 96.5876 -1.20521 3.21449 0
M  V30 1058 N 99.0327 -1.24633 -0.964593 0
M  V30 1059 C 100.31 -0.995809 -1.68354 0
M  V30 1060 C 100.69 0.480964 -2.05548 0
M  V30 1061 O 100.038 1.45599 -1.76105 0
M  V30 1062 C 100.248 -1.92177 -2.91323 0
M  V30 1063 C 101.596 -2.19446 -3.63495 0
M  V30 1064 O 102.62 -1.89855 -3.01386 0
M  V30 1065 O 101.479 -2.69714 -4.75307 0
M  V30 1066 H 98.5727 -0.376854 -0.736146 0
M  V30 1067 H 101.119 -1.35745 -1.0184 0
M  V30 1068 H 99.8907 -2.91938 -2.60553 0
M  V30 1069 H 99.5137 -1.56349 -3.65569 0
M  V30 1070 N 100.511 1.16574 -1.06058 0
M  V30 1071 C 101.459 2.22941 -0.663343 0
M  V30 1072 C 102.453 1.66358 0.319593 0
M  V30 1073 O 103.659 1.7905 0.184713 0
M  V30 1074 H 100.034 0.725907 -0.196376 0
M  V30 1075 H 102.005 2.53736 -1.57037 0
M  V30 1076 C 100.754 3.47642 -0.0632808 0
M  V30 1077 H 100.077 3.91493 -0.810733 0
M  V30 1078 H 101.517 4.2363 0.177177 0
M  V30 1079 C 99.9758 3.1509 1.19248 0
M  V30 1080 O 100.506 3.30673 2.28075 0
M  V30 1081 N 98.7118 2.6924 1.09353 0
M  V30 1082 H 98.2588 2.5676 0.207912 0
M  V30 1083 H 98.2168 2.47833 1.93458 0
M  V30 1084 N 101.989 0.842826 1.3317 0
M  V30 1085 C 103.219 0.453397 2.01564 0
M  V30 1086 C 103.627 -0.951147 1.63554 0
M  V30 1087 O 102.97 -1.63021 0.846746 0
M  V30 1088 C 103.032 0.499013 3.5602 0
M  V30 1089 C 102.696 1.86037 4.1742 0
M  V30 1090 C 103.693 2.82416 4.36506 0
M  V30 1091 C 101.378 2.15428 4.53757 0
M  V30 1092 C 103.372 4.06346 4.91082 0
M  V30 1093 C 101.059 3.39615 5.0804 0
M  V30 1094 C 102.057 4.3489 5.26649 0
M  V30 1095 O 101.745 5.5688 5.79776 0
M  V30 1096 H 101.477 0.177871 0.652179 0
M  V30 1097 H 104.031 1.13808 1.70988 0
M  V30 1098 H 102.261 -0.242467 3.85939 0
M  V30 1099 H 103.95 0.126852 4.05702 0
M  V30 1100 H 104.716 2.6101 4.08777 0
M  V30 1101 H 100.595 1.42061 4.38565 0
M  V30 1102 H 104.139 4.80722 5.05522 0
M  V30 1103 H 100.036 3.60876 5.352 0
M  V30 1104 H 100.804 5.58674 5.98185 0
M  V30 1105 N 103.467 -1.45747 0.599634 0
M  V30 1106 C 104.414 -2.30467 -0.123849 0
M  V30 1107 C 105.384 -1.41632 -0.86774 0
M  V30 1108 O 106.569 -1.70568 -0.855056 0
M  V30 1109 C 103.709 -3.26402 -1.12051 0
M  V30 1110 C 102.822 -4.3034 -0.37832 0
M  V30 1111 C 101.957 -5.13389 -1.364 0
M  V30 1112 C 100.996 -6.09061 -0.609171 0
M  V30 1113 N 100.133 -6.84918 -1.54374 0
M  V30 1114 H 104.973 -2.91802 0.604627 0
M  V30 1115 H 102.51 -1.43797 0.309972 0
M  V30 1116 H 104.468 -3.80482 -1.7114 0
M  V30 1117 H 103.098 -2.66839 -1.8165 0
M  V30 1118 H 102.15 -3.78984 0.327929 0
M  V30 1119 H 103.462 -4.98354 0.210997 0
M  V30 1120 H 102.616 -5.7183 -2.02719 0
M  V30 1121 H 101.355 -4.45376 -1.98725 0
M  V30 1122 H 100.36 -5.49758 0.0676979 0
M  V30 1123 H 101.585 -6.79099 0.00891991 0
M  V30 1124 H 99.531 -6.19601 -2.15478 0
M  V30 1125 H 99.448 -7.49254 -1.00766 0
M  V30 1126 H 100.716 -7.47906 -2.19676 0
M  V30 1127 N 104.945 -0.338344 -1.53925 0
M  V30 1128 C 106.191 0.260143 -2.01125 0
M  V30 1129 C 106.524 1.50617 -1.22589 0
M  V30 1130 O 105.799 1.91979 -0.312113 0
M  V30 1131 C 106.082 0.579499 -3.55407 0
M  V30 1132 C 105.935 -0.678264 -4.44657 0
M  V30 1133 C 107.254 1.39122 -4.17532 0
M  V30 1134 H 104.373 0.0930772 -0.731099 0
M  V30 1135 H 107.015 -0.457852 -1.84401 0
M  V30 1136 H 105.165 1.19118 -3.69788 0
M  V30 1137 H 106.837 -1.31631 -4.42121 0
M  V30 1138 H 105.08 -1.3042 -4.13731 0
M  V30 1139 H 105.751 -0.410143 -5.50474 0
M  V30 1140 H 108.227 0.874035 -4.06817 0
M  V30 1141 H 107.103 1.58342 -5.25565 0
M  V30 1142 H 107.364 2.39178 -3.71815 0
M  V30 1143 N 106.423 1.57458 -0.0668435 0
M  V30 1144 C 107.672 1.92477 0.602947 0
M  V30 1145 C 107.985 0.948419 1.71068 0
M  V30 1146 O 109.191 1.19124 2.43971 0
M  V30 1147 C 107.647 3.41903 1.12383 0
M  V30 1148 C 107.255 4.47975 0.04737 0
M  V30 1149 C 108.999 3.85931 1.76797 0
M  V30 1150 C 106.906 5.88529 0.582022 0
M  V30 1151 H 105.836 0.718387 0.22899 0
M  V30 1152 H 108.487 1.82978 -0.138276 0
M  V30 1153 H 106.869 3.46459 1.91787 0
M  V30 1154 H 108.043 4.55029 -0.726978 0
M  V30 1155 H 106.358 4.13384 -0.500243 0
M  V30 1156 H 108.955 4.88322 2.17821 0
M  V30 1157 H 109.298 3.23029 2.62599 0
M  V30 1158 H 109.831 3.83958 1.04024 0
M  V30 1159 H 106.57 6.55065 -0.238721 0
M  V30 1160 H 106.09 5.85004 1.324 0
M  V30 1161 H 107.769 6.38258 1.05999 0
M  V30 1162 N 107.901 -0.206675 1.56239 0
M  V30 1163 C 109.148 -0.928842 1.79941 0
M  V30 1164 C 109.476 -1.83734 0.638131 0
M  V30 1165 O 108.731 -1.92039 -0.376746 0
M  V30 1166 C 109.03 -1.78675 3.09532 0
M  V30 1167 C 108.696 -1.03022 4.38973 0
M  V30 1168 C 107.358 -0.821302 4.74139 0
M  V30 1169 C 109.71 -0.497081 5.18824 0
M  V30 1170 C 107.038 -0.0675719 5.86661 0
M  V30 1171 C 109.39 0.24338 6.32132 0
M  V30 1172 C 108.054 0.463422 6.65889 0
M  V30 1173 H 107.324 -0.339887 0.658451 0
M  V30 1174 H 109.971 -0.195977 1.90495 0
M  V30 1175 H 108.276 -2.58794 2.94165 0
M  V30 1176 H 109.973 -2.34792 3.25075 0
M  V30 1177 H 106.563 -1.20306 4.11369 0
M  V30 1178 H 110.747 -0.645921 4.92079 0
M  V30 1179 H 106.003 0.112995 6.11296 0
M  V30 1180 H 110.177 0.66393 6.93228 0
M  V30 1181 H 107.804 1.04938 7.52922 0
M  V30 1182 N 109.379 -1.50304 -0.473955 0
M  V30 1183 C 110.309 -1.71886 -1.58042 0
M  V30 1184 C 111.29 -0.567799 -1.60344 0
M  V30 1185 O 112.475 -0.806623 -1.76656 0
M  V30 1186 C 109.605 -1.81036 -2.96384 0
M  V30 1187 C 108.559 -2.962 -3.08949 0
M  V30 1188 C 107.885 -2.9049 -4.48909 0
M  V30 1189 C 109.185 -4.36752 -2.86434 0
M  V30 1190 H 110.879 -2.64527 -1.40234 0
M  V30 1191 H 108.425 -1.27295 -0.673201 0
M  V30 1192 H 110.378 -1.94719 -3.73714 0
M  V30 1193 H 109.102 -0.850147 -3.15341 0
M  V30 1194 H 107.761 -2.82164 -2.3405 0
M  V30 1195 H 107.409 -1.92321 -4.64781 0
M  V30 1196 H 107.109 -3.67802 -4.58253 0
M  V30 1197 H 108.633 -3.06218 -5.28264 0
M  V30 1198 H 110.047 -4.5133 -3.53517 0
M  V30 1199 H 108.444 -5.15493 -3.07225 0
M  V30 1200 H 109.514 -4.49321 -1.82316 0
M  V30 1201 N 110.857 0.726932 -1.39834 0
M  V30 1202 C 111.789 1.85147 -1.35104 0
M  V30 1203 C 112.802 1.60736 -0.258392 0
M  V30 1204 O 113.991 1.70821 -0.517931 0
M  V30 1205 C 111.091 3.21332 -1.07697 0
M  V30 1206 C 110.264 3.73033 -2.28396 0
M  V30 1207 C 109.323 4.87802 -1.97322 0
M  V30 1208 O 108.349 5.01043 -2.70083 0
M  V30 1209 N 109.551 5.72768 -0.944273 0
M  V30 1210 H 112.316 1.89706 -2.32017 0
M  V30 1211 H 109.877 0.908006 -1.3404 0
M  V30 1212 H 111.869 3.95691 -0.849144 0
M  V30 1213 H 110.439 3.11992 -0.194909 0
M  V30 1214 H 109.659 2.89934 -2.6708 0
M  V30 1215 H 110.947 4.0431 -3.08887 0
M  V30 1216 H 110.345 5.64669 -0.341427 0
M  V30 1217 H 108.902 6.4716 -0.776346 0
M  V30 1218 N 112.336 1.25143 0.95797 0
M  V30 1219 C 113.584 1.09476 1.69881 0
M  V30 1220 C 113.905 -0.365502 1.91544 0
M  V30 1221 O 113.175 -1.25985 1.50015 0
M  V30 1222 H 111.755 0.402128 0.629525 0
M  V30 1223 H 114.417 1.57214 1.15194 0
M  V30 1224 H 113.513 1.60046 2.6794 0
M  V30 1225 N 113.814 -1.1601 1.06675 0
M  V30 1226 C 115.062 -1.86264 0.784229 0
M  V30 1227 C 115.383 -1.82328 -0.691488 0
M  V30 1228 O 114.653 -1.25947 -1.50047 0
M  V30 1229 H 113.233 -0.689621 0.28711 0
M  V30 1230 H 115.895 -1.40664 1.34906 0
M  V30 1231 H 114.991 -2.91595 1.11259 0
M  V30 1232 N 115.292 -0.849877 -1.32721 0
M  V30 1233 C 116.54 -0.450032 -1.97026 0
M  V30 1234 C 116.861 0.996604 -1.67609 0
M  V30 1235 O 116.131 1.6958 -0.980786 0
M  V30 1236 H 114.711 -0.163426 -0.728904 0
M  V30 1237 H 117.373 -1.08526 -1.6189 0
M  V30 1238 H 116.469 -0.591146 -3.0645 0
M  V30 1239 N 116.77 1.45427 -0.607355 0
M  V30 1240 C 118.01 2.04128 -0.105458 0
M  V30 1241 C 118.374 1.46555 1.24039 0
M  V30 1242 O 119.575 1.96608 1.833 0
M  V30 1243 C 117.846 3.57338 -0.0665324 0
M  V30 1244 S 119.405 4.37201 0.374207 0
M  V30 1245 H 116.223 0.709278 -0.0494575 0
M  V30 1246 H 118.825 1.78139 -0.805404 0
M  V30 1247 H 117.529 3.96752 -1.04957 0
M  V30 1248 H 117.06 3.87902 0.655415 0
M  V30 1249 H 119.075 4.6888 1.62377 0
M  V30 1250 N 118.248 0.346503 1.53744 0
M  V30 1251 C 119.496 -0.248612 2.00565 0
M  V30 1252 C 119.817 -1.5083 1.23593 0
M  V30 1253 O 119.087 -1.92858 0.343912 0
M  V30 1254 H 117.667 -0.0948564 0.740953 0
M  V30 1255 H 120.329 0.468341 1.89189 0
M  V30 1256 H 119.425 -0.488994 3.08245 0
M  V30 1257 N 119.726 -1.57421 0.075193 0
M  V30 1258 C 120.658 -2.09904 -0.920483 0
M  V30 1259 C 121.671 -1.03191 -1.25918 0
M  V30 1260 O 122.86 -1.30695 -1.21577 0
M  V30 1261 C 119.96 -2.54726 -2.23534 0
M  V30 1262 C 119.133 -3.8505 -2.07498 0
M  V30 1263 C 118.192 -4.15929 -3.22319 0
M  V30 1264 O 117.218 -4.85474 -2.9716 0
M  V30 1265 N 118.42 -3.69745 -4.47514 0
M  V30 1266 H 121.185 -2.95954 -0.472359 0
M  V30 1267 H 118.746 -1.61523 -0.110444 0
M  V30 1268 H 120.738 -2.72443 -2.9926 0
M  V30 1269 H 119.308 -1.73795 -2.59835 0
M  V30 1270 H 118.528 -3.76679 -1.16219 0
M  V30 1271 H 119.816 -4.70348 -1.94038 0
M  V30 1272 H 119.214 -3.13569 -4.7084 0
M  V30 1273 H 117.771 -3.92655 -5.20255 0
M  V30 1274 N 121.204 0.198386 -1.56346 0
M  V30 1275 C 122.451 0.919286 -1.80431 0
M  V30 1276 C 122.779 1.83393 -0.647866 0
M  V30 1277 O 122.034 1.92236 0.366556 0
M  V30 1278 C 122.333 1.77031 -3.10475 0
M  V30 1279 C 121.999 1.00693 -4.39513 0
M  V30 1280 C 120.661 0.796145 -4.74568 0
M  V30 1281 C 123.013 0.469559 -5.19081 0
M  V30 1282 C 120.341 0.0364588 -5.86689 0
M  V30 1283 C 122.693 -0.2769 -6.31994 0
M  V30 1284 C 121.357 -0.49873 -6.65634 0
M  V30 1285 H 120.627 0.336391 -0.660244 0
M  V30 1286 H 123.274 0.185872 -1.90596 0
M  V30 1287 H 121.579 2.5723 -2.95533 0
M  V30 1288 H 123.276 2.33065 -3.26315 0
M  V30 1289 H 119.866 1.18122 -4.12001 0
M  V30 1290 H 124.05 0.619816 -4.92414 0
M  V30 1291 H 119.306 -0.145412 -6.11227 0
M  V30 1292 H 123.48 -0.700684 -6.92866 0
M  V30 1293 H 121.107 -1.0893 -7.52355 0
M  V30 1294 N 122.682 1.50554 0.465978 0
M  V30 1295 C 123.907 1.65838 1.24549 0
M  V30 1296 C 124.332 0.343486 1.84937 0
M  V30 1297 O 123.69 -0.69324 1.67523 0
M  V30 1298 C 123.738 2.75533 2.32624 0
M  V30 1299 O 122.842 2.37142 3.37398 0
M  V30 1300 H 122.183 0.553893 0.366194 0
M  V30 1301 H 124.713 1.96959 0.553927 0
M  V30 1302 H 124.723 2.98763 2.77857 0
M  V30 1303 H 123.398 3.70962 1.88043 0
M  V30 1304 H 121.975 2.24377 2.97841 0
M  V30 1305 N 124.16 -0.719506 1.40217 0
M  V30 1306 C 125.123 -1.8153 1.39927 0
M  V30 1307 C 126.123 -1.58095 0.293723 0
M  V30 1308 O 127.313 -1.65209 0.552429 0
M  V30 1309 C 124.445 -3.19561 1.18716 0
M  V30 1310 H 125.638 -1.83186 2.37451 0
M  V30 1311 H 123.191 -0.924746 1.26008 0
M  V30 1312 H 123.926 -3.23557 0.219366 0
M  V30 1313 H 123.711 -3.3797 1.98793 0
M  V30 1314 H 125.201 -3.99598 1.21291 0
M  V30 1315 N 125.638 -1.25649 -0.95132 0
M  V30 1316 C 126.884 -1.10757 -1.69884 0
M  V30 1317 C 127.217 0.350061 -1.91019 0
M  V30 1318 O 126.492 1.25783 -1.48354 0
M  V30 1319 C 126.775 -1.86606 -3.07978 0
M  V30 1320 C 126.628 -3.40217 -2.94232 0
M  V30 1321 C 127.947 -1.65182 -4.07925 0
M  V30 1322 H 125.066 -0.40374 -0.616574 0
M  V30 1323 H 127.708 -1.54521 -1.10558 0
M  V30 1324 H 125.858 -1.49409 -3.58621 0
M  V30 1325 H 127.53 -3.87108 -2.50889 0
M  V30 1326 H 125.773 -3.67759 -2.30078 0
M  V30 1327 H 126.444 -3.88505 -3.92133 0
M  V30 1328 H 128.92 -1.9757 -3.66204 0
M  V30 1329 H 127.796 -2.20683 -5.02583 0
M  V30 1330 H 128.057 -0.593933 -4.38092 0
M  V30 1331 N 127.117 1.15442 -1.07289 0
M  V30 1332 C 128.528 1.67803 -0.818475 0
M  V30 1333 C 128.879 1.8489 0.656507 0
M  V30 1334 O 128.004 1.55176 1.50829 0
M  V30 1335 C 128.599 3.04805 -1.47917 0
M  V30 1336 C 127.158 3.54245 -1.27229 0
M  V30 1337 C 126.305 2.29986 -1.54925 0
M  V30 1338 H 129.256 0.996646 -1.23502 0
M  V30 1339 H 129.277 3.69702 -0.90005 0
M  V30 1340 H 128.789 2.92336 -2.55267 0
M  V30 1341 H 126.89 3.71956 -0.21899 0
M  V30 1342 H 127.003 4.35723 -1.99203 0
M  V30 1343 H 125.367 2.35496 -0.970242 0
M  V30 1344 H 126.15 2.20105 -2.63455 0
M  V30 1345 N 128.595 0.856903 1.32268 0
M  V30 1346 C 129.525 0.31858 2.31316 0
M  V30 1347 C 130.506 -0.583487 1.59779 0
M  V30 1348 O 131.691 -0.503259 1.87566 0
M  V30 1349 C 128.821 -0.491979 3.43798 0
M  V30 1350 C 127.775 0.315849 4.26833 0
M  V30 1351 C 127.101 -0.619586 5.31098 0
M  V30 1352 C 128.401 1.54282 4.98993 0
M  V30 1353 H 130.095 1.14621 2.76591 0
M  V30 1354 H 127.641 0.552613 1.32974 0
M  V30 1355 H 129.594 -0.879012 4.1213 0
M  V30 1356 H 128.318 -1.35299 2.97257 0
M  V30 1357 H 126.977 0.684664 3.6015 0
M  V30 1358 H 126.625 -1.47751 4.8081 0
M  V30 1359 H 126.325 -0.0830621 5.87541 0
M  V30 1360 H 127.849 -1.00375 6.02293 0
M  V30 1361 H 129.263 1.22796 5.59995 0
M  V30 1362 H 127.66 2.01745 5.65172 0
M  V30 1363 H 128.73 2.30285 4.26728 0
M  V30 1364 N 130.073 -1.45103 0.615059 0
M  V30 1365 C 131.021 -2.32331 -0.111791 0
M  V30 1366 C 132.015 -1.46409 -0.852102 0
M  V30 1367 O 133.221 -1.62849 -0.766821 0
M  V30 1368 H 129.596 -0.749993 -0.0549072 0
M  V30 1369 H 131.567 -2.91407 0.642225 0
M  V30 1370 C 130.316 -3.3015 -1.09071 0
M  V30 1371 H 129.639 -3.96265 -0.530485 0
M  V30 1372 H 131.079 -3.93898 -1.56908 0
M  V30 1373 C 129.538 -2.57875 -2.168 0
M  V30 1374 O 130.068 -2.36567 -3.24652 0
M  V30 1375 N 128.274 -2.17884 -1.92289 0
M  V30 1376 H 127.821 -2.35413 -1.04587 0
M  V30 1377 H 127.779 -1.6985 -2.64572 0
M  V30 1378 N 131.551 -0.354651 -1.53558 0
M  V30 1379 C 132.481 0.489091 -2.2832 0
M  V30 1380 C 133.462 1.09324 -1.30316 0
M  V30 1381 O 134.647 1.11255 -1.59173 0
M  V30 1382 C 131.777 1.63456 -3.0643 0
M  V30 1383 C 130.731 1.1582 -4.12031 0
M  V30 1384 C 130.057 2.39305 -4.7816 0
M  V30 1385 C 131.357 0.250731 -5.21698 0
M  V30 1386 H 133.051 -0.134614 -2.99097 0
M  V30 1387 H 130.597 -0.0661826 -1.43848 0
M  V30 1388 H 132.55 2.23136 -3.57475 0
M  V30 1389 H 131.274 2.28533 -2.33325 0
M  V30 1390 H 129.933 0.584146 -3.61916 0
M  V30 1391 H 129.581 3.02814 -4.01637 0
M  V30 1392 H 129.281 2.08109 -5.49513 0
M  V30 1393 H 130.805 2.99691 -5.31994 0
M  V30 1394 H 132.219 0.754695 -5.68311 0
M  V30 1395 H 130.616 0.0301468 -6.00092 0
M  V30 1396 H 131.686 -0.710125 -4.79672 0
M  V30 1397 N 133.029 1.57378 -0.0835403 0
M  V30 1398 C 134.278 1.93106 0.582498 0
M  V30 1399 C 134.591 0.96651 1.70053 0
M  V30 1400 O 135.797 1.21705 2.42693 0
M  V30 1401 C 134.253 3.43076 1.08751 0
M  V30 1402 C 133.861 4.48 -0.000146404 0
M  V30 1403 C 135.605 3.87785 1.72694 0
M  V30 1404 C 133.512 5.89113 0.519568 0
M  V30 1405 H 132.442 0.720775 0.221358 0
M  V30 1406 H 135.093 1.82821 -0.157675 0
M  V30 1407 H 133.475 3.48474 1.88101 0
M  V30 1408 H 134.649 4.54233 -0.775199 0
M  V30 1409 H 132.964 4.1283 -0.54406 0
M  V30 1410 H 135.561 4.90604 2.1263 0
M  V30 1411 H 135.904 3.25796 2.59158 0
M  V30 1412 H 136.437 3.8504 0.999457 0
M  V30 1413 H 133.176 6.54775 -0.308186 0
M  V30 1414 H 132.696 5.86376 1.26188 0
M  V30 1415 H 134.375 6.39346 0.992237 0
M  V30 1416 N 134.507 -0.190092 1.56449 0
M  V30 1417 C 135.755 -0.907908 1.80559 0
M  V30 1418 C 136.076 -1.83583 0.657438 0
M  V30 1419 O 135.346 -1.93203 -0.323924 0
M  V30 1420 H 133.926 -0.338247 0.666032 0
M  V30 1421 H 136.588 -0.194403 1.93928 0
M  V30 1422 H 135.684 -1.49604 2.73907 0
M  V30 1423 N 135.985 -1.50799 -0.457987 0
M  V30 1424 C 136.915 -1.73553 -1.5621 0
M  V30 1425 C 137.896 -0.584774 -1.59732 0
M  V30 1426 O 139.081 -0.825314 -1.7579 0
M  V30 1427 C 136.211 -1.84169 -2.94447 0
M  V30 1428 C 135.165 -2.99461 -3.0579 0
M  V30 1429 C 134.491 -2.95235 -4.45803 0
M  V30 1430 C 135.791 -4.39766 -2.81786 0
M  V30 1431 H 137.485 -2.66 -1.37421 0
M  V30 1432 H 135.031 -1.28002 -0.659662 0
M  V30 1433 H 136.984 -1.98672 -3.71628 0
M  V30 1434 H 135.708 -0.883545 -3.14422 0
M  V30 1435 H 134.367 -2.8463 -2.31044 0
M  V30 1436 H 134.015 -1.97239 -4.62715 0
M  V30 1437 H 133.715 -3.72642 -4.54326 0
M  V30 1438 H 135.239 -3.11803 -5.24987 0
M  V30 1439 H 136.653 -4.55054 -3.4871 0
M  V30 1440 H 135.05 -5.18722 -3.0174 0
M  V30 1441 H 136.12 -4.51229 -1.7754 0
M  V30 1442 N 137.463 0.71206 -1.40597 0
M  V30 1443 C 138.41 1.82613 -1.41142 0
M  V30 1444 C 139.38 1.63925 -0.267903 0
M  V30 1445 O 140.565 1.85009 -0.466495 0
M  V30 1446 C 137.705 3.20354 -1.28324 0
M  V30 1447 C 136.818 3.50589 -2.52411 0
M  V30 1448 C 135.953 4.77855 -2.32009 0
M  V30 1449 C 134.992 5.01005 -3.51654 0
M  V30 1450 N 134.129 6.19487 -3.30425 0
M  V30 1451 H 138.969 1.81482 -2.36365 0
M  V30 1452 H 136.506 0.886475 -1.17388 0
M  V30 1453 H 138.464 3.99899 -1.18899 0
M  V30 1454 H 137.094 3.20705 -0.367189 0
M  V30 1455 H 136.146 2.65573 -2.72351 0
M  V30 1456 H 137.458 3.63604 -3.41458 0
M  V30 1457 H 136.612 5.65424 -2.19956 0
M  V30 1458 H 135.351 4.67056 -1.40392 0
M  V30 1459 H 134.356 4.1189 -3.64179 0
M  V30 1460 H 135.581 5.13674 -4.44202 0
M  V30 1461 H 133.527 6.09932 -2.41494 0
M  V30 1462 H 133.444 6.33194 -4.13039 0
M  V30 1463 H 134.712 7.09834 -3.22113 0
M  V30 1464 N 138.941 1.26152 0.944643 0
M  V30 1465 C 139.904 1.07474 2.0244 0
M  V30 1466 C 140.904 0.0242064 1.60782 0
M  V30 1467 O 142.094 0.267302 1.72137 0
M  V30 1468 C 139.226 0.633956 3.34953 0
M  V30 1469 H 140.419 2.03336 2.20442 0
M  V30 1470 H 137.972 1.087 1.12312 0
M  V30 1471 H 138.707 -0.326811 3.22649 0
M  V30 1472 H 138.492 1.39247 3.66542 0
M  V30 1473 H 139.982 0.52501 4.14287 0
M  V30 1474 N 140.419 -1.14872 1.07899 0
M  V30 1475 C 141.667 -1.85422 0.803941 0
M  V30 1476 C 141.988 -1.83051 -0.67211 0
M  V30 1477 O 141.258 -1.27532 -1.48703 0
M  V30 1478 H 139.838 -0.686537 0.294408 0
M  V30 1479 H 142.5 -1.39226 1.3639 0
M  V30 1480 H 141.596 -2.90399 1.14346 0
M  V30 1481 N 141.898 -0.863906 -1.31812 0
M  V30 1482 C 143.314 -0.555004 -1.49639 0
M  V30 1483 C 143.514 0.912266 -1.79666 0
M  V30 1484 O 142.57 1.69479 -1.87171 0
M  V30 1485 C 143.883 -1.44998 -2.63431 0
M  V30 1486 C 145.431 -1.45138 -2.77316 0
M  V30 1487 C 145.906 -2.33179 -3.94197 0
M  V30 1488 N 147.397 -2.31025 -4.01474 0
M  V30 1489 C 148.132 -2.95871 -4.9117 0
M  V30 1490 N 147.628 -3.69863 -5.8581 0
M  V30 1491 N 149.421 -2.85211 -4.84367 0
M  V30 1492 H 141.572 -1.81339 -1.10589 0
M  V30 1493 H 143.835 -0.77505 -0.545895 0
M  V30 1494 H 143.541 -2.49377 -2.48 0
M  V30 1495 H 143.415 -1.14409 -3.59431 0
M  V30 1496 H 145.802 -0.415201 -2.92164 0
M  V30 1497 H 145.883 -1.79747 -1.82001 0
M  V30 1498 H 145.527 -3.3687 -3.80107 0
M  V30 1499 H 145.457 -1.95897 -4.88807 0
M  V30 1500 H 147.948 -1.77238 -3.33759 0
M  V30 1501 H 148.261 -4.16486 -6.50968 0
M  V30 1502 H 146.606 -3.73971 -5.85808 0
M  V30 1503 H 149.797 -2.26948 -4.09405 0
M  V30 1504 H 149.97 -3.36027 -5.54066 0
M  V30 1505 N 143.376 1.44774 -0.622745 0
M  V30 1506 C 144.616 2.04004 -0.127102 0
M  V30 1507 C 144.98 1.47862 1.22478 0
M  V30 1508 O 146.181 1.98541 1.81204 0
M  V30 1509 C 144.452 3.57247 -0.104429 0
M  V30 1510 S 146.011 4.37574 0.327814 0
M  V30 1511 H 142.829 0.708713 -0.0569776 0
M  V30 1512 H 145.431 1.77275 -0.824253 0
M  V30 1513 H 144.135 3.95616 -1.09159 0
M  V30 1514 H 143.666 3.88575 0.614236 0
M  V30 1515 H 145.681 4.70575 1.57395 0
M  V30 1516 N 144.854 0.36279 1.53368 0
M  V30 1517 C 145.817 -0.472679 2.24273 0
M  V30 1518 C 146.817 -1.012 1.24961 0
M  V30 1519 O 148.007 -0.898194 1.49259 0
M  V30 1520 C 145.139 -1.66039 2.97731 0
M  V30 1521 H 146.332 0.14773 2.99536 0
M  V30 1522 H 143.885 0.114434 1.55881 0
M  V30 1523 H 144.62 -2.31896 2.26704 0
M  V30 1524 H 144.405 -1.28066 3.70596 0
M  V30 1525 H 145.895 -2.25252 3.51641 0
M  V30 1526 N 146.332 -1.57332 0.0918853 0
M  V30 1527 C 147.609 -1.85691 -0.614668 0
M  V30 1528 C 147.989 -0.988146 -1.86545 0
M  V30 1529 O 147.337 -0.0597055 -2.28422 0
M  V30 1530 C 147.547 -3.36294 -0.933126 0
M  V30 1531 C 148.895 -4.04275 -1.29796 0
M  V30 1532 O 149.919 -3.41157 -1.02424 0
M  V30 1533 O 148.778 -5.1564 -1.81047 0
M  V30 1534 H 145.872 -0.767802 -0.307261 0
M  V30 1535 H 148.418 -1.69244 0.12434 0
M  V30 1536 H 147.19 -3.91273 -0.0456404 0
M  V30 1537 H 146.813 -3.58076 -1.72822 0
M  V30 1538 N 147.81 0.181792 -1.56548 0
M  V30 1539 C 149.04 0.914618 -1.85252 0
M  V30 1540 C 149.448 1.76791 -0.673914 0
M  V30 1541 O 148.791 1.80009 0.366416 0
M  V30 1542 C 148.853 1.85019 -3.08234 0
M  V30 1543 C 148.517 1.17754 -4.41569 0
M  V30 1544 C 149.514 0.548035 -5.17003 0
M  V30 1545 C 147.199 1.17742 -4.88305 0
M  V30 1546 C 149.193 -0.0726128 -6.37359 0
M  V30 1547 C 146.88 0.552946 -6.08593 0
M  V30 1548 C 147.878 -0.070978 -6.82963 0
M  V30 1549 O 147.566 -0.685635 -8.00971 0
M  V30 1550 H 147.298 0.271695 -0.618998 0
M  V30 1551 H 149.852 0.189944 -2.0452 0
M  V30 1552 H 148.082 2.61491 -2.84885 0
M  V30 1553 H 149.771 2.45195 -3.23472 0
M  V30 1554 H 150.537 0.540174 -4.81982 0
M  V30 1555 H 146.416 1.65246 -4.30366 0
M  V30 1556 H 149.96 -0.560213 -6.95347 0
M  V30 1557 H 145.857 0.558354 -6.43081 0
M  V30 1558 H 146.625 -0.58385 -8.16415 0
M  V30 1559 N 149.288 1.51039 0.449983 0
M  V30 1560 C 150.534 1.63322 1.20223 0
M  V30 1561 C 150.867 0.34241 1.91158 0
M  V30 1562 O 150.142 -0.657344 1.83055 0
M  V30 1563 C 150.425 2.82801 2.22925 0
M  V30 1564 C 150.278 4.21823 1.56157 0
M  V30 1565 C 151.597 2.97807 3.24035 0
M  V30 1566 H 148.716 0.594407 0.435718 0
M  V30 1567 H 151.358 1.83489 0.493136 0
M  V30 1568 H 149.508 2.65738 2.834 0
M  V30 1569 H 151.18 4.50526 0.991162 0
M  V30 1570 H 149.423 4.25105 0.864172 0
M  V30 1571 H 150.094 5.01391 2.30891 0
M  V30 1572 H 152.57 3.13497 2.73603 0
M  V30 1573 H 151.446 3.82992 3.93202 0
M  V30 1574 H 151.707 2.09328 3.89402 0
M  V30 1575 N 150.766 -0.704594 1.40972 0
M  V30 1576 C 152.012 -1.46675 1.40051 0
M  V30 1577 C 152.345 -1.94199 0.00641102 0
M  V30 1578 O 151.62 -1.68916 -0.964235 0
M  V30 1579 C 151.903 -2.68505 2.39952 0
M  V30 1580 C 151.756 -2.26805 3.88432 0
M  V30 1581 C 153.075 -3.70686 2.37233 0
M  V30 1582 H 150.194 -0.532015 0.510028 0
M  V30 1583 H 152.836 -0.803255 1.72185 0
M  V30 1584 H 150.986 -3.25114 2.1268 0
M  V30 1585 H 152.658 -1.75592 4.26574 0
M  V30 1586 H 150.901 -1.58685 4.03734 0
M  V30 1587 H 151.572 -3.14181 4.53866 0
M  V30 1588 H 154.048 -3.23731 2.61415 0
M  V30 1589 H 152.924 -4.53553 3.09162 0
M  V30 1590 H 153.185 -4.19754 1.38777 0
M  V30 1591 N 152.244 -1.26651 -0.937939 0
M  V30 1592 C 153.472 -1.15173 -1.7188 0
M  V30 1593 C 153.887 0.292668 -1.86518 0
M  V30 1594 O 153.244 1.20014 -1.37488 0
M  V30 1595 C 153.295 -1.81925 -3.12387 0
M  V30 1596 O 153.016 -3.2072 -2.98446 0
M  V30 1597 C 154.517 -1.76442 -4.06673 0
M  V30 1598 H 151.737 -0.400911 -0.538063 0
M  V30 1599 H 154.281 -1.67332 -1.1756 0
M  V30 1600 H 152.436 -1.33696 -3.63599 0
M  V30 1601 H 152.85 -3.53802 -3.872 0
M  V30 1602 H 154.324 -2.27781 -5.02812 0
M  V30 1603 H 154.801 -0.731608 -4.33064 0
M  V30 1604 H 155.407 -2.24238 -3.61382 0
M  V30 1605 N 153.722 1.14298 -1.08507 0
M  V30 1606 C 154.97 1.84993 -0.813763 0
M  V30 1607 C 155.291 1.83405 0.662393 0
M  V30 1608 O 154.561 1.28319 1.48024 0
M  V30 1609 H 153.141 0.684966 -0.298045 0
M  V30 1610 H 155.803 1.385 -1.37126 0
M  V30 1611 H 154.899 2.89788 -1.15884 0
M  V30 1612 N 155.201 0.870884 1.31352 0
M  V30 1613 C 156.164 0.332243 2.26779 0
M  V30 1614 C 157.164 -0.517302 1.52252 0
M  V30 1615 O 158.354 -0.326477 1.71113 0
M  V30 1616 C 155.486 -0.528066 3.36785 0
M  V30 1617 H 156.679 1.17469 2.75937 0
M  V30 1618 H 154.232 0.64655 1.423 0
M  V30 1619 H 154.967 -1.39167 2.92922 0
M  V30 1620 H 154.752 0.0802582 3.92018 0
M  V30 1621 H 156.242 -0.897179 4.07849 0
M  V30 1622 N 156.679 -1.44442 0.630414 0
M  V30 1623 C 157.925 -2.02894 0.143332 0
M  V30 1624 C 158.28 -1.48697 -1.22094 0
M  V30 1625 O 157.573 -0.661171 -1.79831 0
M  V30 1626 C 157.767 -3.57332 0.0697835 0
M  V30 1627 C 157.596 -4.26512 1.42539 0
M  V30 1628 C 156.366 -4.63516 2.01198 0
M  V30 1629 C 158.564 -4.57004 2.35907 0
M  V30 1630 N 156.546 -5.17661 3.30001 0
M  V30 1631 C 157.917 -5.12223 3.49324 0
M  V30 1632 C 159.972 -4.38955 2.34995 0
M  V30 1633 C 158.675 -5.51295 4.62024 0
M  V30 1634 C 160.701 -4.79075 3.46758 0
M  V30 1635 C 160.063 -5.34407 4.58899 0
M  V30 1636 H 156.162 -0.776041 0.0963523 0
M  V30 1637 H 158.746 -1.75945 0.833752 0
M  V30 1638 H 156.917 -3.83894 -0.589915 0
M  V30 1639 H 158.649 -4.02451 -0.42606 0
M  V30 1640 H 155.404 -4.47811 1.54151 0
M  V30 1641 H 155.828 -5.4921 3.95851 0
M  V30 1642 H 160.47 -3.95469 1.49545 0
M  V30 1643 H 158.188 -5.93736 5.48182 0
M  V30 1644 H 161.774 -4.66824 3.47227 0
M  V30 1645 H 160.654 -5.64878 5.4395 0
M  V30 1646 N 158.157 -0.370918 -1.53173 0
M  V30 1647 C 159.382 0.220293 -2.06227 0
M  V30 1648 C 159.807 1.41243 -1.24225 0
M  V30 1649 O 159.165 1.79387 -0.262645 0
M  V30 1650 C 159.213 0.586663 -3.55796 0
M  V30 1651 O 158.317 1.68317 -3.76488 0
M  V30 1652 H 157.658 0.0308099 -0.663285 0
M  V30 1653 H 160.188 -0.533068 -1.97534 0
M  V30 1654 H 160.198 0.85617 -3.98916 0
M  V30 1655 H 158.873 -0.285013 -4.14922 0
M  V30 1656 H 157.45 1.40881 -3.45264 0
M  V30 1657 N 159.635 1.57281 -0.100228 0
M  V30 1658 C 160.598 2.13158 0.842398 0
M  V30 1659 C 161.598 1.06202 1.20738 0
M  V30 1660 O 162.788 1.32066 1.13597 0
M  V30 1661 C 159.92 2.65639 2.13655 0
M  V30 1662 H 161.113 2.97766 0.357114 0
M  V30 1663 H 158.666 1.5559 0.148823 0
M  V30 1664 H 159.401 1.84566 2.66657 0
M  V30 1665 H 159.186 3.43844 1.88451 0
M  V30 1666 H 160.676 3.08846 2.81077 0
M  V30 1667 N 161.113 -0.173488 1.56642 0
M  V30 1668 C 162.06 -1.21482 1.96242 0
M  V30 1669 C 163.03 -1.44104 0.826027 0
M  V30 1670 O 164.215 -1.5688 1.08597 0
M  V30 1671 C 161.355 -2.54964 2.32567 0
M  V30 1672 C 160.468 -2.39739 3.59373 0
M  V30 1673 C 159.603 -3.66072 3.84921 0
M  V30 1674 C 158.642 -3.45771 5.05083 0
M  V30 1675 N 157.779 -4.64169 5.26775 0
M  V30 1676 H 162.619 -0.870123 2.85014 0
M  V30 1677 H 160.156 -0.418245 1.41029 0
M  V30 1678 H 162.114 -3.32758 2.5165 0
M  V30 1679 H 160.744 -2.87433 1.46908 0
M  V30 1680 H 159.796 -1.53131 3.48217 0
M  V30 1681 H 161.108 -2.20683 4.47326 0
M  V30 1682 H 160.262 -4.52303 4.0436 0
M  V30 1683 H 159.001 -3.88105 2.9534 0
M  V30 1684 H 158.006 -2.57927 4.85545 0
M  V30 1685 H 159.231 -3.25163 5.96193 0
M  V30 1686 H 157.177 -4.86425 4.40144 0
M  V30 1687 H 157.094 -4.48019 6.08946 0
M  V30 1688 H 158.362 -5.51689 5.5069 0
M  V30 1689 N 162.591 -1.51276 -0.441967 0
M  V30 1690 C 163.554 -1.7167 -1.51862 0
M  V30 1691 C 164.554 -0.586793 -1.49711 0
M  V30 1692 O 165.744 -0.854276 -1.51815 0
M  V30 1693 C 162.876 -1.76889 -2.91416 0
M  V30 1694 H 164.069 -2.67754 -1.35084 0
M  V30 1695 H 161.622 -1.41196 -0.670333 0
M  V30 1696 H 162.357 -0.826026 -3.13604 0
M  V30 1697 H 162.142 -2.59001 -2.94382 0
M  V30 1698 H 163.632 -1.94522 -3.69528 0
M  V30 1699 N 164.069 0.697108 -1.41344 0
M  V30 1700 C 165.032 1.79281 -1.42797 0
M  V30 1701 C 166.032 1.57607 -0.318837 0
M  V30 1702 O 167.222 1.64309 -0.578642 0
M  V30 1703 C 164.354 3.17632 -1.23785 0
M  V30 1704 H 165.547 1.79385 -2.40335 0
M  V30 1705 H 163.1 0.904582 -1.27464 0
M  V30 1706 H 163.835 3.23167 -0.270814 0
M  V30 1707 H 163.62 3.34765 -2.04144 0
M  V30 1708 H 165.11 3.97617 -1.27633 0
M  V30 1709 N 165.547 1.27147 0.931209 0
M  V30 1710 C 166.457 1.11372 2.06478 0
M  V30 1711 C 167.473 0.044645 1.73943 0
M  V30 1712 O 168.649 0.250417 1.99837 0
M  V30 1713 C 165.714 0.758838 3.38294 0
M  V30 1714 C 164.775 1.90841 3.84549 0
M  V30 1715 C 164.008 1.57036 5.10074 0
M  V30 1716 O 164.231 0.476645 5.68405 0
M  V30 1717 O 163.165 2.40839 5.51616 0
M  V30 1718 H 166.991 2.06493 2.22698 0
M  V30 1719 H 164.576 1.06301 1.04978 0
M  V30 1720 H 166.458 0.574098 4.17471 0
M  V30 1721 H 165.133 -0.162879 3.2329 0
M  V30 1722 H 164.04 2.14819 3.06274 0
M  V30 1723 H 165.373 2.81021 4.04089 0
M  V30 1724 N 167.025 -1.13721 1.09112 0
M  V30 1725 C 167.935 -2.22638 0.73957 0
M  V30 1726 C 168.951 -1.72091 -0.257068 0
M  V30 1727 O 170.127 -2.01155 -0.0992154 0
M  V30 1728 C 167.192 -3.46322 0.16191 0
M  V30 1729 C 166.253 -4.11775 1.21408 0
M  V30 1730 C 165.486 -5.29555 0.663891 0
M  V30 1731 O 165.709 -5.68077 -0.514274 0
M  V30 1732 O 164.643 -5.84973 1.41738 0
M  V30 1733 H 168.469 -2.55074 1.64836 0
M  V30 1734 H 166.054 -1.21791 0.865289 0
M  V30 1735 H 167.936 -4.21107 -0.157073 0
M  V30 1736 H 166.611 -3.15593 -0.719932 0
M  V30 1737 H 165.518 -3.3883 1.58571 0
M  V30 1738 H 166.851 -4.46627 2.06845 0
M  V30 1739 N 168.503 -0.877838 -1.30888 0
M  V30 1740 C 169.466 -0.344265 -2.266 0
M  V30 1741 C 170.466 0.50922 -1.52524 0
M  V30 1742 O 171.656 0.317398 -1.71284 0
M  V30 1743 C 168.788 0.510198 -3.37061 0
M  V30 1744 H 169.981 -1.1893 -2.7531 0
M  V30 1745 H 167.534 -0.654088 -1.41956 0
M  V30 1746 H 168.269 1.37612 -2.93655 0
M  V30 1747 H 168.054 -0.101047 -3.9197 0
M  V30 1748 H 169.544 0.875537 -4.08319 0
M  V30 1749 N 169.982 1.44106 -0.638065 0
M  V30 1750 C 170.929 2.30715 0.062701 0
M  V30 1751 C 171.899 1.43882 0.829883 0
M  V30 1752 O 173.084 1.72775 0.809532 0
M  V30 1753 C 170.224 3.29258 1.03358 0
M  V30 1754 C 169.337 4.31192 0.26409 0
M  V30 1755 C 168.472 5.16825 1.22741 0
M  V30 1756 C 167.511 6.10462 0.447475 0
M  V30 1757 N 166.648 6.8877 1.36161 0
M  V30 1758 H 171.488 2.90096 -0.681781 0
M  V30 1759 H 169.025 1.42925 -0.347988 0
M  V30 1760 H 170.983 3.84886 1.60992 0
M  V30 1761 H 169.613 2.71562 1.74511 0
M  V30 1762 H 168.665 3.77981 -0.428295 0
M  V30 1763 H 169.977 4.97619 -0.343052 0
M  V30 1764 H 169.131 5.77004 1.87487 0
M  V30 1765 H 167.87 4.50488 1.86847 0
M  V30 1766 H 166.875 5.49386 -0.213433 0
M  V30 1767 H 168.1 6.78837 -0.188968 0
M  V30 1768 H 166.046 6.25096 1.98975 0
M  V30 1769 H 165.963 7.51663 0.808656 0
M  V30 1770 H 167.231 7.53467 1.99769 0
M  V30 1771 N 171.46 0.379036 1.52974 0
M  V30 1772 C 172.407 -0.461048 2.26148 0
M  V30 1773 C 173.377 -1.06637 1.27349 0
M  V30 1774 O 174.562 -1.09633 1.56157 0
M  V30 1775 C 171.702 -1.58782 3.06402 0
M  V30 1776 C 170.815 -1.00636 4.20115 0
M  V30 1777 C 169.95 -2.10334 4.87784 0
M  V30 1778 C 168.989 -1.49724 5.93506 0
M  V30 1779 N 168.126 -2.5331 6.54812 0
M  V30 1780 H 172.966 0.169429 2.97518 0
M  V30 1781 H 170.503 0.0953806 1.4679 0
M  V30 1782 H 172.461 -2.25174 3.51215 0
M  V30 1783 H 171.091 -2.18876 2.37261 0
M  V30 1784 H 170.143 -0.232332 3.7969 0
M  V30 1785 H 171.455 -0.523343 4.96047 0
M  V30 1786 H 170.609 -2.84519 5.35849 0
M  V30 1787 H 169.348 -2.61992 4.11353 0
M  V30 1788 H 168.353 -0.740598 5.44789 0
M  V30 1789 H 169.578 -0.988732 6.71864 0
M  V30 1790 H 167.524 -3.04156 5.81227 0
M  V30 1791 H 167.441 -2.09734 7.26325 0
M  V30 1792 H 168.709 -3.27155 7.07524 0
M  V30 1793 N 172.938 -1.57226 0.108567 0
M  V30 1794 C 174.185 -1.94833 -0.551943 0
M  V30 1795 C 174.513 -0.991204 -1.67348 0
M  V30 1796 O 173.768 -0.0131878 -1.95696 0
M  V30 1797 C 174.067 -3.38911 -1.13463 0
M  V30 1798 C 173.733 -4.50696 -0.135509 0
M  V30 1799 C 172.395 -4.80998 0.139252 0
M  V30 1800 C 174.747 -5.18333 0.545957 0
M  V30 1801 C 172.075 -5.76259 1.10194 0
M  V30 1802 C 174.427 -6.14627 1.49721 0
M  V30 1803 C 173.091 -6.43327 1.78006 0
M  V30 1804 H 172.361 -0.712944 -0.20197 0
M  V30 1805 H 175.008 -1.90582 0.18726 0
M  V30 1806 H 173.313 -3.39805 -1.95037 0
M  V30 1807 H 175.01 -3.65317 -1.65362 0
M  V30 1808 H 171.6 -4.27087 -0.359846 0
M  V30 1809 H 175.784 -4.95087 0.346842 0
M  V30 1810 H 171.04 -5.96804 1.32795 0
M  V30 1811 H 175.214 -6.66126 2.03099 0
M  V30 1812 H 172.841 -7.1695 2.52759 0
M  V30 1813 N 174.416 0.165178 -1.56732 0
M  V30 1814 C 175.664 0.879068 -1.8198 0
M  V30 1815 C 175.985 1.82514 -0.686561 0
M  V30 1816 O 175.255 1.93694 0.293146 0
M  V30 1817 H 173.835 0.327608 -0.671329 0
M  V30 1818 H 176.497 0.163526 -1.94213 0
M  V30 1819 H 175.593 1.45228 -2.76252 0
M  V30 1820 N 175.894 1.51508 0.433938 0
M  V30 1821 C 177.122 1.68157 1.20543 0
M  V30 1822 C 177.537 0.380362 1.84929 0
M  V30 1823 O 176.894 -0.641446 1.70856 0
M  V30 1824 C 176.945 2.79965 2.28696 0
M  V30 1825 O 176.666 4.05045 1.66943 0
M  V30 1826 C 178.167 3.07912 3.18912 0
M  V30 1827 H 175.387 0.56421 0.363191 0
M  V30 1828 H 177.931 1.97941 0.513754 0
M  V30 1829 H 176.086 2.5277 2.93574 0
M  V30 1830 H 176.5 4.67165 2.38448 0
M  V30 1831 H 177.974 3.89719 3.90926 0
M  V30 1832 H 178.451 2.20456 3.79863 0
M  V30 1833 H 179.057 3.36779 2.59731 0
M  V30 1834 N 177.372 -0.689602 1.41712 0
M  V30 1835 C 178.621 -1.44534 1.40686 0
M  V30 1836 C 178.934 -1.95588 0.0213352 0
M  V30 1837 O 180.14 -2.71271 -0.111534 0
M  V30 1838 C 178.596 -2.61387 2.47396 0
M  V30 1839 C 178.204 -2.17094 3.91885 0
M  V30 1840 C 179.948 -3.38986 2.55517 0
M  V30 1841 C 177.855 -3.3094 4.90135 0
M  V30 1842 H 176.785 -0.542925 0.52321 0
M  V30 1843 H 179.436 -0.748054 1.6756 0
M  V30 1844 H 177.818 -3.33412 2.13664 0
M  V30 1845 H 178.992 -1.52318 4.34897 0
M  V30 1846 H 177.307 -1.52473 3.8748 0
M  V30 1847 H 179.904 -4.23747 3.26102 0
M  V30 1848 H 180.247 -3.84578 1.59391 0
M  V30 1849 H 180.78 -2.74021 2.8837 0
M  V30 1850 H 177.519 -2.90355 5.87685 0
M  V30 1851 H 177.039 -3.94546 4.51767 0
M  V30 1852 H 178.718 -3.9663 5.11169 0
M  V30 1853 N 178.85 -1.27639 -0.924453 0
M  V30 1854 C 179.798 -1.10485 -2.04685 0
M  V30 1855 C 180.792 -0.0270421 -1.69378 0
M  V30 1856 O 181.998 -0.185008 -1.79047 0
M  V30 1857 H 178.373 -0.340546 -0.670472 0
M  V30 1858 H 180.344 -2.05566 -2.16298 0
M  V30 1859 C 179.093 -0.772229 -3.39016 0
M  V30 1860 H 178.416 -1.59351 -3.66671 0
M  V30 1861 H 179.856 -0.692097 -4.18313 0
M  V30 1862 C 178.315 0.523554 -3.32807 0
M  V30 1863 O 178.845 1.55702 -3.70297 0
M  V30 1864 N 177.051 0.520363 -2.85903 0
M  V30 1865 H 176.598 -0.32107 -2.55591 0
M  V30 1866 H 176.556 1.38742 -2.82131 0
M  V30 1867 N 180.328 1.1314 -1.09713 0
M  V30 1868 C 181.577 1.83838 -0.829851 0
M  V30 1869 C 181.89 1.84599 0.646728 0
M  V30 1870 O 183.096 2.51218 1.02965 0
M  V30 1871 C 181.552 3.30069 -1.43466 0
M  V30 1872 C 181.16 3.37688 -2.94399 0
M  V30 1873 C 182.904 4.05788 -1.24645 0
M  V30 1874 C 180.811 4.78209 -3.47952 0
M  V30 1875 H 179.741 0.68877 -0.306777 0
M  V30 1876 H 182.392 1.27448 -1.3202 0
M  V30 1877 H 180.774 3.8628 -0.871996 0
M  V30 1878 H 181.948 2.91456 -3.56918 0
M  V30 1879 H 180.263 2.75436 -3.12289 0
M  V30 1880 H 182.86 5.09535 -1.62107 0
M  V30 1881 H 183.203 4.15878 -0.187357 0
M  V30 1882 H 183.736 3.55915 -1.77678 0
M  V30 1883 H 180.475 4.73311 -4.53495 0
M  V30 1884 H 179.995 5.24924 -2.90198 0
M  V30 1885 H 181.674 5.47133 -3.45332 0
M  V30 1886 N 181.806 0.884767 1.30421 0
M  V30 1887 C 183.052 0.503851 1.96441 0
M  V30 1888 C 183.385 -0.944518 1.69684 0
M  V30 1889 O 182.66 -1.66737 1.00145 0
M  V30 1890 C 182.943 0.779085 3.51571 0
M  V30 1891 C 182.796 2.27807 3.87846 0
M  V30 1892 C 184.115 0.255452 4.39358 0
M  V30 1893 H 181.234 0.184533 0.713524 0
M  V30 1894 H 183.876 1.10872 1.54297 0
M  V30 1895 H 182.026 0.264274 3.876 0
M  V30 1896 H 183.698 2.86127 3.61841 0
M  V30 1897 H 181.941 2.74479 3.35922 0
M  V30 1898 H 182.612 2.42125 4.96064 0
M  V30 1899 H 185.088 0.696079 4.10236 0
M  V30 1900 H 183.964 0.477361 5.4682 0
M  V30 1901 H 184.225 -0.843293 4.33983 0
M  V30 1902 N 183.284 -1.43765 0.645699 0
M  V30 1903 C 184.234 -2.27884 -0.0726442 0
M  V30 1904 C 185.218 -1.39483 -0.802086 0
M  V30 1905 O 186.41 -1.63174 -0.685791 0
M  V30 1906 C 183.539 -3.27055 -1.04356 0
M  V30 1907 C 182.625 -4.22944 -0.312985 0
M  V30 1908 N 183.016 -5.01391 0.666386 0
M  V30 1909 C 181.314 -4.42528 -0.55546 0
M  V30 1910 C 182.015 -5.71217 1.09935 0
M  V30 1911 N 180.991 -5.41856 0.435137 0
M  V30 1912 H 184.793 -2.85949 0.678988 0
M  V30 1913 H 182.307 -1.55378 0.472368 0
M  V30 1914 H 184.304 -3.86089 -1.57292 0
M  V30 1915 H 182.964 -2.70551 -1.79534 0
M  V30 1916 H 183.975 -5.07252 1.04481 0
M  V30 1917 H 180.652 -3.97104 -1.28899 0
M  V30 1918 H 182.042 -6.44202 1.90929 0
M  V30 1919 N 184.763 -0.387143 -1.52771 0
M  V30 1920 C 186.174 0.0873634 -1.86495 0
M  V30 1921 C 186.525 1.46336 -1.30691 0
M  V30 1922 O 185.65 2.068 -0.637409 0
M  V30 1923 C 186.245 0.165305 -3.38396 0
M  V30 1924 C 184.804 0.584101 -3.7184 0
M  V30 1925 C 183.951 -0.255279 -2.76122 0
M  V30 1926 H 186.902 -0.605104 -1.46711 0
M  V30 1927 H 186.923 0.984848 -3.67534 0
M  V30 1928 H 186.435 -0.836301 -3.78982 0
M  V30 1929 H 184.536 1.59315 -3.36823 0
M  V30 1930 H 184.649 0.343749 -4.77865 0
M  V30 1931 H 183.013 0.279126 -2.53166 0
M  V30 1932 H 183.796 -1.25482 -3.19545 0
M  V30 1933 N 186.241 1.57166 -0.116904 0
M  V30 1934 C 187.188 2.15202 0.83408 0
M  V30 1935 C 188.158 1.07644 1.26499 0
M  V30 1936 O 189.343 1.35541 1.34288 0
M  V30 1937 C 186.483 2.75405 2.07957 0
M  V30 1938 C 185.596 3.97264 1.69721 0
M  V30 1939 C 184.731 4.45561 2.89221 0
M  V30 1940 C 183.77 5.59956 2.47215 0
M  V30 1941 N 182.907 6.03006 3.59622 0
M  V30 1942 H 187.747 2.96141 0.332335 0
M  V30 1943 H 185.284 1.46309 0.152349 0
M  V30 1944 H 187.242 3.08439 2.80929 0
M  V30 1945 H 185.872 1.97159 2.55594 0
M  V30 1946 H 184.924 3.70404 0.866316 0
M  V30 1947 H 186.236 4.80226 1.34849 0
M  V30 1948 H 185.39 4.80493 3.7042 0
M  V30 1949 H 184.129 3.61544 3.27318 0
M  V30 1950 H 183.134 5.2463 1.64448 0
M  V30 1951 H 184.359 6.45738 2.10238 0
M  V30 1952 H 182.305 5.21931 3.97396 0
M  V30 1953 H 182.222 6.80819 3.28667 0
M  V30 1954 H 183.49 6.42576 4.41267 0
M  V30 1955 N 187.719 -0.156864 1.56817 0
M  V30 1956 C 188.649 -1.19589 2.00551 0
M  V30 1957 C 189.63 -1.4536 0.883426 0
M  V30 1958 O 190.815 -1.56449 1.15054 0
M  V30 1959 C 187.945 -2.53143 2.37773 0
M  V30 1960 C 186.899 -2.41913 3.53075 0
M  V30 1961 C 186.225 -3.80088 3.76081 0
M  V30 1962 C 187.525 -1.91157 4.86062 0
M  V30 1963 H 189.219 -0.832293 2.87599 0
M  V30 1964 H 186.765 -0.398918 1.38364 0
M  V30 1965 H 188.718 -3.26047 2.66967 0
M  V30 1966 H 187.442 -2.91319 1.4765 0
M  V30 1967 H 186.101 -1.71462 3.24031 0
M  V30 1968 H 185.749 -4.15683 2.83225 0
M  V30 1969 H 185.449 -3.73439 4.53671 0
M  V30 1970 H 186.973 -4.54556 4.0769 0
M  V30 1971 H 188.387 -2.53846 5.14038 0
M  V30 1972 H 186.784 -1.95422 5.67389 0
M  V30 1973 H 187.854 -0.866673 4.77092 0
M  V30 1974 N 189.197 -1.51736 -0.425897 0
M  V30 1975 C 190.445 -1.64644 -1.17204 0
M  V30 1976 C 190.766 -0.370486 -1.91448 0
M  V30 1977 O 190.036 0.614088 -1.86026 0
M  V30 1978 H 188.616 -0.606819 -0.435638 0
M  V30 1979 H 191.278 -1.88713 -0.487177 0
M  V30 1980 H 190.374 -2.47958 -1.89534 0
M  V30 1981 N 190.675 0.682077 -1.42076 0
M  V30 1982 C 191.9 1.47558 -1.45744 0
M  V30 1983 C 192.325 1.87977 -0.0680981 0
M  V30 1984 O 191.683 1.55522 0.9318 0
M  V30 1985 C 191.731 2.70575 -2.38373 0
M  V30 1986 O 190.835 3.68573 -1.85007 0
M  V30 1987 H 190.176 0.443585 -0.494093 0
M  V30 1988 H 192.706 0.837238 -1.86686 0
M  V30 1989 H 192.716 3.18729 -2.54707 0
M  V30 1990 H 191.391 2.40495 -3.39315 0
M  V30 1991 H 189.968 3.2757 -1.78192 0
M  V30 1992 N 192.153 1.28127 0.917671 0
M  V30 1993 C 193.383 1.17722 1.6978 0
M  V30 1994 C 193.791 -0.267261 1.87303 0
M  V30 1995 O 193.134 -1.19286 1.39702 0
M  V30 1996 C 193.196 1.79958 3.11216 0
M  V30 1997 C 192.86 3.29187 3.16993 0
M  V30 1998 C 193.857 4.25679 2.98485 0
M  V30 1999 C 191.542 3.70075 3.39632 0
M  V30 2000 C 193.536 5.61035 3.02521 0
M  V30 2001 C 191.223 5.05557 3.433 0
M  V30 2002 C 192.221 6.00847 3.24764 0
M  V30 2003 O 191.909 7.33859 3.28187 0
M  V30 2004 H 191.641 0.409788 0.537634 0
M  V30 2005 H 194.195 1.69694 1.15728 0
M  V30 2006 H 192.425 1.22475 3.66793 0
M  V30 2007 H 194.114 1.64125 3.71238 0
M  V30 2008 H 194.88 3.95426 2.80826 0
M  V30 2009 H 190.759 2.96373 3.53106 0
M  V30 2010 H 194.303 6.35388 2.87971 0
M  V30 2011 H 190.2 5.35462 3.60486 0
M  V30 2012 H 190.968 7.42436 3.44575 0
M  V30 2013 N 193.631 -1.12557 1.10312 0
M  V30 2014 C 194.859 -1.87864 0.866873 0
M  V30 2015 C 195.274 -1.79588 -0.582557 0
M  V30 2016 O 194.631 -1.16887 -1.40156 0
M  V30 2017 C 194.682 -3.37125 1.30496 0
M  V30 2018 O 194.403 -3.45201 2.69755 0
M  V30 2019 C 195.904 -4.29373 1.10243 0
M  V30 2020 H 193.124 -0.594452 0.311236 0
M  V30 2021 H 195.668 -1.42429 1.46745 0
M  V30 2022 H 193.823 -3.80109 0.748081 0
M  V30 2023 H 194.237 -4.38056 2.88457 0
M  V30 2024 H 195.711 -5.32394 1.45811 0
M  V30 2025 H 196.188 -4.39181 0.0409492 0
M  V30 2026 H 196.794 -3.92169 1.64571 0
M  V30 2027 N 195.109 -0.891671 -1.2995 0
M  V30 2028 C 196.056 -0.361736 -2.27948 0
M  V30 2029 C 197.026 0.551761 -1.56668 0
M  V30 2030 O 198.211 0.478736 -1.84696 0
M  V30 2031 C 195.351 0.411825 -3.42634 0
M  V30 2032 C 194.464 -0.531651 -4.28716 0
M  V30 2033 C 193.599 0.258167 -5.30572 0
M  V30 2034 C 192.638 -0.680349 -6.08307 0
M  V30 2035 N 191.775 0.0745613 -7.0206 0
M  V30 2036 H 196.615 -1.20254 -2.72659 0
M  V30 2037 H 194.152 -0.604352 -1.34112 0
M  V30 2038 H 196.11 0.876304 -4.07893 0
M  V30 2039 H 194.74 1.21715 -2.98974 0
M  V30 2040 H 193.792 -1.11463 -3.63703 0
M  V30 2041 H 195.104 -1.25038 -4.82874 0
M  V30 2042 H 194.258 0.784204 -6.0161 0
M  V30 2043 H 192.997 1.01008 -4.77126 0
M  V30 2044 H 192.002 -1.21796 -5.3614 0
M  V30 2045 H 193.227 -1.43145 -6.63842 0
M  V30 2046 H 191.173 0.808883 -6.50994 0
M  V30 2047 H 191.09 -0.584409 -7.53738 0
M  V30 2048 H 192.358 0.581123 -7.77331 0
M  V30 2049 N 196.587 1.43421 -0.653314 0
M  V30 2050 C 197.836 2.01032 -0.164076 0
M  V30 2051 C 198.149 1.52147 1.22926 0
M  V30 2052 O 199.355 2.02031 1.81371 0
M  V30 2053 C 197.811 3.59082 -0.24252 0
M  V30 2054 C 197.419 4.1696 -1.63855 0
M  V30 2055 C 199.163 4.24079 0.18911 0
M  V30 2056 C 197.07 5.67304 -1.67092 0
M  V30 2057 H 196 0.751798 -0.0575769 0
M  V30 2058 H 198.651 1.6439 -0.815362 0
M  V30 2059 H 197.033 3.93125 0.476276 0
M  V30 2060 H 198.207 3.94416 -2.38271 0
M  V30 2061 H 196.522 3.64335 -2.01616 0
M  V30 2062 H 199.119 5.34381 0.184775 0
M  V30 2063 H 199.462 3.98005 1.22056 0
M  V30 2064 H 199.995 3.94918 -0.477938 0
M  V30 2065 H 196.734 5.98145 -2.68146 0
M  V30 2066 H 196.254 5.91904 -0.970014 0
M  V30 2067 H 197.933 6.31344 -1.4147 0
M  V30 2068 N 198.065 0.39524 1.52563 0
M  V30 2069 C 199.476 -0.0774719 1.86539 0
M  V30 2070 C 199.827 -1.45641 1.31466 0
M  V30 2071 O 198.952 -2.06459 0.648367 0
M  V30 2072 C 199.547 -0.147356 3.38479 0
M  V30 2073 C 198.106 -0.564373 3.72145 0
M  V30 2074 C 197.253 0.269919 2.75983 0
M  V30 2075 H 200.204 0.612876 1.46388 0
M  V30 2076 H 200.225 -0.965343 3.68051 0
M  V30 2077 H 199.737 0.856387 3.78534 0
M  V30 2078 H 197.838 -1.57527 3.37663 0
M  V30 2079 H 197.951 -0.318402 4.78041 0
M  V30 2080 H 196.315 -0.265696 2.5331 0
M  V30 2081 H 197.098 1.27175 3.18875 0
M  V30 2082 N 199.544 -1.57102 0.125237 0
M  V30 2083 C 200.821 -1.86953 -0.575142 0
M  V30 2084 C 201.201 -1.02749 -1.84407 0
M  V30 2085 O 200.549 -0.108144 -2.28244 0
M  V30 2086 C 200.759 -3.38198 -0.861583 0
M  V30 2087 C 202.107 -4.06937 -1.21192 0
M  V30 2088 O 203.131 -3.43252 -0.951645 0
M  V30 2089 O 201.99 -5.19364 -1.70068 0
M  V30 2090 H 199.084 -0.774147 -0.290906 0
M  V30 2091 H 201.63 -1.68942 0.160211 0
M  V30 2092 H 200.402 -3.91282 0.0373647 0
M  V30 2093 H 200.025 -3.61661 -1.65188 0
M  V30 2094 N 201.022 0.148545 -1.56898 0
M  V30 2095 C 202.433 0.708766 -1.72723 0
M  V30 2096 C 202.784 1.81734 -0.739395 0
M  V30 2097 O 201.909 2.16194 0.0943169 0
M  V30 2098 C 202.504 1.29245 -3.13179 0
M  V30 2099 C 201.063 1.79925 -3.30611 0
M  V30 2100 C 200.21 0.687111 -2.68652 0
M  V30 2101 H 203.161 -0.0771063 -1.58513 0
M  V30 2102 H 203.182 2.16224 -3.13093 0
M  V30 2103 H 202.694 0.485382 -3.85053 0
M  V30 2104 H 200.795 2.63203 -2.63732 0
M  V30 2105 H 200.908 1.92903 -4.38549 0
M  V30 2106 H 199.272 1.11335 -2.29078 0
M  V30 2107 H 200.055 -0.108483 -3.43129 0
M  V30 2108 N 202.5 1.5196 0.417844 0
M  V30 2109 C 203.725 1.69717 1.1921 0
M  V30 2110 C 204.15 0.402148 1.83751 0
M  V30 2111 O 203.508 -0.639593 1.69643 0
M  V30 2112 C 203.556 2.82794 2.2374 0
M  V30 2113 O 202.66 2.47756 3.29683 0
M  V30 2114 H 202.001 0.565263 0.348387 0
M  V30 2115 H 204.531 1.98621 0.490985 0
M  V30 2116 H 204.541 3.07452 2.68212 0
M  V30 2117 H 203.216 3.76756 1.76146 0
M  V30 2118 H 201.793 2.33739 2.90552 0
M  V30 2119 N 203.978 -0.674533 1.42435 0
M  V30 2120 C 205.206 -1.46283 1.46317 0
M  V30 2121 C 205.621 -1.88653 0.0745836 0
M  V30 2122 O 204.978 -1.58151 -0.91074 0
M  V30 2123 C 205.029 -2.71178 2.3905 0
M  V30 2124 O 204.75 -2.30586 3.72507 0
M  V30 2125 C 206.251 -3.64738 2.51955 0
M  V30 2126 H 203.471 -0.450104 0.497642 0
M  V30 2127 H 206.015 -0.828792 1.86953 0
M  V30 2128 H 204.17 -3.3077 2.01667 0
M  V30 2129 H 204.584 -3.11241 4.22172 0
M  V30 2130 H 206.058 -4.49096 3.20962 0
M  V30 2131 H 206.535 -4.10656 1.55752 0
M  V30 2132 H 207.141 -3.11038 2.90061 0
M  V30 2133 N 205.456 -1.28612 -0.910864 0
M  V30 2134 C 206.702 -1.17116 -1.66299 0
M  V30 2135 C 207.057 0.276917 -1.90397 0
M  V30 2136 O 206.35 1.19795 -1.49532 0
M  V30 2137 C 206.544 -1.90624 -3.0232 0
M  V30 2138 C 206.373 -3.42431 -2.91498 0
M  V30 2139 C 205.143 -4.11773 -2.92867 0
M  V30 2140 C 207.341 -4.38124 -2.69355 0
M  V30 2141 N 205.323 -5.50025 -2.72664 0
M  V30 2142 C 206.694 -5.63759 -2.58023 0
M  V30 2143 C 208.749 -4.28016 -2.54375 0
M  V30 2144 C 207.452 -6.80436 -2.33238 0
M  V30 2145 C 209.478 -5.44433 -2.30969 0
M  V30 2146 C 208.84 -6.69034 -2.20394 0
M  V30 2147 H 204.939 -0.483506 -0.61461 0
M  V30 2148 H 207.523 -1.62299 -1.0755 0
M  V30 2149 H 205.694 -1.4787 -3.5915 0
M  V30 2150 H 207.426 -1.71488 -3.66571 0
M  V30 2151 H 204.181 -3.63378 -3.03732 0
M  V30 2152 H 204.605 -6.22705 -2.65646 0
M  V30 2153 H 209.247 -3.32388 -2.613 0
M  V30 2154 H 206.965 -7.7613 -2.25051 0
M  V30 2155 H 210.551 -5.38504 -2.20238 0
M  V30 2156 H 209.431 -7.57595 -2.02531 0
M  V30 2157 N 206.934 1.1197 -1.10907 0
M  V30 2158 C 207.882 2.19927 -0.757303 0
M  V30 2159 C 208.876 1.67564 0.248747 0
M  V30 2160 O 210.082 1.79672 0.108605 0
M  V30 2161 H 206.457 0.716925 -0.226987 0
M  V30 2162 H 208.428 2.46847 -1.67658 0
M  V30 2163 C 207.177 3.47061 -0.210671 0
M  V30 2164 H 206.5 3.87703 -0.976049 0
M  V30 2165 H 207.94 4.24 -0.0026584 0
M  V30 2166 C 206.399 3.19864 1.05777 0
M  V30 2167 O 206.929 3.40049 2.13845 0
M  V30 2168 N 205.135 2.73636 0.978349 0
M  V30 2169 H 204.682 2.5741 0.0988246 0
M  V30 2170 H 204.64 2.55815 1.82773 0
M  V30 2171 N 208.412 0.89855 1.29475 0
M  V30 2172 C 209.342 0.39201 2.30186 0
M  V30 2173 C 210.323 -0.532359 1.61555 0
M  V30 2174 O 211.508 -0.443331 1.89072 0
M  V30 2175 C 208.638 -0.382353 3.45189 0
M  V30 2176 C 207.592 0.451483 4.25612 0
M  V30 2177 C 206.918 -0.450307 5.328 0
M  V30 2178 C 208.218 1.70079 4.93832 0
M  V30 2179 H 209.912 1.23362 2.72804 0
M  V30 2180 H 207.458 0.594638 1.31149 0
M  V30 2181 H 209.411 -0.747451 4.14718 0
M  V30 2182 H 208.135 -1.25774 3.01411 0
M  V30 2183 H 206.794 0.798897 3.57789 0
M  V30 2184 H 206.442 -1.32379 4.85268 0
M  V30 2185 H 206.142 0.103902 5.87508 0
M  V30 2186 H 207.666 -0.811623 6.05182 0
M  V30 2187 H 209.08 1.40549 5.55805 0
M  V30 2188 H 207.477 2.19623 5.58467 0
M  V30 2189 H 208.547 2.43744 4.19186 0
M  V30 2190 N 209.89 -1.43072 0.660911 0
M  V30 2191 C 210.838 -2.32569 -0.0378199 0
M  V30 2192 C 211.832 -1.49046 -0.805092 0
M  V30 2193 O 213.038 -1.65206 -0.714624 0
M  V30 2194 H 209.413 -0.75136 -0.031019 0
M  V30 2195 H 211.384 -2.89216 0.734609 0
M  V30 2196 C 210.133 -3.33453 -0.985124 0
M  V30 2197 H 209.456 -3.97752 -0.404147 0
M  V30 2198 H 210.896 -3.98691 -1.44297 0
M  V30 2199 C 209.355 -2.64642 -2.08486 0
M  V30 2200 O 209.885 -2.46776 -3.16961 0
M  V30 2201 N 208.091 -2.23891 -1.8526 0
M  V30 2202 H 207.638 -2.38621 -0.970449 0
M  V30 2203 H 207.596 -1.78181 -2.59034 0
M  V30 2204 N 211.368 -0.403325 -1.52352 0
M  V30 2205 C 212.779 0.0675782 -1.86578 0
M  V30 2206 C 213.13 1.44941 -1.32236 0
M  V30 2207 O 212.255 2.06112 -0.659307 0
M  V30 2208 C 212.85 0.129404 -3.38553 0
M  V30 2209 C 211.409 0.544629 -3.72439 0
M  V30 2210 C 210.556 -0.284551 -2.75836 0
M  V30 2211 H 213.507 -0.620631 -1.46061 0
M  V30 2212 H 213.528 0.94581 -3.68558 0
M  V30 2213 H 213.04 -0.87645 -3.78074 0
M  V30 2214 H 211.141 1.55734 -3.38493 0
M  V30 2215 H 211.254 0.293046 -4.78203 0
M  V30 2216 H 209.618 0.252258 -2.53448 0
M  V30 2217 H 210.401 -1.28865 -3.18196 0
M  V30 2218 N 212.846 1.57033 -0.133567 0
M  V30 2219 C 214.123 1.87256 0.56522 0
M  V30 2220 C 214.503 1.03726 1.83859 0
M  V30 2221 O 213.851 0.120247 2.28183 0
M  V30 2222 C 214.061 3.3865 0.843636 0
M  V30 2223 C 215.409 4.07574 1.19032 0
M  V30 2224 O 216.433 3.43752 0.933429 0
M  V30 2225 O 215.292 5.20259 1.67312 0
M  V30 2226 H 212.386 0.775678 0.286796 0
M  V30 2227 H 214.932 1.68855 -0.169168 0
M  V30 2228 H 213.704 3.91257 -0.0581149 0
M  V30 2229 H 213.327 3.62532 1.63268 0
M  V30 2230 N 214.325 -0.140222 1.56975 0
M  V30 2231 C 215.288 -1.15689 1.97861 0
M  V30 2232 C 216.288 -1.3549 0.865974 0
M  V30 2233 O 217.478 -1.32367 1.13246 0
M  V30 2234 C 214.61 -2.51582 2.30042 0
M  V30 2235 H 215.803 -0.805971 2.88867 0
M  V30 2236 H 213.356 -0.383801 1.51515 0
M  V30 2237 H 214.091 -2.91632 1.41849 0
M  V30 2238 H 213.876 -2.38569 3.11171 0
M  V30 2239 H 215.366 -3.24792 2.62488 0
M  V30 2240 N 215.803 -1.52179 -0.40978 0
M  V30 2241 C 217.028 -1.70347 -1.18308 0
M  V30 2242 C 217.453 -0.411887 -1.83535 0
M  V30 2243 O 216.811 0.630587 -1.6998 0
M  V30 2244 C 216.859 -2.83977 -2.22238 0
M  V30 2245 O 215.963 -2.495 -3.28365 0
M  V30 2246 H 215.304 -0.567103 -0.345384 0
M  V30 2247 H 217.834 -1.98879 -0.480445 0
M  V30 2248 H 217.844 -3.0887 -2.66577 0
M  V30 2249 H 216.519 -3.77685 -1.74146 0
M  V30 2250 H 215.096 -2.35277 -2.89308 0
M  V30 2251 N 217.281 0.66697 -1.42791 0
M  V30 2252 C 218.511 1.45294 -1.46878 0
M  V30 2253 C 218.919 1.89027 -0.0809861 0
M  V30 2254 O 218.262 1.59219 0.916246 0
M  V30 2255 C 218.324 2.72908 -2.34012 0
M  V30 2256 C 217.988 2.51203 -3.81767 0
M  V30 2257 C 218.985 2.15302 -4.73224 0
M  V30 2258 C 216.67 2.65954 -4.26115 0
M  V30 2259 C 218.664 1.94431 -6.07022 0
M  V30 2260 C 216.351 2.44699 -5.59969 0
M  V30 2261 C 217.349 2.08992 -6.5024 0
M  V30 2262 O 217.037 1.87948 -7.81621 0
M  V30 2263 H 216.769 0.453306 -0.501487 0
M  V30 2264 H 219.323 0.826232 -1.88049 0
M  V30 2265 H 217.553 3.38089 -1.87703 0
M  V30 2266 H 219.242 3.34816 -2.29462 0
M  V30 2267 H 220.008 2.03495 -4.40244 0
M  V30 2268 H 215.887 2.92724 -3.56137 0
M  V30 2269 H 219.431 1.66484 -6.77443 0
M  V30 2270 H 215.328 2.56105 -5.9252 0
M  V30 2271 H 216.096 2.02483 -7.93059 0
M  V30 2272 N 218.759 1.29093 0.90403 0
M  V30 2273 C 220.005 1.16986 1.65656 0
M  V30 2274 C 220.338 -0.278925 1.92186 0
M  V30 2275 O 219.613 -1.2019 1.5292 0
M  V30 2276 C 219.896 1.97908 3.0084 0
M  V30 2277 C 219.749 3.50903 2.81403 0
M  V30 2278 C 221.068 1.80208 4.01513 0
M  V30 2279 H 218.187 0.426346 0.601164 0
M  V30 2280 H 220.829 1.58518 1.04747 0
M  V30 2281 H 218.979 1.62616 3.52829 0
M  V30 2282 H 220.651 3.96153 2.36348 0
M  V30 2283 H 218.894 3.76045 2.1627 0
M  V30 2284 H 219.565 4.02791 3.77443 0
M  V30 2285 H 222.041 2.11025 3.58619 0
M  V30 2286 H 220.917 2.39184 4.94047 0
M  V30 2287 H 221.178 0.756119 4.35586 0
M  V30 2288 N 220.237 -1.11381 1.11499 0
M  V30 2289 C 221.467 -1.86663 0.885464 0
M  V30 2290 C 221.875 -1.80464 -0.568281 0
M  V30 2291 O 221.218 -1.18445 -1.40415 0
M  V30 2292 C 221.28 -3.36337 1.26956 0
M  V30 2293 C 220.944 -3.66304 2.73259 0
M  V30 2294 C 221.941 -3.63733 3.71476 0
M  V30 2295 C 219.626 -3.9529 3.09921 0
M  V30 2296 C 221.62 -3.89725 5.04374 0
M  V30 2297 C 219.307 -4.20941 4.43004 0
M  V30 2298 C 220.305 -4.18147 5.40039 0
M  V30 2299 O 219.993 -4.43153 6.70724 0
M  V30 2300 H 219.725 -0.597114 0.316908 0
M  V30 2301 H 222.279 -1.41782 1.48617 0
M  V30 2302 H 220.509 -3.81826 0.611999 0
M  V30 2303 H 222.198 -3.92986 1.01573 0
M  V30 2304 H 222.964 -3.41389 3.44498 0
M  V30 2305 H 218.843 -3.966 2.35009 0
M  V30 2306 H 222.387 -3.8746 5.80104 0
M  V30 2307 H 218.284 -4.42761 4.69716 0
M  V30 2308 H 219.052 -4.60717 6.76522 0
M  V30 2309 N 221.715 -0.905404 -1.28997 0
M  V30 2310 C 222.945 -0.549049 -1.99171 0
M  V30 2311 C 223.353 0.87203 -1.67906 0
M  V30 2312 O 222.696 1.58796 -0.923561 0
M  V30 2313 C 222.758 -0.668306 -3.53234 0
M  V30 2314 C 222.422 -2.0574 -4.08069 0
M  V30 2315 C 223.419 -3.0292 -4.22534 0
M  V30 2316 C 221.104 -2.36833 -4.42962 0
M  V30 2317 C 223.098 -4.29314 -4.71135 0
M  V30 2318 C 220.785 -3.63467 -4.91258 0
M  V30 2319 C 221.783 -4.59522 -5.053 0
M  V30 2320 O 221.471 -5.83907 -5.52546 0
M  V30 2321 H 221.203 -0.208784 -0.64295 0
M  V30 2322 H 223.757 -1.21836 -1.65363 0
M  V30 2323 H 221.987 0.0580547 -3.86656 0
M  V30 2324 H 223.676 -0.320273 -4.04634 0
M  V30 2325 H 224.442 -2.80216 -3.95859 0
M  V30 2326 H 220.321 -1.62824 -4.31288 0
M  V30 2327 H 223.865 -5.04293 -4.8201 0
M  V30 2328 H 219.762 -3.86 -5.17372 0
M  V30 2329 H 220.53 -5.86578 -5.70849 0
M  V30 2330 N 223.193 1.4272 -0.668489 0
M  V30 2331 C 224.433 2.03497 -0.19194 0
M  V30 2332 C 224.797 1.51684 1.17712 0
M  V30 2333 O 225.998 2.04205 1.74796 0
M  V30 2334 C 224.269 3.56734 -0.218032 0
M  V30 2335 S 225.828 4.38395 0.188438 0
M  V30 2336 H 222.646 0.706542 -0.0794959 0
M  V30 2337 H 225.248 1.74563 -0.880235 0
M  V30 2338 H 223.952 3.91943 -1.2169 0
M  V30 2339 H 223.483 3.90333 0.490303 0
M  V30 2340 H 225.498 4.75345 1.42345 0
M  V30 2341 N 224.671 0.411399 1.52136 0
M  V30 2342 C 225.634 -0.401089 2.25663 0
M  V30 2343 C 226.634 -0.971732 1.28117 0
M  V30 2344 O 227.824 -0.850254 1.52041 0
M  V30 2345 C 224.956 -1.56483 3.02863 0
M  V30 2346 H 226.149 0.24295 2.98914 0
M  V30 2347 H 223.702 0.163968 1.55438 0
M  V30 2348 H 224.437 -2.24567 2.33967 0
M  V30 2349 H 224.222 -1.16211 3.74483 0
M  V30 2350 H 225.712 -2.13951 3.58629 0
M  V30 2351 N 226.149 -1.5696 0.141893 0
M  V30 2352 C 227.097 -2.17784 -0.816874 0
M  V30 2353 C 228.091 -1.1334 -1.25899 0
M  V30 2354 O 229.297 -1.316 -1.22806 0
M  V30 2355 H 225.672 -0.697278 -0.281615 0
M  V30 2356 H 227.643 -2.97087 -0.279621 0
M  V30 2357 C 226.392 -2.80983 -2.04802 0
M  V30 2358 H 225.715 -3.61062 -1.7168 0
M  V30 2359 H 227.155 -3.2705 -2.69841 0
M  V30 2360 C 225.614 -1.79228 -2.8527 0
M  V30 2361 O 226.144 -1.25962 -3.8144 0
M  V30 2362 N 224.35 -1.48647 -2.49704 0
M  V30 2363 H 223.897 -1.92155 -1.71564 0
M  V30 2364 H 223.855 -0.808115 -3.03837 0
M  V30 2365 N 227.627 0.131896 -1.57047 0
M  V30 2366 C 228.537 1.1815 -2.02676 0
M  V30 2367 C 229.553 1.46113 -0.944824 0
M  V30 2368 O 230.729 1.57485 -1.25541 0
M  V30 2369 C 227.794 2.49139 -2.41103 0
M  V30 2370 C 226.855 2.28688 -3.63318 0
M  V30 2371 C 226.088 3.53431 -3.99903 0
M  V30 2372 O 226.311 4.60223 -3.36973 0
M  V30 2373 O 225.245 3.45198 -4.93074 0
M  V30 2374 H 229.071 0.824069 -2.92306 0
M  V30 2375 H 226.656 0.341745 -1.45439 0
M  V30 2376 H 228.538 3.26338 -2.66611 0
M  V30 2377 H 227.213 2.84382 -1.54624 0
M  V30 2378 H 226.12 1.4939 -3.42977 0
M  V30 2379 H 227.453 1.98355 -4.50462 0
M  V30 2380 N 229.106 1.52395 0.401703 0
M  V30 2381 C 230.334 1.70676 1.16949 0
M  V30 2382 C 230.749 0.419503 1.8408 0
M  V30 2383 O 230.106 -0.605061 1.72178 0
M  V30 2384 C 230.157 2.84753 2.22706 0
M  V30 2385 O 229.878 4.08495 1.58314 0
M  V30 2386 C 231.379 3.14608 3.12309 0
M  V30 2387 H 228.599 0.571787 0.351142 0
M  V30 2388 H 231.143 1.98987 0.471652 0
M  V30 2389 H 229.298 2.58941 2.88147 0
M  V30 2390 H 229.712 4.72117 2.28485 0
M  V30 2391 H 231.186 3.97923 3.82572 0
M  V30 2392 H 231.663 2.28464 3.75101 0
M  V30 2393 H 232.269 3.42212 2.52529 0
M  V30 2394 N 230.584 -0.659388 1.43143 0
M  V30 2395 C 231.83 -1.42145 1.44647 0
M  V30 2396 C 232.163 -1.9408 0.0681907 0
M  V30 2397 O 231.438 -1.71899 -0.910007 0
M  V30 2398 C 231.721 -2.60735 2.48373 0
M  V30 2399 C 231.574 -2.14332 3.95451 0
M  V30 2400 C 232.893 -3.62951 2.48906 0
M  V30 2401 H 230.012 -0.51552 0.526696 0
M  V30 2402 H 232.654 -0.748069 1.74654 0
M  V30 2403 H 230.804 -3.18184 2.22916 0
M  V30 2404 H 232.476 -1.61932 4.31944 0
M  V30 2405 H 230.719 -1.4576 4.08578 0
M  V30 2406 H 231.39 -2.99583 4.63631 0
M  V30 2407 H 233.866 -3.1525 2.71582 0
M  V30 2408 H 232.742 -4.43487 3.23435 0
M  V30 2409 H 233.003 -4.15126 1.52061 0
M  V30 2410 N 232.062 -1.29571 -0.897171 0
M  V30 2411 C 233.012 -1.11539 -1.98855 0
M  V30 2412 C 233.996 -0.0340716 -1.60864 0
M  V30 2413 O 235.188 -0.256062 -1.75138 0
M  V30 2414 C 232.317 -0.796603 -3.3393 0
M  V30 2415 C 231.403 -1.91758 -3.78272 0
M  V30 2416 N 231.794 -3.16143 -3.94826 0
M  V30 2417 C 230.092 -1.81119 -4.07568 0
M  V30 2418 C 230.793 -3.89293 -4.32233 0
M  V30 2419 N 229.769 -3.17255 -4.41419 0
M  V30 2420 H 233.571 -2.05894 -2.09726 0
M  V30 2421 H 231.085 -1.20732 -1.08616 0
M  V30 2422 H 233.082 -0.648459 -4.11826 0
M  V30 2423 H 231.742 0.139003 -3.24402 0
M  V30 2424 H 232.753 -3.5157 -3.80288 0
M  V30 2425 H 229.43 -0.948461 -4.06584 0
M  V30 2426 H 230.82 -4.9635 -4.52865 0
M  V30 2427 N 233.54 1.10788 -1.12088 0
M  V30 2428 C 234.788 1.8231 -0.872205 0
M  V30 2429 C 235.109 1.85419 0.603709 0
M  V30 2430 O 234.379 1.32963 1.43867 0
M  V30 2431 H 232.959 0.675137 -0.319686 0
M  V30 2432 H 235.621 1.34068 -1.41463 0
M  V30 2433 H 234.717 2.85955 -1.25045 0
M  V30 2434 N 235.018 0.912232 1.28515 0
M  V30 2435 C 236.264 0.545405 1.95328 0
M  V30 2436 C 236.597 -0.908313 1.71649 0
M  V30 2437 O 235.872 -1.64575 1.03659 0
M  V30 2438 C 236.155 0.853483 3.4984 0
M  V30 2439 C 236.008 2.35982 3.82926 0
M  V30 2440 C 237.327 0.348589 4.38717 0
M  V30 2441 H 234.446 0.199626 0.709449 0
M  V30 2442 H 237.088 1.1412 1.5191 0
M  V30 2443 H 235.238 0.34643 3.86952 0
M  V30 2444 H 236.91 2.93738 3.55691 0
M  V30 2445 H 235.153 2.81543 3.30024 0
M  V30 2446 H 235.824 2.52593 4.90816 0
M  V30 2447 H 238.3 0.78294 4.08668 0
M  V30 2448 H 237.176 0.593242 5.45685 0
M  V30 2449 H 237.437 -0.751049 4.35674 0
M  V30 2450 N 236.496 -1.42363 0.676048 0
M  V30 2451 C 237.406 -2.346 -0.00153389 0
M  V30 2452 C 238.422 -1.5516 -0.787485 0
M  V30 2453 O 239.598 -1.87723 -0.729521 0
M  V30 2454 C 236.663 -3.33705 -0.940298 0
M  V30 2455 C 235.724 -4.29042 -0.148739 0
M  V30 2456 C 234.957 -5.23413 -1.04279 0
M  V30 2457 O 235.18 -5.22749 -2.28232 0
M  V30 2458 O 234.114 -5.99795 -0.502925 0
M  V30 2459 H 237.94 -2.94082 0.758268 0
M  V30 2460 H 235.525 -1.42888 0.436289 0
M  V30 2461 H 237.407 -3.94586 -1.47917 0
M  V30 2462 H 236.082 -2.76695 -1.67993 0
M  V30 2463 H 234.989 -3.71571 0.43427 0
M  V30 2464 H 236.322 -4.89097 0.551805 0
M  V30 2465 N 237.974 -0.419461 -1.51915 0
M  V30 2466 C 239.221 0.152939 -2.01922 0
M  V30 2467 C 239.549 1.4426 -1.30458 0
M  V30 2468 O 238.804 1.91514 -0.402593 0
M  V30 2469 C 239.103 0.437067 -3.54717 0
M  V30 2470 C 238.769 -0.764632 -4.44369 0
M  V30 2471 C 237.431 -1.09423 -4.68594 0
M  V30 2472 C 239.783 -1.56713 -4.97082 0
M  V30 2473 C 237.111 -2.22732 -5.42777 0
M  V30 2474 C 239.463 -2.69107 -5.72507 0
M  V30 2475 C 238.127 -3.02541 -5.95 0
M  V30 2476 H 237.397 0.0559644 -0.738884 0
M  V30 2477 H 240.044 -0.562998 -1.83037 0
M  V30 2478 H 238.349 1.23469 -3.71837 0
M  V30 2479 H 240.046 0.893083 -3.90928 0
M  V30 2480 H 236.636 -0.497775 -4.257 0
M  V30 2481 H 240.82 -1.32571 -4.78266 0
M  V30 2482 H 236.076 -2.48971 -5.58411 0
M  V30 2483 H 240.25 -3.31671 -6.12346 0
M  V30 2484 H 237.877 -3.90457 -6.52264 0
M  V30 2485 N 239.452 1.56882 -0.150215 0
M  V30 2486 C 240.729 1.87844 0.545327 0
M  V30 2487 C 241.109 1.0567 1.82749 0
M  V30 2488 O 240.457 0.144442 2.28043 0
M  V30 2489 C 240.667 3.39526 0.80767 0
M  V30 2490 C 242.015 4.08814 1.14703 0
M  V30 2491 O 243.039 3.44723 0.896917 0
M  V30 2492 O 241.898 5.22004 1.61784 0
M  V30 2493 H 238.992 0.778677 0.278553 0
M  V30 2494 H 241.538 1.68666 -0.187068 0
M  V30 2495 H 240.31 3.91173 -0.0996096 0
M  V30 2496 H 239.933 3.64243 1.59413 0
M  V30 2497 N 240.93 -0.123565 1.57115 0
M  V30 2498 C 242.177 -0.832153 1.84612 0
M  V30 2499 C 242.505 -1.80093 0.734627 0
M  V30 2500 O 241.76 -1.93766 -0.27442 0
M  V30 2501 C 242.059 -1.62016 3.18568 0
M  V30 2502 C 241.725 -0.796084 4.43817 0
M  V30 2503 C 240.387 -0.568816 4.77826 0
M  V30 2504 C 242.739 -0.221364 5.2073 0
M  V30 2505 C 240.067 0.243499 5.86194 0
M  V30 2506 C 242.419 0.578117 6.29953 0
M  V30 2507 C 241.083 0.815744 6.62497 0
M  V30 2508 H 240.353 -0.304507 0.675542 0
M  V30 2509 H 243 -0.0947248 1.91266 0
M  V30 2510 H 241.305 -2.42837 3.0747 0
M  V30 2511 H 243.002 -2.17231 3.37064 0
M  V30 2512 H 239.592 -0.983307 4.17168 0
M  V30 2513 H 243.776 -0.384173 4.94811 0
M  V30 2514 H 239.032 0.436871 6.09837 0
M  V30 2515 H 243.206 1.03046 6.88734 0
M  V30 2516 H 240.833 1.44701 7.46301 0
M  V30 2517 N 242.408 -1.52605 -0.393616 0
M  V30 2518 C 243.657 -1.66649 -1.13627 0
M  V30 2519 C 243.97 -0.410364 -1.91247 0
M  V30 2520 O 245.176 -0.430854 -2.68059 0
M  V30 2521 C 243.632 -2.9449 -2.06891 0
M  V30 2522 C 243.24 -4.27266 -1.34714 0
M  V30 2523 C 244.984 -3.17899 -2.81319 0
M  V30 2524 C 242.891 -5.46217 -2.26717 0
M  V30 2525 H 241.821 -0.62084 -0.427871 0
M  V30 2526 H 244.472 -1.791 -0.399428 0
M  V30 2527 H 242.854 -2.75774 -2.84191 0
M  V30 2528 H 244.028 -4.56518 -0.626714 0
M  V30 2529 H 242.343 -4.10081 -0.722643 0
M  V30 2530 H 244.94 -4.03949 -3.50328 0
M  V30 2531 H 245.283 -2.32777 -3.45139 0
M  V30 2532 H 245.816 -3.37159 -2.11113 0
M  V30 2533 H 242.555 -6.33733 -1.67521 0
M  V30 2534 H 242.075 -5.21283 -2.96689 0
M  V30 2535 H 243.754 -5.7991 -2.86903 0
M  V30 2536 N 243.887 0.651787 -1.4349 0
M  V30 2537 C 245.298 1.233 -1.40193 0
M  V30 2538 C 245.649 1.9591 -0.106727 0
M  V30 2539 O 244.774 2.01316 0.793773 0
M  V30 2540 C 245.369 2.24257 -2.53957 0
M  V30 2541 C 243.928 2.77852 -2.5392 0
M  V30 2542 C 243.075 1.52517 -2.3159 0
M  V30 2543 H 246.026 0.443717 -1.52371 0
M  V30 2544 H 246.047 3.0646 -2.25528 0
M  V30 2545 H 245.559 1.71382 -3.4821 0
M  V30 2546 H 243.66 3.34786 -1.63551 0
M  V30 2547 H 243.773 3.25299 -3.51735 0
M  V30 2548 H 242.137 1.79915 -1.80285 0
M  V30 2549 H 242.92 1.01574 -3.27929 0
M  V30 2550 N 245.365 1.30045 0.890287 0
M  V30 2551 C 246.642 1.09227 1.62262 0
M  V30 2552 C 247.022 -0.360305 2.08002 0
M  V30 2553 O 246.37 -1.35084 1.84295 0
M  V30 2554 C 246.58 2.08835 2.79623 0
M  V30 2555 C 247.928 2.40266 3.50082 0
M  V30 2556 O 248.952 2.07104 2.89804 0
M  V30 2557 O 247.811 2.96967 4.58773 0
M  V30 2558 H 244.905 0.419132 0.712922 0
M  V30 2559 H 247.451 1.41451 0.937529 0
M  V30 2560 H 246.223 3.06633 2.43089 0
M  V30 2561 H 245.846 1.77397 3.55832 0
M  V30 2562 N 246.843 -1.10192 1.12674 0
M  V30 2563 C 248.089 -1.82475 0.884915 0
M  V30 2564 C 248.422 -1.85093 -0.58773 0
M  V30 2565 O 247.697 -1.3134 -1.43457 0
M  V30 2566 C 247.98 -3.29018 1.46353 0
M  V30 2567 C 247.833 -3.34718 3.00473 0
M  V30 2568 C 249.152 -4.25473 1.12519 0
M  V30 2569 H 246.271 -0.662492 0.322915 0
M  V30 2570 H 248.913 -1.2913 1.39375 0
M  V30 2571 H 247.063 -3.74576 1.03077 0
M  V30 2572 H 248.735 -2.97622 3.52447 0
M  V30 2573 H 246.978 -2.74541 3.35872 0
M  V30 2574 H 247.649 -4.37918 3.36053 0
M  V30 2575 H 250.125 -3.88161 1.499 0
M  V30 2576 H 249.001 -5.26365 1.55663 0
M  V30 2577 H 249.262 -4.42084 0.0377407 0
M  V30 2578 N 248.321 -0.919034 -1.28029 0
M  V30 2579 C 249.268 -0.410005 -2.27129 0
M  V30 2580 C 250.238 0.518405 -1.57803 0
M  V30 2581 O 251.423 0.439451 -1.8567 0
M  V30 2582 C 248.563 0.339054 -3.4343 0
M  V30 2583 C 247.676 -0.622468 -4.27492 0
M  V30 2584 C 246.811 0.145567 -5.31001 0
M  V30 2585 C 245.85 -0.809226 -6.06727 0
M  V30 2586 N 244.987 -0.0743728 -7.02061 0
M  V30 2587 H 249.827 -1.26011 -2.70047 0
M  V30 2588 H 247.364 -0.632663 -1.328 0
M  V30 2589 H 249.322 0.789586 -4.0966 0
M  V30 2590 H 247.952 1.15346 -3.01488 0
M  V30 2591 H 247.004 -1.19153 -3.61257 0
M  V30 2592 H 248.316 -1.35252 -4.80113 0
M  V30 2593 H 247.47 0.656417 -6.03139 0
M  V30 2594 H 246.209 0.908643 -4.79161 0
M  V30 2595 H 245.214 -1.3314 -5.33436 0
M  V30 2596 H 246.439 -1.57194 -6.60656 0
M  V30 2597 H 244.385 0.670616 -6.52563 0
M  V30 2598 H 244.302 -0.744157 -7.52329 0
M  V30 2599 H 245.57 0.416109 -7.78389 0
M  V30 2600 N 249.799 1.42003 -0.683588 0
M  V30 2601 C 251.047 2.01015 -0.209101 0
M  V30 2602 C 251.368 1.54365 1.19149 0
M  V30 2603 O 250.638 0.769083 1.80172 0
M  V30 2604 H 249.218 0.743294 -0.074315 0
M  V30 2605 H 251.88 1.73798 -0.882066 0
M  V30 2606 H 250.976 3.11343 -0.2172 0
M  V30 2607 N 251.277 0.427512 1.51691 0
M  V30 2608 C 252.24 -0.377132 2.26076 0
M  V30 2609 C 253.24 -0.958089 1.29141 0
M  V30 2610 O 254.43 -0.83408 1.52934 0
M  V30 2611 C 251.562 -1.53262 3.04506 0
M  V30 2612 H 252.755 0.27464 2.9864 0
M  V30 2613 H 250.308 0.180445 1.55255 0
M  V30 2614 H 251.043 -2.22072 2.36335 0
M  V30 2615 H 250.828 -1.12232 3.75694 0
M  V30 2616 H 252.318 -2.10135 3.60878 0
M  V30 2617 N 252.755 -1.56801 0.158532 0
M  V30 2618 C 254.001 -1.96781 -0.490405 0
M  V30 2619 C 254.334 -1.04397 -1.63753 0
M  V30 2620 O 253.609 -0.0885805 -1.94298 0
M  V30 2621 C 253.892 -3.4635 -0.985594 0
M  V30 2622 C 253.745 -4.49512 0.160824 0
M  V30 2623 C 255.064 -3.98697 -1.86355 0
M  V30 2624 H 252.183 -0.715482 -0.176788 0
M  V30 2625 H 254.825 -1.88451 0.242088 0
M  V30 2626 H 252.975 -3.53579 -1.60978 0
M  V30 2627 H 254.647 -4.54353 0.797537 0
M  V30 2628 H 252.89 -4.26013 0.818256 0
M  V30 2629 H 253.561 -5.51531 -0.227569 0
M  V30 2630 H 256.037 -3.94019 -1.33746 0
M  V30 2631 H 254.913 -5.03792 -2.17909 0
M  V30 2632 H 255.174 -3.41744 -2.8047 0
M  V30 2633 N 254.233 0.115231 -1.57178 0
M  V30 2634 C 255.163 1.1423 -2.03651 0
M  V30 2635 C 256.144 1.42967 -0.921655 0
M  V30 2636 O 257.329 1.53343 -1.19162 0
M  V30 2637 C 254.459 2.4675 -2.44401 0
M  V30 2638 C 253.413 2.32467 -3.59365 0
M  V30 2639 C 252.739 3.69984 -3.86026 0
M  V30 2640 C 254.039 1.78203 -4.90959 0
M  V30 2641 H 255.733 0.755749 -2.89705 0
M  V30 2642 H 253.279 0.362093 -1.39373 0
M  V30 2643 H 255.232 3.18854 -2.75517 0
M  V30 2644 H 253.956 2.87302 -1.55322 0
M  V30 2645 H 252.615 1.62811 -3.28463 0
M  V30 2646 H 252.263 4.08028 -2.94147 0
M  V30 2647 H 251.963 3.61279 -4.63412 0
M  V30 2648 H 253.487 4.43587 -4.19599 0
M  V30 2649 H 254.901 2.40128 -5.20587 0
M  V30 2650 H 253.298 1.8031 -5.72371 0
M  V30 2651 H 254.368 0.739876 -4.79222 0
M  V30 2652 N 255.711 1.52812 0.385517 0
M  V30 2653 C 256.957 1.68275 1.13188 0
M  V30 2654 C 257.29 0.423179 1.89533 0
M  V30 2655 O 256.565 -0.579113 1.85679 0
M  V30 2656 C 256.848 2.92001 2.1073 0
M  V30 2657 C 256.701 4.28067 1.38125 0
M  V30 2658 C 258.02 3.11283 3.11113 0
M  V30 2659 H 255.139 0.612352 0.410115 0
M  V30 2660 H 257.781 1.85415 0.414869 0
M  V30 2661 H 255.931 2.77519 2.71874 0
M  V30 2662 H 257.603 4.54324 0.799187 0
M  V30 2663 H 255.846 4.28388 0.683092 0
M  V30 2664 H 256.517 5.10733 2.09417 0
M  V30 2665 H 258.993 3.2482 2.6006 0
M  V30 2666 H 257.869 3.99325 3.76605 0
M  V30 2667 H 258.13 2.25656 3.80173 0
M  V30 2668 N 257.189 -0.644168 1.43834 0
M  V30 2669 C 258.429 -1.41565 1.47441 0
M  V30 2670 C 258.793 -1.91743 0.0992723 0
M  V30 2671 O 259.994 -2.68798 0.0100192 0
M  V30 2672 C 258.265 -2.55902 2.49498 0
M  V30 2673 S 259.824 -3.44287 2.72051 0
M  V30 2674 H 256.642 -0.483118 0.521649 0
M  V30 2675 H 259.244 -0.747008 1.80666 0
M  V30 2676 H 257.948 -2.17327 3.48134 0
M  V30 2677 H 257.479 -3.27607 2.17801 0
M  V30 2678 H 259.494 -4.52927 2.0266 0
M  V30 2679 N 258.668 -1.30515 -0.883378 0
M  V30 2680 C 259.945 -1.10086 -1.6168 0
M  V30 2681 C 260.325 0.349269 -2.08191 0
M  V30 2682 O 259.673 1.34105 -1.85008 0
M  V30 2683 C 259.883 -2.10315 -2.78511 0
M  V30 2684 C 261.231 -2.42119 -3.48803 0
M  V30 2685 O 262.255 -2.08638 -2.88702 0
M  V30 2686 O 261.114 -2.99396 -4.57192 0
M  V30 2687 H 258.208 -0.422907 -0.710689 0
M  V30 2688 H 260.754 -1.41947 -0.930015 0
M  V30 2689 H 259.526 -3.07917 -2.41459 0
M  V30 2690 H 259.149 -1.79282 -3.54886 0
M  V30 2691 N 260.146 1.09593 -1.13257 0
M  V30 2692 C 261.079 2.15451 -0.752061 0
M  V30 2693 C 262.057 1.60493 0.260913 0
M  V30 2694 O 263.241 1.8788 0.152819 0
M  V30 2695 C 260.368 3.38506 -0.114594 0
M  V30 2696 C 259.414 4.12183 -1.09579 0
M  V30 2697 S 260.247 4.6661 -2.62745 0
M  V30 2698 C 261.403 5.92966 -2.00354 0
M  V30 2699 H 261.636 2.47395 -1.64872 0
M  V30 2700 H 259.169 1.21515 -0.952545 0
M  V30 2701 H 261.127 4.09757 0.246808 0
M  V30 2702 H 259.788 3.04784 0.759309 0
M  V30 2703 H 258.981 5.00445 -0.597545 0
M  V30 2704 H 258.583 3.46785 -1.40057 0
M  V30 2705 H 260.875 6.63882 -1.35156 0
M  V30 2706 H 261.818 6.47467 -2.86691 0
M  V30 2707 H 262.226 5.45405 -1.4558 0
M  V30 2708 N 261.624 0.925811 1.2754 0
M  V30 2709 C 262.849 0.580924 1.99098 0
M  V30 2710 C 263.274 -0.833555 1.68622 0
M  V30 2711 O 262.632 -1.55903 0.925422 0
M  V30 2712 C 262.68 0.811186 3.51358 0
M  V30 2713 O 261.784 -0.124129 4.12213 0
M  V30 2714 H 261.125 0.223873 0.625122 0
M  V30 2715 H 263.655 1.24455 1.62395 0
M  V30 2716 H 263.665 0.72601 4.01489 0
M  V30 2717 H 262.34 1.84227 3.72872 0
M  V30 2718 H 260.917 0.0108006 3.72898 0
M  V30 2719 N 263.102 -1.41638 0.69111 0
M  V30 2720 C 264.327 -2.06148 0.227583 0
M  V30 2721 C 264.752 -1.51652 -1.11281 0
M  V30 2722 O 264.11 -0.64164 -1.69566 0
M  V30 2723 C 264.158 -3.60095 0.190858 0
M  V30 2724 O 263.262 -4.03845 -0.835664 0
M  V30 2725 H 262.603 -0.654434 0.112306 0
M  V30 2726 H 265.133 -1.81484 0.944714 0
M  V30 2727 H 265.143 -4.07995 0.020207 0
M  V30 2728 H 263.818 -3.99129 1.16915 0
M  V30 2729 H 262.395 -3.67458 -0.63473 0
M  V30 2730 N 264.58 -0.43555 -1.51462 0
M  V30 2731 C 265.528 0.391205 -2.29287 0
M  V30 2732 C 266.522 1.02247 -1.35062 0
M  V30 2733 O 267.728 0.957646 -1.52411 0
M  V30 2734 H 264.103 0.144968 -0.737895 0
M  V30 2735 H 266.074 -0.286051 -2.97026 0
M  V30 2736 C 264.823 1.48096 -3.14583 0
M  V30 2737 H 264.146 1.00457 -3.86973 0
M  V30 2738 H 265.586 2.03273 -3.72097 0
M  V30 2739 C 264.045 2.46321 -2.29843 0
M  V30 2740 O 264.575 3.50815 -1.95682 0
M  V30 2741 N 262.781 2.17166 -1.931 0
M  V30 2742 H 262.328 1.32218 -2.21079 0
M  V30 2743 H 262.286 2.83127 -1.36698 0
M  V30 2744 N 266.058 1.56714 -0.166846 0
M  V30 2745 C 267.305 1.96747 0.479252 0
M  V30 2746 C 267.633 1.05263 1.63554 0
M  V30 2747 O 266.888 0.0858098 1.95512 0
M  V30 2748 C 267.187 3.42889 1.00806 0
M  V30 2749 C 266.853 4.50889 -0.0318574 0
M  V30 2750 C 265.515 4.8015 -0.317675 0
M  V30 2751 C 267.867 5.15949 -0.737956 0
M  V30 2752 C 265.195 5.71772 -1.31506 0
M  V30 2753 C 267.547 6.08647 -1.72429 0
M  V30 2754 C 266.211 6.36277 -2.0176 0
M  V30 2755 H 265.481 0.719949 0.175371 0
M  V30 2756 H 268.128 1.89756 -0.257864 0
M  V30 2757 H 266.433 3.4681 1.82291 0
M  V30 2758 H 268.13 3.71203 1.51689 0
M  V30 2759 H 264.72 4.28128 0.201088 0
M  V30 2760 H 268.904 4.93458 -0.530351 0
M  V30 2761 H 264.16 5.91465 -1.54853 0
M  V30 2762 H 268.334 6.58129 -2.27682 0
M  V30 2763 H 265.961 7.07075 -2.79194 0
M  V30 2764 N 267.536 -0.106894 1.57237 0
M  V30 2765 C 268.466 -1.13148 2.04254 0
M  V30 2766 C 269.447 -1.42476 0.929224 0
M  V30 2767 O 270.632 -1.52709 1.19973 0
M  V30 2768 C 267.762 -2.4545 2.45706 0
M  V30 2769 C 266.716 -2.30558 3.60592 0
M  V30 2770 C 266.042 -3.67931 3.87983 0
M  V30 2771 C 267.342 -1.75597 4.91897 0
M  V30 2772 H 269.036 -0.740374 2.90101 0
M  V30 2773 H 266.582 -0.354696 1.39563 0
M  V30 2774 H 268.535 -3.17389 2.77205 0
M  V30 2775 H 267.259 -2.86475 1.56843 0
M  V30 2776 H 265.918 -1.61067 3.29322 0
M  V30 2777 H 265.566 -4.06462 2.96306 0
M  V30 2778 H 265.266 -3.58817 4.65322 0
M  V30 2779 H 266.79 -4.41356 4.21945 0
M  V30 2780 H 268.204 -2.37364 5.21854 0
M  V30 2781 H 266.601 -1.77272 5.73319 0
M  V30 2782 H 267.671 -0.714451 4.79608 0
M  V30 2783 N 269.014 -1.53014 -0.377408 0
M  V30 2784 C 270.239 -1.72818 -1.14668 0
M  V30 2785 C 270.664 -0.450725 -1.8262 0
M  V30 2786 O 270.022 0.59439 -1.7128 0
M  V30 2787 C 270.07 -2.88627 -2.16164 0
M  V30 2788 O 269.174 -2.56409 -3.22998 0
M  V30 2789 H 268.515 -0.574301 -0.333278 0
M  V30 2790 H 271.045 -1.99853 -0.438152 0
M  V30 2791 H 271.055 -3.14455 -2.59966 0
M  V30 2792 H 269.73 -3.81294 -1.66095 0
M  V30 2793 H 268.307 -2.4136 -2.84253 0
M  V30 2794 N 270.492 0.636531 -1.44174 0
M  V30 2795 C 271.439 1.74875 -1.50624 0
M  V30 2796 C 272.409 1.62275 -0.35442 0
M  V30 2797 O 273.594 1.82276 -0.563908 0
M  V30 2798 C 270.734 3.13102 -1.45125 0
M  V30 2799 C 269.847 3.36717 -2.7064 0
M  V30 2800 C 268.982 4.64885 -2.57013 0
M  V30 2801 C 268.021 4.8166 -3.77717 0
M  V30 2802 N 267.158 6.01101 -3.62798 0
M  V30 2803 H 271.998 1.68697 -2.45653 0
M  V30 2804 H 269.535 0.823004 -1.21922 0
M  V30 2805 H 271.493 3.93034 -1.39929 0
M  V30 2806 H 270.123 3.18308 -0.536671 0
M  V30 2807 H 269.175 2.50763 -2.86046 0
M  V30 2808 H 270.487 3.44993 -3.60252 0
M  V30 2809 H 269.641 5.52969 -2.49619 0
M  V30 2810 H 268.38 4.58957 -1.64953 0
M  V30 2811 H 267.385 3.92007 -3.85501 0
M  V30 2812 H 268.61 4.89406 -4.70807 0
M  V30 2813 H 266.556 5.96273 -2.73486 0
M  V30 2814 H 266.473 6.10409 -4.46023 0
M  V30 2815 H 267.741 6.91761 -3.59286 0
M  V30 2816 N 271.97 1.30982 0.876444 0
M  V30 2817 C 273.381 1.18277 1.44456 0
M  V30 2818 C 273.732 -0.213265 1.95037 0
M  V30 2819 O 272.857 -1.11057 1.85729 0
M  V30 2820 C 273.452 2.1411 2.62569 0
M  V30 2821 C 272.011 2.05358 3.15444 0
M  V30 2822 C 271.158 2.03706 1.88146 0
M  V30 2823 H 274.109 1.43127 0.685584 0
M  V30 2824 H 274.13 1.72692 3.39054 0
M  V30 2825 H 273.642 3.15706 2.25724 0
M  V30 2826 H 271.743 1.06934 3.56926 0
M  V30 2827 H 271.856 2.94156 3.78166 0
M  V30 2828 H 270.22 1.48629 2.06837 0
M  V30 2829 H 271.003 3.07047 1.53547 0
M  V30 2830 N 273.449 -1.08991 1.13837 0
M  V30 2831 C 274.695 -1.81526 0.90422 0
M  V30 2832 C 275.028 -1.85706 -0.568066 0
M  V30 2833 O 274.303 -1.32855 -1.42056 0
M  V30 2834 C 274.586 -3.27447 1.49835 0
M  V30 2835 C 274.439 -3.31512 3.04006 0
M  V30 2836 C 275.758 -4.24256 1.17025 0
M  V30 2837 H 272.877 -0.659029 0.329923 0
M  V30 2838 H 275.519 -1.27644 1.40737 0
M  V30 2839 H 273.669 -3.73462 1.07044 0
M  V30 2840 H 275.341 -2.93867 3.55584 0
M  V30 2841 H 273.584 -2.70963 3.38765 0
M  V30 2842 H 274.255 -4.34329 3.40679 0
M  V30 2843 H 276.731 -3.86549 1.54009 0
M  V30 2844 H 275.607 -5.24684 1.61237 0
M  V30 2845 H 275.868 -4.42019 0.0846274 0
M  V30 2846 N 274.927 -0.932562 -1.27047 0
M  V30 2847 C 276.204 -0.49377 -1.89265 0
M  V30 2848 C 276.584 1.02833 -1.8436 0
M  V30 2849 O 275.932 1.88461 -1.29209 0
M  V30 2850 C 276.142 -1.04536 -3.32976 0
M  V30 2851 C 277.49 -1.10879 -4.09867 0
M  V30 2852 O 278.514 -0.995327 -3.42011 0
M  V30 2853 O 277.373 -1.28417 -5.31198 0
M  V30 2854 H 274.467 -0.159596 -0.811454 0
M  V30 2855 H 277.013 -1.02457 -1.3528 0
M  V30 2856 H 275.785 -2.08913 -3.30864 0
M  V30 2857 H 275.408 -0.496494 -3.94488 0
M  V30 2858 N 276.405 1.4127 -0.698611 0
M  V30 2859 C 277.651 2.01478 -0.231207 0
M  V30 2860 C 277.984 1.55215 1.16713 0
M  V30 2861 O 277.259 0.764672 1.78838 0
M  V30 2862 C 277.542 3.58912 -0.292281 0
M  V30 2863 C 277.395 4.15293 -1.72778 0
M  V30 2864 C 278.714 4.38736 0.346194 0
M  V30 2865 H 275.833 0.732025 -0.0854878 0
M  V30 2866 H 278.475 1.67977 -0.887906 0
M  V30 2867 H 276.625 3.87582 0.26686 0
M  V30 2868 H 278.297 3.97486 -2.341 0
M  V30 2869 H 276.54 3.7022 -2.26096 0
M  V30 2870 H 277.211 5.24452 -1.72202 0
M  V30 2871 H 279.687 4.15897 -0.130035 0
M  V30 2872 H 278.563 5.48221 0.272932 0
M  V30 2873 H 278.824 4.18425 1.42734 0
M  V30 2874 N 277.883 0.443576 1.51229 0
M  V30 2875 C 279.108 -0.121648 2.07043 0
M  V30 2876 C 279.533 -1.35156 1.30823 0
M  V30 2877 O 278.891 -1.7793 0.347934 0
M  V30 2878 C 278.939 -0.41624 3.5819 0
M  V30 2879 O 278.043 -1.50163 3.8409 0
M  V30 2880 H 277.384 0.000871367 0.663999 0
M  V30 2881 H 279.914 0.626706 1.94765 0
M  V30 2882 H 279.924 -0.664867 4.02546 0
M  V30 2883 H 278.599 0.482653 4.1309 0
M  V30 2884 H 277.176 -1.24248 3.51592 0
M  V30 2885 N 279.361 -1.56624 0.175154 0
M  V30 2886 C 280.308 -2.18149 -0.753634 0
M  V30 2887 C 281.278 -1.12265 -1.22417 0
M  V30 2888 O 282.463 -1.40432 -1.29165 0
M  V30 2889 C 279.603 -2.82933 -1.97592 0
M  V30 2890 C 278.716 -4.03289 -1.5486 0
M  V30 2891 C 277.851 -4.55988 -2.72485 0
M  V30 2892 C 276.89 -5.68746 -2.26262 0
M  V30 2893 N 276.027 -6.15938 -3.36994 0
M  V30 2894 H 280.867 -2.9717 -0.222195 0
M  V30 2895 H 278.404 -1.46774 -0.0979422 0
M  V30 2896 H 280.362 -3.18653 -2.69288 0
M  V30 2897 H 278.992 -2.06509 -2.481 0
M  V30 2898 H 278.044 -3.73364 -0.728246 0
M  V30 2899 H 279.356 -4.849 -1.16933 0
M  V30 2900 H 278.51 -4.9391 -3.52332 0
M  V30 2901 H 277.249 -3.73443 -3.13674 0
M  V30 2902 H 276.254 -5.30372 -1.44863 0
M  V30 2903 H 277.479 -6.53095 -1.86127 0
M  V30 2904 H 275.425 -5.36321 -3.77751 0
M  V30 2905 H 275.342 -6.92548 -3.03172 0
M  V30 2906 H 276.61 -6.58511 -4.17114 0
M  V30 2907 N 280.839 0.0985539 -1.57292 0
M  V30 2908 C 282.086 0.802678 -1.85912 0
M  V30 2909 C 282.414 1.78901 -0.763186 0
M  V30 2910 O 281.669 1.94178 0.243559 0
M  V30 2911 C 281.968 1.56927 -3.21105 0
M  V30 2912 C 281.634 0.725376 -4.45027 0
M  V30 2913 C 280.296 0.492726 -4.78671 0
M  V30 2914 C 282.648 0.138493 -5.21016 0
M  V30 2915 C 279.976 -0.336727 -5.85733 0
M  V30 2916 C 282.328 -0.678264 -6.28953 0
M  V30 2917 C 280.992 -0.921039 -6.61115 0
M  V30 2918 H 280.262 0.293721 -0.680301 0
M  V30 2919 H 282.909 0.0642841 -1.91392 0
M  V30 2920 H 281.214 2.37914 -3.11294 0
M  V30 2921 H 282.911 2.11841 -3.40477 0
M  V30 2922 H 279.501 0.916815 -4.18679 0
M  V30 2923 H 283.685 0.305404 -4.95359 0
M  V30 2924 H 278.941 -0.533836 -6.09065 0
M  V30 2925 H 283.115 -1.1399 -6.87007 0
M  V30 2926 H 280.742 -1.56556 -7.43905 0
M  V30 2927 N 282.317 1.53212 0.369288 0
M  V30 2928 C 283.565 1.68881 1.11012 0
M  V30 2929 C 283.886 0.441285 1.89941 0
M  V30 2930 O 283.156 -0.544623 1.88177 0
M  V30 2931 H 281.736 0.622569 0.412816 0
M  V30 2932 H 284.398 1.90391 0.416802 0
M  V30 2933 H 283.494 2.54822 1.80201 0
M  V30 2934 N 283.795 -0.628877 1.44509 0
M  V30 2935 C 285.041 -1.39045 1.47629 0
M  V30 2936 C 285.374 -1.93892 0.109343 0
M  V30 2937 O 284.649 -1.7379 -0.87334 0
M  V30 2938 C 284.932 -2.55408 2.53848 0
M  V30 2939 C 284.785 -2.05896 3.99909 0
M  V30 2940 C 286.104 -3.5759 2.56549 0
M  V30 2941 H 283.223 -0.504232 0.537512 0
M  V30 2942 H 285.865 -0.710854 1.76201 0
M  V30 2943 H 284.015 -3.13384 2.29615 0
M  V30 2944 H 285.687 -1.52734 4.35282 0
M  V30 2945 H 283.93 -1.37061 4.11578 0
M  V30 2946 H 284.601 -2.89681 4.69882 0
M  V30 2947 H 287.077 -3.09419 2.78207 0
M  V30 2948 H 285.953 -4.36527 3.32769 0
M  V30 2949 H 286.214 -4.11808 1.60832 0
M  V30 2950 N 285.273 -1.31445 -0.869486 0
M  V30 2951 C 286.522 -1.20517 -1.61736 0
M  V30 2952 C 286.835 0.235341 -1.94179 0
M  V30 2953 O 288.041 0.466312 -2.67465 0
M  V30 2954 C 286.497 -2.10982 -2.91573 0
M  V30 2955 C 286.105 -3.60032 -2.66611 0
M  V30 2956 C 287.849 -2.08856 -3.69567 0
M  V30 2957 C 285.756 -4.42503 -3.92358 0
M  V30 2958 H 284.686 -0.447493 -0.606849 0
M  V30 2959 H 287.337 -1.56303 -0.96133 0
M  V30 2960 H 285.719 -1.68095 -3.58553 0
M  V30 2961 H 286.893 -4.11167 -2.08035 0
M  V30 2962 H 285.208 -3.64139 -2.0197 0
M  V30 2963 H 287.805 -2.67716 -4.62852 0
M  V30 2964 H 288.148 -1.07582 -4.02159 0
M  V30 2965 H 288.681 -2.49945 -3.09471 0
M  V30 2966 H 285.42 -5.44533 -3.64916 0
M  V30 2967 H 284.94 -3.96125 -4.50383 0
M  V30 2968 H 286.619 -4.54741 -4.60238 0
M  V30 2969 N 286.751 1.08385 -1.14413 0
M  V30 2970 C 287.998 1.80776 -0.912482 0
M  V30 2971 C 288.326 1.86236 0.560934 0
M  V30 2972 O 287.581 1.33431 1.43159 0
M  V30 2973 C 287.88 3.26273 -1.45879 0
M  V30 2974 C 287.546 3.4093 -2.95089 0
M  V30 2975 C 286.208 3.44638 -3.35824 0
M  V30 2976 C 288.56 3.44591 -3.91033 0
M  V30 2977 C 285.888 3.49597 -4.71167 0
M  V30 2978 C 288.24 3.51086 -5.26233 0
M  V30 2979 C 286.904 3.53067 -5.6648 0
M  V30 2980 H 286.174 0.661507 -0.333901 0
M  V30 2981 H 288.821 1.27613 -1.42784 0
M  V30 2982 H 287.126 3.82146 -0.864376 0
M  V30 2983 H 288.823 3.80839 -1.2555 0
M  V30 2984 H 285.413 3.38736 -2.62594 0
M  V30 2985 H 289.597 3.40957 -3.60641 0
M  V30 2986 H 284.853 3.49424 -5.0171 0
M  V30 2987 H 289.027 3.52864 -6.00383 0
M  V30 2988 H 286.654 3.56662 -6.71339 0
M  V30 2989 N 288.23 0.939286 1.26551 0
M  V30 2990 C 289.193 0.451987 2.24699 0
M  V30 2991 C 290.193 -0.435869 1.5478 0
M  V30 2992 O 291.383 -0.235314 1.72603 0
M  V30 2993 C 288.515 -0.348801 3.39111 0
M  V30 2994 H 289.708 1.3193 2.69322 0
M  V30 2995 H 287.261 0.721072 1.38673 0
M  V30 2996 H 287.996 -1.23444 2.99887 0
M  V30 2997 H 287.781 0.287945 3.91041 0
M  V30 2998 H 289.271 -0.679726 4.12031 0
M  V30 2999 N 289.708 -1.40897 0.706093 0
M  V30 3000 C 290.956 -2.00657 0.241054 0
M  V30 3001 C 291.277 -1.56241 -1.16678 0
M  V30 3002 O 290.547 -0.79765 -1.78926 0
M  V30 3003 H 289.127 -0.742018 0.0861308 0
M  V30 3004 H 291.789 -1.72372 0.909604 0
M  V30 3005 H 290.885 -3.10958 0.266705 0
M  V30 3006 N 291.186 -0.45159 -1.50991 0
M  V30 3007 C 292.149 0.341117 -2.26647 0
M  V30 3008 C 293.149 0.937422 -1.30649 0
M  V30 3009 O 294.339 0.809644 -1.54241 0
M  V30 3010 C 291.471 1.48398 -3.06905 0
M  V30 3011 H 292.664 -0.322117 -2.98165 0
M  V30 3012 H 290.217 -0.205122 -1.54948 0
M  V30 3013 H 290.952 2.18284 -2.39838 0
M  V30 3014 H 290.737 1.06241 -3.77432 0
M  V30 3015 H 292.227 2.04367 -3.64176 0
M  V30 3016 N 292.664 1.56529 -0.183458 0
M  V30 3017 C 293.596 2.15747 0.773697 0
M  V30 3018 C 294.609 1.1162 1.1851 0
M  V30 3019 O 295.798 1.3876 1.12285 0
M  V30 3020 C 292.898 2.6952 2.05456 0
M  V30 3021 C 292.071 3.98429 1.8048 0
M  V30 3022 C 291.13 4.37145 2.92901 0
M  V30 3023 O 290.156 5.04791 2.6301 0
M  V30 3024 N 291.358 3.99695 4.2098 0
M  V30 3025 H 294.123 2.98505 0.26736 0
M  V30 3026 H 291.684 1.619 -0.0010878 0
M  V30 3027 H 293.676 2.92412 2.79781 0
M  V30 3028 H 292.246 1.91282 2.47245 0
M  V30 3029 H 291.466 3.8379 0.899947 0
M  V30 3030 H 292.754 4.82597 1.61175 0
M  V30 3031 H 292.152 3.4526 4.48121 0
M  V30 3032 H 290.709 4.27562 4.9197 0
M  V30 3033 N 294.142 -0.090211 1.57342 0
M  V30 3034 C 295.089 -1.10909 2.02405 0
M  V30 3035 C 296.059 -1.39523 0.901252 0
M  V30 3036 O 297.244 -1.50903 1.1676 0
M  V30 3037 C 294.384 -2.42277 2.45755 0
M  V30 3038 C 293.497 -2.20352 3.71576 0
M  V30 3039 C 292.632 -3.45154 4.03785 0
M  V30 3040 C 291.671 -3.18512 5.22701 0
M  V30 3041 N 290.808 -4.35593 5.50639 0
M  V30 3042 H 295.648 -0.71782 2.89225 0
M  V30 3043 H 293.185 -0.342901 1.43048 0
M  V30 3044 H 295.143 -3.18951 2.68935 0
M  V30 3045 H 293.773 -2.79242 1.61938 0
M  V30 3046 H 292.825 -1.34458 3.55844 0
M  V30 3047 H 294.137 -1.96661 4.58395 0
M  V30 3048 H 293.291 -4.30233 4.27767 0
M  V30 3049 H 292.03 -3.71904 3.15498 0
M  V30 3050 H 291.035 -2.31827 4.98534 0
M  V30 3051 H 292.26 -2.93103 6.12591 0
M  V30 3052 H 290.206 -4.6241 4.6531 0
M  V30 3053 H 290.123 -4.1511 6.31838 0
M  V30 3054 H 291.391 -5.21723 5.7916 0
M  V30 3055 N 295.62 -1.53406 -0.361157 0
M  V30 3056 C 296.568 -1.80832 -1.46296 0
M  V30 3057 C 297.562 -0.677699 -1.55253 0
M  V30 3058 O 298.768 -0.860723 -1.58087 0
M  V30 3059 H 295.143 -0.572627 -0.487445 0
M  V30 3060 H 297.114 -2.73045 -1.20371 0
M  V30 3061 C 295.863 -2.01907 -2.8307 0
M  V30 3062 H 295.186 -2.88349 -2.76938 0
M  V30 3063 H 296.626 -2.25072 -3.59331 0
M  V30 3064 C 295.085 -0.799449 -3.27277 0
M  V30 3065 O 295.615 0.00971761 -4.01699 0
M  V30 3066 N 293.821 -0.621637 -2.83873 0
M  V30 3067 H 293.368 -1.28126 -2.23476 0
M  V30 3068 H 293.326 0.19298 -3.13807 0
M  V30 3069 N 297.098 0.621204 -1.44841 0
M  V30 3070 C 298.344 1.3826 -1.48365 0
M  V30 3071 C 298.677 1.93831 -0.119624 0
M  V30 3072 O 297.952 1.74251 0.864111 0
M  V30 3073 C 298.235 2.54058 -2.55199 0
M  V30 3074 C 298.088 2.03772 -4.00995 0
M  V30 3075 C 299.407 3.56225 -2.58442 0
M  V30 3076 H 296.526 0.501374 -0.540179 0
M  V30 3077 H 299.168 0.7015 -1.76576 0
M  V30 3078 H 297.318 3.12162 -2.31274 0
M  V30 3079 H 298.99 1.50423 -4.36086 0
M  V30 3080 H 297.233 1.34876 -4.12299 0
M  V30 3081 H 297.904 2.87185 -4.71411 0
M  V30 3082 H 300.38 3.07939 -2.79844 0
M  V30 3083 H 299.256 4.34756 -3.3508 0
M  V30 3084 H 299.517 4.10949 -1.63013 0
M  V30 3085 N 298.576 1.31904 0.862503 0
M  V30 3086 C 299.824 1.21776 1.61292 0
M  V30 3087 C 300.145 -0.222413 1.93727 0
M  V30 3088 O 299.415 -1.1451 1.58947 0
M  V30 3089 H 297.995 0.447717 0.597962 0
M  V30 3090 H 300.657 1.65326 1.03215 0
M  V30 3091 H 299.753 1.7948 2.5533 0
M  V30 3092 N 300.054 -1.07777 1.14986 0
M  V30 3093 C 301.279 -1.84558 0.946213 0
M  V30 3094 C 301.704 -1.81323 -0.500362 0
M  V30 3095 O 301.062 -1.20301 -1.35637 0
M  V30 3096 C 301.11 -3.29736 1.45968 0
M  V30 3097 O 300.214 -4.07149 0.65601 0
M  V30 3098 H 299.555 -0.571641 0.33782 0
M  V30 3099 H 302.085 -1.35991 1.52865 0
M  V30 3100 H 302.095 -3.80574 1.47063 0
M  V30 3101 H 300.77 -3.31406 2.51283 0
M  V30 3102 H 299.347 -3.65994 0.714322 0
M  V30 3103 N 301.532 -0.945985 -1.26051 0
M  V30 3104 C 302.495 -0.463897 -2.24456 0
M  V30 3105 C 303.495 0.427655 -1.55009 0
M  V30 3106 O 304.685 0.226157 -1.72726 0
M  V30 3107 C 301.817 0.330812 -3.39291 0
M  V30 3108 H 303.01 -1.33357 -2.68619 0
M  V30 3109 H 300.563 -0.728416 -1.38289 0
M  V30 3110 H 301.298 1.21852 -3.00537 0
M  V30 3111 H 301.083 -0.308679 -3.90883 0
M  V30 3112 H 302.573 0.657865 -4.12386 0
M  V30 3113 N 303.011 1.40521 -0.713556 0
M  V30 3114 C 304.259 2.00527 -0.251692 0
M  V30 3115 C 304.58 1.56857 1.15848 0
M  V30 3116 O 303.85 0.807127 1.785 0
M  V30 3117 H 302.43 0.741551 -0.0900646 0
M  V30 3118 H 305.092 1.71887 -0.918733 0
M  V30 3119 H 304.188 3.10813 -0.283192 0
M  V30 3120 N 304.489 0.459591 1.5075 0
M  V30 3121 C 305.735 -0.0994966 2.02556 0
M  V30 3122 C 306.068 -1.40399 1.3417 0
M  V30 3123 O 305.343 -1.88892 0.463683 0
M  V30 3124 C 305.626 -0.295242 3.58888 0
M  V30 3125 C 305.479 1.02947 4.37861 0
M  V30 3126 C 306.798 -1.05502 4.27267 0
M  V30 3127 H 303.917 -0.034686 0.736183 0
M  V30 3128 H 306.559 0.602938 1.8018 0
M  V30 3129 H 304.709 -0.893563 3.78084 0
M  V30 3130 H 306.381 1.66348 4.30263 0
M  V30 3131 H 304.624 1.62885 4.02058 0
M  V30 3132 H 305.295 0.846281 5.45474 0
M  V30 3133 H 307.771 -0.547993 4.12476 0
M  V30 3134 H 306.647 -1.16077 5.36486 0
M  V30 3135 H 306.908 -2.08875 3.89645 0
M  V30 3136 N 305.967 -1.56429 0.191757 0
M  V30 3137 C 307.195 -2.01867 -0.453586 0
M  V30 3138 C 307.61 -1.07191 -1.5542 0
M  V30 3139 O 306.967 -0.0762108 -1.82341 0
M  V30 3140 C 307.018 -3.47017 -1.013 0
M  V30 3141 O 306.739 -4.38078 0.0437005 0
M  V30 3142 C 308.24 -4.07956 -1.73456 0
M  V30 3143 H 305.46 -0.661211 -0.114199 0
M  V30 3144 H 308.004 -2.02295 0.299483 0
M  V30 3145 H 306.159 -3.47298 -1.71647 0
M  V30 3146 H 306.573 -5.23178 -0.372212 0
M  V30 3147 H 308.047 -5.1138 -2.07833 0
M  V30 3148 H 308.524 -3.51222 -2.63704 0
M  V30 3149 H 309.13 -4.11437 -1.07702 0
M  V30 3150 N 307.445 0.0818655 -1.57387 0
M  V30 3151 C 308.691 0.784074 -1.8703 0
M  V30 3152 C 309.024 1.77729 -0.782689 0
M  V30 3153 O 308.299 1.93384 0.208051 0
M  V30 3154 C 308.582 1.50105 -3.27323 0
M  V30 3155 C 308.435 0.524925 -4.46727 0
M  V30 3156 C 309.754 2.44843 -3.65705 0
M  V30 3157 H 306.873 0.283582 -0.680257 0
M  V30 3158 H 309.515 0.0474352 -1.89941 0
M  V30 3159 H 307.665 2.12897 -3.24972 0
M  V30 3160 H 309.337 -0.0970111 -4.61198 0
M  V30 3161 H 307.58 -0.160606 -4.33503 0
M  V30 3162 H 308.251 1.064 -5.41648 0
M  V30 3163 H 310.727 1.92135 -3.69085 0
M  V30 3164 H 309.603 2.92018 -4.64776 0
M  V30 3165 H 309.864 3.29197 -2.95096 0
M  V30 3166 N 308.923 1.53595 0.353017 0
M  V30 3167 C 310.169 1.70638 1.09593 0
M  V30 3168 C 310.502 0.463286 1.88593 0
M  V30 3169 O 309.777 -0.539597 1.86865 0
M  V30 3170 C 310.06 2.96406 2.04489 0
M  V30 3171 C 309.913 4.30901 1.29014 0
M  V30 3172 C 311.232 3.17812 3.0444 0
M  V30 3173 H 308.351 0.620913 0.397034 0
M  V30 3174 H 310.993 1.86254 0.375446 0
M  V30 3175 H 309.143 2.83223 2.65927 0
M  V30 3176 H 310.815 4.55917 0.702638 0
M  V30 3177 H 309.058 4.29741 0.592071 0
M  V30 3178 H 309.729 5.1506 1.98537 0
M  V30 3179 H 312.205 3.30263 2.53112 0
M  V30 3180 H 311.081 4.07223 3.6805 0
M  V30 3181 H 311.342 2.33669 3.75301 0
M  V30 3182 N 310.401 -0.613514 1.45168 0
M  V30 3183 C 311.65 -1.36874 1.4815 0
M  V30 3184 C 311.963 -1.952 0.124982 0
M  V30 3185 O 313.169 -2.71481 0.0324176 0
M  V30 3186 C 311.625 -2.47905 2.60904 0
M  V30 3187 C 311.233 -1.96016 4.02842 0
M  V30 3188 C 312.977 -3.24965 2.73126 0
M  V30 3189 C 310.884 -3.04494 5.06988 0
M  V30 3190 H 309.814 -0.514428 0.551253 0
M  V30 3191 H 312.465 -0.658182 1.7129 0
M  V30 3192 H 310.847 -3.21618 2.31037 0
M  V30 3193 H 312.021 -1.29051 4.4236 0
M  V30 3194 H 310.336 -1.31719 3.95018 0
M  V30 3195 H 312.933 -4.05865 3.48106 0
M  V30 3196 H 313.276 -3.75588 1.79553 0
M  V30 3197 H 313.809 -2.5835 3.0249 0
M  V30 3198 H 310.548 -2.58795 6.0225 0
M  V30 3199 H 310.068 -3.70044 4.72046 0
M  V30 3200 H 311.747 -3.68976 5.31475 0
M  V30 3201 N 311.879 -1.3236 -0.855495 0
M  V30 3202 C 313.125 -1.23054 -1.612 0
M  V30 3203 C 313.458 0.207404 -1.93089 0
M  V30 3204 O 312.733 1.14432 -1.57275 0
M  V30 3205 C 313.016 -2.08937 -2.93287 0
M  V30 3206 C 312.869 -3.61105 -2.68185 0
M  V30 3207 C 314.188 -1.94986 -3.94549 0
M  V30 3208 H 311.307 -0.448364 -0.584926 0
M  V30 3209 H 313.949 -1.62297 -0.987917 0
M  V30 3210 H 312.099 -1.75599 -3.46551 0
M  V30 3211 H 313.771 -4.04652 -2.21483 0
M  V30 3212 H 312.014 -3.83813 -2.02164 0
M  V30 3213 H 312.685 -4.16522 -3.62234 0
M  V30 3214 H 315.161 -2.24189 -3.5054 0
M  V30 3215 H 314.037 -2.57356 -4.84829 0
M  V30 3216 H 314.298 -0.917263 -4.3248 0
M  V30 3217 N 313.357 1.07166 -1.15556 0
M  V30 3218 C 314.773 1.31899 -0.898603 0
M  V30 3219 C 314.973 1.96333 0.453383 0
M  V30 3220 O 314.029 2.22438 1.19489 0
M  V30 3221 C 315.342 2.20826 -2.04099 0
M  V30 3222 C 316.89 2.34269 -2.07574 0
M  V30 3223 C 317.365 3.26546 -3.21141 0
M  V30 3224 N 318.856 3.34127 -3.20801 0
M  V30 3225 C 319.591 4.05595 -4.05315 0
M  V30 3226 N 319.087 4.79661 -4.99897 0
M  V30 3227 N 320.88 4.01555 -3.93332 0
M  V30 3228 H 313.031 0.637302 -2.02613 0
M  V30 3229 H 315.294 0.343468 -0.883591 0
M  V30 3230 H 315 1.80744 -3.01703 0
M  V30 3231 H 314.874 3.21364 -1.97496 0
M  V30 3232 H 317.261 2.73603 -1.10568 0
M  V30 3233 H 317.342 1.33429 -2.18244 0
M  V30 3234 H 316.986 2.87931 -4.184 0
M  V30 3235 H 316.916 4.27345 -3.07708 0
M  V30 3236 H 319.407 2.81336 -2.52306 0
M  V30 3237 H 319.72 5.31694 -5.60822 0
M  V30 3238 H 318.065 4.78671 -5.03884 0
M  V30 3239 H 321.256 3.42806 -3.18751 0
M  V30 3240 H 321.429 4.56987 -4.5942 0
M  V30 3241 N 314.835 0.952656 1.25548 0
M  V30 3242 C 316.112 0.523818 1.88456 0
M  V30 3243 C 316.492 -0.998871 1.85973 0
M  V30 3244 O 315.84 -1.86381 1.3219 0
M  V30 3245 C 316.05 1.0982 3.31271 0
M  V30 3246 C 317.398 1.17385 4.08051 0
M  V30 3247 O 318.422 1.04961 3.40384 0
M  V30 3248 O 317.281 1.36852 5.29088 0
M  V30 3249 H 314.375 0.172485 0.808813 0
M  V30 3250 H 316.921 1.04596 1.33633 0
M  V30 3251 H 315.693 2.1415 3.27499 0
M  V30 3252 H 315.316 0.559191 3.93648 0
M  V30 3253 N 316.313 -1.40141 0.720998 0
M  V30 3254 C 317.59 -1.94677 0.189757 0
M  V30 3255 C 317.97 -1.65879 -1.30566 0
M  V30 3256 O 317.318 -0.979391 -2.06447 0
M  V30 3257 C 317.528 -3.45279 0.508304 0
M  V30 3258 C 318.876 -4.22209 0.449934 0
M  V30 3259 O 319.9 -3.53413 0.444677 0
M  V30 3260 O 318.759 -5.44788 0.432189 0
M  V30 3261 H 315.853 -0.826459 0.0299026 0
M  V30 3262 H 318.399 -1.49719 0.7989 0
M  V30 3263 H 317.171 -3.59619 1.54239 0
M  V30 3264 H 316.794 -3.97386 -0.130525 0
M  V30 3265 N 317.792 -0.46758 -1.50504 0
M  V30 3266 C 318.722 0.318381 -2.31319 0
M  V30 3267 C 319.703 0.993564 -1.38066 0
M  V30 3268 O 320.888 0.991411 -1.66987 0
M  V30 3269 C 318.018 1.40275 -3.17711 0
M  V30 3270 C 316.972 0.849373 -4.19487 0
M  V30 3271 C 316.298 2.03177 -4.94594 0
M  V30 3272 C 317.598 -0.136942 -5.2212 0
M  V30 3273 H 319.292 -0.356106 -2.97275 0
M  V30 3274 H 316.838 -0.172703 -1.42961 0
M  V30 3275 H 318.791 1.96004 -3.73042 0
M  V30 3276 H 317.515 2.10596 -2.49634 0
M  V30 3277 H 316.174 0.314076 -3.65252 0
M  V30 3278 H 315.822 2.72187 -4.22993 0
M  V30 3279 H 315.522 1.66774 -5.63436 0
M  V30 3280 H 317.046 2.59403 -5.52759 0
M  V30 3281 H 318.46 0.331056 -5.72343 0
M  V30 3282 H 316.857 -0.41507 -5.98663 0
M  V30 3283 H 317.927 -1.06398 -4.73083 0
M  V30 3284 N 319.27 1.56325 -0.20005 0
M  V30 3285 C 320.2 2.22318 0.713916 0
M  V30 3286 C 321.181 1.18788 1.21752 0
M  V30 3287 O 322.366 1.47309 1.26545 0
M  V30 3288 C 319.496 2.88639 1.93144 0
M  V30 3289 C 318.45 3.98457 1.56255 0
M  V30 3290 C 317.776 4.51967 2.85709 0
M  V30 3291 C 319.076 5.16612 0.768747 0
M  V30 3292 H 320.77 2.98952 0.163755 0
M  V30 3293 H 318.316 1.43792 0.0773219 0
M  V30 3294 H 320.269 3.33491 2.57608 0
M  V30 3295 H 318.993 2.09419 2.50621 0
M  V30 3296 H 317.652 3.54305 0.941471 0
M  V30 3297 H 317.3 3.69503 3.41287 0
M  V30 3298 H 317 5.26071 2.6177 0
M  V30 3299 H 318.524 4.99523 3.51154 0
M  V30 3300 H 319.938 5.57977 1.3166 0
M  V30 3301 H 318.335 5.96812 0.627286 0
M  V30 3302 H 319.405 4.84358 -0.229168 0
M  V30 3303 N 320.748 -0.0735177 1.57428 0
M  V30 3304 C 321.996 -0.771472 1.86796 0
M  V30 3305 C 322.317 -1.78201 0.791804 0
M  V30 3306 O 321.587 -1.95074 -0.179718 0
M  V30 3307 H 320.167 -0.28791 0.689287 0
M  V30 3308 H 322.829 -0.0500161 1.94836 0
M  V30 3309 H 321.925 -1.28874 2.8425 0
M  V30 3310 N 322.226 -1.5378 -0.344866 0
M  V30 3311 C 323.473 -1.70963 -1.08526 0
M  V30 3312 C 323.801 -0.472126 -1.88683 0
M  V30 3313 O 323.056 0.546116 -1.87926 0
M  V30 3314 C 323.355 -2.92407 -2.05506 0
M  V30 3315 C 323.021 -4.28066 -1.41671 0
M  V30 3316 C 321.683 -4.64951 -1.2399 0
M  V30 3317 C 324.035 -5.12344 -0.956726 0
M  V30 3318 C 321.363 -5.83733 -0.589277 0
M  V30 3319 C 323.715 -6.3179 -0.320015 0
M  V30 3320 C 322.379 -6.67372 -0.130881 0
M  V30 3321 H 321.649 -0.625598 -0.397124 0
M  V30 3322 H 324.296 -1.87995 -0.36469 0
M  V30 3323 H 322.601 -2.69973 -2.8394 0
M  V30 3324 H 324.298 -3.02895 -2.62784 0
M  V30 3325 H 320.888 -3.99034 -1.56429 0
M  V30 3326 H 325.072 -4.8438 -1.08118 0
M  V30 3327 H 320.328 -6.09877 -0.431344 0
M  V30 3328 H 324.502 -6.96386 0.0445072 0
M  V30 3329 H 322.129 -7.59273 0.375318 0
M  V30 3330 N 323.704 0.605807 -1.45491 0
M  V30 3331 C 324.667 1.69836 -1.5391 0
M  V30 3332 C 325.667 1.55261 -0.418424 0
M  V30 3333 O 326.857 1.60296 -0.681965 0
M  V30 3334 C 323.989 3.09117 -1.43734 0
M  V30 3335 H 325.182 1.63738 -2.51257 0
M  V30 3336 H 322.735 0.821689 -1.32959 0
M  V30 3337 H 323.47 3.20791 -0.475788 0
M  V30 3338 H 323.255 3.21104 -2.25021 0
M  V30 3339 H 324.745 3.88696 -1.52661 0
M  V30 3340 N 325.182 1.32811 0.848464 0
M  V30 3341 C 326.112 1.24882 1.97299 0
M  V30 3342 C 327.093 0.131357 1.69592 0
M  V30 3343 O 328.278 0.319553 1.91553 0
M  V30 3344 C 325.408 0.97746 3.33261 0
M  V30 3345 C 324.362 2.05682 3.75338 0
M  V30 3346 C 323.688 1.63777 5.09 0
M  V30 3347 C 324.988 3.47254 3.90144 0
M  V30 3348 H 326.682 2.18966 2.04191 0
M  V30 3349 H 324.228 1.05413 0.981029 0
M  V30 3350 H 326.181 0.908513 4.1149 0
M  V30 3351 H 324.905 0.000980011 3.266 0
M  V30 3352 H 323.564 2.11603 2.99366 0
M  V30 3353 H 323.212 0.648569 4.98801 0
M  V30 3354 H 322.912 2.36 5.38124 0
M  V30 3355 H 324.436 1.5833 5.89715 0
M  V30 3356 H 325.85 3.43888 4.58709 0
M  V30 3357 H 324.247 4.1788 4.30693 0
M  V30 3358 H 325.317 3.86462 2.92874 0
M  V30 3359 N 326.66 -1.06551 1.16123 0
M  V30 3360 C 328.076 -1.3142 0.905585 0
M  V30 3361 C 328.276 -1.96571 -0.442964 0
M  V30 3362 O 327.332 -2.23068 -1.18308 0
M  V30 3363 C 328.645 -2.19741 2.05267 0
M  V30 3364 C 330.193 -2.33165 2.08813 0
M  V30 3365 C 330.668 -3.24838 3.22868 0
M  V30 3366 N 332.159 -3.32421 3.22568 0
M  V30 3367 C 332.894 -4.0344 4.0746 0
M  V30 3368 N 332.39 -4.77003 5.02434 0
M  V30 3369 N 334.183 -3.99464 3.95456 0
M  V30 3370 H 326.334 -0.626548 2.02949 0
M  V30 3371 H 328.597 -0.338777 0.8854 0
M  V30 3372 H 328.303 -1.79142 3.02657 0
M  V30 3373 H 328.177 -3.20313 1.99198 0
M  V30 3374 H 330.564 -2.73013 1.12018 0
M  V30 3375 H 330.645 -1.3227 2.18948 0
M  V30 3376 H 330.289 -2.85708 4.19921 0
M  V30 3377 H 330.219 -4.25707 3.0997 0
M  V30 3378 H 332.71 -2.79994 2.53795 0
M  V30 3379 H 333.023 -5.28712 5.63634 0
M  V30 3380 H 331.368 -4.75992 5.06415 0
M  V30 3381 H 334.559 -3.4111 3.20564 0
M  V30 3382 H 334.732 -4.54544 4.61837 0
M  V30 3383 N 328.138 -0.959301 -1.25041 0
M  V30 3384 C 329.048 -0.489994 -2.29426 0
M  V30 3385 C 330.064 0.444944 -1.68215 0
M  V30 3386 O 331.24 0.320046 -1.98841 0
M  V30 3387 C 328.305 0.220309 -3.45999 0
M  V30 3388 C 327.366 -0.753418 -4.22637 0
M  V30 3389 C 326.599 -0.076918 -5.33645 0
M  V30 3390 O 326.822 1.13649 -5.58963 0
M  V30 3391 O 325.756 -0.764824 -5.97021 0
M  V30 3392 H 329.582 -1.35755 -2.71669 0
M  V30 3393 H 327.167 -0.725961 -1.30576 0
M  V30 3394 H 329.049 0.619677 -4.16819 0
M  V30 3395 H 327.724 1.06296 -3.0575 0
M  V30 3396 H 326.631 -1.20308 -3.54227 0
M  V30 3397 H 327.964 -1.56423 -4.66683 0
M  V30 3398 N 329.616 1.39756 -0.72842 0
M  V30 3399 C 330.856 2.025 -0.278078 0
M  V30 3400 C 331.22 1.5654 1.11173 0
M  V30 3401 O 332.421 2.11435 1.65978 0
M  V30 3402 C 330.692 3.55489 -0.369139 0
M  V30 3403 S 332.251 4.388 0.00232983 0
M  V30 3404 H 329.069 0.702534 -0.109391 0
M  V30 3405 H 331.671 1.70672 -0.95348 0
M  V30 3406 H 330.375 3.86429 -1.38204 0
M  V30 3407 H 329.906 3.92061 0.324308 0
M  V30 3408 H 331.921 4.80954 1.22055 0
M  V30 3409 N 331.094 0.475555 1.50254 0
M  V30 3410 C 332.505 0.0215174 1.86688 0
M  V30 3411 C 332.856 -1.38467 1.39001 0
M  V30 3412 O 331.981 -2.02732 0.756894 0
M  V30 3413 C 332.576 0.0322715 3.38785 0
M  V30 3414 C 331.135 -0.366314 3.74613 0
M  V30 3415 C 330.282 0.415832 2.74164 0
M  V30 3416 H 333.233 0.689612 1.42934 0
M  V30 3417 H 333.254 -0.76889 3.7265 0
M  V30 3418 H 332.766 1.05584 3.73462 0
M  V30 3419 H 330.867 -1.39406 3.45538 0
M  V30 3420 H 330.98 -0.064555 4.79057 0
M  V30 3421 H 329.344 -0.131048 2.54363 0
M  V30 3422 H 330.127 1.43899 3.11686 0
M  V30 3423 N 332.573 -1.56217 0.208337 0
M  V30 3424 C 333.798 -2.02782 -0.435222 0
M  V30 3425 C 334.223 -1.08738 -1.53485 0
M  V30 3426 O 333.581 -0.0731855 -1.81152 0
M  V30 3427 C 333.629 -3.47687 -0.956335 0
M  V30 3428 O 332.733 -3.56773 -2.06849 0
M  V30 3429 H 332.074 -0.656403 -0.100158 0
M  V30 3430 H 334.604 -2.02033 0.3231 0
M  V30 3431 H 334.614 -3.87745 -1.26955 0
M  V30 3432 H 333.289 -4.15624 -0.15143 0
M  V30 3433 H 331.866 -3.28597 -1.76292 0
M  V30 3434 N 334.051 0.0651679 -1.57465 0
M  V30 3435 C 335.297 0.764193 -1.87851 0
M  V30 3436 C 335.63 1.76889 -0.801495 0
M  V30 3437 O 334.905 1.93594 0.187528 0
M  V30 3438 C 335.188 1.46625 -3.28897 0
M  V30 3439 C 335.041 0.477515 -4.47258 0
M  V30 3440 C 336.36 2.4095 -3.68281 0
M  V30 3441 H 333.479 0.276351 -0.683227 0
M  V30 3442 H 336.121 0.0272868 -1.8998 0
M  V30 3443 H 334.271 2.09438 -3.27212 0
M  V30 3444 H 335.943 -0.145922 -4.61069 0
M  V30 3445 H 334.186 -0.206576 -4.33308 0
M  V30 3446 H 334.857 1.0065 -5.42746 0
M  V30 3447 H 337.333 1.88209 -3.71102 0
M  V30 3448 H 336.209 2.87072 -4.67847 0
M  V30 3449 H 336.47 3.26049 -2.98571 0
M  V30 3450 N 335.529 1.53961 0.336706 0
M  V30 3451 C 336.459 1.85417 1.41925 0
M  V30 3452 C 337.44 0.709856 1.5458 0
M  V30 3453 O 338.625 0.962396 1.68676 0
M  V30 3454 C 335.755 2.06985 2.78881 0
M  V30 3455 C 334.709 3.22813 2.81026 0
M  V30 3456 C 334.035 3.29727 4.20932 0
M  V30 3457 C 335.335 4.60767 2.45949 0
M  V30 3458 H 337.029 2.76079 1.15848 0
M  V30 3459 H 334.575 1.32839 0.555859 0
M  V30 3460 H 336.528 2.27575 3.54665 0
M  V30 3461 H 335.252 1.13061 3.06406 0
M  V30 3462 H 333.911 3.0209 2.07695 0
M  V30 3463 H 333.559 2.33385 4.45579 0
M  V30 3464 H 333.259 4.07566 4.23277 0
M  V30 3465 H 334.783 3.52536 4.98549 0
M  V30 3466 H 336.197 4.81325 3.11446 0
M  V30 3467 H 334.594 5.4106 2.59566 0
M  V30 3468 H 335.664 4.6391 1.41122 0
M  V30 3469 N 337.007 -0.598083 1.45811 0
M  V30 3470 C 337.917 -1.73632 1.57763 0
M  V30 3471 C 338.933 -1.67763 0.461676 0
M  V30 3472 O 340.109 -1.87949 0.723685 0
M  V30 3473 C 337.174 -3.10114 1.55018 0
M  V30 3474 C 336.235 -3.27364 2.77726 0
M  V30 3475 C 335.468 -4.57334 2.75102 0
M  V30 3476 O 335.691 -5.40258 1.8297 0
M  V30 3477 O 334.625 -4.77502 3.66437 0
M  V30 3478 H 338.451 -1.66498 2.53992 0
M  V30 3479 H 336.036 -0.763308 1.28429 0
M  V30 3480 H 337.918 -3.9141 1.56129 0
M  V30 3481 H 336.593 -3.17718 0.619431 0
M  V30 3482 H 335.5 -2.45619 2.82174 0
M  V30 3483 H 336.833 -3.24641 3.69958 0
M  V30 3484 N 338.485 -1.33259 -0.841409 0
M  V30 3485 C 339.715 -1.2742 -1.62628 0
M  V30 3486 C 340.123 0.157604 -1.88542 0
M  V30 3487 O 339.466 1.10938 -1.46419 0
M  V30 3488 C 339.528 -1.97797 -3.00194 0
M  V30 3489 C 339.192 -3.47109 -2.97261 0
M  V30 3490 C 340.189 -4.42358 -2.73159 0
M  V30 3491 C 337.874 -3.89247 -3.17478 0
M  V30 3492 C 339.868 -5.77718 -2.69296 0
M  V30 3493 C 337.555 -5.24713 -3.13241 0
M  V30 3494 C 338.553 -6.1876 -2.89181 0
M  V30 3495 O 338.241 -7.51745 -2.84843 0
M  V30 3496 H 337.973 -0.440436 -0.512827 0
M  V30 3497 H 340.527 -1.76153 -1.05638 0
M  V30 3498 H 338.757 -1.43652 -3.59028 0
M  V30 3499 H 340.446 -1.8549 -3.61038 0
M  V30 3500 H 341.212 -4.11127 -2.57294 0
M  V30 3501 H 337.091 -3.16456 -3.35226 0
M  V30 3502 H 340.635 -6.51097 -2.50436 0
M  V30 3503 H 336.532 -5.55569 -3.28654 0
M  V30 3504 H 337.3 -7.61262 -3.00702 0
M  V30 3505 N 339.963 1.05934 -1.16686 0
M  V30 3506 C 340.91 2.13499 -0.876748 0
M  V30 3507 C 341.88 1.65162 0.176299 0
M  V30 3508 O 343.065 1.90757 0.0407143 0
M  V30 3509 C 340.205 3.42912 -0.387967 0
M  V30 3510 C 339.318 4.04964 -1.50426 0
M  V30 3511 C 338.453 5.22266 -0.970125 0
M  V30 3512 C 337.492 5.76309 -2.06238 0
M  V30 3513 N 336.629 6.84922 -1.54356 0
M  V30 3514 H 341.469 2.37654 -1.7979 0
M  V30 3515 H 339.006 1.16598 -0.896843 0
M  V30 3516 H 340.964 4.17111 -0.086186 0
M  V30 3517 H 339.594 3.18963 0.496235 0
M  V30 3518 H 338.646 3.28277 -1.92193 0
M  V30 3519 H 339.958 4.41122 -2.32836 0
M  V30 3520 H 339.112 6.03506 -0.621743 0
M  V30 3521 H 337.851 4.87564 -0.115377 0
M  V30 3522 H 336.856 4.93704 -2.41942 0
M  V30 3523 H 338.081 6.13062 -2.92115 0
M  V30 3524 H 336.027 6.52131 -0.711406 0
M  V30 3525 H 335.944 7.20043 -2.30379 0
M  V30 3526 H 337.212 7.69832 -1.22387 0
M  V30 3527 N 341.441 0.965919 1.2453 0
M  V30 3528 C 342.687 0.62776 1.92839 0
M  V30 3529 C 343.02 -0.834694 1.75347 0
M  V30 3530 O 342.295 -1.60031 1.10546 0
M  V30 3531 C 342.578 1.00109 3.45905 0
M  V30 3532 C 342.431 2.52011 3.72573 0
M  V30 3533 C 343.75 0.53435 4.36844 0
M  V30 3534 H 340.869 0.229537 0.700344 0
M  V30 3535 H 343.511 1.2046 1.46933 0
M  V30 3536 H 341.661 0.510238 3.85135 0
M  V30 3537 H 343.333 3.08559 3.42912 0
M  V30 3538 H 341.576 2.95287 3.17786 0
M  V30 3539 H 342.247 2.73183 4.79661 0
M  V30 3540 H 344.723 0.955565 4.04979 0
M  V30 3541 H 343.599 0.824152 5.42678 0
M  V30 3542 H 343.86 -0.565589 4.38467 0
M  V30 3543 N 342.919 -1.39368 0.735821 0
M  V30 3544 C 343.851 -2.2913 0.0567723 0
M  V30 3545 C 344.864 -1.46859 -0.702589 0
M  V30 3546 O 346.053 -1.69925 -0.546616 0
M  V30 3547 C 343.153 -3.25492 -0.943823 0
M  V30 3548 C 342.326 -4.36709 -0.24581 0
M  V30 3549 C 341.385 -5.13376 -1.15463 0
M  V30 3550 O 340.411 -5.65683 -0.631803 0
M  V30 3551 N 341.613 -5.24656 -2.48427 0
M  V30 3552 H 344.378 -2.88047 0.827582 0
M  V30 3553 H 341.939 -1.50957 0.585112 0
M  V30 3554 H 343.931 -3.73657 -1.55443 0
M  V30 3555 H 342.501 -2.676 -1.61583 0
M  V30 3556 H 341.721 -3.9041 0.545286 0
M  V30 3557 H 343.009 -5.08244 0.237891 0
M  V30 3558 H 342.407 -4.83679 -2.93379 0
M  V30 3559 H 340.964 -5.76258 -3.04582 0
M  V30 3560 N 344.397 -0.483516 -1.5 0
M  V30 3561 C 345.36 0.292965 -2.2732 0
M  V30 3562 C 346.36 0.909499 -1.32608 0
M  V30 3563 O 347.55 0.776745 -1.55924 0
M  V30 3564 C 344.682 1.41854 -3.09984 0
M  V30 3565 H 345.875 -0.385289 -2.97415 0
M  V30 3566 H 343.428 -0.237942 -1.54478 0
M  V30 3567 H 344.163 2.13148 -2.44414 0
M  V30 3568 H 343.948 0.982114 -3.79601 0
M  V30 3569 H 345.438 1.96597 -3.68429 0
M  V30 3570 N 345.875 1.56104 -0.216619 0
M  V30 3571 C 347.123 1.97781 0.415593 0
M  V30 3572 C 347.444 1.10536 1.60645 0
M  V30 3573 O 346.714 0.181303 1.95059 0
M  V30 3574 H 345.294 0.730415 0.156534 0
M  V30 3575 H 347.956 1.92445 -0.308366 0
M  V30 3576 H 347.052 3.03072 0.74525 0
M  V30 3577 N 347.353 -0.0568162 1.57498 0
M  V30 3578 C 348.301 -1.08452 2.05769 0
M  V30 3579 C 349.295 -1.39164 0.965903 0
M  V30 3580 O 350.501 -1.38395 1.15095 0
M  V30 3581 H 346.876 -0.367148 0.656282 0
M  V30 3582 H 348.847 -0.651368 2.91204 0
M  V30 3583 C 347.596 -2.38543 2.52968 0
M  V30 3584 H 346.919 -2.15765 3.36579 0
M  V30 3585 H 348.359 -3.08863 2.90481 0
M  V30 3586 C 346.818 -3.05562 1.41893 0
M  V30 3587 O 347.348 -3.94262 0.769442 0
M  V30 3588 N 345.554 -2.6643 1.16032 0
M  V30 3589 H 345.101 -1.94387 1.6903 0
M  V30 3590 H 345.059 -3.11593 0.419219 0
M  V30 3591 N 348.832 -1.54138 -0.328536 0
M  V30 3592 C 350.057 -1.76378 -1.09112 0
M  V30 3593 C 350.482 -0.508596 -1.81094 0
M  V30 3594 O 349.84 0.539598 -1.73084 0
M  V30 3595 C 349.888 -2.95358 -2.06872 0
M  V30 3596 O 348.992 -2.66556 -3.14677 0
M  V30 3597 H 348.333 -0.584614 -0.314838 0
M  V30 3598 H 350.863 -2.01146 -0.374348 0
M  V30 3599 H 350.873 -3.22566 -2.4983 0
M  V30 3600 H 349.548 -3.86385 -1.5388 0
M  V30 3601 H 348.125 -2.50282 -2.7643 0
M  V30 3602 N 350.31 0.590341 -1.46126 0
M  V30 3603 C 351.535 1.37991 -1.54833 0
M  V30 3604 C 351.96 1.87163 -0.187506 0
M  V30 3605 O 351.318 1.61133 0.831008 0
M  V30 3606 C 351.366 2.54867 -2.55098 0
M  V30 3607 O 350.47 3.56061 -2.08073 0
M  V30 3608 H 349.811 0.411265 -0.521303 0
M  V30 3609 H 352.341 0.716819 -1.91632 0
M  V30 3610 H 352.351 3.01886 -2.74461 0
M  V30 3611 H 351.026 2.18429 -3.53923 0
M  V30 3612 H 349.603 3.15574 -1.98664 0
M  V30 3613 N 351.788 1.33704 0.83433 0
M  V30 3614 C 352.718 1.26967 1.95963 0
M  V30 3615 C 353.699 0.149337 1.69443 0
M  V30 3616 O 354.884 0.339852 1.91203 0
M  V30 3617 C 352.014 1.01275 3.32206 0
M  V30 3618 C 350.968 2.09652 3.73136 0
M  V30 3619 C 350.294 1.69166 5.07235 0
M  V30 3620 C 351.594 3.51372 3.86439 0
M  V30 3621 H 353.288 2.2112 2.01857 0
M  V30 3622 H 350.834 1.06447 0.969793 0
M  V30 3623 H 352.787 0.952106 4.10503 0
M  V30 3624 H 351.511 0.0356203 3.26581 0
M  V30 3625 H 350.17 2.14766 2.97104 0
M  V30 3626 H 349.818 0.701437 4.98085 0
M  V30 3627 H 349.518 2.41694 5.35591 0
M  V30 3628 H 351.042 1.64576 5.88003 0
M  V30 3629 H 352.456 3.48734 4.55036 0
M  V30 3630 H 350.853 4.22425 4.26236 0
M  V30 3631 H 351.923 3.89546 2.88759 0
M  V30 3632 N 353.266 -1.05314 1.17247 0
M  V30 3633 C 354.496 -1.81707 0.983166 0
M  V30 3634 C 354.904 -1.83222 -0.471822 0
M  V30 3635 O 354.247 -1.25721 -1.3394 0
M  V30 3636 C 354.309 -3.29134 1.44606 0
M  V30 3637 C 353.973 -3.51304 2.92292 0
M  V30 3638 C 354.97 -3.4353 3.90235 0
M  V30 3639 C 352.655 -3.78306 3.30439 0
M  V30 3640 C 354.649 -3.62442 5.24323 0
M  V30 3641 C 352.336 -3.96866 4.64694 0
M  V30 3642 C 353.334 -3.88933 5.61445 0
M  V30 3643 O 353.022 -4.06976 6.93272 0
M  V30 3644 H 352.754 -0.579476 0.348114 0
M  V30 3645 H 355.308 -1.33705 1.55924 0
M  V30 3646 H 353.538 -3.78046 0.813537 0
M  V30 3647 H 355.227 -3.87049 1.22262 0
M  V30 3648 H 355.993 -3.22648 3.62109 0
M  V30 3649 H 351.872 -3.83585 2.55702 0
M  V30 3650 H 355.416 -3.56165 5.99827 0
M  V30 3651 H 351.313 -4.1724 4.92525 0
M  V30 3652 H 352.081 -4.24209 6.99992 0
M  V30 3653 N 354.744 -0.972509 -1.24016 0
M  V30 3654 C 355.692 -0.498562 -2.27194 0
M  V30 3655 C 356.686 0.440372 -1.63576 0
M  V30 3656 O 357.892 0.315133 -1.7722 0
M  V30 3657 H 354.267 -0.142775 -0.738322 0
M  V30 3658 H 356.238 -1.38065 -2.64539 0
M  V30 3659 C 354.987 0.191072 -3.47175 0
M  V30 3660 H 354.31 -0.522318 -3.96373 0
M  V30 3661 H 355.75 0.486445 -4.212 0
M  V30 3662 C 354.209 1.41967 -3.05527 0
M  V30 3663 O 354.739 2.51642 -3.13112 0
M  V30 3664 N 352.945 1.28746 -2.60524 0
M  V30 3665 H 352.492 0.395089 -2.54552 0
M  V30 3666 H 352.45 2.11061 -2.33025 0
M  V30 3667 N 356.222 1.38976 -0.743202 0
M  V30 3668 C 357.45 2.04636 -0.30525 0
M  V30 3669 C 357.865 1.56044 1.06281 0
M  V30 3670 O 357.222 0.728921 1.67311 0
M  V30 3671 C 357.273 3.60193 -0.307177 0
M  V30 3672 O 356.994 4.06998 -1.62124 0
M  V30 3673 C 358.495 4.4306 0.145928 0
M  V30 3674 H 355.715 0.65788 -0.132041 0
M  V30 3675 H 358.259 1.77866 -1.00915 0
M  V30 3676 H 356.414 3.85835 0.347898 0
M  V30 3677 H 356.828 5.01371 -1.54036 0
M  V30 3678 H 358.302 5.51921 0.0934183 0
M  V30 3679 H 358.779 4.22706 1.19231 0
M  V30 3680 H 359.385 4.22584 -0.479886 0
M  V30 3681 N 357.7 0.491464 1.49741 0
M  V30 3682 C 359.111 0.0413169 1.86654 0
M  V30 3683 C 359.462 -1.36985 1.40462 0
M  V30 3684 O 358.587 -2.01917 0.778354 0
M  V30 3685 C 359.182 0.0682023 3.38731 0
M  V30 3686 C 357.741 -0.32656 3.74981 0
M  V30 3687 C 356.888 0.444888 2.73708 0
M  V30 3688 H 359.839 0.704733 1.42194 0
M  V30 3689 H 359.86 -0.729322 3.73445 0
M  V30 3690 H 359.372 1.09539 3.72321 0
M  V30 3691 H 357.473 -1.35734 3.46997 0
M  V30 3692 H 357.586 -0.013741 4.79098 0
M  V30 3693 H 355.95 -0.104062 2.54487 0
M  V30 3694 H 356.733 1.47197 3.10142 0
M  V30 3695 N 359.178 -1.55987 0.224894 0
M  V30 3696 C 360.589 -1.84553 -0.282345 0
M  V30 3697 C 360.94 -1.14634 -1.59227 0
M  V30 3698 O 360.065 -0.417155 -2.12341 0
M  V30 3699 C 360.66 -3.348 -0.519062 0
M  V30 3700 C 359.219 -3.63671 -0.970604 0
M  V30 3701 C 358.366 -2.77277 -0.0355261 0
M  V30 3702 H 361.317 -1.52245 0.448006 0
M  V30 3703 H 361.338 -3.55187 -1.36463 0
M  V30 3704 H 360.85 -3.8566 0.43449 0
M  V30 3705 H 358.951 -3.1827 -1.9374 0
M  V30 3706 H 359.064 -4.71631 -0.842698 0
M  V30 3707 H 357.428 -2.48846 -0.542927 0
M  V30 3708 H 358.211 -3.30937 0.913003 0
M  V30 3709 N 360.656 0.0484629 -1.57525 0
M  V30 3710 C 361.896 0.748196 -1.90214 0
M  V30 3711 C 362.26 1.73545 -0.821347 0
M  V30 3712 O 363.461 2.48201 -1.03198 0
M  V30 3713 C 361.732 1.41727 -3.28098 0
M  V30 3714 S 363.291 2.14884 -3.82584 0
M  V30 3715 H 360.109 0.248307 -0.666232 0
M  V30 3716 H 362.711 0.00343188 -1.955 0
M  V30 3717 H 361.415 0.685244 -4.04639 0
M  V30 3718 H 360.946 2.20099 -3.26068 0
M  V30 3719 H 362.961 3.41755 -3.59747 0
M  V30 3720 N 362.134 1.5431 0.320358 0
M  V30 3721 C 363.381 1.72668 1.05792 0
M  V30 3722 C 363.709 0.502084 1.87908 0
M  V30 3723 O 362.964 -0.516149 1.88771 0
M  V30 3724 C 363.263 2.95639 2.00828 0
M  V30 3725 C 362.929 4.30265 1.34843 0
M  V30 3726 C 361.591 4.66865 1.16578 0
M  V30 3727 C 363.943 5.13801 0.875095 0
M  V30 3728 C 361.271 5.84597 0.496336 0
M  V30 3729 C 363.623 6.32219 0.219463 0
M  V30 3730 C 362.287 6.67495 0.0246915 0
M  V30 3731 H 361.557 0.631837 0.387121 0
M  V30 3732 H 364.204 1.88552 0.334735 0
M  V30 3733 H 362.509 2.74456 2.79609 0
M  V30 3734 H 364.206 3.07038 2.57932 0
M  V30 3735 H 360.796 4.01472 1.50061 0
M  V30 3736 H 364.98 4.86039 1.00398 0
M  V30 3737 H 360.236 6.10486 0.334264 0
M  V30 3738 H 364.41 6.96227 -0.155291 0
M  V30 3739 H 362.037 7.5858 -0.496065 0
M  V30 3740 N 363.613 -0.582584 1.46437 0
M  V30 3741 C 364.838 -1.37168 1.55563 0
M  V30 3742 C 365.263 -1.87061 0.19743 0
M  V30 3743 O 364.621 -1.61572 -0.822451 0
M  V30 3744 C 364.669 -2.53511 2.56446 0
M  V30 3745 O 363.773 -3.54953 2.09958 0
M  V30 3746 H 363.114 -0.408494 0.523477 0
M  V30 3747 H 365.644 -0.706646 1.9201 0
M  V30 3748 H 365.654 -3.00426 2.76058 0
M  V30 3749 H 364.329 -2.16549 3.55076 0
M  V30 3750 H 362.906 -3.14516 2.00334 0
M  V30 3751 N 365.091 -1.34144 -0.827227 0
M  V30 3752 C 366.34 -1.25602 -1.5782 0
M  V30 3753 C 366.653 0.173445 -1.94829 0
M  V30 3754 O 367.859 0.380984 -2.68814 0
M  V30 3755 C 366.315 -2.20151 -2.84713 0
M  V30 3756 C 365.923 -3.68331 -2.55021 0
M  V30 3757 C 367.667 -2.20508 -3.62735 0
M  V30 3758 C 365.574 -4.54762 -3.78082 0
M  V30 3759 H 364.504 -0.466573 -0.592306 0
M  V30 3760 H 367.155 -1.59283 -0.911116 0
M  V30 3761 H 365.537 -1.79417 -3.53023 0
M  V30 3762 H 366.711 -4.17577 -1.94849 0
M  V30 3763 H 365.026 -3.7038 -1.90283 0
M  V30 3764 H 367.623 -2.82306 -4.54101 0
M  V30 3765 H 367.966 -1.20322 -3.98533 0
M  V30 3766 H 368.499 -2.59664 -3.01362 0
M  V30 3767 H 365.238 -5.55867 -3.47407 0
M  V30 3768 H 364.758 -4.10254 -4.37552 0
M  V30 3769 H 366.437 -4.69153 -4.45538 0
M  V30 3770 N 366.569 1.04691 -1.17803 0
M  V30 3771 C 367.799 1.81183 -0.992788 0
M  V30 3772 C 368.207 1.8347 0.462098 0
M  V30 3773 O 367.55 1.2643 1.33271 0
M  V30 3774 C 367.612 3.28363 -1.46349 0
M  V30 3775 C 367.276 3.49749 -2.94151 0
M  V30 3776 C 368.273 3.41456 -3.92051 0
M  V30 3777 C 365.958 3.76548 -3.32441 0
M  V30 3778 C 367.952 3.59656 -5.26238 0
M  V30 3779 C 365.639 3.94396 -4.66792 0
M  V30 3780 C 366.637 3.8595 -5.635 0
M  V30 3781 O 366.325 4.03294 -6.9542 0
M  V30 3782 H 366.057 0.577622 -0.351182 0
M  V30 3783 H 368.611 1.32876 -1.5663 0
M  V30 3784 H 366.841 3.77609 -0.833574 0
M  V30 3785 H 368.53 3.86395 -1.24313 0
M  V30 3786 H 369.296 3.20723 -3.63815 0
M  V30 3787 H 365.175 3.82224 -2.57732 0
M  V30 3788 H 368.719 3.52979 -6.01707 0
M  V30 3789 H 364.616 4.14622 -4.94731 0
M  V30 3790 H 365.384 4.2049 -7.02232 0
M  V30 3791 N 368.047 0.979072 1.23499 0
M  V30 3792 C 369.293 0.648178 1.92163 0
M  V30 3793 C 369.626 -0.816049 1.76222 0
M  V30 3794 O 368.901 -1.58849 1.12237 0
M  V30 3795 C 369.184 1.03773 3.44824 0
M  V30 3796 C 369.037 2.55948 3.69879 0
M  V30 3797 C 370.356 0.580653 4.36253 0
M  V30 3798 H 367.475 0.236952 0.69787 0
M  V30 3799 H 370.117 1.22012 1.45647 0
M  V30 3800 H 368.267 0.551058 3.84572 0
M  V30 3801 H 369.939 3.12179 3.3962 0
M  V30 3802 H 368.182 2.98641 3.14636 0
M  V30 3803 H 368.853 2.78255 4.76737 0
M  V30 3804 H 371.329 0.998465 4.03943 0
M  V30 3805 H 370.205 0.881663 5.41773 0
M  V30 3806 H 370.466 -0.519052 4.39042 0
M  V30 3807 N 369.525 -1.3858 0.750561 0
M  V30 3808 C 370.458 -2.28095 0.0693139 0
M  V30 3809 C 371.436 -1.45217 -0.731491 0
M  V30 3810 O 372.62 -1.74587 -0.71076 0
M  V30 3811 C 369.747 -3.26282 -0.90871 0
M  V30 3812 C 368.793 -4.26056 -0.194507 0
M  V30 3813 S 369.626 -5.24026 1.10257 0
M  V30 3814 C 370.782 -6.2577 0.127542 0
M  V30 3815 H 371.015 -2.85526 0.8284 0
M  V30 3816 H 368.548 -1.44536 0.543014 0
M  V30 3817 H 370.506 -3.83367 -1.46766 0
M  V30 3818 H 369.167 -2.6784 -1.64075 0
M  V30 3819 H 368.36 -4.95249 -0.93512 0
M  V30 3820 H 367.962 -3.72852 0.292837 0
M  V30 3821 H 370.254 -6.73796 -0.707516 0
M  V30 3822 H 371.197 -7.03712 0.787044 0
M  V30 3823 H 371.605 -5.63938 -0.251803 0
M  V30 3824 N 371.003 -0.499398 -1.49478 0
M  V30 3825 C 372.251 0.0455996 -2.02049 0
M  V30 3826 C 372.572 1.37633 -1.38138 0
M  V30 3827 O 371.842 1.8842 -0.536166 0
M  V30 3828 H 370.422 0.0198416 -0.746736 0
M  V30 3829 H 373.084 -0.656274 -1.83519 0
M  V30 3830 H 372.18 0.176445 -3.11601 0
M  V30 3831 N 372.481 1.55866 -0.233164 0
M  V30 3832 C 373.411 2.23783 0.666599 0
M  V30 3833 C 374.392 1.21343 1.19205 0
M  V30 3834 O 375.577 1.4996 1.23392 0
M  V30 3835 C 372.707 2.92671 1.86978 0
M  V30 3836 C 371.661 4.01682 1.47768 0
M  V30 3837 C 370.987 4.57926 2.76058 0
M  V30 3838 C 372.287 5.18126 0.658993 0
M  V30 3839 H 373.981 2.99232 0.100306 0
M  V30 3840 H 371.527 1.43924 0.046804 0
M  V30 3841 H 373.48 3.3888 2.50476 0
M  V30 3842 H 372.204 2.14688 2.46123 0
M  V30 3843 H 370.863 3.56222 0.866106 0
M  V30 3844 H 370.511 3.76659 3.33372 0
M  V30 3845 H 370.211 5.31505 2.50552 0
M  V30 3846 H 371.735 5.06859 3.40479 0
M  V30 3847 H 373.149 5.60644 1.19795 0
M  V30 3848 H 371.546 5.98009 0.500552 0
M  V30 3849 H 372.616 4.83763 -0.331856 0
M  V30 3850 N 373.959 -0.0401083 1.57549 0
M  V30 3851 C 375.205 -0.734211 1.89043 0
M  V30 3852 C 375.538 -1.75591 0.829535 0
M  V30 3853 O 374.813 -1.93868 -0.156706 0
M  V30 3854 C 375.096 -1.41374 3.31188 0
M  V30 3855 C 374.949 -0.406299 4.47961 0
M  V30 3856 C 376.268 -2.35061 3.72068 0
M  V30 3857 H 373.387 -0.265447 0.687537 0
M  V30 3858 H 376.029 0.00294087 1.9 0
M  V30 3859 H 374.179 -2.04206 3.30503 0
M  V30 3860 H 375.851 0.219255 4.60779 0
M  V30 3861 H 374.094 0.275485 4.32924 0
M  V30 3862 H 374.765 -0.920022 5.44279 0
M  V30 3863 H 377.241 -1.82282 3.74049 0
M  V30 3864 H 376.117 -2.79593 4.72355 0
M  V30 3865 H 376.378 -3.21258 3.0372 0
M  V30 3866 N 375.437 -1.54477 -0.31217 0
M  V30 3867 C 376.367 -1.87652 -1.38957 0
M  V30 3868 C 377.348 -0.734358 -1.53431 0
M  V30 3869 O 378.533 -0.98911 -1.67123 0
M  V30 3870 C 375.663 -2.11396 -2.75552 0
M  V30 3871 C 374.617 -3.27243 -2.75855 0
M  V30 3872 C 373.943 -3.36382 -4.15633 0
M  V30 3873 C 375.243 -4.64622 -2.38587 0
M  V30 3874 H 376.937 -2.77887 -1.11442 0
M  V30 3875 H 374.483 -1.33707 -0.534655 0
M  V30 3876 H 376.436 -2.33189 -3.51 0
M  V30 3877 H 375.16 -1.17921 -3.04569 0
M  V30 3878 H 373.819 -3.05356 -2.02863 0
M  V30 3879 H 373.467 -2.40445 -4.41809 0
M  V30 3880 H 373.167 -4.14249 -4.1674 0
M  V30 3881 H 374.691 -3.60422 -4.92877 0
M  V30 3882 H 376.105 -4.86219 -3.03749 0
M  V30 3883 H 374.502 -5.45121 -2.50925 0
M  V30 3884 H 375.572 -4.66097 -1.33723 0
M  V30 3885 N 376.915 0.57481 -1.46744 0
M  V30 3886 C 377.825 1.711 -1.60505 0
M  V30 3887 C 378.841 1.67008 -0.488307 0
M  V30 3888 O 380.017 1.86774 -0.753495 0
M  V30 3889 C 377.082 3.07608 -1.59932 0
M  V30 3890 C 376.143 3.22904 -2.82898 0
M  V30 3891 C 375.376 4.529 -2.82343 0
M  V30 3892 O 375.599 5.37278 -1.91542 0
M  V30 3893 O 374.533 4.71611 -3.73987 0
M  V30 3894 H 378.359 1.62436 -2.56609 0
M  V30 3895 H 375.944 0.742779 -1.29627 0
M  V30 3896 H 377.826 3.88877 -1.62336 0
M  V30 3897 H 376.501 3.16692 -0.669898 0
M  V30 3898 H 375.408 2.41099 -2.86046 0
M  V30 3899 H 376.741 3.18715 -3.75076 0
M  V30 3900 N 378.394 1.34581 0.820102 0
M  V30 3901 C 379.64 1.28294 1.57836 0
M  V30 3902 C 379.995 -0.145099 1.91852 0
M  V30 3903 O 379.288 -1.09209 1.57429 0
M  V30 3904 C 379.482 2.10997 2.8847 0
M  V30 3905 C 379.311 3.61698 2.67216 0
M  V30 3906 C 378.081 4.3097 2.63805 0
M  V30 3907 C 380.279 4.55638 2.38534 0
M  V30 3908 N 378.261 5.67502 2.34126 0
M  V30 3909 C 379.632 5.80194 2.18574 0
M  V30 3910 C 381.687 4.44523 2.24285 0
M  V30 3911 C 380.39 6.94886 1.8581 0
M  V30 3912 C 382.416 5.5905 1.92916 0
M  V30 3913 C 381.778 6.82627 1.73782 0
M  V30 3914 H 377.877 0.524697 0.579842 0
M  V30 3915 H 380.461 1.69323 0.961139 0
M  V30 3916 H 378.632 1.7226 3.48111 0
M  V30 3917 H 380.364 1.96333 3.53886 0
M  V30 3918 H 377.119 3.83438 2.77978 0
M  V30 3919 H 377.543 6.39525 2.22118 0
M  V30 3920 H 382.185 3.49599 2.37782 0
M  V30 3921 H 379.903 7.89789 1.7105 0
M  V30 3922 H 383.489 5.52396 1.82619 0
M  V30 3923 H 382.369 7.69748 1.49861 0
M  V30 3924 N 379.872 -1.04064 1.18357 0
M  V30 3925 C 381.121 -1.76662 0.973313 0
M  V30 3926 C 381.434 -1.89154 -0.497991 0
M  V30 3927 O 382.64 -2.58606 -0.826762 0
M  V30 3928 C 381.096 -3.17624 1.69242 0
M  V30 3929 C 380.704 -3.13225 3.20303 0
M  V30 3930 C 382.448 -3.946 1.56497 0
M  V30 3931 C 380.355 -4.49046 3.84853 0
M  V30 3932 H 379.285 -0.662214 0.36054 0
M  V30 3933 H 381.936 -1.16553 1.41731 0
M  V30 3934 H 380.318 -3.78129 1.1762 0
M  V30 3935 H 381.492 -2.62172 3.78949 0
M  V30 3936 H 379.807 -2.49749 3.33189 0
M  V30 3937 H 382.404 -4.95042 2.02084 0
M  V30 3938 H 382.747 -4.13074 0.517243 0
M  V30 3939 H 383.28 -3.4067 2.05399 0
M  V30 3940 H 380.019 -4.35777 4.89672 0
M  V30 3941 H 379.539 -5.00203 3.30994 0
M  V30 3942 H 381.218 -5.17961 3.87718 0
M  V30 3943 N 381.35 -0.985608 -1.22978 0
M  V30 3944 C 382.297 -0.529825 -2.24636 0
M  V30 3945 C 383.267 0.434028 -1.60329 0
M  V30 3946 O 384.452 0.340414 -1.87739 0
M  V30 3947 C 381.592 0.156533 -3.44745 0
M  V30 3948 C 380.705 -0.848197 -4.23591 0
M  V30 3949 C 379.84 -0.136109 -5.31026 0
M  V30 3950 C 378.879 -1.1297 -6.01585 0
M  V30 3951 N 378.016 -0.446415 -7.00679 0
M  V30 3952 H 382.856 -1.40148 -2.62988 0
M  V30 3953 H 380.393 -0.702168 -1.29259 0
M  V30 3954 H 382.351 0.571324 -4.1327 0
M  V30 3955 H 380.981 0.992025 -3.07179 0
M  V30 3956 H 380.033 -1.38135 -3.54433 0
M  V30 3957 H 381.345 -1.60512 -4.72268 0
M  V30 3958 H 380.499 0.335784 -6.0577 0
M  V30 3959 H 379.238 0.653373 -4.83304 0
M  V30 3960 H 378.243 -1.6123 -5.25628 0
M  V30 3961 H 379.468 -1.91993 -6.51395 0
M  V30 3962 H 377.414 0.323763 -6.55201 0
M  V30 3963 H 377.331 -1.1419 -7.47326 0
M  V30 3964 H 378.599 0.00291697 -7.795 0
M  V30 3965 N 382.828 1.3818 -0.7579 0
M  V30 3966 C 383.776 2.32277 -0.122482 0
M  V30 3967 C 384.77 1.54238 0.700505 0
M  V30 3968 O 385.976 1.69737 0.599119 0
M  V30 3969 H 382.351 0.751712 -0.0208143 0
M  V30 3970 H 384.322 2.83469 -0.932099 0
M  V30 3971 C 383.071 3.39447 0.753076 0
M  V30 3972 H 382.394 3.99591 0.129184 0
M  V30 3973 H 383.834 4.07684 1.16489 0
M  V30 3974 C 382.293 2.78375 1.8976 0
M  V30 3975 O 382.823 2.68025 2.99208 0
M  V30 3976 N 381.029 2.36121 1.69397 0
M  V30 3977 H 380.576 2.4474 0.803762 0
M  V30 3978 H 380.534 1.95602 2.46145 0
M  V30 3979 N 384.306 0.507319 1.49211 0
M  V30 3980 C 385.254 -0.281364 2.30892 0
M  V30 3981 C 386.248 -0.95687 1.39787 0
M  V30 3982 O 387.454 -0.883838 1.56807 0
M  V30 3983 H 383.829 -0.109597 0.743971 0
M  V30 3984 H 385.8 0.42744 2.95323 0
M  V30 3985 C 384.549 -1.32918 3.21291 0
M  V30 3986 H 383.872 -0.818799 3.91326 0
M  V30 3987 H 385.312 -1.85288 3.81372 0
M  V30 3988 C 383.771 -2.35074 2.41333 0
M  V30 3989 O 384.301 -3.4108 2.12197 0
M  V30 3990 N 382.507 -2.07705 2.03241 0
M  V30 3991 H 382.054 -1.2152 2.27136 0
M  V30 3992 H 382.012 -2.76283 1.50051 0
M  V30 3993 N 385.784 -1.5574 0.241426 0
M  V30 3994 C 387.032 -1.98417 -0.384075 0
M  V30 3995 C 387.353 -1.13078 -1.58866 0
M  V30 3996 O 386.623 -0.212312 -1.94746 0
M  V30 3997 H 385.203 -0.732813 -0.144894 0
M  V30 3998 H 387.865 -1.9193 0.338943 0
M  V30 3999 H 386.961 -3.04219 -0.696939 0
M  V30 4000 N 387.262 0.0317525 -1.57568 0
M  V30 4001 C 388.51 0.721676 -1.88776 0
M  V30 4002 C 388.831 1.76039 -0.838772 0
M  V30 4003 O 388.101 1.95482 0.127935 0
M  V30 4004 H 386.681 0.269534 -0.696678 0
M  V30 4005 H 389.343 -0.00165879 -1.949 0
M  V30 4006 H 388.439 1.21293 -2.87566 0
M  V30 4007 N 388.74 1.54641 0.303973 0
M  V30 4008 C 389.703 1.84646 1.35789 0
M  V30 4009 C 390.703 0.7192 1.4382 0
M  V30 4010 O 391.893 0.987491 1.43507 0
M  V30 4011 C 389.025 2.02407 2.74307 0
M  V30 4012 H 390.218 2.78829 1.10429 0
M  V30 4013 H 387.771 1.46658 0.540487 0
M  V30 4014 H 388.506 1.10502 3.04893 0
M  V30 4015 H 388.291 2.84453 2.69868 0
M  V30 4016 H 389.781 2.27002 3.50514 0
M  V30 4017 N 390.218 -0.567019 1.47046 0
M  V30 4018 C 391.181 -1.65696 1.58359 0
M  V30 4019 C 392.181 -1.54097 0.459441 0
M  V30 4020 O 393.371 -1.58432 0.724225 0
M  V30 4021 C 390.503 -3.05197 1.51879 0
M  V30 4022 H 391.696 -1.57019 2.5551 0
M  V30 4023 H 389.249 -0.786148 1.3509 0
M  V30 4024 H 389.984 -3.19417 0.560673 0
M  V30 4025 H 389.769 -3.15025 2.33455 0
M  V30 4026 H 391.259 -3.84511 1.62913 0
M  V30 4027 N 391.696 -1.35014 -0.812953 0
M  V30 4028 C 392.659 -1.27292 -1.90602 0
M  V30 4029 C 393.659 -0.185817 -1.59723 0
M  V30 4030 O 394.849 -0.439102 -1.68575 0
M  V30 4031 C 391.981 -0.967676 -3.26877 0
M  V30 4032 H 393.174 -2.24479 -1.9887 0
M  V30 4033 H 390.727 -1.19446 -1.00808 0
M  V30 4034 H 391.462 0.0005954 -3.243 0
M  V30 4035 H 391.247 -1.75412 -3.50675 0
M  V30 4036 H 392.737 -0.939085 -4.06904 0
M  V30 4037 N 393.175 1.03435 -1.18907 0
M  V30 4038 C 394.108 2.11162 -0.86521 0
M  V30 4039 C 395.086 1.6165 0.175473 0
M  V30 4040 O 396.27 1.88425 0.0530129 0
M  V30 4041 C 393.397 3.37423 -0.293868 0
M  V30 4042 C 392.443 4.05795 -1.31274 0
M  V30 4043 S 393.276 4.52027 -2.8711 0
M  V30 4044 C 394.432 5.81513 -2.31504 0
M  V30 4045 H 394.665 2.38308 -1.77754 0
M  V30 4046 H 392.198 1.16295 -1.01562 0
M  V30 4047 H 394.156 4.1049 0.0292572 0
M  V30 4048 H 392.817 3.0838 0.596682 0
M  V30 4049 H 392.01 4.96574 -0.86198 0
M  V30 4050 H 391.612 3.38874 -1.58242 0
M  V30 4051 H 393.904 6.55784 -1.70157 0
M  V30 4052 H 394.847 6.3136 -3.20608 0
M  V30 4053 H 395.255 5.36921 -1.74286 0
M  V30 4054 N 394.653 0.992116 1.22453 0
M  V30 4055 C 395.563 0.55065 2.28046 0
M  V30 4056 C 396.579 -0.400189 1.69335 0
M  V30 4057 O 397.755 -0.267215 1.99619 0
M  V30 4058 C 394.82 -0.128496 3.46462 0
M  V30 4059 C 393.881 0.865208 4.20491 0
M  V30 4060 C 393.114 0.218377 5.33253 0
M  V30 4061 O 393.337 -0.987894 5.6178 0
M  V30 4062 O 392.271 0.922845 5.94783 0
M  V30 4063 H 396.097 1.4291 2.67975 0
M  V30 4064 H 393.682 0.760326 1.28606 0
M  V30 4065 H 395.564 -0.508947 4.18315 0
M  V30 4066 H 394.239 -0.981526 3.0846 0
M  V30 4067 H 393.146 1.29658 3.50913 0
M  V30 4068 H 394.479 1.68741 4.62371 0
M  V30 4069 N 396.131 -1.37776 0.765217 0
M  V30 4070 C 397.078 -2.30342 0.145274 0
M  V30 4071 C 398.048 -1.5077 -0.696971 0
M  V30 4072 O 399.233 -1.79362 -0.650689 0
M  V30 4073 C 396.373 -3.37227 -0.732939 0
M  V30 4074 C 395.486 -4.31819 0.125199 0
M  V30 4075 C 394.621 -5.25777 -0.757107 0
M  V30 4076 C 393.66 -6.12012 0.103963 0
M  V30 4077 N 392.797 -6.98232 -0.735953 0
M  V30 4078 H 397.637 -2.8278 0.940195 0
M  V30 4079 H 395.174 -1.39211 0.475255 0
M  V30 4080 H 397.132 -3.97818 -1.25686 0
M  V30 4081 H 395.762 -2.86171 -1.49353 0
M  V30 4082 H 394.814 -3.7259 0.766865 0
M  V30 4083 H 396.126 -4.92509 0.789683 0
M  V30 4084 H 395.28 -5.91541 -1.34776 0
M  V30 4085 H 394.019 -4.65481 -1.45529 0
M  V30 4086 H 393.024 -5.45233 0.707197 0
M  V30 4087 H 394.249 -6.74379 0.799381 0
M  V30 4088 H 392.195 -6.40472 -1.41887 0
M  V30 4089 H 392.112 -7.55891 -0.128624 0
M  V30 4090 H 393.38 -7.68393 -1.31121 0
M  V30 4091 N 397.609 -0.515225 -1.4894 0
M  V30 4092 C 398.539 0.244628 -2.32215 0
M  V30 4093 C 399.52 0.949136 -1.41157 0
M  V30 4094 O 400.705 0.937783 -1.70057 0
M  V30 4095 C 397.835 1.30096 -3.22013 0
M  V30 4096 C 396.789 0.715486 -4.21977 0
M  V30 4097 C 396.115 1.87339 -5.00808 0
M  V30 4098 C 397.415 -0.302982 -5.2142 0
M  V30 4099 H 399.109 -0.450501 -2.95991 0
M  V30 4100 H 396.655 -0.218098 -1.42339 0
M  V30 4101 H 398.608 1.84037 -3.79089 0
M  V30 4102 H 397.332 2.02547 -2.56207 0
M  V30 4103 H 395.991 0.197715 -3.66066 0
M  V30 4104 H 395.639 2.58592 -4.31438 0
M  V30 4105 H 395.339 1.48764 -5.68457 0
M  V30 4106 H 396.863 2.41686 -5.60732 0
M  V30 4107 H 398.277 0.148802 -5.73107 0
M  V30 4108 H 396.674 -0.60532 -5.97039 0
M  V30 4109 H 397.744 -1.21395 -4.69459 0
M  V30 4110 N 399.087 1.5561 -0.249682 0
M  V30 4111 C 400.312 2.03865 0.381305 0
M  V30 4112 C 400.737 1.12769 1.50548 0
M  V30 4113 O 400.095 0.121189 1.80895 0
M  V30 4114 C 400.143 3.50101 0.863816 0
M  V30 4115 O 399.247 3.62132 1.97318 0
M  V30 4116 H 398.588 0.658827 0.0827194 0
M  V30 4117 H 401.118 2.01105 -0.376552 0
M  V30 4118 H 401.128 3.90975 1.1663 0
M  V30 4119 H 399.803 4.1588 0.0411816 0
M  V30 4120 H 398.38 3.33155 1.67517 0
M  V30 4121 N 400.565 -0.0233959 1.57583 0
M  V30 4122 C 401.79 -0.728376 1.94189 0
M  V30 4123 C 402.215 -1.67793 0.850119 0
M  V30 4124 O 401.573 -1.80262 -0.19371 0
M  V30 4125 C 401.621 -1.45669 3.29868 0
M  V30 4126 O 400.725 -2.57013 3.22518 0
M  V30 4127 H 400.066 -0.195493 0.63457 0
M  V30 4128 H 402.596 0.0228214 2.04587 0
M  V30 4129 H 402.606 -1.82535 3.6489 0
M  V30 4130 H 401.281 -0.760314 4.08891 0
M  V30 4131 H 399.858 -2.22648 2.99136 0
M  V30 4132 N 402.043 -1.548 -0.295768 0
M  V30 4133 C 403.292 -1.73538 -1.02798 0
M  V30 4134 C 403.605 -0.531159 -1.8825 0
M  V30 4135 O 404.811 -0.600458 -2.64777 0
M  V30 4136 C 403.267 -3.07051 -1.87744 0
M  V30 4137 C 402.875 -4.34968 -1.07269 0
M  V30 4138 C 404.619 -3.35146 -2.60533 0
M  V30 4139 C 402.526 -5.5953 -1.91521 0
M  V30 4140 H 401.456 -0.646794 -0.387522 0
M  V30 4141 H 404.107 -1.81278 -0.284718 0
M  V30 4142 H 402.489 -2.93289 -2.66078 0
M  V30 4143 H 403.663 -4.5958 -0.335117 0
M  V30 4144 H 401.978 -4.13847 -0.460384 0
M  V30 4145 H 404.575 -4.2541 -3.23929 0
M  V30 4146 H 404.918 -2.54255 -3.29636 0
M  V30 4147 H 405.451 -3.49902 -1.89244 0
M  V30 4148 H 402.19 -6.43103 -1.26878 0
M  V30 4149 H 401.71 -5.39096 -2.62937 0
M  V30 4150 H 403.389 -5.96982 -2.49442 0
M  V30 4151 N 403.521 0.559213 -1.47345 0
M  V30 4152 C 404.468 1.66645 -1.59682 0
M  V30 4153 C 405.438 1.60168 -0.43994 0
M  V30 4154 O 406.623 1.79031 -0.659736 0
M  V30 4155 C 403.763 3.04969 -1.61518 0
M  V30 4156 C 402.876 3.21897 -2.88108 0
M  V30 4157 C 402.011 4.50608 -2.81294 0
M  V30 4158 C 401.05 4.60961 -4.02717 0
M  V30 4159 N 400.187 5.81024 -3.94151 0
M  V30 4160 H 405.027 1.55439 -2.54249 0
M  V30 4161 H 402.564 0.757219 -1.26113 0
M  V30 4162 H 404.522 3.85064 -1.60566 0
M  V30 4163 H 403.152 3.15015 -0.704645 0
M  V30 4164 H 402.204 2.35248 -2.98936 0
M  V30 4165 H 403.516 3.25412 -3.78032 0
M  V30 4166 H 402.67 5.3896 -2.7858 0
M  V30 4167 H 401.409 4.49568 -1.89049 0
M  V30 4168 H 400.414 3.71021 -4.05738 0
M  V30 4169 H 401.639 4.63761 -4.96087 0
M  V30 4170 H 399.585 5.80938 -3.04708 0
M  V30 4171 H 399.502 5.85909 -4.77752 0
M  V30 4172 H 400.77 6.71744 -3.9545 0
M  V30 4173 N 404.999 1.35443 0.805782 0
M  V30 4174 C 406.224 1.32037 1.59941 0
M  V30 4175 C 406.649 -0.0994215 1.87837 0
M  V30 4176 O 406.007 -1.06648 1.46615 0
M  V30 4177 C 406.055 2.13354 2.90711 0
M  V30 4178 O 405.159 1.5148 3.83572 0
M  V30 4179 H 404.5 0.452666 0.485787 0
M  V30 4180 H 407.03 1.78496 1.00002 0
M  V30 4181 H 407.04 2.25338 3.40128 0
M  V30 4182 H 405.715 3.16572 2.69732 0
M  V30 4183 H 404.292 1.4834 3.42125 0
M  V30 4184 N 406.477 -1.02803 1.19454 0
M  V30 4185 C 407.409 -2.11181 0.890807 0
M  V30 4186 C 408.422 -1.6238 -0.116829 0
M  V30 4187 O 409.611 -1.78144 0.112694 0
M  V30 4188 C 406.711 -3.37461 0.311942 0
M  V30 4189 C 405.884 -4.15446 1.36834 0
M  V30 4190 C 404.943 -5.20039 0.802864 0
M  V30 4191 O 403.969 -5.49602 1.48077 0
M  V30 4192 N 405.171 -5.79165 -0.393417 0
M  V30 4193 H 407.936 -2.37827 1.82369 0
M  V30 4194 H 405.497 -1.19101 1.09666 0
M  V30 4195 H 407.489 -4.0462 -0.0802225 0
M  V30 4196 H 406.059 -3.08156 -0.52524 0
M  V30 4197 H 405.279 -3.43423 1.93531 0
M  V30 4198 H 406.567 -4.64335 2.08015 0
M  V30 4199 H 405.965 -5.57466 -0.961658 0
M  V30 4200 H 404.522 -6.47729 -0.727351 0
M  V30 4201 N 407.956 -0.998596 -1.21925 0
M  V30 4202 C 409.184 -0.696286 -1.94832 0
M  V30 4203 C 409.599 0.740032 -1.73692 0
M  V30 4204 O 408.956 1.5 -1.03953 0
M  V30 4205 C 409.007 -0.999833 -3.47398 0
M  V30 4206 O 408.728 -2.37972 -3.67833 0
M  V30 4207 C 410.229 -0.716025 -4.37479 0
M  V30 4208 H 407.449 -0.257111 -0.619786 0
M  V30 4209 H 409.993 -1.33491 -1.54921 0
M  V30 4210 H 408.148 -0.406918 -3.85257 0
M  V30 4211 H 408.562 -2.48338 -4.61983 0
M  V30 4212 H 410.036 -0.978642 -5.43256 0
M  V30 4213 H 410.513 0.349968 -4.37803 0
M  V30 4214 H 411.119 -1.29025 -4.05256 0
M  V30 4215 N 409.434 1.37368 -0.772513 0
M  V30 4216 C 410.683 1.98918 -0.333861 0
M  V30 4217 C 410.996 1.62017 1.09589 0
M  V30 4218 O 412.202 2.16676 1.63596 0
M  V30 4219 C 410.658 3.55735 -0.545971 0
M  V30 4220 C 410.266 4.01573 -1.98603 0
M  V30 4221 C 412.01 4.24156 -0.170979 0
M  V30 4222 C 409.917 5.51102 -2.1457 0
M  V30 4223 H 408.847 0.744214 -0.121085 0
M  V30 4224 H 411.498 1.56888 -0.95175 0
M  V30 4225 H 409.88 3.95748 0.141387 0
M  V30 4226 H 411.054 3.72803 -2.7084 0
M  V30 4227 H 409.369 3.45937 -2.31769 0
M  V30 4228 H 411.966 5.34024 -0.26878 0
M  V30 4229 H 412.309 4.06917 0.878855 0
M  V30 4230 H 412.842 3.89447 -0.810914 0
M  V30 4231 H 409.581 5.73268 -3.17875 0
M  V30 4232 H 409.101 5.81554 -1.46817 0
M  V30 4233 H 410.78 6.17083 -1.94468 0
M  V30 4234 N 410.912 0.523116 1.48665 0
M  V30 4235 C 412.142 -0.00961724 2.06598 0
M  V30 4236 C 412.55 -1.29333 1.38093 0
M  V30 4237 O 411.893 -1.77846 0.46007 0
M  V30 4238 C 411.955 -0.311135 3.58151 0
M  V30 4239 C 411.619 0.878092 4.48485 0
M  V30 4240 C 412.616 1.77464 4.88674 0
M  V30 4241 C 410.301 1.08315 4.90483 0
M  V30 4242 C 412.295 2.86021 5.69623 0
M  V30 4243 C 409.982 2.17187 5.71203 0
M  V30 4244 C 410.98 3.05873 6.10681 0
M  V30 4245 O 410.668 4.12862 6.89783 0
M  V30 4246 H 410.4 0.0272658 0.67545 0
M  V30 4247 H 412.954 0.726156 1.92136 0
M  V30 4248 H 411.184 -1.10079 3.70701 0
M  V30 4249 H 412.873 -0.785125 3.98234 0
M  V30 4250 H 413.639 1.62813 4.56855 0
M  V30 4251 H 409.518 0.402149 4.59243 0
M  V30 4252 H 413.062 3.55272 6.00356 0
M  V30 4253 H 408.959 2.31824 6.02435 0
M  V30 4254 H 409.727 4.10487 7.08126 0
M  V30 4255 N 412.39 -1.55475 0.257931 0
M  V30 4256 C 413.3 -2.2549 -0.647425 0
M  V30 4257 C 414.316 -1.2748 -1.18427 0
M  V30 4258 O 415.492 -1.6038 -1.2182 0
M  V30 4259 C 412.557 -2.94916 -1.82278 0
M  V30 4260 C 411.618 -4.08363 -1.32432 0
M  V30 4261 C 410.851 -4.74469 -2.44366 0
M  V30 4262 O 411.074 -4.39701 -3.63344 0
M  V30 4263 O 410.008 -5.62763 -2.13497 0
M  V30 4264 H 413.834 -3.03593 -0.0807707 0
M  V30 4265 H 411.419 -1.49377 0.0259962 0
M  V30 4266 H 413.301 -3.38606 -2.50846 0
M  V30 4267 H 411.976 -2.19744 -2.37685 0
M  V30 4268 H 410.883 -3.69166 -0.605605 0
M  V30 4269 H 412.216 -4.85385 -0.816211 0
M  V30 4270 N 413.868 0.0150385 -1.57593 0
M  V30 4271 C 415.117 0.702115 -1.89085 0
M  V30 4272 C 415.43 1.75764 -0.858277 0
M  V30 4273 O 416.636 2.49829 -1.0629 0
M  V30 4274 C 415.092 1.29992 -3.35604 0
M  V30 4275 C 414.7 0.280007 -4.47124 0
M  V30 4276 C 416.444 1.96606 -3.76227 0
M  V30 4277 C 414.351 0.886949 -5.84711 0
M  V30 4278 H 413.281 0.265997 -0.705522 0
M  V30 4279 H 415.932 -0.0430408 -1.8345 0
M  V30 4280 H 414.314 2.09525 -3.36029 0
M  V30 4281 H 415.488 -0.489631 -4.58191 0
M  V30 4282 H 413.803 -0.284835 -4.15425 0
M  V30 4283 H 416.4 2.42893 -4.76347 0
M  V30 4284 H 416.743 2.79024 -3.08952 0
M  V30 4285 H 417.276 1.23828 -3.78036 0
M  V30 4286 H 414.015 0.101876 -6.55421 0
M  V30 4287 H 413.535 1.6261 -5.77337 0
M  V30 4288 H 415.214 1.39011 -6.3189 0
M  V30 4289 N 415.346 1.54954 0.287554 0
M  V30 4290 C 416.595 1.74081 1.01877 0
M  V30 4291 C 416.908 0.541135 1.87966 0
M  V30 4292 O 418.114 0.614491 2.64455 0
M  V30 4293 C 416.57 3.08042 1.86113 0
M  V30 4294 C 416.178 4.35531 1.04961 0
M  V30 4295 C 417.922 3.36523 2.58752 0
M  V30 4296 C 415.829 5.60538 1.88551 0
M  V30 4297 H 414.759 0.64884 0.384087 0
M  V30 4298 H 417.41 1.81426 0.275101 0
M  V30 4299 H 415.792 2.94696 2.64519 0
M  V30 4300 H 416.966 4.59751 0.31074 0
M  V30 4301 H 415.281 4.14085 0.43843 0
M  V30 4302 H 417.878 4.27122 3.21668 0
M  V30 4303 H 418.221 2.56 3.28283 0
M  V30 4304 H 418.754 3.50901 1.87386 0
M  V30 4305 H 415.493 6.43767 1.23466 0
M  V30 4306 H 415.013 5.40483 2.60074 0
M  V30 4307 H 416.692 5.98297 2.46273 0
M  V30 4308 N 416.824 -0.551391 1.4764 0
M  V30 4309 C 418.101 -1.31229 1.45046 0
M  V30 4310 C 418.481 -2.10563 0.150527 0
M  V30 4311 O 417.829 -2.11374 -0.867956 0
M  V30 4312 C 418.039 -2.21189 2.69956 0
M  V30 4313 C 419.387 -2.82021 3.1741 0
M  V30 4314 O 420.411 -2.31488 2.70724 0
M  V30 4315 O 419.27 -3.73885 3.98588 0
M  V30 4316 H 416.364 -0.591193 0.578291 0
M  V30 4317 H 418.91 -0.569813 1.59847 0
M  V30 4318 H 417.682 -1.62207 3.56096 0
M  V30 4319 H 417.305 -3.02722 2.57769 0
M  V30 4320 N 418.302 -1.35869 -0.798587 0
M  V30 4321 C 419.25 -1.29491 -1.93222 0
M  V30 4322 C 420.244 -0.18836 -1.6835 0
M  V30 4323 O 421.45 -0.354822 -1.76468 0
M  V30 4324 H 417.825 -0.402901 -0.63496 0
M  V30 4325 H 419.796 -2.25247 -1.9572 0
M  V30 4326 C 418.545 -1.09184 -3.30112 0
M  V30 4327 H 417.868 -1.93574 -3.49813 0
M  V30 4328 H 419.308 -1.08766 -4.09812 0
M  V30 4329 C 417.767 0.203959 -3.36282 0
M  V30 4330 O 418.297 1.19699 -3.83451 0
M  V30 4331 N 416.503 0.245488 -2.89561 0
M  V30 4332 H 416.05 -0.563223 -2.51367 0
M  V30 4333 H 416.008 1.11219 -2.94071 0
M  V30 4334 N 419.78 1.02168 -1.19998 0
M  V30 4335 C 421.005 1.79833 -1.03319 0
M  V30 4336 C 421.43 1.83504 0.413281 0
M  V30 4337 O 420.788 1.26635 1.29743 0
M  V30 4338 C 420.836 3.22396 -1.61533 0
M  V30 4339 O 419.94 4.03555 -0.849519 0
M  V30 4340 H 419.281 0.554872 -0.364709 0
M  V30 4341 H 421.811 1.28542 -1.59179 0
M  V30 4342 H 421.821 3.73124 -1.65054 0
M  V30 4343 H 420.496 3.19039 -2.66809 0
M  V30 4344 H 419.073 3.62169 -0.888129 0
M  V30 4345 N 421.258 1.00505 1.21394 0
M  V30 4346 C 422.19 0.52372 2.23136 0
M  V30 4347 C 423.203 -0.387714 1.58116 0
M  V30 4348 O 424.392 -0.187905 1.77508 0
M  V30 4349 C 421.492 -0.258885 3.3791 0
M  V30 4350 C 420.665 0.651634 4.32519 0
M  V30 4351 C 419.724 -0.0813705 5.26137 0
M  V30 4352 O 418.75 0.537295 5.66658 0
M  V30 4353 N 419.952 -1.35992 5.64346 0
M  V30 4354 H 422.717 1.39865 2.65062 0
M  V30 4355 H 420.278 0.881196 1.35818 0
M  V30 4356 H 422.27 -0.758208 3.97534 0
M  V30 4357 H 420.84 -1.035 2.94968 0
M  V30 4358 H 420.06 1.33145 3.71034 0
M  V30 4359 H 421.348 1.27129 4.92662 0
M  V30 4360 H 420.746 -1.88368 5.33417 0
M  V30 4361 H 419.303 -1.8042 6.26332 0
M  V30 4362 N 422.737 -1.36956 0.779787 0
M  V30 4363 C 423.985 -1.99097 0.347079 0
M  V30 4364 C 424.306 -1.62206 -1.08232 0
M  V30 4365 O 423.576 -0.891373 -1.74446 0
M  V30 4366 H 422.156 -0.736409 0.125342 0
M  V30 4367 H 424.818 -1.67308 0.999696 0
M  V30 4368 H 423.914 -3.09107 0.431162 0
M  V30 4369 N 424.215 -0.530993 -1.48385 0
M  V30 4370 C 425.462 0.0027373 -2.025 0
M  V30 4371 C 425.79 1.34186 -1.40799 0
M  V30 4372 O 425.045 1.88 -0.543544 0
M  V30 4373 C 425.344 0.172742 -3.56982 0
M  V30 4374 C 425.01 -1.09215 -4.37473 0
M  V30 4375 C 423.672 -1.43881 -4.59186 0
M  V30 4376 C 426.024 -1.93153 -4.84088 0
M  V30 4377 C 423.352 -2.62381 -5.2476 0
M  V30 4378 C 425.704 -3.10833 -5.50968 0
M  V30 4379 C 424.368 -3.45843 -5.70919 0
M  V30 4380 H 423.638 0.00100165 -0.740999 0
M  V30 4381 H 426.285 -0.697219 -1.78357 0
M  V30 4382 H 424.59 0.955473 -3.79971 0
M  V30 4383 H 426.287 0.600642 -3.96476 0
M  V30 4384 H 422.877 -0.812177 -4.20834 0
M  V30 4385 H 427.061 -1.67683 -4.67115 0
M  V30 4386 H 422.317 -2.89707 -5.38405 0
M  V30 4387 H 426.491 -3.7618 -5.86056 0
M  V30 4388 H 424.118 -4.37764 -6.21503 0
M  V30 4389 N 425.693 1.55336 -0.266172 0
M  V30 4390 C 426.923 2.03506 0.356239 0
M  V30 4391 C 427.331 1.14426 1.50676 0
M  V30 4392 O 426.674 0.155043 1.83045 0
M  V30 4393 C 426.736 3.47848 0.90785 0
M  V30 4394 C 426.4 4.56861 -0.112888 0
M  V30 4395 C 427.397 5.11528 -0.929264 0
M  V30 4396 C 425.082 5.01704 -0.244546 0
M  V30 4397 C 427.076 6.09549 -1.86357 0
M  V30 4398 C 424.763 5.99553 -1.18234 0
M  V30 4399 C 425.761 6.53356 -1.99036 0
M  V30 4400 O 425.449 7.49293 -2.91231 0
M  V30 4401 H 425.181 0.670444 0.08649 0
M  V30 4402 H 427.735 2.01598 -0.39337 0
M  V30 4403 H 425.965 3.46967 1.70737 0
M  V30 4404 H 427.654 3.79407 1.44239 0
M  V30 4405 H 428.42 4.77701 -0.838237 0
M  V30 4406 H 424.299 4.59477 0.374359 0
M  V30 4407 H 427.843 6.51469 -2.49467 0
M  V30 4408 H 423.74 6.32799 -1.27421 0
M  V30 4409 H 424.508 7.66978 -2.8581 0
M  V30 4410 N 427.171 -0.0066808 1.57599 0
M  V30 4411 C 428.417 -0.693947 1.90558 0
M  V30 4412 C 428.75 -1.73792 0.866594 0
M  V30 4413 O 428.025 -1.94156 -0.115548 0
M  V30 4414 C 428.308 -1.34317 3.34112 0
M  V30 4415 C 428.161 -0.311189 4.48722 0
M  V30 4416 C 429.48 -2.27116 3.7697 0
M  V30 4417 H 426.599 -0.250803 0.693013 0
M  V30 4418 H 429.241 0.043242 1.89951 0
M  V30 4419 H 427.391 -1.9715 3.3476 0
M  V30 4420 H 429.063 0.316944 4.6021 0
M  V30 4421 H 427.306 0.367253 4.32243 0
M  V30 4422 H 427.977 -0.804366 5.46108 0
M  V30 4423 H 430.453 -1.74306 3.77831 0
M  V30 4424 H 429.329 -2.69511 4.78179 0
M  V30 4425 H 429.59 -3.14743 3.10466 0
M  V30 4426 N 428.649 -1.55105 -0.279332 0
M  V30 4427 C 429.889 -1.7716 -1.01949 0
M  V30 4428 C 430.253 -0.557511 -1.83728 0
M  V30 4429 O 431.454 -0.656198 -2.60667 0
M  V30 4430 C 429.725 -3.0372 -1.88385 0
M  V30 4431 S 431.284 -3.46868 -2.68752 0
M  V30 4432 H 428.102 -0.62253 -0.343478 0
M  V30 4433 H 430.704 -1.93329 -0.290572 0
M  V30 4434 H 429.408 -3.90184 -1.2722 0
M  V30 4435 H 428.939 -2.902 -2.65608 0
M  V30 4436 H 430.954 -3.05643 -3.90892 0
M  V30 4437 N 430.127 0.543554 -1.4793 0
M  V30 4438 C 431.538 1.12561 -1.48953 0
M  V30 4439 C 431.889 1.94578 -0.251754 0
M  V30 4440 O 431.014 2.0665 0.642255 0
M  V30 4441 C 431.609 2.04801 -2.69892 0
M  V30 4442 C 430.168 2.58251 -2.73831 0
M  V30 4443 C 429.315 1.34918 -2.42265 0
M  V30 4444 H 432.266 0.32947 -1.55242 0
M  V30 4445 H 432.287 2.88886 -2.47639 0
M  V30 4446 H 431.799 1.4508 -3.59963 0
M  V30 4447 H 429.9 3.21732 -1.87934 0
M  V30 4448 H 430.013 2.98312 -3.74895 0
M  V30 4449 H 428.377 1.66046 -1.93134 0
M  V30 4450 H 429.16 0.769693 -3.3456 0
M  V30 4451 N 431.605 1.3629 0.791371 0
M  V30 4452 C 432.851 1.30605 1.55146 0
M  V30 4453 C 433.184 -0.115042 1.93859 0
M  V30 4454 O 432.459 -1.06798 1.62556 0
M  V30 4455 C 432.742 2.22692 2.82985 0
M  V30 4456 C 432.595 3.73489 2.50651 0
M  V30 4457 C 433.914 2.13588 3.84796 0
M  V30 4458 H 431.033 0.475761 0.562868 0
M  V30 4459 H 433.675 1.66825 0.909358 0
M  V30 4460 H 431.825 1.91933 3.37778 0
M  V30 4461 H 433.497 4.14758 2.01924 0
M  V30 4462 H 431.74 3.93021 1.83622 0
M  V30 4463 H 432.411 4.3333 3.41949 0
M  V30 4464 H 434.887 2.40659 3.39445 0
M  V30 4465 H 433.763 2.80195 4.71998 0
M  V30 4466 H 434.024 1.12256 4.27611 0
M  V30 4467 N 433.083 -1.0153 1.20538 0
M  V30 4468 C 433.993 -2.13557 0.971113 0
M  V30 4469 C 435.009 -1.73845 -0.0734366 0
M  V30 4470 O 436.185 -2.01075 0.114299 0
M  V30 4471 C 433.25 -3.42661 0.527639 0
M  V30 4472 C 432.311 -3.96608 1.64319 0
M  V30 4473 C 431.544 -5.1955 1.22078 0
M  V30 4474 O 431.767 -5.70329 0.0900198 0
M  V30 4475 O 430.701 -5.66681 2.02871 0
M  V30 4476 H 434.527 -2.3619 1.90913 0
M  V30 4477 H 432.112 -1.11946 0.989362 0
M  V30 4478 H 433.994 -4.20404 0.289621 0
M  V30 4479 H 432.669 -3.21441 -0.381779 0
M  V30 4480 H 431.576 -3.20139 1.93551 0
M  V30 4481 H 432.909 -4.22219 2.52966 0
M  V30 4482 N 434.561 -1.01147 -1.20859 0
M  V30 4483 C 435.972 -0.730205 -1.71828 0
M  V30 4484 C 436.323 0.751662 -1.8123 0
M  V30 4485 O 435.448 1.58686 -1.47132 0
M  V30 4486 C 436.043 -1.31885 -3.12077 0
M  V30 4487 C 434.602 -1.08656 -3.60376 0
M  V30 4488 C 433.749 -1.42769 -2.37723 0
M  V30 4489 H 436.7 -1.18158 -1.05945 0
M  V30 4490 H 436.721 -0.706793 -3.73878 0
M  V30 4491 H 436.233 -2.39737 -3.05201 0
M  V30 4492 H 434.334 -0.0254814 -3.72591 0
M  V30 4493 H 434.447 -1.76301 -4.45483 0
M  V30 4494 H 432.811 -0.846603 -2.40218 0
M  V30 4495 H 433.594 -2.51666 -2.33493 0
M  V30 4496 N 436.039 1.36541 -0.78704 0
M  V30 4497 C 436.971 2.28761 -0.141773 0
M  V30 4498 C 437.984 1.49365 0.647599 0
M  V30 4499 O 439.173 1.71836 0.483173 0
M  V30 4500 C 436.273 3.28771 0.822368 0
M  V30 4501 C 435.446 4.3732 0.0835594 0
M  V30 4502 C 434.505 5.17307 0.963296 0
M  V30 4503 O 433.531 5.67638 0.421419 0
M  V30 4504 N 434.733 5.33515 2.28784 0
M  V30 4505 H 437.498 2.84777 -0.933919 0
M  V30 4506 H 435.059 1.48682 -0.640735 0
M  V30 4507 H 437.051 3.79169 1.41468 0
M  V30 4508 H 435.621 2.73412 1.5154 0
M  V30 4509 H 434.841 3.88118 -0.689809 0
M  V30 4510 H 436.129 5.0701 -0.426358 0
M  V30 4511 H 435.527 4.94234 2.75226 0
M  V30 4512 H 434.084 5.87165 2.82985 0
M  V30 4513 N 437.518 0.538854 1.48102 0
M  V30 4514 C 438.466 -0.232325 2.31437 0
M  V30 4515 C 439.46 -0.927004 1.41785 0
M  V30 4516 O 440.666 -0.850378 1.58646 0
M  V30 4517 H 437.041 -0.0937916 0.746128 0
M  V30 4518 H 439.012 0.489986 2.9435 0
M  V30 4519 C 437.761 -1.26074 3.24038 0
M  V30 4520 H 437.084 -0.735609 3.92974 0
M  V30 4521 H 438.524 -1.77157 3.85216 0
M  V30 4522 C 436.983 -2.29902 2.46265 0
M  V30 4523 O 437.513 -3.36502 2.19384 0
M  V30 4524 N 435.719 -2.03348 2.07601 0
M  V30 4525 H 435.266 -1.16675 2.29662 0
M  V30 4526 H 435.224 -2.73038 1.55877 0
M  V30 4527 N 438.996 -1.55193 0.274407 0
M  V30 4528 C 440.412 -1.59401 -0.0797543 0
M  V30 4529 C 440.612 -1.29162 -1.54659 0
M  V30 4530 O 439.668 -1.05215 -2.29534 0
M  V30 4531 C 440.981 -2.99257 0.294238 0
M  V30 4532 C 442.529 -3.12072 0.240796 0
M  V30 4533 C 443.004 -4.54194 0.589218 0
M  V30 4534 N 444.495 -4.60033 0.540744 0
M  V30 4535 C 445.23 -5.68027 0.783147 0
M  V30 4536 N 444.726 -6.8417 1.09013 0
M  V30 4537 N 446.519 -5.57572 0.711993 0
M  V30 4538 H 438.67 -1.73113 1.23067 0
M  V30 4539 H 440.933 -0.807197 0.497129 0
M  V30 4540 H 440.639 -3.26217 1.31435 0
M  V30 4541 H 440.513 -3.75427 -0.365281 0
M  V30 4542 H 442.9 -2.84877 -0.770024 0
M  V30 4543 H 442.981 -2.38117 0.934563 0
M  V30 4544 H 442.625 -4.82115 1.59772 0
M  V30 4545 H 442.555 -5.26448 -0.126331 0
M  V30 4546 H 445.046 -3.76599 0.313327 0
M  V30 4547 H 445.359 -7.6243 1.26178 0
M  V30 4548 H 443.704 -6.85787 1.12789 0
M  V30 4549 H 446.895 -4.65714 0.472014 0
M  V30 4550 H 447.068 -6.41659 0.90429 0
M  V30 4551 N 440.474 -0.00167713 -1.576 0
M  V30 4552 C 441.699 0.69739 -1.95323 0
M  V30 4553 C 442.124 1.6642 -0.876706 0
M  V30 4554 O 441.482 1.80548 0.165007 0
M  V30 4555 C 441.53 1.40403 -3.32144 0
M  V30 4556 O 440.634 2.5185 -3.26566 0
M  V30 4557 H 439.975 0.185373 -0.637599 0
M  V30 4558 H 442.505 -0.0553665 -2.04525 0
M  V30 4559 H 442.515 1.76707 -3.67748 0
M  V30 4560 H 441.19 0.695167 -4.10049 0
M  V30 4561 H 439.767 2.17861 -3.0264 0
M  V30 4562 N 441.952 1.55251 0.271103 0
M  V30 4563 C 442.899 1.88261 1.33516 0
M  V30 4564 C 443.869 0.734296 1.48988 0
M  V30 4565 O 445.054 0.985741 1.63364 0
M  V30 4566 C 442.194 2.16168 2.69008 0
M  V30 4567 C 441.307 3.43678 2.61743 0
M  V30 4568 C 440.442 3.61276 3.89427 0
M  V30 4569 C 439.481 4.82472 3.7668 0
M  V30 4570 N 438.618 4.96717 4.96202 0
M  V30 4571 H 443.458 2.79015 1.04665 0
M  V30 4572 H 440.995 1.38137 0.505618 0
M  V30 4573 H 442.953 2.30349 3.47844 0
M  V30 4574 H 441.583 1.28646 2.96057 0
M  V30 4575 H 440.635 3.37959 1.74607 0
M  V30 4576 H 441.947 4.3265 2.48224 0
M  V30 4577 H 441.101 3.75284 4.76704 0
M  V30 4578 H 439.84 2.70492 4.05814 0
M  V30 4579 H 438.845 4.68465 2.87786 0
M  V30 4580 H 440.07 5.74692 3.61809 0
M  V30 4581 H 438.016 4.08865 5.12997 0
M  V30 4582 H 437.933 5.79738 4.85222 0
M  V30 4583 H 439.201 5.15113 5.85046 0
M  V30 4584 N 443.43 -0.535701 1.48216 0
M  V30 4585 C 444.363 -1.65726 1.56876 0
M  V30 4586 C 445.341 -1.57094 0.419542 0
M  V30 4587 O 446.525 -1.77648 0.630352 0
M  V30 4588 C 443.652 -3.04096 1.49142 0
M  V30 4589 C 442.698 -3.31105 2.68834 0
M  V30 4590 S 443.531 -3.18001 4.30854 0
M  V30 4591 C 444.687 -4.58828 4.25709 0
M  V30 4592 H 444.92 -1.58129 2.51759 0
M  V30 4593 H 442.453 -0.718218 1.36678 0
M  V30 4594 H 444.411 -3.839 1.45366 0
M  V30 4595 H 443.072 -3.09139 0.556067 0
M  V30 4596 H 442.265 -4.32033 2.59545 0
M  V30 4597 H 441.867 -2.58961 2.69843 0
M  V30 4598 H 444.159 -5.5023 3.95289 0
M  V30 4599 H 445.102 -4.73172 5.26796 0
M  V30 4600 H 445.51 -4.37883 3.56257 0
M  V30 4601 N 444.908 -1.36708 -0.784132 0
M  V30 4602 C 445.856 -1.31533 -1.91838 0
M  V30 4603 C 446.85 -0.206205 -1.6814 0
M  V30 4604 O 448.056 -0.373519 -1.76082 0
M  V30 4605 H 444.431 -0.409613 -0.630651 0
M  V30 4606 H 446.402 -2.2731 -1.9332 0
M  V30 4607 C 445.151 -1.12679 -3.28936 0
M  V30 4608 H 444.474 -1.97274 -3.4774 0
M  V30 4609 H 445.914 -1.13106 -4.08636 0
M  V30 4610 C 444.373 0.168281 -3.36479 0
M  V30 4611 O 444.903 1.15625 -3.84699 0
M  V30 4612 N 443.109 0.214762 -2.89805 0
M  V30 4613 H 442.656 -0.589852 -2.50756 0
M  V30 4614 H 442.614 1.08094 -2.95234 0
M  V30 4615 N 446.386 1.0089 -1.21074 0
M  V30 4616 C 447.635 1.74019 -1.01981 0
M  V30 4617 C 447.948 1.90408 0.447665 0
M  V30 4618 O 449.154 2.60707 0.757906 0
M  V30 4619 C 447.61 3.13026 -1.77603 0
M  V30 4620 C 447.218 3.04623 -3.28495 0
M  V30 4621 C 448.962 3.90312 -1.66904 0
M  V30 4622 C 446.869 4.38685 -3.96623 0
M  V30 4623 H 445.799 0.652422 -0.377971 0
M  V30 4624 H 448.45 1.12755 -1.44771 0
M  V30 4625 H 446.832 3.74878 -1.27604 0
M  V30 4626 H 448.006 2.52032 -3.85767 0
M  V30 4627 H 446.321 2.40827 -3.39693 0
M  V30 4628 H 448.918 4.8951 -2.15138 0
M  V30 4629 H 449.261 4.11558 -0.62658 0
M  V30 4630 H 449.794 3.35104 -2.14359 0
M  V30 4631 H 446.533 4.22641 -5.01054 0
M  V30 4632 H 446.053 4.91252 -3.4414 0
M  V30 4633 H 447.732 5.075 -4.01314 0
M  V30 4634 N 447.864 1.01787 1.20321 0
M  V30 4635 C 449.275 0.739307 1.71438 0
M  V30 4636 C 449.626 -0.742041 1.81627 0
M  V30 4637 O 448.751 -1.57903 1.47971 0
M  V30 4638 C 449.346 1.33538 3.11373 0
M  V30 4639 C 447.905 1.10566 3.59795 0
M  V30 4640 C 447.052 1.44028 2.36962 0
M  V30 4641 H 450.003 1.18718 1.05317 0
M  V30 4642 H 450.024 0.726611 3.73498 0
M  V30 4643 H 449.536 2.41352 3.03926 0
M  V30 4644 H 447.637 0.0452405 3.72573 0
M  V30 4645 H 447.75 1.78661 4.44542 0
M  V30 4646 H 446.114 0.85933 2.39766 0
M  V30 4647 H 446.897 2.52901 2.32155 0
M  V30 4648 N 449.342 -1.36122 0.79427 0
M  V30 4649 C 450.589 -1.99111 0.368905 0
M  V30 4650 C 450.917 -1.63032 -1.0607 0
M  V30 4651 O 450.172 -0.879303 -1.74833 0
M  V30 4652 C 450.471 -3.5409 0.48527 0
M  V30 4653 C 450.137 -4.10003 1.87638 0
M  V30 4654 C 448.799 -4.24986 2.257 0
M  V30 4655 C 451.151 -4.40423 2.78706 0
M  V30 4656 C 448.479 -4.67701 3.54221 0
M  V30 4657 C 450.831 -4.84573 4.0666 0
M  V30 4658 C 449.495 -4.97761 4.44737 0
M  V30 4659 H 448.765 -0.7286 0.134992 0
M  V30 4660 H 451.412 -1.62534 1.01267 0
M  V30 4661 H 449.717 -3.91052 -0.241984 0
M  V30 4662 H 451.414 -4.00766 0.137109 0
M  V30 4663 H 448.004 -3.98784 1.57064 0
M  V30 4664 H 452.188 -4.28412 2.50553 0
M  V30 4665 H 447.444 -4.761 3.83587 0
M  V30 4666 H 451.618 -5.07074 4.77336 0
M  V30 4667 H 449.245 -5.30618 5.44379 0
M  V30 4668 N 450.82 -0.546701 -1.47814 0
M  V30 4669 C 452.236 -0.205717 -1.58269 0
M  V30 4670 C 452.436 1.29153 -1.54667 0
M  V30 4671 O 451.492 2.07098 -1.44453 0
M  V30 4672 C 452.805 -0.823065 -2.89216 0
M  V30 4673 C 454.353 -0.793328 -3.02779 0
M  V30 4674 C 454.828 -1.38955 -4.36412 0
M  V30 4675 N 456.319 -1.35227 -4.43021 0
M  V30 4676 C 457.054 -1.78333 -5.44963 0
M  V30 4677 N 456.55 -2.29246 -6.53772 0
M  V30 4678 N 458.343 -1.69467 -5.35945 0
M  V30 4679 H 450.494 -1.5196 -1.48398 0
M  V30 4680 H 452.757 -0.633078 -0.705632 0
M  V30 4681 H 452.463 -1.8749 -2.97558 0
M  V30 4682 H 452.337 -0.309915 -3.75925 0
M  V30 4683 H 454.724 0.249784 -2.94041 0
M  V30 4684 H 454.805 -1.34412 -2.17639 0
M  V30 4685 H 454.449 -2.43168 -4.45906 0
M  V30 4686 H 454.379 -0.814291 -5.20266 0
M  V30 4687 H 456.87 -0.979739 -3.64979 0
M  V30 4688 H 457.183 -2.60089 -7.27718 0
M  V30 4689 H 455.528 -2.3325 -6.5469 0
M  V30 4690 H 458.719 -1.29477 -4.49837 0
M  V30 4691 H 458.892 -2.03381 -6.15256 0
M  V30 4692 N 452.299 1.55045 -0.282633 0
M  V30 4693 C 453.548 1.98938 0.332667 0
M  V30 4694 C 453.861 1.17455 1.56409 0
M  V30 4695 O 455.067 1.51527 2.25282 0
M  V30 4696 C 453.523 3.54105 0.643226 0
M  V30 4697 C 453.131 4.44374 -0.568814 0
M  V30 4698 C 454.875 4.06569 1.22074 0
M  V30 4699 C 452.782 5.90943 -0.232426 0
M  V30 4700 H 451.712 0.743043 0.128075 0
M  V30 4701 H 454.363 1.79341 -0.388464 0
M  V30 4702 H 452.745 3.69532 1.42346 0
M  V30 4703 H 453.919 4.40718 -1.34551 0
M  V30 4704 H 452.234 4.02585 -1.06369 0
M  V30 4705 H 454.831 5.13626 1.48635 0
M  V30 4706 H 455.174 3.56057 2.15707 0
M  V30 4707 H 455.707 3.94612 0.502621 0
M  V30 4708 H 452.446 6.45567 -1.13683 0
M  V30 4709 H 451.966 5.9765 0.507357 0
M  V30 4710 H 453.645 6.4677 0.172657 0
M  V30 4711 N 453.777 0.010035 1.57597 0
M  V30 4712 C 455.025 -0.671371 1.90623 0
M  V30 4713 C 455.346 -1.73753 0.885151 0
M  V30 4714 O 454.616 -1.95752 -0.0760611 0
M  V30 4715 H 453.196 -0.250968 0.703579 0
M  V30 4716 H 455.858 0.0533325 1.94827 0
M  V30 4717 H 454.954 -1.13626 2.90681 0
M  V30 4718 N 455.255 -1.55392 -0.262866 0
M  V30 4719 C 456.203 -1.8977 -1.345 0
M  V30 4720 C 457.197 -0.775063 -1.50629 0
M  V30 4721 O 458.403 -0.959519 -1.52293 0
M  V30 4722 H 454.778 -0.602467 -0.450041 0
M  V30 4723 H 456.749 -2.80147 -1.02762 0
M  V30 4724 C 455.498 -2.19501 -2.69657 0
M  V30 4725 H 454.821 -3.05378 -2.5804 0
M  V30 4726 H 456.261 -2.47469 -3.44289 0
M  V30 4727 C 454.72 -1.00597 -3.21531 0
M  V30 4728 O 455.25 -0.245768 -4.00947 0
M  V30 4729 N 453.456 -0.800911 -2.79345 0
M  V30 4730 H 453.003 -1.42079 -2.14875 0
M  V30 4731 H 452.961 -0.00697996 -3.14399 0
M  V30 4732 N 456.733 0.527833 -1.48498 0
M  V30 4733 C 457.696 1.61439 -1.62696 0
M  V30 4734 C 458.696 1.52824 -0.500136 0
M  V30 4735 O 459.886 1.56456 -0.765976 0
M  V30 4736 C 457.018 3.01063 -1.59918 0
M  V30 4737 H 458.211 1.50189 -2.59583 0
M  V30 4738 H 455.764 0.750055 -1.37127 0
M  V30 4739 H 456.499 3.17818 -0.645163 0
M  V30 4740 H 456.284 3.08725 -2.41726 0
M  V30 4741 H 457.774 3.80057 -1.73051 0
M  V30 4742 N 458.211 1.37122 0.776871 0
M  V30 4743 C 459.158 1.3247 1.88998 0
M  V30 4744 C 460.128 0.191143 1.64997 0
M  V30 4745 O 461.313 0.379683 1.86984 0
M  V30 4746 C 458.453 1.13241 3.25992 0
M  V30 4747 C 457.566 2.35782 3.61982 0
M  V30 4748 C 456.701 2.09465 4.88158 0
M  V30 4749 C 455.74 3.279 5.16864 0
M  V30 4750 N 454.877 3.01167 6.34226 0
M  V30 4751 H 459.717 2.27642 1.9231 0
M  V30 4752 H 457.254 1.13125 0.94027 0
M  V30 4753 H 459.212 1.00115 4.0501 0
M  V30 4754 H 457.842 0.217186 3.22069 0
M  V30 4755 H 456.894 2.59666 2.77989 0
M  V30 4756 H 458.206 3.24125 3.79137 0
M  V30 4757 H 457.36 1.93341 5.75069 0
M  V30 4758 H 456.099 1.18452 4.73097 0
M  V30 4759 H 455.104 3.44569 4.2843 0
M  V30 4760 H 456.329 4.19757 5.33836 0
M  V30 4761 H 454.275 2.12779 6.20533 0
M  V30 4762 H 454.192 3.83052 6.51772 0
M  V30 4763 H 455.46 2.88649 7.24087 0
M  V30 4764 N 459.689 -1.00246 1.21608 0
M  V30 4765 C 460.937 -1.73717 1.0328 0
M  V30 4766 C 461.258 -1.90102 -0.434318 0
M  V30 4767 O 460.528 -1.45376 -1.31311 0
M  V30 4768 H 459.108 -0.643613 0.379172 0
M  V30 4769 H 461.77 -1.20787 1.52959 0
M  V30 4770 H 460.866 -2.73535 1.50283 0
M  V30 4771 N 461.167 -1.02423 -1.1978 0
M  V30 4772 C 462.444 -0.632802 -1.85081 0
M  V30 4773 C 462.824 0.888745 -1.9148 0
M  V30 4774 O 462.172 1.78357 -1.42832 0
M  V30 4775 C 462.382 -1.28947 -3.24305 0
M  V30 4776 C 463.73 -1.40976 -4.00513 0
M  V30 4777 O 464.754 -1.24628 -3.33686 0
M  V30 4778 O 463.613 -1.67467 -5.20209 0
M  V30 4779 H 460.707 -0.219348 -0.79738 0
M  V30 4780 H 463.253 -1.12209 -1.27307 0
M  V30 4781 H 462.025 -2.3288 -3.14456 0
M  V30 4782 H 461.648 -0.787748 -3.89718 0
M  V30 4783 N 462.645 1.35699 -0.801477 0
M  V30 4784 C 463.922 1.9324 -0.302937 0
M  V30 4785 C 464.302 1.73209 1.20672 0
M  V30 4786 O 463.65 1.09809 2.00385 0
M  V30 4787 C 463.86 3.41728 -0.708747 0
M  V30 4788 C 465.208 4.18868 -0.695328 0
M  V30 4789 O 466.232 3.5022 -0.649971 0
M  V30 4790 O 465.091 5.41342 -0.749081 0
M  V30 4791 H 462.185 0.82331 -0.0780367 0
M  V30 4792 H 464.731 1.44806 -0.884832 0
M  V30 4793 H 463.503 3.50015 -1.74944 0
M  V30 4794 H 463.126 3.97471 -0.101384 0
M  V30 4795 N 464.123 0.554532 1.47522 0
M  V30 4796 C 465.086 -0.184174 2.28459 0
M  V30 4797 C 466.086 -0.845195 1.36796 0
M  V30 4798 O 467.276 -0.701467 1.59452 0
M  V30 4799 C 464.408 -1.26903 3.16399 0
M  V30 4800 H 465.601 0.526751 2.95238 0
M  V30 4801 H 463.154 0.311375 1.53167 0
M  V30 4802 H 463.889 -2.01244 2.54306 0
M  V30 4803 H 463.674 -0.799883 3.83854 0
M  V30 4804 H 465.164 -1.78794 3.77389 0
M  V30 4805 N 465.601 -1.54893 0.290851 0
M  V30 4806 C 466.531 -2.26103 -0.583084 0
M  V30 4807 C 467.512 -1.25684 -1.14619 0
M  V30 4808 O 468.697 -1.54436 -1.17741 0
M  V30 4809 C 465.827 -2.99409 -1.75987 0
M  V30 4810 C 464.781 -4.0689 -1.32758 0
M  V30 4811 C 464.107 -4.67856 -2.58872 0
M  V30 4812 C 465.407 -5.20215 -0.46624 0
M  V30 4813 H 467.101 -2.99398 0.0108214 0
M  V30 4814 H 464.647 -1.43998 0.00664468 0
M  V30 4815 H 466.6 -3.47943 -2.37727 0
M  V30 4816 H 465.324 -2.23675 -2.37985 0
M  V30 4817 H 463.983 -3.59191 -0.733299 0
M  V30 4818 H 463.631 -3.88772 -3.19163 0
M  V30 4819 H 463.331 -5.40438 -2.30653 0
M  V30 4820 H 464.855 -5.19147 -3.21433 0
M  V30 4821 H 466.269 -5.64704 -0.989047 0
M  V30 4822 H 464.666 -5.99455 -0.27826 0
M  V30 4823 H 465.736 -4.82198 0.511173 0
M  V30 4824 N 467.08 -0.0183926 -1.57589 0
M  V30 4825 C 467.99 0.982943 -2.13015 0
M  V30 4826 C 469.006 1.36443 -1.07979 0
M  V30 4827 O 470.182 1.44802 -1.3998 0
M  V30 4828 C 467.247 2.25024 -2.63752 0
M  V30 4829 C 466.308 1.93018 -3.83461 0
M  V30 4830 C 465.541 3.13706 -4.31769 0
M  V30 4831 O 465.764 4.2601 -3.79305 0
M  V30 4832 O 464.698 2.96629 -5.23732 0
M  V30 4833 H 468.524 0.541709 -2.9883 0
M  V30 4834 H 466.109 0.201565 -1.48034 0
M  V30 4835 H 467.991 2.99441 -2.96502 0
M  V30 4836 H 466.666 2.68349 -1.81026 0
M  V30 4837 H 465.573 1.16019 -3.55655 0
M  V30 4838 H 466.906 1.54516 -4.67317 0
M  V30 4839 N 468.558 1.5553 0.254621 0
M  V30 4840 C 469.505 1.89666 1.31512 0
M  V30 4841 C 470.475 0.750057 1.482 0
M  V30 4842 O 471.66 1.00301 1.62309 0
M  V30 4843 C 468.8 2.19009 2.667 0
M  V30 4844 C 467.913 3.46435 2.58083 0
M  V30 4845 C 467.048 3.65386 3.85573 0
M  V30 4846 C 466.087 4.8644 3.71541 0
M  V30 4847 N 465.224 5.01952 4.90906 0
M  V30 4848 H 470.064 2.80109 1.017 0
M  V30 4849 H 467.601 1.38666 0.490938 0
M  V30 4850 H 469.559 2.34025 3.45381 0
M  V30 4851 H 468.189 1.31779 2.94676 0
M  V30 4852 H 467.241 3.39792 1.71013 0
M  V30 4853 H 468.553 4.35258 2.43622 0
M  V30 4854 H 467.707 3.80319 4.72697 0
M  V30 4855 H 466.446 2.74781 4.02922 0
M  V30 4856 H 465.451 4.71491 2.82801 0
M  V30 4857 H 466.676 5.78497 3.55694 0
M  V30 4858 H 464.622 4.14283 5.08631 0
M  V30 4859 H 464.539 5.84851 4.79046 0
M  V30 4860 H 465.807 5.21289 5.7955 0
M  V30 4861 N 470.036 -0.519951 1.48776 0
M  V30 4862 C 471.452 -0.849418 1.35119 0
M  V30 4863 C 471.652 -1.98077 0.36982 0
M  V30 4864 O 470.708 -2.51664 -0.205359 0
M  V30 4865 C 472.021 -1.20748 2.75391 0
M  V30 4866 C 473.569 -1.31679 2.83954 0
M  V30 4867 C 474.044 -1.70824 4.24951 0
M  V30 4868 N 475.535 -1.77908 4.27672 0
M  V30 4869 C 476.27 -2.09603 5.33717 0
M  V30 4870 N 475.766 -2.39652 6.5003 0
M  V30 4871 N 477.559 -2.10694 5.21119 0
M  V30 4872 H 469.71 0.226377 2.1119 0
M  V30 4873 H 471.973 0.0386519 0.947212 0
M  V30 4874 H 471.679 -0.449703 3.48813 0
M  V30 4875 H 471.553 -2.15534 3.09556 0
M  V30 4876 H 473.94 -2.06532 2.10781 0
M  V30 4877 H 474.021 -0.3499 2.53396 0
M  V30 4878 H 473.665 -0.965282 4.98643 0
M  V30 4879 H 473.595 -2.6858 4.52959 0
M  V30 4880 H 476.086 -1.56923 3.43779 0
M  V30 4881 H 476.399 -2.6297 7.26682 0
M  V30 4882 H 474.744 -2.37149 6.53288 0
M  V30 4883 H 477.935 -1.86682 4.29264 0
M  V30 4884 H 478.108 -2.35062 6.03863 0
M  V30 4885 N 471.514 -1.37532 -0.769588 0
M  V30 4886 C 472.761 -1.3286 -1.52822 0
M  V30 4887 C 473.089 0.0862597 -1.94309 0
M  V30 4888 O 472.344 1.05995 -1.6451 0
M  V30 4889 C 472.643 -2.21558 -2.8044 0
M  V30 4890 C 472.309 -3.69796 -2.57996 0
M  V30 4891 C 470.971 -4.10194 -2.51583 0
M  V30 4892 C 473.323 -4.63699 -2.37976 0
M  V30 4893 C 470.651 -5.42608 -2.23144 0
M  V30 4894 C 473.003 -5.96353 -2.1106 0
M  V30 4895 C 471.667 -6.35853 -2.03093 0
M  V30 4896 H 470.937 -0.486168 -0.559215 0
M  V30 4897 H 473.584 -1.69757 -0.886277 0
M  V30 4898 H 471.889 -1.77663 -3.49204 0
M  V30 4899 H 473.586 -2.15256 -3.38328 0
M  V30 4900 H 470.176 -3.37759 -2.63851 0
M  V30 4901 H 474.36 -4.33346 -2.41919 0
M  V30 4902 H 469.616 -5.72173 -2.15472 0
M  V30 4903 H 473.79 -6.68667 -1.94568 0
M  V30 4904 H 471.417 -7.38382 -1.8082 0
M  V30 4905 N 472.992 0.995999 -1.22138 0
M  V30 4906 C 473.922 2.10387 -1.01289 0
M  V30 4907 C 474.903 1.69975 0.0651454 0
M  V30 4908 O 476.088 1.9396 -0.0964628 0
M  V30 4909 C 473.218 3.42312 -0.586517 0
M  V30 4910 C 472.172 3.96558 -1.61014 0
M  V30 4911 C 471.498 5.24494 -1.0397 0
M  V30 4912 C 472.798 4.27595 -2.99933 0
M  V30 4913 H 474.492 2.28086 -1.93951 0
M  V30 4914 H 472.038 1.09607 -0.933928 0
M  V30 4915 H 473.991 4.19223 -0.427793 0
M  V30 4916 H 472.715 3.24431 0.375761 0
M  V30 4917 H 471.374 3.21776 -1.75658 0
M  V30 4918 H 471.022 5.02953 -0.0688703 0
M  V30 4919 H 470.722 5.61755 -1.72352 0
M  V30 4920 H 472.246 6.04042 -0.892494 0
M  V30 4921 H 473.66 4.95315 -2.8868 0
M  V30 4922 H 472.057 4.76021 -3.6541 0
M  V30 4923 H 473.127 3.35498 -3.50099 0
M  V30 4924 N 474.47 1.03057 1.19235 0
M  V30 4925 C 475.747 0.642608 1.84743 0
M  V30 4926 C 476.127 -0.878577 1.91948 0
M  V30 4927 O 475.475 -1.77597 1.43776 0
M  V30 4928 C 475.685 1.30665 3.23616 0
M  V30 4929 C 477.033 1.43098 3.9976 0
M  V30 4930 O 478.057 1.26396 3.3302 0
M  V30 4931 O 476.916 1.70223 5.19313 0
M  V30 4932 H 474.01 0.223573 0.796206 0
M  V30 4933 H 476.556 1.12883 1.26711 0
M  V30 4934 H 475.328 2.34544 3.13217 0
M  V30 4935 H 474.951 0.808405 3.89295 0
M  V30 4936 N 475.948 -1.35272 0.808662 0
M  V30 4937 C 476.895 -2.29764 0.218482 0
M  V30 4938 C 477.865 -1.52911 -0.648652 0
M  V30 4939 O 479.05 -1.81341 -0.593297 0
M  V30 4940 C 476.19 -3.39388 -0.625282 0
M  V30 4941 C 475.303 -4.31202 0.262516 0
M  V30 4942 C 474.438 -5.27919 -0.589451 0
M  V30 4943 C 473.477 -6.11371 0.298617 0
M  V30 4944 N 472.614 -7.0022 -0.513443 0
M  V30 4945 H 477.454 -2.79645 1.02968 0
M  V30 4946 H 474.991 -1.37629 0.519303 0
M  V30 4947 H 476.949 -4.01615 -1.12966 0
M  V30 4948 H 475.579 -2.90777 -1.40173 0
M  V30 4949 H 474.631 -3.69962 0.885013 0
M  V30 4950 H 475.943 -4.89748 0.945971 0
M  V30 4951 H 475.097 -5.95529 -1.15888 0
M  V30 4952 H 473.836 -4.69875 -1.30647 0
M  V30 4953 H 472.841 -5.42707 0.880301 0
M  V30 4954 H 474.066 -6.71494 1.01352 0
M  V30 4955 H 472.012 -6.44662 -1.21439 0
M  V30 4956 H 471.929 -7.55917 0.111922 0
M  V30 4957 H 473.197 -7.72175 -1.06608 0
M  V30 4958 N 477.426 -0.562348 -1.47226 0
M  V30 4959 C 478.389 0.172056 -2.28553 0
M  V30 4960 C 479.389 0.837928 -1.37242 0
M  V30 4961 O 480.579 0.693001 -1.59822 0
M  V30 4962 C 477.711 1.25223 -3.17068 0
M  V30 4963 H 478.904 -0.542401 -2.94954 0
M  V30 4964 H 476.457 -0.319493 -1.53 0
M  V30 4965 H 477.192 1.99892 -2.55369 0
M  V30 4966 H 476.977 0.779515 -3.84273 0
M  V30 4967 H 478.467 1.76791 -3.78332 0
M  V30 4968 N 478.904 1.54736 -0.299062 0
M  V30 4969 C 479.834 2.26409 0.571085 0
M  V30 4970 C 480.815 1.2629 1.13951 0
M  V30 4971 O 482 1.55059 1.16921 0
M  V30 4972 C 479.13 3.00338 1.74396 0
M  V30 4973 C 478.084 4.07588 1.30599 0
M  V30 4974 C 477.41 4.69222 2.56387 0
M  V30 4975 C 478.71 5.20455 0.438645 0
M  V30 4976 H 480.404 2.99388 -0.0266991 0
M  V30 4977 H 477.95 1.43993 -0.0142812 0
M  V30 4978 H 479.903 3.49198 2.35878 0
M  V30 4979 H 478.627 2.24934 2.36796 0
M  V30 4980 H 477.286 3.59575 0.71424 0
M  V30 4981 H 476.934 3.9046 3.17097 0
M  V30 4982 H 476.634 5.41653 2.27784 0
M  V30 4983 H 478.158 5.20844 3.18675 0
M  V30 4984 H 479.572 5.65221 0.959085 0
M  V30 4985 H 477.969 5.99594 0.246466 0
M  V30 4986 H 479.039 4.8192 -0.536738 0
M  V30 4987 N 480.382 0.0267497 1.57577 0
M  V30 4988 C 481.292 -0.971633 2.13533 0
M  V30 4989 C 482.308 -1.35868 1.08701 0
M  V30 4990 O 483.484 -1.44058 1.40746 0
M  V30 4991 C 480.549 -2.23622 2.64941 0
M  V30 4992 C 479.61 -1.90982 3.8448 0
M  V30 4993 C 478.843 -3.11411 4.33427 0
M  V30 4994 O 479.066 -4.23992 3.81558 0
M  V30 4995 O 478 -2.93848 5.25297 0
M  V30 4996 H 481.826 -0.525853 2.99113 0
M  V30 4997 H 479.411 -0.193712 1.48139 0
M  V30 4998 H 481.293 -2.97864 2.98086 0
M  V30 4999 H 479.968 -2.67386 1.82446 0
M  V30 5000 H 478.875 -1.14132 3.56265 0
M  V30 5001 H 480.208 -1.52036 4.6813 0
M  V30 5002 N 481.861 -1.55662 -0.24637 0
M  V30 5003 C 482.791 -1.93377 -1.30873 0
M  V30 5004 C 483.772 -0.798773 -1.50179 0
M  V30 5005 O 484.957 -1.0591 -1.62778 0
M  V30 5006 C 482.087 -2.22893 -2.66338 0
M  V30 5007 C 481.041 -3.38649 -2.61727 0
M  V30 5008 C 480.367 -3.53708 -4.00992 0
M  V30 5009 C 481.667 -4.74323 -2.18666 0
M  V30 5010 H 483.361 -2.82363 -0.995552 0
M  V30 5011 H 480.907 -1.35854 -0.477464 0
M  V30 5012 H 482.86 -2.47866 -3.40794 0
M  V30 5013 H 481.584 -1.30733 -2.99293 0
M  V30 5014 H 480.243 -3.13685 -1.89729 0
M  V30 5015 H 479.891 -2.58967 -4.31214 0
M  V30 5016 H 479.591 -4.31551 -3.98795 0
M  V30 5017 H 481.115 -3.81003 -4.77147 0
M  V30 5018 H 482.529 -4.98665 -2.82854 0
M  V30 5019 H 480.926 -5.55273 -2.27579 0
M  V30 5020 H 481.996 -4.71349 -1.13834 0
M  V30 5021 N 483.339 0.512053 -1.4905 0
M  V30 5022 C 484.287 1.63568 -1.65373 0
M  V30 5023 C 485.281 1.61228 -0.519806 0
M  V30 5024 O 486.487 1.65869 -0.699101 0
M  V30 5025 H 482.862 0.542019 -0.521267 0
M  V30 5026 H 484.833 1.4695 -2.59708 0
M  V30 5027 C 483.582 3.01761 -1.7273 0
M  V30 5028 H 482.905 3.04263 -2.59353 0
M  V30 5029 H 484.345 3.79948 -1.8819 0
M  V30 5030 C 482.804 3.33609 -0.46973 0
M  V30 5031 O 483.334 3.99607 0.409492 0
M  V30 5032 N 481.54 2.88651 -0.336003 0
M  V30 5033 H 481.087 2.35119 -1.05247 0
M  V30 5034 H 481.045 3.10328 0.504363 0
M  V30 5035 N 484.817 1.37938 0.762283 0
M  V30 5036 C 485.75 1.2884 1.88349 0
M  V30 5037 C 486.728 0.167084 1.61739 0
M  V30 5038 O 487.912 0.34292 1.85355 0
M  V30 5039 C 485.039 0.994257 3.23778 0
M  V30 5040 C 484.085 2.13376 3.69287 0
M  V30 5041 S 484.918 3.75439 3.81845 0
M  V30 5042 C 486.074 3.48195 5.20107 0
M  V30 5043 H 486.307 2.23736 1.95779 0
M  V30 5044 H 483.84 1.23672 0.924368 0
M  V30 5045 H 485.798 0.83138 4.01993 0
M  V30 5046 H 484.459 0.0626251 3.14038 0
M  V30 5047 H 483.652 1.88319 4.67495 0
M  V30 5048 H 483.254 2.25726 2.98201 0
M  V30 5049 H 485.546 3.0377 6.05583 0
M  V30 5050 H 486.489 4.45765 5.50181 0
M  V30 5051 H 486.897 2.82905 4.88493 0
M  V30 5052 N 486.295 -0.989507 1.22664 0
M  V30 5053 C 487.225 -2.09847 1.02404 0
M  V30 5054 C 488.206 -1.70007 -0.0561303 0
M  V30 5055 O 489.391 -1.93906 0.106748 0
M  V30 5056 C 486.521 -3.41996 0.604663 0
M  V30 5057 C 485.475 -3.95699 1.63115 0
M  V30 5058 C 484.801 -5.23936 1.0675 0
M  V30 5059 C 486.101 -4.25999 3.02196 0
M  V30 5060 H 487.795 -2.27054 1.95158 0
M  V30 5061 H 485.341 -1.09111 0.939727 0
M  V30 5062 H 487.294 -4.1899 0.45002 0
M  V30 5063 H 486.018 -3.24626 -0.35855 0
M  V30 5064 H 484.677 -3.2084 1.77362 0
M  V30 5065 H 484.325 -5.02909 0.0955422 0
M  V30 5066 H 484.025 -5.60833 1.75328 0
M  V30 5067 H 485.549 -6.0356 0.924516 0
M  V30 5068 H 486.963 -4.93777 2.91303 0
M  V30 5069 H 485.36 -4.74076 3.67929 0
M  V30 5070 H 486.43 -3.33636 3.51873 0
M  V30 5071 N 487.773 -1.03688 -1.18687 0
M  V30 5072 C 488.998 -0.757819 -1.93059 0
M  V30 5073 C 489.423 0.678353 -1.75442 0
M  V30 5074 O 488.781 1.46938 -1.06203 0
M  V30 5075 C 488.829 -1.12423 -3.42627 0
M  V30 5076 O 487.933 -0.247505 -4.11657 0
M  V30 5077 H 487.274 -0.279245 -0.602427 0
M  V30 5078 H 489.804 -1.3857 -1.5053 0
M  V30 5079 H 489.814 -1.08454 -3.93322 0
M  V30 5080 H 488.489 -2.17049 -3.54771 0
M  V30 5081 H 487.066 -0.34649 -3.71287 0
M  V30 5082 N 489.251 1.34841 -0.815825 0
M  V30 5083 C 490.181 2.32187 -0.247298 0
M  V30 5084 C 491.162 1.5791 0.632344 0
M  V30 5085 O 492.347 1.8593 0.560698 0
M  V30 5086 C 489.477 3.42122 0.597466 0
M  V30 5087 C 488.431 4.27602 -0.184446 0
M  V30 5088 C 487.757 5.28942 0.782609 0
M  V30 5089 C 489.057 5.03502 -1.38865 0
M  V30 5090 H 490.751 2.79985 -1.06061 0
M  V30 5091 H 488.297 1.34611 -0.511461 0
M  V30 5092 H 490.25 4.09232 1.00533 0
M  V30 5093 H 488.974 2.92956 1.44376 0
M  V30 5094 H 487.633 3.62085 -0.573592 0
M  V30 5095 H 487.281 4.7604 1.62466 0
M  V30 5096 H 486.981 5.87008 0.263695 0
M  V30 5097 H 488.505 5.98922 1.18848 0
M  V30 5098 H 489.919 5.63506 -1.05518 0
M  V30 5099 H 488.316 5.71108 -1.8427 0
M  V30 5100 H 489.386 4.33608 -2.17054 0
M  V30 5101 N 490.729 0.570148 1.46925 0
M  V30 5102 C 491.676 -0.170257 2.30171 0
M  V30 5103 C 492.646 -0.896099 1.39855 0
M  V30 5104 O 493.831 -0.889248 1.68811 0
M  V30 5105 C 490.971 -1.18605 3.24079 0
M  V30 5106 C 490.084 -0.464947 4.29491 0
M  V30 5107 C 489.219 -1.46716 5.10537 0
M  V30 5108 C 488.258 -0.731758 6.0771 0
M  V30 5109 N 487.395 -1.68142 6.81669 0
M  V30 5110 H 492.235 0.545713 2.92961 0
M  V30 5111 H 489.772 0.280938 1.44392 0
M  V30 5112 H 491.73 -1.78771 3.76957 0
M  V30 5113 H 490.36 -1.86989 2.63125 0
M  V30 5114 H 489.412 0.251506 3.79568 0
M  V30 5115 H 490.724 0.110548 4.98677 0
M  V30 5116 H 489.878 -2.14199 5.6763 0
M  V30 5117 H 488.617 -2.07658 4.41282 0
M  V30 5118 H 487.622 -0.0430787 5.49783 0
M  V30 5119 H 488.847 -0.127904 6.7898 0
M  V30 5120 H 486.793 -2.27918 6.15134 0
M  V30 5121 H 486.71 -1.15841 7.47072 0
M  V30 5122 H 487.978 -2.347 7.43328 0
M  V30 5123 N 492.207 -1.54576 0.307264 0
M  V30 5124 C 493.455 -1.99867 -0.299574 0
M  V30 5125 C 493.776 -1.19714 -1.53927 0
M  V30 5126 O 493.046 -0.29472 -1.9367 0
M  V30 5127 H 491.626 -0.738299 -0.113683 0
M  V30 5128 H 494.288 -1.9032 0.420042 0
M  V30 5129 H 493.384 -3.06901 -0.567283 0
M  V30 5130 N 493.685 -0.035106 -1.57561 0
M  V30 5131 C 494.635 0.954034 -2.0708 0
M  V30 5132 C 495.619 1.2818 -0.972558 0
M  V30 5133 O 496.811 1.26691 -1.23606 0
M  V30 5134 C 493.94 2.23442 -2.60631 0
M  V30 5135 C 493.026 1.93475 -3.77396 0
M  V30 5136 N 493.417 1.33802 -4.87781 0
M  V30 5137 C 491.715 2.23434 -3.85996 0
M  V30 5138 C 492.416 1.21103 -5.68954 0
M  V30 5139 N 491.392 1.70855 -5.16052 0
M  V30 5140 H 495.194 0.487731 -2.89825 0
M  V30 5141 H 492.708 0.169759 -1.6151 0
M  V30 5142 H 494.705 2.95183 -2.94402 0
M  V30 5143 H 493.365 2.70693 -1.79319 0
M  V30 5144 H 494.376 1.01227 -5.07911 0
M  V30 5145 H 491.053 2.73317 -3.15601 0
M  V30 5146 H 492.443 0.749105 -6.67711 0
M  V30 5147 N 495.163 1.55791 0.238111 0
M  V30 5148 C 496.579 1.48411 0.587045 0
M  V30 5149 C 496.779 0.72702 1.87927 0
M  V30 5150 O 495.835 0.259942 2.51158 0
M  V30 5151 C 497.148 2.92873 0.681623 0
M  V30 5152 C 498.696 3.03295 0.773363 0
M  V30 5153 C 499.171 4.49082 0.899428 0
M  V30 5154 N 500.662 4.53056 0.964075 0
M  V30 5155 C 501.397 5.63117 1.08104 0
M  V30 5156 N 500.893 6.82969 1.16299 0
M  V30 5157 N 502.686 5.50933 1.11488 0
M  V30 5158 H 494.837 2.0345 -0.610076 0
M  V30 5159 H 497.1 0.924034 -0.211813 0
M  V30 5160 H 496.806 3.51142 -0.19802 0
M  V30 5161 H 496.68 3.43851 1.55069 0
M  V30 5162 H 499.067 2.45101 1.64346 0
M  V30 5163 H 499.148 2.55513 -0.121034 0
M  V30 5164 H 498.792 5.07889 0.0338586 0
M  V30 5165 H 498.722 4.94553 1.809 0
M  V30 5166 H 501.213 3.66737 0.91173 0
M  V30 5167 H 501.526 7.62598 1.25155 0
M  V30 5168 H 499.871 6.85712 1.13241 0
M  V30 5169 H 503.062 4.56231 1.0474 0
M  V30 5170 H 503.235 6.36743 1.20259 0
M  V30 5171 N 496.642 -0.504142 1.49319 0
M  V30 5172 C 497.867 -1.28729 1.62615 0
M  V30 5173 C 498.292 -1.85752 0.296309 0
M  V30 5174 O 497.65 -1.65704 -0.735649 0
M  V30 5175 C 497.698 -2.39561 2.69524 0
M  V30 5176 O 496.802 -3.43324 2.28478 0
M  V30 5177 H 496.143 -0.380172 0.544395 0
M  V30 5178 H 498.673 -0.603872 1.95485 0
M  V30 5179 H 498.683 -2.8537 2.91595 0
M  V30 5180 H 497.358 -1.97423 3.66056 0
M  V30 5181 H 495.935 -3.03455 2.16725 0
M  V30 5182 N 498.12 -1.38341 -0.754957 0
M  V30 5183 C 499.366 -1.34672 -1.51628 0
M  V30 5184 C 499.699 0.0636036 -1.94096 0
M  V30 5185 O 498.974 1.0245 -1.6533 0
M  V30 5186 C 499.257 -2.30116 -2.76981 0
M  V30 5187 C 499.11 -3.80003 -2.4066 0
M  V30 5188 C 500.429 -2.23715 -3.78998 0
M  V30 5189 H 497.548 -0.490517 -0.550056 0
M  V30 5190 H 500.19 -1.69178 -0.864807 0
M  V30 5191 H 498.34 -2.00821 -3.3257 0
M  V30 5192 H 500.012 -4.19966 -1.90856 0
M  V30 5193 H 498.255 -3.97751 -1.73137 0
M  V30 5194 H 498.926 -4.42244 -3.30339 0
M  V30 5195 H 501.402 -2.49574 -3.32945 0
M  V30 5196 H 500.278 -2.9261 -4.64403 0
M  V30 5197 H 500.539 -1.23554 -4.24484 0
M  V30 5198 N 499.598 0.982988 -1.23187 0
M  V30 5199 C 500.846 1.72052 -1.06031 0
M  V30 5200 C 501.167 1.90769 0.404019 0
M  V30 5201 O 500.437 1.47446 1.28982 0
M  V30 5202 H 499.017 0.637499 -0.389363 0
M  V30 5203 H 501.679 1.18338 -1.54862 0
M  V30 5204 H 500.775 2.7111 -1.54615 0
M  V30 5205 N 501.076 1.04316 1.18135 0
M  V30 5206 C 502.324 0.746542 1.87806 0
M  V30 5207 C 502.645 -0.728082 1.80898 0
M  V30 5208 O 501.915 -1.52554 1.22899 0
M  V30 5209 H 500.495 0.273157 0.695265 0
M  V30 5210 H 503.157 1.32044 1.43354 0
M  V30 5211 H 502.253 1.05362 2.93778 0
M  V30 5212 N 502.554 -1.34406 0.822964 0
M  V30 5213 C 503.803 -1.97542 0.407458 0
M  V30 5214 C 504.116 -1.65973 -1.035 0
M  V30 5215 O 505.322 -2.22598 -1.55442 0
M  V30 5216 C 503.778 -3.53463 0.677623 0
M  V30 5217 C 503.386 -3.93925 2.1337 0
M  V30 5218 C 505.13 -4.23229 0.328284 0
M  V30 5219 C 503.037 -5.42759 2.34876 0
M  V30 5220 H 501.967 -0.739207 0.148623 0
M  V30 5221 H 504.618 -1.53248 1.00932 0
M  V30 5222 H 503 -3.96 0.00558965 0
M  V30 5223 H 504.174 -3.62494 2.8449 0
M  V30 5224 H 502.489 -3.37097 2.44448 0
M  V30 5225 H 505.086 -5.32659 0.466794 0
M  V30 5226 H 505.429 -4.09899 -0.727224 0
M  V30 5227 H 505.962 -3.86169 0.954896 0
M  V30 5228 H 502.701 -5.61075 3.38932 0
M  V30 5229 H 502.221 -5.75704 1.68299 0
M  V30 5230 H 503.9 -6.0944 2.17236 0
M  V30 5231 N 504.032 -0.577932 -1.46621 0
M  V30 5232 C 505.448 -0.239242 -1.57797 0
M  V30 5233 C 505.648 1.25843 -1.57371 0
M  V30 5234 O 504.704 2.03988 -1.48813 0
M  V30 5235 C 506.017 -0.884227 -2.87405 0
M  V30 5236 C 507.565 -0.857373 -3.01028 0
M  V30 5237 C 508.04 -1.48181 -4.33366 0
M  V30 5238 N 509.531 -1.44593 -4.40053 0
M  V30 5239 C 510.266 -1.89852 -5.41058 0
M  V30 5240 N 509.762 -2.43062 -6.48762 0
M  V30 5241 N 511.555 -1.80797 -5.3223 0
M  V30 5242 H 503.706 -1.55073 -1.45142 0
M  V30 5243 H 505.969 -0.647903 -0.692044 0
M  V30 5244 H 505.675 -1.93759 -2.93514 0
M  V30 5245 H 505.549 -0.389585 -3.75183 0
M  V30 5246 H 507.936 0.187357 -2.94505 0
M  V30 5247 H 508.017 -1.38999 -2.14739 0
M  V30 5248 H 507.661 -2.52572 -4.40647 0
M  V30 5249 H 507.591 -0.924464 -5.18422 0
M  V30 5250 H 510.082 -1.05694 -3.62819 0
M  V30 5251 H 510.395 -2.75466 -7.22038 0
M  V30 5252 H 508.74 -2.47085 -6.49595 0
M  V30 5253 H 511.931 -1.38989 -4.46989 0
M  V30 5254 H 512.104 -2.16385 -6.10804 0
M  V30 5255 N 505.51 1.54411 -0.315457 0
M  V30 5256 C 506.473 2.22713 0.54142 0
M  V30 5257 C 507.473 1.2179 1.04995 0
M  V30 5258 O 508.663 1.46426 0.943667 0
M  V30 5259 C 505.795 2.92485 1.75116 0
M  V30 5260 H 506.988 2.99849 -0.0555508 0
M  V30 5261 H 504.541 1.56159 -0.0664453 0
M  V30 5262 H 505.276 2.19466 2.38758 0
M  V30 5263 H 505.061 3.66483 1.39401 0
M  V30 5264 H 506.551 3.44548 2.35959 0
M  V30 5265 N 506.988 0.0434614 1.5754 0
M  V30 5266 C 508.213 -0.645358 1.97104 0
M  V30 5267 C 508.638 -1.64037 0.920521 0
M  V30 5268 O 507.996 -1.80922 -0.11708 0
M  V30 5269 C 508.044 -1.31547 3.35749 0
M  V30 5270 O 507.148 -2.43103 3.33129 0
M  V30 5271 H 506.489 -0.168403 0.64229 0
M  V30 5272 H 509.019 0.109573 2.04306 0
M  V30 5273 H 509.029 -1.66895 3.72304 0
M  V30 5274 H 507.704 -0.586205 4.11748 0
M  V30 5275 H 506.281 -2.0976 3.0831 0
M  V30 5276 N 508.466 -1.55915 -0.229846 0
M  V30 5277 C 509.396 -1.94754 -1.28815 0
M  V30 5278 C 510.377 -0.814657 -1.49323 0
M  V30 5279 O 511.562 -1.07631 -1.61645 0
M  V30 5280 C 508.692 -2.25705 -2.63959 0
M  V30 5281 C 507.646 -3.41406 -2.5812 0
M  V30 5282 C 506.972 -3.57941 -3.97218 0
M  V30 5283 C 508.272 -4.76616 -2.13623 0
M  V30 5284 H 509.966 -2.83404 -0.965547 0
M  V30 5285 H 507.512 -1.36353 -0.463028 0
M  V30 5286 H 509.465 -2.51467 -3.38146 0
M  V30 5287 H 508.189 -1.339 -2.9789 0
M  V30 5288 H 506.848 -3.1568 -1.86391 0
M  V30 5289 H 506.496 -2.63526 -4.28443 0
M  V30 5290 H 506.196 -4.35757 -3.94195 0
M  V30 5291 H 507.72 -3.86042 -4.73079 0
M  V30 5292 H 509.134 -5.01637 -2.77549 0
M  V30 5293 H 507.531 -5.57655 -2.21677 0
M  V30 5294 H 508.601 -4.7253 -1.08829 0
M  V30 5295 N 509.944 0.496216 -1.49584 0
M  V30 5296 C 511.174 1.27209 -1.62793 0
M  V30 5297 C 511.582 1.86799 -0.300476 0
M  V30 5298 O 510.925 1.68802 0.724674 0
M  V30 5299 C 510.987 2.43812 -2.64189 0
M  V30 5300 C 510.651 2.05055 -4.08414 0
M  V30 5301 C 511.648 1.58752 -4.9507 0
M  V30 5302 C 509.333 2.14543 -4.54177 0
M  V30 5303 C 511.327 1.22448 -6.25528 0
M  V30 5304 C 509.014 1.77851 -5.84647 0
M  V30 5305 C 510.012 1.31878 -6.70147 0
M  V30 5306 O 509.7 0.956834 -7.98185 0
M  V30 5307 H 509.432 0.391848 -0.550846 0
M  V30 5308 H 511.986 0.601712 -1.96389 0
M  V30 5309 H 510.216 3.13941 -2.25783 0
M  V30 5310 H 511.905 3.05829 -2.66877 0
M  V30 5311 H 512.671 1.50863 -4.60939 0
M  V30 5312 H 508.55 2.49277 -3.87791 0
M  V30 5313 H 512.094 0.864933 -6.92217 0
M  V30 5314 H 507.991 1.8539 -6.18305 0
M  V30 5315 H 508.759 1.08789 -8.11238 0
M  V30 5316 N 511.423 1.38739 0.74761 0
M  V30 5317 C 512.371 1.36573 1.88283 0
M  V30 5318 C 513.365 0.250712 1.67534 0
M  V30 5319 O 514.571 0.420073 1.7503 0
M  V30 5320 H 510.946 0.42619 0.619569 0
M  V30 5321 H 512.917 2.32356 1.87226 0
M  V30 5322 C 511.666 1.21361 3.25832 0
M  V30 5323 H 510.989 2.06424 3.42388 0
M  V30 5324 H 512.429 1.23901 4.05493 0
M  V30 5325 C 510.888 -0.0790099 3.36807 0
M  V30 5326 O 511.418 -1.05385 3.8763 0
M  V30 5327 N 509.624 -0.13785 2.90273 0
M  V30 5328 H 509.171 0.656128 2.49104 0
M  V30 5329 H 509.129 -1.00228 2.97996 0
M  V30 5330 N 512.901 -0.976442 1.23707 0
M  V30 5331 C 513.864 -2.0511 1.02287 0
M  V30 5332 C 514.864 -1.60791 -0.0167195 0
M  V30 5333 O 516.054 -1.72761 0.223408 0
M  V30 5334 C 513.186 -3.36458 0.548507 0
M  V30 5335 H 514.379 -2.25545 1.9766 0
M  V30 5336 H 511.932 -1.15042 1.05806 0
M  V30 5337 H 512.667 -3.21713 -0.408818 0
M  V30 5338 H 512.452 -3.69967 1.29874 0
M  V30 5339 H 513.942 -4.15489 0.419406 0
M  V30 5340 N 514.379 -1.04941 -1.1758 0
M  V30 5341 C 515.625 -0.759112 -1.88057 0
M  V30 5342 C 515.958 0.711918 -1.8068 0
M  V30 5343 O 515.233 1.52035 -1.21308 0
M  V30 5344 C 515.516 -1.237 -3.38187 0
M  V30 5345 C 515.369 -2.77078 -3.54327 0
M  V30 5346 C 516.688 -0.834014 -4.32125 0
M  V30 5347 H 513.807 -0.277237 -0.682868 0
M  V30 5348 H 516.449 -1.30296 -1.38286 0
M  V30 5349 H 514.599 -0.774337 -3.80705 0
M  V30 5350 H 516.271 -3.31449 -3.20842 0
M  V30 5351 H 514.514 -3.16477 -2.96689 0
M  V30 5352 H 515.185 -3.05577 -4.59703 0
M  V30 5353 H 517.661 -1.23228 -3.97434 0
M  V30 5354 H 516.537 -1.19603 -5.35711 0
M  V30 5355 H 516.798 0.262195 -4.41322 0
M  V30 5356 N 515.857 1.33968 -0.830081 0
M  V30 5357 C 517.085 2.0228 -0.434773 0
M  V30 5358 C 517.5 1.62487 0.961419 0
M  V30 5359 O 516.857 0.833849 1.62337 0
M  V30 5360 C 516.908 3.5751 -0.535625 0
M  V30 5361 O 516.629 3.95864 -1.87679 0
M  V30 5362 C 518.13 4.43091 -0.136137 0
M  V30 5363 H 515.35 0.648151 -0.173613 0
M  V30 5364 H 517.894 1.71089 -1.12022 0
M  V30 5365 H 516.049 3.87266 0.101817 0
M  V30 5366 H 516.463 4.9056 -1.85609 0
M  V30 5367 H 517.937 5.51398 -0.257772 0
M  V30 5368 H 518.414 4.29433 0.921076 0
M  V30 5369 H 519.02 4.18677 -0.747662 0
M  V30 5370 N 517.335 0.585699 1.46312 0
M  V30 5371 C 518.584 0.0701192 2.01578 0
M  V30 5372 C 518.897 -1.29889 1.46247 0
M  V30 5373 O 520.103 -1.90598 1.93351 0
M  V30 5374 C 518.559 0.0747499 3.59822 0
M  V30 5375 C 518.167 1.44226 4.24149 0
M  V30 5376 C 519.911 -0.38673 4.22735 0
M  V30 5377 C 517.818 1.40446 5.74481 0
M  V30 5378 H 516.748 0.0224441 0.753666 0
M  V30 5379 H 519.399 0.737789 1.68015 0
M  V30 5380 H 517.781 -0.659144 3.90476 0
M  V30 5381 H 518.955 2.19612 4.05101 0
M  V30 5382 H 517.27 1.84401 3.73343 0
M  V30 5383 H 519.867 -0.433853 5.32937 0
M  V30 5384 H 520.21 -1.40489 3.91878 0
M  V30 5385 H 520.743 0.293195 3.96718 0
M  V30 5386 H 517.482 2.39952 6.10003 0
M  V30 5387 H 517.002 0.692845 5.95785 0
M  V30 5388 H 518.681 1.11865 6.37256 0
M  V30 5389 N 518.813 -1.54241 0.323641 0
M  V30 5390 C 519.723 -2.28033 -0.551205 0
M  V30 5391 C 520.739 -1.32388 -1.12913 0
M  V30 5392 O 521.915 -1.65403 -1.14908 0
M  V30 5393 C 518.98 -3.02382 -1.69606 0
M  V30 5394 C 518.041 -4.13612 -1.14993 0
M  V30 5395 C 517.274 -4.84407 -2.24022 0
M  V30 5396 O 517.497 -4.54716 -3.44368 0
M  V30 5397 O 516.431 -5.71312 -1.89436 0
M  V30 5398 H 520.257 -3.03662 0.048066 0
M  V30 5399 H 517.842 -1.49133 0.0893289 0
M  V30 5400 H 519.724 -3.48941 -2.36259 0
M  V30 5401 H 518.399 -2.29628 -2.28151 0
M  V30 5402 H 517.306 -3.71402 -0.448484 0
M  V30 5403 H 518.639 -4.8841 -0.609608 0
M  V30 5404 N 520.291 -0.0518155 -1.57515 0
M  V30 5405 C 521.568 0.661727 -1.84067 0
M  V30 5406 C 521.948 1.88999 -0.940351 0
M  V30 5407 O 521.296 2.285 -0.00155404 0
M  V30 5408 C 521.506 1.01841 -3.3381 0
M  V30 5409 C 522.854 1.40043 -4.00841 0
M  V30 5410 O 523.878 1.11073 -3.38439 0
M  V30 5411 O 522.737 1.94111 -5.10865 0
M  V30 5412 H 519.831 0.326702 -0.759733 0
M  V30 5413 H 522.377 -0.0812277 -1.69505 0
M  V30 5414 H 521.149 0.145202 -3.91031 0
M  V30 5415 H 520.772 1.81879 -3.53562 0
M  V30 5416 N 521.769 1.56035 0.221574 0
M  V30 5417 C 523.015 1.79312 0.947372 0
M  V30 5418 C 523.348 0.621453 1.83988 0
M  V30 5419 O 522.623 -0.379287 1.90766 0
M  V30 5420 C 522.906 3.1267 1.78633 0
M  V30 5421 C 522.759 4.40284 0.920312 0
M  V30 5422 C 524.078 3.4247 2.7641 0
M  V30 5423 H 521.197 0.652328 0.342982 0
M  V30 5424 H 523.839 1.88765 0.216244 0
M  V30 5425 H 521.989 3.04741 2.40967 0
M  V30 5426 H 523.661 4.60232 0.313718 0
M  V30 5427 H 521.904 4.33212 0.225734 0
M  V30 5428 H 522.575 5.30033 1.54171 0
M  V30 5429 H 525.051 3.50526 2.24211 0
M  V30 5430 H 523.927 4.3695 3.32213 0
M  V30 5431 H 524.188 2.64635 3.54148 0
M  V30 5432 N 523.247 -0.488276 1.49845 0
M  V30 5433 C 524.179 -1.60539 1.63584 0
M  V30 5434 C 525.192 -1.5434 0.517972 0
M  V30 5435 O 526.381 -1.60041 0.790516 0
M  V30 5436 C 523.481 -2.99374 1.58835 0
M  V30 5437 C 522.654 -3.30624 2.86368 0
M  V30 5438 C 521.713 -4.4893 2.74496 0
M  V30 5439 O 520.739 -4.50085 3.48443 0
M  V30 5440 N 521.941 -5.49591 1.86894 0
M  V30 5441 H 524.706 -1.49176 2.59936 0
M  V30 5442 H 522.267 -0.67639 1.47094 0
M  V30 5443 H 524.259 -3.76459 1.48529 0
M  V30 5444 H 522.829 -3.04595 0.702892 0
M  V30 5445 H 522.049 -2.42314 3.1093 0
M  V30 5446 H 523.337 -3.48305 3.70892 0
M  V30 5447 H 522.735 -5.51467 1.26097 0
M  V30 5448 H 521.292 -6.25728 1.82503 0
M  V30 5449 N 524.725 -1.39134 -0.740242 0
M  V30 5450 C 525.672 -1.37434 -1.8542 0
M  V30 5451 C 526.642 -0.234822 -1.64432 0
M  V30 5452 O 527.827 -0.429125 -1.85912 0
M  V30 5453 C 524.967 -1.21844 -3.22875 0
M  V30 5454 C 524.08 -2.45296 -3.55603 0
M  V30 5455 C 523.215 -2.22334 -4.82432 0
M  V30 5456 C 522.254 -3.41488 -5.07988 0
M  V30 5457 N 521.391 -3.17877 -6.26018 0
M  V30 5458 H 526.231 -2.3266 -1.86207 0
M  V30 5459 H 523.768 -1.15578 -0.909946 0
M  V30 5460 H 525.726 -1.10818 -4.02213 0
M  V30 5461 H 524.356 -0.3025 -3.21379 0
M  V30 5462 H 523.408 -2.66945 -2.71006 0
M  V30 5463 H 524.72 -3.34063 -3.7041 0
M  V30 5464 H 523.874 -2.0852 -5.69741 0
M  V30 5465 H 522.613 -1.30954 -4.6979 0
M  V30 5466 H 521.618 -3.55807 -4.19144 0
M  V30 5467 H 522.843 -4.33763 -5.22519 0
M  V30 5468 H 520.789 -2.29156 -6.14673 0
M  V30 5469 H 520.706 -4.00198 -6.41387 0
M  V30 5470 H 521.974 -3.07746 -7.16179 0
M  V30 5471 N 526.204 0.969867 -1.24223 0
M  V30 5472 C 527.134 2.08191 -1.05729 0
M  V30 5473 C 528.115 1.70075 0.0290765 0
M  V30 5474 O 529.3 1.93712 -0.137583 0
M  V30 5475 C 526.43 3.40991 -0.658995 0
M  V30 5476 C 525.384 3.93054 -1.69389 0
M  V30 5477 C 524.71 5.22171 -1.15072 0
M  V30 5478 C 526.01 4.21137 -3.08935 0
M  V30 5479 H 527.704 2.23921 -1.98746 0
M  V30 5480 H 525.25 1.07602 -0.956967 0
M  V30 5481 H 527.203 4.18221 -0.51662 0
M  V30 5482 H 525.927 3.25155 0.30686 0
M  V30 5483 H 524.586 3.17977 -1.82444 0
M  V30 5484 H 524.234 5.02694 -0.175539 0
M  V30 5485 H 523.934 5.57973 -1.84229 0
M  V30 5486 H 525.458 6.02013 -1.02042 0
M  V30 5487 H 526.872 4.8908 -2.99121 0
M  V30 5488 H 525.269 4.68163 -3.75425 0
M  V30 5489 H 526.339 3.27996 -3.57137 0
M  V30 5490 N 527.682 1.05563 1.17022 0
M  V30 5491 C 528.645 0.664098 2.19368 0
M  V30 5492 C 529.645 -0.286358 1.5823 0
M  V30 5493 O 530.835 -0.069728 1.7406 0
M  V30 5494 C 527.967 -0.0239932 3.40892 0
M  V30 5495 H 529.16 1.57 2.55521 0
M  V30 5496 H 526.713 0.849964 1.31169 0
M  V30 5497 H 527.448 -0.942988 3.10287 0
M  V30 5498 H 527.233 0.659351 3.86516 0
M  V30 5499 H 528.723 -0.283909 4.16634 0
M  V30 5500 N 529.16 -1.33526 0.837174 0
M  V30 5501 C 530.123 -2.27551 0.274421 0
M  V30 5502 C 531.123 -1.50886 -0.555881 0
M  V30 5503 O 532.313 -1.70227 -0.369918 0
M  V30 5504 C 529.445 -3.35332 -0.613605 0
M  V30 5505 H 530.638 -2.78837 1.10408 0
M  V30 5506 H 528.191 -1.439 0.610126 0
M  V30 5507 H 528.926 -2.89285 -1.46577 0
M  V30 5508 H 528.711 -3.92095 -0.0195341 0
M  V30 5509 H 530.201 -4.05433 -1.00068 0
M  V30 5510 N 530.638 -0.59345 -1.46 0
M  V30 5511 C 531.885 -0.0831523 -2.02329 0
M  V30 5512 C 532.213 1.28093 -1.46364 0
M  V30 5513 O 531.468 1.85526 -0.622793 0
M  V30 5514 C 531.767 0.021178 -3.57394 0
M  V30 5515 C 531.433 -1.27671 -4.32448 0
M  V30 5516 C 530.095 -1.63227 -4.5267 0
M  V30 5517 C 532.447 -2.13511 -4.7546 0
M  V30 5518 C 529.775 -2.84401 -5.1316 0
M  V30 5519 C 532.127 -3.33922 -5.37289 0
M  V30 5520 C 530.791 -3.69747 -5.55737 0
M  V30 5521 H 530.061 -0.0304276 -0.740375 0
M  V30 5522 H 532.708 -0.772239 -1.75239 0
M  V30 5523 H 531.013 0.793454 -3.83682 0
M  V30 5524 H 532.71 0.431942 -3.98667 0
M  V30 5525 H 529.3 -0.989937 -4.17011 0
M  V30 5526 H 533.484 -1.87344 -4.59582 0
M  V30 5527 H 528.74 -3.12282 -5.25633 0
M  V30 5528 H 532.914 -4.00698 -5.69574 0
M  V30 5529 H 530.541 -4.6373 -6.02377 0
M  V30 5530 N 532.116 1.54067 -0.331816 0
M  V30 5531 C 533.049 2.20886 0.573127 0
M  V30 5532 C 534.027 1.18876 1.10938 0
M  V30 5533 O 535.211 1.47649 1.17184 0
M  V30 5534 C 532.338 2.87706 1.78726 0
M  V30 5535 C 531.384 4.03505 1.38152 0
M  V30 5536 S 532.217 5.33919 0.41123 0
M  V30 5537 C 533.373 6.04236 1.63246 0
M  V30 5538 H 533.606 2.97299 0.00555737 0
M  V30 5539 H 531.139 1.53964 -0.115893 0
M  V30 5540 H 533.097 3.26825 2.48386 0
M  V30 5541 H 531.758 2.1108 2.32603 0
M  V30 5542 H 530.951 4.49152 2.28645 0
M  V30 5543 H 530.553 3.66102 0.764524 0
M  V30 5544 H 532.845 6.26917 2.56869 0
M  V30 5545 H 533.788 6.97546 1.218 0
M  V30 5546 H 534.196 5.34247 1.82318 0
M  V30 5547 N 533.594 0.0601682 1.57485 0
M  V30 5548 C 534.541 -0.91112 2.12055 0
M  V30 5549 C 535.511 -1.30298 1.03013 0
M  V30 5550 O 536.696 -1.39087 1.30612 0
M  V30 5551 C 533.836 -2.1775 2.67729 0
M  V30 5552 C 532.949 -1.83933 3.90887 0
M  V30 5553 C 532.084 -3.05096 4.34845 0
M  V30 5554 C 531.123 -2.67241 5.5068 0
M  V30 5555 N 530.26 -3.81127 5.8965 0
M  V30 5556 H 535.1 -0.43888 2.9475 0
M  V30 5557 H 532.637 -0.204995 1.45665 0
M  V30 5558 H 534.595 -2.91866 2.98111 0
M  V30 5559 H 533.225 -2.62535 1.87816 0
M  V30 5560 H 532.277 -0.999287 3.6704 0
M  V30 5561 H 533.589 -1.52074 4.75052 0
M  V30 5562 H 532.743 -3.87502 4.66827 0
M  V30 5563 H 531.482 -3.40139 3.49509 0
M  V30 5564 H 530.487 -1.83254 5.18361 0
M  V30 5565 H 531.712 -2.3338 6.37738 0
M  V30 5566 H 529.658 -4.15954 5.07266 0
M  V30 5567 H 529.575 -3.52997 6.68528 0
M  V30 5568 H 530.843 -4.64145 6.2625 0
M  V30 5569 N 535.072 -1.5615 -0.213296 0
M  V30 5570 C 536.019 -1.93086 -1.26437 0
M  V30 5571 C 536.989 -0.789086 -1.4616 0
M  V30 5572 O 538.174 -1.04569 -1.59593 0
M  V30 5573 C 535.314 -2.26003 -2.608 0
M  V30 5574 C 534.427 -3.53156 -2.48807 0
M  V30 5575 C 533.562 -3.7548 -3.7575 0
M  V30 5576 C 532.601 -4.96119 -3.58514 0
M  V30 5577 N 531.738 -5.14791 -4.77425 0
M  V30 5578 H 536.578 -2.82707 -0.942376 0
M  V30 5579 H 534.115 -1.39919 -0.454001 0
M  V30 5580 H 536.073 -2.431 -3.39055 0
M  V30 5581 H 534.703 -1.39546 -2.91079 0
M  V30 5582 H 533.755 -3.44207 -1.61944 0
M  V30 5583 H 535.067 -4.41565 -2.31996 0
M  V30 5584 H 534.221 -3.92718 -4.62447 0
M  V30 5585 H 532.96 -2.85368 -3.95495 0
M  V30 5586 H 531.965 -4.78823 -2.70201 0
M  V30 5587 H 533.19 -5.87724 -3.40231 0
M  V30 5588 H 531.136 -4.27623 -4.97468 0
M  V30 5589 H 531.053 -5.97347 -4.63371 0
M  V30 5590 H 532.321 -5.36471 -5.65525 0
M  V30 5591 N 536.55 0.480323 -1.50102 0
M  V30 5592 C 537.797 1.23307 -1.60629 0
M  V30 5593 C 538.125 1.92135 -0.302375 0
M  V30 5594 O 537.38 1.82321 0.711154 0
M  V30 5595 C 537.679 2.30708 -2.72963 0
M  V30 5596 C 537.345 1.79195 -4.13763 0
M  V30 5597 C 536.007 1.64867 -4.52076 0
M  V30 5598 C 538.359 1.40878 -5.018 0
M  V30 5599 C 535.687 1.10631 -5.76175 0
M  V30 5600 C 538.039 0.880872 -6.26437 0
M  V30 5601 C 536.703 0.724146 -6.6356 0
M  V30 5602 H 535.973 0.451211 -0.587784 0
M  V30 5603 H 538.62 0.53051 -1.84005 0
M  V30 5604 H 536.925 3.06834 -2.43639 0
M  V30 5605 H 538.622 2.88692 -2.78313 0
M  V30 5606 H 535.212 1.91313 -3.83533 0
M  V30 5607 H 539.396 1.50786 -4.7284 0
M  V30 5608 H 534.652 0.972263 -6.0362 0
M  V30 5609 H 538.826 0.575269 -6.9402 0
M  V30 5610 H 536.453 0.301722 -7.59601 0
M  V30 5611 N 538.028 1.39524 0.732853 0
M  V30 5612 C 538.958 1.41153 1.86005 0
M  V30 5613 C 539.939 0.274614 1.67869 0
M  V30 5614 O 541.124 0.480745 1.88155 0
M  V30 5615 C 538.254 1.25638 3.23778 0
M  V30 5616 C 537.208 2.36752 3.56556 0
M  V30 5617 C 536.534 2.06326 4.93289 0
M  V30 5618 C 537.834 3.79069 3.5931 0
M  V30 5619 H 539.528 2.35484 1.84899 0
M  V30 5620 H 537.074 1.13348 0.888162 0
M  V30 5621 H 539.027 1.25398 4.0231 0
M  V30 5622 H 537.751 0.277772 3.25417 0
M  V30 5623 H 536.41 2.36213 2.80355 0
M  V30 5624 H 536.058 1.06897 4.9151 0
M  V30 5625 H 535.758 2.80757 5.16187 0
M  V30 5626 H 537.282 2.07739 5.74175 0
M  V30 5627 H 538.696 3.81526 4.27914 0
M  V30 5628 H 537.093 4.52878 3.93728 0
M  V30 5629 H 538.163 4.09893 2.59068 0
M  V30 5630 N 539.506 -0.963266 1.24736 0
M  V30 5631 C 540.416 -2.09246 1.06082 0
M  V30 5632 C 541.432 -1.74 0.000363101 0
M  V30 5633 O 542.608 -2.0041 0.199479 0
M  V30 5634 C 539.673 -3.40115 0.672498 0
M  V30 5635 C 538.734 -3.89282 1.80993 0
M  V30 5636 C 537.967 -5.13905 1.44004 0
M  V30 5637 O 538.19 -5.69434 0.331835 0
M  V30 5638 O 537.124 -5.57566 2.26723 0
M  V30 5639 H 540.95 -2.27881 2.00759 0
M  V30 5640 H 538.535 -1.07649 1.03595 0
M  V30 5641 H 540.417 -4.18797 0.467668 0
M  V30 5642 H 539.092 -3.22771 -0.245102 0
M  V30 5643 H 537.999 -3.11642 2.06955 0
M  V30 5644 H 539.332 -4.1111 2.70646 0
M  V30 5645 N 540.985 -1.06182 -1.16461 0
M  V30 5646 C 541.918 -0.615859 -2.19733 0
M  V30 5647 C 542.896 0.360766 -1.58547 0
M  V30 5648 O 544.08 0.270009 -1.86556 0
M  V30 5649 C 541.207 0.097312 -3.3856 0
M  V30 5650 C 540.253 -0.835889 -4.18229 0
M  V30 5651 S 541.086 -2.33052 -4.82128 0
M  V30 5652 C 542.242 -1.62881 -6.04335 0
M  V30 5653 H 542.475 -1.49079 -2.57221 0
M  V30 5654 H 540.008 -0.874692 -1.27234 0
M  V30 5655 H 541.966 0.502563 -4.07412 0
M  V30 5656 H 540.627 0.948418 -2.99439 0
M  V30 5657 H 539.82 -0.283426 -5.03202 0
M  V30 5658 H 539.422 -1.18097 -3.54865 0
M  V30 5659 H 541.714 -0.933764 -6.71034 0
M  V30 5660 H 542.657 -2.45641 -6.64128 0
M  V30 5661 H 543.065 -1.11189 -5.53441 0
M  V30 5662 N 542.463 1.3308 -0.844243 0
M  V30 5663 C 543.413 2.26589 -0.253289 0
M  V30 5664 C 544.397 1.49501 0.594836 0
M  V30 5665 O 545.589 1.71291 0.445924 0
M  V30 5666 C 542.718 3.38599 0.566176 0
M  V30 5667 C 541.804 4.23081 -0.293756 0
M  V30 5668 N 542.195 4.86751 -1.37505 0
M  V30 5669 C 540.493 4.45925 -0.0817086 0
M  V30 5670 C 541.194 5.49684 -1.90323 0
M  V30 5671 N 540.17 5.30101 -1.20391 0
M  V30 5672 H 543.972 2.73334 -1.08009 0
M  V30 5673 H 541.486 1.47048 -0.689258 0
M  V30 5674 H 543.483 4.04584 1.00587 0
M  V30 5675 H 542.143 2.93401 1.39089 0
M  V30 5676 H 543.154 4.87151 -1.75796 0
M  V30 5677 H 539.831 4.11434 0.709129 0
M  V30 5678 H 541.221 6.10363 -2.80902 0
M  V30 5679 N 543.941 0.601185 1.45683 0
M  V30 5680 C 544.873 -0.159446 2.28645 0
M  V30 5681 C 545.886 -0.837882 1.39583 0
M  V30 5682 O 547.075 -0.704344 1.64016 0
M  V30 5683 C 544.175 -1.24641 3.15147 0
M  V30 5684 C 543.348 -0.656334 4.32448 0
M  V30 5685 C 542.407 -1.63337 5.00208 0
M  V30 5686 O 541.433 -1.16217 5.57209 0
M  V30 5687 N 542.635 -2.96773 4.98905 0
M  V30 5688 H 545.4 0.5524 2.94565 0
M  V30 5689 H 542.961 0.440223 1.558 0
M  V30 5690 H 544.953 -1.8997 3.57342 0
M  V30 5691 H 543.523 -1.86087 2.51178 0
M  V30 5692 H 542.743 0.174879 3.93812 0
M  V30 5693 H 544.031 -0.242211 5.08223 0
M  V30 5694 H 543.429 -3.37662 4.53873 0
M  V30 5695 H 541.986 -3.57541 5.44984 0
M  V30 5696 N 545.419 -1.53889 0.339982 0
M  V30 5697 C 546.349 -2.27843 -0.510856 0
M  V30 5698 C 547.33 -1.29267 -1.10563 0
M  V30 5699 O 548.515 -1.58104 -1.12768 0
M  V30 5700 C 545.645 -3.04857 -1.66372 0
M  V30 5701 C 544.599 -4.10907 -1.19746 0
M  V30 5702 C 543.925 -4.75855 -2.43857 0
M  V30 5703 C 545.225 -5.21435 -0.300501 0
M  V30 5704 H 546.919 -2.99212 0.106067 0
M  V30 5705 H 544.465 -1.43904 0.0524533 0
M  V30 5706 H 546.418 -3.5533 -2.26537 0
M  V30 5707 H 545.142 -2.31133 -2.30749 0
M  V30 5708 H 543.801 -3.61342 -0.618654 0
M  V30 5709 H 543.449 -3.9873 -3.06633 0
M  V30 5710 H 543.149 -5.47502 -2.13343 0
M  V30 5711 H 544.673 -5.2911 -3.04754 0
M  V30 5712 H 546.087 -5.67565 -0.80889 0
M  V30 5713 H 544.484 -6.00036 -0.0874076 0
M  V30 5714 H 545.554 -4.80328 0.664321 0
M  V30 5715 O 546.936 -0.208127 -1.60153 0
M  V30 5716 H 547.627 0.374888 -1.90038 0
M  V30 END ATOM
M  V30 BEGIN BOND
M  V30 END BOND
M  V30 END CTAB
M  END
$$$$
