drugbank_target|Q8I0X2 Acyl-CoA synthetase (DB11638)
 OpenBabel12092121103D

  0  0  0     0  0            999 V3000
M  V30 BEGIN CTAB
M  V30 COUNTS 13193 13323 0 0 0
M  V30 BEGIN ATOM
M  V30 1 H -0.908 1.98254 -0.117106 0
M  V30 2 N 0 1.576 0 0
M  V30 3 C 0.933 2.03868 1.02534 0
M  V30 4 C 1.911 0.928543 1.3348 0
M  V30 5 O 3.095 1.19667 1.45644 0
M  V30 6 C 0.222 2.43627 2.35294 0
M  V30 7 C -0.732 3.65373 2.2001 0
M  V30 8 S 0.101 5.13292 1.52614 0
M  V30 9 C 1.257 5.56322 2.86805 0
M  V30 10 H 1.49 2.90518 0.631377 0
M  V30 11 H -0.977 1.52953 0.210867 0
M  V30 12 H 0.981 2.67203 3.11629 0
M  V30 13 H -0.358 1.57376 2.7183 0
M  V30 14 H -1.165 3.90944 3.18086 0
M  V30 15 H -1.563 3.418 1.51819 0
M  V30 16 H 0.729 5.58782 3.83104 0
M  V30 17 H 1.672 6.56266 2.65933 0
M  V30 18 H 2.08 4.83886 2.90714 0
M  V30 19 N 1.4781 -0.272755 1.55222 0
M  V30 20 C 2.7031 -1.02683 1.80197 0
M  V30 21 C 3.1281 -1.79142 0.573551 0
M  V30 22 O 2.4861 -1.74917 -0.476849 0
M  V30 23 C 2.5341 -1.9609 3.02624 0
M  V30 24 O 1.6381 -3.04863 2.77727 0
M  V30 25 H 0.9791 -0.293557 0.595584 0
M  V30 26 H 3.5091 -0.30159 2.02365 0
M  V30 27 H 3.5191 -2.38039 3.31363 0
M  V30 28 H 2.1941 -1.39851 3.91682 0
M  V30 29 H 0.7711 -2.67228 2.60084 0
M  V30 30 N 2.9562 -1.48159 -0.537278 0
M  V30 31 C 4.2052 -1.5506 -1.28993 0
M  V30 32 C 4.5182 -0.226211 -1.94288 0
M  V30 33 O 5.7242 -0.173395 -2.70946 0
M  V30 34 C 4.1802 -2.73429 -2.34018 0
M  V30 35 C 3.7882 -4.1248 -1.74825 0
M  V30 36 C 5.5322 -2.89638 -3.10339 0
M  V30 37 C 3.4392 -5.22121 -2.77747 0
M  V30 38 H 2.3692 -0.577231 -0.485098 0
M  V30 39 H 5.0202 -1.74478 -0.568317 0
M  V30 40 H 3.4022 -2.47431 -3.09182 0
M  V30 41 H 4.5762 -4.48466 -1.05899 0
M  V30 42 H 2.8912 -4.01327 -1.11022 0
M  V30 43 H 5.4882 -3.68718 -3.87235 0
M  V30 44 H 5.8312 -1.9882 -3.65754 0
M  V30 45 H 6.3642 -3.15502 -2.42288 0
M  V30 46 H 3.1032 -6.1488 -2.27161 0
M  V30 47 H 2.6232 -4.90631 -3.45024 0
M  V30 48 H 4.3022 -5.49924 -3.4087 0
M  V30 49 N 4.4343 0.785586 -1.36625 0
M  V30 50 C 5.6833 1.53883 -1.30396 0
M  V30 51 C 5.9963 1.95271 0.113452 0
M  V30 52 O 7.2023 2.69858 0.298142 0
M  V30 53 C 5.6583 2.77808 -2.28802 0
M  V30 54 C 5.2663 2.43574 -3.75999 0
M  V30 55 C 7.0103 3.55783 -2.31558 0
M  V30 56 C 4.9173 3.63919 -4.66173 0
M  V30 57 H 3.8473 0.577678 -0.484566 0
M  V30 58 H 6.4983 0.861705 -1.62009 0
M  V30 59 H 4.8803 3.47339 -1.90188 0
M  V30 60 H 6.0543 1.81916 -4.23371 0
M  V30 61 H 4.3693 1.78803 -3.76056 0
M  V30 62 H 6.9663 4.45205 -2.96137 0
M  V30 63 H 7.3093 3.94644 -1.3252 0
M  V30 64 H 7.8423 2.93235 -2.68809 0
M  V30 65 H 4.5813 3.3015 -5.66287 0
M  V30 66 H 4.1013 4.2473 -4.23515 0
M  V30 67 H 5.7803 4.30901 -4.82632 0
M  V30 68 N 5.9124 1.20967 1.01018 0
M  V30 69 C 6.8424 0.988272 2.11555 0
M  V30 70 C 7.8234 -0.0849778 1.69888 0
M  V30 71 O 9.0084 0.0738202 1.9406 0
M  V30 72 C 6.1384 0.546528 3.42973 0
M  V30 73 C 5.0924 1.56375 3.9841 0
M  V30 74 C 4.4184 0.97842 5.25672 0
M  V30 75 C 5.7184 2.94922 4.31066 0
M  V30 76 H 7.4124 1.91276 2.30334 0
M  V30 77 H 4.9584 0.921073 1.1069 0
M  V30 78 H 6.9114 0.378839 4.19694 0
M  V30 79 H 5.6354 -0.413598 3.23971 0
M  V30 80 H 4.2944 1.71891 3.23804 0
M  V30 81 H 3.9424 0.0101688 5.02999 0
M  V30 82 H 3.6424 1.65784 5.63728 0
M  V30 83 H 5.1664 0.821939 6.05043 0
M  V30 84 H 6.5804 2.8288 4.9865 0
M  V30 85 H 4.9774 3.5983 4.80253 0
M  V30 86 H 6.0474 3.4616 3.39561 0
M  V30 87 N 7.3905 -1.2043 1.01659 0
M  V30 88 C 8.6185 -1.93777 0.725132 0
M  V30 89 C 9.0335 -1.74772 -0.714166 0
M  V30 90 O 8.3905 -1.06169 -1.4844 0
M  V30 91 C 8.4415 -3.45876 1.05129 0
M  V30 92 O 8.1625 -3.6426 2.43406 0
M  V30 93 C 9.6635 -4.36368 0.780891 0
M  V30 94 H 6.8835 -0.615901 0.266284 0
M  V30 95 H 9.4275 -1.52922 1.35776 0
M  V30 96 H 7.5825 -3.8461 0.464065 0
M  V30 97 H 7.9965 -4.58246 2.55169 0
M  V30 98 H 9.4705 -5.41743 1.05918 0
M  V30 99 H 9.9475 -4.38275 -0.284937 0
M  V30 100 H 10.5535 -4.03296 1.35027 0
M  V30 101 N 8.8686 -0.792821 -1.36206 0
M  V30 102 C 10.1156 -0.366786 -1.99151 0
M  V30 103 C 10.4436 1.06243 -1.62919 0
M  V30 104 O 9.6986 1.74927 -0.877442 0
M  V30 105 C 9.9976 -0.481501 -3.54142 0
M  V30 106 C 9.6636 -1.87202 -4.10203 0
M  V30 107 C 8.3256 -2.25248 -4.25226 0
M  V30 108 C 10.6776 -2.78237 -4.40719 0
M  V30 109 C 8.0056 -3.53723 -4.68078 0
M  V30 110 C 10.3576 -4.06144 -4.85005 0
M  V30 111 C 9.0216 -4.44207 -4.98234 0
M  V30 112 H 8.2916 -0.134217 -0.728743 0
M  V30 113 H 10.9386 -1.01094 -1.62641 0
M  V30 114 H 9.2436 0.246146 -3.91026 0
M  V30 115 H 10.9406 -0.132844 -4.0078 0
M  V30 116 H 7.5306 -1.56639 -3.98951 0
M  V30 117 H 11.7146 -2.50097 -4.28679 0
M  V30 118 H 6.9706 -3.8308 -4.76508 0
M  V30 119 H 11.1446 -4.76796 -5.07581 0
M  V30 120 H 8.7716 -5.43814 -5.31197 0
M  V30 121 N 10.3467 1.47872 -0.545128 0
M  V30 122 C 11.2767 2.32661 0.197793 0
M  V30 123 C 12.2577 1.43041 0.920504 0
M  V30 124 O 13.4427 1.71912 0.90333 0
M  V30 125 C 10.5727 3.24569 1.23582 0
M  V30 126 C 9.5267 4.23333 0.630323 0
M  V30 127 C 8.8527 5.0448 1.77211 0
M  V30 128 C 10.1527 5.20704 -0.407974 0
M  V30 129 H 11.8467 2.95024 -0.510045 0
M  V30 130 H 9.3927 1.4187 -0.246731 0
M  V30 131 H 11.3457 3.8272 1.76362 0
M  V30 132 H 10.0697 2.60236 1.97344 0
M  V30 133 H 8.7287 3.6639 0.123922 0
M  V30 134 H 8.3767 4.36561 2.49847 0
M  V30 135 H 8.0767 5.71339 1.37281 0
M  V30 136 H 9.6007 5.65487 2.3034 0
M  V30 137 H 11.0147 5.7329 0.033305 0
M  V30 138 H 9.4117 5.95699 -0.725486 0
M  V30 139 H 10.4817 4.66917 -1.30828 0
M  V30 140 N 11.8248 0.280983 1.55075 0
M  V30 141 C 12.7878 -0.590896 2.21452 0
M  V30 142 C 13.7878 -1.07682 1.19421 0
M  V30 143 O 14.9778 -0.97605 1.44288 0
M  V30 144 C 12.1098 -1.81587 2.88511 0
M  V30 145 H 13.3028 -0.0112554 2.99898 0
M  V30 146 H 10.8558 0.0316438 1.56268 0
M  V30 147 H 11.5908 -2.43587 2.14093 0
M  V30 148 H 11.3758 -1.4753 3.63287 0
M  V30 149 H 12.8658 -2.43575 3.39206 0
M  V30 150 N 13.3029 -1.57598 0.00835791 0
M  V30 151 C 14.2329 -2.1198 -0.979113 0
M  V30 152 C 15.2139 -1.03091 -1.35301 0
M  V30 153 O 16.3989 -1.30818 -1.43528 0
M  V30 154 C 13.5289 -2.62995 -2.26828 0
M  V30 155 C 12.4829 -3.76485 -2.03576 0
M  V30 156 C 11.8089 -4.13846 -3.38579 0
M  V30 157 C 13.1089 -5.0342 -1.39161 0
M  V30 158 H 14.8029 -2.94738 -0.526281 0
M  V30 159 H 12.3489 -1.41783 -0.251704 0
M  V30 160 H 14.3019 -2.99669 -2.96271 0
M  V30 161 H 13.0259 -1.7737 -2.7424 0
M  V30 162 H 11.6849 -3.40217 -1.36557 0
M  V30 163 H 11.3329 -3.25232 -3.83709 0
M  V30 164 H 11.0329 -4.90312 -3.23834 0
M  V30 165 H 12.5569 -4.53086 -4.09323 0
M  V30 166 H 13.9709 -5.37812 -1.98573 0
M  V30 167 H 12.3679 -5.84746 -1.34878 0
M  V30 168 H 13.4379 -4.83548 -0.361868 0
M  V30 169 N 14.781 0.264519 -1.55364 0
M  V30 170 C 16.028 0.994986 -1.7637 0
M  V30 171 C 16.356 1.85976 -0.5695 0
M  V30 172 O 15.611 1.90509 0.44776 0
M  V30 173 C 15.91 1.9004 -3.02687 0
M  V30 174 C 15.576 1.19243 -4.34847 0
M  V30 175 C 14.238 0.996709 -4.70764 0
M  V30 176 C 16.59 0.689296 -5.16622 0
M  V30 177 C 13.918 0.285261 -5.86006 0
M  V30 178 C 16.27 -0.00860079 -6.32599 0
M  V30 179 C 14.934 -0.215963 -6.67151 0
M  V30 180 H 14.204 0.364091 -0.645383 0
M  V30 181 H 16.851 0.266543 -1.89636 0
M  V30 182 H 15.156 2.69533 -2.84357 0
M  V30 183 H 16.853 2.46695 -3.16137 0
M  V30 184 H 13.443 1.3549 -4.06621 0
M  V30 185 H 17.627 0.828108 -4.89342 0
M  V30 186 H 12.883 0.113961 -6.11294 0
M  V30 187 H 17.057 -0.406186 -6.95214 0
M  V30 188 H 14.684 -0.769217 -7.56298 0
M  V30 189 N 16.2591 1.48442 0.529413 0
M  V30 190 C 17.5051 1.5672 1.28711 0
M  V30 191 C 17.8381 0.2406 1.92704 0
M  V30 192 O 17.1131 -0.753454 1.79313 0
M  V30 193 C 17.3961 2.70587 2.37603 0
M  V30 194 C 17.2491 4.12953 1.78297 0
M  V30 195 C 18.5681 2.80212 3.39366 0
M  V30 196 H 15.6871 0.570474 0.466613 0
M  V30 197 H 18.3291 1.80617 0.589706 0
M  V30 198 H 16.4791 2.50342 2.97088 0
M  V30 199 H 18.1511 4.44639 1.22858 0
M  V30 200 H 16.3941 4.19927 1.0883 0
M  V30 201 H 17.0651 4.88448 2.57144 0
M  V30 202 H 19.5411 2.98553 2.89836 0
M  V30 203 H 18.4171 3.61611 4.12951 0
M  V30 204 H 18.6781 1.88393 3.99951 0
M  V30 205 N 17.7372 -0.778329 1.37039 0
M  V30 206 C 18.9842 -1.53665 1.31884 0
M  V30 207 C 19.3122 -1.9425 -0.0986303 0
M  V30 208 O 18.5672 -1.63832 -1.07041 0
M  V30 209 C 18.8662 -2.81845 2.19768 0
M  V30 210 C 18.5322 -2.60345 3.68146 0
M  V30 211 C 17.1942 -2.5419 4.08584 0
M  V30 212 C 19.5462 -2.40923 4.62175 0
M  V30 213 C 16.8742 -2.26594 5.41177 0
M  V30 214 C 19.2262 -2.14852 5.94997 0
M  V30 215 C 17.8902 -2.07137 6.34547 0
M  V30 216 H 17.1602 -0.562299 0.482598 0
M  V30 217 H 19.8072 -0.897069 1.69189 0
M  V30 218 H 18.1122 -3.50328 1.75436 0
M  V30 219 H 19.8092 -3.39692 2.13097 0
M  V30 220 H 16.3992 -2.65996 3.36072 0
M  V30 221 H 20.5832 -2.44673 4.31797 0
M  V30 222 H 15.8392 -2.19111 5.70789 0
M  V30 223 H 20.0132 -1.98822 6.67415 0
M  V30 224 H 17.6402 -1.85518 7.37216 0
M  V30 225 N 19.2153 -1.21501 -1.00376 0
M  V30 226 C 20.1453 -0.999478 -2.11028 0
M  V30 227 C 21.1263 0.0759671 -1.6993 0
M  V30 228 O 22.3113 -0.0841106 -1.94018 0
M  V30 229 C 19.4413 -0.564709 -3.42678 0
M  V30 230 C 18.3953 -1.58486 -3.97576 0
M  V30 231 C 17.7213 -1.00628 -5.25146 0
M  V30 232 C 19.0213 -2.97204 -4.29496 0
M  V30 233 H 20.7153 -1.92495 -2.29317 0
M  V30 234 H 18.2613 -0.92693 -1.102 0
M  V30 235 H 20.2143 -0.401091 -4.19487 0
M  V30 236 H 18.9383 0.396411 -3.24185 0
M  V30 237 H 17.5973 -1.73606 -3.22888 0
M  V30 238 H 17.2453 -0.0368439 -5.02987 0
M  V30 239 H 16.9453 -1.68771 -5.62841 0
M  V30 240 H 18.4693 -0.854015 -6.04598 0
M  V30 241 H 19.8833 -2.8552 -4.97143 0
M  V30 242 H 18.2803 -3.62372 -4.78338 0
M  V30 243 H 19.3503 -3.47956 -3.3772 0
M  V30 244 N 20.6934 1.19889 -1.02296 0
M  V30 245 C 21.9424 1.88743 -0.711257 0
M  V30 246 C 22.2554 1.80112 0.762817 0
M  V30 247 O 23.4614 2.44161 1.18733 0
M  V30 248 C 21.9174 3.38525 -1.22185 0
M  V30 249 C 21.5254 3.55727 -2.72328 0
M  V30 250 C 23.2694 4.12893 -0.985864 0
M  V30 251 C 21.1764 4.99369 -3.16835 0
M  V30 252 H 20.1064 0.706885 -0.262353 0
M  V30 253 H 22.7574 1.35586 -1.23648 0
M  V30 254 H 21.1394 3.91044 -0.624571 0
M  V30 255 H 22.3134 3.13564 -3.3766 0
M  V30 256 H 20.6284 2.94739 -2.9414 0
M  V30 257 H 23.2254 5.18813 -1.29374 0
M  V30 258 H 23.5684 4.16228 0.0775055 0
M  V30 259 H 24.1014 3.66494 -1.54684 0
M  V30 260 H 20.8404 5.01193 -4.22476 0
M  V30 261 H 20.3604 5.42317 -2.56228 0
M  V30 262 H 22.0394 5.67988 -3.09837 0
M  V30 263 N 22.1715 0.800033 1.35784 0
M  V30 264 C 23.4115 0.382891 2.00782 0
M  V30 265 C 23.7755 -1.02891 1.62103 0
M  V30 266 O 24.9765 -1.54771 2.19771 0
M  V30 267 C 23.2475 0.553299 3.53091 0
M  V30 268 S 24.8065 0.225608 4.3822 0
M  V30 269 H 21.6245 0.145737 0.695904 0
M  V30 270 H 24.2265 1.04085 1.65489 0
M  V30 271 H 22.9305 1.58091 3.78729 0
M  V30 272 H 22.4615 -0.120214 3.93216 0
M  V30 273 H 24.4765 -0.969074 4.86645 0
M  V30 274 N 23.6496 -1.47581 0.552962 0
M  V30 275 C 24.8956 -2.02782 0.0273648 0
M  V30 276 C 25.2286 -1.42687 -1.31734 0
M  V30 277 O 24.5036 -0.580897 -1.85623 0
M  V30 278 C 24.7866 -3.60031 -0.0702371 0
M  V30 279 C 24.6396 -4.30566 1.30126 0
M  V30 280 C 25.9586 -4.33028 -0.785771 0
M  V30 281 H 23.0776 -0.736912 0.0114185 0
M  V30 282 H 25.7196 -1.76056 0.714432 0
M  V30 283 H 23.8696 -3.82932 -0.655382 0
M  V30 284 H 25.5416 -4.19018 1.92929 0
M  V30 285 H 23.7846 -3.91086 1.87709 0
M  V30 286 H 24.4556 -5.39114 1.18573 0
M  V30 287 H 26.9316 -4.15095 -0.288982 0
M  V30 288 H 25.8076 -5.42695 -0.823013 0
M  V30 289 H 26.0686 -4.01945 -1.841 0
M  V30 290 N 25.1277 -0.289203 -1.54924 0
M  V30 291 C 26.3747 0.323519 -1.99899 0
M  V30 292 C 26.7027 1.54797 -1.17762 0
M  V30 293 O 25.9577 1.94237 -0.238835 0
M  V30 294 C 26.2567 0.736119 -3.49737 0
M  V30 295 C 25.9227 -0.385276 -4.49251 0
M  V30 296 C 24.5847 -0.693156 -4.76181 0
M  V30 297 C 26.9367 -1.14021 -5.08575 0
M  V30 298 C 24.2647 -1.7593 -5.59701 0
M  V30 299 C 26.6167 -2.19619 -5.93254 0
M  V30 300 C 25.2807 -2.51026 -6.185 0
M  V30 301 H 24.5507 0.118384 -0.731482 0
M  V30 302 H 27.1977 -0.405847 -1.8715 0
M  V30 303 H 25.5027 1.54539 -3.60035 0
M  V30 304 H 27.1997 1.22118 -3.81953 0
M  V30 305 H 23.7897 -0.135202 -4.28387 0
M  V30 306 H 27.9737 -0.915611 -4.87781 0
M  V30 307 H 23.2297 -2.0075 -5.77503 0
M  V30 308 H 27.4037 -2.78581 -6.38252 0
M  V30 309 H 25.0307 -3.33772 -6.83008 0
M  V30 310 N 26.6058 1.57591 -0.0167156 0
M  V30 311 C 28.0168 1.79201 0.523834 0
M  V30 312 C 28.3678 0.925796 1.72984 0
M  V30 313 O 27.4928 0.132792 2.15992 0
M  V30 314 C 28.0878 3.25 0.957091 0
M  V30 315 C 26.6468 3.47648 1.44283 0
M  V30 316 C 25.7938 2.74374 0.401757 0
M  V30 317 H 28.7448 1.56831 -0.242816 0
M  V30 318 H 28.7658 3.34031 1.82219 0
M  V30 319 H 28.2778 3.88019 0.0791415 0
M  V30 320 H 26.3788 2.89866 2.34113 0
M  V30 321 H 26.4918 4.56352 1.45877 0
M  V30 322 H 24.8558 2.39485 0.867121 0
M  V30 323 H 25.6388 3.40102 -0.467513 0
M  V30 324 N 28.0839 -0.256276 1.55502 0
M  V30 325 C 29.3239 -0.993081 1.78654 0
M  V30 326 C 29.6879 -1.8288 0.584724 0
M  V30 327 O 30.8889 -2.59665 0.694822 0
M  V30 328 C 29.1599 -1.83856 3.06483 0
M  V30 329 S 30.7189 -2.63573 3.5082 0
M  V30 330 H 27.5369 -0.334199 0.62756 0
M  V30 331 H 30.1389 -0.26184 1.93739 0
M  V30 332 H 28.8429 -1.21414 3.92029 0
M  V30 333 H 28.3739 -2.61271 2.94111 0
M  V30 334 H 30.3889 -3.86312 3.11412 0
M  V30 335 N 29.562 -1.4872 -0.521534 0
M  V30 336 C 30.811 -1.56419 -1.27341 0
M  V30 337 C 31.124 -0.246805 -1.94037 0
M  V30 338 O 32.33 -0.202122 -2.70747 0
M  V30 339 C 30.786 -2.75896 -2.31105 0
M  V30 340 C 30.394 -4.14311 -1.70441 0
M  V30 341 C 32.138 -2.92913 -3.07249 0
M  V30 342 C 30.045 -5.25038 -2.72194 0
M  V30 343 H 28.975 -0.582344 -0.478949 0
M  V30 344 H 31.626 -1.75071 -0.549779 0
M  V30 345 H 30.008 -2.50697 -3.06541 0
M  V30 346 H 31.182 -4.49564 -1.01136 0
M  V30 347 H 29.497 -4.02482 -1.06759 0
M  V30 348 H 32.094 -3.72805 -3.83302 0
M  V30 349 H 32.437 -2.02689 -3.63625 0
M  V30 350 H 32.97 -3.18054 -2.38928 0
M  V30 351 H 29.709 -6.17255 -2.20627 0
M  V30 352 H 29.229 -4.94263 -3.39801 0
M  V30 353 H 30.908 -5.53508 -3.35019 0
M  V30 354 N 31.0401 0.771051 -1.3745 0
M  V30 355 C 32.2681 1.56015 -1.35893 0
M  V30 356 C 32.6831 1.88718 0.0555523 0
M  V30 357 O 32.0401 1.51502 1.01752 0
M  V30 358 C 32.0911 2.87001 -2.19801 0
M  V30 359 O 31.8121 2.557 -3.55738 0
M  V30 360 C 33.3131 3.81228 -2.26231 0
M  V30 361 H 30.5331 0.483317 -0.465453 0
M  V30 362 H 33.0771 0.955611 -1.80799 0
M  V30 363 H 31.2321 3.43877 -1.78402 0
M  V30 364 H 31.6461 3.39584 -3.99729 0
M  V30 365 H 33.1201 4.70139 -2.89263 0
M  V30 366 H 33.5971 4.20409 -1.27093 0
M  V30 367 H 34.2031 3.30281 -2.67945 0
M  V30 368 N 32.5182 1.22032 0.997298 0
M  V30 369 C 33.4282 1.00271 2.12092 0
M  V30 370 C 34.4442 -0.047621 1.73935 0
M  V30 371 O 35.6202 0.144136 2.00884 0
M  V30 372 C 32.6852 0.578449 3.4184 0
M  V30 373 C 31.7462 1.70189 3.94125 0
M  V30 374 C 30.9792 1.29778 5.17681 0
M  V30 375 O 31.2022 0.174676 5.70132 0
M  V30 376 O 30.1362 2.11261 5.63607 0
M  V30 377 H 33.9622 1.94398 2.3333 0
M  V30 378 H 31.5472 1.00587 1.10465 0
M  V30 379 H 33.4292 0.351998 4.19927 0
M  V30 380 H 32.1042 -0.334019 3.21972 0
M  V30 381 H 31.0112 1.98282 3.1723 0
M  V30 382 H 32.3442 2.59206 4.18417 0
M  V30 383 N 33.9963 -1.19345 1.0293 0
M  V30 384 C 35.2733 -1.84811 0.640642 0
M  V30 385 C 35.6533 -1.91855 -0.88062 0
M  V30 386 O 35.0013 -1.43587 -1.7775 0
M  V30 387 C 35.2113 -3.23755 1.30321 0
M  V30 388 C 36.5593 -3.99912 1.42673 0
M  V30 389 O 37.5833 -3.33155 1.26041 0
M  V30 390 O 36.4423 -5.19494 1.6967 0
M  V30 391 H 33.5363 -0.796443 0.222726 0
M  V30 392 H 36.0823 -1.26831 1.12748 0
M  V30 393 H 34.8543 -3.13466 2.34211 0
M  V30 394 H 34.4773 -3.89381 0.804261 0
M  V30 395 N 35.4744 -0.807222 -1.35358 0
M  V30 396 C 36.7024 -0.400377 -2.02989 0
M  V30 397 C 37.1174 0.988859 -1.60832 0
M  V30 398 O 36.4744 1.63729 -0.806175 0
M  V30 399 C 36.5254 -0.474867 -3.58368 0
M  V30 400 O 36.2464 -1.80933 -3.98992 0
M  V30 401 C 37.7474 -0.0609112 -4.43258 0
M  V30 402 H 34.9674 -0.162587 -0.651004 0
M  V30 403 H 37.5114 -1.09102 -1.72965 0
M  V30 404 H 35.6664 0.167534 -3.87038 0
M  V30 405 H 36.0804 -1.77256 -4.9364 0
M  V30 406 H 37.5544 -0.164145 -5.51756 0
M  V30 407 H 38.0314 0.993831 -4.27808 0
M  V30 408 H 38.6374 -0.676492 -4.19885 0
M  V30 409 N 36.9525 1.47285 -0.560781 0
M  V30 410 C 37.9025 2.27073 0.205384 0
M  V30 411 C 38.8865 1.34569 0.882044 0
M  V30 412 O 40.0785 1.58899 0.77976 0
M  V30 413 C 37.2075 3.20414 1.23247 0
M  V30 414 C 36.2935 4.20399 0.559041 0
M  V30 415 N 36.6845 5.04423 -0.372927 0
M  V30 416 C 34.9825 4.38536 0.812522 0
M  V30 417 C 35.6835 5.76655 -0.764446 0
M  V30 418 N 34.6595 5.43471 -0.11848 0
M  V30 419 H 38.4615 2.89422 -0.511117 0
M  V30 420 H 35.9755 1.57868 -0.380975 0
M  V30 421 H 37.9725 3.76262 1.79534 0
M  V30 422 H 36.6325 2.59623 1.95002 0
M  V30 423 H 37.6435 5.1248 -0.747287 0
M  V30 424 H 34.3205 3.88913 1.51832 0
M  V30 425 H 35.7105 6.54238 -1.53045 0
M  V30 426 N 38.4306 0.297415 1.54768 0
M  V30 427 C 39.3776 -0.580276 2.23386 0
M  V30 428 C 40.3476 -1.13238 1.21517 0
M  V30 429 O 41.5326 -1.17757 1.50126 0
M  V30 430 C 38.6726 -1.74801 2.97555 0
M  V30 431 C 37.7856 -1.22764 4.1419 0
M  V30 432 C 36.9206 -2.35895 4.75949 0
M  V30 433 C 35.9596 -1.80974 5.84735 0
M  V30 434 N 35.0966 -2.87664 6.40464 0
M  V30 435 H 39.9366 0.0114833 2.97998 0
M  V30 436 H 37.4736 0.0174361 1.4709 0
M  V30 437 H 39.4316 -2.43475 3.38786 0
M  V30 438 H 38.0616 -2.31145 2.25326 0
M  V30 439 H 37.1136 -0.433271 3.77924 0
M  V30 440 H 38.4256 -0.785551 4.92575 0
M  V30 441 H 37.5796 -3.12523 5.20014 0
M  V30 442 H 36.3186 -2.83429 3.96887 0
M  V30 443 H 35.3236 -1.02834 5.40097 0
M  V30 444 H 36.5486 -1.34348 6.65678 0
M  V30 445 H 34.4946 -3.34538 5.64287 0
M  V30 446 H 34.4116 -2.4794 7.14186 0
M  V30 447 H 35.6796 -3.642 6.89187 0
M  V30 448 N 39.9087 -1.5758 0.0250728 0
M  V30 449 C 41.1387 -1.95646 -0.663783 0
M  V30 450 C 41.5467 -0.899935 -1.66427 0
M  V30 451 O 40.8897 0.127191 -1.83259 0
M  V30 452 C 40.9517 -3.29835 -1.43 0
M  V30 453 C 40.6157 -4.53197 -0.588305 0
M  V30 454 C 41.6127 -5.19726 0.13469 0
M  V30 455 C 39.2977 -4.99529 -0.526897 0
M  V30 456 C 41.2917 -6.30902 0.90781 0
M  V30 457 C 38.9787 -6.10589 0.24993 0
M  V30 458 C 39.9767 -6.76134 0.965994 0
M  V30 459 O 39.6647 -7.85062 1.7301 0
M  V30 460 H 39.3967 -0.649282 -0.188174 0
M  V30 461 H 41.9507 -2.05245 0.0799006 0
M  V30 462 H 40.1807 -3.16716 -2.21873 0
M  V30 463 H 41.8697 -3.52833 -2.00658 0
M  V30 464 H 42.6357 -4.84904 0.0965562 0
M  V30 465 H 38.5147 -4.48319 -1.07381 0
M  V30 466 H 42.0587 -6.81995 1.46724 0
M  V30 467 H 37.9557 -6.44849 0.289795 0
M  V30 468 H 38.7237 -8.01708 1.64944 0
M  V30 469 N 41.3868 0.248026 -1.55636 0
M  V30 470 C 42.6328 0.97767 -1.77678 0
M  V30 471 C 42.9658 1.85016 -0.590135 0
M  V30 472 O 42.2408 1.90095 0.411611 0
M  V30 473 C 42.5238 1.83914 -3.09593 0
M  V30 474 C 42.3768 0.99491 -4.38659 0
M  V30 475 C 43.6958 2.82183 -3.37729 0
M  V30 476 H 40.8148 0.354005 -0.646413 0
M  V30 477 H 43.4568 0.248253 -1.88371 0
M  V30 478 H 41.6068 2.46104 -3.00608 0
M  V30 479 H 43.2788 0.391789 -4.59633 0
M  V30 480 H 41.5218 0.299231 -4.32767 0
M  V30 481 H 42.1928 1.63145 -5.2734 0
M  V30 482 H 44.6688 2.30129 -3.4667 0
M  V30 483 H 43.5448 3.39582 -4.31249 0
M  V30 484 H 43.8058 3.58588 -2.58586 0
M  V30 485 N 42.8649 1.48995 0.513639 0
M  V30 486 C 44.0949 1.61297 1.291 0
M  V30 487 C 44.5029 0.278656 1.87137 0
M  V30 488 O 43.8459 -0.744325 1.67945 0
M  V30 489 C 43.9079 2.61326 2.46879 0
M  V30 490 C 43.5719 4.05993 2.09807 0
M  V30 491 C 44.5689 4.93183 1.64519 0
M  V30 492 C 42.2539 4.51642 2.19829 0
M  V30 493 C 44.2479 6.24056 1.2974 0
M  V30 494 C 41.9349 5.82532 1.84662 0
M  V30 495 C 42.9329 6.68562 1.3969 0
M  V30 496 O 42.6209 7.97014 1.04992 0
M  V30 497 H 42.3529 0.546236 0.39825 0
M  V30 498 H 44.9069 1.95673 0.62459 0
M  V30 499 H 43.1369 2.22104 3.16554 0
M  V30 500 H 44.8259 2.6329 3.08923 0
M  V30 501 H 45.5919 4.59147 1.56233 0
M  V30 502 H 41.4709 3.84855 2.53786 0
M  V30 503 H 45.0149 6.91161 0.945659 0
M  V30 504 H 40.9119 6.16099 1.92594 0
M  V30 505 H 41.6799 8.09913 1.18249 0
M  V30 506 N 44.343 -0.763751 1.37857 0
M  V30 507 C 45.568 -1.55805 1.36893 0
M  V30 508 C 45.993 -1.88054 -0.0416135 0
M  V30 509 O 45.351 -1.49825 -1.02089 0
M  V30 510 C 45.399 -2.84012 2.22192 0
M  V30 511 O 44.503 -3.78732 1.63204 0
M  V30 512 H 43.844 -0.471638 0.46739 0
M  V30 513 H 46.374 -0.944657 1.81487 0
M  V30 514 H 46.384 -3.33037 2.35691 0
M  V30 515 H 45.059 -2.59869 3.24716 0
M  V30 516 H 43.636 -3.37402 1.58791 0
M  V30 517 N 45.8211 -1.22559 -0.990812 0
M  V30 518 C 46.7311 -1.01394 -2.11557 0
M  V30 519 C 47.7471 0.0383962 -1.73958 0
M  V30 520 O 48.9231 -0.154787 -2.00804 0
M  V30 521 C 45.9881 -0.596569 -3.41529 0
M  V30 522 C 45.0491 -1.72276 -3.93217 0
M  V30 523 C 44.2821 -1.32521 -5.16985 0
M  V30 524 O 44.5051 -0.204909 -5.70032 0
M  V30 525 O 43.4391 -2.14247 -5.62478 0
M  V30 526 H 47.2651 -1.95633 -2.32296 0
M  V30 527 H 44.8501 -1.01172 -1.0993 0
M  V30 528 H 46.7321 -0.374263 -4.19735 0
M  V30 529 H 45.4071 0.316939 -3.22145 0
M  V30 530 H 44.3141 -1.99961 -3.16174 0
M  V30 531 H 45.6471 -2.61421 -4.17037 0
M  V30 532 N 47.2992 1.18797 -1.03562 0
M  V30 533 C 48.5482 1.87978 -0.731235 0
M  V30 534 C 48.8612 1.80911 0.743671 0
M  V30 535 O 50.0672 2.45407 1.16137 0
M  V30 536 C 48.5232 3.3721 -1.25768 0
M  V30 537 C 48.1312 3.52818 -2.76085 0
M  V30 538 C 49.8752 4.11825 -1.0296 0
M  V30 539 C 47.7822 4.9598 -3.22114 0
M  V30 540 H 46.7122 0.704063 -0.269835 0
M  V30 541 H 49.3632 1.34266 -1.25079 0
M  V30 542 H 47.7452 3.90359 -0.666011 0
M  V30 543 H 48.9192 3.09965 -3.40966 0
M  V30 544 H 47.2342 2.91602 -2.97249 0
M  V30 545 H 49.8312 5.17411 -1.34869 0
M  V30 546 H 50.1742 4.16287 0.0333546 0
M  V30 547 H 50.7072 3.64833 -1.58562 0
M  V30 548 H 47.4462 4.96684 -4.27768 0
M  V30 549 H 46.9662 5.39569 -2.61965 0
M  V30 550 H 48.6452 5.6467 -3.15844 0
M  V30 551 N 48.7773 0.814389 1.34928 0
M  V30 552 C 50.0173 0.404165 2.00364 0
M  V30 553 C 50.3813 -1.01166 1.63185 0
M  V30 554 O 51.5823 -1.52431 2.21401 0
M  V30 555 C 49.8533 0.590718 3.52484 0
M  V30 556 S 51.4123 0.272075 4.37956 0
M  V30 557 H 48.2303 0.15311 0.694319 0
M  V30 558 H 50.8323 1.05834 1.64376 0
M  V30 559 H 49.5363 1.62099 3.77031 0
M  V30 560 H 49.0673 -0.0785013 3.93322 0
M  V30 561 H 51.0823 -0.917405 4.87645 0
M  V30 562 N 50.2554 -1.46986 0.568584 0
M  V30 563 C 51.5034 -2.02041 0.0487022 0
M  V30 564 C 51.8244 -1.44408 -1.31039 0
M  V30 565 O 51.0944 -0.623477 -1.85714 0
M  V30 566 H 49.6744 -0.746849 0.015014 0
M  V30 567 H 52.3364 -1.80257 0.741168 0
M  V30 568 H 51.4324 -3.12085 -0.0308961 0
M  V30 569 N 51.7335 -0.305618 -1.54608 0
M  V30 570 C 52.6805 0.568421 -2.23691 0
M  V30 571 C 53.6505 1.12592 -1.22116 0
M  V30 572 O 54.8355 1.16959 -1.50749 0
M  V30 573 C 51.9755 1.7322 -2.98477 0
M  V30 574 C 51.0885 1.20566 -4.14835 0
M  V30 575 C 50.2235 2.33368 -4.77193 0
M  V30 576 C 49.2625 1.7787 -5.85686 0
M  V30 577 N 48.3995 2.84263 -6.4198 0
M  V30 578 H 53.2395 -0.0272867 -2.97988 0
M  V30 579 H 50.7765 -0.0252363 -1.47078 0
M  V30 580 H 52.7345 2.41675 -3.40072 0
M  V30 581 H 51.3645 2.29947 -2.26548 0
M  V30 582 H 50.4165 0.413223 -3.78149 0
M  V30 583 H 51.7285 0.759417 -4.92985 0
M  V30 584 H 50.8825 3.09761 -5.21664 0
M  V30 585 H 49.6215 2.8132 -3.98385 0
M  V30 586 H 48.6265 0.99968 -5.40635 0
M  V30 587 H 49.8515 1.30816 -6.66381 0
M  V30 588 H 47.7975 3.31541 -5.66053 0
M  V30 589 H 47.7145 2.44149 -7.15491 0
M  V30 590 H 48.9825 3.6054 -6.91109 0
M  V30 591 N 53.2116 1.57565 -0.0334293 0
M  V30 592 C 54.4596 1.91598 0.642999 0
M  V30 593 C 54.7806 0.910847 1.7242 0
M  V30 594 O 54.0506 -0.0469931 1.95844 0
M  V30 595 H 52.6306 0.707228 0.240496 0
M  V30 596 H 55.2926 1.94726 -0.0822488 0
M  V30 597 H 54.3886 2.92336 1.09298 0
M  V30 598 N 54.6897 -0.239769 1.55765 0
M  V30 599 C 55.6527 -1.28038 1.90103 0
M  V30 600 C 56.6527 -1.40723 0.778055 0
M  V30 601 O 57.8427 -1.39301 1.04599 0
M  V30 602 C 54.9747 -2.65702 2.13577 0
M  V30 603 H 56.1677 -0.988048 2.83157 0
M  V30 604 H 53.7207 -0.479382 1.48767 0
M  V30 605 H 54.4557 -3.00063 1.23015 0
M  V30 606 H 54.2407 -2.57875 2.95369 0
M  V30 607 H 55.7307 -3.40828 2.41301 0
M  V30 608 N 56.1678 -1.49265 -0.50573 0
M  V30 609 C 57.1158 -1.66065 -1.62866 0
M  V30 610 C 58.1098 -0.526636 -1.61006 0
M  V30 611 O 59.3158 -0.706126 -1.65571 0
M  V30 612 H 55.6908 -0.52356 -0.539805 0
M  V30 613 H 57.6618 -2.60329 -1.45848 0
M  V30 614 C 56.4108 -1.74008 -3.01026 0
M  V30 615 H 55.7338 -2.6064 -3.03161 0
M  V30 616 H 57.1738 -1.89798 -3.79147 0
M  V30 617 C 55.6328 -0.483868 -3.33407 0
M  V30 618 O 56.1628 0.392548 -3.99777 0
M  V30 619 N 54.3688 -0.348236 -2.88506 0
M  V30 620 H 53.9158 -1.06242 -2.34671 0
M  V30 621 H 53.8738 0.491204 -3.10539 0
M  V30 622 N 57.6459 0.756429 -1.3826 0
M  V30 623 C 58.5559 1.9009 -1.37488 0
M  V30 624 C 59.5719 1.71855 -0.272366 0
M  V30 625 O 60.7479 1.94827 -0.510318 0
M  V30 626 C 57.8129 3.25421 -1.19592 0
M  V30 627 C 56.8739 3.56202 -2.39622 0
M  V30 628 C 56.1069 4.85075 -2.2257 0
M  V30 629 O 56.3299 5.57246 -1.21793 0
M  V30 630 O 55.2639 5.15269 -3.11098 0
M  V30 631 H 59.0899 1.93695 -2.33914 0
M  V30 632 H 56.6749 0.901313 -1.1915 0
M  V30 633 H 58.5569 4.06337 -1.11661 0
M  V30 634 H 57.2319 3.22634 -0.262486 0
M  V30 635 H 56.1389 2.75458 -2.53128 0
M  V30 636 H 57.4719 3.63747 -3.31586 0
M  V30 637 N 59.124 1.23083 0.984299 0
M  V30 638 C 60.072 1.00593 2.09723 0
M  V30 639 C 61.066 -0.0538014 1.69315 0
M  V30 640 O 62.272 0.0993719 1.79725 0
M  V30 641 H 58.647 0.30817 0.685956 0
M  V30 642 H 60.618 1.95012 2.2586 0
M  V30 643 C 59.367 0.609601 3.42314 0
M  V30 644 H 58.69 1.41675 3.73856 0
M  V30 645 H 60.13 0.491726 4.21139 0
M  V30 646 C 58.589 -0.681745 3.2993 0
M  V30 647 O 59.119 -1.73192 3.62446 0
M  V30 648 N 57.325 -0.656178 2.83095 0
M  V30 649 H 56.872 0.198759 2.56832 0
M  V30 650 H 56.83 -1.52044 2.75191 0
M  V30 651 N 60.6021 -1.18246 1.0419 0
M  V30 652 C 61.5121 -2.25574 0.644476 0
M  V30 653 C 62.5281 -1.70845 -0.329826 0
M  V30 654 O 63.7041 -2.00554 -0.184443 0
M  V30 655 C 60.7691 -3.46697 0.014877 0
M  V30 656 C 59.8301 -4.16554 1.03834 0
M  V30 657 C 59.0631 -5.31894 0.438692 0
M  V30 658 O 59.2861 -5.65385 -0.754752 0
M  V30 659 O 58.2201 -5.90459 1.168 0
M  V30 660 H 62.0461 -2.61836 1.53869 0
M  V30 661 H 59.6311 -1.25352 0.812854 0
M  V30 662 H 61.5131 -4.20062 -0.335538 0
M  V30 663 H 60.1881 -3.12255 -0.853138 0
M  V30 664 H 59.0951 -3.45251 1.44057 0
M  V30 665 H 60.4281 -4.54998 1.87716 0
M  V30 666 N 62.0802 -0.821533 -1.34494 0
M  V30 667 C 63.3052 -0.420873 -2.03085 0
M  V30 668 C 63.7302 0.964915 -1.61465 0
M  V30 669 O 63.0882 1.62763 -0.798607 0
M  V30 670 C 63.1362 -0.529414 -3.56693 0
M  V30 671 O 62.2402 0.451302 -4.09923 0
M  V30 672 H 61.5812 -0.173489 -0.640935 0
M  V30 673 H 64.1112 -1.11157 -1.71771 0
M  V30 674 H 64.1212 -0.404671 -4.05988 0
M  V30 675 H 62.7962 -1.54014 -3.86332 0
M  V30 676 H 61.3732 0.285558 -3.71805 0
M  V30 677 N 63.5583 1.46682 -0.576371 0
M  V30 678 C 64.7833 2.07304 -0.0630475 0
M  V30 679 C 65.2083 1.42329 1.2298 0
M  V30 680 O 64.5663 0.504865 1.74129 0
M  V30 681 C 64.6143 3.60472 0.095895 0
M  V30 682 O 63.7183 3.95927 1.15394 0
M  V30 683 H 63.0593 0.661288 -0.0599463 0
M  V30 684 H 65.5893 1.88417 -0.797511 0
M  V30 685 H 65.5993 4.06865 0.304071 0
M  V30 686 H 64.2743 4.07157 -0.84828 0
M  V30 687 H 62.8513 3.61252 0.924724 0
M  V30 688 N 65.0364 0.313813 1.54444 0
M  V30 689 C 66.2824 -0.292108 2.00685 0
M  V30 690 C 66.6154 -1.52548 1.20177 0
M  V30 691 O 65.8904 -1.92452 0.281531 0
M  V30 692 C 66.1734 -0.635968 3.5444 0
M  V30 693 C 66.0264 0.607437 4.4568 0
M  V30 694 C 67.3454 -1.45747 4.15266 0
M  V30 695 H 64.4644 -0.104697 0.729526 0
M  V30 696 H 67.1064 0.428457 1.85106 0
M  V30 697 H 65.2564 -1.24986 3.67846 0
M  V30 698 H 66.9284 1.24581 4.44159 0
M  V30 699 H 65.1714 1.23822 4.15753 0
M  V30 700 H 65.8424 0.322515 5.51057 0
M  V30 701 H 68.3184 -0.938645 4.05375 0
M  V30 702 H 67.1944 -1.66683 5.2298 0
M  V30 703 H 67.4554 -2.45063 3.67963 0
M  V30 704 N 66.5145 -1.57545 0.0417849 0
M  V30 705 C 67.7445 -1.96339 -0.642995 0
M  V30 706 C 68.1525 -0.917536 -1.65463 0
M  V30 707 O 67.4955 0.107747 -1.83384 0
M  V30 708 C 67.5575 -3.31333 -1.39494 0
M  V30 709 C 67.2215 -4.53796 -0.540204 0
M  V30 710 C 68.2185 -5.19553 0.189806 0
M  V30 711 C 65.9035 -5.0006 -0.473886 0
M  V30 712 C 67.8975 -6.29904 0.974674 0
M  V30 713 C 65.5845 -6.10289 0.314677 0
M  V30 714 C 66.5825 -6.75072 1.03765 0
M  V30 715 O 66.2705 -7.83183 1.81327 0
M  V30 716 H 66.0025 -0.651241 -0.181277 0
M  V30 717 H 68.5565 -2.05148 0.101665 0
M  V30 718 H 66.7865 -3.19052 -2.18502 0
M  V30 719 H 68.4755 -3.54942 -1.96904 0
M  V30 720 H 69.2415 -4.84774 0.147981 0
M  V30 721 H 65.1205 -4.49433 -1.0262 0
M  V30 722 H 68.6645 -6.80401 1.5395 0
M  V30 723 H 64.5615 -6.44506 0.358174 0
M  V30 724 H 65.3295 -7.99913 1.73438 0
M  V30 725 N 67.9926 0.231505 -1.5589 0
M  V30 726 C 69.2326 0.964533 -1.80211 0
M  V30 727 C 69.5966 1.81926 -0.613744 0
M  V30 728 O 70.7976 2.58526 -0.736045 0
M  V30 729 C 69.0686 1.78956 -3.09369 0
M  V30 730 S 70.6276 2.57959 -3.54969 0
M  V30 731 H 67.4456 0.324173 -0.632798 0
M  V30 732 H 70.0476 0.230985 -1.94131 0
M  V30 733 H 68.7516 1.15161 -3.93911 0
M  V30 734 H 68.2826 2.56559 -2.9823 0
M  V30 735 H 70.2976 3.81309 -3.17519 0
M  V30 736 N 69.4707 1.49531 0.497807 0
M  V30 737 C 70.4037 1.61043 1.6168 0
M  V30 738 C 71.3817 0.459386 1.55976 0
M  V30 739 O 72.5657 0.675358 1.75986 0
M  V30 740 C 69.6927 1.56833 3.00202 0
M  V30 741 C 68.7387 2.77173 3.24156 0
M  V30 742 S 69.5717 4.38808 3.06933 0
M  V30 743 C 70.7277 4.37248 4.47845 0
M  V30 744 H 70.9607 2.55702 1.51671 0
M  V30 745 H 68.4937 1.38462 0.683201 0
M  V30 746 H 70.4517 1.55089 3.80076 0
M  V30 747 H 69.1127 0.634561 3.07623 0
M  V30 748 H 68.3057 2.70456 4.25288 0
M  V30 749 H 67.9077 2.76346 2.5201 0
M  V30 750 H 70.1997 4.09164 5.39992 0
M  V30 751 H 71.1427 5.38668 4.59612 0
M  V30 752 H 71.5507 3.67286 4.28674 0
M  V30 753 N 70.9488 -0.749086 1.3866 0
M  V30 754 C 71.8958 -1.86291 1.36251 0
M  V30 755 C 72.8658 -1.64578 0.224347 0
M  V30 756 O 74.0508 -1.86181 0.417279 0
M  V30 757 C 71.1908 -3.23644 1.19786 0
M  V30 758 C 70.3038 -3.57158 2.43027 0
M  V30 759 C 69.4388 -4.83838 2.19258 0
M  V30 760 C 68.4778 -5.10152 3.38247 0
M  V30 761 N 67.6148 -6.28029 3.13884 0
M  V30 762 H 72.4548 -1.87685 2.3147 0
M  V30 763 H 69.9918 -0.917287 1.14997 0
M  V30 764 H 71.9498 -4.0291 1.08254 0
M  V30 765 H 70.5798 -3.21566 0.282031 0
M  V30 766 H 69.6318 -2.72701 2.65214 0
M  V30 767 H 70.9438 -3.7253 3.31697 0
M  V30 768 H 70.0978 -5.71057 2.04888 0
M  V30 769 H 68.8368 -4.70614 1.2796 0
M  V30 770 H 67.8418 -4.21401 3.53131 0
M  V30 771 H 69.0668 -5.25271 4.30427 0
M  V30 772 H 67.0128 -6.1612 2.25238 0
M  V30 773 H 66.9298 -6.43922 3.96106 0
M  V30 774 H 68.1978 -7.18124 3.03179 0
M  V30 775 N 72.4269 -1.23603 -0.977757 0
M  V30 776 C 73.7039 -0.977897 -1.69401 0
M  V30 777 C 74.0839 0.502738 -2.05026 0
M  V30 778 O 73.4319 1.47459 -1.74551 0
M  V30 779 C 73.6419 -1.89077 -2.93345 0
M  V30 780 C 74.9899 -2.15579 -3.65802 0
M  V30 781 O 76.0139 -1.86648 -3.03383 0
M  V30 782 O 74.8729 -2.64658 -4.78141 0
M  V30 783 H 71.9669 -0.369025 -0.740101 0
M  V30 784 H 74.5129 -1.34657 -1.03274 0
M  V30 785 H 73.2849 -2.89158 -2.63634 0
M  V30 786 H 72.9079 -1.52463 -3.67207 0
M  V30 787 N 73.905 1.17692 -1.04816 0
M  V30 788 C 74.855 2.1952 -0.616042 0
M  V30 789 C 75.839 1.57147 0.345485 0
M  V30 790 O 77.031 1.76245 0.163325 0
M  V30 791 C 74.16 3.43298 0.0116917 0
M  V30 792 C 73.246 4.12777 -0.973435 0
M  V30 793 N 73.637 4.5814 -2.14339 0
M  V30 794 C 71.935 4.38747 -0.80108 0
M  V30 795 C 72.636 5.11713 -2.7663 0
M  V30 796 N 71.612 5.03686 -2.04453 0
M  V30 797 H 75.414 2.52293 -1.5075 0
M  V30 798 H 72.928 1.3398 -0.917776 0
M  V30 799 H 74.925 4.15519 0.339006 0
M  V30 800 H 73.585 3.12018 0.898593 0
M  V30 801 H 74.596 4.52349 -2.52191 0
M  V30 802 H 71.273 4.17485 0.0350934 0
M  V30 803 H 72.663 5.56962 -3.75823 0
M  V30 804 N 75.3831 0.828654 1.34056 0
M  V30 805 C 76.3301 0.252567 2.29414 0
M  V30 806 C 77.3001 -0.62588 1.53857 0
M  V30 807 O 78.4851 -0.566312 1.82202 0
M  V30 808 C 75.6251 -0.574831 3.40279 0
M  V30 809 C 74.7381 0.326499 4.30764 0
M  V30 810 C 73.8731 -0.511016 5.28736 0
M  V30 811 C 72.9121 0.389342 6.1086 0
M  V30 812 N 72.0491 -0.409439 7.00905 0
M  V30 813 H 76.8891 1.07108 2.78086 0
M  V30 814 H 74.4261 0.539677 1.36843 0
M  V30 815 H 76.3841 -1.06992 4.03248 0
M  V30 816 H 75.0141 -1.35841 2.92826 0
M  V30 817 H 74.0661 0.939837 3.68607 0
M  V30 818 H 75.3781 1.01857 4.88289 0
M  V30 819 H 74.5321 -1.07035 5.97184 0
M  V30 820 H 73.2711 -1.23657 4.71763 0
M  V30 821 H 72.2761 0.960769 5.4134 0
M  V30 822 H 73.5011 1.1131 6.69916 0
M  V30 823 H 71.4471 -1.11856 6.46393 0
M  V30 824 H 71.3641 0.224126 7.55668 0
M  V30 825 H 72.6321 -0.951336 7.73673 0
M  V30 826 N 76.8612 -1.46375 0.584142 0
M  V30 827 C 77.8082 -2.30323 -0.148286 0
M  V30 828 C 78.7782 -1.40703 -0.882713 0
M  V30 829 O 79.9632 -1.69651 -0.873099 0
M  V30 830 C 77.1032 -3.25196 -1.15507 0
M  V30 831 C 76.2162 -4.29915 -0.423943 0
M  V30 832 C 75.3512 -5.11914 -1.41838 0
M  V30 833 C 74.3902 -6.08381 -0.673736 0
M  V30 834 N 73.5272 -6.83242 -1.6163 0
M  V30 835 H 78.3672 -2.92427 0.573644 0
M  V30 836 H 75.9042 -1.44118 0.294703 0
M  V30 837 H 77.8622 -3.78646 -1.75166 0
M  V30 838 H 76.4922 -2.64898 -1.8447 0
M  V30 839 H 75.5442 -3.7931 0.287714 0
M  V30 840 H 76.8562 -4.98549 0.158128 0
M  V30 841 H 76.0102 -5.69648 -2.08773 0
M  V30 842 H 74.7492 -4.43243 -2.03438 0
M  V30 843 H 73.7542 -5.49799 0.00938483 0
M  V30 844 H 74.9792 -6.79071 -0.0631082 0
M  V30 845 H 72.9252 -6.1728 -2.22038 0
M  V30 846 H 72.8422 -7.48144 -1.08707 0
M  V30 847 H 74.1102 -7.45534 -2.27596 0
M  V30 848 N 78.3393 -0.321999 -1.54275 0
M  V30 849 C 79.2863 0.544664 -2.24281 0
M  V30 850 C 80.2563 1.1129 -1.23303 0
M  V30 851 O 81.4413 1.15354 -1.51981 0
M  V30 852 C 78.5813 1.70045 -3.00298 0
M  V30 853 C 77.6943 1.16159 -4.1609 0
M  V30 854 C 76.8293 2.28293 -4.79641 0
M  V30 855 C 75.8683 1.71648 -5.8754 0
M  V30 856 N 75.0053 2.77438 -6.44959 0
M  V30 857 H 79.8453 -0.0588907 -2.97942 0
M  V30 858 H 77.3823 -0.0408345 -1.47043 0
M  V30 859 H 79.3403 2.38054 -3.42616 0
M  V30 860 H 77.9703 2.27531 -2.28975 0
M  V30 861 H 77.0223 0.373092 -3.78566 0
M  V30 862 H 78.3343 0.707087 -4.93763 0
M  V30 863 H 77.4883 3.0421 -5.2492 0
M  V30 864 H 76.2273 2.77079 -4.01346 0
M  V30 865 H 75.2323 0.942282 -5.41665 0
M  V30 866 H 76.4573 1.23741 -6.67731 0
M  V30 867 H 74.4033 3.25519 -5.69538 0
M  V30 868 H 74.3203 2.36547 -7.1804 0
M  V30 869 H 75.5883 3.53189 -6.94894 0
M  V30 870 N 79.8174 1.5752 -0.0501392 0
M  V30 871 C 80.7654 2.12651 0.942459 0
M  V30 872 C 81.7594 1.05807 1.32292 0
M  V30 873 O 82.9654 1.24217 1.3027 0
M  V30 874 H 79.3404 0.679673 0.321789 0
M  V30 875 H 81.3114 2.94951 0.452356 0
M  V30 876 C 80.0604 2.68565 2.20836 0
M  V30 877 H 79.3834 3.50439 1.92439 0
M  V30 878 H 80.8234 3.10761 2.8845 0
M  V30 879 C 79.2824 1.62291 2.95234 0
M  V30 880 O 79.8124 1.03508 3.88135 0
M  V30 881 N 78.0184 1.33836 2.57946 0
M  V30 882 H 77.5654 1.81826 1.82475 0
M  V30 883 H 77.5234 0.629595 3.08032 0
M  V30 884 N 81.2955 -0.223234 1.56011 0
M  V30 885 C 82.5205 -0.968978 1.83373 0
M  V30 886 C 82.9455 -1.77227 0.630254 0
M  V30 887 O 82.3035 -1.76345 -0.420959 0
M  V30 888 C 82.3515 -1.86363 3.08709 0
M  V30 889 O 81.4555 -2.95873 2.87285 0
M  V30 890 H 80.7965 -0.274461 0.604622 0
M  V30 891 H 83.3265 -0.237056 2.03222 0
M  V30 892 H 83.3365 -2.27376 3.38768 0
M  V30 893 H 82.0115 -1.27319 3.95933 0
M  V30 894 H 80.5885 -2.58818 2.68454 0
M  V30 895 N 82.7736 -1.49793 -0.48987 0
M  V30 896 C 83.7036 -1.70201 -1.59856 0
M  V30 897 C 84.6846 -0.55076 -1.60937 0
M  V30 898 O 85.8696 -0.787841 -1.77501 0
M  V30 899 C 82.9996 -1.77882 -2.98287 0
M  V30 900 C 81.9536 -2.92907 -3.12073 0
M  V30 901 C 81.2796 -2.85712 -4.51965 0
M  V30 902 C 82.5796 -4.3369 -2.91051 0
M  V30 903 H 84.2736 -2.63025 -1.43032 0
M  V30 904 H 81.8196 -1.26574 -0.686664 0
M  V30 905 H 83.7726 -1.90744 -3.75759 0
M  V30 906 H 82.4966 -0.816653 -3.16225 0
M  V30 907 H 81.1556 -2.79665 -2.37029 0
M  V30 908 H 80.8036 -1.8738 -4.66795 0
M  V30 909 H 80.5036 -3.62921 -4.62128 0
M  V30 910 H 82.0276 -3.00598 -5.31482 0
M  V30 911 H 83.4416 -4.47555 -3.58284 0
M  V30 912 H 81.8386 -5.12205 -3.12675 0
M  V30 913 H 82.9086 -4.47362 -1.87071 0
M  V30 914 N 84.2517 0.741722 -1.39055 0
M  V30 915 C 85.4817 1.52876 -1.3897 0
M  V30 916 C 85.8897 1.8919 0.0193266 0
M  V30 917 O 85.2327 1.54138 0.999356 0
M  V30 918 C 85.2947 2.84929 -2.19216 0
M  V30 919 C 84.9587 2.71086 -3.67915 0
M  V30 920 C 85.9557 2.40084 -4.61146 0
M  V30 921 C 83.6407 2.88168 -4.11418 0
M  V30 922 C 85.6347 2.26335 -5.95862 0
M  V30 923 C 83.3217 2.74037 -5.46211 0
M  V30 924 C 84.3197 2.43166 -6.38247 0
M  V30 925 O 84.0077 2.29115 -7.70559 0
M  V30 926 H 83.7397 0.479252 -0.476753 0
M  V30 927 H 86.2937 0.924751 -1.83405 0
M  V30 928 H 84.5237 3.47564 -1.69518 0
M  V30 929 H 86.2127 3.46509 -2.11392 0
M  V30 930 H 86.9787 2.26545 -4.28838 0
M  V30 931 H 82.8577 3.11191 -3.40119 0
M  V30 932 H 86.4017 2.0216 -6.67665 0
M  V30 933 H 82.2987 2.87153 -5.78112 0
M  V30 934 H 83.0667 2.44237 -7.81211 0
M  V30 935 N 85.7298 1.2412 0.971189 0
M  V30 936 C 86.9758 1.08041 1.71625 0
M  V30 937 C 87.3088 -0.380407 1.90438 0
M  V30 938 O 86.5838 -1.28127 1.46334 0
M  V30 939 C 86.8668 1.81682 3.10908 0
M  V30 940 C 86.7198 3.35493 2.99608 0
M  V30 941 C 88.0388 1.58671 4.10501 0
M  V30 942 H 85.1578 0.39388 0.622919 0
M  V30 943 H 87.7998 1.52743 1.13003 0
M  V30 944 H 85.9498 1.43684 3.60953 0
M  V30 945 H 87.6218 3.83068 2.57015 0
M  V30 946 H 85.8648 3.64052 2.35899 0
M  V30 947 H 86.5358 3.82217 3.98264 0
M  V30 948 H 89.0118 1.91719 3.69301 0
M  V30 949 H 87.8878 2.1266 5.06031 0
M  V30 950 H 88.1488 0.524161 4.38982 0
M  V30 951 N 87.2079 -1.17134 1.05439 0
M  V30 952 C 88.4379 -1.91094 0.785274 0
M  V30 953 C 88.8459 -1.77198 -0.663142 0
M  V30 954 O 88.1889 -1.10835 -1.46497 0
M  V30 955 C 88.2509 -3.42594 1.08949 0
M  V30 956 C 87.9149 -3.80274 2.53458 0
M  V30 957 C 88.9119 -3.82912 3.51673 0
M  V30 958 C 86.5969 -4.11162 2.88532 0
M  V30 959 C 88.5909 -4.15913 4.83006 0
M  V30 960 C 86.2779 -4.43831 4.20068 0
M  V30 961 C 87.2759 -4.46185 5.17115 0
M  V30 962 O 86.9639 -4.78083 6.46291 0
M  V30 963 H 86.6959 -0.613073 0.284811 0
M  V30 964 H 89.2499 -1.49461 1.40893 0
M  V30 965 H 87.4799 -3.84534 0.408741 0
M  V30 966 H 89.1689 -3.97817 0.805991 0
M  V30 967 H 89.9349 -3.5917 3.25917 0
M  V30 968 H 85.8139 -4.085 2.13656 0
M  V30 969 H 89.3579 -4.17665 5.5875 0
M  V30 970 H 85.2549 -4.67037 4.45586 0
M  V30 971 H 86.0229 -4.9593 6.51149 0
M  V30 972 N 88.686 -0.835752 -1.33615 0
M  V30 973 C 89.633 -0.26473 -2.29277 0
M  V30 974 C 90.603 0.617712 -1.54187 0
M  V30 975 O 91.788 0.556641 -1.825 0
M  V30 976 C 88.928 0.556777 -3.40579 0
M  V30 977 C 88.041 -0.349339 -4.30585 0
M  V30 978 C 87.176 0.482969 -5.29 0
M  V30 979 C 86.215 -0.421732 -6.10645 0
M  V30 980 N 85.352 0.372262 -7.01112 0
M  V30 981 H 90.192 -1.08582 -2.77514 0
M  V30 982 H 87.729 -0.546927 -1.36554 0
M  V30 983 H 89.687 1.04852 -4.03809 0
M  V30 984 H 88.317 1.34286 -2.93542 0
M  V30 985 H 87.369 -0.959372 -3.68104 0
M  V30 986 H 88.681 -1.04445 -4.87742 0
M  V30 987 H 87.835 1.03866 -5.97743 0
M  V30 988 H 86.574 1.21153 -4.72412 0
M  V30 989 H 85.579 -0.989464 -5.40823 0
M  V30 990 H 86.804 -1.14861 -6.69316 0
M  V30 991 H 84.75 1.08426 -6.46977 0
M  V30 992 H 84.667 -0.264198 -7.55538 0
M  V30 993 H 85.935 0.910293 -7.74167 0
M  V30 994 N 90.1641 1.46063 -0.591896 0
M  V30 995 C 91.1141 2.27458 0.157172 0
M  V30 996 C 92.0981 1.3641 0.853301 0
M  V30 997 O 93.2901 1.60517 0.74588 0
M  V30 998 C 90.4191 3.22956 1.16423 0
M  V30 999 C 89.5051 4.2149 0.469742 0
M  V30 1000 N 89.8961 5.03519 -0.479839 0
M  V30 1001 C 88.1941 4.40161 0.719319 0
M  V30 1002 C 88.8951 5.74904 -0.886591 0
M  V30 1003 N 87.8711 5.43097 -0.233731 0
M  V30 1004 H 91.6731 2.88272 -0.572392 0
M  V30 1005 H 89.1871 1.57024 -0.414375 0
M  V30 1006 H 91.1841 3.79986 1.71513 0
M  V30 1007 H 89.8441 2.63701 1.89451 0
M  V30 1008 H 90.8551 5.1078 -0.855823 0
M  V30 1009 H 87.5321 3.92046 1.43548 0
M  V30 1010 H 88.9221 6.50844 -1.66888 0
M  V30 1011 N 91.6422 0.330177 1.54103 0
M  V30 1012 C 92.8912 -0.271336 1.99867 0
M  V30 1013 C 93.2042 -1.52723 1.22209 0
M  V30 1014 O 94.4102 -2.20515 1.58383 0
M  V30 1015 C 92.8662 -0.534032 3.55916 0
M  V30 1016 C 92.4742 0.705193 4.42415 0
M  V30 1017 C 94.2182 -1.09514 4.1013 0
M  V30 1018 C 92.1252 0.414035 5.89949 0
M  V30 1019 H 91.0552 -0.105166 0.74663 0
M  V30 1020 H 93.7062 0.443429 1.78062 0
M  V30 1021 H 92.0882 -1.30915 3.73734 0
M  V30 1022 H 93.2622 1.4804 4.36372 0
M  V30 1023 H 91.5772 1.18698 3.99124 0
M  V30 1024 H 94.1742 -1.3277 5.17954 0
M  V30 1025 H 94.5172 -2.04656 3.62521 0
M  V30 1026 H 95.0502 -0.381038 3.95971 0
M  V30 1027 H 91.7892 1.33481 6.41766 0
M  V30 1028 H 91.3092 -0.323336 5.98928 0
M  V30 1029 H 92.9882 0.0263105 6.46995 0
M  V30 1030 N 93.1203 -1.57491 0.0584922 0
M  V30 1031 C 94.0533 -2.07533 -0.948969 0
M  V30 1032 C 95.0313 -0.977444 -1.29942 0
M  V30 1033 O 96.2153 -1.2499 -1.41102 0
M  V30 1034 C 93.3423 -2.52192 -2.2609 0
M  V30 1035 C 92.3883 -3.73287 -2.06298 0
M  V30 1036 S 93.2213 -5.18603 -1.33459 0
M  V30 1037 C 94.3773 -5.66583 -2.65959 0
M  V30 1038 H 94.6103 -2.92662 -0.523118 0
M  V30 1039 H 92.1433 -1.53631 -0.153954 0
M  V30 1040 H 94.1013 -2.78585 -3.01498 0
M  V30 1041 H 92.7623 -1.67356 -2.65802 0
M  V30 1042 H 91.9553 -4.0248 -3.03357 0
M  V30 1043 H 91.5573 -3.47199 -1.39029 0
M  V30 1044 H 93.8493 -5.72616 -3.62101 0
M  V30 1045 H 94.7923 -6.65684 -2.41393 0
M  V30 1046 H 95.2003 -4.94342 -2.72554 0
M  V30 1047 N 94.5984 0.214957 -1.56127 0
M  V30 1048 C 95.5454 1.26642 -1.92952 0
M  V30 1049 C 96.5154 1.46244 -0.78753 0
M  V30 1050 O 97.7004 1.59704 -1.04399 0
M  V30 1051 C 94.8404 2.6104 -2.25726 0
M  V30 1052 C 93.9534 2.49183 -3.52891 0
M  V30 1053 C 93.0884 3.76149 -3.7508 0
M  V30 1054 C 92.1274 3.59041 -4.95738 0
M  V30 1055 N 91.2644 4.77972 -5.14283 0
M  V30 1056 H 96.1044 0.945384 -2.82607 0
M  V30 1057 H 93.6414 0.455489 -1.3987 0
M  V30 1058 H 95.5994 3.39313 -2.42739 0
M  V30 1059 H 94.2294 2.91227 -1.39236 0
M  V30 1060 H 93.2814 1.6231 -3.44034 0
M  V30 1061 H 94.5934 2.32466 -4.41318 0
M  V30 1062 H 93.7474 4.62865 -3.92226 0
M  V30 1063 H 92.4864 3.95799 -2.84947 0
M  V30 1064 H 91.4914 2.7071 -4.78535 0
M  V30 1065 H 92.7164 3.40856 -5.87362 0
M  V30 1066 H 90.6624 4.97923 -4.27093 0
M  V30 1067 H 90.5794 4.64006 -5.96853 0
M  V30 1068 H 91.8474 5.66096 -5.35869 0
M  V30 1069 N 96.0765 1.50051 0.48192 0
M  V30 1070 C 97.3235 1.60498 1.23477 0
M  V30 1071 C 97.6515 0.300331 1.92167 0
M  V30 1072 O 96.9065 -0.713094 1.82246 0
M  V30 1073 C 97.2055 2.72717 2.30998 0
M  V30 1074 C 96.8715 4.13572 1.79636 0
M  V30 1075 C 95.5335 4.519 1.65348 0
M  V30 1076 C 97.8855 5.01649 1.41412 0
M  V30 1077 C 95.2135 5.76057 1.11244 0
M  V30 1078 C 97.5655 6.26343 0.887538 0
M  V30 1079 C 96.2295 6.63483 0.731207 0
M  V30 1080 H 95.4995 0.587303 0.451836 0
M  V30 1081 H 98.1465 1.83948 0.532468 0
M  V30 1082 H 96.4515 2.43312 3.07094 0
M  V30 1083 H 98.1485 2.78006 2.88988 0
M  V30 1084 H 94.7385 3.83329 1.91721 0
M  V30 1085 H 98.9225 4.72679 1.51289 0
M  V30 1086 H 94.1785 6.03516 0.978686 0
M  V30 1087 H 98.3525 6.93958 0.582654 0
M  V30 1088 H 95.9795 7.59568 0.309806 0
M  V30 1089 N 97.5546 -0.734337 1.39446 0
M  V30 1090 C 98.8016 -1.49391 1.36706 0
M  V30 1091 C 99.1296 -1.94465 -0.0367813 0
M  V30 1092 O 98.3846 -1.67154 -1.01774 0
M  V30 1093 C 98.6836 -2.74711 2.28623 0
M  V30 1094 C 98.3496 -2.48501 3.76242 0
M  V30 1095 C 97.0116 -2.41062 4.16464 0
M  V30 1096 C 99.3636 -2.26098 4.69606 0
M  V30 1097 C 96.6916 -2.09262 5.48112 0
M  V30 1098 C 99.0436 -1.95814 6.01531 0
M  V30 1099 C 97.7076 -1.86845 6.40816 0
M  V30 1100 H 96.9776 -0.546661 0.500243 0
M  V30 1101 H 99.6246 -0.842788 1.71957 0
M  V30 1102 H 97.9296 -3.44569 1.86492 0
M  V30 1103 H 99.6266 -3.32741 2.23796 0
M  V30 1104 H 96.2166 -2.55169 3.44364 0
M  V30 1105 H 100.401 -2.30812 4.39363 0
M  V30 1106 H 95.6566 -2.00841 5.77471 0
M  V30 1107 H 99.8306 -1.77488 6.73403 0
M  V30 1108 H 97.4576 -1.6197 7.42745 0
M  V30 1109 N 99.0327 -1.24633 -0.964593 0
M  V30 1110 C 100.282 -1.08188 -1.7023 0
M  V30 1111 C 100.595 0.37873 -1.91898 0
M  V30 1112 O 101.801 0.663427 -2.6327 0
M  V30 1113 C 100.257 -1.88773 -3.06419 0
M  V30 1114 C 99.8647 -3.39263 -2.92582 0
M  V30 1115 C 101.609 -1.80867 -3.84041 0
M  V30 1116 C 99.5157 -4.1218 -4.24101 0
M  V30 1117 H 98.4457 -0.401245 -0.638372 0
M  V30 1118 H 101.097 -1.48742 -1.07462 0
M  V30 1119 H 99.4787 -1.41035 -3.70034 0
M  V30 1120 H 100.653 -3.94603 -2.37961 0
M  V30 1121 H 98.9677 -3.48154 -2.28424 0
M  V30 1122 H 101.565 -2.32646 -4.81435 0
M  V30 1123 H 101.908 -0.774543 -4.09031 0
M  V30 1124 H 102.441 -2.26301 -3.27159 0
M  V30 1125 H 99.1797 -5.15965 -4.04303 0
M  V30 1126 H 98.6997 -3.61626 -4.78526 0
M  V30 1127 H 100.379 -4.19349 -4.92702 0
M  V30 1128 N 100.511 1.16574 -1.06058 0
M  V30 1129 C 101.788 1.83048 -0.689416 0
M  V30 1130 C 102.168 1.94122 0.829443 0
M  V30 1131 O 101.516 1.48249 1.7388 0
M  V30 1132 C 101.726 3.20186 -1.38859 0
M  V30 1133 C 103.074 3.95989 -1.53226 0
M  V30 1134 O 104.098 3.29696 -1.3483 0
M  V30 1135 O 102.957 5.14813 -1.83384 0
M  V30 1136 H 100.051 0.790258 -0.243764 0
M  V30 1137 H 102.597 1.23797 -1.16071 0
M  V30 1138 H 101.369 3.07146 -2.4244 0
M  V30 1139 H 100.992 3.87112 -0.907216 0
M  V30 1140 N 101.989 0.842826 1.3317 0
M  V30 1141 C 102.936 0.276885 2.29133 0
M  V30 1142 C 103.906 -0.609527 1.54512 0
M  V30 1143 O 105.091 -0.546955 1.82792 0
M  V30 1144 C 102.231 -0.538707 3.40869 0
M  V30 1145 C 101.344 0.372169 4.30394 0
M  V30 1146 C 100.479 -0.454908 5.29249 0
M  V30 1147 C 99.5179 0.45411 6.10413 0
M  V30 1148 N 98.6549 -0.335075 7.013 0
M  V30 1149 H 103.495 1.10052 2.76934 0
M  V30 1150 H 101.032 0.554161 1.36262 0
M  V30 1151 H 102.99 -1.02709 4.0436 0
M  V30 1152 H 101.62 -1.32727 2.9425 0
M  V30 1153 H 100.672 0.97888 3.6759 0
M  V30 1154 H 101.984 1.0703 4.87182 0
M  V30 1155 H 101.138 -1.00695 5.98285 0
M  V30 1156 H 99.8769 -1.18646 4.73048 0
M  V30 1157 H 98.8819 1.01813 5.40291 0
M  V30 1158 H 100.107 1.18409 6.68697 0
M  V30 1159 H 98.0529 -1.04994 6.47543 0
M  V30 1160 H 97.9699 0.304262 7.55387 0
M  V30 1161 H 99.2379 -0.869224 7.74638 0
M  V30 1162 N 103.467 -1.45747 0.599634 0
M  V30 1163 C 104.697 -2.06369 0.0977132 0
M  V30 1164 C 105.105 -1.44624 -1.21985 0
M  V30 1165 O 104.448 -0.551831 -1.75216 0
M  V30 1166 C 104.51 -3.59284 -0.124673 0
M  V30 1167 C 104.174 -4.43318 1.10987 0
M  V30 1168 C 105.171 -4.78796 2.02609 0
M  V30 1169 C 102.856 -4.84194 1.33647 0
M  V30 1170 C 104.85 -5.53997 3.15224 0
M  V30 1171 C 102.537 -5.5915 2.46565 0
M  V30 1172 C 103.535 -5.93968 3.37182 0
M  V30 1173 O 103.223 -6.67405 4.48136 0
M  V30 1174 H 102.955 -0.673122 0.0623153 0
M  V30 1175 H 105.509 -1.88104 0.824981 0
M  V30 1176 H 103.739 -3.75919 -0.906745 0
M  V30 1177 H 105.428 -4.01775 -0.577201 0
M  V30 1178 H 106.194 -4.47781 1.86325 0
M  V30 1179 H 102.073 -4.56534 0.64016 0
M  V30 1180 H 105.617 -5.81091 3.85978 0
M  V30 1181 H 101.514 -5.89579 2.62805 0
M  V30 1182 H 102.282 -6.85847 4.46717 0
M  V30 1183 N 104.945 -0.338344 -1.53925 0
M  V30 1184 C 105.892 0.520845 -2.24846 0
M  V30 1185 C 106.862 1.09976 -1.24477 0
M  V30 1186 O 108.047 1.13735 -1.53196 0
M  V30 1187 C 105.187 1.6685 -3.02084 0
M  V30 1188 C 104.3 1.11739 -4.17299 0
M  V30 1189 C 103.435 2.23193 -4.82036 0
M  V30 1190 C 102.474 1.65407 -5.89328 0
M  V30 1191 N 101.611 2.70582 -6.47866 0
M  V30 1192 H 106.451 -0.0904881 -2.97863 0
M  V30 1193 H 103.988 -0.0564282 -1.46992 0
M  V30 1194 H 105.946 2.34407 -3.45122 0
M  V30 1195 H 104.576 2.2509 -2.31375 0
M  V30 1196 H 103.628 0.332919 -3.7894 0
M  V30 1197 H 104.94 0.654677 -4.94485 0
M  V30 1198 H 104.094 2.98626 -5.28117 0
M  V30 1199 H 102.833 2.72807 -4.04262 0
M  V30 1200 H 101.838 0.884779 -5.42634 0
M  V30 1201 H 103.063 1.16652 -6.69006 0
M  V30 1202 H 101.009 3.1946 -5.72959 0
M  V30 1203 H 100.926 2.28917 -7.20509 0
M  V30 1204 H 102.194 3.45799 -6.98601 0
M  V30 1205 N 106.423 1.57458 -0.0668435 0
M  V30 1206 C 107.648 1.9804 0.616027 0
M  V30 1207 C 108.073 0.944771 1.62652 0
M  V30 1208 O 107.431 -0.0902094 1.81075 0
M  V30 1209 C 107.479 3.37665 1.26549 0
M  V30 1210 O 106.583 3.36701 2.38131 0
M  V30 1211 H 105.924 0.644719 0.158849 0
M  V30 1212 H 108.454 2.04121 -0.139891 0
M  V30 1213 H 108.464 3.7474 1.6135 0
M  V30 1214 H 107.139 4.12573 0.525016 0
M  V30 1215 H 105.716 3.1139 2.0516 0
M  V30 1216 N 107.901 -0.206675 1.56239 0
M  V30 1217 C 109.15 -0.926964 1.79138 0
M  V30 1218 C 109.463 -1.84901 0.638043 0
M  V30 1219 O 110.669 -2.60906 0.751033 0
M  V30 1220 C 109.125 -1.6986 3.17294 0
M  V30 1221 C 108.733 -0.821956 4.40395 0
M  V30 1222 C 110.477 -2.40922 3.4951 0
M  V30 1223 C 108.384 -1.59179 5.69575 0
M  V30 1224 H 107.314 -0.349864 0.667915 0
M  V30 1225 H 109.965 -0.180487 1.8261 0
M  V30 1226 H 108.347 -2.48853 3.08039 0
M  V30 1227 H 109.521 -0.0715019 4.60745 0
M  V30 1228 H 107.836 -0.222741 4.15804 0
M  V30 1229 H 110.433 -2.99047 4.43255 0
M  V30 1230 H 110.776 -3.14542 2.72707 0
M  V30 1231 H 111.309 -1.68905 3.60161 0
M  V30 1232 H 108.048 -0.898589 6.49312 0
M  V30 1233 H 107.568 -2.31648 5.53262 0
M  V30 1234 H 109.247 -2.14862 6.10281 0
M  V30 1235 N 109.379 -1.50304 -0.473955 0
M  V30 1236 C 110.79 -1.54042 -1.0549 0
M  V30 1237 C 111.141 -0.342248 -1.93192 0
M  V30 1238 O 110.266 0.545157 -2.09421 0
M  V30 1239 C 110.861 -2.79152 -1.91989 0
M  V30 1240 C 109.42 -2.8558 -2.45196 0
M  V30 1241 C 108.567 -2.48295 -1.2347 0
M  V30 1242 H 111.518 -1.5661 -0.256693 0
M  V30 1243 H 111.539 -2.60845 -2.7702 0
M  V30 1244 H 111.051 -3.66339 -1.28131 0
M  V30 1245 H 109.152 -2.02738 -3.12615 0
M  V30 1246 H 109.265 -3.88403 -2.80499 0
M  V30 1247 H 107.629 -2.00669 -1.56856 0
M  V30 1248 H 108.412 -3.37787 -0.612789 0
M  V30 1249 N 110.857 0.726932 -1.39834 0
M  V30 1250 C 111.805 1.86235 -1.39353 0
M  V30 1251 C 112.799 1.67144 -0.275555 0
M  V30 1252 O 114.005 1.74387 -0.44601 0
M  V30 1253 H 110.38 0.613174 -0.43534 0
M  V30 1254 H 112.351 1.83756 -2.35109 0
M  V30 1255 C 111.1 3.23995 -1.26185 0
M  V30 1256 H 110.423 3.39285 -2.11484 0
M  V30 1257 H 111.863 4.03609 -1.29907 0
M  V30 1258 C 110.322 3.36888 0.0290018 0
M  V30 1259 O 110.852 3.89152 0.99619 0
M  V30 1260 N 109.058 2.90446 0.0947437 0
M  V30 1261 H 108.605 2.48102 -0.693035 0
M  V30 1262 H 108.563 2.99451 0.957932 0
M  V30 1263 N 112.336 1.25143 0.95797 0
M  V30 1264 C 113.246 1.06968 2.08794 0
M  V30 1265 C 114.262 0.00773911 1.73998 0
M  V30 1266 O 115.438 0.207972 2.00323 0
M  V30 1267 C 112.503 0.68691 3.39827 0
M  V30 1268 C 111.564 1.82641 3.88511 0
M  V30 1269 C 110.797 1.46181 5.1329 0
M  V30 1270 O 111.02 0.355971 5.69288 0
M  V30 1271 O 109.954 2.29085 5.566 0
M  V30 1272 H 113.78 2.01723 2.27027 0
M  V30 1273 H 111.365 1.04051 1.07209 0
M  V30 1274 H 113.247 0.485417 4.18595 0
M  V30 1275 H 111.922 -0.231417 3.22872 0
M  V30 1276 H 110.829 2.08274 3.10762 0
M  V30 1277 H 112.162 2.72386 4.09959 0
M  V30 1278 N 113.814 -1.1601 1.06675 0
M  V30 1279 C 115.063 -1.85973 0.780818 0
M  V30 1280 C 115.376 -1.82819 -0.695444 0
M  V30 1281 O 116.582 -2.484 -1.09589 0
M  V30 1282 C 115.038 -3.33757 1.34665 0
M  V30 1283 C 114.646 -3.45374 2.85343 0
M  V30 1284 C 116.39 -4.0895 1.13843 0
M  V30 1285 C 114.297 -4.87266 3.35151 0
M  V30 1286 H 113.227 -0.696661 0.288407 0
M  V30 1287 H 115.878 -1.30903 1.28595 0
M  V30 1288 H 114.26 -3.88456 0.769274 0
M  V30 1289 H 115.434 -3.00816 3.49065 0
M  V30 1290 H 113.749 -2.83619 3.04876 0
M  V30 1291 H 116.346 -5.13654 1.4854 0
M  V30 1292 H 116.689 -4.16229 0.0770282 0
M  V30 1293 H 117.222 -3.605 1.68179 0
M  V30 1294 H 113.961 -4.85168 4.40786 0
M  V30 1295 H 113.481 -5.32433 2.76179 0
M  V30 1296 H 115.16 -5.56097 3.30704 0
M  V30 1297 N 115.292 -0.849877 -1.32721 0
M  V30 1298 C 116.255 -0.296122 -2.27279 0
M  V30 1299 C 117.255 0.541458 -1.5141 0
M  V30 1300 O 118.445 0.353658 -1.70572 0
M  V30 1301 C 115.577 0.581579 -3.35902 0
M  V30 1302 H 116.77 -1.13064 -2.77771 0
M  V30 1303 H 114.323 -0.62383 -1.43311 0
M  V30 1304 H 115.058 1.43809 -2.9067 0
M  V30 1305 H 114.843 -0.0178814 -3.92096 0
M  V30 1306 H 116.333 0.961951 -4.0637 0
M  V30 1307 N 116.77 1.45427 -0.607355 0
M  V30 1308 C 117.7 2.3329 0.0989352 0
M  V30 1309 C 118.681 1.46816 0.859007 0
M  V30 1310 O 119.866 1.75588 0.829604 0
M  V30 1311 C 116.996 3.29518 1.09705 0
M  V30 1312 C 115.95 4.25626 0.450206 0
M  V30 1313 C 115.276 5.11542 1.55655 0
M  V30 1314 C 116.576 5.18505 -0.628455 0
M  V30 1315 H 118.27 2.92595 -0.634716 0
M  V30 1316 H 115.816 1.40696 -0.306681 0
M  V30 1317 H 117.769 3.89855 1.59971 0
M  V30 1318 H 116.493 2.68372 1.86129 0
M  V30 1319 H 115.152 3.66586 -0.0315886 0
M  V30 1320 H 114.8 4.46765 2.31107 0
M  V30 1321 H 114.5 5.76647 1.12925 0
M  V30 1322 H 116.024 5.74748 2.06148 0
M  V30 1323 H 117.438 5.72916 -0.209877 0
M  V30 1324 H 115.835 5.92085 -0.977489 0
M  V30 1325 H 116.905 4.60948 -1.50514 0
M  V30 1326 N 118.248 0.346503 1.53744 0
M  V30 1327 C 119.494 -0.249473 2.0126 0
M  V30 1328 C 119.827 -1.49965 1.23386 0
M  V30 1329 O 119.102 -1.91811 0.32229 0
M  V30 1330 C 119.385 -0.560643 3.55709 0
M  V30 1331 C 119.238 0.701836 4.44291 0
M  V30 1332 C 120.557 -1.36905 4.18264 0
M  V30 1333 H 117.676 -0.0891987 0.731582 0
M  V30 1334 H 120.318 0.467624 1.84156 0
M  V30 1335 H 118.468 -1.17156 3.70414 0
M  V30 1336 H 120.14 1.33974 4.41417 0
M  V30 1337 H 118.383 1.32612 4.13033 0
M  V30 1338 H 119.054 0.43933 5.50249 0
M  V30 1339 H 121.53 -0.852448 4.07275 0
M  V30 1340 H 120.406 -1.55553 5.26398 0
M  V30 1341 H 120.667 -2.37203 3.73078 0
M  V30 1342 N 119.726 -1.57421 0.075193 0
M  V30 1343 C 120.636 -2.1642 -0.905511 0
M  V30 1344 C 121.652 -1.12828 -1.32461 0
M  V30 1345 O 122.828 -1.45109 -1.39661 0
M  V30 1346 C 119.893 -2.71693 -2.15369 0
M  V30 1347 C 118.954 -3.90171 -1.79068 0
M  V30 1348 C 118.187 -4.42798 -2.97936 0
M  V30 1349 O 118.41 -3.94416 -4.12058 0
M  V30 1350 O 117.344 -5.34085 -2.77555 0
M  V30 1351 H 121.17 -3.00588 -0.433626 0
M  V30 1352 H 118.755 -1.48664 -0.148067 0
M  V30 1353 H 120.637 -3.07104 -2.88557 0
M  V30 1354 H 119.312 -1.90582 -2.61649 0
M  V30 1355 H 118.219 -3.59606 -1.03122 0
M  V30 1356 H 119.552 -4.72584 -1.37569 0
M  V30 1357 N 121.204 0.198386 -1.56346 0
M  V30 1358 C 122.154 1.2499 -1.90687 0
M  V30 1359 C 123.138 1.41158 -0.772217 0
M  V30 1360 O 124.33 1.43584 -1.03502 0
M  V30 1361 C 121.459 2.59542 -2.24706 0
M  V30 1362 C 120.545 2.47181 -3.44619 0
M  V30 1363 N 120.936 2.04495 -4.62618 0
M  V30 1364 C 119.234 2.78082 -3.48692 0
M  V30 1365 C 119.935 2.03945 -5.44776 0
M  V30 1366 N 118.911 2.45323 -4.85095 0
M  V30 1367 H 122.713 0.911149 -2.7942 0
M  V30 1368 H 120.227 0.40684 -1.57221 0
M  V30 1369 H 122.224 3.3549 -2.47491 0
M  V30 1370 H 120.884 2.94244 -1.37298 0
M  V30 1371 H 121.895 1.75256 -4.87345 0
M  V30 1372 H 118.572 3.17002 -2.71691 0
M  V30 1373 H 119.962 1.72872 -6.4928 0
M  V30 1374 N 122.682 1.50554 0.465978 0
M  V30 1375 C 123.907 1.65838 1.24549 0
M  V30 1376 C 124.332 0.343486 1.84937 0
M  V30 1377 O 123.69 -0.69324 1.67523 0
M  V30 1378 C 123.738 2.75533 2.32624 0
M  V30 1379 O 122.842 2.37142 3.37398 0
M  V30 1380 H 122.183 0.553893 0.366194 0
M  V30 1381 H 124.713 1.96959 0.553927 0
M  V30 1382 H 124.723 2.98763 2.77857 0
M  V30 1383 H 123.398 3.70962 1.88043 0
M  V30 1384 H 121.975 2.24377 2.97841 0
M  V30 1385 N 124.16 -0.719506 1.40217 0
M  V30 1386 C 125.39 -1.50646 1.41384 0
M  V30 1387 C 125.798 -1.89197 0.0107743 0
M  V30 1388 O 125.141 -1.55709 -0.974708 0
M  V30 1389 C 125.203 -2.81405 2.23722 0
M  V30 1390 C 124.867 -2.65199 3.72181 0
M  V30 1391 C 125.864 -2.32717 4.64907 0
M  V30 1392 C 123.549 -2.81586 4.1595 0
M  V30 1393 C 125.543 -2.16827 5.99387 0
M  V30 1394 C 123.23 -2.65313 5.50502 0
M  V30 1395 C 124.228 -2.32981 6.42035 0
M  V30 1396 O 123.916 -2.16827 7.74107 0
M  V30 1397 H 123.648 -0.471606 0.484318 0
M  V30 1398 H 126.202 -0.895456 1.84853 0
M  V30 1399 H 124.432 -3.44823 1.75026 0
M  V30 1400 H 126.121 -3.43102 2.16878 0
M  V30 1401 H 126.887 -2.19694 4.32388 0
M  V30 1402 H 122.766 -3.0574 3.45027 0
M  V30 1403 H 126.31 -1.91513 6.70797 0
M  V30 1404 H 122.207 -2.7792 5.82607 0
M  V30 1405 H 122.975 -2.31778 7.84998 0
M  V30 1406 N 125.638 -1.25649 -0.95132 0
M  V30 1407 C 126.886 -1.10375 -1.69298 0
M  V30 1408 C 127.207 0.355339 -1.91735 0
M  V30 1409 O 126.477 1.25188 -1.50681 0
M  V30 1410 H 125.057 -0.405461 -0.627384 0
M  V30 1411 H 127.719 -1.57823 -1.14358 0
M  V30 1412 H 126.815 -1.61465 -2.67087 0
M  V30 1413 N 127.117 1.15442 -1.07289 0
M  V30 1414 C 128.027 2.23786 -0.704057 0
M  V30 1415 C 129.043 1.7166 0.284413 0
M  V30 1416 O 130.219 2.00972 0.131205 0
M  V30 1417 C 127.284 3.46535 -0.106792 0
M  V30 1418 C 126.345 4.13654 -1.14842 0
M  V30 1419 C 125.578 5.30544 -0.57956 0
M  V30 1420 O 125.801 5.67187 0.604585 0
M  V30 1421 O 124.735 5.87154 -1.32414 0
M  V30 1422 H 128.561 2.57664 -1.60757 0
M  V30 1423 H 126.146 1.23152 -0.845803 0
M  V30 1424 H 128.028 4.20804 0.224048 0
M  V30 1425 H 126.703 3.14407 0.770049 0
M  V30 1426 H 125.61 3.4131 -1.5316 0
M  V30 1427 H 126.943 4.49861 -1.99714 0
M  V30 1428 N 128.595 0.856903 1.32268 0
M  V30 1429 C 130.006 0.515711 1.79436 0
M  V30 1430 C 130.357 -0.966586 1.70738 0
M  V30 1431 O 129.482 -1.75409 1.26731 0
M  V30 1432 C 130.077 0.929335 3.25805 0
M  V30 1433 C 128.636 0.640006 3.70919 0
M  V30 1434 C 127.783 1.12784 2.53328 0
M  V30 1435 H 130.734 1.04389 1.19535 0
M  V30 1436 H 130.755 0.246633 3.797 0
M  V30 1437 H 130.267 2.00821 3.32103 0
M  V30 1438 H 128.368 -0.428051 3.70133 0
M  V30 1439 H 128.481 1.20788 4.63624 0
M  V30 1440 H 126.845 0.548033 2.48734 0
M  V30 1441 H 127.628 2.21387 2.62379 0
M  V30 1442 N 130.073 -1.45103 0.615059 0
M  V30 1443 C 131.005 -2.28786 -0.13762 0
M  V30 1444 C 132.018 -1.40376 -0.824525 0
M  V30 1445 O 133.207 -1.64681 -0.688662 0
M  V30 1446 C 130.307 -3.16322 -1.21628 0
M  V30 1447 C 129.48 -4.33054 -0.615039 0
M  V30 1448 C 128.539 -5.01743 -1.58556 0
M  V30 1449 O 127.565 -5.58293 -1.10895 0
M  V30 1450 N 128.767 -5.01714 -2.91998 0
M  V30 1451 H 131.532 -2.94025 0.580483 0
M  V30 1452 H 129.093 -1.55373 0.45507 0
M  V30 1453 H 131.085 -3.59139 -1.86552 0
M  V30 1454 H 129.655 -2.52943 -1.83681 0
M  V30 1455 H 128.875 -3.93627 0.21245 0
M  V30 1456 H 130.163 -5.08431 -0.193704 0
M  V30 1457 H 129.561 -4.57075 -3.33316 0
M  V30 1458 H 128.118 -5.48371 -3.52325 0
M  V30 1459 N 131.551 -0.354651 -1.53558 0
M  V30 1460 C 132.499 0.512195 -2.26891 0
M  V30 1461 C 133.493 1.09263 -1.29452 0
M  V30 1462 O 134.699 1.03709 -1.47121 0
M  V30 1463 H 131.074 0.183878 -0.729173 0
M  V30 1464 H 133.045 -0.128202 -2.98124 0
M  V30 1465 C 131.794 1.64563 -3.06291 0
M  V30 1466 H 131.117 1.20829 -3.81104 0
M  V30 1467 H 132.557 2.22711 -3.60799 0
M  V30 1468 C 131.016 2.58158 -2.16462 0
M  V30 1469 O 131.546 3.60695 -1.76811 0
M  V30 1470 N 129.752 2.27096 -1.81317 0
M  V30 1471 H 129.299 1.43751 -2.1376 0
M  V30 1472 H 129.257 2.89975 -1.21498 0
M  V30 1473 N 133.029 1.57378 -0.0835403 0
M  V30 1474 C 134.259 1.97975 0.590713 0
M  V30 1475 C 134.667 0.961083 1.62972 0
M  V30 1476 O 134.01 -0.0590879 1.83605 0
M  V30 1477 C 134.072 3.34915 1.3066 0
M  V30 1478 C 133.736 4.55069 0.419698 0
M  V30 1479 C 134.733 5.18868 -0.32749 0
M  V30 1480 C 132.418 5.0114 0.341137 0
M  V30 1481 C 134.412 6.27098 -1.14134 0
M  V30 1482 C 132.099 6.0924 -0.476374 0
M  V30 1483 C 133.097 6.72083 -1.21627 0
M  V30 1484 O 132.785 7.781 -2.02028 0
M  V30 1485 H 132.517 0.655818 0.163947 0
M  V30 1486 H 135.071 2.04807 -0.156021 0
M  V30 1487 H 133.301 3.24733 2.09966 0
M  V30 1488 H 134.99 3.60037 1.87424 0
M  V30 1489 H 135.756 4.84211 -0.276459 0
M  V30 1490 H 131.635 4.51996 0.90668 0
M  V30 1491 H 135.179 6.7608 -1.71935 0
M  V30 1492 H 131.076 6.43329 -0.528927 0
M  V30 1493 H 131.844 7.95034 -1.94586 0
M  V30 1494 N 134.507 -0.190092 1.56449 0
M  V30 1495 C 135.756 -0.907912 1.80111 0
M  V30 1496 C 136.069 -1.84214 0.657619 0
M  V30 1497 O 137.275 -2.60094 0.778663 0
M  V30 1498 C 135.731 -1.66485 3.19078 0
M  V30 1499 C 135.339 -0.7752 4.41242 0
M  V30 1500 C 137.083 -2.37201 3.52045 0
M  V30 1501 C 134.99 -1.53129 5.71231 0
M  V30 1502 H 133.92 -0.34276 0.671589 0
M  V30 1503 H 136.571 -0.161109 1.82791 0
M  V30 1504 H 134.953 -2.45572 3.10661 0
M  V30 1505 H 136.127 -0.0226298 4.60794 0
M  V30 1506 H 134.442 -0.178627 4.16017 0
M  V30 1507 H 137.039 -2.94329 4.46402 0
M  V30 1508 H 137.382 -3.11632 2.76028 0
M  V30 1509 H 137.915 -1.65075 3.61932 0
M  V30 1510 H 134.654 -0.82967 6.50228 0
M  V30 1511 H 134.174 -2.25767 5.55688 0
M  V30 1512 H 135.853 -2.08377 6.12526 0
M  V30 1513 N 135.985 -1.50799 -0.457987 0
M  V30 1514 C 137.213 -1.66218 -1.23203 0
M  V30 1515 C 137.628 -0.350894 -1.85511 0
M  V30 1516 O 136.985 0.668546 -1.69814 0
M  V30 1517 C 137.036 -2.76291 -2.33121 0
M  V30 1518 O 136.757 -4.02338 -1.73366 0
M  V30 1519 C 138.258 -3.028 -3.2377 0
M  V30 1520 H 135.478 -0.558361 -0.372121 0
M  V30 1521 H 138.022 -1.97099 -0.545179 0
M  V30 1522 H 136.177 -2.48068 -2.97558 0
M  V30 1523 H 136.591 -4.63312 -2.4585 0
M  V30 1524 H 138.065 -3.8345 -3.97077 0
M  V30 1525 H 138.542 -2.14385 -3.83322 0
M  V30 1526 H 139.148 -3.32604 -2.65056 0
M  V30 1527 N 137.463 0.71206 -1.40597 0
M  V30 1528 C 138.693 1.49894 -1.42181 0
M  V30 1529 C 139.101 1.89189 -0.0208078 0
M  V30 1530 O 138.444 1.56223 0.966436 0
M  V30 1531 C 138.506 2.80215 -2.25211 0
M  V30 1532 C 138.17 2.63221 -3.73582 0
M  V30 1533 C 139.167 2.30249 -4.66135 0
M  V30 1534 C 136.852 2.79376 -4.17438 0
M  V30 1535 C 138.846 2.13645 -6.00529 0
M  V30 1536 C 136.533 2.6239 -5.51901 0
M  V30 1537 C 137.531 2.29573 -6.43262 0
M  V30 1538 O 137.219 2.12719 -7.75246 0
M  V30 1539 H 136.951 0.469031 -0.486812 0
M  V30 1540 H 139.505 0.88564 -1.85326 0
M  V30 1541 H 137.735 3.4389 -1.76852 0
M  V30 1542 H 139.424 3.41947 -2.18694 0
M  V30 1543 H 140.19 2.17398 -4.33547 0
M  V30 1544 H 136.069 3.03906 -3.46644 0
M  V30 1545 H 139.613 1.87953 -6.71803 0
M  V30 1546 H 135.51 2.74826 -5.84073 0
M  V30 1547 H 136.278 2.27611 -7.86216 0
M  V30 1548 N 138.941 1.26152 0.944643 0
M  V30 1549 C 140.218 1.02247 1.66748 0
M  V30 1550 C 140.598 -0.448202 2.06287 0
M  V30 1551 O 139.946 -1.42779 1.78399 0
M  V30 1552 C 140.156 1.96788 2.88228 0
M  V30 1553 C 141.504 2.25201 3.59958 0
M  V30 1554 O 142.528 1.94626 2.98327 0
M  V30 1555 O 141.387 2.77242 4.70956 0
M  V30 1556 H 138.481 0.388517 0.730057 0
M  V30 1557 H 141.027 1.37348 0.99668 0
M  V30 1558 H 139.799 2.96047 2.55875 0
M  V30 1559 H 139.422 1.62145 3.63035 0
M  V30 1560 N 140.419 -1.14872 1.07899 0
M  V30 1561 C 141.367 -2.21857 0.698727 0
M  V30 1562 C 142.361 -1.66845 -0.293086 0
M  V30 1563 O 143.567 -1.79321 -0.156204 0
M  V30 1564 H 139.942 -0.722691 0.207899 0
M  V30 1565 H 141.913 -2.51205 1.61054 0
M  V30 1566 C 140.662 -3.47498 0.11858 0
M  V30 1567 H 139.985 -3.90154 0.872914 0
M  V30 1568 H 141.425 -4.23858 -0.109759 0
M  V30 1569 C 139.884 -3.16947 -1.1422 0
M  V30 1570 O 140.414 -3.3426 -2.22785 0
M  V30 1571 N 138.62 -2.70946 -1.05055 0
M  V30 1572 H 138.167 -2.57058 -0.167038 0
M  V30 1573 H 138.125 -2.50879 -1.89491 0
M  V30 1574 N 141.898 -0.863906 -1.31812 0
M  V30 1575 C 143.145 -0.471836 -1.96926 0
M  V30 1576 C 143.473 0.974578 -1.68322 0
M  V30 1577 O 142.728 1.7003 -0.968933 0
M  V30 1578 C 143.027 -0.668547 -3.51091 0
M  V30 1579 C 142.693 -2.08683 -3.99703 0
M  V30 1580 C 141.355 -2.47471 -4.12688 0
M  V30 1581 C 143.707 -3.01207 -4.25351 0
M  V30 1582 C 141.035 -3.78037 -4.4867 0
M  V30 1583 C 143.387 -4.31282 -4.62794 0
M  V30 1584 C 142.051 -4.69992 -4.73987 0
M  V30 1585 H 141.321 -0.172657 -0.720604 0
M  V30 1586 H 143.968 -1.09573 -1.57054 0
M  V30 1587 H 142.273 0.0385252 -3.91781 0
M  V30 1588 H 143.97 -0.345102 -3.99512 0
M  V30 1589 H 140.56 -1.77566 -3.90087 0
M  V30 1590 H 144.744 -2.72469 -4.14819 0
M  V30 1591 H 140 -4.078 -4.55532 0
M  V30 1592 H 144.174 -5.03031 -4.81594 0
M  V30 1593 H 141.801 -5.71207 -5.01624 0
M  V30 1594 N 143.376 1.44774 -0.622745 0
M  V30 1595 C 144.623 2.02121 -0.1239 0
M  V30 1596 C 144.951 1.48915 1.25118 0
M  V30 1597 O 144.206 0.660045 1.84233 0
M  V30 1598 C 144.505 3.57364 -0.0508323 0
M  V30 1599 C 144.171 4.29787 -1.36358 0
M  V30 1600 C 142.833 4.4929 -1.72314 0
M  V30 1601 C 145.185 4.71062 -2.23048 0
M  V30 1602 C 142.513 5.07325 -2.94682 0
M  V30 1603 C 144.865 5.30452 -3.44679 0
M  V30 1604 C 143.529 5.48175 -3.80868 0
M  V30 1605 H 142.799 0.739612 -0.0453381 0
M  V30 1606 H 145.446 1.73648 -0.807389 0
M  V30 1607 H 143.751 3.85202 0.715991 0
M  V30 1608 H 145.448 3.99456 0.351533 0
M  V30 1609 H 142.038 4.14932 -1.07375 0
M  V30 1610 H 146.222 4.55715 -1.96565 0
M  V30 1611 H 141.478 5.19235 -3.22809 0
M  V30 1612 H 145.652 5.61385 -4.12092 0
M  V30 1613 H 143.279 5.92912 -4.75773 0
M  V30 1614 N 144.854 0.36279 1.53368 0
M  V30 1615 C 146.27 0.0116182 1.59596 0
M  V30 1616 C 146.47 -1.47012 1.37803 0
M  V30 1617 O 145.526 -2.23136 1.18181 0
M  V30 1618 C 146.839 0.465052 2.97082 0
M  V30 1619 C 148.387 0.419033 3.10182 0
M  V30 1620 C 148.862 0.848235 4.50077 0
M  V30 1621 N 150.353 0.803183 4.56183 0
M  V30 1622 C 151.088 1.107 5.62613 0
M  V30 1623 N 150.584 1.47996 6.76808 0
M  V30 1624 N 152.377 1.02998 5.52583 0
M  V30 1625 H 144.528 1.32775 1.65785 0
M  V30 1626 H 146.791 0.542518 0.777417 0
M  V30 1627 H 146.497 1.49892 3.18159 0
M  V30 1628 H 146.371 -0.149786 3.76902 0
M  V30 1629 H 148.758 -0.605696 2.88817 0
M  V30 1630 H 148.839 1.06933 2.32377 0
M  V30 1631 H 148.483 1.87107 4.7218 0
M  V30 1632 H 148.413 0.175218 5.26308 0
M  V30 1633 H 150.904 0.52838 3.74188 0
M  V30 1634 H 151.217 1.69613 7.53957 0
M  V30 1635 H 149.562 1.51859 6.78206 0
M  V30 1636 H 152.753 0.737817 4.62249 0
M  V30 1637 H 152.926 1.2701 6.35431 0
M  V30 1638 N 146.332 -1.57332 0.0918853 0
M  V30 1639 C 147.279 -2.13847 -0.868211 0
M  V30 1640 C 148.249 -1.05618 -1.28196 0
M  V30 1641 O 149.434 -1.33387 -1.36427 0
M  V30 1642 C 146.574 -2.72062 -2.12312 0
M  V30 1643 C 145.687 -3.94514 -1.7602 0
M  V30 1644 C 144.822 -4.40903 -2.96273 0
M  V30 1645 C 143.861 -5.55953 -2.56092 0
M  V30 1646 N 142.998 -5.97209 -3.69169 0
M  V30 1647 H 147.838 -2.95575 -0.379406 0
M  V30 1648 H 145.375 -1.46048 -0.175606 0
M  V30 1649 H 147.333 -3.03931 -2.858 0
M  V30 1650 H 145.963 -1.93068 -2.58698 0
M  V30 1651 H 145.015 -3.68979 -0.925135 0
M  V30 1652 H 146.327 -4.7802 -1.42472 0
M  V30 1653 H 145.481 -4.74539 -3.78018 0
M  V30 1654 H 144.22 -3.56291 -3.33029 0
M  V30 1655 H 143.225 -5.21948 -1.72773 0
M  V30 1656 H 144.45 -6.42311 -2.20484 0
M  V30 1657 H 142.396 -5.15543 -4.05649 0
M  V30 1658 H 142.313 -6.75504 -3.39456 0
M  V30 1659 H 143.581 -6.35475 -4.51434 0
M  V30 1660 N 147.81 0.181792 -1.56548 0
M  V30 1661 C 149.056 0.901431 -1.81665 0
M  V30 1662 C 149.389 1.82347 -0.668075 0
M  V30 1663 O 148.664 1.91669 0.330615 0
M  V30 1664 C 148.947 1.70618 -3.17115 0
M  V30 1665 C 148.8 0.807964 -4.42484 0
M  V30 1666 C 150.119 2.67605 -3.49393 0
M  V30 1667 H 147.238 0.32627 -0.660846 0
M  V30 1668 H 149.88 0.168134 -1.89255 0
M  V30 1669 H 148.03 2.33133 -3.10775 0
M  V30 1670 H 149.702 0.19649 -4.60881 0
M  V30 1671 H 147.945 0.115411 -4.33646 0
M  V30 1672 H 148.616 1.40632 -5.33785 0
M  V30 1673 H 151.092 2.15218 -3.56118 0
M  V30 1674 H 149.968 3.20985 -4.45264 0
M  V30 1675 H 150.229 3.47298 -2.73563 0
M  V30 1676 N 149.288 1.51039 0.449983 0
M  V30 1677 C 150.513 1.6715 1.22783 0
M  V30 1678 C 150.938 0.363081 1.84563 0
M  V30 1679 O 150.296 -0.675433 1.68249 0
M  V30 1680 C 150.344 2.77985 2.29689 0
M  V30 1681 O 149.448 2.40707 3.34864 0
M  V30 1682 H 148.789 0.557746 0.360299 0
M  V30 1683 H 151.319 1.97535 0.533005 0
M  V30 1684 H 151.329 3.01693 2.74673 0
M  V30 1685 H 150.004 3.72935 1.84098 0
M  V30 1686 H 148.581 2.27523 2.95445 0
M  V30 1687 N 150.766 -0.704594 1.40972 0
M  V30 1688 C 151.991 -1.49858 1.43378 0
M  V30 1689 C 152.416 -1.88061 0.038184 0
M  V30 1690 O 151.774 -1.5402 -0.956425 0
M  V30 1691 C 151.822 -2.74333 2.34038 0
M  V30 1692 O 150.926 -3.7147 1.7912 0
M  V30 1693 H 150.267 -0.45139 0.486974 0
M  V30 1694 H 152.797 -0.866832 1.8533 0
M  V30 1695 H 152.807 -3.22741 2.49604 0
M  V30 1696 H 151.482 -2.45863 3.35446 0
M  V30 1697 H 150.059 -3.30363 1.72958 0
M  V30 1698 N 152.244 -1.26651 -0.937939 0
M  V30 1699 C 153.491 -1.12387 -1.6845 0
M  V30 1700 C 153.819 0.332208 -1.91642 0
M  V30 1701 O 153.074 1.2602 -1.49725 0
M  V30 1702 C 153.373 -1.84168 -3.06295 0
M  V30 1703 C 153.039 -3.34056 -3.02849 0
M  V30 1704 C 151.701 -3.74942 -3.01616 0
M  V30 1705 C 154.053 -4.29741 -2.9491 0
M  V30 1706 C 151.381 -5.09894 -2.90215 0
M  V30 1707 C 153.733 -5.64738 -2.8505 0
M  V30 1708 C 152.397 -6.0493 -2.82162 0
M  V30 1709 H 151.667 -0.411252 -0.616403 0
M  V30 1710 H 154.314 -1.57134 -1.09459 0
M  V30 1711 H 152.619 -1.319 -3.6893 0
M  V30 1712 H 154.316 -1.70569 -3.62915 0
M  V30 1713 H 150.906 -3.01534 -3.0459 0
M  V30 1714 H 155.09 -3.99133 -2.94969 0
M  V30 1715 H 150.346 -5.40194 -2.86358 0
M  V30 1716 H 154.52 -6.38561 -2.77872 0
M  V30 1717 H 152.147 -7.09457 -2.73084 0
M  V30 1718 N 153.722 1.14298 -1.08507 0
M  V30 1719 C 154.947 1.8976 -0.837001 0
M  V30 1720 C 155.372 1.78097 0.605228 0
M  V30 1721 O 154.73 1.12188 1.4242 0
M  V30 1722 C 154.778 3.37685 -1.26495 0
M  V30 1723 O 153.882 4.10281 -0.417514 0
M  V30 1724 H 153.223 0.590365 -0.303917 0
M  V30 1725 H 155.753 1.44672 -1.44676 0
M  V30 1726 H 155.763 3.88501 -1.24625 0
M  V30 1727 H 154.438 3.45492 -2.31534 0
M  V30 1728 H 153.015 3.69536 -0.499722 0
M  V30 1729 N 155.201 0.870884 1.31352 0
M  V30 1730 C 156.151 0.298889 2.26032 0
M  V30 1731 C 157.135 -0.564595 1.50669 0
M  V30 1732 O 158.327 -0.411323 1.72154 0
M  V30 1733 C 155.456 -0.497842 3.39671 0
M  V30 1734 C 154.542 0.378937 4.22404 0
M  V30 1735 N 154.933 1.47284 4.83881 0
M  V30 1736 C 153.231 0.171535 4.4567 0
M  V30 1737 C 153.932 2.01359 5.45738 0
M  V30 1738 N 152.908 1.31047 5.27568 0
M  V30 1739 H 156.71 1.13494 2.71102 0
M  V30 1740 H 154.224 0.718745 1.45629 0
M  V30 1741 H 156.221 -0.924155 4.06528 0
M  V30 1742 H 154.881 -1.33149 2.96144 0
M  V30 1743 H 155.892 1.85575 4.8351 0
M  V30 1744 H 152.569 -0.626091 4.12779 0
M  V30 1745 H 153.959 2.93143 6.0458 0
M  V30 1746 N 156.679 -1.44442 0.630414 0
M  V30 1747 C 157.907 -2.06414 0.141671 0
M  V30 1748 C 158.322 -1.47105 -1.18345 0
M  V30 1749 O 157.679 -0.593662 -1.72574 0
M  V30 1750 C 157.73 -3.61494 0.0199784 0
M  V30 1751 O 157.451 -4.18594 1.29269 0
M  V30 1752 C 158.952 -4.40499 -0.497544 0
M  V30 1753 H 156.172 -0.666292 0.0793452 0
M  V30 1754 H 158.716 -1.85323 0.864614 0
M  V30 1755 H 156.871 -3.8185 -0.653402 0
M  V30 1756 H 157.285 -5.12026 1.13707 0
M  V30 1757 H 158.759 -5.49433 -0.531708 0
M  V30 1758 H 159.236 -4.11895 -1.52445 0
M  V30 1759 H 159.842 -4.25061 0.142562 0
M  V30 1760 N 158.157 -0.370918 -1.53173 0
M  V30 1761 C 159.087 0.464847 -2.28826 0
M  V30 1762 C 160.068 1.07936 -1.31468 0
M  V30 1763 O 161.253 1.0956 -1.60344 0
M  V30 1764 C 158.383 1.60196 -3.08147 0
M  V30 1765 C 157.337 1.11443 -4.13237 0
M  V30 1766 C 156.663 2.3422 -4.80672 0
M  V30 1767 C 157.963 0.195384 -5.21934 0
M  V30 1768 H 159.657 -0.166329 -2.98938 0
M  V30 1769 H 157.203 -0.0814359 -1.4377 0
M  V30 1770 H 159.156 2.19332 -3.59822 0
M  V30 1771 H 157.88 2.26045 -2.35735 0
M  V30 1772 H 156.539 0.545727 -3.62515 0
M  V30 1773 H 156.187 2.98537 -4.04827 0
M  V30 1774 H 155.887 2.02269 -5.51689 0
M  V30 1775 H 157.411 2.94032 -5.35143 0
M  V30 1776 H 158.825 0.694375 -5.69079 0
M  V30 1777 H 157.222 -0.0335027 -6.00091 0
M  V30 1778 H 158.292 -0.760961 -4.78892 0
M  V30 1779 N 159.635 1.57281 -0.100228 0
M  V30 1780 C 160.583 2.15542 0.874328 0
M  V30 1781 C 161.577 1.09962 1.28859 0
M  V30 1782 O 162.783 1.28298 1.26252 0
M  V30 1783 H 159.158 0.689567 0.300003 0
M  V30 1784 H 161.129 2.96241 0.35829 0
M  V30 1785 C 159.878 2.75454 2.1218 0
M  V30 1786 H 159.201 3.56384 1.81193 0
M  V30 1787 H 160.641 3.19781 2.78417 0
M  V30 1788 C 159.1 1.71602 2.89921 0
M  V30 1789 O 159.63 1.15804 3.84646 0
M  V30 1790 N 157.836 1.41975 2.53558 0
M  V30 1791 H 157.383 1.87539 1.76598 0
M  V30 1792 H 157.341 0.727274 3.05873 0
M  V30 1793 N 161.113 -0.173488 1.56642 0
M  V30 1794 C 162.341 -0.906095 1.86004 0
M  V30 1795 C 162.756 -1.75921 0.685355 0
M  V30 1796 O 162.113 -1.79198 -0.345578 0
M  V30 1797 C 162.164 -1.78462 3.14378 0
M  V30 1798 O 161.885 -0.965914 4.27319 0
M  V30 1799 C 163.386 -2.62707 3.57071 0
M  V30 1800 H 160.606 -0.263341 0.617165 0
M  V30 1801 H 163.15 -0.174236 2.03756 0
M  V30 1802 H 161.305 -2.46984 2.98459 0
M  V30 1803 H 161.719 -1.56655 5.00559 0
M  V30 1804 H 163.193 -3.19969 4.49804 0
M  V30 1805 H 163.67 -3.37472 2.81086 0
M  V30 1806 H 164.276 -1.99521 3.75595 0
M  V30 1807 N 162.591 -1.51276 -0.441967 0
M  V30 1808 C 163.821 -1.67273 -1.21257 0
M  V30 1809 C 164.229 -0.367624 -1.85594 0
M  V30 1810 O 163.572 0.663349 -1.71305 0
M  V30 1811 C 163.634 -2.72807 -2.34129 0
M  V30 1812 C 163.298 -4.1554 -1.90198 0
M  V30 1813 C 164.295 -5.00471 -1.40801 0
M  V30 1814 C 161.98 -4.61616 -1.9803 0
M  V30 1815 C 163.974 -6.29536 -0.998174 0
M  V30 1816 C 161.661 -5.90679 -1.56658 0
M  V30 1817 C 162.659 -6.74466 -1.07633 0
M  V30 1818 O 162.347 -8.01116 -0.668459 0
M  V30 1819 H 162.079 -0.564614 -0.371734 0
M  V30 1820 H 164.633 -1.9843 -0.530521 0
M  V30 1821 H 162.863 -2.36954 -3.05597 0
M  V30 1822 H 164.552 -2.77729 -2.96009 0
M  V30 1823 H 165.318 -4.66079 -1.34148 0
M  V30 1824 H 161.197 -3.96526 -2.35135 0
M  V30 1825 H 164.741 -6.94885 -0.61482 0
M  V30 1826 H 160.638 -6.24586 -1.62979 0
M  V30 1827 H 161.406 -8.14633 -0.794722 0
M  V30 1828 N 164.069 0.697108 -1.41344 0
M  V30 1829 C 164.979 1.84088 -1.45427 0
M  V30 1830 C 165.995 1.70545 -0.34501 0
M  V30 1831 O 167.171 1.92488 -0.592492 0
M  V30 1832 C 164.236 3.20056 -1.33286 0
M  V30 1833 C 163.297 3.45718 -2.54514 0
M  V30 1834 C 162.53 4.75199 -2.42944 0
M  V30 1835 O 162.753 5.51579 -1.45318 0
M  V30 1836 O 161.687 5.0161 -3.32672 0
M  V30 1837 H 165.513 1.836 -2.41919 0
M  V30 1838 H 163.098 0.849966 -1.22866 0
M  V30 1839 H 164.98 4.01236 -1.28794 0
M  V30 1840 H 163.655 3.2123 -0.39909 0
M  V30 1841 H 162.562 2.64474 -2.64583 0
M  V30 1842 H 163.895 3.49356 -3.46715 0
M  V30 1843 N 165.547 1.27147 0.931209 0
M  V30 1844 C 166.795 1.13055 1.6752 0
M  V30 1845 C 167.116 -0.324791 1.92276 0
M  V30 1846 O 166.386 -1.22775 1.52654 0
M  V30 1847 H 164.966 0.415391 0.620854 0
M  V30 1848 H 167.628 1.59623 1.11833 0
M  V30 1849 H 166.724 1.65694 2.64485 0
M  V30 1850 N 167.025 -1.13721 1.09112 0
M  V30 1851 C 167.972 -2.19031 0.727591 0
M  V30 1852 C 168.942 -1.63555 -0.289656 0
M  V30 1853 O 170.127 -1.90023 -0.172026 0
M  V30 1854 C 167.267 -3.4477 0.15082 0
M  V30 1855 C 166.38 -4.14365 1.22172 0
M  V30 1856 C 165.515 -5.27709 0.608042 0
M  V30 1857 C 164.554 -5.89147 1.66047 0
M  V30 1858 N 163.691 -6.93929 1.06806 0
M  V30 1859 H 168.531 -2.49475 1.62991 0
M  V30 1860 H 166.068 -1.22499 0.81439 0
M  V30 1861 H 168.026 -4.16714 -0.201358 0
M  V30 1862 H 166.656 -3.14787 -0.714783 0
M  V30 1863 H 165.708 -3.40737 1.69122 0
M  V30 1864 H 167.02 -4.56114 2.01895 0
M  V30 1865 H 166.174 -6.06355 0.204523 0
M  V30 1866 H 164.913 -4.872 -0.220769 0
M  V30 1867 H 163.918 -5.09198 2.07357 0
M  V30 1868 H 165.143 -6.31729 2.49189 0
M  V30 1869 H 163.089 -6.55483 0.260476 0
M  V30 1870 H 163.006 -7.34202 1.8023 0
M  V30 1871 H 164.274 -7.76434 0.690644 0
M  V30 1872 N 168.503 -0.877838 -1.30888 0
M  V30 1873 C 169.751 -0.491723 -1.96027 0
M  V30 1874 C 170.072 0.960827 -1.69685 0
M  V30 1875 O 169.342 1.67462 -1.01654 0
M  V30 1876 H 167.922 -0.17885 -0.725273 0
M  V30 1877 H 170.584 -1.11935 -1.59551 0
M  V30 1878 H 169.68 -0.656016 -3.05128 0
M  V30 1879 N 169.982 1.44106 -0.638065 0
M  V30 1880 C 171.231 2.01194 -0.142744 0
M  V30 1881 C 171.544 1.50835 1.24532 0
M  V30 1882 O 172.75 2.00096 1.83504 0
M  V30 1883 C 171.206 3.59319 -0.20442 0
M  V30 1884 C 170.814 4.18674 -1.59423 0
M  V30 1885 C 172.558 4.23854 0.234079 0
M  V30 1886 C 170.465 5.69045 -1.61065 0
M  V30 1887 H 169.395 0.752367 -0.0495998 0
M  V30 1888 H 172.046 1.65246 -0.797881 0
M  V30 1889 H 170.428 3.92598 0.517946 0
M  V30 1890 H 171.602 3.96921 -2.34074 0
M  V30 1891 H 169.917 3.66453 -1.97741 0
M  V30 1892 H 172.514 5.34155 0.241443 0
M  V30 1893 H 172.857 3.96688 1.2627 0
M  V30 1894 H 173.39 3.95403 -0.436025 0
M  V30 1895 H 170.129 6.00956 -2.61787 0
M  V30 1896 H 169.649 5.929 -0.90718 0
M  V30 1897 H 171.328 6.32809 -1.34766 0
M  V30 1898 N 171.46 0.379036 1.52974 0
M  V30 1899 C 172.37 -0.468639 2.29872 0
M  V30 1900 C 173.386 -1.08067 1.36373 0
M  V30 1901 O 174.562 -1.08871 1.69438 0
M  V30 1902 C 171.627 -1.58594 3.083 0
M  V30 1903 C 170.688 -1.00007 4.17489 0
M  V30 1904 C 169.921 -2.06413 4.92168 0
M  V30 1905 O 170.144 -3.27751 4.66835 0
M  V30 1906 O 169.078 -1.68717 5.7777 0
M  V30 1907 H 172.904 0.157508 3.03291 0
M  V30 1908 H 170.489 0.143035 1.48714 0
M  V30 1909 H 172.371 -2.23525 3.57232 0
M  V30 1910 H 171.046 -2.19724 2.37703 0
M  V30 1911 H 169.953 -0.314299 3.72777 0
M  V30 1912 H 171.286 -0.433135 4.90291 0
M  V30 1913 N 172.938 -1.57226 0.108567 0
M  V30 1914 C 174.163 -1.99604 -0.563303 0
M  V30 1915 C 174.588 -0.987563 -1.6009 0
M  V30 1916 O 173.946 0.0421687 -1.81251 0
M  V30 1917 C 173.994 -3.40902 -1.17552 0
M  V30 1918 O 173.098 -3.42896 -2.2912 0
M  V30 1919 H 172.439 -0.648704 -0.1417 0
M  V30 1920 H 174.969 -2.03679 0.193961 0
M  V30 1921 H 174.979 -3.78886 -1.51357 0
M  V30 1922 H 173.654 -4.1382 -0.415445 0
M  V30 1923 H 172.231 -3.1672 -1.96832 0
M  V30 1924 N 174.416 0.165178 -1.56732 0
M  V30 1925 C 175.363 1.2044 -1.96883 0
M  V30 1926 C 176.333 1.43664 -0.833657 0
M  V30 1927 O 177.518 1.56302 -1.09427 0
M  V30 1928 C 174.658 2.53727 -2.33916 0
M  V30 1929 C 173.771 2.3783 -3.6064 0
M  V30 1930 C 172.906 3.64026 -3.86857 0
M  V30 1931 C 171.945 3.43088 -5.06909 0
M  V30 1932 N 171.082 4.61369 -5.29229 0
M  V30 1933 H 175.922 0.854996 -2.85471 0
M  V30 1934 H 173.459 0.41076 -1.41249 0
M  V30 1935 H 175.417 3.31419 -2.53411 0
M  V30 1936 H 174.047 2.8665 -1.48431 0
M  V30 1937 H 173.099 1.51282 -3.49024 0
M  V30 1938 H 174.411 2.18308 -4.4849 0
M  V30 1939 H 173.565 4.50152 -4.06753 0
M  V30 1940 H 172.304 3.86533 -2.97394 0
M  V30 1941 H 171.309 2.55349 -4.86906 0
M  V30 1942 H 172.534 3.21997 -5.97909 0
M  V30 1943 H 170.48 4.84084 -4.42718 0
M  V30 1944 H 170.397 4.44783 -6.11313 0
M  V30 1945 H 171.665 5.48761 -5.53608 0
M  V30 1946 N 175.894 1.51508 0.433938 0
M  V30 1947 C 176.841 1.73068 1.52696 0
M  V30 1948 C 177.811 0.572441 1.55924 0
M  V30 1949 O 178.996 0.807253 1.72882 0
M  V30 1950 C 176.136 1.86474 2.90381 0
M  V30 1951 C 175.249 3.14037 2.96656 0
M  V30 1952 C 174.384 3.18019 4.25485 0
M  V30 1953 C 173.423 4.39882 4.2564 0
M  V30 1954 N 172.56 4.41394 5.45999 0
M  V30 1955 H 177.4 2.66366 1.33615 0
M  V30 1956 H 174.937 1.32008 0.649018 0
M  V30 1957 H 176.895 1.92229 3.70275 0
M  V30 1958 H 175.525 0.965809 3.08013 0
M  V30 1959 H 174.577 3.17575 2.09404 0
M  V30 1960 H 175.889 4.0394 2.92633 0
M  V30 1961 H 175.043 3.22708 5.13755 0
M  V30 1962 H 173.782 2.2601 4.3217 0
M  V30 1963 H 172.787 4.35366 3.35763 0
M  V30 1964 H 174.012 5.33159 4.20617 0
M  V30 1965 H 171.958 3.52258 5.53399 0
M  V30 1966 H 171.875 5.25111 5.4387 0
M  V30 1967 H 173.143 4.50281 6.36292 0
M  V30 1968 N 177.372 -0.689602 1.41712 0
M  V30 1969 C 178.602 -1.47613 1.44548 0
M  V30 1970 C 179.01 -1.89132 0.0509034 0
M  V30 1971 O 178.353 -1.57741 -0.94146 0
M  V30 1972 C 178.415 -2.76596 2.2964 0
M  V30 1973 C 178.079 -2.57245 3.77722 0
M  V30 1974 C 179.076 -2.22804 4.69739 0
M  V30 1975 C 176.761 -2.727 4.2183 0
M  V30 1976 C 178.755 -2.04064 6.03851 0
M  V30 1977 C 176.442 -2.53576 5.56006 0
M  V30 1978 C 177.44 -2.1931 6.46832 0
M  V30 1979 O 177.128 -2.00359 7.78532 0
M  V30 1980 H 176.86 -0.461227 0.494212 0
M  V30 1981 H 179.414 -0.856045 1.86711 0
M  V30 1982 H 177.644 -3.41033 1.82301 0
M  V30 1983 H 179.333 -3.38424 2.24107 0
M  V30 1984 H 180.099 -2.10473 4.36951 0
M  V30 1985 H 175.978 -2.98353 3.51435 0
M  V30 1986 H 179.522 -1.77241 6.74708 0
M  V30 1987 H 175.419 -2.65499 5.88371 0
M  V30 1988 H 176.187 -2.15075 7.89737 0
M  V30 1989 N 178.85 -1.27639 -0.924453 0
M  V30 1990 C 179.798 -1.10485 -2.04685 0
M  V30 1991 C 180.792 -0.0270421 -1.69378 0
M  V30 1992 O 181.998 -0.185008 -1.79047 0
M  V30 1993 H 178.373 -0.340546 -0.670472 0
M  V30 1994 H 180.344 -2.05566 -2.16298 0
M  V30 1995 C 179.093 -0.772229 -3.39016 0
M  V30 1996 H 178.416 -1.59351 -3.66671 0
M  V30 1997 H 179.856 -0.692097 -4.18313 0
M  V30 1998 C 178.315 0.523554 -3.32807 0
M  V30 1999 O 178.845 1.55702 -3.70297 0
M  V30 2000 N 177.051 0.520363 -2.85903 0
M  V30 2001 H 176.598 -0.32107 -2.55591 0
M  V30 2002 H 176.556 1.38742 -2.82131 0
M  V30 2003 N 180.328 1.1314 -1.09713 0
M  V30 2004 C 181.238 2.22242 -0.751367 0
M  V30 2005 C 182.254 1.72224 0.247938 0
M  V30 2006 O 183.43 2.01205 0.0885463 0
M  V30 2007 C 180.495 3.46231 -0.180274 0
M  V30 2008 C 179.556 4.11125 -1.2359 0
M  V30 2009 C 178.789 5.29195 -0.691966 0
M  V30 2010 O 179.012 5.68342 0.48414 0
M  V30 2011 O 177.946 5.84214 -1.44838 0
M  V30 2012 H 181.772 2.54197 -1.66186 0
M  V30 2013 H 179.357 1.21331 -0.871735 0
M  V30 2014 H 181.239 4.21185 0.134739 0
M  V30 2015 H 179.914 3.1597 0.703185 0
M  V30 2016 H 178.821 3.37985 -1.60366 0
M  V30 2017 H 180.154 4.45524 -2.09211 0
M  V30 2018 N 181.806 0.884767 1.30421 0
M  V30 2019 C 182.753 0.349642 2.28136 0
M  V30 2020 C 183.723 -0.560061 1.56373 0
M  V30 2021 O 184.908 -0.488524 1.8444 0
M  V30 2022 C 182.048 -0.42999 3.42411 0
M  V30 2023 C 181.161 0.508907 4.28992 0
M  V30 2024 C 180.296 -0.286301 5.30428 0
M  V30 2025 C 179.335 0.648079 6.08659 0
M  V30 2026 N 178.472 -0.111792 7.02011 0
M  V30 2027 H 183.312 1.18807 2.73293 0
M  V30 2028 H 180.849 0.597231 1.3443 0
M  V30 2029 H 182.807 -0.897923 4.07423 0
M  V30 2030 H 181.437 -1.23299 2.98324 0
M  V30 2031 H 180.489 1.09533 3.64289 0
M  V30 2032 H 181.801 1.22475 4.8353 0
M  V30 2033 H 180.955 -0.816098 6.01186 0
M  V30 2034 H 179.694 -1.03536 4.76583 0
M  V30 2035 H 178.699 1.18951 5.36778 0
M  V30 2036 H 179.924 1.39623 6.64592 0
M  V30 2037 H 177.87 -0.843395 6.50556 0
M  V30 2038 H 177.787 0.544429 7.54037 0
M  V30 2039 H 179.055 -0.622339 7.77012 0
M  V30 2040 N 183.284 -1.43765 0.645699 0
M  V30 2041 C 184.216 -2.29027 -0.0890605 0
M  V30 2042 C 185.229 -1.42093 -0.794563 0
M  V30 2043 O 186.418 -1.66104 -0.653575 0
M  V30 2044 C 183.518 -3.18831 -1.14891 0
M  V30 2045 C 182.691 -4.34261 -0.523043 0
M  V30 2046 C 181.75 -5.04994 -1.47878 0
M  V30 2047 O 180.776 -5.6052 -0.990277 0
M  V30 2048 N 181.978 -5.07795 -2.81291 0
M  V30 2049 H 184.743 -2.92727 0.64272 0
M  V30 2050 H 182.304 -1.54373 0.487924 0
M  V30 2051 H 184.296 -3.63015 -1.78892 0
M  V30 2052 H 182.866 -2.56782 -1.78275 0
M  V30 2053 H 182.086 -3.93088 0.295896 0
M  V30 2054 H 183.374 -5.08728 -0.0858147 0
M  V30 2055 H 182.772 -4.64042 -3.23546 0
M  V30 2056 H 181.329 -5.55721 -3.40614 0
M  V30 2057 N 184.763 -0.387143 -1.52771 0
M  V30 2058 C 185.711 0.463953 -2.27926 0
M  V30 2059 C 186.705 1.06493 -1.31741 0
M  V30 2060 O 187.911 1.00565 -1.49287 0
M  V30 2061 H 184.286 0.16837 -0.732909 0
M  V30 2062 H 186.257 -0.19141 -2.97785 0
M  V30 2063 C 185.006 1.5803 -3.09713 0
M  V30 2064 H 184.329 1.12718 -3.83581 0
M  V30 2065 H 185.769 2.15008 -3.65442 0
M  V30 2066 C 184.228 2.53509 -2.2189 0
M  V30 2067 O 184.758 3.56863 -1.84422 0
M  V30 2068 N 182.964 2.23199 -1.86093 0
M  V30 2069 H 182.511 1.39185 -2.16761 0
M  V30 2070 H 182.469 2.87333 -1.27621 0
M  V30 2071 N 186.241 1.57166 -0.116904 0
M  V30 2072 C 187.189 2.16457 0.851418 0
M  V30 2073 C 188.183 1.11323 1.27686 0
M  V30 2074 O 189.389 1.2963 1.24884 0
M  V30 2075 H 185.764 0.69271 0.292672 0
M  V30 2076 H 187.735 2.96605 0.32685 0
M  V30 2077 C 186.484 2.77689 2.09246 0
M  V30 2078 H 185.807 3.58285 1.77402 0
M  V30 2079 H 187.247 3.22716 2.7501 0
M  V30 2080 C 185.706 1.74667 2.88085 0
M  V30 2081 O 186.236 1.19877 3.83396 0
M  V30 2082 N 184.442 1.44656 2.52038 0
M  V30 2083 H 183.989 1.89402 1.74599 0
M  V30 2084 H 183.947 0.759675 3.05084 0
M  V30 2085 N 187.719 -0.156864 1.56817 0
M  V30 2086 C 188.967 -0.869404 1.82444 0
M  V30 2087 C 189.288 -1.82147 0.69623 0
M  V30 2088 O 188.558 -1.93847 -0.28287 0
M  V30 2089 H 187.138 -0.324043 0.673056 0
M  V30 2090 H 189.8 -0.153224 1.94297 0
M  V30 2091 H 188.896 -1.43761 2.77019 0
M  V30 2092 N 189.197 -1.51736 -0.425897 0
M  V30 2093 C 190.446 -1.64201 -1.17136 0
M  V30 2094 C 190.759 -0.369705 -1.92074 0
M  V30 2095 O 191.965 -0.373898 -2.68913 0
M  V30 2096 C 190.421 -2.90035 -2.13091 0
M  V30 2097 C 190.029 -4.24312 -1.43747 0
M  V30 2098 C 191.773 -3.1186 -2.87999 0
M  V30 2099 C 189.68 -5.41285 -2.38253 0
M  V30 2100 H 188.61 -0.611624 -0.440944 0
M  V30 2101 H 191.261 -1.78212 -0.437328 0
M  V30 2102 H 189.643 -2.69684 -2.89977 0
M  V30 2103 H 190.817 -4.55086 -0.723408 0
M  V30 2104 H 189.132 -4.08456 -0.809465 0
M  V30 2105 H 191.729 -3.96427 -3.58817 0
M  V30 2106 H 192.072 -2.25403 -3.49999 0
M  V30 2107 H 192.605 -3.32605 -2.18217 0
M  V30 2108 H 189.344 -6.30037 -1.80925 0
M  V30 2109 H 188.864 -5.14872 -3.0768 0
M  V30 2110 H 190.543 -5.73694 -2.99139 0
M  V30 2111 N 190.675 0.682077 -1.42076 0
M  V30 2112 C 191.922 1.44215 -1.42156 0
M  V30 2113 C 192.25 1.94468 -0.0354186 0
M  V30 2114 O 191.505 1.70816 0.955002 0
M  V30 2115 C 191.804 2.66036 -2.38662 0
M  V30 2116 C 191.47 2.34366 -3.85206 0
M  V30 2117 C 190.132 2.25439 -4.25124 0
M  V30 2118 C 192.484 2.08513 -4.77673 0
M  V30 2119 C 189.812 1.88775 -5.55501 0
M  V30 2120 C 192.164 1.73354 -6.08384 0
M  V30 2121 C 190.828 1.62933 -6.47309 0
M  V30 2122 H 190.098 0.527718 -0.520187 0
M  V30 2123 H 192.745 0.778387 -1.74967 0
M  V30 2124 H 191.05 3.3741 -1.99152 0
M  V30 2125 H 192.747 3.24205 -2.35991 0
M  V30 2126 H 189.337 2.42213 -3.53597 0
M  V30 2127 H 193.521 2.14346 -4.47626 0
M  V30 2128 H 188.777 1.7927 -5.84527 0
M  V30 2129 H 192.951 1.52373 -6.79526 0
M  V30 2130 H 190.578 1.34292 -7.48244 0
M  V30 2131 N 192.153 1.28127 0.917671 0
M  V30 2132 C 193.1 1.11717 2.0196 0
M  V30 2133 C 194.07 0.0153929 1.66093 0
M  V30 2134 O 195.255 0.179596 1.89953 0
M  V30 2135 C 192.395 0.780927 3.36148 0
M  V30 2136 C 191.508 1.96135 3.84909 0
M  V30 2137 C 190.643 1.56609 5.0759 0
M  V30 2138 C 189.682 2.71339 5.48673 0
M  V30 2139 N 188.819 2.32332 6.62545 0
M  V30 2140 H 193.659 2.06003 2.15329 0
M  V30 2141 H 191.196 1.02535 1.05475 0
M  V30 2142 H 193.154 0.56675 4.13333 0
M  V30 2143 H 191.784 -0.124998 3.22558 0
M  V30 2144 H 190.836 2.28777 3.03916 0
M  V30 2145 H 192.148 2.82165 4.1132 0
M  V30 2146 H 191.302 1.31374 5.92305 0
M  V30 2147 H 190.041 0.677014 4.82978 0
M  V30 2148 H 189.046 2.97276 4.62501 0
M  V30 2149 H 190.271 3.60882 5.75274 0
M  V30 2150 H 188.217 1.45889 6.39572 0
M  V30 2151 H 188.134 3.11899 6.88662 0
M  V30 2152 H 189.402 2.10371 7.50576 0
M  V30 2153 N 193.631 -1.12557 1.10312 0
M  V30 2154 C 194.561 -2.20341 0.772798 0
M  V30 2155 C 195.542 -1.68198 -0.25365 0
M  V30 2156 O 196.727 -1.93831 -0.119699 0
M  V30 2157 C 193.857 -3.46709 0.202443 0
M  V30 2158 C 192.811 -4.11996 1.15943 0
M  V30 2159 C 192.137 -5.328 0.450345 0
M  V30 2160 C 193.437 -4.5828 2.50552 0
M  V30 2161 H 195.131 -2.48229 1.674 0
M  V30 2162 H 192.677 -1.19308 0.806326 0
M  V30 2163 H 194.63 -4.2138 -0.0407752 0
M  V30 2164 H 193.354 -3.18245 -0.734001 0
M  V30 2165 H 192.013 -3.39305 1.38808 0
M  V30 2166 H 191.661 -5.00602 -0.490531 0
M  V30 2167 H 191.361 -5.7743 1.08851 0
M  V30 2168 H 192.885 -6.10219 0.215642 0
M  V30 2169 H 194.299 -5.2433 2.31843 0
M  V30 2170 H 192.696 -5.13683 3.10242 0
M  V30 2171 H 193.766 -3.72329 3.10643 0
M  V30 2172 N 195.109 -0.891671 -1.2995 0
M  V30 2173 C 196.039 -0.379797 -2.30391 0
M  V30 2174 C 197.02 0.540919 -1.6127 0
M  V30 2175 O 198.205 0.453352 -1.88834 0
M  V30 2176 C 195.335 0.400654 -3.44981 0
M  V30 2177 C 194.289 -0.428905 -4.25846 0
M  V30 2178 C 193.615 0.478557 -5.32554 0
M  V30 2179 C 194.915 -1.67458 -4.94727 0
M  V30 2180 H 196.609 -1.21914 -2.73454 0
M  V30 2181 H 194.155 -0.587675 -1.31462 0
M  V30 2182 H 196.108 0.769434 -4.14316 0
M  V30 2183 H 194.832 1.27371 -3.0074 0
M  V30 2184 H 193.491 -0.779911 -3.58208 0
M  V30 2185 H 193.139 1.34951 -4.84559 0
M  V30 2186 H 192.839 -0.0727433 -5.87555 0
M  V30 2187 H 194.363 0.843705 -6.04743 0
M  V30 2188 H 195.777 -1.376 -5.56542 0
M  V30 2189 H 194.174 -2.16659 -5.59624 0
M  V30 2190 H 195.244 -2.41518 -4.20473 0
M  V30 2191 N 196.587 1.43421 -0.653314 0
M  V30 2192 C 197.835 2.01414 -0.166415 0
M  V30 2193 C 198.156 1.51803 1.22397 0
M  V30 2194 O 197.426 0.730693 1.81763 0
M  V30 2195 H 196.006 0.744703 -0.0585319 0
M  V30 2196 H 198.668 1.75629 -0.845003 0
M  V30 2197 H 197.764 3.11734 -0.151111 0
M  V30 2198 N 198.065 0.39524 1.52563 0
M  V30 2199 C 199.314 -0.186321 2.00838 0
M  V30 2200 C 199.627 -1.47402 1.28577 0
M  V30 2201 O 200.833 -2.13599 1.67593 0
M  V30 2202 C 199.289 -0.382595 3.57861 0
M  V30 2203 C 198.897 0.892202 4.39026 0
M  V30 2204 C 200.641 -0.9202 4.14406 0
M  V30 2205 C 198.548 0.66388 5.87662 0
M  V30 2206 H 197.478 -0.0734041 0.750418 0
M  V30 2207 H 200.129 0.518552 1.76021 0
M  V30 2208 H 198.511 -1.14946 3.7895 0
M  V30 2209 H 199.685 1.66414 4.29701 0
M  V30 2210 H 198 1.35519 3.9373 0
M  V30 2211 H 200.597 -1.10683 5.23119 0
M  V30 2212 H 200.94 -1.89096 3.70875 0
M  V30 2213 H 201.473 -0.212751 3.97231 0
M  V30 2214 H 198.212 1.6058 6.35527 0
M  V30 2215 H 197.732 -0.0690193 5.9976 0
M  V30 2216 H 199.411 0.300699 6.46301 0
M  V30 2217 N 199.544 -1.57102 0.125237 0
M  V30 2218 C 200.774 -1.99472 -0.538015 0
M  V30 2219 C 201.182 -1.00395 -1.60366 0
M  V30 2220 O 200.525 0.0103875 -1.83697 0
M  V30 2221 C 200.587 -3.38262 -1.21734 0
M  V30 2222 C 200.251 -4.56021 -0.298897 0
M  V30 2223 C 201.248 -5.17817 0.464943 0
M  V30 2224 C 198.933 -5.01869 -0.208149 0
M  V30 2225 C 200.927 -6.23852 1.3072 0
M  V30 2226 C 198.614 -6.07763 0.637736 0
M  V30 2227 C 199.612 -6.68622 1.39403 0
M  V30 2228 O 199.3 -7.7247 2.22586 0
M  V30 2229 H 199.032 -0.659934 -0.146501 0
M  V30 2230 H 201.586 -2.04321 0.210267 0
M  V30 2231 H 199.816 -3.30185 -2.01282 0
M  V30 2232 H 201.505 -3.6488 -1.77813 0
M  V30 2233 H 202.271 -4.83308 0.404741 0
M  V30 2234 H 198.15 -4.54241 -0.786522 0
M  V30 2235 H 201.694 -6.71284 1.898 0
M  V30 2236 H 197.591 -6.41701 0.699309 0
M  V30 2237 H 198.359 -7.89595 2.15596 0
M  V30 2238 N 201.022 0.148545 -1.56898 0
M  V30 2239 C 202.27 0.859717 -1.82902 0
M  V30 2240 C 202.591 1.81775 -0.70588 0
M  V30 2241 O 201.861 1.93994 0.272586 0
M  V30 2242 H 200.441 0.320469 -0.674766 0
M  V30 2243 H 203.103 0.142918 -1.94375 0
M  V30 2244 H 202.199 1.4229 -2.77777 0
M  V30 2245 N 202.5 1.5196 0.417844 0
M  V30 2246 C 203.725 1.69717 1.1921 0
M  V30 2247 C 204.15 0.402148 1.83751 0
M  V30 2248 O 203.508 -0.639593 1.69643 0
M  V30 2249 C 203.556 2.82794 2.2374 0
M  V30 2250 O 202.66 2.47756 3.29683 0
M  V30 2251 H 202.001 0.565263 0.348387 0
M  V30 2252 H 204.531 1.98621 0.490985 0
M  V30 2253 H 204.541 3.07452 2.68212 0
M  V30 2254 H 203.216 3.76756 1.76146 0
M  V30 2255 H 201.793 2.33739 2.90552 0
M  V30 2256 N 203.978 -0.674533 1.42435 0
M  V30 2257 C 204.926 -1.80934 1.46169 0
M  V30 2258 C 205.92 -1.66006 0.3374 0
M  V30 2259 O 207.126 -1.72611 0.510425 0
M  V30 2260 H 203.501 -0.596594 0.457798 0
M  V30 2261 H 205.472 -1.74903 2.41767 0
M  V30 2262 C 204.221 -3.19088 1.38123 0
M  V30 2263 H 203.544 -3.31203 2.23931 0
M  V30 2264 H 204.984 -3.9851 1.44797 0
M  V30 2265 C 203.443 -3.36763 0.0960517 0
M  V30 2266 O 203.973 -3.92581 -0.851073 0
M  V30 2267 N 202.179 -2.90597 0.0131186 0
M  V30 2268 H 201.726 -2.45359 0.784639 0
M  V30 2269 H 201.684 -3.028 -0.846133 0
M  V30 2270 N 205.456 -1.28612 -0.910864 0
M  V30 2271 C 206.681 -1.1891 -1.69927 0
M  V30 2272 C 207.106 0.248372 -1.86453 0
M  V30 2273 O 206.464 1.17961 -1.37676 0
M  V30 2274 C 206.512 -1.89578 -3.06745 0
M  V30 2275 O 205.616 -1.20521 -3.94396 0
M  V30 2276 H 204.957 -0.412632 -0.520222 0
M  V30 2277 H 207.487 -1.69985 -1.1387 0
M  V30 2278 H 207.497 -1.97597 -3.56958 0
M  V30 2279 H 206.172 -2.94136 -2.94035 0
M  V30 2280 H 204.749 -1.20684 -3.52831 0
M  V30 2281 N 206.934 1.1197 -1.10907 0
M  V30 2282 C 208.183 1.82947 -0.849302 0
M  V30 2283 C 208.496 1.85275 0.627112 0
M  V30 2284 O 209.702 2.52296 1.00295 0
M  V30 2285 C 208.158 3.28529 -1.46959 0
M  V30 2286 C 207.766 3.34546 -2.97965 0
M  V30 2287 C 209.51 4.04443 -1.28942 0
M  V30 2288 C 207.417 4.74491 -3.53004 0
M  V30 2289 H 206.347 0.685477 -0.314065 0
M  V30 2290 H 208.998 1.2604 -1.33365 0
M  V30 2291 H 207.38 3.85333 -0.912917 0
M  V30 2292 H 208.554 2.87654 -3.59989 0
M  V30 2293 H 206.869 2.72108 -3.15192 0
M  V30 2294 H 209.466 5.07787 -1.67502 0
M  V30 2295 H 209.809 4.15656 -0.231456 0
M  V30 2296 H 210.342 3.5401 -1.81443 0
M  V30 2297 H 207.081 4.68474 -4.58489 0
M  V30 2298 H 206.601 5.21816 -2.9575 0
M  V30 2299 H 208.28 5.4344 -3.51115 0
M  V30 2300 N 208.412 0.89855 1.29475 0
M  V30 2301 C 209.36 0.365253 2.29714 0
M  V30 2302 C 210.354 -0.534993 1.6073 0
M  V30 2303 O 211.56 -0.417921 1.75081 0
M  V30 2304 H 207.935 0.0994853 0.74539 0
M  V30 2305 H 209.906 1.22406 2.72138 0
M  V30 2306 C 208.655 -0.393159 3.4547 0
M  V30 2307 H 207.978 0.290332 3.98744 0
M  V30 2308 H 209.418 -0.731189 4.17648 0
M  V30 2309 C 207.877 -1.59539 2.9673 0
M  V30 2310 O 208.407 -2.69469 2.97908 0
M  V30 2311 N 206.613 -1.43716 2.52575 0
M  V30 2312 H 206.16 -0.542828 2.51816 0
M  V30 2313 H 206.118 -2.24288 2.20323 0
M  V30 2314 N 209.89 -1.43072 0.660911 0
M  V30 2315 C 211.136 -2.02545 0.186337 0
M  V30 2316 C 211.491 -1.51253 -1.18913 0
M  V30 2317 O 210.784 -0.699167 -1.78388 0
M  V30 2318 C 210.978 -3.57103 0.145563 0
M  V30 2319 C 210.807 -4.23393 1.51554 0
M  V30 2320 C 209.577 -4.59144 2.10984 0
M  V30 2321 C 211.775 -4.51897 2.45548 0
M  V30 2322 N 209.757 -5.10545 3.40907 0
M  V30 2323 C 211.128 -5.04698 3.6011 0
M  V30 2324 C 213.183 -4.33872 2.44253 0
M  V30 2325 C 211.886 -5.41371 4.73613 0
M  V30 2326 C 213.912 -4.71612 3.56842 0
M  V30 2327 C 213.274 -5.24553 4.70131 0
M  V30 2328 H 209.373 -0.773823 0.112792 0
M  V30 2329 H 211.957 -1.74137 0.870885 0
M  V30 2330 H 210.128 -3.85059 -0.508353 0
M  V30 2331 H 211.86 -4.03264 -0.340598 0
M  V30 2332 H 208.615 -4.4444 1.63615 0
M  V30 2333 H 209.039 -5.40689 4.07411 0
M  V30 2334 H 213.681 -3.92208 1.579 0
M  V30 2335 H 211.399 -5.81975 5.60652 0
M  V30 2336 H 214.985 -4.59354 3.57051 0
M  V30 2337 H 213.865 -5.53213 5.5581 0
M  V30 2338 N 211.368 -0.403325 -1.52352 0
M  V30 2339 C 212.298 0.416205 -2.29761 0
M  V30 2340 C 213.279 1.05123 -1.33728 0
M  V30 2341 O 214.464 1.06134 -1.62632 0
M  V30 2342 C 211.594 1.53624 -3.11475 0
M  V30 2343 C 210.548 1.02653 -4.15507 0
M  V30 2344 C 209.874 2.23971 -4.85532 0
M  V30 2345 C 211.174 0.08463 -5.22231 0
M  V30 2346 H 212.868 -0.229701 -2.98518 0
M  V30 2347 H 210.414 -0.111913 -1.43564 0
M  V30 2348 H 212.367 2.1165 -3.64393 0
M  V30 2349 H 211.091 2.20994 -2.40477 0
M  V30 2350 H 209.75 0.46871 -3.63591 0
M  V30 2351 H 209.398 2.89883 -4.11068 0
M  V30 2352 H 209.098 1.90521 -5.55856 0
M  V30 2353 H 210.622 2.82614 -5.41259 0
M  V30 2354 H 212.036 0.573509 -5.70424 0
M  V30 2355 H 210.433 -0.160783 -5.99885 0
M  V30 2356 H 211.503 -0.86237 -4.7717 0
M  V30 2357 N 212.846 1.57033 -0.133567 0
M  V30 2358 C 213.809 2.14897 0.796995 0
M  V30 2359 C 214.809 1.0874 1.18458 0
M  V30 2360 O 215.999 1.34446 1.1077 0
M  V30 2361 C 213.131 2.70112 2.07973 0
M  V30 2362 H 214.324 2.98457 0.293873 0
M  V30 2363 H 211.877 1.55871 0.115787 0
M  V30 2364 H 212.612 1.9018 2.62682 0
M  V30 2365 H 212.397 3.47764 1.81115 0
M  V30 2366 H 213.887 3.14738 2.74462 0
M  V30 2367 N 214.325 -0.140222 1.56975 0
M  V30 2368 C 215.55 -0.870414 1.88251 0
M  V30 2369 C 215.975 -1.73637 0.723312 0
M  V30 2370 O 215.333 -1.78329 -0.32689 0
M  V30 2371 C 215.381 -1.69737 3.18154 0
M  V30 2372 O 214.485 -2.80229 3.02565 0
M  V30 2373 H 213.826 -0.242025 0.61832 0
M  V30 2374 H 216.356 -0.128999 2.04193 0
M  V30 2375 H 216.366 -2.09099 3.50345 0
M  V30 2376 H 215.041 -1.06152 4.02125 0
M  V30 2377 H 213.618 -2.44224 2.81796 0
M  V30 2378 N 215.803 -1.52179 -0.40978 0
M  V30 2379 C 217.08 -1.56769 -1.16974 0
M  V30 2380 C 217.46 -0.348322 -2.08206 0
M  V30 2381 O 216.808 0.664862 -2.18613 0
M  V30 2382 C 217.018 -2.89603 -1.9476 0
M  V30 2383 C 218.366 -3.42579 -2.50849 0
M  V30 2384 O 219.39 -2.91338 -2.04941 0
M  V30 2385 O 218.249 -4.32054 -3.34652 0
M  V30 2386 H 215.343 -0.631439 -0.534054 0
M  V30 2387 H 217.889 -1.64507 -0.416613 0
M  V30 2388 H 216.661 -3.698 -1.27921 0
M  V30 2389 H 216.284 -2.85155 -2.77079 0
M  V30 2390 N 217.281 0.66697 -1.42791 0
M  V30 2391 C 218.211 1.79218 -1.49677 0
M  V30 2392 C 219.192 1.66405 -0.352623 0
M  V30 2393 O 220.377 1.85708 -0.567993 0
M  V30 2394 C 217.507 3.17565 -1.40605 0
M  V30 2395 C 216.461 3.45124 -2.53127 0
M  V30 2396 C 215.787 4.83127 -2.29112 0
M  V30 2397 C 217.087 3.41236 -3.95418 0
M  V30 2398 H 218.781 1.73713 -2.43853 0
M  V30 2399 H 216.327 0.83432 -1.17367 0
M  V30 2400 H 218.28 3.96022 -1.44029 0
M  V30 2401 H 217.004 3.23767 -0.429271 0
M  V30 2402 H 215.663 2.69031 -2.49034 0
M  V30 2403 H 215.311 4.85988 -1.29709 0
M  V30 2404 H 215.011 5.02528 -3.04531 0
M  V30 2405 H 216.535 5.63859 -2.34297 0
M  V30 2406 H 217.949 4.09651 -4.01073 0
M  V30 2407 H 216.346 3.72173 -4.70752 0
M  V30 2408 H 217.416 2.39665 -4.21532 0
M  V30 2409 N 218.759 1.29093 0.90403 0
M  V30 2410 C 219.984 1.19809 1.69294 0
M  V30 2411 C 220.409 -0.238481 1.86582 0
M  V30 2412 O 219.767 -1.1723 1.383 0
M  V30 2413 C 219.815 1.91202 3.05736 0
M  V30 2414 O 218.919 1.22611 3.93752 0
M  V30 2415 H 218.26 0.415385 0.518027 0
M  V30 2416 H 220.79 1.70586 1.12967 0
M  V30 2417 H 220.8 1.99487 3.55906 0
M  V30 2418 H 219.475 2.95692 2.92471 0
M  V30 2419 H 218.052 1.22554 3.52186 0
M  V30 2420 N 220.237 -1.11381 1.11499 0
M  V30 2421 C 221.2 -2.15622 0.777153 0
M  V30 2422 C 222.2 -1.59504 -0.203779 0
M  V30 2423 O 223.39 -1.74188 0.020782 0
M  V30 2424 C 220.522 -3.40556 0.153116 0
M  V30 2425 H 221.715 -2.47021 1.70061 0
M  V30 2426 H 219.268 -1.26577 0.916952 0
M  V30 2427 H 220.003 -3.14767 -0.780536 0
M  V30 2428 H 219.788 -3.8257 0.859238 0
M  V30 2429 H 221.278 -4.17546 -0.0671044 0
M  V30 2430 N 221.715 -0.905404 -1.28997 0
M  V30 2431 C 222.648 -0.331959 -2.25773 0
M  V30 2432 C 223.626 0.559099 -1.52685 0
M  V30 2433 O 224.81 0.50463 -1.8162 0
M  V30 2434 C 221.937 0.526276 -3.34586 0
M  V30 2435 C 220.983 -0.298249 -4.25456 0
M  V30 2436 S 221.816 -1.69968 -5.0781 0
M  V30 2437 C 222.972 -0.848519 -6.20122 0
M  V30 2438 H 223.205 -1.15222 -2.74064 0
M  V30 2439 H 220.738 -0.706112 -1.37308 0
M  V30 2440 H 222.696 1.01565 -3.97737 0
M  V30 2441 H 221.357 1.32084 -2.84978 0
M  V30 2442 H 220.55 0.357607 -5.0273 0
M  V30 2443 H 220.152 -0.720968 -3.66985 0
M  V30 2444 H 222.444 -0.0744325 -6.77459 0
M  V30 2445 H 223.387 -1.59353 -6.89937 0
M  V30 2446 H 223.795 -0.400383 -5.63078 0
M  V30 2447 N 223.193 1.4272 -0.668489 0
M  V30 2448 C 224.126 2.28111 0.0637898 0
M  V30 2449 C 225.104 1.40705 0.814912 0
M  V30 2450 O 226.288 1.70146 0.81134 0
M  V30 2451 C 223.415 3.20429 1.0974 0
M  V30 2452 C 222.461 4.24197 0.442579 0
M  V30 2453 S 223.294 5.29563 -0.795173 0
M  V30 2454 C 224.45 6.25449 0.237516 0
M  V30 2455 H 224.683 2.8987 -0.660521 0
M  V30 2456 H 222.216 1.47456 -0.457821 0
M  V30 2457 H 224.174 3.74158 1.68868 0
M  V30 2458 H 222.835 2.57818 1.79411 0
M  V30 2459 H 222.028 4.88954 1.22227 0
M  V30 2460 H 221.63 3.73925 -0.0749554 0
M  V30 2461 H 223.922 6.68524 1.09915 0
M  V30 2462 H 224.865 7.07104 -0.375421 0
M  V30 2463 H 225.273 5.61511 0.580167 0
M  V30 2464 N 224.671 0.411399 1.52136 0
M  V30 2465 C 225.896 -0.165538 2.06738 0
M  V30 2466 C 226.321 -1.379 1.27926 0
M  V30 2467 O 225.679 -1.78628 0.310114 0
M  V30 2468 C 225.727 -0.492124 3.57226 0
M  V30 2469 O 224.831 -1.58276 3.80818 0
M  V30 2470 H 224.172 -0.0132132 0.663869 0
M  V30 2471 H 226.702 0.585253 1.96051 0
M  V30 2472 H 226.712 -0.750104 4.01045 0
M  V30 2473 H 225.387 0.394922 4.14021 0
M  V30 2474 H 223.964 -1.31677 3.48877 0
M  V30 2475 N 226.149 -1.5696 0.141893 0
M  V30 2476 C 227.397 -1.95573 -0.509484 0
M  V30 2477 C 227.718 -1.02746 -1.65736 0
M  V30 2478 O 226.988 -0.0880311 -1.95702 0
M  V30 2479 H 225.568 -0.722115 -0.191205 0
M  V30 2480 H 228.23 -1.93697 0.216196 0
M  V30 2481 H 227.326 -2.99171 -0.889 0
M  V30 2482 N 227.627 0.131896 -1.57047 0
M  V30 2483 C 228.873 0.843179 -1.84441 0
M  V30 2484 C 229.206 1.80129 -0.725749 0
M  V30 2485 O 228.481 1.92624 0.269469 0
M  V30 2486 C 228.764 1.60442 -3.22382 0
M  V30 2487 C 228.617 0.666782 -4.4483 0
M  V30 2488 C 229.936 2.56354 -3.5773 0
M  V30 2489 H 227.055 0.305081 -0.670891 0
M  V30 2490 H 229.697 0.107839 -1.89694 0
M  V30 2491 H 227.847 2.23128 -3.18035 0
M  V30 2492 H 229.519 0.0497646 -4.61273 0
M  V30 2493 H 227.762 -0.022609 -4.33794 0
M  V30 2494 H 228.433 1.23579 -5.37989 0
M  V30 2495 H 230.909 2.0378 -3.62785 0
M  V30 2496 H 229.785 3.06657 -4.5525 0
M  V30 2497 H 230.046 3.38419 -2.84473 0
M  V30 2498 N 229.106 1.52395 0.401703 0
M  V30 2499 C 230.334 1.70676 1.16949 0
M  V30 2500 C 230.749 0.419503 1.8408 0
M  V30 2501 O 230.106 -0.605061 1.72178 0
M  V30 2502 C 230.157 2.84753 2.22706 0
M  V30 2503 O 229.878 4.08495 1.58314 0
M  V30 2504 C 231.379 3.14608 3.12309 0
M  V30 2505 H 228.599 0.571787 0.351142 0
M  V30 2506 H 231.143 1.98987 0.471652 0
M  V30 2507 H 229.298 2.58941 2.88147 0
M  V30 2508 H 229.712 4.72117 2.28485 0
M  V30 2509 H 231.186 3.97923 3.82572 0
M  V30 2510 H 231.663 2.28464 3.75101 0
M  V30 2511 H 232.269 3.42212 2.52529 0
M  V30 2512 N 230.584 -0.659388 1.43143 0
M  V30 2513 C 231.812 -1.44723 1.47861 0
M  V30 2514 C 232.227 -1.88563 0.0945886 0
M  V30 2515 O 231.584 -1.59108 -0.893915 0
M  V30 2516 C 231.635 -2.68627 2.41913 0
M  V30 2517 O 231.356 -2.26623 3.74932 0
M  V30 2518 C 232.857 -3.62045 2.55809 0
M  V30 2519 H 230.077 -0.444801 0.502387 0
M  V30 2520 H 232.621 -0.808916 1.87821 0
M  V30 2521 H 230.776 -3.28613 2.05164 0
M  V30 2522 H 231.19 -3.06745 4.2545 0
M  V30 2523 H 232.664 -4.45666 3.25708 0
M  V30 2524 H 233.141 -4.08981 1.60099 0
M  V30 2525 H 233.747 -3.07944 2.93344 0
M  V30 2526 N 232.062 -1.29571 -0.897171 0
M  V30 2527 C 232.992 -1.17473 -2.01798 0
M  V30 2528 C 233.973 -0.068323 -1.69963 0
M  V30 2529 O 235.158 -0.248239 -1.92607 0
M  V30 2530 C 232.288 -0.853099 -3.36659 0
M  V30 2531 C 231.242 -1.9161 -3.82713 0
M  V30 2532 C 230.568 -1.44773 -5.14728 0
M  V30 2533 C 231.868 -3.32535 -4.02763 0
M  V30 2534 H 233.562 -2.11237 -2.12177 0
M  V30 2535 H 231.108 -1.01699 -1.01948 0
M  V30 2536 H 233.061 -0.755165 -4.14578 0
M  V30 2537 H 231.785 0.120236 -3.26379 0
M  V30 2538 H 230.444 -2.00346 -3.07013 0
M  V30 2539 H 230.092 -0.462995 -5.00865 0
M  V30 2540 H 229.792 -2.15865 -5.46513 0
M  V30 2541 H 231.316 -1.36334 -5.95185 0
M  V30 2542 H 232.73 -3.26626 -4.71156 0
M  V30 2543 H 231.127 -4.01607 -4.45905 0
M  V30 2544 H 232.197 -3.75326 -3.07016 0
M  V30 2545 N 233.54 1.10788 -1.12088 0
M  V30 2546 C 234.786 1.82942 -0.875226 0
M  V30 2547 C 235.119 1.84779 0.597538 0
M  V30 2548 O 234.394 1.30578 1.44152 0
M  V30 2549 C 234.677 3.29789 -1.44606 0
M  V30 2550 C 234.53 3.36307 -2.98693 0
M  V30 2551 C 235.849 4.26064 -1.10261 0
M  V30 2552 H 232.968 0.664195 -0.319397 0
M  V30 2553 H 235.61 1.29867 -1.38689 0
M  V30 2554 H 233.76 3.75118 -1.01089 0
M  V30 2555 H 235.432 2.99487 -3.50864 0
M  V30 2556 H 233.675 2.76318 -3.34411 0
M  V30 2557 H 234.346 4.39694 -3.33726 0
M  V30 2558 H 236.822 3.88951 -1.4784 0
M  V30 2559 H 235.698 5.27183 -1.52869 0
M  V30 2560 H 235.959 4.42098 -0.0142953 0
M  V30 2561 N 235.018 0.912232 1.28515 0
M  V30 2562 C 235.951 0.343928 2.25593 0
M  V30 2563 C 236.929 -0.550994 1.5298 0
M  V30 2564 O 238.113 -0.494991 1.81885 0
M  V30 2565 C 235.24 -0.508525 3.34861 0
M  V30 2566 C 234.286 0.320808 4.25292 0
M  V30 2567 S 235.119 1.72658 5.06902 0
M  V30 2568 C 236.275 0.881394 6.19663 0
M  V30 2569 H 236.508 1.16674 2.73449 0
M  V30 2570 H 234.041 0.713384 1.36931 0
M  V30 2571 H 235.999 -0.994539 3.9827 0
M  V30 2572 H 234.66 -1.30571 2.85675 0
M  V30 2573 H 233.853 -0.330941 5.02912 0
M  V30 2574 H 233.455 0.74042 3.66598 0
M  V30 2575 H 235.747 0.110359 6.7741 0
M  V30 2576 H 236.69 1.63009 6.89082 0
M  V30 2577 H 237.098 0.430239 5.62858 0
M  V30 2578 N 236.496 -1.42363 0.676048 0
M  V30 2579 C 237.446 -2.27987 -0.0242903 0
M  V30 2580 C 238.43 -1.41153 -0.772319 0
M  V30 2581 O 239.622 -1.64592 -0.651025 0
M  V30 2582 C 236.751 -3.29195 -0.973953 0
M  V30 2583 C 235.837 -4.23512 -0.223202 0
M  V30 2584 N 236.228 -4.99865 0.772589 0
M  V30 2585 C 234.526 -4.43606 -0.461469 0
M  V30 2586 C 235.227 -5.68757 1.22027 0
M  V30 2587 N 234.203 -5.40811 0.549975 0
M  V30 2588 H 238.005 -2.84445 0.73949 0
M  V30 2589 H 235.519 -1.54341 0.50522 0
M  V30 2590 H 237.516 -3.89339 -1.49067 0
M  V30 2591 H 236.176 -2.74298 -1.73755 0
M  V30 2592 H 237.187 -5.04921 1.15217 0
M  V30 2593 H 233.864 -3.99749 -1.20446 0
M  V30 2594 H 235.254 -6.40007 2.0455 0
M  V30 2595 N 237.974 -0.419461 -1.51915 0
M  V30 2596 C 239.199 0.154572 -2.06823 0
M  V30 2597 C 239.624 1.3722 -1.28656 0
M  V30 2598 O 238.982 1.78461 -0.319583 0
M  V30 2599 C 239.03 0.473172 -3.57482 0
M  V30 2600 O 238.134 1.56255 -3.81652 0
M  V30 2601 H 237.475 0.0096924 -0.663929 0
M  V30 2602 H 240.005 -0.595642 -1.95738 0
M  V30 2603 H 240.015 0.728825 -4.01438 0
M  V30 2604 H 238.69 -0.416873 -4.13805 0
M  V30 2605 H 237.267 1.29825 -3.49571 0
M  V30 2606 N 239.452 1.56882 -0.150215 0
M  V30 2607 C 240.399 2.16922 0.788244 0
M  V30 2608 C 241.369 1.10303 1.24187 0
M  V30 2609 O 242.554 1.38359 1.31383 0
M  V30 2610 C 239.694 2.79754 2.02068 0
M  V30 2611 C 238.807 4.00775 1.61257 0
M  V30 2612 C 237.942 4.51595 2.79705 0
M  V30 2613 C 236.981 5.65074 2.35282 0
M  V30 2614 N 236.118 6.10499 3.4675 0
M  V30 2615 H 240.958 2.96779 0.269444 0
M  V30 2616 H 238.495 1.46599 0.12128 0
M  V30 2617 H 240.453 3.14329 2.74323 0
M  V30 2618 H 239.083 2.02536 2.51354 0
M  V30 2619 H 238.135 3.72158 0.787553 0
M  V30 2620 H 239.447 4.82978 1.24633 0
M  V30 2621 H 238.601 4.88242 3.60145 0
M  V30 2622 H 237.34 3.68406 3.19576 0
M  V30 2623 H 236.345 5.28 1.53283 0
M  V30 2624 H 237.57 6.50052 1.96493 0
M  V30 2625 H 235.516 5.30243 3.86236 0
M  V30 2626 H 235.433 6.87637 3.14152 0
M  V30 2627 H 236.701 6.51791 4.27537 0
M  V30 2628 N 240.93 -0.123565 1.57115 0
M  V30 2629 C 242.177 -0.832153 1.84612 0
M  V30 2630 C 242.505 -1.80093 0.734627 0
M  V30 2631 O 241.76 -1.93766 -0.27442 0
M  V30 2632 C 242.059 -1.62016 3.18568 0
M  V30 2633 C 241.725 -0.796084 4.43817 0
M  V30 2634 C 240.387 -0.568816 4.77826 0
M  V30 2635 C 242.739 -0.221364 5.2073 0
M  V30 2636 C 240.067 0.243499 5.86194 0
M  V30 2637 C 242.419 0.578117 6.29953 0
M  V30 2638 C 241.083 0.815744 6.62497 0
M  V30 2639 H 240.353 -0.304507 0.675542 0
M  V30 2640 H 243 -0.0947248 1.91266 0
M  V30 2641 H 241.305 -2.42837 3.0747 0
M  V30 2642 H 243.002 -2.17231 3.37064 0
M  V30 2643 H 239.592 -0.983307 4.17168 0
M  V30 2644 H 243.776 -0.384173 4.94811 0
M  V30 2645 H 239.032 0.436871 6.09837 0
M  V30 2646 H 243.206 1.03046 6.88734 0
M  V30 2647 H 240.833 1.44701 7.46301 0
M  V30 2648 N 242.408 -1.52605 -0.393616 0
M  V30 2649 C 243.633 -1.71592 -1.16495 0
M  V30 2650 C 244.058 -0.43133 -1.83088 0
M  V30 2651 O 243.416 0.612523 -1.7064 0
M  V30 2652 C 243.464 -2.86318 -2.19213 0
M  V30 2653 O 242.568 -2.52969 -3.257 0
M  V30 2654 H 241.909 -0.570734 -0.33935 0
M  V30 2655 H 244.439 -1.99377 -0.459324 0
M  V30 2656 H 244.449 -3.1168 -2.63286 0
M  V30 2657 H 243.124 -3.79511 -1.7013 0
M  V30 2658 H 241.701 -2.38332 -2.86797 0
M  V30 2659 N 243.887 0.651787 -1.4349 0
M  V30 2660 C 245.136 1.40754 -1.44469 0
M  V30 2661 C 245.449 1.95463 -0.0731845 0
M  V30 2662 O 246.655 2.71471 0.0395721 0
M  V30 2663 C 245.111 2.54735 -2.5424 0
M  V30 2664 C 244.719 2.06628 -3.97504 0
M  V30 2665 C 246.463 3.32092 -2.64414 0
M  V30 2666 C 244.37 3.17829 -4.98737 0
M  V30 2667 H 243.3 0.528862 -0.53742 0
M  V30 2668 H 245.951 0.703365 -1.69485 0
M  V30 2669 H 244.333 3.2763 -2.22428 0
M  V30 2670 H 245.507 1.40734 -4.38783 0
M  V30 2671 H 243.822 1.42146 -3.91387 0
M  V30 2672 H 246.419 4.14952 -3.37223 0
M  V30 2673 H 246.762 3.80217 -1.69532 0
M  V30 2674 H 247.295 2.66279 -2.95534 0
M  V30 2675 H 244.034 2.74671 -5.95177 0
M  V30 2676 H 243.554 3.82429 -4.62069 0
M  V30 2677 H 245.233 3.82937 -5.21505 0
M  V30 2678 N 245.365 1.30045 0.890287 0
M  V30 2679 C 246.642 1.09227 1.62262 0
M  V30 2680 C 247.022 -0.360305 2.08002 0
M  V30 2681 O 246.37 -1.35084 1.84295 0
M  V30 2682 C 246.58 2.08835 2.79623 0
M  V30 2683 C 247.928 2.40266 3.50082 0
M  V30 2684 O 248.952 2.07104 2.89804 0
M  V30 2685 O 247.811 2.96967 4.58773 0
M  V30 2686 H 244.905 0.419132 0.712922 0
M  V30 2687 H 247.451 1.41451 0.937529 0
M  V30 2688 H 246.223 3.06633 2.43089 0
M  V30 2689 H 245.846 1.77397 3.55832 0
M  V30 2690 N 246.843 -1.10192 1.12674 0
M  V30 2691 C 248.089 -1.82475 0.884915 0
M  V30 2692 C 248.422 -1.85093 -0.58773 0
M  V30 2693 O 247.697 -1.3134 -1.43457 0
M  V30 2694 C 247.98 -3.29018 1.46353 0
M  V30 2695 C 247.833 -3.34718 3.00473 0
M  V30 2696 C 249.152 -4.25473 1.12519 0
M  V30 2697 H 246.271 -0.662492 0.322915 0
M  V30 2698 H 248.913 -1.2913 1.39375 0
M  V30 2699 H 247.063 -3.74576 1.03077 0
M  V30 2700 H 248.735 -2.97622 3.52447 0
M  V30 2701 H 246.978 -2.74541 3.35872 0
M  V30 2702 H 247.649 -4.37918 3.36053 0
M  V30 2703 H 250.125 -3.88161 1.499 0
M  V30 2704 H 249.001 -5.26365 1.55663 0
M  V30 2705 H 249.262 -4.42084 0.0377407 0
M  V30 2706 N 248.321 -0.919034 -1.28029 0
M  V30 2707 C 249.57 -0.550802 -1.94034 0
M  V30 2708 C 249.883 0.910877 -1.73096 0
M  V30 2709 O 251.089 1.3875 -2.33368 0
M  V30 2710 C 249.545 -0.934249 -3.47563 0
M  V30 2711 C 249.153 -2.41602 -3.7727 0
M  V30 2712 C 250.897 -0.636854 -4.19696 0
M  V30 2713 C 248.804 -2.73932 -5.24133 0
M  V30 2714 H 247.734 -0.202273 -0.726362 0
M  V30 2715 H 250.385 -1.11867 -1.45458 0
M  V30 2716 H 248.767 -0.295115 -3.94899 0
M  V30 2717 H 249.941 -3.10233 -3.40723 0
M  V30 2718 H 248.256 -2.68441 -3.18321 0
M  V30 2719 H 250.853 -0.855005 -5.2782 0
M  V30 2720 H 251.196 0.425575 -4.14119 0
M  V30 2721 H 251.729 -1.23469 -3.78154 0
M  V30 2722 H 248.468 -3.79049 -5.34792 0
M  V30 2723 H 247.988 -2.09942 -5.61858 0
M  V30 2724 H 249.667 -2.61215 -5.91925 0
M  V30 2725 N 249.799 1.42003 -0.683588 0
M  V30 2726 C 251.045 2.01712 -0.209825 0
M  V30 2727 C 251.378 1.53968 1.18353 0
M  V30 2728 O 250.653 0.745661 1.79639 0
M  V30 2729 C 250.936 3.59202 -0.254197 0
M  V30 2730 C 250.789 4.17102 -1.68363 0
M  V30 2731 C 252.108 4.38344 0.392709 0
M  V30 2732 H 249.227 0.732891 -0.0777189 0
M  V30 2733 H 251.869 1.68909 -0.87004 0
M  V30 2734 H 250.019 3.87278 0.307954 0
M  V30 2735 H 251.691 3.99946 -2.29871 0
M  V30 2736 H 249.934 3.72597 -2.22157 0
M  V30 2737 H 250.605 5.26249 -1.6663 0
M  V30 2738 H 253.081 4.16011 -0.0859162 0
M  V30 2739 H 251.957 5.47901 0.331063 0
M  V30 2740 H 252.218 4.16887 1.47164 0
M  V30 2741 N 251.277 0.427512 1.51691 0
M  V30 2742 C 252.554 -0.201684 1.94557 0
M  V30 2743 C 252.934 -1.60981 1.36559 0
M  V30 2744 O 252.282 -2.21814 0.548702 0
M  V30 2745 C 252.492 -0.189394 3.48486 0
M  V30 2746 C 253.84 -0.39978 4.22714 0
M  V30 2747 O 254.864 -0.267945 3.55191 0
M  V30 2748 O 253.723 -0.661249 5.42485 0
M  V30 2749 H 250.817 -0.135261 0.815864 0
M  V30 2750 H 253.363 0.484782 1.62628 0
M  V30 2751 H 252.135 0.795431 3.8313 0
M  V30 2752 H 251.758 -0.919187 3.86829 0
M  V30 2753 N 252.755 -1.56801 0.158532 0
M  V30 2754 C 254.004 -1.95665 -0.489702 0
M  V30 2755 C 254.317 -1.04654 -1.65248 0
M  V30 2756 O 255.523 -1.33146 -2.3661 0
M  V30 2757 C 253.979 -3.47874 -0.922582 0
M  V30 2758 C 253.587 -4.47489 0.213893 0
M  V30 2759 C 255.331 -3.95583 -1.53996 0
M  V30 2760 C 253.238 -5.90921 -0.237903 0
M  V30 2761 H 252.168 -0.730516 -0.186716 0
M  V30 2762 H 254.819 -1.81861 0.244722 0
M  V30 2763 H 253.201 -3.57051 -1.71261 0
M  V30 2764 H 254.375 -4.50017 0.991036 0
M  V30 2765 H 252.69 -4.09764 0.740407 0
M  V30 2766 H 255.287 -5.0019 -1.8898 0
M  V30 2767 H 255.63 -3.37789 -2.43319 0
M  V30 2768 H 256.163 -3.8937 -0.814611 0
M  V30 2769 H 252.902 -6.52559 0.620236 0
M  V30 2770 H 252.422 -5.91729 -0.980676 0
M  V30 2771 H 254.101 -6.43352 -0.686067 0
M  V30 2772 N 254.233 0.115231 -1.57178 0
M  V30 2773 C 255.163 1.1423 -2.03651 0
M  V30 2774 C 256.144 1.42967 -0.921655 0
M  V30 2775 O 257.329 1.53343 -1.19162 0
M  V30 2776 C 254.459 2.4675 -2.44401 0
M  V30 2777 C 253.413 2.32467 -3.59365 0
M  V30 2778 C 252.739 3.69984 -3.86026 0
M  V30 2779 C 254.039 1.78203 -4.90959 0
M  V30 2780 H 255.733 0.755749 -2.89705 0
M  V30 2781 H 253.279 0.362093 -1.39373 0
M  V30 2782 H 255.232 3.18854 -2.75517 0
M  V30 2783 H 253.956 2.87302 -1.55322 0
M  V30 2784 H 252.615 1.62811 -3.28463 0
M  V30 2785 H 252.263 4.08028 -2.94147 0
M  V30 2786 H 251.963 3.61279 -4.63412 0
M  V30 2787 H 253.487 4.43587 -4.19599 0
M  V30 2788 H 254.901 2.40128 -5.20587 0
M  V30 2789 H 253.298 1.8031 -5.72371 0
M  V30 2790 H 254.368 0.739876 -4.79222 0
M  V30 2791 N 255.711 1.52812 0.385517 0
M  V30 2792 C 256.659 1.78482 1.49155 0
M  V30 2793 C 257.653 0.652914 1.56312 0
M  V30 2794 O 258.859 0.835464 1.59436 0
M  V30 2795 H 255.234 0.5648 0.496493 0
M  V30 2796 H 257.205 2.71095 1.24699 0
M  V30 2797 C 255.954 1.97378 2.86247 0
M  V30 2798 H 255.277 2.83907 2.81491 0
M  V30 2799 H 256.717 2.19327 3.62866 0
M  V30 2800 C 255.176 0.74728 3.28508 0
M  V30 2801 O 255.706 -0.0736232 4.01633 0
M  V30 2802 N 253.912 0.576396 2.84826 0
M  V30 2803 H 253.459 1.24555 2.25486 0
M  V30 2804 H 253.417 -0.24288 3.1346 0
M  V30 2805 N 257.189 -0.644168 1.43834 0
M  V30 2806 C 258.099 -1.78563 1.52159 0
M  V30 2807 C 259.115 -1.69147 0.408069 0
M  V30 2808 O 260.291 -1.90156 0.663524 0
M  V30 2809 C 257.356 -3.14888 1.45073 0
M  V30 2810 C 256.417 -3.36034 2.6717 0
M  V30 2811 C 255.65 -4.65855 2.60413 0
M  V30 2812 O 255.873 -5.45805 1.65689 0
M  V30 2813 O 254.807 -4.88918 3.5106 0
M  V30 2814 H 258.633 -1.74494 2.48567 0
M  V30 2815 H 256.218 -0.80378 1.25935 0
M  V30 2816 H 258.1 -3.96179 1.43597 0
M  V30 2817 H 256.775 -3.19528 0.518037 0
M  V30 2818 H 255.682 -2.54472 2.74217 0
M  V30 2819 H 257.015 -3.36247 3.59442 0
M  V30 2820 N 258.668 -1.30515 -0.883378 0
M  V30 2821 C 259.896 -1.22359 -1.66841 0
M  V30 2822 C 260.311 0.213296 -1.87591 0
M  V30 2823 O 259.668 1.14075 -1.42454 0
M  V30 2824 C 259.719 -1.95011 -3.04389 0
M  V30 2825 O 259.44 -3.3309 -2.84575 0
M  V30 2826 C 260.941 -1.93532 -3.98824 0
M  V30 2827 H 258.161 -0.423371 -0.520575 0
M  V30 2828 H 260.705 -1.72167 -1.10357 0
M  V30 2829 H 258.86 -1.48997 -3.57601 0
M  V30 2830 H 259.274 -3.69907 -3.71846 0
M  V30 2831 H 260.748 -2.48902 -4.92699 0
M  V30 2832 H 261.225 -0.914627 -4.29571 0
M  V30 2833 H 261.831 -2.39364 -3.51547 0
M  V30 2834 N 260.146 1.09593 -1.13257 0
M  V30 2835 C 261.078 2.16015 -0.766167 0
M  V30 2836 C 262.091 1.61423 0.211303 0
M  V30 2837 O 263.28 1.78498 -0.00863946 0
M  V30 2838 C 260.38 3.38706 -0.114662 0
M  V30 2839 C 259.553 4.22717 -1.12379 0
M  V30 2840 C 258.612 5.23835 -0.498301 0
M  V30 2841 O 257.638 5.573 -1.15781 0
M  V30 2842 N 258.84 5.75886 0.730417 0
M  V30 2843 H 261.605 2.48055 -1.68193 0
M  V30 2844 H 259.166 1.25292 -1.02535 0
M  V30 2845 H 261.158 4.03464 0.315991 0
M  V30 2846 H 259.728 3.04569 0.704011 0
M  V30 2847 H 258.948 3.54122 -1.73179 0
M  V30 2848 H 260.236 4.75673 -1.80589 0
M  V30 2849 H 259.634 5.50911 1.28504 0
M  V30 2850 H 258.191 6.42387 1.10376 0
M  V30 2851 N 261.624 0.925811 1.2754 0
M  V30 2852 C 262.554 0.440748 2.29303 0
M  V30 2853 C 263.535 -0.497971 1.62648 0
M  V30 2854 O 264.72 -0.403126 1.8997 0
M  V30 2855 C 261.85 -0.309048 3.45922 0
M  V30 2856 C 260.804 0.54166 4.24559 0
M  V30 2857 C 260.13 -0.337191 5.33636 0
M  V30 2858 C 261.43 1.80516 4.90114 0
M  V30 2859 H 263.124 1.29121 2.70126 0
M  V30 2860 H 260.67 0.622323 1.29858 0
M  V30 2861 H 262.623 -0.659315 4.1621 0
M  V30 2862 H 261.347 -1.19352 3.04011 0
M  V30 2863 H 260.006 0.874609 3.56014 0
M  V30 2864 H 259.654 -1.22056 4.87966 0
M  V30 2865 H 259.354 0.228497 5.87156 0
M  V30 2866 H 260.878 -0.683072 6.06767 0
M  V30 2867 H 262.292 1.52307 5.52698 0
M  V30 2868 H 260.689 2.3142 5.53683 0
M  V30 2869 H 261.759 2.52581 4.13921 0
M  V30 2870 N 263.102 -1.41638 0.69111 0
M  V30 2871 C 264.012 -2.34588 0.0233487 0
M  V30 2872 C 265.028 -1.55987 -0.770984 0
M  V30 2873 O 266.204 -1.88486 -0.709569 0
M  V30 2874 C 263.269 -3.34684 -0.904851 0
M  V30 2875 C 262.33 -4.29176 -0.103225 0
M  V30 2876 C 261.563 -5.2449 -0.987216 0
M  V30 2877 O 261.786 -5.2514 -2.22674 0
M  V30 2878 O 260.72 -6.00295 -0.439281 0
M  V30 2879 H 264.546 -2.93261 0.789416 0
M  V30 2880 H 262.131 -1.42417 0.45142 0
M  V30 2881 H 264.013 -3.96133 -1.43724 0
M  V30 2882 H 262.688 -2.78461 -1.65049 0
M  V30 2883 H 261.595 -3.71089 0.473655 0
M  V30 2884 H 262.928 -4.88484 0.60365 0
M  V30 2885 N 264.58 -0.43555 -1.51462 0
M  V30 2886 C 265.826 0.123979 -2.03022 0
M  V30 2887 C 266.181 1.4054 -1.31401 0
M  V30 2888 O 265.474 1.86948 -0.419634 0
M  V30 2889 C 265.668 0.39942 -3.55161 0
M  V30 2890 C 265.497 -0.853754 -4.41521 0
M  V30 2891 C 264.267 -1.38675 -4.85898 0
M  V30 2892 C 266.465 -1.73939 -4.83994 0
M  V30 2893 N 264.447 -2.59265 -5.56466 0
M  V30 2894 C 265.818 -2.79135 -5.5361 0
M  V30 2895 C 267.873 -1.75402 -4.65981 0
M  V30 2896 C 266.576 -3.85737 -6.07124 0
M  V30 2897 C 268.602 -2.80938 -5.20411 0
M  V30 2898 C 267.964 -3.84854 -5.89972 0
M  V30 2899 H 264.063 0.00624887 -0.781975 0
M  V30 2900 H 266.647 -0.59582 -1.85359 0
M  V30 2901 H 264.818 1.08825 -3.72843 0
M  V30 2902 H 266.55 0.95015 -3.93388 0
M  V30 2903 H 263.305 -0.94094 -4.64159 0
M  V30 2904 H 263.729 -3.2041 -5.96378 0
M  V30 2905 H 268.371 -0.963926 -4.11665 0
M  V30 2906 H 266.089 -4.65586 -6.60496 0
M  V30 2907 H 269.675 -2.8301 -5.08327 0
M  V30 2908 H 268.555 -4.65176 -6.31333 0
M  V30 2909 N 266.058 1.56714 -0.166846 0
M  V30 2910 C 266.988 2.20754 0.760913 0
M  V30 2911 C 267.969 1.16178 1.24244 0
M  V30 2912 O 269.154 1.44592 1.29641 0
M  V30 2913 C 266.284 2.84478 1.99223 0
M  V30 2914 C 265.238 3.95053 1.64672 0
M  V30 2915 C 264.564 4.45805 2.95232 0
M  V30 2916 C 265.864 5.14865 0.878155 0
M  V30 2917 H 267.558 2.98537 0.22713 0
M  V30 2918 H 265.104 1.43596 0.107805 0
M  V30 2919 H 267.057 3.27951 2.64624 0
M  V30 2920 H 265.781 2.04056 2.55007 0
M  V30 2921 H 264.44 3.52228 1.01641 0
M  V30 2922 H 264.088 3.62181 3.49047 0
M  V30 2923 H 263.788 5.204 2.7287 0
M  V30 2924 H 265.312 4.91962 3.6167 0
M  V30 2925 H 266.726 5.55059 1.43466 0
M  V30 2926 H 265.123 5.95348 0.753738 0
M  V30 2927 H 266.193 4.84735 -0.126377 0
M  V30 2928 N 267.536 -0.106894 1.57237 0
M  V30 2929 C 268.776 -0.818277 1.87306 0
M  V30 2930 C 269.14 -1.76474 0.756371 0
M  V30 2931 O 270.341 -2.5186 0.939155 0
M  V30 2932 C 268.612 -1.53806 3.22612 0
M  V30 2933 S 270.171 -2.28935 3.74345 0
M  V30 2934 H 266.989 -0.272862 0.656557 0
M  V30 2935 H 269.591 -0.075988 1.95352 0
M  V30 2936 H 268.295 -0.834951 4.01817 0
M  V30 2937 H 267.826 -2.32049 3.17674 0
M  V30 2938 H 269.841 -3.54871 3.46815 0
M  V30 2939 N 269.014 -1.53014 -0.377408 0
M  V30 2940 C 269.944 -1.81589 -1.46791 0
M  V30 2941 C 270.925 -0.668622 -1.56408 0
M  V30 2942 O 272.11 -0.917337 -1.71168 0
M  V30 2943 C 269.24 -1.99519 -2.8427 0
M  V30 2944 C 268.194 -3.15249 -2.89486 0
M  V30 2945 C 267.52 -3.18451 -4.29527 0
M  V30 2946 C 268.82 -4.54084 -2.58079 0
M  V30 2947 H 270.514 -2.7291 -1.23127 0
M  V30 2948 H 268.06 -1.31319 -0.590883 0
M  V30 2949 H 270.013 -2.18092 -3.60575 0
M  V30 2950 H 268.737 -1.04897 -3.09296 0
M  V30 2951 H 267.396 -2.96477 -2.15631 0
M  V30 2952 H 267.044 -2.2149 -4.5161 0
M  V30 2953 H 266.744 -3.962 -4.33934 0
M  V30 2954 H 268.268 -3.39193 -5.07721 0
M  V30 2955 H 269.682 -4.72899 -3.24098 0
M  V30 2956 H 268.079 -5.33987 -2.7382 0
M  V30 2957 H 269.149 -4.60006 -1.53372 0
M  V30 2958 N 270.492 0.636531 -1.44174 0
M  V30 2959 C 271.769 1.39463 -1.37148 0
M  V30 2960 C 272.149 2.11082 -0.027507 0
M  V30 2961 O 271.497 2.05954 0.989716 0
M  V30 2962 C 271.707 2.36552 -2.56601 0
M  V30 2963 C 273.055 3.00048 -3.00427 0
M  V30 2964 O 274.079 2.46878 -2.56767 0
M  V30 2965 O 272.938 3.96488 -3.76111 0
M  V30 2966 H 270.032 0.623903 -0.542839 0
M  V30 2967 H 272.578 0.662039 -1.56253 0
M  V30 2968 H 271.35 1.82692 -3.46034 0
M  V30 2969 H 270.973 3.17236 -2.39681 0
M  V30 2970 N 271.97 1.30982 0.876444 0
M  V30 2971 C 272.9 1.20668 1.99903 0
M  V30 2972 C 273.881 0.095354 1.69833 0
M  V30 2973 O 275.066 0.27885 1.92188 0
M  V30 2974 C 272.196 0.90655 3.3526 0
M  V30 2975 C 271.15 1.97675 3.79617 0
M  V30 2976 C 270.476 1.52943 5.1236 0
M  V30 2977 C 271.776 3.389 3.97422 0
M  V30 2978 H 273.47 2.14586 2.0879 0
M  V30 2979 H 271.016 1.03308 1.00317 0
M  V30 2980 H 272.969 0.821025 4.13324 0
M  V30 2981 H 271.693 -0.0682969 3.26529 0
M  V30 2982 H 270.352 2.05205 3.03787 0
M  V30 2983 H 270 0.54262 5.00065 0
M  V30 2984 H 269.7 2.24532 5.43009 0
M  V30 2985 H 271.224 1.45786 5.92941 0
M  V30 2986 H 272.638 3.34081 4.659 0
M  V30 2987 H 271.035 4.0865 4.3946 0
M  V30 2988 H 272.105 3.80163 3.01006 0
M  V30 2989 N 273.449 -1.08991 1.13837 0
M  V30 2990 C 274.726 -1.77863 0.813876 0
M  V30 2991 C 275.106 -1.99375 -0.693746 0
M  V30 2992 O 274.454 -1.59875 -1.63255 0
M  V30 2993 C 274.664 -3.0986 1.60586 0
M  V30 2994 C 276.012 -3.84493 1.8014 0
M  V30 2995 O 277.036 -3.19624 1.57222 0
M  V30 2996 O 275.895 -5.00957 2.18413 0
M  V30 2997 H 272.989 -0.771589 0.297624 0
M  V30 2998 H 275.535 -1.15507 1.24323 0
M  V30 2999 H 274.307 -2.89715 2.63022 0
M  V30 3000 H 273.93 -3.79942 1.17173 0
M  V30 3001 N 274.927 -0.932562 -1.27047 0
M  V30 3002 C 275.857 -0.452902 -2.29066 0
M  V30 3003 C 276.838 0.489338 -1.62909 0
M  V30 3004 O 278.023 0.393046 -1.90181 0
M  V30 3005 C 275.153 0.290698 -3.46081 0
M  V30 3006 C 274.107 -0.564168 -4.24265 0
M  V30 3007 C 273.433 0.308886 -5.33807 0
M  V30 3008 C 274.733 -1.83112 -4.89149 0
M  V30 3009 H 276.427 -1.30552 -2.69437 0
M  V30 3010 H 273.973 -0.629201 -1.29526 0
M  V30 3011 H 275.926 0.637233 -4.16554 0
M  V30 3012 H 274.65 1.17738 -3.0464 0
M  V30 3013 H 273.309 -0.893477 -3.55545 0
M  V30 3014 H 272.957 1.19467 -4.88607 0
M  V30 3015 H 272.657 -0.259633 -5.87026 0
M  V30 3016 H 274.181 0.650884 -6.07121 0
M  V30 3017 H 275.595 -1.55236 -5.51883 0
M  V30 3018 H 273.992 -2.34353 -5.52448 0
M  V30 3019 H 275.062 -2.54772 -4.12576 0
M  V30 3020 N 276.405 1.4127 -0.698611 0
M  V30 3021 C 277.651 2.01478 -0.231207 0
M  V30 3022 C 277.984 1.55215 1.16713 0
M  V30 3023 O 277.259 0.764672 1.78838 0
M  V30 3024 C 277.542 3.58912 -0.292281 0
M  V30 3025 C 277.395 4.15293 -1.72778 0
M  V30 3026 C 278.714 4.38736 0.346194 0
M  V30 3027 H 275.833 0.732025 -0.0854878 0
M  V30 3028 H 278.475 1.67977 -0.887906 0
M  V30 3029 H 276.625 3.87582 0.26686 0
M  V30 3030 H 278.297 3.97486 -2.341 0
M  V30 3031 H 276.54 3.7022 -2.26096 0
M  V30 3032 H 277.211 5.24452 -1.72202 0
M  V30 3033 H 279.687 4.15897 -0.130035 0
M  V30 3034 H 278.563 5.48221 0.272932 0
M  V30 3035 H 278.824 4.18425 1.42734 0
M  V30 3036 N 277.883 0.443576 1.51229 0
M  V30 3037 C 278.793 -0.370721 2.31652 0
M  V30 3038 C 279.809 -1.02186 1.40833 0
M  V30 3039 O 280.985 -1.01586 1.73903 0
M  V30 3040 C 278.05 -1.45376 3.14749 0
M  V30 3041 C 277.111 -0.822099 4.21355 0
M  V30 3042 C 276.344 -1.85353 5.0048 0
M  V30 3043 O 276.567 -3.07656 4.80316 0
M  V30 3044 O 275.501 -1.4406 5.84406 0
M  V30 3045 H 279.327 0.286002 3.0235 0
M  V30 3046 H 276.912 0.20598 1.47973 0
M  V30 3047 H 278.794 -2.08173 3.66391 0
M  V30 3048 H 277.469 -2.09445 2.46809 0
M  V30 3049 H 276.376 -0.155909 3.73775 0
M  V30 3050 H 277.709 -0.224797 4.91686 0
M  V30 3051 N 279.361 -1.56624 0.175154 0
M  V30 3052 C 280.609 -1.96609 -0.467885 0
M  V30 3053 C 280.93 -1.06238 -1.63519 0
M  V30 3054 O 280.2 -0.129523 -1.95471 0
M  V30 3055 H 278.78 -0.726008 -0.175845 0
M  V30 3056 H 281.442 -1.93195 0.257234 0
M  V30 3057 H 280.538 -3.00989 -0.825342 0
M  V30 3058 N 280.839 0.0985539 -1.57292 0
M  V30 3059 C 281.769 1.12064 -2.04851 0
M  V30 3060 C 282.75 1.41981 -0.936767 0
M  V30 3061 O 283.935 1.52071 -1.20781 0
M  V30 3062 C 281.065 2.44144 -2.47004 0
M  V30 3063 C 280.019 2.28643 -3.6181 0
M  V30 3064 C 279.345 3.65869 -3.89929 0
M  V30 3065 C 280.645 1.72986 -4.92822 0
M  V30 3066 H 282.339 0.724979 -2.9049 0
M  V30 3067 H 279.885 0.34729 -1.39749 0
M  V30 3068 H 281.838 3.15914 -2.78884 0
M  V30 3069 H 280.562 2.85639 -1.5836 0
M  V30 3070 H 279.221 1.59318 -3.30172 0
M  V30 3071 H 278.869 4.04885 -2.98458 0
M  V30 3072 H 278.569 3.56344 -4.67218 0
M  V30 3073 H 280.093 4.39112 -4.2428 0
M  V30 3074 H 281.507 2.34593 -5.23105 0
M  V30 3075 H 279.904 1.74229 -5.74251 0
M  V30 3076 H 280.974 0.689007 -4.7998 0
M  V30 3077 N 282.317 1.53212 0.369288 0
M  V30 3078 C 283.247 1.82365 1.45826 0
M  V30 3079 C 284.228 0.676907 1.56051 0
M  V30 3080 O 285.413 0.926401 1.70679 0
M  V30 3081 C 282.543 2.01023 2.83208 0
M  V30 3082 C 281.497 3.1678 2.8781 0
M  V30 3083 C 280.823 3.20724 4.27832 0
M  V30 3084 C 282.123 4.55447 2.55667 0
M  V30 3085 H 283.817 2.73559 1.21678 0
M  V30 3086 H 281.363 1.3163 0.583911 0
M  V30 3087 H 283.316 2.20001 3.59413 0
M  V30 3088 H 282.04 1.06536 3.08736 0
M  V30 3089 H 280.699 2.97616 2.14056 0
M  V30 3090 H 280.347 2.23882 4.50429 0
M  V30 3091 H 280.047 3.98496 4.31827 0
M  V30 3092 H 281.571 3.41881 5.05915 0
M  V30 3093 H 282.985 4.74611 3.21586 0
M  V30 3094 H 281.382 5.35432 2.70984 0
M  V30 3095 H 282.452 4.60812 1.5093 0
M  V30 3096 N 283.795 -0.628877 1.44509 0
M  V30 3097 C 284.743 -1.76193 1.51852 0
M  V30 3098 C 285.737 -1.64849 0.390042 0
M  V30 3099 O 286.943 -1.709 0.565082 0
M  V30 3100 H 283.318 -0.581728 0.476547 0
M  V30 3101 H 285.289 -1.67123 2.47209 0
M  V30 3102 C 284.038 -3.14533 1.48204 0
M  V30 3103 H 283.361 -3.23911 2.34354 0
M  V30 3104 H 284.801 -3.93701 1.57402 0
M  V30 3105 C 283.26 -3.36287 0.203142 0
M  V30 3106 O 283.79 -3.9509 -0.725745 0
M  V30 3107 N 281.996 -2.90408 0.105563 0
M  V30 3108 H 281.543 -2.42739 0.862301 0
M  V30 3109 H 281.501 -3.05339 -0.749371 0
M  V30 3110 N 285.273 -1.31445 -0.869486 0
M  V30 3111 C 286.223 -1.15731 -1.96444 0
M  V30 3112 C 287.207 -0.0681855 -1.60755 0
M  V30 3113 O 288.399 -0.293154 -1.74555 0
M  V30 3114 C 285.528 -0.867255 -3.32165 0
M  V30 3115 C 284.614 -1.99738 -3.74119 0
M  V30 3116 N 285.005 -3.24447 -3.88031 0
M  V30 3117 C 283.303 -1.89723 -4.03635 0
M  V30 3118 C 284.004 -3.98374 -4.23879 0
M  V30 3119 N 282.98 -3.26547 -4.3459 0
M  V30 3120 H 286.782 -2.10296 -2.05312 0
M  V30 3121 H 284.296 -1.23009 -1.06031 0
M  V30 3122 H 286.293 -0.735668 -4.10358 0
M  V30 3123 H 284.953 0.0701614 -3.24624 0
M  V30 3124 H 285.964 -3.59557 -3.72746 0
M  V30 3125 H 282.641 -1.03449 -4.04481 0
M  V30 3126 H 284.031 -5.05844 -4.42235 0
M  V30 3127 N 286.751 1.08385 -1.14413 0
M  V30 3128 C 288 1.80153 -0.907076 0
M  V30 3129 C 288.313 1.87176 0.567851 0
M  V30 3130 O 289.519 2.55359 0.922172 0
M  V30 3131 C 287.975 3.23687 -1.57336 0
M  V30 3132 C 287.583 3.24897 -3.08457 0
M  V30 3133 C 289.327 4.00136 -1.41744 0
M  V30 3134 C 287.234 4.6302 -3.67921 0
M  V30 3135 H 286.164 0.675139 -0.335714 0
M  V30 3136 H 288.815 1.21733 -1.37307 0
M  V30 3137 H 287.197 3.82234 -1.03505 0
M  V30 3138 H 288.371 2.76055 -3.68958 0
M  V30 3139 H 286.686 2.61943 -3.2369 0
M  V30 3140 H 289.283 5.02201 -1.83572 0
M  V30 3141 H 289.626 4.14709 -0.363576 0
M  V30 3142 H 290.159 3.48058 -1.92614 0
M  V30 3143 H 286.898 4.5365 -4.73161 0
M  V30 3144 H 286.418 5.12143 -3.12201 0
M  V30 3145 H 288.097 5.31994 -3.68227 0
M  V30 3146 N 288.23 0.939286 1.26551 0
M  V30 3147 C 289.178 0.43815 2.28436 0
M  V30 3148 C 290.172 -0.483587 1.62351 0
M  V30 3149 O 291.378 -0.362009 1.76322 0
M  V30 3150 H 287.753 0.123149 0.741848 0
M  V30 3151 H 289.724 1.31002 2.68106 0
M  V30 3152 C 288.473 -0.283052 3.46546 0
M  V30 3153 H 287.796 0.417043 3.97619 0
M  V30 3154 H 289.236 -0.597948 4.19763 0
M  V30 3155 C 287.695 -1.50018 3.01656 0
M  V30 3156 O 288.225 -2.59855 3.0633 0
M  V30 3157 N 286.431 -1.35608 2.57019 0
M  V30 3158 H 285.978 -0.46244 2.53415 0
M  V30 3159 H 285.936 -2.17165 2.27347 0
M  V30 3160 N 289.708 -1.40897 0.706093 0
M  V30 3161 C 290.618 -2.3455 0.0482286 0
M  V30 3162 C 291.634 -1.56796 -0.754396 0
M  V30 3163 O 292.81 -1.89228 -0.689538 0
M  V30 3164 C 289.875 -3.35625 -0.869303 0
M  V30 3165 C 288.936 -4.29261 -0.0576994 0
M  V30 3166 C 288.169 -5.25508 -0.931531 0
M  V30 3167 O 288.392 -5.27472 -2.17092 0
M  V30 3168 O 287.326 -6.00727 -0.375587 0
M  V30 3169 H 291.152 -2.92407 0.820476 0
M  V30 3170 H 288.737 -1.4193 0.4665 0
M  V30 3171 H 290.619 -3.97635 -1.39514 0
M  V30 3172 H 289.294 -2.80196 -1.62086 0
M  V30 3173 H 288.201 -3.70566 0.512988 0
M  V30 3174 H 289.534 -4.87817 0.655426 0
M  V30 3175 N 291.186 -0.45159 -1.50991 0
M  V30 3176 C 292.116 0.342898 -2.30969 0
M  V30 3177 C 293.097 1.00815 -1.37005 0
M  V30 3178 O 294.282 1.00907 -1.65926 0
M  V30 3179 C 291.412 1.43637 -3.16205 0
M  V30 3180 C 290.366 0.893818 -4.18563 0
M  V30 3181 C 289.692 2.08411 -4.92411 0
M  V30 3182 C 290.992 -0.0815568 -5.22236 0
M  V30 3183 H 292.686 -0.324556 -2.97636 0
M  V30 3184 H 290.232 -0.157531 -1.43136 0
M  V30 3185 H 292.185 1.9995 -3.70942 0
M  V30 3186 H 290.909 2.13232 -2.47386 0
M  V30 3187 H 289.568 0.352798 -3.64898 0
M  V30 3188 H 289.216 2.76658 -4.20082 0
M  V30 3189 H 288.916 1.72741 -5.61636 0
M  V30 3190 H 290.44 2.65251 -5.49976 0
M  V30 3191 H 291.854 0.391742 -5.7196 0
M  V30 3192 H 290.251 -0.351551 -5.99069 0
M  V30 3193 H 291.321 -1.01374 -4.74185 0
M  V30 3194 N 292.664 1.56529 -0.183458 0
M  V30 3195 C 294.075 1.83739 0.331177 0
M  V30 3196 C 294.426 1.10373 1.62211 0
M  V30 3197 O 293.551 0.36071 2.13373 0
M  V30 3198 C 294.146 3.33306 0.607646 0
M  V30 3199 C 292.705 3.60969 1.06668 0
M  V30 3200 C 291.852 2.77086 0.109029 0
M  V30 3201 H 294.803 1.53379 -0.407484 0
M  V30 3202 H 294.824 3.51444 1.45832 0
M  V30 3203 H 294.336 3.86677 -0.332086 0
M  V30 3204 H 292.437 3.13021 2.0211 0
M  V30 3205 H 292.55 4.69231 0.967447 0
M  V30 3206 H 290.914 2.47319 0.608714 0
M  V30 3207 H 291.697 3.33241 -0.82494 0
M  V30 3208 N 294.142 -0.090211 1.57342 0
M  V30 3209 C 295.092 -1.11557 1.98844 0
M  V30 3210 C 296.076 -1.35503 0.867624 0
M  V30 3211 O 297.268 -1.36113 1.13148 0
M  V30 3212 C 294.397 -2.43446 2.42051 0
M  V30 3213 C 293.483 -2.22853 3.60828 0
M  V30 3214 N 293.874 -1.72141 4.75606 0
M  V30 3215 C 292.172 -2.53401 3.67021 0
M  V30 3216 C 292.873 -1.65932 5.57531 0
M  V30 3217 N 291.849 -2.11323 5.00843 0
M  V30 3218 H 295.651 -0.716499 2.85032 0
M  V30 3219 H 293.165 -0.297567 1.59651 0
M  V30 3220 H 295.162 -3.17644 2.70014 0
M  V30 3221 H 293.822 -2.84087 1.57241 0
M  V30 3222 H 294.833 -1.41268 4.98261 0
M  V30 3223 H 291.51 -2.97532 2.92884 0
M  V30 3224 H 292.9 -1.27733 6.59647 0
M  V30 3225 N 295.62 -1.53406 -0.361157 0
M  V30 3226 C 296.55 -1.83136 -1.44857 0
M  V30 3227 C 297.531 -0.685174 -1.5569 0
M  V30 3228 O 298.716 -0.93544 -1.70186 0
M  V30 3229 C 295.846 -2.02522 -2.82138 0
M  V30 3230 C 294.8 -3.18302 -2.86126 0
M  V30 3231 C 294.126 -3.22989 -4.26125 0
M  V30 3232 C 295.426 -4.56796 -2.53248 0
M  V30 3233 H 297.12 -2.74201 -1.20226 0
M  V30 3234 H 294.666 -1.31938 -0.576922 0
M  V30 3235 H 296.619 -2.21904 -3.58241 0
M  V30 3236 H 295.343 -1.08172 -3.08166 0
M  V30 3237 H 294.002 -2.98747 -2.12475 0
M  V30 3238 H 293.65 -2.26267 -4.49235 0
M  V30 3239 H 293.35 -4.00781 -4.29708 0
M  V30 3240 H 294.874 -3.44559 -5.04094 0
M  V30 3241 H 296.288 -4.7631 -3.19064 0
M  V30 3242 H 294.685 -5.36862 -2.68141 0
M  V30 3243 H 295.755 -4.61606 -1.48484 0
M  V30 3244 N 297.098 0.621204 -1.44841 0
M  V30 3245 C 298.045 1.73267 -1.5247 0
M  V30 3246 C 299.015 1.6189 -0.371611 0
M  V30 3247 O 300.2 1.81668 -0.58321 0
M  V30 3248 C 297.34 3.11545 -1.48438 0
M  V30 3249 C 296.453 3.33827 -2.74196 0
M  V30 3250 C 295.588 4.62133 -2.61929 0
M  V30 3251 C 294.627 4.77627 -3.82804 0
M  V30 3252 N 293.764 5.97219 -3.69153 0
M  V30 3253 H 298.604 1.66082 -2.47428 0
M  V30 3254 H 296.141 0.810026 -1.22788 0
M  V30 3255 H 298.099 3.91528 -1.4409 0
M  V30 3256 H 296.729 3.1772 -0.570402 0
M  V30 3257 H 295.781 2.47715 -2.88689 0
M  V30 3258 H 297.093 3.41153 -3.6389 0
M  V30 3259 H 296.247 5.50291 -2.5547 0
M  V30 3260 H 294.986 4.57182 -1.69811 0
M  V30 3261 H 293.991 3.87896 -3.89637 0
M  V30 3262 H 295.216 4.84385 -4.75971 0
M  V30 3263 H 293.162 5.93339 -2.79794 0
M  V30 3264 H 293.079 6.05644 -4.52472 0
M  V30 3265 H 294.347 6.87912 -3.66603 0
M  V30 3266 N 298.576 1.31904 0.862503 0
M  V30 3267 C 299.524 1.20125 1.9918 0
M  V30 3268 C 300.518 0.107824 1.69056 0
M  V30 3269 O 301.724 0.270223 1.7796 0
M  V30 3270 H 298.099 0.372148 0.65346 0
M  V30 3271 H 300.07 2.15652 2.06244 0
M  V30 3272 C 298.819 0.933099 3.34946 0
M  V30 3273 H 298.142 1.76664 3.5865 0
M  V30 3274 H 299.582 0.890892 4.14535 0
M  V30 3275 C 298.041 -0.364172 3.34926 0
M  V30 3276 O 298.571 -1.37858 3.77304 0
M  V30 3277 N 296.777 -0.383362 2.8806 0
M  V30 3278 H 296.324 0.442651 2.53768 0
M  V30 3279 H 296.282 -1.25123 2.8843 0
M  V30 3280 N 300.054 -1.07777 1.14986 0
M  V30 3281 C 300.984 -2.16865 0.865557 0
M  V30 3282 C 301.965 -1.69123 -0.182083 0
M  V30 3283 O 303.15 -1.94164 -0.0373815 0
M  V30 3284 C 300.28 -3.45539 0.349313 0
M  V30 3285 C 299.234 -4.06708 1.33313 0
M  V30 3286 C 298.56 -5.30411 0.675918 0
M  V30 3287 C 299.86 -4.47241 2.69764 0
M  V30 3288 H 301.554 -2.40905 1.77778 0
M  V30 3289 H 299.1 -1.15781 0.856203 0
M  V30 3290 H 301.053 -4.21174 0.137983 0
M  V30 3291 H 299.777 -3.21072 -0.598362 0
M  V30 3292 H 298.436 -3.33112 1.53075 0
M  V30 3293 H 298.084 -5.02232 -0.277767 0
M  V30 3294 H 297.784 -5.72293 1.33244 0
M  V30 3295 H 299.308 -6.08755 0.474262 0
M  V30 3296 H 300.722 -5.14025 2.53873 0
M  V30 3297 H 299.119 -5.00062 3.3175 0
M  V30 3298 H 300.189 -3.58818 3.26156 0
M  V30 3299 N 301.532 -0.945985 -1.26051 0
M  V30 3300 C 302.781 -0.591836 -1.92822 0
M  V30 3301 C 303.094 0.873956 -1.7499 0
M  V30 3302 O 304.3 1.33769 -2.36259 0
M  V30 3303 C 302.756 -1.00776 -3.45503 0
M  V30 3304 C 302.364 -2.4955 -3.7206 0
M  V30 3305 C 304.108 -0.725735 -4.1825 0
M  V30 3306 C 302.015 -2.84988 -5.18205 0
M  V30 3307 H 300.945 -0.217635 -0.721908 0
M  V30 3308 H 303.596 -1.14927 -1.43052 0
M  V30 3309 H 301.978 -0.378812 -3.94184 0
M  V30 3310 H 303.152 -3.1739 -3.34066 0
M  V30 3311 H 301.467 -2.75133 -3.12555 0
M  V30 3312 H 304.064 -0.966771 -5.25887 0
M  V30 3313 H 304.407 0.337639 -4.14929 0
M  V30 3314 H 304.94 -1.31463 -3.7545 0
M  V30 3315 H 301.679 -3.90307 -5.26631 0
M  V30 3316 H 301.199 -2.21813 -5.57278 0
M  V30 3317 H 302.878 -2.73712 -5.86252 0
M  V30 3318 N 303.011 1.40521 -0.713556 0
M  V30 3319 C 304.26 2.00155 -0.249192 0
M  V30 3320 C 304.573 1.57224 1.16362 0
M  V30 3321 O 305.779 2.09542 1.72639 0
M  V30 3322 C 304.235 3.5773 -0.3946 0
M  V30 3323 C 303.843 4.09635 -1.81392 0
M  V30 3324 C 305.587 4.24499 0.00907364 0
M  V30 3325 C 303.494 5.59707 -1.91003 0
M  V30 3326 H 302.424 0.74868 -0.0894114 0
M  V30 3327 H 305.075 1.60784 -0.884352 0
M  V30 3328 H 303.457 3.94792 0.30911 0
M  V30 3329 H 304.631 3.83955 -2.54785 0
M  V30 3330 H 302.946 3.55456 -2.16888 0
M  V30 3331 H 305.543 5.34683 -0.0420404 0
M  V30 3332 H 305.886 4.02824 1.05065 0
M  V30 3333 H 306.419 3.92536 -0.645007 0
M  V30 3334 H 303.158 5.86234 -2.93275 0
M  V30 3335 H 302.678 5.87258 -1.22019 0
M  V30 3336 H 304.357 6.24776 -1.6812 0
M  V30 3337 N 304.489 0.459591 1.5075 0
M  V30 3338 C 305.419 -0.330644 2.31147 0
M  V30 3339 C 306.4 -1.00087 1.37538 0
M  V30 3340 O 307.585 -1.00025 1.66459 0
M  V30 3341 C 304.715 -1.41958 3.16962 0
M  V30 3342 C 303.669 -0.871608 4.19031 0
M  V30 3343 C 302.995 -2.05797 4.9351 0
M  V30 3344 C 304.295 0.109251 5.22186 0
M  V30 3345 H 305.989 0.340336 2.97459 0
M  V30 3346 H 303.535 0.165119 1.4305 0
M  V30 3347 H 305.488 -1.9798 3.71997 0
M  V30 3348 H 304.212 -2.11917 2.48513 0
M  V30 3349 H 302.871 -0.333442 3.6508 0
M  V30 3350 H 302.519 -2.74427 4.21544 0
M  V30 3351 H 302.219 -1.6976 5.62544 0
M  V30 3352 H 303.743 -2.62331 5.51375 0
M  V30 3353 H 305.157 -0.361405 5.7216 0
M  V30 3354 H 303.554 0.383316 5.98875 0
M  V30 3355 H 304.624 1.03887 4.73641 0
M  V30 3356 N 305.967 -1.56429 0.191757 0
M  V30 3357 C 307.244 -1.89224 -0.495332 0
M  V30 3358 C 307.624 -1.10478 -1.79883 0
M  V30 3359 O 306.972 -0.204852 -2.2758 0
M  V30 3360 C 307.182 -3.41548 -0.717367 0
M  V30 3361 C 308.53 -4.11711 -1.03823 0
M  V30 3362 O 309.554 -3.4698 -0.805204 0
M  V30 3363 O 308.413 -5.2611 -1.47887 0
M  V30 3364 H 305.507 -0.785788 -0.25781 0
M  V30 3365 H 308.053 -1.68111 0.231721 0
M  V30 3366 H 306.825 -3.90772 0.203287 0
M  V30 3367 H 306.448 -3.68342 -1.497 0
M  V30 3368 N 307.445 0.0818655 -1.57387 0
M  V30 3369 C 308.673 0.796108 -1.9097 0
M  V30 3370 C 309.088 1.71626 -0.786757 0
M  V30 3371 O 308.445 1.80908 0.240513 0
M  V30 3372 C 308.496 1.59829 -3.24248 0
M  V30 3373 O 308.217 0.715131 -4.32224 0
M  V30 3374 C 309.718 2.41442 -3.7178 0
M  V30 3375 H 306.938 0.22691 -0.631469 0
M  V30 3376 H 309.482 0.0551439 -2.04426 0
M  V30 3377 H 307.637 2.29163 -3.12351 0
M  V30 3378 H 308.051 1.27205 -5.08841 0
M  V30 3379 H 309.525 2.932 -4.67694 0
M  V30 3380 H 310.002 3.2051 -3.00283 0
M  V30 3381 H 310.608 1.77283 -3.86589 0
M  V30 3382 N 308.923 1.53595 0.353017 0
M  V30 3383 C 309.853 1.83902 1.43883 0
M  V30 3384 C 310.834 0.693421 1.55324 0
M  V30 3385 O 312.019 0.944452 1.69687 0
M  V30 3386 C 309.149 2.04016 2.8106 0
M  V30 3387 C 308.103 3.19814 2.84434 0
M  V30 3388 C 307.429 3.25244 4.24406 0
M  V30 3389 C 308.729 4.58133 2.50822 0
M  V30 3390 H 310.423 2.74835 1.1877 0
M  V30 3391 H 307.969 1.32242 0.569917 0
M  V30 3392 H 309.922 2.238 3.57059 0
M  V30 3393 H 308.646 1.09804 3.07588 0
M  V30 3394 H 307.305 2.9987 2.10887 0
M  V30 3395 H 306.953 2.28646 4.48029 0
M  V30 3396 H 306.653 4.03054 4.27576 0
M  V30 3397 H 308.177 3.47228 5.0226 0
M  V30 3398 H 309.591 4.77995 3.16534 0
M  V30 3399 H 307.988 5.38276 2.6529 0
M  V30 3400 H 309.058 4.62387 1.46034 0
M  V30 3401 N 310.401 -0.613514 1.45168 0
M  V30 3402 C 311.626 -1.40437 1.52618 0
M  V30 3403 C 312.051 -1.87438 0.157707 0
M  V30 3404 O 311.409 -1.59791 -0.856537 0
M  V30 3405 C 311.457 -2.58894 2.51011 0
M  V30 3406 O 310.561 -3.59326 2.02382 0
M  V30 3407 H 309.902 -0.419506 0.514695 0
M  V30 3408 H 312.432 -0.747215 1.90467 0
M  V30 3409 H 312.442 -3.06214 2.69624 0
M  V30 3410 H 311.117 -2.24032 3.50403 0
M  V30 3411 H 309.694 -3.18695 1.93618 0
M  V30 3412 N 311.879 -1.3236 -0.855495 0
M  V30 3413 C 312.826 -1.21225 -1.964 0
M  V30 3414 C 313.796 -0.0946204 -1.6583 0
M  V30 3415 O 314.981 -0.27002 -1.8888 0
M  V30 3416 C 312.121 -0.940419 -3.32039 0
M  V30 3417 C 311.234 -2.14276 -3.75113 0
M  V30 3418 C 310.369 -1.80648 -4.9954 0
M  V30 3419 C 309.408 -2.97208 -5.35102 0
M  V30 3420 N 308.545 -2.63678 -6.50706 0
M  V30 3421 H 313.385 -2.16042 -2.05255 0
M  V30 3422 H 310.922 -1.07451 -1.00463 0
M  V30 3423 H 312.88 -0.763311 -4.10158 0
M  V30 3424 H 311.51 -0.0290413 -3.22787 0
M  V30 3425 H 310.562 -2.43017 -2.92655 0
M  V30 3426 H 311.874 -3.01468 -3.97389 0
M  V30 3427 H 311.028 -1.59484 -5.85363 0
M  V30 3428 H 309.767 -0.906678 -4.79198 0
M  V30 3429 H 308.772 -3.19004 -4.47791 0
M  V30 3430 H 309.997 -3.87918 -5.57401 0
M  V30 3431 H 307.943 -1.76238 -6.31883 0
M  V30 3432 H 307.86 -3.444 -6.72997 0
M  V30 3433 H 309.128 -2.45942 -7.39684 0
M  V30 3434 N 313.357 1.07166 -1.15556 0
M  V30 3435 C 314.305 2.16517 -0.8499 0
M  V30 3436 C 315.299 1.68468 0.177454 0
M  V30 3437 O 316.505 1.79971 0.0323026 0
M  V30 3438 H 312.88 0.706652 -0.25719 0
M  V30 3439 H 314.851 2.39514 -1.77976 0
M  V30 3440 C 313.6 3.45855 -0.357682 0
M  V30 3441 H 312.923 3.83214 -1.13961 0
M  V30 3442 H 314.363 4.23607 -0.182489 0
M  V30 3443 C 312.822 3.24062 0.921152 0
M  V30 3444 O 313.352 3.48813 1.9923 0
M  V30 3445 N 311.558 2.77539 0.86141 0
M  V30 3446 H 311.105 2.57598 -0.0104408 0
M  V30 3447 H 311.063 2.63337 1.71758 0
M  V30 3448 N 314.835 0.952656 1.25548 0
M  V30 3449 C 315.782 0.47008 2.25962 0
M  V30 3450 C 316.752 -0.476384 1.59122 0
M  V30 3451 O 317.937 -0.39007 1.8677 0
M  V30 3452 C 315.077 -0.247881 3.44209 0
M  V30 3453 C 314.19 0.735591 4.25691 0
M  V30 3454 C 313.325 -0.0047306 5.312 0
M  V30 3455 C 312.364 0.969805 6.04368 0
M  V30 3456 N 311.501 0.260486 7.01617 0
M  V30 3457 H 316.341 1.33126 2.66611 0
M  V30 3458 H 313.878 0.66765 1.31076 0
M  V30 3459 H 315.836 -0.680695 4.1161 0
M  V30 3460 H 314.466 -1.07312 3.0444 0
M  V30 3461 H 313.518 1.28689 3.57971 0
M  V30 3462 H 314.83 1.47934 4.76358 0
M  V30 3463 H 313.984 -0.496275 6.04667 0
M  V30 3464 H 312.723 -0.781282 4.81401 0
M  V30 3465 H 311.728 1.47237 5.29718 0
M  V30 3466 H 312.953 1.74655 6.56256 0
M  V30 3467 H 310.899 -0.497364 6.54112 0
M  V30 3468 H 310.816 0.943362 7.50091 0
M  V30 3469 H 312.084 -0.209587 7.79218 0
M  V30 3470 N 316.313 -1.40141 0.720998 0
M  V30 3471 C 317.223 -2.34486 0.0731031 0
M  V30 3472 C 318.239 -1.57587 -0.737723 0
M  V30 3473 O 319.415 -1.89949 -0.669429 0
M  V30 3474 C 316.48 -3.36528 -0.833656 0
M  V30 3475 C 315.541 -4.29298 -0.0121673 0
M  V30 3476 C 314.774 -5.26466 -0.875742 0
M  V30 3477 O 314.997 -5.29745 -2.11485 0
M  V30 3478 O 313.931 -6.01092 -0.31185 0
M  V30 3479 H 317.757 -2.9152 0.851444 0
M  V30 3480 H 315.342 -1.41427 0.481527 0
M  V30 3481 H 317.224 -3.99093 -1.35289 0
M  V30 3482 H 315.899 -2.81899 -1.59105 0
M  V30 3483 H 314.806 -3.70001 0.552262 0
M  V30 3484 H 316.139 -4.87094 0.707129 0
M  V30 3485 N 317.792 -0.46758 -1.50504 0
M  V30 3486 C 319.041 0.0902868 -2.01498 0
M  V30 3487 C 319.354 1.411 -1.35463 0
M  V30 3488 O 320.56 2.0536 -1.77594 0
M  V30 3489 C 319.016 0.21142 -3.59278 0
M  V30 3490 C 318.624 -1.10065 -4.34269 0
M  V30 3491 C 320.368 0.721433 -4.18325 0
M  V30 3492 C 318.275 -0.943505 -5.83825 0
M  V30 3493 H 317.205 0.037517 -0.753066 0
M  V30 3494 H 319.856 -0.601943 -1.73346 0
M  V30 3495 H 318.238 0.967352 -3.84003 0
M  V30 3496 H 319.412 -1.86726 -4.21272 0
M  V30 3497 H 317.727 -1.5415 -3.86816 0
M  V30 3498 H 320.324 0.85598 -5.27804 0
M  V30 3499 H 320.667 1.71186 -3.79475 0
M  V30 3500 H 321.2 0.0229843 -3.97793 0
M  V30 3501 H 317.939 -1.90719 -6.27141 0
M  V30 3502 H 317.459 -0.217213 -5.99407 0
M  V30 3503 H 319.138 -0.608715 -6.4413 0
M  V30 3504 N 319.27 1.56325 -0.20005 0
M  V30 3505 C 320.218 2.20666 0.735482 0
M  V30 3506 C 321.212 1.17934 1.21605 0
M  V30 3507 O 322.418 1.36068 1.17837 0
M  V30 3508 H 318.793 0.70725 0.255542 0
M  V30 3509 H 320.764 2.9792 0.169166 0
M  V30 3510 C 319.513 2.88391 1.94232 0
M  V30 3511 H 318.836 3.67185 1.58161 0
M  V30 3512 H 320.276 3.3684 2.57517 0
M  V30 3513 C 318.735 1.89692 2.78421 0
M  V30 3514 O 319.265 1.40032 3.76502 0
M  V30 3515 N 317.471 1.57813 2.44015 0
M  V30 3516 H 317.018 1.9839 1.64314 0
M  V30 3517 H 316.976 0.920325 3.00628 0
M  V30 3518 N 320.748 -0.0735177 1.57428 0
M  V30 3519 C 321.678 -1.0879 2.06608 0
M  V30 3520 C 322.659 -1.40473 0.959237 0
M  V30 3521 O 323.844 -1.5013 1.23185 0
M  V30 3522 C 320.974 -2.40183 2.50857 0
M  V30 3523 C 319.928 -2.22858 3.65402 0
M  V30 3524 C 319.254 -3.59619 3.957 0
M  V30 3525 C 320.554 -1.65123 4.95511 0
M  V30 3526 H 322.248 -0.678673 2.91607 0
M  V30 3527 H 319.794 -0.325013 1.40284 0
M  V30 3528 H 321.747 -3.11437 2.83874 0
M  V30 3529 H 320.471 -2.83083 1.62885 0
M  V30 3530 H 319.13 -1.54045 3.32664 0
M  V30 3531 H 318.778 -4.00086 3.04861 0
M  V30 3532 H 318.478 -3.48866 4.72828 0
M  V30 3533 H 320.002 -4.32306 4.31212 0
M  V30 3534 H 321.416 -2.26241 5.26771 0
M  V30 3535 H 319.813 -1.65071 5.7695 0
M  V30 3536 H 320.883 -0.612559 4.81015 0
M  V30 3537 N 322.226 -1.5378 -0.344866 0
M  V30 3538 C 323.174 -1.82373 -1.4437 0
M  V30 3539 C 324.168 -0.694128 -1.54526 0
M  V30 3540 O 325.374 -0.877442 -1.57165 0
M  V30 3541 H 321.749 -0.577765 -0.481344 0
M  V30 3542 H 323.72 -2.74306 -1.17468 0
M  V30 3543 C 322.469 -2.04898 -2.80913 0
M  V30 3544 H 321.792 -2.9127 -2.73865 0
M  V30 3545 H 323.232 -2.28871 -3.56923 0
M  V30 3546 C 321.691 -0.834116 -3.26411 0
M  V30 3547 O 322.221 -0.0328885 -4.01687 0
M  V30 3548 N 320.427 -0.65171 -2.83198 0
M  V30 3549 H 319.974 -1.30489 -2.22104 0
M  V30 3550 H 319.932 0.159686 -3.13994 0
M  V30 3551 N 323.704 0.605807 -1.45491 0
M  V30 3552 C 324.651 1.7164 -1.54299 0
M  V30 3553 C 325.621 1.61486 -0.388761 0
M  V30 3554 O 326.806 1.81039 -0.602445 0
M  V30 3555 C 323.946 3.09953 -1.51734 0
M  V30 3556 C 323.059 3.309 -2.77721 0
M  V30 3557 C 322.194 4.59329 -2.66816 0
M  V30 3558 C 321.233 4.7354 -3.87848 0
M  V30 3559 N 320.37 5.9327 -3.75467 0
M  V30 3560 H 325.21 1.63449 -2.49176 0
M  V30 3561 H 322.747 0.796957 -1.23641 0
M  V30 3562 H 324.705 3.89977 -1.48235 0
M  V30 3563 H 323.335 3.17098 -0.604068 0
M  V30 3564 H 322.387 2.44639 -2.913 0
M  V30 3565 H 323.699 3.37274 -3.67488 0
M  V30 3566 H 322.853 5.4755 -2.61292 0
M  V30 3567 H 321.592 4.55355 -1.74651 0
M  V30 3568 H 320.597 3.83741 -3.93729 0
M  V30 3569 H 321.822 4.79309 -4.81082 0
M  V30 3570 H 319.768 5.90338 -2.86072 0
M  V30 3571 H 319.685 6.00811 -4.5887 0
M  V30 3572 H 320.953 6.83984 -3.73879 0
M  V30 3573 N 325.182 1.32811 0.848464 0
M  V30 3574 C 326.092 1.24278 1.98978 0
M  V30 3575 C 327.108 0.155176 1.73307 0
M  V30 3576 O 328.284 0.376999 1.9784 0
M  V30 3577 C 325.349 0.972444 3.32783 0
M  V30 3578 C 324.41 2.14911 3.71634 0
M  V30 3579 C 323.643 1.89157 4.99054 0
M  V30 3580 O 323.866 0.837165 5.64223 0
M  V30 3581 O 322.8 2.75433 5.35183 0
M  V30 3582 H 326.626 2.20238 2.09115 0
M  V30 3583 H 324.211 1.12762 0.980052 0
M  V30 3584 H 326.093 0.838432 4.12975 0
M  V30 3585 H 324.768 0.043051 3.23671 0
M  V30 3586 H 323.675 2.33862 2.91992 0
M  V30 3587 H 325.008 3.06151 3.85399 0
M  V30 3588 N 326.66 -1.06551 1.16123 0
M  V30 3589 C 327.57 -2.17484 0.879662 0
M  V30 3590 C 328.586 -1.73377 -0.147104 0
M  V30 3591 O 329.762 -2.01379 0.0289128 0
M  V30 3592 C 326.827 -3.44591 0.381829 0
M  V30 3593 C 325.888 -4.0322 1.4735 0
M  V30 3594 C 325.121 -5.24261 0.999324 0
M  V30 3595 O 325.344 -5.70198 -0.151957 0
M  V30 3596 O 324.278 -5.74775 1.78653 0
M  V30 3597 H 328.104 -2.44075 1.80724 0
M  V30 3598 H 325.689 -1.16042 0.940992 0
M  V30 3599 H 327.571 -4.21254 0.111053 0
M  V30 3600 H 326.246 -3.19532 -0.51777 0
M  V30 3601 H 325.153 -3.2806 1.79798 0
M  V30 3602 H 326.486 -4.32568 2.34831 0
M  V30 3603 N 328.138 -0.959301 -1.25041 0
M  V30 3604 C 329.086 -0.474437 -2.2771 0
M  V30 3605 C 330.08 0.457697 -1.631 0
M  V30 3606 O 331.286 0.333912 -1.76876 0
M  V30 3607 H 327.661 -0.134936 -0.739795 0
M  V30 3608 H 329.632 -1.35251 -2.65988 0
M  V30 3609 C 328.381 0.227884 -3.46952 0
M  V30 3610 H 327.704 -0.480248 -3.96905 0
M  V30 3611 H 329.144 0.531091 -4.20661 0
M  V30 3612 C 327.603 1.452 -3.04004 0
M  V30 3613 O 328.133 2.54949 -3.10426 0
M  V30 3614 N 326.339 1.31502 -2.59144 0
M  V30 3615 H 325.886 0.422065 -2.54119 0
M  V30 3616 H 325.844 2.13521 -2.30773 0
M  V30 3617 N 329.616 1.39756 -0.72842 0
M  V30 3618 C 330.564 2.32485 -0.0731849 0
M  V30 3619 C 331.558 1.52717 0.733063 0
M  V30 3620 O 332.764 1.68428 0.634988 0
M  V30 3621 H 329.139 0.751984 -0.00486469 0
M  V30 3622 H 331.11 2.85382 -0.871761 0
M  V30 3623 C 329.859 3.37773 0.824908 0
M  V30 3624 H 329.182 3.99227 0.213915 0
M  V30 3625 H 330.622 4.05121 1.25111 0
M  V30 3626 C 329.081 2.74287 1.95622 0
M  V30 3627 O 329.611 2.61618 3.04826 0
M  V30 3628 N 327.817 2.32475 1.74367 0
M  V30 3629 H 327.364 2.4298 0.855494 0
M  V30 3630 H 327.322 1.90337 2.50238 0
M  V30 3631 N 331.094 0.475555 1.50254 0
M  V30 3632 C 332.042 -0.330276 2.30243 0
M  V30 3633 C 333.036 -0.986306 1.37726 0
M  V30 3634 O 334.242 -0.9169 1.54897 0
M  V30 3635 H 330.617 -0.125353 0.741479 0
M  V30 3636 H 332.588 0.364702 2.96163 0
M  V30 3637 C 331.337 -1.39704 3.18399 0
M  V30 3638 H 330.66 -0.901621 3.89501 0
M  V30 3639 H 332.1 -1.93336 3.77355 0
M  V30 3640 C 330.559 -2.4014 2.36293 0
M  V30 3641 O 331.089 -3.45504 2.04914 0
M  V30 3642 N 329.295 -2.1197 1.98789 0
M  V30 3643 H 328.842 -1.2631 2.24507 0
M  V30 3644 H 328.8 -2.79403 1.44157 0
M  V30 3645 N 332.573 -1.56217 0.208337 0
M  V30 3646 C 333.85 -1.89739 -0.475234 0
M  V30 3647 C 334.23 -1.1238 -1.78701 0
M  V30 3648 O 333.578 -0.228979 -2.2735 0
M  V30 3649 C 333.788 -3.42289 -0.681101 0
M  V30 3650 C 335.136 -4.12789 -0.994507 0
M  V30 3651 O 336.16 -3.47814 -0.768357 0
M  V30 3652 O 335.019 -5.27649 -1.42299 0
M  V30 3653 H 332.113 -0.788478 -0.249461 0
M  V30 3654 H 334.659 -1.67855 0.249538 0
M  V30 3655 H 333.431 -3.90534 0.244722 0
M  V30 3656 H 333.054 -3.69909 -1.45785 0
M  V30 3657 N 334.051 0.0651679 -1.57465 0
M  V30 3658 C 334.998 1.07675 -2.04144 0
M  V30 3659 C 335.968 1.38071 -0.923335 0
M  V30 3660 O 337.153 1.49026 -1.19146 0
M  V30 3661 C 334.293 2.38337 -2.49579 0
M  V30 3662 C 333.406 2.14413 -3.75035 0
M  V30 3663 C 332.541 3.38686 -4.09225 0
M  V30 3664 C 331.58 3.10156 -5.27702 0
M  V30 3665 N 330.717 4.26778 -5.57499 0
M  V30 3666 H 335.557 0.671716 -2.90331 0
M  V30 3667 H 333.094 0.3201 -1.43575 0
M  V30 3668 H 335.052 3.14632 -2.73975 0
M  V30 3669 H 333.682 2.7663 -1.6636 0
M  V30 3670 H 332.734 1.2878 -3.57939 0
M  V30 3671 H 334.046 1.89344 -4.61466 0
M  V30 3672 H 333.2 4.23373 -4.34558 0
M  V30 3673 H 331.939 3.66837 -3.21374 0
M  V30 3674 H 330.944 2.23866 -5.02159 0
M  V30 3675 H 332.169 2.8332 -6.17176 0
M  V30 3676 H 330.115 4.54948 -4.72608 0
M  V30 3677 H 330.032 4.05005 -6.38362 0
M  V30 3678 H 331.3 5.12443 -5.87386 0
M  V30 3679 N 335.529 1.53961 0.336706 0
M  V30 3680 C 336.476 1.82428 1.41381 0
M  V30 3681 C 337.446 0.670444 1.51968 0
M  V30 3682 O 338.631 0.915565 1.67398 0
M  V30 3683 C 335.771 2.04564 2.77934 0
M  V30 3684 C 334.884 3.32267 2.76084 0
M  V30 3685 C 334.019 3.44434 4.04399 0
M  V30 3686 C 333.058 4.66061 3.96804 0
M  V30 3687 N 332.195 4.75224 5.16823 0
M  V30 3688 H 337.035 2.74324 1.16405 0
M  V30 3689 H 334.572 1.35869 0.563752 0
M  V30 3690 H 336.53 2.15388 3.57301 0
M  V30 3691 H 335.16 1.15974 3.01247 0
M  V30 3692 H 334.212 3.3025 1.88784 0
M  V30 3693 H 335.524 4.21733 2.66351 0
M  V30 3694 H 334.678 3.54728 4.92192 0
M  V30 3695 H 333.417 2.53037 4.16921 0
M  V30 3696 H 332.422 4.55838 3.07396 0
M  V30 3697 H 333.647 5.58829 3.85858 0
M  V30 3698 H 331.593 3.86739 5.29876 0
M  V30 3699 H 331.51 5.58636 5.09374 0
M  V30 3700 H 332.778 4.89835 6.06367 0
M  V30 3701 N 337.007 -0.598083 1.45811 0
M  V30 3702 C 337.955 -1.72932 1.55555 0
M  V30 3703 C 338.949 -1.63984 0.424921 0
M  V30 3704 O 340.155 -1.69663 0.601205 0
M  V30 3705 H 336.53 -0.571489 0.488779 0
M  V30 3706 H 338.501 -1.61842 2.50699 0
M  V30 3707 C 337.25 -3.11318 1.54843 0
M  V30 3708 H 336.573 -3.18867 2.41172 0
M  V30 3709 H 338.013 -3.90274 1.65717 0
M  V30 3710 C 336.472 -3.3578 0.274427 0
M  V30 3711 O 337.002 -3.9654 -0.641778 0
M  V30 3712 N 335.208 -2.90119 0.167139 0
M  V30 3713 H 334.755 -2.40855 0.913596 0
M  V30 3714 H 334.713 -3.0686 -0.684435 0
M  V30 3715 N 338.485 -1.33259 -0.841409 0
M  V30 3716 C 339.432 -1.23302 -1.95103 0
M  V30 3717 C 340.402 -0.112204 -1.65721 0
M  V30 3718 O 341.587 -0.290038 -1.88583 0
M  V30 3719 C 338.727 -0.975583 -3.31023 0
M  V30 3720 C 337.84 -2.18243 -3.72819 0
M  V30 3721 C 336.975 -1.85936 -4.97595 0
M  V30 3722 C 336.014 -3.02866 -5.3192 0
M  V30 3723 N 335.151 -2.70565 -6.47873 0
M  V30 3724 H 339.991 -2.18207 -2.02952 0
M  V30 3725 H 337.528 -1.0851 -0.993173 0
M  V30 3726 H 339.486 -0.80677 -4.09325 0
M  V30 3727 H 338.116 -0.0632755 -3.22738 0
M  V30 3728 H 337.168 -2.46107 -2.90061 0
M  V30 3729 H 338.48 -3.05666 -3.94169 0
M  V30 3730 H 337.634 -1.65684 -5.83638 0
M  V30 3731 H 336.373 -0.957452 -4.78209 0
M  V30 3732 H 335.378 -3.23736 -4.44382 0
M  V30 3733 H 336.603 -3.93809 -5.53255 0
M  V30 3734 H 334.549 -1.8293 -6.29978 0
M  V30 3735 H 334.466 -3.51519 -6.69306 0
M  V30 3736 H 335.734 -2.53774 -7.37034 0
M  V30 3737 N 339.963 1.05934 -1.16686 0
M  V30 3738 C 341.188 1.83029 -0.975455 0
M  V30 3739 C 341.613 1.82096 0.471452 0
M  V30 3740 O 340.971 1.22443 1.33706 0
M  V30 3741 C 341.019 3.27372 -1.51195 0
M  V30 3742 O 340.123 4.06054 -0.720701 0
M  V30 3743 H 339.464 0.566194 -0.346872 0
M  V30 3744 H 341.994 1.33541 -1.55009 0
M  V30 3745 H 342.004 3.78186 -1.53099 0
M  V30 3746 H 340.679 3.27366 -2.56523 0
M  V30 3747 H 339.256 3.64812 -0.772458 0
M  V30 3748 N 341.441 0.965919 1.2453 0
M  V30 3749 C 342.666 0.643971 1.97149 0
M  V30 3750 C 343.091 -0.779487 1.71189 0
M  V30 3751 O 342.449 -1.5288 0.974553 0
M  V30 3752 C 342.497 0.922557 3.48599 0
M  V30 3753 O 341.601 0.00707672 4.12399 0
M  V30 3754 H 340.942 0.243647 0.617683 0
M  V30 3755 H 343.472 1.29558 1.58353 0
M  V30 3756 H 343.482 0.853373 3.98976 0
M  V30 3757 H 342.157 1.95996 3.66822 0
M  V30 3758 H 340.734 0.12943 3.72675 0
M  V30 3759 N 342.919 -1.39368 0.735821 0
M  V30 3760 C 344.167 -2.00101 0.283562 0
M  V30 3761 C 344.488 -1.5868 -1.13338 0
M  V30 3762 O 343.758 -0.835423 -1.77193 0
M  V30 3763 H 342.338 -0.740024 0.101851 0
M  V30 3764 H 345 -1.70404 0.945962 0
M  V30 3765 H 344.096 -3.10323 0.332604 0
M  V30 3766 N 344.397 -0.483516 -1.5 0
M  V30 3767 C 345.345 0.318061 -2.30415 0
M  V30 3768 C 346.339 0.978988 -1.38247 0
M  V30 3769 O 347.545 0.908673 -1.55381 0
M  V30 3770 H 343.92 0.121419 -0.742133 0
M  V30 3771 H 345.891 -0.380403 -2.95965 0
M  V30 3772 C 344.64 1.38013 -3.19136 0
M  V30 3773 H 343.963 0.880952 -3.89973 0
M  V30 3774 H 345.403 1.91332 -3.78375 0
M  V30 3775 C 343.862 2.38884 -2.37563 0
M  V30 3776 O 344.392 3.44412 -2.06744 0
M  V30 3777 N 342.598 2.10912 -1.99911 0
M  V30 3778 H 342.145 1.25118 -2.25174 0
M  V30 3779 H 342.103 2.78635 -1.45636 0
M  V30 3780 N 345.875 1.56104 -0.216619 0
M  V30 3781 C 347.1 2.0301 0.424462 0
M  V30 3782 C 347.525 1.0955 1.52907 0
M  V30 3783 O 346.883 0.0827914 1.81111 0
M  V30 3784 C 346.931 3.4819 0.937883 0
M  V30 3785 O 346.035 3.57865 2.04955 0
M  V30 3786 H 345.376 0.656925 0.0966755 0
M  V30 3787 H 347.906 2.01859 -0.33381 0
M  V30 3788 H 347.916 3.88413 1.24897 0
M  V30 3789 H 346.591 4.15699 0.129387 0
M  V30 3790 H 345.168 3.29527 1.74546 0
M  V30 3791 N 347.353 -0.0568162 1.57498 0
M  V30 3792 C 348.581 -0.765626 1.92213 0
M  V30 3793 C 348.996 -1.70353 0.813961 0
M  V30 3794 O 348.353 -1.81268 -0.211701 0
M  V30 3795 C 348.404 -1.5465 3.2675 0
M  V30 3796 O 348.125 -0.646278 4.33307 0
M  V30 3797 C 349.626 -2.35497 3.75574 0
M  V30 3798 H 346.846 -0.216835 0.634999 0
M  V30 3799 H 349.39 -0.0226146 2.04487 0
M  V30 3800 H 347.545 -2.24165 3.15957 0
M  V30 3801 H 347.959 -1.19093 5.108 0
M  V30 3802 H 349.433 -2.85722 4.72299 0
M  V30 3803 H 349.91 -3.15692 3.05344 0
M  V30 3804 H 350.516 -1.7111 3.8936 0
M  V30 3805 N 348.832 -1.54138 -0.328536 0
M  V30 3806 C 350.057 -1.76378 -1.09112 0
M  V30 3807 C 350.482 -0.508596 -1.81094 0
M  V30 3808 O 349.84 0.539598 -1.73084 0
M  V30 3809 C 349.888 -2.95358 -2.06872 0
M  V30 3810 O 348.992 -2.66556 -3.14677 0
M  V30 3811 H 348.333 -0.584614 -0.314838 0
M  V30 3812 H 350.863 -2.01146 -0.374348 0
M  V30 3813 H 350.873 -3.22566 -2.4983 0
M  V30 3814 H 349.548 -3.86385 -1.5388 0
M  V30 3815 H 348.125 -2.50282 -2.7643 0
M  V30 3816 N 350.31 0.590341 -1.46126 0
M  V30 3817 C 351.556 1.35082 -1.51264 0
M  V30 3818 C 351.889 1.93534 -0.160711 0
M  V30 3819 O 351.164 1.76045 0.826956 0
M  V30 3820 C 351.447 2.48588 -2.6053 0
M  V30 3821 C 351.3 1.95221 -4.05227 0
M  V30 3822 C 352.619 3.50662 -2.6594 0
M  V30 3823 H 349.738 0.489803 -0.550692 0
M  V30 3824 H 352.38 0.663887 -1.78024 0
M  V30 3825 H 350.53 3.07186 -2.37843 0
M  V30 3826 H 352.202 1.41139 -4.39178 0
M  V30 3827 H 350.445 1.26101 -4.15068 0
M  V30 3828 H 351.116 2.77121 -4.77397 0
M  V30 3829 H 353.592 3.01934 -2.86313 0
M  V30 3830 H 352.468 4.27551 -3.44226 0
M  V30 3831 H 352.729 4.07399 -1.71694 0
M  V30 3832 N 351.788 1.33704 0.83433 0
M  V30 3833 C 352.735 1.24335 1.94447 0
M  V30 3834 C 353.705 0.120991 1.65659 0
M  V30 3835 O 354.89 0.300035 1.88426 0
M  V30 3836 C 352.03 0.993124 3.30501 0
M  V30 3837 C 351.143 2.20217 3.71657 0
M  V30 3838 C 350.278 1.88572 4.96602 0
M  V30 3839 C 349.317 3.05683 5.30306 0
M  V30 3840 N 348.454 2.73997 6.46429 0
M  V30 3841 H 353.294 2.1928 2.01792 0
M  V30 3842 H 350.831 1.09035 0.987404 0
M  V30 3843 H 352.789 0.828467 4.08892 0
M  V30 3844 H 351.419 0.0803902 3.227 0
M  V30 3845 H 350.471 2.47642 2.88752 0
M  V30 3846 H 351.783 3.07752 3.92543 0
M  V30 3847 H 350.937 1.68776 5.82752 0
M  V30 3848 H 349.676 0.982799 4.77695 0
M  V30 3849 H 348.681 3.26088 4.42659 0
M  V30 3850 H 349.906 3.96737 5.51159 0
M  V30 3851 H 347.852 1.86268 6.28999 0
M  V30 3852 H 347.769 3.55064 6.67432 0
M  V30 3853 H 349.037 2.57679 7.35678 0
M  V30 3854 N 353.266 -1.05314 1.17247 0
M  V30 3855 C 354.514 -1.77941 0.958194 0
M  V30 3856 C 354.835 -1.88089 -0.514556 0
M  V30 3857 O 354.105 -1.39676 -1.37359 0
M  V30 3858 H 352.685 -0.659116 0.351533 0
M  V30 3859 H 355.347 -1.27166 1.47699 0
M  V30 3860 H 354.443 -2.79663 1.38546 0
M  V30 3861 N 354.744 -0.972509 -1.24016 0
M  V30 3862 C 355.692 -0.498562 -2.27194 0
M  V30 3863 C 356.686 0.440372 -1.63576 0
M  V30 3864 O 357.892 0.315133 -1.7722 0
M  V30 3865 H 354.267 -0.142775 -0.738322 0
M  V30 3866 H 356.238 -1.38065 -2.64539 0
M  V30 3867 C 354.987 0.191072 -3.47175 0
M  V30 3868 H 354.31 -0.522318 -3.96373 0
M  V30 3869 H 355.75 0.486445 -4.212 0
M  V30 3870 C 354.209 1.41967 -3.05527 0
M  V30 3871 O 354.739 2.51642 -3.13112 0
M  V30 3872 N 352.945 1.28746 -2.60524 0
M  V30 3873 H 352.492 0.395089 -2.54552 0
M  V30 3874 H 352.45 2.11061 -2.33025 0
M  V30 3875 N 356.222 1.38976 -0.743202 0
M  V30 3876 C 357.499 1.94351 -0.220705 0
M  V30 3877 C 357.879 1.67935 1.2791 0
M  V30 3878 O 357.227 1.01211 2.04862 0
M  V30 3879 C 357.437 3.44426 -0.563171 0
M  V30 3880 C 358.785 4.2144 -0.517046 0
M  V30 3881 O 359.809 3.52661 -0.500846 0
M  V30 3882 O 358.668 5.44032 -0.518806 0
M  V30 3883 H 355.762 0.825879 -0.043047 0
M  V30 3884 H 358.308 1.48429 -0.822618 0
M  V30 3885 H 357.08 3.5712 -1.59941 0
M  V30 3886 H 356.703 3.97543 0.0672883 0
M  V30 3887 N 357.7 0.491464 1.49741 0
M  V30 3888 C 358.63 -0.28154 2.31796 0
M  V30 3889 C 359.611 -0.971473 1.3963 0
M  V30 3890 O 360.796 -0.964719 1.68543 0
M  V30 3891 C 357.926 -1.35203 3.19902 0
M  V30 3892 C 356.88 -0.782529 4.20786 0
M  V30 3893 C 356.206 -1.95283 4.97764 0
M  V30 3894 C 357.506 0.21999 5.21837 0
M  V30 3895 H 359.2 0.403355 2.96671 0
M  V30 3896 H 356.746 0.195425 1.42668 0
M  V30 3897 H 358.699 -1.90045 3.76113 0
M  V30 3898 H 357.423 -2.06598 2.52953 0
M  V30 3899 H 356.082 -0.255928 3.65706 0
M  V30 3900 H 355.73 -2.65423 4.2727 0
M  V30 3901 H 355.43 -1.57789 5.66018 0
M  V30 3902 H 356.954 -2.50577 5.56816 0
M  V30 3903 H 358.368 -0.23996 5.72798 0
M  V30 3904 H 356.765 0.51026 5.97927 0
M  V30 3905 H 357.835 1.13911 4.7133 0
M  V30 3906 N 359.178 -1.55987 0.224894 0
M  V30 3907 C 360.403 -2.03232 -0.41369 0
M  V30 3908 C 360.828 -1.10359 -1.52323 0
M  V30 3909 O 360.186 -0.092395 -1.81064 0
M  V30 3910 C 360.234 -3.48682 -0.919405 0
M  V30 3911 O 359.338 -3.58947 -2.03054 0
M  V30 3912 H 358.679 -0.657428 -0.0931903 0
M  V30 3913 H 361.209 -2.01679 0.34451 0
M  V30 3914 H 361.219 -3.8907 -1.22835 0
M  V30 3915 H 359.894 -4.15761 -0.107339 0
M  V30 3916 H 358.471 -3.30448 -1.72796 0
M  V30 3917 N 360.656 0.0484629 -1.57525 0
M  V30 3918 C 361.604 1.07359 -2.06341 0
M  V30 3919 C 362.598 1.3865 -0.973269 0
M  V30 3920 O 363.804 1.37783 -1.15827 0
M  V30 3921 H 360.179 0.363662 -0.65822 0
M  V30 3922 H 362.15 0.635916 -2.91545 0
M  V30 3923 C 360.899 2.37198 -2.54229 0
M  V30 3924 H 360.222 2.13977 -3.37719 0
M  V30 3925 H 361.662 3.07319 -2.92115 0
M  V30 3926 C 360.121 3.04805 -1.43511 0
M  V30 3927 O 360.651 3.93848 -0.79034 0
M  V30 3928 N 358.857 2.65811 -1.17444 0
M  V30 3929 H 358.404 1.93488 -1.70059 0
M  V30 3930 H 358.362 3.11366 -0.435737 0
M  V30 3931 N 362.134 1.5431 0.320358 0
M  V30 3932 C 363.067 1.78769 1.41834 0
M  V30 3933 C 364.045 0.63783 1.49568 0
M  V30 3934 O 365.229 0.875628 1.66928 0
M  V30 3935 C 362.356 1.90712 2.79905 0
M  V30 3936 C 361.402 3.13023 2.89687 0
M  V30 3937 S 362.235 4.71554 2.53766 0
M  V30 3938 C 363.391 4.86408 3.93902 0
M  V30 3939 H 363.624 2.71619 1.20874 0
M  V30 3940 H 361.157 1.45474 0.517377 0
M  V30 3941 H 363.115 1.98279 3.59438 0
M  V30 3942 H 361.776 0.988343 2.98145 0
M  V30 3943 H 360.969 3.18124 3.90913 0
M  V30 3944 H 360.571 3.03803 2.18128 0
M  V30 3945 H 362.863 4.69241 4.88691 0
M  V30 3946 H 363.806 5.88508 3.93782 0
M  V30 3947 H 364.214 4.14689 3.83005 0
M  V30 3948 N 363.613 -0.582584 1.46437 0
M  V30 3949 C 364.862 -1.337 1.5102 0
M  V30 3950 C 365.175 -1.94891 0.166359 0
M  V30 3951 O 366.381 -2.71351 0.0899954 0
M  V30 3952 C 364.837 -2.42315 2.66104 0
M  V30 3953 C 364.445 -1.87427 4.06909 0
M  V30 3954 C 366.189 -3.19099 2.79958 0
M  V30 3955 C 364.096 -2.93672 5.13333 0
M  V30 3956 H 363.026 -0.502619 0.562041 0
M  V30 3957 H 365.677 -0.621701 1.72647 0
M  V30 3958 H 364.059 -3.16645 2.37807 0
M  V30 3959 H 365.233 -1.19639 4.44998 0
M  V30 3960 H 363.548 -1.2331 3.97723 0
M  V30 3961 H 366.145 -3.9839 3.56636 0
M  V30 3962 H 366.488 -3.71695 1.87479 0
M  V30 3963 H 367.021 -2.51875 3.07902 0
M  V30 3964 H 363.76 -2.45962 6.07604 0
M  V30 3965 H 363.28 -3.59948 4.79789 0
M  V30 3966 H 364.959 -3.5762 5.39182 0
M  V30 3967 N 365.091 -1.34144 -0.827227 0
M  V30 3968 C 366.001 -1.27428 -1.96975 0
M  V30 3969 C 367.017 -0.182728 -1.73038 0
M  V30 3970 O 368.193 -0.408426 -1.97215 0
M  V30 3971 C 365.258 -1.02526 -3.31194 0
M  V30 3972 C 364.319 -2.20796 -3.68168 0
M  V30 3973 C 363.552 -1.97073 -4.95982 0
M  V30 3974 O 363.775 -0.926822 -5.6282 0
M  V30 3975 O 362.709 -2.83912 -5.30733 0
M  V30 3976 H 366.535 -2.23537 -2.05584 0
M  V30 3977 H 364.12 -1.14307 -0.961989 0
M  V30 3978 H 366.002 -0.904026 -4.11589 0
M  V30 3979 H 364.677 -0.0945389 -3.23562 0
M  V30 3980 H 363.584 -2.38477 -2.88235 0
M  V30 3981 H 364.917 -3.12243 -3.8048 0
M  V30 3982 N 366.569 1.04691 -1.17803 0
M  V30 3983 C 367.818 1.77176 -0.963931 0
M  V30 3984 C 368.131 1.88888 0.508015 0
M  V30 3985 O 369.337 2.58164 0.840465 0
M  V30 3986 C 367.793 3.18518 -1.67555 0
M  V30 3987 C 367.401 3.14919 -3.18637 0
M  V30 3988 C 369.145 3.95424 -1.54402 0
M  V30 3989 C 367.052 4.51081 -3.82466 0
M  V30 3990 H 365.982 0.664116 -0.357023 0
M  V30 3991 H 368.633 1.17303 -1.4111 0
M  V30 3992 H 367.015 3.78748 -1.15613 0
M  V30 3993 H 368.189 2.64178 -3.77554 0
M  V30 3994 H 366.504 2.51512 -3.31859 0
M  V30 3995 H 369.101 4.96106 -1.99456 0
M  V30 3996 H 369.444 4.13343 -0.495329 0
M  V30 3997 H 369.977 3.41754 -2.0359 0
M  V30 3998 H 366.716 4.38368 -4.87354 0
M  V30 3999 H 366.236 5.01951 -3.28337 0
M  V30 4000 H 367.915 5.2001 -3.84965 0
M  V30 4001 N 368.047 0.979072 1.23499 0
M  V30 4002 C 369.275 0.665202 1.95915 0
M  V30 4003 C 369.69 -0.767571 1.72493 0
M  V30 4004 O 369.047 -1.51635 1.01554 0
M  V30 4005 C 369.098 0.944438 3.48945 0
M  V30 4006 O 368.819 2.3209 3.71572 0
M  V30 4007 C 370.32 0.646336 4.38563 0
M  V30 4008 H 367.54 0.247218 0.623798 0
M  V30 4009 H 370.084 1.31009 1.57025 0
M  V30 4010 H 368.239 0.345575 3.85856 0
M  V30 4011 H 368.653 2.40957 4.65876 0
M  V30 4012 H 370.127 0.892091 5.44744 0
M  V30 4013 H 370.604 -0.419575 4.37191 0
M  V30 4014 H 371.21 1.22562 4.07258 0
M  V30 4015 N 369.525 -1.3858 0.750561 0
M  V30 4016 C 370.765 -2.02032 0.310258 0
M  V30 4017 C 371.129 -1.58288 -1.08668 0
M  V30 4018 O 372.33 -2.14049 -1.62593 0
M  V30 4019 C 370.601 -3.54856 0.425647 0
M  V30 4020 S 372.16 -4.38748 0.0674797 0
M  V30 4021 H 368.978 -0.700705 0.120554 0
M  V30 4022 H 371.58 -1.69134 0.980512 0
M  V30 4023 H 370.284 -3.84182 1.44335 0
M  V30 4024 H 369.815 -3.92527 -0.261894 0
M  V30 4025 H 371.83 -4.82835 -1.14388 0
M  V30 4026 N 371.003 -0.499398 -1.49478 0
M  V30 4027 C 372.228 0.044722 -2.07352 0
M  V30 4028 C 372.653 1.30207 -1.35749 0
M  V30 4029 O 372.011 1.76516 -0.413732 0
M  V30 4030 C 372.059 0.283013 -3.59488 0
M  V30 4031 O 371.163 1.35804 -3.89398 0
M  V30 4032 H 370.504 -0.0255147 -0.66351 0
M  V30 4033 H 373.034 -0.698561 -1.92305 0
M  V30 4034 H 373.044 0.515007 -4.04737 0
M  V30 4035 H 371.719 -0.635636 -4.11014 0
M  V30 4036 H 370.296 1.11113 -3.55961 0
M  V30 4037 N 372.481 1.55866 -0.233164 0
M  V30 4038 C 373.729 1.9821 0.394593 0
M  V30 4039 C 374.05 1.12234 1.59463 0
M  V30 4040 O 373.32 0.201981 1.94856 0
M  V30 4041 H 371.9 0.732034 0.148778 0
M  V30 4042 H 374.562 1.92107 -0.32876 0
M  V30 4043 H 373.658 3.03845 0.713063 0
M  V30 4044 N 373.959 -0.0401083 1.57549 0
M  V30 4045 C 375.37 -0.588097 1.77196 0
M  V30 4046 C 375.721 -1.76209 0.862832 0
M  V30 4047 O 374.846 -2.16331 0.0548389 0
M  V30 4048 C 375.441 -1.07363 3.21339 0
M  V30 4049 C 374 -1.56723 3.42221 0
M  V30 4050 C 373.147 -0.50041 2.72747 0
M  V30 4051 H 376.098 0.186119 1.57605 0
M  V30 4052 H 376.119 -1.94143 3.27244 0
M  V30 4053 H 375.631 -0.218975 3.87482 0
M  V30 4054 H 373.732 -2.4441 2.81237 0
M  V30 4055 H 373.845 -1.62234 4.50796 0
M  V30 4056 H 372.209 -0.952894 2.36203 0
M  V30 4057 H 372.992 0.344599 3.41566 0
M  V30 4058 N 375.437 -1.54477 -0.31217 0
M  V30 4059 C 376.367 -1.87652 -1.38957 0
M  V30 4060 C 377.348 -0.734358 -1.53431 0
M  V30 4061 O 378.533 -0.98911 -1.67123 0
M  V30 4062 C 375.663 -2.11396 -2.75552 0
M  V30 4063 C 374.617 -3.27243 -2.75855 0
M  V30 4064 C 373.943 -3.36382 -4.15633 0
M  V30 4065 C 375.243 -4.64622 -2.38587 0
M  V30 4066 H 376.937 -2.77887 -1.11442 0
M  V30 4067 H 374.483 -1.33707 -0.534655 0
M  V30 4068 H 376.436 -2.33189 -3.51 0
M  V30 4069 H 375.16 -1.17921 -3.04569 0
M  V30 4070 H 373.819 -3.05356 -2.02863 0
M  V30 4071 H 373.467 -2.40445 -4.41809 0
M  V30 4072 H 373.167 -4.14249 -4.1674 0
M  V30 4073 H 374.691 -3.60422 -4.92877 0
M  V30 4074 H 376.105 -4.86219 -3.03749 0
M  V30 4075 H 374.502 -5.45121 -2.50925 0
M  V30 4076 H 375.572 -4.66097 -1.33723 0
M  V30 4077 N 376.915 0.57481 -1.46744 0
M  V30 4078 C 377.825 1.711 -1.60505 0
M  V30 4079 C 378.841 1.67008 -0.488307 0
M  V30 4080 O 380.017 1.86774 -0.753495 0
M  V30 4081 C 377.082 3.07608 -1.59932 0
M  V30 4082 C 376.143 3.22904 -2.82898 0
M  V30 4083 C 375.376 4.529 -2.82343 0
M  V30 4084 O 375.599 5.37278 -1.91542 0
M  V30 4085 O 374.533 4.71611 -3.73987 0
M  V30 4086 H 378.359 1.62436 -2.56609 0
M  V30 4087 H 375.944 0.742779 -1.29627 0
M  V30 4088 H 377.826 3.88877 -1.62336 0
M  V30 4089 H 376.501 3.16692 -0.669898 0
M  V30 4090 H 375.408 2.41099 -2.86046 0
M  V30 4091 H 376.741 3.18715 -3.75076 0
M  V30 4092 N 378.394 1.34581 0.820102 0
M  V30 4093 C 379.624 1.29991 1.6058 0
M  V30 4094 C 380.032 -0.127588 1.88769 0
M  V30 4095 O 379.375 -1.08595 1.48165 0
M  V30 4096 C 379.437 2.02548 2.9701 0
M  V30 4097 C 379.101 3.51794 2.91701 0
M  V30 4098 C 380.098 4.46647 2.66087 0
M  V30 4099 C 377.783 3.94249 3.11245 0
M  V30 4100 C 379.777 5.81929 2.60071 0
M  V30 4101 C 377.464 5.2963 3.04853 0
M  V30 4102 C 378.462 6.23282 2.793 0
M  V30 4103 O 378.15 7.56181 2.72847 0
M  V30 4104 H 377.882 0.448539 0.505756 0
M  V30 4105 H 380.436 1.77811 1.02822 0
M  V30 4106 H 378.666 1.49345 3.56697 0
M  V30 4107 H 380.355 1.91211 3.58041 0
M  V30 4108 H 381.121 4.15168 2.5072 0
M  V30 4109 H 377 3.21749 3.30149 0
M  V30 4110 H 380.544 6.54999 2.40046 0
M  V30 4111 H 376.441 5.60727 3.19774 0
M  V30 4112 H 377.209 7.6595 2.88553 0
M  V30 4113 N 379.872 -1.04064 1.18357 0
M  V30 4114 C 381.149 -1.74252 0.888581 0
M  V30 4115 C 381.529 -2.02138 -0.60856 0
M  V30 4116 O 380.877 -1.66656 -1.56327 0
M  V30 4117 C 381.087 -3.0277 1.73584 0
M  V30 4118 C 382.435 -3.76506 1.96286 0
M  V30 4119 O 383.459 -3.12668 1.70637 0
M  V30 4120 O 382.318 -4.91243 2.39464 0
M  V30 4121 H 379.412 -0.758271 0.330082 0
M  V30 4122 H 381.958 -1.1013 1.2911 0
M  V30 4123 H 380.73 -2.78299 2.75073 0
M  V30 4124 H 380.353 -3.74631 1.33183 0
M  V30 4125 N 381.35 -0.985608 -1.22978 0
M  V30 4126 C 382.297 -0.529825 -2.24636 0
M  V30 4127 C 383.267 0.434028 -1.60329 0
M  V30 4128 O 384.452 0.340414 -1.87739 0
M  V30 4129 C 381.592 0.156533 -3.44745 0
M  V30 4130 C 380.705 -0.848197 -4.23591 0
M  V30 4131 C 379.84 -0.136109 -5.31026 0
M  V30 4132 C 378.879 -1.1297 -6.01585 0
M  V30 4133 N 378.016 -0.446415 -7.00679 0
M  V30 4134 H 382.856 -1.40148 -2.62988 0
M  V30 4135 H 380.393 -0.702168 -1.29259 0
M  V30 4136 H 382.351 0.571324 -4.1327 0
M  V30 4137 H 380.981 0.992025 -3.07179 0
M  V30 4138 H 380.033 -1.38135 -3.54433 0
M  V30 4139 H 381.345 -1.60512 -4.72268 0
M  V30 4140 H 380.499 0.335784 -6.0577 0
M  V30 4141 H 379.238 0.653373 -4.83304 0
M  V30 4142 H 378.243 -1.6123 -5.25628 0
M  V30 4143 H 379.468 -1.91993 -6.51395 0
M  V30 4144 H 377.414 0.323763 -6.55201 0
M  V30 4145 H 377.331 -1.1419 -7.47326 0
M  V30 4146 H 378.599 0.00291697 -7.795 0
M  V30 4147 N 382.828 1.3818 -0.7579 0
M  V30 4148 C 383.738 2.3421 -0.135247 0
M  V30 4149 C 384.754 1.59487 0.695683 0
M  V30 4150 O 385.93 1.91657 0.618832 0
M  V30 4151 C 382.995 3.3862 0.744139 0
M  V30 4152 C 382.056 4.2918 -0.101658 0
M  V30 4153 C 381.289 5.28603 0.735851 0
M  V30 4154 O 381.512 5.35166 1.97366 0
M  V30 4155 O 380.446 6.01707 0.152372 0
M  V30 4156 H 384.272 2.8916 -0.928436 0
M  V30 4157 H 381.857 1.40101 -0.518855 0
M  V30 4158 H 383.739 4.02539 1.2466 0
M  V30 4159 H 382.414 2.86019 1.51575 0
M  V30 4160 H 381.321 3.68407 -0.650167 0
M  V30 4161 H 382.654 4.85048 -0.836024 0
M  V30 4162 N 384.306 0.507319 1.49211 0
M  V30 4163 C 385.253 -0.267728 2.29242 0
M  V30 4164 C 386.223 -0.954609 1.35928 0
M  V30 4165 O 387.408 -0.960046 1.64887 0
M  V30 4166 C 384.548 -1.32243 3.18756 0
M  V30 4167 C 383.661 -0.64669 4.27132 0
M  V30 4168 C 382.796 -1.68238 5.03855 0
M  V30 4169 C 381.835 -0.98885 6.0406 0
M  V30 4170 N 380.972 -1.96903 6.73924 0
M  V30 4171 H 385.812 0.420968 2.95012 0
M  V30 4172 H 383.349 0.219443 1.45454 0
M  V30 4173 H 385.307 -1.94599 3.69036 0
M  V30 4174 H 383.937 -1.97981 2.54958 0
M  V30 4175 H 382.989 0.0902926 3.80293 0
M  V30 4176 H 384.301 -0.101058 4.98698 0
M  V30 4177 H 383.455 -2.38081 5.58034 0
M  V30 4178 H 382.194 -2.26187 4.32077 0
M  V30 4179 H 381.199 -0.276222 5.49106 0
M  V30 4180 H 382.424 -0.415767 6.77826 0
M  V30 4181 H 380.37 -2.53803 6.04913 0
M  V30 4182 H 380.287 -1.47423 7.41487 0
M  V30 4183 H 381.555 -2.66015 7.32705 0
M  V30 4184 N 385.784 -1.5574 0.241426 0
M  V30 4185 C 386.714 -2.24133 -0.654722 0
M  V30 4186 C 387.695 -1.21974 -1.1856 0
M  V30 4187 O 388.88 -1.50612 -1.22595 0
M  V30 4188 C 386.01 -2.93659 -1.85423 0
M  V30 4189 C 384.964 -4.0246 -1.45636 0
M  V30 4190 C 384.29 -4.59383 -2.73626 0
M  V30 4191 C 385.59 -5.18468 -0.631506 0
M  V30 4192 H 387.284 -2.99281 -0.0844353 0
M  V30 4193 H 384.83 -1.43947 -0.0391707 0
M  V30 4194 H 386.783 -3.40203 -2.48676 0
M  V30 4195 H 385.507 -2.15991 -2.44981 0
M  V30 4196 H 384.166 -3.56676 -0.847202 0
M  V30 4197 H 383.814 -3.78422 -3.3137 0
M  V30 4198 H 383.514 -5.32826 -2.4773 0
M  V30 4199 H 385.038 -5.08658 -3.37786 0
M  V30 4200 H 386.452 -5.61272 -1.1682 0
M  V30 4201 H 384.849 -5.98266 -0.468831 0
M  V30 4202 H 385.919 -4.8358 0.357506 0
M  V30 4203 N 387.262 0.0317525 -1.57568 0
M  V30 4204 C 388.209 1.0332 -2.06382 0
M  V30 4205 C 389.179 1.36082 -0.952414 0
M  V30 4206 O 390.364 1.46466 -1.2228 0
M  V30 4207 C 387.504 2.32989 -2.54578 0
M  V30 4208 C 386.617 2.0641 -3.79498 0
M  V30 4209 C 385.752 3.2993 -4.16317 0
M  V30 4210 C 384.791 2.98893 -5.34162 0
M  V30 4211 N 383.928 4.14857 -5.66426 0
M  V30 4212 H 388.768 0.609982 -2.9169 0
M  V30 4213 H 386.305 0.289573 -1.44222 0
M  V30 4214 H 388.263 3.0875 -2.80587 0
M  V30 4215 H 386.893 2.73039 -1.7219 0
M  V30 4216 H 385.945 1.21158 -3.6059 0
M  V30 4217 H 387.257 1.79513 -4.65378 0
M  V30 4218 H 386.411 4.1406 -4.4344 0
M  V30 4219 H 385.15 3.59938 -3.29083 0
M  V30 4220 H 384.155 2.13164 -5.06795 0
M  V30 4221 H 385.38 2.70165 -6.23047 0
M  V30 4222 H 383.326 4.44821 -4.82151 0
M  V30 4223 H 383.243 3.91374 -6.4681 0
M  V30 4224 H 384.511 4.99868 -5.98124 0
M  V30 4225 N 388.74 1.54641 0.303973 0
M  V30 4226 C 389.687 1.85386 1.37479 0
M  V30 4227 C 390.657 0.702528 1.50512 0
M  V30 4228 O 391.842 0.950867 1.65418 0
M  V30 4229 C 388.982 2.10413 2.73533 0
M  V30 4230 C 388.095 3.38049 2.68974 0
M  V30 4231 C 387.23 3.52934 3.97002 0
M  V30 4232 C 386.269 4.74373 3.86829 0
M  V30 4233 N 385.406 4.8608 5.06627 0
M  V30 4234 H 390.246 2.76732 1.1056 0
M  V30 4235 H 387.783 1.37034 0.534805 0
M  V30 4236 H 389.741 2.22919 3.52652 0
M  V30 4237 H 388.371 1.22338 2.98719 0
M  V30 4238 H 387.423 3.3418 1.81736 0
M  V30 4239 H 388.735 4.27288 2.57346 0
M  V30 4240 H 387.889 3.65088 4.84557 0
M  V30 4241 H 386.628 2.61824 4.1146 0
M  V30 4242 H 385.633 4.62255 2.97658 0
M  V30 4243 H 386.858 5.66888 3.73918 0
M  V30 4244 H 384.804 3.97891 5.21554 0
M  V30 4245 H 384.721 5.69315 4.9741 0
M  V30 4246 H 385.989 5.02587 5.95841 0
M  V30 4247 N 390.218 -0.567019 1.47046 0
M  V30 4248 C 391.448 -1.34831 1.56538 0
M  V30 4249 C 391.856 -1.8802 0.21101 0
M  V30 4250 O 391.199 -1.65152 -0.804387 0
M  V30 4251 C 391.261 -2.56139 2.52256 0
M  V30 4252 C 390.925 -2.24307 3.98165 0
M  V30 4253 C 391.922 -1.82192 4.86931 0
M  V30 4254 C 389.607 -2.35968 4.43423 0
M  V30 4255 C 391.601 -1.52153 6.18973 0
M  V30 4256 C 389.288 -2.05542 5.75496 0
M  V30 4257 C 390.286 -1.63701 6.63092 0
M  V30 4258 O 389.974 -1.33657 7.92711 0
M  V30 4259 H 389.706 -0.417683 0.531523 0
M  V30 4260 H 392.26 -0.694726 1.93294 0
M  V30 4261 H 390.49 -3.24356 2.10548 0
M  V30 4262 H 392.179 -3.18214 2.51982 0
M  V30 4263 H 392.945 -1.72684 4.53217 0
M  V30 4264 H 388.824 -2.67495 3.75456 0
M  V30 4265 H 392.368 -1.19421 6.87302 0
M  V30 4266 H 388.265 -2.14679 6.08755 0
M  V30 4267 H 389.033 -1.4737 8.05124 0
M  V30 4268 N 391.696 -1.35014 -0.812953 0
M  V30 4269 C 392.644 -1.27435 -1.94585 0
M  V30 4270 C 393.638 -0.170494 -1.6854 0
M  V30 4271 O 394.844 -0.336085 -1.76835 0
M  V30 4272 H 391.219 -0.396144 -0.639198 0
M  V30 4273 H 393.19 -2.23158 -1.98098 0
M  V30 4274 C 391.939 -1.05677 -3.31252 0
M  V30 4275 H 391.262 -1.89853 -3.51846 0
M  V30 4276 H 392.702 -1.04413 -4.10943 0
M  V30 4277 C 391.161 0.239615 -3.36047 0
M  V30 4278 O 391.691 1.23759 -3.8216 0
M  V30 4279 N 389.897 0.276186 -2.89285 0
M  V30 4280 H 389.444 -0.53653 -2.51951 0
M  V30 4281 H 389.402 1.14332 -2.92875 0
M  V30 4282 N 393.175 1.03435 -1.18907 0
M  V30 4283 C 394.085 2.15075 -0.937015 0
M  V30 4284 C 395.101 1.73706 0.101085 0
M  V30 4285 O 396.277 2.01232 -0.0822948 0
M  V30 4286 C 393.342 3.43458 -0.473057 0
M  V30 4287 C 392.403 3.99172 -1.57989 0
M  V30 4288 C 391.636 5.21427 -1.13797 0
M  V30 4289 O 391.859 5.704 0.000725941 0
M  V30 4290 O 390.793 5.69837 -1.9383 0
M  V30 4291 H 394.619 2.39198 -1.87131 0
M  V30 4292 H 392.204 1.13506 -0.971427 0
M  V30 4293 H 394.086 4.20811 -0.222702 0
M  V30 4294 H 392.761 3.20793 0.432869 0
M  V30 4295 H 391.668 3.23178 -1.88433 0
M  V30 4296 H 393.001 4.2619 -2.46217 0
M  V30 4297 N 394.653 0.992116 1.22453 0
M  V30 4298 C 395.583 0.561677 2.26644 0
M  V30 4299 C 396.564 -0.411055 1.65059 0
M  V30 4300 O 397.749 -0.301861 1.9184 0
M  V30 4301 C 394.879 -0.125247 3.47074 0
M  V30 4302 C 393.833 0.765948 4.21091 0
M  V30 4303 C 393.159 -0.0538484 5.34673 0
M  V30 4304 C 394.459 2.06242 4.79856 0
M  V30 4305 H 396.153 1.43259 2.62902 0
M  V30 4306 H 393.699 0.690283 1.26377 0
M  V30 4307 H 395.652 -0.437764 4.1912 0
M  V30 4308 H 394.376 -1.03069 3.0991 0
M  V30 4309 H 393.035 1.0621 3.50878 0
M  V30 4310 H 392.683 -0.960188 4.9375 0
M  V30 4311 H 392.383 0.539415 5.85119 0
M  V30 4312 H 393.907 -0.360477 6.09535 0
M  V30 4313 H 395.321 1.8139 5.43848 0
M  V30 4314 H 393.718 2.60444 5.40638 0
M  V30 4315 H 394.788 2.74167 3.99951 0
M  V30 4316 N 396.131 -1.37776 0.765217 0
M  V30 4317 C 397.078 -2.30342 0.145274 0
M  V30 4318 C 398.048 -1.5077 -0.696971 0
M  V30 4319 O 399.233 -1.79362 -0.650689 0
M  V30 4320 C 396.373 -3.37227 -0.732939 0
M  V30 4321 C 395.486 -4.31819 0.125199 0
M  V30 4322 C 394.621 -5.25777 -0.757107 0
M  V30 4323 C 393.66 -6.12012 0.103963 0
M  V30 4324 N 392.797 -6.98232 -0.735953 0
M  V30 4325 H 397.637 -2.8278 0.940195 0
M  V30 4326 H 395.174 -1.39211 0.475255 0
M  V30 4327 H 397.132 -3.97818 -1.25686 0
M  V30 4328 H 395.762 -2.86171 -1.49353 0
M  V30 4329 H 394.814 -3.7259 0.766865 0
M  V30 4330 H 396.126 -4.92509 0.789683 0
M  V30 4331 H 395.28 -5.91541 -1.34776 0
M  V30 4332 H 394.019 -4.65481 -1.45529 0
M  V30 4333 H 393.024 -5.45233 0.707197 0
M  V30 4334 H 394.249 -6.74379 0.799381 0
M  V30 4335 H 392.195 -6.40472 -1.41887 0
M  V30 4336 H 392.112 -7.55891 -0.128624 0
M  V30 4337 H 393.38 -7.68393 -1.31121 0
M  V30 4338 N 397.609 -0.515225 -1.4894 0
M  V30 4339 C 398.556 0.255567 -2.29381 0
M  V30 4340 C 399.526 0.947387 -1.36432 0
M  V30 4341 O 400.711 0.951288 -1.65394 0
M  V30 4342 C 397.851 1.30551 -3.19453 0
M  V30 4343 C 396.964 0.624029 -4.27469 0
M  V30 4344 C 396.099 1.65563 -5.0474 0
M  V30 4345 C 395.138 0.956802 -6.04576 0
M  V30 4346 N 394.275 1.93326 -6.74959 0
M  V30 4347 H 399.115 -0.436607 -2.94784 0
M  V30 4348 H 396.652 -0.227154 -1.45336 0
M  V30 4349 H 398.61 1.92639 -3.70062 0
M  V30 4350 H 397.24 1.96626 -2.56004 0
M  V30 4351 H 396.292 -0.110459 -3.8024 0
M  V30 4352 H 397.604 0.0746092 -4.98744 0
M  V30 4353 H 396.758 2.35119 -5.59289 0
M  V30 4354 H 395.497 2.23893 -4.3327 0
M  V30 4355 H 394.502 0.247097 -5.49244 0
M  V30 4356 H 395.727 0.379814 -6.78037 0
M  V30 4357 H 393.673 2.50591 -6.06251 0
M  V30 4358 H 393.59 1.43489 -7.42258 0
M  V30 4359 H 394.858 2.62126 -7.34105 0
M  V30 4360 N 399.087 1.5561 -0.249682 0
M  V30 4361 C 400.034 2.21496 0.648694 0
M  V30 4362 C 401.004 1.17977 1.16921 0
M  V30 4363 O 402.189 1.46434 1.22318 0
M  V30 4364 C 399.329 2.92039 1.83868 0
M  V30 4365 C 398.442 4.10219 1.35442 0
M  V30 4366 C 397.577 4.6847 2.50419 0
M  V30 4367 C 396.616 5.78893 1.98869 0
M  V30 4368 N 395.753 6.31315 3.07223 0
M  V30 4369 H 400.593 2.97892 0.0801582 0
M  V30 4370 H 398.13 1.47074 0.0278031 0
M  V30 4371 H 400.088 3.31138 2.53778 0
M  V30 4372 H 398.718 2.18111 2.37965 0
M  V30 4373 H 397.77 3.76413 0.54928 0
M  V30 4374 H 399.082 4.89927 0.936649 0
M  V30 4375 H 398.236 5.10158 3.28366 0
M  V30 4376 H 396.975 3.87984 2.95499 0
M  V30 4377 H 395.98 5.3668 1.19393 0
M  V30 4378 H 397.205 6.61232 1.54755 0
M  V30 4379 H 395.151 5.53733 3.51732 0
M  V30 4380 H 395.068 7.06224 2.69784 0
M  V30 4381 H 396.336 6.77662 3.8522 0
M  V30 4382 N 400.565 -0.0233959 1.57583 0
M  V30 4383 C 401.805 -0.71784 1.9138 0
M  V30 4384 C 402.169 -1.72216 0.848853 0
M  V30 4385 O 403.37 -2.46527 1.07134 0
M  V30 4386 C 401.641 -1.36489 3.30311 0
M  V30 4387 S 403.2 -2.0877 3.85954 0
M  V30 4388 H 400.018 -0.237676 0.670098 0
M  V30 4389 H 402.62 0.0276709 1.9548 0
M  V30 4390 H 401.324 -0.620782 4.05678 0
M  V30 4391 H 400.855 -2.14883 3.29528 0
M  V30 4392 H 402.87 -3.35988 3.65139 0
M  V30 4393 N 402.043 -1.548 -0.295768 0
M  V30 4394 C 402.953 -1.89177 -1.38742 0
M  V30 4395 C 403.969 -0.786481 -1.55211 0
M  V30 4396 O 405.145 -1.08344 -1.69775 0
M  V30 4397 C 402.21 -2.13663 -2.73036 0
M  V30 4398 C 401.271 -3.37349 -2.65508 0
M  V30 4399 C 400.504 -3.60658 -3.93398 0
M  V30 4400 O 400.727 -2.86882 -4.93006 0
M  V30 4401 O 399.661 -4.54179 -3.94975 0
M  V30 4402 H 403.487 -2.82059 -1.12589 0
M  V30 4403 H 401.072 -1.41056 -0.492295 0
M  V30 4404 H 402.954 -2.3094 -3.52484 0
M  V30 4405 H 401.629 -1.23967 -2.99022 0
M  V30 4406 H 400.536 -3.25431 -1.84514 0
M  V30 4407 H 401.869 -4.27192 -2.44474 0
M  V30 4408 N 403.521 0.559213 -1.47345 0
M  V30 4409 C 404.468 1.66645 -1.59682 0
M  V30 4410 C 405.438 1.60168 -0.43994 0
M  V30 4411 O 406.623 1.79031 -0.659736 0
M  V30 4412 C 403.763 3.04969 -1.61518 0
M  V30 4413 C 402.876 3.21897 -2.88108 0
M  V30 4414 C 402.011 4.50608 -2.81294 0
M  V30 4415 C 401.05 4.60961 -4.02717 0
M  V30 4416 N 400.187 5.81024 -3.94151 0
M  V30 4417 H 405.027 1.55439 -2.54249 0
M  V30 4418 H 402.564 0.757219 -1.26113 0
M  V30 4419 H 404.522 3.85064 -1.60566 0
M  V30 4420 H 403.152 3.15015 -0.704645 0
M  V30 4421 H 402.204 2.35248 -2.98936 0
M  V30 4422 H 403.516 3.25412 -3.78032 0
M  V30 4423 H 402.67 5.3896 -2.7858 0
M  V30 4424 H 401.409 4.49568 -1.89049 0
M  V30 4425 H 400.414 3.71021 -4.05738 0
M  V30 4426 H 401.639 4.63761 -4.96087 0
M  V30 4427 H 399.585 5.80938 -3.04708 0
M  V30 4428 H 399.502 5.85909 -4.77752 0
M  V30 4429 H 400.77 6.71744 -3.9545 0
M  V30 4430 N 404.999 1.35443 0.805782 0
M  V30 4431 C 406.239 1.30127 1.57627 0
M  V30 4432 C 406.603 -0.122567 1.91608 0
M  V30 4433 O 407.804 -0.300107 2.67119 0
M  V30 4434 C 406.075 2.18314 2.82973 0
M  V30 4435 S 407.634 2.30521 3.7337 0
M  V30 4436 H 404.452 0.462439 0.540066 0
M  V30 4437 H 407.054 1.70843 0.95042 0
M  V30 4438 H 405.758 3.20741 2.56034 0
M  V30 4439 H 405.289 1.78558 3.50543 0
M  V30 4440 H 407.304 1.49062 4.73281 0
M  V30 4441 N 406.477 -1.02803 1.19454 0
M  V30 4442 C 407.725 -1.75869 0.995722 0
M  V30 4443 C 408.046 -1.89138 -0.474543 0
M  V30 4444 O 407.316 -1.42558 -1.34366 0
M  V30 4445 H 405.896 -0.651511 0.365435 0
M  V30 4446 H 408.558 -1.24004 1.50363 0
M  V30 4447 H 407.654 -2.76661 1.44447 0
M  V30 4448 N 407.956 -0.998596 -1.21925 0
M  V30 4449 C 408.903 -0.553621 -2.24062 0
M  V30 4450 C 409.873 0.416999 -1.6078 0
M  V30 4451 O 411.058 0.320482 -1.88089 0
M  V30 4452 C 408.198 0.119959 -3.44891 0
M  V30 4453 C 407.311 -0.893077 -4.22668 0
M  V30 4454 C 406.446 -0.192424 -5.30851 0
M  V30 4455 C 405.485 -1.19344 -6.00353 0
M  V30 4456 N 404.622 -0.520707 -7.00166 0
M  V30 4457 H 409.462 -1.4293 -2.61486 0
M  V30 4458 H 406.999 -0.715838 -1.28507 0
M  V30 4459 H 408.957 0.527459 -4.13852 0
M  V30 4460 H 407.587 0.959389 -3.08214 0
M  V30 4461 H 406.639 -1.41886 -3.52948 0
M  V30 4462 H 407.951 -1.65512 -4.70539 0
M  V30 4463 H 407.105 0.271515 -6.06092 0
M  V30 4464 H 405.844 0.602075 -4.83969 0
M  V30 4465 H 404.849 -1.66795 -5.23889 0
M  V30 4466 H 406.074 -1.98891 -6.49322 0
M  V30 4467 H 404.02 0.254252 -6.55507 0
M  V30 4468 H 403.937 -1.2211 -7.46073 0
M  V30 4469 H 405.205 -0.0797596 -7.79459 0
M  V30 4470 N 409.434 1.37368 -0.772513 0
M  V30 4471 C 410.381 2.30262 -0.157488 0
M  V30 4472 C 411.351 1.51137 0.688965 0
M  V30 4473 O 412.536 1.79704 0.641168 0
M  V30 4474 C 409.676 3.37611 0.715045 0
M  V30 4475 C 408.789 4.31746 -0.148098 0
M  V30 4476 C 407.924 5.26171 0.729213 0
M  V30 4477 C 406.963 6.11948 -0.136418 0
M  V30 4478 N 406.1 6.98613 0.698914 0
M  V30 4479 H 410.94 2.82277 -0.955179 0
M  V30 4480 H 408.477 1.38957 -0.482631 0
M  V30 4481 H 410.435 3.98479 1.23575 0
M  V30 4482 H 409.065 2.86959 1.47833 0
M  V30 4483 H 408.117 3.72178 -0.786613 0
M  V30 4484 H 409.429 4.92084 -0.81579 0
M  V30 4485 H 408.583 5.92247 1.31637 0
M  V30 4486 H 407.322 4.66246 1.43059 0
M  V30 4487 H 406.327 5.4485 -0.736102 0
M  V30 4488 H 407.552 6.73945 -0.835134 0
M  V30 4489 H 405.498 6.41215 1.38489 0
M  V30 4490 H 405.415 7.55948 0.0885358 0
M  V30 4491 H 406.683 7.69077 1.27044 0
M  V30 4492 N 410.912 0.523116 1.48665 0
M  V30 4493 C 411.842 -0.23231 2.32342 0
M  V30 4494 C 412.823 -0.941637 1.41659 0
M  V30 4495 O 414.008 -0.928751 1.70552 0
M  V30 4496 C 411.138 -1.28387 3.22698 0
M  V30 4497 C 410.092 -0.693098 4.22351 0
M  V30 4498 C 409.418 -1.8468 5.01794 0
M  V30 4499 C 410.718 0.33063 5.21252 0
M  V30 4500 H 412.412 0.466192 2.95748 0
M  V30 4501 H 409.958 0.225643 1.42221 0
M  V30 4502 H 411.911 -1.82024 3.80059 0
M  V30 4503 H 410.635 -2.01186 2.57278 0
M  V30 4504 H 409.294 -0.178299 3.66166 0
M  V30 4505 H 408.942 -2.56301 4.32804 0
M  V30 4506 H 408.642 -1.45747 5.69238 0
M  V30 4507 H 410.166 -2.38709 5.62006 0
M  V30 4508 H 411.58 -0.118407 5.73178 0
M  V30 4509 H 409.977 0.636974 5.9671 0
M  V30 4510 H 411.047 1.23883 4.68808 0
M  V30 4511 N 412.39 -1.55475 0.257931 0
M  V30 4512 C 413.323 -2.179 -0.677862 0
M  V30 4513 C 414.301 -1.13448 -1.16483 0
M  V30 4514 O 415.485 -1.41889 -1.24095 0
M  V30 4515 C 412.612 -2.78851 -1.92249 0
M  V30 4516 C 411.658 -3.96454 -1.57246 0
M  V30 4517 S 412.491 -5.31349 -0.665501 0
M  V30 4518 C 413.647 -5.9576 -1.91889 0
M  V30 4519 H 413.88 -2.96934 -0.147396 0
M  V30 4520 H 411.413 -1.54342 0.0423023 0
M  V30 4521 H 413.371 -3.14602 -2.63697 0
M  V30 4522 H 412.032 -1.99742 -2.42409 0
M  V30 4523 H 411.225 -4.37731 -2.49814 0
M  V30 4524 H 410.827 -3.62038 -0.938325 0
M  V30 4525 H 413.119 -6.13947 -2.86487 0
M  V30 4526 H 414.062 -6.9094 -1.54942 0
M  V30 4527 H 414.47 -5.2494 -2.076 0
M  V30 4528 N 413.868 0.0150385 -1.57593 0
M  V30 4529 C 414.798 1.01047 -2.10503 0
M  V30 4530 C 415.779 1.36816 -1.01071 0
M  V30 4531 O 416.964 1.45455 -1.28672 0
M  V30 4532 C 414.094 2.30708 -2.59598 0
M  V30 4533 C 413.048 2.09142 -3.73421 0
M  V30 4534 C 412.374 3.44685 -4.08774 0
M  V30 4535 C 413.674 1.46619 -5.01298 0
M  V30 4536 H 415.368 0.569978 -2.93925 0
M  V30 4537 H 412.914 0.272724 -1.41394 0
M  V30 4538 H 414.867 3.00687 -2.95238 0
M  V30 4539 H 413.591 2.76843 -1.73279 0
M  V30 4540 H 412.25 1.41592 -3.38153 0
M  V30 4541 H 411.898 3.88495 -3.195 0
M  V30 4542 H 411.598 3.31077 -4.8545 0
M  V30 4543 H 413.122 4.16004 -4.4696 0
M  V30 4544 H 414.536 2.06535 -5.34805 0
M  V30 4545 H 412.933 1.43544 -5.82679 0
M  V30 4546 H 414.003 0.433611 -4.82957 0
M  V30 4547 N 415.346 1.54954 0.287554 0
M  V30 4548 C 416.593 1.74873 1.02106 0
M  V30 4549 C 416.921 0.541829 1.86801 0
M  V30 4550 O 416.176 -0.475992 1.89823 0
M  V30 4551 C 416.475 2.99833 1.94512 0
M  V30 4552 C 416.141 4.33029 1.25686 0
M  V30 4553 C 414.803 4.69233 1.06649 0
M  V30 4554 C 417.155 5.15542 0.765913 0
M  V30 4555 C 414.483 5.85518 0.372222 0
M  V30 4556 C 416.835 6.32542 0.0853101 0
M  V30 4557 C 415.499 6.67398 -0.1169 0
M  V30 4558 H 414.769 0.639906 0.373632 0
M  V30 4559 H 417.416 1.89219 0.294665 0
M  V30 4560 H 415.721 2.80325 2.73725 0
M  V30 4561 H 417.418 3.1244 2.51361 0
M  V30 4562 H 414.008 4.04564 1.41512 0
M  V30 4563 H 418.192 4.88059 0.90066 0
M  V30 4564 H 413.448 6.11057 0.204695 0
M  V30 4565 H 417.622 6.95741 -0.302936 0
M  V30 4566 H 415.249 7.57357 -0.656859 0
M  V30 4567 N 416.824 -0.551391 1.4764 0
M  V30 4568 C 418.101 -1.31229 1.45046 0
M  V30 4569 C 418.481 -2.10563 0.150527 0
M  V30 4570 O 417.829 -2.11374 -0.867956 0
M  V30 4571 C 418.039 -2.21189 2.69956 0
M  V30 4572 C 419.387 -2.82021 3.1741 0
M  V30 4573 O 420.411 -2.31488 2.70724 0
M  V30 4574 O 419.27 -3.73885 3.98588 0
M  V30 4575 H 416.364 -0.591193 0.578291 0
M  V30 4576 H 418.91 -0.569813 1.59847 0
M  V30 4577 H 417.682 -1.62207 3.56096 0
M  V30 4578 H 417.305 -3.02722 2.57769 0
M  V30 4579 N 418.302 -1.35869 -0.798587 0
M  V30 4580 C 419.579 -1.20145 -1.54352 0
M  V30 4581 C 419.959 0.216161 -2.0999 0
M  V30 4582 O 419.307 1.22068 -1.93162 0
M  V30 4583 C 419.517 -2.27602 -2.64572 0
M  V30 4584 C 420.865 -2.63811 -3.32699 0
M  V30 4585 O 421.889 -2.26576 -2.74849 0
M  V30 4586 O 420.748 -3.27866 -4.37226 0
M  V30 4587 H 417.842 -0.467248 -0.682355 0
M  V30 4588 H 420.388 -1.47574 -0.837859 0
M  V30 4589 H 419.16 -3.2265 -2.21388 0
M  V30 4590 H 418.783 -2.01488 -3.42766 0
M  V30 4591 N 419.78 1.02168 -1.19998 0
M  V30 4592 C 420.713 2.10232 -0.887558 0
M  V30 4593 C 421.691 1.61827 0.158317 0
M  V30 4594 O 422.875 1.88471 0.0330249 0
M  V30 4595 C 420.002 3.37092 -0.32964 0
M  V30 4596 C 419.048 4.0438 -1.3557 0
M  V30 4597 S 419.881 4.48956 -2.91888 0
M  V30 4598 C 421.037 5.79024 -2.37658 0
M  V30 4599 H 421.27 2.36409 -1.80272 0
M  V30 4600 H 418.803 1.15211 -1.0279 0
M  V30 4601 H 420.761 4.10498 -0.0142824 0
M  V30 4602 H 419.422 3.08996 0.563941 0
M  V30 4603 H 418.615 4.95632 -0.9146 0
M  V30 4604 H 418.217 3.37176 -1.61828 0
M  V30 4605 H 420.509 6.53942 -1.77103 0
M  V30 4606 H 421.452 6.27924 -3.27287 0
M  V30 4607 H 421.86 5.35043 -1.79971 0
M  V30 4608 N 421.258 1.00505 1.21394 0
M  V30 4609 C 422.486 0.706609 1.9446 0
M  V30 4610 C 422.901 -0.73081 1.74082 0
M  V30 4611 O 422.258 -1.49446 1.04747 0
M  V30 4612 C 422.309 1.01824 3.46863 0
M  V30 4613 O 422.03 2.39919 3.66566 0
M  V30 4614 C 423.531 0.739216 4.37093 0
M  V30 4615 H 420.751 0.260394 0.618414 0
M  V30 4616 H 423.295 1.34311 1.54211 0
M  V30 4617 H 421.45 0.427343 3.85036 0
M  V30 4618 H 421.864 2.50784 4.6066 0
M  V30 4619 H 423.338 1.00744 5.42729 0
M  V30 4620 H 423.815 -0.326746 4.37983 0
M  V30 4621 H 424.421 1.31173 4.04566 0
M  V30 4622 N 422.737 -1.36956 0.779787 0
M  V30 4623 C 423.684 -2.30175 0.169697 0
M  V30 4624 C 424.654 -1.51501 -0.68094 0
M  V30 4625 O 425.839 -1.80042 -0.631629 0
M  V30 4626 C 422.979 -3.37985 -0.697131 0
M  V30 4627 C 422.092 -4.31661 0.170992 0
M  V30 4628 C 421.227 -5.2655 -0.701298 0
M  V30 4629 C 420.266 -6.11867 0.168869 0
M  V30 4630 N 419.403 -6.98973 -0.661855 0
M  V30 4631 H 424.243 -2.81767 0.970135 0
M  V30 4632 H 421.78 -1.38699 0.489994 0
M  V30 4633 H 423.738 -3.99128 -1.2146 0
M  V30 4634 H 422.368 -2.87739 -1.46309 0
M  V30 4635 H 421.42 -3.71756 0.80634 0
M  V30 4636 H 422.732 -4.91644 0.841875 0
M  V30 4637 H 421.886 -5.92937 -1.28494 0
M  V30 4638 H 420.625 -4.66998 -1.40584 0
M  V30 4639 H 419.63 -5.44452 0.764986 0
M  V30 4640 H 420.855 -6.73493 0.870863 0
M  V30 4641 H 418.801 -6.41941 -1.35086 0
M  V30 4642 H 418.718 -7.55984 -0.0484447 0
M  V30 4643 H 419.986 -7.6974 -1.22963 0
M  V30 4644 N 424.215 -0.530993 -1.48385 0
M  V30 4645 C 425.443 -0.00134122 -2.069 0
M  V30 4646 C 425.858 1.2805 -1.3874 0
M  V30 4647 O 425.215 1.76204 -0.475244 0
M  V30 4648 C 425.266 0.225256 -3.60798 0
M  V30 4649 O 424.987 -1.0058 -4.26398 0
M  V30 4650 C 426.488 0.795172 -4.3611 0
M  V30 4651 H 423.708 -0.0339704 -0.67014 0
M  V30 4652 H 426.252 -0.736926 -1.90761 0
M  V30 4653 H 424.407 0.910891 -3.76539 0
M  V30 4654 H 424.821 -0.787165 -5.1856 0
M  V30 4655 H 426.295 0.903143 -5.44562 0
M  V30 4656 H 426.772 1.80031 -4.00606 0
M  V30 4657 H 427.378 0.146069 -4.25049 0
M  V30 4658 N 425.693 1.55336 -0.266172 0
M  V30 4659 C 426.625 2.19544 0.658247 0
M  V30 4660 C 427.638 1.17746 1.12427 0
M  V30 4661 O 428.827 1.44517 1.04772 0
M  V30 4662 C 425.927 2.80032 1.9088 0
M  V30 4663 C 425.1 4.07436 1.59106 0
M  V30 4664 C 424.159 4.52056 2.69317 0
M  V30 4665 O 423.185 5.18023 2.35883 0
M  V30 4666 N 424.387 4.21448 3.99201 0
M  V30 4667 H 427.152 2.99503 0.108754 0
M  V30 4668 H 424.713 1.61667 -0.0869059 0
M  V30 4669 H 426.705 3.06831 2.63888 0
M  V30 4670 H 425.275 2.04119 2.36758 0
M  V30 4671 H 424.495 3.88021 0.695243 0
M  V30 4672 H 425.783 4.90462 1.35367 0
M  V30 4673 H 425.181 3.68528 4.29189 0
M  V30 4674 H 423.738 4.53039 4.68614 0
M  V30 4675 N 427.171 -0.0066808 1.57599 0
M  V30 4676 C 428.399 -0.704087 1.94551 0
M  V30 4677 C 428.814 -1.67677 0.867746 0
M  V30 4678 O 428.171 -1.8185 -0.153925 0
M  V30 4679 C 428.222 -1.44177 3.31505 0
M  V30 4680 O 427.943 -0.508097 4.35144 0
M  V30 4681 C 429.444 -2.23429 3.82876 0
M  V30 4682 H 426.664 -0.196523 0.641576 0
M  V30 4683 H 429.208 0.042453 2.04456 0
M  V30 4684 H 427.363 -2.13999 3.22929 0
M  V30 4685 H 427.777 -1.02782 5.14331 0
M  V30 4686 H 429.251 -2.70552 4.8115 0
M  V30 4687 H 429.728 -3.05818 3.15233 0
M  V30 4688 H 430.334 -1.58636 3.94607 0
M  V30 4689 N 428.649 -1.55105 -0.279332 0
M  V30 4690 C 429.596 -1.8755 -1.34513 0
M  V30 4691 C 430.566 -0.726384 -1.49375 0
M  V30 4692 O 431.751 -0.977063 -1.63884 0
M  V30 4693 C 428.891 -2.14738 -2.70151 0
M  V30 4694 C 428.004 -3.42285 -2.63562 0
M  V30 4695 C 427.139 -3.59206 -3.91337 0
M  V30 4696 C 426.178 -4.80467 -3.79233 0
M  V30 4697 N 425.315 -4.94079 -4.98829 0
M  V30 4698 H 430.155 -2.78456 -1.06143 0
M  V30 4699 H 427.692 -1.37867 -0.512936 0
M  V30 4700 H 429.65 -2.28501 -3.49061 0
M  V30 4701 H 428.28 -1.27075 -2.96735 0
M  V30 4702 H 427.332 -3.37029 -1.76397 0
M  V30 4703 H 428.644 -4.31328 -2.50515 0
M  V30 4704 H 427.798 -3.72751 -4.78687 0
M  V30 4705 H 426.537 -2.68337 -4.07243 0
M  V30 4706 H 425.542 -4.66932 -2.90266 0
M  V30 4707 H 426.767 -5.72765 -3.64852 0
M  V30 4708 H 424.713 -4.06139 -5.15158 0
M  V30 4709 H 424.63 -5.77156 -4.8829 0
M  V30 4710 H 425.898 -5.12003 -5.8777 0
M  V30 4711 N 430.127 0.543554 -1.4793 0
M  V30 4712 C 431.074 1.64942 -1.6144 0
M  V30 4713 C 432.044 1.59692 -0.456903 0
M  V30 4714 O 433.229 1.78321 -0.678688 0
M  V30 4715 C 430.369 3.03238 -1.64744 0
M  V30 4716 C 429.482 3.18823 -2.91506 0
M  V30 4717 C 428.617 4.47599 -2.86057 0
M  V30 4718 C 427.656 4.56664 -4.07584 0
M  V30 4719 N 426.793 5.76811 -4.00292 0
M  V30 4720 H 431.633 1.52733 -2.55884 0
M  V30 4721 H 429.17 0.7438 -1.2691 0
M  V30 4722 H 431.128 3.83339 -1.64641 0
M  V30 4723 H 429.758 3.1425 -0.738017 0
M  V30 4724 H 428.81 2.32064 -3.01414 0
M  V30 4725 H 430.122 3.21384 -3.81463 0
M  V30 4726 H 429.276 5.35975 -2.84281 0
M  V30 4727 H 428.015 4.47538 -1.93807 0
M  V30 4728 H 427.02 3.66697 -4.09651 0
M  V30 4729 H 428.245 4.58474 -5.00978 0
M  V30 4730 H 426.191 5.77673 -3.10853 0
M  V30 4731 H 426.108 5.80808 -4.8394 0
M  V30 4732 H 427.376 6.67512 -4.02553 0
M  V30 4733 N 431.605 1.3629 0.791371 0
M  V30 4734 C 432.852 1.30412 1.54916 0
M  V30 4735 C 433.18 -0.117162 1.94147 0
M  V30 4736 O 432.435 -1.08599 1.62803 0
M  V30 4737 C 432.734 2.17068 2.8393 0
M  V30 4738 C 432.4 3.65645 2.63846 0
M  V30 4739 C 431.062 4.0614 2.58077 0
M  V30 4740 C 433.414 4.59855 2.45322 0
M  V30 4741 C 430.742 5.3899 2.31748 0
M  V30 4742 C 433.094 5.9292 2.2052 0
M  V30 4743 C 431.758 6.32542 2.13183 0
M  V30 4744 H 431.028 0.47721 0.566879 0
M  V30 4745 H 433.675 1.68325 0.913172 0
M  V30 4746 H 431.98 1.72085 3.51986 0
M  V30 4747 H 433.677 2.09846 3.4171 0
M  V30 4748 H 430.267 3.33518 2.69191 0
M  V30 4749 H 434.451 4.29443 2.48782 0
M  V30 4750 H 429.707 5.68672 2.24548 0
M  V30 4751 H 433.881 6.65487 2.05182 0
M  V30 4752 H 431.508 7.35412 1.92544 0
M  V30 4753 N 433.083 -1.0153 1.20538 0
M  V30 4754 C 434.311 -1.78746 1.04199 0
M  V30 4755 C 434.726 -1.84323 -0.408733 0
M  V30 4756 O 434.083 -1.29714 -1.28377 0
M  V30 4757 C 434.134 -3.23152 1.62035 0
M  V30 4758 O 433.855 -3.17918 3.0143 0
M  V30 4759 C 435.356 -4.16911 1.50666 0
M  V30 4760 H 432.576 -0.56208 0.366479 0
M  V30 4761 H 435.12 -1.27794 1.59653 0
M  V30 4762 H 433.275 -3.71248 1.10697 0
M  V30 4763 H 433.689 -4.08567 3.28897 0
M  V30 4764 H 435.163 -5.16072 1.95892 0
M  V30 4765 H 435.64 -4.36791 0.459363 0
M  V30 4766 H 436.246 -3.74698 2.01201 0
M  V30 4767 N 434.561 -1.01147 -1.20859 0
M  V30 4768 C 435.81 -0.693214 -1.89413 0
M  V30 4769 C 436.123 0.779969 -1.79376 0
M  V30 4770 O 437.329 1.21057 -2.43017 0
M  V30 4771 C 435.785 -1.18949 -3.39675 0
M  V30 4772 C 435.393 -2.68921 -3.58309 0
M  V30 4773 C 437.137 -0.94642 -4.13815 0
M  V30 4774 C 435.044 -3.12056 -5.0237 0
M  V30 4775 H 433.974 -0.255595 -0.709357 0
M  V30 4776 H 436.625 -1.22349 -1.36759 0
M  V30 4777 H 435.007 -0.587228 -3.91622 0
M  V30 4778 H 436.181 -3.34652 -3.16772 0
M  V30 4779 H 434.496 -2.91314 -2.97532 0
M  V30 4780 H 437.093 -1.24417 -5.20023 0
M  V30 4781 H 437.436 0.117219 -4.16135 0
M  V30 4782 H 437.969 -1.5118 -3.67953 0
M  V30 4783 H 434.708 -4.17674 -5.05202 0
M  V30 4784 H 434.228 -2.51041 -5.44737 0
M  V30 4785 H 435.907 -3.04403 -5.70918 0
M  V30 4786 N 436.039 1.36541 -0.78704 0
M  V30 4787 C 436.986 2.30082 -0.181901 0
M  V30 4788 C 437.956 1.5186 0.672896 0
M  V30 4789 O 439.141 1.80374 0.622072 0
M  V30 4790 C 436.281 3.3835 0.679197 0
M  V30 4791 C 435.394 4.31565 -0.193882 0
M  V30 4792 C 434.529 5.26915 0.673364 0
M  V30 4793 C 433.568 6.11769 -0.201315 0
M  V30 4794 N 432.705 6.99315 0.624777 0
M  V30 4795 H 437.545 2.81248 -0.985064 0
M  V30 4796 H 435.082 1.38437 -0.497342 0
M  V30 4797 H 437.04 3.99767 1.19341 0
M  V30 4798 H 435.67 2.8851 1.44781 0
M  V30 4799 H 434.722 3.71323 -0.826044 0
M  V30 4800 H 436.034 4.91191 -0.867937 0
M  V30 4801 H 435.188 5.9361 1.25348 0
M  V30 4802 H 433.927 4.67737 1.38105 0
M  V30 4803 H 432.932 5.44039 -0.793849 0
M  V30 4804 H 434.157 6.73022 -0.906568 0
M  V30 4805 H 432.103 6.42648 1.3168 0
M  V30 4806 H 432.02 7.56 0.00835237 0
M  V30 4807 H 433.288 7.70382 1.18879 0
M  V30 4808 N 437.518 0.538854 1.48102 0
M  V30 4809 C 438.466 -0.232325 2.31437 0
M  V30 4810 C 439.46 -0.927004 1.41785 0
M  V30 4811 O 440.666 -0.850378 1.58646 0
M  V30 4812 H 437.041 -0.0937916 0.746128 0
M  V30 4813 H 439.012 0.489986 2.9435 0
M  V30 4814 C 437.761 -1.26074 3.24038 0
M  V30 4815 H 437.084 -0.735609 3.92974 0
M  V30 4816 H 438.524 -1.77157 3.85216 0
M  V30 4817 C 436.983 -2.29902 2.46265 0
M  V30 4818 O 437.513 -3.36502 2.19384 0
M  V30 4819 N 435.719 -2.03348 2.07601 0
M  V30 4820 H 435.266 -1.16675 2.29662 0
M  V30 4821 H 435.224 -2.73038 1.55877 0
M  V30 4822 N 438.996 -1.55193 0.274407 0
M  V30 4823 C 439.906 -2.26164 -0.623473 0
M  V30 4824 C 440.922 -1.28729 -1.17068 0
M  V30 4825 O 442.098 -1.61663 -1.20112 0
M  V30 4826 C 439.163 -2.96833 -1.7914 0
M  V30 4827 C 438.224 -4.09745 -1.28093 0
M  V30 4828 C 437.457 -4.77034 -2.3932 0
M  V30 4829 O 437.68 -4.4353 -3.5866 0
M  V30 4830 O 436.614 -5.64996 -2.07516 0
M  V30 4831 H 440.44 -3.03661 -0.0485661 0
M  V30 4832 H 438.025 -1.49341 0.0418382 0
M  V30 4833 H 439.907 -3.41248 -2.4724 0
M  V30 4834 H 438.582 -2.22253 -2.35341 0
M  V30 4835 H 437.489 -3.69787 -0.566416 0
M  V30 4836 H 438.822 -4.86224 -0.764683 0
M  V30 4837 N 440.474 -0.00167713 -1.576 0
M  V30 4838 C 441.751 0.719951 -1.81868 0
M  V30 4839 C 442.131 1.91895 -0.879747 0
M  V30 4840 O 441.479 2.28389 0.0711423 0
M  V30 4841 C 441.689 1.12409 -3.30402 0
M  V30 4842 C 443.037 1.52724 -3.96182 0
M  V30 4843 O 444.061 1.21784 -3.34734 0
M  V30 4844 O 442.92 2.10265 -5.04431 0
M  V30 4845 H 440.014 0.350707 -0.748955 0
M  V30 4846 H 442.56 -0.0272597 -1.69678 0
M  V30 4847 H 441.332 0.269532 -3.90371 0
M  V30 4848 H 440.955 1.93035 -3.47596 0
M  V30 4849 N 441.952 1.55251 0.271103 0
M  V30 4850 C 443.363 1.66635 0.842007 0
M  V30 4851 C 443.714 0.594631 1.86972 0
M  V30 4852 O 442.839 -0.263532 2.14789 0
M  V30 4853 C 443.434 3.02082 1.53401 0
M  V30 4854 C 441.993 3.15487 2.05293 0
M  V30 4855 C 441.14 2.62438 0.895631 0
M  V30 4856 H 444.091 1.58629 0.0474117 0
M  V30 4857 H 444.112 2.95176 2.40107 0
M  V30 4858 H 443.624 3.80062 0.785786 0
M  V30 4859 H 441.725 2.42284 2.83071 0
M  V30 4860 H 441.838 4.22075 2.26693 0
M  V30 4861 H 440.202 2.19644 1.28953 0
M  V30 4862 H 440.985 3.42923 0.160878 0
M  V30 4863 N 443.43 -0.535701 1.48216 0
M  V30 4864 C 444.707 -1.29683 1.46429 0
M  V30 4865 C 445.087 -2.10391 0.172852 0
M  V30 4866 O 444.435 -2.12282 -0.845488 0
M  V30 4867 C 444.645 -2.18313 2.72287 0
M  V30 4868 C 445.993 -2.78639 3.20383 0
M  V30 4869 O 447.017 -2.28604 2.73164 0
M  V30 4870 O 445.876 -3.69636 4.02531 0
M  V30 4871 H 442.97 -0.585026 0.584529 0
M  V30 4872 H 445.516 -0.552827 1.60443 0
M  V30 4873 H 444.288 -1.58421 3.57797 0
M  V30 4874 H 443.911 -2.99971 2.60966 0
M  V30 4875 N 444.908 -1.36708 -0.784132 0
M  V30 4876 C 446.155 -1.31231 -1.54222 0
M  V30 4877 C 446.483 0.106864 -1.94206 0
M  V30 4878 O 445.738 1.07734 -1.63376 0
M  V30 4879 C 446.037 -2.18571 -2.82774 0
M  V30 4880 C 445.703 -3.67039 -2.61903 0
M  V30 4881 C 444.365 -4.07503 -2.55919 0
M  V30 4882 C 446.717 -4.61149 -2.4288 0
M  V30 4883 C 444.045 -5.40211 -2.28886 0
M  V30 4884 C 446.397 -5.94081 -2.17373 0
M  V30 4885 C 445.061 -6.33664 -2.09825 0
M  V30 4886 H 444.331 -0.48021 -0.56434 0
M  V30 4887 H 446.978 -1.68807 -0.904233 0
M  V30 4888 H 445.283 -1.73949 -3.51068 0
M  V30 4889 H 446.98 -2.11655 -3.40592 0
M  V30 4890 H 443.57 -3.34941 -2.67418 0
M  V30 4891 H 447.754 -4.30756 -2.46501 0
M  V30 4892 H 443.01 -5.69855 -2.21529 0
M  V30 4893 H 447.184 -6.66566 -2.01649 0
M  V30 4894 H 444.811 -7.36423 -1.88641 0
M  V30 4895 N 446.386 1.0089 -1.21074 0
M  V30 4896 C 447.632 1.74866 -1.02712 0
M  V30 4897 C 447.965 1.89178 0.438787 0
M  V30 4898 O 447.24 1.42325 1.32567 0
M  V30 4899 C 447.523 3.16347 -1.72036 0
M  V30 4900 C 447.376 3.09782 -3.26121 0
M  V30 4901 C 448.695 4.15187 -1.45973 0
M  V30 4902 H 445.814 0.634736 -0.374539 0
M  V30 4903 H 448.456 1.17646 -1.49196 0
M  V30 4904 H 446.606 3.65201 -1.32517 0
M  V30 4905 H 448.278 2.68673 -3.74983 0
M  V30 4906 H 446.521 2.46982 -3.56626 0
M  V30 4907 H 447.192 4.09829 -3.6979 0
M  V30 4908 H 449.668 3.75022 -1.80272 0
M  V30 4909 H 448.544 5.12331 -1.96999 0
M  V30 4910 H 448.805 4.40386 -0.388924 0
M  V30 4911 N 447.864 1.01787 1.20321 0
M  V30 4912 C 449.092 0.727194 1.937 0
M  V30 4913 C 449.507 -0.712305 1.74848 0
M  V30 4914 O 448.864 -1.48327 1.06327 0
M  V30 4915 C 448.915 1.05497 3.45764 0
M  V30 4916 O 448.636 2.43794 3.64 0
M  V30 4917 C 450.137 0.785534 4.36285 0
M  V30 4918 H 447.357 0.266939 0.615617 0
M  V30 4919 H 449.901 1.35939 1.52777 0
M  V30 4920 H 448.056 0.468158 3.84561 0
M  V30 4921 H 448.47 2.55656 4.57974 0
M  V30 4922 H 449.944 1.06495 5.4163 0
M  V30 4923 H 450.421 -0.280273 4.38305 0
M  V30 4924 H 451.027 1.35456 4.03152 0
M  V30 4925 N 449.342 -1.36122 0.79427 0
M  V30 4926 C 450.567 -2.03891 0.379871 0
M  V30 4927 C 450.992 -1.59488 -0.997251 0
M  V30 4928 O 450.35 -0.765652 -1.64339 0
M  V30 4929 C 450.398 -3.57687 0.457442 0
M  V30 4930 O 449.502 -4.08931 -0.5338 0
M  V30 4931 H 448.843 -0.6443 0.160541 0
M  V30 4932 H 451.373 -1.73976 1.07673 0
M  V30 4933 H 451.383 -4.06721 0.322792 0
M  V30 4934 H 450.058 -3.89357 1.46199 0
M  V30 4935 H 448.635 -3.71154 -0.360409 0
M  V30 4936 N 450.82 -0.546701 -1.47814 0
M  V30 4937 C 452.069 -0.0166497 -2.01693 0
M  V30 4938 C 452.382 1.33721 -1.42752 0
M  V30 4939 O 453.588 1.95658 -1.8823 0
M  V30 4940 C 452.044 0.0206769 -3.59894 0
M  V30 4941 C 451.652 -1.3293 -4.27824 0
M  V30 4942 C 453.396 0.498674 -4.21561 0
M  V30 4943 C 451.303 -1.25165 -5.78003 0
M  V30 4944 H 450.233 -0.0024541 -0.753996 0
M  V30 4945 H 452.884 -0.692984 -1.69912 0
M  V30 4946 H 451.266 0.76244 -3.88591 0
M  V30 4947 H 452.44 -2.08795 -4.10781 0
M  V30 4948 H 450.755 -1.74438 -3.78101 0
M  V30 4949 H 453.352 0.575 -5.31599 0
M  V30 4950 H 453.695 1.5083 -3.88016 0
M  V30 4951 H 454.228 -0.18791 -3.97356 0
M  V30 4952 H 450.967 -2.23695 -6.1615 0
M  V30 4953 H 450.487 -0.53464 -5.97412 0
M  V30 4954 H 452.166 -0.949299 -6.39998 0
M  V30 4955 N 452.299 1.55045 -0.282633 0
M  V30 4956 C 453.545 2.00056 0.332481 0
M  V30 4957 C 453.878 1.1708 1.54939 0
M  V30 4958 O 453.153 0.2427 1.9298 0
M  V30 4959 C 453.436 3.53086 0.70725 0
M  V30 4960 C 453.289 4.46813 -0.517521 0
M  V30 4961 C 454.608 4.12245 1.54084 0
M  V30 4962 H 451.727 0.727268 0.119373 0
M  V30 4963 H 454.369 1.85932 -0.391076 0
M  V30 4964 H 452.519 3.65253 1.32372 0
M  V30 4965 H 454.191 4.46579 -1.15607 0
M  V30 4966 H 452.434 4.18163 -1.1542 0
M  V30 4967 H 453.105 5.51595 -0.211426 0
M  V30 4968 H 455.581 4.03401 1.02013 0
M  V30 4969 H 454.457 5.19515 1.77186 0
M  V30 4970 H 454.718 3.62951 2.52427 0
M  V30 4971 N 453.777 0.010035 1.57597 0
M  V30 4972 C 455.007 -0.682422 1.95004 0
M  V30 4973 C 455.415 -1.67278 0.884014 0
M  V30 4974 O 454.758 -1.83129 -0.144672 0
M  V30 4975 C 454.82 -1.46141 3.28456 0
M  V30 4976 C 454.484 -0.631523 4.52615 0
M  V30 4977 C 455.481 0.0850905 5.1983 0
M  V30 4978 C 453.166 -0.574539 4.99003 0
M  V30 4979 C 455.16 0.847566 6.3174 0
M  V30 4980 C 452.847 0.191655 6.10799 0
M  V30 4981 C 453.845 0.901432 6.77025 0
M  V30 4982 O 453.533 1.65511 7.86677 0
M  V30 4983 H 453.265 -0.194361 0.647456 0
M  V30 4984 H 455.819 0.060312 2.05311 0
M  V30 4985 H 454.049 -2.24885 3.14585 0
M  V30 4986 H 455.738 -2.04016 3.50902 0
M  V30 4987 H 456.504 0.0502812 4.84974 0
M  V30 4988 H 452.383 -1.11654 4.47274 0
M  V30 4989 H 455.927 1.4021 6.83364 0
M  V30 4990 H 451.824 0.228249 6.45096 0
M  V30 4991 H 452.592 1.57287 8.03245 0
M  V30 4992 N 455.255 -1.55392 -0.262866 0
M  V30 4993 C 456.483 -1.80513 -1.01108 0
M  V30 4994 C 456.898 -0.583533 -1.79556 0
M  V30 4995 O 456.255 0.447585 -1.76926 0
M  V30 4996 C 456.306 -3.03648 -1.96164 0
M  V30 4997 O 456.027 -4.2109 -1.20893 0
M  V30 4998 C 457.528 -3.41448 -2.82715 0
M  V30 4999 H 454.748 -0.601079 -0.298236 0
M  V30 5000 H 457.292 -2.02425 -0.290582 0
M  V30 5001 H 455.447 -2.83832 -2.63663 0
M  V30 5002 H 455.861 -4.90771 -1.85051 0
M  V30 5003 H 457.335 -4.30751 -3.45192 0
M  V30 5004 H 457.812 -2.61308 -3.53008 0
M  V30 5005 H 458.418 -3.63559 -2.20693 0
M  V30 5006 N 456.733 0.527833 -1.48498 0
M  V30 5007 C 457.958 1.313 -1.60546 0
M  V30 5008 C 458.383 1.86199 -0.26672 0
M  V30 5009 O 457.741 1.64513 0.761918 0
M  V30 5010 C 457.789 2.43818 -2.65678 0
M  V30 5011 O 456.893 3.46916 -2.22987 0
M  V30 5012 H 456.234 0.388784 -0.538277 0
M  V30 5013 H 458.764 0.634896 -1.945 0
M  V30 5014 H 458.774 2.89973 -2.87018 0
M  V30 5015 H 457.449 2.03222 -3.62869 0
M  V30 5016 H 456.026 3.06864 -2.11869 0
M  V30 5017 N 458.211 1.37122 0.776871 0
M  V30 5018 C 459.459 1.31787 1.53221 0
M  V30 5019 C 459.78 -0.0987589 1.9475 0
M  V30 5020 O 459.05 -1.0417 1.65908 0
M  V30 5021 H 457.63 0.484839 0.568278 0
M  V30 5022 H 460.292 1.71556 0.924917 0
M  V30 5023 H 459.388 1.95355 2.43398 0
M  V30 5024 N 459.689 -1.00246 1.21608 0
M  V30 5025 C 460.917 -1.77631 1.06089 0
M  V30 5026 C 461.332 -1.84746 -0.38916 0
M  V30 5027 O 460.689 -1.31068 -1.26994 0
M  V30 5028 C 460.74 -3.21415 1.65453 0
M  V30 5029 O 460.461 -3.14703 3.04785 0
M  V30 5030 C 461.962 -4.15289 1.55079 0
M  V30 5031 H 459.182 -0.558162 0.37242 0
M  V30 5032 H 461.726 -1.26093 1.60999 0
M  V30 5033 H 459.881 -3.70053 1.14629 0
M  V30 5034 H 460.295 -4.05056 3.33212 0
M  V30 5035 H 461.769 -5.13965 2.01355 0
M  V30 5036 H 462.246 -4.36279 0.505665 0
M  V30 5037 H 462.852 -3.72543 2.05163 0
M  V30 5038 N 461.167 -1.02423 -1.1978 0
M  V30 5039 C 462.392 -0.7373 -1.93852 0
M  V30 5040 C 462.817 0.696923 -1.74713 0
M  V30 5041 O 462.175 1.48056 -1.04638 0
M  V30 5042 C 462.223 -1.08783 -3.438 0
M  V30 5043 O 461.327 -0.20383 -4.11896 0
M  V30 5044 H 460.668 -0.27284 -0.605355 0
M  V30 5045 H 463.198 -1.36966 -1.51992 0
M  V30 5046 H 463.208 -1.04276 -3.9445 0
M  V30 5047 H 461.883 -2.13274 -3.57053 0
M  V30 5048 H 460.46 -0.307091 -3.71633 0
M  V30 5049 N 462.645 1.35699 -0.801477 0
M  V30 5050 C 463.893 1.9852 -0.37871 0
M  V30 5051 C 464.214 1.63907 1.05638 0
M  V30 5052 O 463.484 0.919013 1.73006 0
M  V30 5053 H 462.064 0.734322 -0.137042 0
M  V30 5054 H 464.726 1.65697 -1.02619 0
M  V30 5055 H 463.822 3.08382 -0.480284 0
M  V30 5056 N 464.123 0.554532 1.47522 0
M  V30 5057 C 465.07 -0.19466 2.29978 0
M  V30 5058 C 466.04 -0.910882 1.38896 0
M  V30 5059 O 467.225 -0.907102 1.67858 0
M  V30 5060 C 464.365 -1.22035 3.22802 0
M  V30 5061 C 463.478 -0.510474 4.28973 0
M  V30 5062 C 462.613 -1.52123 5.08952 0
M  V30 5063 C 461.652 -0.796173 6.069 0
M  V30 5064 N 460.789 -1.75363 6.79847 0
M  V30 5065 H 465.629 0.51461 2.93523 0
M  V30 5066 H 463.166 0.265607 1.44682 0
M  V30 5067 H 465.124 -1.8276 3.7504 0
M  V30 5068 H 463.754 -1.89769 2.61127 0
M  V30 5069 H 462.806 0.211234 3.79813 0
M  V30 5070 H 464.118 0.0576503 4.98767 0
M  V30 5071 H 463.272 -2.20207 5.65326 0
M  V30 5072 H 462.011 -2.12327 4.39054 0
M  V30 5073 H 461.016 -0.101388 5.49707 0
M  V30 5074 H 462.241 -0.199911 6.78806 0
M  V30 5075 H 460.187 -2.3443 6.12682 0
M  V30 5076 H 460.104 -1.23759 7.45801 0
M  V30 5077 H 461.372 -2.4257 7.40797 0
M  V30 5078 N 465.601 -1.54893 0.290851 0
M  V30 5079 C 467.012 -1.85584 -0.203816 0
M  V30 5080 C 467.363 -1.21285 -1.54222 0
M  V30 5081 O 466.488 -0.506841 -2.10381 0
M  V30 5082 C 467.083 -3.367 -0.376595 0
M  V30 5083 C 465.642 -3.6746 -0.815485 0
M  V30 5084 C 464.789 -2.77178 0.0821087 0
M  V30 5085 H 467.74 -1.50208 0.512175 0
M  V30 5086 H 467.761 -3.60656 -1.21275 0
M  V30 5087 H 467.273 -3.8347 0.59767 0
M  V30 5088 H 465.374 -3.26201 -1.80066 0
M  V30 5089 H 465.487 -4.7478 -0.641905 0
M  V30 5090 H 463.851 -2.50925 -0.436895 0
M  V30 5091 H 464.634 -3.26767 1.05254 0
M  V30 5092 N 467.08 -0.0183926 -1.57589 0
M  V30 5093 C 468.027 0.967022 -2.09565 0
M  V30 5094 C 468.997 1.32983 -0.995225 0
M  V30 5095 O 470.182 1.42501 -1.26878 0
M  V30 5096 C 467.322 2.24772 -2.61861 0
M  V30 5097 C 466.435 1.94232 -3.85873 0
M  V30 5098 C 465.57 3.16518 -4.26603 0
M  V30 5099 C 464.609 2.81748 -5.43401 0
M  V30 5100 N 463.746 3.96626 -5.79338 0
M  V30 5101 H 468.586 0.516874 -2.93483 0
M  V30 5102 H 466.123 0.243544 -1.4507 0
M  V30 5103 H 468.081 2.99667 -2.90268 0
M  V30 5104 H 466.711 2.67423 -1.8079 0
M  V30 5105 H 465.763 1.09625 -3.64262 0
M  V30 5106 H 467.075 1.64616 -4.70853 0
M  V30 5107 H 466.229 3.99743 -4.56389 0
M  V30 5108 H 464.968 3.49286 -3.40368 0
M  V30 5109 H 463.973 1.96933 -5.1332 0
M  V30 5110 H 465.198 2.50207 -6.31327 0
M  V30 5111 H 463.144 4.29257 -4.96059 0
M  V30 5112 H 463.061 3.70598 -6.58933 0
M  V30 5113 H 464.329 4.80586 -6.13724 0
M  V30 5114 N 468.558 1.5553 0.254621 0
M  V30 5115 C 469.806 1.7665 0.981793 0
M  V30 5116 C 470.127 0.580963 1.86145 0
M  V30 5117 O 469.397 -0.403537 1.91699 0
M  V30 5118 H 467.977 0.651475 0.365498 0
M  V30 5119 H 470.639 1.92958 0.274426 0
M  V30 5120 H 469.735 2.67486 1.60802 0
M  V30 5121 N 470.036 -0.519951 1.48776 0
M  V30 5122 C 471.282 -1.27711 1.57536 0
M  V30 5123 C 471.615 -1.92547 0.252866 0
M  V30 5124 O 470.89 -1.7979 -0.742021 0
M  V30 5125 C 471.173 -2.35875 2.72094 0
M  V30 5126 C 471.026 -1.75664 4.1408 0
M  V30 5127 C 472.345 -3.37575 2.82367 0
M  V30 5128 H 469.464 -0.462971 0.573434 0
M  V30 5129 H 472.106 -0.578194 1.80989 0
M  V30 5130 H 470.256 -2.95488 2.52228 0
M  V30 5131 H 471.928 -1.20025 4.45412 0
M  V30 5132 H 470.171 -1.06154 4.20611 0
M  V30 5133 H 470.842 -2.54029 4.90075 0
M  V30 5134 H 473.318 -2.87929 3.00393 0
M  V30 5135 H 472.194 -4.1064 3.64233 0
M  V30 5136 H 472.455 -3.98743 1.90936 0
M  V30 5137 N 471.514 -1.37532 -0.769588 0
M  V30 5138 C 472.447 -1.27839 -1.8903 0
M  V30 5139 C 473.425 -0.158504 -1.61826 0
M  V30 5140 O 474.609 -0.333086 -1.85534 0
M  V30 5141 C 471.736 -0.977072 -3.24301 0
M  V30 5142 C 470.782 -2.11414 -3.70414 0
M  V30 5143 S 471.615 -3.73409 -3.83831 0
M  V30 5144 C 472.771 -3.45432 -5.21946 0
M  V30 5145 H 473.004 -2.22694 -1.96963 0
M  V30 5146 H 470.537 -1.2318 -0.930914 0
M  V30 5147 H 472.495 -0.810049 -4.02428 0
M  V30 5148 H 471.156 -0.0459701 -3.14066 0
M  V30 5149 H 470.349 -1.85837 -4.68488 0
M  V30 5150 H 469.951 -2.24141 -2.99394 0
M  V30 5151 H 472.243 -3.00554 -6.07185 0
M  V30 5152 H 473.186 -4.42841 -5.52537 0
M  V30 5153 H 473.594 -2.80311 -4.89986 0
M  V30 5154 N 472.992 0.995999 -1.22138 0
M  V30 5155 C 473.922 2.10387 -1.01289 0
M  V30 5156 C 474.903 1.69975 0.0651454 0
M  V30 5157 O 476.088 1.9396 -0.0964628 0
M  V30 5158 C 473.218 3.42312 -0.586517 0
M  V30 5159 C 472.172 3.96558 -1.61014 0
M  V30 5160 C 471.498 5.24494 -1.0397 0
M  V30 5161 C 472.798 4.27595 -2.99933 0
M  V30 5162 H 474.492 2.28086 -1.93951 0
M  V30 5163 H 472.038 1.09607 -0.933928 0
M  V30 5164 H 473.991 4.19223 -0.427793 0
M  V30 5165 H 472.715 3.24431 0.375761 0
M  V30 5166 H 471.374 3.21776 -1.75658 0
M  V30 5167 H 471.022 5.02953 -0.0688703 0
M  V30 5168 H 470.722 5.61755 -1.72352 0
M  V30 5169 H 472.246 6.04042 -0.892494 0
M  V30 5170 H 473.66 4.95315 -2.8868 0
M  V30 5171 H 472.057 4.76021 -3.6541 0
M  V30 5172 H 473.127 3.35498 -3.50099 0
M  V30 5173 N 474.47 1.03057 1.19235 0
M  V30 5174 C 475.695 0.74757 1.93458 0
M  V30 5175 C 476.12 -0.687648 1.7508 0
M  V30 5176 O 475.478 -1.47499 1.05422 0
M  V30 5177 C 475.526 1.10604 3.43219 0
M  V30 5178 O 474.63 0.225671 4.11782 0
M  V30 5179 H 473.971 0.276047 0.603899 0
M  V30 5180 H 476.501 1.3777 1.51263 0
M  V30 5181 H 476.511 1.06366 3.93891 0
M  V30 5182 H 475.186 2.15165 3.55917 0
M  V30 5183 H 473.763 0.326795 3.71465 0
M  V30 5184 N 475.948 -1.35272 0.808662 0
M  V30 5185 C 476.896 -2.31663 0.208606 0
M  V30 5186 C 477.89 -1.56731 -0.642778 0
M  V30 5187 O 479.096 -1.71843 -0.53571 0
M  V30 5188 H 475.471 -0.750421 0.0486993 0
M  V30 5189 H 477.442 -2.79814 1.03666 0
M  V30 5190 C 476.191 -3.42008 -0.626573 0
M  V30 5191 H 475.514 -3.99795 0.0192103 0
M  V30 5192 H 476.954 -4.11727 -1.01278 0
M  V30 5193 C 475.413 -2.85226 -1.79298 0
M  V30 5194 O 475.943 -2.78945 -2.89055 0
M  V30 5195 N 474.149 -2.42245 -1.60516 0
M  V30 5196 H 473.696 -2.47554 -0.712375 0
M  V30 5197 H 473.654 -2.04603 -2.38715 0
M  V30 5198 N 477.426 -0.562348 -1.47226 0
M  V30 5199 C 478.373 0.182461 -2.30078 0
M  V30 5200 C 479.343 0.903503 -1.39377 0
M  V30 5201 O 480.528 0.898188 -1.68337 0
M  V30 5202 C 477.668 1.20322 -3.23445 0
M  V30 5203 C 476.781 0.487717 -4.29238 0
M  V30 5204 C 475.916 1.49422 -5.09752 0
M  V30 5205 C 474.955 0.763976 -6.07314 0
M  V30 5206 N 474.092 1.71755 -6.80768 0
M  V30 5207 H 478.932 -0.530169 -2.93246 0
M  V30 5208 H 476.469 -0.273276 -1.44539 0
M  V30 5209 H 478.427 1.80768 -3.76004 0
M  V30 5210 H 477.057 1.88382 -2.6213 0
M  V30 5211 H 476.109 -0.231374 -3.79696 0
M  V30 5212 H 477.421 -0.0841003 -4.98729 0
M  V30 5213 H 476.575 2.17206 -5.66486 0
M  V30 5214 H 475.314 2.09995 -4.40174 0
M  V30 5215 H 474.319 0.0722344 -5.49753 0
M  V30 5216 H 475.544 0.16391 -6.78902 0
M  V30 5217 H 473.49 2.31177 -6.13916 0
M  V30 5218 H 473.407 1.19802 -7.46447 0
M  V30 5219 H 474.675 2.38638 -7.42073 0
M  V30 5220 N 478.904 1.54736 -0.299062 0
M  V30 5221 C 479.852 2.24897 0.593658 0
M  V30 5222 C 480.846 1.25429 1.13859 0
M  V30 5223 O 482.052 1.43286 1.08945 0
M  V30 5224 H 478.427 0.72207 0.210046 0
M  V30 5225 H 480.398 2.98393 -0.0206421 0
M  V30 5226 C 479.147 3.00159 1.75499 0
M  V30 5227 H 478.47 3.76501 1.34489 0
M  V30 5228 H 479.91 3.52535 2.35574 0
M  V30 5229 C 478.369 2.07015 2.65794 0
M  V30 5230 O 478.899 1.63692 3.66835 0
M  V30 5231 N 477.105 1.73012 2.33485 0
M  V30 5232 H 476.652 2.08439 1.51364 0
M  V30 5233 H 476.61 1.10965 2.94167 0
M  V30 5234 N 480.382 0.0267497 1.57577 0
M  V30 5235 C 481.631 -0.651736 1.9088 0
M  V30 5236 C 481.944 -1.73427 0.904576 0
M  V30 5237 O 483.15 -2.46923 1.12877 0
M  V30 5238 C 481.606 -1.21048 3.38933 0
M  V30 5239 C 481.214 -0.161362 4.47709 0
M  V30 5240 C 482.958 -1.86562 3.81307 0
M  V30 5241 C 480.865 -0.731611 5.86857 0
M  V30 5242 H 479.795 -0.247198 0.712326 0
M  V30 5243 H 482.446 0.0916641 1.83271 0
M  V30 5244 H 480.828 -2.00542 3.41466 0
M  V30 5245 H 482.002 0.61094 4.56732 0
M  V30 5246 H 480.317 0.394877 4.14523 0
M  V30 5247 H 482.914 -2.30178 4.8262 0
M  V30 5248 H 483.257 -2.70735 3.16241 0
M  V30 5249 H 483.79 -1.13762 3.81186 0
M  V30 5250 H 480.529 0.0719329 6.55461 0
M  V30 5251 H 480.049 -1.47245 5.81445 0
M  V30 5252 H 481.728 -1.22208 6.35354 0
M  V30 5253 N 481.861 -1.55662 -0.24637 0
M  V30 5254 C 483.091 -1.81312 -0.990438 0
M  V30 5255 C 483.499 -0.600234 -1.79426 0
M  V30 5256 O 482.842 0.440537 -1.78339 0
M  V30 5257 C 482.904 -3.0032 -1.97607 0
M  V30 5258 C 482.568 -4.36322 -1.35912 0
M  V30 5259 C 483.565 -5.14295 -0.761348 0
M  V30 5260 C 481.25 -4.83019 -1.37833 0
M  V30 5261 C 483.244 -6.37114 -0.190998 0
M  V30 5262 C 480.931 -6.05786 -0.804128 0
M  V30 5263 C 481.929 -6.82672 -0.211489 0
M  V30 5264 O 481.617 -8.03121 0.353845 0
M  V30 5265 H 481.349 -0.607233 -0.297058 0
M  V30 5266 H 483.903 -2.0356 -0.274351 0
M  V30 5267 H 482.133 -2.73829 -2.73047 0
M  V30 5268 H 483.822 -3.13057 -2.58361 0
M  V30 5269 H 484.588 -4.79337 -0.739013 0
M  V30 5270 H 480.467 -4.23165 -1.829 0
M  V30 5271 H 484.011 -6.97069 0.272206 0
M  V30 5272 H 479.908 -6.40222 -0.823792 0
M  V30 5273 H 480.676 -8.18131 0.245761 0
M  V30 5274 N 483.339 0.512053 -1.4905 0
M  V30 5275 C 484.287 1.63568 -1.65373 0
M  V30 5276 C 485.281 1.61228 -0.519806 0
M  V30 5277 O 486.487 1.65869 -0.699101 0
M  V30 5278 H 482.862 0.542019 -0.521267 0
M  V30 5279 H 484.833 1.4695 -2.59708 0
M  V30 5280 C 483.582 3.01761 -1.7273 0
M  V30 5281 H 482.905 3.04263 -2.59353 0
M  V30 5282 H 484.345 3.79948 -1.8819 0
M  V30 5283 C 482.804 3.33609 -0.46973 0
M  V30 5284 O 483.334 3.99607 0.409492 0
M  V30 5285 N 481.54 2.88651 -0.336003 0
M  V30 5286 H 481.087 2.35119 -1.05247 0
M  V30 5287 H 481.045 3.10328 0.504363 0
M  V30 5288 N 484.817 1.37938 0.762283 0
M  V30 5289 C 485.749 1.30349 1.88525 0
M  V30 5290 C 486.762 0.217402 1.61342 0
M  V30 5291 O 487.951 0.474291 1.72084 0
M  V30 5292 C 485.051 0.994844 3.23969 0
M  V30 5293 C 484.224 2.18829 3.78725 0
M  V30 5294 C 483.283 1.84844 4.92665 0
M  V30 5295 O 482.309 2.57244 5.07754 0
M  V30 5296 N 483.511 0.798201 5.74986 0
M  V30 5297 H 486.276 2.27114 1.95549 0
M  V30 5298 H 483.837 1.31686 0.941825 0
M  V30 5299 H 485.829 0.748168 3.97724 0
M  V30 5300 H 484.399 0.115446 3.12387 0
M  V30 5301 H 483.619 2.59615 2.96637 0
M  V30 5302 H 484.907 2.98497 4.1204 0
M  V30 5303 H 484.305 0.197611 5.65355 0
M  V30 5304 H 482.862 0.611396 6.48926 0
M  V30 5305 N 486.295 -0.989507 1.22664 0
M  V30 5306 C 487.225 -2.09847 1.02404 0
M  V30 5307 C 488.206 -1.70007 -0.0561303 0
M  V30 5308 O 489.391 -1.93906 0.106748 0
M  V30 5309 C 486.521 -3.41996 0.604663 0
M  V30 5310 C 485.475 -3.95699 1.63115 0
M  V30 5311 C 484.801 -5.23936 1.0675 0
M  V30 5312 C 486.101 -4.25999 3.02196 0
M  V30 5313 H 487.795 -2.27054 1.95158 0
M  V30 5314 H 485.341 -1.09111 0.939727 0
M  V30 5315 H 487.294 -4.1899 0.45002 0
M  V30 5316 H 486.018 -3.24626 -0.35855 0
M  V30 5317 H 484.677 -3.2084 1.77362 0
M  V30 5318 H 484.325 -5.02909 0.0955422 0
M  V30 5319 H 484.025 -5.60833 1.75328 0
M  V30 5320 H 485.549 -6.0356 0.924516 0
M  V30 5321 H 486.963 -4.93777 2.91303 0
M  V30 5322 H 485.36 -4.74076 3.67929 0
M  V30 5323 H 486.43 -3.33636 3.51873 0
M  V30 5324 N 487.773 -1.03688 -1.18687 0
M  V30 5325 C 489.02 -0.73803 -1.88572 0
M  V30 5326 C 489.348 0.733973 -1.8012 0
M  V30 5327 O 488.603 1.55098 -1.19344 0
M  V30 5328 C 488.902 -1.14477 -3.3857 0
M  V30 5329 C 488.568 -2.61641 -3.67226 0
M  V30 5330 C 487.23 -3.01846 -3.74757 0
M  V30 5331 C 489.582 -3.56812 -3.79914 0
M  V30 5332 C 486.91 -4.36118 -3.92451 0
M  V30 5333 C 489.262 -4.90799 -3.99123 0
M  V30 5334 C 487.926 -5.3068 -4.04888 0
M  V30 5335 H 487.196 -0.270064 -0.690034 0
M  V30 5336 H 489.843 -1.3012 -1.40503 0
M  V30 5337 H 488.148 -0.500337 -3.88592 0
M  V30 5338 H 489.845 -0.89095 -3.90977 0
M  V30 5339 H 486.435 -2.29498 -3.61979 0
M  V30 5340 H 490.619 -3.26899 -3.73431 0
M  V30 5341 H 485.875 -4.66542 -3.95157 0
M  V30 5342 H 490.049 -5.64451 -4.07882 0
M  V30 5343 H 487.676 -6.34733 -4.18351 0
M  V30 5344 N 489.251 1.34841 -0.815825 0
M  V30 5345 C 490.476 2.03261 -0.41226 0
M  V30 5346 C 490.901 1.61055 0.971751 0
M  V30 5347 O 490.259 0.7917 1.63101 0
M  V30 5348 C 490.307 3.56914 -0.514289 0
M  V30 5349 O 489.411 4.09728 0.468675 0
M  V30 5350 H 488.752 0.641664 -0.170771 0
M  V30 5351 H 491.282 1.72241 -1.10427 0
M  V30 5352 H 491.292 4.06156 -0.387457 0
M  V30 5353 H 489.967 3.86982 -1.52375 0
M  V30 5354 H 488.544 3.71681 0.301316 0
M  V30 5355 N 490.729 0.570148 1.46925 0
M  V30 5356 C 491.659 -0.158274 2.32963 0
M  V30 5357 C 492.64 -0.896093 1.44583 0
M  V30 5358 O 493.825 -0.874022 1.7342 0
M  V30 5359 C 490.955 -1.18055 3.26619 0
M  V30 5360 C 489.909 -0.558379 4.24342 0
M  V30 5361 C 489.235 -1.68623 5.07415 0
M  V30 5362 C 490.535 0.496295 5.19937 0
M  V30 5363 H 492.229 0.560046 2.94115 0
M  V30 5364 H 489.775 0.270775 1.41431 0
M  V30 5365 H 491.728 -1.69841 3.85658 0
M  V30 5366 H 490.452 -1.92899 2.63548 0
M  V30 5367 H 489.111 -0.0617157 3.66548 0
M  V30 5368 H 488.759 -2.42402 4.40738 0
M  V30 5369 H 488.459 -1.27564 5.73586 0
M  V30 5370 H 489.983 -2.20709 5.69315 0
M  V30 5371 H 491.397 0.0640052 5.73264 0
M  V30 5372 H 489.794 0.82649 5.94381 0
M  V30 5373 H 490.864 1.38735 4.6463 0
M  V30 5374 N 492.207 -1.54576 0.307264 0
M  V30 5375 C 493.437 -2.04378 -0.302158 0
M  V30 5376 C 493.845 -1.18381 -1.47589 0
M  V30 5377 O 493.188 -0.20352 -1.82569 0
M  V30 5378 C 493.25 -3.50133 -0.815305 0
M  V30 5379 C 492.914 -4.56401 0.233977 0
M  V30 5380 C 493.911 -5.08884 1.06456 0
M  V30 5381 C 491.596 -5.0088 0.377478 0
M  V30 5382 C 493.59 -6.04394 2.02452 0
M  V30 5383 C 491.277 -5.96208 1.34088 0
M  V30 5384 C 492.275 -6.47849 2.16288 0
M  V30 5385 O 491.963 -7.41308 3.10994 0
M  V30 5386 H 491.695 -0.672502 -0.0686839 0
M  V30 5387 H 494.249 -2.00484 0.446682 0
M  V30 5388 H 492.479 -3.51371 -1.61478 0
M  V30 5389 H 494.168 -3.83098 -1.34129 0
M  V30 5390 H 494.934 -4.75311 0.964596 0
M  V30 5391 H 490.813 -4.60309 -0.252405 0
M  V30 5392 H 494.357 -6.44626 2.66652 0
M  V30 5393 H 490.254 -6.29198 1.44154 0
M  V30 5394 H 491.022 -7.5913 3.06045 0
M  V30 5395 N 493.685 -0.035106 -1.57561 0
M  V30 5396 C 494.633 0.962707 -2.11742 0
M  V30 5397 C 495.627 1.33296 -1.0454 0
M  V30 5398 O 496.833 1.31449 -1.22968 0
M  V30 5399 H 493.208 0.32826 -0.676572 0
M  V30 5400 H 495.179 0.48048 -2.94506 0
M  V30 5401 C 493.928 2.23388 -2.66445 0
M  V30 5402 H 493.251 1.95774 -3.48587 0
M  V30 5403 H 494.691 2.91402 -3.07995 0
M  V30 5404 C 493.15 2.96769 -1.59467 0
M  V30 5405 O 493.68 3.89105 -0.998 0
M  V30 5406 N 491.886 2.59212 -1.31369 0
M  V30 5407 H 491.433 1.84202 -1.80076 0
M  V30 5408 H 491.391 3.08618 -0.600173 0
M  V30 5409 N 495.163 1.55791 0.238111 0
M  V30 5410 C 496.113 1.87444 1.29803 0
M  V30 5411 C 497.097 0.736043 1.43078 0
M  V30 5412 O 498.289 0.998146 1.46171 0
M  V30 5413 C 495.418 2.18028 2.65177 0
M  V30 5414 C 494.504 3.38217 2.55871 0
M  V30 5415 N 494.895 4.57264 2.16202 0
M  V30 5416 C 493.193 3.41502 2.86866 0
M  V30 5417 C 493.894 5.3941 2.17744 0
M  V30 5418 N 492.87 4.78695 2.57589 0
M  V30 5419 H 496.672 2.7701 0.981965 0
M  V30 5420 H 494.186 1.56135 0.44672 0
M  V30 5421 H 496.183 2.38873 3.4168 0
M  V30 5422 H 494.843 1.29765 2.97643 0
M  V30 5423 H 495.854 4.82727 1.87602 0
M  V30 5424 H 492.531 2.63536 3.23813 0
M  V30 5425 H 493.921 6.44671 1.89339 0
M  V30 5426 N 496.642 -0.504142 1.49319 0
M  V30 5427 C 497.867 -1.28729 1.62615 0
M  V30 5428 C 498.292 -1.85752 0.296309 0
M  V30 5429 O 497.65 -1.65704 -0.735649 0
M  V30 5430 C 497.698 -2.39561 2.69524 0
M  V30 5431 O 496.802 -3.43324 2.28478 0
M  V30 5432 H 496.143 -0.380172 0.544395 0
M  V30 5433 H 498.673 -0.603872 1.95485 0
M  V30 5434 H 498.683 -2.8537 2.91595 0
M  V30 5435 H 497.358 -1.97423 3.66056 0
M  V30 5436 H 495.935 -3.03455 2.16725 0
M  V30 5437 N 498.12 -1.38341 -0.754957 0
M  V30 5438 C 499.366 -1.34672 -1.51628 0
M  V30 5439 C 499.699 0.0636036 -1.94096 0
M  V30 5440 O 498.974 1.0245 -1.6533 0
M  V30 5441 C 499.257 -2.30116 -2.76981 0
M  V30 5442 C 499.11 -3.80003 -2.4066 0
M  V30 5443 C 500.429 -2.23715 -3.78998 0
M  V30 5444 H 497.548 -0.490517 -0.550056 0
M  V30 5445 H 500.19 -1.69178 -0.864807 0
M  V30 5446 H 498.34 -2.00821 -3.3257 0
M  V30 5447 H 500.012 -4.19966 -1.90856 0
M  V30 5448 H 498.255 -3.97751 -1.73137 0
M  V30 5449 H 498.926 -4.42244 -3.30339 0
M  V30 5450 H 501.402 -2.49574 -3.32945 0
M  V30 5451 H 500.278 -2.9261 -4.64403 0
M  V30 5452 H 500.539 -1.23554 -4.24484 0
M  V30 5453 N 499.598 0.982988 -1.23187 0
M  V30 5454 C 501.014 1.2487 -0.993967 0
M  V30 5455 C 501.214 1.99155 0.306498 0
M  V30 5456 O 500.27 2.30688 1.0266 0
M  V30 5457 C 501.583 2.05078 -2.19917 0
M  V30 5458 C 503.131 2.18227 -2.2438 0
M  V30 5459 C 503.606 3.01825 -3.44479 0
M  V30 5460 N 505.097 3.09411 -3.44702 0
M  V30 5461 C 505.832 3.74412 -4.34285 0
M  V30 5462 N 505.328 4.41259 -5.341 0
M  V30 5463 N 507.121 3.71273 -4.22035 0
M  V30 5464 H 499.272 0.485253 -2.06783 0
M  V30 5465 H 501.535 0.276979 -0.906635 0
M  V30 5466 H 501.241 1.57867 -3.14279 0
M  V30 5467 H 501.115 3.05829 -2.2079 0
M  V30 5468 H 503.502 2.64648 -1.30559 0
M  V30 5469 H 503.583 1.16873 -2.2754 0
M  V30 5470 H 503.227 2.56102 -4.38605 0
M  V30 5471 H 503.157 4.03342 -3.38559 0
M  V30 5472 H 505.648 2.61845 -2.7248 0
M  V30 5473 H 505.961 4.88629 -5.98717 0
M  V30 5474 H 504.306 4.39975 -5.38002 0
M  V30 5475 H 507.497 3.18217 -3.43301 0
M  V30 5476 H 507.67 4.21649 -4.92053 0
M  V30 5477 N 501.076 1.04316 1.18135 0
M  V30 5478 C 501.986 0.646876 2.25505 0
M  V30 5479 C 503.002 -0.328008 1.7088 0
M  V30 5480 O 504.178 -0.182309 2.00573 0
M  V30 5481 C 501.243 0.0185664 3.46695 0
M  V30 5482 C 500.304 1.04277 4.16443 0
M  V30 5483 C 499.537 0.444352 5.31847 0
M  V30 5484 O 499.76 -0.748735 5.65465 0
M  V30 5485 O 498.694 1.17428 5.90334 0
M  V30 5486 H 502.52 1.54147 2.61672 0
M  V30 5487 H 500.105 0.814188 1.25265 0
M  V30 5488 H 501.987 -0.331068 4.20097 0
M  V30 5489 H 500.662 -0.849814 3.12346 0
M  V30 5490 H 499.569 1.44425 3.45098 0
M  V30 5491 H 500.902 1.882 4.54798 0
M  V30 5492 N 502.554 -1.34406 0.822964 0
M  V30 5493 C 503.97 -1.51275 0.508727 0
M  V30 5494 C 504.17 -1.76776 -0.967083 0
M  V30 5495 O 503.226 -1.81871 -1.75155 0
M  V30 5496 C 504.539 -2.67765 1.36829 0
M  V30 5497 C 506.087 -2.81647 1.36542 0
M  V30 5498 C 506.562 -4.01181 2.20947 0
M  V30 5499 N 508.053 -4.08388 2.18571 0
M  V30 5500 C 508.788 -5.00036 2.80627 0
M  V30 5501 N 508.284 -5.96906 3.51674 0
M  V30 5502 N 510.077 -4.92908 2.70181 0
M  V30 5503 H 502.228 -1.16113 1.77852 0
M  V30 5504 H 504.491 -0.56947 0.757897 0
M  V30 5505 H 504.197 -2.55551 2.41633 0
M  V30 5506 H 504.071 -3.62779 1.03303 0
M  V30 5507 H 506.458 -2.93303 0.325163 0
M  V30 5508 H 506.539 -1.87443 1.74066 0
M  V30 5509 H 506.183 -3.90286 3.25022 0
M  V30 5510 H 506.113 -4.94599 1.80774 0
M  V30 5511 H 508.604 -3.39051 1.66891 0
M  V30 5512 H 508.917 -6.63468 3.96271 0
M  V30 5513 H 507.262 -5.9703 3.5578 0
M  V30 5514 H 510.453 -4.1619 2.14251 0
M  V30 5515 H 510.626 -5.64137 3.18831 0
M  V30 5516 N 504.032 -0.577932 -1.46621 0
M  V30 5517 C 505.262 -0.0670668 -2.06491 0
M  V30 5518 C 505.67 1.24119 -1.42798 0
M  V30 5519 O 505.013 1.76016 -0.525759 0
M  V30 5520 C 505.075 0.177995 -3.59059 0
M  V30 5521 C 504.739 -1.04394 -4.44917 0
M  V30 5522 C 505.736 -1.95479 -4.81751 0
M  V30 5523 C 503.421 -1.26444 -4.86125 0
M  V30 5524 C 505.415 -3.06965 -5.58615 0
M  V30 5525 C 503.102 -2.38237 -5.62749 0
M  V30 5526 C 504.1 -3.28327 -5.98908 0
M  V30 5527 O 503.788 -4.38179 -6.73984 0
M  V30 5528 H 503.52 -0.0523159 -0.673973 0
M  V30 5529 H 506.074 -0.796966 -1.89308 0
M  V30 5530 H 504.304 0.962451 -3.74531 0
M  V30 5531 H 505.993 0.636782 -4.00874 0
M  V30 5532 H 506.759 -1.79657 -4.50498 0
M  V30 5533 H 502.638 -0.572316 -4.57434 0
M  V30 5534 H 506.182 -3.77309 -5.86757 0
M  V30 5535 H 502.079 -2.54023 -5.93416 0
M  V30 5536 H 502.847 -4.36486 -6.92403 0
M  V30 5537 N 505.51 1.54411 -0.315457 0
M  V30 5538 C 506.735 2.05299 0.294496 0
M  V30 5539 C 507.16 1.19052 1.4563 0
M  V30 5540 O 506.518 0.197804 1.80218 0
M  V30 5541 C 506.566 3.5345 0.714549 0
M  V30 5542 O 505.67 3.70175 1.81781 0
M  V30 5543 H 505.011 0.661743 0.0547019 0
M  V30 5544 H 507.541 1.99327 -0.461508 0
M  V30 5545 H 507.551 3.9557 0.999426 0
M  V30 5546 H 506.226 4.1568 -0.135244 0
M  V30 5547 H 504.803 3.3996 1.53236 0
M  V30 5548 N 506.988 0.0434614 1.5754 0
M  V30 5549 C 508.235 -0.632035 1.92384 0
M  V30 5550 C 508.563 -1.71304 0.921157 0
M  V30 5551 O 507.818 -1.95583 -0.067744 0
M  V30 5552 C 508.117 -1.2738 3.3393 0
M  V30 5553 C 507.783 -0.321757 4.49751 0
M  V30 5554 C 506.445 -0.0597611 4.81163 0
M  V30 5555 C 508.797 0.331158 5.20147 0
M  V30 5556 C 506.125 0.862715 5.80322 0
M  V30 5557 C 508.477 1.24178 6.20292 0
M  V30 5558 C 507.141 1.51252 6.50138 0
M  V30 5559 H 506.411 -0.231278 0.703983 0
M  V30 5560 H 509.058 0.108294 1.91194 0
M  V30 5561 H 507.363 -2.08921 3.3145 0
M  V30 5562 H 509.06 -1.80326 3.58167 0
M  V30 5563 H 505.65 -0.53614 4.25233 0
M  V30 5564 H 509.834 0.141826 4.96097 0
M  V30 5565 H 505.09 1.08003 6.01785 0
M  V30 5566 H 509.264 1.75381 6.73954 0
M  V30 5567 H 506.891 2.22897 7.26788 0
M  V30 5568 N 508.466 -1.55915 -0.229846 0
M  V30 5569 C 509.413 -1.91734 -1.28478 0
M  V30 5570 C 510.383 -0.773539 -1.46988 0
M  V30 5571 O 511.568 -1.02871 -1.60693 0
M  V30 5572 C 508.708 -2.23224 -2.63182 0
M  V30 5573 C 507.821 -3.50497 -2.52539 0
M  V30 5574 C 506.956 -3.71474 -3.79711 0
M  V30 5575 C 505.995 -4.92289 -3.63755 0
M  V30 5576 N 505.132 -5.09698 -4.82858 0
M  V30 5577 H 509.972 -2.81692 -0.972308 0
M  V30 5578 H 507.509 -1.39429 -0.468815 0
M  V30 5579 H 509.467 -2.3949 -3.41614 0
M  V30 5580 H 508.097 -1.36451 -2.92542 0
M  V30 5581 H 507.149 -3.4247 -1.65585 0
M  V30 5582 H 508.461 -4.39079 -2.36666 0
M  V30 5583 H 507.615 -3.87791 -4.66586 0
M  V30 5584 H 506.354 -2.81157 -3.985 0
M  V30 5585 H 505.359 -4.7593 -2.75264 0
M  V30 5586 H 506.584 -5.84083 -3.46445 0
M  V30 5587 H 504.53 -4.22322 -5.01976 0
M  V30 5588 H 504.447 -5.92399 -4.69681 0
M  V30 5589 H 505.715 -5.30443 -5.71183 0
M  V30 5590 N 509.944 0.496216 -1.49584 0
M  V30 5591 C 510.892 1.61805 -1.67098 0
M  V30 5592 C 511.886 1.60667 -0.536877 0
M  V30 5593 O 513.092 1.65118 -0.716654 0
M  V30 5594 H 509.467 0.53646 -0.526986 0
M  V30 5595 H 511.438 1.44187 -2.61252 0
M  V30 5596 C 510.187 2.99912 -1.75921 0
M  V30 5597 H 509.51 3.01496 -2.62565 0
M  V30 5598 H 510.95 3.77931 -1.92209 0
M  V30 5599 C 509.409 3.33092 -0.505088 0
M  V30 5600 O 509.939 4.00019 0.367085 0
M  V30 5601 N 508.145 2.88278 -0.366599 0
M  V30 5602 H 507.692 2.33989 -1.07735 0
M  V30 5603 H 507.65 3.10846 0.47142 0
M  V30 5604 N 511.423 1.38739 0.74761 0
M  V30 5605 C 512.373 1.32948 1.85226 0
M  V30 5606 C 513.357 0.212642 1.59489 0
M  V30 5607 O 514.549 0.449121 1.71207 0
M  V30 5608 C 511.678 1.16279 3.23008 0
M  V30 5609 C 510.764 2.32611 3.54617 0
M  V30 5610 N 511.155 3.58065 3.57244 0
M  V30 5611 C 509.453 2.25293 3.84914 0
M  V30 5612 C 510.154 4.34919 3.8629 0
M  V30 5613 N 509.13 3.64348 4.03425 0
M  V30 5614 H 512.932 2.27927 1.85544 0
M  V30 5615 H 510.446 1.32056 0.945253 0
M  V30 5616 H 512.443 1.10214 4.02068 0
M  V30 5617 H 511.103 0.222394 3.23937 0
M  V30 5618 H 512.114 3.91656 3.3886 0
M  V30 5619 H 508.791 1.39446 3.93524 0
M  V30 5620 H 510.181 5.43605 3.94896 0
M  V30 5621 N 512.901 -0.976442 1.23707 0
M  V30 5622 C 513.831 -2.08749 1.04624 0
M  V30 5623 C 514.812 -1.70057 -0.0380956 0
M  V30 5624 O 515.997 -1.93782 0.127308 0
M  V30 5625 C 513.127 -3.41335 0.640902 0
M  V30 5626 C 512.081 -3.93947 1.67302 0
M  V30 5627 C 511.407 -5.22774 1.12301 0
M  V30 5628 C 512.707 -4.22769 3.06697 0
M  V30 5629 H 514.401 -2.24972 1.97555 0
M  V30 5630 H 511.947 -1.08108 0.951247 0
M  V30 5631 H 513.9 -4.18489 0.494434 0
M  V30 5632 H 512.624 -3.24988 -0.324099 0
M  V30 5633 H 511.283 -3.18941 1.80755 0
M  V30 5634 H 510.931 -5.0278 0.148877 0
M  V30 5635 H 510.631 -5.58942 1.81267 0
M  V30 5636 H 512.155 -6.02546 0.988479 0
M  V30 5637 H 513.569 -4.90659 2.96524 0
M  V30 5638 H 511.966 -4.70147 3.72937 0
M  V30 5639 H 513.036 -3.29885 3.55392 0
M  V30 5640 N 514.379 -1.04941 -1.1758 0
M  V30 5641 C 515.604 -0.778253 -1.92245 0
M  V30 5642 C 516.029 0.659707 -1.76152 0
M  V30 5643 O 515.387 1.45803 -1.07755 0
M  V30 5644 C 515.435 -1.16051 -3.41416 0
M  V30 5645 O 514.539 -0.291153 -4.11371 0
M  V30 5646 H 513.88 -0.285619 -0.599431 0
M  V30 5647 H 516.41 -1.40159 -1.49052 0
M  V30 5648 H 516.42 -1.12619 -3.92149 0
M  V30 5649 H 515.095 -2.208 -3.52449 0
M  V30 5650 H 513.672 -0.385851 -3.70898 0
M  V30 5651 N 515.857 1.33968 -0.830081 0
M  V30 5652 C 517.087 2.01987 -0.434142 0
M  V30 5653 C 517.495 1.62639 0.96671 0
M  V30 5654 O 516.838 0.831151 1.63822 0
M  V30 5655 C 516.9 3.5648 -0.465018 0
M  V30 5656 C 516.564 4.19176 -1.82045 0
M  V30 5657 C 517.561 4.39181 -2.78237 0
M  V30 5658 C 515.246 4.55792 -2.11089 0
M  V30 5659 C 517.24 4.94937 -4.01642 0
M  V30 5660 C 514.927 5.11258 -3.34752 0
M  V30 5661 C 515.925 5.30775 -4.29845 0
M  V30 5662 O 515.613 5.85064 -5.51322 0
M  V30 5663 H 515.345 0.653847 -0.171639 0
M  V30 5664 H 517.899 1.72066 -1.12171 0
M  V30 5665 H 516.129 3.8569 0.279284 0
M  V30 5666 H 517.818 4.05804 -0.0881334 0
M  V30 5667 H 518.584 4.11249 -2.57097 0
M  V30 5668 H 514.463 4.39901 -1.3787 0
M  V30 5669 H 518.007 5.10086 -4.75876 0
M  V30 5670 H 513.904 5.38619 -3.55753 0
M  V30 5671 H 514.672 6.03489 -5.5294 0
M  V30 5672 N 517.335 0.585699 1.46312 0
M  V30 5673 C 518.265 -0.133556 2.33118 0
M  V30 5674 C 519.246 -0.880707 1.45525 0
M  V30 5675 O 520.431 -0.855579 1.74337 0
M  V30 5676 C 517.561 -1.14585 3.27853 0
M  V30 5677 C 516.515 -0.513341 4.2491 0
M  V30 5678 C 515.841 -1.63231 5.09175 0
M  V30 5679 C 517.141 0.551413 5.19381 0
M  V30 5680 H 518.835 0.59121 2.93505 0
M  V30 5681 H 516.381 0.285761 1.41136 0
M  V30 5682 H 518.334 -1.65741 3.87438 0
M  V30 5683 H 517.058 -1.90093 2.65579 0
M  V30 5684 H 515.717 -0.0228349 3.66593 0
M  V30 5685 H 515.365 -2.37713 4.43285 0
M  V30 5686 H 515.065 -1.21473 5.74907 0
M  V30 5687 H 516.589 -2.14658 5.71624 0
M  V30 5688 H 518.003 0.124804 5.73164 0
M  V30 5689 H 516.4 0.889486 5.93471 0
M  V30 5690 H 517.47 1.43655 4.63132 0
M  V30 5691 N 518.813 -1.54241 0.323641 0
M  V30 5692 C 520.224 -1.85975 -0.164405 0
M  V30 5693 C 520.575 -1.24529 -1.51615 0
M  V30 5694 O 519.7 -0.551351 -2.09258 0
M  V30 5695 C 520.295 -3.37424 -0.305091 0
M  V30 5696 C 518.854 -3.69107 -0.737358 0
M  V30 5697 C 518.001 -2.76942 0.140884 0
M  V30 5698 H 520.952 -1.49088 0.543922 0
M  V30 5699 H 520.973 -3.63147 -1.13598 0
M  V30 5700 H 520.485 -3.82116 0.678876 0
M  V30 5701 H 518.586 -3.29947 -1.73107 0
M  V30 5702 H 518.699 -4.76035 -0.541053 0
M  V30 5703 H 517.063 -2.51795 -0.383572 0
M  V30 5704 H 517.846 -3.24461 1.12162 0
M  V30 5705 N 520.291 -0.0518155 -1.57515 0
M  V30 5706 C 521.54 0.621286 -1.91893 0
M  V30 5707 C 521.853 1.71966 -0.932052 0
M  V30 5708 O 523.059 2.45096 -1.16791 0
M  V30 5709 C 521.515 1.15641 -3.40816 0
M  V30 5710 C 521.123 0.0901146 -4.47909 0
M  V30 5711 C 522.867 1.80472 -3.84227 0
M  V30 5712 C 520.774 0.638154 -5.87947 0
M  V30 5713 H 519.704 0.235835 -0.716169 0
M  V30 5714 H 522.355 -0.120809 -1.83102 0
M  V30 5715 H 520.737 1.95084 -3.44613 0
M  V30 5716 H 521.911 -0.683525 -4.55702 0
M  V30 5717 H 520.226 -0.460774 -4.13843 0
M  V30 5718 H 522.823 2.22471 -4.86221 0
M  V30 5719 H 523.166 2.65669 -3.20508 0
M  V30 5720 H 523.699 1.07683 -3.82948 0
M  V30 5721 H 520.438 -0.176202 -6.55263 0
M  V30 5722 H 519.958 1.37976 -5.83714 0
M  V30 5723 H 521.637 1.12085 -6.37217 0
M  V30 5724 N 521.769 1.56035 0.221574 0
M  V30 5725 C 522.994 1.83476 0.967026 0
M  V30 5726 C 523.419 0.632139 1.7716 0
M  V30 5727 O 522.777 -0.419082 1.7639 0
M  V30 5728 C 522.825 3.08907 1.86034 0
M  V30 5729 O 521.929 2.876 2.95567 0
M  V30 5730 H 521.27 0.604913 0.273817 0
M  V30 5731 H 523.8 2.03247 0.234893 0
M  V30 5732 H 523.81 3.3901 2.27016 0
M  V30 5733 H 522.485 3.96068 1.26898 0
M  V30 5734 H 521.062 2.6873 2.58532 0
M  V30 5735 N 523.247 -0.488276 1.49845 0
M  V30 5736 C 524.197 -1.58556 1.63842 0
M  V30 5737 C 525.181 -1.53142 0.493586 0
M  V30 5738 O 526.373 -1.60457 0.747169 0
M  V30 5739 C 523.502 -2.97101 1.72005 0
M  V30 5740 C 522.588 -3.07463 2.92108 0
M  V30 5741 N 522.979 -2.87681 4.16021 0
M  V30 5742 C 521.277 -3.3858 2.90309 0
M  V30 5743 C 521.978 -3.0256 4.96822 0
M  V30 5744 N 520.954 -3.32002 4.30437 0
M  V30 5745 H 524.756 -1.41935 2.57355 0
M  V30 5746 H 522.27 -0.694668 1.46793 0
M  V30 5747 H 524.267 -3.75976 1.80132 0
M  V30 5748 H 522.927 -3.14782 0.796375 0
M  V30 5749 H 523.938 -2.63603 4.45796 0
M  V30 5750 H 520.615 -3.62357 2.07372 0
M  V30 5751 H 522.005 -2.9165 6.05301 0
M  V30 5752 N 524.725 -1.39134 -0.740242 0
M  V30 5753 C 525.971 -1.36273 -1.50192 0
M  V30 5754 C 526.304 0.0430136 -1.94152 0
M  V30 5755 O 525.579 1.00691 -1.66408 0
M  V30 5756 C 525.862 -2.33041 -2.74525 0
M  V30 5757 C 525.715 -3.82535 -2.36617 0
M  V30 5758 C 527.034 -2.27723 -3.76604 0
M  V30 5759 H 524.153 -0.496323 -0.544823 0
M  V30 5760 H 526.795 -1.70085 -0.846815 0
M  V30 5761 H 524.945 -2.04337 -3.30422 0
M  V30 5762 H 526.617 -4.21967 -1.86391 0
M  V30 5763 H 524.86 -3.99565 -1.68909 0
M  V30 5764 H 525.531 -4.45723 -3.2563 0
M  V30 5765 H 528.007 -2.53091 -3.30279 0
M  V30 5766 H 526.883 -2.97519 -4.61274 0
M  V30 5767 H 527.144 -1.28049 -4.2315 0
M  V30 5768 N 526.204 0.969867 -1.24223 0
M  V30 5769 C 527.451 1.71256 -1.08063 0
M  V30 5770 C 527.779 1.90734 0.380872 0
M  V30 5771 O 527.034 1.46469 1.29789 0
M  V30 5772 C 527.333 3.10883 -1.76314 0
M  V30 5773 C 526.999 3.11252 -3.26241 0
M  V30 5774 C 525.661 3.1106 -3.67144 0
M  V30 5775 C 528.013 3.05751 -4.22097 0
M  V30 5776 C 525.341 3.03097 -5.02344 0
M  V30 5777 C 527.693 2.9933 -5.57301 0
M  V30 5778 C 526.357 2.97466 -5.97554 0
M  V30 5779 H 525.627 0.62667 -0.395431 0
M  V30 5780 H 528.274 1.13422 -1.54297 0
M  V30 5781 H 526.579 3.72168 -1.22468 0
M  V30 5782 H 528.276 3.67138 -1.61277 0
M  V30 5783 H 524.866 3.12165 -2.93685 0
M  V30 5784 H 529.05 3.05031 -3.91497 0
M  V30 5785 H 524.306 3.00013 -5.32731 0
M  V30 5786 H 528.48 2.94033 -6.31283 0
M  V30 5787 H 526.107 2.91051 -7.02277 0
M  V30 5788 N 527.682 1.05563 1.17022 0
M  V30 5789 C 528.592 0.670758 2.24807 0
M  V30 5790 C 529.608 -0.309865 1.71219 0
M  V30 5791 O 530.784 -0.161025 2.00755 0
M  V30 5792 C 527.849 0.055337 3.46656 0
M  V30 5793 C 526.91 1.08688 4.15314 0
M  V30 5794 C 526.143 0.500736 5.31346 0
M  V30 5795 O 526.366 -0.688718 5.66227 0
M  V30 5796 O 525.3 1.23683 5.89055 0
M  V30 5797 H 529.126 1.56914 2.60023 0
M  V30 5798 H 526.711 0.827428 1.24395 0
M  V30 5799 H 528.593 -0.286492 4.20425 0
M  V30 5800 H 527.268 -0.816638 3.13229 0
M  V30 5801 H 526.175 1.48077 3.43546 0
M  V30 5802 H 527.508 1.93014 4.52777 0
M  V30 5803 N 529.16 -1.33526 0.837174 0
M  V30 5804 C 530.576 -1.50727 0.524743 0
M  V30 5805 C 530.776 -1.77792 -0.948279 0
M  V30 5806 O 529.832 -1.83719 -1.73216 0
M  V30 5807 C 531.145 -2.66299 1.39661 0
M  V30 5808 C 532.693 -2.80183 1.39521 0
M  V30 5809 C 533.168 -3.98815 2.25189 0
M  V30 5810 N 534.659 -4.06047 2.2289 0
M  V30 5811 C 535.394 -4.97032 2.85915 0
M  V30 5812 N 534.89 -5.93143 3.57985 0
M  V30 5813 N 536.683 -4.90015 2.75394 0
M  V30 5814 H 528.834 -1.1422 1.79074 0
M  V30 5815 H 531.097 -0.561399 0.763894 0
M  V30 5816 H 530.803 -2.52974 2.4433 0
M  V30 5817 H 530.677 -3.61663 1.07145 0
M  V30 5818 H 533.064 -2.92942 0.356253 0
M  V30 5819 H 533.145 -1.85586 1.76044 0
M  V30 5820 H 532.789 -3.86817 3.29143 0
M  V30 5821 H 532.719 -4.92654 1.86009 0
M  V30 5822 H 535.21 -3.37262 1.70478 0
M  V30 5823 H 535.523 -6.59227 4.03286 0
M  V30 5824 H 533.868 -5.93223 3.62093 0
M  V30 5825 H 537.059 -4.13894 2.18654 0
M  V30 5826 H 537.232 -5.60724 3.24796 0
M  V30 5827 N 530.638 -0.59345 -1.46 0
M  V30 5828 C 531.866 -0.0890934 -2.06708 0
M  V30 5829 C 532.281 1.2205 -1.44046 0
M  V30 5830 O 531.638 1.74029 -0.549551 0
M  V30 5831 C 531.689 0.0720263 -3.61428 0
M  V30 5832 O 531.41 -1.18574 -4.21748 0
M  V30 5833 C 532.911 0.609487 -4.3909 0
M  V30 5834 H 530.131 -0.0623628 -0.668096 0
M  V30 5835 H 532.675 -0.817171 -1.87464 0
M  V30 5836 H 530.83 0.750369 -3.80063 0
M  V30 5837 H 531.244 -1.0064 -5.14754 0
M  V30 5838 H 532.718 0.671363 -5.47902 0
M  V30 5839 H 533.195 1.62878 -4.07882 0
M  V30 5840 H 533.801 -0.03434 -4.25286 0
M  V30 5841 N 532.116 1.54067 -0.331816 0
M  V30 5842 C 533.363 2.00715 0.268269 0
M  V30 5843 C 533.691 1.21986 1.51491 0
M  V30 5844 O 532.946 0.292309 1.93505 0
M  V30 5845 C 533.245 3.51634 0.639392 0
M  V30 5846 C 532.911 4.48018 -0.509019 0
M  V30 5847 C 531.573 4.74089 -0.824209 0
M  V30 5848 C 533.925 5.05237 -1.28003 0
M  V30 5849 C 531.253 5.54637 -1.91298 0
M  V30 5850 C 533.605 5.86972 -2.35895 0
M  V30 5851 C 532.269 6.11342 -2.67987 0
M  V30 5852 H 531.539 0.734469 0.0981667 0
M  V30 5853 H 534.186 1.8596 -0.457304 0
M  V30 5854 H 532.491 3.6416 1.44551 0
M  V30 5855 H 534.188 3.85175 1.11539 0
M  V30 5856 H 530.778 4.27851 -0.253287 0
M  V30 5857 H 534.962 4.8507 -1.04978 0
M  V30 5858 H 530.218 5.71747 -2.16599 0
M  V30 5859 H 534.392 6.30327 -2.96076 0
M  V30 5860 H 532.019 6.73544 -3.5248 0
M  V30 5861 N 533.594 0.0601682 1.57485 0
M  V30 5862 C 534.557 -0.896373 2.10945 0
M  V30 5863 C 535.557 -1.23402 1.03095 0
M  V30 5864 O 536.747 -1.16921 1.29132 0
M  V30 5865 C 533.879 -2.20346 2.60116 0
M  V30 5866 H 535.072 -0.432778 2.96761 0
M  V30 5867 H 532.625 -0.188372 1.55161 0
M  V30 5868 H 533.36 -2.71268 1.7772 0
M  V30 5869 H 533.145 -1.9714 3.38937 0
M  V30 5870 H 534.635 -2.88846 3.01592 0
M  V30 5871 N 535.072 -1.5615 -0.213296 0
M  V30 5872 C 536.302 -1.83372 -0.951757 0
M  V30 5873 C 536.71 -0.638158 -1.78113 0
M  V30 5874 O 536.053 0.402609 -1.79234 0
M  V30 5875 C 536.115 -3.04444 -1.91192 0
M  V30 5876 C 535.779 -4.39107 -1.26627 0
M  V30 5877 C 536.776 -5.15794 -0.652087 0
M  V30 5878 C 534.461 -4.85834 -1.27556 0
M  V30 5879 C 536.455 -6.37376 -0.055814 0
M  V30 5880 C 534.142 -6.07356 -0.675451 0
M  V30 5881 C 535.14 -6.82967 -0.0666367 0
M  V30 5882 O 534.828 -8.0219 0.524119 0
M  V30 5883 H 534.56 -0.613398 -0.284111 0
M  V30 5884 H 537.114 -2.04096 -0.231112 0
M  V30 5885 H 535.344 -2.79559 -2.67178 0
M  V30 5886 H 537.033 -3.18466 -2.51662 0
M  V30 5887 H 537.799 -4.80796 -0.637172 0
M  V30 5888 H 533.678 -4.26949 -1.73883 0
M  V30 5889 H 537.222 -6.96334 0.420004 0
M  V30 5890 H 533.119 -6.41825 -0.687806 0
M  V30 5891 H 533.887 -8.17426 0.419243 0
M  V30 5892 N 536.55 0.480323 -1.50102 0
M  V30 5893 C 537.775 1.26126 -1.64642 0
M  V30 5894 C 538.2 1.85257 -0.325823 0
M  V30 5895 O 537.558 1.66854 0.709194 0
M  V30 5896 C 537.606 2.35243 -2.73301 0
M  V30 5897 O 536.71 3.39646 -2.33911 0
M  V30 5898 H 536.051 0.371463 -0.550374 0
M  V30 5899 H 538.581 0.572696 -1.96421 0
M  V30 5900 H 538.591 2.80695 -2.96098 0
M  V30 5901 H 537.266 1.91574 -3.6915 0
M  V30 5902 H 535.843 2.99969 -2.21525 0
M  V30 5903 N 538.028 1.39524 0.732853 0
M  V30 5904 C 539.277 1.36175 1.48792 0
M  V30 5905 C 539.59 -0.0388195 1.95561 0
M  V30 5906 O 540.796 -0.194899 2.708 0
M  V30 5907 C 539.252 2.39242 2.68871 0
M  V30 5908 C 538.86 3.85024 2.29042 0
M  V30 5909 C 540.604 2.44972 3.46683 0
M  V30 5910 C 538.511 4.79727 3.45856 0
M  V30 5911 H 537.441 0.506267 0.558757 0
M  V30 5912 H 540.092 1.65181 0.799226 0
M  V30 5913 H 538.474 2.0331 3.39825 0
M  V30 5914 H 539.648 4.30008 1.6562 0
M  V30 5915 H 537.963 3.82609 1.64316 0
M  V30 5916 H 540.56 3.12918 4.33574 0
M  V30 5917 H 540.903 1.4749 3.89297 0
M  V30 5918 H 541.436 2.79808 2.82759 0
M  V30 5919 H 538.175 5.78479 3.08289 0
M  V30 5920 H 537.695 4.39421 4.08251 0
M  V30 5921 H 539.374 4.98731 4.12161 0
M  V30 5922 N 539.506 -0.963266 1.24736 0
M  V30 5923 C 540.436 -2.07628 1.06832 0
M  V30 5924 C 541.417 -1.70088 -0.0200566 0
M  V30 5925 O 542.602 -1.93636 0.147854 0
M  V30 5926 C 539.732 -3.40636 0.677069 0
M  V30 5927 C 538.686 -3.9215 1.71471 0
M  V30 5928 C 538.012 -5.21553 1.1784 0
M  V30 5929 C 539.312 -4.19493 3.11164 0
M  V30 5930 H 541.006 -2.22864 1.9993 0
M  V30 5931 H 538.552 -1.07093 0.96266 0
M  V30 5932 H 540.505 -4.17941 0.538792 0
M  V30 5933 H 539.229 -3.25313 -0.289612 0
M  V30 5934 H 537.888 -3.17005 1.84128 0
M  V30 5935 H 537.536 -5.02593 0.202195 0
M  V30 5936 H 537.236 -5.56988 1.87185 0
M  V30 5937 H 538.76 -6.01463 1.05233 0
M  V30 5938 H 540.174 -4.87487 3.01711 0
M  V30 5939 H 538.571 -4.66165 3.77902 0
M  V30 5940 H 539.641 -3.26097 3.58871 0
M  V30 5941 N 540.985 -1.06182 -1.16461 0
M  V30 5942 C 541.918 -0.615859 -2.19733 0
M  V30 5943 C 542.896 0.360766 -1.58547 0
M  V30 5944 O 544.08 0.270009 -1.86556 0
M  V30 5945 C 541.207 0.097312 -3.3856 0
M  V30 5946 C 540.253 -0.835889 -4.18229 0
M  V30 5947 S 541.086 -2.33052 -4.82128 0
M  V30 5948 C 542.242 -1.62881 -6.04335 0
M  V30 5949 H 542.475 -1.49079 -2.57221 0
M  V30 5950 H 540.008 -0.874692 -1.27234 0
M  V30 5951 H 541.966 0.502563 -4.07412 0
M  V30 5952 H 540.627 0.948418 -2.99439 0
M  V30 5953 H 539.82 -0.283426 -5.03202 0
M  V30 5954 H 539.422 -1.18097 -3.54865 0
M  V30 5955 H 541.714 -0.933764 -6.71034 0
M  V30 5956 H 542.657 -2.45641 -6.64128 0
M  V30 5957 H 543.065 -1.11189 -5.53441 0
M  V30 5958 N 542.463 1.3308 -0.844243 0
M  V30 5959 C 543.693 2.01515 -0.455541 0
M  V30 5960 C 544.101 1.63655 0.949406 0
M  V30 5961 O 543.444 0.84848 1.62931 0
M  V30 5962 C 543.506 3.55967 -0.502801 0
M  V30 5963 C 543.17 4.17222 -1.86481 0
M  V30 5964 C 544.167 4.36205 -2.8288 0
M  V30 5965 C 541.852 4.53528 -2.15911 0
M  V30 5966 C 543.846 4.90649 -4.06869 0
M  V30 5967 C 541.533 5.07679 -3.40155 0
M  V30 5968 C 542.531 5.26186 -4.35451 0
M  V30 5969 O 542.219 5.79183 -5.57496 0
M  V30 5970 H 541.951 0.65199 -0.178565 0
M  V30 5971 H 544.505 1.70867 -1.1399 0
M  V30 5972 H 542.735 3.85965 0.23836 0
M  V30 5973 H 544.424 4.05688 -0.131169 0
M  V30 5974 H 545.19 4.085 -2.61444 0
M  V30 5975 H 541.069 4.38414 -1.42528 0
M  V30 5976 H 544.613 5.0501 -4.81259 0
M  V30 5977 H 540.51 5.34815 -3.61446 0
M  V30 5978 H 541.278 5.97591 -5.5931 0
M  V30 5979 N 543.941 0.601185 1.45683 0
M  V30 5980 C 545.189 0.0936957 2.01883 0
M  V30 5981 C 545.51 -1.2779 1.47291 0
M  V30 5982 O 544.78 -1.84279 0.664691 0
M  V30 5983 H 543.36 0.0316466 0.746329 0
M  V30 5984 H 546.022 0.781137 1.78562 0
M  V30 5985 H 545.118 0.0386297 3.12076 0
M  V30 5986 N 545.419 -1.53889 0.339982 0
M  V30 5987 C 546.667 -2.00458 -0.257112 0
M  V30 5988 C 546.988 -1.22953 -1.51353 0
M  V30 5989 O 546.258 -0.335734 -1.93002 0
M  V30 5990 H 544.838 -0.740544 -0.0979965 0
M  V30 5991 H 547.5 -1.89386 0.460317 0
M  V30 5992 H 546.596 -3.08035 -0.502057 0
M  V30 5993 N 546.897 -0.0685191 -1.57451 0
M  V30 5994 C 548.125 0.610462 -1.97689 0
M  V30 5995 C 548.54 1.63346 -0.946758 0
M  V30 5996 O 547.897 1.82377 0.0669868 0
M  V30 5997 C 547.948 1.28196 -3.38006 0
M  V30 5998 O 547.669 0.299906 -4.37072 0
M  V30 5999 C 549.17 2.04907 -3.931 0
M  V30 6000 H 546.39 0.165689 -0.650222 0
M  V30 6001 H 548.934 -0.139953 -2.04021 0
M  V30 6002 H 547.089 1.98348 -3.32771 0
M  V30 6003 H 547.503 0.78126 -5.18649 0
M  V30 6004 H 548.977 2.47287 -4.93511 0
M  V30 6005 H 549.454 2.9043 -3.29465 0
M  V30 6006 H 550.06 1.39629 -4.01726 0
M  V30 6007 N 548.375 1.56261 0.205012 0
M  V30 6008 C 549.305 1.96779 1.257 0
M  V30 6009 C 550.286 0.838309 1.48008 0
M  V30 6010 O 551.471 1.10189 1.59913 0
M  V30 6011 C 548.601 2.29876 2.60335 0
M  V30 6012 C 547.555 3.45469 2.52656 0
M  V30 6013 C 546.881 3.64215 3.91473 0
M  V30 6014 C 548.181 4.79954 2.06014 0
M  V30 6015 H 549.875 2.84904 0.920338 0
M  V30 6016 H 547.421 1.37072 0.441277 0
M  V30 6017 H 549.374 2.56814 3.34102 0
M  V30 6018 H 548.098 1.38622 2.95722 0
M  V30 6019 H 546.757 3.18605 1.81345 0
M  V30 6020 H 546.405 2.70309 4.24196 0
M  V30 6021 H 546.105 4.41973 3.87213 0
M  V30 6022 H 547.629 3.93519 4.66878 0
M  V30 6023 H 549.043 5.05989 2.69533 0
M  V30 6024 H 547.44 5.61111 2.12777 0
M  V30 6025 H 548.51 4.74201 1.01297 0
M  V30 6026 N 549.853 -0.472356 1.50355 0
M  V30 6027 C 550.801 -1.59126 1.69651 0
M  V30 6028 C 551.795 -1.59793 0.56237 0
M  V30 6029 O 553.001 -1.63957 0.742832 0
M  V30 6030 H 549.376 -0.528008 0.535454 0
M  V30 6031 H 551.347 -1.40013 2.63513 0
M  V30 6032 C 550.096 -2.97075 1.8067 0
M  V30 6033 H 549.419 -2.9728 2.67329 0
M  V30 6034 H 550.859 -3.74825 1.98197 0
M  V30 6035 C 549.318 -3.32247 0.558016 0
M  V30 6036 O 549.848 -4.00553 -0.303399 0
M  V30 6037 N 548.054 -2.87659 0.412415 0
M  V30 6038 H 547.601 -2.32246 1.11443 0
M  V30 6039 H 547.559 -3.11556 -0.421908 0
M  V30 6040 N 551.331 -1.39911 -0.725443 0
M  V30 6041 C 552.577 -1.37858 -1.48738 0
M  V30 6042 C 552.91 0.0224187 -1.94187 0
M  V30 6043 O 552.185 0.989204 -1.67466 0
M  V30 6044 C 552.468 -2.3594 -2.72038 0
M  V30 6045 C 552.321 -3.85023 -2.32546 0
M  V30 6046 C 553.64 -2.31704 -3.74167 0
M  V30 6047 H 550.759 -0.502074 -0.539528 0
M  V30 6048 H 553.401 -1.70974 -0.828728 0
M  V30 6049 H 551.551 -2.0783 -3.28236 0
M  V30 6050 H 553.223 -4.2392 -1.81905 0
M  V30 6051 H 551.466 -4.01334 -1.64661 0
M  V30 6052 H 552.137 -4.49152 -3.20884 0
M  V30 6053 H 554.613 -2.5658 -3.27576 0
M  V30 6054 H 553.489 -3.02395 -4.58092 0
M  V30 6055 H 553.75 -1.3253 -4.21768 0
M  V30 6056 N 552.809 0.956637 -1.25245 0
M  V30 6057 C 554.055 1.70413 -1.11044 0
M  V30 6058 C 554.41 1.89275 0.345377 0
M  V30 6059 O 553.703 1.45116 1.25107 0
M  V30 6060 C 553.897 3.08996 -1.79601 0
M  V30 6061 C 553.726 3.03654 -3.317 0
M  V30 6062 C 552.496 3.07521 -4.00947 0
M  V30 6063 C 554.694 2.84975 -4.28128 0
M  V30 6064 N 552.676 2.92316 -5.39838 0
M  V30 6065 C 554.047 2.7818 -5.5409 0
M  V30 6066 C 556.102 2.6964 -4.18568 0
M  V30 6067 C 554.805 2.57616 -6.71585 0
M  V30 6068 C 556.831 2.50447 -5.35752 0
M  V30 6069 C 556.193 2.4437 -6.60653 0
M  V30 6070 H 552.292 0.631642 -0.461035 0
M  V30 6071 H 554.876 1.13331 -1.58317 0
M  V30 6072 H 553.047 3.64248 -1.34826 0
M  V30 6073 H 554.779 3.72515 -1.58161 0
M  V30 6074 H 551.534 3.16635 -3.52192 0
M  V30 6075 H 551.958 2.87923 -6.12723 0
M  V30 6076 H 556.6 2.73113 -3.22752 0
M  V30 6077 H 554.318 2.52885 -7.67512 0
M  V30 6078 H 557.904 2.39509 -5.30214 0
M  V30 6079 H 556.784 2.29712 -7.49801 0
M  V30 6080 N 554.287 1.06798 1.15896 0
M  V30 6081 C 555.535 0.786211 1.8618 0
M  V30 6082 C 555.856 -0.689547 1.82401 0
M  V30 6083 O 555.126 -1.49913 1.26107 0
M  V30 6084 H 553.706 0.287843 0.689315 0
M  V30 6085 H 556.368 1.35055 1.40521 0
M  V30 6086 H 555.464 1.1157 2.91477 0
M  V30 6087 N 555.766 -1.3263 0.851289 0
M  V30 6088 C 556.713 -2.28952 0.291469 0
M  V30 6089 C 557.683 -1.54897 -0.599676 0
M  V30 6090 O 558.868 -1.83137 -0.535305 0
M  V30 6091 C 556.008 -3.41206 -0.516992 0
M  V30 6092 C 555.121 -4.30148 0.399566 0
M  V30 6093 C 554.256 -5.29527 -0.4212 0
M  V30 6094 C 553.295 -6.10112 0.492969 0
M  V30 6095 N 552.432 -7.01499 -0.290414 0
M  V30 6096 H 557.272 -2.76228 1.11813 0
M  V30 6097 H 554.809 -1.35907 0.562826 0
M  V30 6098 H 556.767 -4.05005 -1.00132 0
M  V30 6099 H 555.397 -2.9509 -1.30851 0
M  V30 6100 H 554.449 -3.66959 1.00227 0
M  V30 6101 H 555.761 -4.8649 1.1013 0
M  V30 6102 H 554.915 -5.98914 -0.968832 0
M  V30 6103 H 553.654 -4.73794 -1.15632 0
M  V30 6104 H 552.659 -5.39632 1.05251 0
M  V30 6105 H 553.884 -6.6793 1.22664 0
M  V30 6106 H 551.83 -6.48199 -1.00868 0
M  V30 6107 H 551.747 -7.55178 0.352354 0
M  V30 6108 H 553.015 -7.75176 -0.819882 0
M  V30 6109 N 557.244 -0.608902 -1.45362 0
M  V30 6110 C 558.521 -0.0365378 -1.95566 0
M  V30 6111 C 558.901 1.43169 -1.55131 0
M  V30 6112 O 558.249 2.1349 -0.814513 0
M  V30 6113 C 558.459 -0.236026 -3.48201 0
M  V30 6114 C 559.807 -0.117518 -4.24437 0
M  V30 6115 O 560.831 -0.166217 -3.55812 0
M  V30 6116 O 559.69 -0.00372127 -5.465 0
M  V30 6117 H 556.784 0.0349874 -0.82626 0
M  V30 6118 H 559.33 -0.679055 -1.55521 0
M  V30 6119 H 558.102 -1.25569 -3.70605 0
M  V30 6120 H 557.725 0.441691 -3.95139 0
M  V30 6121 N 558.722 1.53707 -0.348139 0
M  V30 6122 C 559.971 2.0017 0.247992 0
M  V30 6123 C 560.284 1.23983 1.51286 0
M  V30 6124 O 561.49 1.60946 2.18652 0
M  V30 6125 C 559.946 3.56515 0.492459 0
M  V30 6126 C 559.554 4.41562 -0.756777 0
M  V30 6127 C 561.298 4.11381 1.0472 0
M  V30 6128 C 559.205 5.89426 -0.482856 0
M  V30 6129 H 558.135 0.747806 0.0964452 0
M  V30 6130 H 560.786 1.77532 -0.464179 0
M  V30 6131 H 559.168 3.75236 1.26545 0
M  V30 6132 H 560.342 4.34615 -1.53122 0
M  V30 6133 H 558.657 3.97711 -1.23348 0
M  V30 6134 H 561.254 5.19468 1.26717 0
M  V30 6135 H 561.597 3.64885 2.00411 0
M  V30 6136 H 562.13 3.96389 0.334801 0
M  V30 6137 H 558.869 6.40164 -1.40962 0
M  V30 6138 H 558.389 5.99264 0.253416 0
M  V30 6139 H 560.068 6.4692 -0.101816 0
M  V30 6140 N 560.2 0.0768682 1.57412 0
M  V30 6141 C 561.148 -0.906229 2.1422 0
M  V30 6142 C 562.142 -1.30477 1.08037 0
M  V30 6143 O 563.348 -1.28143 1.2641 0
M  V30 6144 H 559.723 -0.310207 0.685037 0
M  V30 6145 H 561.694 -0.402228 2.95677 0
M  V30 6146 C 560.443 -2.16245 2.72274 0
M  V30 6147 H 559.766 -1.86463 3.53655 0
M  V30 6148 H 561.206 -2.83134 3.15613 0
M  V30 6149 C 559.665 -2.92437 1.67279 0
M  V30 6150 O 560.195 -3.86322 1.10081 0
M  V30 6151 N 558.401 -2.55637 1.38195 0
M  V30 6152 H 557.948 -1.79363 1.84897 0
M  V30 6153 H 557.906 -3.06919 0.681787 0
M  V30 6154 N 561.678 -1.56367 -0.196722 0
M  V30 6155 C 562.908 -1.84371 -0.932254 0
M  V30 6156 C 563.316 -0.657013 -1.77426 0
M  V30 6157 O 562.659 0.383576 -1.79651 0
M  V30 6158 C 562.721 -3.06454 -1.87952 0
M  V30 6159 C 562.385 -4.40425 -1.21962 0
M  V30 6160 C 563.382 -5.16457 -0.597343 0
M  V30 6161 C 561.067 -4.8716 -1.22396 0
M  V30 6162 C 563.061 -6.37399 0.0117913 0
M  V30 6163 C 560.748 -6.08038 -0.610995 0
M  V30 6164 C 561.746 -6.83 0.00580487 0
M  V30 6165 O 561.434 -8.01589 0.609173 0
M  V30 6166 H 561.166 -0.616377 -0.277589 0
M  V30 6167 H 563.72 -2.04329 -0.209452 0
M  V30 6168 H 561.95 -2.82377 -2.64197 0
M  V30 6169 H 563.639 -3.21118 -2.48271 0
M  V30 6170 H 564.405 -4.81445 -0.586142 0
M  V30 6171 H 560.284 -4.2877 -1.69345 0
M  V30 6172 H 563.828 -6.9585 0.493836 0
M  V30 6173 H 559.725 -6.42519 -0.619693 0
M  V30 6174 H 560.493 -8.16935 0.505919 0
M  V30 6175 N 563.156 0.464375 -1.50603 0
M  V30 6176 C 564.403 1.21596 -1.61928 0
M  V30 6177 C 564.731 1.91804 -0.322737 0
M  V30 6178 O 563.986 1.83065 0.691776 0
M  V30 6179 C 564.285 2.278 -2.75394 0
M  V30 6180 C 563.951 1.74797 -4.1564 0
M  V30 6181 C 562.613 1.60063 -4.53799 0
M  V30 6182 C 564.965 1.35548 -5.03266 0
M  V30 6183 C 562.293 1.04514 -5.77316 0
M  V30 6184 C 564.645 0.814381 -6.27336 0
M  V30 6185 C 563.309 0.653726 -6.64291 0
M  V30 6186 H 562.579 0.444951 -0.592536 0
M  V30 6187 H 565.226 0.510964 -1.84557 0
M  V30 6188 H 563.531 3.04233 -2.46879 0
M  V30 6189 H 565.228 2.85723 -2.81359 0
M  V30 6190 H 561.818 1.87234 -3.8554 0
M  V30 6191 H 566.002 1.45763 -4.74412 0
M  V30 6192 H 561.258 0.908186 -6.04617 0
M  V30 6193 H 565.432 0.501626 -6.94591 0
M  V30 6194 H 563.059 0.22114 -7.59878 0
M  V30 6195 N 564.634 1.40294 0.718013 0
M  V30 6196 C 565.859 1.41941 1.5122 0
M  V30 6197 C 566.284 0.0202371 1.88089 0
M  V30 6198 O 565.642 -0.971078 1.53101 0
M  V30 6199 C 565.69 2.3141 2.76554 0
M  V30 6200 O 564.794 1.75567 3.73162 0
M  V30 6201 H 564.135 0.482644 0.456016 0
M  V30 6202 H 566.665 1.84494 0.884478 0
M  V30 6203 H 566.675 2.46513 3.25108 0
M  V30 6204 H 565.35 3.33085 2.49053 0
M  V30 6205 H 563.927 1.69798 3.31999 0
M  V30 6206 N 566.112 -0.949982 1.2575 0
M  V30 6207 C 567.059 -2.04738 1.06541 0
M  V30 6208 C 568.029 -1.66078 -0.0268818 0
M  V30 6209 O 569.214 -1.90348 0.131196 0
M  V30 6210 C 566.354 -3.38027 0.695127 0
M  V30 6211 C 565.467 -3.89776 1.86276 0
M  V30 6212 C 564.602 -5.11411 1.4364 0
M  V30 6213 C 563.641 -5.554 2.57287 0
M  V30 6214 N 562.778 -6.68244 2.15395 0
M  V30 6215 H 567.618 -2.20502 2.00457 0
M  V30 6216 H 565.155 -1.0805 0.998178 0
M  V30 6217 H 567.113 -4.14641 0.461375 0
M  V30 6218 H 565.743 -3.22135 -0.207046 0
M  V30 6219 H 564.795 -3.0964 2.20969 0
M  V30 6220 H 566.107 -4.18368 2.71606 0
M  V30 6221 H 565.261 -5.95457 1.16257 0
M  V30 6222 H 564 -4.84545 0.553879 0
M  V30 6223 H 563.005 -4.69916 2.85409 0
M  V30 6224 H 564.23 -5.84272 3.46125 0
M  V30 6225 H 562.176 -6.43078 1.29565 0
M  V30 6226 H 562.093 -6.96377 2.94272 0
M  V30 6227 H 563.361 -7.55687 1.91201 0
M  V30 6228 N 567.59 -1.07411 -1.15328 0
M  V30 6229 C 568.867 -0.710732 -1.82231 0
M  V30 6230 C 569.247 0.806732 -1.95077 0
M  V30 6231 O 568.595 1.72139 -1.50268 0
M  V30 6232 C 568.805 -1.42586 -3.18544 0
M  V30 6233 C 570.153 -1.57836 -3.94174 0
M  V30 6234 O 571.177 -1.38669 -3.281 0
M  V30 6235 O 570.036 -1.8938 -5.12638 0
M  V30 6236 H 567.13 -0.25297 -0.78736 0
M  V30 6237 H 569.676 -1.17508 -1.22434 0
M  V30 6238 H 568.448 -2.46008 -3.04296 0
M  V30 6239 H 568.071 -0.952332 -3.86026 0
M  V30 6240 N 569.068 1.32177 -0.85831 0
M  V30 6241 C 570.317 1.96392 -0.459689 0
M  V30 6242 C 570.63 1.68659 0.990632 0
M  V30 6243 O 571.836 2.26641 1.49485 0
M  V30 6244 C 570.292 3.51542 -0.7711 0
M  V30 6245 C 569.9 3.8813 -2.2374 0
M  V30 6246 C 571.644 4.2221 -0.44038 0
M  V30 6247 C 569.551 5.36341 -2.49183 0
M  V30 6248 H 568.481 0.735007 -0.168169 0
M  V30 6249 H 571.132 1.50518 -1.0496 0
M  V30 6250 H 569.514 3.95846 -0.11058 0
M  V30 6251 H 570.688 3.54824 -2.94001 0
M  V30 6252 H 569.003 3.30497 -2.533 0
M  V30 6253 H 571.6 5.31234 -0.607855 0
M  V30 6254 H 571.943 4.11683 0.618291 0
M  V30 6255 H 572.476 3.83502 -1.05695 0
M  V30 6256 H 569.215 5.51892 -3.53689 0
M  V30 6257 H 568.735 5.7104 -1.83504 0
M  V30 6258 H 570.414 6.03466 -2.33318 0
M  V30 6259 N 570.547 0.616602 1.45037 0
M  V30 6260 C 571.777 0.121791 2.06241 0
M  V30 6261 C 572.185 -1.20289 1.46038 0
M  V30 6262 O 571.528 -1.7456 0.572242 0
M  V30 6263 C 571.59 -0.0827345 3.59405 0
M  V30 6264 C 571.254 1.16153 4.41993 0
M  V30 6265 C 572.251 2.08183 4.76399 0
M  V30 6266 C 569.936 1.39288 4.82601 0
M  V30 6267 C 571.93 3.21668 5.5028 0
M  V30 6268 C 569.617 2.53073 5.56235 0
M  V30 6269 C 570.615 3.44091 5.89992 0
M  V30 6270 O 570.303 4.55894 6.6213 0
M  V30 6271 H 570.035 0.0701667 0.672349 0
M  V30 6272 H 572.589 0.846877 1.87129 0
M  V30 6273 H 570.819 -0.862812 3.76952 0
M  V30 6274 H 572.508 -0.530273 4.02421 0
M  V30 6275 H 573.274 1.91538 4.45576 0
M  V30 6276 H 569.153 0.693396 4.55755 0
M  V30 6277 H 572.697 3.92733 5.76547 0
M  V30 6278 H 568.594 2.69667 5.86472 0
M  V30 6279 H 569.362 4.5469 6.80587 0
M  V30 6280 N 572.025 -1.5352 0.356285 0
M  V30 6281 C 572.973 -2.26945 -0.50978 0
M  V30 6282 C 573.967 -1.29569 -1.09125 0
M  V30 6283 O 575.173 -1.47231 -1.03552 0
M  V30 6284 H 571.548 -0.729368 -0.183102 0
M  V30 6285 H 573.519 -2.98111 0.131374 0
M  V30 6286 C 572.268 -3.06466 -1.64237 0
M  V30 6287 H 571.591 -3.81233 -1.20423 0
M  V30 6288 H 573.031 -3.61035 -2.22327 0
M  V30 6289 C 571.49 -2.16737 -2.57928 0
M  V30 6290 O 572.02 -1.77195 -3.60507 0
M  V30 6291 N 570.226 -1.81558 -2.26903 0
M  V30 6292 H 569.773 -2.13913 -1.43524 0
M  V30 6293 H 569.731 -1.21806 -2.89846 0
M  V30 6294 N 573.503 -0.0852151 -1.57369 0
M  V30 6295 C 574.731 0.58946 -1.98325 0
M  V30 6296 C 575.146 1.62333 -0.96403 0
M  V30 6297 O 574.503 1.82438 0.0476395 0
M  V30 6298 C 574.554 1.24604 -3.39347 0
M  V30 6299 O 574.275 0.253532 -4.37366 0
M  V30 6300 C 575.776 2.00726 -3.95252 0
M  V30 6301 H 572.996 0.158783 -0.651942 0
M  V30 6302 H 575.54 -0.161584 -2.03861 0
M  V30 6303 H 573.695 1.94808 -3.34856 0
M  V30 6304 H 574.109 0.726207 -5.19448 0
M  V30 6305 H 575.583 2.42039 -4.96106 0
M  V30 6306 H 576.06 2.86919 -3.32527 0
M  V30 6307 H 576.666 1.3536 -4.03185 0
M  V30 6308 N 574.981 1.5647 0.188427 0
M  V30 6309 C 575.928 1.95073 1.23349 0
M  V30 6310 C 576.898 0.812238 1.44886 0
M  V30 6311 O 578.083 1.07095 1.57909 0
M  V30 6312 C 575.223 2.30124 2.57171 0
M  V30 6313 C 574.336 3.57069 2.43157 0
M  V30 6314 C 573.471 3.81411 3.69729 0
M  V30 6315 C 572.51 5.0176 3.50575 0
M  V30 6316 N 571.647 5.22321 4.69175 0
M  V30 6317 H 576.487 2.84171 0.89728 0
M  V30 6318 H 574.024 1.40623 0.431683 0
M  V30 6319 H 575.982 2.48463 3.35145 0
M  V30 6320 H 574.612 1.44159 2.88822 0
M  V30 6321 H 573.664 3.4674 1.56447 0
M  V30 6322 H 574.976 4.452 2.24942 0
M  V30 6323 H 574.13 4.00026 4.56141 0
M  V30 6324 H 572.869 2.91624 3.90905 0
M  V30 6325 H 571.874 4.83061 2.62549 0
M  V30 6326 H 573.099 5.93063 3.30837 0
M  V30 6327 H 571.045 4.35483 4.90602 0
M  V30 6328 H 570.962 6.04643 4.53809 0
M  V30 6329 H 572.23 5.45401 5.56919 0
M  V30 6330 N 576.459 -0.456382 1.50847 0
M  V30 6331 C 577.369 -1.57805 1.73594 0
M  V30 6332 C 578.385 -1.62599 0.619476 0
M  V30 6333 O 579.561 -1.80195 0.899532 0
M  V30 6334 C 576.626 -2.93926 1.8387 0
M  V30 6335 C 575.687 -2.99402 3.07663 0
M  V30 6336 C 574.92 -4.29031 3.1744 0
M  V30 6337 O 575.143 -5.20358 2.33631 0
M  V30 6338 O 574.077 -4.40401 4.10281 0
M  V30 6339 H 577.903 -1.41531 2.68705 0
M  V30 6340 H 575.488 -0.637422 1.3512 0
M  V30 6341 H 577.37 -3.74747 1.92725 0
M  V30 6342 H 576.045 -3.10368 0.91944 0
M  V30 6343 H 574.952 -2.17606 3.043 0
M  V30 6344 H 576.285 -2.87901 3.99216 0
M  V30 6345 N 577.937 -1.40673 -0.710563 0
M  V30 6346 C 578.885 -1.41517 -1.84596 0
M  V30 6347 C 579.879 -0.295043 -1.66811 0
M  V30 6348 O 581.085 -0.466331 -1.73854 0
M  V30 6349 H 577.46 -0.442467 -0.608052 0
M  V30 6350 H 579.431 -2.37238 -1.80999 0
M  V30 6351 C 578.18 -1.29957 -3.225 0
M  V30 6352 H 577.503 -2.15429 -3.36794 0
M  V30 6353 H 578.943 -1.34608 -4.02066 0
M  V30 6354 C 577.402 -0.0103164 -3.36898 0
M  V30 6355 O 577.932 0.950707 -3.90288 0
M  V30 6356 N 576.138 0.0608409 -2.90536 0
M  V30 6357 H 575.685 -0.721943 -2.47277 0
M  V30 6358 H 575.643 0.92292 -3.00549 0
M  V30 6359 N 579.415 0.9433 -1.26252 0
M  V30 6360 C 580.664 1.68369 -1.11062 0
M  V30 6361 C 580.977 1.92514 0.346104 0
M  V30 6362 O 582.183 2.64358 0.618646 0
M  V30 6363 C 580.639 3.03171 -1.93946 0
M  V30 6364 C 580.247 2.86782 -3.4418 0
M  V30 6365 C 581.991 3.80916 -1.87359 0
M  V30 6366 C 579.898 4.17044 -4.19319 0
M  V30 6367 H 578.828 0.631469 -0.412023 0
M  V30 6368 H 581.479 1.04922 -1.50544 0
M  V30 6369 H 579.861 3.67587 -1.47296 0
M  V30 6370 H 581.035 2.31229 -3.98585 0
M  V30 6371 H 579.35 2.22482 -3.51981 0
M  V30 6372 H 581.947 4.77417 -2.40784 0
M  V30 6373 H 582.29 4.07658 -0.843857 0
M  V30 6374 H 582.823 3.2327 -2.31821 0
M  V30 6375 H 579.562 3.95487 -5.22753 0
M  V30 6376 H 579.082 4.72319 -3.69696 0
M  V30 6377 H 580.761 4.85513 -4.27651 0
M  V30 6378 N 580.893 1.08022 1.14757 0
M  V30 6379 C 581.826 0.650738 2.18725 0
M  V30 6380 C 582.804 -0.335496 1.59101 0
M  V30 6381 O 583.988 -0.240295 1.86962 0
M  V30 6382 C 581.115 -0.0434377 3.38672 0
M  V30 6383 C 580.161 0.90232 4.16846 0
M  V30 6384 S 580.994 2.40693 4.78359 0
M  V30 6385 C 582.15 1.72475 6.01667 0
M  V30 6386 H 582.383 1.53152 2.54817 0
M  V30 6387 H 579.916 0.894823 1.25826 0
M  V30 6388 H 581.874 -0.437684 4.0816 0
M  V30 6389 H 580.535 -0.900659 3.0091 0
M  V30 6390 H 579.728 0.363445 5.02688 0
M  V30 6391 H 579.33 1.23728 3.52941 0
M  V30 6392 H 581.622 1.0404 6.69464 0
M  V30 6393 H 582.565 2.56175 6.60136 0
M  V30 6394 H 582.973 1.19979 5.51602 0
M  V30 6395 N 582.371 -1.3172 0.865308 0
M  V30 6396 C 583.619 -1.96487 0.472995 0
M  V30 6397 C 583.94 -1.68761 -0.976975 0
M  V30 6398 O 583.21 -1.00051 -1.68424 0
M  V30 6399 H 581.79 -0.726947 0.171922 0
M  V30 6400 H 584.452 -1.60612 1.10407 0
M  V30 6401 H 583.548 -3.0574 0.62687 0
M  V30 6402 N 583.85 -0.624285 -1.44708 0
M  V30 6403 C 585.098 -0.125802 -2.01708 0
M  V30 6404 C 585.418 1.2543 -1.49306 0
M  V30 6405 O 584.689 1.83198 -0.693924 0
M  V30 6406 H 583.269 -0.0435161 -0.745731 0
M  V30 6407 H 585.931 -0.809446 -1.77296 0
M  V30 6408 H 585.027 -0.0882734 -3.11975 0
M  V30 6409 N 585.328 1.53329 -0.364422 0
M  V30 6410 C 586.574 2.01537 0.225969 0
M  V30 6411 C 586.907 1.25128 1.48515 0
M  V30 6412 O 586.182 0.344653 1.91422 0
M  V30 6413 C 586.465 3.56339 0.519092 0
M  V30 6414 C 586.318 4.43441 -0.753639 0
M  V30 6415 C 587.637 4.19833 1.32015 0
M  V30 6416 H 584.756 0.732573 0.0806548 0
M  V30 6417 H 587.398 1.83597 -0.489084 0
M  V30 6418 H 585.548 3.71756 1.12825 0
M  V30 6419 H 587.22 4.39823 -1.39116 0
M  V30 6420 H 585.463 4.11457 -1.37424 0
M  V30 6421 H 586.134 5.49699 -0.503517 0
M  V30 6422 H 588.61 4.08242 0.804859 0
M  V30 6423 H 587.486 5.28177 1.49399 0
M  V30 6424 H 587.747 3.75821 2.32832 0
M  V30 6425 N 586.806 0.0935595 1.57322 0
M  V30 6426 C 588.217 -0.435807 1.81542 0
M  V30 6427 C 588.568 -1.68263 1.00907 0
M  V30 6428 O 587.693 -2.15087 0.237983 0
M  V30 6429 C 588.288 -0.797436 3.29282 0
M  V30 6430 C 586.847 -1.27155 3.54272 0
M  V30 6431 C 585.994 -0.267455 2.76007 0
M  V30 6432 H 588.945 0.31902 1.5546 0
M  V30 6433 H 588.966 -1.6571 3.42521 0
M  V30 6434 H 588.478 0.110206 3.87943 0
M  V30 6435 H 586.579 -2.19696 3.00939 0
M  V30 6436 H 586.692 -1.23445 4.62923 0
M  V30 6437 H 585.056 -0.749282 2.43429 0
M  V30 6438 H 585.839 0.632839 3.37417 0
M  V30 6439 N 588.284 -1.56567 -0.180126 0
M  V30 6440 C 589.231 -1.95725 -1.22313 0
M  V30 6441 C 590.201 -0.819911 -1.44453 0
M  V30 6442 O 591.386 -1.07931 -1.57339 0
M  V30 6443 C 588.526 -2.31484 -2.55947 0
M  V30 6444 C 587.639 -3.58354 -2.4126 0
M  V30 6445 C 586.774 -3.83366 -3.67701 0
M  V30 6446 C 585.813 -5.03612 -3.47909 0
M  V30 6447 N 584.95 -5.24802 -4.66398 0
M  V30 6448 H 589.79 -2.84642 -0.882198 0
M  V30 6449 H 587.327 -1.4085 -0.42422 0
M  V30 6450 H 589.285 -2.50237 -3.33822 0
M  V30 6451 H 587.915 -1.45689 -2.88053 0
M  V30 6452 H 586.967 -3.47565 -1.54606 0
M  V30 6453 H 588.279 -4.46386 -2.22577 0
M  V30 6454 H 587.433 -4.02439 -4.54013 0
M  V30 6455 H 586.172 -2.93692 -3.89353 0
M  V30 6456 H 585.177 -4.84447 -2.59983 0
M  V30 6457 H 586.402 -5.94809 -3.27688 0
M  V30 6458 H 584.348 -4.38079 -4.88286 0
M  V30 6459 H 584.265 -6.07041 -4.50596 0
M  V30 6460 H 585.533 -5.48346 -5.54019 0
M  V30 6461 N 589.762 0.448376 -1.51087 0
M  V30 6462 C 591.008 1.20049 -1.6345 0
M  V30 6463 C 591.341 1.91121 -0.344444 0
M  V30 6464 O 590.616 1.83125 0.655396 0
M  V30 6465 C 590.899 2.22624 -2.83038 0
M  V30 6466 C 590.752 1.55708 -4.21989 0
M  V30 6467 C 592.071 3.23718 -2.98152 0
M  V30 6468 H 589.19 0.435085 -0.59487 0
M  V30 6469 H 591.832 0.491183 -1.83541 0
M  V30 6470 H 589.982 2.83117 -2.66039 0
M  V30 6471 H 591.654 0.986367 -4.50631 0
M  V30 6472 H 589.897 0.859647 -4.25197 0
M  V30 6473 H 590.568 2.30357 -5.01637 0
M  V30 6474 H 593.044 2.73269 -3.13788 0
M  V30 6475 H 591.92 3.92795 -3.83411 0
M  V30 6476 H 592.181 3.89179 -2.09743 0
M  V30 6477 N 591.24 1.41047 0.703093 0
M  V30 6478 C 592.487 1.4 1.46309 0
M  V30 6479 C 592.815 0.00654574 1.94499 0
M  V30 6480 O 592.07 -0.980255 1.6938 0
M  V30 6481 C 592.369 2.34686 2.6955 0
M  V30 6482 C 592.035 3.81684 2.40058 0
M  V30 6483 C 590.697 4.21731 2.31725 0
M  V30 6484 C 593.049 4.74525 2.15581 0
M  V30 6485 C 590.377 5.52637 1.97001 0
M  V30 6486 C 592.729 6.05744 1.82366 0
M  V30 6487 C 591.393 6.44819 1.72524 0
M  V30 6488 H 590.663 0.512295 0.535382 0
M  V30 6489 H 593.31 1.73792 0.804275 0
M  V30 6490 H 591.615 1.94122 3.40329 0
M  V30 6491 H 593.312 2.31152 3.27673 0
M  V30 6492 H 589.902 3.49963 2.47435 0
M  V30 6493 H 594.086 4.44395 2.20968 0
M  V30 6494 H 589.342 5.81802 1.87928 0
M  V30 6495 H 593.516 6.77189 1.62444 0
M  V30 6496 H 591.143 7.46168 1.45385 0
M  V30 6497 N 592.718 -0.936591 1.26751 0
M  V30 6498 C 593.958 -1.69796 1.13792 0
M  V30 6499 C 594.322 -1.89437 -0.312671 0
M  V30 6500 O 595.523 -2.62806 -0.564489 0
M  V30 6501 C 593.794 -3.03297 1.89065 0
M  V30 6502 S 595.353 -3.94461 1.92214 0
M  V30 6503 H 592.171 -0.583412 0.406389 0
M  V30 6504 H 594.773 -1.11575 1.60535 0
M  V30 6505 H 593.477 -2.86687 2.93665 0
M  V30 6506 H 593.008 -3.66575 1.42781 0
M  V30 6507 H 595.023 -4.85767 1.01215 0
M  V30 6508 N 594.196 -1.08629 -1.14182 0
M  V30 6509 C 595.612 -0.814363 -1.3726 0
M  V30 6510 C 595.812 0.575271 -1.93114 0
M  V30 6511 O 594.868 1.33165 -2.1453 0
M  V30 6512 C 596.181 -1.8989 -2.33157 0
M  V30 6513 C 597.729 -1.92518 -2.46791 0
M  V30 6514 C 598.204 -3.00092 -3.45989 0
M  V30 6515 N 599.695 -2.99279 -3.53534 0
M  V30 6516 C 600.43 -3.79158 -4.30147 0
M  V30 6517 N 599.926 -4.68923 -5.09983 0
M  V30 6518 N 601.719 -3.67451 -4.25366 0
M  V30 6519 H 593.87 -1.98232 -0.762758 0
M  V30 6520 H 596.133 -0.860383 -0.398051 0
M  V30 6521 H 595.839 -2.89809 -1.99257 0
M  V30 6522 H 595.713 -1.77013 -3.33086 0
M  V30 6523 H 598.1 -0.932425 -2.79982 0
M  V30 6524 H 598.181 -2.09473 -1.46816 0
M  V30 6525 H 597.825 -3.99575 -3.13532 0
M  V30 6526 H 597.755 -2.80382 -4.45751 0
M  V30 6527 H 600.246 -2.3422 -2.96563 0
M  V30 6528 H 600.559 -5.26475 -5.65724 0
M  V30 6529 H 598.904 -4.72964 -5.09244 0
M  V30 6530 H 602.095 -2.9669 -3.62067 0
M  V30 6531 H 602.268 -4.29944 -4.84822 0
M  V30 6532 N 595.674 1.31259 -0.872281 0
M  V30 6533 C 596.923 1.95893 -0.480493 0
M  V30 6534 C 597.236 1.697 0.972688 0
M  V30 6535 O 598.442 2.28214 1.47073 0
M  V30 6536 C 596.898 3.50705 -0.808342 0
M  V30 6537 C 596.506 3.85735 -2.27844 0
M  V30 6538 C 598.25 4.21719 -0.485136 0
M  V30 6539 C 596.157 5.33668 -2.54858 0
M  V30 6540 H 595.087 0.733182 -0.175955 0
M  V30 6541 H 597.738 1.49396 -1.0655 0
M  V30 6542 H 596.12 3.95706 -0.152558 0
M  V30 6543 H 597.294 3.51686 -2.97748 0
M  V30 6544 H 595.609 3.27792 -2.56791 0
M  V30 6545 H 598.206 5.30559 -0.664166 0
M  V30 6546 H 598.549 4.12316 0.574592 0
M  V30 6547 H 599.082 3.82359 -1.09756 0
M  V30 6548 H 595.821 5.48109 -3.59523 0
M  V30 6549 H 595.341 5.69061 -1.8955 0
M  V30 6550 H 597.02 6.00958 -2.39706 0
M  V30 6551 N 597.152 0.631951 1.44375 0
M  V30 6552 C 598.382 0.143658 2.061 0
M  V30 6553 C 598.79 -1.18733 1.47306 0
M  V30 6554 O 598.133 -1.73943 0.590724 0
M  V30 6555 C 598.195 -0.0446102 3.59472 0
M  V30 6556 C 597.859 1.20835 4.40736 0
M  V30 6557 C 598.856 2.13224 4.74164 0
M  V30 6558 C 596.541 1.44399 4.81097 0
M  V30 6559 C 598.535 3.27487 5.46838 0
M  V30 6560 C 596.222 2.58959 5.53519 0
M  V30 6561 C 597.22 3.50329 5.86309 0
M  V30 6562 O 596.908 4.62891 6.57257 0
M  V30 6563 H 596.64 0.0772939 0.671567 0
M  V30 6564 H 599.194 0.866677 1.8622 0
M  V30 6565 H 597.424 -0.822783 3.77845 0
M  V30 6566 H 599.113 -0.487561 4.02961 0
M  V30 6567 H 599.879 1.96253 4.4352 0
M  V30 6568 H 595.758 0.741696 4.54994 0
M  V30 6569 H 599.302 3.98826 5.72349 0
M  V30 6570 H 595.199 2.75873 5.83579 0
M  V30 6571 H 595.967 4.61883 6.75726 0
M  V30 6572 N 598.631 -1.53133 0.372548 0
M  V30 6573 C 599.859 -2.05774 -0.215515 0
M  V30 6574 C 600.274 -1.24555 -1.41886 0
M  V30 6575 O 599.631 -0.287951 -1.80214 0
M  V30 6576 C 599.682 -3.5645 -0.602161 0
M  V30 6577 O 599.403 -4.34591 0.553359 0
M  V30 6578 C 600.904 -4.25374 -1.24787 0
M  V30 6579 H 598.124 -0.670009 -0.0364529 0
M  V30 6580 H 600.668 -1.97434 0.532934 0
M  V30 6581 H 598.823 -3.64918 -1.30052 0
M  V30 6582 H 599.237 -5.23954 0.239336 0
M  V30 6583 H 600.711 -5.32097 -1.46891 0
M  V30 6584 H 601.188 -3.79531 -2.21026 0
M  V30 6585 H 601.794 -4.21177 -0.590752 0
M  V30 6586 N 600.109 -0.101901 -1.5727 0
M  V30 6587 C 601.057 0.872034 -2.15635 0
M  V30 6588 C 602.051 1.28742 -1.10099 0
M  V30 6589 O 603.257 1.26116 -1.28432 0
M  V30 6590 H 599.632 0.299269 -0.689886 0
M  V30 6591 H 601.603 0.355137 -2.96279 0
M  V30 6592 C 600.352 2.11886 -2.7568 0
M  V30 6593 H 599.675 1.80813 -3.56576 0
M  V30 6594 H 601.115 2.78077 -3.20077 0
M  V30 6595 C 599.574 2.89739 -1.7191 0
M  V30 6596 O 600.104 3.84522 -1.16213 0
M  V30 6597 N 598.31 2.53407 -1.42245 0
M  V30 6598 H 597.857 1.76398 -1.87727 0
M  V30 6599 H 597.815 3.05795 -0.730529 0
M  V30 6600 N 601.587 1.56661 0.17182 0
M  V30 6601 C 602.836 1.81158 0.886831 0
M  V30 6602 C 603.149 0.679072 1.83434 0
M  V30 6603 O 604.355 0.808964 2.59168 0
M  V30 6604 C 602.811 3.20999 1.6275 0
M  V30 6605 C 602.419 4.42117 0.723652 0
M  V30 6606 C 604.163 3.5479 2.33076 0
M  V30 6607 C 602.07 5.7298 1.46452 0
M  V30 6608 H 601 0.675543 0.334899 0
M  V30 6609 H 603.651 1.82967 0.139765 0
M  V30 6610 H 602.033 3.13506 2.4193 0
M  V30 6611 H 603.207 4.60789 -0.0311485 0
M  V30 6612 H 601.522 4.16197 0.130063 0
M  V30 6613 H 604.119 4.49806 2.89099 0
M  V30 6614 H 604.462 2.79646 3.08389 0
M  V30 6615 H 604.995 3.63834 1.6084 0
M  V30 6616 H 601.734 6.51152 0.753729 0
M  V30 6617 H 601.254 5.58285 2.19266 0
M  V30 6618 H 602.933 6.14916 2.01214 0
M  V30 6619 N 603.065 -0.440357 1.51323 0
M  V30 6620 C 603.998 -1.55414 1.67098 0
M  V30 6621 C 604.976 -1.54108 0.518599 0
M  V30 6622 O 606.16 -1.7328 0.742054 0
M  V30 6623 C 603.287 -2.93996 1.68179 0
M  V30 6624 C 602.333 -3.13338 2.89347 0
M  V30 6625 S 603.166 -2.89957 4.50206 0
M  V30 6626 C 604.322 -4.30826 4.54027 0
M  V30 6627 H 604.555 -1.41798 2.61306 0
M  V30 6628 H 602.088 -0.629841 1.40969 0
M  V30 6629 H 604.046 -3.73878 1.69487 0
M  V30 6630 H 602.707 -3.04976 0.751542 0
M  V30 6631 H 601.9 -4.14652 2.86495 0
M  V30 6632 H 601.502 -2.41276 2.85766 0
M  V30 6633 H 603.794 -5.23977 4.29481 0
M  V30 6634 H 604.737 -4.38712 5.55822 0
M  V30 6635 H 605.145 -4.1434 3.83384 0
M  V30 6636 N 604.543 -1.41418 -0.695603 0
M  V30 6637 C 605.771 -1.4413 -1.48439 0
M  V30 6638 C 606.186 -0.0465698 -1.88743 0
M  V30 6639 O 605.543 0.934117 -1.56782 0
M  V30 6640 C 605.594 -2.34998 -2.74696 0
M  V30 6641 O 605.315 -3.69043 -2.36091 0
M  V30 6642 C 606.816 -2.46513 -3.68438 0
M  V30 6643 H 604.036 -0.490905 -0.457442 0
M  V30 6644 H 606.58 -1.85702 -0.856454 0
M  V30 6645 H 604.735 -1.96735 -3.33728 0
M  V30 6646 H 605.149 -4.17505 -3.17474 0
M  V30 6647 H 606.623 -3.1426 -4.53811 0
M  V30 6648 H 607.1 -1.49638 -4.12922 0
M  V30 6649 H 607.706 -2.85412 -3.1531 0
M  V30 6650 N 606.021 0.929856 -1.27246 0
M  V30 6651 C 606.931 2.0636 -1.11592 0
M  V30 6652 C 607.947 1.73938 -0.046496 0
M  V30 6653 O 609.123 1.9981 -0.252544 0
M  V30 6654 C 606.188 3.38213 -0.762437 0
M  V30 6655 C 605.249 3.84346 -1.9125 0
M  V30 6656 C 604.482 5.09906 -1.57579 0
M  V30 6657 O 604.705 5.68354 -0.482694 0
M  V30 6658 O 603.639 5.51359 -2.41426 0
M  V30 6659 H 607.465 2.22478 -2.0673 0
M  V30 6660 H 605.05 1.04865 -1.06413 0
M  V30 6661 H 606.932 4.1741 -0.57854 0
M  V30 6662 H 605.607 3.23307 0.159439 0
M  V30 6663 H 604.514 3.06045 -2.15144 0
M  V30 6664 H 605.847 4.0379 -2.81451 0
M  V30 6665 N 607.499 1.09233 1.13605 0
M  V30 6666 C 608.748 0.82205 1.84188 0
M  V30 6667 C 609.061 -0.654548 1.84323 0
M  V30 6668 O 610.267 -1.04029 2.50779 0
M  V30 6669 C 608.723 1.42066 3.30674 0
M  V30 6670 C 608.331 2.92965 3.38933 0
M  V30 6671 C 610.075 1.22924 4.06313 0
M  V30 6672 C 607.982 3.45922 4.79679 0
M  V30 6673 H 606.912 0.303854 0.690064 0
M  V30 6674 H 609.563 1.31479 1.28006 0
M  V30 6675 H 607.945 0.855613 3.86646 0
M  V30 6676 H 609.119 3.55679 2.92966 0
M  V30 6677 H 607.434 3.11118 2.76757 0
M  V30 6678 H 610.031 1.59945 5.10217 0
M  V30 6679 H 610.374 0.169726 4.15954 0
M  V30 6680 H 610.907 1.76168 3.56665 0
M  V30 6681 H 607.646 4.51484 4.75229 0
M  V30 6682 H 607.166 2.87971 5.26149 0
M  V30 6683 H 608.845 3.43009 5.48592 0
M  V30 6684 N 608.977 -1.30795 0.87923 0
M  V30 6685 C 610.254 -1.91145 0.415086 0
M  V30 6686 C 610.634 -1.7995 -1.10368 0
M  V30 6687 O 609.982 -1.21305 -1.93642 0
M  V30 6688 C 610.192 -3.37014 0.906778 0
M  V30 6689 C 611.54 -4.14101 0.938358 0
M  V30 6690 O 612.564 -3.45834 0.853053 0
M  V30 6691 O 611.423 -5.36054 1.06342 0
M  V30 6692 H 608.517 -0.81736 0.125905 0
M  V30 6693 H 611.063 -1.39401 0.967753 0
M  V30 6694 H 609.835 -3.3922 1.95053 0
M  V30 6695 H 609.458 -3.96204 0.332948 0
M  V30 6696 N 610.455 -0.639598 -1.44038 0
M  V30 6697 C 611.403 0.0723409 -2.32487 0
M  V30 6698 C 612.397 0.827129 -1.47834 0
M  V30 6699 O 613.603 0.73907 -1.64127 0
M  V30 6700 H 609.978 0.0421696 -0.750817 0
M  V30 6701 H 611.949 -0.691593 -2.90275 0
M  V30 6702 C 610.698 1.03452 -3.31953 0
M  V30 6703 H 610.021 0.46315 -3.97108 0
M  V30 6704 H 611.461 1.502 -3.96505 0
M  V30 6705 C 609.92 2.12392 -2.61518 0
M  V30 6706 O 610.45 3.2059 -2.42044 0
M  V30 6707 N 608.656 1.88563 -2.21116 0
M  V30 6708 H 608.203 1.00577 -2.37154 0
M  V30 6709 H 608.161 2.61651 -1.74316 0
M  V30 6710 N 611.933 1.52934 -0.380664 0
M  V30 6711 C 612.863 2.29118 0.450268 0
M  V30 6712 C 613.844 1.32153 1.07096 0
M  V30 6713 O 615.029 1.61038 1.08537 0
M  V30 6714 C 612.159 3.09161 1.58231 0
M  V30 6715 C 611.113 4.13938 1.0881 0
M  V30 6716 C 610.439 4.82153 2.31155 0
M  V30 6717 C 611.739 5.22048 0.162146 0
M  V30 6718 H 613.433 2.98826 -0.185361 0
M  V30 6719 H 610.979 1.43715 -0.0905886 0
M  V30 6720 H 612.932 3.61211 2.17036 0
M  V30 6721 H 611.656 2.3717 2.2454 0
M  V30 6722 H 610.315 3.62855 0.522633 0
M  V30 6723 H 609.963 4.06719 2.95953 0
M  V30 6724 H 609.663 5.52966 1.98752 0
M  V30 6725 H 611.187 5.37004 2.90618 0
M  V30 6726 H 612.601 5.6951 0.658126 0
M  V30 6727 H 610.998 6.00057 -0.0717122 0
M  V30 6728 H 612.068 4.78398 -0.791438 0
M  V30 6729 N 613.412 0.11024 1.57214 0
M  V30 6730 C 614.823 -0.416527 1.81994 0
M  V30 6731 C 615.174 -1.67183 1.02686 0
M  V30 6732 O 614.299 -2.14823 0.260782 0
M  V30 6733 C 614.894 -0.762466 3.30109 0
M  V30 6734 C 613.453 -1.23391 3.556 0
M  V30 6735 C 612.6 -0.238166 2.76275 0
M  V30 6736 H 615.551 0.335491 1.55113 0
M  V30 6737 H 615.572 -1.62068 3.44259 0
M  V30 6738 H 615.084 0.151346 3.87805 0
M  V30 6739 H 613.185 -2.16492 3.03253 0
M  V30 6740 H 613.298 -1.18528 4.64207 0
M  V30 6741 H 611.662 -0.723421 2.4421 0
M  V30 6742 H 612.445 0.668591 3.36727 0
M  V30 6743 N 614.89 -1.56749 -0.16351 0
M  V30 6744 C 616.115 -1.86938 -0.898264 0
M  V30 6745 C 616.54 -0.697456 -1.74692 0
M  V30 6746 O 615.898 0.353327 -1.77824 0
M  V30 6747 C 615.946 -3.15599 -1.74441 0
M  V30 6748 O 615.05 -2.98371 -2.8469 0
M  V30 6749 H 614.391 -0.614659 -0.251178 0
M  V30 6750 H 616.921 -2.03979 -0.159298 0
M  V30 6751 H 616.931 -3.47202 -2.14277 0
M  V30 6752 H 615.606 -4.00505 -1.1211 0
M  V30 6753 H 614.183 -2.7814 -2.4838 0
M  V30 6754 N 616.368 0.432326 -1.51554 0
M  V30 6755 C 617.779 1.01202 -1.56892 0
M  V30 6756 C 618.13 1.92175 -0.395394 0
M  V30 6757 O 617.255 2.10844 0.487198 0
M  V30 6758 C 617.85 1.84217 -2.8434 0
M  V30 6759 C 616.409 2.37228 -2.92233 0
M  V30 6760 C 615.556 1.16576 -2.51606 0
M  V30 6761 H 618.507 0.213407 -1.57259 0
M  V30 6762 H 618.528 2.69721 -2.68385 0
M  V30 6763 H 618.04 1.17979 -3.69733 0
M  V30 6764 H 616.141 3.06905 -2.11282 0
M  V30 6765 H 616.254 2.69682 -3.95991 0
M  V30 6766 H 614.618 1.51263 -2.04919 0
M  V30 6767 H 615.401 0.519404 -3.39348 0
M  V30 6768 N 617.846 1.41785 0.688094 0
M  V30 6769 C 618.793 1.44221 1.80191 0
M  V30 6770 C 619.763 0.295688 1.63447 0
M  V30 6771 O 620.948 0.49783 1.84191 0
M  V30 6772 C 618.088 1.33743 3.1813 0
M  V30 6773 C 617.201 2.58325 3.46254 0
M  V30 6774 C 616.336 2.40086 4.73848 0
M  V30 6775 C 615.375 3.60107 4.94964 0
M  V30 6776 N 614.512 3.40892 6.13789 0
M  V30 6777 H 619.352 2.39411 1.77444 0
M  V30 6778 H 616.889 1.18876 0.866423 0
M  V30 6779 H 618.847 1.25669 3.97823 0
M  V30 6780 H 617.477 0.42157 3.20035 0
M  V30 6781 H 616.529 2.7682 2.60912 0
M  V30 6782 H 617.841 3.4758 3.57756 0
M  V30 6783 H 616.995 2.29522 5.61609 0
M  V30 6784 H 615.734 1.483 4.64606 0
M  V30 6785 H 614.739 3.71118 4.05649 0
M  V30 6786 H 615.964 4.52857 5.06061 0
M  V30 6787 H 613.91 2.51812 6.05745 0
M  V30 6788 H 613.827 4.23727 6.26092 0
M  V30 6789 H 615.095 3.34114 7.04264 0
M  V30 6790 N 619.324 -0.923095 1.27737 0
M  V30 6791 C 620.74 -1.19985 1.05241 0
M  V30 6792 C 620.94 -2.00391 -0.21113 0
M  V30 6793 O 619.996 -2.35324 -0.915366 0
M  V30 6794 C 621.309 -1.94352 2.29451 0
M  V30 6795 C 622.857 -2.07273 2.34536 0
M  V30 6796 C 623.332 -2.85046 3.58487 0
M  V30 6797 N 624.823 -2.92612 3.59072 0
M  V30 6798 C 625.558 -3.53266 4.51654 0
M  V30 6799 N 625.054 -4.15274 5.54545 0
M  V30 6800 N 626.847 -3.50714 4.39268 0
M  V30 6801 H 618.998 -0.386042 2.08862 0
M  V30 6802 H 621.261 -0.233407 0.918817 0
M  V30 6803 H 620.967 -1.42692 3.21453 0
M  V30 6804 H 620.841 -2.94947 2.3513 0
M  V30 6805 H 623.228 -2.58117 1.43037 0
M  V30 6806 H 623.309 -1.05884 2.32857 0
M  V30 6807 H 622.953 -2.34884 4.50324 0
M  V30 6808 H 622.883 -3.8673 3.57418 0
M  V30 6809 H 625.374 -2.48547 2.84663 0
M  V30 6810 H 625.687 -4.59507 6.21348 0
M  V30 6811 H 624.032 -4.13806 5.58382 0
M  V30 6812 H 627.223 -3.01475 3.58093 0
M  V30 6813 H 627.396 -3.97693 5.1161 0
M  V30 6814 N 620.802 -1.09834 -1.13024 0
M  V30 6815 C 622.218 -0.828875 -1.36388 0
M  V30 6816 C 622.418 0.554756 -1.93713 0
M  V30 6817 O 621.474 1.30882 -2.15931 0
M  V30 6818 C 622.787 -1.92352 -2.3113 0
M  V30 6819 C 624.335 -1.95124 -2.44735 0
M  V30 6820 C 624.81 -3.03745 -3.42787 0
M  V30 6821 N 626.301 -3.03012 -3.5034 0
M  V30 6822 C 627.036 -3.83699 -4.26101 0
M  V30 6823 N 626.532 -4.74306 -5.04981 0
M  V30 6824 N 628.325 -3.71942 -4.21445 0
M  V30 6825 H 620.476 -1.99029 -0.74169 0
M  V30 6826 H 622.739 -0.864557 -0.388903 0
M  V30 6827 H 622.445 -2.91906 -1.96172 0
M  V30 6828 H 622.319 -1.80536 -3.3119 0
M  V30 6829 H 624.706 -0.962069 -2.78977 0
M  V30 6830 H 624.787 -2.11018 -1.44586 0
M  V30 6831 H 624.431 -4.02878 -3.09276 0
M  V30 6832 H 624.361 -2.85094 -4.42752 0
M  V30 6833 H 626.852 -2.37352 -2.94062 0
M  V30 6834 H 627.165 -5.32446 -5.60108 0
M  V30 6835 H 625.51 -4.78339 -5.04199 0
M  V30 6836 H 628.701 -3.00513 -3.589 0
M  V30 6837 H 628.874 -4.35062 -4.80235 0
M  V30 6838 N 622.28 1.30327 -0.886154 0
M  V30 6839 C 623.21 2.30549 -0.370028 0
M  V30 6840 C 624.191 1.61039 0.547751 0
M  V30 6841 O 625.376 1.8864 0.461353 0
M  V30 6842 C 622.506 3.44808 0.415275 0
M  V30 6843 C 621.46 4.26024 -0.41085 0
M  V30 6844 C 620.786 5.32347 0.501128 0
M  V30 6845 C 622.086 4.95433 -1.65359 0
M  V30 6846 H 623.78 2.73969 -1.20754 0
M  V30 6847 H 621.326 1.3171 -0.582097 0
M  V30 6848 H 623.279 4.13986 0.78699 0
M  V30 6849 H 622.003 3.00197 1.28644 0
M  V30 6850 H 620.662 3.58535 -0.764719 0
M  V30 6851 H 620.31 4.83982 1.37004 0
M  V30 6852 H 620.01 5.87581 -0.0478356 0
M  V30 6853 H 621.534 6.0438 0.869333 0
M  V30 6854 H 622.948 5.5712 -1.35239 0
M  V30 6855 H 621.345 5.60537 -2.14284 0
M  V30 6856 H 622.415 4.21493 -2.39733 0
M  V30 6857 N 623.758 0.647228 1.43697 0
M  V30 6858 C 625.004 0.158422 2.0218 0
M  V30 6859 C 625.337 -1.22233 1.50907 0
M  V30 6860 O 624.612 -1.81478 0.699702 0
M  V30 6861 C 624.895 0.1627 3.59732 0
M  V30 6862 C 624.748 1.57694 4.21251 0
M  V30 6863 C 626.067 -0.504138 4.37203 0
M  V30 6864 H 623.186 0.059042 0.734631 0
M  V30 6865 H 625.828 0.826772 1.71069 0
M  V30 6866 H 623.978 -0.406414 3.86368 0
M  V30 6867 H 625.65 2.19618 4.05667 0
M  V30 6868 H 623.893 2.12603 3.7813 0
M  V30 6869 H 624.564 1.53183 5.3032 0
M  V30 6870 H 627.04 -0.0199841 4.16095 0
M  V30 6871 H 625.916 -0.470394 5.46881 0
M  V30 6872 H 626.177 -1.57726 4.13007 0
M  V30 6873 N 625.236 -1.5273 0.388769 0
M  V30 6874 C 626.652 -1.59553 0.0387049 0
M  V30 6875 C 626.852 -1.40278 -1.44652 0
M  V30 6876 O 625.908 -1.21951 -2.21098 0
M  V30 6877 C 627.221 -2.9625 0.515409 0
M  V30 6878 C 628.769 -3.09426 0.471621 0
M  V30 6879 C 629.244 -4.48572 0.924505 0
M  V30 6880 N 630.735 -4.54754 0.880496 0
M  V30 6881 C 631.47 -5.60653 1.20234 0
M  V30 6882 N 630.966 -6.74198 1.59463 0
M  V30 6883 N 632.759 -5.50755 1.12363 0
M  V30 6884 H 624.91 -1.63508 1.35569 0
M  V30 6885 H 627.173 -0.768097 0.555636 0
M  V30 6886 H 626.879 -3.15569 1.5527 0
M  V30 6887 H 626.753 -3.77102 -0.085792 0
M  V30 6888 H 629.14 -2.89804 -0.556588 0
M  V30 6889 H 629.221 -2.30528 1.10862 0
M  V30 6890 H 628.865 -4.68936 1.95094 0
M  V30 6891 H 628.795 -5.25935 0.264524 0
M  V30 6892 H 631.286 -3.73237 0.591815 0
M  V30 6893 H 631.599 -7.5097 1.82385 0
M  V30 6894 H 629.944 -6.75531 1.63349 0
M  V30 6895 H 633.135 -4.6093 0.816169 0
M  V30 6896 H 633.308 -6.33184 1.37777 0
M  V30 6897 N 626.714 -0.118576 -1.57153 0
M  V30 6898 C 627.661 0.831789 -2.1529 0
M  V30 6899 C 628.631 1.26385 -1.07778 0
M  V30 6900 O 629.816 1.34144 -1.35684 0
M  V30 6901 C 626.956 2.07664 -2.75626 0
M  V30 6902 C 626.069 1.69298 -3.97444 0
M  V30 6903 C 625.204 2.88747 -4.45868 0
M  V30 6904 C 624.243 2.46619 -5.60219 0
M  V30 6905 N 623.38 3.5898 -6.03389 0
M  V30 6906 H 628.22 0.329183 -2.96176 0
M  V30 6907 H 625.757 0.150792 -1.46325 0
M  V30 6908 H 627.715 2.80601 -3.08738 0
M  V30 6909 H 626.345 2.55384 -1.97431 0
M  V30 6910 H 625.397 0.862374 -3.70496 0
M  V30 6911 H 626.709 1.34338 -4.80369 0
M  V30 6912 H 625.863 3.69909 -4.80887 0
M  V30 6913 H 624.602 3.26933 -3.61892 0
M  V30 6914 H 623.607 1.63889 -5.24805 0
M  V30 6915 H 624.832 2.0955 -6.45961 0
M  V30 6916 H 622.778 3.9684 -5.22354 0
M  V30 6917 H 622.695 3.27942 -6.81168 0
M  V30 6918 H 623.963 4.40583 -6.43045 0
M  V30 6919 N 628.193 1.56834 0.155195 0
M  V30 6920 C 629.442 1.82088 0.867567 0
M  V30 6921 C 629.755 0.69849 1.82703 0
M  V30 6922 O 630.961 0.836407 2.58295 0
M  V30 6923 C 629.417 3.22707 1.59336 0
M  V30 6924 C 629.025 4.42859 0.676719 0
M  V30 6925 C 630.769 3.57242 2.293 0
M  V30 6926 C 628.676 5.74501 1.40367 0
M  V30 6927 H 627.606 0.679057 0.327715 0
M  V30 6928 H 630.257 1.83105 0.120351 0
M  V30 6929 H 628.639 3.16054 2.38591 0
M  V30 6930 H 629.813 4.60731 -0.0800196 0
M  V30 6931 H 628.128 4.16311 0.0859129 0
M  V30 6932 H 630.725 4.52847 2.84312 0
M  V30 6933 H 631.068 2.82901 3.05406 0
M  V30 6934 H 631.601 3.6552 1.56972 0
M  V30 6935 H 628.34 6.51915 0.684623 0
M  V30 6936 H 627.86 5.60579 2.13332 0
M  V30 6937 H 629.539 6.17016 1.94681 0
M  V30 6938 N 629.671 -0.424282 1.51781 0
M  V30 6939 C 630.601 -1.52305 1.7699 0
M  V30 6940 C 631.582 -1.5839 0.620209 0
M  V30 6941 O 632.767 -1.73908 0.864268 0
M  V30 6942 C 629.897 -2.90271 1.90683 0
M  V30 6943 C 628.851 -2.99043 3.06198 0
M  V30 6944 C 628.177 -4.39116 3.05092 0
M  V30 6945 C 629.477 -2.7192 4.45934 0
M  V30 6946 H 631.171 -1.31461 2.68995 0
M  V30 6947 H 628.717 -0.630985 1.29439 0
M  V30 6948 H 630.67 -3.6711 2.06901 0
M  V30 6949 H 629.394 -3.12376 0.953365 0
M  V30 6950 H 628.053 -2.24646 2.89706 0
M  V30 6951 H 627.701 -4.58207 2.07498 0
M  V30 6952 H 627.401 -4.45912 3.82669 0
M  V30 6953 H 628.925 -5.17911 3.2342 0
M  V30 6954 H 630.339 -3.38487 4.62709 0
M  V30 6955 H 628.736 -2.90111 5.25315 0
M  V30 6956 H 629.806 -1.67445 4.55072 0
M  V30 6957 N 631.149 -1.42148 -0.680565 0
M  V30 6958 C 632.374 -1.45901 -1.47403 0
M  V30 6959 C 632.799 -0.0700985 -1.87969 0
M  V30 6960 O 632.157 0.930145 -1.55621 0
M  V30 6961 C 632.205 -2.38661 -2.70321 0
M  V30 6962 O 631.309 -1.85399 -3.68376 0
M  V30 6963 H 630.65 -0.494565 -0.443059 0
M  V30 6964 H 633.18 -1.86774 -0.835251 0
M  V30 6965 H 633.19 -2.55046 -3.18458 0
M  V30 6966 H 631.865 -3.39571 -2.40134 0
M  V30 6967 H 630.442 -1.78541 -3.2738 0
M  V30 6968 N 632.627 0.916307 -1.28225 0
M  V30 6969 C 633.557 2.0352 -1.14464 0
M  V30 6970 C 634.538 1.70045 -0.0430844 0
M  V30 6971 O 635.723 1.92954 -0.219619 0
M  V30 6972 C 632.853 3.37889 -0.803027 0
M  V30 6973 C 631.807 3.85516 -1.85908 0
M  V30 6974 C 631.133 5.1682 -1.37116 0
M  V30 6975 C 632.433 4.07655 -3.26519 0
M  V30 6976 H 634.127 2.1529 -2.08064 0
M  V30 6977 H 631.673 1.03446 -1.00174 0
M  V30 6978 H 633.626 4.15654 -0.693537 0
M  V30 6979 H 632.35 3.26164 0.168674 0
M  V30 6980 H 631.009 3.09953 -1.95767 0
M  V30 6981 H 630.657 5.01497 -0.38859 0
M  V30 6982 H 630.357 5.49657 -2.07728 0
M  V30 6983 H 631.881 5.97143 -1.27484 0
M  V30 6984 H 633.295 4.75953 -3.19596 0
M  V30 6985 H 631.692 4.51818 -3.94943 0
M  V30 6986 H 632.762 3.12553 -3.70727 0
M  V30 6987 N 634.105 1.10431 1.1244 0
M  V30 6988 C 635.521 0.836096 1.35947 0
M  V30 6989 C 635.721 -0.544475 1.94004 0
M  V30 6990 O 634.777 -1.29735 2.16622 0
M  V30 6991 C 636.09 1.93575 2.30107 0
M  V30 6992 C 637.638 1.9642 2.43697 0
M  V30 6993 C 638.113 3.05559 3.41171 0
M  V30 6994 N 639.604 3.04865 3.48728 0
M  V30 6995 C 640.339 3.85954 4.24061 0
M  V30 6996 N 639.835 4.76977 5.02458 0
M  V30 6997 N 641.628 3.74172 4.19466 0
M  V30 6998 H 633.779 1.9942 0.731124 0
M  V30 6999 H 636.042 0.866607 0.384312 0
M  V30 7000 H 635.748 2.92943 1.94621 0
M  V30 7001 H 635.622 1.8229 3.30227 0
M  V30 7002 H 638.009 0.97685 2.78463 0
M  V30 7003 H 638.09 2.11782 1.43465 0
M  V30 7004 H 637.734 4.04513 3.07135 0
M  V30 7005 H 637.664 2.87438 4.41234 0
M  V30 7006 H 640.155 2.38908 2.92799 0
M  V30 7007 H 640.468 5.35409 5.57277 0
M  V30 7008 H 638.813 4.81006 5.01655 0
M  V30 7009 H 642.004 3.02412 3.57302 0
M  V30 7010 H 642.177 4.37602 4.77921 0
M  V30 7011 N 635.583 -1.29855 0.893053 0
M  V30 7012 C 636.53 -2.27909 0.364161 0
M  V30 7013 C 637.5 -1.56726 -0.550093 0
M  V30 7014 O 638.685 -1.84747 -0.47677 0
M  V30 7015 C 635.825 -3.42678 -0.408178 0
M  V30 7016 C 634.938 -4.28659 0.536212 0
M  V30 7017 C 634.073 -5.30599 -0.252521 0
M  V30 7018 C 633.112 -6.08234 0.686822 0
M  V30 7019 N 632.249 -7.02068 -0.0670902 0
M  V30 7020 H 637.089 -2.72531 1.20544 0
M  V30 7021 H 634.626 -1.34047 0.605779 0
M  V30 7022 H 636.584 -4.07986 -0.871962 0
M  V30 7023 H 635.214 -2.99103 -1.21397 0
M  V30 7024 H 634.266 -3.63584 1.1185 0
M  V30 7025 H 635.578 -4.8274 1.25552 0
M  V30 7026 H 634.732 -6.01694 -0.777801 0
M  V30 7027 H 633.471 -4.77233 -1.005 0
M  V30 7028 H 632.476 -5.3601 1.22366 0
M  V30 7029 H 633.701 -6.63689 1.43852 0
M  V30 7030 H 631.647 -6.5108 -0.801955 0
M  V30 7031 H 631.564 -7.53675 0.59243 0
M  V30 7032 H 632.832 -7.77392 -0.572851 0
M  V30 7033 N 637.061 -0.65484 -1.43351 0
M  V30 7034 C 638.286 -0.175046 -2.0666 0
M  V30 7035 C 638.711 1.15104 -1.4877 0
M  V30 7036 O 638.069 1.71144 -0.598279 0
M  V30 7037 C 638.117 -0.0991544 -3.60464 0
M  V30 7038 O 637.221 0.938169 -4.01587 0
M  V30 7039 H 636.562 -0.0956148 -0.65708 0
M  V30 7040 H 639.092 -0.898222 -1.83829 0
M  V30 7041 H 639.102 0.083632 -4.07914 0
M  V30 7042 H 637.777 -1.06719 -4.01975 0
M  V30 7043 H 636.354 0.72804 -3.65724 0
M  V30 7044 N 638.539 1.52521 -0.396863 0
M  V30 7045 C 639.816 1.94112 0.240842 0
M  V30 7046 C 640.196 1.33288 1.637 0
M  V30 7047 O 639.544 0.503901 2.22875 0
M  V30 7048 C 639.754 3.48033 0.259567 0
M  V30 7049 C 641.102 4.21822 0.484866 0
M  V30 7050 O 642.126 3.54579 0.339453 0
M  V30 7051 O 640.985 5.41042 0.770412 0
M  V30 7052 H 638.079 0.812973 0.151671 0
M  V30 7053 H 640.625 1.63572 -0.451918 0
M  V30 7054 H 639.397 3.84655 -0.718078 0
M  V30 7055 H 639.02 3.84899 0.996937 0
M  V30 7056 N 640.017 0.126909 1.57088 0
M  V30 7057 C 640.967 -0.831678 2.1229 0
M  V30 7058 C 641.951 -1.22292 1.04564 0
M  V30 7059 O 643.143 -1.19269 1.30782 0
M  V30 7060 C 640.272 -2.07866 2.73215 0
M  V30 7061 C 639.358 -1.71143 3.88035 0
M  V30 7062 N 639.749 -1.05136 4.94753 0
M  V30 7063 C 638.047 -2.00549 3.98367 0
M  V30 7064 C 638.748 -0.877257 5.75047 0
M  V30 7065 N 637.724 -1.40477 5.25135 0
M  V30 7066 H 641.526 -0.317926 2.92175 0
M  V30 7067 H 639.04 -0.0753052 1.62225 0
M  V30 7068 H 641.037 -2.77516 3.11111 0
M  V30 7069 H 639.697 -2.59778 1.94796 0
M  V30 7070 H 640.708 -0.71442 5.12949 0
M  V30 7071 H 637.385 -2.54452 3.30999 0
M  V30 7072 H 638.775 -0.358536 6.70943 0
M  V30 7073 N 641.495 -1.56914 -0.146875 0
M  V30 7074 C 642.443 -1.99224 -1.20053 0
M  V30 7075 C 643.437 -0.884661 -1.44465 0
M  V30 7076 O 644.643 -1.06984 -1.44756 0
M  V30 7077 H 641.018 -0.634191 -0.404112 0
M  V30 7078 H 642.989 -2.86998 -0.816987 0
M  V30 7079 C 641.738 -2.38899 -2.52632 0
M  V30 7080 H 641.061 -3.23677 -2.34677 0
M  V30 7081 H 642.501 -2.72326 -3.24984 0
M  V30 7082 C 640.96 -1.2417 -3.13183 0
M  V30 7083 O 641.49 -0.542503 -3.9802 0
M  V30 7084 N 639.696 -1.00592 -2.72635 0
M  V30 7085 H 639.243 -1.57627 -2.03744 0
M  V30 7086 H 639.201 -0.240174 -3.13481 0
M  V30 7087 N 642.974 0.416227 -1.52004 0
M  V30 7088 C 644.222 1.16153 -1.65387 0
M  V30 7089 C 644.543 1.91208 -0.382669 0
M  V30 7090 O 643.813 1.86413 0.602231 0
M  V30 7091 H 642.393 0.431765 -0.60958 0
M  V30 7092 H 645.055 0.475151 -1.89019 0
M  V30 7093 H 644.151 1.87952 -2.4916 0
M  V30 7094 N 644.452 1.42507 0.673017 0
M  V30 7095 C 645.863 1.38347 1.25367 0
M  V30 7096 C 646.214 0.0776327 1.96046 0
M  V30 7097 O 645.339 -0.823571 2.00116 0
M  V30 7098 C 645.934 2.506 2.28002 0
M  V30 7099 C 644.493 2.49767 2.81591 0
M  V30 7100 C 643.64 2.293 1.55938 0
M  V30 7101 H 646.591 1.51695 0.466288 0
M  V30 7102 H 646.612 2.20953 3.09774 0
M  V30 7103 H 646.124 3.45627 1.76532 0
M  V30 7104 H 644.225 1.58563 3.37177 0
M  V30 7105 H 644.338 3.46867 3.30485 0
M  V30 7106 H 642.702 1.77594 1.82572 0
M  V30 7107 H 643.485 3.26385 1.06431 0
M  V30 7108 N 645.93 -0.909495 1.28709 0
M  V30 7109 C 647.177 -1.65905 1.16111 0
M  V30 7110 C 647.505 -1.92334 -0.289436 0
M  V30 7111 O 646.76 -1.52495 -1.22653 0
M  V30 7112 C 647.059 -3.02117 1.90945 0
M  V30 7113 C 646.725 -2.95332 3.40719 0
M  V30 7114 C 645.387 -2.93189 3.81567 0
M  V30 7115 C 647.739 -2.85264 4.36204 0
M  V30 7116 C 645.067 -2.78784 5.16233 0
M  V30 7117 C 647.419 -2.724 5.70948 0
M  V30 7118 C 646.083 -2.68617 6.11066 0
M  V30 7119 H 645.353 -0.60709 0.42488 0
M  V30 7120 H 648 -1.05932 1.59533 0
M  V30 7121 H 646.305 -3.65901 1.40085 0
M  V30 7122 H 648.002 -3.59026 1.7861 0
M  V30 7123 H 644.592 -2.97797 3.08245 0
M  V30 7124 H 648.776 -2.86005 4.05605 0
M  V30 7125 H 644.032 -2.74254 5.46438 0
M  V30 7126 H 648.206 -2.63579 6.44592 0
M  V30 7127 H 645.833 -2.57213 7.15364 0
M  V30 7128 N 647.408 -1.11026 -1.11852 0
M  V30 7129 C 648.633 -0.879064 -1.87849 0
M  V30 7130 C 649.058 0.565406 -1.79401 0
M  V30 7131 O 648.416 1.39886 -1.15333 0
M  V30 7132 C 648.464 -1.33985 -3.34784 0
M  V30 7133 O 647.568 -0.508803 -4.09249 0
M  V30 7134 H 646.909 -0.316992 -0.583448 0
M  V30 7135 H 649.439 -1.47863 -1.41413 0
M  V30 7136 H 649.449 -1.33248 -3.85628 0
M  V30 7137 H 648.124 -2.39172 -3.40249 0
M  V30 7138 H 646.701 -0.581913 -3.68332 0
M  V30 7139 N 648.886 1.2938 -0.899927 0
M  V30 7140 C 649.833 2.27713 -0.376243 0
M  V30 7141 C 650.803 1.57016 0.541774 0
M  V30 7142 O 651.988 1.84997 0.466966 0
M  V30 7143 C 649.128 3.42889 0.39 0
M  V30 7144 C 648.241 4.28369 -0.558938 0
M  V30 7145 C 647.376 5.30726 0.224379 0
M  V30 7146 C 646.415 6.07862 -0.719068 0
M  V30 7147 N 645.552 7.02094 0.0298569 0
M  V30 7148 H 650.392 2.71888 -1.21988 0
M  V30 7149 H 647.929 1.33724 -0.612879 0
M  V30 7150 H 649.887 4.08443 0.850314 0
M  V30 7151 H 648.517 2.99743 1.19809 0
M  V30 7152 H 647.569 3.62986 -1.13777 0
M  V30 7153 H 648.881 4.82068 -1.2811 0
M  V30 7154 H 648.035 6.02098 0.745881 0
M  V30 7155 H 646.774 4.77759 0.979674 0
M  V30 7156 H 645.779 5.35353 -1.25207 0
M  V30 7157 H 647.004 6.62917 -1.4737 0
M  V30 7158 H 644.95 6.51496 0.767415 0
M  V30 7159 H 644.867 7.5335 -0.632391 0
M  V30 7160 H 646.135 7.77685 0.531615 0
M  V30 7161 N 650.364 0.662433 1.43002 0
M  V30 7162 C 651.611 0.179591 2.01702 0
M  V30 7163 C 651.939 -1.20964 1.52309 0
M  V30 7164 O 651.194 -1.82343 0.7106 0
M  V30 7165 C 651.493 0.149363 3.57088 0
M  V30 7166 C 651.159 1.48158 4.25864 0
M  V30 7167 C 649.821 1.84638 4.44367 0
M  V30 7168 C 652.173 2.35953 4.64732 0
M  V30 7169 C 649.501 3.08561 4.99006 0
M  V30 7170 C 651.853 3.59176 5.20745 0
M  V30 7171 C 650.517 3.95841 5.37463 0
M  V30 7172 H 649.787 0.0657172 0.73808 0
M  V30 7173 H 652.434 0.854968 1.71355 0
M  V30 7174 H 650.739 -0.609491 3.8703 0
M  V30 7175 H 652.436 -0.241241 4.00274 0
M  V30 7176 H 649.026 1.18777 4.11813 0
M  V30 7177 H 653.21 2.09058 4.50121 0
M  V30 7178 H 648.466 3.37005 5.10135 0
M  V30 7179 H 652.64 4.27417 5.49807 0
M  V30 7180 H 650.267 4.91942 5.79566 0
M  V30 7181 N 651.842 -1.52309 0.404946 0
M  V30 7182 C 652.772 -2.29805 -0.41376 0
M  V30 7183 C 653.753 -1.3384 -1.0498 0
M  V30 7184 O 654.938 -1.62745 -1.05961 0
M  V30 7185 C 652.068 -3.11639 -1.53292 0
M  V30 7186 C 651.022 -4.15616 -1.02211 0
M  V30 7187 C 650.348 -4.8577 -2.23455 0
M  V30 7188 C 651.648 -5.2224 -0.0790725 0
M  V30 7189 H 653.342 -2.98493 0.232878 0
M  V30 7190 H 650.888 -1.43552 0.113441 0
M  V30 7191 H 652.841 -3.64618 -2.11262 0
M  V30 7192 H 651.565 -2.40712 -2.20738 0
M  V30 7193 H 650.224 -3.63641 -0.46484 0
M  V30 7194 H 649.872 -4.11376 -2.89445 0
M  V30 7195 H 649.572 -5.56058 -1.89929 0
M  V30 7196 H 651.096 -5.4156 -2.82038 0
M  V30 7197 H 652.51 -5.70485 -0.567438 0
M  V30 7198 H 650.907 -5.99867 0.167167 0
M  V30 7199 H 651.977 -4.77078 0.867447 0
M  V30 7200 N 653.32 -0.135238 -1.57019 0
M  V30 7201 C 654.23 0.822226 -2.19719 0
M  V30 7202 C 655.246 1.28057 -1.17802 0
M  V30 7203 O 656.422 1.3402 -1.50335 0
M  V30 7204 C 653.487 2.0484 -2.79717 0
M  V30 7205 C 652.548 1.64042 -3.96723 0
M  V30 7206 C 651.781 2.80814 -4.53849 0
M  V30 7207 O 652.004 3.967 -4.0986 0
M  V30 7208 O 650.938 2.56963 -5.44292 0
M  V30 7209 H 654.764 0.318552 -3.02025 0
M  V30 7210 H 652.349 0.0912021 -1.49121 0
M  V30 7211 H 654.231 2.76622 -3.17897 0
M  V30 7212 H 652.906 2.54182 -2.00432 0
M  V30 7213 H 651.813 0.893182 -3.63281 0
M  V30 7214 H 653.146 1.19426 -4.77492 0
M  V30 7215 N 654.798 1.5699 0.138552 0
M  V30 7216 C 656.023 1.88344 0.86841 0
M  V30 7217 C 656.448 0.725159 1.7356 0
M  V30 7218 O 655.806 -0.324992 1.78363 0
M  V30 7219 C 655.854 3.18334 1.69398 0
M  V30 7220 O 654.958 3.02863 2.79907 0
M  V30 7221 H 654.299 0.618577 0.241367 0
M  V30 7222 H 656.829 2.04207 0.126826 0
M  V30 7223 H 656.839 3.50567 2.08726 0
M  V30 7224 H 655.514 4.02238 1.05725 0
M  V30 7225 H 654.091 2.82056 2.43924 0
M  V30 7226 N 656.276 -0.40816 1.52223 0
M  V30 7227 C 657.525 -1.15212 1.65557 0
M  V30 7228 C 657.838 -1.9163 0.392096 0
M  V30 7229 O 659.044 -2.68458 0.405256 0
M  V30 7230 C 657.5 -2.09691 2.92502 0
M  V30 7231 C 657.108 -1.38785 4.25961 0
M  V30 7232 C 658.852 -2.8434 3.152 0
M  V30 7233 C 656.759 -2.31919 5.44029 0
M  V30 7234 H 655.689 -0.433776 0.616729 0
M  V30 7235 H 658.34 -0.4165 1.78711 0
M  V30 7236 H 656.722 -2.8681 2.7305 0
M  V30 7237 H 657.896 -0.670248 4.55899 0
M  V30 7238 H 656.211 -0.761741 4.09373 0
M  V30 7239 H 658.808 -3.54166 4.00587 0
M  V30 7240 H 659.151 -3.47344 2.29473 0
M  V30 7241 H 659.684 -2.14321 3.35129 0
M  V30 7242 H 656.423 -1.7356 6.32105 0
M  V30 7243 H 655.943 -3.0165 5.18428 0
M  V30 7244 H 657.622 -2.92424 5.77146 0
M  V30 7245 N 657.755 -1.42862 -0.66545 0
M  V30 7246 C 659.002 -1.4383 -1.42546 0
M  V30 7247 C 659.33 -0.0581114 -1.94413 0
M  V30 7248 O 658.585 0.935002 -1.71919 0
M  V30 7249 C 658.884 -2.4175 -2.63233 0
M  V30 7250 C 658.55 -3.87915 -2.29854 0
M  V30 7251 C 657.212 -4.27726 -2.20463 0
M  V30 7252 C 659.564 -4.80074 -2.02924 0
M  V30 7253 C 656.892 -5.57666 -1.82279 0
M  V30 7254 C 659.244 -6.10366 -1.66242 0
M  V30 7255 C 657.908 -6.49167 -1.55367 0
M  V30 7256 H 657.178 -0.52631 -0.521612 0
M  V30 7257 H 659.825 -1.75863 -0.757914 0
M  V30 7258 H 658.13 -2.03077 -3.35063 0
M  V30 7259 H 659.827 -2.39759 -3.21429 0
M  V30 7260 H 656.417 -3.564 -2.3807 0
M  V30 7261 H 660.601 -4.50097 -2.09108 0
M  V30 7262 H 655.857 -5.8658 -1.72436 0
M  V30 7263 H 660.031 -6.81258 -1.44432 0
M  V30 7264 H 657.658 -7.49761 -1.2555 0
M  V30 7265 N 659.233 0.902656 -1.29189 0
M  V30 7266 C 660.183 1.99326 -1.10695 0
M  V30 7267 C 661.167 1.60877 -0.0272521 0
M  V30 7268 O 662.359 1.75245 -0.248635 0
M  V30 7269 C 659.488 3.34265 -0.78244 0
M  V30 7270 C 658.574 3.79081 -1.90153 0
M  V30 7271 N 658.965 3.96162 -3.14466 0
M  V30 7272 C 657.263 4.08333 -1.79389 0
M  V30 7273 C 657.964 4.3388 -3.87458 0
M  V30 7274 N 656.94 4.42759 -3.15381 0
M  V30 7275 H 660.742 2.10597 -2.05003 0
M  V30 7276 H 658.256 1.09127 -1.20271 0
M  V30 7277 H 660.253 4.12097 -0.630996 0
M  V30 7278 H 658.913 3.2434 0.152754 0
M  V30 7279 H 659.924 3.81775 -3.49954 0
M  V30 7280 H 656.601 4.06982 -0.931217 0
M  V30 7281 H 657.991 4.54965 -4.94425 0
M  V30 7282 N 660.711 1.11618 1.11262 0
M  V30 7283 C 661.96 0.860934 1.82403 0
M  V30 7284 C 662.273 -0.615303 1.8567 0
M  V30 7285 O 663.479 -0.986861 2.52929 0
M  V30 7286 C 661.935 1.49048 3.27586 0
M  V30 7287 C 661.543 3.00089 3.32642 0
M  V30 7288 C 663.287 1.31515 4.03614 0
M  V30 7289 C 661.194 3.56019 4.72234 0
M  V30 7290 H 660.124 0.318423 0.683464 0
M  V30 7291 H 662.775 1.34165 1.25188 0
M  V30 7292 H 661.157 0.937434 3.84744 0
M  V30 7293 H 662.331 3.61813 2.85356 0
M  V30 7294 H 660.646 3.16919 2.70096 0
M  V30 7295 H 663.243 1.70732 5.0671 0
M  V30 7296 H 663.586 0.257917 4.155 0
M  V30 7297 H 664.119 1.83694 3.52848 0
M  V30 7298 H 660.858 4.61463 4.65545 0
M  V30 7299 H 660.378 2.99066 5.19923 0
M  V30 7300 H 662.057 3.54568 5.41193 0
M  V30 7301 N 662.189 -1.289 0.906776 0
M  V30 7302 C 663.414 -1.99939 0.551303 0
M  V30 7303 C 663.839 -1.67366 -0.858496 0
M  V30 7304 O 663.197 -0.902176 -1.57259 0
M  V30 7305 C 663.245 -3.52523 0.758937 0
M  V30 7306 O 662.349 -4.11983 -0.185308 0
M  V30 7307 H 661.69 -0.628376 0.214568 0
M  V30 7308 H 664.22 -1.64225 1.2203 0
M  V30 7309 H 664.23 -4.02522 0.666329 0
M  V30 7310 H 662.905 -3.75566 1.78671 0
M  V30 7311 H 661.482 -3.72873 -0.0445577 0
M  V30 7312 N 663.667 -0.670007 -1.42649 0
M  V30 7313 C 664.614 0.0112928 -2.30797 0
M  V30 7314 C 665.584 0.797627 -1.45695 0
M  V30 7315 O 666.769 0.770845 -1.74535 0
M  V30 7316 C 663.909 0.95998 -3.31479 0
M  V30 7317 C 663.022 0.167975 -4.31673 0
M  V30 7318 C 662.157 1.11198 -5.19431 0
M  V30 7319 C 661.196 0.311381 -6.11307 0
M  V30 7320 N 660.333 1.20784 -6.91633 0
M  V30 7321 H 665.173 -0.746231 -2.88505 0
M  V30 7322 H 662.71 -0.379739 -1.42114 0
M  V30 7323 H 664.668 1.52379 -3.88377 0
M  V30 7324 H 663.298 1.68419 -2.75382 0
M  V30 7325 H 662.35 -0.512385 -3.76933 0
M  V30 7326 H 663.662 -0.453814 -4.96731 0
M  V30 7327 H 662.816 1.74587 -5.81037 0
M  V30 7328 H 661.555 1.76766 -4.54538 0
M  V30 7329 H 660.56 -0.335758 -5.48774 0
M  V30 7330 H 661.785 -0.340135 -6.78248 0
M  V30 7331 H 659.731 1.85001 -6.29373 0
M  V30 7332 H 659.648 0.64102 -7.53277 0
M  V30 7333 H 660.916 1.82936 -7.5773 0
M  V30 7334 N 665.145 1.52092 -0.413018 0
M  V30 7335 C 666.092 2.27119 0.410558 0
M  V30 7336 C 667.062 1.29692 1.03774 0
M  V30 7337 O 668.247 1.58561 1.06128 0
M  V30 7338 C 665.387 3.09863 1.51918 0
M  V30 7339 C 664.5 4.22252 0.912528 0
M  V30 7340 C 663.635 4.92348 1.99417 0
M  V30 7341 C 662.674 5.96694 1.36466 0
M  V30 7342 N 661.811 6.60292 2.38661 0
M  V30 7343 H 666.651 2.97067 -0.235661 0
M  V30 7344 H 664.188 1.46542 -0.128055 0
M  V30 7345 H 666.146 3.56144 2.17295 0
M  V30 7346 H 664.776 2.42078 2.13537 0
M  V30 7347 H 663.828 3.80113 0.147697 0
M  V30 7348 H 665.14 4.9709 0.412717 0
M  V30 7349 H 664.294 5.42054 2.72512 0
M  V30 7350 H 663.033 4.17087 2.52764 0
M  V30 7351 H 662.038 5.46304 0.61906 0
M  V30 7352 H 663.263 6.73899 0.838827 0
M  V30 7353 H 661.209 5.87858 2.91134 0
M  V30 7354 H 661.126 7.30816 1.93503 0
M  V30 7355 H 662.394 7.14635 3.11314 0
M  V30 7356 N 666.623 0.143563 1.56945 0
M  V30 7357 C 667.872 -0.50835 1.95189 0
M  V30 7358 C 668.185 -1.66239 1.03073 0
M  V30 7359 O 669.391 -2.3787 1.30882 0
M  V30 7360 C 667.847 -0.955735 3.46978 0
M  V30 7361 C 667.455 0.171183 4.47673 0
M  V30 7362 C 669.199 -1.57763 3.94095 0
M  V30 7363 C 667.106 -0.294279 5.90667 0
M  V30 7364 H 666.036 -0.193679 0.728701 0
M  V30 7365 H 668.687 0.227357 1.82086 0
M  V30 7366 H 667.069 -1.7466 3.55401 0
M  V30 7367 H 668.243 0.948049 4.50942 0
M  V30 7368 H 666.558 0.701273 4.10452 0
M  V30 7369 H 669.155 -1.93745 4.98364 0
M  V30 7370 H 669.498 -2.46531 3.35452 0
M  V30 7371 H 670.031 -0.851728 3.88575 0
M  V30 7372 H 666.77 0.557939 6.53121 0
M  V30 7373 H 666.29 -1.0371 5.90766 0
M  V30 7374 H 667.969 -0.747426 6.42668 0
M  V30 7375 N 668.101 -1.57061 -0.130224 0
M  V30 7376 C 669.048 -1.99517 -1.16024 0
M  V30 7377 C 670.018 -0.865452 -1.41771 0
M  V30 7378 O 671.203 -1.12882 -1.53826 0
M  V30 7379 C 668.343 -2.3951 -2.48453 0
M  V30 7380 C 667.456 -3.65848 -2.29737 0
M  V30 7381 C 666.591 -3.9487 -3.55318 0
M  V30 7382 C 665.63 -5.14426 -3.31711 0
M  V30 7383 N 664.767 -5.39375 -4.49466 0
M  V30 7384 H 669.607 -2.87305 -0.791194 0
M  V30 7385 H 667.144 -1.42129 -0.379195 0
M  V30 7386 H 669.102 -2.60731 -3.25692 0
M  V30 7387 H 667.732 -1.54779 -2.83272 0
M  V30 7388 H 666.784 -3.52307 -1.4347 0
M  V30 7389 H 668.096 -4.53241 -2.08263 0
M  V30 7390 H 667.25 -4.16679 -4.4098 0
M  V30 7391 H 665.989 -3.05931 -3.79813 0
M  V30 7392 H 664.994 -4.92473 -2.44439 0
M  V30 7393 H 666.219 -6.04933 -3.08598 0
M  V30 7394 H 664.165 -4.53391 -4.74102 0
M  V30 7395 H 664.082 -6.21069 -4.31055 0
M  V30 7396 H 665.35 -5.65694 -5.36293 0
M  V30 7397 N 669.579 0.400081 -1.52437 0
M  V30 7398 C 670.856 1.15973 -1.57511 0
M  V30 7399 C 671.236 2.0798 -0.361572 0
M  V30 7400 O 670.584 2.19032 0.650929 0
M  V30 7401 C 670.794 1.92912 -2.90837 0
M  V30 7402 C 672.142 2.48662 -3.44169 0
M  V30 7403 O 673.166 2.03081 -2.92637 0
M  V30 7404 O 672.025 3.31894 -4.34176 0
M  V30 7405 H 669.119 0.530023 -0.634827 0
M  V30 7406 H 671.665 0.40613 -1.64769 0
M  V30 7407 H 670.437 1.25564 -3.70607 0
M  V30 7408 H 670.06 2.75257 -2.86913 0
M  V30 7409 N 671.057 1.43213 0.657864 0
M  V30 7410 C 672.004 1.48011 1.77092 0
M  V30 7411 C 672.974 0.330291 1.62783 0
M  V30 7412 O 674.159 0.536787 1.83094 0
M  V30 7413 C 671.299 1.40461 3.15222 0
M  V30 7414 C 670.412 2.65612 3.40697 0
M  V30 7415 C 669.547 2.50083 4.68649 0
M  V30 7416 C 668.586 3.70525 4.87214 0
M  V30 7417 N 667.723 3.53835 6.0642 0
M  V30 7418 H 672.563 2.43121 1.72326 0
M  V30 7419 H 670.1 1.20687 0.841013 0
M  V30 7420 H 672.058 1.34079 3.95068 0
M  V30 7421 H 670.688 0.489359 3.19069 0
M  V30 7422 H 669.74 2.82292 2.54982 0
M  V30 7423 H 671.052 3.5509 3.50303 0
M  V30 7424 H 670.206 2.41383 5.56614 0
M  V30 7425 H 668.945 1.58121 4.61356 0
M  V30 7426 H 667.95 3.79639 3.97686 0
M  V30 7427 H 669.175 4.63489 4.96341 0
M  V30 7428 H 667.121 2.64604 6.00267 0
M  V30 7429 H 667.038 4.36912 6.16963 0
M  V30 7430 H 668.306 3.48978 6.97019 0
M  V30 7431 N 672.536 -0.895792 1.29666 0
M  V30 7432 C 673.782 -1.64908 1.18039 0
M  V30 7433 C 674.115 -1.9236 -0.266682 0
M  V30 7434 O 673.39 -1.53682 -1.19214 0
M  V30 7435 C 673.673 -2.99574 1.99819 0
M  V30 7436 C 673.526 -2.79163 3.52687 0
M  V30 7437 C 674.845 -4.00358 1.82761 0
M  V30 7438 H 671.964 -0.598437 0.430165 0
M  V30 7439 H 674.606 -1.03736 1.59182 0
M  V30 7440 H 672.756 -3.51786 1.64859 0
M  V30 7441 H 674.428 -2.33821 3.9765 0
M  V30 7442 H 672.671 -2.13871 3.77414 0
M  V30 7443 H 673.342 -3.74871 4.05186 0
M  V30 7444 H 675.818 -3.57268 2.13304 0
M  V30 7445 H 674.694 -4.92514 2.42325 0
M  V30 7446 H 674.955 -4.35096 0.783839 0
M  V30 7447 N 674.014 -1.12206 -1.10668 0
M  V30 7448 C 674.962 -0.782918 -2.19028 0
M  V30 7449 C 675.956 0.229175 -1.67843 0
M  V30 7450 O 677.162 0.0876295 -1.79787 0
M  V30 7451 H 673.537 -0.235339 -0.714227 0
M  V30 7452 H 675.508 -1.70527 -2.44874 0
M  V30 7453 C 674.257 -0.25116 -3.46792 0
M  V30 7454 H 673.58 -1.02123 -3.86537 0
M  V30 7455 H 675.02 -0.0521409 -4.23968 0
M  V30 7456 C 673.479 1.02037 -3.21076 0
M  V30 7457 O 674.009 2.09862 -3.42522 0
M  V30 7458 N 672.215 0.946348 -2.74759 0
M  V30 7459 H 671.762 0.068777 -2.57508 0
M  V30 7460 H 671.72 1.79775 -2.57931 0
M  V30 7461 N 675.492 1.28418 -0.913599 0
M  V30 7462 C 676.903 1.77024 -0.593237 0
M  V30 7463 C 677.254 1.74779 0.891441 0
M  V30 7464 O 676.379 1.34237 1.69733 0
M  V30 7465 C 676.974 3.21456 -1.07011 0
M  V30 7466 C 675.533 3.67786 -0.800664 0
M  V30 7467 C 674.68 2.48185 -1.23691 0
M  V30 7468 H 677.631 1.14883 -1.09487 0
M  V30 7469 H 677.652 3.78269 -0.411481 0
M  V30 7470 H 677.164 3.23058 -2.1507 0
M  V30 7471 H 675.265 3.71644 0.266725 0
M  V30 7472 H 675.378 4.57934 -1.4083 0
M  V30 7473 H 673.742 2.46116 -0.655655 0
M  V30 7474 H 674.525 2.52506 -2.32585 0
M  V30 7475 N 676.97 0.677563 1.42291 0
M  V30 7476 C 677.918 -0.0106755 2.32598 0
M  V30 7477 C 678.912 -0.787643 1.49975 0
M  V30 7478 O 680.118 -0.695295 1.66029 0
M  V30 7479 H 676.493 -0.0222482 0.751671 0
M  V30 7480 H 678.464 0.768312 2.88339 0
M  V30 7481 C 677.213 -0.946142 3.3458 0
M  V30 7482 H 676.536 -0.357701 3.98197 0
M  V30 7483 H 677.976 -1.39634 4.00348 0
M  V30 7484 C 676.435 -2.05383 2.67057 0
M  V30 7485 O 676.965 -3.1406 2.50458 0
M  V30 7486 N 675.171 -1.82635 2.26038 0
M  V30 7487 H 674.718 -0.942534 2.39737 0
M  V30 7488 H 674.676 -2.56937 1.81192 0
M  V30 7489 N 678.448 -1.51871 0.421078 0
M  V30 7490 C 679.378 -2.30231 -0.389363 0
M  V30 7491 C 680.359 -1.34946 -1.03555 0
M  V30 7492 O 681.544 -1.63859 -1.04229 0
M  V30 7493 C 678.674 -3.13247 -1.49979 0
M  V30 7494 C 677.628 -4.16677 -0.977966 0
M  V30 7495 C 676.954 -4.88112 -2.1829 0
M  V30 7496 C 678.254 -5.22295 -0.0236775 0
M  V30 7497 H 679.948 -2.98229 0.264524 0
M  V30 7498 H 677.494 -1.43424 0.12866 0
M  V30 7499 H 679.447 -3.66838 -2.07383 0
M  V30 7500 H 678.171 -2.4304 -2.18173 0
M  V30 7501 H 676.83 -3.64114 -0.426245 0
M  V30 7502 H 676.478 -4.14423 -2.85066 0
M  V30 7503 H 676.178 -5.58041 -1.84021 0
M  V30 7504 H 677.702 -5.44521 -2.76278 0
M  V30 7505 H 679.116 -5.71055 -0.506899 0
M  V30 7506 H 677.513 -5.99656 0.230782 0
M  V30 7507 H 678.583 -4.76131 0.917999 0
M  V30 7508 N 679.926 -0.151884 -1.56866 0
M  V30 7509 C 680.836 0.798876 -2.20579 0
M  V30 7510 C 681.852 1.268 -1.19154 0
M  V30 7511 O 683.028 1.32418 -1.51748 0
M  V30 7512 C 680.093 2.01861 -2.81874 0
M  V30 7513 C 679.154 1.59825 -3.9844 0
M  V30 7514 C 678.387 2.75984 -4.56802 0
M  V30 7515 O 678.61 3.92331 -4.14044 0
M  V30 7516 O 677.544 2.51175 -5.46987 0
M  V30 7517 H 681.37 0.2865 -3.02346 0
M  V30 7518 H 678.955 0.0753806 -1.4921 0
M  V30 7519 H 680.837 2.73235 -3.20813 0
M  V30 7520 H 679.512 2.52042 -2.03117 0
M  V30 7521 H 678.419 0.854601 -3.64208 0
M  V30 7522 H 679.752 1.14355 -4.78731 0
M  V30 7523 N 681.404 1.57128 0.121893 0
M  V30 7524 C 682.653 1.83888 0.828748 0
M  V30 7525 C 682.966 0.737087 1.81181 0
M  V30 7526 O 684.172 0.891007 2.56463 0
M  V30 7527 C 682.628 3.26014 1.52455 0
M  V30 7528 C 682.236 4.44195 0.58263 0
M  V30 7529 C 683.98 3.62025 2.21671 0
M  V30 7530 C 681.887 5.77349 1.28149 0
M  V30 7531 H 680.817 0.685856 0.313238 0
M  V30 7532 H 683.468 1.83319 0.0814851 0
M  V30 7533 H 681.85 3.21044 2.31834 0
M  V30 7534 H 683.024 4.60457 -0.177729 0
M  V30 7535 H 681.339 4.164 -0.00241228 0
M  V30 7536 H 683.936 4.58776 2.74643 0
M  V30 7537 H 684.279 2.89315 2.99337 0
M  V30 7538 H 684.812 3.68767 1.49184 0
M  V30 7539 H 681.551 6.53221 0.546189 0
M  V30 7540 H 681.071 5.64978 2.01394 0
M  V30 7541 H 682.75 6.21006 1.81549 0
M  V30 7542 N 682.882 -0.391992 1.52647 0
M  V30 7543 C 684.131 -1.13449 1.6677 0
M  V30 7544 C 684.444 -1.91203 0.412399 0
M  V30 7545 O 685.65 -2.68013 0.433707 0
M  V30 7546 C 684.106 -2.06577 2.9471 0
M  V30 7547 C 683.714 -1.3426 4.27409 0
M  V30 7548 C 685.458 -2.80981 3.18198 0
M  V30 7549 C 683.365 -2.26136 5.46458 0
M  V30 7550 H 682.295 -0.427211 0.621295 0
M  V30 7551 H 684.946 -0.397522 1.79142 0
M  V30 7552 H 683.328 -2.83898 2.76076 0
M  V30 7553 H 684.502 -0.621856 4.56585 0
M  V30 7554 H 682.817 -0.718279 4.10158 0
M  V30 7555 H 685.414 -3.49898 4.04321 0
M  V30 7556 H 685.757 -3.44891 2.33144 0
M  V30 7557 H 686.29 -2.10754 3.37383 0
M  V30 7558 H 683.029 -1.66846 6.33911 0
M  V30 7559 H 682.549 -2.96134 5.21598 0
M  V30 7560 H 684.228 -2.86286 5.80215 0
M  V30 7561 N 684.36 -1.4356 -0.65026 0
M  V30 7562 C 685.29 -1.51758 -1.77459 0
M  V30 7563 C 686.271 -0.372019 -1.65982 0
M  V30 7564 O 687.456 -0.589627 -1.85033 0
M  V30 7565 C 684.586 -1.44302 -3.15902 0
M  V30 7566 C 683.54 -2.57138 -3.42146 0
M  V30 7567 C 682.866 -2.34735 -4.8042 0
M  V30 7568 C 684.166 -3.99373 -3.36598 0
M  V30 7569 H 685.86 -2.45863 -1.70855 0
M  V30 7570 H 683.406 -1.18333 -0.820566 0
M  V30 7571 H 685.359 -1.48641 -3.94314 0
M  V30 7572 H 684.083 -0.467026 -3.23244 0
M  V30 7573 H 682.742 -2.52157 -2.66106 0
M  V30 7574 H 682.39 -1.35372 -4.84441 0
M  V30 7575 H 682.09 -3.10375 -4.9894 0
M  V30 7576 H 683.614 -2.40862 -5.61086 0
M  V30 7577 H 685.028 -4.05826 -4.04942 0
M  V30 7578 H 683.425 -4.75063 -3.66654 0
M  V30 7579 H 684.495 -4.243 -2.34729 0
M  V30 7580 N 685.838 0.888903 -1.30139 0
M  V30 7581 C 687.063 1.67884 -1.21777 0
M  V30 7582 C 687.488 1.86848 0.216689 0
M  V30 7583 O 686.846 1.39659 1.15608 0
M  V30 7584 C 686.894 3.03483 -1.94757 0
M  V30 7585 O 685.998 3.92294 -1.27198 0
M  V30 7586 H 685.339 0.513144 -0.421402 0
M  V30 7587 H 687.869 1.10968 -1.71893 0
M  V30 7588 H 687.879 3.53553 -2.03627 0
M  V30 7589 H 686.554 2.89 -2.99085 0
M  V30 7590 H 685.131 3.50732 -1.26655 0
M  V30 7591 N 687.317 1.12792 1.10072 0
M  V30 7592 C 688.565 0.883796 1.81751 0
M  V30 7593 C 688.886 -0.591891 1.858 0
M  V30 7594 O 688.156 -1.43017 1.33876 0
M  V30 7595 H 686.736 0.323978 0.673088 0
M  V30 7596 H 689.398 1.42314 1.33164 0
M  V30 7597 H 688.494 1.26863 2.85153 0
M  V30 7598 N 688.795 -1.27931 0.920396 0
M  V30 7599 C 690.043 -1.94304 0.555906 0
M  V30 7600 C 690.364 -1.72753 -0.904519 0
M  V30 7601 O 689.634 -1.07104 -1.64029 0
M  V30 7602 H 688.214 -0.719001 0.202599 0
M  V30 7603 H 690.876 -1.55785 1.1712 0
M  V30 7604 H 689.972 -3.02806 0.755981 0
M  V30 7605 N 690.273 -0.685099 -1.4193 0
M  V30 7606 C 691.521 -0.21124 -2.00993 0
M  V30 7607 C 691.842 1.18985 -1.54491 0
M  V30 7608 O 691.112 1.8009 -0.771 0
M  V30 7609 H 689.692 -0.0751059 -0.743215 0
M  V30 7610 H 692.354 -0.883915 -1.73704 0
M  V30 7611 H 691.45 -0.220513 -3.1132 0
M  V30 7612 N 691.751 1.51645 -0.429126 0
M  V30 7613 C 692.698 2.27542 0.386446 0
M  V30 7614 C 693.668 1.30786 1.02393 0
M  V30 7615 O 694.853 1.59678 1.0444 0
M  V30 7616 C 691.993 3.11457 1.48623 0
M  V30 7617 C 691.106 4.23196 0.867691 0
M  V30 7618 C 690.241 4.94435 1.94183 0
M  V30 7619 C 689.28 5.98108 1.30129 0
M  V30 7620 N 688.417 6.62786 2.31644 0
M  V30 7621 H 693.257 2.968 -0.267155 0
M  V30 7622 H 690.794 1.46397 -0.143591 0
M  V30 7623 H 692.752 3.58429 2.13506 0
M  V30 7624 H 691.382 2.44329 2.10957 0
M  V30 7625 H 690.434 3.80248 0.107373 0
M  V30 7626 H 691.746 4.97499 0.35997 0
M  V30 7627 H 690.9 5.44914 2.66747 0
M  V30 7628 H 689.639 4.19744 2.48326 0
M  V30 7629 H 688.644 5.4693 0.561082 0
M  V30 7630 H 689.869 6.74751 0.767303 0
M  V30 7631 H 687.815 5.90913 2.84883 0
M  V30 7632 H 687.732 7.32828 1.85741 0
M  V30 7633 H 689 7.17897 3.03717 0
M  V30 7634 N 693.229 0.160201 1.56784 0
M  V30 7635 C 694.159 -0.770264 2.2043 0
M  V30 7636 C 695.14 -1.24736 1.15651 0
M  V30 7637 O 696.325 -1.30253 1.44041 0
M  V30 7638 C 693.455 -2.00427 2.83631 0
M  V30 7639 C 692.409 -1.66345 3.94352 0
M  V30 7640 C 691.735 -2.97119 4.4455 0
M  V30 7641 C 693.035 -0.899972 5.14488 0
M  V30 7642 H 694.729 -0.239783 2.98438 0
M  V30 7643 H 692.275 -0.113891 1.43549 0
M  V30 7644 H 694.228 -2.66012 3.26827 0
M  V30 7645 H 692.952 -2.5587 2.02973 0
M  V30 7646 H 691.611 -1.03133 3.51794 0
M  V30 7647 H 691.259 -3.5058 3.60698 0
M  V30 7648 H 690.959 -2.75073 5.19238 0
M  V30 7649 H 692.483 -3.63753 4.90425 0
M  V30 7650 H 693.897 -1.45818 5.54446 0
M  V30 7651 H 692.294 -0.778968 5.95023 0
M  V30 7652 H 693.364 0.105827 4.84785 0
M  V30 7653 N 694.707 -1.5719 -0.113559 0
M  V30 7654 C 695.932 -1.89702 -0.838336 0
M  V30 7655 C 696.357 -0.752679 -1.72384 0
M  V30 7656 O 695.715 0.296575 -1.78858 0
M  V30 7657 C 695.763 -3.20989 -1.64312 0
M  V30 7658 O 694.867 -3.07278 -2.75053 0
M  V30 7659 H 694.208 -0.622339 -0.231496 0
M  V30 7660 H 696.738 -2.04382 -0.0943228 0
M  V30 7661 H 696.748 -3.53843 -2.03123 0
M  V30 7662 H 695.423 -4.03869 -0.993119 0
M  V30 7663 H 694 -2.85901 -2.39406 0
M  V30 7664 N 696.185 0.383891 -1.52853 0
M  V30 7665 C 697.596 0.961591 -1.60032 0
M  V30 7666 C 697.947 1.90819 -0.456333 0
M  V30 7667 O 697.072 2.12288 0.419873 0
M  V30 7668 C 697.667 1.75078 -2.90057 0
M  V30 7669 C 696.226 2.2781 -2.99632 0
M  V30 7670 C 695.373 1.08512 -2.55187 0
M  V30 7671 H 698.324 0.163269 -1.57858 0
M  V30 7672 H 698.345 2.61046 -2.7683 0
M  V30 7673 H 697.857 1.06157 -3.73299 0
M  V30 7674 H 695.958 3.00028 -2.20939 0
M  V30 7675 H 696.071 2.56947 -4.0437 0
M  V30 7676 H 694.435 1.44667 -2.09627 0
M  V30 7677 H 695.218 0.41118 -3.40829 0
M  V30 7678 N 697.663 1.43903 0.642637 0
M  V30 7679 C 698.94 1.36556 1.40043 0
M  V30 7680 C 699.32 0.0185588 2.11092 0
M  V30 7681 O 698.668 -0.998438 2.05532 0
M  V30 7682 C 698.878 2.55596 2.37638 0
M  V30 7683 C 700.226 2.99153 3.01318 0
M  V30 7684 O 701.25 2.55719 2.47965 0
M  V30 7685 O 700.109 3.74427 3.98078 0
M  V30 7686 H 697.203 0.540189 0.626198 0
M  V30 7687 H 699.749 1.55971 0.668657 0
M  V30 7688 H 698.521 3.45256 1.84158 0
M  V30 7689 H 698.144 2.38334 3.18249 0
M  V30 7690 N 699.141 -0.881989 1.30609 0
M  V30 7691 C 700.39 -1.62878 1.18969 0
M  V30 7692 C 700.703 -1.93946 -0.253859 0
M  V30 7693 O 701.909 -2.67008 -0.491813 0
M  V30 7694 C 700.365 -2.93573 2.0819 0
M  V30 7695 C 699.973 -2.70034 3.57471 0
M  V30 7696 C 701.717 -3.71543 2.0532 0
M  V30 7697 C 699.624 -3.96563 4.38739 0
M  V30 7698 H 698.554 -0.611092 0.441682 0
M  V30 7699 H 701.205 -0.976201 1.55379 0
M  V30 7700 H 699.587 -3.6014 1.64666 0
M  V30 7701 H 700.761 -2.11949 4.09163 0
M  V30 7702 H 699.076 -2.05435 3.62195 0
M  V30 7703 H 701.673 -4.65386 2.63288 0
M  V30 7704 H 702.016 -4.03167 1.03739 0
M  V30 7705 H 702.549 -3.11842 2.46981 0
M  V30 7706 H 699.288 -3.70095 5.41027 0
M  V30 7707 H 698.808 -4.54142 3.9181 0
M  V30 7708 H 700.487 -4.64557 4.50329 0
M  V30 7709 N 700.619 -1.13374 -1.09472 0
M  V30 7710 C 701.582 -0.813639 -2.14272 0
M  V30 7711 C 702.582 0.176677 -1.59826 0
M  V30 7712 O 703.772 -0.0503441 -1.74127 0
M  V30 7713 C 700.904 -0.210897 -3.40247 0
M  V30 7714 H 702.097 -1.74229 -2.44099 0
M  V30 7715 H 699.65 -0.938304 -1.25002 0
M  V30 7716 H 700.385 0.726998 -3.16046 0
M  V30 7717 H 700.17 -0.924048 -3.81056 0
M  V30 7718 H 701.66 -0.00377603 -4.176 0
M  V30 7719 N 702.098 1.27442 -0.927168 0
M  V30 7720 C 703.008 2.30599 -0.431448 0
M  V30 7721 C 704.024 1.67028 0.48761 0
M  V30 7722 O 705.2 1.97962 0.370546 0
M  V30 7723 C 702.265 3.45327 0.308292 0
M  V30 7724 C 701.326 4.24418 -0.645615 0
M  V30 7725 C 700.559 5.33667 0.0589164 0
M  V30 7726 O 700.782 5.5589 1.27838 0
M  V30 7727 O 699.716 5.98774 -0.612638 0
M  V30 7728 H 703.542 2.75036 -1.28797 0
M  V30 7729 H 701.127 1.32382 -0.692495 0
M  V30 7730 H 703.009 4.15107 0.725555 0
M  V30 7731 H 701.684 3.02945 1.14043 0
M  V30 7732 H 700.591 3.57174 -1.11255 0
M  V30 7733 H 701.924 4.70512 -1.44496 0
M  V30 7734 N 703.576 0.692616 1.41565 0
M  V30 7735 C 704.486 0.0258451 2.34586 0
M  V30 7736 C 705.502 -0.769324 1.56069 0
M  V30 7737 O 706.678 -0.707563 1.88562 0
M  V30 7738 C 703.743 -0.901289 3.3478 0
M  V30 7739 C 702.804 -0.0986579 4.29187 0
M  V30 7740 C 702.037 -0.981634 5.24595 0
M  V30 7741 O 702.26 -2.22115 5.25377 0
M  V30 7742 O 701.194 -0.432892 6.00341 0
M  V30 7743 H 705.02 0.792537 2.93177 0
M  V30 7744 H 702.605 0.452935 1.42369 0
M  V30 7745 H 704.487 -1.43302 3.96286 0
M  V30 7746 H 703.162 -1.64752 2.78637 0
M  V30 7747 H 702.069 0.477604 3.71039 0
M  V30 7748 H 703.402 0.608848 4.8842 0
M  V30 7749 N 705.054 -1.51416 0.437162 0
M  V30 7750 C 706.301 -2.02086 -0.129364 0
M  V30 7751 C 706.629 -1.32133 -1.42728 0
M  V30 7752 O 705.884 -0.424916 -1.91031 0
M  V30 7753 C 706.183 -3.55203 -0.39564 0
M  V30 7754 C 705.849 -4.43447 0.81644 0
M  V30 7755 C 704.511 -4.67285 1.14884 0
M  V30 7756 C 706.863 -4.95219 1.62503 0
M  V30 7757 C 704.191 -5.40141 2.29052 0
M  V30 7758 C 706.543 -5.69327 2.7577 0
M  V30 7759 C 705.207 -5.91429 3.09464 0
M  V30 7760 H 704.477 -0.739486 -0.0473375 0
M  V30 7761 H 707.124 -1.82368 0.584321 0
M  V30 7762 H 705.429 -3.73252 -1.19121 0
M  V30 7763 H 707.126 -3.91944 -0.847399 0
M  V30 7764 H 703.716 -4.2509 0.547422 0
M  V30 7765 H 707.9 -4.76686 1.38144 0
M  V30 7766 H 703.156 -5.55468 2.55471 0
M  V30 7767 H 707.33 -6.08433 3.38795 0
M  V30 7768 H 704.957 -6.47662 3.98042 0
M  V30 7769 N 706.532 -0.168513 -1.56696 0
M  V30 7770 C 707.772 0.479648 -1.98693 0
M  V30 7771 C 708.136 1.60609 -1.05209 0
M  V30 7772 O 709.337 2.3166 -1.36334 0
M  V30 7773 C 707.608 0.952852 -3.44464 0
M  V30 7774 S 709.167 1.60259 -4.08488 0
M  V30 7775 H 705.985 0.154377 -0.694038 0
M  V30 7776 H 708.587 -0.265312 -1.93691 0
M  V30 7777 H 707.291 0.12257 -4.10217 0
M  V30 7778 H 706.822 1.73192 -3.53225 0
M  V30 7779 H 708.837 2.89065 -4.03307 0
M  V30 7780 N 708.01 1.57248 0.105221 0
M  V30 7781 C 709.24 1.89492 0.823175 0
M  V30 7782 C 709.648 0.75934 1.73294 0
M  V30 7783 O 708.991 -0.278182 1.81581 0
M  V30 7784 C 709.053 3.16891 1.69765 0
M  V30 7785 C 708.717 4.46787 0.960769 0
M  V30 7786 C 709.714 5.19061 0.295218 0
M  V30 7787 C 707.399 4.93467 0.937854 0
M  V30 7788 C 709.393 6.36246 -0.383393 0
M  V30 7789 C 707.08 6.10566 0.255452 0
M  V30 7790 C 708.078 6.81804 -0.404003 0
M  V30 7791 O 707.766 7.96673 -1.07549 0
M  V30 7792 H 707.498 0.631512 0.24118 0
M  V30 7793 H 710.052 2.05203 0.0899655 0
M  V30 7794 H 708.282 2.973 2.47285 0
M  V30 7795 H 709.971 3.35046 2.29126 0
M  V30 7796 H 710.737 4.84044 0.304448 0
M  V30 7797 H 706.616 4.37913 1.44058 0
M  V30 7798 H 710.16 6.91787 -0.898696 0
M  V30 7799 H 706.057 6.45039 0.244032 0
M  V30 7800 H 706.825 8.12596 -0.981355 0
M  V30 7801 N 709.488 -0.375779 1.53054 0
M  V30 7802 C 710.418 -1.46598 1.81745 0
M  V30 7803 C 711.399 -1.56337 0.670286 0
M  V30 7804 O 712.584 -1.71071 0.919158 0
M  V30 7805 C 709.714 -2.84058 1.99821 0
M  V30 7806 C 708.668 -2.8915 3.15557 0
M  V30 7807 C 707.994 -4.29187 3.18908 0
M  V30 7808 C 709.294 -2.57595 4.54359 0
M  V30 7809 H 710.988 -1.22837 2.73041 0
M  V30 7810 H 708.534 -0.589485 1.31381 0
M  V30 7811 H 710.487 -3.60342 2.18475 0
M  V30 7812 H 709.211 -3.09184 1.05226 0
M  V30 7813 H 707.87 -2.15316 2.96706 0
M  V30 7814 H 707.518 -4.51374 2.2197 0
M  V30 7815 H 707.218 -4.33512 3.96662 0
M  V30 7816 H 708.742 -5.07359 3.39734 0
M  V30 7817 H 710.156 -3.23595 4.73243 0
M  V30 7818 H 708.553 -2.73252 5.34279 0
M  V30 7819 H 709.623 -1.52882 4.60169 0
M  V30 7820 N 710.966 -1.44241 -0.634997 0
M  V30 7821 C 711.896 -1.53632 -1.7584 0
M  V30 7822 C 712.877 -0.389603 -1.65578 0
M  V30 7823 O 714.062 -0.609219 -1.84397 0
M  V30 7824 C 711.192 -1.47644 -3.14354 0
M  V30 7825 C 710.146 -2.60752 -3.394 0
M  V30 7826 C 709.472 -2.39817 -4.77904 0
M  V30 7827 C 710.772 -4.02921 -3.32343 0
M  V30 7828 H 712.466 -2.47662 -1.68238 0
M  V30 7829 H 710.012 -1.19197 -0.807969 0
M  V30 7830 H 711.965 -1.52815 -3.92716 0
M  V30 7831 H 710.689 -0.501284 -3.2273 0
M  V30 7832 H 709.348 -2.54965 -2.63417 0
M  V30 7833 H 708.996 -1.40502 -4.82978 0
M  V30 7834 H 708.696 -3.15649 -4.9562 0
M  V30 7835 H 710.22 -2.46799 -5.585 0
M  V30 7836 H 711.634 -4.10098 -4.00615 0
M  V30 7837 H 710.031 -4.78925 -3.61595 0
M  V30 7838 H 711.101 -4.26766 -2.30215 0
M  V30 7839 N 712.444 0.87505 -1.31075 0
M  V30 7840 C 713.392 2.00317 -1.18219 0
M  V30 7841 C 714.386 1.69152 -0.0916872 0
M  V30 7842 O 715.592 1.7821 -0.253229 0
M  V30 7843 H 711.967 0.656981 -0.365895 0
M  V30 7844 H 713.938 2.08293 -2.13674 0
M  V30 7845 C 712.687 3.35821 -0.901095 0
M  V30 7846 H 712.01 3.6032 -1.73233 0
M  V30 7847 H 713.45 4.15366 -0.851295 0
M  V30 7848 C 711.909 3.34563 0.396114 0
M  V30 7849 O 712.439 3.75971 1.41452 0
M  V30 7850 N 710.645 2.87681 0.410832 0
M  V30 7851 H 710.192 2.54179 -0.418415 0
M  V30 7852 H 710.15 2.87223 1.27869 0
M  V30 7853 N 713.922 1.13953 1.08869 0
M  V30 7854 C 715.171 0.899431 1.80536 0
M  V30 7855 C 715.484 -0.575781 1.86933 0
M  V30 7856 O 716.69 -0.932988 2.54966 0
M  V30 7857 C 715.146 1.55963 3.24351 0
M  V30 7858 C 714.754 3.07077 3.26202 0
M  V30 7859 C 716.498 1.40046 4.00733 0
M  V30 7860 C 714.405 3.65955 4.64576 0
M  V30 7861 H 713.335 0.332849 0.676556 0
M  V30 7862 H 715.986 1.3679 1.22314 0
M  V30 7863 H 714.368 1.01883 3.82669 0
M  V30 7864 H 715.542 3.67785 2.77617 0
M  V30 7865 H 713.857 3.22576 2.63312 0
M  V30 7866 H 716.454 1.81441 5.02974 0
M  V30 7867 H 716.797 0.345993 4.1486 0
M  V30 7868 H 717.33 1.91137 3.48872 0
M  V30 7869 H 714.069 4.71234 4.55652 0
M  V30 7870 H 713.589 3.10027 5.13462 0
M  V30 7871 H 715.268 3.65968 5.33551 0
M  V30 7872 N 715.4 -1.26948 0.933913 0
M  V30 7873 C 716.347 -2.26635 0.436484 0
M  V30 7874 C 717.317 -1.58397 -0.499953 0
M  V30 7875 O 718.502 -1.86171 -0.417753 0
M  V30 7876 C 715.642 -3.43803 -0.298951 0
M  V30 7877 C 714.755 -4.26736 0.672316 0
M  V30 7878 C 713.89 -5.31134 -0.0835872 0
M  V30 7879 C 712.929 -6.05742 0.879979 0
M  V30 7880 N 712.066 -7.01926 0.156301 0
M  V30 7881 H 716.906 -2.68558 1.29154 0
M  V30 7882 H 714.443 -1.32052 0.648118 0
M  V30 7883 H 716.401 -4.10554 -0.741723 0
M  V30 7884 H 715.031 -3.02814 -1.1182 0
M  V30 7885 H 714.083 -3.59842 1.23361 0
M  V30 7886 H 715.395 -4.78502 1.40846 0
M  V30 7887 H 714.549 -6.03863 -0.585984 0
M  V30 7888 H 713.288 -4.80188 -0.852661 0
M  V30 7889 H 712.293 -5.31846 1.39357 0
M  V30 7890 H 713.518 -6.58777 1.64894 0
M  V30 7891 H 711.464 -6.53301 -0.594413 0
M  V30 7892 H 711.381 -7.51409 0.831906 0
M  V30 7893 H 712.649 -7.78821 -0.325239 0
M  V30 7894 N 716.879 -0.700114 -1.41195 0
M  V30 7895 C 718.109 -0.241828 -2.0518 0
M  V30 7896 C 718.517 1.1157 -1.52803 0
M  V30 7897 O 717.86 1.70926 -0.673042 0
M  V30 7898 C 717.922 -0.12695 -3.59276 0
M  V30 7899 C 717.586 -1.41725 -4.34469 0
M  V30 7900 C 718.583 -2.35604 -4.63451 0
M  V30 7901 C 716.268 -1.67189 -4.73659 0
M  V30 7902 C 718.262 -3.53204 -5.3059 0
M  V30 7903 C 715.949 -2.85073 -5.40534 0
M  V30 7904 C 716.947 -3.77904 -5.68927 0
M  V30 7905 O 716.635 -4.93723 -6.34424 0
M  V30 7906 H 716.367 -0.109247 -0.667114 0
M  V30 7907 H 718.921 -0.954538 -1.81873 0
M  V30 7908 H 717.151 0.641571 -3.81341 0
M  V30 7909 H 718.84 0.294748 -4.04828 0
M  V30 7910 H 719.606 -2.1719 -4.33651 0
M  V30 7911 H 715.485 -0.957935 -4.50937 0
M  V30 7912 H 719.029 -4.25679 -5.52669 0
M  V30 7913 H 714.926 -3.03402 -5.69752 0
M  V30 7914 H 715.694 -4.93597 -6.5292 0
M  V30 7915 N 718.357 1.51182 -0.445186 0
M  V30 7916 C 719.597 2.04061 0.117717 0
M  V30 7917 C 719.961 1.32158 1.39278 0
M  V30 7918 O 721.162 1.75452 2.03642 0
M  V30 7919 C 719.433 3.55933 0.323445 0
M  V30 7920 S 720.992 4.30516 0.848627 0
M  V30 7921 H 717.81 0.710442 0.028165 0
M  V30 7922 H 720.412 1.85858 -0.606391 0
M  V30 7923 H 719.116 4.0583 -0.610764 0
M  V30 7924 H 718.647 3.78444 1.07441 0
M  V30 7925 H 720.662 4.48382 2.12528 0
M  V30 7926 N 719.835 0.176821 1.56605 0
M  V30 7927 C 720.767 -0.782836 2.15417 0
M  V30 7928 C 721.78 -1.18982 1.11117 0
M  V30 7929 O 722.969 -1.12872 1.38283 0
M  V30 7930 C 720.069 -2.06596 2.68647 0
M  V30 7931 C 719.242 -1.82167 3.9766 0
M  V30 7932 C 718.301 -2.94751 4.35899 0
M  V30 7933 O 717.327 -2.65148 5.03672 0
M  V30 7934 N 718.529 -4.2267 3.97907 0
M  V30 7935 H 721.294 -0.280012 2.98389 0
M  V30 7936 H 718.855 -0.00577529 1.61899 0
M  V30 7937 H 720.847 -2.81018 2.91223 0
M  V30 7938 H 719.417 -2.48054 1.90232 0
M  V30 7939 H 718.637 -0.916208 3.83405 0
M  V30 7940 H 719.925 -1.6322 4.81909 0
M  V30 7941 H 719.323 -4.4958 3.43357 0
M  V30 7942 H 717.88 -4.93778 4.25472 0
M  V30 7943 N 721.313 -1.57302 -0.09688 0
M  V30 7944 C 722.561 -1.8563 -0.799117 0
M  V30 7945 C 722.882 -0.765263 -1.79356 0
M  V30 7946 O 722.152 0.208657 -1.94786 0
M  V30 7947 H 720.732 -0.684937 -0.298111 0
M  V30 7948 H 723.394 -1.9474 -0.0789341 0
M  V30 7949 H 722.49 -2.82305 -1.3308 0
M  V30 7950 N 722.791 0.367657 -1.53252 0
M  V30 7951 C 724.021 1.12955 -1.72988 0
M  V30 7952 C 724.429 1.8358 -0.457708 0
M  V30 7953 O 723.772 1.74336 0.579006 0
M  V30 7954 C 723.834 2.20545 -2.83902 0
M  V30 7955 C 723.498 1.69704 -4.24323 0
M  V30 7956 C 724.495 1.16223 -5.06743 0
M  V30 7957 C 722.18 1.7528 -4.70725 0
M  V30 7958 C 724.174 0.689935 -6.33655 0
M  V30 7959 C 721.861 1.27662 -5.97617 0
M  V30 7960 C 722.859 0.746083 -6.78913 0
M  V30 7961 O 722.547 0.276925 -8.03423 0
M  V30 7962 H 722.279 0.343753 -0.582074 0
M  V30 7963 H 724.833 0.433106 -2.00782 0
M  V30 7964 H 723.063 2.93676 -2.51577 0
M  V30 7965 H 724.752 2.82111 -2.91836 0
M  V30 7966 H 725.518 1.11256 -4.72067 0
M  V30 7967 H 721.397 2.15515 -4.07522 0
M  V30 7968 H 724.941 0.275164 -6.97057 0
M  V30 7969 H 720.838 1.32322 -6.31792 0
M  V30 7970 H 721.606 0.396445 -8.17539 0
M  V30 7971 N 724.269 1.44576 0.627338 0
M  V30 7972 C 725.517 1.47267 1.38408 0
M  V30 7973 C 725.838 0.107971 1.94701 0
M  V30 7974 O 725.108 -0.860206 1.76004 0
M  V30 7975 H 723.688 0.542276 0.513756 0
M  V30 7976 H 726.35 1.80383 0.738099 0
M  V30 7977 H 725.446 2.20025 2.21349 0
M  V30 7978 N 725.747 -0.868086 1.31537 0
M  V30 7979 C 726.677 -1.99131 1.21939 0
M  V30 7980 C 727.658 -1.69768 0.106166 0
M  V30 7981 O 728.843 -1.92006 0.291081 0
M  V30 7982 C 725.973 -3.34676 0.927879 0
M  V30 7983 C 724.927 -3.7835 2.00088 0
M  V30 7984 C 724.253 -5.11375 1.56203 0
M  V30 7985 C 725.553 -3.95256 3.41424 0
M  V30 7986 H 727.247 -2.07419 2.15911 0
M  V30 7987 H 724.793 -0.996569 1.03945 0
M  V30 7988 H 726.746 -4.12793 0.847327 0
M  V30 7989 H 725.47 -3.26565 -0.0475042 0
M  V30 7990 H 724.129 -3.02474 2.07135 0
M  V30 7991 H 723.777 -4.99709 0.57445 0
M  V30 7992 H 723.477 -5.41568 2.27985 0
M  V30 7993 H 725.001 -5.92001 1.49558 0
M  V30 7994 H 726.415 -4.63764 3.3704 0
M  V30 7995 H 724.812 -4.36849 4.1144 0
M  V30 7996 H 725.882 -2.98579 3.82072 0
M  V30 7997 N 727.225 -1.14528 -1.08264 0
M  V30 7998 C 728.453 -0.937964 -1.84418 0
M  V30 7999 C 728.868 0.51357 -1.81681 0
M  V30 8000 O 728.225 1.35591 -1.22153 0
M  V30 8001 C 728.276 -1.43272 -3.31897 0
M  V30 8002 O 727.997 -2.82738 -3.34651 0
M  V30 8003 C 729.498 -1.26555 -4.24851 0
M  V30 8004 H 726.718 -0.333704 -0.582136 0
M  V30 8005 H 729.262 -1.52076 -1.36723 0
M  V30 8006 H 727.417 -0.892653 -3.76975 0
M  V30 8007 H 727.831 -3.04971 -4.26724 0
M  V30 8008 H 729.305 -1.66031 -5.26439 0
M  V30 8009 H 729.782 -0.208589 -4.38704 0
M  V30 8010 H 730.388 -1.79423 -3.856 0
M  V30 8011 N 728.703 1.26451 -0.940633 0
M  V30 8012 C 729.613 2.30128 -0.455881 0
M  V30 8013 C 730.629 1.67536 0.469867 0
M  V30 8014 O 731.805 1.98344 0.349529 0
M  V30 8015 C 728.87 3.45634 0.271648 0
M  V30 8016 C 727.931 4.23709 -0.690594 0
M  V30 8017 C 727.164 5.337 0.00231047 0
M  V30 8018 O 727.387 5.57215 1.21935 0
M  V30 8019 O 726.321 5.98091 -0.676111 0
M  V30 8020 H 730.147 2.73655 -1.31707 0
M  V30 8021 H 727.732 1.3164 -0.706497 0
M  V30 8022 H 729.614 4.15853 0.681486 0
M  V30 8023 H 728.289 3.04138 1.10824 0
M  V30 8024 H 727.196 3.55974 -1.15037 0
M  V30 8025 H 728.529 4.68953 -1.49478 0
M  V30 8026 N 730.181 0.707592 1.40822 0
M  V30 8027 C 731.409 0.253073 2.05346 0
M  V30 8028 C 731.824 -1.10218 1.53289 0
M  V30 8029 O 731.181 -1.69112 0.686105 0
M  V30 8030 C 731.232 0.215411 3.60858 0
M  V30 8031 O 730.953 1.51714 4.10992 0
M  V30 8032 C 732.454 -0.258636 4.42545 0
M  V30 8033 H 729.674 0.115256 0.661027 0
M  V30 8034 H 732.218 0.963555 1.80377 0
M  V30 8035 H 730.373 -0.445978 3.84824 0
M  V30 8036 H 730.787 1.41226 5.05129 0
M  V30 8037 H 732.261 -0.233849 5.51504 0
M  V30 8038 H 732.738 -1.2995 4.19535 0
M  V30 8039 H 733.344 0.372186 4.23668 0
M  V30 8040 N 731.66 -1.50943 0.453197 0
M  V30 8041 C 732.623 -2.26684 -0.338705 0
M  V30 8042 C 733.623 -1.30748 -0.936032 0
M  V30 8043 O 734.813 -1.54327 -0.808002 0
M  V30 8044 C 731.945 -3.07063 -1.48071 0
M  V30 8045 H 733.138 -2.98131 0.325289 0
M  V30 8046 H 730.691 -1.54926 0.206771 0
M  V30 8047 H 731.426 -2.4007 -2.18029 0
M  V30 8048 H 731.211 -3.77545 -1.0584 0
M  V30 8049 H 732.701 -3.64393 -2.0398 0
M  V30 8050 N 733.138 -0.185124 -1.56509 0
M  V30 8051 C 734.386 0.455357 -1.96903 0
M  V30 8052 C 734.707 1.62839 -1.07277 0
M  V30 8053 O 733.977 1.95385 -0.141966 0
M  V30 8054 H 732.557 0.171218 -0.727113 0
M  V30 8055 H 735.219 -0.26953 -1.93027 0
M  V30 8056 H 734.315 0.80616 -3.01509 0
M  V30 8057 N 734.616 1.57351 0.0885366 0
M  V30 8058 C 735.579 2.01557 1.09121 0
M  V30 8059 C 736.579 0.910052 1.3257 0
M  V30 8060 O 737.769 1.17537 1.28572 0
M  V30 8061 C 734.901 2.38189 2.43883 0
M  V30 8062 H 736.094 2.91361 0.710562 0
M  V30 8063 H 733.647 1.52694 0.333779 0
M  V30 8064 H 734.382 1.5136 2.86811 0
M  V30 8065 H 734.167 3.18846 2.28209 0
M  V30 8066 H 735.657 2.73025 3.15986 0
M  V30 8067 N 736.094 -0.359525 1.53444 0
M  V30 8068 C 737.343 -1.09886 1.69139 0
M  V30 8069 C 737.656 -1.90285 0.452863 0
M  V30 8070 O 738.862 -2.67033 0.490459 0
M  V30 8071 C 737.318 -2.0028 2.99025 0
M  V30 8072 C 736.926 -1.25164 4.30161 0
M  V30 8073 C 738.67 -2.74168 3.24086 0
M  V30 8074 C 736.577 -2.14494 5.51132 0
M  V30 8075 H 735.507 -0.413936 0.630217 0
M  V30 8076 H 738.158 -0.359434 1.79945 0
M  V30 8077 H 736.54 -2.77978 2.82036 0
M  V30 8078 H 737.714 -0.524867 4.57801 0
M  V30 8079 H 736.029 -0.631116 4.11589 0
M  V30 8080 H 738.626 -3.41243 4.11652 0
M  V30 8081 H 738.969 -3.39868 2.40407 0
M  V30 8082 H 739.502 -2.0355 3.41778 0
M  V30 8083 H 736.241 -1.53362 6.37307 0
M  V30 8084 H 735.761 -2.85004 5.27762 0
M  V30 8085 H 737.44 -2.73914 5.86157 0
M  V30 8086 N 737.572 -1.44907 -0.619662 0
M  V30 8087 C 738.502 -1.55488 -1.742 0
M  V30 8088 C 739.483 -0.407143 -1.65156 0
M  V30 8089 O 740.668 -0.628743 -1.8374 0
M  V30 8090 C 737.798 -1.5097 -3.1277 0
M  V30 8091 C 736.752 -2.64337 -3.36615 0
M  V30 8092 C 736.078 -2.44872 -4.75333 0
M  V30 8093 C 737.378 -4.06423 -3.28051 0
M  V30 8094 H 739.072 -2.49432 -1.65602 0
M  V30 8095 H 736.618 -1.20047 -0.795281 0
M  V30 8096 H 738.571 -1.56971 -3.91073 0
M  V30 8097 H 737.295 -0.535486 -3.2218 0
M  V30 8098 H 735.954 -2.57744 -2.60698 0
M  V30 8099 H 735.602 -1.45617 -4.81461 0
M  V30 8100 H 735.302 -3.20888 -4.92244 0
M  V30 8101 H 736.826 -2.52709 -5.55851 0
M  V30 8102 H 738.24 -4.14324 -3.96243 0
M  V30 8103 H 736.637 -4.82733 -3.56495 0
M  V30 8104 H 737.707 -4.29183 -2.25676 0
M  V30 8105 N 739.05 0.861098 -1.31996 0
M  V30 8106 C 740.298 1.61162 -1.21947 0
M  V30 8107 C 740.619 1.93751 0.220351 0
M  V30 8108 O 739.889 1.59069 1.14341 0
M  V30 8109 H 738.469 0.597485 -0.448353 0
M  V30 8110 H 741.131 1.03039 -1.65436 0
M  V30 8111 H 740.227 2.55138 -1.79752 0
M  V30 8112 N 740.528 1.15101 1.07655 0
M  V30 8113 C 741.476 0.840714 2.16875 0
M  V30 8114 C 742.47 -0.184594 1.68391 0
M  V30 8115 O 743.676 -0.0399315 1.79956 0
M  V30 8116 H 740.051 0.254192 0.707736 0
M  V30 8117 H 742.022 1.76959 2.40266 0
M  V30 8118 C 740.771 0.343018 3.46004 0
M  V30 8119 H 740.094 1.12335 3.83694 0
M  V30 8120 H 741.534 0.16453 4.23681 0
M  V30 8121 C 739.993 -0.934881 3.23669 0
M  V30 8122 O 740.523 -2.00706 3.47965 0
M  V30 8123 N 738.729 -0.873167 2.77172 0
M  V30 8124 H 738.276 -0.000479072 2.576 0
M  V30 8125 H 738.234 -1.72873 2.62607 0
M  V30 8126 N 742.006 -1.2595 0.947325 0
M  V30 8127 C 742.956 -2.23859 0.432547 0
M  V30 8128 C 743.94 -1.53755 -0.474154 0
M  V30 8129 O 745.132 -1.74293 -0.308397 0
M  V30 8130 C 742.261 -3.42027 -0.295318 0
M  V30 8131 C 741.347 -4.19409 0.62903 0
M  V30 8132 N 741.738 -4.74284 1.7575 0
M  V30 8133 C 740.036 -4.43866 0.435805 0
M  V30 8134 C 740.737 -5.32821 2.33401 0
M  V30 8135 N 739.713 -5.18858 1.62135 0
M  V30 8136 H 743.515 -2.63886 1.29388 0
M  V30 8137 H 741.029 -1.41105 0.80393 0
M  V30 8138 H 743.026 -4.11297 -0.681188 0
M  V30 8139 H 741.686 -3.03526 -1.15334 0
M  V30 8140 H 742.697 -4.71641 2.13952 0
M  V30 8141 H 739.374 -4.15768 -0.37994 0
M  V30 8142 H 740.764 -5.86111 3.28517 0
M  V30 8143 N 743.484 -0.715051 -1.40445 0
M  V30 8144 C 744.447 -0.0708726 -2.2909 0
M  V30 8145 C 745.447 0.687926 -1.45342 0
M  V30 8146 O 746.637 0.519908 -1.66261 0
M  V30 8147 C 743.769 0.909528 -3.28543 0
M  V30 8148 H 744.962 -0.851611 -2.87555 0
M  V30 8149 H 742.515 -0.479674 -1.48758 0
M  V30 8150 H 743.25 1.71734 -2.75096 0
M  V30 8151 H 743.035 0.368318 -3.90366 0
M  V30 8152 H 744.525 1.35744 -3.94922 0
M  V30 8153 N 744.962 1.50701 -0.461195 0
M  V30 8154 C 746.239 1.94958 0.158296 0
M  V30 8155 C 746.619 1.40111 1.57899 0
M  V30 8156 O 745.967 0.597976 2.20537 0
M  V30 8157 C 746.177 3.48821 0.11172 0
M  V30 8158 C 747.525 4.23499 0.30552 0
M  V30 8159 O 748.549 3.557 0.188758 0
M  V30 8160 O 747.408 5.43823 0.540244 0
M  V30 8161 H 744.502 0.818674 0.117054 0
M  V30 8162 H 747.048 1.61508 -0.520888 0
M  V30 8163 H 745.82 3.81263 -0.880577 0
M  V30 8164 H 745.443 3.88781 0.832791 0
M  V30 8165 N 746.441 0.193421 1.56409 0
M  V30 8166 C 747.718 -0.493318 1.89277 0
M  V30 8167 C 748.098 -1.79765 1.10669 0
M  V30 8168 O 747.446 -2.27558 0.207274 0
M  V30 8169 C 747.656 -0.713732 3.41624 0
M  V30 8170 C 749.004 -1.03385 4.11821 0
M  V30 8171 O 750.028 -0.801511 3.47065 0
M  V30 8172 O 748.887 -1.47327 5.26267 0
M  V30 8173 H 745.981 -0.256973 0.786062 0
M  V30 8174 H 748.527 0.23351 1.68086 0
M  V30 8175 H 747.299 0.207446 3.9075 0
M  V30 8176 H 746.922 -1.49308 3.68501 0
M  V30 8177 N 747.919 -1.57396 -0.0801906 0
M  V30 8178 C 748.829 -2.06451 -1.11423 0
M  V30 8179 C 749.845 -0.992352 -1.42928 0
M  V30 8180 O 751.021 -1.30651 -1.53272 0
M  V30 8181 C 748.086 -2.49164 -2.41077 0
M  V30 8182 C 747.147 -3.70641 -2.16619 0
M  V30 8183 C 746.38 -4.11307 -3.40092 0
M  V30 8184 O 746.603 -3.51922 -4.48895 0
M  V30 8185 O 745.537 -5.04157 -3.288 0
M  V30 8186 H 749.363 -2.94857 -0.727519 0
M  V30 8187 H 746.948 -1.46484 -0.293743 0
M  V30 8188 H 748.83 -2.77196 -3.17396 0
M  V30 8189 H 747.505 -1.6389 -2.79145 0
M  V30 8190 H 746.412 -3.47703 -1.38033 0
M  V30 8191 H 747.745 -4.5674 -1.83437 0
M  V30 8192 N 749.397 0.351382 -1.53633 0
M  V30 8193 C 750.347 1.4316 -1.77452 0
M  V30 8194 C 751.331 1.48076 -0.62946 0
M  V30 8195 O 752.523 1.53078 -0.888599 0
M  V30 8196 C 749.652 2.80409 -1.98055 0
M  V30 8197 C 748.738 2.79915 -3.18604 0
M  V30 8198 N 749.129 2.49057 -4.40232 0
M  V30 8199 C 747.427 3.11067 -3.19614 0
M  V30 8200 C 748.128 2.566 -5.22045 0
M  V30 8201 N 747.104 2.919 -4.5858 0
M  V30 8202 H 750.906 1.18188 -2.69089 0
M  V30 8203 H 748.42 0.559684 -1.52451 0
M  V30 8204 H 750.417 3.58231 -2.13251 0
M  V30 8205 H 749.077 3.06334 -1.07655 0
M  V30 8206 H 750.088 2.22395 -4.67719 0
M  V30 8207 H 746.765 3.42215 -2.39154 0
M  V30 8208 H 748.155 2.35968 -6.29101 0
M  V30 8209 N 750.875 1.45233 0.611969 0
M  V30 8210 C 752.122 1.49021 1.37109 0
M  V30 8211 C 752.45 0.130227 1.94064 0
M  V30 8212 O 751.705 -0.870551 1.75271 0
M  V30 8213 C 752.004 2.51353 2.54079 0
M  V30 8214 C 751.67 3.96178 2.15299 0
M  V30 8215 C 750.332 4.35614 2.04436 0
M  V30 8216 C 752.684 4.87275 1.84966 0
M  V30 8217 C 750.012 5.64047 1.61456 0
M  V30 8218 C 752.364 6.16115 1.43474 0
M  V30 8219 C 751.028 6.54486 1.31167 0
M  V30 8220 H 750.298 0.545307 0.501719 0
M  V30 8221 H 752.945 1.78555 0.692122 0
M  V30 8222 H 751.25 2.15372 3.27295 0
M  V30 8223 H 752.947 2.51523 3.12309 0
M  V30 8224 H 749.537 3.6499 2.24678 0
M  V30 8225 H 753.721 4.57548 1.92258 0
M  V30 8226 H 748.977 5.92575 1.50547 0
M  V30 8227 H 753.151 6.86149 1.19048 0
M  V30 8228 H 750.778 7.53904 0.97637 0
M  V30 8229 N 752.353 -0.854086 1.3245 0
M  V30 8230 C 753.263 -1.99503 1.23434 0
M  V30 8231 C 754.279 -1.73371 0.147828 0
M  V30 8232 O 755.455 -1.97998 0.368609 0
M  V30 8233 C 752.52 -3.33192 0.958328 0
M  V30 8234 C 751.581 -3.72542 2.13333 0
M  V30 8235 C 750.814 -4.99852 1.8704 0
M  V30 8236 O 751.037 -5.64573 0.813239 0
M  V30 8237 O 749.971 -5.36345 2.73161 0
M  V30 8238 H 753.797 -2.10046 2.1935 0
M  V30 8239 H 751.382 -0.984823 1.12346 0
M  V30 8240 H 753.264 -4.13327 0.820918 0
M  V30 8241 H 751.939 -3.23687 0.0293299 0
M  V30 8242 H 750.846 -2.92981 2.32622 0
M  V30 8243 H 752.179 -3.86694 3.04514 0
M  V30 8244 N 753.831 -1.1567 -1.07043 0
M  V30 8245 C 755.061 -0.956083 -1.83146 0
M  V30 8246 C 755.469 0.498969 -1.82502 0
M  V30 8247 O 754.812 1.35791 -1.23719 0
M  V30 8248 C 754.874 -1.39704 -3.31245 0
M  V30 8249 C 754.538 -2.87045 -3.55604 0
M  V30 8250 C 755.535 -3.85092 -3.49285 0
M  V30 8251 C 753.22 -3.24787 -3.8317 0
M  V30 8252 C 755.214 -5.18885 -3.70185 0
M  V30 8253 C 752.901 -4.58751 -4.03721 0
M  V30 8254 C 753.899 -5.55609 -3.97224 0
M  V30 8255 O 753.587 -6.87154 -4.17223 0
M  V30 8256 H 753.319 -0.339473 -0.58458 0
M  V30 8257 H 755.873 -1.53922 -1.36005 0
M  V30 8258 H 754.103 -0.757326 -3.79212 0
M  V30 8259 H 755.792 -1.16503 -3.88821 0
M  V30 8260 H 756.558 -3.5728 -3.27988 0
M  V30 8261 H 752.437 -2.49979 -3.87339 0
M  V30 8262 H 755.981 -5.94473 -3.6503 0
M  V30 8263 H 751.878 -4.86277 -4.24505 0
M  V30 8264 H 752.646 -6.93618 -4.34553 0
M  V30 8265 N 755.309 1.25446 -0.953992 0
M  V30 8266 C 756.558 1.92441 -0.604101 0
M  V30 8267 C 756.871 1.75543 0.862796 0
M  V30 8268 O 758.077 2.37106 1.32262 0
M  V30 8269 C 756.533 3.44854 -1.02974 0
M  V30 8270 C 756.141 3.70464 -2.51914 0
M  V30 8271 C 757.885 4.1778 -0.752352 0
M  V30 8272 C 755.792 5.1638 -2.88281 0
M  V30 8273 H 754.722 0.720508 -0.222227 0
M  V30 8274 H 757.373 1.42318 -1.15836 0
M  V30 8275 H 755.755 3.93935 -0.403904 0
M  V30 8276 H 756.929 3.32038 -3.19511 0
M  V30 8277 H 755.244 3.10797 -2.77117 0
M  V30 8278 H 757.841 5.25261 -1.00024 0
M  V30 8279 H 758.184 4.15135 0.311212 0
M  V30 8280 H 758.717 3.74605 -1.33851 0
M  V30 8281 H 755.456 5.24135 -3.93653 0
M  V30 8282 H 754.976 5.55855 -2.25357 0
M  V30 8283 H 756.655 5.84497 -2.77439 0
M  V30 8284 N 756.787 0.722489 1.40064 0
M  V30 8285 C 758.035 0.264455 2.00362 0
M  V30 8286 C 758.356 -1.14847 1.57592 0
M  V30 8287 O 757.626 -1.77982 0.818477 0
M  V30 8288 H 756.206 0.0947846 0.740962 0
M  V30 8289 H 758.868 0.929659 1.71299 0
M  V30 8290 H 757.964 0.302977 3.10626 0
M  V30 8291 N 758.265 -1.50454 0.469181 0
M  V30 8292 C 759.513 -2.01916 -0.0862982 0
M  V30 8293 C 759.834 -1.35337 -1.40388 0
M  V30 8294 O 759.104 -0.498096 -1.89462 0
M  V30 8295 H 757.684 -0.746185 -0.0348825 0
M  V30 8296 H 760.346 -1.84804 0.619167 0
M  V30 8297 H 759.442 -3.11182 -0.239189 0
M  V30 8298 N 759.743 -0.201713 -1.56304 0
M  V30 8299 C 761.154 0.309711 -1.84113 0
M  V30 8300 C 761.505 1.60912 -1.12258 0
M  V30 8301 O 760.63 2.12937 -0.385587 0
M  V30 8302 C 761.225 0.568706 -3.33993 0
M  V30 8303 C 759.784 1.02448 -3.6219 0
M  V30 8304 C 758.931 0.0766842 -2.77194 0
M  V30 8305 H 761.882 -0.425356 -1.52893 0
M  V30 8306 H 761.903 1.41721 -3.53122 0
M  V30 8307 H 761.415 -0.37719 -3.86263 0
M  V30 8308 H 759.516 1.98443 -3.15359 0
M  V30 8309 H 759.629 0.912619 -4.70328 0
M  V30 8310 H 757.993 0.579809 -2.48013 0
M  V30 8311 H 758.776 -0.863774 -3.32256 0
M  V30 8312 N 761.222 1.57436 0.0718424 0
M  V30 8313 C 762.471 1.86431 0.769826 0
M  V30 8314 C 762.784 0.794355 1.78744 0
M  V30 8315 O 763.99 0.972148 2.53499 0
M  V30 8316 C 762.446 3.307 1.42006 0
M  V30 8317 C 762.054 4.45824 0.441017 0
M  V30 8318 C 763.798 3.68894 2.10041 0
M  V30 8319 C 761.705 5.81134 1.09717 0
M  V30 8320 H 760.635 0.695474 0.291259 0
M  V30 8321 H 763.286 1.83485 0.0231224 0
M  V30 8322 H 761.668 3.28257 2.21502 0
M  V30 8323 H 762.842 4.59659 -0.32413 0
M  V30 8324 H 761.157 4.16181 -0.134886 0
M  V30 8325 H 763.754 4.67281 2.59908 0
M  V30 8326 H 764.097 2.98692 2.89981 0
M  V30 8327 H 764.63 3.73326 1.37376 0
M  V30 8328 H 761.369 6.54628 0.338095 0
M  V30 8329 H 760.889 5.711 1.83317 0
M  V30 8330 H 762.568 6.26468 1.617 0
M  V30 8331 N 762.7 -0.34323 1.53817 0
M  V30 8332 C 763.663 -1.40444 1.8113 0
M  V30 8333 C 764.663 -1.45604 0.682366 0
M  V30 8334 O 765.853 -1.45974 0.950649 0
M  V30 8335 C 762.985 -2.79369 1.95361 0
M  V30 8336 H 764.178 -1.17489 2.75928 0
M  V30 8337 H 761.731 -0.577636 1.45234 0
M  V30 8338 H 762.466 -3.07607 1.02707 0
M  V30 8339 H 762.251 -2.7702 2.77493 0
M  V30 8340 H 763.741 -3.56178 2.18008 0
M  V30 8341 N 764.178 -1.45556 -0.604258 0
M  V30 8342 C 765.589 -1.44171 -1.18624 0
M  V30 8343 C 765.94 -0.171081 -1.95453 0
M  V30 8344 O 765.065 0.727156 -2.03817 0
M  V30 8345 C 765.66 -2.61193 -2.15786 0
M  V30 8346 C 764.219 -2.62918 -2.69353 0
M  V30 8347 C 763.366 -2.36479 -1.4482 0
M  V30 8348 H 766.317 -1.53747 -0.393381 0
M  V30 8349 H 766.338 -2.35481 -2.98879 0
M  V30 8350 H 765.85 -3.53656 -1.59841 0
M  V30 8351 H 763.951 -1.7447 -3.29228 0
M  V30 8352 H 764.064 -3.6224 -3.13559 0
M  V30 8353 H 762.428 -1.86103 -1.73891 0
M  V30 8354 H 763.211 -3.31091 -0.907376 0
M  V30 8355 N 765.656 0.84705 -1.32902 0
M  V30 8356 C 766.604 1.97765 -1.22441 0
M  V30 8357 C 767.598 1.68919 -0.127546 0
M  V30 8358 O 768.804 1.77633 -0.290973 0
M  V30 8359 H 765.179 0.649072 -0.379748 0
M  V30 8360 H 767.15 2.03713 -2.18044 0
M  V30 8361 C 765.899 3.33834 -0.972125 0
M  V30 8362 H 765.222 3.56564 -1.80837 0
M  V30 8363 H 766.662 4.13467 -0.939209 0
M  V30 8364 C 765.121 3.35328 0.325059 0
M  V30 8365 O 765.651 3.78887 1.33445 0
M  V30 8366 N 763.857 2.88488 0.349718 0
M  V30 8367 H 763.404 2.53234 -0.472236 0
M  V30 8368 H 763.362 2.8987 1.21748 0
M  V30 8369 N 767.134 1.16236 1.06428 0
M  V30 8370 C 768.362 0.967184 1.82902 0
M  V30 8371 C 768.777 -0.484601 1.82475 0
M  V30 8372 O 768.134 -1.33631 1.24294 0
M  V30 8373 C 768.185 1.48534 3.29576 0
M  V30 8374 O 767.906 2.88026 3.3011 0
M  V30 8375 C 769.407 1.33298 4.22784 0
M  V30 8376 H 766.627 0.342923 0.576754 0
M  V30 8377 H 769.171 1.54232 1.34286 0
M  V30 8378 H 767.326 0.952513 3.75508 0
M  V30 8379 H 767.74 3.11721 4.21818 0
M  V30 8380 H 769.214 1.74385 5.23731 0
M  V30 8381 H 769.691 0.278356 4.38317 0
M  V30 8382 H 770.297 1.85535 3.82697 0
M  V30 8383 N 768.612 -1.24939 0.960631 0
M  V30 8384 C 769.559 -2.25658 0.484459 0
M  V30 8385 C 770.529 -1.59422 -0.466242 0
M  V30 8386 O 771.714 -1.87015 -0.378169 0
M  V30 8387 C 768.854 -3.44359 -0.225958 0
M  V30 8388 C 767.967 -4.25214 0.762682 0
M  V30 8389 C 767.102 -5.31192 0.0290931 0
M  V30 8390 C 766.141 -6.03739 1.00827 0
M  V30 8391 N 765.278 -7.01437 0.305155 0
M  V30 8392 H 770.118 -2.65758 1.34821 0
M  V30 8393 H 767.655 -1.30648 0.675983 0
M  V30 8394 H 769.613 -4.12035 -0.654472 0
M  V30 8395 H 768.243 -3.05118 -1.05371 0
M  V30 8396 H 767.295 -3.57144 1.30966 0
M  V30 8397 H 768.607 -4.75406 1.50964 0
M  V30 8398 H 767.761 -6.04971 -0.457763 0
M  V30 8399 H 766.5 -4.81889 -0.750614 0
M  V30 8400 H 765.505 -5.2877 1.50607 0
M  V30 8401 H 766.73 -6.55131 1.7883 0
M  V30 8402 H 764.676 -6.54415 -0.455704 0
M  V30 8403 H 764.593 -7.49475 0.991104 0
M  V30 8404 H 765.861 -7.79336 -0.159966 0
M  V30 8405 N 770.09 -0.729906 -1.39679 0
M  V30 8406 C 771.32 -0.285295 -2.04621 0
M  V30 8407 C 771.728 1.08304 -1.55135 0
M  V30 8408 O 771.071 1.6946 -0.709146 0
M  V30 8409 C 771.133 -0.203129 -3.58926 0
M  V30 8410 C 770.797 -1.50909 -4.31365 0
M  V30 8411 C 771.794 -2.45381 -4.58349 0
M  V30 8412 C 769.479 -1.77198 -4.70007 0
M  V30 8413 C 771.473 -3.64379 -5.22979 0
M  V30 8414 C 769.16 -2.96474 -5.34365 0
M  V30 8415 C 770.158 -3.89886 -5.60783 0
M  V30 8416 O 769.846 -5.07069 -6.23808 0
M  V30 8417 H 769.578 -0.123373 -0.664647 0
M  V30 8418 H 772.132 -0.992901 -1.79807 0
M  V30 8419 H 770.362 0.560538 -3.82616 0
M  V30 8420 H 772.051 0.208811 -4.05363 0
M  V30 8421 H 772.817 -2.2634 -4.28947 0
M  V30 8422 H 768.696 -1.05337 -4.48804 0
M  V30 8423 H 772.24 -4.37307 -5.43515 0
M  V30 8424 H 768.137 -3.15419 -5.63188 0
M  V30 8425 H 768.905 -5.07335 -6.42303 0
M  V30 8426 N 771.568 1.50203 -0.477153 0
M  V30 8427 C 772.515 2.28656 0.31386 0
M  V30 8428 C 773.485 1.33977 0.981802 0
M  V30 8429 O 774.67 1.62919 0.993072 0
M  V30 8430 C 771.81 3.16027 1.38639 0
M  V30 8431 C 770.923 4.25743 0.732615 0
M  V30 8432 C 770.058 5.00363 1.78355 0
M  V30 8433 C 769.097 6.01945 1.11035 0
M  V30 8434 N 768.234 6.6982 2.10441 0
M  V30 8435 H 773.074 2.958 -0.361445 0
M  V30 8436 H 770.611 1.45867 -0.190093 0
M  V30 8437 H 772.569 3.6504 2.01994 0
M  V30 8438 H 771.199 2.50917 2.03077 0
M  V30 8439 H 770.251 3.80398 -0.0136546 0
M  V30 8440 H 771.563 4.98393 0.201513 0
M  V30 8441 H 770.717 5.53124 2.49276 0
M  V30 8442 H 769.456 4.27432 2.34847 0
M  V30 8443 H 768.461 5.48438 0.386797 0
M  V30 8444 H 769.686 6.76851 0.552248 0
M  V30 8445 H 767.632 5.99677 2.65939 0
M  V30 8446 H 767.549 7.38366 1.62332 0
M  V30 8447 H 768.817 7.27196 2.80724 0
M  V30 8448 N 773.046 0.209999 1.56195 0
M  V30 8449 C 774.292 -0.425442 1.98287 0
M  V30 8450 C 774.625 -1.60232 1.09724 0
M  V30 8451 O 773.9 -1.93902 0.152414 0
M  V30 8452 C 774.183 -0.871189 3.49403 0
M  V30 8453 C 774.036 0.308527 4.48741 0
M  V30 8454 C 775.355 -1.73146 4.04609 0
M  V30 8455 H 772.474 -0.153169 0.720908 0
M  V30 8456 H 775.116 0.303916 1.87554 0
M  V30 8457 H 773.266 -1.49266 3.58681 0
M  V30 8458 H 774.938 0.946487 4.51486 0
M  V30 8459 H 773.181 0.957878 4.23092 0
M  V30 8460 H 773.852 -0.0461143 5.51981 0
M  V30 8461 H 776.328 -1.2072 3.98203 0
M  V30 8462 H 775.204 -2.01228 5.10684 0
M  V30 8463 H 775.465 -2.69083 3.5078 0
M  V30 8464 N 774.524 -1.57472 -0.0634922 0
M  V30 8465 C 775.94 -1.54016 -0.418466 0
M  V30 8466 C 776.14 -0.931376 -1.78683 0
M  V30 8467 O 775.196 -0.537465 -2.46714 0
M  V30 8468 C 776.509 -2.98634 -0.351906 0
M  V30 8469 C 778.057 -3.10012 -0.431494 0
M  V30 8470 C 778.532 -4.56296 -0.394754 0
M  V30 8471 N 780.023 -4.60964 -0.454583 0
M  V30 8472 C 780.758 -5.71643 -0.448501 0
M  V30 8473 N 780.254 -6.91663 -0.396742 0
M  V30 8474 N 782.047 -5.5991 -0.495677 0
M  V30 8475 H 774.198 -1.95409 0.832408 0
M  V30 8476 H 776.461 -0.894769 0.313197 0
M  V30 8477 H 776.167 -3.46766 0.587048 0
M  V30 8478 H 776.041 -3.58955 -1.15893 0
M  V30 8479 H 778.428 -2.61848 -1.36087 0
M  V30 8480 H 778.509 -2.52585 0.404258 0
M  V30 8481 H 778.153 -5.05119 0.530811 0
M  V30 8482 H 778.083 -5.11594 -1.24815 0
M  V30 8483 H 780.574 -3.74598 -0.498496 0
M  V30 8484 H 780.887 -7.71783 -0.396256 0
M  V30 8485 H 779.232 -6.9405 -0.363304 0
M  V30 8486 H 782.423 -4.65046 -0.533864 0
M  V30 8487 H 782.596 -6.46164 -0.487469 0
M  V30 8488 N 776.003 0.335068 -1.53997 0
M  V30 8489 C 777.231 1.09418 -1.756 0
M  V30 8490 C 777.646 1.82083 -0.499138 0
M  V30 8491 O 777.003 1.74646 0.529631 0
M  V30 8492 C 777.054 2.10115 -2.94166 0
M  V30 8493 O 776.775 1.40404 -4.14992 0
M  V30 8494 C 778.276 2.98336 -3.27888 0
M  V30 8495 H 775.496 0.32595 -0.586513 0
M  V30 8496 H 778.04 0.384693 -2.00849 0
M  V30 8497 H 776.195 2.76616 -2.71224 0
M  V30 8498 H 776.609 2.07743 -4.81605 0
M  V30 8499 H 778.083 3.6491 -4.1418 0
M  V30 8500 H 778.56 3.64814 -2.44556 0
M  V30 8501 H 779.166 2.37412 -3.52868 0
M  V30 8502 N 777.481 1.45874 0.596531 0
M  V30 8503 C 778.727 1.51679 1.35518 0
M  V30 8504 C 779.082 0.160681 1.91728 0
M  V30 8505 O 778.375 -0.828886 1.72743 0
M  V30 8506 C 778.569 2.54034 2.51399 0
M  V30 8507 C 778.398 3.99465 2.06538 0
M  V30 8508 C 777.168 4.67321 1.92196 0
M  V30 8509 C 779.366 4.87674 1.63336 0
M  V30 8510 N 777.348 5.97427 1.41261 0
M  V30 8511 C 778.719 6.07495 1.23895 0
M  V30 8512 C 780.774 4.74442 1.51028 0
M  V30 8513 C 779.477 7.15548 0.733739 0
M  V30 8514 C 781.503 5.82553 1.0191 0
M  V30 8515 C 780.865 7.01537 0.634403 0
M  V30 8516 H 776.964 0.609933 0.489393 0
M  V30 8517 H 779.548 1.82411 0.680746 0
M  V30 8518 H 777.719 2.25235 3.16424 0
M  V30 8519 H 779.451 2.49918 3.18313 0
M  V30 8520 H 776.206 4.22635 2.1372 0
M  V30 8521 H 776.63 6.66638 1.17995 0
M  V30 8522 H 781.272 3.82855 1.79393 0
M  V30 8523 H 778.99 8.06914 0.437656 0
M  V30 8524 H 782.576 5.74352 0.927977 0
M  V30 8525 H 781.456 7.83768 0.26019 0
M  V30 8526 N 778.959 -0.83999 1.33349 0
M  V30 8527 C 779.869 -1.98182 1.25543 0
M  V30 8528 C 780.885 -1.73204 0.166208 0
M  V30 8529 O 782.061 -1.97596 0.389589 0
M  V30 8530 C 779.126 -3.32157 0.993614 0
M  V30 8531 C 778.187 -3.70258 2.17273 0
M  V30 8532 C 777.42 -4.9784 1.92331 0
M  V30 8533 O 777.643 -5.63679 0.873074 0
M  V30 8534 O 776.577 -5.33418 2.78835 0
M  V30 8535 H 780.403 -2.07708 2.21565 0
M  V30 8536 H 777.988 -0.972852 1.13384 0
M  V30 8537 H 779.87 -4.12433 0.864711 0
M  V30 8538 H 778.545 -3.23637 0.0636596 0
M  V30 8539 H 777.452 -2.90497 2.35716 0
M  V30 8540 H 778.785 -3.83442 3.08598 0
M  V30 8541 N 780.437 -1.16799 -1.0581 0
M  V30 8542 C 781.665 -0.97687 -1.82387 0
M  V30 8543 C 782.08 0.474917 -1.82729 0
M  V30 8544 O 781.437 1.3297 -1.25001 0
M  V30 8545 C 781.488 -1.50279 -3.28783 0
M  V30 8546 O 781.209 -2.89772 -3.28578 0
M  V30 8547 C 782.71 -1.35538 -4.22071 0
M  V30 8548 H 779.93 -0.345977 -0.574927 0
M  V30 8549 H 782.474 -1.54942 -1.33466 0
M  V30 8550 H 780.629 -0.972414 -3.74997 0
M  V30 8551 H 781.043 -3.13954 -4.20159 0
M  V30 8552 H 782.517 -1.7716 -5.22799 0
M  V30 8553 H 782.994 -0.301598 -4.38163 0
M  V30 8554 H 783.6 -1.87562 -3.81708 0
M  V30 8555 N 781.915 1.24427 -0.967243 0
M  V30 8556 C 783.145 1.96256 -0.64554 0
M  V30 8557 C 783.553 1.71959 0.789098 0
M  V30 8558 O 782.896 0.999913 1.54102 0
M  V30 8559 C 782.958 3.49553 -0.839798 0
M  V30 8560 C 782.622 3.97548 -2.25399 0
M  V30 8561 C 783.619 4.07257 -3.23168 0
M  V30 8562 C 781.304 4.30884 -2.58156 0
M  V30 8563 C 783.298 4.49635 -4.51782 0
M  V30 8564 C 780.985 4.72946 -3.86996 0
M  V30 8565 C 781.983 4.82286 -4.83621 0
M  V30 8566 O 781.671 5.23409 -6.10162 0
M  V30 8567 H 781.403 0.632002 -0.239895 0
M  V30 8568 H 783.957 1.59224 -1.29757 0
M  V30 8569 H 782.187 3.86479 -0.130603 0
M  V30 8570 H 783.876 4.02591 -0.517249 0
M  V30 8571 H 784.642 3.8172 -2.9919 0
M  V30 8572 H 780.521 4.22833 -1.83666 0
M  V30 8573 H 784.065 4.5684 -5.27203 0
M  V30 8574 H 779.962 4.9793 -4.10775 0
M  V30 8575 H 780.73 5.4156 -6.13722 0
M  V30 8576 N 783.393 0.737304 1.3929 0
M  V30 8577 C 784.34 0.0988364 2.30588 0
M  V30 8578 C 785.31 -0.727206 1.49335 0
M  V30 8579 O 786.495 -0.686694 1.78014 0
M  V30 8580 C 783.635 -0.800734 3.35682 0
M  V30 8581 C 782.748 0.0381731 4.31983 0
M  V30 8582 C 781.883 -0.862884 5.24145 0
M  V30 8583 C 780.922 -0.0193639 6.12097 0
M  V30 8584 N 780.059 -0.87648 6.96608 0
M  V30 8585 H 784.899 0.883031 2.84617 0
M  V30 8586 H 782.436 0.447111 1.4014 0
M  V30 8587 H 784.394 -1.33676 3.95205 0
M  V30 8588 H 783.024 -1.55088 2.83103 0
M  V30 8589 H 782.076 0.691641 3.74059 0
M  V30 8590 H 783.388 0.690294 4.94 0
M  V30 8591 H 782.542 -1.46667 5.88705 0
M  V30 8592 H 781.281 -1.54878 4.62454 0
M  V30 8593 H 780.286 0.597202 5.46547 0
M  V30 8594 H 781.511 0.663348 6.75852 0
M  V30 8595 H 779.457 -1.54762 6.37483 0
M  V30 8596 H 779.374 -0.280892 7.55478 0
M  V30 8597 H 780.642 -1.46575 7.65595 0
M  V30 8598 N 784.871 -1.49948 0.485112 0
M  V30 8599 C 785.834 -2.27351 -0.290546 0
M  V30 8600 C 786.834 -1.32704 -0.908087 0
M  V30 8601 O 788.024 -1.56007 -0.775085 0
M  V30 8602 C 785.156 -3.10135 -1.41524 0
M  V30 8603 H 786.349 -2.97374 0.388454 0
M  V30 8604 H 783.902 -1.54453 0.239586 0
M  V30 8605 H 784.637 -2.44641 -2.12888 0
M  V30 8606 H 784.422 -3.79705 -0.978074 0
M  V30 8607 H 785.912 -3.68638 -1.96204 0
M  V30 8608 N 786.349 -0.21828 -1.56081 0
M  V30 8609 C 787.577 0.419258 -2.02608 0
M  V30 8610 C 787.992 1.53578 -1.09814 0
M  V30 8611 O 787.349 1.82185 -0.107149 0
M  V30 8612 C 787.4 0.953955 -3.48686 0
M  V30 8613 O 787.121 -0.11805 -4.37941 0
M  V30 8614 C 788.622 1.66506 -4.10841 0
M  V30 8615 H 785.842 0.10296 -0.663054 0
M  V30 8616 H 788.386 -0.333776 -2.01758 0
M  V30 8617 H 786.541 1.65727 -3.50162 0
M  V30 8618 H 786.955 0.283359 -5.23734 0
M  V30 8619 H 788.429 1.99123 -5.14834 0
M  V30 8620 H 788.906 2.57705 -3.55647 0
M  V30 8621 H 789.512 1.00703 -4.13206 0
M  V30 8622 N 787.827 1.57504 0.0551401 0
M  V30 8623 C 789.104 1.79155 0.785048 0
M  V30 8624 C 789.484 0.809995 1.94942 0
M  V30 8625 O 788.832 -0.153432 2.27984 0
M  V30 8626 C 789.042 3.26134 1.24247 0
M  V30 8627 C 790.39 3.90419 1.66908 0
M  V30 8628 O 791.414 3.30126 1.33772 0
M  V30 8629 O 790.273 4.96523 2.28314 0
M  V30 8630 H 787.367 0.735825 0.377479 0
M  V30 8631 H 789.913 1.69666 0.0339285 0
M  V30 8632 H 788.685 3.89145 0.410089 0
M  V30 8633 H 788.308 3.40411 2.05441 0
M  V30 8634 N 789.305 -0.326896 1.54172 0
M  V30 8635 C 790.533 -1.08486 1.76177 0
M  V30 8636 C 790.948 -1.81815 0.508788 0
M  V30 8637 O 790.305 -1.74924 -0.520362 0
M  V30 8638 C 790.356 -2.08552 2.95276 0
M  V30 8639 O 790.077 -1.38202 4.15731 0
M  V30 8640 C 791.578 -2.96593 3.29466 0
M  V30 8641 H 788.798 -0.322835 0.588233 0
M  V30 8642 H 791.342 -0.374036 2.0105 0
M  V30 8643 H 789.497 -2.75174 2.72687 0
M  V30 8644 H 789.911 -2.05186 4.827 0
M  V30 8645 H 791.385 -3.62708 4.16109 0
M  V30 8646 H 791.862 -3.63511 2.46487 0
M  V30 8647 H 792.468 -2.35537 3.54122 0
M  V30 8648 N 790.784 -1.46188 -0.588786 0
M  V30 8649 C 791.714 -1.59148 -1.70863 0
M  V30 8650 C 792.695 -0.442083 -1.64255 0
M  V30 8651 O 793.88 -0.667575 -1.82365 0
M  V30 8652 C 791.01 -1.5757 -3.09498 0
M  V30 8653 C 789.964 -2.71418 -3.30932 0
M  V30 8654 C 789.29 -2.549 -4.70032 0
M  V30 8655 C 790.59 -4.1329 -3.19356 0
M  V30 8656 H 792.284 -2.52889 -1.60274 0
M  V30 8657 H 789.83 -1.21707 -0.769638 0
M  V30 8658 H 791.783 -1.65231 -3.87655 0
M  V30 8659 H 790.507 -0.603705 -3.20972 0
M  V30 8660 H 789.166 -2.63216 -2.55172 0
M  V30 8661 H 788.814 -1.55797 -4.78264 0
M  V30 8662 H 788.514 -3.31257 -4.85327 0
M  V30 8663 H 790.038 -2.64443 -5.50366 0
M  V30 8664 H 791.452 -4.22636 -3.87365 0
M  V30 8665 H 789.849 -4.90187 -3.46175 0
M  V30 8666 H 790.919 -4.33874 -2.16522 0
M  V30 8667 N 792.262 0.832906 -1.33792 0
M  V30 8668 C 793.673 1.40489 -1.22963 0
M  V30 8669 C 794.024 1.95633 0.149026 0
M  V30 8670 O 793.149 1.8928 1.04891 0
M  V30 8671 C 793.744 2.55387 -2.22627 0
M  V30 8672 C 792.303 3.08522 -2.15618 0
M  V30 8673 C 791.45 1.81347 -2.09782 0
M  V30 8674 H 794.401 0.638156 -1.45304 0
M  V30 8675 H 794.422 3.33193 -1.83746 0
M  V30 8676 H 793.934 2.15222 -3.22957 0
M  V30 8677 H 792.035 3.53217 -1.18611 0
M  V30 8678 H 792.148 3.6829 -3.0643 0
M  V30 8679 H 790.512 2.01839 -1.55349 0
M  V30 8680 H 791.295 1.43369 -3.1193 0
M  V30 8681 N 793.74 1.17359 1.05189 0
M  V30 8682 C 794.687 0.890325 2.12936 0
M  V30 8683 C 795.657 -0.165779 1.65271 0
M  V30 8684 O 796.842 -0.0285672 1.90779 0
M  V30 8685 C 793.982 0.409793 3.42658 0
M  V30 8686 C 793.095 1.53002 4.03998 0
M  V30 8687 C 792.23 1.00336 5.21638 0
M  V30 8688 C 791.269 2.09903 5.74984 0
M  V30 8689 N 790.406 1.58714 6.83926 0
M  V30 8690 H 795.246 1.81299 2.36505 0
M  V30 8691 H 792.783 0.904249 1.16025 0
M  V30 8692 H 794.741 0.112743 4.17048 0
M  V30 8693 H 793.371 -0.475915 3.19272 0
M  V30 8694 H 792.423 1.9428 3.27047 0
M  V30 8695 H 793.735 2.3564 4.39631 0
M  V30 8696 H 792.889 0.660158 6.03098 0
M  V30 8697 H 791.628 0.14642 4.8748 0
M  V30 8698 H 790.633 2.45081 4.92154 0
M  V30 8699 H 791.858 2.96013 6.1119 0
M  V30 8700 H 789.804 0.752915 6.51665 0
M  V30 8701 H 789.721 2.34959 7.18561 0
M  V30 8702 H 790.989 1.27287 7.69037 0
M  V30 8703 N 795.218 -1.23913 0.973828 0
M  V30 8704 C 796.466 -1.91771 0.637817 0
M  V30 8705 C 796.787 -1.76434 -0.830435 0
M  V30 8706 O 796.057 -1.13965 -1.59339 0
M  V30 8707 H 794.637 -0.709761 0.232912 0
M  V30 8708 H 797.299 -1.50677 1.23622 0
M  V30 8709 H 796.395 -2.99327 0.883731 0
M  V30 8710 N 796.696 -0.74468 -1.38897 0
M  V30 8711 C 797.606 -0.112892 -2.34328 0
M  V30 8712 C 798.622 0.71087 -1.58816 0
M  V30 8713 O 799.798 0.637092 -1.91058 0
M  V30 8714 C 796.863 0.776417 -3.37894 0
M  V30 8715 C 795.924 -0.0606999 -4.29257 0
M  V30 8716 C 795.157 0.786258 -5.27877 0
M  V30 8717 O 795.38 2.02463 -5.33259 0
M  V30 8718 O 794.314 0.209781 -6.01534 0
M  V30 8719 H 798.14 -0.900801 -2.90033 0
M  V30 8720 H 795.725 -0.505462 -1.4059 0
M  V30 8721 H 797.607 1.28496 -4.01331 0
M  V30 8722 H 796.282 1.54297 -2.84559 0
M  V30 8723 H 795.189 -0.614984 -3.69011 0
M  V30 8724 H 796.522 -0.789702 -4.85824 0
M  V30 8725 N 798.174 1.49689 -0.493057 0
M  V30 8726 C 799.104 2.31826 0.279073 0
M  V30 8727 C 800.085 1.39733 0.969987 0
M  V30 8728 O 801.27 1.68646 0.962925 0
M  V30 8729 C 798.4 3.20046 1.34862 0
M  V30 8730 C 797.354 4.20869 0.77805 0
M  V30 8731 C 796.68 4.97971 1.94753 0
M  V30 8732 C 797.98 5.21813 -0.225543 0
M  V30 8733 H 799.674 2.96627 -0.406512 0
M  V30 8734 H 797.22 1.42647 -0.196943 0
M  V30 8735 H 799.173 3.76315 1.89645 0
M  V30 8736 H 797.897 2.53172 2.06328 0
M  V30 8737 H 796.556 3.65733 0.252036 0
M  V30 8738 H 796.204 4.27552 2.64969 0
M  V30 8739 H 795.904 5.66186 1.57187 0
M  V30 8740 H 797.428 5.57082 2.49984 0
M  V30 8741 H 798.842 5.72823 0.233864 0
M  V30 8742 H 797.239 5.97872 -0.516622 0
M  V30 8743 H 798.309 4.71209 -1.14412 0
M  V30 8744 N 799.652 0.226554 1.55963 0
M  V30 8745 C 800.582 -0.676079 2.23498 0
M  V30 8746 C 801.563 -1.19718 1.20837 0
M  V30 8747 O 802.748 -1.24027 1.49436 0
M  V30 8748 C 799.878 -1.88217 2.91876 0
M  V30 8749 C 798.832 -1.4947 4.01052 0
M  V30 8750 C 798.158 -2.77997 4.56751 0
M  V30 8751 C 799.458 -0.680951 5.17842 0
M  V30 8752 H 801.152 -0.112989 2.99187 0
M  V30 8753 H 798.698 -0.0529046 1.43903 0
M  V30 8754 H 800.651 -2.51911 3.37815 0
M  V30 8755 H 799.375 -2.47031 2.13643 0
M  V30 8756 H 798.034 -0.881199 3.55852 0
M  V30 8757 H 797.682 -3.34966 3.75243 0
M  V30 8758 H 797.382 -2.52803 5.30438 0
M  V30 8759 H 798.906 -3.42625 5.05411 0
M  V30 8760 H 800.32 -1.22171 5.60131 0
M  V30 8761 H 798.717 -0.525898 5.97791 0
M  V30 8762 H 799.787 0.311346 4.83899 0
M  V30 8763 N 801.13 -1.57531 -0.0467866 0
M  V30 8764 C 802.379 -1.87632 -0.740069 0
M  V30 8765 C 802.692 -0.822691 -1.77457 0
M  V30 8766 O 803.898 -1.01235 -2.5192 0
M  V30 8767 C 802.354 -3.32917 -1.36727 0
M  V30 8768 C 801.962 -4.46469 -0.370035 0
M  V30 8769 C 803.706 -3.72189 -2.04146 0
M  V30 8770 C 801.613 -5.82806 -1.00457 0
M  V30 8771 H 800.543 -0.70002 -0.280158 0
M  V30 8772 H 803.194 -1.83499 0.00607151 0
M  V30 8773 H 801.576 -3.31739 -2.16252 0
M  V30 8774 H 802.75 -4.59085 0.397217 0
M  V30 8775 H 801.065 -4.15914 0.201079 0
M  V30 8776 H 803.662 -4.71357 -2.52441 0
M  V30 8777 H 804.005 -3.03268 -2.85192 0
M  V30 8778 H 804.538 -3.75465 -1.3142 0
M  V30 8779 H 801.277 -6.55083 -0.233907 0
M  V30 8780 H 800.797 -5.73944 -1.74209 0
M  V30 8781 H 802.476 -6.28961 -1.51713 0
M  V30 8782 N 802.608 0.318715 -1.54344 0
M  V30 8783 C 803.555 1.39242 -1.84066 0
M  V30 8784 C 804.525 1.51175 -0.688134 0
M  V30 8785 O 805.71 1.66318 -0.935039 0
M  V30 8786 C 802.85 2.75528 -2.07794 0
M  V30 8787 C 801.963 2.72187 -3.35467 0
M  V30 8788 C 801.098 4.00352 -3.4913 0
M  V30 8789 C 800.137 3.91338 -4.7066 0
M  V30 8790 N 799.274 5.11242 -4.81224 0
M  V30 8791 H 804.114 1.13196 -2.75664 0
M  V30 8792 H 801.651 0.547857 -1.36517 0
M  V30 8793 H 803.609 3.54763 -2.19543 0
M  V30 8794 H 802.239 2.99873 -1.19482 0
M  V30 8795 H 801.291 1.84917 -3.3243 0
M  V30 8796 H 802.603 2.61411 -4.24812 0
M  V30 8797 H 801.757 4.88019 -3.60448 0
M  V30 8798 H 800.496 4.1394 -2.57886 0
M  V30 8799 H 799.501 3.02055 -4.59394 0
M  V30 8800 H 800.726 3.7931 -5.63294 0
M  V30 8801 H 798.672 5.25327 -3.92897 0
M  V30 8802 H 798.589 5.0282 -5.64543 0
M  V30 8803 H 799.857 6.0061 -4.96879 0
M  V30 8804 N 804.086 1.46499 0.581025 0
M  V30 8805 C 805.311 1.55708 1.37002 0
M  V30 8806 C 805.736 0.19942 1.8704 0
M  V30 8807 O 805.094 -0.820731 1.61659 0
M  V30 8808 C 805.142 2.56716 2.53238 0
M  V30 8809 O 804.246 2.10336 3.54729 0
M  V30 8810 H 803.587 0.523912 0.407937 0
M  V30 8811 H 806.117 1.92085 0.704602 0
M  V30 8812 H 806.127 2.76378 3.00132 0
M  V30 8813 H 804.802 3.55307 2.16171 0
M  V30 8814 H 803.379 2.00669 3.14303 0
M  V30 8815 N 805.565 -0.825799 1.34232 0
M  V30 8816 C 806.842 -1.56741 1.17011 0
M  V30 8817 C 807.222 -2.09512 -0.258425 0
M  V30 8818 O 806.57 -1.90664 -1.25935 0
M  V30 8819 C 806.78 -2.69104 2.22225 0
M  V30 8820 C 808.128 -3.37947 2.57055 0
M  V30 8821 O 809.152 -2.79358 2.20992 0
M  V30 8822 O 808.011 -4.43743 3.1899 0
M  V30 8823 H 805.105 -0.69163 0.453405 0
M  V30 8824 H 807.651 -0.867422 1.45856 0
M  V30 8825 H 806.423 -2.27844 3.18124 0
M  V30 8826 H 806.046 -3.46756 1.94541 0
M  V30 8827 N 807.043 -1.17915 -1.04565 0
M  V30 8828 C 808.268 -0.996749 -1.81878 0
M  V30 8829 C 808.693 0.450169 -1.82634 0
M  V30 8830 O 808.051 1.32268 -1.23995 0
M  V30 8831 C 808.099 -1.55005 -3.25585 0
M  V30 8832 O 807.203 -0.76804 -4.05185 0
M  V30 8833 H 806.544 -0.353456 -0.562108 0
M  V30 8834 H 809.074 -1.56557 -1.31723 0
M  V30 8835 H 809.084 -1.57503 -3.76373 0
M  V30 8836 H 807.759 -2.60327 -3.2435 0
M  V30 8837 H 806.336 -0.81498 -3.63885 0
M  V30 8838 N 808.521 1.23394 -0.980386 0
M  V30 8839 C 809.454 2.23404 -0.465404 0
M  V30 8840 C 810.432 1.55735 0.467471 0
M  V30 8841 O 811.616 1.84295 0.395921 0
M  V30 8842 C 808.743 3.3712 0.32672 0
M  V30 8843 C 807.789 4.22935 -0.550296 0
M  V30 8844 S 808.622 4.96824 -1.99814 0
M  V30 8845 C 809.778 6.13991 -1.21516 0
M  V30 8846 H 810.011 2.6674 -1.31289 0
M  V30 8847 H 807.544 1.32874 -0.78638 0
M  V30 8848 H 809.502 4.03065 0.777738 0
M  V30 8849 H 808.163 2.92317 1.14933 0
M  V30 8850 H 807.356 5.03966 0.0585298 0
M  V30 8851 H 806.958 3.62058 -0.937558 0
M  V30 8852 H 809.25 6.75822 -0.476476 0
M  V30 8853 H 810.193 6.7926 -2.0003 0
M  V30 8854 H 810.601 5.59708 -0.733949 0
M  V30 8855 N 809.999 0.752036 1.385 0
M  V30 8856 C 811.246 0.307503 2.00152 0
M  V30 8857 C 811.574 -1.11033 1.59693 0
M  V30 8858 O 810.829 -1.77455 0.825125 0
M  V30 8859 C 811.128 0.376155 3.55415 0
M  V30 8860 C 810.794 1.74942 4.15579 0
M  V30 8861 C 809.456 2.12525 4.31725 0
M  V30 8862 C 811.808 2.65031 4.48785 0
M  V30 8863 C 809.136 3.39671 4.78373 0
M  V30 8864 C 811.488 3.91567 4.96848 0
M  V30 8865 C 810.152 4.2922 5.11201 0
M  V30 8866 H 809.422 0.112523 0.732407 0
M  V30 8867 H 812.069 0.962213 1.65571 0
M  V30 8868 H 810.374 -0.362121 3.90123 0
M  V30 8869 H 812.071 0.0138065 4.00998 0
M  V30 8870 H 808.661 1.44726 4.03426 0
M  V30 8871 H 812.845 2.3726 4.35914 0
M  V30 8872 H 808.101 3.68765 4.8767 0
M  V30 8873 H 812.275 4.61517 5.21512 0
M  V30 8874 H 809.902 5.27805 5.47107 0
M  V30 8875 N 811.477 -1.49425 0.500989 0
M  V30 8876 C 812.702 -2.07356 -0.0425154 0
M  V30 8877 C 813.127 -1.35887 -1.30063 0
M  V30 8878 O 812.485 -0.41561 -1.76472 0
M  V30 8879 C 812.533 -3.59518 -0.279188 0
M  V30 8880 O 811.637 -3.89542 -1.3539 0
M  V30 8881 H 810.978 -0.663482 0.0262207 0
M  V30 8882 H 813.508 -1.92231 0.700607 0
M  V30 8883 H 813.518 -4.04791 -0.5107 0
M  V30 8884 H 812.193 -4.10946 0.640009 0
M  V30 8885 H 810.77 -3.56079 -1.10734 0
M  V30 8886 N 812.955 -0.234822 -1.55841 0
M  V30 8887 C 814.203 0.392483 -1.98252 0
M  V30 8888 C 814.524 1.59344 -1.12404 0
M  V30 8889 O 813.794 1.94834 -0.204055 0
M  V30 8890 H 812.374 0.147999 -0.732192 0
M  V30 8891 H 815.036 -0.330804 -1.92072 0
M  V30 8892 H 814.132 0.709829 -3.03921 0
M  V30 8893 N 814.433 1.57553 0.0384317 0
M  V30 8894 C 815.663 1.92813 0.742064 0
M  V30 8895 C 816.071 0.832157 1.69917 0
M  V30 8896 O 815.414 -0.200917 1.82598 0
M  V30 8897 C 815.476 3.23806 1.56172 0
M  V30 8898 C 815.14 4.50459 0.770407 0
M  V30 8899 C 816.137 5.19846 0.0748006 0
M  V30 8900 C 813.822 4.97001 0.727714 0
M  V30 8901 C 815.816 6.34047 -0.652902 0
M  V30 8902 C 813.503 6.111 -0.00373992 0
M  V30 8903 C 814.501 6.79477 -0.692816 0
M  V30 8904 O 814.189 7.91395 -1.41241 0
M  V30 8905 H 813.921 0.641174 0.214179 0
M  V30 8906 H 816.475 2.054 0.00285095 0
M  V30 8907 H 814.705 3.0752 2.34453 0
M  V30 8908 H 816.394 3.44463 2.14709 0
M  V30 8909 H 817.16 4.84899 0.098875 0
M  V30 8910 H 813.039 4.43629 1.25355 0
M  V30 8911 H 816.583 6.87353 -1.1913 0
M  V30 8912 H 812.48 6.45493 -0.0297703 0
M  V30 8913 H 813.248 8.07702 -1.32512 0
M  V30 8914 N 815.911 -0.310526 1.54511 0
M  V30 8915 C 817.158 -1.04691 1.73338 0
M  V30 8916 C 817.486 -1.87584 0.514038 0
M  V30 8917 O 816.741 -1.89096 -0.504119 0
M  V30 8918 C 817.04 -1.98942 2.96912 0
M  V30 8919 C 816.706 -1.321 4.31115 0
M  V30 8920 C 815.368 -1.13603 4.67598 0
M  V30 8921 C 817.72 -0.842362 5.14348 0
M  V30 8922 C 815.048 -0.459102 5.84901 0
M  V30 8923 C 817.4 -0.179202 6.32346 0
M  V30 8924 C 816.064 0.0178111 6.67498 0
M  V30 8925 H 815.334 -0.38309 0.634289 0
M  V30 8926 H 817.981 -0.322723 1.88761 0
M  V30 8927 H 816.286 -2.77856 2.76231 0
M  V30 8928 H 817.983 -2.55972 3.08674 0
M  V30 8929 H 814.573 -1.47502 4.02419 0
M  V30 8930 H 818.757 -0.973013 4.86668 0
M  V30 8931 H 814.013 -0.295385 6.10686 0
M  V30 8932 H 818.187 0.199619 6.96114 0
M  V30 8933 H 815.814 0.544356 7.58249 0
M  V30 8934 N 817.389 -1.46805 -0.573248 0
M  V30 8935 C 818.319 -1.60951 -1.69165 0
M  V30 8936 C 819.3 -0.45948 -1.63777 0
M  V30 8937 O 820.485 -0.68688 -1.81647 0
M  V30 8938 C 817.615 -1.60844 -3.07809 0
M  V30 8939 C 816.569 -2.74913 -3.28035 0
M  V30 8940 C 815.895 -2.59871 -4.67302 0
M  V30 8941 C 817.195 -4.16654 -3.14955 0
M  V30 8942 H 818.889 -2.54574 -1.57582 0
M  V30 8943 H 816.435 -1.22516 -0.756686 0
M  V30 8944 H 818.388 -1.69334 -3.85881 0
M  V30 8945 H 817.112 -0.637714 -3.20314 0
M  V30 8946 H 815.771 -2.65908 -2.52366 0
M  V30 8947 H 815.419 -1.60861 -4.76585 0
M  V30 8948 H 815.119 -3.36386 -4.81786 0
M  V30 8949 H 816.643 -2.70265 -5.4753 0
M  V30 8950 H 818.057 -4.26721 -3.82861 0
M  V30 8951 H 816.454 -4.93831 -3.40956 0
M  V30 8952 H 817.524 -4.36146 -2.11908 0
M  V30 8953 N 818.867 0.818669 -1.34668 0
M  V30 8954 C 819.777 1.9616 -1.2868 0
M  V30 8955 C 820.793 1.72918 -0.193742 0
M  V30 8956 O 821.969 1.96951 -0.420975 0
M  V30 8957 C 819.034 3.30534 -1.04633 0
M  V30 8958 C 818.095 3.66755 -2.23136 0
M  V30 8959 C 817.328 4.94717 -2.00227 0
M  V30 8960 O 817.551 5.62218 -0.96264 0
M  V30 8961 O 816.485 5.28915 -2.87286 0
M  V30 8962 H 820.311 2.04157 -2.24842 0
M  V30 8963 H 817.896 0.954691 -1.14917 0
M  V30 8964 H 819.778 4.11005 -0.930216 0
M  V30 8965 H 818.453 3.23495 -0.115139 0
M  V30 8966 H 817.36 2.8671 -2.40308 0
M  V30 8967 H 818.693 3.78484 -3.1466 0
M  V30 8968 N 820.346 1.18468 1.03938 0
M  V30 8969 C 821.293 0.912859 2.1198 0
M  V30 8970 C 822.263 -0.14824 1.65437 0
M  V30 8971 O 823.448 -0.008331 1.90798 0
M  V30 8972 C 820.588 0.446114 3.42204 0
M  V30 8973 C 819.701 1.57278 4.02353 0
M  V30 8974 C 818.836 1.05863 5.20544 0
M  V30 8975 C 817.875 2.1599 5.72726 0
M  V30 8976 N 817.012 1.65959 6.82204 0
M  V30 8977 H 821.852 1.83798 2.34569 0
M  V30 8978 H 819.389 0.916504 1.15059 0
M  V30 8979 H 821.347 0.15697 4.16905 0
M  V30 8980 H 819.977 -0.442025 3.19759 0
M  V30 8981 H 819.029 1.97737 3.24968 0
M  V30 8982 H 820.341 2.40289 4.37107 0
M  V30 8983 H 819.495 0.724087 6.02364 0
M  V30 8984 H 818.234 0.198116 4.87297 0
M  V30 8985 H 817.239 2.50287 4.89527 0
M  V30 8986 H 818.464 3.02479 6.08016 0
M  V30 8987 H 816.41 0.82199 6.5083 0
M  V30 8988 H 816.327 2.42567 7.16029 0
M  V30 8989 H 817.595 1.35436 7.67644 0
M  V30 8990 N 821.824 -1.22873 0.986916 0
M  V30 8991 C 822.734 -2.28277 0.540978 0
M  V30 8992 C 823.75 -1.69164 -0.407363 0
M  V30 8993 O 824.926 -1.99504 -0.275674 0
M  V30 8994 C 821.991 -3.46404 -0.143181 0
M  V30 8995 C 821.052 -4.20854 0.847375 0
M  V30 8996 C 820.285 -5.33341 0.19577 0
M  V30 8997 O 820.508 -5.61356 -1.0117 0
M  V30 8998 O 819.442 -5.95169 0.897623 0
M  V30 8999 H 823.268 -2.68578 1.41773 0
M  V30 9000 H 820.853 -1.28927 0.754867 0
M  V30 9001 H 822.735 -4.18096 -0.526676 0
M  V30 9002 H 821.41 -3.08041 -0.994593 0
M  V30 9003 H 820.317 -3.51459 1.28169 0
M  V30 9004 H 821.65 -4.63082 1.6678 0
M  V30 9005 N 823.302 -0.75937 -1.38099 0
M  V30 9006 C 824.542 -0.323116 -2.0183 0
M  V30 9007 C 824.906 1.07658 -1.58977 0
M  V30 9008 O 826.107 1.61227 -2.1508 0
M  V30 9009 C 824.378 -0.448234 -3.54578 0
M  V30 9010 S 825.937 -0.0954152 -4.38696 0
M  V30 9011 H 822.755 -0.125013 -0.699923 0
M  V30 9012 H 825.357 -0.991262 -1.68506 0
M  V30 9013 H 824.061 -1.46778 -3.83255 0
M  V30 9014 H 823.592 0.236895 -3.92686 0
M  V30 9015 H 825.607 1.11312 -4.83554 0
M  V30 9016 N 824.78 1.49157 -0.508906 0
M  V30 9017 C 826.008 2.06879 0.0293734 0
M  V30 9018 C 826.423 1.36823 1.30095 0
M  V30 9019 O 825.78 0.449034 1.7689 0
M  V30 9020 C 825.831 3.60423 0.278791 0
M  V30 9021 O 825.552 4.27844 -0.942389 0
M  V30 9022 C 827.053 4.34881 0.859825 0
M  V30 9023 H 824.273 0.67057 -0.0240184 0
M  V30 9024 H 826.817 1.91834 -0.708526 0
M  V30 9025 H 824.972 3.75145 0.966689 0
M  V30 9026 H 825.386 5.19671 -0.710097 0
M  V30 9027 H 826.86 5.43161 0.983884 0
M  V30 9028 H 827.337 3.9789 1.85958 0
M  V30 9029 H 827.943 4.24785 0.209152 0
M  V30 9030 N 826.258 0.243083 1.55714 0
M  V30 9031 C 827.205 -0.658078 2.21219 0
M  V30 9032 C 828.175 -1.1742 1.17481 0
M  V30 9033 O 829.36 -1.22937 1.45915 0
M  V30 9034 C 826.5 -1.85104 2.91257 0
M  V30 9035 C 825.613 -1.3718 4.09641 0
M  V30 9036 C 824.748 -2.52403 4.67404 0
M  V30 9037 C 823.787 -2.01321 5.78045 0
M  V30 9038 N 822.924 -3.09896 6.30007 0
M  V30 9039 H 827.764 -0.0927854 2.97856 0
M  V30 9040 H 825.301 -0.0340375 1.47061 0
M  V30 9041 H 827.259 -2.55179 3.3006 0
M  V30 9042 H 825.889 -2.38887 2.17101 0
M  V30 9043 H 824.941 -0.565232 3.76177 0
M  V30 9044 H 826.253 -0.957409 4.89525 0
M  V30 9045 H 825.407 -3.30525 5.08761 0
M  V30 9046 H 824.146 -2.97142 3.86728 0
M  V30 9047 H 823.151 -1.21667 5.36169 0
M  V30 9048 H 824.376 -1.57556 6.6057 0
M  V30 9049 H 822.322 -3.54077 5.52237 0
M  V30 9050 H 822.239 -2.72776 7.05074 0
M  V30 9051 H 823.507 -3.8809 6.76023 0
M  V30 9052 N 827.736 -1.57571 -0.0300757 0
M  V30 9053 C 828.684 -2.0758 -1.04944 0
M  V30 9054 C 829.678 -0.989384 -1.37505 0
M  V30 9055 O 830.884 -1.17427 -1.36422 0
M  V30 9056 H 827.259 -0.662419 -0.355956 0
M  V30 9057 H 829.23 -2.92268 -0.601848 0
M  V30 9058 C 827.979 -2.5698 -2.34215 0
M  V30 9059 H 827.302 -3.40193 -2.10021 0
M  V30 9060 H 828.742 -2.95682 -3.03888 0
M  V30 9061 C 827.201 -1.47059 -3.03109 0
M  V30 9062 O 827.731 -0.83625 -3.92899 0
M  V30 9063 N 825.937 -1.20538 -2.64422 0
M  V30 9064 H 825.484 -1.72305 -1.9149 0
M  V30 9065 H 825.442 -0.472045 -3.10836 0
M  V30 9066 N 829.214 0.302327 -1.54673 0
M  V30 9067 C 830.177 1.35592 -1.8479 0
M  V30 9068 C 831.177 1.43743 -0.72073 0
M  V30 9069 O 832.367 1.43402 -0.989017 0
M  V30 9070 C 829.499 2.74091 -2.02699 0
M  V30 9071 H 830.692 1.10132 -2.78946 0
M  V30 9072 H 828.245 0.538926 -1.46715 0
M  V30 9073 H 828.98 3.04775 -1.10826 0
M  V30 9074 H 828.765 2.69565 -2.8474 0
M  V30 9075 H 830.255 3.50272 -2.27374 0
M  V30 9076 N 830.692 1.47107 0.565454 0
M  V30 9077 C 831.939 1.53308 1.32299 0
M  V30 9078 C 832.267 0.1919 1.93551 0
M  V30 9079 O 831.522 -0.81435 1.77952 0
M  V30 9080 C 831.821 2.59309 2.45954 0
M  V30 9081 C 831.487 4.02827 2.02586 0
M  V30 9082 C 830.149 4.41897 1.90474 0
M  V30 9083 C 832.501 4.92913 1.6937 0
M  V30 9084 C 829.829 5.68898 1.4343 0
M  V30 9085 C 832.181 6.20368 1.238 0
M  V30 9086 C 830.845 6.58327 1.10278 0
M  V30 9087 H 830.115 0.560993 0.484116 0
M  V30 9088 H 832.762 1.80667 0.634965 0
M  V30 9089 H 831.067 2.25676 3.20277 0
M  V30 9090 H 832.764 2.61332 3.04149 0
M  V30 9091 H 829.354 3.71953 2.12952 0
M  V30 9092 H 833.538 4.63433 1.77605 0
M  V30 9093 H 828.794 5.97065 1.31618 0
M  V30 9094 H 832.968 6.89589 0.971586 0
M  V30 9095 H 830.595 7.56628 0.736027 0
M  V30 9096 N 832.17 -0.811516 1.35101 0
M  V30 9097 C 833.398 -1.59981 1.31201 0
M  V30 9098 C 833.813 -1.8847 -0.111552 0
M  V30 9099 O 833.17 -1.48414 -1.06205 0
M  V30 9100 C 833.221 -2.934 2.11184 0
M  V30 9101 O 832.942 -2.66148 3.4799 0
M  V30 9102 C 834.443 -3.87776 2.14813 0
M  V30 9103 H 831.663 -0.496921 0.450899 0
M  V30 9104 H 834.207 -1.00886 1.77883 0
M  V30 9105 H 832.362 -3.49022 1.68115 0
M  V30 9106 H 832.776 -3.51301 3.89471 0
M  V30 9107 H 834.25 -4.7852 2.75178 0
M  V30 9108 H 834.727 -4.23997 1.14556 0
M  V30 9109 H 835.333 -3.3809 2.58022 0
M  V30 9110 N 833.648 -1.19017 -1.03309 0
M  V30 9111 C 834.925 -0.899659 -1.73682 0
M  V30 9112 C 835.305 0.595677 -2.02521 0
M  V30 9113 O 834.653 1.55263 -1.67648 0
M  V30 9114 C 834.863 -1.75508 -3.01659 0
M  V30 9115 C 836.211 -1.98679 -3.75249 0
M  V30 9116 O 837.235 -1.72624 -3.11576 0
M  V30 9117 O 836.094 -2.42587 -4.89708 0
M  V30 9118 H 833.188 -0.334903 -0.756154 0
M  V30 9119 H 835.734 -1.29809 -1.09305 0
M  V30 9120 H 834.506 -2.7684 -2.76542 0
M  V30 9121 H 834.129 -1.35565 -3.73775 0
M  V30 9122 N 835.127 1.22348 -0.993418 0
M  V30 9123 C 836.404 1.86632 -0.585495 0
M  V30 9124 C 836.784 1.89156 0.937187 0
M  V30 9125 O 836.132 1.38247 1.81934 0
M  V30 9126 C 836.342 3.27481 -1.20652 0
M  V30 9127 C 837.69 4.03971 -1.30738 0
M  V30 9128 O 838.714 3.3675 -1.16096 0
M  V30 9129 O 837.573 5.24302 -1.54173 0
M  V30 9130 H 834.667 0.802704 -0.198984 0
M  V30 9131 H 837.213 1.30122 -1.08933 0
M  V30 9132 H 835.985 3.20281 -2.24802 0
M  V30 9133 H 835.608 3.91597 -0.688312 0
M  V30 9134 N 836.605 0.766683 1.37694 0
M  V30 9135 C 837.853 0.328065 1.9942 0
M  V30 9136 C 838.174 -1.09775 1.61166 0
M  V30 9137 O 837.444 -1.75288 0.874686 0
M  V30 9138 H 836.024 0.11831 0.737572 0
M  V30 9139 H 838.686 0.983686 1.68255 0
M  V30 9140 H 837.782 0.401647 3.09505 0
M  V30 9141 N 838.083 -1.48885 0.516809 0
M  V30 9142 C 839.313 -2.06592 -0.018375 0
M  V30 9143 C 839.721 -1.37543 -1.29917 0
M  V30 9144 O 839.064 -0.452527 -1.78039 0
M  V30 9145 C 839.126 -3.58016 -0.326315 0
M  V30 9146 C 838.79 -4.48853 0.859072 0
M  V30 9147 C 839.787 -4.89422 1.75391 0
M  V30 9148 C 837.472 -4.90937 1.06235 0
M  V30 9149 C 839.466 -5.70831 2.83604 0
M  V30 9150 C 837.153 -5.72119 2.14763 0
M  V30 9151 C 838.151 -6.11972 3.03281 0
M  V30 9152 O 837.839 -6.91527 4.09934 0
M  V30 9153 H 837.571 -0.675559 0.0244023 0
M  V30 9154 H 840.125 -1.92442 0.718005 0
M  V30 9155 H 838.355 -3.70231 -1.1165 0
M  V30 9156 H 840.044 -3.97898 -0.801999 0
M  V30 9157 H 840.81 -4.57542 1.60875 0
M  V30 9158 H 836.689 -4.59409 0.382677 0
M  V30 9159 H 840.233 -6.01857 3.52724 0
M  V30 9160 H 836.13 -6.03412 2.29268 0
M  V30 9161 H 836.898 -7.0986 4.07482 0
M  V30 9162 N 839.561 -0.251338 -1.55583 0
M  V30 9163 C 840.808 0.372169 -1.99051 0
M  V30 9164 C 841.136 1.57623 -1.13953 0
M  V30 9165 O 840.391 1.94762 -0.191398 0
M  V30 9166 C 840.69 0.821186 -3.47838 0
M  V30 9167 C 840.356 -0.275608 -4.50057 0
M  V30 9168 C 839.018 -0.57683 -4.7773 0
M  V30 9169 C 841.37 -1.01585 -5.11204 0
M  V30 9170 C 838.698 -1.62229 -5.63825 0
M  V30 9171 C 841.05 -2.05087 -5.98433 0
M  V30 9172 C 839.714 -2.35869 -6.24437 0
M  V30 9173 H 838.984 0.136186 -0.728378 0
M  V30 9174 H 841.631 -0.360089 -1.88084 0
M  V30 9175 H 839.936 1.63272 -3.56159 0
M  V30 9176 H 841.633 1.31396 -3.78861 0
M  V30 9177 H 838.223 -0.030697 -4.28589 0
M  V30 9178 H 842.407 -0.79639 -4.89869 0
M  V30 9179 H 837.663 -1.86607 -5.82226 0
M  V30 9180 H 841.837 -2.62934 -6.44855 0
M  V30 9181 H 839.464 -3.17017 -6.90944 0
M  V30 9182 N 841.039 1.57585 0.0217189 0
M  V30 9183 C 841.986 2.07036 1.02004 0
M  V30 9184 C 842.956 0.96106 1.35473 0
M  V30 9185 O 844.141 1.23211 1.45684 0
M  V30 9186 C 841.281 2.56056 2.31364 0
M  V30 9187 C 840.394 3.80805 2.03989 0
M  V30 9188 C 839.529 4.18409 3.27272 0
M  V30 9189 C 838.568 5.36055 2.95486 0
M  V30 9190 N 837.705 5.69056 4.11242 0
M  V30 9191 H 842.545 2.92073 0.591396 0
M  V30 9192 H 840.082 1.44403 0.280384 0
M  V30 9193 H 842.04 2.82548 3.06957 0
M  V30 9194 H 840.67 1.73925 2.71937 0
M  V30 9195 H 839.722 3.61354 1.1886 0
M  V30 9196 H 841.034 4.66512 1.76546 0
M  V30 9197 H 840.188 4.46068 4.11228 0
M  V30 9198 H 838.927 3.31369 3.57835 0
M  V30 9199 H 837.932 5.08142 2.09933 0
M  V30 9200 H 839.157 6.24755 2.66193 0
M  V30 9201 H 837.103 4.84974 4.41742 0
M  V30 9202 H 837.02 6.49288 3.87247 0
M  V30 9203 H 838.288 6.01295 4.96049 0
M  V30 9204 N 842.517 -0.29412 1.54831 0
M  V30 9205 C 843.745 -1.04724 1.78439 0
M  V30 9206 C 844.16 -1.80695 0.547239 0
M  V30 9207 O 843.517 -1.75989 -0.483141 0
M  V30 9208 C 843.568 -2.02242 2.99634 0
M  V30 9209 O 843.289 -1.29352 4.18568 0
M  V30 9210 C 844.79 -2.89537 3.35683 0
M  V30 9211 H 842.01 -0.310285 0.594949 0
M  V30 9212 H 844.554 -0.331306 2.01798 0
M  V30 9213 H 842.709 -2.69328 2.78462 0
M  V30 9214 H 843.123 -1.94901 4.86943 0
M  V30 9215 H 844.597 -3.538 4.23709 0
M  V30 9216 H 845.074 -3.58201 2.54143 0
M  V30 9217 H 845.68 -2.27973 3.59038 0
M  V30 9218 N 843.995 -1.47404 -0.557645 0
M  V30 9219 C 845.243 -1.53703 -1.31224 0
M  V30 9220 C 845.564 -0.200742 -1.93964 0
M  V30 9221 O 844.834 0.775253 -1.79907 0
M  V30 9222 H 843.414 -0.566171 -0.487299 0
M  V30 9223 H 846.076 -1.83699 -0.651195 0
M  V30 9224 H 845.172 -2.30335 -2.10599 0
M  V30 9225 N 845.473 0.80434 -1.35529 0
M  V30 9226 C 846.75 1.5486 -1.1949 0
M  V30 9227 C 847.13 2.09897 0.22506 0
M  V30 9228 O 846.478 1.92643 1.22886 0
M  V30 9229 C 846.688 2.65535 -2.26478 0
M  V30 9230 C 848.036 3.33814 -2.62399 0
M  V30 9231 O 849.06 2.75807 -2.25409 0
M  V30 9232 O 847.919 4.38612 -3.26009 0
M  V30 9233 H 845.013 0.68433 -0.464351 0
M  V30 9234 H 847.559 0.844107 -1.47217 0
M  V30 9235 H 846.331 2.22754 -3.21709 0
M  V30 9236 H 845.954 3.43617 -2.00033 0
M  V30 9237 N 846.951 1.19563 1.02676 0
M  V30 9238 C 848.2 0.993864 1.75514 0
M  V30 9239 C 848.513 -0.475882 1.89723 0
M  V30 9240 O 849.719 -0.796525 2.59553 0
M  V30 9241 C 848.175 1.72937 3.15628 0
M  V30 9242 C 847.783 3.23937 3.09466 0
M  V30 9243 C 849.527 1.61092 3.92746 0
M  V30 9244 C 847.434 3.90067 4.44524 0
M  V30 9245 H 846.364 0.368244 0.657961 0
M  V30 9246 H 849.015 1.43081 1.14891 0
M  V30 9247 H 847.397 1.22025 3.76731 0
M  V30 9248 H 848.571 3.81983 2.57731 0
M  V30 9249 H 846.886 3.3608 2.45843 0
M  V30 9250 H 849.483 2.07848 4.92649 0
M  V30 9251 H 849.826 0.565415 4.12442 0
M  V30 9252 H 850.359 2.09361 3.3825 0
M  V30 9253 H 847.098 4.94725 4.30032 0
M  V30 9254 H 846.618 3.36809 4.96306 0
M  V30 9255 H 848.297 3.93736 5.13401 0
M  V30 9256 N 848.429 -1.21819 0.999893 0
M  V30 9257 C 849.675 -1.91035 0.680701 0
M  V30 9258 C 850.008 -1.77582 -0.786021 0
M  V30 9259 O 849.283 -1.14917 -1.56921 0
M  V30 9260 C 849.566 -3.43013 1.0961 0
M  V30 9261 C 849.419 -3.65481 2.6219 0
M  V30 9262 C 850.738 -4.35204 0.654616 0
M  V30 9263 H 847.857 -0.693748 0.248763 0
M  V30 9264 H 850.499 -1.43555 1.24466 0
M  V30 9265 H 848.649 -3.83581 0.616253 0
M  V30 9266 H 850.321 -3.34273 3.17899 0
M  V30 9267 H 848.564 -3.09522 3.03938 0
M  V30 9268 H 849.235 -4.71945 2.86307 0
M  V30 9269 H 851.711 -4.0219 1.06688 0
M  V30 9270 H 850.587 -5.40198 0.973492 0
M  V30 9271 H 850.848 -4.3986 -0.444458 0
M  V30 9272 N 849.908 -0.773975 -1.37286 0
M  V30 9273 C 850.84 -0.119938 -2.28886 0
M  V30 9274 C 851.853 0.661822 -1.48741 0
M  V30 9275 O 853.042 0.499548 -1.71367 0
M  V30 9276 C 850.142 0.853703 -3.27971 0
M  V30 9277 C 849.315 0.125286 -4.37221 0
M  V30 9278 C 848.374 1.01261 -5.16365 0
M  V30 9279 O 847.4 0.475565 -5.6721 0
M  V30 9280 N 848.602 2.33864 -5.31308 0
M  V30 9281 H 851.367 -0.906702 -2.85655 0
M  V30 9282 H 848.928 -0.626519 -1.49286 0
M  V30 9283 H 850.92 1.4508 -3.77801 0
M  V30 9284 H 849.49 1.54142 -2.71954 0
M  V30 9285 H 848.71 -0.652742 -3.88758 0
M  V30 9286 H 849.998 -0.377959 -5.07394 0
M  V30 9287 H 849.396 2.79929 -4.91585 0
M  V30 9288 H 847.953 2.88575 -5.84438 0
M  V30 9289 N 851.386 1.48609 -0.524698 0
M  V30 9290 C 852.635 2.01696 0.0132937 0
M  V30 9291 C 852.948 1.40751 1.35825 0
M  V30 9292 O 854.154 1.85304 1.9843 0
M  V30 9293 C 852.61 3.59824 0.0741012 0
M  V30 9294 C 852.218 4.2975 -1.26564 0
M  V30 9295 C 853.962 4.20774 0.5612 0
M  V30 9296 C 851.869 5.79798 -1.16571 0
M  V30 9297 H 850.799 0.753949 0.00873931 0
M  V30 9298 H 853.45 1.70922 -0.667684 0
M  V30 9299 H 851.832 3.87416 0.820043 0
M  V30 9300 H 853.006 4.13836 -2.02674 0
M  V30 9301 H 851.321 3.80649 -1.68806 0
M  V30 9302 H 853.918 5.30687 0.653853 0
M  V30 9303 H 854.261 3.85734 1.56573 0
M  V30 9304 H 854.794 3.97591 -0.128901 0
M  V30 9305 H 851.533 6.19403 -2.14523 0
M  V30 9306 H 851.053 5.9814 -0.445894 0
M  V30 9307 H 852.732 6.41337 -0.854186 0
M  V30 9308 N 852.864 0.259585 1.55447 0
M  V30 9309 C 853.812 -0.6507 2.23313 0
M  V30 9310 C 854.806 -1.17014 1.22491 0
M  V30 9311 O 856.012 -1.12557 1.40467 0
M  V30 9312 H 852.387 -0.228354 0.71649 0
M  V30 9313 H 854.358 -0.0553039 2.98349 0
M  V30 9314 C 853.107 -1.83081 2.95596 0
M  V30 9315 H 852.43 -1.44027 3.72956 0
M  V30 9316 H 853.87 -2.44469 3.46426 0
M  V30 9317 C 852.329 -2.70976 2.00184 0
M  V30 9318 O 852.859 -3.70882 1.54304 0
M  V30 9319 N 851.065 -2.37813 1.67014 0
M  V30 9320 H 850.612 -1.5662 2.04519 0
M  V30 9321 H 850.57 -2.96896 1.03443 0
M  V30 9322 N 854.342 -1.57594 -0.0133615 0
M  V30 9323 C 855.619 -1.81173 -0.737273 0
M  V30 9324 C 855.999 -0.861395 -1.92726 0
M  V30 9325 O 855.347 0.0929324 -2.28311 0
M  V30 9326 C 855.557 -3.29314 -1.15557 0
M  V30 9327 C 856.905 -3.94707 -1.56498 0
M  V30 9328 O 857.929 -3.33557 -1.24973 0
M  V30 9329 O 856.788 -5.02402 -2.15069 0
M  V30 9330 H 853.882 -0.745575 -0.357837 0
M  V30 9331 H 856.428 -1.69696 0.0110674 0
M  V30 9332 H 855.2 -3.90096 -0.30677 0
M  V30 9333 H 854.823 -3.45739 -1.96343 0
M  V30 9334 N 855.82 0.285905 -1.54985 0
M  V30 9335 C 856.768 1.37302 -1.87752 0
M  V30 9336 C 857.762 1.51763 -0.752616 0
M  V30 9337 O 858.968 1.53701 -0.936805 0
M  V30 9338 H 855.343 0.458935 -0.59572 0
M  V30 9339 H 857.314 1.0691 -2.78591 0
M  V30 9340 C 856.063 2.72885 -2.15474 0
M  V30 9341 H 855.386 2.62545 -3.01513 0
M  V30 9342 H 856.826 3.47925 -2.42331 0
M  V30 9343 C 855.285 3.22989 -0.958124 0
M  V30 9344 O 855.815 4.01268 -0.186219 0
M  V30 9345 N 854.021 2.80503 -0.759354 0
M  V30 9346 H 853.568 2.16961 -1.38874 0
M  V30 9347 H 853.526 3.14375 0.0396937 0
M  V30 9348 N 857.298 1.47698 0.54982 0
M  V30 9349 C 858.546 1.54397 1.30407 0
M  V30 9350 C 858.867 0.211026 1.93855 0
M  V30 9351 O 858.137 -0.765701 1.80316 0
M  V30 9352 H 856.717 0.568747 0.484289 0
M  V30 9353 H 859.379 1.84042 0.641444 0
M  V30 9354 H 858.475 2.31449 2.09375 0
M  V30 9355 N 858.776 -0.797141 1.35954 0
M  V30 9356 C 860.001 -1.59097 1.33053 0
M  V30 9357 C 860.426 -1.87897 -0.0874592 0
M  V30 9358 O 859.784 -1.47291 -1.05712 0
M  V30 9359 C 859.832 -2.89346 2.152 0
M  V30 9360 O 858.936 -3.826 1.5392 0
M  V30 9361 H 858.277 -0.482895 0.45575 0
M  V30 9362 H 860.807 -0.988633 1.79129 0
M  V30 9363 H 860.817 -3.38686 2.27499 0
M  V30 9364 H 859.492 -2.6771 3.18283 0
M  V30 9365 H 858.069 -3.41174 1.50516 0
M  V30 9366 N 860.254 -1.20106 -1.0204 0
M  V30 9367 C 861.5 -1.01039 -1.75838 0
M  V30 9368 C 861.833 0.456819 -1.88751 0
M  V30 9369 O 861.108 1.33919 -1.41053 0
M  V30 9370 C 861.391 -1.69009 -3.17975 0
M  V30 9371 C 861.244 -3.2315 -3.1288 0
M  V30 9372 C 862.563 -1.42005 -4.16561 0
M  V30 9373 H 859.682 -0.368465 -0.638281 0
M  V30 9374 H 862.324 -1.48066 -1.19064 0
M  V30 9375 H 860.474 -1.29026 -3.66449 0
M  V30 9376 H 862.146 -3.72402 -2.72239 0
M  V30 9377 H 860.389 -3.54253 -2.50374 0
M  V30 9378 H 861.06 -3.65862 -4.13339 0
M  V30 9379 H 863.536 -1.76685 -3.76725 0
M  V30 9380 H 862.412 -1.92101 -5.14187 0
M  V30 9381 H 862.673 -0.346884 -4.40737 0
M  V30 9382 N 861.732 1.21287 -1.00634 0
M  V30 9383 C 862.96 1.94385 -0.708678 0
M  V30 9384 C 863.375 1.7416 0.728957 0
M  V30 9385 O 862.732 1.04906 1.49335 0
M  V30 9386 C 862.783 3.46755 -1.02193 0
M  V30 9387 O 862.504 3.6631 -2.40309 0
M  V30 9388 C 864.005 4.37014 -0.743867 0
M  V30 9389 H 861.225 0.618136 -0.261052 0
M  V30 9390 H 863.769 1.54067 -1.34475 0
M  V30 9391 H 861.924 3.8499 -0.431441 0
M  V30 9392 H 862.338 4.60393 -2.51274 0
M  V30 9393 H 863.812 5.42621 -1.01321 0
M  V30 9394 H 864.289 4.38017 0.322084 0
M  V30 9395 H 864.895 4.04426 -1.31603 0
M  V30 9396 N 863.21 0.781244 1.36873 0
M  V30 9397 C 864.457 0.349889 1.99454 0
M  V30 9398 C 864.785 -1.07621 1.62013 0
M  V30 9399 O 864.04 -1.75665 0.86258 0
M  V30 9400 C 864.339 0.45146 3.54537 0
M  V30 9401 C 864.005 1.83718 4.11775 0
M  V30 9402 C 862.667 2.21634 4.2712 0
M  V30 9403 C 865.019 2.7449 4.43063 0
M  V30 9404 C 862.347 3.49742 4.7106 0
M  V30 9405 C 864.699 4.02017 4.88431 0
M  V30 9406 C 863.363 4.39967 5.01982 0
M  V30 9407 H 862.633 0.128033 0.729855 0
M  V30 9408 H 865.28 0.997117 1.63493 0
M  V30 9409 H 863.585 -0.279288 3.90803 0
M  V30 9410 H 865.282 0.0988609 4.00878 0
M  V30 9411 H 861.872 1.53251 4.00265 0
M  V30 9412 H 866.056 2.46453 4.30783 0
M  V30 9413 H 861.312 3.79026 4.79738 0
M  V30 9414 H 865.486 4.72475 5.11605 0
M  V30 9415 H 863.113 5.39291 5.35788 0
M  V30 9416 N 864.689 -1.48329 0.532571 0
M  V30 9417 C 865.619 -2.32485 -0.217511 0
M  V30 9418 C 866.6 -1.42255 -0.932598 0
M  V30 9419 O 867.785 -1.7114 -0.917873 0
M  V30 9420 C 864.915 -3.23509 -1.26329 0
M  V30 9421 C 863.869 -4.22784 -0.666191 0
M  V30 9422 C 863.195 -5.0296 -1.81482 0
M  V30 9423 C 864.495 -5.21031 0.363813 0
M  V30 9424 H 866.189 -2.95445 0.485014 0
M  V30 9425 H 863.735 -1.42075 0.234694 0
M  V30 9426 H 865.688 -3.81211 -1.79601 0
M  V30 9427 H 864.412 -2.58554 -1.99543 0
M  V30 9428 H 863.071 -3.66272 -0.15498 0
M  V30 9429 H 862.719 -4.34427 -2.5354 0
M  V30 9430 H 862.419 -5.70154 -1.4212 0
M  V30 9431 H 863.943 -5.63514 -2.35126 0
M  V30 9432 H 865.357 -5.73241 -0.0819079 0
M  V30 9433 H 863.754 -5.96292 0.674956 0
M  V30 9434 H 864.824 -4.6801 1.26865 0
M  V30 9435 N 866.167 -0.267825 -1.55308 0
M  V30 9436 C 867.444 0.402449 -1.91415 0
M  V30 9437 C 867.824 1.7428 -1.1912 0
M  V30 9438 O 867.172 2.2631 -0.315609 0
M  V30 9439 C 867.382 0.549926 -3.4464 0
M  V30 9440 C 868.73 0.836188 -4.16285 0
M  V30 9441 O 869.754 0.635009 -3.50494 0
M  V30 9442 O 868.613 1.22051 -5.32697 0
M  V30 9443 H 865.707 0.219177 -0.797427 0
M  V30 9444 H 868.253 -0.313439 -1.6678 0
M  V30 9445 H 867.025 -0.393641 -3.89315 0
M  V30 9446 H 866.648 1.31556 -3.75205 0
M  V30 9447 N 867.645 1.57599 0.00500368 0
M  V30 9448 C 869.061 1.55463 0.361015 0
M  V30 9449 C 869.261 0.997051 1.75103 0
M  V30 9450 O 868.317 0.628661 2.44549 0
M  V30 9451 C 869.63 2.99734 0.240828 0
M  V30 9452 C 871.178 3.11399 0.316138 0
M  V30 9453 C 871.653 4.57446 0.22513 0
M  V30 9454 N 873.144 4.62334 0.283186 0
M  V30 9455 C 873.879 5.72914 0.23603 0
M  V30 9456 N 873.375 6.92659 0.139762 0
M  V30 9457 N 875.168 5.61364 0.287529 0
M  V30 9458 H 867.319 1.92185 -0.904359 0
M  V30 9459 H 869.582 0.882529 -0.34619 0
M  V30 9460 H 869.288 3.44348 -0.715343 0
M  V30 9461 H 869.162 3.63009 1.02491 0
M  V30 9462 H 871.549 2.66718 1.26275 0
M  V30 9463 H 871.63 2.50911 -0.497725 0
M  V30 9464 H 871.274 5.02801 -0.717917 0
M  V30 9465 H 871.204 5.15874 1.05742 0
M  V30 9466 H 873.695 3.7619 0.359123 0
M  V30 9467 H 874.008 7.72722 0.10954 0
M  V30 9468 H 872.353 6.9492 0.105462 0
M  V30 9469 H 875.544 4.66707 0.360897 0
M  V30 9470 H 875.717 6.47528 0.247313 0
M  V30 9471 N 869.123 -0.277682 1.55134 0
M  V30 9472 C 870.348 -1.03254 1.7987 0
M  V30 9473 C 870.773 -1.79324 0.567861 0
M  V30 9474 O 870.131 -1.74764 -0.4824 0
M  V30 9475 C 870.179 -1.9705 3.02 0
M  V30 9476 O 869.283 -3.05744 2.76757 0
M  V30 9477 H 868.624 -0.295447 0.594649 0
M  V30 9478 H 871.154 -0.308013 2.02268 0
M  V30 9479 H 871.164 -2.3909 3.30606 0
M  V30 9480 H 869.839 -1.41094 3.91236 0
M  V30 9481 H 868.416 -2.68052 2.59235 0
M  V30 9482 N 870.601 -1.47988 -0.541979 0
M  V30 9483 C 871.548 -1.61615 -1.6477 0
M  V30 9484 C 872.518 -0.458602 -1.59644 0
M  V30 9485 O 873.703 -0.680585 -1.78249 0
M  V30 9486 C 870.843 -1.65066 -3.03063 0
M  V30 9487 C 869.956 -2.91845 -3.18513 0
M  V30 9488 C 869.091 -2.86534 -4.47294 0
M  V30 9489 C 868.13 -4.0807 -4.5623 0
M  V30 9490 N 867.267 -4.00905 -5.76385 0
M  V30 9491 H 872.107 -2.56046 -1.52461 0
M  V30 9492 H 869.644 -1.26989 -0.742449 0
M  V30 9493 H 871.602 -1.65049 -3.83164 0
M  V30 9494 H 870.232 -0.74136 -3.14171 0
M  V30 9495 H 869.284 -3.01661 -2.31743 0
M  V30 9496 H 870.596 -3.81804 -3.20978 0
M  V30 9497 H 869.75 -2.84851 -5.35672 0
M  V30 9498 H 868.489 -1.94283 -4.47332 0
M  V30 9499 H 867.494 -4.10041 -3.66261 0
M  V30 9500 H 868.719 -5.01465 -4.5794 0
M  V30 9501 H 866.665 -3.11467 -5.77342 0
M  V30 9502 H 866.582 -4.84557 -5.80293 0
M  V30 9503 H 867.85 -4.03263 -6.67083 0
M  V30 9504 N 872.079 0.78992 -1.36375 0
M  V30 9505 C 873.327 1.54472 -1.30319 0
M  V30 9506 C 873.648 1.94647 0.117338 0
M  V30 9507 O 872.918 1.64906 1.05748 0
M  V30 9508 H 871.498 0.572879 -0.479394 0
M  V30 9509 H 874.16 0.941245 -1.70665 0
M  V30 9510 H 873.256 2.45252 -1.93024 0
M  V30 9511 N 873.557 1.20646 1.01402 0
M  V30 9512 C 874.487 0.98155 2.11867 0
M  V30 9513 C 875.468 -0.0903712 1.6986 0
M  V30 9514 O 876.653 0.0676586 1.94082 0
M  V30 9515 C 873.783 0.535636 3.43145 0
M  V30 9516 C 872.737 1.55109 3.98905 0
M  V30 9517 C 872.063 0.961725 5.2598 0
M  V30 9518 C 873.363 2.93552 4.32001 0
M  V30 9519 H 875.057 1.90544 2.3094 0
M  V30 9520 H 872.603 0.917554 1.10982 0
M  V30 9521 H 874.556 0.365512 4.19812 0
M  V30 9522 H 873.28 -0.423882 3.23838 0
M  V30 9523 H 871.939 1.70862 3.24348 0
M  V30 9524 H 871.587 -0.00580108 5.03 0
M  V30 9525 H 871.287 1.63993 5.64252 0
M  V30 9526 H 872.811 0.802726 6.053 0
M  V30 9527 H 874.225 2.81295 4.99546 0
M  V30 9528 H 872.622 3.58303 4.81393 0
M  V30 9529 H 873.692 3.4508 3.40658 0
M  V30 9530 N 875.035 -1.20752 1.01276 0
M  V30 9531 C 876.281 -1.90302 0.700924 0
M  V30 9532 C 876.614 -1.78406 -0.767142 0
M  V30 9533 O 875.889 -1.16575 -1.55694 0
M  V30 9534 C 876.172 -3.41831 1.13242 0
M  V30 9535 C 876.025 -3.6268 2.66051 0
M  V30 9536 C 877.344 -4.34486 0.700738 0
M  V30 9537 H 874.463 -0.69107 0.256107 0
M  V30 9538 H 877.105 -1.42227 1.25982 0
M  V30 9539 H 875.255 -3.82906 0.656902 0
M  V30 9540 H 876.927 -3.30882 3.21426 0
M  V30 9541 H 875.17 -3.06281 3.07204 0
M  V30 9542 H 875.841 -4.68882 2.91296 0
M  V30 9543 H 878.317 -4.01036 1.10948 0
M  V30 9544 H 877.193 -5.39136 1.03073 0
M  V30 9545 H 877.454 -4.40307 -0.39778 0
M  V30 9546 N 876.513 -0.788492 -1.36457 0
M  V30 9547 C 877.46 -0.18435 -2.30063 0
M  V30 9548 C 878.43 0.67128 -1.51931 0
M  V30 9549 O 879.615 0.620152 -1.8044 0
M  V30 9550 C 876.755 0.675596 -3.38422 0
M  V30 9551 C 875.868 -0.198475 -4.31544 0
M  V30 9552 C 875.003 0.667757 -5.26986 0
M  V30 9553 C 874.042 -0.207825 -6.11747 0
M  V30 9554 N 873.179 0.617335 -6.99381 0
M  V30 9555 H 878.019 -0.988056 -2.81143 0
M  V30 9556 H 875.556 -0.498815 -1.38384 0
M  V30 9557 H 877.514 1.18916 -3.99894 0
M  V30 9558 H 876.144 1.44474 -2.88664 0
M  V30 9559 H 875.196 -0.829995 -3.71235 0
M  V30 9560 H 876.508 -0.873163 -4.91098 0
M  V30 9561 H 875.662 1.24716 -5.93743 0
M  V30 9562 H 874.401 1.37607 -4.67884 0
M  V30 9563 H 873.406 -0.799638 -5.43954 0
M  V30 9564 H 874.631 -0.913729 -6.72925 0
M  V30 9565 H 872.577 1.30996 -6.42788 0
M  V30 9566 H 872.494 0.000307255 -7.56 0
M  V30 9567 H 873.762 1.1806 -7.70508 0
M  V30 9568 N 877.991 1.48044 -0.54043 0
M  V30 9569 C 878.921 2.32597 0.205178 0
M  V30 9570 C 879.902 1.42748 0.925041 0
M  V30 9571 O 881.087 1.71624 0.908784 0
M  V30 9572 C 878.217 3.24175 1.24612 0
M  V30 9573 C 877.171 4.23131 0.64376 0
M  V30 9574 C 876.497 5.03915 1.78812 0
M  V30 9575 C 877.797 5.20831 -0.39144 0
M  V30 9576 H 879.491 2.95184 -0.500676 0
M  V30 9577 H 877.037 1.41948 -0.242225 0
M  V30 9578 H 878.99 3.82158 1.77576 0
M  V30 9579 H 877.714 2.59608 1.98169 0
M  V30 9580 H 876.373 3.66349 0.135554 0
M  V30 9581 H 876.021 4.35765 2.51232 0
M  V30 9582 H 875.721 5.709 1.39094 0
M  V30 9583 H 877.245 5.64753 2.32134 0
M  V30 9584 H 878.659 5.73277 0.0515064 0
M  V30 9585 H 877.056 5.95926 -0.706569 0
M  V30 9586 H 878.126 4.6733 -1.29345 0
M  V30 9587 N 879.47 0.276058 1.55163 0
M  V30 9588 C 880.695 -0.346648 2.04483 0
M  V30 9589 C 881.12 -1.48613 1.15308 0
M  V30 9590 O 880.478 -1.80663 0.151875 0
M  V30 9591 C 880.526 -0.804268 3.51517 0
M  V30 9592 O 879.63 -1.91143 3.65429 0
M  V30 9593 H 878.971 -0.0715251 0.660136 0
M  V30 9594 H 881.501 0.410631 2.00437 0
M  V30 9595 H 881.511 -1.09977 3.92898 0
M  V30 9596 H 880.186 0.0294123 4.1589 0
M  V30 9597 H 878.763 -1.61839 3.3595 0
M  V30 9598 N 880.948 -1.576 0.00335426 0
M  V30 9599 C 881.88 -2.0549 -1.01521 0
M  V30 9600 C 882.893 -0.973441 -1.30491 0
M  V30 9601 O 884.082 -1.25017 -1.27409 0
M  V30 9602 C 881.182 -2.44272 -2.34914 0
M  V30 9603 C 880.355 -3.75191 -2.24835 0
M  V30 9604 C 879.414 -4.00804 -3.40944 0
M  V30 9605 O 878.44 -4.71423 -3.18981 0
M  V30 9606 N 879.642 -3.48961 -4.63904 0
M  V30 9607 H 882.407 -2.93493 -0.60678 0
M  V30 9608 H 879.968 -1.60851 -0.18396 0
M  V30 9609 H 881.96 -2.58518 -3.11369 0
M  V30 9610 H 880.53 -1.6177 -2.67487 0
M  V30 9611 H 879.75 -3.70989 -1.3327 0
M  V30 9612 H 881.038 -4.61013 -2.15277 0
M  V30 9613 H 880.436 -2.9178 -4.84645 0
M  V30 9614 H 878.993 -3.68531 -5.37613 0
M  V30 9615 N 882.426 0.269451 -1.5528 0
M  V30 9616 C 883.674 0.998604 -1.75705 0
M  V30 9617 C 883.995 1.86691 -0.563175 0
M  V30 9618 O 883.265 1.91305 0.421811 0
M  V30 9619 H 881.845 0.371698 -0.647958 0
M  V30 9620 H 884.507 0.292826 -1.92688 0
M  V30 9621 H 883.603 1.63348 -2.6594 0
M  V30 9622 N 883.904 1.48273 0.534124 0
M  V30 9623 C 884.814 1.65162 1.66609 0
M  V30 9624 C 885.83 0.534177 1.65598 0
M  V30 9625 O 887.006 0.804715 1.84625 0
M  V30 9626 C 884.071 1.68354 3.03081 0
M  V30 9627 C 883.132 2.91696 3.1498 0
M  V30 9628 C 882.365 2.94725 4.44941 0
M  V30 9629 O 882.588 2.06285 5.31792 0
M  V30 9630 O 881.522 3.8685 4.61119 0
M  V30 9631 H 885.348 2.60991 1.55298 0
M  V30 9632 H 882.933 1.31626 0.706749 0
M  V30 9633 H 884.815 1.72998 3.84252 0
M  V30 9634 H 883.49 0.756978 3.14725 0
M  V30 9635 H 882.397 2.92586 2.33119 0
M  V30 9636 H 883.73 3.83722 3.0825 0
M  V30 9637 N 885.382 -0.782676 1.36792 0
M  V30 9638 C 886.612 -1.56934 1.3437 0
M  V30 9639 C 887.02 -1.89049 -0.0754828 0
M  V30 9640 O 886.363 -1.51103 -1.04467 0
M  V30 9641 C 886.425 -2.91311 2.10661 0
M  V30 9642 C 886.089 -2.81889 3.59705 0
M  V30 9643 C 887.086 -2.53668 4.53815 0
M  V30 9644 C 884.771 -3.00254 4.02682 0
M  V30 9645 C 886.765 -2.43925 5.8888 0
M  V30 9646 C 884.452 -2.90132 5.37835 0
M  V30 9647 C 885.45 -2.62006 6.30747 0
M  V30 9648 O 885.138 -2.5189 7.63418 0
M  V30 9649 H 884.87 -0.493194 0.462316 0
M  V30 9650 H 887.424 -0.978791 1.80579 0
M  V30 9651 H 885.654 -3.52443 1.59125 0
M  V30 9652 H 887.343 -3.52632 2.01012 0
M  V30 9653 H 888.109 -2.39176 4.21924 0
M  V30 9654 H 883.988 -3.21151 3.30731 0
M  V30 9655 H 887.532 -2.21892 6.6137 0
M  V30 9656 H 883.429 -3.04189 5.69332 0
M  V30 9657 H 884.197 -2.67321 7.73616 0
M  V30 9658 N 886.86 -1.21182 -1.00761 0
M  V30 9659 C 888.109 -1.02166 -1.73911 0
M  V30 9660 C 888.422 0.445638 -1.90456 0
M  V30 9661 O 889.628 0.755132 -2.60787 0
M  V30 9662 C 888.084 -1.77936 -3.12837 0
M  V30 9663 C 887.692 -3.28819 -3.04273 0
M  V30 9664 C 889.436 -1.67319 -3.90134 0
M  V30 9665 C 887.343 -3.97089 -4.38262 0
M  V30 9666 H 886.273 -0.378665 -0.652019 0
M  V30 9667 H 888.924 -1.44891 -1.12601 0
M  V30 9668 H 887.306 -1.28003 -3.74742 0
M  V30 9669 H 888.48 -3.86035 -2.51622 0
M  V30 9670 H 886.795 -3.39949 -2.40465 0
M  V30 9671 H 889.392 -2.15659 -4.8928 0
M  V30 9672 H 889.735 -0.630959 -4.11491 0
M  V30 9673 H 890.268 -2.14716 -3.34876 0
M  V30 9674 H 887.007 -5.01503 -4.22107 0
M  V30 9675 H 886.527 -3.44662 -4.90885 0
M  V30 9676 H 888.206 -4.01854 -5.07072 0
M  V30 9677 N 888.338 1.20213 -1.01915 0
M  V30 9678 C 889.248 2.26763 -0.601311 0
M  V30 9679 C 890.264 1.70185 0.362369 0
M  V30 9680 O 891.44 2.00165 0.222682 0
M  V30 9681 C 888.505 3.46662 0.0512879 0
M  V30 9682 C 887.566 4.18459 -0.958659 0
M  V30 9683 C 886.799 5.32634 -0.337107 0
M  V30 9684 O 887.022 5.63841 0.86251 0
M  V30 9685 O 885.956 5.9258 -1.05511 0
M  V30 9686 H 889.782 2.64725 -1.48844 0
M  V30 9687 H 887.367 1.2688 -0.788784 0
M  V30 9688 H 889.249 4.19345 0.41564 0
M  V30 9689 H 887.924 3.1057 0.912572 0
M  V30 9690 H 886.831 3.47937 -1.37442 0
M  V30 9691 H 888.164 4.58498 -1.78999 0
M  V30 9692 N 889.816 0.795718 1.36037 0
M  V30 9693 C 891.044 0.383153 2.03321 0
M  V30 9694 C 891.459 -1.00246 1.59988 0
M  V30 9695 O 890.816 -1.64406 0.792265 0
M  V30 9696 C 890.867 0.444467 3.58757 0
M  V30 9697 O 890.588 1.77544 4.00512 0
M  V30 9698 C 892.089 0.0233291 4.43294 0
M  V30 9699 H 889.309 0.157061 0.652359 0
M  V30 9700 H 891.853 1.07632 1.73884 0
M  V30 9701 H 890.008 -0.200341 3.86882 0
M  V30 9702 H 890.422 1.73065 4.95125 0
M  V30 9703 H 891.896 0.117361 5.51875 0
M  V30 9704 H 892.373 -1.03007 4.2695 0
M  V30 9705 H 892.979 0.64087 4.20444 0
M  V30 9706 N 891.294 -1.47756 0.548274 0
M  V30 9707 C 892.571 -1.9555 -0.0443603 0
M  V30 9708 C 892.951 -1.49079 -1.49462 0
M  V30 9709 O 892.299 -0.725538 -2.16675 0
M  V30 9710 C 892.509 -3.48879 0.0918425 0
M  V30 9711 C 893.857 -4.2456 -0.0580879 0
M  V30 9712 O 894.881 -3.56195 0.018946 0
M  V30 9713 O 893.74 -5.46048 -0.222261 0
M  V30 9714 H 890.834 -0.824106 -0.0691235 0
M  V30 9715 H 893.38 -1.58196 0.614166 0
M  V30 9716 H 892.152 -3.7548 1.10137 0
M  V30 9717 H 891.775 -3.92975 -0.604704 0
M  V30 9718 N 892.772 -0.284283 -1.55015 0
M  V30 9719 C 893.702 0.592663 -2.25853 0
M  V30 9720 C 894.683 1.15151 -1.25197 0
M  V30 9721 O 895.868 1.18395 -1.53936 0
M  V30 9722 C 892.998 1.77254 -2.98661 0
M  V30 9723 C 891.952 1.34482 -4.06323 0
M  V30 9724 C 891.278 2.60853 -4.66754 0
M  V30 9725 C 892.578 0.488288 -5.20013 0
M  V30 9726 H 894.272 0.00187041 -2.994 0
M  V30 9727 H 891.818 -0.000540402 -1.44 0
M  V30 9728 H 893.771 2.39199 -3.46932 0
M  V30 9729 H 892.495 2.38931 -2.22664 0
M  V30 9730 H 891.154 0.748519 -3.58877 0
M  V30 9731 H 890.802 3.20808 -3.87416 0
M  V30 9732 H 890.502 2.32942 -5.39455 0
M  V30 9733 H 892.026 3.23631 -5.1778 0
M  V30 9734 H 893.44 1.01298 -5.6428 0
M  V30 9735 H 891.837 0.303669 -5.99331 0
M  V30 9736 H 892.907 -0.490727 -4.8241 0
M  V30 9737 N 894.251 1.57596 -0.0117121 0
M  V30 9738 C 895.181 2.12188 0.9746 0
M  V30 9739 C 896.162 1.03379 1.35081 0
M  V30 9740 O 897.347 1.31123 1.4325 0
M  V30 9741 C 894.477 2.63477 2.26268 0
M  V30 9742 C 893.431 3.76917 2.02774 0
M  V30 9743 C 892.757 4.14566 3.37697 0
M  V30 9744 C 894.057 5.03715 1.38089 0
M  V30 9745 H 895.751 2.9485 0.520007 0
M  V30 9746 H 893.297 1.41836 0.248685 0
M  V30 9747 H 895.25 3.00299 2.95633 0
M  V30 9748 H 893.974 1.77953 2.73862 0
M  V30 9749 H 892.633 3.40507 1.35832 0
M  V30 9750 H 892.281 3.26048 3.83016 0
M  V30 9751 H 891.981 4.91 3.22789 0
M  V30 9752 H 893.505 4.53956 4.08358 0
M  V30 9753 H 894.919 5.38233 1.97428 0
M  V30 9754 H 893.316 5.85032 1.33634 0
M  V30 9755 H 894.386 4.83624 0.351575 0
M  V30 9756 N 895.729 -0.261212 1.5542 0
M  V30 9757 C 896.677 -1.34298 1.89913 0
M  V30 9758 C 897.671 -1.50547 0.776665 0
M  V30 9759 O 898.877 -1.52191 0.961139 0
M  V30 9760 H 895.252 -0.4494 0.602946 0
M  V30 9761 H 897.223 -1.02464 2.80256 0
M  V30 9762 C 895.972 -2.69423 2.19788 0
M  V30 9763 H 895.295 -2.57715 3.05652 0
M  V30 9764 H 896.735 -3.44026 2.47835 0
M  V30 9765 C 895.194 -3.21423 1.00939 0
M  V30 9766 O 895.724 -4.00921 0.250034 0
M  V30 9767 N 893.93 -2.7926 0.803883 0
M  V30 9768 H 893.477 -2.14724 1.42308 0
M  V30 9769 H 893.435 -3.14398 0.0103257 0
M  V30 9770 N 897.207 -1.48554 -0.526253 0
M  V30 9771 C 898.155 -1.63804 -1.65139 0
M  V30 9772 C 899.149 -0.504398 -1.61716 0
M  V30 9773 O 900.355 -0.683241 -1.66529 0
M  V30 9774 H 896.73 -0.516071 -0.546969 0
M  V30 9775 H 898.701 -2.58294 -1.49421 0
M  V30 9776 C 897.45 -1.69843 -3.03395 0
M  V30 9777 H 896.773 -2.56438 -3.06724 0
M  V30 9778 H 898.213 -1.84555 -3.81727 0
M  V30 9779 C 896.672 -0.437875 -3.34042 0
M  V30 9780 O 897.202 0.447604 -3.99198 0
M  V30 9781 N 895.408 -0.308444 -2.88958 0
M  V30 9782 H 894.955 -1.02998 -2.36112 0
M  V30 9783 H 894.913 0.533952 -3.09833 0
M  V30 9784 N 898.685 0.775411 -1.37205 0
M  V30 9785 C 899.615 1.90258 -1.35367 0
M  V30 9786 C 900.596 1.68634 -0.222864 0
M  V30 9787 O 901.781 1.89545 -0.422659 0
M  V30 9788 C 898.911 3.27488 -1.15623 0
M  V30 9789 C 897.865 3.63668 -2.25676 0
M  V30 9790 C 897.191 4.994 -1.91059 0
M  V30 9791 C 898.491 3.70797 -3.67841 0
M  V30 9792 H 900.185 1.92053 -2.29687 0
M  V30 9793 H 897.731 0.922597 -1.10563 0
M  V30 9794 H 899.684 4.05976 -1.12968 0
M  V30 9795 H 898.408 3.26117 -0.177573 0
M  V30 9796 H 897.067 2.87486 -2.2748 0
M  V30 9797 H 896.715 4.94565 -0.917324 0
M  V30 9798 H 896.415 5.24576 -2.64751 0
M  V30 9799 H 897.939 5.80291 -1.89985 0
M  V30 9800 H 899.353 4.39444 -3.68187 0
M  V30 9801 H 897.75 4.07468 -4.40556 0
M  V30 9802 H 898.82 2.71549 -4.01732 0
M  V30 9803 N 900.163 1.21714 1.00117 0
M  V30 9804 C 901.393 1.06124 1.77261 0
M  V30 9805 C 901.801 -0.391717 1.85101 0
M  V30 9806 O 901.144 -1.28347 1.31426 0
M  V30 9807 C 901.206 1.58778 3.22536 0
M  V30 9808 C 900.87 3.07289 3.38264 0
M  V30 9809 C 901.867 4.04801 3.26239 0
M  V30 9810 C 899.552 3.46574 3.63582 0
M  V30 9811 C 901.546 5.39585 3.39303 0
M  V30 9812 C 899.233 4.81509 3.76288 0
M  V30 9813 C 900.231 5.77824 3.64155 0
M  V30 9814 O 899.919 7.1031 3.7645 0
M  V30 9815 H 899.651 0.372979 0.563793 0
M  V30 9816 H 902.205 1.61589 1.26799 0
M  V30 9817 H 900.435 0.977129 3.74151 0
M  V30 9818 H 902.124 1.38974 3.81367 0
M  V30 9819 H 902.89 3.75795 3.066 0
M  V30 9820 H 898.769 2.72137 3.72106 0
M  V30 9821 H 902.313 6.14744 3.2975 0
M  V30 9822 H 898.21 5.102 3.95432 0
M  V30 9823 H 898.978 7.17774 3.93374 0
M  V30 9824 N 901.641 -1.19671 1.02551 0
M  V30 9825 C 902.866 -1.93774 0.739363 0
M  V30 9826 C 903.291 -1.74787 -0.695064 0
M  V30 9827 O 902.649 -1.04796 -1.47944 0
M  V30 9828 C 902.697 -3.43684 1.09149 0
M  V30 9829 O 901.801 -4.11874 0.208213 0
M  V30 9830 H 901.142 -0.605064 0.273484 0
M  V30 9831 H 903.672 -1.51846 1.37128 0
M  V30 9832 H 903.682 -3.94339 1.04695 0
M  V30 9833 H 902.357 -3.56826 2.13654 0
M  V30 9834 H 900.934 -3.716 0.311045 0
M  V30 9835 N 903.119 -0.802921 -1.35613 0
M  V30 9836 C 904.051 -0.168461 -2.2858 0
M  V30 9837 C 905.064 0.630123 -1.50111 0
M  V30 9838 O 906.253 0.463086 -1.72388 0
M  V30 9839 C 903.353 0.783943 -3.29708 0
M  V30 9840 C 902.526 0.0325165 -4.37388 0
M  V30 9841 C 901.585 0.902859 -5.18396 0
M  V30 9842 O 900.611 0.355144 -5.68091 0
M  V30 9843 N 901.813 2.22542 -5.36149 0
M  V30 9844 H 904.578 -0.96709 -2.83668 0
M  V30 9845 H 902.139 -0.658043 -1.47924 0
M  V30 9846 H 904.131 1.37034 -3.80794 0
M  V30 9847 H 902.701 1.48339 -2.75162 0
M  V30 9848 H 901.921 -0.735057 -3.87286 0
M  V30 9849 H 903.209 -0.485499 -5.06478 0
M  V30 9850 H 902.607 2.69439 -4.97412 0
M  V30 9851 H 901.164 2.76113 -5.90428 0
M  V30 9852 N 904.597 1.47463 -0.556102 0
M  V30 9853 C 905.846 2.01678 -0.029492 0
M  V30 9854 C 906.159 1.436 1.32809 0
M  V30 9855 O 907.365 1.89472 1.94455 0
M  V30 9856 C 905.821 3.599 -0.00223937 0
M  V30 9857 C 905.429 4.26969 -1.35651 0
M  V30 9858 C 907.173 4.2187 0.471822 0
M  V30 9859 C 905.08 5.77194 -1.28843 0
M  V30 9860 H 904.01 0.753965 -0.00725504 0
M  V30 9861 H 906.661 1.69467 -0.703789 0
M  V30 9862 H 905.043 3.89068 0.737682 0
M  V30 9863 H 906.217 4.09444 -2.11406 0
M  V30 9864 H 904.532 3.76983 -1.76842 0
M  V30 9865 H 907.129 5.31955 0.541139 0
M  V30 9866 H 907.472 3.88968 1.48356 0
M  V30 9867 H 908.005 3.97228 -0.213207 0
M  V30 9868 H 904.744 6.14713 -2.27613 0
M  V30 9869 H 904.264 5.9706 -0.572668 0
M  V30 9870 H 905.943 6.3938 -0.990031 0
M  V30 9871 N 906.075 0.2925 1.54862 0
M  V30 9872 C 907.3 -0.32494 2.04839 0
M  V30 9873 C 907.725 -1.47381 1.16877 0
M  V30 9874 O 907.083 -1.80492 0.171028 0
M  V30 9875 C 907.131 -0.76694 3.5235 0
M  V30 9876 O 906.235 -1.87256 3.67436 0
M  V30 9877 H 905.576 -0.0645195 0.660858 0
M  V30 9878 H 908.106 0.431867 1.9999 0
M  V30 9879 H 908.116 -1.05804 3.94043 0
M  V30 9880 H 906.791 0.0735212 4.15835 0
M  V30 9881 H 905.368 -1.58266 3.37648 0
M  V30 9882 N 907.553 -1.57587 0.0200696 0
M  V30 9883 C 908.8 -1.91424 -0.660525 0
M  V30 9884 C 909.128 -0.895626 -1.72652 0
M  V30 9885 O 908.383 0.096771 -1.95461 0
M  V30 9886 C 908.682 -3.32002 -1.32323 0
M  V30 9887 C 908.348 -4.49223 -0.388487 0
M  V30 9888 C 907.01 -4.81021 -0.131184 0
M  V30 9889 C 909.362 -5.20581 0.253906 0
M  V30 9890 C 906.69 -5.81539 0.776471 0
M  V30 9891 C 909.042 -6.22067 1.14956 0
M  V30 9892 C 907.706 -6.52311 1.41584 0
M  V30 9893 H 906.976 -0.700472 -0.241703 0
M  V30 9894 H 909.623 -1.91333 0.0798991 0
M  V30 9895 H 907.928 -3.28312 -2.13819 0
M  V30 9896 H 909.625 -3.5545 -1.85623 0
M  V30 9897 H 906.215 -4.24391 -0.599207 0
M  V30 9898 H 910.399 -4.96253 0.068164 0
M  V30 9899 H 905.655 -6.03322 0.990575 0
M  V30 9900 H 909.829 -6.76484 1.65357 0
M  V30 9901 H 907.456 -7.30017 2.12083 0
M  V30 9902 N 909.032 0.252966 -1.55557 0
M  V30 9903 C 910.281 0.979736 -1.76307 0
M  V30 9904 C 910.594 1.86714 -0.582871 0
M  V30 9905 O 911.8 2.6302 -0.673247 0
M  V30 9906 C 910.256 1.79205 -3.12112 0
M  V30 9907 C 909.864 0.952333 -4.37761 0
M  V30 9908 C 911.608 2.51191 -3.42203 0
M  V30 9909 C 909.515 1.76018 -5.64599 0
M  V30 9910 H 908.445 0.369538 -0.657235 0
M  V30 9911 H 911.096 0.234619 -1.81994 0
M  V30 9912 H 909.478 2.57888 -3.00515 0
M  V30 9913 H 910.652 0.208251 -4.60329 0
M  V30 9914 H 908.967 0.346082 -4.14959 0
M  V30 9915 H 911.564 3.12074 -4.34182 0
M  V30 9916 H 911.907 3.22499 -2.63249 0
M  V30 9917 H 912.44 1.79523 -3.54988 0
M  V30 9918 H 909.179 1.09095 -6.46358 0
M  V30 9919 H 908.699 2.4797 -5.46142 0
M  V30 9920 H 910.378 2.32884 -6.03634 0
M  V30 9921 N 910.51 1.48831 0.518367 0
M  V30 9922 C 911.458 1.64678 1.64268 0
M  V30 9923 C 912.452 0.512967 1.61447 0
M  V30 9924 O 913.658 0.692063 1.66164 0
M  V30 9925 H 910.033 0.518964 0.544224 0
M  V30 9926 H 912.004 2.59083 1.4805 0
M  V30 9927 C 910.753 1.71449 3.0249 0
M  V30 9928 H 910.076 2.58061 3.0536 0
M  V30 9929 H 911.516 1.86577 3.80743 0
M  V30 9930 C 909.975 0.455584 3.33805 0
M  V30 9931 O 910.505 -0.426428 3.9943 0
M  V30 9932 N 908.711 0.323763 2.88791 0
M  V30 9933 H 908.258 1.04249 2.35563 0
M  V30 9934 H 908.216 -0.517514 3.10112 0
M  V30 9935 N 911.988 -0.768124 1.37614 0
M  V30 9936 C 912.936 -1.9029 1.33763 0
M  V30 9937 C 913.93 -1.67888 0.225814 0
M  V30 9938 O 915.136 -1.75634 0.394043 0
M  V30 9939 H 911.511 -0.625828 0.416945 0
M  V30 9940 H 913.482 -1.90654 2.29551 0
M  V30 9941 C 912.231 -3.27598 1.16511 0
M  V30 9942 H 911.554 -3.45414 2.01318 0
M  V30 9943 H 912.994 -4.07288 1.17867 0
M  V30 9944 C 911.453 -3.36653 -0.129001 0
M  V30 9945 O 911.983 -3.86023 -1.11128 0
M  V30 9946 N 910.189 -2.90036 -0.180926 0
M  V30 9947 H 909.736 -2.5005 0.619076 0
M  V30 9948 H 909.694 -2.96475 -1.04641 0
M  V30 9949 N 913.466 -1.22244 -0.994698 0
M  V30 9950 C 914.706 -1.05747 -1.7492 0
M  V30 9951 C 915.07 0.4007 -1.87772 0
M  V30 9952 O 916.271 0.686469 -2.59887 0
M  V30 9953 C 914.542 -1.7471 -3.11787 0
M  V30 9954 S 916.101 -1.73604 -4.02998 0
M  V30 9955 H 912.919 -0.378731 -0.601734 0
M  V30 9956 H 915.521 -1.55155 -1.18942 0
M  V30 9957 H 914.225 -2.79972 -3.00073 0
M  V30 9958 H 913.756 -1.25525 -3.72836 0
M  V30 9959 H 915.771 -0.784445 -4.8996 0
M  V30 9960 N 914.944 1.19125 -1.03184 0
M  V30 9961 C 916.19 1.89163 -0.731111 0
M  V30 9962 C 916.523 1.79604 0.738662 0
M  V30 9963 O 915.798 1.19037 1.53819 0
M  V30 9964 C 916.081 3.39986 -1.18666 0
M  V30 9965 C 915.934 3.58401 -2.71788 0
M  V30 9966 C 917.253 4.33316 -0.769772 0
M  V30 9967 H 914.372 0.686908 -0.267069 0
M  V30 9968 H 917.014 1.40205 -1.28229 0
M  V30 9969 H 915.164 3.81813 -0.717736 0
M  V30 9970 H 916.836 3.25727 -3.26649 0
M  V30 9971 H 915.079 3.01355 -3.12038 0
M  V30 9972 H 915.75 4.64189 -2.98719 0
M  V30 9973 H 918.226 3.9922 -1.17314 0
M  V30 9974 H 917.102 5.37427 -1.11637 0
M  V30 9975 H 917.363 4.40884 0.327681 0
M  V30 9976 N 916.422 0.810101 1.35185 0
M  V30 9977 C 917.668 0.392698 1.98962 0
M  V30 9978 C 918.001 -1.03835 1.64109 0
M  V30 9979 O 917.276 -1.721 0.9062 0
M  V30 9980 C 917.559 0.580349 3.55393 0
M  V30 9981 C 917.412 2.05658 4.00031 0
M  V30 9982 C 918.731 0.00822618 4.40099 0
M  V30 9983 H 915.85 0.144157 0.722764 0
M  V30 9984 H 918.492 1.02029 1.60281 0
M  V30 9985 H 916.642 0.0461106 3.88473 0
M  V30 9986 H 918.314 2.65348 3.77344 0
M  V30 9987 H 916.557 2.55174 3.50811 0
M  V30 9988 H 917.228 2.13875 5.08883 0
M  V30 9989 H 919.704 0.464517 4.13499 0
M  V30 9990 H 918.58 0.169414 5.48638 0
M  V30 9991 H 918.841 -1.08576 4.2856 0
M  V30 9992 N 917.9 -1.47166 0.563914 0
M  V30 9993 C 919.13 -2.06546 0.0473599 0
M  V30 9994 C 919.538 -1.41607 -1.25476 0
M  V30 9995 O 918.881 -0.50894 -1.76509 0
M  V30 9996 C 918.943 -3.58873 -0.212249 0
M  V30 9997 C 918.607 -4.45893 1.00144 0
M  V30 9998 C 919.604 -4.83594 1.90873 0
M  V30 9999 C 917.289 -4.87309 1.218 0
M  V30 10000 C 919.283 -5.61519 3.01621 0
M  V30 10001 C 916.97 -5.64997 2.32856 0
M  V30 10002 C 917.968 -6.02013 3.22597 0
M  V30 10003 O 917.656 -6.78135 4.31727 0
M  V30 10004 H 917.388 -0.674441 0.0458823 0
M  V30 10005 H 919.942 -1.9006 0.778865 0
M  V30 10006 H 918.172 -3.73596 -0.998145 0
M  V30 10007 H 919.861 -4.00248 -0.675005 0
M  V30 10008 H 920.627 -4.52192 1.7535 0
M  V30 10009 H 916.506 -4.57959 0.528641 0
M  V30 10010 H 920.05 -5.90331 3.71693 0
M  V30 10011 H 915.947 -5.95813 2.48349 0
M  V30 10012 H 916.715 -6.96537 4.29859 0
M  V30 10013 N 919.378 -0.300708 -1.54705 0
M  V30 10014 C 920.626 0.308044 -1.99739 0
M  V30 10015 C 920.947 1.54433 -1.19061 0
M  V30 10016 O 920.217 1.93794 -0.286507 0
M  V30 10017 H 918.797 0.116811 -0.73781 0
M  V30 10018 H 921.459 -0.41197 -1.90496 0
M  V30 10019 H 920.555 0.580287 -3.06658 0
M  V30 10020 N 920.856 1.57574 -0.0284266 0
M  V30 10021 C 922.133 1.83064 0.688979 0
M  V30 10022 C 922.513 0.91219 1.90374 0
M  V30 10023 O 921.861 -0.0323672 2.28477 0
M  V30 10024 C 922.071 3.32262 1.06785 0
M  V30 10025 C 923.419 3.98717 1.45978 0
M  V30 10026 O 924.443 3.36753 1.16085 0
M  V30 10027 O 923.302 5.07927 2.01673 0
M  V30 10028 H 920.396 0.7548 0.337944 0
M  V30 10029 H 922.942 1.69607 -0.0560555 0
M  V30 10030 H 921.714 3.90772 0.203235 0
M  V30 10031 H 921.337 3.50823 1.87107 0
M  V30 10032 N 922.334 -0.244713 1.55689 0
M  V30 10033 C 923.611 -0.995407 1.68378 0
M  V30 10034 C 923.991 -2.03288 0.568949 0
M  V30 10035 O 923.339 -2.24469 -0.427299 0
M  V30 10036 C 923.549 -1.62678 3.08767 0
M  V30 10037 C 924.897 -2.1278 3.67437 0
M  V30 10038 O 925.921 -1.72614 3.11581 0
M  V30 10039 O 924.78 -2.86536 4.65359 0
M  V30 10040 H 921.874 -0.463476 0.684923 0
M  V30 10041 H 924.42 -0.238326 1.68018 0
M  V30 10042 H 923.192 -0.876469 3.81358 0
M  V30 10043 H 922.815 -2.45 3.13146 0
M  V30 10044 N 923.813 -1.49104 -0.510467 0
M  V30 10045 C 925.038 -1.62068 -1.29417 0
M  V30 10046 C 925.463 -0.288432 -1.85875 0
M  V30 10047 O 924.821 0.742667 -1.65391 0
M  V30 10048 C 924.869 -2.68506 -2.40701 0
M  V30 10049 O 923.973 -2.27021 -3.4429 0
M  V30 10050 H 923.314 -0.542778 -0.382476 0
M  V30 10051 H 925.844 -1.95228 -0.612154 0
M  V30 10052 H 925.854 -2.90383 -2.86604 0
M  V30 10053 H 924.529 -3.65216 -1.98973 0
M  V30 10054 H 923.106 -2.15436 -3.04371 0
M  V30 10055 N 925.291 0.760815 -1.38019 0
M  V30 10056 C 926.224 1.88212 -1.2904 0
M  V30 10057 C 927.202 1.61721 -0.168805 0
M  V30 10058 O 928.386 1.85318 -0.344893 0
M  V30 10059 C 925.513 3.23672 -0.997702 0
M  V30 10060 C 924.559 3.6906 -2.13769 0
M  V30 10061 S 925.392 3.81445 -3.75845 0
M  V30 10062 C 926.548 5.19736 -3.48748 0
M  V30 10063 H 926.781 1.95541 -2.23944 0
M  V30 10064 H 924.314 0.923051 -1.2377 0
M  V30 10065 H 926.272 4.01904 -0.835657 0
M  V30 10066 H 924.933 3.14031 -0.065967 0
M  V30 10067 H 924.126 4.67295 -1.88816 0
M  V30 10068 H 923.728 2.97961 -2.26043 0
M  V30 10069 H 926.02 6.05259 -3.04414 0
M  V30 10070 H 926.963 5.49706 -4.46351 0
M  V30 10071 H 927.371 4.88191 -2.83425 0
M  V30 10072 N 926.769 1.22769 0.988202 0
M  V30 10073 C 928.046 0.9635 1.70223 0
M  V30 10074 C 928.426 -0.520102 2.04593 0
M  V30 10075 O 927.774 -1.48934 1.73295 0
M  V30 10076 C 927.984 1.86583 2.94937 0
M  V30 10077 C 929.332 2.12469 3.67616 0
M  V30 10078 O 930.356 1.84069 3.04954 0
M  V30 10079 O 929.215 2.60595 4.80367 0
M  V30 10080 H 926.309 0.362737 0.743203 0
M  V30 10081 H 928.855 1.33776 1.04412 0
M  V30 10082 H 927.627 2.86913 2.66077 0
M  V30 10083 H 927.25 1.49344 3.68486 0
M  V30 10084 N 928.247 -1.18576 1.03814 0
M  V30 10085 C 929.495 -1.88121 0.738574 0
M  V30 10086 C 929.816 -1.80587 -0.735744 0
M  V30 10087 O 929.086 -1.22251 -1.53074 0
M  V30 10088 H 927.666 -0.696417 0.270208 0
M  V30 10089 H 930.328 -1.43912 1.31435 0
M  V30 10090 H 929.424 -2.94222 1.04115 0
M  V30 10091 N 929.725 -0.817259 -1.34754 0
M  V30 10092 C 931.136 -0.462215 -1.80888 0
M  V30 10093 C 931.487 1.01685 -1.67794 0
M  V30 10094 O 930.612 1.79094 -1.21468 0
M  V30 10095 C 931.207 -0.832204 -3.2842 0
M  V30 10096 C 929.766 -0.52961 -3.72655 0
M  V30 10097 C 928.913 -1.05214 -2.56564 0
M  V30 10098 H 931.864 -1.00795 -1.22581 0
M  V30 10099 H 931.885 -0.133804 -3.80265 0
M  V30 10100 H 931.397 -1.90873 -3.37919 0
M  V30 10101 H 929.498 0.537743 -3.68699 0
M  V30 10102 H 929.611 -1.06971 -4.67005 0
M  V30 10103 H 927.975 -0.473949 -2.50251 0
M  V30 10104 H 928.758 -2.135 -2.68836 0
M  V30 10105 N 931.203 1.46865 -0.571711 0
M  V30 10106 C 932.133 2.3298 0.155795 0
M  V30 10107 C 933.114 1.44678 0.894553 0
M  V30 10108 O 934.299 1.73513 0.872176 0
M  V30 10109 C 931.429 3.26745 1.17708 0
M  V30 10110 C 930.383 4.24401 0.553863 0
M  V30 10111 C 929.709 5.07595 1.68083 0
M  V30 10112 C 931.009 5.19884 -0.501827 0
M  V30 10113 H 932.703 2.94056 -0.563176 0
M  V30 10114 H 930.249 1.41402 -0.27228 0
M  V30 10115 H 932.202 3.85838 1.6943 0
M  V30 10116 H 930.926 2.63753 1.92618 0
M  V30 10117 H 929.585 3.66554 0.057815 0
M  V30 10118 H 929.233 4.40996 2.41933 0
M  V30 10119 H 928.933 5.73722 1.26953 0
M  V30 10120 H 930.457 5.6955 2.20103 0
M  V30 10121 H 931.871 5.73257 -0.0701057 0
M  V30 10122 H 930.268 5.94293 -0.832815 0
M  V30 10123 H 931.338 4.64482 -1.39229 0
M  V30 10124 N 932.681 0.308908 1.54543 0
M  V30 10125 C 933.644 -0.550857 2.22482 0
M  V30 10126 C 934.644 -1.0551 1.21344 0
M  V30 10127 O 935.834 -0.949866 1.46025 0
M  V30 10128 C 932.966 -1.76354 2.9174 0
M  V30 10129 H 934.159 0.0428395 2.99869 0
M  V30 10130 H 931.712 0.059825 1.56185 0
M  V30 10131 H 932.447 -2.39686 2.18451 0
M  V30 10132 H 932.232 -1.40954 3.65889 0
M  V30 10133 H 933.722 -2.37417 3.43545 0
M  V30 10134 N 934.159 -1.57557 0.0367827 0
M  V30 10135 C 935.408 -1.91291 -0.639569 0
M  V30 10136 C 935.721 -0.915601 -1.72847 0
M  V30 10137 O 936.927 -1.14447 -2.46199 0
M  V30 10138 C 935.383 -3.39697 -1.18888 0
M  V30 10139 C 934.991 -4.47803 -0.132851 0
M  V30 10140 C 936.735 -3.82487 -1.8413 0
M  V30 10141 C 934.642 -5.87311 -0.694229 0
M  V30 10142 H 933.572 -0.713886 -0.242658 0
M  V30 10143 H 936.223 -1.83209 0.103332 0
M  V30 10144 H 934.605 -3.42736 -1.98363 0
M  V30 10145 H 935.779 -4.56334 0.640009 0
M  V30 10146 H 934.094 -4.14264 0.421264 0
M  V30 10147 H 936.691 -4.84076 -2.27101 0
M  V30 10148 H 937.034 -3.17959 -2.68716 0
M  V30 10149 H 937.567 -3.81903 -1.11332 0
M  V30 10150 H 934.306 -6.55401 0.113667 0
M  V30 10151 H 933.826 -5.82371 -1.4354 0
M  V30 10152 H 935.505 -6.36119 -1.1816 0
M  V30 10153 N 935.637 0.236453 -1.55816 0
M  V30 10154 C 936.886 0.960981 -1.77336 0
M  V30 10155 C 937.199 1.86085 -0.602641 0
M  V30 10156 O 938.405 2.62291 -0.701106 0
M  V30 10157 C 936.861 1.75884 -3.13995 0
M  V30 10158 C 936.469 0.905849 -4.38746 0
M  V30 10159 C 938.213 2.47548 -3.44848 0
M  V30 10160 C 936.12 1.7002 -5.66434 0
M  V30 10161 H 935.05 0.362547 -0.661117 0
M  V30 10162 H 937.701 0.215303 -1.82233 0
M  V30 10163 H 936.083 2.54687 -3.03234 0
M  V30 10164 H 937.257 0.159415 -4.60524 0
M  V30 10165 H 935.572 0.30205 -4.15303 0
M  V30 10166 H 938.169 3.07452 -4.37467 0
M  V30 10167 H 938.512 3.19689 -2.66655 0
M  V30 10168 H 939.045 1.75747 -3.56872 0
M  V30 10169 H 935.784 1.02234 -6.47479 0
M  V30 10170 H 935.304 2.42164 -5.48741 0
M  V30 10171 H 936.983 2.26469 -6.0607 0
M  V30 10172 N 937.115 1.49373 0.502552 0
M  V30 10173 C 938.34 1.62752 1.28556 0
M  V30 10174 C 938.765 0.298285 1.8572 0
M  V30 10175 O 938.123 -0.733885 1.65782 0
M  V30 10176 C 938.171 2.69778 2.39274 0
M  V30 10177 O 937.275 2.28843 3.43081 0
M  V30 10178 H 936.616 0.544799 0.379592 0
M  V30 10179 H 939.146 1.9555 0.601792 0
M  V30 10180 H 939.156 2.91899 2.8506 0
M  V30 10181 H 937.831 3.66266 1.97033 0
M  V30 10182 H 936.408 2.17047 3.03224 0
M  V30 10183 N 938.594 -0.753485 1.38421 0
M  V30 10184 C 939.84 -1.51485 1.34834 0
M  V30 10185 C 940.173 -1.94102 -0.0615381 0
M  V30 10186 O 939.448 -1.65439 -1.02274 0
M  V30 10187 C 939.731 -2.76736 2.30411 0
M  V30 10188 C 939.584 -2.40256 3.80259 0
M  V30 10189 C 940.903 -3.7876 2.24119 0
M  V30 10190 H 938.022 -0.549534 0.491102 0
M  V30 10191 H 940.664 -0.863006 1.6927 0
M  V30 10192 H 938.814 -3.32357 2.01175 0
M  V30 10193 H 940.486 -1.90409 4.20169 0
M  V30 10194 H 938.729 -1.72714 3.97935 0
M  V30 10195 H 939.4 -3.29869 4.42595 0
M  V30 10196 H 941.876 -3.32679 2.49928 0
M  V30 10197 H 940.752 -4.64092 2.93104 0
M  V30 10198 H 941.013 -4.24352 1.24006 0
M  V30 10199 N 940.072 -1.23292 -0.981677 0
M  V30 10200 C 941.349 -0.972514 -1.6971 0
M  V30 10201 C 941.729 0.509244 -2.04866 0
M  V30 10202 O 941.077 1.48013 -1.74082 0
M  V30 10203 C 941.287 -1.88144 -2.93943 0
M  V30 10204 C 942.635 -2.14416 -3.66485 0
M  V30 10205 O 943.659 -1.85684 -3.03974 0
M  V30 10206 O 942.518 -2.63139 -4.78978 0
M  V30 10207 H 939.612 -0.366673 -0.741269 0
M  V30 10208 H 942.158 -1.34328 -1.03701 0
M  V30 10209 H 940.93 -2.8832 -2.64551 0
M  V30 10210 H 940.553 -1.51296 -3.67689 0
M  V30 10211 N 941.55 1.18024 -1.04442 0
M  V30 10212 C 942.497 2.21785 -0.638759 0
M  V30 10213 C 943.467 1.62255 0.355312 0
M  V30 10214 O 944.652 1.89176 0.24844 0
M  V30 10215 C 941.792 3.45098 -0.0118002 0
M  V30 10216 C 940.905 4.1895 -1.05379 0
M  V30 10217 C 940.04 5.2973 -0.394951 0
M  V30 10218 C 939.079 5.95359 -1.42178 0
M  V30 10219 N 938.216 6.97668 -0.787635 0
M  V30 10220 H 943.056 2.55839 -1.52808 0
M  V30 10221 H 940.593 1.25681 -0.764378 0
M  V30 10222 H 942.551 4.15564 0.369075 0
M  V30 10223 H 941.181 3.11652 0.84102 0
M  V30 10224 H 940.233 3.47274 -1.55258 0
M  V30 10225 H 941.545 4.63877 -1.83355 0
M  V30 10226 H 940.699 6.06687 0.0399244 0
M  V30 10227 H 939.438 4.85915 0.416867 0
M  V30 10228 H 938.443 5.17139 -1.86675 0
M  V30 10229 H 939.668 6.41255 -2.23536 0
M  V30 10230 H 937.614 6.56 0.00380893 0
M  V30 10231 H 937.531 7.40867 -1.50505 0
M  V30 10232 H 938.799 7.78586 -0.377282 0
M  V30 10233 N 943.028 0.824394 1.34319 0
M  V30 10234 C 944.258 0.425576 2.02169 0
M  V30 10235 C 944.666 -0.973596 1.62227 0
M  V30 10236 O 944.009 -1.64173 0.824199 0
M  V30 10237 C 944.071 0.449902 3.56674 0
M  V30 10238 C 943.735 1.80266 4.19944 0
M  V30 10239 C 944.732 2.76373 4.40357 0
M  V30 10240 C 942.417 2.09155 4.56683 0
M  V30 10241 C 944.411 3.9954 4.96635 0
M  V30 10242 C 942.098 3.32581 5.12672 0
M  V30 10243 C 943.096 4.27591 5.32592 0
M  V30 10244 O 942.784 5.48837 5.87395 0
M  V30 10245 H 942.516 0.168866 0.654569 0
M  V30 10246 H 945.07 1.11441 1.7254 0
M  V30 10247 H 943.3 -0.295631 3.85568 0
M  V30 10248 H 944.989 0.0709302 4.05838 0
M  V30 10249 H 945.755 2.55351 4.12336 0
M  V30 10250 H 941.634 1.36004 4.40481 0
M  V30 10251 H 945.178 4.73709 5.12099 0
M  V30 10252 H 941.075 3.53466 5.40122 0
M  V30 10253 H 941.843 5.50377 6.05828 0
M  V30 10254 N 944.506 -1.46559 0.579492 0
M  V30 10255 C 945.436 -2.33059 -0.143437 0
M  V30 10256 C 946.417 -1.4515 -0.886868 0
M  V30 10257 O 947.602 -1.73973 -0.862961 0
M  V30 10258 C 944.732 -3.27364 -1.15973 0
M  V30 10259 C 943.686 -4.24689 -0.531348 0
M  V30 10260 C 943.012 -5.08479 -1.65388 0
M  V30 10261 C 944.312 -5.1961 0.529391 0
M  V30 10262 H 946.006 -2.93753 0.578762 0
M  V30 10263 H 943.552 -1.41256 0.279775 0
M  V30 10264 H 945.505 -3.86732 -1.67382 0
M  V30 10265 H 944.229 -2.64771 -1.91217 0
M  V30 10266 H 942.888 -3.6658 -0.0383749 0
M  V30 10267 H 942.536 -4.42273 -2.3959 0
M  V30 10268 H 942.236 -5.74387 -1.23909 0
M  V30 10269 H 943.76 -5.70709 -2.17079 0
M  V30 10270 H 945.174 -5.73212 0.100506 0
M  V30 10271 H 943.571 -5.93843 0.86432 0
M  V30 10272 H 944.641 -4.63737 1.4169 0
M  V30 10273 N 945.984 -0.3171 -1.54377 0
M  V30 10274 C 946.914 0.544623 -2.2706 0
M  V30 10275 C 947.895 1.12469 -1.27611 0
M  V30 10276 O 949.08 1.15103 -1.56413 0
M  V30 10277 C 946.21 1.70879 -3.02353 0
M  V30 10278 C 945.164 1.25833 -4.09084 0
M  V30 10279 C 944.49 2.50894 -4.72182 0
M  V30 10280 C 945.79 0.377876 -5.20931 0
M  V30 10281 H 947.484 -0.0616372 -2.99337 0
M  V30 10282 H 945.03 -0.0310848 -1.43966 0
M  V30 10283 H 946.983 2.31787 -3.51927 0
M  V30 10284 H 945.707 2.34155 -2.27682 0
M  V30 10285 H 944.366 0.672228 -3.60384 0
M  V30 10286 H 944.014 3.12518 -3.94134 0
M  V30 10287 H 943.714 2.21447 -5.44275 0
M  V30 10288 H 945.238 3.12575 -5.24528 0
M  V30 10289 H 946.652 0.893056 -5.66302 0
M  V30 10290 H 945.049 0.176474 -5.9984 0
M  V30 10291 H 946.119 -0.592943 -4.81261 0
M  V30 10292 N 947.462 1.57535 -0.0451378 0
M  V30 10293 C 948.709 1.92451 0.629987 0
M  V30 10294 C 949.037 0.92298 1.71206 0
M  V30 10295 O 948.292 -0.0656626 1.9559 0
M  V30 10296 C 948.591 3.34065 1.27024 0
M  V30 10297 C 948.257 4.49785 0.316971 0
M  V30 10298 C 946.919 4.81169 0.0546406 0
M  V30 10299 C 949.271 5.20111 -0.336693 0
M  V30 10300 C 946.599 5.8023 -0.86889 0
M  V30 10301 C 948.951 6.2016 -1.24838 0
M  V30 10302 C 947.615 6.49976 -1.51944 0
M  V30 10303 H 946.885 0.704228 0.230529 0
M  V30 10304 H 949.532 1.91182 -0.110328 0
M  V30 10305 H 947.837 3.31672 2.08568 0
M  V30 10306 H 949.534 3.58359 1.79945 0
M  V30 10307 H 946.124 4.2529 0.531614 0
M  V30 10308 H 950.308 4.96082 -0.147105 0
M  V30 10309 H 945.564 6.0167 -1.08643 0
M  V30 10310 H 949.738 6.73767 -1.76098 0
M  V30 10311 H 947.365 7.26551 -2.2367 0
M  V30 10312 N 948.94 -0.228186 1.55939 0
M  V30 10313 C 949.87 -1.28607 1.94891 0
M  V30 10314 C 950.851 -1.49236 0.816245 0
M  V30 10315 O 952.036 -1.61531 1.07803 0
M  V30 10316 C 949.166 -2.63719 2.25986 0
M  V30 10317 C 948.12 -2.57757 3.4168 0
M  V30 10318 C 947.446 -3.96837 3.58364 0
M  V30 10319 C 948.746 -2.13116 4.76843 0
M  V30 10320 H 950.44 -0.962531 2.83506 0
M  V30 10321 H 947.986 -0.461577 1.36402 0
M  V30 10322 H 949.939 -3.37878 2.51826 0
M  V30 10323 H 948.663 -2.97747 1.34217 0
M  V30 10324 H 947.322 -1.86055 3.15878 0
M  V30 10325 H 946.97 -4.28162 2.63982 0
M  V30 10326 H 946.67 -3.93731 4.36176 0
M  V30 10327 H 948.194 -4.72668 3.86545 0
M  V30 10328 H 949.608 -2.77015 5.01932 0
M  V30 10329 H 948.005 -2.21083 5.57891 0
M  V30 10330 H 949.075 -1.08326 4.72645 0
M  V30 10331 N 950.418 -1.49637 -0.494624 0
M  V30 10332 C 951.643 -1.63431 -1.27691 0
M  V30 10333 C 952.068 -0.30813 -1.85559 0
M  V30 10334 O 951.426 0.725083 -1.66169 0
M  V30 10335 C 951.474 -2.71043 -2.3784 0
M  V30 10336 O 950.578 -2.3066 -3.41862 0
M  V30 10337 H 949.919 -0.546804 -0.376698 0
M  V30 10338 H 952.449 -1.95866 -0.591413 0
M  V30 10339 H 952.459 -2.93406 -2.83508 0
M  V30 10340 H 951.134 -3.67306 -1.95088 0
M  V30 10341 H 949.711 -2.18652 -3.02069 0
M  V30 10342 N 951.896 0.746133 -1.38819 0
M  V30 10343 C 952.826 1.87344 -1.39372 0
M  V30 10344 C 953.807 1.68123 -0.258583 0
M  V30 10345 O 954.992 1.88606 -0.462769 0
M  V30 10346 C 952.122 3.24962 -1.22543 0
M  V30 10347 C 951.076 3.58799 -2.33339 0
M  V30 10348 C 950.402 4.95235 -2.01609 0
M  V30 10349 C 951.702 3.62911 -3.75624 0
M  V30 10350 H 953.396 1.87138 -2.33709 0
M  V30 10351 H 950.942 0.898937 -1.12495 0
M  V30 10352 H 952.895 4.03488 -1.21554 0
M  V30 10353 H 951.619 3.25667 -0.246707 0
M  V30 10354 H 950.278 2.82596 -2.33527 0
M  V30 10355 H 949.926 4.92508 -1.02202 0
M  V30 10356 H 949.626 5.18843 -2.75819 0
M  V30 10357 H 951.15 5.76131 -2.02251 0
M  V30 10358 H 952.564 4.31535 -3.77426 0
M  V30 10359 H 950.961 3.98031 -4.491 0
M  V30 10360 H 952.031 2.62967 -4.07402 0
M  V30 10361 N 953.375 1.23811 0.975125 0
M  V30 10362 C 954.322 1.02394 2.06843 0
M  V30 10363 C 955.292 -0.060337 1.6599 0
M  V30 10364 O 956.477 0.0928187 1.90574 0
M  V30 10365 C 953.617 0.626882 3.39359 0
M  V30 10366 C 952.73 1.78385 3.9345 0
M  V30 10367 C 951.865 1.33307 5.14201 0
M  V30 10368 C 950.904 2.46045 5.60471 0
M  V30 10369 N 950.041 2.01888 6.72448 0
M  V30 10370 H 954.881 1.95973 2.24496 0
M  V30 10371 H 952.418 0.976206 1.10039 0
M  V30 10372 H 954.376 0.377742 4.15486 0
M  V30 10373 H 953.006 -0.271907 3.21653 0
M  V30 10374 H 952.058 2.14685 3.14029 0
M  V30 10375 H 953.37 2.63122 4.23755 0
M  V30 10376 H 952.524 1.04237 5.97678 0
M  V30 10377 H 951.263 0.456143 4.85562 0
M  V30 10378 H 950.268 2.75884 4.75571 0
M  V30 10379 H 951.493 3.34283 5.91127 0
M  V30 10380 H 949.439 1.16583 6.45558 0
M  V30 10381 H 949.356 2.80182 7.02164 0
M  V30 10382 H 950.624 1.75937 7.59386 0
M  V30 10383 N 954.853 -1.17469 1.05066 0
M  V30 10384 C 956.13 -1.83625 0.673872 0
M  V30 10385 C 956.51 -1.93412 -0.845871 0
M  V30 10386 O 955.858 -1.4677 -1.75131 0
M  V30 10387 C 956.068 -3.21352 1.36139 0
M  V30 10388 C 957.416 -3.97274 1.49863 0
M  V30 10389 O 958.44 -3.30827 1.3203 0
M  V30 10390 O 957.299 -5.16349 1.79013 0
M  V30 10391 H 954.393 -0.792297 0.237055 0
M  V30 10392 H 956.939 -1.24776 1.15017 0
M  V30 10393 H 955.711 -3.0919 2.39827 0
M  V30 10394 H 955.334 -3.87867 0.874364 0
M  V30 10395 N 956.331 -0.831506 -1.3388 0
M  V30 10396 C 957.608 -0.345907 -1.92517 0
M  V30 10397 C 957.988 1.16784 -1.75854 0
M  V30 10398 O 957.336 1.97889 -1.14245 0
M  V30 10399 C 957.546 -0.784692 -3.40064 0
M  V30 10400 C 958.894 -0.78846 -4.17215 0
M  V30 10401 O 959.918 -0.727823 -3.48685 0
M  V30 10402 O 958.777 -0.869481 -5.39539 0
M  V30 10403 H 955.871 -0.0963568 -0.821367 0
M  V30 10404 H 958.417 -0.916868 -1.42799 0
M  V30 10405 H 957.189 -1.82697 -3.46031 0
M  V30 10406 H 956.812 -0.189897 -3.97146 0
M  V30 10407 N 957.809 1.4625 -0.587256 0
M  V30 10408 C 958.757 2.32076 0.156108 0
M  V30 10409 C 959.751 1.44756 0.879887 0
M  V30 10410 O 960.957 1.61356 0.797759 0
M  V30 10411 H 957.332 0.748808 0.0692098 0
M  V30 10412 H 959.303 2.9258 -0.586497 0
M  V30 10413 C 958.052 3.28008 1.15352 0
M  V30 10414 H 957.375 3.9518 0.60601 0
M  V30 10415 H 958.815 3.90832 1.64396 0
M  V30 10416 C 957.274 2.53691 2.21681 0
M  V30 10417 O 957.804 2.30329 3.29107 0
M  V30 10418 N 956.01 2.14174 1.96412 0
M  V30 10419 H 955.557 2.33374 1.09061 0
M  V30 10420 H 955.515 1.6477 2.67765 0
M  V30 10421 N 959.287 0.325282 1.54207 0
M  V30 10422 C 960.22 -0.582485 2.20641 0
M  V30 10423 C 961.198 -1.11441 1.18405 0
M  V30 10424 O 962.382 -1.17809 1.4715 0
M  V30 10425 C 959.509 -1.79944 2.86946 0
M  V30 10426 C 958.555 -1.39861 4.02916 0
M  V30 10427 S 959.388 -0.433859 5.3374 0
M  V30 10428 C 960.544 -1.65806 6.03539 0
M  V30 10429 H 960.777 -0.0181601 2.97294 0
M  V30 10430 H 958.31 0.109365 1.54012 0
M  V30 10431 H 960.268 -2.4977 3.25769 0
M  V30 10432 H 958.929 -2.33495 2.10092 0
M  V30 10433 H 958.122 -2.30547 4.48179 0
M  V30 10434 H 957.724 -0.780036 3.65775 0
M  V30 10435 H 960.016 -2.59524 6.25822 0
M  V30 10436 H 960.959 -1.24756 6.97023 0
M  V30 10437 H 961.367 -1.84581 5.3347 0
M  V30 10438 N 960.765 -1.57509 0.0534917 0
M  V30 10439 C 961.695 -2.14698 -0.917999 0
M  V30 10440 C 962.676 -1.06924 -1.32292 0
M  V30 10441 O 963.861 -1.34875 -1.39723 0
M  V30 10442 C 960.991 -2.69383 -2.19203 0
M  V30 10443 C 959.945 -3.82161 -1.9271 0
M  V30 10444 C 959.271 -4.23373 -3.26587 0
M  V30 10445 C 960.571 -5.07199 -1.24686 0
M  V30 10446 H 962.265 -2.96125 -0.44165 0
M  V30 10447 H 959.811 -1.42446 -0.210993 0
M  V30 10448 H 961.764 -3.08031 -2.87567 0
M  V30 10449 H 960.488 -1.85151 -2.69048 0
M  V30 10450 H 959.147 -3.43989 -1.26757 0
M  V30 10451 H 958.795 -3.36089 -3.74237 0
M  V30 10452 H 958.495 -4.99385 -3.09658 0
M  V30 10453 H 960.019 -4.64623 -3.96178 0
M  V30 10454 H 961.433 -5.43279 -1.83088 0
M  V30 10455 H 959.83 -5.88369 -1.18076 0
M  V30 10456 H 960.9 -4.84386 -0.223227 0
M  V30 10457 N 962.243 0.219913 -1.56058 0
M  V30 10458 C 963.153 1.29349 -1.95719 0
M  V30 10459 C 964.169 1.5119 -0.861248 0
M  V30 10460 O 965.345 1.64289 -1.16495 0
M  V30 10461 C 962.41 2.6229 -2.26726 0
M  V30 10462 C 961.471 2.48738 -3.49897 0
M  V30 10463 C 960.704 3.75339 -3.79416 0
M  V30 10464 O 960.927 4.78427 -3.10586 0
M  V30 10465 O 959.861 3.72352 -4.72903 0
M  V30 10466 H 963.687 0.986979 -2.87215 0
M  V30 10467 H 961.272 0.42291 -1.43289 0
M  V30 10468 H 963.154 3.408 -2.47857 0
M  V30 10469 H 961.829 2.92619 -1.38404 0
M  V30 10470 H 960.736 1.68422 -3.34043 0
M  V30 10471 H 962.069 2.23347 -4.38608 0
M  V30 10472 N 963.721 1.49897 0.486681 0
M  V30 10473 C 964.654 1.6224 1.60479 0
M  V30 10474 C 965.632 0.470964 1.5563 0
M  V30 10475 O 966.816 0.688418 1.75479 0
M  V30 10476 C 963.943 1.59059 2.99028 0
M  V30 10477 C 962.989 2.79575 3.22087 0
M  V30 10478 S 963.822 4.41077 3.03664 0
M  V30 10479 C 964.978 4.40564 4.44583 0
M  V30 10480 H 965.211 2.56822 1.49766 0
M  V30 10481 H 962.744 1.38966 0.672893 0
M  V30 10482 H 964.702 1.5791 3.78913 0
M  V30 10483 H 963.363 0.657405 3.07143 0
M  V30 10484 H 962.556 2.73609 4.23266 0
M  V30 10485 H 962.158 2.78211 2.49949 0
M  V30 10486 H 964.45 4.13166 5.36936 0
M  V30 10487 H 965.393 5.42068 4.55596 0
M  V30 10488 H 965.801 3.70461 4.25933 0
M  V30 10489 N 965.199 -0.738761 1.39212 0
M  V30 10490 C 966.427 -1.52801 1.39497 0
M  V30 10491 C 966.842 -1.88797 -0.0114917 0
M  V30 10492 O 966.199 -1.53835 -0.981887 0
M  V30 10493 C 966.25 -2.81793 2.2644 0
M  V30 10494 O 965.971 -2.47328 3.61608 0
M  V30 10495 C 967.472 -3.75844 2.35067 0
M  V30 10496 H 964.692 -0.472322 0.476606 0
M  V30 10497 H 967.236 -0.913153 1.8298 0
M  V30 10498 H 965.391 -3.3962 1.8638 0
M  V30 10499 H 965.805 -3.30162 4.07545 0
M  V30 10500 H 967.279 -4.6326 3.00157 0
M  V30 10501 H 967.756 -4.17329 1.3687 0
M  V30 10502 H 968.362 -3.23937 2.75581 0
M  V30 10503 N 966.677 -1.24326 -0.968545 0
M  V30 10504 C 967.925 -1.08032 -1.70803 0
M  V30 10505 C 968.246 0.381728 -1.91227 0
M  V30 10506 O 967.516 1.27253 -1.48942 0
M  V30 10507 H 966.096 -0.396777 -0.632912 0
M  V30 10508 H 968.758 -1.56232 -1.16523 0
M  V30 10509 H 967.854 -1.57769 -2.69287 0
M  V30 10510 N 968.156 1.1691 -1.05688 0
M  V30 10511 C 969.402 1.8757 -0.771071 0
M  V30 10512 C 969.735 1.8113 0.700399 0
M  V30 10513 O 969.01 1.22273 1.5126 0
M  V30 10514 C 969.293 3.37392 -1.25851 0
M  V30 10515 C 969.146 3.52556 -2.79329 0
M  V30 10516 C 970.465 4.31585 -0.861512 0
M  V30 10517 H 967.584 0.681089 -0.281579 0
M  V30 10518 H 970.226 1.37453 -1.31174 0
M  V30 10519 H 968.376 3.80204 -0.798563 0
M  V30 10520 H 970.048 3.18725 -3.33485 0
M  V30 10521 H 968.291 2.94668 -3.1836 0
M  V30 10522 H 968.962 4.57748 -3.08498 0
M  V30 10523 H 971.438 3.96642 -1.25756 0
M  V30 10524 H 970.314 5.34939 -1.23012 0
M  V30 10525 H 970.575 4.4148 0.234089 0
M  V30 10526 N 969.634 0.838594 1.33437 0
M  V30 10527 C 970.582 0.260158 2.31141 0
M  V30 10528 C 971.576 -0.607706 1.58124 0
M  V30 10529 O 972.782 -0.497298 1.72994 0
M  V30 10530 H 969.157 0.0654031 0.74915 0
M  V30 10531 H 971.128 1.09874 2.77435 0
M  V30 10532 C 969.877 -0.550234 3.43319 0
M  V30 10533 H 969.2 0.108262 3.99653 0
M  V30 10534 H 970.64 -0.920815 4.1388 0
M  V30 10535 C 969.099 -1.729 2.89149 0
M  V30 10536 O 969.629 -2.82769 2.85315 0
M  V30 10537 N 967.835 -1.5508 2.45761 0
M  V30 10538 H 967.382 -0.657055 2.49079 0
M  V30 10539 H 967.34 -2.34099 2.0987 0
M  V30 10540 N 971.112 -1.45937 0.595003 0
M  V30 10541 C 972.022 -2.34221 -0.133325 0
M  V30 10542 C 973.038 -1.50491 -0.873407 0
M  V30 10543 O 974.214 -1.83328 -0.833828 0
M  V30 10544 C 971.279 -3.27896 -1.12628 0
M  V30 10545 C 970.34 -4.27529 -0.389532 0
M  V30 10546 C 969.573 -5.16729 -1.33519 0
M  V30 10547 O 969.796 -5.09102 -2.57238 0
M  V30 10548 O 968.73 -5.96023 -0.839084 0
M  V30 10549 H 972.556 -2.97877 0.591861 0
M  V30 10550 H 970.141 -1.45113 0.355329 0
M  V30 10551 H 972.023 -3.85654 -1.69851 0
M  V30 10552 H 970.698 -2.6682 -1.83272 0
M  V30 10553 H 969.605 -3.73424 0.224843 0
M  V30 10554 H 970.938 -4.91425 0.276169 0
M  V30 10555 N 972.59 -0.333456 -1.54032 0
M  V30 10556 C 973.522 0.562174 -2.22199 0
M  V30 10557 C 974.535 1.07202 -1.22522 0
M  V30 10558 O 975.724 0.983897 -1.48935 0
M  V30 10559 C 972.824 1.78525 -2.88066 0
M  V30 10560 C 971.997 1.41242 -4.13968 0
M  V30 10561 C 971.056 2.49408 -4.63338 0
M  V30 10562 O 970.082 2.13138 -5.27789 0
M  V30 10563 N 971.284 3.805 -4.38406 0
M  V30 10564 H 974.049 -0.0215629 -2.99692 0
M  V30 10565 H 971.61 -0.157111 -1.61136 0
M  V30 10566 H 973.602 2.50298 -3.18014 0
M  V30 10567 H 972.172 2.2766 -2.14219 0
M  V30 10568 H 971.392 0.525887 -3.90676 0
M  V30 10569 H 972.68 1.13916 -4.95884 0
M  V30 10570 H 972.078 4.12761 -3.86839 0
M  V30 10571 H 970.635 4.48474 -4.72984 0
M  V30 10572 N 974.068 1.57479 -0.061844 0
M  V30 10573 C 975.016 2.13346 0.926629 0
M  V30 10574 C 976.01 1.06787 1.31502 0
M  V30 10575 O 977.216 1.25181 1.29343 0
M  V30 10576 H 973.591 0.682046 0.316729 0
M  V30 10577 H 975.562 2.95279 0.430424 0
M  V30 10578 C 974.311 2.70198 2.18834 0
M  V30 10579 H 973.634 3.51859 1.89829 0
M  V30 10580 H 975.074 3.12897 2.86132 0
M  V30 10581 C 973.533 1.64481 2.9402 0
M  V30 10582 O 974.063 1.0639 3.87355 0
M  V30 10583 N 972.269 1.35749 2.56944 0
M  V30 10584 H 971.816 1.83177 1.81119 0
M  V30 10585 H 971.774 0.652469 3.07555 0
M  V30 10586 N 975.546 -0.211634 1.56173 0
M  V30 10587 C 976.776 -0.949805 1.83473 0
M  V30 10588 C 977.184 -1.78045 0.640053 0
M  V30 10589 O 976.527 -1.79277 -0.400702 0
M  V30 10590 C 976.589 -1.90868 3.04647 0
M  V30 10591 C 976.253 -1.26159 4.39241 0
M  V30 10592 C 977.25 -0.646597 5.15863 0
M  V30 10593 C 974.935 -1.27039 4.85969 0
M  V30 10594 C 976.929 -0.0490313 6.37381 0
M  V30 10595 C 974.616 -0.668987 6.07427 0
M  V30 10596 C 975.614 -0.0593687 6.82974 0
M  V30 10597 O 975.302 0.532656 8.02133 0
M  V30 10598 H 975.034 -0.283458 0.6137 0
M  V30 10599 H 977.588 -0.22894 2.0412 0
M  V30 10600 H 975.818 -2.6688 2.79843 0
M  V30 10601 H 977.507 -2.51323 3.18734 0
M  V30 10602 H 978.273 -0.632056 4.80864 0
M  V30 10603 H 974.152 -1.73429 4.27134 0
M  V30 10604 H 977.696 0.427414 6.96289 0
M  V30 10605 H 973.593 -0.680975 6.41898 0
M  V30 10606 H 974.361 0.427942 8.17381 0
M  V30 10607 N 977.024 -1.50153 -0.478725 0
M  V30 10608 C 977.954 -1.71384 -1.58587 0
M  V30 10609 C 978.935 -0.562705 -1.60523 0
M  V30 10610 O 980.12 -0.80101 -1.76911 0
M  V30 10611 C 977.25 -1.80094 -2.96957 0
M  V30 10612 C 976.204 -2.95218 -3.09888 0
M  V30 10613 C 975.53 -2.89063 -4.49829 0
M  V30 10614 C 976.83 -4.35841 -2.8782 0
M  V30 10615 H 978.524 -2.64081 -1.41073 0
M  V30 10616 H 976.07 -1.27081 -0.677239 0
M  V30 10617 H 978.023 -1.93531 -3.74331 0
M  V30 10618 H 976.747 -0.840131 -3.1561 0
M  V30 10619 H 975.406 -2.81419 -2.34944 0
M  V30 10620 H 975.054 -1.90844 -4.6539 0
M  V30 10621 H 974.754 -3.66345 -4.59418 0
M  V30 10622 H 976.278 -3.04539 -5.29234 0
M  V30 10623 H 977.692 -4.50205 -3.54948 0
M  V30 10624 H 976.089 -5.14515 -3.0886 0
M  V30 10625 H 977.159 -4.48739 -1.83742 0
M  V30 10626 N 978.502 0.731368 -1.39602 0
M  V30 10627 C 979.779 1.48308 -1.27531 0
M  V30 10628 C 980.159 2.10795 0.113482 0
M  V30 10629 O 979.507 1.98886 1.12501 0
M  V30 10630 C 979.717 2.53156 -2.40235 0
M  V30 10631 C 981.065 3.19436 -2.79725 0
M  V30 10632 O 982.089 2.6347 -2.39712 0
M  V30 10633 O 980.948 4.20714 -3.48801 0
M  V30 10634 H 978.042 0.658753 -0.499973 0
M  V30 10635 H 980.588 0.764884 -1.51485 0
M  V30 10636 H 979.36 2.05387 -3.33064 0
M  V30 10637 H 978.983 3.3253 -2.17966 0
M  V30 10638 N 979.98 1.24838 0.961938 0
M  V30 10639 C 980.927 1.04582 2.05745 0
M  V30 10640 C 981.897 -0.0427281 1.66045 0
M  V30 10641 O 983.082 0.113026 1.90465 0
M  V30 10642 C 980.222 0.66284 3.38675 0
M  V30 10643 C 979.335 1.82548 3.91536 0
M  V30 10644 C 978.47 1.38753 5.12758 0
M  V30 10645 C 977.509 2.51976 5.5783 0
M  V30 10646 N 976.646 2.09009 6.70268 0
M  V30 10647 H 981.486 1.98343 2.22405 0
M  V30 10648 H 979.023 0.987822 1.08998 0
M  V30 10649 H 980.981 0.421788 4.15062 0
M  V30 10650 H 979.611 -0.237776 3.21923 0
M  V30 10651 H 978.663 2.18004 3.11735 0
M  V30 10652 H 979.975 2.67601 4.20941 0
M  V30 10653 H 979.129 1.1057 5.96539 0
M  V30 10654 H 977.868 0.507618 4.85051 0
M  V30 10655 H 976.873 2.80912 4.72619 0
M  V30 10656 H 978.098 3.40534 5.87549 0
M  V30 10657 H 976.044 1.23423 6.44285 0
M  V30 10658 H 975.961 2.87613 6.99153 0
M  V30 10659 H 977.229 1.83981 7.57477 0
M  V30 10660 N 981.458 -1.16348 1.06306 0
M  V30 10661 C 982.388 -2.2291 0.695234 0
M  V30 10662 C 983.369 -1.67208 -0.312343 0
M  V30 10663 O 984.554 -1.93293 -0.187442 0
M  V30 10664 C 981.684 -3.47205 0.0810149 0
M  V30 10665 C 980.638 -4.15801 1.01458 0
M  V30 10666 C 979.964 -5.3405 0.263656 0
M  V30 10667 C 981.264 -4.66766 2.34365 0
M  V30 10668 H 982.958 -2.53934 1.58613 0
M  V30 10669 H 980.504 -1.22056 0.76409 0
M  V30 10670 H 982.457 -4.2098 -0.18818 0
M  V30 10671 H 981.181 -3.15482 -0.844897 0
M  V30 10672 H 979.84 -3.43954 1.26852 0
M  V30 10673 H 979.488 -4.9858 -0.665378 0
M  V30 10674 H 979.188 -5.80885 0.88582 0
M  V30 10675 H 980.712 -6.106 0.00200994 0
M  V30 10676 H 982.126 -5.3212 2.13356 0
M  V30 10677 H 980.523 -5.24223 2.9208 0
M  V30 10678 H 981.593 -3.82969 2.97426 0
M  V30 10679 N 982.937 -0.845659 -1.3299 0
M  V30 10680 C 984.165 -0.45835 -2.01759 0
M  V30 10681 C 984.58 0.94239 -1.63598 0
M  V30 10682 O 983.937 1.61353 -0.852738 0
M  V30 10683 C 983.988 -0.577311 -3.5686 0
M  V30 10684 O 983.709 -1.92287 -3.93646 0
M  V30 10685 C 985.21 -0.187839 -4.42902 0
M  V30 10686 H 982.43 -0.181165 -0.646081 0
M  V30 10687 H 984.974 -1.14011 -1.6977 0
M  V30 10688 H 983.129 0.0566146 -3.87359 0
M  V30 10689 H 983.543 -1.91322 -4.88361 0
M  V30 10690 H 985.017 -0.322105 -5.51059 0
M  V30 10691 H 985.494 0.870896 -4.30479 0
M  V30 10692 H 986.1 -0.796473 -4.17776 0
M  V30 10693 N 984.415 1.45619 -0.602734 0
M  V30 10694 C 985.692 1.9558 -0.0282472 0
M  V30 10695 C 986.072 1.54523 1.43826 0
M  V30 10696 O 985.42 0.805456 2.13833 0
M  V30 10697 C 985.63 3.48298 -0.221263 0
M  V30 10698 C 986.978 4.24483 -0.0995249 0
M  V30 10699 O 988.002 3.55879 -0.151132 0
M  V30 10700 O 986.861 5.46497 0.0194454 0
M  V30 10701 H 983.955 0.826104 0.0384897 0
M  V30 10702 H 986.501 1.55808 -0.672456 0
M  V30 10703 H 985.273 3.71134 -1.23997 0
M  V30 10704 H 984.896 3.94948 0.458437 0
M  V30 10705 N 985.893 0.34162 1.53853 0
M  V30 10706 C 987.17 -0.310664 1.93117 0
M  V30 10707 C 987.55 -1.68398 1.273 0
M  V30 10708 O 986.898 -2.24546 0.423225 0
M  V30 10709 C 987.108 -0.384867 3.46871 0
M  V30 10710 C 988.456 -0.636621 4.198 0
M  V30 10711 O 989.48 -0.467061 3.53125 0
M  V30 10712 O 988.339 -0.964962 5.37913 0
M  V30 10713 H 985.433 -0.180881 0.806977 0
M  V30 10714 H 987.979 0.392656 1.65095 0
M  V30 10715 H 986.751 0.57894 3.86994 0
M  V30 10716 H 986.374 -1.13505 3.81054 0
M  V30 10717 N 987.371 -1.57444 0.0701946 0
M  V30 10718 C 988.319 -2.13834 -0.915302 0
M  V30 10719 C 989.313 -1.07483 -1.30934 0
M  V30 10720 O 990.519 -1.25865 -1.28678 0
M  V30 10721 H 986.894 -0.683716 -0.313108 0
M  V30 10722 H 988.865 -2.95503 -0.414758 0
M  V30 10723 C 987.614 -2.71355 -2.17398 0
M  V30 10724 H 986.937 -3.52861 -1.87961 0
M  V30 10725 H 988.377 -3.1441 -2.84469 0
M  V30 10726 C 986.836 -1.66038 -2.93143 0
M  V30 10727 O 987.366 -1.08443 -3.86786 0
M  V30 10728 N 985.572 -1.3711 -2.56221 0
M  V30 10729 H 985.119 -1.84135 -1.80145 0
M  V30 10730 H 985.077 -0.66877 -3.07205 0
M  V30 10731 N 988.849 0.203349 -1.56283 0
M  V30 10732 C 990.098 0.92315 -1.79334 0
M  V30 10733 C 990.411 1.84765 -0.641977 0
M  V30 10734 O 991.617 2.60745 -0.756584 0
M  V30 10735 C 990.073 1.69184 -3.17655 0
M  V30 10736 C 989.681 0.812581 -4.40569 0
M  V30 10737 C 991.425 2.40177 -3.50022 0
M  V30 10738 C 989.332 1.57967 -5.69913 0
M  V30 10739 H 988.262 0.348442 -0.668659 0
M  V30 10740 H 990.913 0.1766 -1.82648 0
M  V30 10741 H 989.295 2.48197 -3.08568 0
M  V30 10742 H 990.469 0.0616956 -4.60759 0
M  V30 10743 H 988.784 0.21389 -4.1585 0
M  V30 10744 H 991.381 2.98103 -4.4389 0
M  V30 10745 H 991.724 3.13961 -2.73376 0
M  V30 10746 H 992.257 1.68138 -3.6052 0
M  V30 10747 H 988.996 0.884767 -6.49501 0
M  V30 10748 H 988.516 2.3047 -5.53754 0
M  V30 10749 H 990.195 2.13562 -6.10737 0
M  V30 10750 N 990.327 1.50405 0.470755 0
M  V30 10751 C 991.275 1.6982 1.58946 0
M  V30 10752 C 992.269 0.56407 1.59733 0
M  V30 10753 O 993.475 0.744576 1.63878 0
M  V30 10754 H 989.85 0.536016 0.527438 0
M  V30 10755 H 991.821 2.63662 1.39732 0
M  V30 10756 C 990.57 1.80986 2.96883 0
M  V30 10757 H 989.893 2.67645 2.96996 0
M  V30 10758 H 991.333 1.98596 3.74614 0
M  V30 10759 C 989.792 0.561551 3.32187 0
M  V30 10760 O 990.322 -0.299136 4.00585 0
M  V30 10761 N 988.528 0.415476 2.87615 0
M  V30 10762 H 988.075 1.11691 2.32127 0
M  V30 10763 H 988.033 -0.418592 3.11601 0
M  V30 10764 N 991.805 -0.723954 1.39988 0
M  V30 10765 C 992.753 -1.85938 1.39749 0
M  V30 10766 C 993.747 -1.67085 0.279112 0
M  V30 10767 O 994.953 -1.74291 0.44972 0
M  V30 10768 H 991.328 -0.612246 0.436644 0
M  V30 10769 H 993.299 -1.83255 2.355 0
M  V30 10770 C 992.048 -3.23726 1.26874 0
M  V30 10771 H 991.371 -3.38835 2.12206 0
M  V30 10772 H 992.811 -4.03332 1.30765 0
M  V30 10773 C 991.27 -3.36893 -0.0218317 0
M  V30 10774 O 991.8 -3.89363 -0.987905 0
M  V30 10775 N 990.006 -2.90465 -0.0885618 0
M  V30 10776 H 989.553 -2.47954 0.698314 0
M  V30 10777 H 989.511 -2.99654 -0.951557 0
M  V30 10778 N 993.283 -1.25346 -0.955304 0
M  V30 10779 C 994.231 -1.05461 -2.07318 0
M  V30 10780 C 995.225 0.0142699 -1.69394 0
M  V30 10781 O 996.431 -0.141292 -1.79445 0
M  V30 10782 H 992.806 -0.324095 -0.678577 0
M  V30 10783 H 994.777 -2.00231 -2.21247 0
M  V30 10784 C 993.526 -0.689329 -3.40798 0
M  V30 10785 H 992.849 -1.50362 -3.70447 0
M  V30 10786 H 994.289 -0.589883 -4.19877 0
M  V30 10787 C 992.748 0.604556 -3.31431 0
M  V30 10788 O 993.278 1.64686 -3.6639 0
M  V30 10789 N 991.484 0.589927 -2.84549 0
M  V30 10790 H 991.031 -0.258647 -2.56298 0
M  V30 10791 H 990.989 1.4558 -2.78664 0
M  V30 10792 N 994.761 1.15782 -1.06922 0
M  V30 10793 C 996.01 1.85807 -0.784774 0
M  V30 10794 C 996.323 1.82967 0.691551 0
M  V30 10795 O 997.529 2.48632 1.0906 0
M  V30 10796 C 995.985 3.33469 -1.35375 0
M  V30 10797 C 995.593 3.44766 -2.86077 0
M  V30 10798 C 997.337 4.08707 -1.14713 0
M  V30 10799 C 995.244 4.86551 -3.36187 0
M  V30 10800 H 994.174 0.696046 -0.28989 0
M  V30 10801 H 996.825 1.30629 -1.28873 0
M  V30 10802 H 995.207 3.88292 -0.77754 0
M  V30 10803 H 996.381 3.00073 -3.49704 0
M  V30 10804 H 994.696 2.82969 -3.05479 0
M  V30 10805 H 997.293 5.13336 -1.49633 0
M  V30 10806 H 997.636 4.16211 -0.0858868 0
M  V30 10807 H 998.169 3.60142 -1.68946 0
M  V30 10808 H 994.908 4.84229 -4.41818 0
M  V30 10809 H 994.428 5.31844 -2.77312 0
M  V30 10810 H 996.107 5.55392 -3.31887 0
M  V30 10811 N 996.239 0.8527 1.3254 0
M  V30 10812 C 997.486 0.455123 1.97319 0
M  V30 10813 C 997.814 -0.988814 1.67489 0
M  V30 10814 O 997.069 -1.70845 0.954483 0
M  V30 10815 C 997.368 0.638757 3.51646 0
M  V30 10816 C 997.034 2.05287 4.01458 0
M  V30 10817 C 995.696 2.43963 4.14771 0
M  V30 10818 C 998.048 2.9759 4.27889 0
M  V30 10819 C 995.376 3.7422 4.51859 0
M  V30 10820 C 997.728 4.27343 4.66434 0
M  V30 10821 C 996.392 4.65957 4.77954 0
M  V30 10822 H 995.662 0.166541 0.722042 0
M  V30 10823 H 998.309 1.08238 1.57977 0
M  V30 10824 H 996.614 -0.0717394 3.91734 0
M  V30 10825 H 998.311 0.311219 3.9979 0
M  V30 10826 H 994.901 1.74253 3.91579 0
M  V30 10827 H 999.085 2.68942 4.17114 0
M  V30 10828 H 994.341 4.03923 4.58973 0
M  V30 10829 H 998.515 4.9893 4.85841 0
M  V30 10830 H 996.142 5.66934 5.06449 0
M  V30 10831 N 997.718 -1.45297 0.610449 0
M  V30 10832 C 998.648 -2.33311 -0.0939698 0
M  V30 10833 C 999.629 -1.46999 -0.85588 0
M  V30 10834 O 1000.81 -1.75764 -0.825865 0
M  V30 10835 C 997.944 -3.29751 -1.09003 0
M  V30 10836 C 996.898 -4.2572 -0.441146 0
M  V30 10837 C 996.224 -5.11873 -1.54566 0
M  V30 10838 C 997.524 -5.1837 0.639489 0
M  V30 10839 H 999.218 -2.92459 0.640941 0
M  V30 10840 H 996.764 -1.40631 0.309675 0
M  V30 10841 H 998.717 -3.90195 -1.59141 0
M  V30 10842 H 997.441 -2.68768 -1.85557 0
M  V30 10843 H 996.1 -3.66579 0.0393908 0
M  V30 10844 H 995.748 -4.47256 -2.30155 0
M  V30 10845 H 995.448 -5.76886 -1.11698 0
M  V30 10846 H 996.972 -5.75185 -2.04925 0
M  V30 10847 H 998.386 -5.7287 0.22207 0
M  V30 10848 H 996.783 -5.91876 0.990089 0
M  V30 10849 H 997.853 -4.60627 1.51495 0
M  V30 10850 N 999.196 -0.349774 -1.5367 0
M  V30 10851 C 1000.47 0.300419 -1.93279 0
M  V30 10852 C 1000.85 1.67721 -1.28191 0
M  V30 10853 O 1000.2 2.24319 -0.435127 0
M  V30 10854 C 1000.41 0.366466 -3.47071 0
M  V30 10855 C 1001.76 0.614349 -4.20132 0
M  V30 10856 O 1002.78 0.448327 -3.53367 0
M  V30 10857 O 1001.64 0.936421 -5.38417 0
M  V30 10858 H 998.736 0.176599 -0.807924 0
M  V30 10859 H 1001.28 -0.401405 -1.64884 0
M  V30 10860 H 1000.05 -0.599455 -3.86681 0
M  V30 10861 H 999.677 1.11482 -3.81651 0
M  V30 10862 N 1000.67 1.57404 -0.0785433 0
M  V30 10863 C 1001.9 1.97787 0.596995 0
M  V30 10864 C 1002.31 0.955904 1.63276 0
M  V30 10865 O 1001.65 -0.0649169 1.83585 0
M  V30 10866 C 1001.72 3.34499 1.31723 0
M  V30 10867 C 1001.38 4.54933 0.434144 0
M  V30 10868 C 1002.38 5.18969 -0.311015 0
M  V30 10869 C 1000.06 5.01029 0.357046 0
M  V30 10870 C 1002.06 6.27457 -1.12142 0
M  V30 10871 C 999.744 6.09389 -0.457029 0
M  V30 10872 C 1000.74 6.72466 -1.19493 0
M  V30 10873 O 1000.43 7.78738 -1.99556 0
M  V30 10874 H 1000.16 0.655294 0.166028 0
M  V30 10875 H 1002.72 2.04855 -0.149517 0
M  V30 10876 H 1000.95 3.24064 2.10996 0
M  V30 10877 H 1002.63 3.5944 1.88567 0
M  V30 10878 H 1003.4 4.84297 -0.261084 0
M  V30 10879 H 999.28 4.51706 0.921026 0
M  V30 10880 H 1002.82 6.76622 -1.69788 0
M  V30 10881 H 998.721 6.43494 -0.508499 0
M  V30 10882 H 999.489 7.95648 -1.9206 0
M  V30 10883 N 1002.15 -0.195058 1.56388 0
M  V30 10884 C 1003.4 -0.9168 1.80894 0
M  V30 10885 C 1003.73 -1.82907 0.652592 0
M  V30 10886 O 1003.01 -1.91382 -0.346853 0
M  V30 10887 C 1003.29 -1.733 3.15657 0
M  V30 10888 C 1003.14 -0.845449 4.41783 0
M  V30 10889 C 1004.46 -2.70557 3.47112 0
M  V30 10890 H 1001.58 -0.331861 0.658056 0
M  V30 10891 H 1004.22 -0.184174 1.89105 0
M  V30 10892 H 1002.37 -2.3576 3.08787 0
M  V30 10893 H 1004.04 -0.235557 4.60698 0
M  V30 10894 H 1002.29 -0.152172 4.33533 0
M  V30 10895 H 1002.96 -1.45152 5.32574 0
M  V30 10896 H 1005.43 -2.1823 3.54281 0
M  V30 10897 H 1004.31 -3.24749 4.42526 0
M  V30 10898 H 1004.57 -3.49605 2.70608 0
M  V30 10899 N 1003.63 -1.50653 -0.462772 0
M  V30 10900 C 1004.58 -1.70122 -1.55971 0
M  V30 10901 C 1005.55 -0.542581 -1.56988 0
M  V30 10902 O 1006.73 -0.774114 -1.74391 0
M  V30 10903 C 1003.87 -1.80899 -2.93887 0
M  V30 10904 C 1002.98 -3.08318 -3.02595 0
M  V30 10905 C 1002.12 -3.09841 -4.31477 0
M  V30 10906 C 1001.16 -4.3168 -4.33957 0
M  V30 10907 N 1000.3 -4.30894 -5.54323 0
M  V30 10908 H 1005.14 -2.63768 -1.38674 0
M  V30 10909 H 1002.67 -1.30746 -0.674091 0
M  V30 10910 H 1004.63 -1.85128 -3.73876 0
M  V30 10911 H 1003.26 -0.906854 -3.098 0
M  V30 10912 H 1002.31 -3.13521 -2.15427 0
M  V30 10913 H 1003.62 -3.98282 -3.00288 0
M  V30 10914 H 1002.78 -3.12845 -5.1982 0
M  V30 10915 H 1001.52 -2.17722 -4.36404 0
M  V30 10916 H 1000.52 -4.28879 -3.4401 0
M  V30 10917 H 1001.75 -5.25035 -4.30715 0
M  V30 10918 H 999.694 -3.41633 -5.6002 0
M  V30 10919 H 999.611 -5.14636 -5.53792 0
M  V30 10920 H 1000.88 -4.38056 -6.44769 0
M  V30 10921 N 1005.11 0.71652 -1.4037 0
M  V30 10922 C 1006.02 1.86074 -1.42876 0
M  V30 10923 C 1007.03 1.71005 -0.321475 0
M  V30 10924 O 1008.21 1.93286 -0.565909 0
M  V30 10925 C 1005.28 3.21862 -1.28863 0
M  V30 10926 C 1004.34 3.49193 -2.49726 0
M  V30 10927 C 1003.57 4.78502 -2.36372 0
M  V30 10928 O 1003.79 5.53529 -1.37703 0
M  V30 10929 O 1002.73 5.06147 -3.25728 0
M  V30 10930 H 1006.55 1.86916 -2.39366 0
M  V30 10931 H 1004.14 0.866818 -1.21683 0
M  V30 10932 H 1006.02 4.02972 -1.23253 0
M  V30 10933 H 1004.69 3.2175 -0.354783 0
M  V30 10934 H 1003.6 2.68095 -2.60913 0
M  V30 10935 H 1004.93 3.54101 -3.41868 0
M  V30 10936 N 1006.59 1.25851 0.948643 0
M  V30 10937 C 1007.53 1.06759 2.04625 0
M  V30 10938 C 1008.5 -0.0251144 1.66081 0
M  V30 10939 O 1009.69 0.133221 1.90334 0
M  V30 10940 C 1006.83 0.698724 3.37952 0
M  V30 10941 C 1005.94 1.8669 3.89578 0
M  V30 10942 C 1005.08 1.44184 5.11258 0
M  V30 10943 C 1004.12 2.57878 5.55126 0
M  V30 10944 N 1003.25 2.16106 6.68014 0
M  V30 10945 H 1008.09 2.00691 2.20289 0
M  V30 10946 H 1005.63 0.999327 1.07944 0
M  V30 10947 H 1007.59 0.465788 4.14592 0
M  V30 10948 H 1006.22 -0.203618 3.22157 0
M  V30 10949 H 1005.27 2.21298 3.09405 0
M  V30 10950 H 1006.58 2.72051 4.18079 0
M  V30 10951 H 1005.74 1.16891 5.95333 0
M  V30 10952 H 1004.47 0.559035 4.84485 0
M  V30 10953 H 1003.48 2.85909 4.69612 0
M  V30 10954 H 1004.7 3.46747 5.83904 0
M  V30 10955 H 1002.65 1.3025 6.42939 0
M  V30 10956 H 1002.57 2.95012 6.96063 0
M  V30 10957 H 1003.84 1.92005 7.55483 0
M  V30 10958 N 1008.06 -1.15214 1.07534 0
M  V30 10959 C 1009 -2.18999 0.641461 0
M  V30 10960 C 1009.98 -1.58958 -0.342238 0
M  V30 10961 O 1011.16 -1.86859 -0.248218 0
M  V30 10962 C 1008.29 -3.38651 -0.0577939 0
M  V30 10963 C 1007.33 -4.17225 0.884641 0
M  V30 10964 S 1008.17 -4.79375 2.38663 0
M  V30 10965 C 1009.32 -6.02393 1.69923 0
M  V30 10966 H 1009.55 -2.55464 1.52071 0
M  V30 10967 H 1007.09 -1.26205 0.889481 0
M  V30 10968 H 1009.05 -4.07971 -0.454982 0
M  V30 10969 H 1007.71 -3.00526 -0.913407 0
M  V30 10970 H 1006.9 -5.02837 0.342133 0
M  V30 10971 H 1006.5 -3.53463 1.2223 0
M  V30 10972 H 1008.79 -6.69899 1.01201 0
M  V30 10973 H 1009.74 -6.61216 2.53375 0
M  V30 10974 H 1010.14 -5.52106 1.1764 0
M  V30 10975 N 1009.54 -0.859717 -1.32086 0
M  V30 10976 C 1010.47 -0.323502 -2.31248 0
M  V30 10977 C 1011.45 0.580085 -1.59903 0
M  V30 10978 O 1012.64 0.499265 -1.87673 0
M  V30 10979 C 1009.77 0.484661 -3.43902 0
M  V30 10980 C 1008.72 -0.324933 -4.26765 0
M  V30 10981 C 1008.05 0.608281 -5.31229 0
M  V30 10982 C 1009.35 -1.55344 -4.98664 0
M  V30 10983 H 1011.04 -1.15209 -2.76346 0
M  V30 10984 H 1008.59 -0.555442 -1.32856 0
M  V30 10985 H 1010.54 0.870238 -4.12316 0
M  V30 10986 H 1009.27 1.34666 -2.97544 0
M  V30 10987 H 1007.92 -0.692328 -3.60003 0
M  V30 10988 H 1007.57 1.46727 -4.81124 0
M  V30 10989 H 1007.27 0.0705571 -5.87558 0
M  V30 10990 H 1008.8 0.990925 -6.02506 0
M  V30 10991 H 1010.21 -1.23987 -5.59732 0
M  V30 10992 H 1008.61 -2.02947 -5.64741 0
M  V30 10993 H 1009.68 -2.31192 -4.26237 0
M  V30 10994 N 1011.02 1.44971 -0.618145 0
M  V30 10995 C 1011.93 2.34403 0.0960457 0
M  V30 10996 C 1012.95 1.51862 0.849355 0
M  V30 10997 O 1014.12 1.84632 0.804557 0
M  V30 10998 C 1011.19 3.29646 1.07397 0
M  V30 10999 C 1010.25 4.28095 0.321466 0
M  V30 11000 C 1009.48 5.18787 1.25281 0
M  V30 11001 O 1009.7 5.1313 2.49106 0
M  V30 11002 O 1008.64 5.97282 0.744156 0
M  V30 11003 H 1012.46 2.96898 -0.639176 0
M  V30 11004 H 1010.05 1.44529 -0.37837 0
M  V30 11005 H 1011.93 3.88307 1.63694 0
M  V30 11006 H 1010.61 2.69702 1.79004 0
M  V30 11007 H 1009.51 3.73019 -0.284223 0
M  V30 11008 H 1010.85 4.90923 -0.354315 0
M  V30 11009 N 1012.5 0.357919 1.53482 0
M  V30 11010 C 1013.74 -0.23451 2.0144 0
M  V30 11011 C 1014.08 -1.49044 1.24497 0
M  V30 11012 O 1013.35 -1.91566 0.336535 0
M  V30 11013 C 1013.64 -0.534193 3.56116 0
M  V30 11014 C 1013.49 0.734834 4.43757 0
M  V30 11015 C 1014.81 -1.33793 4.1927 0
M  V30 11016 H 1011.93 -0.0837595 0.732225 0
M  V30 11017 H 1014.57 0.481297 1.83803 0
M  V30 11018 H 1012.72 -1.144 3.71275 0
M  V30 11019 H 1014.39 1.37251 4.40409 0
M  V30 11020 H 1012.63 1.35678 4.12036 0
M  V30 11021 H 1013.3 0.48021 5.49907 0
M  V30 11022 H 1015.78 -0.822158 4.07897 0
M  V30 11023 H 1014.66 -1.51636 5.27539 0
M  V30 11024 H 1014.92 -2.34423 3.74831 0
M  V30 11025 N 1013.98 -1.5736 0.0868897 0
M  V30 11026 C 1015.21 -1.981 -0.586498 0
M  V30 11027 C 1015.61 -0.96455 -1.62767 0
M  V30 11028 O 1014.96 0.0551801 -1.83617 0
M  V30 11029 C 1015.02 -3.35193 -1.29947 0
M  V30 11030 C 1014.68 -4.55157 -0.410012 0
M  V30 11031 C 1015.68 -5.18797 0.338532 0
M  V30 11032 C 1013.37 -5.01212 -0.33047 0
M  V30 11033 C 1015.36 -6.26854 1.15468 0
M  V30 11034 C 1013.05 -6.09138 0.48934 0
M  V30 11035 C 1014.04 -6.71823 1.23057 0
M  V30 11036 O 1013.73 -7.77669 2.03683 0
M  V30 11037 H 1013.46 -0.656166 -0.16255 0
M  V30 11038 H 1016.02 -2.04773 0.160379 0
M  V30 11039 H 1014.25 -3.25179 -2.09274 0
M  V30 11040 H 1015.94 -3.60435 -1.86658 0
M  V30 11041 H 1016.7 -4.84151 0.286764 0
M  V30 11042 H 1012.58 -4.52188 -0.897058 0
M  V30 11043 H 1016.13 -6.75712 1.73374 0
M  V30 11044 H 1012.02 -6.43215 0.542618 0
M  V30 11045 H 1012.79 -7.94618 1.96277 0
M  V30 11046 N 1015.45 0.186762 -1.56489 0
M  V30 11047 C 1016.4 1.23141 -1.95205 0
M  V30 11048 C 1017.37 1.44799 -0.81378 0
M  V30 11049 O 1018.56 1.57795 -1.07263 0
M  V30 11050 C 1015.7 2.56926 -2.30397 0
M  V30 11051 C 1014.81 2.42777 -3.57328 0
M  V30 11052 C 1013.94 3.69323 -3.81804 0
M  V30 11053 C 1012.98 3.50041 -5.02133 0
M  V30 11054 N 1012.12 4.68619 -5.2282 0
M  V30 11055 H 1016.96 0.894256 -2.84266 0
M  V30 11056 H 1014.5 0.430187 -1.40669 0
M  V30 11057 H 1016.46 3.3488 -2.4882 0
M  V30 11058 H 1015.09 2.88668 -1.44466 0
M  V30 11059 H 1014.14 1.56078 -3.46906 0
M  V30 11060 H 1015.45 2.24468 -4.45439 0
M  V30 11061 H 1014.6 4.55715 -4.00511 0
M  V30 11062 H 1013.34 3.90595 -2.92039 0
M  V30 11063 H 1012.35 2.62034 -4.8334 0
M  V30 11064 H 1013.57 3.30206 -5.93414 0
M  V30 11065 H 1011.52 4.90139 -4.36005 0
M  V30 11066 H 1011.44 4.53165 -6.05126 0
M  V30 11067 H 1012.7 5.56338 -5.45993 0
M  V30 11068 N 1016.93 1.50896 0.454776 0
M  V30 11069 C 1017.84 1.73762 1.5762 0
M  V30 11070 C 1018.86 0.621206 1.62533 0
M  V30 11071 O 1020.03 0.901449 1.801 0
M  V30 11072 C 1017.1 1.84183 2.9373 0
M  V30 11073 C 1016.16 3.07982 2.99075 0
M  V30 11074 C 1015.39 3.17896 4.28693 0
M  V30 11075 O 1015.62 2.34184 5.20109 0
M  V30 11076 O 1014.55 4.10749 4.39964 0
M  V30 11077 H 1018.38 2.68856 1.41245 0
M  V30 11078 H 1015.96 1.35187 0.635984 0
M  V30 11079 H 1017.84 1.93123 3.74542 0
M  V30 11080 H 1016.52 0.922742 3.10269 0
M  V30 11081 H 1015.43 3.04531 2.17282 0
M  V30 11082 H 1016.76 3.99523 2.87476 0
M  V30 11083 N 1018.41 -0.709066 1.40748 0
M  V30 11084 C 1019.64 -1.49808 1.42707 0
M  V30 11085 C 1020.05 -1.88778 0.0285574 0
M  V30 11086 O 1019.41 -1.55883 -0.949035 0
M  V30 11087 C 1019.46 -2.76926 2.32366 0
M  V30 11088 O 1019.18 -2.39602 3.66773 0
M  V30 11089 C 1020.68 -3.70773 2.42986 0
M  V30 11090 H 1017.9 -0.462106 0.486517 0
M  V30 11091 H 1020.45 -0.874135 1.84876 0
M  V30 11092 H 1018.6 -3.3559 1.93541 0
M  V30 11093 H 1019.02 -3.21443 4.14457 0
M  V30 11094 H 1020.49 -4.56789 3.09916 0
M  V30 11095 H 1020.97 -4.14332 1.45691 0
M  V30 11096 H 1021.57 -3.18019 2.8239 0
M  V30 11097 N 1019.89 -1.26353 -0.941956 0
M  V30 11098 C 1020.84 -1.07654 -2.06188 0
M  V30 11099 C 1021.83 -0.00369741 -1.694 0
M  V30 11100 O 1023.04 -0.160316 -1.79285 0
M  V30 11101 H 1019.41 -0.331274 -0.675101 0
M  V30 11102 H 1021.38 -2.02566 -2.19111 0
M  V30 11103 C 1020.13 -0.725436 -3.40048 0
M  V30 11104 H 1019.46 -1.54283 -3.68832 0
M  V30 11105 H 1020.9 -0.634383 -4.19227 0
M  V30 11106 C 1019.35 0.569369 -3.32054 0
M  V30 11107 O 1019.88 1.60791 -3.68116 0
M  V30 11108 N 1018.09 0.559714 -2.85159 0
M  V30 11109 H 1017.64 -0.285817 -2.56009 0
M  V30 11110 H 1017.6 1.42617 -2.80193 0
M  V30 11111 N 1021.37 1.14642 -1.08144 0
M  V30 11112 C 1022.3 2.21775 -0.730609 0
M  V30 11113 C 1023.28 1.67683 0.285702 0
M  V30 11114 O 1024.46 1.93567 0.156667 0
M  V30 11115 C 1021.59 3.47033 -0.136242 0
M  V30 11116 C 1020.55 4.14134 -1.0806 0
M  V30 11117 C 1019.87 5.33563 -0.348585 0
M  V30 11118 C 1021.17 4.62978 -2.41761 0
M  V30 11119 H 1022.87 2.51378 -1.62633 0
M  V30 11120 H 1020.41 1.20825 -0.783411 0
M  V30 11121 H 1022.37 4.21226 0.121182 0
M  V30 11122 H 1021.09 3.16786 0.7946 0
M  V30 11123 H 1019.75 3.41892 -1.32308 0
M  V30 11124 H 1019.4 4.99575 0.585974 0
M  V30 11125 H 1019.1 5.79402 -0.978122 0
M  V30 11126 H 1020.62 6.10519 -0.0991508 0
M  V30 11127 H 1022.04 5.28659 -2.21795 0
M  V30 11128 H 1020.43 5.1951 -3.00383 0
M  V30 11129 H 1021.5 3.78189 -3.03482 0
M  V30 11130 N 1022.85 0.866709 1.31628 0
M  V30 11131 C 1023.79 0.309128 2.30537 0
M  V30 11132 C 1024.79 -0.574028 1.59378 0
M  V30 11133 O 1025.99 -0.460491 1.7401 0
M  V30 11134 H 1022.37 0.081279 0.747595 0
M  V30 11135 H 1024.34 1.15734 2.75042 0
M  V30 11136 C 1023.09 -0.477287 3.44409 0
M  V30 11137 H 1022.41 0.19301 3.99334 0
M  V30 11138 H 1023.85 -0.832818 4.1574 0
M  V30 11139 C 1022.31 -1.66727 2.92752 0
M  V30 11140 O 1022.84 -2.76654 2.91248 0
M  V30 11141 N 1021.05 -1.49833 2.48995 0
M  V30 11142 H 1020.59 -0.604073 2.50417 0
M  V30 11143 H 1020.55 -2.29594 2.14788 0
M  V30 11144 N 1024.32 -1.44642 0.625825 0
M  V30 11145 C 1025.74 -1.56925 0.290992 0
M  V30 11146 C 1025.94 -1.61424 -1.20601 0
M  V30 11147 O 1025 -1.55439 -1.98985 0
M  V30 11148 C 1026.31 -2.84343 0.978242 0
M  V30 11149 C 1027.86 -2.98047 0.955882 0
M  V30 11150 C 1028.33 -4.2826 1.62349 0
M  V30 11151 N 1029.82 -4.35062 1.58983 0
M  V30 11152 C 1030.56 -5.34524 2.07538 0
M  V30 11153 N 1030.05 -6.4042 2.6426 0
M  V30 11154 N 1031.85 -5.25998 1.98198 0
M  V30 11155 H 1024 -1.39965 1.59761 0
M  V30 11156 H 1026.26 -0.670368 0.670306 0
M  V30 11157 H 1025.97 -2.86985 2.03304 0
M  V30 11158 H 1025.84 -3.73699 0.512726 0
M  V30 11159 H 1028.23 -2.94961 -0.0904292 0
M  V30 11160 H 1028.31 -2.10053 1.45984 0
M  V30 11161 H 1027.95 -4.32105 2.66923 0
M  V30 11162 H 1027.88 -5.15102 1.09441 0
M  V30 11163 H 1030.37 -3.59147 1.17565 0
M  V30 11164 H 1030.69 -7.1259 2.99056 0
M  V30 11165 H 1029.03 -6.41121 2.68308 0
M  V30 11166 H 1032.22 -4.42178 1.5361 0
M  V30 11167 H 1032.4 -6.03359 2.3635 0
M  V30 11168 N 1025.8 -0.366053 -1.5329 0
M  V30 11169 C 1027.03 0.22391 -2.05383 0
M  V30 11170 C 1027.44 1.42962 -1.23929 0
M  V30 11171 O 1026.78 1.81659 -0.273072 0
M  V30 11172 C 1026.84 0.681038 -3.5299 0
M  V30 11173 C 1026.51 -0.40805 -4.55175 0
M  V30 11174 C 1027.51 -1.25806 -5.04449 0
M  V30 11175 C 1025.19 -0.568428 -4.99073 0
M  V30 11176 C 1027.18 -2.25379 -5.96224 0
M  V30 11177 C 1024.87 -1.56752 -5.90654 0
M  V30 11178 C 1025.87 -2.40864 -6.39119 0
M  V30 11179 O 1025.56 -3.39069 -7.28895 0
M  V30 11180 H 1025.29 0.0429593 -0.674634 0
M  V30 11181 H 1027.84 -0.522897 -1.98633 0
M  V30 11182 H 1026.07 1.47945 -3.5728 0
M  V30 11183 H 1027.76 1.19406 -3.8794 0
M  V30 11184 H 1028.53 -1.14536 -4.71282 0
M  V30 11185 H 1024.41 0.0764858 -4.60937 0
M  V30 11186 H 1027.95 -2.91068 -6.33976 0
M  V30 11187 H 1023.85 -1.6807 -6.23236 0
M  V30 11188 H 1024.62 -3.34804 -7.46893 0
M  V30 11189 N 1027.28 1.57312 -0.0952337 0
M  V30 11190 C 1028.23 2.15263 0.881167 0
M  V30 11191 C 1029.22 1.09552 1.29208 0
M  V30 11192 O 1030.43 1.27897 1.26659 0
M  V30 11193 H 1026.8 0.688611 0.302191 0
M  V30 11194 H 1028.77 2.96126 0.367694 0
M  V30 11195 C 1027.52 2.74779 2.13053 0
M  V30 11196 H 1026.85 3.55807 1.82323 0
M  V30 11197 H 1028.29 3.18895 2.79431 0
M  V30 11198 C 1026.74 1.7068 2.90465 0
M  V30 11199 O 1027.27 1.14582 3.85011 0
M  V30 11200 N 1025.48 1.41169 2.54007 0
M  V30 11201 H 1025.03 1.86977 1.77193 0
M  V30 11202 H 1024.99 0.717559 3.06102 0
M  V30 11203 N 1028.76 -0.17846 1.56586 0
M  V30 11204 C 1030.01 -0.894502 1.8078 0
M  V30 11205 C 1030.32 -1.8372 0.67129 0
M  V30 11206 O 1031.53 -2.59509 0.797971 0
M  V30 11207 C 1029.98 -1.64109 3.20306 0
M  V30 11208 C 1029.59 -0.742387 4.41806 0
M  V30 11209 C 1031.33 -2.34578 3.53798 0
M  V30 11210 C 1029.24 -1.4888 5.72354 0
M  V30 11211 H 1028.17 -0.33776 0.674117 0
M  V30 11212 H 1030.82 -0.14752 1.82906 0
M  V30 11213 H 1029.2 -2.43257 3.12477 0
M  V30 11214 H 1030.38 0.011615 4.60799 0
M  V30 11215 H 1028.69 -0.147705 4.16138 0
M  V30 11216 H 1031.29 -2.91004 4.48577 0
M  V30 11217 H 1031.63 -3.09572 2.78336 0
M  V30 11218 H 1032.17 -1.62381 3.63149 0
M  V30 11219 H 1028.9 -0.781325 6.50827 0
M  V30 11220 H 1028.42 -2.21631 5.57351 0
M  V30 11221 H 1030.1 -2.03819 6.14058 0
M  V30 11222 N 1030.24 -1.51135 -0.446768 0
M  V30 11223 C 1031.48 -1.62571 -1.19388 0
M  V30 11224 C 1031.8 -0.3432 -1.92566 0
M  V30 11225 O 1033 -0.336804 -2.69403 0
M  V30 11226 C 1031.46 -2.87071 -2.17068 0
M  V30 11227 C 1031.07 -4.22291 -1.49581 0
M  V30 11228 C 1032.81 -3.07862 -2.9227 0
M  V30 11229 C 1030.72 -5.3795 -2.45689 0
M  V30 11230 H 1029.65 -0.60549 -0.449331 0
M  V30 11231 H 1032.3 -1.77593 -0.461846 0
M  V30 11232 H 1030.68 -2.65662 -2.93666 0
M  V30 11233 H 1031.86 -4.54046 -0.786054 0
M  V30 11234 H 1030.17 -4.07302 -0.865677 0
M  V30 11235 H 1032.77 -3.91444 -3.64246 0
M  V30 11236 H 1033.11 -2.20559 -3.53072 0
M  V30 11237 H 1033.64 -3.29566 -2.2278 0
M  V30 11238 H 1030.38 -6.27484 -1.89591 0
M  V30 11239 H 1029.9 -5.10583 -3.14746 0
M  V30 11240 H 1031.58 -5.69517 -3.07017 0
M  V30 11241 N 1031.71 0.701592 -1.41122 0
M  V30 11242 C 1032.66 1.83691 -1.4269 0
M  V30 11243 C 1033.66 1.6662 -0.305658 0
M  V30 11244 O 1034.86 1.73554 -0.477392 0
M  V30 11245 H 1031.24 0.605222 -0.44633 0
M  V30 11246 H 1033.21 1.79485 -2.38386 0
M  V30 11247 C 1031.96 3.21666 -1.32008 0
M  V30 11248 H 1031.28 3.35416 -2.17569 0
M  V30 11249 H 1032.72 4.012 -1.37165 0
M  V30 11250 C 1031.18 3.36885 -0.0317678 0
M  V30 11251 O 1031.71 3.90885 0.925836 0
M  V30 11252 N 1029.91 2.90569 0.0423401 0
M  V30 11253 H 1029.46 2.46812 -0.737673 0
M  V30 11254 H 1029.42 3.0113 0.903764 0
M  V30 11255 N 1033.19 1.2685 0.935242 0
M  V30 11256 C 1034.14 1.08746 2.05614 0
M  V30 11257 C 1035.13 0.012681 1.69395 0
M  V30 11258 O 1036.34 0.169822 1.79197 0
M  V30 11259 H 1032.71 0.33485 0.673335 0
M  V30 11260 H 1034.69 2.03725 2.18033 0
M  V30 11261 C 1033.43 0.74346 3.39659 0
M  V30 11262 H 1032.76 1.56236 3.68008 0
M  V30 11263 H 1034.2 0.656607 4.18885 0
M  V30 11264 C 1032.66 -0.551751 3.32351 0
M  V30 11265 O 1033.19 -1.58836 3.68963 0
M  V30 11266 N 1031.39 -0.544583 2.85452 0
M  V30 11267 H 1030.94 0.29939 2.55854 0
M  V30 11268 H 1030.9 -1.41129 2.80945 0
M  V30 11269 N 1034.67 -1.14067 1.0875 0
M  V30 11270 C 1035.92 -1.84535 0.814235 0
M  V30 11271 C 1036.23 -1.84044 -0.662355 0
M  V30 11272 O 1037.44 -2.50336 -1.05091 0
M  V30 11273 C 1035.89 -3.31273 1.40663 0
M  V30 11274 C 1035.5 -3.40171 2.91526 0
M  V30 11275 C 1037.25 -4.0683 1.21201 0
M  V30 11276 C 1035.15 -4.81141 3.43885 0
M  V30 11277 H 1034.08 -0.691346 0.300926 0
M  V30 11278 H 1036.73 -1.28562 1.30935 0
M  V30 11279 H 1035.12 -3.87005 0.839215 0
M  V30 11280 H 1036.29 -2.94471 3.54434 0
M  V30 11281 H 1034.61 -2.78073 3.09942 0
M  V30 11282 H 1037.2 -5.10891 1.57781 0
M  V30 11283 H 1037.55 -4.16022 0.152092 0
M  V30 11284 H 1038.08 -3.57408 1.74655 0
M  V30 11285 H 1034.82 -4.77138 4.49466 0
M  V30 11286 H 1034.34 -5.27365 2.85738 0
M  V30 11287 H 1036.02 -5.50042 3.40681 0
M  V30 11288 N 1036.15 -0.873678 -1.31166 0
M  V30 11289 C 1037.38 -0.500317 -2.0045 0
M  V30 11290 C 1037.79 0.912716 -1.65729 0
M  V30 11291 O 1037.13 1.61001 -0.884563 0
M  V30 11292 C 1037.19 -0.58197 -3.54758 0
M  V30 11293 C 1036.86 -1.95728 -4.12964 0
M  V30 11294 C 1037.85 -2.92526 -4.29796 0
M  V30 11295 C 1035.54 -2.2596 -4.48606 0
M  V30 11296 C 1037.53 -4.17697 -4.81464 0
M  V30 11297 C 1035.22 -3.5138 -4.99976 0
M  V30 11298 C 1036.22 -4.47064 -5.16356 0
M  V30 11299 O 1035.9 -5.70259 -5.66621 0
M  V30 11300 H 1035.64 -0.193044 -0.64785 0
M  V30 11301 H 1038.19 -1.17768 -1.68285 0
M  V30 11302 H 1036.42 0.152326 -3.864 0
M  V30 11303 H 1038.11 -0.221506 -4.05295 0
M  V30 11304 H 1038.88 -2.70479 -4.02574 0
M  V30 11305 H 1034.75 -1.52258 -4.3513 0
M  V30 11306 H 1038.3 -4.92389 -4.94165 0
M  V30 11307 H 1034.2 -3.73269 -5.26631 0
M  V30 11308 H 1034.96 -5.72483 -5.84983 0
M  V30 11309 N 1037.63 1.44308 -0.633487 0
M  V30 11310 C 1038.56 2.33431 0.0568402 0
M  V30 11311 C 1039.54 1.48342 0.832386 0
M  V30 11312 O 1040.72 1.77056 0.797798 0
M  V30 11313 C 1037.85 3.31443 1.03743 0
M  V30 11314 C 1036.81 4.26368 0.373362 0
M  V30 11315 C 1036.13 5.14267 1.46403 0
M  V30 11316 C 1037.43 5.17287 -0.721876 0
M  V30 11317 H 1039.13 2.91402 -0.687388 0
M  V30 11318 H 1036.67 1.4012 -0.332009 0
M  V30 11319 H 1038.63 3.92677 1.52913 0
M  V30 11320 H 1037.35 2.71686 1.81258 0
M  V30 11321 H 1036.01 3.6647 -0.0977053 0
M  V30 11322 H 1035.66 4.50861 2.23011 0
M  V30 11323 H 1035.36 5.7859 1.02506 0
M  V30 11324 H 1036.88 5.78373 1.95748 0
M  V30 11325 H 1038.29 5.72444 -0.313181 0
M  V30 11326 H 1036.69 5.90226 -1.08413 0
M  V30 11327 H 1037.76 4.58159 -1.58804 0
M  V30 11328 N 1039.1 0.374177 1.53094 0
M  V30 11329 C 1040.33 -0.213325 2.05797 0
M  V30 11330 C 1040.75 -1.41753 1.24706 0
M  V30 11331 O 1040.1 -1.80183 0.289868 0
M  V30 11332 C 1040.16 -0.598367 3.56513 0
M  V30 11333 O 1039.88 0.557983 4.34532 0
M  V30 11334 C 1041.38 -1.24334 4.25507 0
M  V30 11335 H 1038.6 -0.0357398 0.670048 0
M  V30 11336 H 1041.14 0.535035 1.97377 0
M  V30 11337 H 1039.3 -1.29663 3.65056 0
M  V30 11338 H 1039.71 0.244911 5.23928 0
M  V30 11339 H 1041.18 -1.46325 5.32253 0
M  V30 11340 H 1041.66 -2.20622 3.79766 0
M  V30 11341 H 1042.27 -0.586269 4.2124 0
M  V30 11342 N 1040.58 -1.57259 0.103575 0
M  V30 11343 C 1041.81 -1.99424 -0.569638 0
M  V30 11344 C 1042.23 -0.982475 -1.60403 0
M  V30 11345 O 1041.59 0.0479231 -1.81237 0
M  V30 11346 C 1041.64 -3.40527 -1.18633 0
M  V30 11347 O 1040.74 -3.42167 -2.30208 0
M  V30 11348 H 1040.08 -0.648251 -0.143759 0
M  V30 11349 H 1042.61 -2.03739 0.187493 0
M  V30 11350 H 1042.62 -3.78404 -1.5256 0
M  V30 11351 H 1041.3 -4.13686 -0.428582 0
M  V30 11352 H 1039.88 -3.16093 -1.97837 0
M  V30 11353 N 1042.06 0.170153 -1.56679 0
M  V30 11354 C 1043.01 1.21064 -1.965 0
M  V30 11355 C 1043.98 1.43928 -0.829092 0
M  V30 11356 O 1045.16 1.56649 -1.08931 0
M  V30 11357 C 1042.3 2.54468 -2.33109 0
M  V30 11358 C 1041.42 2.38974 -3.59883 0
M  V30 11359 C 1040.55 3.65252 -3.857 0
M  V30 11360 C 1039.59 3.44696 -5.05817 0
M  V30 11361 N 1038.73 4.63047 -5.27761 0
M  V30 11362 H 1043.57 0.864055 -2.85198 0
M  V30 11363 H 1041.1 0.415243 -1.41117 0
M  V30 11364 H 1043.06 3.32222 -2.52358 0
M  V30 11365 H 1041.69 2.8712 -1.4752 0
M  V30 11366 H 1040.74 1.5239 -3.48542 0
M  V30 11367 H 1042.06 2.19731 -4.47794 0
M  V30 11368 H 1041.21 4.51441 -4.05322 0
M  V30 11369 H 1039.95 3.87475 -2.96166 0
M  V30 11370 H 1038.95 2.56893 -4.86092 0
M  V30 11371 H 1040.18 3.23894 -5.96883 0
M  V30 11372 H 1038.12 4.85487 -4.41179 0
M  V30 11373 H 1038.04 4.46722 -6.09898 0
M  V30 11374 H 1039.31 5.50516 -5.51863 0
M  V30 11375 N 1043.54 1.5137 0.438746 0
M  V30 11376 C 1044.78 1.64211 1.19006 0
M  V30 11377 C 1045.12 0.356607 1.90898 0
M  V30 11378 O 1044.39 -0.643722 1.83539 0
M  V30 11379 C 1044.68 2.8445 2.20817 0
M  V30 11380 C 1044.53 4.22972 1.53018 0
M  V30 11381 C 1045.85 3.00207 3.21813 0
M  V30 11382 H 1042.97 0.597628 0.431288 0
M  V30 11383 H 1045.61 1.8385 0.479487 0
M  V30 11384 H 1043.76 2.67836 2.81418 0
M  V30 11385 H 1045.43 4.5125 0.957654 0
M  V30 11386 H 1043.67 4.25736 0.832556 0
M  V30 11387 H 1044.34 5.03094 2.27158 0
M  V30 11388 H 1046.82 3.15522 2.71266 0
M  V30 11389 H 1045.7 3.85904 3.90345 0
M  V30 11390 H 1045.96 2.12216 3.87836 0
M  V30 11391 N 1045.02 -0.694098 1.41492 0
M  V30 11392 C 1046.26 -1.45493 1.42138 0
M  V30 11393 C 1046.62 -1.92376 0.0302688 0
M  V30 11394 O 1045.91 -1.66723 -0.944142 0
M  V30 11395 C 1046.1 -2.6805 2.36398 0
M  V30 11396 C 1045.93 -2.33157 3.84536 0
M  V30 11397 C 1044.7 -2.2345 4.53209 0
M  V30 11398 C 1046.9 -1.96037 4.75473 0
M  V30 11399 N 1044.88 -1.81457 5.8647 0
M  V30 11400 C 1046.25 -1.64814 5.97693 0
M  V30 11401 C 1048.31 -1.8286 4.63106 0
M  V30 11402 C 1047.01 -1.21738 7.08923 0
M  V30 11403 C 1049.04 -1.41188 5.74299 0
M  V30 11404 C 1048.4 -1.10877 6.95619 0
M  V30 11405 H 1044.5 -0.529635 0.575335 0
M  V30 11406 H 1047.08 -0.802901 1.77374 0
M  V30 11407 H 1045.25 -3.30972 2.03254 0
M  V30 11408 H 1046.99 -3.34531 2.27753 0
M  V30 11409 H 1043.74 -2.41894 4.07166 0
M  V30 11410 H 1044.17 -1.62938 6.571 0
M  V30 11411 H 1048.81 -2.04947 3.69806 0
M  V30 11412 H 1046.53 -0.983947 8.02087 0
M  V30 11413 H 1050.11 -1.3154 5.66735 0
M  V30 11414 H 1048.99 -0.791191 7.80199 0
M  V30 11415 N 1046.49 -1.27344 -0.928501 0
M  V30 11416 C 1047.77 -1.04362 -1.65433 0
M  V30 11417 C 1048.15 0.421896 -2.06841 0
M  V30 11418 O 1047.5 1.40496 -1.80203 0
M  V30 11419 C 1047.71 -2.00442 -2.85699 0
M  V30 11420 C 1049.06 -2.29767 -3.57061 0
M  V30 11421 O 1050.08 -1.98409 -2.95825 0
M  V30 11422 O 1048.94 -2.83217 -4.67387 0
M  V30 11423 H 1046.03 -0.397783 -0.72505 0
M  V30 11424 H 1048.58 -1.38606 -0.979109 0
M  V30 11425 H 1047.35 -2.99281 -2.52085 0
M  V30 11426 H 1046.98 -1.66755 -3.60941 0
M  V30 11427 N 1047.97 1.13488 -1.09353 0
M  V30 11428 C 1049.2 1.88592 -0.850915 0
M  V30 11429 C 1049.62 1.79087 0.597761 0
M  V30 11430 O 1048.97 1.15695 1.41142 0
M  V30 11431 C 1049.02 3.38219 -1.27633 0
M  V30 11432 O 1048.74 3.47476 -2.66819 0
M  V30 11433 C 1050.25 4.30293 -1.06598 0
M  V30 11434 H 1047.47 0.597069 -0.306185 0
M  V30 11435 H 1050.01 1.43668 -1.45533 0
M  V30 11436 H 1048.16 3.80729 -0.715828 0
M  V30 11437 H 1048.58 4.40485 -2.84733 0
M  V30 11438 H 1050.05 5.33611 -1.41293 0
M  V30 11439 H 1050.53 4.392 -0.0037135 0
M  V30 11440 H 1051.14 3.9355 -1.6124 0
M  V30 11441 N 1049.45 0.880621 1.30701 0
M  V30 11442 C 1050.4 0.333562 2.30196 0
M  V30 11443 C 1051.39 -0.557092 1.59978 0
M  V30 11444 O 1052.6 -0.442009 1.74489 0
M  V30 11445 H 1048.97 0.0892036 0.746691 0
M  V30 11446 H 1050.95 1.18644 2.73799 0
M  V30 11447 C 1049.69 -0.440731 3.44895 0
M  V30 11448 H 1049.02 0.235353 3.99107 0
M  V30 11449 H 1050.46 -0.788676 4.166 0
M  V30 11450 C 1048.92 -1.63613 2.94504 0
M  V30 11451 O 1049.45 -2.73549 2.94166 0
M  V30 11452 N 1047.65 -1.47183 2.5057 0
M  V30 11453 H 1047.2 -0.577479 2.51044 0
M  V30 11454 H 1047.16 -2.27303 2.17211 0
M  V30 11455 N 1050.93 -1.4397 0.641131 0
M  V30 11456 C 1051.88 -2.32495 -0.0698668 0
M  V30 11457 C 1052.87 -1.47922 -0.825555 0
M  V30 11458 O 1054.08 -1.64206 -0.737323 0
M  V30 11459 H 1050.45 -0.750861 -0.0413706 0
M  V30 11460 H 1052.42 -2.90201 0.694682 0
M  V30 11461 C 1051.17 -3.32063 -1.03098 0
M  V30 11462 H 1050.5 -3.97157 -0.458923 0
M  V30 11463 H 1051.94 -3.96664 -1.49778 0
M  V30 11464 C 1050.39 -2.61743 -2.12113 0
M  V30 11465 O 1050.92 -2.42385 -3.20332 0
M  V30 11466 N 1049.13 -2.21316 -1.88328 0
M  V30 11467 H 1048.68 -2.37261 -1.00324 0
M  V30 11468 H 1048.64 -1.74594 -2.61465 0
M  V30 11469 N 1052.41 -0.382291 -1.52893 0
M  V30 11470 C 1053.64 0.202114 -2.05609 0
M  V30 11471 C 1054.05 1.4164 -1.25438 0
M  V30 11472 O 1053.39 1.81359 -0.292324 0
M  V30 11473 C 1053.45 0.64356 -3.53693 0
M  V30 11474 C 1053.11 -0.456305 -4.54716 0
M  V30 11475 C 1054.11 -1.3115 -5.03086 0
M  V30 11476 C 1051.8 -0.621329 -4.98442 0
M  V30 11477 C 1053.79 -2.3169 -5.938 0
M  V30 11478 C 1051.48 -1.63008 -5.88958 0
M  V30 11479 C 1052.48 -2.47629 -6.36529 0
M  V30 11480 O 1052.16 -3.46781 -7.25257 0
M  V30 11481 H 1051.9 0.0358014 -0.675051 0
M  V30 11482 H 1054.45 -0.543935 -1.98067 0
M  V30 11483 H 1052.68 1.44148 -3.58829 0
M  V30 11484 H 1054.37 1.15284 -3.89184 0
M  V30 11485 H 1055.13 -1.19528 -4.70041 0
M  V30 11486 H 1051.01 0.027593 -4.60992 0
M  V30 11487 H 1054.56 -2.97776 -6.30853 0
M  V30 11488 H 1050.45 -1.74671 -6.21418 0
M  V30 11489 H 1051.22 -3.42707 -7.433 0
M  V30 11490 N 1053.89 1.57202 -0.111913 0
M  V30 11491 C 1054.82 2.17957 0.837683 0
M  V30 11492 C 1055.8 1.1176 1.28233 0
M  V30 11493 O 1056.98 1.39967 1.34621 0
M  V30 11494 C 1054.11 2.77333 2.09054 0
M  V30 11495 C 1053.07 3.8905 1.78393 0
M  V30 11496 C 1052.39 4.35203 3.10649 0
M  V30 11497 C 1053.69 5.11477 1.05775 0
M  V30 11498 H 1055.39 2.9756 0.331441 0
M  V30 11499 H 1052.93 1.43131 0.157979 0
M  V30 11500 H 1054.88 3.18492 2.75936 0
M  V30 11501 H 1053.61 1.95009 2.6199 0
M  V30 11502 H 1052.27 3.48456 1.13903 0
M  V30 11503 H 1051.92 3.49747 3.61506 0
M  V30 11504 H 1051.62 5.10534 2.9091 0
M  V30 11505 H 1053.14 4.79007 3.78661 0
M  V30 11506 H 1054.55 5.497 1.62798 0
M  V30 11507 H 1052.95 5.92346 0.961573 0
M  V30 11508 H 1054.02 4.84881 0.043297 0
M  V30 11509 N 1055.36 -0.161842 1.56767 0
M  V30 11510 C 1056.59 -0.892247 1.86672 0
M  V30 11511 C 1057.01 -1.75407 0.69841 0
M  V30 11512 O 1056.36 -1.7945 -0.332251 0
M  V30 11513 C 1056.41 -1.7612 3.15696 0
M  V30 11514 O 1056.14 -0.934131 4.28025 0
M  V30 11515 C 1057.64 -2.60046 3.59014 0
M  V30 11516 H 1054.86 -0.258747 0.619105 0
M  V30 11517 H 1057.4 -0.159089 2.0388 0
M  V30 11518 H 1055.56 -2.44759 3.00286 0
M  V30 11519 H 1055.97 -1.52931 5.01709 0
M  V30 11520 H 1057.44 -3.16618 4.5217 0
M  V30 11521 H 1057.92 -3.35374 2.83586 0
M  V30 11522 H 1058.53 -1.96724 3.77067 0
M  V30 11523 N 1056.84 -1.516 -0.430713 0
M  V30 11524 C 1058.25 -1.57 -1.01035 0
M  V30 11525 C 1058.6 -0.397439 -1.92132 0
M  V30 11526 O 1057.73 0.484954 -2.10896 0
M  V30 11527 C 1058.32 -2.84536 -1.83915 0
M  V30 11528 C 1056.88 -2.92485 -2.36917 0
M  V30 11529 C 1056.03 -2.5173 -1.16308 0
M  V30 11530 H 1058.98 -1.57281 -0.211734 0
M  V30 11531 H 1059 -2.68672 -2.69435 0
M  V30 11532 H 1058.51 -3.69858 -1.17586 0
M  V30 11533 H 1056.61 -2.11608 -3.0668 0
M  V30 11534 H 1056.73 -3.96277 -2.6926 0
M  V30 11535 H 1055.09 -2.05079 -1.51045 0
M  V30 11536 H 1055.87 -3.39403 -0.515793 0
M  V30 11537 N 1058.32 0.686584 -1.41858 0
M  V30 11538 C 1059.55 1.47519 -1.45072 0
M  V30 11539 C 1059.96 1.88709 -0.0585868 0
M  V30 11540 O 1059.32 1.57373 0.924116 0
M  V30 11541 C 1059.37 2.73195 -2.36742 0
M  V30 11542 O 1059.09 2.33736 -3.70539 0
M  V30 11543 C 1060.59 3.66861 -2.48854 0
M  V30 11544 H 1057.81 0.454307 -0.493808 0
M  V30 11545 H 1060.36 0.844612 -1.86243 0
M  V30 11546 H 1058.51 3.32468 -1.98856 0
M  V30 11547 H 1058.93 3.14809 -4.19518 0
M  V30 11548 H 1060.4 4.51801 -3.17143 0
M  V30 11549 H 1060.88 4.11961 -1.52265 0
M  V30 11550 H 1061.48 3.13486 -2.87414 0
M  V30 11551 N 1059.8 1.27835 0.921735 0
M  V30 11552 C 1061.04 1.14523 1.67005 0
M  V30 11553 C 1061.37 -0.307776 1.92049 0
M  V30 11554 O 1060.63 -1.24103 1.51317 0
M  V30 11555 C 1060.93 1.88054 3.03925 0
M  V30 11556 C 1060.59 3.37886 2.9857 0
M  V30 11557 C 1059.25 3.78752 2.96817 0
M  V30 11558 C 1061.61 4.33462 2.89414 0
M  V30 11559 C 1058.93 5.13549 2.83698 0
M  V30 11560 C 1061.29 5.68322 2.77836 0
M  V30 11561 C 1059.95 6.08475 2.74436 0
M  V30 11562 H 1059.22 0.419068 0.611116 0
M  V30 11563 H 1061.87 1.58515 1.07449 0
M  V30 11564 H 1060.17 1.36587 3.67221 0
M  V30 11565 H 1061.87 1.75176 3.60714 0
M  V30 11566 H 1058.46 3.05389 3.00725 0
M  V30 11567 H 1062.64 4.02857 2.89862 0
M  V30 11568 H 1057.9 5.43796 2.79456 0
M  V30 11569 H 1062.07 6.42048 2.69717 0
M  V30 11570 H 1059.7 7.12877 2.64027 0
M  V30 11571 N 1061.28 -1.12907 1.09954 0
M  V30 11572 C 1062.22 -2.18485 0.743848 0
M  V30 11573 C 1063.19 -1.63766 -0.277494 0
M  V30 11574 O 1064.38 -1.90146 -0.157899 0
M  V30 11575 C 1061.52 -3.44649 0.176437 0
M  V30 11576 C 1060.63 -4.13445 1.25248 0
M  V30 11577 C 1059.77 -5.27242 0.647242 0
M  V30 11578 C 1058.8 -5.87897 1.70421 0
M  V30 11579 N 1057.94 -6.93116 1.1196 0
M  V30 11580 H 1062.78 -2.48257 1.64841 0
M  V30 11581 H 1060.32 -1.21891 0.823471 0
M  V30 11582 H 1062.28 -4.16852 -0.170384 0
M  V30 11583 H 1060.91 -3.15309 -0.69137 0
M  V30 11584 H 1059.96 -3.39471 1.7165 0
M  V30 11585 H 1061.27 -4.54601 2.05279 0
M  V30 11586 H 1060.42 -6.06186 0.249579 0
M  V30 11587 H 1059.16 -4.87351 -0.184556 0
M  V30 11588 H 1058.17 -5.07643 2.11136 0
M  V30 11589 H 1059.39 -6.2986 2.53877 0
M  V30 11590 H 1057.34 -6.55271 0.309181 0
M  V30 11591 H 1057.26 -7.32843 1.85681 0
M  V30 11592 H 1058.52 -7.759 0.748326 0
M  V30 11593 N 1062.75 -0.88754 -1.30232 0
M  V30 11594 C 1064 -0.508031 -1.96334 0
M  V30 11595 C 1064.33 0.940905 -1.69884 0
M  V30 11596 O 1063.61 1.66523 -1.005 0
M  V30 11597 C 1063.89 -0.786566 -3.51405 0
M  V30 11598 C 1063.74 -2.28632 -3.8736 0
M  V30 11599 C 1065.06 -0.264803 -4.39303 0
M  V30 11600 H 1062.18 -0.186051 -0.71313 0
M  V30 11601 H 1064.82 -1.112 -1.5406 0
M  V30 11602 H 1062.97 -0.272523 -3.87543 0
M  V30 11603 H 1064.65 -2.86896 -3.61231 0
M  V30 11604 H 1062.89 -2.75194 -3.35337 0
M  V30 11605 H 1063.56 -2.43181 -4.95547 0
M  V30 11606 H 1066.04 -0.704809 -4.10087 0
M  V30 11607 H 1064.91 -0.488998 -5.46717 0
M  V30 11608 H 1065.17 0.834055 -4.34161 0
M  V30 11609 N 1064.23 1.43628 -0.648757 0
M  V30 11610 C 1065.18 2.30755 0.0455536 0
M  V30 11611 C 1066.15 1.44495 0.819168 0
M  V30 11612 O 1067.33 1.73372 0.79667 0
M  V30 11613 C 1064.47 3.30017 1.00908 0
M  V30 11614 C 1063.59 4.31376 0.232039 0
M  V30 11615 C 1062.72 5.17723 1.18897 0
M  V30 11616 C 1061.76 6.10778 0.402096 0
M  V30 11617 N 1060.9 6.89763 1.31038 0
M  V30 11618 H 1065.74 2.89581 -0.70332 0
M  V30 11619 H 1063.28 1.42662 -0.3586 0
M  V30 11620 H 1065.23 3.86072 1.58128 0
M  V30 11621 H 1063.86 2.72851 1.72488 0
M  V30 11622 H 1062.92 3.77652 -0.456373 0
M  V30 11623 H 1064.23 4.9735 -0.380023 0
M  V30 11624 H 1063.38 5.78381 1.83194 0
M  V30 11625 H 1062.12 4.51864 1.83494 0
M  V30 11626 H 1061.13 5.49212 -0.254255 0
M  V30 11627 H 1062.35 6.78678 -0.239411 0
M  V30 11628 H 1060.3 6.26557 1.94324 0
M  V30 11629 H 1060.21 7.52243 0.752774 0
M  V30 11630 H 1061.48 7.54931 1.94164 0
M  V30 11631 N 1065.71 0.390394 1.52688 0
M  V30 11632 C 1067.13 0.0404028 1.59549 0
M  V30 11633 C 1067.33 -1.44503 1.40432 0
M  V30 11634 O 1066.38 -2.20968 1.22187 0
M  V30 11635 C 1067.7 0.518561 2.96195 0
M  V30 11636 C 1069.24 0.474913 3.09376 0
M  V30 11637 C 1069.72 0.929278 4.48473 0
M  V30 11638 N 1071.21 0.885335 4.5466 0
M  V30 11639 C 1071.94 1.2083 5.60524 0
M  V30 11640 N 1071.44 1.6018 6.74028 0
M  V30 11641 N 1073.23 1.12949 5.50635 0
M  V30 11642 H 1065.38 1.35743 1.63363 0
M  V30 11643 H 1067.65 0.556453 0.767505 0
M  V30 11644 H 1067.35 1.55606 3.15404 0
M  V30 11645 H 1067.23 -0.081779 3.77111 0
M  V30 11646 H 1069.61 -0.553503 2.89863 0
M  V30 11647 H 1069.7 1.11107 2.3041 0
M  V30 11648 H 1069.34 1.95593 4.68728 0
M  V30 11649 H 1069.27 0.270121 5.25907 0
M  V30 11650 H 1071.76 0.595787 3.73174 0
M  V30 11651 H 1072.07 1.83184 7.50775 0
M  V30 11652 H 1070.42 1.64067 6.75357 0
M  V30 11653 H 1073.61 0.821074 4.60843 0
M  V30 11654 H 1073.78 1.3845 6.33037 0
M  V30 11655 N 1067.19 -1.57141 0.120249 0
M  V30 11656 C 1068.44 -1.95238 -0.537449 0
M  V30 11657 C 1068.76 -1.00361 -1.66607 0
M  V30 11658 O 1068.02 -0.0277306 -1.9568 0
M  V30 11659 C 1068.32 -3.39745 -1.10941 0
M  V30 11660 C 1067.98 -4.50785 -0.102012 0
M  V30 11661 C 1066.65 -4.80882 0.174994 0
M  V30 11662 C 1069 -5.17913 0.584462 0
M  V30 11663 C 1066.33 -5.75424 1.14474 0
M  V30 11664 C 1068.68 -6.13497 1.54284 0
M  V30 11665 C 1067.34 -6.41987 1.82782 0
M  V30 11666 H 1066.61 -0.714425 -0.196666 0
M  V30 11667 H 1069.26 -1.90438 0.201418 0
M  V30 11668 H 1067.56 -3.41246 -1.92506 0
M  V30 11669 H 1069.26 -3.66536 -1.62642 0
M  V30 11670 H 1065.85 -4.27342 -0.328097 0
M  V30 11671 H 1070.03 -4.94815 0.383625 0
M  V30 11672 H 1065.29 -5.95801 1.37226 0
M  V30 11673 H 1069.46 -6.64598 2.08044 0
M  V30 11674 H 1067.09 -7.15052 2.5808 0
M  V30 11675 N 1068.67 0.153526 -1.5685 0
M  V30 11676 C 1069.9 0.881055 -1.86872 0
M  V30 11677 C 1070.3 1.75547 -0.705692 0
M  V30 11678 O 1069.65 1.8064 0.333888 0
M  V30 11679 C 1069.71 1.79429 -3.11521 0
M  V30 11680 C 1069.37 1.0977 -4.43621 0
M  V30 11681 C 1070.37 0.454693 -5.17908 0
M  V30 11682 C 1068.06 1.08915 -4.9035 0
M  V30 11683 C 1070.05 -0.187562 -6.37124 0
M  V30 11684 C 1067.74 0.443084 -6.09492 0
M  V30 11685 C 1068.73 -0.194154 -6.82724 0
M  V30 11686 O 1068.42 -0.829995 -7.99604 0
M  V30 11687 H 1068.15 0.260486 -0.623797 0
M  V30 11688 H 1070.71 0.153024 -2.04829 0
M  V30 11689 H 1068.94 2.5631 -2.89555 0
M  V30 11690 H 1070.63 2.39321 -3.27842 0
M  V30 11691 H 1071.39 0.453151 -4.82878 0
M  V30 11692 H 1067.27 1.57456 -4.33276 0
M  V30 11693 H 1070.82 -0.685542 -6.94223 0
M  V30 11694 H 1066.71 0.44227 -6.43983 0
M  V30 11695 H 1067.48 -0.731013 -8.15229 0
M  V30 11696 N 1070.14 1.51827 0.422667 0
M  V30 11697 C 1071.39 1.65464 1.17258 0
M  V30 11698 C 1071.72 0.376834 1.90509 0
M  V30 11699 O 1071 -0.624219 1.84211 0
M  V30 11700 C 1071.28 2.86776 2.17788 0
M  V30 11701 C 1071.13 4.24571 1.48523 0
M  V30 11702 C 1072.45 3.03603 3.18611 0
M  V30 11703 H 1069.57 0.602169 0.424925 0
M  V30 11704 H 1072.21 1.84349 0.45996 0
M  V30 11705 H 1070.36 2.70806 2.78561 0
M  V30 11706 H 1072.04 4.5224 0.909739 0
M  V30 11707 H 1070.28 4.26595 0.787354 0
M  V30 11708 H 1070.95 5.05475 2.2181 0
M  V30 11709 H 1073.43 3.18381 2.67904 0
M  V30 11710 H 1072.3 3.90022 3.8623 0
M  V30 11711 H 1072.56 2.16318 3.85563 0
M  V30 11712 N 1071.62 -0.679052 1.4222 0
M  V30 11713 C 1072.87 -1.43912 1.42463 0
M  V30 11714 C 1073.2 -1.9446 0.0395574 0
M  V30 11715 O 1072.45 -1.71019 -0.951365 0
M  V30 11716 C 1072.75 -2.65528 2.39227 0
M  V30 11717 C 1072.42 -2.33545 3.85704 0
M  V30 11718 C 1071.08 -2.24534 4.25603 0
M  V30 11719 C 1073.43 -2.07496 4.78116 0
M  V30 11720 C 1070.76 -1.87592 5.55901 0
M  V30 11721 C 1073.11 -1.72059 6.08752 0
M  V30 11722 C 1071.78 -1.61555 6.47654 0
M  V30 11723 H 1071.05 -0.52661 0.521309 0
M  V30 11724 H 1073.69 -0.774661 1.75132 0
M  V30 11725 H 1072 -3.36985 1.9987 0
M  V30 11726 H 1073.69 -3.23702 2.36681 0
M  V30 11727 H 1070.28 -2.4146 3.54112 0
M  V30 11728 H 1074.47 -2.13393 4.48082 0
M  V30 11729 H 1069.72 -1.78026 5.84908 0
M  V30 11730 H 1073.9 -1.50926 6.79849 0
M  V30 11731 H 1071.53 -1.32699 7.48529 0
M  V30 11732 N 1073.1 -1.28322 -0.914942 0
M  V30 11733 C 1074.05 -1.12146 -2.01722 0
M  V30 11734 C 1075.02 -0.0189279 -1.66089 0
M  V30 11735 O 1076.2 -0.183638 -1.89914 0
M  V30 11736 C 1073.34 -0.78808 -3.35981 0
M  V30 11737 C 1072.46 -1.96954 -3.84491 0
M  V30 11738 C 1071.59 -1.57688 -5.07255 0
M  V30 11739 C 1070.63 -2.72506 -5.48094 0
M  V30 11740 N 1069.77 -2.33741 -6.62049 0
M  V30 11741 H 1074.61 -2.06461 -2.1489 0
M  V30 11742 H 1072.14 -1.0276 -1.05256 0
M  V30 11743 H 1074.1 -0.575546 -4.13211 0
M  V30 11744 H 1072.73 0.118132 -3.22584 0
M  V30 11745 H 1071.78 -2.29423 -3.03429 0
M  V30 11746 H 1073.1 -2.8304 -4.10719 0
M  V30 11747 H 1072.25 -1.32634 -5.92025 0
M  V30 11748 H 1070.99 -0.687291 -4.82833 0
M  V30 11749 H 1069.99 -2.9826 -4.61867 0
M  V30 11750 H 1071.22 -3.62106 -5.74505 0
M  V30 11751 H 1069.16 -1.4725 -6.3926 0
M  V30 11752 H 1069.08 -3.13364 -6.87997 0
M  V30 11753 H 1070.35 -2.11968 -7.50127 0
M  V30 11754 N 1074.58 1.12322 -1.10551 0
M  V30 11755 C 1075.86 1.80201 -0.760715 0
M  V30 11756 C 1076.24 1.97228 0.752628 0
M  V30 11757 O 1075.58 1.54958 1.67929 0
M  V30 11758 C 1075.79 3.14491 -1.51316 0
M  V30 11759 C 1077.14 3.89671 -1.68647 0
M  V30 11760 O 1078.17 3.24151 -1.47664 0
M  V30 11761 O 1077.02 5.0722 -2.03445 0
M  V30 11762 H 1074.12 0.780084 -0.274587 0
M  V30 11763 H 1076.66 1.19147 -1.20839 0
M  V30 11764 H 1075.44 2.97396 -2.54306 0
M  V30 11765 H 1075.06 3.83253 -1.05842 0
M  V30 11766 N 1076.06 0.894434 1.2976 0
M  V30 11767 C 1077.29 0.532143 1.99629 0
M  V30 11768 C 1077.69 -0.886234 1.6716 0
M  V30 11769 O 1077.04 -1.59573 0.910065 0
M  V30 11770 C 1077.1 0.638335 3.53787 0
M  V30 11771 C 1076.76 2.02273 4.09798 0
M  V30 11772 C 1077.76 2.99327 4.25087 0
M  V30 11773 C 1075.45 2.33069 4.44954 0
M  V30 11774 C 1077.44 4.25304 4.74758 0
M  V30 11775 C 1075.13 3.59289 4.94322 0
M  V30 11776 C 1076.12 4.55222 5.09178 0
M  V30 11777 O 1075.81 5.79202 5.57477 0
M  V30 11778 H 1075.54 0.203326 0.644697 0
M  V30 11779 H 1078.1 1.2043 1.6639 0
M  V30 11780 H 1076.33 -0.0908338 3.86593 0
M  V30 11781 H 1078.02 0.285956 4.04891 0
M  V30 11782 H 1078.78 2.76849 3.9822 0
M  V30 11783 H 1074.66 1.59162 4.32653 0
M  V30 11784 H 1078.21 5.00189 4.86269 0
M  V30 11785 H 1074.1 3.816 5.20626 0
M  V30 11786 H 1074.87 5.81717 5.75802 0
M  V30 11787 N 1077.53 -1.43282 0.656365 0
M  V30 11788 C 1078.5 -2.29188 -0.0239173 0
M  V30 11789 C 1079.5 -1.42373 -0.747436 0
M  V30 11790 O 1080.69 -1.63969 -0.588213 0
M  V30 11791 C 1077.82 -3.24501 -1.0446 0
M  V30 11792 H 1079.01 -2.9083 0.731978 0
M  V30 11793 H 1076.57 -1.50614 0.417752 0
M  V30 11794 H 1077.3 -2.6776 -1.82962 0
M  V30 11795 H 1077.09 -3.88509 -0.52942 0
M  V30 11796 H 1078.58 -3.88971 -1.51958 0
M  V30 11797 N 1079.01 -0.398486 -1.52479 0
M  V30 11798 C 1080.26 0.180752 -2.01692 0
M  V30 11799 C 1080.59 1.46044 -1.28457 0
M  V30 11800 O 1079.84 1.92051 -0.376162 0
M  V30 11801 C 1080.14 0.485909 -3.54081 0
M  V30 11802 C 1079.81 -0.703321 -4.45381 0
M  V30 11803 C 1078.47 -1.02955 -4.70057 0
M  V30 11804 C 1080.82 -1.49848 -4.99194 0
M  V30 11805 C 1078.15 -2.15231 -5.45795 0
M  V30 11806 C 1080.5 -2.61192 -5.76161 0
M  V30 11807 C 1079.17 -2.94313 -5.99113 0
M  V30 11808 H 1078.44 0.0661417 -0.738042 0
M  V30 11809 H 1081.08 -0.53772 -1.83796 0
M  V30 11810 H 1079.39 1.28582 -3.701 0
M  V30 11811 H 1081.09 0.946872 -3.89661 0
M  V30 11812 H 1077.68 -0.439062 -4.26345 0
M  V30 11813 H 1081.86 -1.25968 -4.80048 0
M  V30 11814 H 1077.12 -2.41252 -5.61789 0
M  V30 11815 H 1081.29 -3.23201 -6.16858 0
M  V30 11816 H 1078.92 -3.81431 -6.57583 0
M  V30 11817 N 1080.49 1.57075 -0.12858 0
M  V30 11818 C 1081.74 1.9552 0.527087 0
M  V30 11819 C 1082.07 1.01243 1.66072 0
M  V30 11820 O 1081.32 0.0381076 1.95663 0
M  V30 11821 C 1081.62 3.40329 1.09138 0
M  V30 11822 C 1081.29 4.50832 0.0781039 0
M  V30 11823 C 1079.95 4.80782 -0.200493 0
M  V30 11824 C 1082.3 5.17595 -0.61192 0
M  V30 11825 C 1079.63 5.74809 -1.17524 0
M  V30 11826 C 1081.98 6.12671 -1.57536 0
M  V30 11827 C 1080.64 6.41008 -1.86184 0
M  V30 11828 H 1079.91 0.715458 0.192875 0
M  V30 11829 H 1082.56 1.90328 -0.211515 0
M  V30 11830 H 1080.87 3.42262 1.90694 0
M  V30 11831 H 1082.56 3.67393 1.60696 0
M  V30 11832 H 1079.15 4.2751 0.30543 0
M  V30 11833 H 1083.34 4.94605 -0.40986 0
M  V30 11834 H 1078.59 5.95065 -1.40384 0
M  V30 11835 H 1082.77 6.63486 -2.11565 0
M  V30 11836 H 1080.39 7.13673 -2.61868 0
M  V30 11837 N 1081.97 -0.145205 1.5693 0
M  V30 11838 C 1083.22 -0.855955 1.82637 0
M  V30 11839 C 1083.53 -1.82255 0.710109 0
M  V30 11840 O 1084.74 -2.57758 0.852837 0
M  V30 11841 C 1083.19 -1.57278 3.23715 0
M  V30 11842 C 1082.8 -0.648507 4.43281 0
M  V30 11843 C 1084.55 -2.27021 3.58695 0
M  V30 11844 C 1082.45 -1.36706 5.75383 0
M  V30 11845 H 1081.38 -0.323385 0.68113 0
M  V30 11846 H 1084.03 -0.10869 1.83178 0
M  V30 11847 H 1082.42 -2.36574 3.17567 0
M  V30 11848 H 1083.59 0.109355 4.6067 0
M  V30 11849 H 1081.9 -0.0594029 4.16358 0
M  V30 11850 H 1084.5 -2.81423 4.54648 0
M  V30 11851 H 1084.84 -3.03598 2.8484 0
M  V30 11852 H 1085.38 -1.54642 3.66512 0
M  V30 11853 H 1082.12 -0.6431 6.52338 0
M  V30 11854 H 1081.64 -2.09759 5.61926 0
M  V30 11855 H 1083.32 -1.90748 6.18243 0
M  V30 11856 N 1083.45 -1.52049 -0.414609 0
M  V30 11857 C 1084.67 -1.6997 -1.18848 0
M  V30 11858 C 1085.1 -0.406058 -1.83665 0
M  V30 11859 O 1084.46 0.635981 -1.69779 0
M  V30 11860 C 1084.5 -2.8327 -2.23138 0
M  V30 11861 O 1083.61 -2.48457 -3.29155 0
M  V30 11862 H 1082.95 -0.566003 -0.347183 0
M  V30 11863 H 1085.48 -1.98726 -0.486757 0
M  V30 11864 H 1085.49 -3.08022 -2.67557 0
M  V30 11865 H 1084.16 -3.7713 -1.75344 0
M  V30 11866 H 1082.74 -2.34357 -2.90054 0
M  V30 11867 N 1084.93 0.6715 -1.42579 0
M  V30 11868 C 1085.86 1.79703 -1.42266 0
M  V30 11869 C 1086.87 1.59599 -0.321268 0
M  V30 11870 O 1088.06 1.68657 -0.584564 0
M  V30 11871 C 1085.16 3.16859 -1.20224 0
M  V30 11872 C 1084.33 3.63783 -2.42859 0
M  V30 11873 C 1083.39 4.79683 -2.16312 0
M  V30 11874 O 1082.42 4.90058 -2.89537 0
M  V30 11875 N 1083.62 5.68622 -1.16831 0
M  V30 11876 H 1086.38 1.80455 -2.39282 0
M  V30 11877 H 1083.95 0.854708 -1.375 0
M  V30 11878 H 1085.94 3.92054 -1.00376 0
M  V30 11879 H 1084.51 3.10987 -0.317188 0
M  V30 11880 H 1083.73 2.7923 -2.78252 0
M  V30 11881 H 1085.02 3.91877 -3.24514 0
M  V30 11882 H 1084.41 5.62894 -0.562746 0
M  V30 11883 H 1082.97 6.43615 -1.0297 0
M  V30 11884 N 1086.4 1.28806 0.908124 0
M  V30 11885 C 1087.65 1.1646 1.66027 0
M  V30 11886 C 1087.98 -0.285025 1.92097 0
M  V30 11887 O 1087.26 -1.20675 1.52538 0
M  V30 11888 C 1087.54 1.96951 3.01467 0
M  V30 11889 C 1087.39 3.50007 2.82515 0
M  V30 11890 C 1088.71 1.78932 4.02084 0
M  V30 11891 H 1085.83 0.424435 0.602515 0
M  V30 11892 H 1088.47 1.58185 1.0525 0
M  V30 11893 H 1086.62 1.61495 3.53344 0
M  V30 11894 H 1088.3 3.95401 2.37605 0
M  V30 11895 H 1086.54 3.75356 2.17463 0
M  V30 11896 H 1087.21 4.01591 3.7872 0
M  V30 11897 H 1089.69 2.09885 3.59287 0
M  V30 11898 H 1088.56 2.37615 4.94803 0
M  V30 11899 H 1088.82 0.742286 4.35824 0
M  V30 11900 N 1087.88 -1.11734 1.11145 0
M  V30 11901 C 1088.83 -2.17683 0.766979 0
M  V30 11902 C 1089.8 -1.64051 -0.260108 0
M  V30 11903 O 1090.98 -1.90302 -0.137723 0
M  V30 11904 C 1088.12 -3.44442 0.212982 0
M  V30 11905 C 1087.24 -4.12094 1.29626 0
M  V30 11906 C 1086.37 -5.26526 0.703127 0
M  V30 11907 C 1085.41 -5.86057 1.76647 0
M  V30 11908 N 1084.55 -6.91889 1.19306 0
M  V30 11909 H 1089.39 -2.46495 1.67465 0
M  V30 11910 H 1086.92 -1.21011 0.836353 0
M  V30 11911 H 1088.88 -4.17009 -0.126162 0
M  V30 11912 H 1087.51 -3.16025 -0.657888 0
M  V30 11913 H 1086.56 -3.37631 1.75241 0
M  V30 11914 H 1087.88 -4.52398 2.10089 0
M  V30 11915 H 1087.03 -6.05888 0.313859 0
M  V30 11916 H 1085.77 -4.87519 -0.132856 0
M  V30 11917 H 1084.77 -5.05375 2.16508 0
M  V30 11918 H 1086 -6.27132 2.60543 0
M  V30 11919 H 1083.95 -6.54906 0.378664 0
M  V30 11920 H 1083.86 -7.30832 1.93443 0
M  V30 11921 H 1085.13 -7.75062 0.830578 0
M  V30 11922 N 1089.36 -0.901303 -1.29284 0
M  V30 11923 C 1090.27 -0.3849 -2.31421 0
M  V30 11924 C 1091.29 0.521163 -1.66012 0
M  V30 11925 O 1092.46 0.410356 -1.97175 0
M  V30 11926 C 1089.53 0.377804 -3.44635 0
M  V30 11927 C 1088.59 -0.559974 -4.25632 0
M  V30 11928 C 1087.82 0.166425 -5.3344 0
M  V30 11929 O 1088.04 1.39012 -5.53202 0
M  V30 11930 O 1086.98 -0.491875 -5.99887 0
M  V30 11931 H 1090.8 -1.2323 -2.77575 0
M  V30 11932 H 1088.39 -0.665683 -1.3375 0
M  V30 11933 H 1090.27 0.809041 -4.13561 0
M  V30 11934 H 1088.95 1.20124 -3.00586 0
M  V30 11935 H 1087.85 -1.04036 -3.59343 0
M  V30 11936 H 1089.19 -1.34987 -4.73328 0
M  V30 11937 N 1090.84 1.42931 -0.663954 0
M  V30 11938 C 1092.09 2.00904 -0.179011 0
M  V30 11939 C 1092.4 1.53056 1.21791 0
M  V30 11940 O 1093.61 2.03374 1.79865 0
M  V30 11941 C 1092.06 3.58892 -0.269198 0
M  V30 11942 C 1091.67 4.15731 -1.66949 0
M  V30 11943 C 1093.41 4.24207 0.157589 0
M  V30 11944 C 1091.32 5.66047 -1.71303 0
M  V30 11945 H 1090.25 0.75135 -0.0631623 0
M  V30 11946 H 1092.9 1.6378 -0.827556 0
M  V30 11947 H 1091.28 3.93469 0.447048 0
M  V30 11948 H 1092.46 3.92634 -2.41195 0
M  V30 11949 H 1090.77 3.62826 -2.04318 0
M  V30 11950 H 1093.37 5.34503 0.145057 0
M  V30 11951 H 1093.71 3.98901 1.19095 0
M  V30 11952 H 1094.25 3.94552 -0.507274 0
M  V30 11953 H 1090.98 5.96136 -2.72584 0
M  V30 11954 H 1090.5 5.91167 -1.01398 0
M  V30 11955 H 1092.18 6.30275 -1.46158 0
M  V30 11956 N 1092.32 0.406567 1.52266 0
M  V30 11957 C 1093.55 -0.169378 2.05905 0
M  V30 11958 C 1093.95 -1.39626 1.27676 0
M  V30 11959 O 1093.3 -1.80871 0.32114 0
M  V30 11960 C 1093.36 -0.587209 3.54672 0
M  V30 11961 C 1093.02 0.528588 4.53933 0
M  V30 11962 C 1094.02 1.39137 5.00936 0
M  V30 11963 C 1091.7 0.700549 4.97391 0
M  V30 11964 C 1093.7 2.41108 5.90039 0
M  V30 11965 C 1091.39 1.72357 5.8629 0
M  V30 11966 C 1092.38 2.57725 6.32509 0
M  V30 11967 O 1092.07 3.58275 7.19649 0
M  V30 11968 H 1091.8 -0.0250574 0.675535 0
M  V30 11969 H 1094.36 0.575377 1.97177 0
M  V30 11970 H 1092.59 -1.38421 3.61077 0
M  V30 11971 H 1094.28 -1.09078 3.90969 0
M  V30 11972 H 1095.04 1.26991 4.68079 0
M  V30 11973 H 1090.92 0.0457503 4.60977 0
M  V30 11974 H 1094.47 3.07774 6.26036 0
M  V30 11975 H 1090.36 1.84535 6.1856 0
M  V30 11976 H 1091.13 3.54489 7.37753 0
M  V30 11977 N 1093.79 -1.57004 0.136909 0
M  V30 11978 C 1094.74 -2.17524 -0.823784 0
M  V30 11979 C 1095.74 -1.1294 -1.26258 0
M  V30 11980 O 1096.94 -1.3121 -1.23223 0
M  V30 11981 H 1093.32 -0.696381 -0.283827 0
M  V30 11982 H 1095.29 -2.96997 -0.289052 0
M  V30 11983 C 1094.04 -2.80331 -2.05693 0
M  V30 11984 H 1093.36 -3.60515 -1.72825 0
M  V30 11985 H 1094.8 -3.26192 -2.70878 0
M  V30 11986 C 1093.26 -1.78322 -2.85837 0
M  V30 11987 O 1093.79 -1.2475 -3.81838 0
M  V30 11988 N 1092 -1.47854 -2.50175 0
M  V30 11989 H 1091.54 -1.9161 -1.72173 0
M  V30 11990 H 1091.5 -0.798464 -3.04092 0
M  V30 11991 N 1095.27 0.136881 -1.57004 0
M  V30 11992 C 1096.22 1.18782 -1.99984 0
M  V30 11993 C 1097.21 1.43899 -0.893841 0
M  V30 11994 O 1098.42 1.44072 -1.07904 0
M  V30 11995 H 1094.8 0.400065 -0.636751 0
M  V30 11996 H 1096.77 0.798696 -2.87512 0
M  V30 11997 C 1095.52 2.51105 -2.40502 0
M  V30 11998 H 1094.84 2.32611 -3.25165 0
M  V30 11999 H 1096.28 3.23244 -2.74389 0
M  V30 12000 C 1094.74 3.12386 -1.26161 0
M  V30 12001 O 1095.27 3.97666 -0.567836 0
M  V30 12002 N 1093.47 2.71989 -1.02326 0
M  V30 12003 H 1093.02 2.02736 -1.58921 0
M  V30 12004 H 1092.98 3.13322 -0.26013 0
M  V30 12005 N 1096.75 1.52266 0.40654 0
M  V30 12006 C 1097.7 1.75794 1.4955 0
M  V30 12007 C 1098.67 0.600472 1.54866 0
M  V30 12008 O 1099.85 0.838305 1.71397 0
M  V30 12009 C 1096.99 1.91682 2.86971 0
M  V30 12010 C 1096.11 3.19337 2.90943 0
M  V30 12011 C 1095.24 3.25641 4.1968 0
M  V30 12012 C 1094.28 4.47488 4.17637 0
M  V30 12013 N 1093.42 4.51171 5.37949 0
M  V30 12014 H 1098.26 2.68733 1.28789 0
M  V30 12015 H 1095.79 1.33157 0.625102 0
M  V30 12016 H 1097.75 1.98877 3.66748 0
M  V30 12017 H 1096.38 1.02121 3.06221 0
M  V30 12018 H 1095.43 3.21301 2.03642 0
M  V30 12019 H 1096.75 4.09153 2.85299 0
M  V30 12020 H 1095.9 3.31922 5.07851 0
M  V30 12021 H 1094.64 2.33769 4.28023 0
M  V30 12022 H 1093.64 4.41351 3.27856 0
M  V30 12023 H 1094.87 5.40659 4.10932 0
M  V30 12024 H 1092.81 3.62182 5.46955 0
M  V30 12025 H 1092.73 5.34835 5.3431 0
M  V30 12026 H 1094 4.61685 6.28066 0
M  V30 12027 N 1098.23 -0.663929 1.42933 0
M  V30 12028 C 1099.16 -1.78899 1.50058 0
M  V30 12029 C 1100.14 -1.66329 0.356164 0
M  V30 12030 O 1101.32 -1.85587 0.571944 0
M  V30 12031 C 1098.45 -3.17265 1.41281 0
M  V30 12032 C 1097.41 -3.44584 2.53861 0
M  V30 12033 C 1096.73 -4.82638 2.3014 0
M  V30 12034 C 1098.03 -3.40394 3.96143 0
M  V30 12035 H 1099.73 -1.73194 2.44222 0
M  V30 12036 H 1097.27 -0.83182 1.17545 0
M  V30 12037 H 1099.23 -3.95715 1.44872 0
M  V30 12038 H 1097.95 -3.23675 0.43616 0
M  V30 12039 H 1096.61 -2.685 2.49606 0
M  V30 12040 H 1096.26 -4.85711 1.30743 0
M  V30 12041 H 1095.96 -5.01879 3.056 0
M  V30 12042 H 1097.48 -5.63359 2.35497 0
M  V30 12043 H 1098.9 -4.08796 4.01943 0
M  V30 12044 H 1097.29 -3.7117 4.71543 0
M  V30 12045 H 1098.36 -2.38767 4.22041 0
M  V30 12046 N 1099.71 -1.29285 -0.901281 0
M  V30 12047 C 1100.65 -1.1428 -2.00521 0
M  V30 12048 C 1101.62 -0.0365428 -1.6606 0
M  V30 12049 O 1102.81 -0.203771 -1.89709 0
M  V30 12050 C 1099.95 -0.823671 -3.35126 0
M  V30 12051 C 1099.06 -2.01021 -3.8238 0
M  V30 12052 C 1098.2 -1.6306 -5.05554 0
M  V30 12053 C 1097.24 -2.78304 -5.45173 0
M  V30 12054 N 1096.37 -2.4075 -6.59533 0
M  V30 12055 H 1101.21 -2.08729 -2.12688 0
M  V30 12056 H 1098.75 -1.0387 -1.04161 0
M  V30 12057 H 1100.71 -0.61934 -4.12577 0
M  V30 12058 H 1099.34 0.0839113 -3.22691 0
M  V30 12059 H 1098.39 -2.32629 -3.00978 0
M  V30 12060 H 1099.7 -2.8738 -4.07694 0
M  V30 12061 H 1098.86 -1.38906 -5.90584 0
M  V30 12062 H 1097.59 -0.738464 -4.82077 0
M  V30 12063 H 1096.6 -3.03142 -4.58678 0
M  V30 12064 H 1097.82 -3.68179 -5.70632 0
M  V30 12065 H 1095.77 -1.54022 -6.37662 0
M  V30 12066 H 1095.69 -3.20643 -6.84634 0
M  V30 12067 H 1096.96 -2.19912 -7.47836 0
M  V30 12068 N 1101.18 1.11143 -1.11736 0
M  V30 12069 C 1102.43 1.82586 -0.866412 0
M  V30 12070 C 1102.75 1.85227 0.609593 0
M  V30 12071 O 1102.02 1.32505 1.44288 0
M  V30 12072 H 1100.6 0.676149 -0.31754 0
M  V30 12073 H 1103.27 1.34516 -1.41037 0
M  V30 12074 H 1102.36 2.8635 -1.24136 0
M  V30 12075 N 1102.66 0.908147 1.28804 0
M  V30 12076 C 1103.9 0.545425 1.96989 0
M  V30 12077 C 1104.27 -0.893226 1.69957 0
M  V30 12078 O 1105.47 -1.36324 2.31666 0
M  V30 12079 C 1103.74 0.83953 3.474 0
M  V30 12080 S 1105.3 0.582385 4.34918 0
M  V30 12081 H 1102.12 0.202027 0.681693 0
M  V30 12082 H 1104.72 1.1724 1.56445 0
M  V30 12083 H 1103.42 1.88463 3.64568 0
M  V30 12084 H 1102.95 0.200999 3.92886 0
M  V30 12085 H 1104.97 -0.568807 4.92929 0
M  V30 12086 N 1104.14 -1.42577 0.671525 0
M  V30 12087 C 1105.1 -2.292 0.000392482 0
M  V30 12088 C 1106.1 -1.43158 -0.732294 0
M  V30 12089 O 1107.29 -1.64583 -0.570789 0
M  V30 12090 C 1104.43 -3.25591 -1.01013 0
M  V30 12091 H 1105.62 -2.90037 0.762783 0
M  V30 12092 H 1103.17 -1.50162 0.433703 0
M  V30 12093 H 1103.91 -2.69685 -1.80112 0
M  V30 12094 H 1103.69 -3.89049 -0.488183 0
M  V30 12095 H 1105.18 -3.90561 -1.47824 0
M  V30 12096 N 1105.62 -0.414636 -1.52048 0
M  V30 12097 C 1107.03 0.0537107 -1.86623 0
M  V30 12098 C 1107.38 1.43955 -1.3331 0
M  V30 12099 O 1106.51 2.05616 -0.674606 0
M  V30 12100 C 1107.1 0.104241 -3.3864 0
M  V30 12101 C 1105.66 0.516936 -3.72833 0
M  V30 12102 C 1104.81 -0.305042 -2.75617 0
M  V30 12103 H 1107.76 -0.631469 -1.45596 0
M  V30 12104 H 1107.78 0.918395 -3.6925 0
M  V30 12105 H 1107.29 -0.904523 -3.77412 0
M  V30 12106 H 1105.39 1.53214 -3.39641 0
M  V30 12107 H 1105.5 0.2575 -4.78408 0
M  V30 12108 H 1103.87 0.233416 -2.53628 0
M  V30 12109 H 1104.65 -1.31226 -3.1723 0
M  V30 12110 N 1107.1 1.56929 -0.145233 0
M  V30 12111 C 1108.35 1.95243 0.506273 0
M  V30 12112 C 1108.66 1.0325 1.66129 0
M  V30 12113 O 1109.86 1.31135 2.37731 0
M  V30 12114 C 1108.32 3.47079 0.952042 0
M  V30 12115 C 1107.93 4.47654 -0.175947 0
M  V30 12116 C 1109.67 3.94263 1.57344 0
M  V30 12117 C 1107.58 5.90698 0.287993 0
M  V30 12118 H 1106.51 0.728906 0.192903 0
M  V30 12119 H 1109.16 1.82062 -0.229295 0
M  V30 12120 H 1107.54 3.55587 1.74282 0
M  V30 12121 H 1108.72 4.50841 -0.952848 0
M  V30 12122 H 1107.03 4.10377 -0.70564 0
M  V30 12123 H 1109.63 4.9857 1.93214 0
M  V30 12124 H 1109.97 3.35714 2.46174 0
M  V30 12125 H 1110.5 3.88665 0.847593 0
M  V30 12126 H 1107.24 6.53061 -0.564889 0
M  V30 12127 H 1106.76 5.90876 1.03081 0
M  V30 12128 H 1108.44 6.42747 0.740586 0
M  V30 12129 N 1108.58 -0.128553 1.57075 0
M  V30 12130 C 1109.8 -0.8564 1.88893 0
M  V30 12131 C 1110.23 -1.73095 0.736196 0
M  V30 12132 O 1109.58 -1.78567 -0.313629 0
M  V30 12133 C 1109.63 -1.67368 3.19406 0
M  V30 12134 O 1108.74 -2.77973 3.04639 0
M  V30 12135 H 1108.08 -0.237424 0.620102 0
M  V30 12136 H 1110.61 -0.113821 2.04283 0
M  V30 12137 H 1110.62 -2.0649 3.51889 0
M  V30 12138 H 1109.29 -1.03161 4.02903 0
M  V30 12139 H 1107.87 -2.42123 2.83603 0
M  V30 12140 N 1110.05 -1.5248 -0.398459 0
M  V30 12141 C 1111.3 -1.67309 -1.1461 0
M  V30 12142 C 1111.63 -0.407095 -1.89885 0
M  V30 12143 O 1110.91 0.594834 -1.85181 0
M  V30 12144 C 1111.19 -2.90204 -2.13198 0
M  V30 12145 C 1111.04 -4.26881 -1.4175 0
M  V30 12146 C 1112.36 -3.08634 -3.13741 0
M  V30 12147 H 1109.48 -0.608853 -0.415292 0
M  V30 12148 H 1112.12 -1.85057 -0.430573 0
M  V30 12149 H 1110.27 -2.75204 -2.74218 0
M  V30 12150 H 1111.95 -4.53631 -0.837676 0
M  V30 12151 H 1110.19 -4.27793 -0.719387 0
M  V30 12152 H 1110.86 -5.08939 -2.1374 0
M  V30 12153 H 1113.34 -3.22603 -2.62805 0
M  V30 12154 H 1112.21 -3.96117 -3.79977 0
M  V30 12155 H 1112.47 -2.22425 -3.82073 0
M  V30 12156 N 1111.53 0.65634 -1.43283 0
M  V30 12157 C 1112.48 1.79058 -1.48462 0
M  V30 12158 C 1113.47 1.65563 -0.358512 0
M  V30 12159 O 1114.68 1.71947 -0.532365 0
M  V30 12160 H 1111.05 0.590716 -0.465358 0
M  V30 12161 H 1113.03 1.7181 -2.43975 0
M  V30 12162 C 1111.77 3.17304 -1.42175 0
M  V30 12163 H 1111.1 3.28324 -2.2813 0
M  V30 12164 H 1112.54 3.96633 -1.4986 0
M  V30 12165 C 1111 3.36613 -0.138929 0
M  V30 12166 O 1111.53 3.93633 0.80101 0
M  V30 12167 N 1109.73 2.90557 -0.0501237 0
M  V30 12168 H 1109.28 2.4434 -0.815821 0
M  V30 12169 H 1109.24 3.03853 0.807504 0
M  V30 12170 N 1113.01 1.29761 0.894412 0
M  V30 12171 C 1114.23 1.21064 1.68399 0
M  V30 12172 C 1114.66 -0.224608 1.86754 0
M  V30 12173 O 1114.02 -1.16199 1.39167 0
M  V30 12174 C 1114.07 1.93468 3.04306 0
M  V30 12175 O 1113.17 1.25533 3.9283 0
M  V30 12176 H 1112.51 0.419223 0.514925 0
M  V30 12177 H 1115.04 1.71421 1.11696 0
M  V30 12178 H 1115.05 2.02127 3.54413 0
M  V30 12179 H 1113.73 2.97857 2.90265 0
M  V30 12180 H 1112.3 1.25168 3.51266 0
M  V30 12181 N 1114.49 -1.10549 1.12324 0
M  V30 12182 C 1115.4 -2.20428 0.803032 0
M  V30 12183 C 1116.41 -1.72756 -0.207674 0
M  V30 12184 O 1117.59 -2.01357 -0.0415623 0
M  V30 12185 C 1114.65 -3.45716 0.261032 0
M  V30 12186 C 1113.72 -4.08129 1.33152 0
M  V30 12187 C 1112.95 -5.27436 0.815288 0
M  V30 12188 O 1113.17 -5.69317 -0.351361 0
M  V30 12189 O 1112.11 -5.80674 1.58434 0
M  V30 12190 H 1115.93 -2.50249 1.72073 0
M  V30 12191 H 1113.52 -1.19263 0.899815 0
M  V30 12192 H 1115.4 -4.21384 -0.0364007 0
M  V30 12193 H 1114.07 -3.17525 -0.629249 0
M  V30 12194 H 1112.98 -3.3415 1.6821 0
M  V30 12195 H 1114.31 -4.4052 2.19552 0
M  V30 12196 N 1115.97 -0.914965 -1.28321 0
M  V30 12197 C 1116.91 -0.394477 -2.29231 0
M  V30 12198 C 1117.91 0.514481 -1.61398 0
M  V30 12199 O 1119.11 0.395591 -1.75599 0
M  V30 12200 H 1115.49 -0.108969 -0.744063 0
M  V30 12201 H 1117.46 -1.25862 -2.70557 0
M  V30 12202 C 1116.21 0.349134 -3.45943 0
M  V30 12203 H 1115.53 -0.341087 -3.98342 0
M  V30 12204 H 1116.97 0.677944 -4.18545 0
M  V30 12205 C 1115.43 1.55747 -2.98738 0
M  V30 12206 O 1115.96 2.65654 -3.01315 0
M  V30 12207 N 1114.17 1.40488 -2.54384 0
M  V30 12208 H 1113.71 0.510716 -2.52487 0
M  V30 12209 H 1113.67 2.21464 -2.23161 0
M  V30 12210 N 1117.44 1.42219 -0.679077 0
M  V30 12211 C 1118.39 2.308 -0.00340316 0
M  V30 12212 C 1119.36 1.462 0.788334 0
M  V30 12213 O 1120.55 1.75023 0.759716 0
M  V30 12214 C 1117.69 3.32084 0.938854 0
M  V30 12215 C 1116.8 4.31772 0.140485 0
M  V30 12216 C 1115.93 5.20128 1.07888 0
M  V30 12217 C 1114.97 6.11493 0.27245 0
M  V30 12218 N 1114.11 6.92388 1.16378 0
M  V30 12219 H 1118.95 2.88024 -0.764587 0
M  V30 12220 H 1116.49 1.41869 -0.38878 0
M  V30 12221 H 1118.44 3.89339 1.49903 0
M  V30 12222 H 1117.07 2.76448 1.66662 0
M  V30 12223 H 1116.13 3.76599 -0.536376 0
M  V30 12224 H 1117.44 4.96432 -0.485433 0
M  V30 12225 H 1116.59 5.82137 1.70884 0
M  V30 12226 H 1115.33 4.55655 1.73868 0
M  V30 12227 H 1114.34 5.48549 -0.370693 0
M  V30 12228 H 1115.56 6.78017 -0.383315 0
M  V30 12229 H 1113.51 6.30538 1.8099 0
M  V30 12230 H 1113.42 7.5367 0.593043 0
M  V30 12231 H 1114.69 7.58879 1.78107 0
M  V30 12232 N 1118.92 0.422693 1.51826 0
M  V30 12233 C 1120.2 -0.20786 1.94492 0
M  V30 12234 C 1120.58 -1.61414 1.36047 0
M  V30 12235 O 1119.93 -2.21987 0.541657 0
M  V30 12236 C 1120.14 -0.200457 3.48424 0
M  V30 12237 C 1121.48 -0.413199 4.22585 0
M  V30 12238 O 1122.51 -0.27922 3.55104 0
M  V30 12239 O 1121.37 -0.678469 5.42272 0
M  V30 12240 H 1118.46 -0.137851 0.81543 0
M  V30 12241 H 1121.01 0.479617 1.62781 0
M  V30 12242 H 1119.78 0.783263 3.83381 0
M  V30 12243 H 1119.4 -0.931464 3.86535 0
M  V30 12244 N 1120.4 -1.5685 0.153553 0
M  V30 12245 C 1121.31 -2.20664 -0.796528 0
M  V30 12246 C 1122.33 -1.19289 -1.26674 0
M  V30 12247 O 1123.5 -1.51889 -1.32256 0
M  V30 12248 C 1120.57 -2.82088 -2.01561 0
M  V30 12249 C 1119.63 -3.9861 -1.59401 0
M  V30 12250 C 1118.86 -4.57096 -2.75498 0
M  V30 12251 O 1119.08 -4.14462 -3.9189 0
M  V30 12252 O 1118.02 -5.47254 -2.50593 0
M  V30 12253 H 1121.84 -3.02376 -0.283282 0
M  V30 12254 H 1119.43 -1.49218 -0.0737927 0
M  V30 12255 H 1121.31 -3.21103 -2.72893 0
M  V30 12256 H 1119.99 -2.03385 -2.51826 0
M  V30 12257 H 1118.89 -3.64299 -0.850725 0
M  V30 12258 H 1120.23 -4.78853 -1.13845 0
M  V30 12259 N 1121.88 0.120221 -1.57141 0
M  V30 12260 C 1122.79 1.16641 -2.03549 0
M  V30 12261 C 1123.8 1.45407 -0.955656 0
M  V30 12262 O 1124.98 1.56547 -1.26708 0
M  V30 12263 C 1122.04 2.4734 -2.42948 0
M  V30 12264 C 1121.11 2.25982 -3.65008 0
M  V30 12265 C 1120.34 3.50449 -4.02518 0
M  V30 12266 O 1120.56 4.57706 -3.40384 0
M  V30 12267 O 1119.5 3.41524 -4.95626 0
M  V30 12268 H 1123.32 0.802323 -2.9291 0
M  V30 12269 H 1120.91 0.330927 -1.45689 0
M  V30 12270 H 1122.79 3.24348 -2.69029 0
M  V30 12271 H 1121.46 2.83225 -1.56733 0
M  V30 12272 H 1120.37 1.46837 -3.44078 0
M  V30 12273 H 1121.7 1.95002 -4.51924 0
M  V30 12274 N 1123.36 1.52689 0.390367 0
M  V30 12275 C 1124.3 1.7737 1.47677 0
M  V30 12276 C 1125.27 0.616864 1.54221 0
M  V30 12277 O 1126.46 0.856437 1.70499 0
M  V30 12278 C 1123.6 1.94715 2.84921 0
M  V30 12279 C 1122.71 3.22405 2.8754 0
M  V30 12280 C 1121.85 3.30074 4.16202 0
M  V30 12281 C 1120.89 4.51893 4.12867 0
M  V30 12282 N 1120.02 4.56851 5.33134 0
M  V30 12283 H 1124.86 2.70084 1.25932 0
M  V30 12284 H 1122.4 1.33813 0.610943 0
M  V30 12285 H 1124.36 2.02755 3.64618 0
M  V30 12286 H 1122.99 1.05363 3.0512 0
M  V30 12287 H 1122.04 3.23442 2.00223 0
M  V30 12288 H 1123.35 4.12156 2.80943 0
M  V30 12289 H 1122.51 3.3729 5.04302 0
M  V30 12290 H 1121.24 2.38295 4.25519 0
M  V30 12291 H 1120.25 4.44803 3.23156 0
M  V30 12292 H 1121.47 5.44987 4.05174 0
M  V30 12293 H 1119.42 3.67963 5.43083 0
M  V30 12294 H 1119.34 5.40472 5.28607 0
M  V30 12295 H 1120.61 4.6832 6.23134 0
M  V30 12296 N 1124.83 -0.648732 1.43629 0
M  V30 12297 C 1125.78 -1.76145 1.49136 0
M  V30 12298 C 1126.75 -1.62569 0.340649 0
M  V30 12299 O 1127.94 -1.82748 0.548435 0
M  V30 12300 C 1125.08 -3.14321 1.42466 0
M  V30 12301 C 1124.19 -3.38999 2.67776 0
M  V30 12302 C 1123.32 -4.67047 2.53062 0
M  V30 12303 C 1122.36 -4.84845 3.7362 0
M  V30 12304 N 1121.5 -6.04155 3.57689 0
M  V30 12305 H 1126.34 -1.70774 2.44213 0
M  V30 12306 H 1123.88 -0.833311 1.2122 0
M  V30 12307 H 1125.84 -3.94206 1.36592 0
M  V30 12308 H 1124.47 -3.18751 0.509666 0
M  V30 12309 H 1123.52 -2.53179 2.83909 0
M  V30 12310 H 1124.83 -3.48035 3.57314 0
M  V30 12311 H 1123.98 -5.55066 2.44922 0
M  V30 12312 H 1122.72 -4.60339 1.61056 0
M  V30 12313 H 1121.73 -3.95261 3.82163 0
M  V30 12314 H 1122.95 -4.9338 4.6664 0
M  V30 12315 H 1120.9 -5.9857 2.6842 0
M  V30 12316 H 1120.82 -6.14169 4.40832 0
M  V30 12317 H 1122.08 -6.94782 3.53409 0
M  V30 12318 N 1126.31 -1.30234 -0.887518 0
M  V30 12319 C 1127.26 -1.16302 -2.01436 0
M  V30 12320 C 1128.25 -0.0755422 -1.69231 0
M  V30 12321 O 1129.46 -0.236213 -1.78443 0
M  V30 12322 H 1125.84 -0.35961 -0.660443 0
M  V30 12323 H 1127.81 -2.11677 -2.10322 0
M  V30 12324 C 1126.56 -0.869009 -3.36665 0
M  V30 12325 H 1125.88 -1.69787 -3.61956 0
M  V30 12326 H 1127.32 -0.811621 -4.16159 0
M  V30 12327 C 1125.78 0.428021 -3.3417 0
M  V30 12328 O 1126.31 1.45033 -3.74604 0
M  V30 12329 N 1124.51 0.438264 -2.87276 0
M  V30 12330 H 1124.06 -0.394142 -2.54567 0
M  V30 12331 H 1124.02 1.30604 -2.85989 0
M  V30 12332 N 1127.79 1.09952 -1.12909 0
M  V30 12333 C 1129.07 1.78547 -0.798767 0
M  V30 12334 C 1129.45 1.9878 0.710624 0
M  V30 12335 O 1128.8 1.58485 1.64604 0
M  V30 12336 C 1129.01 3.1121 -1.57953 0
M  V30 12337 C 1130.35 3.86006 -1.76874 0
M  V30 12338 O 1131.38 3.20946 -1.54506 0
M  V30 12339 O 1130.24 5.02791 -2.14158 0
M  V30 12340 H 1127.33 0.774084 -0.291072 0
M  V30 12341 H 1129.88 1.16557 -1.2334 0
M  V30 12342 H 1128.65 2.91935 -2.60557 0
M  V30 12343 H 1128.27 3.80922 -1.13948 0
M  V30 12344 N 1129.27 0.921757 1.27833 0
M  V30 12345 C 1130.49 0.574599 1.99281 0
M  V30 12346 C 1130.92 -0.838905 1.68357 0
M  V30 12347 O 1130.28 -1.56196 0.920468 0
M  V30 12348 C 1130.32 0.800027 3.51613 0
M  V30 12349 O 1129.43 -0.137215 4.12172 0
M  V30 12350 H 1128.77 0.221887 0.625829 0
M  V30 12351 H 1131.3 1.23939 1.62789 0
M  V30 12352 H 1131.31 0.71326 4.01717 0
M  V30 12353 H 1129.98 1.83042 3.73455 0
M  V30 12354 H 1128.56 -0.00103872 3.729 0
M  V30 12355 N 1130.75 -1.41857 0.686609 0
M  V30 12356 C 1131.69 -2.30795 0.015643 0
M  V30 12357 C 1132.66 -1.46616 -0.780569 0
M  V30 12358 O 1133.85 -1.75423 -0.750424 0
M  V30 12359 C 1130.99 -3.32577 -0.921229 0
M  V30 12360 C 1130.1 -4.3184 -0.117585 0
M  V30 12361 C 1129.24 -5.20693 -1.05128 0
M  V30 12362 C 1128.28 -6.11629 -0.240018 0
M  V30 12363 N 1127.41 -6.92995 -1.12704 0
M  V30 12364 H 1132.25 -2.87615 0.77985 0
M  V30 12365 H 1129.79 -1.41661 0.396298 0
M  V30 12366 H 1131.75 -3.90129 -1.47836 0
M  V30 12367 H 1130.38 -2.77328 -1.65193 0
M  V30 12368 H 1129.43 -3.7631 0.55634 0
M  V30 12369 H 1130.74 -4.96168 0.511753 0
M  V30 12370 H 1129.9 -5.83035 -1.67795 0
M  V30 12371 H 1128.63 -4.5657 -1.71449 0
M  V30 12372 H 1127.64 -5.48345 0.399779 0
M  V30 12373 H 1128.86 -6.77805 0.419266 0
M  V30 12374 H 1126.81 -6.31489 -1.77644 0
M  V30 12375 H 1126.73 -7.53974 -0.553065 0
M  V30 12376 H 1128 -7.59813 -1.7408 0
M  V30 12377 N 1132.22 -0.430739 -1.51599 0
M  V30 12378 C 1133.17 0.384024 -2.27583 0
M  V30 12379 C 1134.14 1.02254 -1.30895 0
M  V30 12380 O 1135.33 1.0427 -1.59789 0
M  V30 12381 C 1132.47 1.48291 -3.11615 0
M  V30 12382 C 1131.58 0.863187 -4.23288 0
M  V30 12383 C 1130.71 1.93657 -4.94642 0
M  V30 12384 C 1129.75 1.29493 -5.98246 0
M  V30 12385 N 1128.89 2.30939 -6.63032 0
M  V30 12386 H 1133.73 -0.270314 -2.96771 0
M  V30 12387 H 1131.27 -0.145148 -1.46382 0
M  V30 12388 H 1133.23 2.13124 -3.58656 0
M  V30 12389 H 1131.86 2.10697 -2.44554 0
M  V30 12390 H 1130.91 0.103326 -3.8026 0
M  V30 12391 H 1132.22 0.354676 -4.97537 0
M  V30 12392 H 1131.37 2.66167 -5.45197 0
M  V30 12393 H 1130.11 2.4788 -4.20008 0
M  V30 12394 H 1129.12 0.555262 -5.46989 0
M  V30 12395 H 1130.34 0.760122 -6.74833 0
M  V30 12396 H 1128.29 2.84254 -5.91216 0
M  V30 12397 H 1128.21 1.84961 -7.33025 0
M  V30 12398 H 1129.47 3.02953 -7.1822 0
M  V30 12399 N 1133.7 1.56767 -0.161869 0
M  V30 12400 C 1134.65 2.17502 0.772102 0
M  V30 12401 C 1135.62 1.11223 1.23364 0
M  V30 12402 O 1136.8 1.39332 1.30351 0
M  V30 12403 C 1133.94 2.81248 1.99984 0
M  V30 12404 C 1133.06 4.01962 1.58274 0
M  V30 12405 C 1132.19 4.53662 2.76341 0
M  V30 12406 C 1131.23 5.66807 2.31076 0
M  V30 12407 N 1130.37 6.13059 3.42203 0
M  V30 12408 H 1135.21 2.96971 0.247382 0
M  V30 12409 H 1132.75 1.46685 0.110382 0
M  V30 12410 H 1134.7 3.16359 2.7198 0
M  V30 12411 H 1133.33 2.04398 2.49842 0
M  V30 12412 H 1132.39 3.72733 0.759874 0
M  V30 12413 H 1133.7 4.83891 1.2104 0
M  V30 12414 H 1132.85 4.90905 3.56507 0
M  V30 12415 H 1131.59 3.7077 3.16829 0
M  V30 12416 H 1130.6 5.29125 1.49354 0
M  V30 12417 H 1131.82 6.51494 1.91657 0
M  V30 12418 H 1129.77 5.33099 3.82285 0
M  V30 12419 H 1129.68 6.89953 3.09033 0
M  V30 12420 H 1130.95 6.54951 4.22682 0
M  V30 12421 N 1135.18 -0.111886 1.57202 0
M  V30 12422 C 1136.09 -1.1556 2.04165 0
M  V30 12423 C 1137.11 -1.44898 0.963354 0
M  V30 12424 O 1138.28 -1.55873 1.27536 0
M  V30 12425 C 1135.35 -2.46048 2.44256 0
M  V30 12426 C 1134.41 -2.24043 3.66201 0
M  V30 12427 C 1133.64 -3.4831 4.04371 0
M  V30 12428 O 1133.86 -4.55895 3.42806 0
M  V30 12429 O 1132.8 -3.38891 4.9743 0
M  V30 12430 H 1136.62 -0.786778 2.93332 0
M  V30 12431 H 1134.21 -0.323196 1.45862 0
M  V30 12432 H 1136.09 -3.22916 2.70745 0
M  V30 12433 H 1134.77 -2.8239 1.58233 0
M  V30 12434 H 1133.67 -1.4501 3.44852 0
M  V30 12435 H 1135.01 -1.92602 4.52952 0
M  V30 12436 N 1136.66 -1.52894 -0.382264 0
M  V30 12437 C 1137.57 -1.81084 -1.4915 0
M  V30 12438 C 1138.58 -0.698045 -1.59384 0
M  V30 12439 O 1139.76 -0.98635 -1.75594 0
M  V30 12440 C 1136.83 -1.97987 -2.84608 0
M  V30 12441 C 1135.89 -3.219 -2.8404 0
M  V30 12442 C 1135.12 -3.37988 -4.13037 0
M  V30 12443 O 1135.34 -2.58733 -5.08344 0
M  V30 12444 O 1134.28 -4.31273 -4.19866 0
M  V30 12445 H 1138.1 -2.75289 -1.28257 0
M  V30 12446 H 1135.69 -1.38068 -0.57076 0
M  V30 12447 H 1137.57 -2.10773 -3.64901 0
M  V30 12448 H 1136.24 -1.06972 -3.05514 0
M  V30 12449 H 1135.15 -3.14551 -2.02505 0
M  V30 12450 H 1136.48 -4.12783 -2.68087 0
M  V30 12451 N 1138.14 0.641106 -1.43971 0
M  V30 12452 C 1139.08 1.75352 -1.50068 0
M  V30 12453 C 1140.05 1.62386 -0.349266 0
M  V30 12454 O 1141.24 1.82455 -0.558118 0
M  V30 12455 C 1138.38 3.13561 -1.4413 0
M  V30 12456 C 1137.49 3.37574 -2.6957 0
M  V30 12457 C 1136.63 4.65698 -2.55535 0
M  V30 12458 C 1135.67 4.82857 -3.76186 0
M  V30 12459 N 1134.8 6.02249 -3.60888 0
M  V30 12460 H 1139.64 1.69477 -2.45116 0
M  V30 12461 H 1137.18 0.826871 -1.2166 0
M  V30 12462 H 1139.14 3.93476 -1.38681 0
M  V30 12463 H 1137.77 3.18476 -0.526563 0
M  V30 12464 H 1136.82 2.5167 -2.85248 0
M  V30 12465 H 1138.13 3.46135 -3.59154 0
M  V30 12466 H 1137.29 5.53759 -2.47862 0
M  V30 12467 H 1136.03 4.59479 -1.63495 0
M  V30 12468 H 1135.03 3.93229 -3.84254 0
M  V30 12469 H 1136.26 4.90898 -4.6925 0
M  V30 12470 H 1134.2 5.97138 -2.71591 0
M  V30 12471 H 1134.12 6.11822 -4.44083 0
M  V30 12472 H 1135.39 6.92898 -3.57088 0
M  V30 12473 N 1139.62 1.30703 0.880598 0
M  V30 12474 C 1140.89 1.1043 1.61445 0
M  V30 12475 C 1141.27 -0.344837 2.08264 0
M  V30 12476 O 1140.62 -1.33711 1.85293 0
M  V30 12477 C 1140.83 2.10908 2.78063 0
M  V30 12478 C 1142.18 2.42861 3.48287 0
M  V30 12479 O 1143.2 2.09252 2.88257 0
M  V30 12480 O 1142.06 3.00369 4.56553 0
M  V30 12481 H 1139.16 0.424419 0.709787 0
M  V30 12482 H 1141.7 1.42144 0.926991 0
M  V30 12483 H 1140.47 3.08431 2.40803 0
M  V30 12484 H 1140.1 1.80036 3.54503 0
M  V30 12485 N 1141.09 -1.09351 1.1349 0
M  V30 12486 C 1142.32 -1.85844 0.92069 0
M  V30 12487 C 1142.74 -1.80616 -0.525303 0
M  V30 12488 O 1142.1 -1.1842 -1.37282 0
M  V30 12489 C 1142.15 -3.31716 1.4141 0
M  V30 12490 O 1141.25 -4.08014 0.599838 0
M  V30 12491 H 1140.59 -0.576242 0.32991 0
M  V30 12492 H 1143.12 -1.38084 1.50976 0
M  V30 12493 H 1143.13 -3.82564 1.41805 0
M  V30 12494 H 1141.81 -3.34837 2.46692 0
M  V30 12495 H 1140.39 -3.66944 0.663816 0
M  V30 12496 N 1142.57 -0.928524 -1.27343 0
M  V30 12497 C 1143.48 -0.433901 -2.30553 0
M  V30 12498 C 1144.5 0.485832 -1.6708 0
M  V30 12499 O 1145.67 0.36844 -1.98001 0
M  V30 12500 C 1142.74 0.304617 -3.45359 0
M  V30 12501 C 1141.8 -0.650131 -4.24349 0
M  V30 12502 C 1141.03 0.0532372 -5.33673 0
M  V30 12503 O 1141.26 1.27246 -5.56026 0
M  V30 12504 O 1140.19 -0.619009 -5.98709 0
M  V30 12505 H 1144.02 -1.2909 -2.74899 0
M  V30 12506 H 1141.6 -0.693903 -1.32308 0
M  V30 12507 H 1143.48 0.721137 -4.15184 0
M  V30 12508 H 1142.16 1.13721 -3.03066 0
M  V30 12509 H 1141.06 -1.11635 -3.57055 0
M  V30 12510 H 1142.4 -1.44996 -4.70358 0
M  V30 12511 N 1144.05 1.41491 -0.694123 0
M  V30 12512 C 1145 2.30783 -0.0278824 0
M  V30 12513 C 1145.97 1.47028 0.772783 0
M  V30 12514 O 1147.15 1.75819 0.74111 0
M  V30 12515 C 1144.29 3.33061 0.903579 0
M  V30 12516 C 1143.4 4.31896 0.0946823 0
M  V30 12517 C 1142.54 5.21243 1.02365 0
M  V30 12518 C 1141.58 6.11748 0.207578 0
M  V30 12519 N 1140.72 6.93583 1.09028 0
M  V30 12520 H 1145.56 2.87197 -0.795092 0
M  V30 12521 H 1143.09 1.41449 -0.403806 0
M  V30 12522 H 1145.05 3.90907 1.45765 0
M  V30 12523 H 1143.68 2.782 1.6372 0
M  V30 12524 H 1142.73 3.76009 -0.576289 0
M  V30 12525 H 1144.04 4.95889 -0.538059 0
M  V30 12526 H 1143.2 5.83917 1.647 0
M  V30 12527 H 1141.94 4.57473 1.69025 0
M  V30 12528 H 1140.94 5.48125 -0.428854 0
M  V30 12529 H 1142.17 6.77573 -0.455206 0
M  V30 12530 H 1140.11 6.32422 1.74292 0
M  V30 12531 H 1140.03 7.54257 0.513073 0
M  V30 12532 H 1141.3 7.60726 1.70048 0
M  V30 12533 N 1145.53 0.438773 1.51369 0
M  V30 12534 C 1146.46 -0.362467 2.3067 0
M  V30 12535 C 1147.44 -1.01973 1.36145 0
M  V30 12536 O 1148.62 -1.0231 1.65065 0
M  V30 12537 C 1145.75 -1.46313 3.14976 0
M  V30 12538 C 1144.71 -0.929272 4.1779 0
M  V30 12539 C 1144.03 -2.12579 4.90627 0
M  V30 12540 C 1145.33 0.0372782 5.22287 0
M  V30 12541 H 1147.03 0.29931 2.979 0
M  V30 12542 H 1144.57 0.14539 1.43264 0
M  V30 12543 H 1146.53 -2.03088 3.69233 0
M  V30 12544 H 1145.25 -2.15321 2.45569 0
M  V30 12545 H 1143.91 -0.383722 3.64586 0
M  V30 12546 H 1143.56 -2.8021 4.17722 0
M  V30 12547 H 1143.26 -1.77496 5.60151 0
M  V30 12548 H 1144.78 -2.69905 5.47708 0
M  V30 12549 H 1146.2 -0.44022 5.71607 0
M  V30 12550 H 1144.59 0.300748 5.99346 0
M  V30 12551 H 1145.66 0.973503 4.75027 0
M  V30 12552 N 1147.01 -1.56678 0.170181 0
M  V30 12553 C 1148.23 -2.0166 -0.484543 0
M  V30 12554 C 1148.66 -1.04962 -1.56091 0
M  V30 12555 O 1148.01 -0.0289887 -1.81277 0
M  V30 12556 C 1148.06 -3.45252 -1.04084 0
M  V30 12557 O 1147.17 -3.51623 -2.15488 0
M  V30 12558 H 1146.51 -0.653765 -0.116135 0
M  V30 12559 H 1149.04 -2.02761 0.273737 0
M  V30 12560 H 1149.05 -3.84534 -1.36373 0
M  V30 12561 H 1147.72 -4.15131 -0.252738 0
M  V30 12562 H 1146.3 -3.242 -1.84252 0
M  V30 12563 N 1148.48 0.103547 -1.57259 0
M  V30 12564 C 1149.43 1.14513 -2.02459 0
M  V30 12565 C 1150.43 1.4197 -0.924163 0
M  V30 12566 O 1151.63 1.41751 -1.10936 0
M  V30 12567 H 1148.01 0.386469 -0.645094 0
M  V30 12568 H 1149.98 0.737531 -2.89142 0
M  V30 12569 C 1148.73 2.45948 -2.45775 0
M  V30 12570 H 1148.05 2.25662 -3.30026 0
M  V30 12571 H 1149.49 3.17351 -2.81184 0
M  V30 12572 C 1147.95 3.09639 -1.32759 0
M  V30 12573 O 1148.48 3.96372 -0.652059 0
M  V30 12574 N 1146.68 2.69757 -1.08072 0
M  V30 12575 H 1146.23 1.9932 -1.63185 0
M  V30 12576 H 1146.19 3.127 -0.326532 0
M  V30 12577 N 1149.96 1.53094 0.37415 0
M  V30 12578 C 1150.87 1.81872 1.48188 0
M  V30 12579 C 1151.89 0.706487 1.59012 0
M  V30 12580 O 1153.06 0.995648 1.75068 0
M  V30 12581 C 1150.13 1.99494 2.83554 0
M  V30 12582 C 1149.19 3.23402 2.82329 0
M  V30 12583 C 1148.42 3.40174 4.11239 0
M  V30 12584 O 1148.65 2.61425 5.06965 0
M  V30 12585 O 1147.58 4.33493 4.17573 0
M  V30 12586 H 1151.41 2.75965 1.26795 0
M  V30 12587 H 1148.99 1.38368 0.56343 0
M  V30 12588 H 1150.87 2.12705 3.63778 0
M  V30 12589 H 1149.55 1.08591 3.04942 0
M  V30 12590 H 1148.45 3.15621 2.00834 0
M  V30 12591 H 1149.79 4.14199 2.65894 0
M  V30 12592 N 1151.44 -0.633461 1.44309 0
M  V30 12593 C 1152.66 -1.42527 1.50668 0
M  V30 12594 C 1153.09 -1.87637 0.131861 0
M  V30 12595 O 1152.45 -1.58595 -0.878477 0
M  V30 12596 C 1152.5 -2.62328 2.47419 0
M  V30 12597 O 1151.6 -3.62081 1.97411 0
M  V30 12598 H 1150.94 -0.426559 0.508864 0
M  V30 12599 H 1153.47 -0.773392 1.8942 0
M  V30 12600 H 1153.48 -3.09901 2.65378 0
M  V30 12601 H 1152.16 -2.2884 3.47283 0
M  V30 12602 H 1150.73 -3.21333 1.89208 0
M  V30 12603 N 1152.92 -1.31168 -0.873655 0
M  V30 12604 C 1154.15 -1.23595 -1.65927 0
M  V30 12605 C 1154.56 0.199349 -1.87745 0
M  V30 12606 O 1153.92 1.13013 -1.43298 0
M  V30 12607 C 1153.97 -1.97268 -3.02932 0
M  V30 12608 O 1153.69 -3.35196 -2.82091 0
M  V30 12609 C 1155.19 -1.9649 -3.97374 0
M  V30 12610 H 1152.41 -0.427228 -0.517414 0
M  V30 12611 H 1154.96 -1.72983 -1.09074 0
M  V30 12612 H 1153.11 -1.51651 -3.56484 0
M  V30 12613 H 1153.52 -3.7266 -3.69087 0
M  V30 12614 H 1155 -2.52557 -4.90835 0
M  V30 12615 H 1155.48 -0.946525 -4.28879 0
M  V30 12616 H 1156.08 -2.4197 -3.49758 0
M  V30 12617 N 1154.4 1.08748 -1.14068 0
M  V30 12618 C 1155.62 1.85353 -0.930532 0
M  V30 12619 C 1156.05 1.80892 0.515717 0
M  V30 12620 O 1155.4 1.19146 1.36652 0
M  V30 12621 C 1155.45 3.30962 -1.43167 0
M  V30 12622 O 1154.56 4.0769 -0.621468 0
M  V30 12623 H 1153.9 0.574485 -0.332962 0
M  V30 12624 H 1156.43 1.37282 -1.51707 0
M  V30 12625 H 1156.44 3.81807 -1.43832 0
M  V30 12626 H 1155.11 3.33524 -2.48464 0
M  V30 12627 H 1153.69 3.66587 -0.683267 0
M  V30 12628 N 1155.87 0.935264 1.26849 0
M  V30 12629 C 1156.82 0.430895 2.28574 0
M  V30 12630 C 1157.82 -0.488739 1.62196 0
M  V30 12631 O 1159.02 -0.367605 1.76206 0
M  V30 12632 H 1155.4 0.120793 0.742235 0
M  V30 12633 H 1157.37 1.3015 2.68521 0
M  V30 12634 C 1156.12 -0.294053 3.46454 0
M  V30 12635 H 1155.44 0.404416 3.97749 0
M  V30 12636 H 1156.88 -0.611272 4.19571 0
M  V30 12637 C 1155.34 -1.50975 3.01178 0
M  V30 12638 O 1155.87 -2.60826 3.05504 0
M  V30 12639 N 1154.08 -1.36423 2.56587 0
M  V30 12640 H 1153.62 -0.470483 2.53267 0
M  V30 12641 H 1153.58 -2.17886 2.26656 0
M  V30 12642 N 1157.35 -1.41121 0.701616 0
M  V30 12643 C 1158.28 -2.292 0.000880842 0
M  V30 12644 C 1159.3 -1.45102 -0.738192 0
M  V30 12645 O 1160.49 -1.68541 -0.587891 0
M  V30 12646 C 1157.59 -3.23094 -1.02292 0
M  V30 12647 C 1156.76 -4.35979 -0.352231 0
M  V30 12648 C 1155.82 -5.10408 -1.27947 0
M  V30 12649 O 1154.84 -5.63974 -0.769561 0
M  V30 12650 N 1156.05 -5.18442 -2.61147 0
M  V30 12651 H 1158.81 -2.8998 0.757094 0
M  V30 12652 H 1156.37 -1.52339 0.548126 0
M  V30 12653 H 1158.36 -3.69755 -1.64509 0
M  V30 12654 H 1156.93 -2.6358 -1.68061 0
M  V30 12655 H 1156.15 -3.91624 0.44992 0
M  V30 12656 H 1157.44 -5.08673 0.113882 0
M  V30 12657 H 1156.84 -4.76381 -3.05087 0
M  V30 12658 H 1155.4 -5.68659 -3.18544 0
M  V30 12659 N 1158.83 -0.446794 -1.51134 0
M  V30 12660 C 1159.78 0.374154 -2.29571 0
M  V30 12661 C 1160.77 1.01241 -1.35818 0
M  V30 12662 O 1161.98 0.946293 -1.53119 0
M  V30 12663 H 1158.35 0.13948 -0.738951 0
M  V30 12664 H 1160.32 -0.308117 -2.96805 0
M  V30 12665 C 1159.07 1.45754 -3.15675 0
M  V30 12666 H 1158.4 0.975787 -3.87709 0
M  V30 12667 H 1159.84 2.00502 -3.73597 0
M  V30 12668 C 1158.3 2.44606 -2.31667 0
M  V30 12669 O 1158.83 3.49352 -1.98284 0
M  V30 12670 N 1157.03 2.15725 -1.94708 0
M  V30 12671 H 1156.58 1.30572 -2.22056 0
M  V30 12672 H 1156.54 2.82103 -1.38798 0
M  V30 12673 N 1160.31 1.56586 -0.178487 0
M  V30 12674 C 1161.26 2.18309 0.74899 0
M  V30 12675 C 1162.23 1.12525 1.22178 0
M  V30 12676 O 1163.41 1.40706 1.28866 0
M  V30 12677 C 1160.55 2.83353 1.9699 0
M  V30 12678 C 1159.66 4.03618 1.54002 0
M  V30 12679 C 1158.8 4.56567 2.71514 0
M  V30 12680 C 1157.84 5.69226 2.25051 0
M  V30 12681 N 1156.97 6.16654 3.35682 0
M  V30 12682 H 1161.81 2.97217 0.21587 0
M  V30 12683 H 1159.35 1.46794 0.0948182 0
M  V30 12684 H 1161.31 3.19226 2.68609 0
M  V30 12685 H 1159.94 2.07037 2.4766 0
M  V30 12686 H 1158.99 3.73518 0.720298 0
M  V30 12687 H 1160.3 4.85148 1.15901 0
M  V30 12688 H 1159.46 4.94659 3.5128 0
M  V30 12689 H 1158.2 3.7411 3.12879 0
M  V30 12690 H 1157.2 5.30679 1.43734 0
M  V30 12691 H 1158.43 6.5349 1.84736 0
M  V30 12692 H 1156.37 5.37124 3.76609 0
M  V30 12693 H 1156.29 6.93192 3.01697 0
M  V30 12694 H 1157.56 6.59397 4.15711 0
M  V30 12695 N 1161.79 -0.095206 1.57312 0
M  V30 12696 C 1162.73 -1.13438 2.03063 0
M  V30 12697 C 1163.73 -1.41478 0.931679 0
M  V30 12698 O 1164.93 -1.41161 1.11686 0
M  V30 12699 H 1161.31 -0.383042 0.647134 0
M  V30 12700 H 1163.28 -0.722186 2.89529 0
M  V30 12701 C 1162.03 -2.44641 2.47075 0
M  V30 12702 H 1161.35 -2.23908 3.31218 0
M  V30 12703 H 1162.79 -3.15855 2.82863 0
M  V30 12704 C 1161.25 -3.08931 1.34399 0
M  V30 12705 O 1161.78 -3.96021 0.673071 0
M  V30 12706 N 1159.99 -2.6918 1.09501 0
M  V30 12707 H 1159.53 -1.98451 1.6424 0
M  V30 12708 H 1159.49 -3.12522 0.34311 0
M  V30 12709 N 1163.26 -1.53291 -0.366026 0
M  V30 12710 C 1164.54 -1.60055 -1.12436 0
M  V30 12711 C 1164.92 -0.407811 -2.07123 0
M  V30 12712 O 1164.27 0.601977 -2.20428 0
M  V30 12713 C 1164.48 -2.95062 -1.86385 0
M  V30 12714 C 1165.83 -3.49623 -2.40934 0
M  V30 12715 O 1166.85 -2.97088 -1.96512 0
M  V30 12716 O 1165.71 -4.41461 -3.2214 0
M  V30 12717 H 1162.8 -0.646476 -0.51575 0
M  V30 12718 H 1165.35 -1.65632 -0.369326 0
M  V30 12719 H 1164.12 -3.73312 -1.17277 0
M  V30 12720 H 1163.75 -2.92973 -2.68798 0
M  V30 12721 N 1164.74 0.6258 -1.44643 0
M  V30 12722 C 1165.68 1.75056 -1.46392 0
M  V30 12723 C 1166.65 1.59376 -0.322179 0
M  V30 12724 O 1167.84 1.81187 -0.519956 0
M  V30 12725 C 1164.96 3.12689 -1.30166 0
M  V30 12726 C 1164.01 3.47005 -2.47972 0
M  V30 12727 S 1164.84 3.43885 -4.10491 0
M  V30 12728 C 1166 4.84129 -3.96698 0
M  V30 12729 H 1166.23 1.73306 -2.41562 0
M  V30 12730 H 1163.77 0.800879 -1.32005 0
M  V30 12731 H 1165.72 3.9211 -1.21492 0
M  V30 12732 H 1164.38 3.11972 -0.364982 0
M  V30 12733 H 1163.58 4.47171 -2.32496 0
M  V30 12734 H 1163.18 2.75059 -2.53414 0
M  V30 12735 H 1165.47 5.73488 -3.60718 0
M  V30 12736 H 1166.41 5.0466 -4.96713 0
M  V30 12737 H 1166.82 4.58954 -3.28666 0
M  V30 12738 N 1166.22 1.31629 0.866686 0
M  V30 12739 C 1167.47 1.21263 1.61678 0
M  V30 12740 C 1167.79 -0.228562 1.93656 0
M  V30 12741 O 1167.06 -1.15014 1.58583 0
M  V30 12742 H 1165.64 0.445817 0.59938 0
M  V30 12743 H 1168.3 1.64998 1.03739 0
M  V30 12744 H 1167.4 1.78669 2.55898 0
M  V30 12745 N 1167.7 -1.08142 1.14644 0
M  V30 12746 C 1168.65 -2.15133 0.835845 0
M  V30 12747 C 1169.62 -1.64795 -0.207785 0
M  V30 12748 O 1170.8 -1.90644 -0.07711 0
M  V30 12749 C 1167.94 -3.4359 0.322456 0
M  V30 12750 C 1167.05 -4.07761 1.42671 0
M  V30 12751 C 1166.19 -5.24022 0.870281 0
M  V30 12752 C 1165.23 -5.8014 1.95202 0
M  V30 12753 N 1164.37 -6.87743 1.41257 0
M  V30 12754 H 1169.21 -2.41042 1.75222 0
M  V30 12755 H 1166.74 -1.18288 0.874428 0
M  V30 12756 H 1168.7 -4.17199 0.00657059 0
M  V30 12757 H 1167.33 -3.17958 -0.557014 0
M  V30 12758 H 1166.38 -3.31885 1.85893 0
M  V30 12759 H 1167.69 -4.45485 2.24375 0
M  V30 12760 H 1166.85 -6.04582 0.506459 0
M  V30 12761 H 1165.59 -4.87695 0.0223118 0
M  V30 12762 H 1164.59 -4.98232 2.32476 0
M  V30 12763 H 1165.82 -6.18525 2.80363 0
M  V30 12764 H 1163.76 -6.5337 0.586826 0
M  V30 12765 H 1163.68 -7.24308 2.16596 0
M  V30 12766 H 1164.95 -7.72028 1.07674 0
M  V30 12767 N 1169.18 -0.941978 -1.26351 0
M  V30 12768 C 1170.13 -0.423053 -2.24041 0
M  V30 12769 C 1171.11 0.480668 -1.53553 0
M  V30 12770 O 1172.3 0.315783 -1.7416 0
M  V30 12771 C 1169.43 0.309814 -3.41899 0
M  V30 12772 C 1168.52 -0.611245 -4.19672 0
M  V30 12773 N 1168.91 -1.73738 -4.75025 0
M  V30 12774 C 1167.21 -0.416985 -4.44046 0
M  V30 12775 C 1167.91 -2.31141 -5.33806 0
M  V30 12776 N 1166.88 -1.59934 -5.1954 0
M  V30 12777 H 1170.69 -1.28268 -2.64433 0
M  V30 12778 H 1168.2 -0.797941 -1.41445 0
M  V30 12779 H 1170.2 0.698618 -4.11005 0
M  V30 12780 H 1168.86 1.1662 -3.03035 0
M  V30 12781 H 1169.87 -2.1195 -4.72544 0
M  V30 12782 H 1166.55 0.397561 -4.15603 0
M  V30 12783 H 1167.94 -3.26029 -5.87499 0
M  V30 12784 N 1170.66 1.40747 -0.709091 0
M  V30 12785 C 1171.57 2.3454 -0.0532205 0
M  V30 12786 C 1172.58 1.56956 0.751057 0
M  V30 12787 O 1173.76 1.89375 0.685509 0
M  V30 12788 C 1170.82 3.35809 0.862157 0
M  V30 12789 C 1169.88 4.29273 0.0485632 0
M  V30 12790 C 1169.12 5.25705 0.920345 0
M  V30 12791 O 1169.34 5.27933 2.15969 0
M  V30 12792 O 1168.27 6.00806 0.3628 0
M  V30 12793 H 1172.1 2.92232 -0.826698 0
M  V30 12794 H 1169.68 1.4183 -0.469519 0
M  V30 12795 H 1171.57 3.97931 1.38668 0
M  V30 12796 H 1170.24 2.8054 1.61489 0
M  V30 12797 H 1169.15 3.70456 -0.520873 0
M  V30 12798 H 1170.48 4.87676 -0.665807 0
M  V30 12799 N 1172.13 0.454803 1.50895 0
M  V30 12800 C 1173.08 -0.347769 2.28165 0
M  V30 12801 C 1174.05 -1.00158 1.32505 0
M  V30 12802 O 1175.24 -1.01715 1.61427 0
M  V30 12803 C 1172.38 -1.43315 3.13934 0
M  V30 12804 C 1171.49 -0.795736 4.24608 0
M  V30 12805 C 1170.62 -1.85763 4.9766 0
M  V30 12806 C 1169.66 -1.19959 6.0023 0
M  V30 12807 N 1168.8 -2.20361 6.66622 0
M  V30 12808 H 1173.64 0.317493 2.96304 0
M  V30 12809 H 1171.18 0.168418 1.46133 0
M  V30 12810 H 1173.13 -2.07391 3.62001 0
M  V30 12811 H 1171.76 -2.0678 2.47875 0
M  V30 12812 H 1170.82 -0.0428173 3.80376 0
M  V30 12813 H 1172.13 -0.275477 4.98039 0
M  V30 12814 H 1171.28 -2.5746 5.49363 0
M  V30 12815 H 1170.02 -2.41166 4.23899 0
M  V30 12816 H 1169.03 -0.46817 5.47803 0
M  V30 12817 H 1170.25 -0.652666 6.75956 0
M  V30 12818 H 1168.2 -2.74812 5.95663 0
M  V30 12819 H 1168.11 -1.73275 7.35875 0
M  V30 12820 H 1169.38 -2.91488 7.22949 0
M  V30 12821 N 1173.61 -1.56489 0.186789 0
M  V30 12822 C 1174.84 -2.01429 -0.459326 0
M  V30 12823 C 1175.25 -1.06611 -1.56303 0
M  V30 12824 O 1174.59 -0.0617053 -1.83596 0
M  V30 12825 C 1174.65 -3.42778 -1.08367 0
M  V30 12826 C 1174.32 -4.56843 -0.119719 0
M  V30 12827 C 1175.32 -5.15594 0.667782 0
M  V30 12828 C 1173 -5.02299 -0.0110494 0
M  V30 12829 C 1174.99 -6.18242 1.551 0
M  V30 12830 C 1172.68 -6.04793 0.875738 0
M  V30 12831 C 1173.68 -6.62637 1.65534 0
M  V30 12832 O 1173.37 -7.63141 2.52728 0
M  V30 12833 H 1173.1 -0.665175 -0.120492 0
M  V30 12834 H 1175.65 -2.03338 0.290283 0
M  V30 12835 H 1173.88 -3.3783 -1.8817 0
M  V30 12836 H 1175.57 -3.71577 -1.63357 0
M  V30 12837 H 1176.34 -4.81348 0.594085 0
M  V30 12838 H 1172.22 -4.56977 -0.607667 0
M  V30 12839 H 1175.76 -6.63319 2.15995 0
M  V30 12840 H 1171.66 -6.38462 0.950581 0
M  V30 12841 H 1172.43 -7.80527 2.46415 0
M  V30 12842 N 1175.09 0.086862 -1.5736 0
M  V30 12843 C 1176.34 0.790008 -1.8678 0
M  V30 12844 C 1176.67 1.77977 -0.777042 0
M  V30 12845 O 1175.94 1.93317 0.21419 0
M  V30 12846 C 1176.23 1.51143 -3.26845 0
M  V30 12847 C 1176.08 0.539106 -4.46558 0
M  V30 12848 C 1177.4 2.46003 -3.64926 0
M  V30 12849 H 1174.52 0.285741 -0.679354 0
M  V30 12850 H 1177.16 0.0534655 -1.89925 0
M  V30 12851 H 1175.31 2.13928 -3.24295 0
M  V30 12852 H 1176.98 -0.0823679 -4.61226 0
M  V30 12853 H 1175.22 -0.146842 -4.33551 0
M  V30 12854 H 1175.9 1.0812 -5.41308 0
M  V30 12855 H 1178.37 1.93306 -3.68473 0
M  V30 12856 H 1177.25 2.93493 -4.63846 0
M  V30 12857 H 1177.51 3.30133 -2.94049 0
M  V30 12858 N 1176.57 1.53483 0.357892 0
M  V30 12859 C 1177.48 1.83434 1.4625 0
M  V30 12860 C 1178.49 0.723313 1.58254 0
M  V30 12861 O 1179.67 1.01416 1.74002 0
M  V30 12862 C 1176.73 2.0249 2.81423 0
M  V30 12863 C 1175.8 3.26378 2.78883 0
M  V30 12864 C 1175.03 3.44516 4.07608 0
M  V30 12865 O 1175.25 2.66787 5.04163 0
M  V30 12866 O 1174.19 4.37898 4.12952 0
M  V30 12867 H 1178.01 2.77294 1.23861 0
M  V30 12868 H 1175.6 1.38958 0.548722 0
M  V30 12869 H 1177.48 2.16552 3.61501 0
M  V30 12870 H 1176.15 1.11819 3.03773 0
M  V30 12871 H 1175.06 3.17733 1.97475 0
M  V30 12872 H 1176.39 4.16996 2.61486 0
M  V30 12873 N 1178.05 -0.61812 1.44973 0
M  V30 12874 C 1178.99 -1.75059 1.53157 0
M  V30 12875 C 1179.99 -1.64554 0.402282 0
M  V30 12876 O 1181.19 -1.70475 0.577767 0
M  V30 12877 H 1177.57 -0.57817 0.480856 0
M  V30 12878 H 1179.54 -1.65281 2.48445 0
M  V30 12879 C 1178.29 -3.13423 1.50538 0
M  V30 12880 H 1177.61 -3.2216 2.36755 0
M  V30 12881 H 1179.05 -3.92521 1.60323 0
M  V30 12882 C 1177.51 -3.36127 0.228127 0
M  V30 12883 O 1178.04 -3.95618 -0.696364 0
M  V30 12884 N 1176.25 -2.90322 0.127142 0
M  V30 12885 H 1175.79 -2.42091 0.880317 0
M  V30 12886 H 1175.75 -3.05887 -0.726659 0
M  V30 12887 N 1179.52 -1.32087 -0.859693 0
M  V30 12888 C 1180.47 -1.20601 -1.96784 0
M  V30 12889 C 1181.44 -0.089355 -1.65859 0
M  V30 12890 O 1182.63 -0.264022 -1.88964 0
M  V30 12891 C 1179.77 -0.929872 -3.32336 0
M  V30 12892 C 1178.88 -2.13084 -3.75791 0
M  V30 12893 C 1178.01 -1.79061 -5.00111 0
M  V30 12894 C 1177.05 -2.95507 -5.36043 0
M  V30 12895 N 1176.19 -2.61611 -6.5154 0
M  V30 12896 H 1181.03 -2.1539 -2.0594 0
M  V30 12897 H 1178.57 -1.07131 -1.00803 0
M  V30 12898 H 1180.52 -0.750285 -4.10398 0
M  V30 12899 H 1179.15 -0.0187929 -3.22795 0
M  V30 12900 H 1178.21 -2.42086 -2.93425 0
M  V30 12901 H 1179.52 -3.00205 -3.98344 0
M  V30 12902 H 1178.67 -1.57625 -5.85866 0
M  V30 12903 H 1177.41 -0.891459 -4.79483 0
M  V30 12904 H 1176.42 -3.17581 -4.48801 0
M  V30 12905 H 1177.64 -3.86147 -5.5863 0
M  V30 12906 H 1175.59 -1.74231 -6.32439 0
M  V30 12907 H 1175.5 -3.42262 -6.74087 0
M  V30 12908 H 1176.77 -2.43592 -7.40461 0
M  V30 12909 N 1181 1.07532 -1.15215 0
M  V30 12910 C 1181.95 2.14687 -0.847243 0
M  V30 12911 C 1182.92 1.64903 0.199043 0
M  V30 12912 O 1184.1 1.90682 0.0669986 0
M  V30 12913 C 1181.24 3.43414 -0.340673 0
M  V30 12914 C 1180.36 4.06999 -1.44831 0
M  V30 12915 C 1179.49 5.23554 -0.898059 0
M  V30 12916 C 1178.53 5.79097 -1.98276 0
M  V30 12917 N 1177.67 6.86985 -1.44902 0
M  V30 12918 H 1182.51 2.4011 -1.76498 0
M  V30 12919 H 1180.04 1.17823 -0.880689 0
M  V30 12920 H 1182 4.1719 -0.0286956 0
M  V30 12921 H 1180.63 3.18249 0.540144 0
M  V30 12922 H 1179.68 3.30895 -1.87651 0
M  V30 12923 H 1181 4.44289 -2.26735 0
M  V30 12924 H 1180.15 6.04305 -0.538514 0
M  V30 12925 H 1178.89 4.87676 -0.0481752 0
M  V30 12926 H 1177.89 4.96992 -2.35115 0
M  V30 12927 H 1179.12 6.1703 -2.83639 0
M  V30 12928 H 1177.07 6.5305 -0.621468 0
M  V30 12929 H 1176.98 7.23149 -2.20434 0
M  V30 12930 H 1178.25 7.71446 -1.11767 0
M  V30 12931 N 1182.48 0.948665 1.2585 0
M  V30 12932 C 1183.73 0.601125 1.93686 0
M  V30 12933 C 1184.06 -0.858779 1.7418 0
M  V30 12934 O 1183.33 -1.61539 1.0833 0
M  V30 12935 C 1183.62 0.95333 3.47252 0
M  V30 12936 C 1183.47 2.46853 3.7601 0
M  V30 12937 C 1184.79 0.474098 4.37539 0
M  V30 12938 H 1181.91 0.219864 0.703441 0
M  V30 12939 H 1184.55 1.18424 1.48579 0
M  V30 12940 H 1182.7 0.457114 3.85801 0
M  V30 12941 H 1184.37 3.03804 3.47132 0
M  V30 12942 H 1182.62 2.9088 3.21825 0
M  V30 12943 H 1183.29 2.66547 4.83381 0
M  V30 12944 H 1185.76 0.899664 4.06258 0
M  V30 12945 H 1184.64 0.749287 5.43762 0
M  V30 12946 H 1184.9 -0.625961 4.37646 0
M  V30 12947 N 1183.96 -1.40369 0.716545 0
M  V30 12948 C 1184.91 -2.3071 0.0645944 0
M  V30 12949 C 1185.88 -1.48239 -0.749294 0
M  V30 12950 O 1187.06 -1.76975 -0.713045 0
M  V30 12951 C 1184.2 -3.34456 -0.850478 0
M  V30 12952 C 1183.31 -4.31992 -0.0259594 0
M  V30 12953 C 1182.45 -5.22806 -0.940599 0
M  V30 12954 C 1181.49 -6.12001 -0.110228 0
M  V30 12955 N 1180.62 -6.9523 -0.979796 0
M  V30 12956 H 1185.46 -2.85896 0.840682 0
M  V30 12957 H 1183 -1.40789 0.426258 0
M  V30 12958 H 1184.96 -3.93177 -1.39528 0
M  V30 12959 H 1183.59 -2.8077 -1.59274 0
M  V30 12960 H 1182.64 -3.75045 0.636036 0
M  V30 12961 H 1183.95 -4.94971 0.616883 0
M  V30 12962 H 1183.11 -5.86463 -1.5539 0
M  V30 12963 H 1181.85 -4.60104 -1.61726 0
M  V30 12964 H 1180.85 -5.47373 0.516001 0
M  V30 12965 H 1182.08 -6.76763 0.562944 0
M  V30 12966 H 1180.02 -6.35115 -1.64209 0
M  V30 12967 H 1179.94 -7.54978 -0.393012 0
M  V30 12968 H 1181.21 -7.63335 -1.57924 0
M  V30 12969 N 1185.44 -0.462799 -1.50652 0
M  V30 12970 C 1186.37 0.325724 -2.31217 0
M  V30 12971 C 1187.35 0.997942 -1.3775 0
M  V30 12972 O 1188.53 0.996707 -1.66671 0
M  V30 12973 C 1185.66 1.41283 -3.17264 0
M  V30 12974 C 1184.62 0.862687 -4.19216 0
M  V30 12975 C 1183.94 2.04746 -4.93946 0
M  V30 12976 C 1185.24 -0.120365 -5.22161 0
M  V30 12977 H 1186.94 -0.346666 -2.97386 0
M  V30 12978 H 1184.48 -0.168163 -1.43015 0
M  V30 12979 H 1186.44 1.97188 -3.72418 0
M  V30 12980 H 1185.16 2.11387 -2.48964 0
M  V30 12981 H 1183.82 0.325671 -3.65151 0
M  V30 12982 H 1183.47 2.73529 -4.22127 0
M  V30 12983 H 1183.17 1.68562 -5.62904 0
M  V30 12984 H 1184.69 2.61157 -5.51932 0
M  V30 12985 H 1186.1 0.349226 -5.72235 0
M  V30 12986 H 1184.5 -0.396061 -5.98792 0
M  V30 12987 H 1185.57 -1.04895 -4.73418 0
M  V30 12988 N 1186.91 1.56388 -0.195085 0
M  V30 12989 C 1188.16 1.97189 0.44281 0
M  V30 12990 C 1188.48 1.08312 1.62153 0
M  V30 12991 O 1187.75 0.154404 1.95291 0
M  V30 12992 H 1186.33 0.728188 0.166585 0
M  V30 12993 H 1189 1.92852 -0.281815 0
M  V30 12994 H 1188.09 3.02016 0.786945 0
M  V30 12995 N 1188.39 -0.0785156 1.57404 0
M  V30 12996 C 1189.36 -1.07835 2.02248 0
M  V30 12997 C 1190.36 -1.31987 0.918475 0
M  V30 12998 O 1191.55 -1.27821 1.18353 0
M  V30 12999 C 1188.68 -2.42361 2.39737 0
M  V30 13000 H 1189.87 -0.691995 2.91807 0
M  V30 13001 H 1187.42 -0.32405 1.52904 0
M  V30 13002 H 1188.16 -2.85841 1.53183 0
M  V30 13003 H 1187.94 -2.26174 3.20293 0
M  V30 13004 H 1189.43 -3.14241 2.75031 0
M  V30 13005 N 1189.87 -1.5367 -0.349747 0
M  V30 13006 C 1191.1 -1.74547 -1.11089 0
M  V30 13007 C 1191.51 -0.481741 -1.82551 0
M  V30 13008 O 1190.87 0.546272 -1.74132 0
M  V30 13009 C 1190.92 -2.92148 -2.12913 0
M  V30 13010 O 1190.64 -4.13633 -1.44358 0
M  V30 13011 C 1192.14 -3.25027 -3.01451 0
M  V30 13012 H 1189.36 -0.583376 -0.331532 0
M  V30 13013 H 1191.91 -2.00473 -0.403841 0
M  V30 13014 H 1190.06 -2.68572 -2.79192 0
M  V30 13015 H 1190.48 -4.79601 -2.12329 0
M  V30 13016 H 1191.95 -4.10679 -3.68845 0
M  V30 13017 H 1192.43 -2.41064 -3.67131 0
M  V30 13018 H 1193.03 -3.50586 -2.40768 0
M  V30 13019 N 1191.35 0.610423 -1.45298 0
M  V30 13020 C 1192.58 1.39419 -1.52466 0
M  V30 13021 C 1192.99 1.88563 -0.1551 0
M  V30 13022 O 1192.33 1.62692 0.853061 0
M  V30 13023 C 1192.39 2.63515 -2.44541 0
M  V30 13024 C 1192.06 2.36028 -3.91331 0
M  V30 13025 C 1193.05 1.96567 -4.81308 0
M  V30 13026 C 1190.74 2.49028 -4.36223 0
M  V30 13027 C 1192.73 1.70461 -6.14184 0
M  V30 13028 C 1190.42 2.22536 -5.6914 0
M  V30 13029 C 1191.42 1.83314 -6.5794 0
M  V30 13030 O 1191.1 1.57131 -7.88394 0
M  V30 13031 H 1190.84 0.433278 -0.518889 0
M  V30 13032 H 1193.39 0.751803 -1.91147 0
M  V30 13033 H 1191.62 3.30463 -2.00826 0
M  V30 13034 H 1193.31 3.25554 -2.42424 0
M  V30 13035 H 1194.08 1.86062 -4.4789 0
M  V30 13036 H 1189.95 2.78524 -3.67349 0
M  V30 13037 H 1193.5 1.39773 -6.83454 0
M  V30 13038 H 1189.4 2.32657 -6.02114 0
M  V30 13039 H 1190.16 1.71207 -8.00394 0
M  V30 13040 N 1192.83 1.32541 0.852676 0
M  V30 13041 C 1194.07 1.22971 1.60383 0
M  V30 13042 C 1194.4 -0.208009 1.93887 0
M  V30 13043 O 1193.67 -1.13326 1.59794 0
M  V30 13044 H 1192.25 0.452149 0.594618 0
M  V30 13045 H 1194.91 1.66089 1.01983 0
M  V30 13046 H 1194 1.81373 2.53989 0
M  V30 13047 N 1194.3 -1.0692 1.15784 0
M  V30 13048 C 1195.53 -1.8331 0.959422 0
M  V30 13049 C 1195.95 -1.82268 -0.492332 0
M  V30 13050 O 1195.3 -1.23727 -1.34156 0
M  V30 13051 C 1195.36 -3.30202 1.47135 0
M  V30 13052 O 1195.08 -3.31328 2.86624 0
M  V30 13053 C 1196.58 -4.23346 1.31504 0
M  V30 13054 H 1193.8 -0.578202 0.340475 0
M  V30 13055 H 1196.34 -1.34939 1.53661 0
M  V30 13056 H 1194.5 -3.75908 0.936587 0
M  V30 13057 H 1194.91 -4.23135 3.0993 0
M  V30 13058 H 1196.38 -5.24465 1.72163 0
M  V30 13059 H 1196.86 -4.38431 0.259773 0
M  V30 13060 H 1197.47 -3.8348 1.83911 0
M  V30 13061 N 1195.78 -0.955326 -1.25345 0
M  V30 13062 C 1197.2 -0.659863 -1.4532 0
M  V30 13063 C 1197.4 0.78238 -1.85691 0
M  V30 13064 O 1196.45 1.5576 -1.98734 0
M  V30 13065 C 1197.77 -1.63339 -2.5247 0
M  V30 13066 C 1199.32 -1.64464 -2.66309 0
M  V30 13067 C 1199.79 -2.60583 -3.76644 0
M  V30 13068 N 1201.28 -2.58951 -3.84055 0
M  V30 13069 C 1202.02 -3.30002 -4.6892 0
M  V30 13070 N 1201.51 -4.10528 -5.58067 0
M  V30 13071 N 1203.31 -3.18886 -4.62891 0
M  V30 13072 H 1195.46 -1.88734 -0.97433 0
M  V30 13073 H 1197.72 -0.811858 -0.48948 0
M  V30 13074 H 1197.43 -2.66358 -2.29665 0
M  V30 13075 H 1197.3 -1.39644 -3.50399 0
M  V30 13076 H 1199.69 -0.621622 -2.88479 0
M  V30 13077 H 1199.77 -1.92218 -1.68778 0
M  V30 13078 H 1199.41 -3.63011 -3.55226 0
M  V30 13079 H 1199.34 -2.30113 -4.73662 0
M  V30 13080 H 1201.83 -2.00491 -3.20331 0
M  V30 13081 H 1202.15 -4.6166 -6.1975 0
M  V30 13082 H 1200.49 -4.14626 -5.57773 0
M  V30 13083 H 1203.68 -2.55447 -3.92255 0
M  V30 13084 H 1203.85 -3.74524 -5.28806 0
M  V30 13085 N 1197.26 1.39987 -0.723979 0
M  V30 13086 C 1198.19 2.2917 -0.0373445 0
M  V30 13087 C 1199.21 1.46258 0.715015 0
M  V30 13088 O 1200.4 1.69455 0.561003 0
M  V30 13089 C 1197.5 3.2468 0.971384 0
M  V30 13090 C 1196.67 4.36485 0.282826 0
M  V30 13091 C 1195.73 5.12379 1.19811 0
M  V30 13092 O 1194.75 5.65127 0.67974 0
M  V30 13093 N 1195.96 5.22531 2.52866 0
M  V30 13094 H 1198.72 2.88738 -0.803131 0
M  V30 13095 H 1196.28 1.51448 -0.572292 0
M  V30 13096 H 1198.27 3.72326 1.58606 0
M  V30 13097 H 1196.84 2.6622 1.63846 0
M  V30 13098 H 1196.06 3.90859 -0.512167 0
M  V30 13099 H 1197.35 5.08427 -0.194793 0
M  V30 13100 H 1196.75 4.81174 2.97469 0
M  V30 13101 H 1195.31 5.73655 3.09457 0
M  V30 13102 N 1198.74 0.470782 1.50404 0
M  V30 13103 C 1199.69 -0.32355 2.28521 0
M  V30 13104 C 1200.66 -0.987472 1.3356 0
M  V30 13105 O 1201.84 -0.999969 1.62497 0
M  V30 13106 C 1198.98 -1.39977 3.15437 0
M  V30 13107 C 1198.09 -0.750656 4.25428 0
M  V30 13108 C 1197.23 -1.80474 4.99602 0
M  V30 13109 C 1196.27 -1.13586 6.01469 0
M  V30 13110 N 1195.41 -2.13279 6.68922 0
M  V30 13111 H 1200.25 0.348902 2.9595 0
M  V30 13112 H 1197.78 0.183908 1.45946 0
M  V30 13113 H 1199.74 -2.0354 3.6418 0
M  V30 13114 H 1198.37 -2.04139 2.50054 0
M  V30 13115 H 1197.42 -0.00247092 3.804 0
M  V30 13116 H 1198.73 -0.222638 4.98303 0
M  V30 13117 H 1197.89 -2.51619 5.52062 0
M  V30 13118 H 1196.63 -2.36657 4.26433 0
M  V30 13119 H 1195.63 -0.410042 5.48269 0
M  V30 13120 H 1196.86 -0.580935 6.76611 0
M  V30 13121 H 1194.8 -2.68479 5.98544 0
M  V30 13122 H 1194.72 -1.65461 7.37671 0
M  V30 13123 H 1195.99 -2.83804 7.26 0
M  V30 13124 N 1200.22 -1.56282 0.203376 0
M  V30 13125 C 1201.13 -2.23086 -0.725922 0
M  V30 13126 C 1202.14 -1.23258 -1.22814 0
M  V30 13127 O 1203.32 -1.5602 -1.27357 0
M  V30 13128 C 1200.38 -2.88358 -1.92485 0
M  V30 13129 C 1199.45 -4.03479 -1.46639 0
M  V30 13130 C 1198.68 -4.65629 -2.60816 0
M  V30 13131 O 1198.9 -4.2672 -3.78506 0
M  V30 13132 O 1197.84 -5.54949 -2.33056 0
M  V30 13133 H 1201.66 -3.03124 -0.18694 0
M  V30 13134 H 1199.25 -1.49377 -0.0262829 0
M  V30 13135 H 1201.13 -3.29623 -2.62539 0
M  V30 13136 H 1199.8 -2.11294 -2.45228 0
M  V30 13137 H 1198.71 -3.66821 -0.734396 0
M  V30 13138 H 1200.04 -4.82232 -0.985535 0
M  V30 13139 N 1201.7 0.070167 -1.57444 0
M  V30 13140 C 1202.63 1.11509 -1.991 0
M  V30 13141 C 1203.61 1.37481 -0.868194 0
M  V30 13142 O 1204.79 1.50827 -1.13064 0
M  V30 13143 C 1201.92 2.45908 -2.3291 0
M  V30 13144 C 1200.96 2.36059 -3.55216 0
M  V30 13145 S 1201.8 1.75316 -5.05989 0
M  V30 13146 C 1202.95 3.11289 -5.43001 0
M  V30 13147 H 1203.19 0.760096 -2.87419 0
M  V30 13148 H 1200.72 0.278756 -1.51863 0
M  V30 13149 H 1202.68 3.23217 -2.53063 0
M  V30 13150 H 1201.34 2.78567 -1.45117 0
M  V30 13151 H 1200.53 3.35176 -3.76395 0
M  V30 13152 H 1200.13 1.66886 -3.34701 0
M  V30 13153 H 1202.42 4.07603 -5.41171 0
M  V30 13154 H 1203.37 2.94888 -6.43775 0
M  V30 13155 H 1203.78 3.11969 -4.70463 0
M  V30 13156 N 1203.17 1.53854 0.341593 0
M  V30 13157 C 1204.12 1.8268 1.43982 0
M  V30 13158 C 1205.12 0.697415 1.54378 0
M  V30 13159 O 1206.32 0.880785 1.56978 0
M  V30 13160 H 1202.7 0.578788 0.480113 0
M  V30 13161 H 1204.67 2.74556 1.16884 0
M  V30 13162 C 1203.42 2.05496 2.80476 0
M  V30 13163 H 1202.74 2.91852 2.73244 0
M  V30 13164 H 1204.18 2.2963 3.56435 0
M  V30 13165 C 1202.64 0.841061 3.26233 0
M  V30 13166 O 1203.17 0.0414376 4.01679 0
M  V30 13167 N 1201.37 0.657736 2.83059 0
M  V30 13168 H 1200.92 1.30962 2.21826 0
M  V30 13169 H 1200.88 -0.153003 3.14027 0
M  V30 13170 N 1204.65 -0.602709 1.4562 0
M  V30 13171 C 1205.6 -1.71312 1.54664 0
M  V30 13172 C 1206.57 -1.61403 0.392197 0
M  V30 13173 O 1207.75 -1.80911 0.606297 0
M  V30 13174 C 1204.89 -3.09629 1.52393 0
M  V30 13175 C 1204.01 -3.30308 2.78425 0
M  V30 13176 C 1203.14 -4.5876 2.67793 0
M  V30 13177 C 1202.18 -4.72713 3.88855 0
M  V30 13178 N 1201.32 -5.92469 3.76729 0
M  V30 13179 H 1206.16 -1.62918 2.49523 0
M  V30 13180 H 1203.69 -0.794324 1.2381 0
M  V30 13181 H 1205.65 -3.89661 1.49064 0
M  V30 13182 H 1204.28 -3.16968 0.610816 0
M  V30 13183 H 1203.33 -2.44018 2.9182 0
M  V30 13184 H 1204.65 -3.36491 3.68205 0
M  V30 13185 H 1203.8 -5.46993 2.62457 0
M  V30 13186 H 1202.54 -4.54983 1.75619 0
M  V30 13187 H 1201.54 -3.82903 3.94545 0
M  V30 13188 H 1202.77 -4.78284 4.82101 0
M  V30 13189 H 1200.72 -5.89728 2.87328 0
M  V30 13190 H 1200.63 -5.99833 4.60148 0
M  V30 13191 H 1201.9 -6.83187 3.75334 0
M  V30 13192 O 1206.17 -1.43203 -0.746673 0
M  V30 13193 H 1206.86 -1.34308 -1.39575 0
M  V30 END ATOM
M  V30 BEGIN BOND
M  V30 END BOND
M  V30 END CTAB
M  END
$$$$
