drugbank_target|P29475 Nitric oxide synthase, brain (DB00155; DB00843; DB01221; DB01821; DB01942; DB01997; DB02027; DB02044; DB02077; DB02143; DB02644; DB02727; DB02991; DB03144; DB03147; DB03247; DB03449; DB03461; DB03707; DB03710; DB03892; DB04223; DB06096; DB08018; DB08019; DB09241)
 OpenBabel12092119233D

  0  0  0     0  0            999 V3000
M  V30 BEGIN CTAB
M  V30 COUNTS 22553 22823 0 0 0
M  V30 BEGIN ATOM
M  V30 1 H -0.908 1.98254 -0.117106 0
M  V30 2 N 0 1.576 0 0
M  V30 3 C 0.933 2.03868 1.02534 0
M  V30 4 C 1.911 0.928543 1.3348 0
M  V30 5 O 3.095 1.19667 1.45644 0
M  V30 6 C 0.222 2.43627 2.35294 0
M  V30 7 C -0.732 3.65373 2.2001 0
M  V30 8 S 0.101 5.13292 1.52614 0
M  V30 9 C 1.257 5.56322 2.86805 0
M  V30 10 H 1.49 2.90518 0.631377 0
M  V30 11 H -0.977 1.52953 0.210867 0
M  V30 12 H 0.981 2.67203 3.11629 0
M  V30 13 H -0.358 1.57376 2.7183 0
M  V30 14 H -1.165 3.90944 3.18086 0
M  V30 15 H -1.563 3.418 1.51819 0
M  V30 16 H 0.729 5.58782 3.83104 0
M  V30 17 H 1.672 6.56266 2.65933 0
M  V30 18 H 2.08 4.83886 2.90714 0
M  V30 19 N 1.4781 -0.272755 1.55222 0
M  V30 20 C 2.3881 -1.35918 1.91216 0
M  V30 21 C 3.4041 -1.54026 0.809436 0
M  V30 22 O 4.5801 -1.68148 1.10852 0
M  V30 23 C 1.6451 -2.69834 2.17693 0
M  V30 24 C 0.7061 -2.6047 3.41253 0
M  V30 25 C -0.0609 -3.88 3.66458 0
M  V30 26 O 0.1621 -4.88693 2.94169 0
M  V30 27 O -0.9039 -3.88189 4.59992 0
M  V30 28 H 2.9221 -1.0839 2.83699 0
M  V30 29 H 0.5071 -0.471301 1.41771 0
M  V30 30 H 2.3891 -3.49017 2.36147 0
M  V30 31 H 1.0641 -2.97148 1.28392 0
M  V30 32 H -0.0289 -1.79663 3.28134 0
M  V30 33 H 1.3041 -2.38106 4.30774 0
M  V30 34 N 2.9562 -1.48159 -0.537278 0
M  V30 35 C 4.2332 -1.46291 -1.29839 0
M  V30 36 C 4.6132 -0.170613 -2.10409 0
M  V30 37 O 3.9612 0.847746 -2.12192 0
M  V30 38 C 4.1712 -2.72055 -2.18603 0
M  V30 39 C 5.5192 -3.20087 -2.7898 0
M  V30 40 O 6.5432 -2.72921 -2.28894 0
M  V30 41 O 5.4022 -4.02138 -3.70064 0
M  V30 42 H 2.4962 -0.583906 -0.585647 0
M  V30 43 H 5.0422 -1.60384 -0.554534 0
M  V30 44 H 3.8142 -3.57628 -1.58801 0
M  V30 45 H 3.4372 -2.60646 -3.00249 0
M  V30 46 N 4.4343 0.785586 -1.36625 0
M  V30 47 C 5.3843 1.88822 -1.27789 0
M  V30 48 C 6.3683 1.60014 -0.168579 0
M  V30 49 O 7.5603 1.72381 -0.401737 0
M  V30 50 C 4.6893 3.26092 -1.07327 0
M  V30 51 C 3.7753 3.60897 -2.22743 0
M  V30 52 N 4.1663 3.66982 -3.48077 0
M  V30 53 C 2.4643 3.90981 -2.14593 0
M  V30 54 C 3.1653 3.98137 -4.24101 0
M  V30 55 N 2.1413 4.13319 -3.53084 0
M  V30 56 H 5.9433 1.91759 -2.22723 0
M  V30 57 H 3.4573 0.981311 -1.29399 0
M  V30 58 H 5.4543 4.04954 -0.990842 0
M  V30 59 H 4.1143 3.24428 -0.132977 0
M  V30 60 H 5.1253 3.49531 -3.82163 0
M  V30 61 H 1.8023 3.9722 -1.2854 0
M  V30 62 H 3.1923 4.09737 -5.32509 0
M  V30 63 N 5.9124 1.20967 1.01018 0
M  V30 64 C 6.8454 0.907578 2.09376 0
M  V30 65 C 7.8234 -0.142868 1.61971 0
M  V30 66 O 9.0074 -0.0150391 1.88494 0
M  V30 67 C 6.1344 0.361791 3.36762 0
M  V30 68 C 5.1804 1.39423 4.03068 0
M  V30 69 S 6.0134 2.96159 4.4615 0
M  V30 70 C 7.1694 2.43173 5.7673 0
M  V30 71 H 7.4024 1.82519 2.34678 0
M  V30 72 H 4.9354 1.03884 1.14225 0
M  V30 73 H 6.8934 0.0534523 4.10465 0
M  V30 74 H 5.5544 -0.53443 3.0952 0
M  V30 75 H 4.7474 0.961853 4.94737 0
M  V30 76 H 4.3494 1.65038 3.35617 0
M  V30 77 H 6.6414 1.83335 6.52223 0
M  V30 78 H 7.5844 3.33264 6.24773 0
M  V30 79 H 7.9924 1.85069 5.33301 0
M  V30 80 N 7.3905 -1.2043 1.01659 0
M  V30 81 C 8.6375 -1.89797 0.705917 0
M  V30 82 C 8.9655 -1.78848 -0.764439 0
M  V30 83 O 8.2205 -1.16694 -1.57102 0
M  V30 84 C 8.5195 -3.40464 1.08714 0
M  V30 85 C 8.1855 -3.71614 2.5537 0
M  V30 86 C 6.8475 -3.79826 2.95441 0
M  V30 87 C 9.1995 -3.85915 3.50313 0
M  V30 88 C 6.5275 -3.99797 4.29394 0
M  V30 89 C 8.8795 -4.07396 4.83954 0
M  V30 90 C 7.5435 -4.13837 5.23732 0
M  V30 91 H 6.8135 -0.694518 0.258313 0
M  V30 92 H 9.4605 -1.42691 1.27717 0
M  V30 93 H 7.7655 -3.89385 0.434309 0
M  V30 94 H 9.4625 -3.92433 0.824461 0
M  V30 95 H 6.0525 -3.65822 2.23321 0
M  V30 96 H 10.2365 -3.78926 3.20513 0
M  V30 97 H 5.4925 -4.03018 4.59768 0
M  V30 98 H 9.6665 -4.17404 5.57447 0
M  V30 99 H 7.2935 -4.29064 6.27541 0
M  V30 100 N 8.8686 -0.792821 -1.36206 0
M  V30 101 C 10.1166 -0.366062 -1.98757 0
M  V30 102 C 10.4376 1.0668 -1.63231 0
M  V30 103 O 9.7076 1.73587 -0.907978 0
M  V30 104 H 8.2876 -0.132364 -0.735179 0
M  V30 105 H 10.9496 -1.01562 -1.66347 0
M  V30 106 H 10.0456 -0.460638 -3.08682 0
M  V30 107 N 10.3467 1.47872 -0.545128 0
M  V30 108 C 11.5927 2.02793 -0.0166104 0
M  V30 109 C 11.9257 1.41987 1.32489 0
M  V30 110 O 11.2007 0.571045 1.85928 0
M  V30 111 C 11.4837 3.59989 0.0893294 0
M  V30 112 C 11.3367 4.3125 -1.27841 0
M  V30 113 C 12.6557 4.32606 0.808724 0
M  V30 114 H 9.7747 0.736962 -0.00751035 0
M  V30 115 H 12.4167 1.76433 -0.705085 0
M  V30 116 H 10.5667 3.82579 0.675681 0
M  V30 117 H 12.2387 4.20035 -1.90704 0
M  V30 118 H 10.4817 3.92076 -1.85632 0
M  V30 119 H 11.1527 5.39736 -1.15713 0
M  V30 120 H 13.6287 4.14936 0.310992 0
M  V30 121 H 12.5047 5.42251 0.851782 0
M  V30 122 H 12.7657 4.00963 1.86229 0
M  V30 123 N 11.8248 0.280983 1.55075 0
M  V30 124 C 12.7568 -0.637268 2.20163 0
M  V30 125 C 13.7698 -1.11298 1.18813 0
M  V30 126 O 14.9588 -1.03388 1.4551 0
M  V30 127 C 12.0588 -1.88199 2.81841 0
M  V30 128 C 11.2318 -1.55211 4.08936 0
M  V30 129 C 10.2908 -2.64991 4.54606 0
M  V30 130 O 9.3168 -2.30929 5.2025 0
M  V30 131 N 10.5188 -3.95161 4.25238 0
M  V30 132 H 13.2838 -0.0801694 2.99593 0
M  V30 133 H 10.8448 0.102329 1.61576 0
M  V30 134 H 12.8368 -2.60948 3.09335 0
M  V30 135 H 11.4068 -2.34799 2.06369 0
M  V30 136 H 10.6268 -0.658185 3.88666 0
M  V30 137 H 11.9148 -1.30681 4.91732 0
M  V30 138 H 11.3128 -4.25653 3.72607 0
M  V30 139 H 9.8698 -4.6427 4.5749 0
M  V30 140 N 13.3029 -1.57598 0.00835791 0
M  V30 141 C 14.2349 -2.05811 -1.00868 0
M  V30 142 C 15.2479 -0.977579 -1.30182 0
M  V30 143 O 16.4369 -1.25421 -1.27011 0
M  V30 144 C 13.5369 -2.45016 -2.34137 0
M  V30 145 C 12.7099 -3.75903 -2.23643 0
M  V30 146 C 11.7689 -4.01884 -3.3967 0
M  V30 147 O 10.7949 -4.72433 -3.17483 0
M  V30 148 N 11.9969 -3.50432 -4.62793 0
M  V30 149 H 14.7619 -2.93684 -0.597458 0
M  V30 150 H 12.3229 -1.60909 -0.178852 0
M  V30 151 H 14.3149 -2.59506 -3.10546 0
M  V30 152 H 12.8849 -1.62618 -2.66972 0
M  V30 153 H 12.1049 -3.7141 -1.32091 0
M  V30 154 H 13.3929 -4.61695 -2.13812 0
M  V30 155 H 12.7909 -2.93317 -4.83716 0
M  V30 156 H 11.3479 -3.70236 -5.3644 0
M  V30 157 N 14.781 0.264519 -1.55364 0
M  V30 158 C 16.03 0.992812 -1.75574 0
M  V30 159 C 16.343 1.87142 -0.568979 0
M  V30 160 O 17.549 2.63513 -0.653682 0
M  V30 161 C 16.005 1.81519 -3.10771 0
M  V30 162 C 15.613 0.984839 -4.37041 0
M  V30 163 C 17.357 2.53727 -3.40327 0
M  V30 164 C 15.264 1.80209 -5.63275 0
M  V30 165 H 14.194 0.374412 -0.65447 0
M  V30 166 H 16.845 0.248138 -1.81815 0
M  V30 167 H 15.227 2.60115 -2.98591 0
M  V30 168 H 16.401 0.242455 -4.60162 0
M  V30 169 H 14.716 0.37691 -4.14691 0
M  V30 170 H 17.313 3.15292 -4.3185 0
M  V30 171 H 17.656 3.24447 -2.60845 0
M  V30 172 H 18.189 1.82156 -3.53644 0
M  V30 173 H 14.928 1.13896 -6.45529 0
M  V30 174 H 14.448 2.52022 -5.44284 0
M  V30 175 H 16.127 2.37364 -6.01887 0
M  V30 176 N 16.2591 1.48442 0.529413 0
M  V30 177 C 17.1911 1.59095 1.64989 0
M  V30 178 C 18.2041 0.475212 1.5571 0
M  V30 179 O 19.3931 0.746081 1.6216 0
M  V30 180 C 16.4931 1.50518 3.0364 0
M  V30 181 C 15.6661 2.77142 3.38395 0
M  V30 182 C 14.7251 2.62012 4.56329 0
M  V30 183 O 13.7511 3.35898 4.59522 0
M  V30 184 N 14.9531 1.71667 5.54536 0
M  V30 185 H 17.7181 2.55723 1.56287 0
M  V30 186 H 15.2791 1.45173 0.716697 0
M  V30 187 H 17.2711 1.38091 3.80412 0
M  V30 188 H 15.8411 0.618627 3.06418 0
M  V30 189 H 15.0611 3.0413 2.50796 0
M  V30 190 H 16.3491 3.61146 3.58401 0
M  V30 191 H 15.7471 1.10841 5.54735 0
M  V30 192 H 14.3041 1.65178 6.30523 0
M  V30 193 N 17.7372 -0.778329 1.37039 0
M  V30 194 C 19.1482 -1.35421 1.28523 0
M  V30 195 C 19.4992 -1.96075 -0.0700901 0
M  V30 196 O 18.6242 -1.93352 -0.971801 0
M  V30 197 C 19.2192 -2.46211 2.32735 0
M  V30 198 C 17.7782 -2.99585 2.27873 0
M  V30 199 C 16.9252 -1.72748 2.16918 0
M  V30 200 H 19.8762 -0.5791 1.47757 0
M  V30 201 H 19.8972 -3.2552 1.9702 0
M  V30 202 H 19.4092 -2.02036 3.31365 0
M  V30 203 H 17.5102 -3.48152 1.32745 0
M  V30 204 H 17.6232 -3.55646 3.21018 0
M  V30 205 H 15.9872 -1.95416 1.63354 0
M  V30 206 H 16.7702 -1.30686 3.17452 0
M  V30 207 N 19.2153 -1.21501 -1.00376 0
M  V30 208 C 20.1633 -0.972442 -2.11297 0
M  V30 209 C 21.1573 0.080731 -1.69208 0
M  V30 210 O 22.3633 -0.0707666 -1.79861 0
M  V30 211 H 18.7383 -0.297218 -0.690772 0
M  V30 212 H 20.7093 -1.91394 -2.28934 0
M  V30 213 C 19.4583 -0.555065 -3.43241 0
M  V30 214 H 18.7813 -1.35709 -3.76062 0
M  V30 215 H 20.2213 -0.424664 -4.21868 0
M  V30 216 C 18.6803 0.734147 -3.28804 0
M  V30 217 O 19.2103 1.78937 -3.59645 0
M  V30 218 N 17.4163 0.701133 -2.82015 0
M  V30 219 H 16.9633 -0.157874 -2.57116 0
M  V30 220 H 16.9213 1.56403 -2.72737 0
M  V30 221 N 20.6934 1.19889 -1.02296 0
M  V30 222 C 21.9394 1.89701 -0.717033 0
M  V30 223 C 22.2724 1.7905 0.751989 0
M  V30 224 O 21.5474 1.17891 1.547 0
M  V30 225 C 21.8304 3.40858 -1.16136 0
M  V30 226 C 21.6834 3.60411 -2.69117 0
M  V30 227 C 23.0024 4.33876 -0.737549 0
M  V30 228 H 20.1214 0.688874 -0.261957 0
M  V30 229 H 22.7634 1.41154 -1.27183 0
M  V30 230 H 20.9134 3.82335 -0.689342 0
M  V30 231 H 22.5854 3.28145 -3.2422 0
M  V30 232 H 20.8284 3.03665 -3.0979 0
M  V30 233 H 21.4994 4.66396 -2.95261 0
M  V30 234 H 23.9754 4.00081 -1.14344 0
M  V30 235 H 22.8514 5.38242 -1.0764 0
M  V30 236 H 23.1124 4.40628 0.360436 0
M  V30 237 N 22.1715 0.800033 1.35784 0
M  V30 238 C 23.4205 0.37387 1.98205 0
M  V30 239 C 23.7335 -1.06302 1.64193 0
M  V30 240 O 24.9395 -1.59198 2.19928 0
M  V30 241 C 23.3955 0.617532 3.54562 0
M  V30 242 C 23.0035 2.06654 3.9749 0
M  V30 243 C 24.7475 0.256401 4.23725 0
M  V30 244 C 22.6545 2.2563 5.46667 0
M  V30 245 H 21.5845 0.136055 0.741623 0
M  V30 246 H 24.2355 0.983166 1.54939 0
M  V30 247 H 22.6175 -0.0616248 3.95952 0
M  V30 248 H 23.7915 2.78296 3.67271 0
M  V30 249 H 22.1065 2.38691 3.41197 0
M  V30 250 H 24.7035 0.376318 5.33374 0
M  V30 251 H 25.0465 -0.796692 4.08606 0
M  V30 252 H 25.5795 0.889214 3.87734 0
M  V30 253 H 22.3185 3.2936 5.66747 0
M  V30 254 H 21.8385 1.58504 5.78478 0
M  V30 255 H 23.5175 2.06861 6.1304 0
M  V30 256 N 23.6496 -1.47581 0.552962 0
M  V30 257 C 24.8746 -2.07378 0.0300593 0
M  V30 258 C 25.2996 -1.40355 -1.25229 0
M  V30 259 O 24.6576 -0.477099 -1.7491 0
M  V30 260 C 24.7056 -3.60274 -0.153231 0
M  V30 261 O 23.8096 -3.94041 -1.21678 0
M  V30 262 H 23.1506 -0.662158 0.0494182 0
M  V30 263 H 25.6806 -1.89662 0.767434 0
M  V30 264 H 25.6906 -4.0633 -0.368761 0
M  V30 265 H 24.3656 -4.08455 0.783397 0
M  V30 266 H 22.9426 -3.59735 -0.982079 0
M  V30 267 N 25.1277 -0.289203 -1.54924 0
M  V30 268 C 26.3737 0.323998 -2.00195 0
M  V30 269 C 26.7067 1.54441 -1.17735 0
M  V30 270 O 25.9817 1.92875 -0.250878 0
M  V30 271 C 26.2647 0.692276 -3.53383 0
M  V30 272 C 26.1177 -0.536457 -4.46589 0
M  V30 273 C 27.4367 1.52335 -4.12895 0
M  V30 274 H 24.5557 0.116289 -0.727768 0
M  V30 275 H 27.1977 -0.398954 -1.85764 0
M  V30 276 H 25.3477 1.30822 -3.65811 0
M  V30 277 H 27.0197 -1.17499 -4.46085 0
M  V30 278 H 25.2627 -1.17192 -4.1767 0
M  V30 279 H 25.9337 -0.234806 -5.515 0
M  V30 280 H 28.4097 1.00302 -4.0383 0
M  V30 281 H 27.2857 1.74982 -5.20262 0
M  V30 282 H 27.5467 2.50886 -3.64018 0
M  V30 283 N 26.6058 1.57591 -0.0167156 0
M  V30 284 C 28.0218 1.55946 0.339557 0
M  V30 285 C 28.2218 1.02109 1.73713 0
M  V30 286 O 27.2778 0.662303 2.43659 0
M  V30 287 C 28.5908 3.00037 0.199499 0
M  V30 288 C 30.1388 3.11805 0.273193 0
M  V30 289 C 30.6138 4.57713 0.162068 0
M  V30 290 N 32.1048 4.6268 0.219444 0
M  V30 291 C 32.8398 5.73185 0.157054 0
M  V30 292 N 32.3358 6.92786 0.0442936 0
M  V30 293 N 34.1288 5.61707 0.21014 0
M  V30 294 H 26.2798 1.90921 -0.930758 0
M  V30 295 H 28.5428 0.877674 -0.358319 0
M  V30 296 H 28.2488 3.4333 -0.76273 0
M  V30 297 H 28.1228 3.64387 0.974786 0
M  V30 298 H 30.5098 2.68433 1.22587 0
M  V30 299 H 30.5908 2.50201 -0.532256 0
M  V30 300 H 30.2348 5.01763 -0.78714 0
M  V30 301 H 30.1648 5.17283 0.986222 0
M  V30 302 H 32.6558 3.76649 0.307246 0
M  V30 303 H 32.9688 7.728 0.00304069 0
M  V30 304 H 31.3138 6.94999 0.00968457 0
M  V30 305 H 34.5048 4.6716 0.296546 0
M  V30 306 H 34.6778 6.47807 0.158054 0
M  V30 307 N 28.0839 -0.256276 1.55502 0
M  V30 308 C 29.0139 -1.32102 1.92539 0
M  V30 309 C 29.9949 -1.50684 0.789194 0
M  V30 310 O 31.1799 -1.63449 1.04872 0
M  V30 311 C 28.3099 -2.67752 2.21192 0
M  V30 312 C 27.2639 -2.63878 3.36975 0
M  V30 313 C 26.5899 -4.03236 3.51147 0
M  V30 314 C 27.8899 -2.21682 4.72921 0
M  V30 315 H 29.5839 -1.01351 2.81724 0
M  V30 316 H 27.1299 -0.486105 1.35547 0
M  V30 317 H 29.0829 -3.42365 2.45691 0
M  V30 318 H 27.8069 -3.0012 1.28824 0
M  V30 319 H 26.4659 -1.91722 3.12471 0
M  V30 320 H 26.1139 -4.32854 2.56216 0
M  V30 321 H 25.8139 -4.01535 4.29003 0
M  V30 322 H 27.3379 -4.79563 3.77957 0
M  V30 323 H 28.7519 -2.86023 4.96854 0
M  V30 324 H 27.1489 -2.3111 5.53812 0
M  V30 325 H 28.2189 -1.16833 4.70615 0
M  V30 326 N 29.562 -1.4872 -0.521534 0
M  V30 327 C 30.809 -1.57168 -1.27689 0
M  V30 328 C 31.137 -0.249275 -1.92896 0
M  V30 329 O 30.392 0.761162 -1.80291 0
M  V30 330 C 30.691 -2.66497 -2.38148 0
M  V30 331 C 30.357 -4.08664 -1.90538 0
M  V30 332 C 29.019 -4.47357 -1.77271 0
M  V30 333 C 31.371 -4.97724 -1.54663 0
M  V30 334 C 28.699 -5.72905 -1.26478 0
M  V30 335 C 31.051 -6.2377 -1.05329 0
M  V30 336 C 29.715 -6.61311 -0.906861 0
M  V30 337 H 28.985 -0.575117 -0.467249 0
M  V30 338 H 31.632 -1.82472 -0.581051 0
M  V30 339 H 29.937 -2.35085 -3.13437 0
M  V30 340 H 31.634 -2.70246 -2.96257 0
M  V30 341 H 28.224 -3.78111 -2.01816 0
M  V30 342 H 32.408 -4.68501 -1.63768 0
M  V30 343 H 27.664 -6.00709 -1.13835 0
M  V30 344 H 31.838 -6.9217 -0.76644 0
M  V30 345 H 29.465 -7.5848 -0.511083 0
M  V30 346 N 31.0401 0.771051 -1.3745 0
M  V30 347 C 31.9871 1.88435 -1.3327 0
M  V30 348 C 32.9571 1.64914 -0.198136 0
M  V30 349 O 34.1421 1.86821 -0.387606 0
M  V30 350 C 31.2821 3.25509 -1.14622 0
M  V30 351 C 30.3951 3.60979 -2.37314 0
M  V30 352 C 29.5301 4.87265 -2.11533 0
M  V30 353 C 28.5691 5.15469 -3.30088 0
M  V30 354 N 27.7061 6.32944 -3.03853 0
M  V30 355 H 32.5461 1.91344 -2.28455 0
M  V30 356 H 30.0831 0.935466 -1.13523 0
M  V30 357 H 32.0411 4.04582 -1.01831 0
M  V30 358 H 30.6711 3.21974 -0.230837 0
M  V30 359 H 29.7231 2.76885 -2.60842 0
M  V30 360 H 31.0351 3.77759 -3.25729 0
M  V30 361 H 30.1891 5.74244 -1.95777 0
M  V30 362 H 28.9281 4.7259 -1.20457 0
M  V30 363 H 27.9331 4.26966 -3.46382 0
M  V30 364 H 29.1581 5.32052 -4.22016 0
M  V30 365 H 27.1041 6.19625 -2.15407 0
M  V30 366 H 27.0211 6.50143 -3.85812 0
M  V30 367 H 28.2891 7.22857 -2.91716 0
M  V30 368 N 32.5182 1.22032 0.997298 0
M  V30 369 C 33.9342 0.979326 1.26021 0
M  V30 370 C 34.1342 -0.32972 1.98784 0
M  V30 371 O 33.1902 -1.05345 2.29475 0
M  V30 372 C 34.5032 2.17509 2.07631 0
M  V30 373 C 36.0512 2.21817 2.2083 0
M  V30 374 C 36.5262 3.40933 3.05825 0
M  V30 375 N 38.0172 3.41067 3.13412 0
M  V30 376 C 38.7522 4.29885 3.79455 0
M  V30 377 N 38.2482 5.28914 4.47462 0
M  V30 378 N 40.0412 4.17673 3.76173 0
M  V30 379 H 32.1922 2.06202 0.509352 0
M  V30 380 H 34.4552 0.90334 0.287541 0
M  V30 381 H 34.1612 3.12415 1.61524 0
M  V30 382 H 34.0352 2.17206 3.08385 0
M  V30 383 H 36.4222 1.27462 2.66153 0
M  V30 384 H 36.5032 2.2616 1.1952 0
M  V30 385 H 36.1472 4.35586 2.61203 0
M  V30 386 H 36.0772 3.33829 4.07266 0
M  V30 387 H 38.5682 2.69406 2.65007 0
M  V30 388 H 38.8812 5.92973 4.95583 0
M  V30 389 H 37.2262 5.32831 4.46224 0
M  V30 390 H 40.4172 3.39564 3.22202 0
M  V30 391 H 40.5902 4.87098 4.27363 0
M  V30 392 N 33.9963 -1.19345 1.0293 0
M  V30 393 C 34.9433 -2.2258 0.610464 0
M  V30 394 C 35.9133 -1.6179 -0.375946 0
M  V30 395 O 37.0983 -1.88844 -0.272511 0
M  V30 396 C 34.2383 -3.45085 -0.0321473 0
M  V30 397 C 33.3513 -4.20258 1.00035 0
M  V30 398 C 32.4863 -5.3019 0.32746 0
M  V30 399 C 31.5253 -5.97121 1.34584 0
M  V30 400 N 30.6623 -6.98615 0.698726 0
M  V30 401 H 35.5023 -2.57764 1.49538 0
M  V30 402 H 33.0393 -1.26644 0.748311 0
M  V30 403 H 34.9973 -4.15061 -0.421966 0
M  V30 404 H 33.6273 -3.10555 -0.88064 0
M  V30 405 H 32.6793 -3.49223 1.50823 0
M  V30 406 H 33.9913 -4.66175 1.77433 0
M  V30 407 H 33.1453 -6.06587 -0.11718 0
M  V30 408 H 31.8843 -4.85345 -0.478713 0
M  V30 409 H 30.8893 -5.19474 1.80074 0
M  V30 410 H 32.1143 -6.4405 2.15352 0
M  V30 411 H 30.0603 -6.55942 -0.0873471 0
M  V30 412 H 29.9773 -7.42724 1.41058 0
M  V30 413 H 31.2453 -7.79004 0.278102 0
M  V30 414 N 35.4744 -0.807222 -1.35358 0
M  V30 415 C 36.7204 -0.388463 -1.99045 0
M  V30 416 C 37.0534 1.04184 -1.63888 0
M  V30 417 O 36.3284 1.72292 -0.902535 0
M  V30 418 C 36.6114 -0.572783 -3.55515 0
M  V30 419 C 36.4644 -2.04807 -4.00468 0
M  V30 420 C 37.7834 0.00114064 -4.401 0
M  V30 421 H 34.9024 -0.142619 -0.723069 0
M  V30 422 H 37.5444 -1.01687 -1.60498 0
M  V30 423 H 35.6944 -0.0378425 -3.88482 0
M  V30 424 H 37.3664 -2.64544 -3.77908 0
M  V30 425 H 35.6094 -2.54427 -3.51353 0
M  V30 426 H 36.2804 -2.12792 -5.09337 0
M  V30 427 H 38.7564 -0.455716 -4.13597 0
M  V30 428 H 37.6324 -0.157737 -5.48673 0
M  V30 429 H 37.8934 1.09488 -4.28328 0
M  V30 430 N 36.9525 1.47285 -0.560781 0
M  V30 431 C 38.2005 2.02064 -0.0379868 0
M  V30 432 C 38.5215 1.43711 1.31803 0
M  V30 433 O 37.7915 0.61362 1.86042 0
M  V30 434 H 36.3715 0.746918 -0.0110531 0
M  V30 435 H 39.0335 1.80648 -0.731598 0
M  V30 436 H 38.1295 3.12064 0.0474463 0
M  V30 437 N 38.4306 0.297415 1.54768 0
M  V30 438 C 39.6786 -0.312295 1.99673 0
M  V30 439 C 39.9996 -1.54686 1.18732 0
M  V30 440 O 39.2696 -1.93854 0.282382 0
M  V30 441 H 37.8496 -0.118381 0.73756 0
M  V30 442 H 40.5116 0.407915 1.90583 0
M  V30 443 H 39.6076 -0.586813 3.06534 0
M  V30 444 N 39.9087 -1.5758 0.0250728 0
M  V30 445 C 40.8387 -2.13007 -0.956575 0
M  V30 446 C 41.8197 -1.0452 -1.342 0
M  V30 447 O 43.0047 -1.32332 -1.42133 0
M  V30 448 C 40.1347 -2.65386 -2.24026 0
M  V30 449 C 39.0887 -3.78623 -1.99571 0
M  V30 450 C 38.4147 -4.17414 -3.3417 0
M  V30 451 C 39.7147 -5.04867 -1.33814 0
M  V30 452 H 41.4087 -2.9528 -0.494991 0
M  V30 453 H 38.9547 -1.42042 -0.236651 0
M  V30 454 H 40.9077 -3.02794 -2.93076 0
M  V30 455 H 39.6317 -1.80268 -2.72343 0
M  V30 456 H 38.2907 -3.41646 -1.32941 0
M  V30 457 H 37.9387 -3.29284 -3.80238 0
M  V30 458 H 37.6387 -4.93719 -3.18615 0
M  V30 459 H 39.1627 -4.57402 -4.04495 0
M  V30 460 H 40.5767 -5.39888 -1.92857 0
M  V30 461 H 38.9737 -5.86144 -1.28669 0
M  V30 462 H 40.0437 -4.83904 -0.310561 0
M  V30 463 N 41.3868 0.248026 -1.55636 0
M  V30 464 C 42.6348 0.974295 -1.77065 0
M  V30 465 C 42.9558 1.85897 -0.588849 0
M  V30 466 O 42.2258 1.91868 0.395407 0
M  V30 467 H 40.8058 0.362733 -0.653019 0
M  V30 468 H 43.4678 0.266244 -1.93073 0
M  V30 469 H 42.5638 1.59667 -2.68166 0
M  V30 470 N 42.8649 1.48995 0.513639 0
M  V30 471 C 44.1119 1.57843 1.26854 0
M  V30 472 C 44.4399 0.259501 1.92761 0
M  V30 473 O 43.6949 -0.75159 1.80692 0
M  V30 474 C 43.9939 2.67756 2.36731 0
M  V30 475 C 43.6599 4.09669 1.88368 0
M  V30 476 C 42.3219 4.48291 1.74896 0
M  V30 477 C 44.6739 4.98537 1.52021 0
M  V30 478 C 42.0019 5.73568 1.23438 0
M  V30 479 C 44.3539 6.24319 1.0202 0
M  V30 480 C 43.0179 6.61783 0.871778 0
M  V30 481 H 42.2879 0.577587 0.464192 0
M  V30 482 H 44.9349 1.82778 0.571366 0
M  V30 483 H 43.2399 2.36743 3.12185 0
M  V30 484 H 44.9369 2.71813 2.9482 0
M  V30 485 H 41.5269 3.79176 1.99808 0
M  V30 486 H 45.7109 4.69363 1.61281 0
M  V30 487 H 40.9669 6.01304 1.10648 0
M  V30 488 H 45.1409 6.92566 0.729722 0
M  V30 489 H 42.7679 7.5874 0.470852 0
M  V30 490 N 44.343 -0.763751 1.37857 0
M  V30 491 C 45.273 -1.89103 1.36975 0
M  V30 492 C 46.254 -1.68439 0.237152 0
M  V30 493 O 47.439 -1.8918 0.438713 0
M  V30 494 C 44.569 -3.26496 1.18395 0
M  V30 495 C 43.523 -3.61741 2.28751 0
M  V30 496 C 42.849 -4.97762 1.95286 0
M  V30 497 C 44.149 -3.67665 3.70972 0
M  V30 498 H 45.843 -1.90099 2.31307 0
M  V30 499 H 43.389 -0.91319 1.11341 0
M  V30 500 H 45.342 -4.05003 1.16406 0
M  V30 501 H 44.066 -3.25955 0.205215 0
M  V30 502 H 42.725 -2.85547 2.29909 0
M  V30 503 H 42.373 -4.93769 0.959221 0
M  V30 504 H 42.073 -5.22313 2.69189 0
M  V30 505 H 43.597 -5.7866 1.94898 0
M  V30 506 H 45.011 -4.36307 3.719 0
M  V30 507 H 43.408 -4.03718 4.43995 0
M  V30 508 H 44.478 -2.68134 4.0402 0
M  V30 509 N 45.8211 -1.22559 -0.990812 0
M  V30 510 C 47.0671 -1.05297 -1.73322 0
M  V30 511 C 47.4001 0.410655 -1.89808 0
M  V30 512 O 46.6751 1.30439 -1.44277 0
M  V30 513 C 46.9581 -1.76713 -3.13759 0
M  V30 514 C 46.8111 -3.30684 -3.04907 0
M  V30 515 C 48.1301 -1.52121 -4.12974 0
M  V30 516 H 45.2491 -0.38392 -0.629106 0
M  V30 517 H 47.8911 -1.50926 -1.15418 0
M  V30 518 H 46.0411 -1.37924 -3.63193 0
M  V30 519 H 47.7131 -3.7893 -2.63077 0
M  V30 520 H 45.9561 -3.60253 -2.41661 0
M  V30 521 H 46.6271 -3.75833 -4.04294 0
M  V30 522 H 49.1031 -1.85819 -3.72304 0
M  V30 523 H 47.9791 -2.04582 -5.0935 0
M  V30 524 H 48.2401 -0.454257 -4.3976 0
M  V30 525 N 47.2992 1.18797 -1.03562 0
M  V30 526 C 48.2462 2.22253 -0.622259 0
M  V30 527 C 49.2162 1.61987 0.36736 0
M  V30 528 O 50.4012 1.88986 0.262492 0
M  V30 529 C 47.5412 3.45097 0.0138462 0
M  V30 530 C 46.6542 4.19722 -1.02263 0
M  V30 531 C 45.7892 5.30009 -0.355573 0
M  V30 532 C 44.8282 5.96399 -1.37749 0
M  V30 533 N 43.9652 6.98234 -0.735766 0
M  V30 534 H 48.8052 2.56968 -1.50903 0
M  V30 535 H 46.3422 1.26245 -0.755017 0
M  V30 536 H 48.3002 4.15279 0.399948 0
M  V30 537 H 46.9302 3.11018 0.864158 0
M  V30 538 H 45.9822 3.48418 -1.52673 0
M  V30 539 H 47.2942 4.65227 -1.79903 0
M  V30 540 H 46.4482 6.0664 0.0850095 0
M  V30 541 H 45.1872 4.85592 0.452967 0
M  V30 542 H 44.1922 5.18512 -1.82826 0
M  V30 543 H 45.4172 6.42899 -2.18764 0
M  V30 544 H 43.3632 6.55979 0.0525597 0
M  V30 545 H 43.2802 7.41965 -1.44995 0
M  V30 546 H 44.5482 7.78845 -0.31941 0
M  V30 547 N 48.7773 0.814389 1.34928 0
M  V30 548 C 49.6873 0.231978 2.3345 0
M  V30 549 C 50.7033 -0.629139 1.62228 0
M  V30 550 O 51.8793 -0.539052 1.94052 0
M  V30 551 C 48.9443 -0.603482 3.41407 0
M  V30 552 C 48.0053 0.279037 4.28392 0
M  V30 553 C 47.2383 -0.516643 5.31193 0
M  V30 554 O 47.4613 -1.75068 5.4287 0
M  V30 555 O 46.3953 0.0965652 6.01823 0
M  V30 556 H 50.2213 1.04721 2.85074 0
M  V30 557 H 47.8063 0.576343 1.37836 0
M  V30 558 H 49.6883 -1.07908 4.0735 0
M  V30 559 H 48.3633 -1.39618 2.92042 0
M  V30 560 H 47.2703 0.801948 3.65403 0
M  V30 561 H 48.6033 1.03588 4.81176 0
M  V30 562 N 50.2554 -1.46986 0.568584 0
M  V30 563 C 51.6714 -1.57946 0.229189 0
M  V30 564 C 51.8714 -1.56567 -1.26843 0
M  V30 565 O 50.9274 -1.47511 -2.04931 0
M  V30 566 C 52.2404 -2.87963 0.865909 0
M  V30 567 C 53.7884 -3.01568 0.838188 0
M  V30 568 C 54.2634 -4.34301 1.45419 0
M  V30 569 N 55.7544 -4.40965 1.41788 0
M  V30 570 C 56.4894 -5.42256 1.86403 0
M  V30 571 N 55.9854 -6.50297 2.38926 0
M  V30 572 N 57.7784 -5.3337 1.77405 0
M  V30 573 H 49.9294 -1.46126 1.54146 0
M  V30 574 H 52.1924 -0.696156 0.643484 0
M  V30 575 H 51.8984 -2.94742 1.91886 0
M  V30 576 H 51.7724 -3.75423 0.365687 0
M  V30 577 H 54.1594 -2.94379 -0.206106 0
M  V30 578 H 54.2404 -2.1562 1.37629 0
M  V30 579 H 53.8844 -4.42247 2.49761 0
M  V30 580 H 53.8144 -5.19 0.891435 0
M  V30 581 H 56.3054 -3.63484 1.03381 0
M  V30 582 H 56.6184 -7.23777 2.70863 0
M  V30 583 H 54.9634 -6.51155 2.42944 0
M  V30 584 H 58.1544 -4.47865 1.3614 0
M  V30 585 H 58.3274 -6.12169 2.12492 0
M  V30 586 N 51.7335 -0.305618 -1.54608 0
M  V30 587 C 52.9795 0.302746 -2.00528 0
M  V30 588 C 53.3125 1.53184 -1.19367 0
M  V30 589 O 52.5875 1.92598 -0.271321 0
M  V30 590 C 52.8705 0.654756 -3.54097 0
M  V30 591 C 52.7235 -0.583793 -4.45995 0
M  V30 592 C 54.0425 1.47947 -4.14487 0
M  V30 593 H 51.1615 0.108564 -0.72896 0
M  V30 594 H 53.8035 -0.418634 -1.85331 0
M  V30 595 H 51.9535 1.26935 -3.67178 0
M  V30 596 H 53.6255 -1.22224 -4.44814 0
M  V30 597 H 51.8685 -1.21615 -4.16404 0
M  V30 598 H 52.5395 -0.293287 -5.5122 0
M  V30 599 H 55.0155 0.96013 -4.04871 0
M  V30 600 H 53.8915 1.69454 -5.22088 0
M  V30 601 H 54.1525 2.47011 -3.66658 0
M  V30 602 N 53.2116 1.57565 -0.0334293 0
M  V30 603 C 54.4366 1.96689 0.657895 0
M  V30 604 C 54.8616 0.910057 1.64619 0
M  V30 605 O 54.2196 -0.128598 1.80843 0
M  V30 606 C 54.2676 3.34905 1.33683 0
M  V30 607 O 53.3716 3.31574 2.45219 0
M  V30 608 H 52.7126 0.641205 0.172489 0
M  V30 609 H 55.2426 2.04372 -0.0965621 0
M  V30 610 H 55.2526 3.71234 1.69262 0
M  V30 611 H 53.9276 4.11366 0.612411 0
M  V30 612 H 52.5046 3.06968 2.11719 0
M  V30 613 N 54.6897 -0.239769 1.55765 0
M  V30 614 C 55.6367 -1.29696 1.90913 0
M  V30 615 C 56.6067 -1.47478 0.764164 0
M  V30 616 O 57.7917 -1.61345 1.01845 0
M  V30 617 C 54.9317 -2.64598 2.21544 0
M  V30 618 C 54.0447 -2.54765 3.48882 0
M  V30 619 C 53.1797 -3.82069 3.69049 0
M  V30 620 C 52.2187 -3.66883 4.89963 0
M  V30 621 N 51.3557 -4.86094 5.06614 0
M  V30 622 H 56.1957 -0.990224 2.81067 0
M  V30 623 H 53.7327 -0.477684 1.39128 0
M  V30 624 H 55.6907 -3.43132 2.3731 0
M  V30 625 H 54.3207 -2.93405 1.34585 0
M  V30 626 H 53.3727 -1.67763 3.41409 0
M  V30 627 H 54.6847 -2.39457 4.37563 0
M  V30 628 H 53.8387 -4.69046 3.84812 0
M  V30 629 H 52.5777 -4.00282 2.78614 0
M  V30 630 H 51.5827 -2.78289 4.74168 0
M  V30 631 H 52.8077 -3.50157 5.81865 0
M  V30 632 H 50.7537 -5.04655 4.19117 0
M  V30 633 H 50.6707 -4.73443 5.89396 0
M  V30 634 H 51.9387 -5.74549 5.26795 0
M  V30 635 N 56.1678 -1.49265 -0.50573 0
M  V30 636 C 57.5788 -1.51769 -1.08734 0
M  V30 637 C 57.9298 -0.301192 -1.93874 0
M  V30 638 O 57.0548 0.589456 -2.08217 0
M  V30 639 C 57.6498 -2.75017 -1.97867 0
M  V30 640 C 56.2088 -2.80314 -2.51199 0
M  V30 641 C 55.3558 -2.4562 -1.28709 0
M  V30 642 H 58.3068 -1.56031 -0.289855 0
M  V30 643 H 58.3278 -2.5491 -2.82491 0
M  V30 644 H 57.8398 -3.63539 -1.35873 0
M  V30 645 H 55.9408 -1.96061 -3.16845 0
M  V30 646 H 56.0538 -3.82366 -2.88675 0
M  V30 647 H 54.4178 -1.97297 -1.61078 0
M  V30 648 H 55.2008 -3.36411 -0.6843 0
M  V30 649 N 57.6459 0.756429 -1.3826 0
M  V30 650 C 59.0569 1.33359 -1.30661 0
M  V30 651 C 59.4079 1.96161 0.0388875 0
M  V30 652 O 58.5329 1.94874 0.940918 0
M  V30 653 C 59.1279 2.42477 -2.36622 0
M  V30 654 C 57.6869 2.95922 -2.3261 0
M  V30 655 C 56.8339 1.69275 -2.19639 0
M  V30 656 H 59.7849 0.55552 -1.4866 0
M  V30 657 H 59.8059 3.22345 -2.02174 0
M  V30 658 H 59.3179 1.96739 -3.34538 0
M  V30 659 H 57.4189 3.45996 -1.38267 0
M  V30 660 H 57.5319 3.50494 -3.26636 0
M  V30 661 H 55.8959 1.92793 -1.66442 0
M  V30 662 H 56.6789 1.25619 -3.19491 0
M  V30 663 N 59.124 1.23083 0.984299 0
M  V30 664 C 60.37 1.06214 1.72761 0
M  V30 665 C 60.703 -0.400584 1.90024 0
M  V30 666 O 59.978 -1.29672 1.44967 0
M  V30 667 C 60.261 1.78375 3.12817 0
M  V30 668 C 60.114 3.32296 3.03149 0
M  V30 669 C 61.433 1.54309 4.12161 0
M  V30 670 H 58.552 0.387251 0.627061 0
M  V30 671 H 61.194 1.51536 1.14616 0
M  V30 672 H 59.344 1.39848 3.62457 0
M  V30 673 H 61.016 3.8032 2.61064 0
M  V30 674 H 59.259 3.6153 2.39747 0
M  V30 675 H 59.93 3.77972 4.02295 0
M  V30 676 H 62.406 1.87791 3.71314 0
M  V30 677 H 61.282 2.07281 5.08258 0
M  V30 678 H 61.543 0.477572 4.39513 0
M  V30 679 N 60.6021 -1.18246 1.0419 0
M  V30 680 C 61.8511 -1.87588 0.741194 0
M  V30 681 C 62.1641 -1.81303 -0.734066 0
M  V30 682 O 63.3701 -2.46019 -1.14834 0
M  V30 683 C 61.8261 -3.36538 1.27555 0
M  V30 684 C 61.4341 -3.51349 2.77953 0
M  V30 685 C 63.1781 -4.11273 1.05143 0
M  V30 686 C 61.0851 -4.94265 3.2474 0
M  V30 687 H 60.0151 -0.702622 0.273565 0
M  V30 688 H 62.6661 -1.33601 1.25789 0
M  V30 689 H 61.0481 -3.9 0.686703 0
M  V30 690 H 62.2221 -3.08153 3.42605 0
M  V30 691 H 60.5371 -2.90022 2.98791 0
M  V30 692 H 63.1341 -5.16689 1.37611 0
M  V30 693 H 63.4771 -4.16298 -0.0112774 0
M  V30 694 H 64.0101 -3.63987 1.60495 0
M  V30 695 H 60.7491 -4.94408 4.30396 0
M  V30 696 H 60.2691 -5.38172 2.64823 0
M  V30 697 H 61.9481 -5.62987 3.18834 0
M  V30 698 N 62.0802 -0.821533 -1.34494 0
M  V30 699 C 63.3292 -0.405355 -1.97585 0
M  V30 700 C 63.6422 1.03677 -1.65863 0
M  V30 701 O 64.8482 1.55679 -2.22433 0
M  V30 702 C 63.3042 -0.673861 -3.53535 0
M  V30 703 C 62.9122 -2.12951 -3.94152 0
M  V30 704 C 64.6562 -0.32378 -4.23263 0
M  V30 705 C 62.5632 -2.34298 -5.43009 0
M  V30 706 H 61.4932 -0.147836 -0.739365 0
M  V30 707 H 64.1442 -1.00769 -1.53355 0
M  V30 708 H 62.5262 -0.00137554 -3.96 0
M  V30 709 H 63.7002 -2.84104 -3.62797 0
M  V30 710 H 62.0152 -2.44089 -3.37356 0
M  V30 711 H 64.6122 -0.461126 -5.32708 0
M  V30 712 H 64.9552 0.731586 -4.09821 0
M  V30 713 H 65.4882 -0.950786 -3.8627 0
M  V30 714 H 62.2272 -3.38335 -5.61435 0
M  V30 715 H 61.7472 -1.67687 -5.75883 0
M  V30 716 H 63.4262 -2.16588 -6.09671 0
M  V30 717 N 63.5583 1.46682 -0.576371 0
M  V30 718 C 64.7833 2.07304 -0.0630475 0
M  V30 719 C 65.2083 1.42329 1.2298 0
M  V30 720 O 64.5663 0.504865 1.74129 0
M  V30 721 C 64.6143 3.60472 0.095895 0
M  V30 722 O 63.7183 3.95927 1.15394 0
M  V30 723 H 63.0593 0.661288 -0.0599463 0
M  V30 724 H 65.5893 1.88417 -0.797511 0
M  V30 725 H 65.5993 4.06865 0.304071 0
M  V30 726 H 64.2743 4.07157 -0.84828 0
M  V30 727 H 62.8513 3.61252 0.924724 0
M  V30 728 N 65.0364 0.313813 1.54444 0
M  V30 729 C 66.3134 -0.345447 1.92525 0
M  V30 730 C 66.6934 -1.70667 1.24242 0
M  V30 731 O 66.0414 -2.25273 0.382654 0
M  V30 732 C 66.2514 -0.44737 3.46121 0
M  V30 733 C 67.5994 -0.712238 4.18584 0
M  V30 734 O 68.6234 -0.530678 3.52225 0
M  V30 735 O 67.4824 -1.06183 5.36085 0
M  V30 736 H 64.5764 -0.195407 0.803583 0
M  V30 737 H 67.1224 0.362813 1.65776 0
M  V30 738 H 65.8944 0.509043 3.87975 0
M  V30 739 H 65.5174 -1.20359 3.78945 0
M  V30 740 N 66.5145 -1.57545 0.0417849 0
M  V30 741 C 67.4445 -2.14009 -0.933929 0
M  V30 742 C 68.4255 -1.05938 -1.33083 0
M  V30 743 O 69.6105 -1.33833 -1.40721 0
M  V30 744 C 66.7405 -2.67747 -2.21199 0
M  V30 745 C 65.6945 -3.80718 -1.95544 0
M  V30 746 C 65.0205 -4.20935 -3.29724 0
M  V30 747 C 66.3205 -5.06258 -1.28452 0
M  V30 748 H 68.0145 -2.95788 -0.463645 0
M  V30 749 H 65.5605 -1.42285 -0.221573 0
M  V30 750 H 67.5135 -3.05886 -2.89848 0
M  V30 751 H 66.2375 -1.83147 -2.70416 0
M  V30 752 H 64.8965 -3.43037 -1.2931 0
M  V30 753 H 64.5445 -3.33298 -3.76724 0
M  V30 754 H 64.2445 -4.9707 -3.13361 0
M  V30 755 H 65.7685 -4.61666 -3.9962 0
M  V30 756 H 67.1825 -5.41903 -1.8712 0
M  V30 757 H 65.5795 -5.87475 -1.22445 0
M  V30 758 H 66.6495 -4.84207 -0.259219 0
M  V30 759 N 67.9926 0.231505 -1.5589 0
M  V30 760 C 69.2416 0.955346 -1.7764 0
M  V30 761 C 69.5546 1.85893 -0.608546 0
M  V30 762 O 70.7606 2.62067 -0.70943 0
M  V30 763 C 69.2166 1.74886 -3.14552 0
M  V30 764 C 68.8246 0.891915 -4.39032 0
M  V30 765 C 70.5686 2.46452 -3.45633 0
M  V30 766 C 68.4756 1.68221 -5.66971 0
M  V30 767 H 67.4056 0.360446 -0.662265 0
M  V30 768 H 70.0566 0.209516 -1.823 0
M  V30 769 H 68.4386 2.53723 -3.04041 0
M  V30 770 H 69.6126 0.144793 -4.60572 0
M  V30 771 H 67.9276 0.288863 -4.15397 0
M  V30 772 H 70.5246 3.06061 -4.38441 0
M  V30 773 H 70.8676 3.18841 -2.67668 0
M  V30 774 H 71.4006 1.74613 -3.57428 0
M  V30 775 H 68.1396 1.00178 -6.478 0
M  V30 776 H 67.6596 2.4042 -5.49507 0
M  V30 777 H 69.3386 2.24544 -6.06786 0
M  V30 778 N 69.4707 1.49531 0.497807 0
M  V30 779 C 70.8867 1.36365 0.829266 0
M  V30 780 C 71.0867 0.399184 1.97506 0
M  V30 781 O 70.1427 -0.167977 2.51941 0
M  V30 782 C 71.4557 2.77153 1.16647 0
M  V30 783 C 73.0037 2.85877 1.27449 0
M  V30 784 C 73.4787 4.2744 1.64497 0
M  V30 785 N 74.9697 4.30265 1.7154 0
M  V30 786 C 75.7047 5.3677 2.01656 0
M  V30 787 N 75.2007 6.53516 2.29976 0
M  V30 788 N 76.9937 5.24189 2.02934 0
M  V30 789 H 69.1447 2.10831 -0.257703 0
M  V30 790 H 71.4077 0.946534 -0.0527091 0
M  V30 791 H 71.1137 3.49442 0.397872 0
M  V30 792 H 70.9877 3.12722 2.10915 0
M  V30 793 H 73.3747 2.13824 2.0338 0
M  V30 794 H 73.4557 2.53887 0.312244 0
M  V30 795 H 73.0997 5.00021 0.891151 0
M  V30 796 H 73.0297 4.56896 2.61827 0
M  V30 797 H 75.5207 3.4607 1.51802 0
M  V30 798 H 75.8337 7.30506 2.52153 0
M  V30 799 H 74.1787 6.56737 2.27425 0
M  V30 800 H 77.3697 4.31988 1.80289 0
M  V30 801 H 77.5427 6.07286 2.26071 0
M  V30 802 N 70.9488 -0.749086 1.3866 0
M  V30 803 C 72.1968 -1.50535 1.34847 0
M  V30 804 C 72.5178 -1.94909 -0.0595016 0
M  V30 805 O 71.7878 -1.67973 -1.00806 0
M  V30 806 H 70.3678 -0.558395 0.49619 0
M  V30 807 H 73.0298 -0.890165 1.73384 0
M  V30 808 H 72.1258 -2.39413 2.00219 0
M  V30 809 N 72.4269 -1.23603 -0.977757 0
M  V30 810 C 73.6749 -1.06759 -1.71601 0
M  V30 811 C 73.9959 0.395929 -1.90938 0
M  V30 812 O 73.2659 1.28356 -1.47992 0
M  V30 813 H 71.8459 -0.392062 -0.635843 0
M  V30 814 H 74.5079 -1.55362 -1.1768 0
M  V30 815 H 73.6039 -1.55763 -2.70452 0
M  V30 816 N 73.905 1.17692 -1.04816 0
M  V30 817 C 74.868 2.19787 -0.650117 0
M  V30 818 C 75.868 1.58044 0.296427 0
M  V30 819 O 77.058 1.74012 0.0808097 0
M  V30 820 C 74.19 3.40869 0.0456987 0
M  V30 821 H 75.383 2.56516 -1.5537 0
M  V30 822 H 72.936 1.31708 -0.841594 0
M  V30 823 H 73.671 3.09681 0.962726 0
M  V30 824 H 73.456 3.86928 -0.634727 0
M  V30 825 H 74.946 4.16445 0.310432 0
M  V30 826 N 75.3831 0.828654 1.34056 0
M  V30 827 C 76.3461 0.259927 2.27721 0
M  V30 828 C 77.3461 -0.565478 1.50529 0
M  V30 829 O 78.5361 -0.38075 1.69988 0
M  V30 830 C 75.6681 -0.634944 3.34935 0
M  V30 831 H 76.8611 1.0863 2.79534 0
M  V30 832 H 74.4141 0.600951 1.44285 0
M  V30 833 H 75.1491 -1.48416 2.88346 0
M  V30 834 H 74.9341 -0.0444999 3.92075 0
M  V30 835 H 76.4241 -1.02648 4.04788 0
M  V30 836 N 76.8612 -1.46375 0.584142 0
M  V30 837 C 77.7712 -2.34115 -0.150728 0
M  V30 838 C 78.7872 -1.49838 -0.884567 0
M  V30 839 O 79.9632 -1.82704 -0.847429 0
M  V30 840 C 77.0282 -3.2705 -1.15062 0
M  V30 841 C 76.0892 -4.27228 -0.421293 0
M  V30 842 C 75.3222 -5.15722 -1.37355 0
M  V30 843 O 75.5452 -5.07176 -2.61014 0
M  V30 844 O 74.4792 -5.95383 -0.883355 0
M  V30 845 H 78.3052 -2.98309 0.569708 0
M  V30 846 H 75.8902 -1.45373 0.344535 0
M  V30 847 H 77.7722 -3.84381 -1.72712 0
M  V30 848 H 76.4472 -2.65451 -1.8525 0
M  V30 849 H 75.3542 -3.7358 0.197085 0
M  V30 850 H 76.6872 -4.91616 0.239641 0
M  V30 851 N 78.3393 -0.321999 -1.54275 0
M  V30 852 C 79.2713 0.578671 -2.21775 0
M  V30 853 C 80.2843 1.08109 -1.21722 0
M  V30 854 O 81.4733 0.994938 -1.482 0
M  V30 855 C 78.5733 1.80661 -2.86731 0
M  V30 856 C 77.7463 1.44314 -4.12907 0
M  V30 857 C 76.8053 2.52845 -4.61472 0
M  V30 858 O 75.8313 2.17054 -5.2619 0
M  V30 859 N 77.0333 3.83748 -4.35566 0
M  V30 860 H 79.7983 0.000709447 -2.997 0
M  V30 861 H 77.3593 -0.145132 -1.61248 0
M  V30 862 H 79.3513 2.52655 -3.16145 0
M  V30 863 H 77.9213 2.29245 -2.12521 0
M  V30 864 H 77.1413 0.554906 -3.90275 0
M  V30 865 H 78.4293 1.17598 -4.95023 0
M  V30 866 H 77.8273 4.15625 -3.83761 0
M  V30 867 H 76.3843 4.51977 -4.69638 0
M  V30 868 N 79.8174 1.5752 -0.0501392 0
M  V30 869 C 81.0424 1.97376 0.636997 0
M  V30 870 C 81.4674 0.927466 1.63645 0
M  V30 871 O 80.8254 -0.10941 1.8097 0
M  V30 872 C 80.8734 3.36304 1.30123 0
M  V30 873 O 79.9774 3.34156 2.41689 0
M  V30 874 H 79.3184 0.642998 0.165679 0
M  V30 875 H 81.8484 2.04258 -0.118233 0
M  V30 876 H 81.8584 3.73008 1.65315 0
M  V30 877 H 80.5334 4.11993 0.568746 0
M  V30 878 H 79.1104 3.09196 2.08451 0
M  V30 879 N 81.2955 -0.223234 1.56011 0
M  V30 880 C 82.5435 -0.946003 1.78592 0
M  V30 881 C 82.8645 -1.84936 0.618349 0
M  V30 882 O 82.1345 -1.92473 -0.364833 0
M  V30 883 H 80.7145 -0.352298 0.658707 0
M  V30 884 H 83.3765 -0.235494 1.93472 0
M  V30 885 H 82.4725 -1.55381 2.70672 0
M  V30 886 N 82.7736 -1.49793 -0.48987 0
M  V30 887 C 83.7036 -1.70201 -1.59856 0
M  V30 888 C 84.6846 -0.55076 -1.60937 0
M  V30 889 O 85.8696 -0.787841 -1.77501 0
M  V30 890 C 82.9996 -1.77882 -2.98287 0
M  V30 891 C 81.9536 -2.92907 -3.12073 0
M  V30 892 C 81.2796 -2.85712 -4.51965 0
M  V30 893 C 82.5796 -4.3369 -2.91051 0
M  V30 894 H 84.2736 -2.63025 -1.43032 0
M  V30 895 H 81.8196 -1.26574 -0.686664 0
M  V30 896 H 83.7726 -1.90744 -3.75759 0
M  V30 897 H 82.4966 -0.816653 -3.16225 0
M  V30 898 H 81.1556 -2.79665 -2.37029 0
M  V30 899 H 80.8036 -1.8738 -4.66795 0
M  V30 900 H 80.5036 -3.62921 -4.62128 0
M  V30 901 H 82.0276 -3.00598 -5.31482 0
M  V30 902 H 83.4416 -4.47555 -3.58284 0
M  V30 903 H 81.8386 -5.12205 -3.12675 0
M  V30 904 H 82.9086 -4.47362 -1.87071 0
M  V30 905 N 84.2517 0.741722 -1.39055 0
M  V30 906 C 85.5007 1.49656 -1.35225 0
M  V30 907 C 85.8137 1.95533 0.0512708 0
M  V30 908 O 87.0197 2.7067 0.212138 0
M  V30 909 C 85.4757 2.70389 -2.37525 0
M  V30 910 C 85.0837 2.31489 -3.83558 0
M  V30 911 C 86.8277 3.48236 -2.42759 0
M  V30 912 C 84.7347 3.48903 -4.77515 0
M  V30 913 H 83.6647 0.56197 -0.502699 0
M  V30 914 H 86.3157 0.809727 -1.64668 0
M  V30 915 H 84.6977 3.41113 -2.01142 0
M  V30 916 H 85.8717 1.68354 -4.28945 0
M  V30 917 H 84.1867 1.66749 -3.81554 0
M  V30 918 H 86.7837 4.35558 -3.1015 0
M  V30 919 H 87.1267 3.90229 -1.45008 0
M  V30 920 H 87.6597 2.84535 -2.78002 0
M  V30 921 H 84.3987 3.11966 -5.76504 0
M  V30 922 H 83.9187 4.11041 -4.36813 0
M  V30 923 H 85.5977 4.15328 -4.96096 0
M  V30 924 N 85.7298 1.2412 0.971189 0
M  V30 925 C 86.6618 0.988349 2.06795 0
M  V30 926 C 87.6748 -0.0409541 1.62748 0
M  V30 927 O 88.8638 0.195673 1.77424 0
M  V30 928 C 85.9638 0.469023 3.35639 0
M  V30 929 C 85.1368 1.56065 4.08611 0
M  V30 930 C 84.1958 1.04458 5.15728 0
M  V30 931 O 83.2218 1.73553 5.42096 0
M  V30 932 N 84.4238 -0.122817 5.8037 0
M  V30 933 H 87.1888 1.93265 2.29061 0
M  V30 934 H 84.7498 1.15102 1.13856 0
M  V30 935 H 86.7418 0.108613 4.04554 0
M  V30 936 H 85.3118 -0.380919 3.1027 0
M  V30 937 H 84.5318 2.09341 3.34021 0
M  V30 938 H 85.8198 2.29449 4.54126 0
M  V30 939 H 85.2178 -0.700563 5.61345 0
M  V30 940 H 83.7748 -0.424404 6.50417 0
M  V30 941 N 87.2079 -1.17134 1.05439 0
M  V30 942 C 88.1709 -2.19439 0.661764 0
M  V30 943 C 89.1709 -1.58199 -0.288042 0
M  V30 944 O 90.3609 -1.74053 -0.0715803 0
M  V30 945 C 87.4929 -3.40889 -0.0276209 0
M  V30 946 H 88.6859 -2.55688 1.56728 0
M  V30 947 H 86.2389 -1.31259 0.848567 0
M  V30 948 H 86.9739 -3.10187 -0.94629 0
M  V30 949 H 86.7589 -3.86586 0.655238 0
M  V30 950 H 88.2489 -4.16603 -0.288342 0
M  V30 951 N 88.686 -0.835752 -1.33615 0
M  V30 952 C 89.934 -0.429109 -1.97492 0
M  V30 953 C 90.255 1.01433 -1.66543 0
M  V30 954 O 89.525 1.70611 -0.962744 0
M  V30 955 H 88.105 -0.155686 -0.730596 0
M  V30 956 H 90.767 -1.06802 -1.63031 0
M  V30 957 H 89.863 -0.55861 -3.0706 0
M  V30 958 N 90.1641 1.46063 -0.591896 0
M  V30 959 C 91.4411 1.95595 -0.0137119 0
M  V30 960 C 91.8211 1.5345 1.4497 0
M  V30 961 O 91.1691 0.789543 2.14426 0
M  V30 962 C 91.3791 3.48453 -0.195373 0
M  V30 963 C 92.7271 4.24546 -0.0679765 0
M  V30 964 O 93.7511 3.55982 -0.124681 0
M  V30 965 O 92.6101 5.46467 0.0600579 0
M  V30 966 H 89.7041 0.825795 0.0446279 0
M  V30 967 H 92.2501 1.56303 -0.660859 0
M  V30 968 H 91.0221 3.72045 -1.21235 0
M  V30 969 H 90.6451 3.94597 0.487775 0
M  V30 970 N 91.6422 0.330177 1.54103 0
M  V30 971 C 92.8912 -0.271336 1.99867 0
M  V30 972 C 93.2042 -1.52723 1.22209 0
M  V30 973 O 94.4102 -2.20515 1.58383 0
M  V30 974 C 92.8662 -0.534032 3.55916 0
M  V30 975 C 92.4742 0.705193 4.42415 0
M  V30 976 C 94.2182 -1.09514 4.1013 0
M  V30 977 C 92.1252 0.414035 5.89949 0
M  V30 978 H 91.0552 -0.105166 0.74663 0
M  V30 979 H 93.7062 0.443429 1.78062 0
M  V30 980 H 92.0882 -1.30915 3.73734 0
M  V30 981 H 93.2622 1.4804 4.36372 0
M  V30 982 H 91.5772 1.18698 3.99124 0
M  V30 983 H 94.1742 -1.3277 5.17954 0
M  V30 984 H 94.5172 -2.04656 3.62521 0
M  V30 985 H 95.0502 -0.381038 3.95971 0
M  V30 986 H 91.7892 1.33481 6.41766 0
M  V30 987 H 91.3092 -0.323336 5.98928 0
M  V30 988 H 92.9882 0.0263105 6.46995 0
M  V30 989 N 93.1203 -1.57491 0.0584922 0
M  V30 990 C 94.3693 -1.92155 -0.613146 0
M  V30 991 C 94.6823 -0.939334 -1.71569 0
M  V30 992 O 95.8883 -1.17829 -2.44599 0
M  V30 993 C 94.3443 -3.41303 -1.14195 0
M  V30 994 C 93.9523 -4.47944 -0.0711265 0
M  V30 995 C 95.6963 -3.84988 -1.78841 0
M  V30 996 C 93.6033 -5.88212 -0.613225 0
M  V30 997 H 92.5333 -0.717162 -0.232796 0
M  V30 998 H 95.1843 -1.83049 0.12857 0
M  V30 999 H 93.5663 -3.45437 -1.93621 0
M  V30 1000 H 94.7403 -4.55408 0.702836 0
M  V30 1001 H 93.0553 -4.13644 0.478313 0
M  V30 1002 H 95.6523 -4.87159 -2.20408 0
M  V30 1003 H 95.9953 -3.21632 -2.64308 0
M  V30 1004 H 96.5283 -3.83401 -1.06059 0
M  V30 1005 H 93.2673 -6.55183 0.203978 0
M  V30 1006 H 92.7873 -5.84294 -1.35501 0
M  V30 1007 H 94.4663 -6.37687 -1.09383 0
M  V30 1008 N 94.5984 0.214957 -1.56127 0
M  V30 1009 C 95.5284 1.2695 -1.95974 0
M  V30 1010 C 96.5094 1.48539 -0.828868 0
M  V30 1011 O 97.6944 1.60611 -1.09168 0
M  V30 1012 C 94.8244 2.61794 -2.28214 0
M  V30 1013 C 93.7784 2.54851 -3.43853 0
M  V30 1014 C 93.1044 3.93785 -3.61715 0
M  V30 1015 C 94.4044 2.09065 -4.78632 0
M  V30 1016 H 96.0984 0.93846 -2.84312 0
M  V30 1017 H 93.6444 0.449996 -1.36788 0
M  V30 1018 H 95.5974 3.35731 -2.54682 0
M  V30 1019 H 94.3214 2.96599 -1.36736 0
M  V30 1020 H 92.9804 1.8337 -3.17444 0
M  V30 1021 H 92.6284 4.25908 -2.67602 0
M  V30 1022 H 92.3284 3.90019 -4.39498 0
M  V30 1023 H 93.8524 4.69374 -3.90539 0
M  V30 1024 H 95.2664 2.7275 -5.04262 0
M  V30 1025 H 93.6634 2.16346 -5.59745 0
M  V30 1026 H 94.7334 1.04315 -4.73547 0
M  V30 1027 N 96.0765 1.50051 0.48192 0
M  V30 1028 C 97.0395 1.67584 1.5636 0
M  V30 1029 C 98.0395 0.546894 1.51214 0
M  V30 1030 O 99.2295 0.813725 1.54026 0
M  V30 1031 C 96.3615 1.691 2.96003 0
M  V30 1032 H 97.5545 2.64078 1.42136 0
M  V30 1033 H 95.1075 1.39369 0.707533 0
M  V30 1034 H 95.8425 0.742589 3.15684 0
M  V30 1035 H 95.6275 2.51105 3.01146 0
M  V30 1036 H 97.1175 1.84656 3.74556 0
M  V30 1037 N 97.5546 -0.734337 1.39446 0
M  V30 1038 C 98.8006 -1.49613 1.36908 0
M  V30 1039 C 99.1336 -1.94169 -0.0347829 0
M  V30 1040 O 98.4086 -1.66833 -0.999847 0
M  V30 1041 C 98.6916 -2.73534 2.34203 0
M  V30 1042 C 98.5446 -2.34993 3.83534 0
M  V30 1043 C 99.8636 -3.75635 2.29317 0
M  V30 1044 H 96.9826 -0.542714 0.498629 0
M  V30 1045 H 99.6246 -0.839597 1.70443 0
M  V30 1046 H 97.7746 -3.29553 2.05736 0
M  V30 1047 H 99.4466 -1.84601 4.22753 0
M  V30 1048 H 97.6896 -1.67213 4.00278 0
M  V30 1049 H 98.3606 -3.23738 4.47099 0
M  V30 1050 H 100.837 -3.29203 2.54489 0
M  V30 1051 H 99.7126 -4.60008 2.99472 0
M  V30 1052 H 99.9736 -4.22603 1.29842 0
M  V30 1053 N 99.0327 -1.24633 -0.964593 0
M  V30 1054 C 99.9807 -1.03917 -2.08096 0
M  V30 1055 C 100.975 0.0268581 -1.69379 0
M  V30 1056 O 102.181 -0.127952 -1.79545 0
M  V30 1057 H 98.5557 -0.319044 -0.680966 0
M  V30 1058 H 100.527 -1.98581 -2.22729 0
M  V30 1059 C 99.2757 -0.663983 -3.41301 0
M  V30 1060 H 98.5987 -1.47605 -3.71555 0
M  V30 1061 H 100.039 -0.558663 -4.20303 0
M  V30 1062 C 98.4977 0.629169 -3.30973 0
M  V30 1063 O 99.0277 1.67404 -3.65156 0
M  V30 1064 N 97.2337 0.611057 -2.84103 0
M  V30 1065 H 96.7807 -0.239593 -2.56483 0
M  V30 1066 H 96.7387 1.47647 -2.77575 0
M  V30 1067 N 100.511 1.16574 -1.06058 0
M  V30 1068 C 101.759 1.86677 -0.77434 0
M  V30 1069 C 102.08 1.81959 0.701147 0
M  V30 1070 O 101.35 1.2515 1.50713 0
M  V30 1071 H 99.9298 0.691134 -0.283449 0
M  V30 1072 H 102.592 1.41378 -1.34158 0
M  V30 1073 H 101.688 2.92181 -1.09711 0
M  V30 1074 N 101.989 0.842826 1.3317 0
M  V30 1075 C 103.405 0.531128 1.50503 0
M  V30 1076 C 103.605 -0.940734 1.78192 0
M  V30 1077 O 102.661 -1.72436 1.84451 0
M  V30 1078 C 103.974 1.40789 2.65705 0
M  V30 1079 C 105.522 1.40708 2.79589 0
M  V30 1080 C 105.997 2.26878 3.97857 0
M  V30 1081 N 107.488 2.24609 4.05099 0
M  V30 1082 C 108.223 2.88019 4.95815 0
M  V30 1083 N 107.719 3.60496 5.9162 0
M  V30 1084 N 109.512 2.77469 4.88843 0
M  V30 1085 H 101.663 1.79557 1.1346 0
M  V30 1086 H 103.926 0.766267 0.558156 0
M  V30 1087 H 103.632 2.454 2.51936 0
M  V30 1088 H 103.506 1.08677 3.61205 0
M  V30 1089 H 105.893 0.368668 2.92788 0
M  V30 1090 H 105.974 1.76829 1.84838 0
M  V30 1091 H 105.618 3.3078 3.85418 0
M  V30 1092 H 105.548 1.88096 4.91861 0
M  V30 1093 H 108.039 1.71906 3.36536 0
M  V30 1094 H 108.352 4.06076 6.57512 0
M  V30 1095 H 106.697 3.64604 5.91683 0
M  V30 1096 H 109.888 2.20406 4.12963 0
M  V30 1097 H 110.061 3.2717 5.59342 0
M  V30 1098 N 103.467 -1.45747 0.599634 0
M  V30 1099 C 104.878 -1.85853 0.177681 0
M  V30 1100 C 105.229 -1.50102 -1.26348 0
M  V30 1101 O 104.354 -0.923905 -1.95686 0
M  V30 1102 C 104.949 -3.37326 0.315688 0
M  V30 1103 C 103.508 -3.76365 -0.0515144 0
M  V30 1104 C 102.655 -2.69722 0.643822 0
M  V30 1105 H 105.606 -1.36661 0.806814 0
M  V30 1106 H 105.627 -3.77778 -0.454321 0
M  V30 1107 H 105.139 -3.63315 1.36468 0
M  V30 1108 H 103.24 -3.55993 -1.09999 0
M  V30 1109 H 103.353 -4.77916 0.336594 0
M  V30 1110 H 101.717 -2.54567 0.0822881 0
M  V30 1111 H 102.5 -2.98549 1.6948 0
M  V30 1112 N 104.945 -0.338344 -1.53925 0
M  V30 1113 C 105.875 0.51328 -2.27789 0
M  V30 1114 C 106.856 1.107 -1.29149 0
M  V30 1115 O 108.041 1.12937 -1.57984 0
M  V30 1116 C 105.171 1.66697 -3.04679 0
M  V30 1117 C 104.125 1.20183 -4.1078 0
M  V30 1118 C 103.451 2.44363 -4.75595 0
M  V30 1119 C 104.751 0.30605 -5.21403 0
M  V30 1120 H 106.445 -0.102883 -2.99223 0
M  V30 1121 H 103.991 -0.0509219 -1.4391 0
M  V30 1122 H 105.944 2.26915 -3.55088 0
M  V30 1123 H 104.668 2.30995 -2.30887 0
M  V30 1124 H 103.327 0.622499 -3.61276 0
M  V30 1125 H 102.975 3.07057 -3.98403 0
M  V30 1126 H 102.675 2.13925 -5.47275 0
M  V30 1127 H 104.199 3.05317 -5.28786 0
M  V30 1128 H 105.613 0.814929 -5.67478 0
M  V30 1129 H 104.01 0.0937929 -6.00027 0
M  V30 1130 H 105.08 -0.65921 -4.80398 0
M  V30 1131 N 106.423 1.57458 -0.0668435 0
M  V30 1132 C 107.669 1.93587 0.6043 0
M  V30 1133 C 108.002 0.946722 1.69561 0
M  V30 1134 O 107.277 -0.0248516 1.94484 0
M  V30 1135 C 107.56 3.40014 1.18585 0
M  V30 1136 C 107.413 4.49685 0.101529 0
M  V30 1137 C 108.732 3.87154 2.09284 0
M  V30 1138 H 105.851 0.703958 0.218202 0
M  V30 1139 H 108.493 1.89542 -0.131804 0
M  V30 1140 H 106.643 3.43592 1.81319 0
M  V30 1141 H 108.315 4.5823 -0.531279 0
M  V30 1142 H 106.558 4.30059 -0.568487 0
M  V30 1143 H 107.229 5.49266 0.54874 0
M  V30 1144 H 109.705 3.85551 1.56491 0
M  V30 1145 H 108.581 4.90231 2.46911 0
M  V30 1146 H 108.842 3.2481 2.99918 0
M  V30 1147 N 107.901 -0.206675 1.56239 0
M  V30 1148 C 109.178 -0.954051 1.70755 0
M  V30 1149 C 109.558 -2.01841 0.618353 0
M  V30 1150 O 108.906 -2.25444 -0.372434 0
M  V30 1151 C 109.116 -1.551 3.12642 0
M  V30 1152 C 110.464 -2.03757 3.72516 0
M  V30 1153 O 111.488 -1.64965 3.15698 0
M  V30 1154 O 110.347 -2.75103 4.72208 0
M  V30 1155 H 107.441 -0.446636 0.696021 0
M  V30 1156 H 109.987 -0.197283 1.68549 0
M  V30 1157 H 108.759 -0.783212 3.83382 0
M  V30 1158 H 108.382 -2.37291 3.19028 0
M  V30 1159 N 109.379 -1.50304 -0.473955 0
M  V30 1160 C 110.309 -1.71886 -1.58042 0
M  V30 1161 C 111.29 -0.567799 -1.60344 0
M  V30 1162 O 112.475 -0.806623 -1.76656 0
M  V30 1163 C 109.605 -1.81036 -2.96384 0
M  V30 1164 C 108.559 -2.962 -3.08949 0
M  V30 1165 C 107.885 -2.9049 -4.48909 0
M  V30 1166 C 109.185 -4.36752 -2.86434 0
M  V30 1167 H 110.879 -2.64527 -1.40234 0
M  V30 1168 H 108.425 -1.27295 -0.673201 0
M  V30 1169 H 110.378 -1.94719 -3.73714 0
M  V30 1170 H 109.102 -0.850147 -3.15341 0
M  V30 1171 H 107.761 -2.82164 -2.3405 0
M  V30 1172 H 107.409 -1.92321 -4.64781 0
M  V30 1173 H 107.109 -3.67802 -4.58253 0
M  V30 1174 H 108.633 -3.06218 -5.28264 0
M  V30 1175 H 110.047 -4.5133 -3.53517 0
M  V30 1176 H 108.444 -5.15493 -3.07225 0
M  V30 1177 H 109.514 -4.49321 -1.82316 0
M  V30 1178 N 110.857 0.726932 -1.39834 0
M  V30 1179 C 112.082 1.52121 -1.40976 0
M  V30 1180 C 112.507 1.88098 -0.00826029 0
M  V30 1181 O 111.865 1.52479 0.980807 0
M  V30 1182 C 111.913 2.78021 -2.29644 0
M  V30 1183 O 111.017 3.74272 -1.73188 0
M  V30 1184 H 110.358 0.45908 -0.479731 0
M  V30 1185 H 112.888 0.896207 -1.83927 0
M  V30 1186 H 112.898 3.26671 -2.44438 0
M  V30 1187 H 111.573 2.51169 -3.31492 0
M  V30 1188 H 110.15 3.33073 -1.6768 0
M  V30 1189 N 112.336 1.25143 0.95797 0
M  V30 1190 C 113.566 1.12261 1.73439 0
M  V30 1191 C 113.974 -0.326715 1.86358 0
M  V30 1192 O 113.317 -1.2367 1.35836 0
M  V30 1193 C 113.379 1.69966 3.16784 0
M  V30 1194 C 113.043 3.18936 3.27305 0
M  V30 1195 C 114.04 4.15968 3.11877 0
M  V30 1196 C 111.725 3.59083 3.51234 0
M  V30 1197 C 113.719 5.51126 3.20217 0
M  V30 1198 C 111.406 4.9438 3.5921 0
M  V30 1199 C 112.404 5.90211 3.43716 0
M  V30 1200 O 112.092 7.23046 3.51368 0
M  V30 1201 H 111.824 0.392476 0.550399 0
M  V30 1202 H 114.378 1.65927 1.21068 0
M  V30 1203 H 112.608 1.10744 3.70503 0
M  V30 1204 H 114.297 1.52232 3.76272 0
M  V30 1205 H 115.063 3.86292 2.93264 0
M  V30 1206 H 110.942 2.84989 3.62356 0
M  V30 1207 H 114.486 6.25905 3.0804 0
M  V30 1208 H 110.383 5.23723 3.77339 0
M  V30 1209 H 111.151 7.31097 3.6802 0
M  V30 1210 N 113.814 -1.1601 1.06675 0
M  V30 1211 C 115.091 -1.82679 0.699114 0
M  V30 1212 C 115.471 -1.94559 -0.819137 0
M  V30 1213 O 114.819 -1.49169 -1.73092 0
M  V30 1214 C 115.029 -3.19445 1.40555 0
M  V30 1215 C 116.377 -3.95171 1.55323 0
M  V30 1216 O 117.401 -3.28976 1.36577 0
M  V30 1217 O 116.26 -5.13833 1.86112 0
M  V30 1218 H 113.354 -0.788954 0.247951 0
M  V30 1219 H 115.9 -1.23179 1.16726 0
M  V30 1220 H 114.672 -3.05856 2.44065 0
M  V30 1221 H 114.295 -3.86625 0.927733 0
M  V30 1222 N 115.292 -0.849877 -1.32721 0
M  V30 1223 C 116.517 -0.463856 -2.02146 0
M  V30 1224 C 116.942 0.930449 -1.63476 0
M  V30 1225 O 116.3 1.61033 -0.832952 0
M  V30 1226 C 116.348 -0.604955 -3.55489 0
M  V30 1227 O 115.452 0.36425 -4.10788 0
M  V30 1228 H 114.793 -0.187046 -0.637111 0
M  V30 1229 H 117.323 -1.14775 -1.69375 0
M  V30 1230 H 117.333 -0.490696 -4.05038 0
M  V30 1231 H 116.008 -1.62174 -3.82978 0
M  V30 1232 H 114.585 0.206628 -3.72327 0
M  V30 1233 N 116.77 1.45427 -0.607355 0
M  V30 1234 C 117.733 2.28974 0.101693 0
M  V30 1235 C 118.733 1.39754 0.795329 0
M  V30 1236 O 119.923 1.61878 0.643527 0
M  V30 1237 C 117.055 3.20768 1.15414 0
M  V30 1238 H 118.248 2.93147 -0.632844 0
M  V30 1239 H 115.801 1.51945 -0.366391 0
M  V30 1240 H 116.536 2.61395 1.91945 0
M  V30 1241 H 116.321 3.86489 0.66098 0
M  V30 1242 H 117.811 3.83589 1.65073 0
M  V30 1243 N 118.248 0.346503 1.53744 0
M  V30 1244 C 119.178 -0.501193 2.28058 0
M  V30 1245 C 120.159 -1.10014 1.29734 0
M  V30 1246 O 121.344 -1.12097 1.58581 0
M  V30 1247 C 118.474 -1.65078 3.05559 0
M  V30 1248 C 117.428 -1.18003 4.11411 0
M  V30 1249 C 116.754 -2.41837 4.76884 0
M  V30 1250 C 118.054 -0.278394 5.21558 0
M  V30 1251 H 119.748 0.11875 2.99164 0
M  V30 1252 H 117.294 0.0585531 1.43881 0
M  V30 1253 H 119.247 -2.25028 3.56287 0
M  V30 1254 H 117.971 -2.29767 2.32109 0
M  V30 1255 H 116.63 -0.603331 3.61601 0
M  V30 1256 H 116.278 -3.0494 4.00026 0
M  V30 1257 H 115.978 -2.1102 5.48402 0
M  V30 1258 H 117.502 -3.02508 5.30397 0
M  V30 1259 H 118.916 -0.784823 5.67903 0
M  V30 1260 H 117.313 -0.0619707 6.00068 0
M  V30 1261 H 118.383 0.684677 4.80042 0
M  V30 1262 N 119.726 -1.57421 0.075193 0
M  V30 1263 C 120.636 -2.1642 -0.905511 0
M  V30 1264 C 121.652 -1.12828 -1.32461 0
M  V30 1265 O 122.828 -1.45109 -1.39661 0
M  V30 1266 C 119.893 -2.71693 -2.15369 0
M  V30 1267 C 118.954 -3.90171 -1.79068 0
M  V30 1268 C 118.187 -4.42798 -2.97936 0
M  V30 1269 O 118.41 -3.94416 -4.12058 0
M  V30 1270 O 117.344 -5.34085 -2.77555 0
M  V30 1271 H 121.17 -3.00588 -0.433626 0
M  V30 1272 H 118.755 -1.48664 -0.148067 0
M  V30 1273 H 120.637 -3.07104 -2.88557 0
M  V30 1274 H 119.312 -1.90582 -2.61649 0
M  V30 1275 H 118.219 -3.59606 -1.03122 0
M  V30 1276 H 119.552 -4.72584 -1.37569 0
M  V30 1277 N 121.204 0.198386 -1.56346 0
M  V30 1278 C 122.45 0.920648 -1.80698 0
M  V30 1279 C 122.783 1.83045 -0.648697 0
M  V30 1280 O 122.058 1.91308 0.350925 0
M  V30 1281 C 122.341 1.73971 -3.15287 0
M  V30 1282 C 122.194 0.85485 -4.41602 0
M  V30 1283 C 123.513 2.71296 -3.46535 0
M  V30 1284 H 120.632 0.333261 -0.657348 0
M  V30 1285 H 123.274 0.188198 -1.89066 0
M  V30 1286 H 121.424 2.36416 -3.08285 0
M  V30 1287 H 123.096 0.245362 -4.60647 0
M  V30 1288 H 121.339 0.161398 -4.335 0
M  V30 1289 H 122.01 1.46286 -5.32264 0
M  V30 1290 H 124.486 2.18983 -3.53816 0
M  V30 1291 H 123.362 3.2569 -4.41834 0
M  V30 1292 H 123.623 3.5018 -2.69864 0
M  V30 1293 N 122.682 1.50554 0.465978 0
M  V30 1294 C 123.612 1.72722 1.57128 0
M  V30 1295 C 124.593 0.576294 1.6004 0
M  V30 1296 O 125.778 0.81598 1.76225 0
M  V30 1297 C 122.908 1.82605 2.95419 0
M  V30 1298 C 121.862 2.97835 3.07373 0
M  V30 1299 C 121.188 2.92867 4.47363 0
M  V30 1300 C 122.488 4.38265 2.84114 0
M  V30 1301 H 124.182 2.65267 1.38829 0
M  V30 1302 H 121.728 1.2765 0.666441 0
M  V30 1303 H 123.681 1.96698 3.72677 0
M  V30 1304 H 122.405 0.866858 3.14886 0
M  V30 1305 H 121.064 2.83401 2.3255 0
M  V30 1306 H 120.712 1.94783 4.63755 0
M  V30 1307 H 120.412 3.70227 4.56296 0
M  V30 1308 H 121.936 3.09015 5.26633 0
M  V30 1309 H 123.35 4.53198 3.51118 0
M  V30 1310 H 121.747 5.17115 3.04487 0
M  V30 1311 H 122.817 4.50281 1.7993 0
M  V30 1312 N 124.16 -0.719506 1.40217 0
M  V30 1313 C 125.576 -1.02707 1.22161 0
M  V30 1314 C 125.776 -2.0128 0.0940557 0
M  V30 1315 O 124.832 -2.46452 -0.549318 0
M  V30 1316 C 126.145 -1.57454 2.56181 0
M  V30 1317 C 127.693 -1.69458 2.63159 0
M  V30 1318 C 128.168 -2.27611 3.97438 0
M  V30 1319 N 129.659 -2.35002 3.99159 0
M  V30 1320 C 130.394 -2.80972 4.99842 0
M  V30 1321 N 129.89 -3.26723 6.10921 0
M  V30 1322 N 131.683 -2.80321 4.87213 0
M  V30 1323 H 123.834 -0.0660492 2.12297 0
M  V30 1324 H 126.097 -0.0919077 0.943534 0
M  V30 1325 H 125.803 -0.924873 3.39321 0
M  V30 1326 H 125.677 -2.56036 2.76993 0
M  V30 1327 H 128.064 -2.33543 1.80393 0
M  V30 1328 H 128.145 -0.694867 2.46181 0
M  V30 1329 H 127.789 -1.6415 4.80643 0
M  V30 1330 H 127.719 -3.2829 4.11744 0
M  V30 1331 H 130.21 -2.02685 3.18947 0
M  V30 1332 H 130.523 -3.60355 6.8364 0
M  V30 1333 H 128.868 -3.24692 6.14492 0
M  V30 1334 H 132.059 -2.43912 3.9953 0
M  V30 1335 H 132.232 -3.15831 5.65822 0
M  V30 1336 N 125.638 -1.25649 -0.95132 0
M  V30 1337 C 126.886 -1.10375 -1.69298 0
M  V30 1338 C 127.207 0.355339 -1.91735 0
M  V30 1339 O 126.477 1.25188 -1.50681 0
M  V30 1340 H 125.057 -0.405461 -0.627384 0
M  V30 1341 H 127.719 -1.57823 -1.14358 0
M  V30 1342 H 126.815 -1.61465 -2.67087 0
M  V30 1343 N 127.117 1.15442 -1.07289 0
M  V30 1344 C 128.366 1.85557 -0.790669 0
M  V30 1345 C 128.679 1.83186 0.685739 0
M  V30 1346 O 129.885 2.48977 1.0827 0
M  V30 1347 C 128.341 3.33038 -1.36433 0
M  V30 1348 C 127.949 3.43856 -2.8717 0
M  V30 1349 C 129.693 4.0834 -1.1601 0
M  V30 1350 C 127.6 4.85482 -3.3773 0
M  V30 1351 H 126.53 0.695122 -0.292098 0
M  V30 1352 H 129.181 1.30219 -1.29287 0
M  V30 1353 H 127.563 3.88043 -0.789864 0
M  V30 1354 H 128.737 2.98961 -3.50655 0
M  V30 1355 H 127.052 2.81998 -3.06376 0
M  V30 1356 H 129.649 5.12859 -1.51262 0
M  V30 1357 H 129.992 4.16182 -0.0991007 0
M  V30 1358 H 130.525 3.59603 -1.70089 0
M  V30 1359 H 127.264 4.82823 -4.43353 0
M  V30 1360 H 126.784 5.30961 -2.78999 0
M  V30 1361 H 128.463 5.54335 -3.33648 0
M  V30 1362 N 128.595 0.856903 1.32268 0
M  V30 1363 C 129.558 0.308171 2.27119 0
M  V30 1364 C 130.558 -0.533421 1.51695 0
M  V30 1365 O 131.748 -0.344607 1.70757 0
M  V30 1366 C 128.88 -0.563757 3.36206 0
M  V30 1367 H 130.073 1.14535 2.77167 0
M  V30 1368 H 127.626 0.631421 1.42978 0
M  V30 1369 H 128.361 -1.42266 2.91429 0
M  V30 1370 H 128.146 0.0386749 3.92081 0
M  V30 1371 H 129.636 -0.940386 4.06874 0
M  V30 1372 N 130.073 -1.45103 0.615059 0
M  V30 1373 C 131.298 -2.07064 0.117988 0
M  V30 1374 C 131.723 -1.4554 -1.19163 0
M  V30 1375 O 131.081 -0.550855 -1.72729 0
M  V30 1376 C 131.129 -3.606 -0.000288387 0
M  V30 1377 O 130.233 -3.98847 -1.04856 0
M  V30 1378 H 129.574 -0.659467 0.0774581 0
M  V30 1379 H 132.104 -1.86236 0.847186 0
M  V30 1380 H 132.114 -4.07529 -0.196091 0
M  V30 1381 H 130.789 -4.04765 0.955932 0
M  V30 1382 H 129.366 -3.63577 -0.828619 0
M  V30 1383 N 131.551 -0.354651 -1.53558 0
M  V30 1384 C 132.461 0.50515 -2.29097 0
M  V30 1385 C 133.477 1.10223 -1.34636 0
M  V30 1386 O 134.653 1.11553 -1.67684 0
M  V30 1387 C 131.718 1.63479 -3.05738 0
M  V30 1388 C 130.779 1.06636 -4.15845 0
M  V30 1389 C 130.012 2.14217 -4.88822 0
M  V30 1390 O 130.235 3.35137 -4.61562 0
M  V30 1391 O 129.169 1.77887 -5.75013 0
M  V30 1392 H 132.995 -0.109237 -3.03503 0
M  V30 1393 H 130.58 -0.119357 -1.48922 0
M  V30 1394 H 132.462 2.2918 -3.5363 0
M  V30 1395 H 131.137 2.23478 -2.34178 0
M  V30 1396 H 130.044 0.373565 -3.7223 0
M  V30 1397 H 131.377 0.511081 -4.89539 0
M  V30 1398 N 133.029 1.57378 -0.0835403 0
M  V30 1399 C 134.257 1.98263 0.59157 0
M  V30 1400 C 134.672 0.962302 1.62435 0
M  V30 1401 O 134.029 -0.049581 1.82433 0
M  V30 1402 C 134.08 3.39214 1.24965 0
M  V30 1403 O 133.801 4.37339 0.258186 0
M  V30 1404 C 135.302 3.95038 2.01147 0
M  V30 1405 H 132.522 0.651773 0.159477 0
M  V30 1406 H 135.066 2.03878 -0.159415 0
M  V30 1407 H 133.221 3.34649 1.95164 0
M  V30 1408 H 133.635 5.19371 0.731734 0
M  V30 1409 H 135.109 4.95848 2.42567 0
M  V30 1410 H 135.586 3.32222 2.87272 0
M  V30 1411 H 136.192 4.0304 1.35789 0
M  V30 1412 N 134.507 -0.190092 1.56449 0
M  V30 1413 C 135.457 -1.23977 1.91347 0
M  V30 1414 C 136.441 -1.40747 0.779693 0
M  V30 1415 O 137.633 -1.43033 1.04262 0
M  V30 1416 C 134.762 -2.58347 2.26079 0
M  V30 1417 C 133.848 -2.4535 3.45925 0
M  V30 1418 N 134.239 -2.02039 4.63696 0
M  V30 1419 C 132.537 -2.76229 3.50162 0
M  V30 1420 C 133.238 -2.01053 5.4585 0
M  V30 1421 N 132.214 -2.42747 4.8639 0
M  V30 1422 H 136.016 -0.896318 2.79899 0
M  V30 1423 H 133.53 -0.398496 1.57435 0
M  V30 1424 H 135.527 -3.34173 2.49267 0
M  V30 1425 H 134.187 -2.93512 1.38856 0
M  V30 1426 H 135.198 -1.7267 4.88268 0
M  V30 1427 H 131.875 -3.15556 2.73369 0
M  V30 1428 H 133.265 -1.69426 6.50188 0
M  V30 1429 N 135.985 -1.50799 -0.457987 0
M  V30 1430 C 137.231 -1.62683 -1.21088 0
M  V30 1431 C 137.564 -0.332268 -1.91336 0
M  V30 1432 O 136.839 0.667043 -1.82704 0
M  V30 1433 C 137.122 -2.81615 -2.24422 0
M  V30 1434 C 136.975 -4.20989 -1.58392 0
M  V30 1435 C 138.294 -2.96085 -3.2561 0
M  V30 1436 H 135.413 -0.592087 -0.438864 0
M  V30 1437 H 138.055 -1.83225 -0.50286 0
M  V30 1438 H 136.205 -2.64231 -2.84806 0
M  V30 1439 H 137.877 -4.49994 -1.01504 0
M  V30 1440 H 136.12 -4.24641 -0.886704 0
M  V30 1441 H 136.791 -5.0016 -2.33547 0
M  V30 1442 H 139.267 -3.12042 -2.75262 0
M  V30 1443 H 138.143 -3.80902 -3.95228 0
M  V30 1444 H 138.404 -2.0726 -3.90507 0
M  V30 1445 N 137.463 0.71206 -1.40597 0
M  V30 1446 C 138.709 1.47416 -1.39271 0
M  V30 1447 C 139.042 1.942 0.00388791 0
M  V30 1448 O 138.317 1.68403 0.973179 0
M  V30 1449 C 138.6 2.69774 -2.38525 0
M  V30 1450 C 138.453 2.28861 -3.87224 0
M  V30 1451 C 139.772 3.71939 -2.35264 0
M  V30 1452 H 136.891 0.534713 -0.5072 0
M  V30 1453 H 139.533 0.812375 -1.71757 0
M  V30 1454 H 137.683 3.26238 -2.10953 0
M  V30 1455 H 139.355 1.77852 -4.25636 0
M  V30 1456 H 137.598 1.60824 -4.02887 0
M  V30 1457 H 138.269 3.16584 -4.52193 0
M  V30 1458 H 140.745 3.25113 -2.59694 0
M  V30 1459 H 139.621 4.55186 -3.06753 0
M  V30 1460 H 139.882 4.20484 -1.36549 0
M  V30 1461 N 138.941 1.26152 0.944643 0
M  V30 1462 C 139.871 1.09902 2.06019 0
M  V30 1463 C 140.852 0.00519538 1.70099 0
M  V30 1464 O 142.037 0.176583 1.93396 0
M  V30 1465 C 139.167 0.727562 3.39594 0
M  V30 1466 C 138.121 1.77274 3.89561 0
M  V30 1467 C 137.447 1.25569 5.19747 0
M  V30 1468 C 138.747 3.17357 4.14827 0
M  V30 1469 H 140.441 2.03217 2.19871 0
M  V30 1470 H 137.987 0.978452 1.05652 0
M  V30 1471 H 139.94 0.600777 4.17095 0
M  V30 1472 H 138.664 -0.241287 3.25707 0
M  V30 1473 H 137.323 1.88814 3.14237 0
M  V30 1474 H 136.971 0.276783 5.02238 0
M  V30 1475 H 136.671 1.95433 5.54148 0
M  V30 1476 H 138.195 1.1415 5.99835 0
M  V30 1477 H 139.609 3.08914 4.82954 0
M  V30 1478 H 138.006 3.84781 4.60504 0
M  V30 1479 H 139.076 3.63673 3.20734 0
M  V30 1480 N 140.419 -1.14872 1.07899 0
M  V30 1481 C 141.668 -1.85135 0.800499 0
M  V30 1482 C 141.981 -1.83547 -0.676014 0
M  V30 1483 O 143.187 -2.49548 -1.06948 0
M  V30 1484 C 141.643 -3.3231 1.38197 0
M  V30 1485 C 141.251 -3.42329 2.8899 0
M  V30 1486 C 142.995 -4.0772 1.18174 0
M  V30 1487 C 140.902 -4.83684 3.403 0
M  V30 1488 H 139.832 -0.693563 0.29578 0
M  V30 1489 H 142.483 -1.29532 1.29976 0
M  V30 1490 H 140.865 -3.87618 0.810431 0
M  V30 1491 H 142.039 -2.97097 3.52236 0
M  V30 1492 H 140.354 -2.80369 3.07867 0
M  V30 1493 H 142.951 -5.12049 1.5398 0
M  V30 1494 H 143.294 -4.16124 0.12117 0
M  V30 1495 H 143.827 -3.58696 1.71994 0
M  V30 1496 H 140.566 -4.80465 4.45907 0
M  V30 1497 H 140.086 -5.29474 2.81811 0
M  V30 1498 H 141.765 -5.52558 3.36584 0
M  V30 1499 N 141.898 -0.863906 -1.31812 0
M  V30 1500 C 142.828 -0.330843 -2.31144 0
M  V30 1501 C 143.809 0.575005 -1.60087 0
M  V30 1502 O 144.994 0.493304 -1.8783 0
M  V30 1503 C 142.124 0.47374 -3.44054 0
M  V30 1504 C 141.078 -0.338481 -4.26659 0
M  V30 1505 C 140.404 0.591412 -5.31419 0
M  V30 1506 C 141.704 -1.56926 -4.98168 0
M  V30 1507 H 143.398 -1.16086 -2.75979 0
M  V30 1508 H 140.944 -0.559657 -1.32679 0
M  V30 1509 H 142.897 0.857143 -4.12591 0
M  V30 1510 H 141.621 1.33721 -2.9797 0
M  V30 1511 H 140.28 -0.703754 -3.59782 0
M  V30 1512 H 139.928 1.45199 -4.81587 0
M  V30 1513 H 139.628 0.0519022 -5.87577 0
M  V30 1514 H 141.152 0.97179 -6.02817 0
M  V30 1515 H 142.566 -1.25764 -5.59336 0
M  V30 1516 H 140.963 -2.04739 -5.64094 0
M  V30 1517 H 142.033 -2.32544 -4.25501 0
M  V30 1518 N 143.376 1.44774 -0.622745 0
M  V30 1519 C 144.792 1.56986 -0.287652 0
M  V30 1520 C 144.992 1.61167 1.20944 0
M  V30 1521 O 144.048 1.55015 1.99315 0
M  V30 1522 C 145.361 2.84551 -0.972188 0
M  V30 1523 C 146.909 2.9825 -0.949536 0
M  V30 1524 C 147.384 4.28605 -1.61437 0
M  V30 1525 N 148.875 4.35399 -1.58057 0
M  V30 1526 C 149.61 5.34964 -2.064 0
M  V30 1527 N 149.106 6.40981 -2.62897 0
M  V30 1528 N 150.899 5.26419 -1.97078 0
M  V30 1529 H 143.05 1.40304 -1.59463 0
M  V30 1530 H 145.313 0.671794 -0.668878 0
M  V30 1531 H 145.019 2.87417 -2.02693 0
M  V30 1532 H 144.893 3.73807 -0.504771 0
M  V30 1533 H 147.28 2.94941 0.0967067 0
M  V30 1534 H 147.361 2.10364 -1.45536 0
M  V30 1535 H 147.005 4.32672 -2.66002 0
M  V30 1536 H 146.935 5.15334 -1.08344 0
M  V30 1537 H 149.426 3.59397 -1.16801 0
M  V30 1538 H 149.739 7.13225 -2.97539 0
M  V30 1539 H 148.084 6.4169 -2.66943 0
M  V30 1540 H 151.275 4.42504 -1.52669 0
M  V30 1541 H 151.448 6.03861 -2.35066 0
M  V30 1542 N 144.854 0.36279 1.53368 0
M  V30 1543 C 146.102 -0.227326 2.00817 0
M  V30 1544 C 146.423 -1.49511 1.25186 0
M  V30 1545 O 145.693 -1.92482 0.364348 0
M  V30 1546 H 144.273 -0.0869923 0.741917 0
M  V30 1547 H 146.935 0.488381 1.88682 0
M  V30 1548 H 146.031 -0.456273 3.08747 0
M  V30 1549 N 146.332 -1.57332 0.0918853 0
M  V30 1550 C 147.743 -1.81496 -0.437739 0
M  V30 1551 C 148.094 -1.00727 -1.6837 0
M  V30 1552 O 147.219 -0.235694 -2.15113 0
M  V30 1553 C 147.814 -3.29197 -0.800939 0
M  V30 1554 C 146.373 -3.54136 -1.27532 0
M  V30 1555 C 145.52 -2.75979 -0.270392 0
M  V30 1556 H 148.471 -1.55494 0.317366 0
M  V30 1557 H 148.492 -3.42344 -1.66074 0
M  V30 1558 H 148.004 -3.87955 0.106078 0
M  V30 1559 H 146.105 -3.00705 -2.20016 0
M  V30 1560 H 146.218 -4.62792 -1.23938 0
M  V30 1561 H 144.582 -2.43349 -0.751872 0
M  V30 1562 H 145.365 -3.37484 0.629248 0
M  V30 1563 N 147.81 0.181792 -1.56548 0
M  V30 1564 C 148.72 1.24538 -1.98815 0
M  V30 1565 C 149.736 1.49045 -0.897861 0
M  V30 1566 O 150.912 1.61399 -1.20467 0
M  V30 1567 C 147.977 2.56683 -2.33055 0
M  V30 1568 C 147.038 2.40131 -3.55859 0
M  V30 1569 C 146.271 3.65975 -3.88456 0
M  V30 1570 O 146.494 4.70711 -3.22161 0
M  V30 1571 O 145.428 3.6071 -4.81842 0
M  V30 1572 H 149.254 0.916647 -2.89536 0
M  V30 1573 H 146.839 0.387842 -1.44278 0
M  V30 1574 H 148.721 3.34655 -2.56094 0
M  V30 1575 H 147.396 2.89157 -1.45498 0
M  V30 1576 H 146.303 1.60226 -3.38051 0
M  V30 1577 H 147.636 2.12585 -4.43924 0
M  V30 1578 N 149.288 1.51039 0.449983 0
M  V30 1579 C 150.536 1.62759 1.19808 0
M  V30 1580 C 150.857 0.339981 1.92013 0
M  V30 1581 O 150.127 -0.643606 1.85026 0
M  V30 1582 H 148.707 0.599811 0.445237 0
M  V30 1583 H 151.369 1.87914 0.517138 0
M  V30 1584 H 150.465 2.44911 1.93455 0
M  V30 1585 N 150.766 -0.704594 1.40972 0
M  V30 1586 C 152.013 -1.46458 1.39844 0
M  V30 1587 C 152.341 -1.94499 0.00447594 0
M  V30 1588 O 151.596 -1.69275 -0.982057 0
M  V30 1589 C 151.895 -2.698 2.34399 0
M  V30 1590 C 151.561 -2.40464 3.81429 0
M  V30 1591 C 150.223 -2.32174 4.21484 0
M  V30 1592 C 152.575 -2.16086 4.74296 0
M  V30 1593 C 149.903 -1.97589 5.52427 0
M  V30 1594 C 152.255 -1.83011 6.05549 0
M  V30 1595 C 150.919 -1.7321 6.44635 0
M  V30 1596 H 150.189 -0.535927 0.511725 0
M  V30 1597 H 152.836 -0.806124 1.73706 0
M  V30 1598 H 151.141 -3.40536 1.93759 0
M  V30 1599 H 152.838 -3.27919 2.30804 0
M  V30 1600 H 149.428 -2.47808 3.49699 0
M  V30 1601 H 153.612 -2.2144 4.4416 0
M  V30 1602 H 148.868 -1.88547 5.81601 0
M  V30 1603 H 153.042 -1.63164 6.77016 0
M  V30 1604 H 150.669 -1.46179 7.46013 0
M  V30 1605 N 152.244 -1.26651 -0.937939 0
M  V30 1606 C 153.472 -1.15173 -1.7188 0
M  V30 1607 C 153.887 0.292668 -1.86518 0
M  V30 1608 O 153.244 1.20014 -1.37488 0
M  V30 1609 C 153.295 -1.81925 -3.12387 0
M  V30 1610 O 153.016 -3.2072 -2.98446 0
M  V30 1611 C 154.517 -1.76442 -4.06673 0
M  V30 1612 H 151.737 -0.400911 -0.538063 0
M  V30 1613 H 154.281 -1.67332 -1.1756 0
M  V30 1614 H 152.436 -1.33696 -3.63599 0
M  V30 1615 H 152.85 -3.53802 -3.872 0
M  V30 1616 H 154.324 -2.27781 -5.02812 0
M  V30 1617 H 154.801 -0.731608 -4.33064 0
M  V30 1618 H 155.407 -2.24238 -3.61382 0
M  V30 1619 N 153.722 1.14298 -1.08507 0
M  V30 1620 C 154.95 1.89219 -0.836876 0
M  V30 1621 C 155.365 1.78638 0.611054 0
M  V30 1622 O 154.722 1.14643 1.41998 0
M  V30 1623 C 154.773 3.39158 -1.25116 0
M  V30 1624 O 154.494 3.49449 -2.64229 0
M  V30 1625 C 155.995 4.31073 -1.03398 0
M  V30 1626 H 153.215 0.599328 -0.301739 0
M  V30 1627 H 155.759 1.44746 -1.44461 0
M  V30 1628 H 153.914 3.81251 -0.687514 0
M  V30 1629 H 154.328 4.42589 -2.81452 0
M  V30 1630 H 155.802 5.34646 -1.37323 0
M  V30 1631 H 156.279 4.3919 0.0289259 0
M  V30 1632 H 156.885 3.94738 -1.58311 0
M  V30 1633 N 155.201 0.870884 1.31352 0
M  V30 1634 C 156.151 0.298889 2.26032 0
M  V30 1635 C 157.135 -0.564595 1.50669 0
M  V30 1636 O 158.327 -0.411323 1.72154 0
M  V30 1637 C 155.456 -0.497842 3.39671 0
M  V30 1638 C 154.542 0.378937 4.22404 0
M  V30 1639 N 154.933 1.47284 4.83881 0
M  V30 1640 C 153.231 0.171535 4.4567 0
M  V30 1641 C 153.932 2.01359 5.45738 0
M  V30 1642 N 152.908 1.31047 5.27568 0
M  V30 1643 H 156.71 1.13494 2.71102 0
M  V30 1644 H 154.224 0.718745 1.45629 0
M  V30 1645 H 156.221 -0.924155 4.06528 0
M  V30 1646 H 154.881 -1.33149 2.96144 0
M  V30 1647 H 155.892 1.85575 4.8351 0
M  V30 1648 H 152.569 -0.626091 4.12779 0
M  V30 1649 H 153.959 2.93143 6.0458 0
M  V30 1650 N 156.679 -1.44442 0.630414 0
M  V30 1651 C 157.609 -2.33418 -0.0618083 0
M  V30 1652 C 158.59 -1.48165 -0.835541 0
M  V30 1653 O 159.775 -1.76886 -0.801564 0
M  V30 1654 C 156.905 -3.31222 -1.04449 0
M  V30 1655 C 155.859 -4.26288 -0.382436 0
M  V30 1656 C 155.185 -5.13954 -1.47497 0
M  V30 1657 C 156.485 -5.1744 0.710865 0
M  V30 1658 H 158.179 -2.91548 0.681184 0
M  V30 1659 H 155.725 -1.40191 0.329026 0
M  V30 1660 H 157.678 -3.92351 -1.53748 0
M  V30 1661 H 156.402 -2.71299 -1.81836 0
M  V30 1662 H 155.061 -3.6649 0.0899054 0
M  V30 1663 H 154.709 -4.50385 -2.2397 0
M  V30 1664 H 154.409 -5.7837 -1.03737 0
M  V30 1665 H 155.933 -5.77955 -1.96979 0
M  V30 1666 H 157.347 -5.72509 0.300996 0
M  V30 1667 H 155.744 -5.90455 1.07156 0
M  V30 1668 H 156.814 -4.58496 1.57829 0
M  V30 1669 N 158.157 -0.370918 -1.53173 0
M  V30 1670 C 159.067 0.480823 -2.2962 0
M  V30 1671 C 160.083 1.08789 -1.35798 0
M  V30 1672 O 161.259 1.09768 -1.68858 0
M  V30 1673 C 158.324 1.60227 -3.07454 0
M  V30 1674 C 157.385 1.0222 -4.16953 0
M  V30 1675 C 156.618 2.0902 -4.91066 0
M  V30 1676 O 156.841 3.30222 -4.65091 0
M  V30 1677 O 155.775 1.71778 -5.76867 0
M  V30 1678 H 159.601 -0.141421 -3.03371 0
M  V30 1679 H 157.186 -0.135146 -1.48787 0
M  V30 1680 H 159.068 2.25417 -3.56041 0
M  V30 1681 H 157.743 2.20982 -2.36535 0
M  V30 1682 H 156.65 0.334064 -3.72605 0
M  V30 1683 H 157.983 0.459131 -4.90054 0
M  V30 1684 N 159.635 1.57281 -0.100228 0
M  V30 1685 C 160.863 1.98879 0.570509 0
M  V30 1686 C 161.278 0.979476 1.61405 0
M  V30 1687 O 160.635 -0.0302288 1.82475 0
M  V30 1688 C 160.686 3.4052 1.2136 0
M  V30 1689 O 160.407 4.37588 0.211786 0
M  V30 1690 C 161.908 3.97149 1.96945 0
M  V30 1691 H 159.128 0.653428 0.152555 0
M  V30 1692 H 161.672 2.03697 -0.18103 0
M  V30 1693 H 159.827 3.367 1.91603 0
M  V30 1694 H 160.241 5.20118 0.676607 0
M  V30 1695 H 161.715 4.98393 2.37294 0
M  V30 1696 H 162.192 3.3525 2.83733 0
M  V30 1697 H 162.798 4.04458 1.31506 0
M  V30 1698 N 161.113 -0.173488 1.56642 0
M  V30 1699 C 162.341 -0.906095 1.86004 0
M  V30 1700 C 162.756 -1.75921 0.685355 0
M  V30 1701 O 162.113 -1.79198 -0.345578 0
M  V30 1702 C 162.164 -1.78462 3.14378 0
M  V30 1703 O 161.885 -0.965914 4.27319 0
M  V30 1704 C 163.386 -2.62707 3.57071 0
M  V30 1705 H 160.606 -0.263341 0.617165 0
M  V30 1706 H 163.15 -0.174236 2.03756 0
M  V30 1707 H 161.305 -2.46984 2.98459 0
M  V30 1708 H 161.719 -1.56655 5.00559 0
M  V30 1709 H 163.193 -3.19969 4.49804 0
M  V30 1710 H 163.67 -3.37472 2.81086 0
M  V30 1711 H 164.276 -1.99521 3.75595 0
M  V30 1712 N 162.591 -1.51276 -0.441967 0
M  V30 1713 C 163.838 -1.63715 -1.19179 0
M  V30 1714 C 164.166 -0.351175 -1.91303 0
M  V30 1715 O 163.421 0.664524 -1.84072 0
M  V30 1716 C 163.72 -2.78746 -2.23686 0
M  V30 1717 C 163.386 -4.18189 -1.68607 0
M  V30 1718 C 162.048 -4.56125 -1.53308 0
M  V30 1719 C 164.4 -5.05222 -1.28062 0
M  V30 1720 C 161.728 -5.78804 -0.959317 0
M  V30 1721 C 164.08 -6.28476 -0.721162 0
M  V30 1722 C 162.744 -6.65188 -0.55504 0
M  V30 1723 H 162.014 -0.599076 -0.436106 0
M  V30 1724 H 164.661 -1.85296 -0.48351 0
M  V30 1725 H 162.966 -2.51369 -3.00535 0
M  V30 1726 H 164.663 -2.8557 -2.81515 0
M  V30 1727 H 161.253 -3.88277 -1.8149 0
M  V30 1728 H 165.437 -4.76524 -1.38704 0
M  V30 1729 H 160.693 -6.05899 -0.81833 0
M  V30 1730 H 164.867 -6.95259 -0.398458 0
M  V30 1731 H 162.494 -7.60123 -0.108311 0
M  V30 1732 N 164.069 0.697108 -1.41344 0
M  V30 1733 C 165.297 1.48593 -1.43972 0
M  V30 1734 C 165.712 1.88747 -0.0445612 0
M  V30 1735 O 165.069 1.56682 0.935785 0
M  V30 1736 C 165.12 2.74946 -2.34706 0
M  V30 1737 O 164.841 2.36484 -3.68791 0
M  V30 1738 C 166.342 3.687 -2.46121 0
M  V30 1739 H 163.562 0.457964 -0.490418 0
M  V30 1740 H 166.106 0.858429 -1.8561 0
M  V30 1741 H 164.261 3.33937 -1.9638 0
M  V30 1742 H 164.675 3.17918 -4.17167 0
M  V30 1743 H 166.149 4.54145 -3.13777 0
M  V30 1744 H 166.626 4.13081 -1.49199 0
M  V30 1745 H 167.232 3.15613 -2.85076 0
M  V30 1746 N 165.547 1.27147 0.931209 0
M  V30 1747 C 166.795 1.13055 1.6752 0
M  V30 1748 C 167.116 -0.324791 1.92276 0
M  V30 1749 O 166.386 -1.22775 1.52654 0
M  V30 1750 H 164.966 0.415391 0.620854 0
M  V30 1751 H 167.628 1.59623 1.11833 0
M  V30 1752 H 166.724 1.65694 2.64485 0
M  V30 1753 N 167.025 -1.13721 1.09112 0
M  V30 1754 C 168.302 -1.81155 0.737706 0
M  V30 1755 C 168.682 -1.96253 -0.777683 0
M  V30 1756 O 168.03 -1.52807 -1.69889 0
M  V30 1757 C 168.24 -3.16392 1.47299 0
M  V30 1758 C 169.588 -3.91787 1.63671 0
M  V30 1759 O 170.612 -3.26005 1.43524 0
M  V30 1760 O 169.471 -5.0977 1.96969 0
M  V30 1761 H 166.565 -0.783518 0.26463 0
M  V30 1762 H 169.111 -1.20676 1.19312 0
M  V30 1763 H 167.883 -3.0061 2.50498 0
M  V30 1764 H 167.506 -3.8457 1.00953 0
M  V30 1765 N 168.503 -0.877838 -1.30888 0
M  V30 1766 C 169.751 -0.491723 -1.96027 0
M  V30 1767 C 170.072 0.960827 -1.69685 0
M  V30 1768 O 169.342 1.67462 -1.01654 0
M  V30 1769 H 167.922 -0.17885 -0.725273 0
M  V30 1770 H 170.584 -1.11935 -1.59551 0
M  V30 1771 H 169.68 -0.656016 -3.05128 0
M  V30 1772 N 169.982 1.44106 -0.638065 0
M  V30 1773 C 171.21 2.06336 -0.152615 0
M  V30 1774 C 171.625 1.47731 1.17563 0
M  V30 1775 O 170.982 0.602806 1.72257 0
M  V30 1776 C 171.033 3.61479 -0.0391491 0
M  V30 1777 O 170.754 4.17903 -1.31487 0
M  V30 1778 C 172.255 4.40757 0.474176 0
M  V30 1779 H 169.475 0.665862 -0.0828776 0
M  V30 1780 H 172.019 1.84862 -0.87443 0
M  V30 1781 H 170.174 3.82191 0.633142 0
M  V30 1782 H 170.588 5.11416 -1.16421 0
M  V30 1783 H 172.062 5.49707 0.502562 0
M  V30 1784 H 172.539 4.12697 1.50258 0
M  V30 1785 H 173.145 4.24979 -0.165102 0
M  V30 1786 N 171.46 0.379036 1.52974 0
M  V30 1787 C 172.871 -0.0972525 1.86447 0
M  V30 1788 C 173.222 -1.47027 1.29914 0
M  V30 1789 O 172.347 -2.07135 0.626433 0
M  V30 1790 C 172.942 -0.183248 3.38304 0
M  V30 1791 C 171.501 -0.603812 3.71525 0
M  V30 1792 C 170.648 0.240632 2.76254 0
M  V30 1793 H 173.599 0.597316 1.4703 0
M  V30 1794 H 173.62 -1.00432 3.67006 0
M  V30 1795 H 173.132 0.816191 3.79421 0
M  V30 1796 H 171.233 -1.61099 3.35973 0
M  V30 1797 H 171.346 -0.369086 4.77676 0
M  V30 1798 H 169.71 -0.292548 2.53014 0
M  V30 1799 H 170.493 1.23786 3.20206 0
M  V30 1800 N 172.938 -1.57226 0.108567 0
M  V30 1801 C 173.885 -2.14756 -0.845481 0
M  V30 1802 C 174.855 -1.06971 -1.27068 0
M  V30 1803 O 176.04 -1.34827 -1.35005 0
M  V30 1804 C 173.18 -2.74298 -2.09415 0
M  V30 1805 C 172.293 -3.96358 -1.71826 0
M  V30 1806 C 171.428 -4.44021 -2.9158 0
M  V30 1807 C 170.467 -5.58637 -2.50181 0
M  V30 1808 N 169.604 -6.01091 -3.62814 0
M  V30 1809 H 174.444 -2.95961 -0.348035 0
M  V30 1810 H 171.981 -1.46226 -0.160106 0
M  V30 1811 H 173.939 -3.06945 -2.82561 0
M  V30 1812 H 172.569 -1.95801 -2.56636 0
M  V30 1813 H 171.621 -3.69939 -0.885947 0
M  V30 1814 H 172.933 -4.79504 -1.37394 0
M  V30 1815 H 172.087 -4.78522 -3.72963 0
M  V30 1816 H 170.826 -3.59803 -3.29231 0
M  V30 1817 H 169.831 -5.23751 -1.67228 0
M  V30 1818 H 171.056 -6.44613 -2.13659 0
M  V30 1819 H 169.002 -5.19817 -4.00158 0
M  V30 1820 H 168.919 -6.79066 -3.32273 0
M  V30 1821 H 170.187 -6.40227 -4.44668 0
M  V30 1822 N 174.416 0.165178 -1.56732 0
M  V30 1823 C 175.644 0.896218 -1.86482 0
M  V30 1824 C 176.059 1.75555 -0.694675 0
M  V30 1825 O 175.416 1.79379 0.33607 0
M  V30 1826 C 175.467 1.76792 -3.1532 0
M  V30 1827 O 175.188 0.943239 -4.27825 0
M  V30 1828 C 176.689 2.6081 -3.58459 0
M  V30 1829 H 173.909 0.260064 -0.618553 0
M  V30 1830 H 176.453 0.163428 -2.03846 0
M  V30 1831 H 174.608 2.45398 -2.99764 0
M  V30 1832 H 175.022 1.53998 -5.01383 0
M  V30 1833 H 176.496 3.17579 -4.51495 0
M  V30 1834 H 176.973 3.35977 -2.82872 0
M  V30 1835 H 177.579 1.97526 -3.76648 0
M  V30 1836 N 175.894 1.51508 0.433938 0
M  V30 1837 C 177.143 1.63578 1.18005 0
M  V30 1838 C 177.456 0.359514 1.92268 0
M  V30 1839 O 178.662 0.359632 2.69108 0
M  V30 1840 C 177.118 2.88901 2.14626 0
M  V30 1841 C 176.726 4.23544 1.45995 0
M  V30 1842 C 178.47 3.10328 2.89649 0
M  V30 1843 C 176.377 5.40014 2.4112 0
M  V30 1844 H 175.307 0.609277 0.444182 0
M  V30 1845 H 177.958 1.77978 0.446773 0
M  V30 1846 H 176.34 2.68142 2.91403 0
M  V30 1847 H 177.514 4.54696 0.747532 0
M  V30 1848 H 175.829 4.08021 0.831115 0
M  V30 1849 H 178.426 3.94518 3.60915 0
M  V30 1850 H 178.769 2.23544 3.51189 0
M  V30 1851 H 179.302 3.31443 2.19978 0
M  V30 1852 H 176.041 6.29068 1.84264 0
M  V30 1853 H 175.561 5.13233 3.10406 0
M  V30 1854 H 177.24 5.72099 3.02177 0
M  V30 1855 N 177.372 -0.689602 1.41712 0
M  V30 1856 C 178.788 -1.00093 1.24312 0
M  V30 1857 C 178.988 -2.01036 0.136729 0
M  V30 1858 O 178.044 -2.47562 -0.496918 0
M  V30 1859 C 179.357 -1.51985 2.59463 0
M  V30 1860 C 180.905 -1.63838 2.66695 0
M  V30 1861 C 181.38 -2.1913 4.02177 0
M  V30 1862 N 182.871 -2.26483 4.04054 0
M  V30 1863 C 183.606 -2.70306 5.0569 0
M  V30 1864 N 183.102 -3.13691 6.17713 0
M  V30 1865 N 184.895 -2.69923 4.9305 0
M  V30 1866 H 177.046 -0.0210029 2.1239 0
M  V30 1867 H 179.309 -0.0718733 0.945272 0
M  V30 1868 H 179.015 -0.85269 3.41207 0
M  V30 1869 H 178.889 -2.50103 2.82362 0
M  V30 1870 H 181.276 -2.29664 1.85306 0
M  V30 1871 H 181.357 -0.642492 2.476 0
M  V30 1872 H 181.001 -1.53918 4.84016 0
M  V30 1873 H 180.931 -3.19482 4.18615 0
M  V30 1874 H 183.422 -1.95874 3.23174 0
M  V30 1875 H 183.735 -3.45773 6.9113 0
M  V30 1876 H 182.08 -3.11585 6.21241 0
M  V30 1877 H 185.271 -2.35382 4.04614 0
M  V30 1878 H 185.444 -3.03758 5.72394 0
M  V30 1879 N 178.85 -1.27639 -0.924453 0
M  V30 1880 C 180.096 -1.14336 -1.67497 0
M  V30 1881 C 180.429 0.309465 -1.91718 0
M  V30 1882 O 179.704 1.22608 -1.50989 0
M  V30 1883 C 179.987 -1.93096 -3.0395 0
M  V30 1884 C 179.84 -3.46381 -2.8695 0
M  V30 1885 C 181.159 -1.73798 -4.0433 0
M  V30 1886 H 178.278 -0.416728 -0.607871 0
M  V30 1887 H 180.92 -1.56832 -1.07256 0
M  V30 1888 H 179.07 -1.56982 -3.55372 0
M  V30 1889 H 180.742 -3.92343 -2.42621 0
M  V30 1890 H 178.985 -3.72557 -2.22225 0
M  V30 1891 H 179.656 -3.96735 -3.83804 0
M  V30 1892 H 182.132 -2.05293 -3.61931 0
M  V30 1893 H 181.008 -2.31294 -4.97789 0
M  V30 1894 H 181.269 -0.686725 -4.36734 0
M  V30 1895 N 180.328 1.1314 -1.09713 0
M  V30 1896 C 181.556 1.88321 -0.856898 0
M  V30 1897 C 181.971 1.79276 0.592073 0
M  V30 1898 O 181.328 1.16142 1.40774 0
M  V30 1899 C 181.379 3.37812 -1.28706 0
M  V30 1900 O 181.1 3.46627 -2.67921 0
M  V30 1901 C 182.601 4.29952 -1.07964 0
M  V30 1902 H 179.821 0.596094 -0.308079 0
M  V30 1903 H 182.365 1.43205 -1.45988 0
M  V30 1904 H 180.52 3.805 -0.727912 0
M  V30 1905 H 180.934 4.39579 -2.8613 0
M  V30 1906 H 182.408 5.33159 -1.42986 0
M  V30 1907 H 182.885 4.39196 -0.0176577 0
M  V30 1908 H 183.491 3.93036 -1.62489 0
M  V30 1909 N 181.806 0.884767 1.30421 0
M  V30 1910 C 182.738 0.308655 2.27112 0
M  V30 1911 C 183.751 -0.536655 1.53701 0
M  V30 1912 O 184.94 -0.35624 1.74909 0
M  V30 1913 C 182.04 -0.579782 3.33904 0
M  V30 1914 C 181.213 0.236417 4.36761 0
M  V30 1915 C 180.272 -0.582482 5.22966 0
M  V30 1916 O 179.298 -0.00525502 5.692 0
M  V30 1917 N 180.5 -1.89163 5.48815 0
M  V30 1918 H 183.265 1.13964 2.77186 0
M  V30 1919 H 180.826 0.747731 1.43599 0
M  V30 1920 H 182.818 -1.13366 3.88497 0
M  V30 1921 H 181.388 -1.31144 2.83761 0
M  V30 1922 H 180.608 0.97174 3.82035 0
M  V30 1923 H 181.896 0.795924 5.02536 0
M  V30 1924 H 181.294 -2.38352 5.13035 0
M  V30 1925 H 179.851 -2.39296 6.06284 0
M  V30 1926 N 183.284 -1.43765 0.645699 0
M  V30 1927 C 184.695 -1.85193 0.236719 0
M  V30 1928 C 185.046 -1.54045 -1.21509 0
M  V30 1929 O 184.171 -0.985694 -1.92647 0
M  V30 1930 C 184.766 -3.36151 0.422845 0
M  V30 1931 C 183.325 -3.76338 0.0682492 0
M  V30 1932 C 182.472 -2.67538 0.729306 0
M  V30 1933 H 185.423 -1.34025 0.849883 0
M  V30 1934 H 185.444 -3.79032 -0.333904 0
M  V30 1935 H 184.956 -3.5879 1.47958 0
M  V30 1936 H 183.057 -3.59312 -0.986179 0
M  V30 1937 H 183.17 -4.76603 0.488469 0
M  V30 1938 H 181.534 -2.54176 0.163235 0
M  V30 1939 H 182.317 -2.93006 1.78892 0
M  V30 1940 N 184.763 -0.387143 -1.52771 0
M  V30 1941 C 185.693 0.440551 -2.29306 0
M  V30 1942 C 186.674 1.06535 -1.32606 0
M  V30 1943 O 187.859 1.07853 -1.61497 0
M  V30 1944 C 184.989 1.56919 -3.09829 0
M  V30 1945 C 183.943 1.07054 -4.14395 0
M  V30 1946 C 183.269 2.29109 -4.83129 0
M  V30 1947 C 184.569 0.140015 -5.22112 0
M  V30 1948 H 186.263 -0.198026 -2.98744 0
M  V30 1949 H 183.809 -0.09668 -1.43675 0
M  V30 1950 H 185.762 2.15503 -3.62128 0
M  V30 1951 H 184.486 2.23532 -2.3812 0
M  V30 1952 H 183.145 0.507247 -3.63074 0
M  V30 1953 H 182.793 2.94227 -4.0797 0
M  V30 1954 H 182.493 1.96406 -5.53804 0
M  V30 1955 H 184.017 2.88339 -5.38231 0
M  V30 1956 H 185.431 0.633978 -5.69784 0
M  V30 1957 H 183.828 -0.0971485 -6.00021 0
M  V30 1958 H 184.898 -0.811711 -4.78058 0
M  V30 1959 N 186.241 1.57166 -0.116904 0
M  V30 1960 C 187.489 1.94737 0.540533 0
M  V30 1961 C 187.81 1.00096 1.67349 0
M  V30 1962 O 187.08 0.0568854 1.95817 0
M  V30 1963 H 185.66 0.718981 0.202669 0
M  V30 1964 H 188.322 1.94017 -0.185353 0
M  V30 1965 H 187.418 2.97719 0.936483 0
M  V30 1966 N 187.719 -0.156864 1.56817 0
M  V30 1967 C 189.13 -0.717916 1.72345 0
M  V30 1968 C 189.481 -1.82124 0.729747 0
M  V30 1969 O 188.606 -2.16141 -0.105781 0
M  V30 1970 C 189.201 -1.30904 3.12489 0
M  V30 1971 C 187.76 -1.81676 3.29653 0
M  V30 1972 C 186.907 -0.701349 2.68284 0
M  V30 1973 H 189.858 0.0686989 1.58551 0
M  V30 1974 H 189.879 -2.17882 3.11942 0
M  V30 1975 H 189.391 -0.505796 3.8479 0
M  V30 1976 H 187.492 -2.64598 2.62333 0
M  V30 1977 H 187.605 -1.95226 4.3752 0
M  V30 1978 H 185.969 -1.12548 2.28484 0
M  V30 1979 H 186.752 0.0902846 3.43181 0
M  V30 1980 N 189.197 -1.51736 -0.425897 0
M  V30 1981 C 190.608 -1.5732 -1.00536 0
M  V30 1982 C 190.959 -0.403537 -1.92005 0
M  V30 1983 O 190.084 0.478256 -2.11049 0
M  V30 1984 C 190.679 -2.85119 -1.8301 0
M  V30 1985 C 189.238 -2.93236 -2.35987 0
M  V30 1986 C 188.385 -2.52098 -1.15508 0
M  V30 1987 H 191.336 -1.57348 -0.206739 0
M  V30 1988 H 191.357 -2.69526 -2.68581 0
M  V30 1989 H 190.869 -3.7023 -1.16411 0
M  V30 1990 H 188.97 -2.12581 -3.06007 0
M  V30 1991 H 189.083 -3.9713 -2.68001 0
M  V30 1992 H 187.447 -2.05558 -1.50393 0
M  V30 1993 H 188.23 -3.39565 -0.505014 0
M  V30 1994 N 190.675 0.682077 -1.42076 0
M  V30 1995 C 191.903 1.47057 -1.4554 0
M  V30 1996 C 192.318 1.8869 -0.0645779 0
M  V30 1997 O 191.675 1.57666 0.919115 0
M  V30 1998 C 191.726 2.72442 -2.37609 0
M  V30 1999 O 191.447 2.32559 -3.71279 0
M  V30 2000 C 192.948 3.66069 -2.50017 0
M  V30 2001 H 190.168 0.452737 -0.495248 0
M  V30 2002 H 192.712 0.838695 -1.8651 0
M  V30 2003 H 190.867 3.31835 -1.9991 0
M  V30 2004 H 191.281 3.13475 -4.20516 0
M  V30 2005 H 192.755 4.50792 -3.18576 0
M  V30 2006 H 193.232 4.11476 -1.53572 0
M  V30 2007 H 193.838 3.12572 -2.88407 0
M  V30 2008 N 192.153 1.28127 0.917671 0
M  V30 2009 C 193.1 1.11717 2.0196 0
M  V30 2010 C 194.07 0.0153929 1.66093 0
M  V30 2011 O 195.255 0.179596 1.89953 0
M  V30 2012 C 192.395 0.780927 3.36148 0
M  V30 2013 C 191.508 1.96135 3.84909 0
M  V30 2014 C 190.643 1.56609 5.0759 0
M  V30 2015 C 189.682 2.71339 5.48673 0
M  V30 2016 N 188.819 2.32332 6.62545 0
M  V30 2017 H 193.659 2.06003 2.15329 0
M  V30 2018 H 191.196 1.02535 1.05475 0
M  V30 2019 H 193.154 0.56675 4.13333 0
M  V30 2020 H 191.784 -0.124998 3.22558 0
M  V30 2021 H 190.836 2.28777 3.03916 0
M  V30 2022 H 192.148 2.82165 4.1132 0
M  V30 2023 H 191.302 1.31374 5.92305 0
M  V30 2024 H 190.041 0.677014 4.82978 0
M  V30 2025 H 189.046 2.97276 4.62501 0
M  V30 2026 H 190.271 3.60882 5.75274 0
M  V30 2027 H 188.217 1.45889 6.39572 0
M  V30 2028 H 188.134 3.11899 6.88662 0
M  V30 2029 H 189.402 2.10371 7.50576 0
M  V30 2030 N 193.631 -1.12557 1.10312 0
M  V30 2031 C 194.594 -2.16434 0.75424 0
M  V30 2032 C 195.594 -1.59278 -0.220685 0
M  V30 2033 O 196.784 -1.742 0.00230591 0
M  V30 2034 C 193.916 -3.40699 0.116987 0
M  V30 2035 H 195.109 -2.48811 1.67431 0
M  V30 2036 H 192.662 -1.27542 0.903475 0
M  V30 2037 H 193.397 -3.13921 -0.813877 0
M  V30 2038 H 193.182 -3.83459 0.818613 0
M  V30 2039 H 194.672 -4.17451 -0.111387 0
M  V30 2040 N 195.109 -0.891671 -1.2995 0
M  V30 2041 C 196.355 -0.514261 -1.96171 0
M  V30 2042 C 196.688 0.935506 -1.70182 0
M  V30 2043 O 195.963 1.66204 -1.01028 0
M  V30 2044 C 196.246 -0.797719 -3.51153 0
M  V30 2045 C 196.099 -2.2986 -3.86632 0
M  V30 2046 C 197.418 -0.278749 -4.39216 0
M  V30 2047 H 194.537 -0.188314 -0.712535 0
M  V30 2048 H 197.179 -1.11689 -1.53706 0
M  V30 2049 H 195.329 -0.284826 -3.87455 0
M  V30 2050 H 197.001 -2.88042 -3.60319 0
M  V30 2051 H 195.244 -2.76257 -3.34462 0
M  V30 2052 H 195.915 -2.44753 -4.94773 0
M  V30 2053 H 198.391 -0.717825 -4.09862 0
M  V30 2054 H 197.267 -0.506353 -5.46559 0
M  V30 2055 H 197.528 0.820266 -4.34424 0
M  V30 2056 N 196.587 1.43421 -0.653314 0
M  V30 2057 C 197.864 1.95361 -0.0966581 0
M  V30 2058 C 198.244 1.59461 1.38331 0
M  V30 2059 O 197.592 0.879777 2.10884 0
M  V30 2060 C 197.802 3.47311 -0.342988 0
M  V30 2061 C 199.15 4.23875 -0.24798 0
M  V30 2062 O 200.174 3.55133 -0.275553 0
M  V30 2063 O 199.033 5.4623 -0.171771 0
M  V30 2064 H 196.127 0.826945 0.00956291 0
M  V30 2065 H 198.673 1.5336 -0.726558 0
M  V30 2066 H 197.445 3.66569 -1.36906 0
M  V30 2067 H 197.068 3.9631 0.319975 0
M  V30 2068 N 198.065 0.39524 1.52563 0
M  V30 2069 C 198.995 -0.428384 2.29537 0
M  V30 2070 C 199.976 -1.05831 1.33169 0
M  V30 2071 O 201.161 -1.06995 1.62067 0
M  V30 2072 C 198.291 -1.55274 3.10656 0
M  V30 2073 C 197.245 -1.04855 4.14957 0
M  V30 2074 C 196.571 -2.26543 4.84337 0
M  V30 2075 C 197.871 -0.112324 5.22179 0
M  V30 2076 H 199.565 0.213867 2.98635 0
M  V30 2077 H 197.111 0.104298 1.43622 0
M  V30 2078 H 199.064 -2.1358 3.63265 0
M  V30 2079 H 197.788 -2.22266 2.39302 0
M  V30 2080 H 196.447 -0.487985 3.63338 0
M  V30 2081 H 196.095 -2.92059 4.09525 0
M  V30 2082 H 195.795 -1.93466 5.54837 0
M  V30 2083 H 197.319 -2.85481 5.39753 0
M  V30 2084 H 198.733 -0.603752 5.70112 0
M  V30 2085 H 197.13 0.128968 5.99961 0
M  V30 2086 H 198.2 0.837052 4.77621 0
M  V30 2087 N 199.544 -1.57102 0.125237 0
M  V30 2088 C 200.769 -2.0019 -0.542101 0
M  V30 2089 C 201.194 -1.00449 -1.59034 0
M  V30 2090 O 200.552 0.0229423 -1.81285 0
M  V30 2091 C 200.6 -3.42129 -1.13929 0
M  V30 2092 O 199.704 -3.45307 -2.2547 0
M  V30 2093 H 199.045 -0.650171 -0.134812 0
M  V30 2094 H 201.575 -2.03461 0.215553 0
M  V30 2095 H 201.585 -3.80471 -1.4733 0
M  V30 2096 H 200.26 -4.14237 -0.371531 0
M  V30 2097 H 198.837 -3.1879 -1.93462 0
M  V30 2098 N 201.022 0.148545 -1.56898 0
M  V30 2099 C 201.972 1.1886 -1.94567 0
M  V30 2100 C 202.956 1.3863 -0.816735 0
M  V30 2101 O 204.148 1.40218 -1.08018 0
M  V30 2102 C 201.277 2.52262 -2.32849 0
M  V30 2103 C 200.363 2.36092 -3.52309 0
M  V30 2104 N 200.754 1.89674 -4.6889 0
M  V30 2105 C 199.052 2.66848 -3.57363 0
M  V30 2106 C 199.753 1.86511 -5.50989 0
M  V30 2107 N 198.729 2.29766 -4.92655 0
M  V30 2108 H 202.531 0.821793 -2.82177 0
M  V30 2109 H 200.045 0.356615 -1.58436 0
M  V30 2110 H 202.042 3.27447 -2.58039 0
M  V30 2111 H 200.702 2.89727 -1.46589 0
M  V30 2112 H 201.713 1.59663 -4.92674 0
M  V30 2113 H 198.39 3.08198 -2.81639 0
M  V30 2114 H 199.78 1.52128 -6.54452 0
M  V30 2115 N 202.5 1.5196 0.417844 0
M  V30 2116 C 203.432 1.70895 1.52733 0
M  V30 2117 C 204.445 0.589405 1.51756 0
M  V30 2118 O 205.634 0.864312 1.56179 0
M  V30 2119 C 202.734 1.72627 2.91639 0
M  V30 2120 C 201.907 3.01479 3.16905 0
M  V30 2121 C 200.966 2.95139 4.35637 0
M  V30 2122 O 199.992 3.69059 4.3334 0
M  V30 2123 N 201.194 2.12328 5.40275 0
M  V30 2124 H 203.959 2.66612 1.36888 0
M  V30 2125 H 201.52 1.50089 0.607037 0
M  V30 2126 H 203.512 1.65928 3.6912 0
M  V30 2127 H 202.082 0.844216 3.00985 0
M  V30 2128 H 201.302 3.21895 2.27546 0
M  V30 2129 H 202.59 3.86736 3.30625 0
M  V30 2130 H 201.988 1.51685 5.44985 0
M  V30 2131 H 200.545 2.11494 6.16534 0
M  V30 2132 N 203.978 -0.674533 1.42435 0
M  V30 2133 C 205.389 -1.25514 1.38214 0
M  V30 2134 C 205.74 -1.96055 0.0755464 0
M  V30 2135 O 204.865 -2.00028 -0.8257 0
M  V30 2136 C 205.46 -2.28269 2.50357 0
M  V30 2137 C 204.019 -2.81856 2.49467 0
M  V30 2138 C 203.166 -1.56182 2.29134 0
M  V30 2139 H 206.117 -0.467902 1.51646 0
M  V30 2140 H 206.138 -3.10009 2.20624 0
M  V30 2141 H 205.65 -1.769 3.45439 0
M  V30 2142 H 203.751 -3.37346 1.58204 0
M  V30 2143 H 203.864 -3.30854 3.46515 0
M  V30 2144 H 202.228 -1.82761 1.774 0
M  V30 2145 H 203.011 -1.06778 3.26272 0
M  V30 2146 N 205.456 -1.28612 -0.910864 0
M  V30 2147 C 206.867 -1.14406 -1.47541 0
M  V30 2148 C 207.218 0.264901 -1.94403 0
M  V30 2149 O 206.343 1.15942 -1.82719 0
M  V30 2150 C 206.938 -2.07073 -2.68153 0
M  V30 2151 C 205.497 -1.96923 -3.20778 0
M  V30 2152 C 204.644 -1.98646 -1.93481 0
M  V30 2153 H 207.595 -1.41259 -0.723291 0
M  V30 2154 H 207.616 -1.63642 -3.43514 0
M  V30 2155 H 207.128 -3.09611 -2.34015 0
M  V30 2156 H 205.229 -0.97433 -3.59635 0
M  V30 2157 H 205.342 -2.84026 -3.85832 0
M  V30 2158 H 203.706 -1.43093 -2.10705 0
M  V30 2159 H 204.489 -3.02868 -1.61634 0
M  V30 2160 N 206.934 1.1197 -1.10907 0
M  V30 2161 C 207.897 2.16031 -0.765707 0
M  V30 2162 C 208.897 1.59393 0.212235 0
M  V30 2163 O 210.087 1.74196 -0.0115441 0
M  V30 2164 C 207.219 3.40632 -0.135053 0
M  V30 2165 H 208.412 2.47919 -1.68748 0
M  V30 2166 H 205.965 1.27061 -0.910226 0
M  V30 2167 H 206.7 3.14348 0.797218 0
M  V30 2168 H 206.485 3.8302 -0.838937 0
M  V30 2169 H 207.975 4.17505 0.0892469 0
M  V30 2170 N 208.412 0.89855 1.29475 0
M  V30 2171 C 209.66 0.522847 1.9522 0
M  V30 2172 C 209.981 -0.93371 1.71192 0
M  V30 2173 O 209.251 -1.65823 1.04305 0
M  V30 2174 H 207.831 0.190366 0.722336 0
M  V30 2175 H 210.493 1.14459 1.5775 0
M  V30 2176 H 209.589 0.704476 3.04045 0
M  V30 2177 N 209.89 -1.43072 0.660911 0
M  V30 2178 C 210.837 -2.30785 -0.0259884 0
M  V30 2179 C 211.807 -1.45184 -0.806888 0
M  V30 2180 O 212.992 -1.74041 -0.781943 0
M  V30 2181 C 210.132 -3.30861 -0.981067 0
M  V30 2182 C 209.245 -4.31558 -0.195458 0
M  V30 2183 C 208.38 -5.18712 -1.14503 0
M  V30 2184 C 207.419 -6.11097 -0.350299 0
M  V30 2185 N 206.556 -6.90849 -1.25186 0
M  V30 2186 H 211.396 -2.88975 0.727846 0
M  V30 2187 H 208.933 -1.42353 0.370682 0
M  V30 2188 H 210.891 -3.87399 -1.54849 0
M  V30 2189 H 209.521 -2.74304 -1.70169 0
M  V30 2190 H 208.573 -3.77252 0.488374 0
M  V30 2191 H 209.885 -4.9701 0.422176 0
M  V30 2192 H 209.039 -5.79914 -1.78284 0
M  V30 2193 H 207.778 -4.53404 -1.79656 0
M  V30 2194 H 206.783 -5.48976 0.300808 0
M  V30 2195 H 208.008 -6.7845 0.296941 0
M  V30 2196 H 205.954 -6.28182 -1.89005 0
M  V30 2197 H 205.871 -7.52854 -0.688971 0
M  V30 2198 H 207.139 -7.5655 -1.87757 0
M  V30 2199 N 211.368 -0.403325 -1.52352 0
M  V30 2200 C 212.278 0.432009 -2.30588 0
M  V30 2201 C 213.294 1.05884 -1.38075 0
M  V30 2202 O 214.47 1.06161 -1.71148 0
M  V30 2203 C 211.535 1.53669 -3.10784 0
M  V30 2204 C 210.596 0.933525 -4.19027 0
M  V30 2205 C 209.829 1.98557 -4.9539 0
M  V30 2206 O 210.052 3.20283 -4.71991 0
M  V30 2207 O 208.986 1.59504 -5.80381 0
M  V30 2208 H 212.812 -0.205739 -3.03002 0
M  V30 2209 H 210.397 -0.166675 -1.48467 0
M  V30 2210 H 212.279 2.17814 -3.60742 0
M  V30 2211 H 210.954 2.15915 -2.41169 0
M  V30 2212 H 209.861 0.254954 -3.7323 0
M  V30 2213 H 211.194 0.35508 -4.90918 0
M  V30 2214 N 212.846 1.57033 -0.133567 0
M  V30 2215 C 213.778 2.13176 0.841944 0
M  V30 2216 C 214.791 1.07794 1.22001 0
M  V30 2217 O 215.98 1.35117 1.16643 0
M  V30 2218 C 213.08 2.62847 2.13926 0
M  V30 2219 C 212.253 3.92486 1.93064 0
M  V30 2220 C 211.312 4.27605 3.0666 0
M  V30 2221 O 210.338 4.96168 2.78937 0
M  V30 2222 N 211.54 3.861 4.33483 0
M  V30 2223 H 214.305 2.97503 0.362192 0
M  V30 2224 H 211.866 1.61821 0.05042 0
M  V30 2225 H 213.858 2.83363 2.88942 0
M  V30 2226 H 212.428 1.83319 2.53205 0
M  V30 2227 H 211.648 3.80732 1.02159 0
M  V30 2228 H 212.936 4.77225 1.76447 0
M  V30 2229 H 212.334 3.30828 4.58878 0
M  V30 2230 H 210.891 4.11694 5.05323 0
M  V30 2231 N 214.325 -0.140222 1.56975 0
M  V30 2232 C 215.736 -0.699596 1.73097 0
M  V30 2233 C 216.087 -1.8134 0.749022 0
M  V30 2234 O 215.212 -2.16241 -0.0828503 0
M  V30 2235 C 215.807 -1.27582 3.1386 0
M  V30 2236 C 214.366 -1.78169 3.31561 0
M  V30 2237 C 213.513 -0.672855 2.69013 0
M  V30 2238 H 216.464 0.0855115 1.58469 0
M  V30 2239 H 216.485 -2.14561 3.14235 0
M  V30 2240 H 215.997 -0.464955 3.85305 0
M  V30 2241 H 214.098 -2.61801 2.65124 0
M  V30 2242 H 214.211 -1.90574 4.39566 0
M  V30 2243 H 212.575 -1.10118 2.29665 0
M  V30 2244 H 213.358 0.126679 3.43066 0
M  V30 2245 N 215.803 -1.52179 -0.40978 0
M  V30 2246 C 216.733 -1.78435 -1.5061 0
M  V30 2247 C 217.714 -0.635295 -1.57791 0
M  V30 2248 O 218.899 -0.880823 -1.73076 0
M  V30 2249 C 216.029 -1.93444 -2.88439 0
M  V30 2250 C 214.983 -3.09038 -2.96108 0
M  V30 2251 C 214.309 -3.09268 -4.36185 0
M  V30 2252 C 215.609 -4.48508 -2.67652 0
M  V30 2253 H 217.303 -2.70237 -1.28889 0
M  V30 2254 H 214.849 -1.30036 -0.618605 0
M  V30 2255 H 216.802 -2.10394 -3.65119 0
M  V30 2256 H 215.526 -0.983129 -3.11452 0
M  V30 2257 H 214.185 -2.91837 -2.21872 0
M  V30 2258 H 213.833 -2.11861 -4.56206 0
M  V30 2259 H 213.533 -3.86907 -4.42241 0
M  V30 2260 H 215.057 -3.28348 -5.14801 0
M  V30 2261 H 216.471 -4.65918 -3.34056 0
M  V30 2262 H 214.868 -5.28059 -2.85085 0
M  V30 2263 H 215.938 -4.56649 -1.63095 0
M  V30 2264 N 217.281 0.66697 -1.42791 0
M  V30 2265 C 218.244 1.76211 -1.46568 0
M  V30 2266 C 219.244 1.56896 -0.352196 0
M  V30 2267 O 220.434 1.63044 -0.613364 0
M  V30 2268 C 217.566 3.14935 -1.30494 0
M  V30 2269 H 218.759 1.74247 -2.44086 0
M  V30 2270 H 216.312 0.877342 -1.29354 0
M  V30 2271 H 217.047 3.2252 -0.339301 0
M  V30 2272 H 216.832 3.30359 -2.11199 0
M  V30 2273 H 218.322 3.94821 -1.36038 0
M  V30 2274 N 218.759 1.29093 0.90403 0
M  V30 2275 C 220.005 1.16986 1.65656 0
M  V30 2276 C 220.338 -0.278925 1.92186 0
M  V30 2277 O 219.613 -1.2019 1.5292 0
M  V30 2278 C 219.896 1.97908 3.0084 0
M  V30 2279 C 219.749 3.50903 2.81403 0
M  V30 2280 C 221.068 1.80208 4.01513 0
M  V30 2281 H 218.187 0.426346 0.601164 0
M  V30 2282 H 220.829 1.58518 1.04747 0
M  V30 2283 H 218.979 1.62616 3.52829 0
M  V30 2284 H 220.651 3.96153 2.36348 0
M  V30 2285 H 218.894 3.76045 2.1627 0
M  V30 2286 H 219.565 4.02791 3.77443 0
M  V30 2287 H 222.041 2.11025 3.58619 0
M  V30 2288 H 220.917 2.39184 4.94047 0
M  V30 2289 H 221.178 0.756119 4.35586 0
M  V30 2290 N 220.237 -1.11381 1.11499 0
M  V30 2291 C 221.514 -1.7955 0.775965 0
M  V30 2292 C 221.894 -1.97859 -0.73588 0
M  V30 2293 O 221.242 -1.56376 -1.66609 0
M  V30 2294 C 221.452 -3.13196 1.53977 0
M  V30 2295 C 222.8 -3.88227 1.71944 0
M  V30 2296 O 223.824 -3.22887 1.50407 0
M  V30 2297 O 222.683 -5.05477 2.07738 0
M  V30 2298 H 219.777 -0.777728 0.28119 0
M  V30 2299 H 222.323 -1.18118 1.21845 0
M  V30 2300 H 221.095 -2.95229 2.56818 0
M  V30 2301 H 220.718 -3.82342 1.09088 0
M  V30 2302 N 221.715 -0.905404 -1.28997 0
M  V30 2303 C 222.963 -0.533192 -1.9494 0
M  V30 2304 C 223.284 0.924618 -1.71685 0
M  V30 2305 O 222.554 1.65268 -1.05183 0
M  V30 2306 H 221.134 -0.194194 -0.721317 0
M  V30 2307 H 223.796 -1.15294 -1.57141 0
M  V30 2308 H 222.892 -0.72059 -3.03667 0
M  V30 2309 N 223.193 1.4272 -0.668489 0
M  V30 2310 C 224.156 2.292 0.00448567 0
M  V30 2311 C 225.156 1.43001 0.735339 0
M  V30 2312 O 226.346 1.64461 0.57429 0
M  V30 2313 C 223.478 3.25375 1.01705 0
M  V30 2314 H 224.671 2.90199 -0.756608 0
M  V30 2315 H 222.224 1.50254 -0.430506 0
M  V30 2316 H 222.959 2.69301 1.80686 0
M  V30 2317 H 222.744 3.88944 0.496463 0
M  V30 2318 H 224.234 3.90245 1.48655 0
M  V30 2319 N 224.671 0.411399 1.52136 0
M  V30 2320 C 225.896 -0.165538 2.06738 0
M  V30 2321 C 226.321 -1.379 1.27926 0
M  V30 2322 O 225.679 -1.78628 0.310114 0
M  V30 2323 C 225.727 -0.492124 3.57226 0
M  V30 2324 O 224.831 -1.58276 3.80818 0
M  V30 2325 H 224.172 -0.0132132 0.663869 0
M  V30 2326 H 226.702 0.585253 1.96051 0
M  V30 2327 H 226.712 -0.750104 4.01045 0
M  V30 2328 H 225.387 0.394922 4.14021 0
M  V30 2329 H 223.964 -1.31677 3.48877 0
M  V30 2330 N 226.149 -1.5696 0.141893 0
M  V30 2331 C 227.397 -1.95573 -0.509484 0
M  V30 2332 C 227.718 -1.02746 -1.65736 0
M  V30 2333 O 226.988 -0.0880311 -1.95702 0
M  V30 2334 H 225.568 -0.722115 -0.191205 0
M  V30 2335 H 228.23 -1.93697 0.216196 0
M  V30 2336 H 227.326 -2.99171 -0.889 0
M  V30 2337 N 227.627 0.131896 -1.57047 0
M  V30 2338 C 229.038 0.690407 -1.73465 0
M  V30 2339 C 229.389 1.8094 -0.758629 0
M  V30 2340 O 228.514 2.16282 0.0713813 0
M  V30 2341 C 229.109 1.25916 -3.14532 0
M  V30 2342 C 227.668 1.76409 -3.32501 0
M  V30 2343 C 226.815 0.658579 -2.69366 0
M  V30 2344 H 229.766 -0.0939144 -1.58422 0
M  V30 2345 H 229.787 2.12892 -3.15369 0
M  V30 2346 H 229.299 0.444515 -3.85546 0
M  V30 2347 H 227.4 2.60391 -2.66509 0
M  V30 2348 H 227.513 1.88241 -4.4057 0
M  V30 2349 H 225.877 1.08899 -2.30246 0
M  V30 2350 H 226.66 -0.14487 -3.42994 0
M  V30 2351 N 229.106 1.52395 0.401703 0
M  V30 2352 C 230.354 1.66488 1.14569 0
M  V30 2353 C 230.675 0.400897 1.90835 0
M  V30 2354 O 229.945 -0.584415 1.8698 0
M  V30 2355 H 228.525 0.613672 0.425929 0
M  V30 2356 H 231.187 1.89464 0.457093 0
M  V30 2357 H 230.283 2.50942 1.85566 0
M  V30 2358 N 230.584 -0.659388 1.43143 0
M  V30 2359 C 231.532 -1.79374 1.4808 0
M  V30 2360 C 232.526 -1.65639 0.354988 0
M  V30 2361 O 233.732 -1.7206 0.528704 0
M  V30 2362 H 230.107 -0.591705 0.4641 0
M  V30 2363 H 232.078 -1.72329 2.43609 0
M  V30 2364 C 230.827 -3.17606 1.41499 0
M  V30 2365 H 230.15 -3.28809 2.27431 0
M  V30 2366 H 231.59 -3.96951 1.49015 0
M  V30 2367 C 230.049 -3.36642 0.131765 0
M  V30 2368 O 230.579 -3.93461 -0.809386 0
M  V30 2369 N 228.785 -2.90567 0.0439396 0
M  V30 2370 H 228.332 -2.44513 0.810619 0
M  V30 2371 H 228.29 -3.03681 -0.813969 0
M  V30 2372 N 232.062 -1.29571 -0.897171 0
M  V30 2373 C 233.31 -1.17456 -1.64464 0
M  V30 2374 C 233.631 0.273698 -1.9307 0
M  V30 2375 O 232.901 1.18684 -1.55855 0
M  V30 2376 H 231.481 -0.431706 -0.609622 0
M  V30 2377 H 234.143 -1.62531 -1.07562 0
M  V30 2378 H 233.239 -1.72648 -2.59998 0
M  V30 2379 N 233.54 1.10788 -1.12088 0
M  V30 2380 C 234.951 1.64181 -0.88891 0
M  V30 2381 C 235.302 1.87508 0.577498 0
M  V30 2382 O 234.427 1.61434 1.44112 0
M  V30 2383 C 235.022 2.98257 -1.60712 0
M  V30 2384 C 233.581 3.4853 -1.42139 0
M  V30 2385 C 232.728 2.23208 -1.6454 0
M  V30 2386 H 235.679 0.943368 -1.27618 0
M  V30 2387 H 235.7 3.65552 -1.05604 0
M  V30 2388 H 235.212 2.81246 -2.67436 0
M  V30 2389 H 233.313 3.70692 -0.376552 0
M  V30 2390 H 233.426 4.26882 -2.17505 0
M  V30 2391 H 231.79 2.31169 -1.06925 0
M  V30 2392 H 232.573 2.08733 -2.72554 0
M  V30 2393 N 235.018 0.912232 1.28515 0
M  V30 2394 C 235.95 0.35676 2.26406 0
M  V30 2395 C 236.963 -0.503933 1.54804 0
M  V30 2396 O 238.152 -0.319059 1.75625 0
M  V30 2397 C 235.252 -0.508825 3.35058 0
M  V30 2398 C 234.425 0.329007 4.36161 0
M  V30 2399 C 233.484 -0.471422 5.24084 0
M  V30 2400 O 232.51 0.115482 5.69083 0
M  V30 2401 N 233.712 -1.77479 5.52704 0
M  V30 2402 H 236.477 1.19818 2.74707 0
M  V30 2403 H 234.038 0.778022 1.4198 0
M  V30 2404 H 236.03 -1.051 3.90815 0
M  V30 2405 H 234.6 -1.25095 2.86478 0
M  V30 2406 H 233.82 1.05256 3.79888 0
M  V30 2407 H 235.108 0.90234 5.00735 0
M  V30 2408 H 234.506 -2.27417 5.17975 0
M  V30 2409 H 233.063 -2.26382 6.11224 0
M  V30 2410 N 236.496 -1.42363 0.676048 0
M  V30 2411 C 237.446 -2.27987 -0.0242903 0
M  V30 2412 C 238.43 -1.41153 -0.772319 0
M  V30 2413 O 239.622 -1.64592 -0.651025 0
M  V30 2414 C 236.751 -3.29195 -0.973953 0
M  V30 2415 C 235.837 -4.23512 -0.223202 0
M  V30 2416 N 236.228 -4.99865 0.772589 0
M  V30 2417 C 234.526 -4.43606 -0.461469 0
M  V30 2418 C 235.227 -5.68757 1.22027 0
M  V30 2419 N 234.203 -5.40811 0.549975 0
M  V30 2420 H 238.005 -2.84445 0.73949 0
M  V30 2421 H 235.519 -1.54341 0.50522 0
M  V30 2422 H 237.516 -3.89339 -1.49067 0
M  V30 2423 H 236.176 -2.74298 -1.73755 0
M  V30 2424 H 237.187 -5.04921 1.15217 0
M  V30 2425 H 233.864 -3.99749 -1.20446 0
M  V30 2426 H 235.254 -6.40007 2.0455 0
M  V30 2427 N 237.974 -0.419461 -1.51915 0
M  V30 2428 C 238.937 0.389116 -2.25873 0
M  V30 2429 C 239.937 0.964924 -1.28631 0
M  V30 2430 O 241.127 0.842179 -1.52489 0
M  V30 2431 C 238.259 1.54874 -3.03689 0
M  V30 2432 H 239.452 -0.258799 -2.98781 0
M  V30 2433 H 237.005 -0.172209 -1.55348 0
M  V30 2434 H 237.74 2.23323 -2.35154 0
M  V30 2435 H 237.525 1.14223 -3.75094 0
M  V30 2436 H 239.015 2.12046 -3.59759 0
M  V30 2437 N 239.452 1.56882 -0.150215 0
M  V30 2438 C 240.682 2.00302 0.506213 0
M  V30 2439 C 241.09 1.02934 1.58749 0
M  V30 2440 O 240.433 0.0188384 1.8369 0
M  V30 2441 C 240.495 3.40156 1.16337 0
M  V30 2442 C 240.159 4.56439 0.226311 0
M  V30 2443 C 241.156 5.17012 -0.547265 0
M  V30 2444 C 238.841 5.02136 0.128279 0
M  V30 2445 C 240.835 6.21693 -1.40629 0
M  V30 2446 C 238.522 6.06672 -0.734345 0
M  V30 2447 C 239.52 6.6632 -1.50023 0
M  V30 2448 O 239.208 7.68831 -2.34848 0
M  V30 2449 H 238.94 0.662182 0.135984 0
M  V30 2450 H 241.494 2.03961 -0.242746 0
M  V30 2451 H 239.724 3.33346 1.96004 0
M  V30 2452 H 241.413 3.67663 1.71985 0
M  V30 2453 H 242.179 4.82603 -0.48158 0
M  V30 2454 H 238.058 4.55435 0.714157 0
M  V30 2455 H 241.602 6.68179 -2.00455 0
M  V30 2456 H 237.499 6.40507 -0.801309 0
M  V30 2457 H 238.267 7.86065 -2.28131 0
M  V30 2458 N 240.93 -0.123565 1.57115 0
M  V30 2459 C 242.207 -0.862196 1.75572 0
M  V30 2460 C 242.587 -1.98279 0.724475 0
M  V30 2461 O 241.935 -2.27102 -0.252407 0
M  V30 2462 C 242.145 -1.38309 3.20424 0
M  V30 2463 C 243.493 -1.83724 3.82793 0
M  V30 2464 O 244.517 -1.47999 3.23998 0
M  V30 2465 O 243.376 -2.49685 4.86127 0
M  V30 2466 H 240.47 -0.409113 0.718718 0
M  V30 2467 H 243.016 -0.107661 1.69358 0
M  V30 2468 H 241.788 -0.578889 3.86994 0
M  V30 2469 H 241.411 -2.20046 3.31158 0
M  V30 2470 N 242.408 -1.52605 -0.393616 0
M  V30 2471 C 243.685 -1.58001 -1.15304 0
M  V30 2472 C 244.065 -0.370385 -2.07825 0
M  V30 2473 O 243.413 0.641638 -2.19306 0
M  V30 2474 C 243.623 -2.91652 -1.91677 0
M  V30 2475 C 244.971 -3.4522 -2.47201 0
M  V30 2476 O 245.995 -2.93495 -2.01839 0
M  V30 2477 O 244.854 -4.35579 -3.3005 0
M  V30 2478 H 241.948 -0.637068 -0.527327 0
M  V30 2479 H 244.494 -1.64939 -0.399141 0
M  V30 2480 H 243.266 -3.71136 -1.23992 0
M  V30 2481 H 242.889 -2.88077 -2.74039 0
M  V30 2482 N 243.887 0.651787 -1.4349 0
M  V30 2483 C 245.135 1.40888 -1.44897 0
M  V30 2484 C 245.456 1.94856 -0.0749086 0
M  V30 2485 O 244.726 1.74518 0.889956 0
M  V30 2486 H 243.306 0.522887 -0.533478 0
M  V30 2487 H 245.968 0.768609 -1.79104 0
M  V30 2488 H 245.064 2.25052 -2.16236 0
M  V30 2489 N 245.365 1.30045 0.890287 0
M  V30 2490 C 246.297 1.11786 2.00091 0
M  V30 2491 C 247.31 0.0626307 1.62679 0
M  V30 2492 O 248.499 0.308112 1.75821 0
M  V30 2493 C 245.599 0.681527 3.31977 0
M  V30 2494 C 244.772 1.81735 3.97858 0
M  V30 2495 C 243.831 1.37045 5.08041 0
M  V30 2496 O 242.857 2.07677 5.29961 0
M  V30 2497 N 244.059 0.246525 5.79976 0
M  V30 2498 H 246.824 2.07441 2.16306 0
M  V30 2499 H 244.385 1.2211 1.06305 0
M  V30 2500 H 246.377 0.365675 4.03045 0
M  V30 2501 H 244.947 -0.182828 3.12065 0
M  V30 2502 H 244.167 2.30159 3.20032 0
M  V30 2503 H 245.455 2.57865 4.38615 0
M  V30 2504 H 244.853 -0.34215 5.64664 0
M  V30 2505 H 243.41 -0.00990438 6.51799 0
M  V30 2506 N 246.843 -1.10192 1.12674 0
M  V30 2507 C 247.753 -2.20172 0.810026 0
M  V30 2508 C 248.769 -1.72821 -0.202188 0
M  V30 2509 O 249.945 -2.01369 -0.0351691 0
M  V30 2510 C 247.01 -3.45631 0.272007 0
M  V30 2511 C 246.071 -4.07704 1.34447 0
M  V30 2512 C 245.304 -5.27175 0.832029 0
M  V30 2513 O 245.527 -5.69425 -0.333284 0
M  V30 2514 O 244.461 -5.80168 1.60277 0
M  V30 2515 H 248.287 -2.49701 1.72867 0
M  V30 2516 H 245.872 -1.18977 0.903597 0
M  V30 2517 H 247.754 -4.21394 -0.0230219 0
M  V30 2518 H 246.429 -3.17723 -0.619164 0
M  V30 2519 H 245.336 -3.33614 1.6927 0
M  V30 2520 H 246.669 -4.3982 2.2095 0
M  V30 2521 N 248.321 -0.919034 -1.28029 0
M  V30 2522 C 249.284 -0.416182 -2.2539 0
M  V30 2523 C 250.284 0.460438 -1.54067 0
M  V30 2524 O 251.474 0.262744 -1.72207 0
M  V30 2525 C 248.606 0.402707 -3.38513 0
M  V30 2526 H 249.799 -1.27629 -2.71387 0
M  V30 2527 H 247.352 -0.698919 -1.39803 0
M  V30 2528 H 248.087 1.282 -2.97885 0
M  V30 2529 H 247.872 -0.225698 -3.9145 0
M  V30 2530 H 249.362 0.745191 -4.10897 0
M  V30 2531 N 249.799 1.42003 -0.683588 0
M  V30 2532 C 251.047 2.01015 -0.209101 0
M  V30 2533 C 251.368 1.54365 1.19149 0
M  V30 2534 O 250.638 0.769083 1.80172 0
M  V30 2535 H 249.218 0.743294 -0.074315 0
M  V30 2536 H 251.88 1.73798 -0.882066 0
M  V30 2537 H 250.976 3.11343 -0.2172 0
M  V30 2538 N 251.277 0.427512 1.51691 0
M  V30 2539 C 252.502 -0.143601 2.06902 0
M  V30 2540 C 252.927 -1.36536 1.29382 0
M  V30 2541 O 252.285 -1.78289 0.329043 0
M  V30 2542 C 252.333 -0.454207 3.57728 0
M  V30 2543 O 251.437 -1.54228 3.82475 0
M  V30 2544 H 250.778 -0.00617128 0.663971 0
M  V30 2545 H 253.308 0.606014 1.95419 0
M  V30 2546 H 253.318 -0.707525 4.01818 0
M  V30 2547 H 251.993 0.438812 4.13579 0
M  V30 2548 H 250.57 -1.2797 3.50254 0
M  V30 2549 N 252.755 -1.56801 0.158532 0
M  V30 2550 C 253.685 -2.20347 -0.772609 0
M  V30 2551 C 254.666 -1.15518 -1.24859 0
M  V30 2552 O 255.851 -1.43902 -1.30406 0
M  V30 2553 C 252.981 -2.83417 -2.00729 0
M  V30 2554 C 251.935 -3.94174 -1.66765 0
M  V30 2555 C 251.261 -4.44233 -2.97592 0
M  V30 2556 C 252.561 -5.14392 -0.905447 0
M  V30 2557 H 254.255 -2.98413 -0.242959 0
M  V30 2558 H 251.801 -1.43537 -0.115419 0
M  V30 2559 H 253.754 -3.26543 -2.6636 0
M  V30 2560 H 252.478 -2.02701 -2.56086 0
M  V30 2561 H 251.137 -3.51684 -1.03508 0
M  V30 2562 H 250.785 -3.60325 -3.50963 0
M  V30 2563 H 250.485 -5.18945 -2.75626 0
M  V30 2564 H 252.009 -4.90037 -3.64274 0
M  V30 2565 H 253.423 -5.5429 -1.46408 0
M  V30 2566 H 251.82 -5.9494 -0.7853 0
M  V30 2567 H 252.89 -4.84795 0.100668 0
M  V30 2568 N 254.233 0.115231 -1.57178 0
M  V30 2569 C 255.644 0.67197 -1.74188 0
M  V30 2570 C 255.995 1.80125 -0.777777 0
M  V30 2571 O 255.12 2.16346 0.0484376 0
M  V30 2572 C 255.715 1.22573 -3.1585 0
M  V30 2573 C 254.274 1.72872 -3.34353 0
M  V30 2574 C 253.421 0.629972 -2.70049 0
M  V30 2575 H 256.372 -0.110712 -1.58313 0
M  V30 2576 H 256.393 2.09535 -3.17609 0
M  V30 2577 H 255.905 0.403598 -3.85996 0
M  V30 2578 H 254.006 2.5755 -2.69256 0
M  V30 2579 H 254.119 1.83557 -4.42542 0
M  V30 2580 H 252.483 1.0645 -2.31388 0
M  V30 2581 H 253.266 -0.181241 -3.42821 0
M  V30 2582 N 255.711 1.52812 0.385517 0
M  V30 2583 C 256.661 1.74219 1.47078 0
M  V30 2584 C 257.645 0.59632 1.49442 0
M  V30 2585 O 258.837 0.85428 1.5502 0
M  V30 2586 C 255.966 1.9176 2.84751 0
M  V30 2587 C 255.052 3.12289 2.86943 0
M  V30 2588 N 255.443 4.34575 2.58802 0
M  V30 2589 C 253.741 3.12605 3.1811 0
M  V30 2590 C 254.442 5.162 2.68166 0
M  V30 2591 N 253.418 4.51964 3.02043 0
M  V30 2592 H 257.22 2.6639 1.24152 0
M  V30 2593 H 254.734 1.51166 0.593504 0
M  V30 2594 H 256.731 2.05218 3.62893 0
M  V30 2595 H 255.391 1.00805 3.08656 0
M  V30 2596 H 256.402 4.62649 2.32759 0
M  V30 2597 H 253.079 2.31472 3.47458 0
M  V30 2598 H 254.469 6.23689 2.49923 0
M  V30 2599 N 257.189 -0.644168 1.43834 0
M  V30 2600 C 258.152 -1.73857 1.49353 0
M  V30 2601 C 259.152 -1.56315 0.377112 0
M  V30 2602 O 260.342 -1.62048 0.639226 0
M  V30 2603 C 257.474 -3.12819 1.35488 0
M  V30 2604 H 258.667 -1.70342 2.46827 0
M  V30 2605 H 256.22 -0.856652 1.30733 0
M  V30 2606 H 256.955 -3.2194 0.390569 0
M  V30 2607 H 256.74 -3.26958 2.16428 0
M  V30 2608 H 258.23 -3.92606 1.42302 0
M  V30 2609 N 258.668 -1.30515 -0.883378 0
M  V30 2610 C 259.616 -1.16941 -2.01066 0
M  V30 2611 C 260.61 -0.0809148 -1.69207 0
M  V30 2612 O 261.816 -0.241877 -1.78367 0
M  V30 2613 H 258.191 -0.361705 -0.659298 0
M  V30 2614 H 260.162 -2.12344 -2.09649 0
M  V30 2615 C 258.911 -0.879694 -3.36388 0
M  V30 2616 H 258.234 -1.70936 -3.61415 0
M  V30 2617 H 259.674 -0.82483 -4.159 0
M  V30 2618 C 258.133 0.417409 -3.34304 0
M  V30 2619 O 258.663 1.43843 -3.75063 0
M  V30 2620 N 256.869 0.429141 -2.87414 0
M  V30 2621 H 256.416 -0.402222 -2.5444 0
M  V30 2622 H 256.374 1.29696 -2.86403 0
M  V30 2623 N 260.146 1.09593 -1.13257 0
M  V30 2624 C 261.394 1.81375 -0.891492 0
M  V30 2625 C 261.715 1.86049 0.584009 0
M  V30 2626 O 260.985 1.34481 1.42449 0
M  V30 2627 H 259.565 0.671708 -0.326828 0
M  V30 2628 H 262.227 1.3256 -1.42877 0
M  V30 2629 H 261.323 2.84612 -1.28071 0
M  V30 2630 N 261.624 0.925811 1.2754 0
M  V30 2631 C 262.554 0.440748 2.29303 0
M  V30 2632 C 263.535 -0.497971 1.62648 0
M  V30 2633 O 264.72 -0.403126 1.8997 0
M  V30 2634 C 261.85 -0.309048 3.45922 0
M  V30 2635 C 260.804 0.54166 4.24559 0
M  V30 2636 C 260.13 -0.337191 5.33636 0
M  V30 2637 C 261.43 1.80516 4.90114 0
M  V30 2638 H 263.124 1.29121 2.70126 0
M  V30 2639 H 260.67 0.622323 1.29858 0
M  V30 2640 H 262.623 -0.659315 4.1621 0
M  V30 2641 H 261.347 -1.19352 3.04011 0
M  V30 2642 H 260.006 0.874609 3.56014 0
M  V30 2643 H 259.654 -1.22056 4.87966 0
M  V30 2644 H 259.354 0.228497 5.87156 0
M  V30 2645 H 260.878 -0.683072 6.06767 0
M  V30 2646 H 262.292 1.52307 5.52698 0
M  V30 2647 H 260.689 2.3142 5.53683 0
M  V30 2648 H 261.759 2.52581 4.13921 0
M  V30 2649 N 263.102 -1.41638 0.69111 0
M  V30 2650 C 264.065 -2.29178 0.0319786 0
M  V30 2651 C 265.065 -1.44153 -0.712496 0
M  V30 2652 O 266.255 -1.65354 -0.548053 0
M  V30 2653 C 263.387 -3.26952 -0.965161 0
M  V30 2654 H 264.58 -2.88959 0.802681 0
M  V30 2655 H 262.133 -1.4955 0.454356 0
M  V30 2656 H 262.868 -2.72142 -1.76378 0
M  V30 2657 H 262.653 -3.89685 -0.434522 0
M  V30 2658 H 264.143 -3.92561 -1.42428 0
M  V30 2659 N 264.58 -0.43555 -1.51462 0
M  V30 2660 C 265.991 0.0279871 -1.86679 0
M  V30 2661 C 266.342 1.42104 -1.35281 0
M  V30 2662 O 265.467 2.04667 -0.702878 0
M  V30 2663 C 266.062 0.0575626 -3.38751 0
M  V30 2664 C 264.621 0.465507 -3.7351 0
M  V30 2665 C 263.768 -0.342996 -2.75171 0
M  V30 2666 H 266.719 -0.651473 -1.44712 0
M  V30 2667 H 266.74 0.867421 -3.70481 0
M  V30 2668 H 266.252 -0.956448 -3.7613 0
M  V30 2669 H 264.353 1.48519 -3.41721 0
M  V30 2670 H 264.466 0.191546 -4.78717 0
M  V30 2671 H 262.83 0.198442 -2.53926 0
M  V30 2672 H 263.613 -1.35585 -3.15391 0
M  V30 2673 N 266.058 1.56714 -0.166846 0
M  V30 2674 C 267.474 1.58473 0.189372 0
M  V30 2675 C 267.674 1.18201 1.63189 0
M  V30 2676 O 266.73 0.891528 2.36237 0
M  V30 2677 C 268.043 3.00573 -0.0873872 0
M  V30 2678 C 269.591 3.1299 -0.0252443 0
M  V30 2679 C 270.066 4.57174 -0.274934 0
M  V30 2680 N 271.557 4.62665 -0.222553 0
M  V30 2681 C 272.292 5.72072 -0.389985 0
M  V30 2682 N 271.788 6.90054 -0.616229 0
M  V30 2683 N 273.581 5.61153 -0.326202 0
M  V30 2684 H 265.732 1.8118 -1.10849 0
M  V30 2685 H 267.995 0.839525 -0.440342 0
M  V30 2686 H 267.701 3.34497 -1.0865 0
M  V30 2687 H 267.575 3.72019 0.623037 0
M  V30 2688 H 269.962 2.78895 0.96444 0
M  V30 2689 H 270.043 2.43989 -0.768309 0
M  V30 2690 H 269.687 4.91976 -1.26181 0
M  V30 2691 H 269.617 5.24328 0.48869 0
M  V30 2692 H 272.108 3.77863 -0.0531512 0
M  V30 2693 H 272.421 7.69311 -0.733559 0
M  V30 2694 H 270.766 6.91927 -0.652791 0
M  V30 2695 H 273.957 4.67859 -0.150072 0
M  V30 2696 H 274.13 6.46364 -0.460116 0
M  V30 2697 N 267.536 -0.106894 1.57237 0
M  V30 2698 C 268.947 -0.662723 1.74542 0
M  V30 2699 C 269.298 -1.7971 0.787319 0
M  V30 2700 O 268.423 -2.16368 -0.0369636 0
M  V30 2701 C 269.018 -1.20896 3.16496 0
M  V30 2702 C 267.577 -1.71096 3.35266 0
M  V30 2703 C 266.724 -0.615642 2.7038 0
M  V30 2704 H 269.675 0.119106 1.58252 0
M  V30 2705 H 269.696 -2.07847 3.18716 0
M  V30 2706 H 269.208 -0.383122 3.86204 0
M  V30 2707 H 267.309 -2.56119 2.70618 0
M  V30 2708 H 267.422 -1.81208 4.43509 0
M  V30 2709 H 265.786 -1.05222 2.31949 0
M  V30 2710 H 266.569 0.199419 3.4272 0
M  V30 2711 N 269.014 -1.53014 -0.377408 0
M  V30 2712 C 270.425 -1.60438 -0.954798 0
M  V30 2713 C 270.776 -0.464418 -1.90624 0
M  V30 2714 O 269.901 0.41087 -2.12464 0
M  V30 2715 C 270.496 -2.90797 -1.73847 0
M  V30 2716 C 269.055 -3.00595 -2.26538 0
M  V30 2717 C 268.202 -2.55645 -1.07429 0
M  V30 2718 H 271.153 -1.57926 -0.156575 0
M  V30 2719 H 271.174 -2.77935 -2.5987 0
M  V30 2720 H 270.686 -3.73746 -1.04574 0
M  V30 2721 H 268.787 -2.22208 -2.99089 0
M  V30 2722 H 268.9 -4.05456 -2.5523 0
M  V30 2723 H 267.264 -2.10239 -1.43777 0
M  V30 2724 H 268.047 -3.41 -0.396728 0
M  V30 2725 N 270.492 0.636531 -1.44174 0
M  V30 2726 C 271.74 1.39343 -1.46383 0
M  V30 2727 C 272.061 1.94766 -0.0955715 0
M  V30 2728 O 271.331 1.75452 0.871395 0
M  V30 2729 H 269.911 0.517199 -0.538994 0
M  V30 2730 H 272.573 0.74957 -1.7991 0
M  V30 2731 H 271.669 2.22746 -2.18611 0
M  V30 2732 N 271.97 1.30982 0.876444 0
M  V30 2733 C 272.902 1.13902 1.98894 0
M  V30 2734 C 273.915 0.0798815 1.62604 0
M  V30 2735 O 275.104 0.326743 1.75484 0
M  V30 2736 C 272.204 0.716699 3.31235 0
M  V30 2737 C 271.377 1.85945 3.95908 0
M  V30 2738 C 270.436 1.42426 5.06558 0
M  V30 2739 O 269.462 2.13287 5.27729 0
M  V30 2740 N 270.664 0.308025 5.79682 0
M  V30 2741 H 273.429 2.09724 2.14094 0
M  V30 2742 H 270.99 1.2323 1.05004 0
M  V30 2743 H 272.982 0.408403 4.02634 0
M  V30 2744 H 271.552 -0.149719 3.12241 0
M  V30 2745 H 270.772 2.33541 3.17573 0
M  V30 2746 H 272.06 2.62503 4.35855 0
M  V30 2747 H 271.458 -0.282241 5.64995 0
M  V30 2748 H 270.015 0.0592282 6.51773 0
M  V30 2749 N 273.449 -1.08991 1.13837 0
M  V30 2750 C 274.726 -1.77863 0.813876 0
M  V30 2751 C 275.106 -1.99375 -0.693746 0
M  V30 2752 O 274.454 -1.59875 -1.63255 0
M  V30 2753 C 274.664 -3.0986 1.60586 0
M  V30 2754 C 276.012 -3.84493 1.8014 0
M  V30 2755 O 277.036 -3.19624 1.57222 0
M  V30 2756 O 275.895 -5.00957 2.18413 0
M  V30 2757 H 272.989 -0.771589 0.297624 0
M  V30 2758 H 275.535 -1.15507 1.24323 0
M  V30 2759 H 274.307 -2.89715 2.63022 0
M  V30 2760 H 273.93 -3.79942 1.17173 0
M  V30 2761 N 274.927 -0.932562 -1.27047 0
M  V30 2762 C 276.338 -0.619451 -1.76124 0
M  V30 2763 C 276.689 0.865397 -1.76083 0
M  V30 2764 O 275.814 1.67722 -1.36742 0
M  V30 2765 C 276.409 -1.11771 -3.19832 0
M  V30 2766 C 274.968 -0.855174 -3.66557 0
M  V30 2767 C 274.115 -1.27362 -2.46321 0
M  V30 2768 H 277.066 -1.11181 -1.13245 0
M  V30 2769 H 277.087 -0.46759 -3.77616 0
M  V30 2770 H 276.599 -2.19842 -3.1983 0
M  V30 2771 H 274.7 0.211524 -3.71999 0
M  V30 2772 H 274.813 -1.47613 -4.55793 0
M  V30 2773 H 273.177 -0.692119 -2.45116 0
M  V30 2774 H 273.96 -2.36307 -2.49025 0
M  V30 2775 N 276.405 1.4127 -0.698611 0
M  V30 2776 C 277.368 2.29158 -0.044132 0
M  V30 2777 C 278.368 1.44529 0.704841 0
M  V30 2778 O 279.558 1.65643 0.539276 0
M  V30 2779 C 276.69 3.27459 0.947809 0
M  V30 2780 H 277.883 2.88529 -0.817994 0
M  V30 2781 H 275.436 1.49307 -0.46228 0
M  V30 2782 H 276.171 2.73073 1.74933 0
M  V30 2783 H 275.956 3.8991 0.41385 0
M  V30 2784 H 277.446 3.93311 1.40344 0
M  V30 2785 N 277.883 0.443576 1.51229 0
M  V30 2786 C 278.83 -0.364716 2.279 0
M  V30 2787 C 279.8 -1.0114 1.31757 0
M  V30 2788 O 280.985 -1.02912 1.60667 0
M  V30 2789 C 278.125 -1.45644 3.12861 0
M  V30 2790 C 277.238 -0.827269 4.24005 0
M  V30 2791 C 276.373 -1.89456 4.96266 0
M  V30 2792 C 275.412 -1.24416 5.99322 0
M  V30 2793 N 274.549 -2.25309 6.64966 0
M  V30 2794 H 279.389 0.295464 2.96532 0
M  V30 2795 H 276.926 0.157554 1.46254 0
M  V30 2796 H 278.884 -2.10076 3.6045 0
M  V30 2797 H 277.514 -2.08616 2.46331 0
M  V30 2798 H 276.566 -0.0710839 3.80334 0
M  V30 2799 H 277.878 -0.312481 4.9782 0
M  V30 2800 H 277.032 -2.61535 5.47434 0
M  V30 2801 H 275.771 -2.4431 4.22095 0
M  V30 2802 H 274.776 -0.508868 5.4744 0
M  V30 2803 H 276.001 -0.702882 6.75453 0
M  V30 2804 H 273.947 -2.79231 5.93604 0
M  V30 2805 H 273.864 -1.78739 7.34567 0
M  V30 2806 H 275.132 -2.96853 7.20763 0
M  V30 2807 N 279.361 -1.56624 0.175154 0
M  V30 2808 C 280.308 -2.18149 -0.753634 0
M  V30 2809 C 281.278 -1.12265 -1.22417 0
M  V30 2810 O 282.463 -1.40432 -1.29165 0
M  V30 2811 C 279.603 -2.82933 -1.97592 0
M  V30 2812 C 278.716 -4.03289 -1.5486 0
M  V30 2813 C 277.851 -4.55988 -2.72485 0
M  V30 2814 C 276.89 -5.68746 -2.26262 0
M  V30 2815 N 276.027 -6.15938 -3.36994 0
M  V30 2816 H 280.867 -2.9717 -0.222195 0
M  V30 2817 H 278.404 -1.46774 -0.0979422 0
M  V30 2818 H 280.362 -3.18653 -2.69288 0
M  V30 2819 H 278.992 -2.06509 -2.481 0
M  V30 2820 H 278.044 -3.73364 -0.728246 0
M  V30 2821 H 279.356 -4.849 -1.16933 0
M  V30 2822 H 278.51 -4.9391 -3.52332 0
M  V30 2823 H 277.249 -3.73443 -3.13674 0
M  V30 2824 H 276.254 -5.30372 -1.44863 0
M  V30 2825 H 277.479 -6.53095 -1.86127 0
M  V30 2826 H 275.425 -5.36321 -3.77751 0
M  V30 2827 H 275.342 -6.92548 -3.03172 0
M  V30 2828 H 276.61 -6.58511 -4.17114 0
M  V30 2829 N 280.839 0.0985539 -1.57292 0
M  V30 2830 C 281.802 1.10402 -2.00858 0
M  V30 2831 C 282.802 1.33146 -0.901593 0
M  V30 2832 O 283.992 1.29318 -1.16716 0
M  V30 2833 C 281.124 2.45394 -2.36632 0
M  V30 2834 H 282.317 0.729099 -2.90902 0
M  V30 2835 H 279.87 0.343495 -1.52479 0
M  V30 2836 H 280.605 2.87769 -1.49531 0
M  V30 2837 H 280.39 2.30235 -3.17387 0
M  V30 2838 H 281.88 3.17718 -2.71007 0
M  V30 2839 N 282.317 1.53212 0.369288 0
M  V30 2840 C 283.545 1.73119 1.13303 0
M  V30 2841 C 283.96 0.458455 1.83149 0
M  V30 2842 O 283.317 -0.568403 1.73423 0
M  V30 2843 C 283.368 2.89413 2.16616 0
M  V30 2844 O 283.089 4.11761 1.49614 0
M  V30 2845 C 284.59 3.21161 3.05566 0
M  V30 2846 H 281.81 0.579107 0.338934 0
M  V30 2847 H 284.354 1.99942 0.429338 0
M  V30 2848 H 282.509 2.64994 2.82589 0
M  V30 2849 H 282.923 4.76858 2.18419 0
M  V30 2850 H 284.397 4.05949 3.74045 0
M  V30 2851 H 284.874 2.36369 3.70171 0
M  V30 2852 H 285.48 3.47492 2.45213 0
M  V30 2853 N 283.795 -0.628877 1.44509 0
M  V30 2854 C 285.211 -0.947305 1.28446 0
M  V30 2855 C 285.411 -2.00275 0.221872 0
M  V30 2856 O 284.467 -2.49447 -0.391471 0
M  V30 2857 C 285.78 -1.40843 2.65676 0
M  V30 2858 C 287.328 -1.52379 2.73404 0
M  V30 2859 C 287.803 -2.01875 4.11109 0
M  V30 2860 N 289.294 -2.09142 4.13296 0
M  V30 2861 C 290.029 -2.48615 5.16699 0
M  V30 2862 N 289.525 -2.87209 6.30462 0
M  V30 2863 N 291.318 -2.48768 5.04054 0
M  V30 2864 H 283.469 0.0690977 2.12288 0
M  V30 2865 H 285.732 -0.0317164 0.947469 0
M  V30 2866 H 285.438 -0.707206 3.44516 0
M  V30 2867 H 285.312 -2.37902 2.92716 0
M  V30 2868 H 287.699 -2.21598 1.9488 0
M  V30 2869 H 287.78 -0.536898 2.50102 0
M  V30 2870 H 287.424 -1.3325 4.90109 0
M  V30 2871 H 287.354 -3.0144 4.31789 0
M  V30 2872 H 289.845 -1.81991 3.31191 0
M  V30 2873 H 290.158 -3.16149 7.05174 0
M  V30 2874 H 288.503 -2.84955 6.33897 0
M  V30 2875 H 291.694 -2.18009 4.14234 0
M  V30 2876 H 291.867 -2.79207 5.84763 0
M  V30 2877 N 285.273 -1.31445 -0.869486 0
M  V30 2878 C 286.519 -1.21337 -1.62496 0
M  V30 2879 C 286.852 0.227872 -1.92858 0
M  V30 2880 O 286.127 1.16094 -1.56053 0
M  V30 2881 C 286.41 -2.05814 -2.95487 0
M  V30 2882 C 286.263 -3.5824 -2.72 0
M  V30 2883 C 287.582 -1.9079 -3.96594 0
M  V30 2884 H 284.701 -0.442135 -0.589649 0
M  V30 2885 H 287.343 -1.6124 -1.00507 0
M  V30 2886 H 285.493 -1.71913 -3.48394 0
M  V30 2887 H 287.165 -4.0228 -2.25762 0
M  V30 2888 H 285.408 -3.81647 -2.06224 0
M  V30 2889 H 286.079 -4.12657 -3.66631 0
M  V30 2890 H 288.555 -2.20459 -3.52898 0
M  V30 2891 H 287.431 -2.52199 -4.87531 0
M  V30 2892 H 287.692 -0.871341 -4.33428 0
M  V30 2893 N 286.751 1.08385 -1.14413 0
M  V30 2894 C 287.976 1.85057 -0.936413 0
M  V30 2895 C 288.401 1.81055 0.509971 0
M  V30 2896 O 287.759 1.1958 1.36273 0
M  V30 2897 C 287.807 3.30505 -1.44217 0
M  V30 2898 O 286.911 4.07491 -0.634409 0
M  V30 2899 H 286.252 0.573425 -0.334784 0
M  V30 2900 H 288.782 1.36799 -1.52142 0
M  V30 2901 H 288.792 3.81348 -1.45043 0
M  V30 2902 H 287.467 3.32734 -2.49522 0
M  V30 2903 H 286.044 3.66368 -0.694902 0
M  V30 2904 N 288.23 0.939286 1.26551 0
M  V30 2905 C 289.16 0.465044 2.28822 0
M  V30 2906 C 290.141 -0.480692 1.63167 0
M  V30 2907 O 291.326 -0.382955 1.90387 0
M  V30 2908 C 288.456 -0.27234 3.46231 0
M  V30 2909 C 287.41 0.58666 4.2396 0
M  V30 2910 C 286.736 -0.280573 5.33963 0
M  V30 2911 C 288.036 1.85704 4.88171 0
M  V30 2912 H 289.73 1.31979 2.68741 0
M  V30 2913 H 287.276 0.636061 1.29191 0
M  V30 2914 H 289.229 -0.615133 4.16886 0
M  V30 2915 H 287.953 -1.16121 3.0526 0
M  V30 2916 H 286.612 0.91232 3.55067 0
M  V30 2917 H 286.26 -1.16874 4.89234 0
M  V30 2918 H 285.96 0.29076 5.8688 0
M  V30 2919 H 287.484 -0.618678 6.07458 0
M  V30 2920 H 288.898 1.58161 5.51052 0
M  V30 2921 H 287.295 2.37279 5.51197 0
M  V30 2922 H 288.365 2.56957 4.11219 0
M  V30 2923 N 289.708 -1.40897 0.706093 0
M  V30 2924 C 290.64 -2.29199 0.00815776 0
M  V30 2925 C 291.653 -1.45336 -0.733582 0
M  V30 2926 O 292.842 -1.68727 -0.582537 0
M  V30 2927 C 289.942 -3.23417 -1.01265 0
M  V30 2928 C 289.115 -4.36089 -0.338387 0
M  V30 2929 C 288.174 -5.10811 -1.26326 0
M  V30 2930 O 287.2 -5.64215 -0.751651 0
M  V30 2931 N 288.402 -5.19269 -2.595 0
M  V30 2932 H 291.167 -2.89738 0.766297 0
M  V30 2933 H 288.728 -1.52164 0.55296 0
M  V30 2934 H 290.72 -3.70276 -1.63334 0
M  V30 2935 H 289.29 -2.64112 -1.67223 0
M  V30 2936 H 288.51 -3.91479 0.462352 0
M  V30 2937 H 289.798 -5.08634 0.130031 0
M  V30 2938 H 289.196 -4.77347 -3.03573 0
M  V30 2939 H 287.753 -5.69667 -3.16737 0
M  V30 2940 N 291.186 -0.45159 -1.50991 0
M  V30 2941 C 292.434 0.109857 -2.01801 0
M  V30 2942 C 292.755 1.41958 -1.3369 0
M  V30 2943 O 292.025 1.9003 -0.475951 0
M  V30 2944 H 290.605 0.0435884 -0.745727 0
M  V30 2945 H 293.267 -0.597557 -1.85514 0
M  V30 2946 H 292.363 0.275489 -3.10882 0
M  V30 2947 N 292.664 1.56529 -0.183458 0
M  V30 2948 C 294.08 1.58664 0.172554 0
M  V30 2949 C 294.28 1.19925 1.61926 0
M  V30 2950 O 293.336 0.916534 2.35278 0
M  V30 2951 C 294.649 3.00463 -0.119262 0
M  V30 2952 C 296.197 3.12945 -0.0584396 0
M  V30 2953 C 296.672 4.56857 -0.323408 0
M  V30 2954 N 298.163 4.62403 -0.271612 0
M  V30 2955 C 298.898 5.71626 -0.450639 0
M  V30 2956 N 298.394 6.89362 -0.689384 0
M  V30 2957 N 300.187 5.60775 -0.385701 0
M  V30 2958 H 292.338 1.79994 -1.12765 0
M  V30 2959 H 294.601 0.834808 -0.449222 0
M  V30 2960 H 294.307 3.33326 -1.12192 0
M  V30 2961 H 294.181 3.72659 0.583544 0
M  V30 2962 H 296.568 2.79902 0.934805 0
M  V30 2963 H 296.649 2.4316 -0.794144 0
M  V30 2964 H 296.293 4.9061 -1.31392 0
M  V30 2965 H 296.223 5.24816 0.43305 0
M  V30 2966 H 298.714 3.77785 -0.0932256 0
M  V30 2967 H 299.027 7.68489 -0.815113 0
M  V30 2968 H 297.372 6.91196 -0.726142 0
M  V30 2969 H 300.563 4.67674 -0.199687 0
M  V30 2970 H 300.736 6.4584 -0.528646 0
M  V30 2971 N 294.142 -0.090211 1.57342 0
M  V30 2972 C 295.39 -0.791241 1.85967 0
M  V30 2973 C 295.711 -1.7903 0.772859 0
M  V30 2974 O 294.981 -1.94872 -0.200398 0
M  V30 2975 H 293.561 -0.295205 0.686195 0
M  V30 2976 H 296.223 -0.0706782 1.94772 0
M  V30 2977 H 295.319 -1.31882 2.82867 0
M  V30 2978 N 295.62 -1.53406 -0.361157 0
M  V30 2979 C 296.53 -1.83122 -1.4664 0
M  V30 2980 C 297.546 -0.719943 -1.58407 0
M  V30 2981 O 298.722 -1.01046 -1.74218 0
M  V30 2982 C 295.787 -2.01891 -2.81853 0
M  V30 2983 C 294.848 -3.25784 -2.79577 0
M  V30 2984 C 294.081 -3.43648 -4.0834 0
M  V30 2985 O 294.304 -2.65714 -5.0473 0
M  V30 2986 O 293.238 -4.37018 -4.13883 0
M  V30 2987 H 297.064 -2.7703 -1.24451 0
M  V30 2988 H 294.649 -1.38841 -0.551678 0
M  V30 2989 H 296.531 -2.15782 -3.61962 0
M  V30 2990 H 295.206 -1.11173 -3.0401 0
M  V30 2991 H 294.113 -3.17312 -1.98151 0
M  V30 2992 H 295.446 -4.16439 -2.62373 0
M  V30 2993 N 297.098 0.621204 -1.44841 0
M  V30 2994 C 298.046 1.75385 -1.52784 0
M  V30 2995 C 299.04 1.64639 -0.398779 0
M  V30 2996 O 300.246 1.70598 -0.574137 0
M  V30 2997 H 296.621 0.579193 -0.479625 0
M  V30 2998 H 298.592 1.6581 -2.48092 0
M  V30 2999 C 297.341 3.13742 -1.4987 0
M  V30 3000 H 296.664 3.22663 -2.36069 0
M  V30 3001 H 298.104 3.92861 -1.59487 0
M  V30 3002 C 296.563 3.36175 -0.220973 0
M  V30 3003 O 297.093 3.95469 0.704782 0
M  V30 3004 N 295.299 2.90348 -0.120963 0
M  V30 3005 H 294.846 2.42278 -0.875162 0
M  V30 3006 H 294.804 3.05732 0.733168 0
M  V30 3007 N 298.576 1.31904 0.862503 0
M  V30 3008 C 299.524 1.20125 1.9918 0
M  V30 3009 C 300.518 0.107824 1.69056 0
M  V30 3010 O 301.724 0.270223 1.7796 0
M  V30 3011 H 298.099 0.372148 0.65346 0
M  V30 3012 H 300.07 2.15652 2.06244 0
M  V30 3013 C 298.819 0.933099 3.34946 0
M  V30 3014 H 298.142 1.76664 3.5865 0
M  V30 3015 H 299.582 0.890892 4.14535 0
M  V30 3016 C 298.041 -0.364172 3.34926 0
M  V30 3017 O 298.571 -1.37858 3.77304 0
M  V30 3018 N 296.777 -0.383362 2.8806 0
M  V30 3019 H 296.324 0.442651 2.53768 0
M  V30 3020 H 296.282 -1.25123 2.8843 0
M  V30 3021 N 300.054 -1.07777 1.14986 0
M  V30 3022 C 300.964 -2.18404 0.856546 0
M  V30 3023 C 301.98 -1.73211 -0.165485 0
M  V30 3024 O 303.156 -2.01399 0.00755219 0
M  V30 3025 C 300.221 -3.44977 0.34526 0
M  V30 3026 C 299.282 -4.0476 1.43065 0
M  V30 3027 C 298.515 -5.25291 0.943663 0
M  V30 3028 O 298.738 -5.70004 -0.212426 0
M  V30 3029 O 297.672 -5.76638 1.72547 0
M  V30 3030 H 301.498 -2.45978 1.78125 0
M  V30 3031 H 299.083 -1.17033 0.928631 0
M  V30 3032 H 300.965 -4.21348 0.0663671 0
M  V30 3033 H 299.64 -3.18965 -0.551631 0
M  V30 3034 H 298.547 -3.29949 1.76309 0
M  V30 3035 H 299.88 -4.35035 2.30229 0
M  V30 3036 N 301.532 -0.945985 -1.26051 0
M  V30 3037 C 302.462 -0.477172 -2.28572 0
M  V30 3038 C 303.443 0.472032 -1.63419 0
M  V30 3039 O 304.628 0.372853 -1.90587 0
M  V30 3040 C 301.758 0.253975 -3.4637 0
M  V30 3041 C 300.712 -0.609135 -4.23643 0
M  V30 3042 C 300.038 0.252252 -5.34105 0
M  V30 3043 C 301.338 -1.8829 -4.8718 0
M  V30 3044 H 303.032 -1.33402 -2.68038 0
M  V30 3045 H 300.578 -0.642904 -1.28852 0
M  V30 3046 H 302.531 0.593016 -4.17207 0
M  V30 3047 H 301.255 1.145 -3.05871 0
M  V30 3048 H 299.914 -0.931138 -3.54578 0
M  V30 3049 H 299.562 1.14278 -4.89846 0
M  V30 3050 H 299.262 -0.32188 -5.86718 0
M  V30 3051 H 300.786 0.586454 -6.07777 0
M  V30 3052 H 302.2 -1.61081 -5.50205 0
M  V30 3053 H 300.597 -2.40199 -5.49931 0
M  V30 3054 H 301.667 -2.59134 -4.09851 0
M  V30 3055 N 303.011 1.40521 -0.713556 0
M  V30 3056 C 303.941 2.33381 -0.0743864 0
M  V30 3057 C 304.922 1.52784 0.747735 0
M  V30 3058 O 306.107 1.81258 0.697071 0
M  V30 3059 C 303.237 3.36748 0.849598 0
M  V30 3060 C 302.191 4.27793 0.133247 0
M  V30 3061 C 301.517 5.21679 1.17281 0
M  V30 3062 C 302.817 5.12415 -1.01134 0
M  V30 3063 H 304.511 2.87081 -0.850007 0
M  V30 3064 H 302.057 1.38034 -0.410201 0
M  V30 3065 H 304.01 4.00648 1.30612 0
M  V30 3066 H 302.734 2.81439 1.65709 0
M  V30 3067 H 301.393 3.65342 -0.303426 0
M  V30 3068 H 301.041 4.62677 1.9733 0
M  V30 3069 H 300.741 5.83435 0.698397 0
M  V30 3070 H 302.265 5.88456 1.62947 0
M  V30 3071 H 303.679 5.69781 -0.634274 0
M  V30 3072 H 302.076 5.83203 -1.41399 0
M  V30 3073 H 303.146 4.48514 -1.84292 0
M  V30 3074 N 304.489 0.459591 1.5075 0
M  V30 3075 C 305.436 -0.340524 2.28274 0
M  V30 3076 C 306.406 -0.997371 1.32822 0
M  V30 3077 O 307.591 -1.01202 1.61749 0
M  V30 3078 C 304.731 -1.42317 3.14388 0
M  V30 3079 C 303.844 -0.782251 4.24859 0
M  V30 3080 C 302.979 -1.84182 4.98247 0
M  V30 3081 C 302.018 -1.18053 6.00608 0
M  V30 3082 N 301.155 -2.18244 6.67319 0
M  V30 3083 H 305.995 0.326899 2.96202 0
M  V30 3084 H 303.532 0.173057 1.46078 0
M  V30 3085 H 305.49 -2.06241 3.62658 0
M  V30 3086 H 304.12 -2.05992 2.4853 0
M  V30 3087 H 303.172 -0.0307404 3.80388 0
M  V30 3088 H 304.484 -0.259663 4.98124 0
M  V30 3089 H 303.638 -2.55714 5.50177 0
M  V30 3090 H 302.377 -2.39819 4.24662 0
M  V30 3091 H 301.382 -0.450776 5.47949 0
M  V30 3092 H 302.607 -0.631202 6.7616 0
M  V30 3093 H 300.553 -2.72919 5.96533 0
M  V30 3094 H 300.47 -1.70938 7.36421 0
M  V30 3095 H 301.738 -2.89191 7.23871 0
M  V30 3096 N 305.967 -1.56429 0.191757 0
M  V30 3097 C 306.877 -2.22541 -0.742481 0
M  V30 3098 C 307.893 -1.22342 -1.23727 0
M  V30 3099 O 309.069 -1.55069 -1.28513 0
M  V30 3100 C 306.134 -2.8692 -1.94623 0
M  V30 3101 C 305.195 -4.02378 -1.49633 0
M  V30 3102 C 304.428 -4.63678 -2.6427 0
M  V30 3103 O 304.651 -4.23895 -3.81666 0
M  V30 3104 O 303.585 -5.53202 -2.37174 0
M  V30 3105 H 307.411 -3.02977 -0.209462 0
M  V30 3106 H 304.996 -1.49353 -0.0373832 0
M  V30 3107 H 306.878 -3.27663 -2.64982 0
M  V30 3108 H 305.553 -2.09466 -2.46791 0
M  V30 3109 H 304.46 -3.66265 -0.761636 0
M  V30 3110 H 305.793 -4.81487 -1.02134 0
M  V30 3111 N 307.445 0.0818655 -1.57387 0
M  V30 3112 C 308.694 0.781681 -1.85937 0
M  V30 3113 C 309.007 1.79246 -0.782957 0
M  V30 3114 O 310.213 2.54112 -0.955987 0
M  V30 3115 C 308.669 1.44109 -3.29789 0
M  V30 3116 C 308.277 0.469396 -4.45534 0
M  V30 3117 C 310.021 2.12386 -3.67549 0
M  V30 3118 C 307.928 1.13415 -5.80423 0
M  V30 3119 H 306.858 0.295682 -0.693605 0
M  V30 3120 H 309.509 0.0348051 -1.83467 0
M  V30 3121 H 307.891 2.23588 -3.2684 0
M  V30 3122 H 309.065 -0.294856 -4.59856 0
M  V30 3123 H 307.38 -0.108383 -4.16259 0
M  V30 3124 H 309.977 2.62878 -4.65617 0
M  V30 3125 H 310.32 2.91877 -2.96839 0
M  V30 3126 H 310.853 1.39751 -3.72444 0
M  V30 3127 H 307.592 0.379771 -6.54399 0
M  V30 3128 H 307.112 1.8695 -5.69921 0
M  V30 3129 H 308.791 1.65686 -6.25426 0
M  V30 3130 N 308.923 1.53595 0.353017 0
M  V30 3131 C 309.833 1.83897 1.45667 0
M  V30 3132 C 310.849 0.728334 1.58023 0
M  V30 3133 O 312.025 1.01968 1.73679 0
M  V30 3134 C 309.09 2.03383 2.80778 0
M  V30 3135 C 308.151 3.27262 2.77845 0
M  V30 3136 C 307.384 3.45809 4.06512 0
M  V30 3137 O 307.607 2.68387 5.03314 0
M  V30 3138 O 306.541 4.39207 4.11559 0
M  V30 3139 H 310.367 2.77686 1.2298 0
M  V30 3140 H 307.952 1.39132 0.544308 0
M  V30 3141 H 309.834 2.17698 3.60812 0
M  V30 3142 H 308.509 1.12783 3.03417 0
M  V30 3143 H 307.416 3.18359 1.96465 0
M  V30 3144 H 308.749 4.17824 2.60161 0
M  V30 3145 N 310.401 -0.613514 1.45168 0
M  V30 3146 C 311.812 -1.19539 1.43413 0
M  V30 3147 C 312.163 -1.95558 0.158632 0
M  V30 3148 O 311.288 -2.0335 -0.740119 0
M  V30 3149 C 311.883 -2.17445 2.59813 0
M  V30 3150 C 310.442 -2.71022 2.61197 0
M  V30 3151 C 309.589 -1.46323 2.35552 0
M  V30 3152 H 312.54 -0.403163 1.53494 0
M  V30 3153 H 312.561 -3.00373 2.33574 0
M  V30 3154 H 312.073 -1.62089 3.52631 0
M  V30 3155 H 310.174 -3.30332 1.7237 0
M  V30 3156 H 310.287 -3.15859 3.60236 0
M  V30 3157 H 308.651 -1.75072 1.84992 0
M  V30 3158 H 309.434 -0.92844 3.30507 0
M  V30 3159 N 311.879 -1.3236 -0.855495 0
M  V30 3160 C 313.125 -1.23054 -1.612 0
M  V30 3161 C 313.458 0.207404 -1.93089 0
M  V30 3162 O 312.733 1.14432 -1.57275 0
M  V30 3163 C 313.016 -2.08937 -2.93287 0
M  V30 3164 C 312.869 -3.61105 -2.68185 0
M  V30 3165 C 314.188 -1.94986 -3.94549 0
M  V30 3166 H 311.307 -0.448364 -0.584926 0
M  V30 3167 H 313.949 -1.62297 -0.987917 0
M  V30 3168 H 312.099 -1.75599 -3.46551 0
M  V30 3169 H 313.771 -4.04652 -2.21483 0
M  V30 3170 H 312.014 -3.83813 -2.02164 0
M  V30 3171 H 312.685 -4.16522 -3.62234 0
M  V30 3172 H 315.161 -2.24189 -3.5054 0
M  V30 3173 H 314.037 -2.57356 -4.84829 0
M  V30 3174 H 314.298 -0.917263 -4.3248 0
M  V30 3175 N 313.357 1.07166 -1.15556 0
M  V30 3176 C 314.287 2.16403 -0.877046 0
M  V30 3177 C 315.268 1.69217 0.173111 0
M  V30 3178 O 316.453 1.94181 0.027084 0
M  V30 3179 C 313.583 3.45349 -0.367632 0
M  V30 3180 C 312.537 4.05995 -1.35468 0
M  V30 3181 C 311.863 5.30045 -0.704038 0
M  V30 3182 C 313.163 4.45804 -2.72132 0
M  V30 3183 H 314.857 2.39959 -1.79053 0
M  V30 3184 H 312.403 1.15325 -0.862331 0
M  V30 3185 H 314.356 4.21095 -0.160317 0
M  V30 3186 H 313.08 3.21385 0.581326 0
M  V30 3187 H 311.739 3.32296 -1.54839 0
M  V30 3188 H 311.387 5.02373 0.251128 0
M  V30 3189 H 311.087 5.71579 -1.36277 0
M  V30 3190 H 312.611 6.08495 -0.50654 0
M  V30 3191 H 314.025 5.12671 -2.56595 0
M  V30 3192 H 312.422 4.98296 -3.34397 0
M  V30 3193 H 313.492 3.57083 -3.28054 0
M  V30 3194 N 314.835 0.952656 1.25548 0
M  V30 3195 C 316.06 0.623025 1.97821 0
M  V30 3196 C 316.485 -0.7976 1.70352 0
M  V30 3197 O 315.843 -1.53905 0.958283 0
M  V30 3198 C 315.891 0.885532 3.49558 0
M  V30 3199 O 314.995 -0.0366641 4.12384 0
M  V30 3200 H 314.336 0.237082 0.620232 0
M  V30 3201 H 316.866 1.27871 1.59719 0
M  V30 3202 H 316.876 0.811009 3.99858 0
M  V30 3203 H 315.551 1.92094 3.6888 0
M  V30 3204 H 314.128 0.0898954 3.72792 0
M  V30 3205 N 316.313 -1.40141 0.720998 0
M  V30 3206 C 317.243 -2.33339 0.0867621 0
M  V30 3207 C 318.224 -1.53178 -0.739622 0
M  V30 3208 O 319.409 -1.81625 -0.687449 0
M  V30 3209 C 316.539 -3.37194 -0.831728 0
M  V30 3210 C 315.493 -4.27857 -0.110558 0
M  V30 3211 C 314.819 -5.22294 -1.14513 0
M  V30 3212 C 316.119 -5.11872 1.0385 0
M  V30 3213 H 317.813 -2.86626 0.865219 0
M  V30 3214 H 315.359 -1.37814 0.417516 0
M  V30 3215 H 317.312 -4.01335 -1.28485 0
M  V30 3216 H 316.036 -2.82314 -1.64214 0
M  V30 3217 H 314.695 -3.65176 0.322797 0
M  V30 3218 H 314.343 -4.63717 -1.94874 0
M  V30 3219 H 314.043 -5.83797 -0.667446 0
M  V30 3220 H 315.567 -5.89312 -1.59824 0
M  V30 3221 H 316.981 -5.69436 0.664482 0
M  V30 3222 H 315.378 -5.82445 1.4449 0
M  V30 3223 H 316.448 -4.4753 1.86668 0
M  V30 3224 N 317.792 -0.46758 -1.50504 0
M  V30 3225 C 318.722 0.318381 -2.31319 0
M  V30 3226 C 319.703 0.993564 -1.38066 0
M  V30 3227 O 320.888 0.991411 -1.66987 0
M  V30 3228 C 318.018 1.40275 -3.17711 0
M  V30 3229 C 316.972 0.849373 -4.19487 0
M  V30 3230 C 316.298 2.03177 -4.94594 0
M  V30 3231 C 317.598 -0.136942 -5.2212 0
M  V30 3232 H 319.292 -0.356106 -2.97275 0
M  V30 3233 H 316.838 -0.172703 -1.42961 0
M  V30 3234 H 318.791 1.96004 -3.73042 0
M  V30 3235 H 317.515 2.10596 -2.49634 0
M  V30 3236 H 316.174 0.314076 -3.65252 0
M  V30 3237 H 315.822 2.72187 -4.22993 0
M  V30 3238 H 315.522 1.66774 -5.63436 0
M  V30 3239 H 317.046 2.59403 -5.52759 0
M  V30 3240 H 318.46 0.331056 -5.72343 0
M  V30 3241 H 316.857 -0.41507 -5.98663 0
M  V30 3242 H 317.927 -1.06398 -4.73083 0
M  V30 3243 N 319.27 1.56325 -0.20005 0
M  V30 3244 C 320.498 2.02105 0.442874 0
M  V30 3245 C 320.913 1.08014 1.5485 0
M  V30 3246 O 320.27 0.0858797 1.82298 0
M  V30 3247 C 320.321 3.47549 0.994583 0
M  V30 3248 O 320.042 4.38049 -0.0669322 0
M  V30 3249 C 321.543 4.0887 1.7129 0
M  V30 3250 H 318.763 0.661807 0.110691 0
M  V30 3251 H 321.307 2.02134 -0.310207 0
M  V30 3252 H 319.462 3.48204 1.69803 0
M  V30 3253 H 319.876 5.23368 0.344462 0
M  V30 3254 H 321.35 5.12475 2.05118 0
M  V30 3255 H 321.827 3.52615 2.61838 0
M  V30 3256 H 322.433 4.12002 1.05518 0
M  V30 3257 N 320.748 -0.0735177 1.57428 0
M  V30 3258 C 321.973 -0.789787 1.91774 0
M  V30 3259 C 322.398 -1.70413 0.796306 0
M  V30 3260 O 321.756 -1.79555 -0.250961 0
M  V30 3261 C 321.804 -1.5609 3.25067 0
M  V30 3262 O 320.908 -2.67144 3.14178 0
M  V30 3263 H 320.249 -0.215582 0.628029 0
M  V30 3264 H 322.779 -0.0422781 2.04556 0
M  V30 3265 H 322.789 -1.94052 3.58898 0
M  V30 3266 H 321.464 -0.890015 4.06265 0
M  V30 3267 H 320.041 -2.32052 2.91901 0
M  V30 3268 N 322.226 -1.5378 -0.344866 0
M  V30 3269 C 323.474 -1.70625 -1.08311 0
M  V30 3270 C 323.795 -0.471447 -1.89215 0
M  V30 3271 O 323.065 0.514616 -1.8902 0
M  V30 3272 H 321.645 -0.629058 -0.402859 0
M  V30 3273 H 324.307 -1.9103 -0.386459 0
M  V30 3274 H 323.403 -2.57656 -1.76124 0
M  V30 3275 N 323.704 0.605807 -1.45491 0
M  V30 3276 C 324.929 1.39625 -1.53361 0
M  V30 3277 C 325.354 1.87351 -0.167645 0
M  V30 3278 O 324.712 1.60243 0.848051 0
M  V30 3279 C 324.76 2.57559 -2.5238 0
M  V30 3280 O 323.864 3.58248 -2.04285 0
M  V30 3281 H 323.205 0.416771 -0.516912 0
M  V30 3282 H 325.735 0.737103 -1.90861 0
M  V30 3283 H 325.745 3.0478 -2.71244 0
M  V30 3284 H 324.42 2.22171 -3.51586 0
M  V30 3285 H 322.997 3.17664 -1.95305 0
M  V30 3286 N 325.182 1.32811 0.848464 0
M  V30 3287 C 326.598 1.11937 1.13764 0
M  V30 3288 C 326.798 -0.0960789 2.01271 0
M  V30 3289 O 325.854 -0.779165 2.40178 0
M  V30 3290 C 327.167 2.402 1.809 0
M  V30 3291 C 328.715 2.46016 1.93508 0
M  V30 3292 C 329.19 3.74215 2.64059 0
M  V30 3293 N 330.681 3.75232 2.71579 0
M  V30 3294 C 331.416 4.71134 3.26833 0
M  V30 3295 N 330.912 5.77406 3.8285 0
M  V30 3296 N 332.705 4.58623 3.24995 0
M  V30 3297 H 324.856 2.1073 0.265855 0
M  V30 3298 H 327.119 0.930671 0.180431 0
M  V30 3299 H 326.825 3.29093 1.24058 0
M  V30 3300 H 326.699 2.51628 2.81004 0
M  V30 3301 H 329.086 1.57577 2.49506 0
M  V30 3302 H 329.167 2.38536 0.923811 0
M  V30 3303 H 328.811 4.63031 2.08722 0
M  V30 3304 H 328.741 3.78968 3.65637 0
M  V30 3305 H 331.232 2.98423 2.31845 0
M  V30 3306 H 331.545 6.46632 4.23187 0
M  V30 3307 H 329.89 5.81152 3.81165 0
M  V30 3308 H 333.081 3.74762 2.80484 0
M  V30 3309 H 333.254 5.33535 3.67756 0
M  V30 3310 N 326.66 -1.06551 1.16123 0
M  V30 3311 C 327.908 -1.78947 0.939267 0
M  V30 3312 C 328.229 -1.87532 -0.534476 0
M  V30 3313 O 327.499 -1.38211 -1.38833 0
M  V30 3314 H 326.079 -0.662807 0.344523 0
M  V30 3315 H 328.741 -1.28725 1.46342 0
M  V30 3316 H 327.837 -2.81117 1.35572 0
M  V30 3317 N 328.138 -0.959301 -1.25041 0
M  V30 3318 C 329.384 -0.617525 -1.9317 0
M  V30 3319 C 329.717 0.843981 -1.74902 0
M  V30 3320 O 328.992 1.60615 -1.09696 0
M  V30 3321 C 329.275 -0.982736 -3.46431 0
M  V30 3322 C 329.128 -2.50032 -3.73904 0
M  V30 3323 C 330.447 -0.511176 -4.37121 0
M  V30 3324 H 327.566 -0.22582 -0.701552 0
M  V30 3325 H 330.208 -1.19679 -1.4757 0
M  V30 3326 H 328.358 -0.489806 -3.854 0
M  V30 3327 H 330.03 -3.06737 -3.44544 0
M  V30 3328 H 328.273 -2.93598 -3.19348 0
M  V30 3329 H 328.944 -2.70635 -4.81103 0
M  V30 3330 H 331.42 -0.934075 -4.0548 0
M  V30 3331 H 330.296 -0.795361 -5.43107 0
M  V30 3332 H 330.557 0.588834 -4.38161 0
M  V30 3333 N 329.616 1.39756 -0.72842 0
M  V30 3334 C 330.563 2.30647 -0.0841519 0
M  V30 3335 C 331.533 1.48869 0.7367 0
M  V30 3336 O 332.718 1.77574 0.698015 0
M  V30 3337 C 329.858 3.35165 0.822091 0
M  V30 3338 C 328.971 4.31999 -0.0106663 0
M  V30 3339 C 328.106 5.23585 0.896241 0
M  V30 3340 C 327.145 6.12072 0.0583381 0
M  V30 3341 N 326.282 6.96035 0.920818 0
M  V30 3342 H 331.122 2.85173 -0.864891 0
M  V30 3343 H 328.659 1.40422 -0.438179 0
M  V30 3344 H 330.617 3.94345 1.36189 0
M  V30 3345 H 329.247 2.8211 1.56888 0
M  V30 3346 H 328.299 3.74492 -0.66781 0
M  V30 3347 H 329.611 4.9443 -0.658825 0
M  V30 3348 H 328.765 5.87759 1.50412 0
M  V30 3349 H 327.504 4.61459 1.57819 0
M  V30 3350 H 326.509 5.46916 -0.562389 0
M  V30 3351 H 327.734 6.76261 -0.6203 0
M  V30 3352 H 325.68 6.36485 1.58818 0
M  V30 3353 H 325.597 7.55284 0.32899 0
M  V30 3354 H 326.865 7.64646 1.51447 0
M  V30 3355 N 331.094 0.475555 1.50254 0
M  V30 3356 C 332.342 -0.077738 2.0195 0
M  V30 3357 C 332.663 -1.39813 1.35931 0
M  V30 3358 O 331.933 -1.89249 0.506123 0
M  V30 3359 H 330.513 -0.031719 0.746326 0
M  V30 3360 H 333.175 0.626995 1.84539 0
M  V30 3361 H 332.271 -0.225995 3.11281 0
M  V30 3362 N 332.573 -1.56217 0.208337 0
M  V30 3363 C 333.821 -1.97558 -0.426076 0
M  V30 3364 C 334.142 -1.09683 -1.61229 0
M  V30 3365 O 333.412 -0.170956 -1.95153 0
M  V30 3366 H 331.992 -0.729575 -0.160405 0
M  V30 3367 H 334.654 -1.92606 0.298155 0
M  V30 3368 H 333.75 -3.02672 -0.761312 0
M  V30 3369 N 334.051 0.0651679 -1.57465 0
M  V30 3370 C 335.014 1.06117 -2.03155 0
M  V30 3371 C 336.014 1.31204 -0.929632 0
M  V30 3372 O 337.204 1.26813 -1.19432 0
M  V30 3373 C 334.336 2.4032 -2.41783 0
M  V30 3374 H 335.529 0.667231 -2.92383 0
M  V30 3375 H 333.082 0.311075 -1.53173 0
M  V30 3376 H 333.817 2.84532 -1.55601 0
M  V30 3377 H 333.602 2.23451 -3.22199 0
M  V30 3378 H 335.092 3.11898 -2.77685 0
M  V30 3379 N 335.529 1.53961 0.336706 0
M  V30 3380 C 336.94 1.62914 0.911925 0
M  V30 3381 C 337.291 0.514795 1.89326 0
M  V30 3382 O 336.416 -0.354395 2.13478 0
M  V30 3383 C 337.011 2.95304 1.66076 0
M  V30 3384 C 335.57 3.06496 2.18489 0
M  V30 3385 C 334.717 2.58403 1.00613 0
M  V30 3386 H 337.668 1.58285 0.114649 0
M  V30 3387 H 337.689 2.84727 2.5241 0
M  V30 3388 H 337.201 3.76387 0.946276 0
M  V30 3389 H 335.302 2.3006 2.93092 0
M  V30 3390 H 335.415 4.1208 2.44391 0
M  V30 3391 H 333.779 2.13977 1.38152 0
M  V30 3392 H 334.562 3.41932 0.306179 0
M  V30 3393 N 337.007 -0.598083 1.45811 0
M  V30 3394 C 337.97 -1.69018 1.54808 0
M  V30 3395 C 338.97 -1.55037 0.426652 0
M  V30 3396 O 340.16 -1.59932 0.690456 0
M  V30 3397 C 337.292 -3.0835 1.45371 0
M  V30 3398 H 338.485 -1.62403 2.52121 0
M  V30 3399 H 336.038 -0.814626 1.33392 0
M  V30 3400 H 336.773 -3.20534 0.492793 0
M  V30 3401 H 336.558 -3.19907 2.26721 0
M  V30 3402 H 338.048 -3.8788 1.54721 0
M  V30 3403 N 338.485 -1.33259 -0.841409 0
M  V30 3404 C 339.432 -1.23302 -1.95103 0
M  V30 3405 C 340.402 -0.112204 -1.65721 0
M  V30 3406 O 341.587 -0.290038 -1.88583 0
M  V30 3407 C 338.727 -0.975583 -3.31023 0
M  V30 3408 C 337.84 -2.18243 -3.72819 0
M  V30 3409 C 336.975 -1.85936 -4.97595 0
M  V30 3410 C 336.014 -3.02866 -5.3192 0
M  V30 3411 N 335.151 -2.70565 -6.47873 0
M  V30 3412 H 339.991 -2.18207 -2.02952 0
M  V30 3413 H 337.528 -1.0851 -0.993173 0
M  V30 3414 H 339.486 -0.80677 -4.09325 0
M  V30 3415 H 338.116 -0.0632755 -3.22738 0
M  V30 3416 H 337.168 -2.46107 -2.90061 0
M  V30 3417 H 338.48 -3.05666 -3.94169 0
M  V30 3418 H 337.634 -1.65684 -5.83638 0
M  V30 3419 H 336.373 -0.957452 -4.78209 0
M  V30 3420 H 335.378 -3.23736 -4.44382 0
M  V30 3421 H 336.603 -3.93809 -5.53255 0
M  V30 3422 H 334.549 -1.8293 -6.29978 0
M  V30 3423 H 334.466 -3.51519 -6.69306 0
M  V30 3424 H 335.734 -2.53774 -7.37034 0
M  V30 3425 N 339.963 1.05934 -1.16686 0
M  V30 3426 C 340.926 2.11669 -0.879144 0
M  V30 3427 C 341.926 1.60294 0.127445 0
M  V30 3428 O 343.116 1.7389 -0.103865 0
M  V30 3429 C 340.248 3.39438 -0.315425 0
M  V30 3430 H 341.441 2.38626 -1.81653 0
M  V30 3431 H 338.994 1.22058 -0.976299 0
M  V30 3432 H 339.729 3.18132 0.629468 0
M  V30 3433 H 339.514 3.78034 -1.04079 0
M  V30 3434 H 341.004 4.17391 -0.132189 0
M  V30 3435 N 341.441 0.965919 1.2453 0
M  V30 3436 C 342.351 0.502154 2.29163 0
M  V30 3437 C 343.367 -0.436017 1.68448 0
M  V30 3438 O 344.543 -0.309497 1.99008 0
M  V30 3439 C 341.608 -0.201956 3.46111 0
M  V30 3440 C 340.669 0.775821 4.22232 0
M  V30 3441 C 339.902 0.105217 5.33596 0
M  V30 3442 O 340.125 -1.10683 5.59558 0
M  V30 3443 O 339.059 0.796475 5.96607 0
M  V30 3444 H 342.885 1.37194 2.70946 0
M  V30 3445 H 340.47 0.732875 1.30189 0
M  V30 3446 H 342.352 -0.597564 4.17142 0
M  V30 3447 H 341.027 -1.04673 3.06309 0
M  V30 3448 H 339.934 1.22185 3.53584 0
M  V30 3449 H 341.267 1.58896 4.65846 0
M  V30 3450 N 342.919 -1.39368 0.735821 0
M  V30 3451 C 343.852 -2.28155 0.0451175 0
M  V30 3452 C 344.83 -1.44433 -0.746852 0
M  V30 3453 O 346.014 -1.73823 -0.729237 0
M  V30 3454 C 343.141 -3.253 -0.943266 0
M  V30 3455 C 342.187 -4.25826 -0.239685 0
M  V30 3456 S 343.02 -5.25166 1.04693 0
M  V30 3457 C 344.176 -6.2587 0.0611639 0
M  V30 3458 H 344.409 -2.86388 0.79807 0
M  V30 3459 H 341.942 -1.45104 0.527653 0
M  V30 3460 H 343.9 -3.81789 -1.50824 0
M  V30 3461 H 342.561 -2.66085 -1.66906 0
M  V30 3462 H 341.754 -4.94229 -0.987596 0
M  V30 3463 H 341.356 -3.73141 0.253274 0
M  V30 3464 H 343.648 -6.73007 -0.778941 0
M  V30 3465 H 344.591 -7.04508 0.712362 0
M  V30 3466 H 344.999 -5.63639 -0.311602 0
M  V30 3467 N 344.397 -0.483516 -1.5 0
M  V30 3468 C 345.344 0.304164 -2.28787 0
M  V30 3469 C 346.314 0.976114 -1.34392 0
M  V30 3470 O 347.499 0.986156 -1.63339 0
M  V30 3471 C 344.639 1.37298 -3.16612 0
M  V30 3472 C 343.752 0.714561 -4.26049 0
M  V30 3473 C 342.887 1.76232 -5.01114 0
M  V30 3474 C 341.926 1.08483 -6.0241 0
M  V30 3475 N 341.063 2.076 -6.70706 0
M  V30 3476 H 345.903 -0.373981 -2.95644 0
M  V30 3477 H 343.44 -0.196275 -1.45785 0
M  V30 3478 H 345.398 2.00445 -3.65893 0
M  V30 3479 H 344.028 2.02012 -2.51776 0
M  V30 3480 H 343.08 -0.0297798 -3.80388 0
M  V30 3481 H 344.392 0.180383 -4.98474 0
M  V30 3482 H 343.546 2.46929 -5.54176 0
M  V30 3483 H 342.285 2.33033 -4.28424 0
M  V30 3484 H 341.29 0.363545 -5.48597 0
M  V30 3485 H 342.515 0.523551 -6.77079 0
M  V30 3486 H 340.461 2.63394 -6.00799 0
M  V30 3487 H 340.378 1.59201 -7.39047 0
M  V30 3488 H 341.646 2.77639 -7.2838 0
M  V30 3489 N 345.875 1.56104 -0.216619 0
M  V30 3490 C 347.152 1.89988 0.465165 0
M  V30 3491 C 347.532 1.13326 1.78102 0
M  V30 3492 O 346.88 0.241033 2.27225 0
M  V30 3493 C 347.09 3.42646 0.662939 0
M  V30 3494 C 348.438 4.13311 0.972602 0
M  V30 3495 O 349.462 3.48217 0.749901 0
M  V30 3496 O 348.321 5.28396 1.39499 0
M  V30 3497 H 345.415 0.78979 0.245276 0
M  V30 3498 H 347.961 1.67721 -0.258436 0
M  V30 3499 H 346.733 3.90399 -0.26543 0
M  V30 3500 H 346.356 3.70677 1.43821 0
M  V30 3501 N 347.353 -0.0568162 1.57498 0
M  V30 3502 C 348.286 -1.09817 2.00039 0
M  V30 3503 C 349.264 -1.3674 0.879819 0
M  V30 3504 O 350.448 -1.49863 1.14338 0
M  V30 3505 C 347.575 -2.43924 2.34986 0
M  V30 3506 C 346.621 -2.33039 3.57204 0
M  V30 3507 S 347.454 -1.7102 5.07457 0
M  V30 3508 C 348.61 -3.06674 5.45621 0
M  V30 3509 H 348.843 -0.735701 2.88053 0
M  V30 3510 H 346.376 -0.265871 1.52094 0
M  V30 3511 H 348.334 -3.2106 2.55795 0
M  V30 3512 H 346.995 -2.77327 1.47474 0
M  V30 3513 H 346.188 -3.31973 3.79223 0
M  V30 3514 H 345.79 -1.64043 3.36104 0
M  V30 3515 H 348.082 -4.03 5.44608 0
M  V30 3516 H 349.025 -2.8942 6.46252 0
M  V30 3517 H 349.433 -3.07969 4.73091 0
M  V30 3518 N 348.832 -1.54138 -0.328536 0
M  V30 3519 C 350.08 -1.71765 -1.06496 0
M  V30 3520 C 350.401 -0.49149 -1.88704 0
M  V30 3521 O 349.671 0.494539 -1.89555 0
M  V30 3522 H 348.251 -0.633295 -0.396164 0
M  V30 3523 H 350.913 -1.91429 -0.366176 0
M  V30 3524 H 350.009 -2.5951 -1.73381 0
M  V30 3525 N 350.31 0.590341 -1.46126 0
M  V30 3526 C 351.559 1.34499 -1.50309 0
M  V30 3527 C 351.872 1.94977 -0.156021 0
M  V30 3528 O 353.078 2.71395 -0.0756037 0
M  V30 3529 C 351.534 2.43723 -2.64815 0
M  V30 3530 C 351.142 1.89582 -4.0591 0
M  V30 3531 C 352.886 3.20579 -2.78262 0
M  V30 3532 C 350.793 2.9639 -5.11769 0
M  V30 3533 H 349.723 0.505593 -0.559368 0
M  V30 3534 H 352.374 0.630848 -1.72315 0
M  V30 3535 H 350.756 3.17902 -2.36124 0
M  V30 3536 H 351.93 1.21997 -4.44357 0
M  V30 3537 H 350.245 1.25418 -3.97063 0
M  V30 3538 H 352.842 4.00276 -3.54519 0
M  V30 3539 H 353.185 3.72684 -1.85505 0
M  V30 3540 H 353.718 2.53505 -3.06562 0
M  V30 3541 H 350.457 2.49181 -6.06291 0
M  V30 3542 H 349.977 3.62487 -4.77873 0
M  V30 3543 H 351.656 3.60474 -5.37278 0
M  V30 3544 N 351.788 1.33704 0.83433 0
M  V30 3545 C 352.72 1.20172 1.9517 0
M  V30 3546 C 353.733 0.131572 1.62267 0
M  V30 3547 O 354.922 0.382406 1.74356 0
M  V30 3548 C 352.022 0.821716 3.28787 0
M  V30 3549 C 351.195 1.98446 3.89792 0
M  V30 3550 C 350.254 1.58469 5.01771 0
M  V30 3551 O 349.28 2.29968 5.20676 0
M  V30 3552 N 350.482 0.492291 5.78409 0
M  V30 3553 H 353.247 2.16429 2.07313 0
M  V30 3554 H 350.808 1.26509 1.0103 0
M  V30 3555 H 352.8 0.536291 4.01131 0
M  V30 3556 H 351.37 -0.0503058 3.1256 0
M  V30 3557 H 350.59 2.43526 3.09982 0
M  V30 3558 H 351.878 2.76236 4.27283 0
M  V30 3559 H 351.276 -0.102349 5.65607 0
M  V30 3560 H 349.833 0.266555 6.51255 0
M  V30 3561 N 353.266 -1.05314 1.17247 0
M  V30 3562 C 354.512 -1.78557 0.961513 0
M  V30 3563 C 354.845 -1.87419 -0.508697 0
M  V30 3564 O 354.12 -1.37307 -1.37757 0
M  V30 3565 C 354.403 -3.22514 1.60176 0
M  V30 3566 C 354.256 -3.21673 3.14399 0
M  V30 3567 C 355.575 -4.20318 1.30463 0
M  V30 3568 H 352.694 -0.6482 0.350723 0
M  V30 3569 H 355.336 -1.23102 1.44727 0
M  V30 3570 H 353.486 -3.69867 1.18871 0
M  V30 3571 H 355.158 -2.82405 3.64753 0
M  V30 3572 H 353.401 -2.60048 3.47214 0
M  V30 3573 H 354.072 -4.23271 3.54324 0
M  V30 3574 H 356.548 -3.81454 1.66229 0
M  V30 3575 H 355.424 -5.19289 1.77848 0
M  V30 3576 H 355.685 -4.41526 0.22521 0
M  V30 3577 N 354.744 -0.972509 -1.24016 0
M  V30 3578 C 356.021 -0.553733 -1.87598 0
M  V30 3579 C 356.401 0.969158 -1.87538 0
M  V30 3580 O 355.749 1.84255 -1.35139 0
M  V30 3581 C 355.959 -1.15076 -3.29482 0
M  V30 3582 C 357.307 -1.23862 -4.06132 0
M  V30 3583 O 358.331 -1.10363 -3.38672 0
M  V30 3584 O 357.19 -1.45252 -5.26844 0
M  V30 3585 H 354.284 -0.185331 -0.805966 0
M  V30 3586 H 356.83 -1.06709 -1.31952 0
M  V30 3587 H 355.602 -2.19333 -3.2405 0
M  V30 3588 H 355.225 -0.621746 -3.92709 0
M  V30 3589 N 356.222 1.38976 -0.743202 0
M  V30 3590 C 357.638 1.53984 -0.419664 0
M  V30 3591 C 357.838 1.70837 1.0685 0
M  V30 3592 O 356.894 1.7135 1.8546 0
M  V30 3593 C 358.207 2.75287 -1.20985 0
M  V30 3594 C 359.755 2.89129 -1.19889 0
M  V30 3595 C 360.23 4.13381 -1.97181 0
M  V30 3596 N 361.721 4.20437 -1.94389 0
M  V30 3597 C 362.456 5.15547 -2.50996 0
M  V30 3598 N 361.952 6.16395 -3.16274 0
M  V30 3599 N 363.745 5.07822 -2.40984 0
M  V30 3600 H 355.896 1.26285 -1.7078 0
M  V30 3601 H 358.159 0.612689 -0.723406 0
M  V30 3602 H 357.865 2.69204 -2.26323 0
M  V30 3603 H 357.739 3.68184 -0.819759 0
M  V30 3604 H 360.126 2.947 -0.153606 0
M  V30 3605 H 360.207 1.97272 -1.62841 0
M  V30 3606 H 359.851 4.08572 -3.01714 0
M  V30 3607 H 359.781 5.04298 -1.51629 0
M  V30 3608 H 362.272 3.48205 -1.46839 0
M  V30 3609 H 362.585 6.85443 -3.56915 0
M  V30 3610 H 360.93 6.16758 -3.20367 0
M  V30 3611 H 364.121 4.27973 -1.89622 0
M  V30 3612 H 364.294 5.81767 -2.85397 0
M  V30 3613 N 357.7 0.491464 1.49741 0
M  V30 3614 C 358.977 -0.118984 1.95238 0
M  V30 3615 C 359.357 -1.55044 1.43264 0
M  V30 3616 O 358.705 -2.19287 0.642287 0
M  V30 3617 C 358.915 -0.0414187 3.48975 0
M  V30 3618 C 360.263 -0.220133 4.24029 0
M  V30 3619 O 361.287 -0.117055 3.56008 0
M  V30 3620 O 360.146 -0.430567 5.44801 0
M  V30 3621 H 357.24 -0.100536 0.820866 0
M  V30 3622 H 359.786 0.553322 1.60426 0
M  V30 3623 H 358.558 0.957214 3.79412 0
M  V30 3624 H 358.181 -0.754292 3.9038 0
M  V30 3625 N 359.178 -1.55987 0.224894 0
M  V30 3626 C 360.108 -2.23426 -0.678457 0
M  V30 3627 C 361.089 -1.20709 -1.19847 0
M  V30 3628 O 362.274 -1.49304 -1.24186 0
M  V30 3629 C 359.404 -2.91676 -1.88527 0
M  V30 3630 C 358.358 -4.00893 -1.49896 0
M  V30 3631 C 357.684 -4.56455 -2.78483 0
M  V30 3632 C 358.984 -5.17769 -0.686461 0
M  V30 3633 H 360.678 -2.99175 -0.116173 0
M  V30 3634 H 358.224 -1.43897 -0.054436 0
M  V30 3635 H 360.177 -3.37547 -2.5227 0
M  V30 3636 H 358.901 -2.1338 -2.47258 0
M  V30 3637 H 357.56 -3.55758 -0.884985 0
M  V30 3638 H 357.208 -3.74886 -3.35365 0
M  V30 3639 H 356.908 -5.30169 -2.53368 0
M  V30 3640 H 358.432 -5.05047 -3.43162 0
M  V30 3641 H 359.846 -5.60001 -1.22767 0
M  V30 3642 H 358.243 -5.97735 -0.532259 0
M  V30 3643 H 359.313 -4.83932 0.306196 0
M  V30 3644 N 360.656 0.0484629 -1.57525 0
M  V30 3645 C 361.933 0.777447 -1.79486 0
M  V30 3646 C 362.313 1.94597 -0.818251 0
M  V30 3647 O 361.661 2.28047 0.143767 0
M  V30 3648 C 361.871 1.22864 -3.26658 0
M  V30 3649 C 363.219 1.65251 -3.91123 0
M  V30 3650 O 364.243 1.32372 -3.3069 0
M  V30 3651 O 363.102 2.26207 -4.97486 0
M  V30 3652 H 360.196 0.374357 -0.737419 0
M  V30 3653 H 362.742 0.0267359 -1.69679 0
M  V30 3654 H 361.514 0.393589 -3.89316 0
M  V30 3655 H 361.137 2.03996 -3.41279 0
M  V30 3656 N 362.134 1.5431 0.320358 0
M  V30 3657 C 363.382 1.72327 1.05583 0
M  V30 3658 C 363.703 0.50149 1.88441 0
M  V30 3659 O 362.973 -0.48448 1.89815 0
M  V30 3660 H 361.553 0.635387 0.3928 0
M  V30 3661 H 364.215 1.91621 0.356019 0
M  V30 3662 H 363.311 2.60426 1.72003 0
M  V30 3663 N 363.613 -0.582584 1.46437 0
M  V30 3664 C 364.56 -1.69164 1.5701 0
M  V30 3665 C 365.53 -1.60847 0.414403 0
M  V30 3666 O 366.715 -1.80058 0.631171 0
M  V30 3667 C 363.855 -3.075 1.56646 0
M  V30 3668 C 362.968 -3.2644 2.82951 0
M  V30 3669 C 362.103 -4.55026 2.7409 0
M  V30 3670 C 361.142 -4.6731 3.95333 0
M  V30 3671 N 360.279 -5.87221 3.84858 0
M  V30 3672 H 365.119 -1.59464 2.51744 0
M  V30 3673 H 362.656 -0.777186 1.24893 0
M  V30 3674 H 364.614 -3.8757 1.5442 0
M  V30 3675 H 363.244 -3.16096 0.654439 0
M  V30 3676 H 362.296 -2.39974 2.95155 0
M  V30 3677 H 363.608 -3.31385 3.72808 0
M  V30 3678 H 362.762 -5.43324 2.6997 0
M  V30 3679 H 361.501 -4.52519 1.81873 0
M  V30 3680 H 360.506 -3.77429 3.99784 0
M  V30 3681 H 361.731 -4.71595 4.88646 0
M  V30 3682 H 359.677 -5.85712 2.95427 0
M  V30 3683 H 359.594 -5.93435 4.6837 0
M  V30 3684 H 360.862 -6.7795 3.84713 0
M  V30 3685 N 365.091 -1.34144 -0.827227 0
M  V30 3686 C 366.316 -1.29476 -1.62021 0
M  V30 3687 C 366.741 0.129292 -1.87655 0
M  V30 3688 O 366.099 1.08967 -1.449 0
M  V30 3689 C 366.147 -2.08702 -2.94068 0
M  V30 3690 O 365.251 -1.45359 -3.85933 0
M  V30 3691 H 364.592 -0.444881 -0.492927 0
M  V30 3692 H 367.122 -1.76882 -1.02829 0
M  V30 3693 H 367.132 -2.19898 -3.43669 0
M  V30 3694 H 365.807 -3.12241 -2.74734 0
M  V30 3695 H 364.384 -1.42879 -3.44442 0
M  V30 3696 N 366.569 1.04691 -1.17803 0
M  V30 3697 C 367.519 2.10856 -0.867391 0
M  V30 3698 C 368.503 1.601 0.160206 0
M  V30 3699 O 369.695 1.76948 -0.042947 0
M  V30 3700 C 366.824 3.411 -0.388012 0
M  V30 3701 C 365.91 3.9864 -1.44732 0
M  V30 3702 N 366.301 4.30075 -2.66212 0
M  V30 3703 C 364.599 4.26439 -1.30637 0
M  V30 3704 C 365.3 4.76033 -3.34317 0
M  V30 3705 N 364.276 4.76462 -2.61696 0
M  V30 3706 H 368.078 2.33029 -1.79094 0
M  V30 3707 H 365.592 1.22386 -1.0675 0
M  V30 3708 H 367.589 4.16641 -0.146994 0
M  V30 3709 H 366.249 3.20357 0.529271 0
M  V30 3710 H 367.26 4.19917 -3.03134 0
M  V30 3711 H 363.937 4.15056 -0.451129 0
M  V30 3712 H 365.327 5.09427 -4.38103 0
M  V30 3713 N 368.047 0.979072 1.23499 0
M  V30 3714 C 368.994 0.517904 2.24914 0
M  V30 3715 C 369.964 -0.442525 1.60097 0
M  V30 3716 O 371.149 -0.350365 1.87556 0
M  V30 3717 C 368.289 -0.174813 3.44657 0
M  V30 3718 C 367.402 0.825721 4.24035 0
M  V30 3719 C 366.537 0.107946 5.3109 0
M  V30 3720 C 365.576 1.09778 6.02175 0
M  V30 3721 N 364.713 0.40925 7.00906 0
M  V30 3722 H 369.553 1.38751 2.63727 0
M  V30 3723 H 367.09 0.695303 1.2963 0
M  V30 3724 H 369.048 -0.593233 4.12961 0
M  V30 3725 H 367.678 -1.0083 3.06648 0
M  V30 3726 H 366.73 1.36253 3.55161 0
M  V30 3727 H 368.042 1.58005 4.73113 0
M  V30 3728 H 367.196 -0.367904 6.05583 0
M  V30 3729 H 365.935 -0.678994 4.8295 0
M  V30 3730 H 364.94 1.5844 5.26476 0
M  V30 3731 H 366.165 1.88536 6.52404 0
M  V30 3732 H 364.111 -0.358506 6.5502 0
M  V30 3733 H 364.028 1.10226 7.47921 0
M  V30 3734 H 365.296 -0.0442557 7.79487 0
M  V30 3735 N 369.525 -1.3858 0.750561 0
M  V30 3736 C 370.936 -1.82927 0.373438 0
M  V30 3737 C 371.287 -1.62634 -1.09748 0
M  V30 3738 O 370.412 -1.12588 -1.84805 0
M  V30 3739 C 371.007 -3.32088 0.671029 0
M  V30 3740 C 369.566 -3.74795 0.34722 0
M  V30 3741 C 368.713 -2.61391 0.92575 0
M  V30 3742 H 371.664 -1.27351 0.946958 0
M  V30 3743 H 371.685 -3.80465 -0.0518269 0
M  V30 3744 H 371.197 -3.46826 1.74164 0
M  V30 3745 H 369.298 -3.65638 -0.716933 0
M  V30 3746 H 369.411 -4.71667 0.840656 0
M  V30 3747 H 367.775 -2.52265 0.351327 0
M  V30 3748 H 368.558 -2.78929 2.00133 0
M  V30 3749 N 371.003 -0.499398 -1.49478 0
M  V30 3750 C 371.933 0.269244 -2.31943 0
M  V30 3751 C 372.914 0.964054 -1.40143 0
M  V30 3752 O 374.099 0.955767 -1.69052 0
M  V30 3753 C 371.229 1.33504 -3.20615 0
M  V30 3754 C 370.183 0.760202 -4.21195 0
M  V30 3755 C 369.509 1.9264 -4.98792 0
M  V30 3756 C 370.809 -0.247661 -5.21712 0
M  V30 3757 H 372.503 -0.419082 -2.96452 0
M  V30 3758 H 370.049 -0.202988 -1.42562 0
M  V30 3759 H 372.002 1.88048 -3.77115 0
M  V30 3760 H 370.726 2.05253 -2.54045 0
M  V30 3761 H 369.385 0.23653 -3.65836 0
M  V30 3762 H 369.033 2.63154 -4.28671 0
M  V30 3763 H 368.733 1.54785 -5.66847 0
M  V30 3764 H 370.257 2.4762 -5.58137 0
M  V30 3765 H 371.671 0.209579 -5.72917 0
M  V30 3766 H 370.068 -0.541962 -5.97648 0
M  V30 3767 H 371.138 -1.16409 -4.7072 0
M  V30 3768 N 372.481 1.55866 -0.233164 0
M  V30 3769 C 373.892 1.847 0.272554 0
M  V30 3770 C 374.243 1.15477 1.58617 0
M  V30 3771 O 373.368 0.42841 2.12117 0
M  V30 3772 C 373.963 3.35071 0.501299 0
M  V30 3773 C 372.522 3.6418 0.951304 0
M  V30 3774 C 371.669 2.77292 0.0208209 0
M  V30 3775 H 374.62 1.52005 -0.456074 0
M  V30 3776 H 374.641 3.55906 1.34577 0
M  V30 3777 H 374.153 3.85424 -0.454936 0
M  V30 3778 H 372.254 3.19293 1.92049 0
M  V30 3779 H 372.367 4.72071 0.817675 0
M  V30 3780 H 370.731 2.49131 0.529723 0
M  V30 3781 H 371.514 3.30448 -0.93054 0
M  V30 3782 N 373.959 -0.0401083 1.57549 0
M  V30 3783 C 374.889 -1.04384 2.08869 0
M  V30 3784 C 375.87 -1.38407 0.988817 0
M  V30 3785 O 377.055 -1.47483 1.26342 0
M  V30 3786 C 374.185 -2.34808 2.55895 0
M  V30 3787 C 373.139 -2.15057 3.70047 0
M  V30 3788 C 372.465 -3.51145 4.03239 0
M  V30 3789 C 373.765 -1.54576 4.98902 0
M  V30 3790 H 375.459 -0.616666 2.92981 0
M  V30 3791 H 373.005 -0.295184 1.40942 0
M  V30 3792 H 374.958 -3.05346 2.90417 0
M  V30 3793 H 373.682 -2.79565 1.68853 0
M  V30 3794 H 372.341 -1.46954 3.35857 0
M  V30 3795 H 371.989 -3.93529 3.13279 0
M  V30 3796 H 371.689 -3.38758 4.80122 0
M  V30 3797 H 373.213 -4.23062 4.40285 0
M  V30 3798 H 374.627 -2.15017 5.31451 0
M  V30 3799 H 373.024 -1.52796 5.80322 0
M  V30 3800 H 374.094 -0.51039 4.82206 0
M  V30 3801 N 375.437 -1.54477 -0.31217 0
M  V30 3802 C 376.685 -1.72884 -1.04668 0
M  V30 3803 C 377.006 -0.511477 -1.88173 0
M  V30 3804 O 376.276 0.474407 -1.90069 0
M  V30 3805 H 374.856 -0.637461 -0.389425 0
M  V30 3806 H 377.518 -1.91807 -0.345852 0
M  V30 3807 H 376.614 -2.61334 -1.70619 0
M  V30 3808 N 376.915 0.57481 -1.46744 0
M  V30 3809 C 378.161 1.3347 -1.52688 0
M  V30 3810 C 378.494 1.93353 -0.181229 0
M  V30 3811 O 377.769 1.76912 0.808237 0
M  V30 3812 C 378.052 2.45811 -2.63152 0
M  V30 3813 C 377.905 1.90912 -4.07275 0
M  V30 3814 C 379.224 3.47822 -2.69644 0
M  V30 3815 H 376.343 0.483935 -0.555856 0
M  V30 3816 H 378.985 0.644968 -1.78718 0
M  V30 3817 H 377.135 3.04646 -2.41088 0
M  V30 3818 H 378.807 1.36473 -4.4065 0
M  V30 3819 H 377.05 1.21691 -4.16382 0
M  V30 3820 H 377.721 2.72042 -4.80309 0
M  V30 3821 H 380.197 2.9888 -2.895 0
M  V30 3822 H 379.073 4.23876 -3.48742 0
M  V30 3823 H 379.334 4.05555 -1.76005 0
M  V30 3824 N 378.394 1.34581 0.820102 0
M  V30 3825 C 379.304 1.28471 1.96297 0
M  V30 3826 C 380.32 0.191902 1.72939 0
M  V30 3827 O 381.496 0.418879 1.96996 0
M  V30 3828 C 378.561 1.04281 3.30645 0
M  V30 3829 C 377.622 2.22745 3.66992 0
M  V30 3830 C 376.855 1.997 4.9493 0
M  V30 3831 O 377.078 0.956656 5.6232 0
M  V30 3832 O 376.012 2.86723 5.2922 0
M  V30 3833 H 379.838 2.24624 2.04396 0
M  V30 3834 H 377.423 1.14816 0.955913 0
M  V30 3835 H 379.305 0.925841 4.11104 0
M  V30 3836 H 377.98 0.111697 3.23507 0
M  V30 3837 H 376.887 2.40003 2.86966 0
M  V30 3838 H 378.22 3.14257 3.78819 0
M  V30 3839 N 379.872 -1.04064 1.18357 0
M  V30 3840 C 380.82 -2.14187 0.907007 0
M  V30 3841 C 381.814 -1.68879 -0.132725 0
M  V30 3842 O 383.02 -1.79993 0.0154248 0
M  V30 3843 H 379.395 -0.699585 0.275835 0
M  V30 3844 H 381.366 -2.34711 1.84264 0
M  V30 3845 C 380.115 -3.44785 0.449254 0
M  V30 3846 H 379.438 -3.80058 1.24081 0
M  V30 3847 H 380.878 -4.22974 0.294737 0
M  V30 3848 C 379.337 -3.26391 -0.834909 0
M  V30 3849 O 379.867 -3.53973 -1.89911 0
M  V30 3850 N 378.073 -2.79726 -0.787523 0
M  V30 3851 H 377.62 -2.5748 0.0787347 0
M  V30 3852 H 377.578 -2.67798 -1.64716 0
M  V30 3853 N 381.35 -0.985608 -1.22978 0
M  V30 3854 C 382.627 -0.573599 -1.87001 0
M  V30 3855 C 383.007 0.949213 -1.88555 0
M  V30 3856 O 382.355 1.82811 -1.37086 0
M  V30 3857 C 382.565 -1.18564 -3.28243 0
M  V30 3858 C 383.913 -1.28163 -4.04796 0
M  V30 3859 O 384.937 -1.13949 -3.37482 0
M  V30 3860 O 383.796 -1.50832 -5.25273 0
M  V30 3861 H 380.89 -0.193868 -0.803955 0
M  V30 3862 H 383.436 -1.08102 -1.30813 0
M  V30 3863 H 382.208 -2.22758 -3.21706 0
M  V30 3864 H 381.831 -0.663363 -3.92027 0
M  V30 3865 N 382.828 1.3818 -0.7579 0
M  V30 3866 C 384.244 1.5353 -0.435972 0
M  V30 3867 C 384.444 1.71961 1.05032 0
M  V30 3868 O 383.5 1.73307 1.83633 0
M  V30 3869 C 384.813 2.73989 -1.23898 0
M  V30 3870 C 386.361 2.87841 -1.22949 0
M  V30 3871 C 386.836 4.11266 -2.01554 0
M  V30 3872 N 388.327 4.18352 -1.98837 0
M  V30 3873 C 389.062 5.12856 -2.5645 0
M  V30 3874 N 388.558 6.13005 -3.22794 0
M  V30 3875 N 390.351 5.05238 -2.46356 0
M  V30 3876 H 382.502 1.24467 -1.7211 0
M  V30 3877 H 384.765 0.604982 -0.729864 0
M  V30 3878 H 384.471 2.66789 -2.29165 0
M  V30 3879 H 384.345 3.67294 -0.858764 0
M  V30 3880 H 386.732 2.9452 -0.184854 0
M  V30 3881 H 386.813 1.95534 -1.64924 0
M  V30 3882 H 386.457 4.05349 -3.06031 0
M  V30 3883 H 386.387 5.02661 -1.5697 0
M  V30 3884 H 388.878 3.46628 -1.50524 0
M  V30 3885 H 389.191 6.81619 -3.64165 0
M  V30 3886 H 387.536 6.13325 -3.2689 0
M  V30 3887 H 390.727 4.25938 -1.9415 0
M  V30 3888 H 390.9 5.78707 -2.91552 0
M  V30 3889 N 384.306 0.507319 1.49211 0
M  V30 3890 C 385.552 -0.0350047 2.0277 0
M  V30 3891 C 385.885 -1.3606 1.38569 0
M  V30 3892 O 385.16 -1.87321 0.523542 0
M  V30 3893 C 385.443 -0.180916 3.59645 0
M  V30 3894 C 385.296 1.16825 4.34364 0
M  V30 3895 C 386.615 -0.918558 4.30407 0
M  V30 3896 H 383.734 -0.0112473 0.736914 0
M  V30 3897 H 386.376 0.659956 1.7817 0
M  V30 3898 H 384.526 -0.772826 3.80736 0
M  V30 3899 H 386.198 1.79952 4.24753 0
M  V30 3900 H 384.441 1.75594 3.96673 0
M  V30 3901 H 385.112 1.01939 5.42506 0
M  V30 3902 H 387.588 -0.41649 4.1401 0
M  V30 3903 H 386.464 -0.989505 5.39907 0
M  V30 3904 H 386.725 -1.96373 3.96093 0
M  V30 3905 N 385.784 -1.5574 0.241426 0
M  V30 3906 C 387.031 -1.9881 -0.384836 0
M  V30 3907 C 387.359 -1.12947 -1.58346 0
M  V30 3908 O 386.614 -0.178993 -1.9488 0
M  V30 3909 C 386.913 -3.47308 -0.843317 0
M  V30 3910 C 386.579 -4.50223 0.246946 0
M  V30 3911 C 385.241 -4.78088 0.546399 0
M  V30 3912 C 387.593 -5.11841 0.983282 0
M  V30 3913 C 384.921 -5.64846 1.58636 0
M  V30 3914 C 387.273 -5.99727 2.01272 0
M  V30 3915 C 385.937 -6.25927 2.31888 0
M  V30 3916 H 385.207 -0.727496 -0.140821 0
M  V30 3917 H 387.854 -1.8831 0.348106 0
M  V30 3918 H 386.159 -3.55112 -1.65537 0
M  V30 3919 H 387.856 -3.78017 -1.33806 0
M  V30 3920 H 384.446 -4.286 0.00340639 0
M  V30 3921 H 388.63 -4.90366 0.765182 0
M  V30 3922 H 383.886 -5.83403 1.82896 0
M  V30 3923 H 388.06 -6.46517 2.58823 0
M  V30 3924 H 385.687 -6.92949 3.12611 0
M  V30 3925 N 387.262 0.0317525 -1.57568 0
M  V30 3926 C 388.21 1.05165 -2.07468 0
M  V30 3927 C 389.204 1.3761 -0.98792 0
M  V30 3928 O 390.41 1.36546 -1.17282 0
M  V30 3929 H 386.785 0.35666 -0.66204 0
M  V30 3930 H 388.756 0.604958 -2.92203 0
M  V30 3931 C 387.505 2.34488 -2.56731 0
M  V30 3932 H 386.828 2.10383 -3.39969 0
M  V30 3933 H 388.268 3.04203 -2.95358 0
M  V30 3934 C 386.727 3.03266 -1.46736 0
M  V30 3935 O 387.257 3.92988 -0.832069 0
M  V30 3936 N 385.463 2.6455 -1.20256 0
M  V30 3937 H 385.01 1.91674 -1.72102 0
M  V30 3938 H 384.968 3.10886 -0.468737 0
M  V30 3939 N 388.74 1.54641 0.303973 0
M  V30 3940 C 390.017 1.64455 1.05896 0
M  V30 3941 C 390.397 0.490923 2.05312 0
M  V30 3942 O 389.745 -0.512685 2.22674 0
M  V30 3943 C 389.955 3.02331 1.74347 0
M  V30 3944 C 391.303 3.59045 2.26653 0
M  V30 3945 O 392.327 3.04764 1.84384 0
M  V30 3946 O 391.186 4.54081 3.04093 0
M  V30 3947 H 388.28 0.666729 0.489287 0
M  V30 3948 H 390.826 1.66986 0.302298 0
M  V30 3949 H 389.598 3.77734 1.02142 0
M  V30 3950 H 389.221 3.03565 2.56777 0
M  V30 3951 N 390.218 -0.567019 1.47046 0
M  V30 3952 C 391.148 -1.68482 1.61667 0
M  V30 3953 C 392.129 -1.6358 0.466418 0
M  V30 3954 O 393.314 -1.81354 0.694574 0
M  V30 3955 C 390.444 -3.07124 1.62148 0
M  V30 3956 C 389.398 -3.26867 2.76301 0
M  V30 3957 C 388.724 -4.66196 2.61849 0
M  V30 3958 C 390.024 -3.13186 4.17986 0
M  V30 3959 H 391.718 -1.56502 2.5524 0
M  V30 3960 H 389.264 -0.751486 1.22836 0
M  V30 3961 H 391.217 -3.8516 1.70968 0
M  V30 3962 H 389.941 -3.2004 0.651287 0
M  V30 3963 H 388.6 -2.51237 2.66975 0
M  V30 3964 H 388.248 -4.75898 1.62879 0
M  V30 3965 H 387.948 -4.80356 3.38425 0
M  V30 3966 H 389.472 -5.46379 2.72584 0
M  V30 3967 H 390.886 -3.81049 4.2834 0
M  V30 3968 H 389.283 -3.3886 4.95272 0
M  V30 3969 H 390.353 -2.10057 4.3704 0
M  V30 3970 N 391.696 -1.35014 -0.812953 0
M  V30 3971 C 392.942 -1.29129 -1.57154 0
M  V30 3972 C 393.297 0.134922 -1.91926 0
M  V30 3973 O 392.59 1.08373 -1.58006 0
M  V30 3974 C 392.784 -2.12524 -2.87347 0
M  V30 3975 C 392.613 -3.6311 -2.65294 0
M  V30 3976 C 391.383 -4.32363 -2.61516 0
M  V30 3977 C 393.581 -4.56897 -2.36114 0
M  V30 3978 N 391.563 -5.68735 -2.31113 0
M  V30 3979 C 392.934 -5.81345 -2.15494 0
M  V30 3980 C 394.989 -4.45706 -2.21925 0
M  V30 3981 C 393.692 -6.95862 -1.82122 0
M  V30 3982 C 395.718 -5.60066 -1.89948 0
M  V30 3983 C 395.08 -6.83539 -1.7016 0
M  V30 3984 H 391.179 -0.527764 -0.577052 0
M  V30 3985 H 393.763 -1.6983 -0.952146 0
M  V30 3986 H 391.934 -1.74104 -3.47192 0
M  V30 3987 H 393.666 -1.98207 -3.5284 0
M  V30 3988 H 390.421 -3.84907 -2.75941 0
M  V30 3989 H 390.845 -6.40694 -2.18724 0
M  V30 3990 H 395.487 -3.50855 -2.35925 0
M  V30 3991 H 393.205 -7.90685 -1.6686 0
M  V30 3992 H 396.791 -5.53357 -1.79687 0
M  V30 3993 H 395.671 -7.70531 -1.45777 0
M  V30 3994 N 393.175 1.03435 -1.18907 0
M  V30 3995 C 394.423 1.76394 -0.986382 0
M  V30 3996 C 394.744 1.88883 0.484567 0
M  V30 3997 O 394.014 1.41843 1.3512 0
M  V30 3998 H 392.594 0.65344 -0.361975 0
M  V30 3999 H 395.256 1.248 -1.49703 0
M  V30 4000 H 394.352 2.77424 -1.42978 0
M  V30 4001 N 394.653 0.992116 1.22453 0
M  V30 4002 C 395.6 0.541731 2.24352 0
M  V30 4003 C 396.57 -0.425519 1.60557 0
M  V30 4004 O 397.755 -0.330453 1.87917 0
M  V30 4005 C 394.895 -0.138248 3.44823 0
M  V30 4006 C 394.008 0.870649 4.23136 0
M  V30 4007 C 393.143 0.164269 5.30946 0
M  V30 4008 C 392.182 1.16159 6.00977 0
M  V30 4009 N 391.319 0.483568 7.00433 0
M  V30 4010 H 396.159 1.41541 2.62241 0
M  V30 4011 H 393.696 0.709013 1.28885 0
M  V30 4012 H 395.654 -0.5494 4.13567 0
M  V30 4013 H 394.284 -0.975721 3.077 0
M  V30 4014 H 393.336 1.40013 3.53696 0
M  V30 4015 H 394.648 1.63014 4.7141 0
M  V30 4016 H 393.802 -0.303653 6.0594 0
M  V30 4017 H 392.541 -0.627733 4.83643 0
M  V30 4018 H 391.546 1.64015 5.24766 0
M  V30 4019 H 392.771 1.95445 6.50368 0
M  V30 4020 H 390.717 -0.289012 6.55363 0
M  V30 4021 H 390.634 1.18152 7.4671 0
M  V30 4022 H 391.902 0.0384219 7.79491 0
M  V30 4023 N 396.131 -1.37776 0.765217 0
M  V30 4024 C 397.379 -1.99454 0.325943 0
M  V30 4025 C 397.7 -1.61049 -1.09947 0
M  V30 4026 O 396.97 -0.872821 -1.75381 0
M  V30 4027 H 395.55 -0.737697 0.117525 0
M  V30 4028 H 398.212 -1.68359 0.981895 0
M  V30 4029 H 397.308 -3.09547 0.398353 0
M  V30 4030 N 397.609 -0.515225 -1.4894 0
M  V30 4031 C 398.557 0.269115 -2.31038 0
M  V30 4032 C 399.551 0.949443 -1.40292 0
M  V30 4033 O 400.757 0.87551 -1.57273 0
M  V30 4034 H 397.132 0.10565 -0.744542 0
M  V30 4035 H 399.103 -0.443096 -2.95092 0
M  V30 4036 C 397.852 1.31213 -3.21991 0
M  V30 4037 H 397.175 0.798034 -3.91754 0
M  V30 4038 H 398.615 1.83263 -3.82349 0
M  V30 4039 C 397.074 2.33791 -2.42576 0
M  V30 4040 O 397.604 3.3995 -2.14003 0
M  V30 4041 N 395.81 2.06625 -2.0434 0
M  V30 4042 H 395.357 1.20314 -2.27777 0
M  V30 4043 H 395.315 2.75483 -1.51514 0
M  V30 4044 N 399.087 1.5561 -0.249682 0
M  V30 4045 C 400.333 1.99306 0.374841 0
M  V30 4046 C 400.666 1.13767 1.57387 0
M  V30 4047 O 399.941 0.201711 1.93451 0
M  V30 4048 C 400.224 3.51507 0.781986 0
M  V30 4049 C 400.077 4.4781 -0.422629 0
M  V30 4050 C 401.396 4.08884 1.62793 0
M  V30 4051 H 398.515 0.724572 0.134773 0
M  V30 4052 H 401.157 1.86719 -0.351549 0
M  V30 4053 H 399.307 3.62363 1.4009 0
M  V30 4054 H 400.979 4.48931 -1.06108 0
M  V30 4055 H 399.222 4.20518 -1.06524 0
M  V30 4056 H 399.893 5.51919 -0.0943766 0
M  V30 4057 H 402.369 4.01147 1.10547 0
M  V30 4058 H 401.245 5.1564 1.88166 0
M  V30 4059 H 401.506 3.57515 2.60068 0
M  V30 4060 N 400.565 -0.0233959 1.57583 0
M  V30 4061 C 401.976 -0.56927 1.77809 0
M  V30 4062 C 402.327 -1.75284 0.881472 0
M  V30 4063 O 401.452 -2.1626 0.0777805 0
M  V30 4064 C 402.047 -1.03949 3.22459 0
M  V30 4065 C 400.606 -1.53084 3.43864 0
M  V30 4066 C 399.753 -0.471454 2.73263 0
M  V30 4067 H 402.704 0.202825 1.57399 0
M  V30 4068 H 402.725 -1.90661 3.29285 0
M  V30 4069 H 402.237 -0.177865 3.87692 0
M  V30 4070 H 400.338 -2.41414 2.83814 0
M  V30 4071 H 400.451 -1.57443 4.52491 0
M  V30 4072 H 398.815 -0.927788 2.37201 0
M  V30 4073 H 399.598 0.380808 3.41181 0
M  V30 4074 N 402.043 -1.548 -0.295768 0
M  V30 4075 C 403.289 -1.74588 -1.03184 0
M  V30 4076 C 403.622 -0.532962 -1.86744 0
M  V30 4077 O 402.897 0.469872 -1.88739 0
M  V30 4078 C 403.18 -3.03791 -1.93347 0
M  V30 4079 C 403.033 -4.35392 -1.12933 0
M  V30 4080 C 404.352 -3.28892 -2.92435 0
M  V30 4081 H 401.471 -0.635221 -0.373715 0
M  V30 4082 H 404.113 -1.87519 -0.30606 0
M  V30 4083 H 402.263 -2.92898 -2.55232 0
M  V30 4084 H 403.935 -4.58211 -0.532943 0
M  V30 4085 H 402.178 -4.31642 -0.432168 0
M  V30 4086 H 402.849 -5.22074 -1.79284 0
M  V30 4087 H 405.325 -3.39429 -2.4068 0
M  V30 4088 H 404.201 -4.20603 -3.52682 0
M  V30 4089 H 404.462 -2.47437 -3.6637 0
M  V30 4090 N 403.521 0.559213 -1.47345 0
M  V30 4091 C 404.767 1.31843 -1.54095 0
M  V30 4092 C 405.1 1.93149 -0.201726 0
M  V30 4093 O 404.375 1.77759 0.789428 0
M  V30 4094 C 404.658 2.43006 -2.65744 0
M  V30 4095 C 404.511 1.86581 -4.09277 0
M  V30 4096 C 405.83 3.44943 -2.73318 0
M  V30 4097 H 402.949 0.478012 -0.560957 0
M  V30 4098 H 405.591 0.625977 -1.79392 0
M  V30 4099 H 403.741 3.02072 -2.44305 0
M  V30 4100 H 405.413 1.31792 -4.42073 0
M  V30 4101 H 403.656 1.17268 -4.17649 0
M  V30 4102 H 404.327 2.66933 -4.83168 0
M  V30 4103 H 406.803 2.95793 -2.92653 0
M  V30 4104 H 405.679 4.20153 -3.53218 0
M  V30 4105 H 405.94 4.03665 -1.80296 0
M  V30 4106 N 404.999 1.35443 0.805782 0
M  V30 4107 C 405.929 1.31095 1.93226 0
M  V30 4108 C 406.91 0.185244 1.69088 0
M  V30 4109 O 408.095 0.380332 1.90439 0
M  V30 4110 C 405.225 1.08299 3.29983 0
M  V30 4111 C 404.179 2.17519 3.68605 0
M  V30 4112 C 403.505 1.79887 5.03532 0
M  V30 4113 C 404.805 3.5949 3.78898 0
M  V30 4114 H 406.499 2.25352 1.97122 0
M  V30 4115 H 404.045 1.0848 0.946996 0
M  V30 4116 H 405.998 1.03897 4.08391 0
M  V30 4117 H 404.722 0.104885 3.26432 0
M  V30 4118 H 403.381 2.2102 2.92482 0
M  V30 4119 H 403.029 0.80693 4.96485 0
M  V30 4120 H 402.729 2.53001 5.30344 0
M  V30 4121 H 404.253 1.77011 5.84379 0
M  V30 4122 H 405.667 3.58307 4.47536 0
M  V30 4123 H 404.064 4.31371 4.1718 0
M  V30 4124 H 405.134 3.95584 2.80431 0
M  V30 4125 N 406.477 -1.02803 1.19454 0
M  V30 4126 C 407.425 -2.13213 0.929673 0
M  V30 4127 C 408.419 -1.69011 -0.114806 0
M  V30 4128 O 409.625 -1.79967 0.0345147 0
M  V30 4129 H 406 -0.69662 0.28324 0
M  V30 4130 H 407.971 -2.32744 1.86743 0
M  V30 4131 C 406.72 -3.4429 0.485797 0
M  V30 4132 H 406.043 -3.7872 1.28105 0
M  V30 4133 H 407.483 -4.22638 0.339582 0
M  V30 4134 C 405.942 -3.27258 -0.800244 0
M  V30 4135 O 406.472 -3.55967 -1.86146 0
M  V30 4136 N 404.678 -2.80545 -0.75781 0
M  V30 4137 H 404.225 -2.57382 0.106039 0
M  V30 4138 H 404.183 -2.6953 -1.61867 0
M  V30 4139 N 407.956 -0.998596 -1.21925 0
M  V30 4140 C 408.904 -0.546641 -2.26085 0
M  V30 4141 C 409.898 0.405576 -1.64473 0
M  V30 4142 O 411.104 0.277471 -1.77849 0
M  V30 4143 H 407.479 -0.158403 -0.735127 0
M  V30 4144 H 409.45 -1.43645 -2.61551 0
M  V30 4145 C 408.199 0.117388 -3.47502 0
M  V30 4146 H 407.522 -0.606277 -3.95176 0
M  V30 4147 H 408.962 0.396993 -4.22137 0
M  V30 4148 C 407.421 1.35455 -3.0847 0
M  V30 4149 O 407.951 2.44944 -3.18379 0
M  V30 4150 N 406.157 1.23191 -2.63196 0
M  V30 4151 H 405.704 0.341006 -2.55333 0
M  V30 4152 H 405.662 2.06071 -2.37449 0
M  V30 4153 N 409.434 1.37368 -0.772513 0
M  V30 4154 C 410.845 1.8231 -0.402493 0
M  V30 4155 C 411.196 1.6436 1.07146 0
M  V30 4156 O 410.321 1.15514 1.82991 0
M  V30 4157 C 410.916 3.30979 -0.723776 0
M  V30 4158 C 409.475 3.74195 -0.406802 0
M  V30 4159 C 408.622 2.59885 -0.967218 0
M  V30 4160 H 411.573 1.25829 -0.967099 0
M  V30 4161 H 411.594 3.80499 -0.00870832 0
M  V30 4162 H 411.106 3.44011 -1.7966 0
M  V30 4163 H 409.207 3.66732 0.658673 0
M  V30 4164 H 409.32 4.7027 -0.915588 0
M  V30 4165 H 407.684 2.51674 -0.391416 0
M  V30 4166 H 408.467 2.7571 -2.04546 0
M  V30 4167 N 410.912 0.523116 1.48665 0
M  V30 4168 C 412.142 -0.00961724 2.06598 0
M  V30 4169 C 412.55 -1.29333 1.38093 0
M  V30 4170 O 411.893 -1.77846 0.46007 0
M  V30 4171 C 411.955 -0.311135 3.58151 0
M  V30 4172 C 411.619 0.878092 4.48485 0
M  V30 4173 C 412.616 1.77464 4.88674 0
M  V30 4174 C 410.301 1.08315 4.90483 0
M  V30 4175 C 412.295 2.86021 5.69623 0
M  V30 4176 C 409.982 2.17187 5.71203 0
M  V30 4177 C 410.98 3.05873 6.10681 0
M  V30 4178 O 410.668 4.12862 6.89783 0
M  V30 4179 H 410.4 0.0272658 0.67545 0
M  V30 4180 H 412.954 0.726156 1.92136 0
M  V30 4181 H 411.184 -1.10079 3.70701 0
M  V30 4182 H 412.873 -0.785125 3.98234 0
M  V30 4183 H 413.639 1.62813 4.56855 0
M  V30 4184 H 409.518 0.402149 4.59243 0
M  V30 4185 H 413.062 3.55272 6.00356 0
M  V30 4186 H 408.959 2.31824 6.02435 0
M  V30 4187 H 409.727 4.10487 7.08126 0
M  V30 4188 N 412.39 -1.55475 0.257931 0
M  V30 4189 C 413.615 -2.04064 -0.370488 0
M  V30 4190 C 414.04 -1.13565 -1.49948 0
M  V30 4191 O 413.398 -0.130781 -1.80828 0
M  V30 4192 C 413.446 -3.50554 -0.845237 0
M  V30 4193 O 412.55 -3.63173 -1.95394 0
M  V30 4194 H 411.891 -0.659257 -0.0792243 0
M  V30 4195 H 414.421 -2.00903 0.387212 0
M  V30 4196 H 414.431 -3.91588 -1.14555 0
M  V30 4197 H 413.106 -4.15896 -0.0191259 0
M  V30 4198 H 411.683 -3.34039 -1.65748 0
M  V30 4199 N 413.868 0.0150385 -1.57593 0
M  V30 4200 C 414.778 1.02791 -2.10882 0
M  V30 4201 C 415.794 1.38702 -1.0506 0
M  V30 4202 O 416.97 1.47739 -1.36877 0
M  V30 4203 C 414.035 2.30568 -2.58919 0
M  V30 4204 C 413.096 2.01108 -3.79281 0
M  V30 4205 C 412.329 3.22794 -4.25018 0
M  V30 4206 O 412.552 4.33959 -3.70183 0
M  V30 4207 O 411.486 3.07672 -5.17322 0
M  V30 4208 H 415.312 0.604973 -2.97613 0
M  V30 4209 H 412.897 0.23292 -1.47573 0
M  V30 4210 H 414.779 3.05662 -2.90084 0
M  V30 4211 H 413.454 2.72129 -1.75293 0
M  V30 4212 H 412.361 1.23537 -3.53114 0
M  V30 4213 H 413.694 1.64394 -4.63935 0
M  V30 4214 N 415.346 1.54954 0.287554 0
M  V30 4215 C 416.293 1.86834 1.35505 0
M  V30 4216 C 417.263 0.718452 1.49758 0
M  V30 4217 O 418.448 0.968358 1.644 0
M  V30 4218 C 415.588 2.13303 2.71286 0
M  V30 4219 C 414.701 3.40883 2.65373 0
M  V30 4220 C 413.836 3.57125 3.93236 0
M  V30 4221 C 412.875 4.78449 3.81776 0
M  V30 4222 N 412.012 4.91426 5.01443 0
M  V30 4223 H 416.852 2.77889 1.07619 0
M  V30 4224 H 414.389 1.37593 0.520241 0
M  V30 4225 H 416.347 2.26646 3.50267 0
M  V30 4226 H 414.977 1.25499 2.97405 0
M  V30 4227 H 414.029 3.36088 1.78182 0
M  V30 4228 H 415.341 4.29993 2.52799 0
M  V30 4229 H 414.495 3.70207 4.80658 0
M  V30 4230 H 413.234 2.66173 4.0866 0
M  V30 4231 H 412.239 4.65386 2.92738 0
M  V30 4232 H 413.464 5.70822 3.67884 0
M  V30 4233 H 411.41 4.03401 5.17304 0
M  V30 4234 H 411.327 5.74559 4.91343 0
M  V30 4235 H 412.595 5.08879 5.90477 0
M  V30 4236 N 416.824 -0.551391 1.4764 0
M  V30 4237 C 417.734 -1.68525 1.63207 0
M  V30 4238 C 418.75 -1.6621 0.514815 0
M  V30 4239 O 419.926 -1.85551 0.783113 0
M  V30 4240 C 416.991 -3.05025 1.64805 0
M  V30 4241 C 416.052 -3.18362 2.88 0
M  V30 4242 C 415.285 -4.4835 2.89513 0
M  V30 4243 O 415.508 -5.34163 2.00065 0
M  V30 4244 O 414.442 -4.65602 3.81443 0
M  V30 4245 H 418.268 -1.58333 2.59161 0
M  V30 4246 H 415.853 -0.722063 1.30792 0
M  V30 4247 H 417.735 -3.86245 1.68502 0
M  V30 4248 H 416.41 -3.15587 0.720197 0
M  V30 4249 H 415.317 -2.36518 2.89845 0
M  V30 4250 H 416.65 -3.12707 3.80099 0
M  V30 4251 N 418.302 -1.35869 -0.798587 0
M  V30 4252 C 419.234 -1.25305 -1.91915 0
M  V30 4253 C 420.247 -0.174548 -1.61862 0
M  V30 4254 O 421.436 -0.428499 -1.73281 0
M  V30 4255 C 418.536 -0.9086 -3.26493 0
M  V30 4256 C 417.709 -2.08711 -3.84394 0
M  V30 4257 C 416.768 -1.71717 -4.97393 0
M  V30 4258 O 415.794 -2.43692 -5.14396 0
M  V30 4259 N 416.996 -0.645473 -5.769 0
M  V30 4260 H 419.761 -2.21849 -2.01502 0
M  V30 4261 H 417.322 -1.29143 -0.976408 0
M  V30 4262 H 419.314 -0.642455 -3.99568 0
M  V30 4263 H 417.884 -0.0325815 -3.12583 0
M  V30 4264 H 417.104 -2.51659 -3.03416 0
M  V30 4265 H 418.392 -2.87468 -4.19809 0
M  V30 4266 H 417.79 -0.047648 -5.6568 0
M  V30 4267 H 416.347 -0.43913 -6.50319 0
M  V30 4268 N 419.78 1.02168 -1.19998 0
M  V30 4269 C 421.191 1.57135 -1.00825 0
M  V30 4270 C 421.542 1.91276 0.436818 0
M  V30 4271 O 420.667 1.71679 1.3174 0
M  V30 4272 C 421.262 2.85514 -1.82393 0
M  V30 4273 C 419.821 3.37027 -1.67601 0
M  V30 4274 C 418.968 2.10388 -1.80644 0
M  V30 4275 H 421.919 0.846106 -1.34264 0
M  V30 4276 H 421.94 3.56711 -1.32429 0
M  V30 4277 H 421.452 2.60634 -2.87561 0
M  V30 4278 H 419.553 3.66878 -0.650485 0
M  V30 4279 H 419.666 4.09572 -2.4857 0
M  V30 4280 H 418.03 2.22601 -1.23778 0
M  V30 4281 H 418.813 1.8794 -2.87286 0
M  V30 4282 N 421.258 1.00505 1.21394 0
M  V30 4283 C 422.669 0.721082 1.72213 0
M  V30 4284 C 423.02 -0.761263 1.80829 0
M  V30 4285 O 422.145 -1.59464 1.46288 0
M  V30 4286 C 422.74 1.30228 3.12772 0
M  V30 4287 C 421.299 1.06743 3.60947 0
M  V30 4288 C 420.446 1.41507 2.38477 0
M  V30 4289 H 423.397 1.17594 1.06571 0
M  V30 4290 H 423.418 0.686955 3.74247 0
M  V30 4291 H 422.93 2.38115 3.06468 0
M  V30 4292 H 421.031 0.00572162 3.726 0
M  V30 4293 H 421.144 1.73936 4.46411 0
M  V30 4294 H 419.508 0.833852 2.40664 0
M  V30 4295 H 420.291 2.50424 2.34824 0
M  V30 4296 N 422.737 -1.36956 0.779787 0
M  V30 4297 C 423.965 -2.03755 0.359398 0
M  V30 4298 C 424.38 -1.58807 -1.02106 0
M  V30 4299 O 423.737 -0.773024 -1.6532 0
M  V30 4300 C 423.788 -3.59251 0.402568 0
M  V30 4301 O 423.509 -4.02557 1.72858 0
M  V30 4302 C 425.01 -4.43291 -0.0284068 0
M  V30 4303 H 422.23 -0.654148 0.149437 0
M  V30 4304 H 424.774 -1.75128 1.05595 0
M  V30 4305 H 422.929 -3.86621 -0.245478 0
M  V30 4306 H 423.343 -4.97111 1.67275 0
M  V30 4307 H 424.817 -5.51975 0.0529466 0
M  V30 4308 H 425.294 -4.25719 -1.07982 0
M  V30 4309 H 425.9 -4.21163 0.591758 0
M  V30 4310 N 424.215 -0.530993 -1.48385 0
M  V30 4311 C 425.44 0.000729535 -2.074 0
M  V30 4312 C 425.865 1.27298 -1.3848 0
M  V30 4313 O 425.223 1.75599 -0.451081 0
M  V30 4314 C 425.271 0.206697 -3.60007 0
M  V30 4315 O 424.375 1.27514 -3.92191 0
M  V30 4316 H 423.716 -0.039583 -0.662819 0
M  V30 4317 H 426.246 -0.739194 -1.9078 0
M  V30 4318 H 426.256 0.42904 -4.05738 0
M  V30 4319 H 424.931 -0.722675 -4.09573 0
M  V30 4320 H 423.508 1.03537 -3.58238 0
M  V30 4321 N 425.693 1.55336 -0.266172 0
M  V30 4322 C 426.941 1.99003 0.35246 0
M  V30 4323 C 427.262 1.15591 1.57047 0
M  V30 4324 O 426.532 0.243268 1.94384 0
M  V30 4325 H 425.112 0.735025 0.133217 0
M  V30 4326 H 427.774 1.91367 -0.369434 0
M  V30 4327 H 426.87 3.05289 0.648453 0
M  V30 4328 N 427.171 -0.0066808 1.57599 0
M  V30 4329 C 428.118 -1.00024 2.08 0
M  V30 4330 C 429.088 -1.34549 0.973943 0
M  V30 4331 O 430.273 -1.44502 1.24595 0
M  V30 4332 C 427.413 -2.2891 2.58252 0
M  V30 4333 C 426.526 -2.00346 3.82734 0
M  V30 4334 C 425.661 -3.23265 4.21513 0
M  V30 4335 C 424.7 -2.90357 5.3885 0
M  V30 4336 N 423.837 -4.05793 5.72954 0
M  V30 4337 H 428.677 -0.563499 2.92624 0
M  V30 4338 H 426.214 -0.266592 1.44664 0
M  V30 4339 H 428.172 -3.04247 2.85464 0
M  V30 4340 H 426.802 -2.70265 1.76512 0
M  V30 4341 H 425.854 -1.15406 3.62471 0
M  V30 4342 H 427.166 -1.72086 4.68175 0
M  V30 4343 H 426.32 -4.06953 4.49971 0
M  V30 4344 H 425.059 -3.54657 3.34768 0
M  V30 4345 H 424.064 -2.05075 5.10122 0
M  V30 4346 H 425.289 -2.60219 6.27266 0
M  V30 4347 H 423.235 -4.37094 4.89167 0
M  V30 4348 H 423.152 -3.81034 6.52954 0
M  V30 4349 H 424.42 -4.90289 6.06001 0
M  V30 4350 N 428.649 -1.55105 -0.279332 0
M  V30 4351 C 429.581 -1.83952 -1.36727 0
M  V30 4352 C 430.594 -0.723642 -1.45833 0
M  V30 4353 O 431.783 -1.00141 -1.47763 0
M  V30 4354 C 428.883 -1.98183 -2.74912 0
M  V30 4355 C 428.056 -3.28787 -2.88475 0
M  V30 4356 C 427.115 -3.33162 -4.07295 0
M  V30 4357 O 426.141 -4.06576 -3.98353 0
M  V30 4358 N 427.343 -2.60109 -5.18964 0
M  V30 4359 H 430.108 -2.77853 -1.12328 0
M  V30 4360 H 427.669 -1.54945 -0.469442 0
M  V30 4361 H 429.661 -1.98488 -3.52682 0
M  V30 4362 H 428.231 -1.11177 -2.92162 0
M  V30 4363 H 427.451 -3.41075 -1.97641 0
M  V30 4364 H 428.739 -4.14933 -2.94463 0
M  V30 4365 H 428.137 -2.00136 -5.29115 0
M  V30 4366 H 426.694 -2.66143 -5.94988 0
M  V30 4367 N 430.127 0.543554 -1.4793 0
M  V30 4368 C 431.352 1.32995 -1.59145 0
M  V30 4369 C 431.777 1.86472 -0.246956 0
M  V30 4370 O 431.135 1.63696 0.779324 0
M  V30 4371 C 431.183 2.46623 -2.63077 0
M  V30 4372 O 430.287 3.49261 -2.19295 0
M  V30 4373 H 429.628 0.394472 -0.534124 0
M  V30 4374 H 432.158 0.655489 -1.93816 0
M  V30 4375 H 432.168 2.93001 -2.83926 0
M  V30 4376 H 430.843 2.07059 -3.60693 0
M  V30 4377 H 429.42 3.09094 -2.08603 0
M  V30 4378 N 431.605 1.3629 0.791371 0
M  V30 4379 C 433.016 1.27225 1.36641 0
M  V30 4380 C 433.367 -0.0887968 1.95999 0
M  V30 4381 O 432.492 -0.990207 1.92416 0
M  V30 4382 C 433.087 2.30375 2.48421 0
M  V30 4383 C 431.646 2.25004 3.01746 0
M  V30 4384 C 430.793 2.15259 1.7481 0
M  V30 4385 H 433.744 1.47198 0.593173 0
M  V30 4386 H 433.765 1.93905 3.27385 0
M  V30 4387 H 433.277 3.29422 2.05189 0
M  V30 4388 H 431.378 1.29417 3.49403 0
M  V30 4389 H 431.491 3.1761 3.58693 0
M  V30 4390 H 429.855 1.61482 1.96966 0
M  V30 4391 H 430.638 3.16191 1.33709 0
M  V30 4392 N 433.083 -1.0153 1.20538 0
M  V30 4393 C 434.311 -1.78746 1.04199 0
M  V30 4394 C 434.726 -1.84323 -0.408733 0
M  V30 4395 O 434.083 -1.29714 -1.28377 0
M  V30 4396 C 434.134 -3.23152 1.62035 0
M  V30 4397 O 433.855 -3.17918 3.0143 0
M  V30 4398 C 435.356 -4.16911 1.50666 0
M  V30 4399 H 432.576 -0.56208 0.366479 0
M  V30 4400 H 435.12 -1.27794 1.59653 0
M  V30 4401 H 433.275 -3.71248 1.10697 0
M  V30 4402 H 433.689 -4.08567 3.28897 0
M  V30 4403 H 435.163 -5.16072 1.95892 0
M  V30 4404 H 435.64 -4.36791 0.459363 0
M  V30 4405 H 436.246 -3.74698 2.01201 0
M  V30 4406 N 434.561 -1.01147 -1.20859 0
M  V30 4407 C 435.508 -0.577354 -2.23462 0
M  V30 4408 C 436.478 0.399922 -1.61214 0
M  V30 4409 O 437.663 0.300515 -1.88419 0
M  V30 4410 C 434.803 0.083372 -3.44999 0
M  V30 4411 C 433.916 -0.937856 -4.21697 0
M  V30 4412 C 433.051 -0.248717 -5.30617 0
M  V30 4413 C 432.09 -1.25705 -5.99053 0
M  V30 4414 N 431.227 -0.594939 -6.99575 0
M  V30 4415 H 436.067 -1.45695 -2.59956 0
M  V30 4416 H 433.604 -0.729428 -1.27741 0
M  V30 4417 H 435.562 0.483535 -4.14388 0
M  V30 4418 H 434.192 0.926645 -3.09214 0
M  V30 4419 H 433.244 -1.45622 -3.51423 0
M  V30 4420 H 434.556 -1.70493 -4.68757 0
M  V30 4421 H 433.71 0.207215 -6.06346 0
M  V30 4422 H 432.449 0.55071 -4.84581 0
M  V30 4423 H 431.454 -1.72343 -5.2209 0
M  V30 4424 H 432.679 -2.05767 -6.47176 0
M  V30 4425 H 430.625 0.184713 -6.5574 0
M  V30 4426 H 430.542 -1.30017 -7.44736 0
M  V30 4427 H 431.81 -0.162427 -7.79331 0
M  V30 4428 N 436.039 1.36541 -0.78704 0
M  V30 4429 C 436.987 2.31965 -0.171724 0
M  V30 4430 C 437.981 1.55689 0.667631 0
M  V30 4431 O 439.187 1.70969 0.562981 0
M  V30 4432 H 435.562 0.751101 -0.0367545 0
M  V30 4433 H 437.533 2.81428 -0.992017 0
M  V30 4434 C 436.282 3.40968 0.680904 0
M  V30 4435 H 435.605 3.99775 0.0443961 0
M  V30 4436 H 437.045 4.10063 1.07815 0
M  V30 4437 C 435.504 2.82338 1.83813 0
M  V30 4438 O 436.034 2.74311 2.93456 0
M  V30 4439 N 434.24 2.39661 1.6435 0
M  V30 4440 H 433.787 2.46389 0.751668 0
M  V30 4441 H 433.745 2.00779 2.4194 0
M  V30 4442 N 437.518 0.538854 1.48102 0
M  V30 4443 C 438.766 0.00798599 2.02098 0
M  V30 4444 C 439.087 -1.33922 1.41739 0
M  V30 4445 O 438.357 -1.86932 0.585934 0
M  V30 4446 H 436.937 -3.62179e-05 0.747 0
M  V30 4447 H 439.599 0.7047 1.81714 0
M  V30 4448 H 438.695 -0.0937672 3.11959 0
M  V30 4449 N 438.996 -1.55193 0.274407 0
M  V30 4450 C 440.221 -2.04446 -0.348824 0
M  V30 4451 C 440.646 -1.15149 -1.48735 0
M  V30 4452 O 440.004 -0.149952 -1.80679 0
M  V30 4453 C 440.052 -3.51431 -0.808009 0
M  V30 4454 O 439.156 -3.65225 -1.91531 0
M  V30 4455 H 438.497 -0.66006 -0.0722276 0
M  V30 4456 H 441.027 -2.00481 0.408498 0
M  V30 4457 H 441.037 -3.92781 -1.10395 0
M  V30 4458 H 439.712 -4.15892 0.0249865 0
M  V30 4459 H 438.289 -3.35778 -1.62196 0
M  V30 4460 N 440.474 -0.00167713 -1.576 0
M  V30 4461 C 441.885 0.54091 -1.78693 0
M  V30 4462 C 442.236 1.7386 -0.909247 0
M  V30 4463 O 441.361 2.16109 -0.112176 0
M  V30 4464 C 441.956 0.98806 -3.24072 0
M  V30 4465 C 440.515 1.47594 -3.46256 0
M  V30 4466 C 439.662 0.42792 -2.73978 0
M  V30 4467 H 442.613 -0.22784 -1.57056 0
M  V30 4468 H 442.634 1.85398 -3.32277 0
M  V30 4469 H 442.146 0.116164 -3.87926 0
M  V30 4470 H 440.247 2.36868 -2.87618 0
M  V30 4471 H 440.36 1.50225 -4.54939 0
M  V30 4472 H 438.724 0.889934 -2.38647 0
M  V30 4473 H 439.507 -0.435038 -3.40532 0
M  V30 4474 N 441.952 1.55251 0.271103 0
M  V30 4475 C 443.177 1.80306 1.02491 0
M  V30 4476 C 443.602 0.575457 1.79081 0
M  V30 4477 O 442.96 -0.474987 1.74967 0
M  V30 4478 C 443.008 3.02832 1.95768 0
M  V30 4479 O 442.112 2.78051 3.04568 0
M  V30 4480 H 441.453 0.595896 0.292923 0
M  V30 4481 H 443.983 2.02397 0.299436 0
M  V30 4482 H 443.993 3.31616 2.37686 0
M  V30 4483 H 442.668 3.9183 1.39434 0
M  V30 4484 H 441.245 2.60369 2.66951 0
M  V30 4485 N 443.43 -0.535701 1.48216 0
M  V30 4486 C 444.377 -1.64083 1.62312 0
M  V30 4487 C 445.347 -1.59448 0.465365 0
M  V30 4488 O 446.532 -1.77959 0.688135 0
M  V30 4489 C 443.672 -3.0236 1.66349 0
M  V30 4490 C 442.785 -3.17273 2.93193 0
M  V30 4491 C 441.92 -4.46075 2.88427 0
M  V30 4492 C 440.959 -4.54496 4.1 0
M  V30 4493 N 440.096 -5.7468 4.03345 0
M  V30 4494 H 444.936 -1.51374 2.5669 0
M  V30 4495 H 442.473 -0.737059 1.27302 0
M  V30 4496 H 444.431 -3.82461 1.66672 0
M  V30 4497 H 443.061 -3.13854 0.754672 0
M  V30 4498 H 442.113 -2.30462 3.02641 0
M  V30 4499 H 443.425 -3.19357 3.83162 0
M  V30 4500 H 442.579 -5.3446 2.87119 0
M  V30 4501 H 441.318 -4.46504 1.96177 0
M  V30 4502 H 440.323 -3.64519 4.11589 0
M  V30 4503 H 441.548 -4.5581 5.03402 0
M  V30 4504 H 439.494 -5.76017 3.13912 0
M  V30 4505 H 439.411 -5.78234 4.87013 0
M  V30 4506 H 440.679 -6.65367 4.06087 0
M  V30 4507 N 444.908 -1.36708 -0.784132 0
M  V30 4508 C 446.148 -1.32618 -1.55537 0
M  V30 4509 C 446.512 0.0920681 -1.91779 0
M  V30 4510 O 447.713 0.257573 -2.67563 0
M  V30 4511 C 445.984 -2.22788 -2.79464 0
M  V30 4512 S 447.543 -2.36432 -3.69656 0
M  V30 4513 H 444.361 -0.470973 -0.53264 0
M  V30 4514 H 446.963 -1.72333 -0.92312 0
M  V30 4515 H 445.667 -3.24774 -2.50899 0
M  V30 4516 H 445.198 -1.84112 -3.47658 0
M  V30 4517 H 447.213 -1.56573 -4.7085 0
M  V30 4518 N 446.386 1.0089 -1.21074 0
M  V30 4519 C 447.797 1.56056 -1.02486 0
M  V30 4520 C 448.148 1.91728 0.416506 0
M  V30 4521 O 447.273 1.73066 1.29912 0
M  V30 4522 C 447.868 2.83563 -1.85411 0
M  V30 4523 C 446.427 3.3523 -1.71166 0
M  V30 4524 C 445.574 2.0846 -1.82865 0
M  V30 4525 H 448.525 0.831818 -1.35154 0
M  V30 4526 H 448.546 3.55286 -1.36205 0
M  V30 4527 H 448.058 2.57569 -2.9031 0
M  V30 4528 H 446.159 3.66167 -0.689361 0
M  V30 4529 H 446.272 4.06913 -2.52901 0
M  V30 4530 H 444.636 2.21275 -1.26132 0
M  V30 4531 H 445.419 1.84883 -2.89263 0
M  V30 4532 N 447.864 1.01787 1.20321 0
M  V30 4533 C 449.28 0.732951 1.41774 0
M  V30 4534 C 449.48 -0.686883 1.89431 0
M  V30 4535 O 448.536 -1.45446 2.06402 0
M  V30 4536 C 449.849 1.75973 2.43832 0
M  V30 4537 C 451.397 1.77802 2.57596 0
M  V30 4538 C 451.872 2.7941 3.62897 0
M  V30 4539 N 453.363 2.78157 3.70382 0
M  V30 4540 C 454.098 3.53434 4.51521 0
M  V30 4541 N 453.594 4.38392 5.36455 0
M  V30 4542 N 455.387 3.42026 4.46066 0
M  V30 4543 H 447.538 1.93447 0.877035 0
M  V30 4544 H 449.801 0.835712 0.447536 0
M  V30 4545 H 449.507 2.77699 2.15815 0
M  V30 4546 H 449.381 1.57292 3.4284 0
M  V30 4547 H 451.768 0.767602 2.84942 0
M  V30 4548 H 451.849 2.00557 1.58779 0
M  V30 4549 H 451.493 3.80616 3.36295 0
M  V30 4550 H 451.423 2.53916 4.61339 0
M  V30 4551 H 453.914 2.16531 3.09714 0
M  V30 4552 H 454.227 4.92596 5.95457 0
M  V30 4553 H 452.572 4.4247 5.35953 0
M  V30 4554 H 455.763 2.75075 3.78749 0
M  V30 4555 H 455.936 4.00946 5.09064 0
M  V30 4556 N 449.342 -1.36122 0.79427 0
M  V30 4557 C 450.589 -1.99111 0.368905 0
M  V30 4558 C 450.917 -1.63032 -1.0607 0
M  V30 4559 O 450.172 -0.879303 -1.74833 0
M  V30 4560 C 450.471 -3.5409 0.48527 0
M  V30 4561 C 450.137 -4.10003 1.87638 0
M  V30 4562 C 448.799 -4.24986 2.257 0
M  V30 4563 C 451.151 -4.40423 2.78706 0
M  V30 4564 C 448.479 -4.67701 3.54221 0
M  V30 4565 C 450.831 -4.84573 4.0666 0
M  V30 4566 C 449.495 -4.97761 4.44737 0
M  V30 4567 H 448.765 -0.7286 0.134992 0
M  V30 4568 H 451.412 -1.62534 1.01267 0
M  V30 4569 H 449.717 -3.91052 -0.241984 0
M  V30 4570 H 451.414 -4.00766 0.137109 0
M  V30 4571 H 448.004 -3.98784 1.57064 0
M  V30 4572 H 452.188 -4.28412 2.50553 0
M  V30 4573 H 447.444 -4.761 3.83587 0
M  V30 4574 H 451.618 -5.07074 4.77336 0
M  V30 4575 H 449.245 -5.30618 5.44379 0
M  V30 4576 N 450.82 -0.546701 -1.47814 0
M  V30 4577 C 451.75 0.195317 -2.32682 0
M  V30 4578 C 452.731 0.918981 -1.43139 0
M  V30 4579 O 453.916 0.901501 -1.72008 0
M  V30 4580 C 451.046 1.23237 -3.247 0
M  V30 4581 C 450 0.625818 -4.234 0
M  V30 4582 C 449.326 1.76674 -5.04669 0
M  V30 4583 C 450.626 -0.413515 -5.2066 0
M  V30 4584 H 452.32 -0.513184 -2.94969 0
M  V30 4585 H 449.866 -0.248241 -1.41844 0
M  V30 4586 H 451.819 1.75955 -3.82907 0
M  V30 4587 H 450.543 1.97067 -2.60446 0
M  V30 4588 H 449.202 0.120023 -3.66403 0
M  V30 4589 H 448.85 2.49383 -4.36826 0
M  V30 4590 H 448.55 1.36673 -5.71484 0
M  V30 4591 H 450.074 2.29738 -5.65732 0
M  V30 4592 H 451.488 0.0272042 -5.73294 0
M  V30 4593 H 449.885 -0.731825 -5.95621 0
M  V30 4594 H 450.955 -1.31325 -4.66778 0
M  V30 4595 N 452.299 1.55045 -0.282633 0
M  V30 4596 C 453.246 2.22822 0.601566 0
M  V30 4597 C 454.216 1.20431 1.14392 0
M  V30 4598 O 455.401 1.48996 1.19184 0
M  V30 4599 C 452.541 2.95873 1.77632 0
M  V30 4600 C 451.654 4.12999 1.26711 0
M  V30 4601 C 450.789 4.73676 2.40426 0
M  V30 4602 C 449.828 5.82981 1.86545 0
M  V30 4603 N 448.965 6.3769 2.93762 0
M  V30 4604 H 453.805 2.97995 0.0169528 0
M  V30 4605 H 451.342 1.471 -0.00339964 0
M  V30 4606 H 453.3 3.36447 2.46697 0
M  V30 4607 H 451.93 2.2311 2.33285 0
M  V30 4608 H 450.982 3.77494 0.469314 0
M  V30 4609 H 452.294 4.91803 0.832518 0
M  V30 4610 H 451.448 5.17008 3.17471 0
M  V30 4611 H 450.187 3.94164 2.87203 0
M  V30 4612 H 449.192 5.39092 1.07983 0
M  V30 4613 H 450.417 6.64366 1.40694 0
M  V30 4614 H 448.363 5.61069 3.39908 0
M  V30 4615 H 448.28 7.11788 2.54744 0
M  V30 4616 H 449.548 6.8568 3.7076 0
M  V30 4617 N 453.777 0.010035 1.57597 0
M  V30 4618 C 455.023 -0.673697 1.91283 0
M  V30 4619 C 455.356 -1.72863 0.884979 0
M  V30 4620 O 454.631 -1.94268 -0.0949487 0
M  V30 4621 C 454.914 -1.30766 3.35518 0
M  V30 4622 C 454.767 -0.263578 4.49027 0
M  V30 4623 C 456.086 -2.23105 3.79358 0
M  V30 4624 H 453.205 -0.243439 0.695634 0
M  V30 4625 H 455.847 0.0633864 1.89894 0
M  V30 4626 H 453.997 -1.93588 3.36832 0
M  V30 4627 H 455.669 0.365738 4.59848 0
M  V30 4628 H 453.912 0.413077 4.31829 0
M  V30 4629 H 454.583 -0.746398 5.4693 0
M  V30 4630 H 457.059 -1.70289 3.79659 0
M  V30 4631 H 455.935 -2.64424 4.81011 0
M  V30 4632 H 456.196 -3.11433 3.13787 0
M  V30 4633 N 455.255 -1.55392 -0.262866 0
M  V30 4634 C 456.202 -1.88966 -1.32516 0
M  V30 4635 C 457.172 -0.742187 -1.48596 0
M  V30 4636 O 458.357 -0.99439 -1.62839 0
M  V30 4637 C 455.497 -2.17592 -2.67858 0
M  V30 4638 C 454.61 -3.45061 -2.59917 0
M  V30 4639 C 453.745 -3.63336 -3.87505 0
M  V30 4640 C 452.784 -4.84462 -3.74116 0
M  V30 4641 N 451.921 -4.99342 -4.93561 0
M  V30 4642 H 456.761 -2.79566 -1.03184 0
M  V30 4643 H 454.298 -1.38404 -0.498285 0
M  V30 4644 H 456.256 -2.3219 -3.46617 0
M  V30 4645 H 454.886 -1.30215 -2.95371 0
M  V30 4646 H 453.938 -3.38881 -1.72812 0
M  V30 4647 H 455.25 -4.3396 -2.45926 0
M  V30 4648 H 454.404 -3.77807 -4.74707 0
M  V30 4649 H 453.143 -2.72641 -4.04374 0
M  V30 4650 H 452.148 -4.69985 -2.85297 0
M  V30 4651 H 453.373 -5.76603 -3.58757 0
M  V30 4652 H 451.319 -4.1158 -5.10821 0
M  V30 4653 H 451.236 -5.82303 -4.82141 0
M  V30 4654 H 452.504 -5.18208 -5.82306 0
M  V30 4655 N 456.733 0.527833 -1.48498 0
M  V30 4656 C 457.681 1.65313 -1.63628 0
M  V30 4657 C 458.675 1.6177 -0.502676 0
M  V30 4658 O 459.881 1.66601 -0.681469 0
M  V30 4659 H 456.256 0.547518 -0.515488 0
M  V30 4660 H 458.227 1.49696 -2.58135 0
M  V30 4661 C 456.976 3.03576 -1.6952 0
M  V30 4662 H 456.299 3.06997 -2.56111 0
M  V30 4663 H 457.739 3.81923 -1.84149 0
M  V30 4664 C 456.198 3.34089 -0.43432 0
M  V30 4665 O 456.728 3.99151 0.451852 0
M  V30 4666 N 454.934 2.88991 -0.305368 0
M  V30 4667 H 454.481 2.36222 -1.02747 0
M  V30 4668 H 454.439 3.09776 0.537249 0
M  V30 4669 N 458.211 1.37122 0.776871 0
M  V30 4670 C 459.457 1.3325 1.53675 0
M  V30 4671 C 459.812 -0.0839891 1.92217 0
M  V30 4672 O 459.105 -1.04145 1.60824 0
M  V30 4673 C 459.299 2.20068 2.81611 0
M  V30 4674 C 459.128 3.70016 2.55574 0
M  V30 4675 C 457.898 4.39144 2.4996 0
M  V30 4676 C 460.096 4.62996 2.23917 0
M  V30 4677 N 458.078 5.74663 2.15953 0
M  V30 4678 C 459.449 5.86854 2.00005 0
M  V30 4679 C 461.504 4.51433 2.1003 0
M  V30 4680 C 460.207 7.00446 1.63609 0
M  V30 4681 C 462.233 5.64905 1.75033 0
M  V30 4682 C 461.595 6.8781 1.51977 0
M  V30 4683 H 457.694 0.542878 0.562856 0
M  V30 4684 H 460.278 1.72295 0.906784 0
M  V30 4685 H 458.449 1.83248 3.42454 0
M  V30 4686 H 460.181 2.07492 3.47461 0
M  V30 4687 H 456.936 3.92088 2.65639 0
M  V30 4688 H 457.36 6.46268 2.0166 0
M  V30 4689 H 462.002 3.56987 2.26539 0
M  V30 4690 H 459.72 7.94831 1.45837 0
M  V30 4691 H 463.306 5.57926 1.64952 0
M  V30 4692 H 462.186 7.74126 1.25296 0
M  V30 4693 N 459.689 -1.00246 1.21608 0
M  V30 4694 C 460.599 -2.12515 0.993709 0
M  V30 4695 C 461.615 -1.73913 -0.0549939 0
M  V30 4696 O 462.791 -2.00943 0.135619 0
M  V30 4697 C 459.856 -3.42083 0.563953 0
M  V30 4698 C 458.917 -3.94843 1.68516 0
M  V30 4699 C 458.15 -5.18226 1.27582 0
M  V30 4700 O 458.373 -5.70201 0.150506 0
M  V30 4701 O 457.307 -5.64497 2.0887 0
M  V30 4702 H 461.133 -2.34152 1.93407 0
M  V30 4703 H 458.718 -1.10891 1.00118 0
M  V30 4704 H 460.6 -4.20073 0.334194 0
M  V30 4705 H 459.275 -3.21828 -0.347665 0
M  V30 4706 H 458.182 -3.18068 1.96935 0
M  V30 4707 H 459.515 -4.19512 2.5743 0
M  V30 4708 N 461.167 -1.02423 -1.1978 0
M  V30 4709 C 462.395 -0.737456 -1.93311 0
M  V30 4710 C 462.81 0.703023 -1.75223 0
M  V30 4711 O 462.167 1.47761 -1.07112 0
M  V30 4712 C 462.218 -1.0733 -3.45199 0
M  V30 4713 O 461.939 -2.4572 -3.62702 0
M  V30 4714 C 463.44 -0.80866 -4.35862 0
M  V30 4715 H 460.66 -0.2702 -0.614193 0
M  V30 4716 H 463.204 -1.36747 -1.52054 0
M  V30 4717 H 461.359 -0.488545 -3.84307 0
M  V30 4718 H 461.773 -2.58081 -4.56612 0
M  V30 4719 H 463.247 -1.09365 -5.41057 0
M  V30 4720 H 463.724 0.257025 -4.38447 0
M  V30 4721 H 464.33 -1.37592 -4.02428 0
M  V30 4722 N 462.645 1.35699 -0.801477 0
M  V30 4723 C 463.555 2.33661 -0.209691 0
M  V30 4724 C 464.571 1.6162 0.644591 0
M  V30 4725 O 465.747 1.93529 0.557545 0
M  V30 4726 C 462.812 3.40816 0.636033 0
M  V30 4727 C 461.873 4.28639 -0.238147 0
M  V30 4728 C 461.106 5.30676 0.567307 0
M  V30 4729 O 461.329 5.41174 1.8024 0
M  V30 4730 O 460.263 6.01887 -0.0391336 0
M  V30 4731 H 464.089 2.8606 -1.01996 0
M  V30 4732 H 461.674 1.38379 -0.563164 0
M  V30 4733 H 463.556 4.06301 1.11791 0
M  V30 4734 H 462.231 2.90696 1.42399 0
M  V30 4735 H 461.138 3.66152 -0.767044 0
M  V30 4736 H 462.471 4.82143 -0.989915 0
M  V30 4737 N 464.123 0.554532 1.47522 0
M  V30 4738 C 465.369 0.0295227 2.02779 0
M  V30 4739 C 465.702 -1.31582 1.42828 0
M  V30 4740 O 464.977 -1.85561 0.582872 0
M  V30 4741 C 465.26 -0.0664057 3.60039 0
M  V30 4742 C 465.113 1.30585 4.30427 0
M  V30 4743 C 466.432 -0.781162 4.33112 0
M  V30 4744 H 463.551 0.0122027 0.736899 0
M  V30 4745 H 466.193 0.716305 1.7598 0
M  V30 4746 H 464.343 -0.651307 3.83002 0
M  V30 4747 H 466.015 1.93374 4.18813 0
M  V30 4748 H 464.258 1.88125 3.90886 0
M  V30 4749 H 464.929 1.19147 5.38988 0
M  V30 4750 H 467.405 -0.284565 4.15126 0
M  V30 4751 H 466.281 -0.817237 5.42782 0
M  V30 4752 H 466.542 -1.83672 4.0214 0
M  V30 4753 N 465.601 -1.54893 0.290851 0
M  V30 4754 C 466.847 -2.0023 -0.321867 0
M  V30 4755 C 467.18 -1.179 -1.54316 0
M  V30 4756 O 466.455 -0.25293 -1.92848 0
M  V30 4757 C 466.738 -3.53456 -0.688515 0
M  V30 4758 C 466.591 -4.46532 0.541209 0
M  V30 4759 C 467.91 -4.13057 -1.51895 0
M  V30 4760 H 465.029 -0.727891 -0.115515 0
M  V30 4761 H 467.671 -1.85722 0.400931 0
M  V30 4762 H 465.821 -3.6595 -1.30433 0
M  V30 4763 H 467.493 -4.4596 1.17973 0
M  V30 4764 H 465.736 -4.17545 1.17636 0
M  V30 4765 H 466.407 -5.51475 0.240675 0
M  V30 4766 H 468.883 -4.03937 -0.99872 0
M  V30 4767 H 467.759 -5.20448 -1.74429 0
M  V30 4768 H 468.02 -3.64284 -2.50498 0
M  V30 4769 N 467.08 -0.0183926 -1.57589 0
M  V30 4770 C 468.01 0.965596 -2.12599 0
M  V30 4771 C 468.991 1.34641 -1.0395 0
M  V30 4772 O 470.176 1.42693 -1.31729 0
M  V30 4773 C 467.306 2.25149 -2.64434 0
M  V30 4774 C 466.26 2.01175 -3.77773 0
M  V30 4775 C 465.586 3.35937 -4.15994 0
M  V30 4776 C 466.886 1.35953 -5.04296 0
M  V30 4777 H 468.58 0.507504 -2.95067 0
M  V30 4778 H 466.126 0.242671 -1.41941 0
M  V30 4779 H 468.079 2.94357 -3.01549 0
M  V30 4780 H 466.803 2.73105 -1.79112 0
M  V30 4781 H 465.462 1.34388 -3.4108 0
M  V30 4782 H 465.11 3.81631 -3.27669 0
M  V30 4783 H 464.81 3.20705 -4.92364 0
M  V30 4784 H 466.334 4.0643 -4.55683 0
M  V30 4785 H 467.748 1.95144 -5.39065 0
M  V30 4786 H 466.145 1.31152 -5.85593 0
M  V30 4787 H 467.215 0.331071 -4.83768 0
M  V30 4788 N 468.558 1.5553 0.254621 0
M  V30 4789 C 469.786 1.81046 1.00149 0
M  V30 4790 C 470.201 0.593047 1.79244 0
M  V30 4791 O 469.558 -0.438196 1.77161 0
M  V30 4792 C 469.609 3.04684 1.94551 0
M  V30 4793 O 469.33 4.21725 1.18658 0
M  V30 4794 C 470.831 3.42943 2.80901 0
M  V30 4795 H 468.051 0.602653 0.295044 0
M  V30 4796 H 470.595 2.02576 0.279842 0
M  V30 4797 H 468.75 2.85226 2.62154 0
M  V30 4798 H 469.164 4.91746 1.82445 0
M  V30 4799 H 470.638 4.32576 3.42902 0
M  V30 4800 H 471.115 2.63176 3.51617 0
M  V30 4801 H 471.721 3.64724 2.18762 0
M  V30 4802 N 470.036 -0.519951 1.48776 0
M  V30 4803 C 471.313 -1.28123 1.47797 0
M  V30 4804 C 471.693 -2.10196 0.195157 0
M  V30 4805 O 471.041 -2.13167 -0.822925 0
M  V30 4806 C 471.251 -2.15413 2.74587 0
M  V30 4807 C 472.599 -2.75225 3.23321 0
M  V30 4808 O 473.623 -2.25694 2.75574 0
M  V30 4809 O 472.482 -3.65346 4.06429 0
M  V30 4810 H 469.576 -0.578793 0.590701 0
M  V30 4811 H 472.122 -0.535779 1.6102 0
M  V30 4812 H 470.894 -1.54617 3.59457 0
M  V30 4813 H 470.517 -2.97186 2.64132 0
M  V30 4814 N 471.514 -1.37532 -0.769588 0
M  V30 4815 C 472.742 -1.36059 -1.55871 0
M  V30 4816 C 473.157 0.053544 -1.88724 0
M  V30 4817 O 472.514 1.01591 -1.5161 0
M  V30 4818 C 472.565 -2.20107 -2.86767 0
M  V30 4819 O 472.286 -3.56009 -2.55321 0
M  V30 4820 C 473.787 -2.26636 -3.80987 0
M  V30 4821 H 471.007 -0.465967 -0.482821 0
M  V30 4822 H 473.551 -1.80901 -0.953686 0
M  V30 4823 H 471.706 -1.78768 -3.43687 0
M  V30 4824 H 472.12 -4.0009 -3.39158 0
M  V30 4825 H 473.594 -2.89763 -4.69831 0
M  V30 4826 H 474.071 -1.2754 -4.20274 0
M  V30 4827 H 474.677 -2.68296 -3.29996 0
M  V30 4828 N 472.992 0.995999 -1.22138 0
M  V30 4829 C 473.922 2.10387 -1.01289 0
M  V30 4830 C 474.903 1.69975 0.0651454 0
M  V30 4831 O 476.088 1.9396 -0.0964628 0
M  V30 4832 C 473.218 3.42312 -0.586517 0
M  V30 4833 C 472.172 3.96558 -1.61014 0
M  V30 4834 C 471.498 5.24494 -1.0397 0
M  V30 4835 C 472.798 4.27595 -2.99933 0
M  V30 4836 H 474.492 2.28086 -1.93951 0
M  V30 4837 H 472.038 1.09607 -0.933928 0
M  V30 4838 H 473.991 4.19223 -0.427793 0
M  V30 4839 H 472.715 3.24431 0.375761 0
M  V30 4840 H 471.374 3.21776 -1.75658 0
M  V30 4841 H 471.022 5.02953 -0.0688703 0
M  V30 4842 H 470.722 5.61755 -1.72352 0
M  V30 4843 H 472.246 6.04042 -0.892494 0
M  V30 4844 H 473.66 4.95315 -2.8868 0
M  V30 4845 H 472.057 4.76021 -3.6541 0
M  V30 4846 H 473.127 3.35498 -3.50099 0
M  V30 4847 N 474.47 1.03057 1.19235 0
M  V30 4848 C 475.42 0.583386 2.2041 0
M  V30 4849 C 476.404 -0.368776 1.56617 0
M  V30 4850 O 477.596 -0.189471 1.75983 0
M  V30 4851 C 474.725 -0.0626534 3.43243 0
M  V30 4852 C 473.811 0.91205 4.14177 0
M  V30 4853 N 474.202 2.07514 4.61272 0
M  V30 4854 C 472.5 0.735859 4.39888 0
M  V30 4855 C 473.201 2.69003 5.15764 0
M  V30 4856 N 472.177 1.96954 5.06666 0
M  V30 4857 H 475.979 1.46988 2.54503 0
M  V30 4858 H 473.493 0.897785 1.35328 0
M  V30 4859 H 475.49 -0.400653 4.1497 0
M  V30 4860 H 474.15 -0.944813 3.1065 0
M  V30 4861 H 475.161 2.45448 4.56043 0
M  V30 4862 H 471.838 -0.0970656 4.17387 0
M  V30 4863 H 473.228 3.67514 5.6248 0
M  V30 4864 N 475.948 -1.35272 0.808662 0
M  V30 4865 C 476.878 -2.32315 0.234981 0
M  V30 4866 C 477.859 -1.57572 -0.64071 0
M  V30 4867 O 479.044 -1.8563 -0.570551 0
M  V30 4868 C 476.174 -3.41801 -0.615601 0
M  V30 4869 C 475.128 -4.27694 0.161767 0
M  V30 4870 C 474.454 -5.28519 -0.810649 0
M  V30 4871 C 475.754 -5.04231 1.36193 0
M  V30 4872 H 477.448 -2.80543 1.04575 0
M  V30 4873 H 474.994 -1.3488 0.504315 0
M  V30 4874 H 476.947 -4.08693 -1.02702 0
M  V30 4875 H 475.671 -2.92186 -1.45928 0
M  V30 4876 H 474.33 -3.62384 0.554382 0
M  V30 4877 H 473.978 -4.75171 -1.64988 0
M  V30 4878 H 473.678 -5.8686 -0.294822 0
M  V30 4879 H 475.202 -5.98283 -1.22023 0
M  V30 4880 H 476.616 -5.64058 1.02528 0
M  V30 4881 H 475.013 -5.72077 1.81239 0
M  V30 4882 H 476.083 -4.34753 2.14751 0
M  V30 4883 N 477.426 -0.562348 -1.47226 0
M  V30 4884 C 478.373 0.182461 -2.30078 0
M  V30 4885 C 479.343 0.903503 -1.39377 0
M  V30 4886 O 480.528 0.898188 -1.68337 0
M  V30 4887 C 477.668 1.20322 -3.23445 0
M  V30 4888 C 476.781 0.487717 -4.29238 0
M  V30 4889 C 475.916 1.49422 -5.09752 0
M  V30 4890 C 474.955 0.763976 -6.07314 0
M  V30 4891 N 474.092 1.71755 -6.80768 0
M  V30 4892 H 478.932 -0.530169 -2.93246 0
M  V30 4893 H 476.469 -0.273276 -1.44539 0
M  V30 4894 H 478.427 1.80768 -3.76004 0
M  V30 4895 H 477.057 1.88382 -2.6213 0
M  V30 4896 H 476.109 -0.231374 -3.79696 0
M  V30 4897 H 477.421 -0.0841003 -4.98729 0
M  V30 4898 H 476.575 2.17206 -5.66486 0
M  V30 4899 H 475.314 2.09995 -4.40174 0
M  V30 4900 H 474.319 0.0722344 -5.49753 0
M  V30 4901 H 475.544 0.16391 -6.78902 0
M  V30 4902 H 473.49 2.31177 -6.13916 0
M  V30 4903 H 473.407 1.19802 -7.46447 0
M  V30 4904 H 474.675 2.38638 -7.42073 0
M  V30 4905 N 478.904 1.54736 -0.299062 0
M  V30 4906 C 480.129 2.04975 0.316254 0
M  V30 4907 C 480.554 1.17501 1.46885 0
M  V30 4908 O 479.912 0.178678 1.80417 0
M  V30 4909 C 479.96 3.52672 0.751997 0
M  V30 4910 O 479.064 3.68226 1.85697 0
M  V30 4911 H 478.405 0.661126 0.0617175 0
M  V30 4912 H 480.935 1.99805 -0.440341 0
M  V30 4913 H 480.945 3.94488 1.04133 0
M  V30 4914 H 479.62 4.158 -0.0911482 0
M  V30 4915 H 478.197 3.38316 1.56834 0
M  V30 4916 N 480.382 0.0267497 1.57577 0
M  V30 4917 C 481.61 -0.662661 1.96001 0
M  V30 4918 C 482.025 -1.65799 0.903117 0
M  V30 4919 O 481.382 -1.82135 -0.115317 0
M  V30 4920 C 481.433 -1.37112 3.34488 0
M  V30 4921 O 481.154 -0.415683 4.36123 0
M  V30 4922 C 482.655 -2.15257 3.8753 0
M  V30 4923 H 479.875 -0.18287 0.6456 0
M  V30 4924 H 482.419 0.0858116 2.0432 0
M  V30 4925 H 480.574 -2.07101 3.27395 0
M  V30 4926 H 480.988 -0.918496 5.16395 0
M  V30 4927 H 482.462 -2.60285 4.86781 0
M  V30 4928 H 482.939 -2.99063 3.21649 0
M  V30 4929 H 483.545 -1.50231 3.97883 0
M  V30 4930 N 481.861 -1.55662 -0.24637 0
M  V30 4931 C 482.791 -1.93377 -1.30873 0
M  V30 4932 C 483.772 -0.798773 -1.50179 0
M  V30 4933 O 484.957 -1.0591 -1.62778 0
M  V30 4934 C 482.087 -2.22893 -2.66338 0
M  V30 4935 C 481.041 -3.38649 -2.61727 0
M  V30 4936 C 480.367 -3.53708 -4.00992 0
M  V30 4937 C 481.667 -4.74323 -2.18666 0
M  V30 4938 H 483.361 -2.82363 -0.995552 0
M  V30 4939 H 480.907 -1.35854 -0.477464 0
M  V30 4940 H 482.86 -2.47866 -3.40794 0
M  V30 4941 H 481.584 -1.30733 -2.99293 0
M  V30 4942 H 480.243 -3.13685 -1.89729 0
M  V30 4943 H 479.891 -2.58967 -4.31214 0
M  V30 4944 H 479.591 -4.31551 -3.98795 0
M  V30 4945 H 481.115 -3.81003 -4.77147 0
M  V30 4946 H 482.529 -4.98665 -2.82854 0
M  V30 4947 H 480.926 -5.55273 -2.27579 0
M  V30 4948 H 481.996 -4.71349 -1.13834 0
M  V30 4949 N 483.339 0.512053 -1.4905 0
M  V30 4950 C 484.249 1.64139 -1.67617 0
M  V30 4951 C 485.265 1.64786 -0.558701 0
M  V30 4952 O 486.441 1.8341 -0.832034 0
M  V30 4953 C 483.506 3.00548 -1.72835 0
M  V30 4954 C 482.567 3.10615 -2.96339 0
M  V30 4955 C 481.8 4.40517 -3.01298 0
M  V30 4956 O 482.023 5.28671 -2.14157 0
M  V30 4957 O 480.957 4.55325 -3.93653 0
M  V30 4958 H 484.783 1.51407 -2.63267 0
M  V30 4959 H 482.368 0.687131 -1.32661 0
M  V30 4960 H 484.25 3.81641 -1.78683 0
M  V30 4961 H 482.925 3.13566 -0.803616 0
M  V30 4962 H 481.832 2.2875 -2.96014 0
M  V30 4963 H 483.165 3.0252 -3.88256 0
M  V30 4964 N 484.817 1.37938 0.762283 0
M  V30 4965 C 486.045 1.36883 1.55147 0
M  V30 4966 C 486.46 -0.0435348 1.8875 0
M  V30 4967 O 485.817 -1.00786 1.52146 0
M  V30 4968 C 485.868 2.21624 2.85596 0
M  V30 4969 O 485.589 3.57358 2.5343 0
M  V30 4970 C 487.09 2.28653 3.7978 0
M  V30 4971 H 484.31 0.468521 0.480343 0
M  V30 4972 H 486.854 1.81404 0.944079 0
M  V30 4973 H 485.009 1.80588 3.42734 0
M  V30 4974 H 485.423 4.01883 3.37032 0
M  V30 4975 H 486.897 2.9225 4.68288 0
M  V30 4976 H 487.374 1.29767 4.19592 0
M  V30 4977 H 487.98 2.70043 3.28568 0
M  V30 4978 N 486.295 -0.989507 1.22664 0
M  V30 4979 C 487.543 -1.72612 1.05117 0
M  V30 4980 C 487.864 -1.90552 -0.414131 0
M  V30 4981 O 487.134 -1.4676 -1.29762 0
M  V30 4982 H 485.714 -0.639555 0.385977 0
M  V30 4983 H 488.376 -1.19158 1.54232 0
M  V30 4984 H 487.472 -2.71926 1.53175 0
M  V30 4985 N 487.773 -1.03688 -1.18687 0
M  V30 4986 C 489.013 -0.746858 -1.90267 0
M  V30 4987 C 489.377 0.712075 -1.78307 0
M  V30 4988 O 490.578 1.11553 -2.44559 0
M  V30 4989 C 488.849 -1.19543 -3.36815 0
M  V30 4990 S 490.408 -1.03047 -4.26529 0
M  V30 4991 H 487.226 -0.271663 -0.657054 0
M  V30 4992 H 489.828 -1.32838 -1.43437 0
M  V30 4993 H 488.532 -2.2527 -3.43047 0
M  V30 4994 H 488.063 -0.607533 -3.88681 0
M  V30 4995 H 490.078 0.0543232 -4.9617 0
M  V30 4996 N 489.251 1.34841 -0.815825 0
M  V30 4997 C 490.479 2.0273 -0.413294 0
M  V30 4998 C 490.894 1.61459 0.978599 0
M  V30 4999 O 490.251 0.816584 1.63212 0
M  V30 5000 C 490.302 3.58058 -0.497676 0
M  V30 5001 O 490.023 3.97832 -1.8347 0
M  V30 5002 C 491.524 4.4321 -0.0891339 0
M  V30 5003 H 488.744 0.649956 -0.166728 0
M  V30 5004 H 491.288 1.72267 -1.10201 0
M  V30 5005 H 489.443 3.87136 0.142886 0
M  V30 5006 H 489.857 4.92501 -1.80396 0
M  V30 5007 H 491.331 5.5164 -0.199274 0
M  V30 5008 H 491.808 4.28432 0.966571 0
M  V30 5009 H 492.414 4.19446 -0.703214 0
M  V30 5010 N 490.729 0.570148 1.46925 0
M  V30 5011 C 491.639 -0.173061 2.33961 0
M  V30 5012 C 492.655 -0.898825 1.48987 0
M  V30 5013 O 493.831 -0.864825 1.81887 0
M  V30 5014 C 490.896 -1.18177 3.25937 0
M  V30 5015 C 489.957 -0.462041 4.26806 0
M  V30 5016 C 489.19 -1.4227 5.14388 0
M  V30 5017 O 489.413 -2.65842 5.04662 0
M  V30 5018 O 488.347 -0.940127 5.94513 0
M  V30 5019 H 492.173 0.541216 2.98839 0
M  V30 5020 H 489.758 0.330647 1.45695 0
M  V30 5021 H 491.64 -1.76372 3.82715 0
M  V30 5022 H 490.315 -1.87774 2.63671 0
M  V30 5023 H 489.222 0.161429 3.73752 0
M  V30 5024 H 490.555 0.192719 4.91823 0
M  V30 5025 N 492.207 -1.54576 0.307264 0
M  V30 5026 C 493.437 -2.04378 -0.302158 0
M  V30 5027 C 493.845 -1.18381 -1.47589 0
M  V30 5028 O 493.188 -0.20352 -1.82569 0
M  V30 5029 C 493.25 -3.50133 -0.815305 0
M  V30 5030 C 492.914 -4.56401 0.233977 0
M  V30 5031 C 493.911 -5.08884 1.06456 0
M  V30 5032 C 491.596 -5.0088 0.377478 0
M  V30 5033 C 493.59 -6.04394 2.02452 0
M  V30 5034 C 491.277 -5.96208 1.34088 0
M  V30 5035 C 492.275 -6.47849 2.16288 0
M  V30 5036 O 491.963 -7.41308 3.10994 0
M  V30 5037 H 491.695 -0.672502 -0.0686839 0
M  V30 5038 H 494.249 -2.00484 0.446682 0
M  V30 5039 H 492.479 -3.51371 -1.61478 0
M  V30 5040 H 494.168 -3.83098 -1.34129 0
M  V30 5041 H 494.934 -4.75311 0.964596 0
M  V30 5042 H 490.813 -4.60309 -0.252405 0
M  V30 5043 H 494.357 -6.44626 2.66652 0
M  V30 5044 H 490.254 -6.29198 1.44154 0
M  V30 5045 H 491.022 -7.5913 3.06045 0
M  V30 5046 N 493.685 -0.035106 -1.57561 0
M  V30 5047 C 494.934 0.641604 -1.91223 0
M  V30 5048 C 495.247 1.72944 -0.913761 0
M  V30 5049 O 496.453 2.46321 -1.14185 0
M  V30 5050 C 494.909 1.19249 -3.3957 0
M  V30 5051 C 494.517 0.137616 -4.47789 0
M  V30 5052 C 496.261 1.84537 -3.82291 0
M  V30 5053 C 494.168 0.700478 -5.87237 0
M  V30 5054 H 493.098 0.243417 -0.713627 0
M  V30 5055 H 495.749 -0.101382 -1.8322 0
M  V30 5056 H 494.131 1.98728 -3.42525 0
M  V30 5057 H 495.305 -0.635153 -4.56402 0
M  V30 5058 H 493.62 -0.416855 -4.14308 0
M  V30 5059 H 496.217 2.27616 -4.83834 0
M  V30 5060 H 496.56 2.69054 -3.17672 0
M  V30 5061 H 497.093 1.11739 -3.81784 0
M  V30 5062 H 493.832 -0.106693 -6.55413 0
M  V30 5063 H 493.352 1.4416 -5.82218 0
M  V30 5064 H 495.031 1.18837 -6.35993 0
M  V30 5065 N 495.163 1.55791 0.238111 0
M  V30 5066 C 496.403 1.79801 0.972163 0
M  V30 5067 C 496.767 0.606027 1.82185 0
M  V30 5068 O 497.968 0.725079 2.58836 0
M  V30 5069 C 496.239 3.08608 1.80266 0
M  V30 5070 S 497.798 3.53872 2.59461 0
M  V30 5071 H 494.616 0.631418 0.326852 0
M  V30 5072 H 497.218 1.94031 0.239212 0
M  V30 5073 H 495.922 3.93419 1.1683 0
M  V30 5074 H 495.453 2.9714 2.57821 0
M  V30 5075 H 497.468 3.15899 3.82651 0
M  V30 5076 N 496.642 -0.504142 1.49319 0
M  V30 5077 C 497.575 -1.62361 1.60356 0
M  V30 5078 C 498.553 -1.56169 0.45277 0
M  V30 5079 O 499.737 -1.76271 0.667892 0
M  V30 5080 C 496.864 -3.00864 1.55559 0
M  V30 5081 C 495.91 -3.25328 2.75797 0
M  V30 5082 S 496.743 -3.08791 4.37503 0
M  V30 5083 C 497.899 -4.49695 4.35345 0
M  V30 5084 H 498.132 -1.52753 2.55056 0
M  V30 5085 H 495.665 -0.689065 1.38171 0
M  V30 5086 H 497.623 -3.8073 1.53477 0
M  V30 5087 H 496.284 -3.0789 0.621515 0
M  V30 5088 H 495.477 -4.2643 2.68651 0
M  V30 5089 H 495.079 -2.53179 2.75275 0
M  V30 5090 H 497.371 -5.41721 4.06871 0
M  V30 5091 H 498.314 -4.61891 5.36714 0
M  V30 5092 H 498.722 -4.30227 3.65465 0
M  V30 5093 N 498.12 -1.38341 -0.754957 0
M  V30 5094 C 499.368 -1.34208 -1.51105 0
M  V30 5095 C 499.689 0.0677634 -1.94882 0
M  V30 5096 O 498.959 1.01517 -1.67544 0
M  V30 5097 H 497.539 -0.493819 -0.560493 0
M  V30 5098 H 500.201 -1.73005 -0.897507 0
M  V30 5099 H 499.297 -1.99203 -2.4026 0
M  V30 5100 N 499.598 0.982988 -1.23187 0
M  V30 5101 C 500.823 1.76455 -1.08988 0
M  V30 5102 C 501.248 1.84726 0.354691 0
M  V30 5103 O 500.606 1.30699 1.25649 0
M  V30 5104 C 500.654 3.17094 -1.71708 0
M  V30 5105 O 499.758 4.00648 -0.977477 0
M  V30 5106 H 499.099 0.542988 -0.382177 0
M  V30 5107 H 501.629 1.23413 -1.63188 0
M  V30 5108 H 501.639 3.67684 -1.76841 0
M  V30 5109 H 500.314 3.10389 -2.76823 0
M  V30 5110 H 498.891 3.59161 -1.0029 0
M  V30 5111 N 501.076 1.04316 1.18135 0
M  V30 5112 C 502.325 0.74319 1.87509 0
M  V30 5113 C 502.638 -0.732136 1.81381 0
M  V30 5114 O 503.844 -1.14572 2.46141 0
M  V30 5115 C 502.3 1.27913 3.36402 0
M  V30 5116 C 501.908 2.78326 3.51053 0
M  V30 5117 C 503.652 1.0558 4.11161 0
M  V30 5118 C 501.559 3.25266 4.93919 0
M  V30 5119 H 500.489 0.274313 0.702331 0
M  V30 5120 H 503.14 1.25931 1.33467 0
M  V30 5121 H 501.522 0.690853 3.89927 0
M  V30 5122 H 502.696 3.42933 3.07788 0
M  V30 5123 H 501.011 2.991 2.89704 0
M  V30 5124 H 503.608 1.38161 5.16542 0
M  V30 5125 H 503.951 -0.00684729 4.16299 0
M  V30 5126 H 504.484 1.60882 3.63816 0
M  V30 5127 H 501.223 4.30922 4.9395 0
M  V30 5128 H 500.743 2.65396 5.3789 0
M  V30 5129 H 502.422 3.19433 5.62647 0
M  V30 5130 N 502.554 -1.34406 0.822964 0
M  V30 5131 C 503.487 -2.27407 0.190124 0
M  V30 5132 C 504.465 -1.4889 -0.653486 0
M  V30 5133 O 505.649 -1.78109 -0.617216 0
M  V30 5134 C 502.776 -3.3064 -0.734477 0
M  V30 5135 C 501.822 -4.26488 0.0316099 0
M  V30 5136 S 502.655 -5.17445 1.3788 0
M  V30 5137 C 503.811 -6.24214 0.45907 0
M  V30 5138 H 504.044 -2.80733 0.978586 0
M  V30 5139 H 501.577 -1.41455 0.618866 0
M  V30 5140 H 503.535 -3.90607 -1.26238 0
M  V30 5141 H 502.196 -2.76161 -1.49646 0
M  V30 5142 H 501.389 -4.9951 -0.671285 0
M  V30 5143 H 500.991 -3.70775 0.490066 0
M  V30 5144 H 503.283 -6.76599 -0.349357 0
M  V30 5145 H 504.226 -6.98551 1.15896 0
M  V30 5146 H 504.634 -5.6448 0.0474825 0
M  V30 5147 N 504.032 -0.577932 -1.46621 0
M  V30 5148 C 504.982 0.178869 -2.27297 0
M  V30 5149 C 505.966 0.866279 -1.35589 0
M  V30 5150 O 507.158 0.761163 -1.59798 0
M  V30 5151 C 504.287 1.19499 -3.2183 0
M  V30 5152 C 503.373 0.50994 -4.21023 0
M  V30 5153 N 503.764 -0.43177 -5.03954 0
M  V30 5154 C 502.062 0.761287 -4.39455 0
M  V30 5155 C 502.763 -0.831693 -5.75724 0
M  V30 5156 N 501.739 -0.181897 -5.43296 0
M  V30 5157 H 505.541 -0.544859 -2.88805 0
M  V30 5158 H 503.055 -0.399373 -1.57413 0
M  V30 5159 H 505.052 1.75131 -3.78332 0
M  V30 5160 H 503.712 1.91959 -2.61881 0
M  V30 5161 H 504.723 -0.807045 -5.11573 0
M  V30 5162 H 501.4 1.47282 -3.90659 0
M  V30 5163 H 502.79 -1.6067 -6.52407 0
M  V30 5164 N 505.51 1.54411 -0.315457 0
M  V30 5165 C 506.921 1.85885 0.174265 0
M  V30 5166 C 507.272 1.23723 1.52273 0
M  V30 5167 O 506.397 0.540246 2.09548 0
M  V30 5168 C 506.992 3.37257 0.322981 0
M  V30 5169 C 505.551 3.68711 0.756922 0
M  V30 5170 C 504.698 2.77013 -0.126195 0
M  V30 5171 H 507.649 1.49374 -0.536007 0
M  V30 5172 H 507.67 3.62539 1.15522 0
M  V30 5173 H 507.182 3.82471 -0.658602 0
M  V30 5174 H 505.283 3.29024 1.74854 0
M  V30 5175 H 505.396 4.75741 0.566291 0
M  V30 5176 H 503.76 2.51588 0.39692 0
M  V30 5177 H 504.543 3.25051 -1.1044 0
M  V30 5178 N 506.988 0.0434614 1.5754 0
M  V30 5179 C 508.213 -0.645358 1.97104 0
M  V30 5180 C 508.638 -1.64037 0.920521 0
M  V30 5181 O 507.996 -1.80922 -0.11708 0
M  V30 5182 C 508.044 -1.31547 3.35749 0
M  V30 5183 O 507.148 -2.43103 3.33129 0
M  V30 5184 H 506.489 -0.168403 0.64229 0
M  V30 5185 H 509.019 0.109573 2.04306 0
M  V30 5186 H 509.029 -1.66895 3.72304 0
M  V30 5187 H 507.704 -0.586205 4.11748 0
M  V30 5188 H 506.281 -2.0976 3.0831 0
M  V30 5189 N 508.466 -1.55915 -0.229846 0
M  V30 5190 C 509.398 -1.88209 -1.30805 0
M  V30 5191 C 510.411 -0.769672 -1.43457 0
M  V30 5192 O 511.6 -1.04792 -1.44502 0
M  V30 5193 C 508.7 -2.06829 -2.68468 0
M  V30 5194 C 507.873 -3.37798 -2.77869 0
M  V30 5195 C 506.932 -3.45952 -3.96489 0
M  V30 5196 O 505.958 -4.19043 -3.85216 0
M  V30 5197 N 507.16 -2.76488 -5.10426 0
M  V30 5198 H 509.925 -2.81286 -1.03431 0
M  V30 5199 H 507.486 -1.5636 -0.41991 0
M  V30 5200 H 509.478 -2.09608 -3.46189 0
M  V30 5201 H 508.048 -1.20416 -2.88477 0
M  V30 5202 H 507.268 -3.4719 -1.86689 0
M  V30 5203 H 508.556 -4.24091 -2.81113 0
M  V30 5204 H 507.954 -2.16868 -5.2248 0
M  V30 5205 H 506.511 -2.84938 -5.8622 0
M  V30 5206 N 509.944 0.496216 -1.49584 0
M  V30 5207 C 510.894 1.59422 -1.62999 0
M  V30 5208 C 511.878 1.53402 -0.485457 0
M  V30 5209 O 513.07 1.60851 -0.738649 0
M  V30 5210 C 510.199 2.98009 -1.70427 0
M  V30 5211 C 509.285 3.09008 -2.90473 0
M  V30 5212 N 509.676 2.89884 -4.14489 0
M  V30 5213 C 507.974 3.40115 -2.8851 0
M  V30 5214 C 508.675 3.0519 -4.95211 0
M  V30 5215 N 507.651 3.3428 -4.2867 0
M  V30 5216 H 511.453 1.43297 -2.56599 0
M  V30 5217 H 508.967 0.702443 -1.46422 0
M  V30 5218 H 510.964 3.76926 -1.78136 0
M  V30 5219 H 509.624 3.152 -0.77967 0
M  V30 5220 H 510.635 2.65963 -4.44392 0
M  V30 5221 H 507.312 3.63452 -2.05448 0
M  V30 5222 H 508.702 2.94856 -6.03746 0
M  V30 5223 N 511.423 1.38739 0.74761 0
M  V30 5224 C 512.386 1.36241 1.84312 0
M  V30 5225 C 513.386 0.261811 1.58654 0
M  V30 5226 O 514.576 0.519031 1.66288 0
M  V30 5227 C 511.708 1.12253 3.21888 0
M  V30 5228 H 512.901 2.33712 1.87933 0
M  V30 5229 H 510.454 1.2412 0.949946 0
M  V30 5230 H 511.189 0.154133 3.23934 0
M  V30 5231 H 510.974 1.91943 3.41907 0
M  V30 5232 H 512.464 1.13215 4.0196 0
M  V30 5233 N 512.901 -0.976442 1.23707 0
M  V30 5234 C 514.317 -1.24341 1.00058 0
M  V30 5235 C 514.517 -1.99315 -0.295932 0
M  V30 5236 O 513.573 -2.3123 -1.01435 0
M  V30 5237 C 514.886 -2.03909 2.21001 0
M  V30 5238 C 516.434 -2.17034 2.25534 0
M  V30 5239 C 516.909 -2.99994 3.46075 0
M  V30 5240 N 518.4 -3.07578 3.46338 0
M  V30 5241 C 519.135 -3.72104 4.36264 0
M  V30 5242 N 518.631 -4.3842 5.36432 0
M  V30 5243 N 520.424 -3.69029 4.23998 0
M  V30 5244 H 512.575 -0.47428 2.07037 0
M  V30 5245 H 514.838 -0.272167 0.908091 0
M  V30 5246 H 514.544 -1.56198 3.15111 0
M  V30 5247 H 514.418 -3.04654 2.22409 0
M  V30 5248 H 516.805 -2.63951 1.31961 0
M  V30 5249 H 516.886 -1.15664 2.28156 0
M  V30 5250 H 516.53 -2.53772 4.39957 0
M  V30 5251 H 516.46 -4.01541 3.40694 0
M  V30 5252 H 518.951 -2.60397 2.73865 0
M  V30 5253 H 519.264 -4.85447 6.013 0
M  V30 5254 H 517.609 -4.37116 5.40328 0
M  V30 5255 H 520.8 -3.16392 3.44984 0
M  V30 5256 H 520.973 -4.19034 4.94282 0
M  V30 5257 N 514.379 -1.04941 -1.1758 0
M  V30 5258 C 515.795 -0.770282 -1.39781 0
M  V30 5259 C 515.995 0.636417 -1.91186 0
M  V30 5260 O 515.051 1.39923 -2.10185 0
M  V30 5261 C 516.364 -1.82376 -2.3908 0
M  V30 5262 C 517.912 -1.84569 -2.52791 0
M  V30 5263 C 518.387 -2.88933 -3.55361 0
M  V30 5264 N 519.878 -2.8788 -3.62877 0
M  V30 5265 C 520.613 -3.65282 -4.41992 0
M  V30 5266 N 520.109 -4.52461 -5.24643 0
M  V30 5267 N 521.902 -3.53732 -4.36841 0
M  V30 5268 H 514.053 -1.95705 -0.825438 0
M  V30 5269 H 516.316 -0.847284 -0.425222 0
M  V30 5270 H 516.022 -2.83323 -2.08376 0
M  V30 5271 H 515.896 -1.66327 -3.38549 0
M  V30 5272 H 518.283 -0.842879 -2.82807 0
M  V30 5273 H 518.364 -2.04696 -1.53406 0
M  V30 5274 H 518.008 -3.89398 -3.26085 0
M  V30 5275 H 517.938 -2.66059 -4.54445 0
M  V30 5276 H 520.429 -2.24666 -3.03864 0
M  V30 5277 H 520.742 -5.08211 -5.82187 0
M  V30 5278 H 519.087 -4.56524 -5.24033 0
M  V30 5279 H 522.278 -2.85021 -3.71323 0
M  V30 5280 H 522.451 -4.14302 -4.98255 0
M  V30 5281 N 515.857 1.33968 -0.830081 0
M  V30 5282 C 517.268 1.80439 -0.479455 0
M  V30 5283 C 517.619 1.68756 1.00079 0
M  V30 5284 O 516.744 1.23171 1.77927 0
M  V30 5285 C 517.339 3.27611 -0.863505 0
M  V30 5286 C 515.898 3.72133 -0.565145 0
M  V30 5287 C 515.045 2.55549 -1.07657 0
M  V30 5288 H 517.996 1.21614 -1.0196 0
M  V30 5289 H 518.017 3.8012 -0.170083 0
M  V30 5290 H 517.529 3.36082 -1.94089 0
M  V30 5291 H 515.63 3.69196 0.502536 0
M  V30 5292 H 515.743 4.65963 -1.11422 0
M  V30 5293 H 514.107 2.49788 -0.497807 0
M  V30 5294 H 514.89 2.66786 -2.16055 0
M  V30 5295 N 517.335 0.585699 1.46312 0
M  V30 5296 C 518.245 -0.148236 2.34131 0
M  V30 5297 C 519.261 -0.882972 1.49932 0
M  V30 5298 O 520.437 -0.845484 1.82794 0
M  V30 5299 C 517.502 -1.14714 3.27172 0
M  V30 5300 C 516.563 -0.416746 4.27272 0
M  V30 5301 C 515.796 -1.36806 5.15868 0
M  V30 5302 O 516.019 -2.60475 5.07454 0
M  V30 5303 O 514.953 -0.877018 5.95476 0
M  V30 5304 H 518.779 0.572882 2.98248 0
M  V30 5305 H 516.364 0.346082 1.45336 0
M  V30 5306 H 518.246 -1.72303 3.84564 0
M  V30 5307 H 516.921 -1.84967 2.65648 0
M  V30 5308 H 515.828 0.201061 3.73559 0
M  V30 5309 H 517.161 0.244872 4.9159 0
M  V30 5310 N 518.813 -1.54241 0.323641 0
M  V30 5311 C 520.09 -1.92741 -0.333181 0
M  V30 5312 C 520.47 -1.25326 -1.69872 0
M  V30 5313 O 519.818 -0.396991 -2.25025 0
M  V30 5314 C 520.028 -3.46399 -0.425322 0
M  V30 5315 C 521.376 -4.19029 -0.68557 0
M  V30 5316 O 522.4 -3.52555 -0.50824 0
M  V30 5317 O 521.259 -5.36751 -1.02767 0
M  V30 5318 H 518.353 -0.804811 -0.190286 0
M  V30 5319 H 520.899 -1.65542 0.373361 0
M  V30 5320 H 519.671 -3.87643 0.533737 0
M  V30 5321 H 519.294 -3.79704 -1.17944 0
M  V30 5322 N 520.291 -0.0518155 -1.57515 0
M  V30 5323 C 521.537 0.622745 -1.93002 0
M  V30 5324 C 521.87 1.70456 -0.930499 0
M  V30 5325 O 521.145 1.94452 0.0434086 0
M  V30 5326 C 521.428 1.21824 -3.38867 0
M  V30 5327 C 521.281 0.144434 -4.49568 0
M  V30 5328 C 522.6 2.12968 -3.8514 0
M  V30 5329 H 519.719 0.22491 -0.701844 0
M  V30 5330 H 522.361 -0.113711 -1.89659 0
M  V30 5331 H 520.511 1.8459 -3.41846 0
M  V30 5332 H 522.183 -0.48753 -4.58717 0
M  V30 5333 H 520.426 -0.527424 -4.30582 0
M  V30 5334 H 521.097 0.601127 -5.48717 0
M  V30 5335 H 523.573 1.60163 -3.8404 0
M  V30 5336 H 522.449 2.51578 -4.87852 0
M  V30 5337 H 522.71 3.03004 -3.21934 0
M  V30 5338 N 521.769 1.56035 0.221574 0
M  V30 5339 C 523.185 1.49026 0.571271 0
M  V30 5340 C 523.385 0.746912 1.87146 0
M  V30 5341 O 522.441 0.286566 2.50869 0
M  V30 5342 C 523.754 2.93579 0.650522 0
M  V30 5343 C 525.302 3.04099 0.741151 0
M  V30 5344 C 525.777 4.5001 0.851747 0
M  V30 5345 N 527.268 4.54053 0.915968 0
M  V30 5346 C 528.003 5.64232 1.02125 0
M  V30 5347 N 527.499 6.84164 1.09049 0
M  V30 5348 N 529.292 5.52084 1.05639 0
M  V30 5349 H 521.443 2.02791 -0.63162 0
M  V30 5350 H 523.706 0.921736 -0.221602 0
M  V30 5351 H 523.412 3.50912 -0.235253 0
M  V30 5352 H 523.286 3.45476 1.51413 0
M  V30 5353 H 525.673 2.4683 1.61737 0
M  V30 5354 H 525.754 2.55371 -0.148128 0
M  V30 5355 H 525.398 5.07896 -0.0200117 0
M  V30 5356 H 525.328 4.96444 1.75644 0
M  V30 5357 H 527.819 3.67683 0.872782 0
M  V30 5358 H 528.132 7.63883 1.1706 0
M  V30 5359 H 526.477 6.86875 1.05962 0
M  V30 5360 H 529.668 4.57317 0.998953 0
M  V30 5361 H 529.841 6.37983 1.13498 0
M  V30 5362 N 523.247 -0.488276 1.49845 0
M  V30 5363 C 524.475 -1.26527 1.63702 0
M  V30 5364 C 524.89 -1.8618 0.313447 0
M  V30 5365 O 524.247 -1.68432 -0.702624 0
M  V30 5366 C 524.298 -2.3864 2.71538 0
M  V30 5367 O 524.019 -1.81437 3.98763 0
M  V30 5368 C 525.52 -3.29805 2.96215 0
M  V30 5369 H 522.74 -0.383295 0.55075 0
M  V30 5370 H 525.284 -0.584779 1.95961 0
M  V30 5371 H 523.439 -3.02496 2.42023 0
M  V30 5372 H 523.853 -2.55135 4.58265 0
M  V30 5373 H 525.327 -4.04722 3.75372 0
M  V30 5374 H 525.804 -3.87563 2.06619 0
M  V30 5375 H 526.41 -2.71703 3.27196 0
M  V30 5376 N 524.725 -1.39134 -0.740242 0
M  V30 5377 C 525.672 -1.37434 -1.8542 0
M  V30 5378 C 526.642 -0.234822 -1.64432 0
M  V30 5379 O 527.827 -0.429125 -1.85912 0
M  V30 5380 C 524.967 -1.21844 -3.22875 0
M  V30 5381 C 524.08 -2.45296 -3.55603 0
M  V30 5382 C 523.215 -2.22334 -4.82432 0
M  V30 5383 C 522.254 -3.41488 -5.07988 0
M  V30 5384 N 521.391 -3.17877 -6.26018 0
M  V30 5385 H 526.231 -2.3266 -1.86207 0
M  V30 5386 H 523.768 -1.15578 -0.909946 0
M  V30 5387 H 525.726 -1.10818 -4.02213 0
M  V30 5388 H 524.356 -0.3025 -3.21379 0
M  V30 5389 H 523.408 -2.66945 -2.71006 0
M  V30 5390 H 524.72 -3.34063 -3.7041 0
M  V30 5391 H 523.874 -2.0852 -5.69741 0
M  V30 5392 H 522.613 -1.30954 -4.6979 0
M  V30 5393 H 521.618 -3.55807 -4.19144 0
M  V30 5394 H 522.843 -4.33763 -5.22519 0
M  V30 5395 H 520.789 -2.29156 -6.14673 0
M  V30 5396 H 520.706 -4.00198 -6.41387 0
M  V30 5397 H 521.974 -3.07746 -7.16179 0
M  V30 5398 N 526.204 0.969867 -1.24223 0
M  V30 5399 C 527.452 1.70918 -1.0785 0
M  V30 5400 C 527.773 1.91186 0.383763 0
M  V30 5401 O 527.043 1.48806 1.27411 0
M  V30 5402 H 525.623 0.633334 -0.396103 0
M  V30 5403 H 528.285 1.16689 -1.56108 0
M  V30 5404 H 527.381 2.69455 -1.57482 0
M  V30 5405 N 527.682 1.05563 1.17022 0
M  V30 5406 C 528.614 0.617888 2.20714 0
M  V30 5407 C 529.627 -0.320303 1.59618 0
M  V30 5408 O 530.816 -0.112449 1.78145 0
M  V30 5409 C 527.916 -0.115333 3.38704 0
M  V30 5410 C 527.089 0.834493 4.29366 0
M  V30 5411 C 526.148 0.141855 5.26009 0
M  V30 5412 O 525.174 0.777151 5.6387 0
M  V30 5413 N 526.376 -1.11934 5.69606 0
M  V30 5414 H 529.141 1.50981 2.58892 0
M  V30 5415 H 526.702 0.938008 1.31958 0
M  V30 5416 H 528.694 -0.588918 4.00392 0
M  V30 5417 H 527.264 -0.908967 2.99093 0
M  V30 5418 H 526.484 1.48762 3.65053 0
M  V30 5419 H 527.772 1.4791 4.86827 0
M  V30 5420 H 527.17 -1.65574 5.40927 0
M  V30 5421 H 525.727 -1.53692 6.33421 0
M  V30 5422 N 529.16 -1.33526 0.837174 0
M  V30 5423 C 530.09 -2.31764 0.284206 0
M  V30 5424 C 531.071 -1.58896 -0.607142 0
M  V30 5425 O 532.256 -1.86798 -0.531047 0
M  V30 5426 C 529.386 -3.43029 -0.542962 0
M  V30 5427 C 528.34 -4.27255 0.252451 0
M  V30 5428 C 527.666 -5.3012 -0.69836 0
M  V30 5429 C 528.966 -5.01229 1.46858 0
M  V30 5430 H 530.66 -2.78262 1.10502 0
M  V30 5431 H 528.206 -1.3378 0.532812 0
M  V30 5432 H 530.159 -4.1078 -0.940096 0
M  V30 5433 H 528.883 -2.95216 -1.39697 0
M  V30 5434 H 527.542 -3.61127 0.631124 0
M  V30 5435 H 527.19 -4.78564 -1.54872 0
M  V30 5436 H 526.89 -5.87353 -0.170274 0
M  V30 5437 H 528.414 -6.00737 -1.09305 0
M  V30 5438 H 529.828 -5.61756 1.14469 0
M  V30 5439 H 528.225 -5.68104 1.93333 0
M  V30 5440 H 529.295 -4.301 2.23924 0
M  V30 5441 N 530.638 -0.59345 -1.46 0
M  V30 5442 C 531.885 -0.0831523 -2.02329 0
M  V30 5443 C 532.213 1.28093 -1.46364 0
M  V30 5444 O 531.468 1.85526 -0.622793 0
M  V30 5445 C 531.767 0.021178 -3.57394 0
M  V30 5446 C 531.433 -1.27671 -4.32448 0
M  V30 5447 C 530.095 -1.63227 -4.5267 0
M  V30 5448 C 532.447 -2.13511 -4.7546 0
M  V30 5449 C 529.775 -2.84401 -5.1316 0
M  V30 5450 C 532.127 -3.33922 -5.37289 0
M  V30 5451 C 530.791 -3.69747 -5.55737 0
M  V30 5452 H 530.061 -0.0304276 -0.740375 0
M  V30 5453 H 532.708 -0.772239 -1.75239 0
M  V30 5454 H 531.013 0.793454 -3.83682 0
M  V30 5455 H 532.71 0.431942 -3.98667 0
M  V30 5456 H 529.3 -0.989937 -4.17011 0
M  V30 5457 H 533.484 -1.87344 -4.59582 0
M  V30 5458 H 528.74 -3.12282 -5.25633 0
M  V30 5459 H 532.914 -4.00698 -5.69574 0
M  V30 5460 H 530.541 -4.6373 -6.02377 0
M  V30 5461 N 532.116 1.54067 -0.331816 0
M  V30 5462 C 533.527 1.86059 0.15454 0
M  V30 5463 C 533.878 1.25331 1.50952 0
M  V30 5464 O 533.003 0.562441 2.08963 0
M  V30 5465 C 533.598 3.37581 0.287192 0
M  V30 5466 C 532.157 3.69493 0.717773 0
M  V30 5467 C 531.304 2.76863 -0.155569 0
M  V30 5468 H 534.255 1.48797 -0.55182 0
M  V30 5469 H 534.276 3.63744 1.11671 0
M  V30 5470 H 533.788 3.81751 -0.699131 0
M  V30 5471 H 531.889 3.3086 1.71354 0
M  V30 5472 H 532.002 4.76315 0.5158 0
M  V30 5473 H 530.366 2.51995 0.370213 0
M  V30 5474 H 531.149 3.23861 -1.13881 0
M  V30 5475 N 533.594 0.0601682 1.57485 0
M  V30 5476 C 534.524 -0.90889 2.15085 0
M  V30 5477 C 535.505 -1.31838 1.07484 0
M  V30 5478 O 536.69 -1.3915 1.35466 0
M  V30 5479 C 533.82 -2.18059 2.7031 0
M  V30 5480 C 532.774 -1.91088 3.82974 0
M  V30 5481 C 532.1 -3.24789 4.24754 0
M  V30 5482 C 533.4 -1.22535 5.07723 0
M  V30 5483 H 535.094 -0.429093 2.96309 0
M  V30 5484 H 532.64 -0.204952 1.42534 0
M  V30 5485 H 534.593 -2.86258 3.09248 0
M  V30 5486 H 533.317 -2.6826 1.8629 0
M  V30 5487 H 531.976 -1.25297 3.44523 0
M  V30 5488 H 531.624 -3.72809 3.37672 0
M  V30 5489 H 531.324 -3.07538 5.00694 0
M  V30 5490 H 532.848 -3.94205 4.66299 0
M  V30 5491 H 534.262 -1.80783 5.4405 0
M  V30 5492 H 532.659 -1.1558 5.88864 0
M  V30 5493 H 533.729 -0.202692 4.84476 0
M  V30 5494 N 535.072 -1.5615 -0.213296 0
M  V30 5495 C 536.035 -1.92249 -1.24792 0
M  V30 5496 C 537.035 -0.801828 -1.39382 0
M  V30 5497 O 538.225 -1.06948 -1.37506 0
M  V30 5498 C 535.357 -2.18056 -2.62039 0
M  V30 5499 H 536.55 -2.84793 -0.939845 0
M  V30 5500 H 534.103 -1.49559 -0.454062 0
M  V30 5501 H 534.838 -1.2809 -2.97932 0
M  V30 5502 H 534.623 -2.99703 -2.52825 0
M  V30 5503 H 536.113 -2.47051 -3.36683 0
M  V30 5504 N 536.55 0.480323 -1.50102 0
M  V30 5505 C 537.497 1.57946 -1.6829 0
M  V30 5506 C 538.467 1.57611 -0.524223 0
M  V30 5507 O 539.652 1.75282 -0.753709 0
M  V30 5508 C 536.792 2.95978 -1.77457 0
M  V30 5509 C 535.905 3.06173 -3.04766 0
M  V30 5510 C 535.04 4.35063 -3.04784 0
M  V30 5511 C 534.079 4.38966 -4.26586 0
M  V30 5512 N 533.216 5.59314 -4.24396 0
M  V30 5513 H 538.056 1.41743 -2.62131 0
M  V30 5514 H 535.593 0.689304 -1.2995 0
M  V30 5515 H 537.551 3.76011 -1.80752 0
M  V30 5516 H 536.181 3.10837 -0.870637 0
M  V30 5517 H 535.233 2.19071 -3.10986 0
M  V30 5518 H 536.545 3.04916 -3.9475 0
M  V30 5519 H 535.699 5.23436 -3.06757 0
M  V30 5520 H 534.438 4.38915 -2.12614 0
M  V30 5521 H 533.443 3.48992 -4.24835 0
M  V30 5522 H 534.668 4.36813 -5.19972 0
M  V30 5523 H 532.614 5.63969 -3.35074 0
M  V30 5524 H 532.531 5.5976 -5.08138 0
M  V30 5525 H 533.799 6.49837 -4.30502 0
M  V30 5526 N 538.028 1.39524 0.732853 0
M  V30 5527 C 538.938 1.40695 1.87729 0
M  V30 5528 C 539.954 0.301496 1.71368 0
M  V30 5529 O 541.13 0.543313 1.93933 0
M  V30 5530 C 538.195 1.25098 3.23344 0
M  V30 5531 C 537.256 2.45634 3.52083 0
M  V30 5532 C 536.489 2.30772 4.81228 0
M  V30 5533 O 536.712 1.31233 5.55098 0
M  V30 5534 O 535.646 3.19799 5.09914 0
M  V30 5535 H 539.472 2.37168 1.89697 0
M  V30 5536 H 537.057 1.20663 0.880959 0
M  V30 5537 H 538.939 1.18541 4.04383 0
M  V30 5538 H 537.614 0.317209 3.22142 0
M  V30 5539 H 536.521 2.57767 2.71122 0
M  V30 5540 H 537.854 3.37712 3.58066 0
M  V30 5541 N 539.506 -0.963266 1.24736 0
M  V30 5542 C 540.753 -1.7068 1.0897 0
M  V30 5543 C 541.081 -1.90934 -0.370751 0
M  V30 5544 O 540.336 -1.47155 -1.29011 0
M  V30 5545 C 540.635 -3.09944 1.7796 0
M  V30 5546 C 540.301 -3.09518 3.27887 0
M  V30 5547 C 538.963 -3.09109 3.68789 0
M  V30 5548 C 541.315 -3.03509 4.23712 0
M  V30 5549 C 538.643 -3.00429 5.03944 0
M  V30 5550 C 540.995 -2.96371 5.5888 0
M  V30 5551 C 539.659 -2.94293 5.99123 0
M  V30 5552 H 538.929 -0.624564 0.398749 0
M  V30 5553 H 541.576 -1.12603 1.54896 0
M  V30 5554 H 539.881 -3.71513 1.2444 0
M  V30 5555 H 541.578 -3.66278 1.63222 0
M  V30 5556 H 538.168 -3.10603 2.95337 0
M  V30 5557 H 542.352 -3.0295 3.93109 0
M  V30 5558 H 537.608 -2.97183 5.34314 0
M  V30 5559 H 541.782 -2.90681 6.32833 0
M  V30 5560 H 539.409 -2.87322 7.03811 0
M  V30 5561 N 540.985 -1.06182 -1.16461 0
M  V30 5562 C 542.234 -0.772927 -1.86303 0
M  V30 5563 C 542.547 0.703187 -1.82523 0
M  V30 5564 O 543.753 1.10641 -2.47933 0
M  V30 5565 C 542.209 -1.33249 -3.34324 0
M  V30 5566 C 541.817 -2.83876 -3.46581 0
M  V30 5567 C 543.561 -1.12108 -4.09429 0
M  V30 5568 C 541.468 -3.33082 -4.88682 0
M  V30 5569 H 540.398 -0.285452 -0.697878 0
M  V30 5570 H 543.049 -1.28039 -1.31447 0
M  V30 5571 H 541.431 -0.7528 -3.88779 0
M  V30 5572 H 542.605 -3.47786 -3.02293 0
M  V30 5573 H 540.92 -3.03671 -2.84909 0
M  V30 5574 H 543.517 -1.46361 -5.14279 0
M  V30 5575 H 543.86 -0.0593832 -4.16258 0
M  V30 5576 H 544.393 -1.6665 -3.6121 0
M  V30 5577 H 541.132 -4.38726 -4.87032 0
M  V30 5578 H 540.652 -2.73919 -5.33599 0
M  V30 5579 H 542.331 -3.28344 -5.57494 0
M  V30 5580 N 542.463 1.3308 -0.844243 0
M  V30 5581 C 543.74 1.92178 -0.364261 0
M  V30 5582 C 544.12 1.76961 1.15101 0
M  V30 5583 O 543.468 1.16128 1.9679 0
M  V30 5584 C 543.678 3.393 -0.817106 0
M  V30 5585 C 545.026 4.16444 -0.828236 0
M  V30 5586 O 546.05 3.47975 -0.761062 0
M  V30 5587 O 544.909 5.38685 -0.920926 0
M  V30 5588 H 542.003 0.820411 -0.10419 0
M  V30 5589 H 544.549 1.41918 -0.930453 0
M  V30 5590 H 543.321 3.44272 -1.85991 0
M  V30 5591 H 542.944 3.96947 -0.227785 0
M  V30 5592 N 543.941 0.601185 1.45683 0
M  V30 5593 C 544.873 -0.159446 2.28645 0
M  V30 5594 C 545.886 -0.837882 1.39583 0
M  V30 5595 O 547.075 -0.704344 1.64016 0
M  V30 5596 C 544.175 -1.24641 3.15147 0
M  V30 5597 C 543.348 -0.656334 4.32448 0
M  V30 5598 C 542.407 -1.63337 5.00208 0
M  V30 5599 O 541.433 -1.16217 5.57209 0
M  V30 5600 N 542.635 -2.96773 4.98905 0
M  V30 5601 H 545.4 0.5524 2.94565 0
M  V30 5602 H 542.961 0.440223 1.558 0
M  V30 5603 H 544.953 -1.8997 3.57342 0
M  V30 5604 H 543.523 -1.86087 2.51178 0
M  V30 5605 H 542.743 0.174879 3.93812 0
M  V30 5606 H 544.031 -0.242211 5.08223 0
M  V30 5607 H 543.429 -3.37662 4.53873 0
M  V30 5608 H 541.986 -3.57541 5.44984 0
M  V30 5609 N 545.419 -1.53889 0.339982 0
M  V30 5610 C 546.649 -2.04973 -0.258738 0
M  V30 5611 C 547.057 -1.21485 -1.45045 0
M  V30 5612 O 546.4 -0.2422 -1.82096 0
M  V30 5613 C 546.462 -3.51783 -0.740853 0
M  V30 5614 C 546.126 -4.55802 0.330734 0
M  V30 5615 C 547.123 -5.06512 1.17226 0
M  V30 5616 C 544.808 -4.99966 0.483637 0
M  V30 5617 C 546.802 -5.99963 2.15227 0
M  V30 5618 C 544.489 -5.93229 1.46704 0
M  V30 5619 C 545.487 -6.43115 2.29981 0
M  V30 5620 O 545.175 -7.34545 3.26649 0
M  V30 5621 H 544.907 -0.673807 -0.0544037 0
M  V30 5622 H 547.461 -1.99492 0.489107 0
M  V30 5623 H 545.691 -3.54717 -1.53988 0
M  V30 5624 H 547.38 -3.85857 -1.25973 0
M  V30 5625 H 548.146 -4.73158 1.0652 0
M  V30 5626 H 544.025 -4.6074 -0.15471 0
M  V30 5627 H 547.569 -6.38825 2.80265 0
M  V30 5628 H 543.466 -6.25998 1.57468 0
M  V30 5629 H 544.234 -7.52468 3.22078 0
M  V30 5630 N 546.897 -0.0685191 -1.57451 0
M  V30 5631 C 548.127 0.609577 -1.97402 0
M  V30 5632 C 548.535 1.63882 -0.945489 0
M  V30 5633 O 547.878 1.8354 0.0766052 0
M  V30 5634 C 547.94 1.3385 -3.33653 0
M  V30 5635 C 547.604 0.463103 -4.54648 0
M  V30 5636 C 548.601 -0.277964 -5.19156 0
M  V30 5637 C 546.286 0.388941 -5.00792 0
M  V30 5638 C 548.28 -1.08145 -6.28159 0
M  V30 5639 C 545.967 -0.418217 -6.09667 0
M  V30 5640 C 546.965 -1.15208 -6.73213 0
M  V30 5641 O 546.653 -1.94594 -7.79993 0
M  V30 5642 H 546.385 0.170197 -0.654224 0
M  V30 5643 H 548.939 -0.13647 -2.04946 0
M  V30 5644 H 547.169 2.13055 -3.22714 0
M  V30 5645 H 548.858 1.90851 -3.58233 0
M  V30 5646 H 549.624 -0.230241 -4.84453 0
M  V30 5647 H 545.503 0.949769 -4.5111 0
M  V30 5648 H 549.047 -1.65476 -6.7769 0
M  V30 5649 H 544.944 -0.467515 -6.43805 0
M  V30 5650 H 545.712 -1.8699 -7.96854 0
M  V30 5651 N 548.375 1.56261 0.205012 0
M  V30 5652 C 549.6 1.84491 0.947512 0
M  V30 5653 C 550.025 0.650894 1.76479 0
M  V30 5654 O 549.383 -0.40035 1.76824 0
M  V30 5655 C 549.431 3.10863 1.82747 0
M  V30 5656 O 548.535 2.90719 2.925 0
M  V30 5657 H 547.876 0.607783 0.267386 0
M  V30 5658 H 550.406 2.03485 0.213323 0
M  V30 5659 H 550.416 3.41399 2.23407 0
M  V30 5660 H 549.091 3.97392 1.2269 0
M  V30 5661 H 547.668 2.71457 2.55667 0
M  V30 5662 N 549.853 -0.472356 1.50355 0
M  V30 5663 C 551.078 -1.25251 1.65309 0
M  V30 5664 C 551.503 -1.85081 0.335643 0
M  V30 5665 O 550.861 -1.67227 -0.700335 0
M  V30 5666 C 550.909 -2.3379 2.74544 0
M  V30 5667 O 550.013 -3.38401 2.35709 0
M  V30 5668 H 549.354 -0.368539 0.552336 0
M  V30 5669 H 551.884 -0.562271 1.96722 0
M  V30 5670 H 551.894 -2.79121 2.97583 0
M  V30 5671 H 550.569 -1.89614 3.70161 0
M  V30 5672 H 549.146 -2.9879 2.23112 0
M  V30 5673 N 551.331 -1.39911 -0.725443 0
M  V30 5674 C 552.58 -1.36963 -1.48068 0
M  V30 5675 C 552.893 0.0284478 -1.95579 0
M  V30 5676 O 554.099 0.180535 -2.70899 0
M  V30 5677 C 552.555 -2.40664 -2.67598 0
M  V30 5678 C 552.163 -3.86234 -2.26997 0
M  V30 5679 C 553.907 -2.46807 -3.45379 0
M  V30 5680 C 551.814 -4.81554 -3.43307 0
M  V30 5681 H 550.744 -0.509223 -0.556065 0
M  V30 5682 H 553.395 -1.65602 -0.790454 0
M  V30 5683 H 551.777 -2.05109 -3.38742 0
M  V30 5684 H 552.951 -4.3088 -1.63337 0
M  V30 5685 H 551.266 -3.83475 -1.62284 0
M  V30 5686 H 553.863 -3.15213 -4.31909 0
M  V30 5687 H 554.206 -1.49552 -3.8851 0
M  V30 5688 H 554.739 -2.81303 -2.81271 0
M  V30 5689 H 551.478 -5.80106 -3.05217 0
M  V30 5690 H 550.998 -4.4158 -4.05915 0
M  V30 5691 H 552.677 -5.0091 -4.0951 0
M  V30 5692 N 552.809 0.956637 -1.25245 0
M  V30 5693 C 553.756 2.053 -1.05454 0
M  V30 5694 C 554.726 1.66062 0.0356889 0
M  V30 5695 O 555.911 1.90415 -0.121099 0
M  V30 5696 C 553.051 3.38391 -0.677191 0
M  V30 5697 C 552.164 3.90758 -1.84206 0
M  V30 5698 C 551.299 5.12165 -1.40926 0
M  V30 5699 C 550.338 5.56757 -2.54338 0
M  V30 5700 N 549.475 6.69376 -2.11848 0
M  V30 5701 H 554.315 2.21562 -1.99284 0
M  V30 5702 H 551.852 1.08578 -0.992434 0
M  V30 5703 H 553.81 4.1488 -0.43938 0
M  V30 5704 H 552.44 3.22021 0.224127 0
M  V30 5705 H 551.492 3.10808 -2.19323 0
M  V30 5706 H 552.804 4.19802 -2.69383 0
M  V30 5707 H 551.958 5.96065 -1.13098 0
M  V30 5708 H 550.697 4.84832 -0.528175 0
M  V30 5709 H 549.702 4.71423 -2.82913 0
M  V30 5710 H 550.927 5.861 -3.43022 0
M  V30 5711 H 548.873 6.43756 -1.26153 0
M  V30 5712 H 548.79 6.97927 -2.90574 0
M  V30 5713 H 550.058 7.5669 -1.87191 0
M  V30 5714 N 554.287 1.06798 1.15896 0
M  V30 5715 C 555.703 0.792423 1.38538 0
M  V30 5716 C 555.903 -0.60592 1.92174 0
M  V30 5717 O 554.959 -1.36561 2.12385 0
M  V30 5718 C 556.272 1.86157 2.36149 0
M  V30 5719 C 557.82 1.88567 2.49823 0
M  V30 5720 C 558.295 2.9455 3.5072 0
M  V30 5721 N 559.786 2.93616 3.58251 0
M  V30 5722 C 560.521 3.72267 4.36125 0
M  V30 5723 N 560.017 4.60751 5.17379 0
M  V30 5724 N 561.81 3.60637 4.31158 0
M  V30 5725 H 553.961 1.96993 0.794198 0
M  V30 5726 H 556.224 0.853942 0.411688 0
M  V30 5727 H 555.93 2.86603 2.03843 0
M  V30 5728 H 555.804 1.71692 3.3586 0
M  V30 5729 H 558.191 0.887765 2.8143 0
M  V30 5730 H 558.272 2.0711 1.5013 0
M  V30 5731 H 557.916 3.94537 3.19849 0
M  V30 5732 H 557.846 2.73255 4.50155 0
M  V30 5733 H 560.337 2.29472 3.00252 0
M  V30 5734 H 560.65 5.17408 5.74028 0
M  V30 5735 H 558.995 4.64803 5.16704 0
M  V30 5736 H 562.186 2.90892 3.66742 0
M  V30 5737 H 562.359 4.22176 4.91601 0
M  V30 5738 N 555.766 -1.3263 0.851289 0
M  V30 5739 C 557.013 -1.97368 0.453023 0
M  V30 5740 C 557.341 -1.67384 -0.990596 0
M  V30 5741 O 556.596 -0.952665 -1.70947 0
M  V30 5742 C 556.895 -3.51713 0.635015 0
M  V30 5743 C 556.561 -4.01676 2.04859 0
M  V30 5744 C 555.223 -4.15031 2.43522 0
M  V30 5745 C 557.575 -4.28206 2.97135 0
M  V30 5746 C 554.903 -4.52257 3.73739 0
M  V30 5747 C 557.255 -4.66889 4.26846 0
M  V30 5748 C 555.919 -4.7845 4.65448 0
M  V30 5749 H 555.189 -0.722219 0.165773 0
M  V30 5750 H 557.836 -1.58092 1.0807 0
M  V30 5751 H 556.141 -3.91726 -0.0759081 0
M  V30 5752 H 557.838 -3.99823 0.306964 0
M  V30 5753 H 554.428 -3.91764 1.73836 0
M  V30 5754 H 558.612 -4.174 2.68498 0
M  V30 5755 H 553.868 -4.59402 4.03435 0
M  V30 5756 H 558.042 -4.86372 4.98413 0
M  V30 5757 H 555.669 -5.07052 5.66395 0
M  V30 5758 N 557.244 -0.608902 -1.45362 0
M  V30 5759 C 558.492 -0.104401 -2.0183 0
M  V30 5760 C 558.813 1.27007 -1.47967 0
M  V30 5761 O 558.083 1.83924 -0.674455 0
M  V30 5762 H 556.663 -0.0356042 -0.746151 0
M  V30 5763 H 559.325 -0.790596 -1.78145 0
M  V30 5764 H 558.421 -0.0551793 -3.12051 0
M  V30 5765 N 558.722 1.53707 -0.348139 0
M  V30 5766 C 559.947 2.05877 0.250883 0
M  V30 5767 C 560.372 1.22115 1.43072 0
M  V30 5768 O 559.73 0.235986 1.79758 0
M  V30 5769 C 559.778 3.54886 0.639416 0
M  V30 5770 O 558.882 3.73948 1.73888 0
M  V30 5771 H 558.223 0.662754 0.040653 0
M  V30 5772 H 560.753 1.98303 -0.503685 0
M  V30 5773 H 560.763 3.97601 0.915295 0
M  V30 5774 H 559.438 4.153 -0.223386 0
M  V30 5775 H 558.015 3.43134 1.45991 0
M  V30 5776 N 560.2 0.0768682 1.57412 0
M  V30 5777 C 561.147 -0.888577 2.13009 0
M  V30 5778 C 562.117 -1.29198 1.0439 0
M  V30 5779 O 563.302 -1.37694 1.3208 0
M  V30 5780 C 560.442 -2.14899 2.70023 0
M  V30 5781 C 559.555 -1.79777 3.92816 0
M  V30 5782 C 558.69 -3.00467 4.38056 0
M  V30 5783 C 557.729 -2.61385 5.53484 0
M  V30 5784 N 556.866 -3.74851 5.93659 0
M  V30 5785 H 561.706 -0.407593 2.95199 0
M  V30 5786 H 559.243 -0.189534 1.45874 0
M  V30 5787 H 561.201 -2.88688 3.0119 0
M  V30 5788 H 559.831 -2.60529 1.9059 0
M  V30 5789 H 558.883 -0.960301 3.68079 0
M  V30 5790 H 560.195 -1.47027 4.76639 0
M  V30 5791 H 559.349 -3.82529 4.7091 0
M  V30 5792 H 558.088 -3.36413 3.53097 0
M  V30 5793 H 557.093 -1.77746 5.20275 0
M  V30 5794 H 558.318 -2.26603 6.40178 0
M  V30 5795 H 556.264 -4.1055 5.11649 0
M  V30 5796 H 556.181 -3.45887 6.72234 0
M  V30 5797 H 557.449 -4.57477 6.31138 0
M  V30 5798 N 561.678 -1.56367 -0.196722 0
M  V30 5799 C 562.641 -1.93561 -1.22746 0
M  V30 5800 C 563.641 -0.816566 -1.38524 0
M  V30 5801 O 564.831 -1.084 -1.36363 0
M  V30 5802 C 561.963 -2.20823 -2.59712 0
M  V30 5803 H 563.156 -2.85774 -0.909586 0
M  V30 5804 H 560.709 -1.50032 -0.438174 0
M  V30 5805 H 561.444 -1.31243 -2.96557 0
M  V30 5806 H 561.229 -3.02368 -2.49632 0
M  V30 5807 H 562.719 -2.50608 -3.34044 0
M  V30 5808 N 563.156 0.464375 -1.50603 0
M  V30 5809 C 564.106 1.55929 -1.66343 0
M  V30 5810 C 565.09 1.52338 -0.517887 0
M  V30 5811 O 566.282 1.59248 -0.772601 0
M  V30 5812 C 563.411 2.94327 -1.7671 0
M  V30 5813 C 562.497 3.02777 -2.96962 0
M  V30 5814 N 562.888 2.81026 -4.20545 0
M  V30 5815 C 561.186 3.33919 -2.95659 0
M  V30 5816 C 561.887 2.94618 -5.01573 0
M  V30 5817 N 560.863 3.25112 -4.35664 0
M  V30 5818 H 564.665 1.37822 -2.59581 0
M  V30 5819 H 562.179 0.671227 -1.47879 0
M  V30 5820 H 564.176 3.73063 -1.86091 0
M  V30 5821 H 562.836 3.13476 -0.846353 0
M  V30 5822 H 563.847 2.56477 -4.49933 0
M  V30 5823 H 560.524 3.59013 -2.13111 0
M  V30 5824 H 561.914 2.81984 -6.09865 0
M  V30 5825 N 564.634 1.40294 0.718013 0
M  V30 5826 C 565.567 1.34767 1.84155 0
M  V30 5827 C 566.545 0.218455 1.61126 0
M  V30 5828 O 567.729 0.401716 1.8417 0
M  V30 5829 C 564.856 1.09676 3.20451 0
M  V30 5830 C 563.902 2.25016 3.62312 0
M  V30 5831 S 564.735 3.87397 3.69707 0
M  V30 5832 C 565.891 3.64565 5.08766 0
M  V30 5833 H 566.124 2.29851 1.88562 0
M  V30 5834 H 563.657 1.2655 0.884555 0
M  V30 5835 H 565.615 0.95885 3.99144 0
M  V30 5836 H 564.276 0.162502 3.13679 0
M  V30 5837 H 563.469 2.03097 4.61268 0
M  V30 5838 H 563.071 2.35098 2.90869 0
M  V30 5839 H 565.363 3.22882 5.95612 0
M  V30 5840 H 566.306 4.63043 5.35721 0
M  V30 5841 H 566.714 2.98303 4.79245 0
M  V30 5842 N 566.112 -0.949982 1.2575 0
M  V30 5843 C 567.022 -2.08109 1.08295 0
M  V30 5844 C 568.038 -1.7399 0.0188181 0
M  V30 5845 O 569.214 -2.00187 0.220724 0
M  V30 5846 C 566.279 -3.39383 0.708534 0
M  V30 5847 C 565.34 -3.8734 1.85111 0
M  V30 5848 C 564.573 -5.12349 1.49447 0
M  V30 5849 O 564.796 -5.6905 0.392212 0
M  V30 5850 O 563.73 -5.5513 2.32624 0
M  V30 5851 H 567.556 -2.25738 2.03165 0
M  V30 5852 H 565.141 -1.06545 1.04731 0
M  V30 5853 H 567.023 -4.18277 0.512061 0
M  V30 5854 H 565.698 -3.23013 -0.210854 0
M  V30 5855 H 564.605 -3.09429 2.10248 0
M  V30 5856 H 565.938 -4.08216 2.74991 0
M  V30 5857 N 567.59 -1.07411 -1.15328 0
M  V30 5858 C 569.006 -0.799759 -1.38116 0
M  V30 5859 C 569.206 0.59572 -1.92493 0
M  V30 5860 O 568.262 1.35433 -2.13106 0
M  V30 5861 C 569.575 -1.87407 -2.35158 0
M  V30 5862 C 571.123 -1.89889 -2.48819 0
M  V30 5863 C 571.598 -2.96406 -3.49153 0
M  V30 5864 N 573.089 -2.95512 -3.56689 0
M  V30 5865 C 573.824 -3.74575 -4.34144 0
M  V30 5866 N 573.32 -4.63488 -5.14928 0
M  V30 5867 N 575.113 -3.62919 -4.29239 0
M  V30 5868 H 567.264 -1.97411 -0.78374 0
M  V30 5869 H 569.527 -0.856113 -0.407154 0
M  V30 5870 H 569.233 -2.8768 -2.0232 0
M  V30 5871 H 569.107 -1.73471 -3.34944 0
M  V30 5872 H 571.494 -0.902677 -2.80955 0
M  V30 5873 H 571.575 -2.07904 -1.49029 0
M  V30 5874 H 571.219 -3.96227 -3.17752 0
M  V30 5875 H 571.149 -2.75638 -4.48699 0
M  V30 5876 H 573.64 -2.31061 -2.99031 0
M  V30 5877 H 573.953 -5.20445 -5.71276 0
M  V30 5878 H 572.298 -4.67537 -5.14232 0
M  V30 5879 H 575.489 -2.92833 -3.65194 0
M  V30 5880 H 575.662 -4.24777 -4.89355 0
M  V30 5881 N 569.068 1.32177 -0.85831 0
M  V30 5882 C 569.998 2.31282 -0.321041 0
M  V30 5883 C 570.979 1.59841 0.581786 0
M  V30 5884 O 572.164 1.87619 0.501262 0
M  V30 5885 C 569.294 3.4385 0.48832 0
M  V30 5886 C 568.248 4.26799 -0.320391 0
M  V30 5887 C 567.574 5.31164 0.613934 0
M  V30 5888 C 568.874 4.98829 -1.54813 0
M  V30 5889 H 570.568 2.76469 -1.14915 0
M  V30 5890 H 568.114 1.32916 -0.554028 0
M  V30 5891 H 570.067 4.12224 0.874626 0
M  V30 5892 H 568.791 2.97401 1.34983 0
M  V30 5893 H 567.45 3.60077 -0.688497 0
M  V30 5894 H 567.098 4.80967 1.47239 0
M  V30 5895 H 566.798 5.8755 0.0768097 0
M  V30 5896 H 568.322 6.024 0.997336 0
M  V30 5897 H 569.736 5.59864 -1.23392 0
M  V30 5898 H 568.133 5.64957 -2.02346 0
M  V30 5899 H 569.203 4.26483 -2.30739 0
M  V30 5900 N 570.547 0.616602 1.45037 0
M  V30 5901 C 571.457 -0.0985401 2.34393 0
M  V30 5902 C 572.473 -0.850971 1.51771 0
M  V30 5903 O 573.649 -0.806521 1.84546 0
M  V30 5904 C 570.714 -1.07748 3.29532 0
M  V30 5905 C 569.775 -0.326022 4.2806 0
M  V30 5906 C 569.008 -1.25833 5.18654 0
M  V30 5907 O 569.231 -2.49652 5.12864 0
M  V30 5908 O 568.165 -0.750512 5.97203 0
M  V30 5909 H 571.991 0.636016 2.96966 0
M  V30 5910 H 569.576 0.376832 1.44569 0
M  V30 5911 H 571.458 -1.64107 3.88133 0
M  V30 5912 H 570.133 -1.79291 2.69512 0
M  V30 5913 H 569.04 0.280253 3.73049 0
M  V30 5914 H 570.373 0.349091 4.9096 0
M  V30 5915 N 572.025 -1.5352 0.356285 0
M  V30 5916 C 572.935 -2.29151 -0.502712 0
M  V30 5917 C 573.951 -1.34753 -1.1008 0
M  V30 5918 O 575.127 -1.67803 -1.11374 0
M  V30 5919 C 572.192 -3.05911 -1.63154 0
M  V30 5920 C 571.253 -4.15958 -1.06194 0
M  V30 5921 C 570.486 -4.8905 -2.13696 0
M  V30 5922 O 570.709 -4.61919 -3.34645 0
M  V30 5923 O 569.643 -5.75202 -1.77275 0
M  V30 5924 H 573.469 -3.03492 0.112466 0
M  V30 5925 H 571.054 -1.4891 0.120942 0
M  V30 5926 H 572.936 -3.53874 -2.28804 0
M  V30 5927 H 571.611 -2.34415 -2.23229 0
M  V30 5928 H 570.518 -3.7227 -0.369603 0
M  V30 5929 H 571.851 -4.89593 -0.505872 0
M  V30 5930 N 573.503 -0.0852151 -1.57369 0
M  V30 5931 C 574.749 0.581666 -1.94279 0
M  V30 5932 C 575.082 1.68444 -0.966446 0
M  V30 5933 O 574.357 1.945 0.00215277 0
M  V30 5934 C 574.64 1.14609 -3.41375 0
M  V30 5935 C 574.493 0.0490414 -4.49773 0
M  V30 5936 C 575.812 2.04751 -3.8957 0
M  V30 5937 H 572.931 0.209972 -0.706456 0
M  V30 5938 H 575.573 -0.153915 -1.89376 0
M  V30 5939 H 573.723 1.77297 -3.45685 0
M  V30 5940 H 575.395 -0.584721 -4.57579 0
M  V30 5941 H 573.638 -0.618638 -4.29366 0
M  V30 5942 H 574.309 0.484601 -5.49869 0
M  V30 5943 H 576.785 1.51981 -3.87351 0
M  V30 5944 H 575.661 2.41173 -4.93079 0
M  V30 5945 H 575.922 2.96107 -3.28288 0
M  V30 5946 N 574.981 1.5647 0.188427 0
M  V30 5947 C 575.929 1.95971 1.25293 0
M  V30 5948 C 576.923 0.846047 1.4676 0
M  V30 5949 O 578.129 1.03109 1.47542 0
M  V30 5950 H 574.504 0.623253 0.420784 0
M  V30 5951 H 576.475 2.84731 0.892792 0
M  V30 5952 C 575.224 2.32116 2.58877 0
M  V30 5953 H 574.547 3.17341 2.43176 0
M  V30 5954 H 575.987 2.63613 3.3209 0
M  V30 5955 C 574.446 1.15823 3.16365 0
M  V30 5956 O 574.976 0.436785 3.99318 0
M  V30 5957 N 573.182 0.933278 2.75206 0
M  V30 5958 H 572.729 1.52169 2.07852 0
M  V30 5959 H 572.687 0.156976 3.14008 0
M  V30 5960 N 576.459 -0.456382 1.50847 0
M  V30 5961 C 577.406 -1.55249 1.70782 0
M  V30 5962 C 578.376 -1.56757 0.549231 0
M  V30 5963 O 579.561 -1.74061 0.7815 0
M  V30 5964 C 576.701 -2.93118 1.82143 0
M  V30 5965 C 575.814 -3.01285 3.09598 0
M  V30 5966 C 574.949 -4.30159 3.11667 0
M  V30 5967 C 573.988 -4.32124 4.33515 0
M  V30 5968 N 573.125 -5.52492 4.3324 0
M  V30 5969 H 577.965 -1.37555 2.64353 0
M  V30 5970 H 575.502 -0.668543 1.3103 0
M  V30 5971 H 577.46 -3.73088 1.86711 0
M  V30 5972 H 576.09 -3.09413 0.919978 0
M  V30 5973 H 575.142 -2.14096 3.14431 0
M  V30 5974 H 576.454 -2.98597 3.99551 0
M  V30 5975 H 575.608 -5.18489 3.15046 0
M  V30 5976 H 574.347 -4.35477 2.1957 0
M  V30 5977 H 573.352 -3.42189 4.30333 0
M  V30 5978 H 574.577 -4.28485 5.26856 0
M  V30 5979 H 572.523 -5.58567 3.44004 0
M  V30 5980 H 572.44 -5.51605 5.16979 0
M  V30 5981 H 573.708 -6.42906 4.40786 0
M  V30 5982 N 577.937 -1.40673 -0.710563 0
M  V30 5983 C 578.847 -1.43663 -1.85467 0
M  V30 5984 C 579.863 -0.328721 -1.70867 0
M  V30 5985 O 581.039 -0.574098 -1.93044 0
M  V30 5986 C 578.104 -1.30226 -3.21313 0
M  V30 5987 C 577.165 -2.51204 -3.48131 0
M  V30 5988 C 576.398 -2.38398 -4.77495 0
M  V30 5989 O 576.621 -1.40048 -5.5294 0
M  V30 5990 O 575.555 -3.2787 -5.04762 0
M  V30 5991 H 579.381 -2.40156 -1.859 0
M  V30 5992 H 576.966 -1.22049 -0.861652 0
M  V30 5993 H 578.848 -1.2496 -4.02446 0
M  V30 5994 H 577.523 -0.368419 -3.21597 0
M  V30 5995 H 576.43 -2.62048 -2.66987 0
M  V30 5996 H 577.763 -3.43366 -3.52648 0
M  V30 5997 N 579.415 0.9433 -1.26252 0
M  V30 5998 C 580.664 1.68369 -1.11062 0
M  V30 5999 C 580.977 1.92514 0.346104 0
M  V30 6000 O 582.183 2.64358 0.618646 0
M  V30 6001 C 580.639 3.03171 -1.93946 0
M  V30 6002 C 580.247 2.86782 -3.4418 0
M  V30 6003 C 581.991 3.80916 -1.87359 0
M  V30 6004 C 579.898 4.17044 -4.19319 0
M  V30 6005 H 578.828 0.631469 -0.412023 0
M  V30 6006 H 581.479 1.04922 -1.50544 0
M  V30 6007 H 579.861 3.67587 -1.47296 0
M  V30 6008 H 581.035 2.31229 -3.98585 0
M  V30 6009 H 579.35 2.22482 -3.51981 0
M  V30 6010 H 581.947 4.77417 -2.40784 0
M  V30 6011 H 582.29 4.07658 -0.843857 0
M  V30 6012 H 582.823 3.2327 -2.31821 0
M  V30 6013 H 579.562 3.95487 -5.22753 0
M  V30 6014 H 579.082 4.72319 -3.69696 0
M  V30 6015 H 580.761 4.85513 -4.27651 0
M  V30 6016 N 580.893 1.08022 1.14757 0
M  V30 6017 C 582.17 0.720386 1.81851 0
M  V30 6018 C 582.55 -0.796375 1.95502 0
M  V30 6019 O 581.898 -1.71339 1.51179 0
M  V30 6020 C 582.108 1.44273 3.17783 0
M  V30 6021 C 583.456 1.59925 3.93331 0
M  V30 6022 O 584.48 1.40407 3.2736 0
M  V30 6023 O 583.339 1.92096 5.11626 0
M  V30 6024 H 580.433 0.257142 0.786007 0
M  V30 6025 H 582.979 1.18155 1.21809 0
M  V30 6026 H 581.751 2.47618 3.02987 0
M  V30 6027 H 581.374 0.97279 3.85516 0
M  V30 6028 N 582.371 -1.3172 0.865308 0
M  V30 6029 C 583.599 -2.01057 0.488251 0
M  V30 6030 C 584.014 -1.64979 -0.918 0
M  V30 6031 O 583.371 -0.876597 -1.60069 0
M  V30 6032 C 583.422 -3.55964 0.630224 0
M  V30 6033 O 583.143 -3.90749 1.98109 0
M  V30 6034 C 584.644 -4.42574 0.253567 0
M  V30 6035 H 581.864 -0.64332 0.190736 0
M  V30 6036 H 584.408 -1.68058 1.16519 0
M  V30 6037 H 582.563 -3.874 0.000895422 0
M  V30 6038 H 582.977 -4.85467 1.9855 0
M  V30 6039 H 584.451 -5.50521 0.403875 0
M  V30 6040 H 584.928 -4.31724 -0.806895 0
M  V30 6041 H 585.534 -4.16547 0.858404 0
M  V30 6042 N 583.85 -0.624285 -1.44708 0
M  V30 6043 C 585.077 -0.132919 -2.06473 0
M  V30 6044 C 585.493 1.18967 -1.46602 0
M  V30 6045 O 584.85 1.72824 -0.586341 0
M  V30 6046 C 584.901 -0.00465418 -3.615 0
M  V30 6047 O 584.622 -1.27494 -4.19138 0
M  V30 6048 C 586.123 0.516213 -4.40284 0
M  V30 6049 H 583.343 -0.0765201 -0.666623 0
M  V30 6050 H 585.887 -0.856751 -1.85688 0
M  V30 6051 H 584.042 0.669583 -3.8157 0
M  V30 6052 H 584.456 -1.11536 -5.12504 0
M  V30 6053 H 585.93 0.554994 -5.49203 0
M  V30 6054 H 586.407 1.5419 -4.11245 0
M  V30 6055 H 587.013 -0.124542 -4.25118 0
M  V30 6056 N 585.328 1.53329 -0.364422 0
M  V30 6057 C 586.553 2.06132 0.229033 0
M  V30 6058 C 586.978 1.23625 1.41769 0
M  V30 6059 O 586.336 0.255038 1.79497 0
M  V30 6060 C 586.384 3.55544 0.60174 0
M  V30 6061 O 585.488 3.75771 1.69912 0
M  V30 6062 H 584.829 0.663148 0.0336213 0
M  V30 6063 H 587.359 1.97758 -0.524689 0
M  V30 6064 H 587.369 3.98549 0.873073 0
M  V30 6065 H 586.044 4.15039 -0.267421 0
M  V30 6066 H 584.621 3.44663 1.42343 0
M  V30 6067 N 586.806 0.0935595 1.57322 0
M  V30 6068 C 588.034 -0.578934 1.98635 0
M  V30 6069 C 588.449 -1.61819 0.972626 0
M  V30 6070 O 587.806 -1.82461 -0.0379638 0
M  V30 6071 C 587.857 -1.22802 3.40003 0
M  V30 6072 O 587.578 -0.230334 4.37494 0
M  V30 6073 C 589.079 -1.98627 3.96311 0
M  V30 6074 H 586.299 -0.155324 0.652775 0
M  V30 6075 H 588.843 0.172393 2.03772 0
M  V30 6076 H 586.998 -1.93029 3.35885 0
M  V30 6077 H 587.412 -0.698649 5.19826 0
M  V30 6078 H 588.886 -2.39405 4.97382 0
M  V30 6079 H 589.363 -2.85151 3.34044 0
M  V30 6080 H 589.969 -1.3322 4.03897 0
M  V30 6081 N 588.284 -1.56567 -0.180126 0
M  V30 6082 C 589.514 -1.85349 -0.912647 0
M  V30 6083 C 589.922 -0.675795 -1.76719 0
M  V30 6084 O 589.265 0.3645 -1.80047 0
M  V30 6085 C 589.327 -3.08431 -1.84691 0
M  V30 6086 C 588.991 -4.41694 -1.17284 0
M  V30 6087 C 589.988 -5.17062 -0.542532 0
M  V30 6088 C 587.673 -4.8843 -1.17223 0
M  V30 6089 C 589.667 -6.37351 0.0793953 0
M  V30 6090 C 587.354 -6.08652 -0.54647 0
M  V30 6091 C 588.352 -6.82955 0.0782458 0
M  V30 6092 O 588.04 -8.00897 0.694158 0
M  V30 6093 H 587.772 -0.619286 -0.271036 0
M  V30 6094 H 590.326 -2.0454 -0.187768 0
M  V30 6095 H 588.556 -2.85163 -2.61188 0
M  V30 6096 H 590.245 -3.23733 -2.44851 0
M  V30 6097 H 591.011 -4.8204 -0.535045 0
M  V30 6098 H 586.89 -4.30542 -1.64788 0
M  V30 6099 H 590.434 -6.95287 0.567612 0
M  V30 6100 H 586.331 -6.4314 -0.55151 0
M  V30 6101 H 587.099 -8.16352 0.592537 0
M  V30 6102 N 589.762 0.448376 -1.51087 0
M  V30 6103 C 590.694 1.56146 -1.67783 0
M  V30 6104 C 591.707 1.52913 -0.55871 0
M  V30 6105 O 592.896 1.57889 -0.83267 0
M  V30 6106 C 589.996 2.95057 -1.66716 0
M  V30 6107 C 589.169 3.22915 -2.95033 0
M  V30 6108 C 588.228 4.41495 -2.86302 0
M  V30 6109 O 587.254 4.40688 -3.60254 0
M  V30 6110 N 588.456 5.44443 -2.014 0
M  V30 6111 H 591.221 1.42232 -2.638 0
M  V30 6112 H 588.782 0.637153 -1.48835 0
M  V30 6113 H 590.774 3.72388 -1.58458 0
M  V30 6114 H 589.344 3.02624 -0.783403 0
M  V30 6115 H 588.564 2.33985 -3.17245 0
M  V30 6116 H 589.852 3.38349 -3.79996 0
M  V30 6117 H 589.25 5.4793 -1.40674 0
M  V30 6118 H 587.807 6.2067 -1.99029 0
M  V30 6119 N 591.24 1.41047 0.703093 0
M  V30 6120 C 592.17 1.45067 1.82969 0
M  V30 6121 C 593.151 0.31016 1.67248 0
M  V30 6122 O 594.336 0.520548 1.87093 0
M  V30 6123 C 591.466 1.32478 3.2104 0
M  V30 6124 C 590.42 2.44262 3.51454 0
M  V30 6125 C 589.746 2.16742 4.88801 0
M  V30 6126 C 591.046 3.86606 3.51189 0
M  V30 6127 H 592.74 2.39353 1.79863 0
M  V30 6128 H 590.286 1.15206 0.863919 0
M  V30 6129 H 592.239 1.33904 3.99559 0
M  V30 6130 H 590.963 0.346735 3.24754 0
M  V30 6131 H 589.622 2.42107 2.75282 0
M  V30 6132 H 589.27 1.17299 4.89132 0
M  V30 6133 H 588.97 2.91643 5.10116 0
M  V30 6134 H 590.494 2.19872 5.69639 0
M  V30 6135 H 591.908 3.90517 4.19725 0
M  V30 6136 H 590.305 4.61128 3.84033 0
M  V30 6137 H 591.375 4.15296 2.50315 0
M  V30 6138 N 592.718 -0.936591 1.26751 0
M  V30 6139 C 593.665 -2.03597 1.08706 0
M  V30 6140 C 594.635 -1.66097 -0.00926542 0
M  V30 6141 O 595.82 -1.90199 0.151377 0
M  V30 6142 C 592.96 -3.3727 0.73094 0
M  V30 6143 C 592.073 -3.87778 1.90399 0
M  V30 6144 C 591.208 -5.09859 1.49056 0
M  V30 6145 C 590.247 -5.5264 2.63164 0
M  V30 6146 N 589.384 -6.65921 2.22471 0
M  V30 6147 H 594.224 -2.18364 2.02784 0
M  V30 6148 H 591.761 -1.06985 1.00958 0
M  V30 6149 H 593.719 -4.14128 0.505328 0
M  V30 6150 H 592.349 -3.22337 -0.172868 0
M  V30 6151 H 591.401 -3.07279 2.2424 0
M  V30 6152 H 592.713 -4.15464 2.76028 0
M  V30 6153 H 591.867 -5.9419 1.22567 0
M  V30 6154 H 590.606 -4.8393 0.60524 0
M  V30 6155 H 589.611 -4.66863 2.90377 0
M  V30 6156 H 590.836 -5.80568 3.52303 0
M  V30 6157 H 588.782 -6.41667 1.36379 0
M  V30 6158 H 588.699 -6.93216 3.01641 0
M  V30 6159 H 589.967 -7.53616 1.99205 0
M  V30 6160 N 594.196 -1.08629 -1.14182 0
M  V30 6161 C 595.473 -0.73002 -1.81466 0
M  V30 6162 C 595.853 0.785996 -1.95922 0
M  V30 6163 O 595.201 1.70535 -1.52086 0
M  V30 6164 C 595.411 -1.45957 -3.17014 0
M  V30 6165 C 596.759 -1.62008 -3.92477 0
M  V30 6166 O 597.783 -1.42141 -3.26611 0
M  V30 6167 O 596.642 -1.94806 -5.106 0
M  V30 6168 H 593.736 -0.261307 -0.784632 0
M  V30 6169 H 596.282 -1.188 -1.2118 0
M  V30 6170 H 595.054 -2.49221 -3.01669 0
M  V30 6171 H 594.677 -0.993222 -3.84995 0
M  V30 6172 N 595.674 1.31259 -0.872281 0
M  V30 6173 C 596.902 2.00795 -0.498907 0
M  V30 6174 C 597.317 1.65464 0.909238 0
M  V30 6175 O 596.674 0.885073 1.59602 0
M  V30 6176 C 596.725 3.55625 -0.649092 0
M  V30 6177 O 596.446 3.89692 -2.00179 0
M  V30 6178 C 597.947 4.42434 -0.277034 0
M  V30 6179 H 595.167 0.642299 -0.194145 0
M  V30 6180 H 597.711 1.67438 -1.17408 0
M  V30 6181 H 595.866 3.87394 -0.0214402 0
M  V30 6182 H 596.28 4.84407 -2.01122 0
M  V30 6183 H 597.754 5.50299 -0.433064 0
M  V30 6184 H 598.231 4.32146 0.783989 0
M  V30 6185 H 598.837 4.16086 -0.880483 0
M  V30 6186 N 597.152 0.631951 1.44375 0
M  V30 6187 C 598.062 -0.073674 2.34484 0
M  V30 6188 C 599.078 -0.834825 1.52665 0
M  V30 6189 O 600.254 -0.786902 1.85391 0
M  V30 6190 C 597.319 -1.04247 3.30656 0
M  V30 6191 C 596.38 -0.280602 4.28382 0
M  V30 6192 C 595.613 -1.20325 5.19959 0
M  V30 6193 O 595.836 -2.44199 5.15484 0
M  V30 6194 O 594.77 -0.687128 5.97965 0
M  V30 6195 H 598.596 0.667477 2.96274 0
M  V30 6196 H 596.181 0.392144 1.44162 0
M  V30 6197 H 598.063 -1.59981 3.89851 0
M  V30 6198 H 596.738 -1.76422 2.71398 0
M  V30 6199 H 595.645 0.319804 3.72731 0
M  V30 6200 H 596.978 0.401144 4.90563 0
M  V30 6201 N 598.631 -1.53133 0.372548 0
M  V30 6202 C 599.561 -2.28876 -0.462412 0
M  V30 6203 C 600.542 -1.31583 -1.07796 0
M  V30 6204 O 601.727 -1.60461 -1.09389 0
M  V30 6205 C 598.857 -3.08317 -1.59868 0
M  V30 6206 C 597.811 -4.13355 -1.11003 0
M  V30 6207 C 597.137 -4.8092 -2.33708 0
M  V30 6208 C 598.437 -5.21955 -0.18983 0
M  V30 6209 H 600.131 -2.9892 0.169511 0
M  V30 6210 H 597.677 -1.43761 0.0829658 0
M  V30 6211 H 599.63 -3.60055 -2.18949 0
M  V30 6212 H 598.354 -2.35976 -2.25794 0
M  V30 6213 H 597.013 -3.62573 -0.541869 0
M  V30 6214 H 596.661 -4.05144 -2.98106 0
M  V30 6215 H 596.361 -5.51904 -2.01682 0
M  V30 6216 H 597.885 -5.35455 -2.93462 0
M  V30 6217 H 599.299 -5.69153 -0.688319 0
M  V30 6218 H 597.696 -6.00087 0.0398887 0
M  V30 6219 H 598.766 -4.78811 0.766057 0
M  V30 6220 N 600.109 -0.101901 -1.5727 0
M  V30 6221 C 601.358 0.559922 -1.93772 0
M  V30 6222 C 601.671 1.68913 -0.98629 0
M  V30 6223 O 602.877 2.41256 -1.24529 0
M  V30 6224 C 601.333 1.04739 -3.44322 0
M  V30 6225 C 600.941 -0.05243 -4.47969 0
M  V30 6226 C 602.685 1.68157 -3.89774 0
M  V30 6227 C 600.592 0.450781 -5.8968 0
M  V30 6228 H 599.522 0.212931 -0.723309 0
M  V30 6229 H 602.173 -0.179001 -1.82625 0
M  V30 6230 H 600.555 1.84021 -3.50645 0
M  V30 6231 H 601.729 -0.828157 -4.53297 0
M  V30 6232 H 600.044 -0.592202 -4.12167 0
M  V30 6233 H 602.641 2.0689 -4.93052 0
M  V30 6234 H 602.984 2.55338 -3.28798 0
M  V30 6235 H 603.517 0.954453 -3.8618 0
M  V30 6236 H 600.256 -0.38458 -6.54371 0
M  V30 6237 H 599.776 1.19336 -5.87809 0
M  V30 6238 H 601.455 0.917555 -6.40461 0
M  V30 6239 N 601.587 1.56661 0.17182 0
M  V30 6240 C 602.817 1.85831 0.902804 0
M  V30 6241 C 603.225 0.685157 1.76358 0
M  V30 6242 O 602.568 -0.354947 1.80238 0
M  V30 6243 C 602.63 3.09406 1.83053 0
M  V30 6244 C 602.294 4.4231 1.1494 0
M  V30 6245 C 603.291 5.17342 0.515104 0
M  V30 6246 C 600.976 4.89045 1.14631 0
M  V30 6247 C 602.97 6.37299 -0.113194 0
M  V30 6248 C 600.657 6.08933 0.514184 0
M  V30 6249 C 601.655 6.82904 -0.114463 0
M  V30 6250 O 601.343 8.00518 -0.736622 0
M  V30 6251 H 601.075 0.620715 0.267748 0
M  V30 6252 H 603.629 2.04637 0.176918 0
M  V30 6253 H 601.859 2.86544 2.59672 0
M  V30 6254 H 603.548 3.25027 2.4313 0
M  V30 6255 H 604.314 4.82317 0.509474 0
M  V30 6256 H 600.193 4.31409 1.62502 0
M  V30 6257 H 603.737 6.94976 -0.604477 0
M  V30 6258 H 599.634 6.43423 0.517395 0
M  V30 6259 H 600.402 8.16027 -0.635822 0
M  V30 6260 N 603.065 -0.440357 1.51323 0
M  V30 6261 C 604.313 -1.18769 1.63518 0
M  V30 6262 C 604.634 -1.91793 0.352201 0
M  V30 6263 O 603.904 -1.85432 -0.631811 0
M  V30 6264 H 602.484 -0.441408 0.602634 0
M  V30 6265 H 605.146 -0.505162 1.8824 0
M  V30 6266 H 604.242 -1.91892 2.46138 0
M  V30 6267 N 604.543 -1.41418 -0.695603 0
M  V30 6268 C 605.506 -1.42988 -1.79129 0
M  V30 6269 C 606.506 -0.320514 -1.57573 0
M  V30 6270 O 607.696 -0.58039 -1.64247 0
M  V30 6271 C 604.828 -1.24122 -3.175 0
M  V30 6272 H 606.021 -2.40526 -1.7913 0
M  V30 6273 H 603.574 -1.2756 -0.903225 0
M  V30 6274 H 604.309 -0.274253 -3.23138 0
M  V30 6275 H 604.094 -2.045 -3.34547 0
M  V30 6276 H 605.584 -1.28056 -3.97481 0
M  V30 6277 N 606.021 0.929856 -1.27246 0
M  V30 6278 C 606.968 2.03017 -1.09785 0
M  V30 6279 C 607.938 1.661 0.000456744 0
M  V30 6280 O 609.123 1.90116 -0.161462 0
M  V30 6281 C 606.263 3.36878 -0.748816 0
M  V30 6282 C 605.376 3.86763 -1.92453 0
M  V30 6283 C 604.511 5.09061 -1.51758 0
M  V30 6284 C 603.55 5.51237 -2.66091 0
M  V30 6285 N 602.687 6.64732 -2.25999 0
M  V30 6286 H 607.527 2.17285 -2.03939 0
M  V30 6287 H 605.064 1.06448 -1.01524 0
M  V30 6288 H 607.022 4.13855 -0.527283 0
M  V30 6289 H 605.652 3.22424 0.155771 0
M  V30 6290 H 604.704 3.06086 -2.25867 0
M  V30 6291 H 606.016 4.13994 -2.78227 0
M  V30 6292 H 605.17 5.93532 -1.25716 0
M  V30 6293 H 603.909 4.83602 -0.630896 0
M  V30 6294 H 602.914 4.65316 -2.92849 0
M  V30 6295 H 604.139 5.78692 -3.55377 0
M  V30 6296 H 602.085 6.40935 -1.3978 0
M  V30 6297 H 602.002 6.91607 -3.05313 0
M  V30 6298 H 603.27 7.52549 -2.03199 0
M  V30 6299 N 607.499 1.09233 1.13605 0
M  V30 6300 C 608.449 0.6994 2.17008 0
M  V30 6301 C 609.433 -0.285238 1.58352 0
M  V30 6302 O 610.625 -0.09592 1.7674 0
M  V30 6303 C 607.754 0.11938 3.43092 0
M  V30 6304 C 606.84 1.13031 4.0876 0
M  V30 6305 N 607.231 2.31673 4.49623 0
M  V30 6306 C 605.529 0.967999 4.35369 0
M  V30 6307 C 606.23 2.95964 5.00779 0
M  V30 6308 N 605.206 2.23534 4.95513 0
M  V30 6309 H 609.008 1.60272 2.46354 0
M  V30 6310 H 606.522 0.968257 1.30378 0
M  V30 6311 H 608.519 -0.180122 4.16511 0
M  V30 6312 H 607.179 -0.778816 3.15221 0
M  V30 6313 H 608.19 2.69277 4.42391 0
M  V30 6314 H 604.867 0.124319 4.17315 0
M  V30 6315 H 606.257 3.96813 5.42208 0
M  V30 6316 N 608.977 -1.30795 0.87923 0
M  V30 6317 C 609.94 -2.26563 0.346676 0
M  V30 6318 C 610.94 -1.52578 -0.507597 0
M  V30 6319 O 612.13 -1.71318 -0.315575 0
M  V30 6320 C 609.262 -3.37115 -0.506611 0
M  V30 6321 H 610.455 -2.75183 1.19223 0
M  V30 6322 H 608.008 -1.41886 0.655598 0
M  V30 6323 H 608.743 -2.93802 -1.37299 0
M  V30 6324 H 608.528 -3.91959 0.105218 0
M  V30 6325 H 610.018 -4.08412 -0.871192 0
M  V30 6326 N 610.455 -0.639598 -1.44038 0
M  V30 6327 C 611.701 -0.156248 -2.02799 0
M  V30 6328 C 612.056 1.21145 -1.49471 0
M  V30 6329 O 611.349 1.79406 -0.672608 0
M  V30 6330 C 611.543 -0.0925348 -3.5728 0
M  V30 6331 C 611.372 -1.45252 -4.25596 0
M  V30 6332 C 610.142 -2.04145 -4.62226 0
M  V30 6333 C 612.34 -2.38812 -4.55492 0
M  V30 6334 N 610.322 -3.3329 -5.15549 0
M  V30 6335 C 611.693 -3.52578 -5.09989 0
M  V30 6336 C 613.748 -2.37785 -4.3745 0
M  V30 6337 C 612.451 -4.65525 -5.48342 0
M  V30 6338 C 614.477 -3.49802 -4.76857 0
M  V30 6339 C 613.839 -4.62292 -5.31475 0
M  V30 6340 H 609.938 -0.101292 -0.775412 0
M  V30 6341 H 612.522 -0.844938 -1.75411 0
M  V30 6342 H 610.693 0.565459 -3.84262 0
M  V30 6343 H 612.425 0.400426 -4.02714 0
M  V30 6344 H 609.18 -1.56999 -4.4682 0
M  V30 6345 H 609.604 -3.9934 -5.46678 0
M  V30 6346 H 614.246 -1.52061 -3.94509 0
M  V30 6347 H 611.964 -5.51951 -5.90233 0
M  V30 6348 H 615.55 -3.50193 -4.64603 0
M  V30 6349 H 614.43 -5.47536 -5.61403 0
M  V30 6350 N 611.933 1.52934 -0.380664 0
M  V30 6351 C 613.349 1.59571 -0.0302429 0
M  V30 6352 C 613.549 1.39509 1.45394 0
M  V30 6353 O 612.605 1.20777 2.21741 0
M  V30 6354 C 613.918 2.96519 -0.499691 0
M  V30 6355 C 615.466 3.09672 -0.455204 0
M  V30 6356 C 615.941 4.49056 -0.900703 0
M  V30 6357 N 617.432 4.55215 -0.856367 0
M  V30 6358 C 618.167 5.61282 -1.17259 0
M  V30 6359 N 617.663 6.75035 -1.55885 0
M  V30 6360 N 619.456 5.51343 -1.0944 0
M  V30 6361 H 611.607 1.64224 -1.347 0
M  V30 6362 H 613.87 0.771033 -0.551554 0
M  V30 6363 H 613.576 3.16388 -1.53595 0
M  V30 6364 H 613.45 3.77052 0.105789 0
M  V30 6365 H 615.837 2.89504 0.571949 0
M  V30 6366 H 615.918 2.31113 -1.09638 0
M  V30 6367 H 615.562 4.69964 -1.92604 0
M  V30 6368 H 615.492 5.26068 -0.236629 0
M  V30 6369 H 617.983 3.73546 -0.572013 0
M  V30 6370 H 618.296 7.51926 -1.784 0
M  V30 6371 H 616.641 6.76388 -1.59764 0
M  V30 6372 H 619.832 4.61356 -0.791713 0
M  V30 6373 H 620.005 6.33905 -1.34417 0
M  V30 6374 N 613.412 0.11024 1.57214 0
M  V30 6375 C 614.36 -0.860586 2.16094 0
M  V30 6376 C 615.354 -1.28156 1.1078 0
M  V30 6377 O 616.56 -1.25433 1.29099 0
M  V30 6378 H 612.935 -0.295606 0.691463 0
M  V30 6379 H 614.906 -0.33942 2.96463 0
M  V30 6380 C 613.655 -2.10421 2.768 0
M  V30 6381 H 612.978 -1.7892 3.5753 0
M  V30 6382 H 614.418 -2.76375 3.21547 0
M  V30 6383 C 612.877 -2.88823 1.73444 0
M  V30 6384 O 613.407 -3.839 1.18251 0
M  V30 6385 N 611.613 -2.52649 1.43586 0
M  V30 6386 H 611.16 -1.754 1.8866 0
M  V30 6387 H 611.118 -3.05403 0.746735 0
M  V30 6388 N 614.89 -1.56749 -0.16351 0
M  V30 6389 C 615.853 -1.96121 -1.18613 0
M  V30 6390 C 616.853 -0.845765 -1.36761 0
M  V30 6391 O 618.043 -1.11268 -1.34033 0
M  V30 6392 C 615.175 -2.26282 -2.54969 0
M  V30 6393 H 616.368 -2.87639 -0.848764 0
M  V30 6394 H 613.921 -1.50928 -0.406251 0
M  V30 6395 H 614.656 -1.37504 -2.93706 0
M  V30 6396 H 614.441 -3.07595 -2.43162 0
M  V30 6397 H 615.931 -2.57638 -3.28653 0
M  V30 6398 N 616.368 0.432326 -1.51554 0
M  V30 6399 C 617.593 1.20824 -1.68571 0
M  V30 6400 C 618.018 1.84126 -0.384596 0
M  V30 6401 O 617.376 1.69025 0.655751 0
M  V30 6402 C 617.424 2.26429 -2.80646 0
M  V30 6403 O 616.528 3.32032 -2.44598 0
M  V30 6404 H 615.869 0.353765 -0.561913 0
M  V30 6405 H 618.399 0.509916 -1.98144 0
M  V30 6406 H 618.409 2.71133 -3.04878 0
M  V30 6407 H 617.084 1.79733 -3.75058 0
M  V30 6408 H 615.661 2.92769 -2.30956 0
M  V30 6409 N 617.846 1.41785 0.688094 0
M  V30 6410 C 619.262 1.24419 0.999608 0
M  V30 6411 C 619.462 0.138868 2.01021 0
M  V30 6412 O 618.518 -0.494283 2.47615 0
M  V30 6413 C 619.831 2.59625 1.51709 0
M  V30 6414 C 621.379 2.66869 1.63554 0
M  V30 6415 C 621.854 4.0241 2.18702 0
M  V30 6416 N 623.345 4.04295 2.26053 0
M  V30 6417 C 624.08 5.05977 2.69768 0
M  V30 6418 N 623.576 6.18047 3.13033 0
M  V30 6419 N 625.369 4.93336 2.69398 0
M  V30 6420 H 617.52 2.12392 0.0187427 0
M  V30 6421 H 619.783 0.945347 0.0708673 0
M  V30 6422 H 619.489 3.41297 0.849059 0
M  V30 6423 H 619.363 2.82628 2.49803 0
M  V30 6424 H 621.75 1.8555 2.29467 0
M  V30 6425 H 621.831 2.47668 0.639857 0
M  V30 6426 H 621.475 4.8418 1.53402 0
M  V30 6427 H 621.405 4.18955 3.19037 0
M  V30 6428 H 623.896 3.23383 1.9553 0
M  V30 6429 H 624.209 6.91498 3.45038 0
M  V30 6430 H 622.554 6.21572 3.10923 0
M  V30 6431 H 625.745 4.04865 2.34952 0
M  V30 6432 H 625.918 5.72717 3.03148 0
M  V30 6433 N 619.324 -0.923095 1.27737 0
M  V30 6434 C 620.564 -1.6858 1.15586 0
M  V30 6435 C 620.928 -1.89758 -0.292562 0
M  V30 6436 O 622.129 -2.6339 -0.536583 0
M  V30 6437 C 620.4 -3.01275 1.92271 0
M  V30 6438 S 621.959 -3.924 1.96387 0
M  V30 6439 H 618.777 -0.579069 0.412554 0
M  V30 6440 H 621.379 -1.09866 1.61709 0
M  V30 6441 H 620.083 -2.83556 2.96689 0
M  V30 6442 H 619.614 -3.6504 1.46661 0
M  V30 6443 H 621.629 -4.84667 1.06361 0
M  V30 6444 N 620.802 -1.09834 -1.13024 0
M  V30 6445 C 622.048 -0.83819 -1.84668 0
M  V30 6446 C 622.381 0.634645 -1.83537 0
M  V30 6447 O 621.656 1.46753 -1.27647 0
M  V30 6448 C 621.939 -1.37933 -3.32636 0
M  V30 6449 C 621.792 -2.91857 -3.42257 0
M  V30 6450 C 623.111 -1.01654 -4.28199 0
M  V30 6451 H 620.23 -0.30595 -0.670495 0
M  V30 6452 H 622.872 -1.36044 -1.32635 0
M  V30 6453 H 621.022 -0.935111 -3.77078 0
M  V30 6454 H 622.694 -3.44759 -3.06495 0
M  V30 6455 H 620.937 -3.28776 -2.83 0
M  V30 6456 H 621.608 -3.24799 -4.46329 0
M  V30 6457 H 624.084 -1.39973 -3.9185 0
M  V30 6458 H 622.96 -1.42217 -5.30156 0
M  V30 6459 H 623.221 0.0747794 -4.42037 0
M  V30 6460 N 622.28 1.30327 -0.886154 0
M  V30 6461 C 623.528 1.9571 -0.504195 0
M  V30 6462 C 623.849 1.70294 0.950003 0
M  V30 6463 O 623.119 1.02718 1.66811 0
M  V30 6464 H 621.699 0.72412 -0.183465 0
M  V30 6465 H 624.361 1.58835 -1.12949 0
M  V30 6466 H 623.457 3.04704 -0.675431 0
M  V30 6467 N 623.758 0.647228 1.43697 0
M  V30 6468 C 625.174 0.314256 1.56476 0
M  V30 6469 C 625.374 -1.18191 1.63196 0
M  V30 6470 O 624.43 -1.96655 1.58376 0
M  V30 6471 C 625.743 1.02034 2.82859 0
M  V30 6472 C 627.291 1.00002 2.96595 0
M  V30 6473 C 627.766 1.68689 4.25803 0
M  V30 6474 N 629.257 1.65424 4.32654 0
M  V30 6475 C 629.992 2.1545 5.31384 0
M  V30 6476 N 629.488 2.73738 6.36427 0
M  V30 6477 N 631.281 2.05985 5.22998 0
M  V30 6478 H 623.432 1.61821 1.37578 0
M  V30 6479 H 625.695 0.680184 0.660344 0
M  V30 6480 H 625.401 2.07542 2.83935 0
M  V30 6481 H 625.275 0.568146 3.72897 0
M  V30 6482 H 627.662 -0.0466319 2.95063 0
M  V30 6483 H 627.743 1.49086 2.07863 0
M  V30 6484 H 627.387 2.73308 4.28095 0
M  V30 6485 H 627.317 1.17076 5.13421 0
M  V30 6486 H 629.808 1.22884 3.57363 0
M  V30 6487 H 630.121 3.09602 7.08072 0
M  V30 6488 H 628.466 2.77796 6.37067 0
M  V30 6489 H 631.657 1.60157 4.39849 0
M  V30 6490 H 631.83 2.45281 5.99784 0
M  V30 6491 N 625.236 -1.5273 0.388769 0
M  V30 6492 C 626.485 -2.00757 -0.194833 0
M  V30 6493 C 626.798 -1.27951 -1.47946 0
M  V30 6494 O 628.004 -1.66686 -2.14308 0
M  V30 6495 C 626.46 -3.57695 -0.397762 0
M  V30 6496 C 626.068 -4.394 0.873583 0
M  V30 6497 C 627.812 -4.14012 -0.937759 0
M  V30 6498 C 625.719 -5.87938 0.638962 0
M  V30 6499 H 624.649 -0.750101 -0.0765845 0
M  V30 6500 H 627.3 -1.76239 0.511086 0
M  V30 6501 H 625.682 -3.7846 -1.16552 0
M  V30 6502 H 626.856 -4.30403 1.64591 0
M  V30 6503 H 625.171 -3.94301 1.33849 0
M  V30 6504 H 627.768 -5.22645 -1.12899 0
M  V30 6505 H 628.111 -3.7007 -1.90666 0
M  V30 6506 H 628.644 -3.97137 -0.229588 0
M  V30 6507 H 625.383 -6.36202 1.57885 0
M  V30 6508 H 624.903 -5.99726 -0.094443 0
M  V30 6509 H 626.582 -6.46423 0.273299 0
M  V30 6510 N 626.714 -0.118576 -1.57153 0
M  V30 6511 C 627.646 0.862247 -2.12363 0
M  V30 6512 C 628.659 1.23025 -1.06625 0
M  V30 6513 O 629.848 1.17927 -1.33998 0
M  V30 6514 C 626.948 2.16425 -2.60794 0
M  V30 6515 C 626.121 1.96801 -3.90626 0
M  V30 6516 C 625.18 3.10726 -4.2466 0
M  V30 6517 O 624.206 2.83659 -4.93484 0
M  V30 6518 N 625.408 4.37147 -3.81946 0
M  V30 6519 H 628.173 0.390564 -2.97144 0
M  V30 6520 H 625.734 0.0658591 -1.61766 0
M  V30 6521 H 627.726 2.91633 -2.80593 0
M  V30 6522 H 626.296 2.54943 -1.80895 0
M  V30 6523 H 625.516 1.05787 -3.7974 0
M  V30 6524 H 626.804 1.80993 -4.7552 0
M  V30 6525 H 626.202 4.62014 -3.26435 0
M  V30 6526 H 624.759 5.09229 -4.06853 0
M  V30 6527 N 628.193 1.56834 0.155195 0
M  V30 6528 C 629.439 1.84058 0.865687 0
M  V30 6529 C 629.794 0.701418 1.79159 0
M  V30 6530 O 629.087 -0.301162 1.89218 0
M  V30 6531 C 629.281 3.15239 1.68402 0
M  V30 6532 C 629.11 4.41807 0.838847 0
M  V30 6533 C 627.88 5.02744 0.507645 0
M  V30 6534 C 630.078 5.14009 0.172946 0
M  V30 6535 N 628.06 6.1289 -0.351978 0
M  V30 6536 C 629.431 6.17581 -0.547158 0
M  V30 6537 C 631.486 4.97814 0.0927721 0
M  V30 6538 C 630.189 7.06711 -1.33985 0
M  V30 6539 C 632.215 5.874 -0.686638 0
M  V30 6540 C 631.577 6.90447 -1.39505 0
M  V30 6541 H 627.676 0.724276 0.294871 0
M  V30 6542 H 630.26 1.94255 0.131583 0
M  V30 6543 H 628.431 3.06205 2.38942 0
M  V30 6544 H 630.163 3.304 2.33705 0
M  V30 6545 H 626.918 4.66064 0.841517 0
M  V30 6546 H 627.342 6.72577 -0.772573 0
M  V30 6547 H 631.984 4.18138 0.626112 0
M  V30 6548 H 629.702 7.8582 -1.88448 0
M  V30 6549 H 633.288 5.76938 -0.750555 0
M  V30 6550 H 632.168 7.58571 -1.98847 0
M  V30 6551 N 629.671 -0.424282 1.51781 0
M  V30 6552 C 630.896 -1.19928 1.6921 0
M  V30 6553 C 631.321 -1.8392 0.394355 0
M  V30 6554 O 630.679 -1.69371 -0.646778 0
M  V30 6555 C 630.727 -2.24937 2.81843 0
M  V30 6556 O 629.831 -3.3073 2.46356 0
M  V30 6557 H 629.172 -0.35078 0.563781 0
M  V30 6558 H 631.702 -0.499401 1.98412 0
M  V30 6559 H 631.712 -2.69512 3.06312 0
M  V30 6560 H 630.387 -1.77742 3.76006 0
M  V30 6561 H 628.964 -2.9154 2.32505 0
M  V30 6562 N 631.149 -1.42148 -0.680565 0
M  V30 6563 C 632.096 -1.45175 -1.79424 0
M  V30 6564 C 633.066 -0.304352 -1.63288 0
M  V30 6565 O 634.251 -0.507591 -1.83924 0
M  V30 6566 C 631.391 -1.35429 -3.17416 0
M  V30 6567 C 630.504 -2.60158 -3.4488 0
M  V30 6568 C 629.639 -2.42596 -4.72568 0
M  V30 6569 C 628.678 -3.62727 -4.93047 0
M  V30 6570 N 627.815 -3.44143 -6.11973 0
M  V30 6571 H 632.655 -2.40349 -1.76172 0
M  V30 6572 H 630.192 -1.19334 -0.860107 0
M  V30 6573 H 632.15 -1.27777 -3.97151 0
M  V30 6574 H 630.78 -0.438536 -3.19807 0
M  V30 6575 H 629.832 -2.78199 -2.5944 0
M  V30 6576 H 631.144 -3.49473 -3.55908 0
M  V30 6577 H 630.298 -2.32497 -5.60384 0
M  V30 6578 H 629.037 -1.50761 -4.63813 0
M  V30 6579 H 628.042 -3.73264 -4.03676 0
M  V30 6580 H 629.267 -4.55534 -5.03652 0
M  V30 6581 H 627.213 -2.5502 -6.04401 0
M  V30 6582 H 627.13 -4.27041 -6.23836 0
M  V30 6583 H 628.398 -3.37845 -7.02482 0
M  V30 6584 N 632.627 0.916307 -1.28225 0
M  V30 6585 C 633.557 2.0352 -1.14464 0
M  V30 6586 C 634.538 1.70045 -0.0430844 0
M  V30 6587 O 635.723 1.92954 -0.219619 0
M  V30 6588 C 632.853 3.37889 -0.803027 0
M  V30 6589 C 631.807 3.85516 -1.85908 0
M  V30 6590 C 631.133 5.1682 -1.37116 0
M  V30 6591 C 632.433 4.07655 -3.26519 0
M  V30 6592 H 634.127 2.1529 -2.08064 0
M  V30 6593 H 631.673 1.03446 -1.00174 0
M  V30 6594 H 633.626 4.15654 -0.693537 0
M  V30 6595 H 632.35 3.26164 0.168674 0
M  V30 6596 H 631.009 3.09953 -1.95767 0
M  V30 6597 H 630.657 5.01497 -0.38859 0
M  V30 6598 H 630.357 5.49657 -2.07728 0
M  V30 6599 H 631.881 5.97143 -1.27484 0
M  V30 6600 H 633.295 4.75953 -3.19596 0
M  V30 6601 H 631.692 4.51818 -3.94943 0
M  V30 6602 H 632.762 3.12553 -3.70727 0
M  V30 6603 N 634.105 1.10431 1.1244 0
M  V30 6604 C 635.037 0.710945 2.17895 0
M  V30 6605 C 636.05 -0.252315 1.60833 0
M  V30 6606 O 637.239 -0.03679 1.78462 0
M  V30 6607 C 634.339 0.0284262 3.38888 0
M  V30 6608 C 633.512 1.01585 4.2544 0
M  V30 6609 C 632.571 0.364826 5.24934 0
M  V30 6610 O 631.597 1.01561 5.60066 0
M  V30 6611 N 632.799 -0.87674 5.73841 0
M  V30 6612 H 635.564 1.61826 2.52255 0
M  V30 6613 H 633.125 0.993132 1.27861 0
M  V30 6614 H 635.117 -0.418568 4.0253 0
M  V30 6615 H 633.687 -0.781294 3.02679 0
M  V30 6616 H 632.907 1.64111 3.58415 0
M  V30 6617 H 634.195 1.68425 4.80115 0
M  V30 6618 H 633.593 -1.42483 5.47462 0
M  V30 6619 H 632.15 -1.26688 6.39369 0
M  V30 6620 N 635.583 -1.29855 0.893053 0
M  V30 6621 C 636.829 -1.96116 0.516349 0
M  V30 6622 C 637.162 -1.70281 -0.933695 0
M  V30 6623 O 636.437 -1.01205 -1.66096 0
M  V30 6624 C 636.72 -3.51068 0.801455 0
M  V30 6625 C 636.573 -3.86387 2.30272 0
M  V30 6626 C 637.892 -4.39186 0.283423 0
M  V30 6627 H 635.011 -0.712335 0.189072 0
M  V30 6628 H 637.653 -1.53587 1.11852 0
M  V30 6629 H 635.803 -3.87424 0.288949 0
M  V30 6630 H 637.475 -3.60012 2.88425 0
M  V30 6631 H 635.718 -3.34167 2.76613 0
M  V30 6632 H 636.389 -4.94512 2.45279 0
M  V30 6633 H 638.865 -4.09785 0.722187 0
M  V30 6634 H 637.741 -5.46505 0.512169 0
M  V30 6635 H 638.002 -4.34511 -0.815643 0
M  V30 6636 N 637.061 -0.65484 -1.43351 0
M  V30 6637 C 638.308 -0.168892 -2.01794 0
M  V30 6638 C 638.636 1.2177 -1.51665 0
M  V30 6639 O 637.891 1.82717 -0.70092 0
M  V30 6640 C 638.19 -0.130424 -3.57162 0
M  V30 6641 C 637.856 -1.45898 -4.26643 0
M  V30 6642 C 636.518 -1.82279 -4.4534 0
M  V30 6643 C 638.87 -2.33485 -4.65976 0
M  V30 6644 C 636.198 -3.0591 -5.00635 0
M  V30 6645 C 638.55 -3.5641 -5.22642 0
M  V30 6646 C 637.214 -3.92985 -5.39555 0
M  V30 6647 H 636.484 -0.061802 -0.738418 0
M  V30 6648 H 639.131 -0.845869 -1.71806 0
M  V30 6649 H 637.436 0.630008 -3.86702 0
M  V30 6650 H 639.133 0.262465 -4.0014 0
M  V30 6651 H 635.723 -1.16591 -4.12437 0
M  V30 6652 H 639.907 -2.06668 -4.51223 0
M  V30 6653 H 635.163 -3.34295 -5.11915 0
M  V30 6654 H 639.337 -4.24495 -5.52066 0
M  V30 6655 H 636.964 -4.88862 -5.82167 0
M  V30 6656 N 638.539 1.52521 -0.396863 0
M  V30 6657 C 639.816 1.94112 0.240842 0
M  V30 6658 C 640.196 1.33288 1.637 0
M  V30 6659 O 639.544 0.503901 2.22875 0
M  V30 6660 C 639.754 3.48033 0.259567 0
M  V30 6661 C 641.102 4.21822 0.484866 0
M  V30 6662 O 642.126 3.54579 0.339453 0
M  V30 6663 O 640.985 5.41042 0.770412 0
M  V30 6664 H 638.079 0.812973 0.151671 0
M  V30 6665 H 640.625 1.63572 -0.451918 0
M  V30 6666 H 639.397 3.84655 -0.718078 0
M  V30 6667 H 639.02 3.84899 0.996937 0
M  V30 6668 N 640.017 0.126909 1.57088 0
M  V30 6669 C 640.98 -0.806097 2.14557 0
M  V30 6670 C 641.98 -1.18918 1.08236 0
M  V30 6671 O 643.17 -1.11339 1.33975 0
M  V30 6672 C 640.302 -2.09116 2.69227 0
M  V30 6673 H 641.495 -0.306522 2.98329 0
M  V30 6674 H 639.048 -0.122393 1.5582 0
M  V30 6675 H 639.783 -2.63486 1.89065 0
M  V30 6676 H 639.568 -1.82588 3.46993 0
M  V30 6677 H 641.058 -2.75794 3.13572 0
M  V30 6678 N 641.495 -1.56914 -0.146875 0
M  V30 6679 C 642.911 -1.51582 -0.499518 0
M  V30 6680 C 643.111 -0.83535 -1.83369 0
M  V30 6681 O 642.167 -0.405932 -2.49216 0
M  V30 6682 C 643.48 -2.96349 -0.509711 0
M  V30 6683 C 645.028 -3.07288 -0.595217 0
M  V30 6684 C 645.503 -4.53562 -0.636071 0
M  V30 6685 N 646.994 -4.57906 -0.69829 0
M  V30 6686 C 647.729 -5.68462 -0.750886 0
M  V30 6687 N 647.225 -6.88588 -0.76282 0
M  V30 6688 N 649.018 -5.56496 -0.791777 0
M  V30 6689 H 641.169 -1.99547 0.727656 0
M  V30 6690 H 643.432 -0.910113 0.265327 0
M  V30 6691 H 643.138 -3.4939 0.402409 0
M  V30 6692 H 643.012 -3.52307 -1.34758 0
M  V30 6693 H 645.399 -2.54266 -1.49776 0
M  V30 6694 H 645.48 -2.54373 0.2698 0
M  V30 6695 H 645.124 -5.07222 0.262313 0
M  V30 6696 H 645.054 -5.04259 -1.51758 0
M  V30 6697 H 647.545 -3.71429 -0.696362 0
M  V30 6698 H 647.858 -7.68598 -0.804804 0
M  V30 6699 H 646.203 -6.91148 -0.730694 0
M  V30 6700 H 649.394 -4.61562 -0.779624 0
M  V30 6701 H 649.567 -6.42671 -0.829301 0
M  V30 6702 N 642.974 0.416227 -1.52004 0
M  V30 6703 C 644.251 1.17637 -1.56272 0
M  V30 6704 C 644.631 2.08352 -0.339493 0
M  V30 6705 O 643.979 2.1833 0.674124 0
M  V30 6706 C 644.189 1.95986 -2.88774 0
M  V30 6707 C 645.537 2.52299 -3.41512 0
M  V30 6708 O 646.561 2.06174 -2.90467 0
M  V30 6709 O 645.42 3.3648 -4.30631 0
M  V30 6710 H 642.514 0.536726 -0.629169 0
M  V30 6711 H 645.06 0.423583 -1.64329 0
M  V30 6712 H 643.832 1.29487 -3.69254 0
M  V30 6713 H 643.455 2.78285 -2.83978 0
M  V30 6714 N 644.452 1.42507 0.673017 0
M  V30 6715 C 645.692 1.44559 1.44507 0
M  V30 6716 C 646.056 0.0606206 1.91904 0
M  V30 6717 O 647.257 -0.044139 2.68764 0
M  V30 6718 C 645.528 2.44291 2.60877 0
M  V30 6719 S 647.087 2.65059 3.49699 0
M  V30 6720 H 643.905 0.51181 0.49353 0
M  V30 6721 H 646.507 1.79124 0.783256 0
M  V30 6722 H 645.211 3.43685 2.24297 0
M  V30 6723 H 644.742 2.11157 3.31928 0
M  V30 6724 H 646.757 1.93494 4.56919 0
M  V30 6725 N 645.93 -0.909495 1.28709 0
M  V30 6726 C 647.158 -1.69272 1.18973 0
M  V30 6727 C 647.573 -1.87123 -0.251048 0
M  V30 6728 O 646.93 -1.40127 -1.16922 0
M  V30 6729 C 646.981 -3.08257 1.88839 0
M  V30 6730 O 646.702 -2.91228 3.27289 0
M  V30 6731 C 648.203 -4.02642 1.85457 0
M  V30 6732 H 645.423 -0.528999 0.412797 0
M  V30 6733 H 647.967 -1.13803 1.69909 0
M  V30 6734 H 646.122 -3.6053 1.41762 0
M  V30 6735 H 646.536 -3.79223 3.6234 0
M  V30 6736 H 648.01 -4.97613 2.38925 0
M  V30 6737 H 648.487 -4.31327 0.827893 0
M  V30 6738 H 649.093 -3.56298 2.32233 0
M  V30 6739 N 647.408 -1.11026 -1.11852 0
M  V30 6740 C 648.636 -0.878818 -1.87308 0
M  V30 6741 C 649.051 0.57111 -1.79955 0
M  V30 6742 O 648.408 1.39409 -1.17777 0
M  V30 6743 C 648.459 -1.3264 -3.36287 0
M  V30 6744 O 648.18 -2.71948 -3.43476 0
M  V30 6745 C 649.681 -1.12974 -4.28663 0
M  V30 6746 H 646.901 -0.315015 -0.592458 0
M  V30 6747 H 649.445 -1.47649 -1.41492 0
M  V30 6748 H 647.6 -0.772269 -3.79625 0
M  V30 6749 H 648.014 -2.91241 -4.3621 0
M  V30 6750 H 649.488 -1.49198 -5.31454 0
M  V30 6751 H 649.965 -0.0689127 -4.39146 0
M  V30 6752 H 650.571 -1.67064 -3.91113 0
M  V30 6753 N 648.886 1.2938 -0.899927 0
M  V30 6754 C 649.849 2.25983 -0.382677 0
M  V30 6755 C 650.849 1.53366 0.483259 0
M  V30 6756 O 652.039 1.71798 0.28828 0
M  V30 6757 C 649.171 3.37878 0.452915 0
M  V30 6758 H 650.364 2.73252 -1.23586 0
M  V30 6759 H 647.917 1.40825 -0.678088 0
M  V30 6760 H 648.652 2.95949 1.32608 0
M  V30 6761 H 648.437 3.91742 -0.167562 0
M  V30 6762 H 649.927 4.09746 0.806107 0
M  V30 6763 N 650.364 0.662433 1.43002 0
M  V30 6764 C 651.314 -0.0460442 2.27954 0
M  V30 6765 C 652.298 -0.785753 1.40409 0
M  V30 6766 O 653.49 -0.666701 1.63964 0
M  V30 6767 C 650.619 -1.00532 3.2825 0
M  V30 6768 C 649.705 -0.263604 4.2328 0
M  V30 6769 N 650.096 0.724855 5.00579 0
M  V30 6770 C 648.394 -0.503778 4.43146 0
M  V30 6771 C 649.095 1.16594 5.69895 0
M  V30 6772 N 648.071 0.498345 5.41311 0
M  V30 6773 H 651.873 0.712314 2.85137 0
M  V30 6774 H 649.387 0.490469 1.54817 0
M  V30 6775 H 651.384 -1.52775 3.87899 0
M  V30 6776 H 650.044 -1.76364 2.72628 0
M  V30 6777 H 651.055 1.10393 5.05998 0
M  V30 6778 H 647.732 -1.24255 3.98581 0
M  V30 6779 H 649.122 1.98434 6.4193 0
M  V30 6780 N 651.842 -1.52309 0.404946 0
M  V30 6781 C 653.09 -2.01368 -0.17186 0
M  V30 6782 C 653.411 -1.29261 -1.46002 0
M  V30 6783 O 652.681 -0.41729 -1.91404 0
M  V30 6784 H 651.261 -0.744034 -0.0664993 0
M  V30 6785 H 653.923 -1.87263 0.540228 0
M  V30 6786 H 653.019 -3.09888 -0.370957 0
M  V30 6787 N 653.32 -0.135238 -1.57019 0
M  V30 6788 C 654.253 0.846618 -2.11914 0
M  V30 6789 C 655.231 1.25019 -1.03966 0
M  V30 6790 O 656.415 1.34838 -1.31723 0
M  V30 6791 C 653.542 2.1352 -2.6292 0
M  V30 6792 C 652.588 1.87846 -3.82905 0
M  V30 6793 S 653.421 1.08005 -5.24495 0
M  V30 6794 C 654.577 2.38008 -5.78881 0
M  V30 6795 H 654.81 0.379752 -2.94865 0
M  V30 6796 H 652.343 0.0788387 -1.54199 0
M  V30 6797 H 654.301 2.87551 -2.92958 0
M  V30 6798 H 652.962 2.57323 -1.80121 0
M  V30 6799 H 652.155 2.83365 -4.16797 0
M  V30 6800 H 651.757 1.21929 -3.53567 0
M  V30 6801 H 654.049 3.33742 -5.89595 0
M  V30 6802 H 654.992 2.08638 -6.76665 0
M  V30 6803 H 655.4 2.48119 -5.07048 0
M  V30 6804 N 654.798 1.5699 0.138552 0
M  V30 6805 C 656.045 1.83809 0.849732 0
M  V30 6806 C 656.373 0.717409 1.80786 0
M  V30 6807 O 655.628 -0.292897 1.93496 0
M  V30 6808 C 655.927 3.17007 1.65049 0
M  V30 6809 C 655.593 4.43037 0.838398 0
M  V30 6810 C 654.255 4.77262 0.614385 0
M  V30 6811 C 656.607 5.20495 0.271044 0
M  V30 6812 C 653.935 5.864 -0.187552 0
M  V30 6813 C 656.287 6.30476 -0.517979 0
M  V30 6814 C 654.951 6.63245 -0.75249 0
M  V30 6815 H 654.221 0.672605 0.310939 0
M  V30 6816 H 656.868 1.91166 0.112971 0
M  V30 6817 H 655.173 3.05138 2.4576 0
M  V30 6818 H 656.87 3.34975 2.20437 0
M  V30 6819 H 653.46 4.16211 1.02307 0
M  V30 6820 H 657.644 4.94422 0.431371 0
M  V30 6821 H 652.9 6.10226 -0.378659 0
M  V30 6822 H 657.074 6.89686 -0.964694 0
M  V30 6823 H 654.701 7.47648 -1.37573 0
M  V30 6824 N 656.276 -0.40816 1.52223 0
M  V30 6825 C 657.224 -1.51788 1.76248 0
M  V30 6826 C 658.218 -1.57264 0.629638 0
M  V30 6827 O 659.424 -1.60659 0.811704 0
M  V30 6828 H 655.799 -0.504823 0.557367 0
M  V30 6829 H 657.77 -1.2871 2.69214 0
M  V30 6830 C 656.519 -2.89145 1.93107 0
M  V30 6831 H 655.842 -2.85674 2.79697 0
M  V30 6832 H 657.282 -3.66082 2.13916 0
M  V30 6833 C 655.741 -3.29581 0.698431 0
M  V30 6834 O 656.271 -4.01479 -0.133238 0
M  V30 6835 N 654.477 -2.85651 0.53405 0
M  V30 6836 H 654.024 -2.2731 1.21194 0
M  V30 6837 H 653.982 -3.13065 -0.289387 0
M  V30 6838 N 657.755 -1.42862 -0.66545 0
M  V30 6839 C 658.985 -1.47032 -1.45138 0
M  V30 6840 C 659.393 -0.0829977 -1.89018 0
M  V30 6841 O 658.736 0.914551 -1.59316 0
M  V30 6842 C 658.798 -2.34302 -2.72659 0
M  V30 6843 C 658.462 -3.82034 -2.50796 0
M  V30 6844 C 659.459 -4.73453 -2.14799 0
M  V30 6845 C 657.144 -4.26397 -2.655 0
M  V30 6846 C 659.138 -6.07228 -1.93785 0
M  V30 6847 C 656.825 -5.6023 -2.44103 0
M  V30 6848 C 657.823 -6.50462 -2.08299 0
M  V30 6849 O 657.511 -7.8182 -1.87116 0
M  V30 6850 H 657.243 -0.501969 -0.452772 0
M  V30 6851 H 659.797 -1.88137 -0.82423 0
M  V30 6852 H 658.027 -1.88063 -3.37889 0
M  V30 6853 H 659.716 -2.29818 -3.34572 0
M  V30 6854 H 660.482 -4.4046 -2.03026 0
M  V30 6855 H 656.361 -3.56448 -2.92345 0
M  V30 6856 H 659.905 -6.7762 -1.65763 0
M  V30 6857 H 655.802 -5.92793 -2.55475 0
M  V30 6858 H 656.57 -7.93274 -2.01639 0
M  V30 6859 N 659.233 0.902656 -1.29189 0
M  V30 6860 C 660.482 1.6475 -1.16362 0
M  V30 6861 C 660.795 1.93517 0.284682 0
M  V30 6862 O 662.001 2.66192 0.534229 0
M  V30 6863 C 660.457 2.96848 -2.03493 0
M  V30 6864 C 660.065 2.75687 -3.5313 0
M  V30 6865 C 661.809 3.74762 -1.99383 0
M  V30 6866 C 659.716 4.03492 -4.32375 0
M  V30 6867 H 658.646 0.618041 -0.431904 0
M  V30 6868 H 661.297 1.0008 -1.53806 0
M  V30 6869 H 659.679 3.62715 -1.58916 0
M  V30 6870 H 660.853 2.18431 -4.05739 0
M  V30 6871 H 659.168 2.11171 -3.58881 0
M  V30 6872 H 661.765 4.69515 -2.5585 0
M  V30 6873 H 662.108 4.04767 -0.973123 0
M  V30 6874 H 662.641 3.15732 -2.41988 0
M  V30 6875 H 659.38 3.78656 -5.3507 0
M  V30 6876 H 658.9 4.60318 -3.84535 0
M  V30 6877 H 660.579 4.71662 -4.42881 0
M  V30 6878 N 660.711 1.11618 1.11262 0
M  V30 6879 C 661.951 0.876154 1.8467 0
M  V30 6880 C 662.315 -0.587551 1.82789 0
M  V30 6881 O 663.516 -0.944411 2.51663 0
M  V30 6882 C 661.787 1.42461 3.2778 0
M  V30 6883 S 663.346 1.32185 4.18417 0
M  V30 6884 H 660.164 0.31628 0.636779 0
M  V30 6885 H 662.766 1.42404 1.33946 0
M  V30 6886 H 661.47 2.48367 3.26714 0
M  V30 6887 H 661.001 0.873844 3.83572 0
M  V30 6888 H 663.016 0.287607 4.95366 0
M  V30 6889 N 662.189 -1.289 0.906776 0
M  V30 6890 C 663.137 -2.29477 0.379873 0
M  V30 6891 C 664.131 -1.61068 -0.524747 0
M  V30 6892 O 665.337 -1.75344 -0.406765 0
M  V30 6893 H 661.712 -0.744742 0.10423 0
M  V30 6894 H 663.683 -2.71353 1.24137 0
M  V30 6895 C 662.432 -3.45713 -0.371154 0
M  V30 6896 H 661.755 -3.98551 0.315716 0
M  V30 6897 H 663.195 -4.18105 -0.704581 0
M  V30 6898 C 661.654 -2.9774 -1.57646 0
M  V30 6899 O 662.184 -2.99618 -2.67567 0
M  V30 6900 N 660.39 -2.53485 -1.42105 0
M  V30 6901 H 659.937 -2.52156 -0.526783 0
M  V30 6902 H 659.895 -2.21747 -2.22881 0
M  V30 6903 N 663.667 -0.670007 -1.42649 0
M  V30 6904 C 664.617 0.0339546 -2.27975 0
M  V30 6905 C 665.601 0.778295 -1.40824 0
M  V30 6906 O 666.793 0.657997 -1.64315 0
M  V30 6907 C 663.922 0.987899 -3.28779 0
M  V30 6908 C 663.008 0.241153 -4.23414 0
M  V30 6909 N 663.399 -0.751392 -5.00188 0
M  V30 6910 C 661.697 0.480269 -4.43407 0
M  V30 6911 C 662.398 -1.19615 -5.69269 0
M  V30 6912 N 661.374 -0.527045 -5.41039 0
M  V30 6913 H 665.176 -0.727425 -2.84756 0
M  V30 6914 H 662.69 -0.498673 -1.54554 0
M  V30 6915 H 664.687 1.50716 -3.88703 0
M  V30 6916 H 663.347 1.74916 -2.73559 0
M  V30 6917 H 664.358 -1.13075 -5.05405 0
M  V30 6918 H 661.035 1.2214 -3.99234 0
M  V30 6919 H 662.425 -2.01836 -6.40868 0
M  V30 6920 N 665.145 1.52092 -0.413018 0
M  V30 6921 C 666.391 2.02154 0.161737 0
M  V30 6922 C 666.724 1.29789 1.44459 0
M  V30 6923 O 665.999 0.405378 1.90229 0
M  V30 6924 C 666.282 3.5781 0.405463 0
M  V30 6925 C 666.135 4.40819 -0.894335 0
M  V30 6926 C 667.454 4.23821 1.18591 0
M  V30 6927 H 664.573 0.734769 0.0573077 0
M  V30 6928 H 667.215 1.81948 -0.547247 0
M  V30 6929 H 665.365 3.75158 1.0094 0
M  V30 6930 H 667.037 4.35175 -1.53039 0
M  V30 6931 H 665.28 4.06877 -1.50444 0
M  V30 6932 H 665.951 5.47819 -0.678144 0
M  V30 6933 H 668.427 4.10596 0.674573 0
M  V30 6934 H 667.303 5.32663 1.3252 0
M  V30 6935 H 667.564 3.83038 2.20758 0
M  V30 6936 N 666.623 0.143563 1.56945 0
M  V30 6937 C 667.57 -0.797433 2.16586 0
M  V30 6938 C 668.54 -1.24654 1.09775 0
M  V30 6939 O 669.725 -1.31968 1.37801 0
M  V30 6940 C 666.865 -2.03253 2.78895 0
M  V30 6941 C 665.978 -1.62954 4.00087 0
M  V30 6942 C 665.113 -2.81617 4.50406 0
M  V30 6943 C 664.152 -2.37675 5.64072 0
M  V30 6944 N 663.289 -3.49335 6.09023 0
M  V30 6945 H 668.129 -0.282023 2.96662 0
M  V30 6946 H 665.666 -0.127494 1.46546 0
M  V30 6947 H 667.624 -2.75653 3.13163 0
M  V30 6948 H 666.254 -2.52211 2.01469 0
M  V30 6949 H 665.306 -0.803322 3.71821 0
M  V30 6950 H 666.618 -1.26679 4.82446 0
M  V30 6951 H 665.772 -3.62212 4.86711 0
M  V30 6952 H 664.511 -3.21134 3.67048 0
M  V30 6953 H 663.516 -1.55519 5.27346 0
M  V30 6954 H 664.741 -1.99247 6.49213 0
M  V30 6955 H 662.687 -3.8848 5.28601 0
M  V30 6956 H 662.604 -3.17064 6.86299 0
M  V30 6957 H 663.872 -4.30297 6.49973 0
M  V30 6958 N 668.101 -1.57061 -0.130224 0
M  V30 6959 C 669.331 -1.88159 -0.853217 0
M  V30 6960 C 669.739 -0.731675 -1.7448 0
M  V30 6961 O 669.082 0.307035 -1.81116 0
M  V30 6962 C 669.144 -3.1415 -1.74785 0
M  V30 6963 C 668.808 -4.45202 -1.03173 0
M  V30 6964 C 669.805 -5.18526 -0.377759 0
M  V30 6965 C 667.49 -4.91912 -1.01624 0
M  V30 6966 C 669.484 -6.36775 0.282123 0
M  V30 6967 C 667.171 -6.10082 -0.352555 0
M  V30 6968 C 668.169 -6.82361 0.295483 0
M  V30 6969 O 667.857 -7.98284 0.948606 0
M  V30 6970 H 667.589 -0.627596 -0.251197 0
M  V30 6971 H 670.143 -2.05034 -0.1226 0
M  V30 6972 H 668.373 -2.93328 -2.51983 0
M  V30 6973 H 670.062 -3.31359 -2.34427 0
M  V30 6974 H 670.828 -4.83498 -0.381417 0
M  V30 6975 H 666.707 -4.35566 -1.51007 0
M  V30 6976 H 670.251 -6.93129 0.788525 0
M  V30 6977 H 666.148 -6.44569 -0.346621 0
M  V30 6978 H 666.916 -8.14054 0.851954 0
M  V30 6979 N 669.579 0.400081 -1.52437 0
M  V30 6980 C 670.542 1.4707 -1.75793 0
M  V30 6981 C 671.542 1.48036 -0.627856 0
M  V30 6982 O 672.732 1.49401 -0.895817 0
M  V30 6983 C 669.864 2.86427 -1.84858 0
M  V30 6984 H 671.057 1.27649 -2.71377 0
M  V30 6985 H 668.61 0.631141 -1.42991 0
M  V30 6986 H 669.345 3.11207 -0.912194 0
M  V30 6987 H 669.13 2.87128 -2.6702 0
M  V30 6988 H 670.62 3.64023 -2.04638 0
M  V30 6989 N 671.057 1.43213 0.657864 0
M  V30 6990 C 672.285 1.48015 1.44566 0
M  V30 6991 C 672.7 0.0965951 1.88553 0
M  V30 6992 O 672.057 -0.892221 1.59203 0
M  V30 6993 C 672.108 2.42199 2.68369 0
M  V30 6994 O 671.829 3.75173 2.26223 0
M  V30 6995 C 673.33 2.56195 3.61772 0
M  V30 6996 H 670.55 0.502861 0.444266 0
M  V30 6997 H 673.094 1.87907 0.806917 0
M  V30 6998 H 671.249 2.05514 3.28394 0
M  V30 6999 H 671.663 4.25776 3.06293 0
M  V30 7000 H 673.137 3.26182 4.4532 0
M  V30 7001 H 673.614 1.60534 4.0881 0
M  V30 7002 H 674.22 2.93671 3.07632 0
M  V30 7003 N 672.536 -0.895792 1.29666 0
M  V30 7004 C 673.484 -2.02173 1.15017 0
M  V30 7005 C 674.478 -1.69276 0.0647651 0
M  V30 7006 O 675.684 -1.7859 0.224846 0
M  V30 7007 H 672.059 -0.662719 0.355397 0
M  V30 7008 H 674.03 -2.11666 2.10334 0
M  V30 7009 C 672.779 -3.37212 0.847555 0
M  V30 7010 H 672.102 -3.6303 1.67479 0
M  V30 7011 H 673.542 -4.16668 0.785106 0
M  V30 7012 C 672.001 -3.33891 -0.44929 0
M  V30 7013 O 672.531 -3.73673 -1.47415 0
M  V30 7014 N 670.737 -2.86991 -0.456547 0
M  V30 7015 H 670.284 -2.54813 0.377925 0
M  V30 7016 H 670.242 -2.85152 -1.32423 0
M  V30 7017 N 674.014 -1.12206 -1.10668 0
M  V30 7018 C 674.961 -0.787716 -2.16942 0
M  V30 7019 C 675.931 0.244442 -1.64291 0
M  V30 7020 O 677.116 0.119558 -1.90425 0
M  V30 7021 C 674.256 -0.24584 -3.44223 0
M  V30 7022 C 673.369 -1.33552 -4.10838 0
M  V30 7023 C 672.504 -0.753337 -5.25831 0
M  V30 7024 C 671.543 -1.82231 -5.84344 0
M  V30 7025 N 670.68 -1.25902 -6.90719 0
M  V30 7026 H 675.52 -1.69809 -2.44885 0
M  V30 7027 H 673.057 -0.847862 -1.20207 0
M  V30 7028 H 675.015 0.0863639 -4.17111 0
M  V30 7029 H 673.645 0.627702 -3.16638 0
M  V30 7030 H 672.697 -1.78454 -3.35944 0
M  V30 7031 H 674.009 -2.14396 -4.50373 0
M  V30 7032 H 673.163 -0.37166 -6.05561 0
M  V30 7033 H 671.902 0.0863297 -4.87624 0
M  V30 7034 H 670.907 -2.2132 -5.03287 0
M  V30 7035 H 672.132 -2.66515 -6.24617 0
M  V30 7036 H 670.078 -0.44114 -6.54515 0
M  V30 7037 H 669.995 -2.00408 -7.28953 0
M  V30 7038 H 671.263 -0.904498 -7.74235 0
M  V30 7039 N 675.492 1.28418 -0.913599 0
M  V30 7040 C 676.74 1.94596 -0.545594 0
M  V30 7041 C 677.061 1.7227 0.913668 0
M  V30 7042 O 676.331 1.06233 1.64595 0
M  V30 7043 H 674.911 0.720065 -0.198783 0
M  V30 7044 H 677.573 1.56404 -1.16292 0
M  V30 7045 H 676.669 3.03202 -0.739911 0
M  V30 7046 N 676.97 0.677563 1.42291 0
M  V30 7047 C 677.918 -0.0106755 2.32598 0
M  V30 7048 C 678.912 -0.787643 1.49975 0
M  V30 7049 O 680.118 -0.695295 1.66029 0
M  V30 7050 H 676.493 -0.0222482 0.751671 0
M  V30 7051 H 678.464 0.768312 2.88339 0
M  V30 7052 C 677.213 -0.946142 3.3458 0
M  V30 7053 H 676.536 -0.357701 3.98197 0
M  V30 7054 H 677.976 -1.39634 4.00348 0
M  V30 7055 C 676.435 -2.05383 2.67057 0
M  V30 7056 O 676.965 -3.1406 2.50458 0
M  V30 7057 N 675.171 -1.82635 2.26038 0
M  V30 7058 H 674.718 -0.942534 2.39737 0
M  V30 7059 H 674.676 -2.56937 1.81192 0
M  V30 7060 N 678.448 -1.51871 0.421078 0
M  V30 7061 C 679.378 -2.30231 -0.389363 0
M  V30 7062 C 680.359 -1.34946 -1.03555 0
M  V30 7063 O 681.544 -1.63859 -1.04229 0
M  V30 7064 C 678.674 -3.13247 -1.49979 0
M  V30 7065 C 677.628 -4.16677 -0.977966 0
M  V30 7066 C 676.954 -4.88112 -2.1829 0
M  V30 7067 C 678.254 -5.22295 -0.0236775 0
M  V30 7068 H 679.948 -2.98229 0.264524 0
M  V30 7069 H 677.494 -1.43424 0.12866 0
M  V30 7070 H 679.447 -3.66838 -2.07383 0
M  V30 7071 H 678.171 -2.4304 -2.18173 0
M  V30 7072 H 676.83 -3.64114 -0.426245 0
M  V30 7073 H 676.478 -4.14423 -2.85066 0
M  V30 7074 H 676.178 -5.58041 -1.84021 0
M  V30 7075 H 677.702 -5.44521 -2.76278 0
M  V30 7076 H 679.116 -5.71055 -0.506899 0
M  V30 7077 H 677.513 -5.99656 0.230782 0
M  V30 7078 H 678.583 -4.76131 0.917999 0
M  V30 7079 N 679.926 -0.151884 -1.56866 0
M  V30 7080 C 681.342 0.204486 -1.58285 0
M  V30 7081 C 681.542 1.6431 -1.16639 0
M  V30 7082 O 680.598 2.37077 -0.868946 0
M  V30 7083 C 681.911 -0.0587019 -3.00643 0
M  V30 7084 C 683.459 0.00462303 -3.13 0
M  V30 7085 C 683.934 -0.231297 -4.57416 0
M  V30 7086 N 685.425 -0.178394 -4.62856 0
M  V30 7087 C 686.16 -0.335379 -5.72418 0
M  V30 7088 N 685.656 -0.550355 -6.90611 0
M  V30 7089 N 687.449 -0.272641 -5.61438 0
M  V30 7090 H 679.6 -1.09116 -1.82229 0
M  V30 7091 H 681.863 -0.432311 -0.843689 0
M  V30 7092 H 681.569 -1.05453 -3.35518 0
M  V30 7093 H 681.443 0.658508 -3.71407 0
M  V30 7094 H 683.83 0.991009 -2.77962 0
M  V30 7095 H 683.911 -0.744992 -2.44711 0
M  V30 7096 H 683.555 -1.2148 -4.93158 0
M  V30 7097 H 683.485 0.5387 -5.23837 0
M  V30 7098 H 685.976 -0.0170923 -3.77896 0
M  V30 7099 H 686.289 -0.660116 -7.69976 0
M  V30 7100 H 684.634 -0.586736 -6.92519 0
M  V30 7101 H 687.825 -0.105421 -4.67981 0
M  V30 7102 H 687.998 -0.398418 -6.46774 0
M  V30 7103 N 681.404 1.57128 0.121893 0
M  V30 7104 C 682.629 1.89254 0.848385 0
M  V30 7105 C 683.054 0.743527 1.72781 0
M  V30 7106 O 682.412 -0.306056 1.78698 0
M  V30 7107 C 682.46 3.20113 1.66012 0
M  V30 7108 O 681.564 3.05815 2.76679 0
M  V30 7109 H 680.905 0.621103 0.234793 0
M  V30 7110 H 683.435 2.0433 0.10516 0
M  V30 7111 H 683.445 3.52761 2.04996 0
M  V30 7112 H 682.12 4.03336 1.01452 0
M  V30 7113 H 680.697 2.84627 2.40918 0
M  V30 7114 N 682.882 -0.391992 1.52647 0
M  V30 7115 C 683.845 -1.46135 1.7657 0
M  V30 7116 C 684.845 -1.47701 0.635698 0
M  V30 7117 O 686.035 -1.48924 0.903728 0
M  V30 7118 C 683.167 -2.85443 1.86374 0
M  V30 7119 H 684.36 -1.26208 2.72051 0
M  V30 7120 H 681.913 -0.623549 1.43323 0
M  V30 7121 H 682.648 -3.10718 0.928685 0
M  V30 7122 H 682.433 -2.85708 2.68539 0
M  V30 7123 H 683.923 -3.62933 2.06566 0
M  V30 7124 N 684.36 -1.4356 -0.65026 0
M  V30 7125 C 685.609 -1.44619 -1.406 0
M  V30 7126 C 685.922 -0.0752645 -1.95455 0
M  V30 7127 O 687.128 0.0366832 -2.71475 0
M  V30 7128 C 685.584 -2.54511 -2.54465 0
M  V30 7129 C 685.192 -3.97723 -2.06204 0
M  V30 7130 C 686.936 -2.64768 -3.31811 0
M  V30 7131 C 684.843 -4.99075 -3.17298 0
M  V30 7132 H 683.773 -0.537983 -0.52829 0
M  V30 7133 H 686.424 -1.69559 -0.701561 0
M  V30 7134 H 684.806 -2.22777 -3.27393 0
M  V30 7135 H 685.98 -4.38932 -1.40267 0
M  V30 7136 H 684.295 -3.91538 -1.41729 0
M  V30 7137 H 686.892 -3.37664 -4.14593 0
M  V30 7138 H 687.235 -1.69936 -3.80036 0
M  V30 7139 H 687.768 -2.95817 -2.65964 0
M  V30 7140 H 684.507 -5.95469 -2.74038 0
M  V30 7141 H 684.027 -4.62476 -3.81937 0
M  V30 7142 H 685.706 -5.21913 -3.82382 0
M  V30 7143 N 685.838 0.888903 -1.30139 0
M  V30 7144 C 687.066 1.67358 -1.21651 0
M  V30 7145 C 687.481 1.87499 0.221246 0
M  V30 7146 O 686.838 1.41969 1.14677 0
M  V30 7147 C 686.889 3.05213 -1.93719 0
M  V30 7148 O 686.61 2.85984 -3.31881 0
M  V30 7149 C 688.111 3.9964 -1.9184 0
M  V30 7150 H 685.331 0.522365 -0.42116 0
M  V30 7151 H 687.875 1.11086 -1.71698 0
M  V30 7152 H 686.03 3.5823 -1.4748 0
M  V30 7153 H 686.444 3.73411 -3.68327 0
M  V30 7154 H 687.918 4.93749 -2.46811 0
M  V30 7155 H 688.395 4.29955 -0.896409 0
M  V30 7156 H 689.001 3.52558 -2.37872 0
M  V30 7157 N 687.317 1.12792 1.10072 0
M  V30 7158 C 688.566 0.880232 1.81479 0
M  V30 7159 C 688.879 -0.595575 1.86312 0
M  V30 7160 O 690.085 -0.959979 2.53962 0
M  V30 7161 C 688.541 1.52514 3.25987 0
M  V30 7162 C 688.149 3.036 3.29441 0
M  V30 7163 C 689.893 1.35788 4.02196 0
M  V30 7164 C 687.8 3.61007 4.68431 0
M  V30 7165 H 686.73 0.325654 0.680048 0
M  V30 7166 H 689.381 1.35485 1.23758 0
M  V30 7167 H 687.763 0.978188 3.83728 0
M  V30 7168 H 688.937 3.64819 2.81502 0
M  V30 7169 H 687.252 3.19765 2.66719 0
M  V30 7170 H 689.849 1.76096 5.0487 0
M  V30 7171 H 690.192 0.301972 4.15203 0
M  V30 7172 H 690.725 1.87426 3.50879 0
M  V30 7173 H 687.464 4.66375 4.60625 0
M  V30 7174 H 686.984 3.04564 5.16721 0
M  V30 7175 H 688.663 3.60289 5.37402 0
M  V30 7176 N 688.795 -1.27931 0.920396 0
M  V30 7177 C 690.042 -1.94689 0.557007 0
M  V30 7178 C 690.37 -1.724 -0.900476 0
M  V30 7179 O 689.625 -1.04194 -1.65657 0
M  V30 7180 C 689.924 -3.47853 0.820558 0
M  V30 7181 C 689.59 -3.90252 2.25863 0
M  V30 7182 C 688.252 -4.01539 2.65179 0
M  V30 7183 C 690.604 -4.11853 3.19415 0
M  V30 7184 C 687.932 -4.3181 3.97187 0
M  V30 7185 C 690.284 -4.43606 4.50995 0
M  V30 7186 C 688.948 -4.53105 4.90155 0
M  V30 7187 H 688.218 -0.712416 0.203823 0
M  V30 7188 H 690.865 -1.52142 1.16298 0
M  V30 7189 H 689.17 -3.91578 0.131844 0
M  V30 7190 H 690.867 -3.97634 0.51847 0
M  V30 7191 H 687.457 -3.81999 1.94358 0
M  V30 7192 H 691.641 -4.0258 2.90246 0
M  V30 7193 H 686.897 -4.37371 4.2722 0
M  V30 7194 H 691.071 -4.59268 5.23494 0
M  V30 7195 H 688.698 -4.76315 5.92476 0
M  V30 7196 N 690.273 -0.685099 -1.4193 0
M  V30 7197 C 691.684 -0.287699 -1.8447 0
M  V30 7198 C 692.035 1.17215 -1.57338 0
M  V30 7199 O 691.16 1.89856 -1.03845 0
M  V30 7200 C 691.755 -0.515385 -3.34857 0
M  V30 7201 C 690.314 -0.172006 -3.76007 0
M  V30 7202 C 689.461 -0.802808 -2.65425 0
M  V30 7203 H 692.412 -0.88652 -1.3163 0
M  V30 7204 H 692.433 0.229251 -3.79809 0
M  V30 7205 H 691.945 -1.57796 -3.54573 0
M  V30 7206 H 690.046 0.886716 -3.61895 0
M  V30 7207 H 690.159 -0.619717 -4.75075 0
M  V30 7208 H 688.523 -0.233267 -2.5363 0
M  V30 7209 H 689.306 -1.86904 -2.87961 0
M  V30 7210 N 691.751 1.51645 -0.429126 0
M  V30 7211 C 692.683 2.25279 0.422124 0
M  V30 7212 C 693.696 1.28986 0.993299 0
M  V30 7213 O 694.885 1.54797 0.888836 0
M  V30 7214 C 691.985 2.98666 1.60162 0
M  V30 7215 C 691.158 4.2199 1.15078 0
M  V30 7216 C 690.217 4.78028 2.19946 0
M  V30 7217 O 689.243 5.40084 1.79716 0
M  V30 7218 N 690.445 4.61342 3.5234 0
M  V30 7219 H 693.21 2.98971 -0.208931 0
M  V30 7220 H 690.771 1.59838 -0.257568 0
M  V30 7221 H 692.763 3.33044 2.29922 0
M  V30 7222 H 691.333 2.28036 2.13818 0
M  V30 7223 H 690.553 3.932 0.280552 0
M  V30 7224 H 691.841 5.02037 0.826831 0
M  V30 7225 H 691.239 4.11894 3.87763 0
M  V30 7226 H 689.796 5.00104 4.18019 0
M  V30 7227 N 693.229 0.160201 1.56784 0
M  V30 7228 C 694.645 -0.196089 1.58391 0
M  V30 7229 C 694.845 -1.63689 1.17508 0
M  V30 7230 O 693.901 -2.36613 0.881506 0
M  V30 7231 C 695.214 0.0746449 3.00607 0
M  V30 7232 C 696.762 0.0119762 3.12998 0
M  V30 7233 C 697.237 0.255551 4.57286 0
M  V30 7234 N 698.728 0.202938 4.62755 0
M  V30 7235 C 699.463 0.365731 5.72232 0
M  V30 7236 N 698.959 0.586972 6.90309 0
M  V30 7237 N 700.752 0.302411 5.61286 0
M  V30 7238 H 692.903 1.1008 1.81648 0
M  V30 7239 H 695.166 0.436779 0.841384 0
M  V30 7240 H 694.872 1.07231 3.34954 0
M  V30 7241 H 694.746 -0.638802 3.71751 0
M  V30 7242 H 697.133 -0.976254 2.78484 0
M  V30 7243 H 697.214 0.75796 2.44313 0
M  V30 7244 H 696.858 1.24094 4.92507 0
M  V30 7245 H 696.788 -0.510912 5.24116 0
M  V30 7246 H 699.279 0.0371328 3.77882 0
M  V30 7247 H 699.592 0.700941 7.69615 0
M  V30 7248 H 697.937 0.623453 6.92198 0
M  V30 7249 H 701.128 0.130238 4.67919 0
M  V30 7250 H 701.301 0.432712 6.46554 0
M  V30 7251 N 694.707 -1.5719 -0.113559 0
M  V30 7252 C 695.935 -1.89328 -0.834422 0
M  V30 7253 C 696.35 -0.752018 -1.73177 0
M  V30 7254 O 695.707 0.276912 -1.80387 0
M  V30 7255 C 695.758 -3.20962 -1.66329 0
M  V30 7256 O 695.479 -4.30695 -0.802069 0
M  V30 7257 C 696.98 -3.6684 -2.48884 0
M  V30 7258 H 694.2 -0.626769 -0.239587 0
M  V30 7259 H 696.744 -2.04273 -0.0963195 0
M  V30 7260 H 694.899 -3.0767 -2.35409 0
M  V30 7261 H 695.313 -5.06175 -1.37431 0
M  V30 7262 H 696.787 -4.61692 -3.02563 0
M  V30 7263 H 697.264 -2.93765 -3.26495 0
M  V30 7264 H 697.87 -3.82938 -1.85036 0
M  V30 7265 N 696.185 0.383891 -1.52853 0
M  V30 7266 C 697.462 1.14296 -1.58732 0
M  V30 7267 C 697.842 2.07585 -0.383611 0
M  V30 7268 O 697.19 2.1971 0.627661 0
M  V30 7269 C 697.4 1.89816 -2.92867 0
M  V30 7270 C 698.748 2.44998 -3.46787 0
M  V30 7271 O 699.772 1.99966 -2.94774 0
M  V30 7272 O 698.631 3.2727 -4.37672 0
M  V30 7273 H 695.725 0.52326 -0.640413 0
M  V30 7274 H 698.271 0.388631 -1.6519 0
M  V30 7275 H 697.043 1.21626 -3.71918 0
M  V30 7276 H 696.666 2.72199 -2.89816 0
M  V30 7277 N 697.663 1.43903 0.642637 0
M  V30 7278 C 698.911 1.45791 1.39962 0
M  V30 7279 C 699.232 0.0873144 1.94804 0
M  V30 7280 O 698.502 -0.878825 1.75081 0
M  V30 7281 H 697.082 0.536797 0.519479 0
M  V30 7282 H 699.744 1.7959 0.757189 0
M  V30 7283 H 698.84 2.17665 2.2367 0
M  V30 7284 N 699.141 -0.881989 1.30609 0
M  V30 7285 C 700.088 -1.98803 1.17244 0
M  V30 7286 C 701.058 -1.65987 0.0611905 0
M  V30 7287 O 702.243 -1.89385 0.231911 0
M  V30 7288 C 699.383 -3.33867 0.87333 0
M  V30 7289 C 698.496 -3.79354 2.06675 0
M  V30 7290 C 697.631 -5.03078 1.70547 0
M  V30 7291 C 696.67 -5.40981 2.86366 0
M  V30 7292 N 695.807 -6.55886 2.50514 0
M  V30 7293 H 700.647 -2.09566 2.11863 0
M  V30 7294 H 698.184 -1.02607 1.05405 0
M  V30 7295 H 700.142 -4.11612 0.680519 0
M  V30 7296 H 698.772 -3.2278 -0.0359983 0
M  V30 7297 H 697.824 -2.97492 2.37071 0
M  V30 7298 H 699.136 -4.03382 2.93401 0
M  V30 7299 H 698.29 -5.88457 1.47658 0
M  V30 7300 H 697.029 -4.80927 0.809947 0
M  V30 7301 H 696.034 -4.54127 3.09917 0
M  V30 7302 H 697.259 -5.65104 3.76609 0
M  V30 7303 H 695.205 -6.35306 1.63471 0
M  V30 7304 H 695.122 -6.79799 3.30771 0
M  V30 7305 H 696.39 -7.44489 2.30989 0
M  V30 7306 N 700.619 -1.13374 -1.09472 0
M  V30 7307 C 701.569 -0.77946 -2.14263 0
M  V30 7308 C 702.553 0.226271 -1.59301 0
M  V30 7309 O 703.745 0.0302581 -1.76974 0
M  V30 7310 C 700.874 -0.246635 -3.42413 0
M  V30 7311 C 699.96 -1.28124 -4.04283 0
M  V30 7312 N 700.351 -2.48201 -4.40715 0
M  V30 7313 C 698.649 -1.12892 -4.31476 0
M  V30 7314 C 699.35 -3.14347 -4.8945 0
M  V30 7315 N 698.326 -2.41771 -4.86876 0
M  V30 7316 H 702.128 -1.69305 -2.40235 0
M  V30 7317 H 699.642 -1.01598 -1.26695 0
M  V30 7318 H 701.639 0.0254131 -4.16892 0
M  V30 7319 H 700.299 0.661287 -3.17895 0
M  V30 7320 H 701.31 -2.85511 -4.32093 0
M  V30 7321 H 697.987 -0.279117 -4.16566 0
M  V30 7322 H 699.377 -4.16663 -5.27107 0
M  V30 7323 N 702.098 1.27442 -0.927168 0
M  V30 7324 C 703.375 1.89473 -0.485742 0
M  V30 7325 C 703.755 1.83922 1.03614 0
M  V30 7326 O 703.103 1.28409 1.89007 0
M  V30 7327 C 703.313 3.33417 -1.03123 0
M  V30 7328 C 704.661 4.10333 -1.0914 0
M  V30 7329 O 705.685 3.4243 -0.98082 0
M  V30 7330 O 704.544 5.31737 -1.26165 0
M  V30 7331 H 701.638 0.812124 -0.156154 0
M  V30 7332 H 704.184 1.35713 -1.01882 0
M  V30 7333 H 702.956 3.31747 -2.07508 0
M  V30 7334 H 702.579 3.94695 -0.479767 0
M  V30 7335 N 703.576 0.692616 1.41565 0
M  V30 7336 C 704.823 0.222335 2.01276 0
M  V30 7337 C 705.151 -1.17706 1.5484 0
M  V30 7338 O 704.406 -1.80795 0.749118 0
M  V30 7339 C 704.705 0.225073 3.56691 0
M  V30 7340 C 704.371 1.57158 4.22625 0
M  V30 7341 C 703.033 1.94022 4.40351 0
M  V30 7342 C 705.385 2.45758 4.59622 0
M  V30 7343 C 702.713 3.19076 4.92349 0
M  V30 7344 C 705.065 3.70141 5.13009 0
M  V30 7345 C 703.729 4.07152 5.28946 0
M  V30 7346 H 702.999 0.0813581 0.73652 0
M  V30 7347 H 705.646 0.891123 1.69503 0
M  V30 7348 H 703.951 -0.527259 3.88236 0
M  V30 7349 H 705.648 -0.156283 4.00695 0
M  V30 7350 H 702.238 1.27486 4.09201 0
M  V30 7351 H 706.422 2.18558 4.45585 0
M  V30 7352 H 701.678 3.4775 5.02872 0
M  V30 7353 H 705.852 4.38983 5.40617 0
M  V30 7354 H 703.479 5.04125 5.69001 0
M  V30 7355 N 705.054 -1.51416 0.437162 0
M  V30 7356 C 706.47 -1.59349 0.0894459 0
M  V30 7357 C 706.67 -1.44809 -1.40116 0
M  V30 7358 O 705.726 -1.28924 -2.17106 0
M  V30 7359 C 707.039 -2.9446 0.609398 0
M  V30 7360 C 708.587 -3.07769 0.569824 0
M  V30 7361 C 709.062 -4.45404 1.06675 0
M  V30 7362 N 710.553 -4.51723 1.02473 0
M  V30 7363 C 711.288 -5.56544 1.3801 0
M  V30 7364 N 710.784 -6.68784 1.80831 0
M  V30 7365 N 712.577 -5.46901 1.29828 0
M  V30 7366 H 704.728 -1.59112 1.40703 0
M  V30 7367 H 706.991 -0.750031 0.579791 0
M  V30 7368 H 706.697 -3.1047 1.65231 0
M  V30 7369 H 706.571 -3.77184 0.0342236 0
M  V30 7370 H 708.958 -2.91428 -0.464107 0
M  V30 7371 H 709.039 -2.26885 1.1814 0
M  V30 7372 H 708.683 -4.62492 2.09914 0
M  V30 7373 H 708.613 -5.24827 0.431712 0
M  V30 7374 H 711.104 -3.71165 0.710258 0
M  V30 7375 H 711.417 -7.44787 2.06185 0
M  V30 7376 H 709.762 -6.69992 1.84757 0
M  V30 7377 H 712.953 -4.581 0.962397 0
M  V30 7378 H 713.126 -6.2848 1.57851 0
M  V30 7379 N 706.532 -0.168513 -1.56696 0
M  V30 7380 C 707.778 0.477865 -1.9709 0
M  V30 7381 C 708.111 1.63084 -1.05438 0
M  V30 7382 O 707.386 1.94238 -0.10095 0
M  V30 7383 C 707.669 0.963521 -3.4697 0
M  V30 7384 C 707.522 -0.189443 -4.49401 0
M  V30 7385 C 708.841 1.83813 -3.99876 0
M  V30 7386 H 705.96 0.172229 -0.716593 0
M  V30 7387 H 708.602 -0.254083 -1.88293 0
M  V30 7388 H 706.752 1.58724 -3.54597 0
M  V30 7389 H 708.424 -0.826451 -4.53836 0
M  V30 7390 H 706.667 -0.845366 -4.25483 0
M  V30 7391 H 707.338 0.192446 -5.51664 0
M  V30 7392 H 709.814 1.31235 -3.94863 0
M  V30 7393 H 708.69 2.14697 -5.0517 0
M  V30 7394 H 708.951 2.78289 -3.43523 0
M  V30 7395 N 708.01 1.57248 0.105221 0
M  V30 7396 C 709.256 1.86719 0.806692 0
M  V30 7397 C 709.611 0.758061 1.76837 0
M  V30 7398 O 708.904 -0.240812 1.90081 0
M  V30 7399 C 709.098 3.20437 1.58287 0
M  V30 7400 C 708.927 4.44252 0.697864 0
M  V30 7401 C 707.697 5.04104 0.347444 0
M  V30 7402 C 709.895 5.14299 0.00933014 0
M  V30 7403 N 707.877 6.1146 -0.546786 0
M  V30 7404 C 709.248 6.15528 -0.74336 0
M  V30 7405 C 711.303 4.97857 -0.0656505 0
M  V30 7406 C 710.006 7.02091 -1.56401 0
M  V30 7407 C 712.032 5.84919 -0.873167 0
M  V30 7408 C 711.394 6.8566 -1.61401 0
M  V30 7409 H 707.493 0.73329 0.271679 0
M  V30 7410 H 710.077 1.94575 0.0697152 0
M  V30 7411 H 708.248 3.13651 2.29079 0
M  V30 7412 H 709.98 3.37668 2.23075 0
M  V30 7413 H 706.735 4.68505 0.692817 0
M  V30 7414 H 707.159 6.69779 -0.986157 0
M  V30 7415 H 711.801 4.19919 0.492768 0
M  V30 7416 H 709.519 7.79427 -2.13353 0
M  V30 7417 H 713.105 5.74259 -0.933724 0
M  V30 7418 H 711.985 7.5186 -2.2288 0
M  V30 7419 N 709.488 -0.375779 1.53054 0
M  V30 7420 C 710.436 -1.48015 1.79428 0
M  V30 7421 C 711.43 -1.55893 0.662854 0
M  V30 7422 O 712.636 -1.58901 0.845599 0
M  V30 7423 H 709.011 -0.492887 0.56795 0
M  V30 7424 H 710.982 -1.22971 2.71884 0
M  V30 7425 C 709.731 -2.84984 1.99197 0
M  V30 7426 H 709.054 -2.79677 2.85693 0
M  V30 7427 H 710.494 -3.61462 2.21633 0
M  V30 7428 C 708.953 -3.28025 0.768183 0
M  V30 7429 O 709.483 -4.01671 -0.0480482 0
M  V30 7430 N 707.689 -2.84454 0.594521 0
M  V30 7431 H 707.236 -2.24688 1.25988 0
M  V30 7432 H 707.194 -3.13609 -0.222916 0
M  V30 7433 N 710.966 -1.44241 -0.634997 0
M  V30 7434 C 712.191 -1.50516 -1.42687 0
M  V30 7435 C 712.616 -0.129864 -1.87651 0
M  V30 7436 O 711.974 0.880164 -1.58502 0
M  V30 7437 C 712.022 -2.4714 -2.62591 0
M  V30 7438 O 711.126 -1.97025 -3.62291 0
M  V30 7439 H 710.467 -0.50841 -0.427101 0
M  V30 7440 H 712.997 -1.89337 -0.775408 0
M  V30 7441 H 713.007 -2.65048 -3.10183 0
M  V30 7442 H 711.682 -3.47039 -2.29209 0
M  V30 7443 H 710.259 -1.88866 -3.21534 0
M  V30 7444 N 712.444 0.87505 -1.31075 0
M  V30 7445 C 713.376 1.98773 -1.14114 0
M  V30 7446 C 714.389 1.62595 -0.0816119 0
M  V30 7447 O 715.578 1.75449 -0.32861 0
M  V30 7448 C 712.678 3.31159 -0.720224 0
M  V30 7449 C 711.851 3.9571 -1.86366 0
M  V30 7450 C 710.91 5.06407 -1.42965 0
M  V30 7451 O 709.936 5.27501 -2.13848 0
M  V30 7452 N 711.138 5.79649 -0.314194 0
M  V30 7453 H 713.903 2.1387 -2.09951 0
M  V30 7454 H 711.464 1.04873 -1.23342 0
M  V30 7455 H 713.456 4.0259 -0.412687 0
M  V30 7456 H 712.026 3.12257 0.146396 0
M  V30 7457 H 711.246 3.17324 -2.33879 0
M  V30 7458 H 712.534 4.35576 -2.62966 0
M  V30 7459 H 711.932 5.65025 0.276228 0
M  V30 7460 H 710.489 6.51766 -0.0661641 0
M  V30 7461 N 713.922 1.13953 1.08869 0
M  V30 7462 C 714.852 0.844824 2.17681 0
M  V30 7463 C 715.833 -0.198213 1.68941 0
M  V30 7464 O 717.018 -0.0559073 1.9412 0
M  V30 7465 C 714.148 0.316325 3.45856 0
M  V30 7466 C 713.102 1.29426 4.07962 0
M  V30 7467 C 712.428 0.625275 5.31031 0
M  V30 7468 C 713.728 2.65484 4.49795 0
M  V30 7469 H 715.422 1.75471 2.42591 0
M  V30 7470 H 712.968 0.845116 1.16592 0
M  V30 7471 H 714.921 0.0977876 4.21287 0
M  V30 7472 H 713.645 -0.628972 3.20486 0
M  V30 7473 H 712.304 1.49889 3.34558 0
M  V30 7474 H 711.952 -0.325678 5.01945 0
M  V30 7475 H 711.652 1.27777 5.73539 0
M  V30 7476 H 713.176 0.416152 6.0918 0
M  V30 7477 H 714.59 2.48957 5.16424 0
M  V30 7478 H 712.987 3.26963 5.03205 0
M  V30 7479 H 714.057 3.22717 3.61914 0
M  V30 7480 N 715.4 -1.26948 0.933913 0
M  V30 7481 C 716.649 -1.93378 0.573409 0
M  V30 7482 C 716.962 -1.74148 -0.890614 0
M  V30 7483 O 718.168 -2.34971 -1.36017 0
M  V30 7484 C 716.624 -3.46449 0.974747 0
M  V30 7485 C 716.232 -3.74425 2.45988 0
M  V30 7486 C 717.976 -4.18924 0.685791 0
M  V30 7487 C 715.883 -5.209 2.8003 0
M  V30 7488 H 714.813 -0.723952 0.210736 0
M  V30 7489 H 717.464 -1.44143 1.13557 0
M  V30 7490 H 715.846 -3.94528 0.341181 0
M  V30 7491 H 717.02 -3.37079 3.14188 0
M  V30 7492 H 715.335 -3.15167 2.72138 0
M  V30 7493 H 717.932 -5.26786 0.916546 0
M  V30 7494 H 718.275 -4.14587 -0.377217 0
M  V30 7495 H 718.808 -3.76687 1.27874 0
M  V30 7496 H 715.547 -5.30332 3.85264 0
M  V30 7497 H 715.067 -5.59369 2.16485 0
M  V30 7498 H 716.746 -5.88837 2.68105 0
M  V30 7499 N 716.879 -0.700114 -1.41195 0
M  V30 7500 C 718.295 -0.372114 -1.55201 0
M  V30 7501 C 718.495 1.12053 -1.6747 0
M  V30 7502 O 717.551 1.90642 -1.65566 0
M  V30 7503 C 718.864 -1.12462 -2.78878 0
M  V30 7504 C 720.412 -1.10941 -2.92679 0
M  V30 7505 C 720.887 -1.84376 -4.19249 0
M  V30 7506 N 722.378 -1.81368 -4.26216 0
M  V30 7507 C 723.113 -2.35024 -5.23021 0
M  V30 7508 N 722.609 -2.9717 -6.25829 0
M  V30 7509 N 724.402 -2.25254 -5.14992 0
M  V30 7510 H 716.553 -1.66816 -1.31477 0
M  V30 7511 H 718.816 -0.704223 -0.634644 0
M  V30 7512 H 718.522 -2.17937 -2.76037 0
M  V30 7513 H 718.396 -0.706152 -3.70531 0
M  V30 7514 H 720.783 -0.062911 -2.95033 0
M  V30 7515 H 720.864 -1.56698 -2.02187 0
M  V30 7516 H 720.508 -2.89008 -4.17656 0
M  V30 7517 H 720.438 -1.3605 -5.08722 0
M  V30 7518 H 722.929 -1.36062 -3.52556 0
M  V30 7519 H 723.242 -3.35668 -6.96094 0
M  V30 7520 H 721.587 -3.01249 -6.26318 0
M  V30 7521 H 724.778 -1.76372 -4.33602 0
M  V30 7522 H 724.951 -2.67373 -5.90268 0
M  V30 7523 N 718.357 1.51182 -0.445186 0
M  V30 7524 C 719.587 2.06269 0.116922 0
M  V30 7525 C 719.995 1.31188 1.36332 0
M  V30 7526 O 719.338 0.367067 1.79995 0
M  V30 7527 C 719.4 3.56051 0.496757 0
M  V30 7528 C 719.064 4.52441 -0.64394 0
M  V30 7529 C 720.061 4.97233 -1.5184 0
M  V30 7530 C 717.746 4.95447 -0.826905 0
M  V30 7531 C 719.74 5.83712 -2.56046 0
M  V30 7532 C 717.427 5.81714 -1.87222 0
M  V30 7533 C 718.425 6.25745 -2.73738 0
M  V30 7534 O 718.113 7.10298 -3.76474 0
M  V30 7535 H 717.845 0.675954 0.00785733 0
M  V30 7536 H 720.399 1.95648 -0.625371 0
M  V30 7537 H 718.629 3.64483 1.29187 0
M  V30 7538 H 720.318 3.93618 0.990928 0
M  V30 7539 H 721.084 4.64696 -1.38862 0
M  V30 7540 H 716.963 4.60712 -0.163052 0
M  V30 7541 H 720.507 6.18 -3.23607 0
M  V30 7542 H 716.404 6.13664 -2.00218 0
M  V30 7543 H 717.172 7.28493 -3.73149 0
M  V30 7544 N 719.835 0.176821 1.56605 0
M  V30 7545 C 720.798 -0.737429 2.17013 0
M  V30 7546 C 721.798 -1.15414 1.11965 0
M  V30 7547 O 722.988 -1.0702 1.37449 0
M  V30 7548 C 720.12 -2.00445 2.75744 0
M  V30 7549 H 721.313 -0.211455 2.99154 0
M  V30 7550 H 718.866 -0.0727582 1.56131 0
M  V30 7551 H 719.601 -2.57338 1.97352 0
M  V30 7552 H 719.386 -1.71456 3.52626 0
M  V30 7553 H 720.876 -2.65679 3.22187 0
M  V30 7554 N 721.313 -1.57302 -0.09688 0
M  V30 7555 C 722.561 -1.8563 -0.799117 0
M  V30 7556 C 722.882 -0.765263 -1.79356 0
M  V30 7557 O 722.152 0.208657 -1.94786 0
M  V30 7558 H 720.732 -0.684937 -0.298111 0
M  V30 7559 H 723.394 -1.9474 -0.0789341 0
M  V30 7560 H 722.49 -2.82305 -1.3308 0
M  V30 7561 N 722.791 0.367657 -1.53252 0
M  V30 7562 C 724.021 1.12955 -1.72988 0
M  V30 7563 C 724.429 1.8358 -0.457708 0
M  V30 7564 O 723.772 1.74336 0.579006 0
M  V30 7565 C 723.834 2.20545 -2.83902 0
M  V30 7566 C 723.498 1.69704 -4.24323 0
M  V30 7567 C 724.495 1.16223 -5.06743 0
M  V30 7568 C 722.18 1.7528 -4.70725 0
M  V30 7569 C 724.174 0.689935 -6.33655 0
M  V30 7570 C 721.861 1.27662 -5.97617 0
M  V30 7571 C 722.859 0.746083 -6.78913 0
M  V30 7572 O 722.547 0.276925 -8.03423 0
M  V30 7573 H 722.279 0.343753 -0.582074 0
M  V30 7574 H 724.833 0.433106 -2.00782 0
M  V30 7575 H 723.063 2.93676 -2.51577 0
M  V30 7576 H 724.752 2.82111 -2.91836 0
M  V30 7577 H 725.518 1.11256 -4.72067 0
M  V30 7578 H 721.397 2.15515 -4.07522 0
M  V30 7579 H 724.941 0.275164 -6.97057 0
M  V30 7580 H 720.838 1.32322 -6.31792 0
M  V30 7581 H 721.606 0.396445 -8.17539 0
M  V30 7582 N 724.269 1.44576 0.627338 0
M  V30 7583 C 725.216 1.51734 1.73912 0
M  V30 7584 C 726.186 0.364745 1.62046 0
M  V30 7585 O 727.371 0.575503 1.81914 0
M  V30 7586 C 724.511 1.47116 3.12171 0
M  V30 7587 C 723.624 2.72778 3.34986 0
M  V30 7588 C 722.759 2.59968 4.63239 0
M  V30 7589 C 721.798 3.80776 4.79245 0
M  V30 7590 N 720.935 3.66618 5.98778 0
M  V30 7591 H 725.775 2.46722 1.6713 0
M  V30 7592 H 723.312 1.22444 0.815224 0
M  V30 7593 H 725.27 1.42429 3.92135 0
M  V30 7594 H 723.9 0.556928 3.17959 0
M  V30 7595 H 722.952 2.87637 2.48936 0
M  V30 7596 H 724.264 3.62441 3.42692 0
M  V30 7597 H 723.418 2.53135 5.51369 0
M  V30 7598 H 722.157 1.67872 4.57898 0
M  V30 7599 H 721.162 3.87989 3.89544 0
M  V30 7600 H 722.387 4.73913 4.86398 0
M  V30 7601 H 720.333 2.77277 5.9452 0
M  V30 7602 H 720.25 4.499 6.07557 0
M  V30 7603 H 721.518 3.63684 6.89459 0
M  V30 7604 N 725.747 -0.868086 1.31537 0
M  V30 7605 C 726.679 -1.98165 1.15166 0
M  V30 7606 C 727.692 -1.6255 0.0902335 0
M  V30 7607 O 728.881 -1.75272 0.33791 0
M  V30 7608 C 725.981 -3.30772 0.737776 0
M  V30 7609 C 725.154 -3.94716 1.88462 0
M  V30 7610 C 724.213 -5.05641 1.45648 0
M  V30 7611 O 723.239 -5.2636 2.16642 0
M  V30 7612 N 724.441 -5.79474 0.34493 0
M  V30 7613 H 727.206 -2.12754 2.11083 0
M  V30 7614 H 724.767 -1.04217 1.23897 0
M  V30 7615 H 726.759 -4.02366 0.434032 0
M  V30 7616 H 725.329 -3.1233 -0.129834 0
M  V30 7617 H 724.549 -3.16079 2.35558 0
M  V30 7618 H 725.837 -4.34175 2.65273 0
M  V30 7619 H 725.235 -5.65164 -0.246259 0
M  V30 7620 H 723.792 -6.51722 0.100728 0
M  V30 7621 N 727.225 -1.14528 -1.08264 0
M  V30 7622 C 728.636 -0.925261 -1.6216 0
M  V30 7623 C 728.987 0.535587 -1.88748 0
M  V30 7624 O 728.112 1.4048 -1.64604 0
M  V30 7625 C 728.707 -1.67316 -2.94603 0
M  V30 7626 C 727.266 -1.49868 -3.45278 0
M  V30 7627 C 726.413 -1.69471 -2.19487 0
M  V30 7628 H 729.364 -1.29687 -0.914707 0
M  V30 7629 H 729.385 -1.13721 -3.63109 0
M  V30 7630 H 728.897 -2.73635 -2.75219 0
M  V30 7631 H 726.998 -0.459032 -3.69762 0
M  V30 7632 H 727.111 -2.2696 -4.21931 0
M  V30 7633 H 725.475 -1.12048 -2.2873 0
M  V30 7634 H 726.258 -2.77136 -2.0261 0
M  V30 7635 N 728.703 1.26451 -0.940633 0
M  V30 7636 C 729.98 1.88947 -0.505811 0
M  V30 7637 C 730.36 1.85011 1.01657 0
M  V30 7638 O 729.708 1.30406 1.87634 0
M  V30 7639 C 729.918 3.32304 -1.06654 0
M  V30 7640 C 731.266 4.09153 -1.13486 0
M  V30 7641 O 732.29 3.41371 -1.01708 0
M  V30 7642 O 731.149 5.30369 -1.31797 0
M  V30 7643 H 728.243 0.810422 -0.164759 0
M  V30 7644 H 730.789 1.34625 -1.03316 0
M  V30 7645 H 729.561 3.29527 -2.11015 0
M  V30 7646 H 729.184 3.94164 -0.521603 0
M  V30 7647 N 730.181 0.707592 1.40822 0
M  V30 7648 C 731.429 0.243189 2.00632 0
M  V30 7649 C 731.75 -1.16512 1.56365 0
M  V30 7650 O 731.02 -1.78841 0.799553 0
M  V30 7651 H 729.6 0.0869203 0.741926 0
M  V30 7652 H 732.262 0.911438 1.72275 0
M  V30 7653 H 731.358 0.270014 3.1093 0
M  V30 7654 N 731.66 -1.50943 0.453197 0
M  V30 7655 C 732.885 -2.07116 -0.108463 0
M  V30 7656 C 733.31 -1.31681 -1.3432 0
M  V30 7657 O 732.668 -0.359256 -1.77705 0
M  V30 7658 C 732.716 -3.58447 -0.393424 0
M  V30 7659 O 731.82 -3.85038 -1.47714 0
M  V30 7660 H 731.161 -0.66398 0.0050993 0
M  V30 7661 H 733.691 -1.94362 0.639095 0
M  V30 7662 H 733.701 -4.02961 -0.639222 0
M  V30 7663 H 732.376 -4.12774 0.508946 0
M  V30 7664 H 730.953 -3.52376 -1.22006 0
M  V30 7665 N 733.138 -0.185124 -1.56509 0
M  V30 7666 C 734.366 0.462139 -2.01673 0
M  V30 7667 C 734.781 1.55873 -1.06532 0
M  V30 7668 O 734.138 1.82371 -0.0684805 0
M  V30 7669 C 734.189 1.0277 -3.46584 0
M  V30 7670 O 733.91 -0.0251296 -4.38093 0
M  V30 7671 C 735.411 1.75183 -4.07217 0
M  V30 7672 H 732.631 0.117001 -0.660721 0
M  V30 7673 H 735.175 -0.290905 -2.0242 0
M  V30 7674 H 733.33 1.73118 -3.46568 0
M  V30 7675 H 733.744 0.394387 -5.23015 0
M  V30 7676 H 735.218 2.09999 -5.10494 0
M  V30 7677 H 735.695 2.6519 -3.50101 0
M  V30 7678 H 736.301 1.09445 -4.10977 0
M  V30 7679 N 734.616 1.57351 0.0885366 0
M  V30 7680 C 735.546 2.05561 1.10757 0
M  V30 7681 C 736.527 0.945789 1.41382 0
M  V30 7682 O 737.712 1.21747 1.51299 0
M  V30 7683 C 734.842 2.48554 2.42566 0
M  V30 7684 C 733.796 3.63259 2.26334 0
M  V30 7685 C 733.122 3.9225 3.63378 0
M  V30 7686 C 734.422 4.93913 1.69844 0
M  V30 7687 H 736.116 2.90946 0.706468 0
M  V30 7688 H 733.662 1.39968 0.338385 0
M  V30 7689 H 735.615 2.8089 3.14132 0
M  V30 7690 H 734.339 1.60176 2.84625 0
M  V30 7691 H 732.998 3.31179 1.57213 0
M  V30 7692 H 732.646 3.0103 4.02976 0
M  V30 7693 H 732.346 4.69478 3.53362 0
M  V30 7694 H 733.87 4.27067 4.36401 0
M  V30 7695 H 735.284 5.24588 2.31258 0
M  V30 7696 H 733.681 5.75349 1.70569 0
M  V30 7697 H 734.751 4.80409 0.65843 0
M  V30 7698 N 736.094 -0.359525 1.53444 0
M  V30 7699 C 737.342 -1.09935 1.69584 0
M  V30 7700 C 737.663 -1.89656 0.453371 0
M  V30 7701 O 736.933 -1.8852 -0.53263 0
M  V30 7702 H 735.513 -0.408843 0.625185 0
M  V30 7703 H 738.175 -0.40467 1.90653 0
M  V30 7704 H 737.271 -1.78575 2.55964 0
M  V30 7705 N 737.572 -1.44907 -0.619662 0
M  V30 7706 C 738.849 -1.38766 -1.37852 0
M  V30 7707 C 739.229 -0.0521393 -2.11036 0
M  V30 7708 O 738.577 0.965613 -2.07095 0
M  V30 7709 C 738.787 -2.59344 -2.33541 0
M  V30 7710 C 740.135 -3.03909 -2.96521 0
M  V30 7711 O 741.159 -2.59631 -2.43865 0
M  V30 7712 O 740.018 -3.80713 -3.92071 0
M  V30 7713 H 737.112 -0.550083 -0.617525 0
M  V30 7714 H 739.658 -1.57015 -0.643759 0
M  V30 7715 H 738.43 -3.48142 -1.78642 0
M  V30 7716 H 738.053 -2.43367 -3.14417 0
M  V30 7717 N 739.05 0.861098 -1.31996 0
M  V30 7718 C 740.461 1.43065 -1.19955 0
M  V30 7719 C 740.812 1.95273 0.190489 0
M  V30 7720 O 739.937 1.87012 1.08882 0
M  V30 7721 C 740.532 2.60052 -2.1716 0
M  V30 7722 C 739.091 3.13026 -2.09026 0
M  V30 7723 C 738.238 1.85756 -2.05888 0
M  V30 7724 H 741.189 0.668834 -1.43918 0
M  V30 7725 H 741.21 3.37016 -1.76637 0
M  V30 7726 H 740.722 2.22024 -3.18319 0
M  V30 7727 H 738.823 3.55653 -1.11092 0
M  V30 7728 H 738.936 3.74707 -2.98549 0
M  V30 7729 H 737.3 2.05088 -1.51033 0
M  V30 7730 H 738.083 1.49954 -3.08818 0
M  V30 7731 N 740.528 1.15101 1.07655 0
M  V30 7732 C 741.491 0.847625 2.12951 0
M  V30 7733 C 742.491 -0.151227 1.60087 0
M  V30 7734 O 743.681 0.0780399 1.74025 0
M  V30 7735 C 740.813 0.265 3.39868 0
M  V30 7736 H 742.006 1.7809 2.41296 0
M  V30 7737 H 739.559 0.958072 1.23494 0
M  V30 7738 H 740.294 -0.676625 3.17163 0
M  V30 7739 H 740.079 0.984554 3.79538 0
M  V30 7740 H 741.569 0.0702121 4.17541 0
M  V30 7741 N 742.006 -1.2595 0.947325 0
M  V30 7742 C 742.954 -2.28152 0.452687 0
M  V30 7743 C 743.948 -1.62655 -0.473239 0
M  V30 7744 O 745.154 -1.76549 -0.350774 0
M  V30 7745 H 741.529 -0.741049 0.12787 0
M  V30 7746 H 743.5 -2.67267 1.32707 0
M  V30 7747 C 742.249 -3.46719 -0.26098 0
M  V30 7748 H 741.572 -3.97345 0.442352 0
M  V30 7749 H 743.012 -4.20135 -0.571208 0
M  V30 7750 C 741.471 -3.02605 -1.48094 0
M  V30 7751 O 742.001 -3.07979 -2.57899 0
M  V30 7752 N 740.207 -2.57877 -1.33969 0
M  V30 7753 H 739.754 -2.53704 -0.446295 0
M  V30 7754 H 739.712 -2.28725 -2.15713 0
M  V30 7755 N 743.484 -0.715051 -1.40445 0
M  V30 7756 C 744.73 -0.254705 -2.01194 0
M  V30 7757 C 745.063 1.14894 -1.56567 0
M  V30 7758 O 744.338 1.77933 -0.785491 0
M  V30 7759 C 744.621 -0.334148 -3.58546 0
M  V30 7760 C 744.474 -1.77613 -4.13248 0
M  V30 7761 C 745.793 0.294968 -4.3911 0
M  V30 7762 H 742.912 -0.094025 -0.730978 0
M  V30 7763 H 745.554 -0.907449 -1.66929 0
M  V30 7764 H 743.704 0.221609 -3.87867 0
M  V30 7765 H 745.376 -2.38723 -3.94727 0
M  V30 7766 H 743.619 -2.30402 -3.67556 0
M  V30 7767 H 744.29 -1.78311 -5.22407 0
M  V30 7768 H 746.766 -0.178563 -4.15717 0
M  V30 7769 H 745.642 0.208934 -5.48502 0
M  V30 7770 H 745.903 1.37841 -4.20062 0
M  V30 7771 N 744.962 1.50701 -0.461195 0
M  V30 7772 C 745.894 2.26124 0.374244 0
M  V30 7773 C 746.907 1.31064 0.965715 0
M  V30 7774 O 748.096 1.56647 0.855801 0
M  V30 7775 C 745.196 3.01996 1.5379 0
M  V30 7776 C 744.369 4.24336 1.06101 0
M  V30 7777 C 743.428 4.82585 2.09756 0
M  V30 7778 O 742.454 5.43775 1.68219 0
M  V30 7779 N 743.656 4.68712 3.42475 0
M  V30 7780 H 746.421 2.9846 -0.2723 0
M  V30 7781 H 743.982 1.59256 -0.291415 0
M  V30 7782 H 745.974 3.37846 2.22806 0
M  V30 7783 H 744.544 2.32521 2.08933 0
M  V30 7784 H 743.764 3.93707 0.197085 0
M  V30 7785 H 745.052 5.03678 0.720156 0
M  V30 7786 H 744.45 4.20026 3.78938 0
M  V30 7787 H 743.007 5.08858 4.07317 0
M  V30 7788 N 746.441 0.193421 1.56409 0
M  V30 7789 C 747.688 -0.445789 1.97532 0
M  V30 7790 C 748.016 -1.61744 1.08024 0
M  V30 7791 O 747.271 -1.95338 0.118982 0
M  V30 7792 C 747.57 -0.949718 3.44551 0
M  V30 7793 C 747.236 0.108383 4.5077 0
M  V30 7794 C 745.898 0.399126 4.79542 0
M  V30 7795 C 748.25 0.825423 5.14622 0
M  V30 7796 C 745.578 1.41192 5.69457 0
M  V30 7797 C 747.93 1.82735 6.05632 0
M  V30 7798 C 746.594 2.12531 6.32761 0
M  V30 7799 H 745.864 -0.163126 0.722822 0
M  V30 7800 H 748.511 0.290035 1.89291 0
M  V30 7801 H 746.816 -1.76378 3.49854 0
M  V30 7802 H 748.513 -1.45367 3.73724 0
M  V30 7803 H 745.103 -0.128392 4.28408 0
M  V30 7804 H 749.287 0.61403 4.92487 0
M  V30 7805 H 744.543 1.6487 5.88751 0
M  V30 7806 H 748.717 2.3882 6.5417 0
M  V30 7807 H 746.344 2.91155 7.02234 0
M  V30 7808 N 747.919 -1.57396 -0.0801906 0
M  V30 7809 C 749.147 -1.91055 -0.794075 0
M  V30 7810 C 749.562 -0.788583 -1.71542 0
M  V30 7811 O 748.919 0.238587 -1.80934 0
M  V30 7812 C 748.97 -3.24418 -1.59484 0
M  V30 7813 O 748.691 -4.323 -0.710532 0
M  V30 7814 C 750.192 -3.72037 -2.41046 0
M  V30 7815 H 747.412 -0.63171 -0.226238 0
M  V30 7816 H 749.956 -2.04431 -0.0529685 0
M  V30 7817 H 748.111 -3.12595 -2.2883 0
M  V30 7818 H 748.525 -5.08976 -1.26663 0
M  V30 7819 H 749.999 -4.68006 -2.92702 0
M  V30 7820 H 750.476 -3.00624 -3.2019 0
M  V30 7821 H 751.082 -3.86777 -1.76871 0
M  V30 7822 N 749.397 0.351382 -1.53633 0
M  V30 7823 C 750.307 1.45471 -1.84052 0
M  V30 7824 C 751.323 1.57945 -0.730015 0
M  V30 7825 O 752.499 1.73571 -1.02153 0
M  V30 7826 C 749.564 2.80562 -2.03681 0
M  V30 7827 C 748.625 2.77497 -3.27558 0
M  V30 7828 C 747.858 4.06144 -3.46241 0
M  V30 7829 O 748.081 5.03028 -2.68922 0
M  V30 7830 O 747.015 4.11092 -4.39645 0
M  V30 7831 H 750.841 1.22684 -2.77817 0
M  V30 7832 H 748.426 0.542827 -1.3919 0
M  V30 7833 H 750.308 3.6058 -2.18082 0
M  V30 7834 H 748.983 3.03296 -1.13106 0
M  V30 7835 H 747.89 1.96126 -3.18568 0
M  V30 7836 H 749.223 2.59716 -4.18101 0
M  V30 7837 N 750.875 1.45233 0.611969 0
M  V30 7838 C 752.124 1.48296 1.36716 0
M  V30 7839 C 752.437 0.12706 1.95187 0
M  V30 7840 O 753.643 0.0353066 2.71477 0
M  V30 7841 C 752.099 2.61168 2.47627 0
M  V30 7842 C 751.707 4.03051 1.95587 0
M  V30 7843 C 753.451 2.73472 3.24674 0
M  V30 7844 C 751.358 5.07312 3.03954 0
M  V30 7845 H 750.288 0.5518 0.513841 0
M  V30 7846 H 752.939 1.7136 0.656359 0
M  V30 7847 H 751.321 2.31379 3.21372 0
M  V30 7848 H 752.495 4.42497 1.2858 0
M  V30 7849 H 750.81 3.95158 1.31298 0
M  V30 7850 H 753.407 3.48537 4.05494 0
M  V30 7851 H 753.75 1.79953 3.75397 0
M  V30 7852 H 754.283 3.02765 2.58028 0
M  V30 7853 H 751.022 6.02525 2.58154 0
M  V30 7854 H 750.542 4.7244 3.69541 0
M  V30 7855 H 752.221 5.31867 3.6841 0
M  V30 7856 N 752.353 -0.854086 1.3245 0
M  V30 7857 C 753.593 -1.62216 1.2436 0
M  V30 7858 C 753.957 -1.91042 -0.191564 0
M  V30 7859 O 755.158 -2.65864 -0.396211 0
M  V30 7860 C 753.429 -2.9066 2.0797 0
M  V30 7861 S 754.988 -3.81438 2.16911 0
M  V30 7862 H 751.806 -0.556386 0.442669 0
M  V30 7863 H 754.408 -1.01139 1.67305 0
M  V30 7864 H 753.112 -2.6743 3.11302 0
M  V30 7865 H 752.643 -3.56753 1.65805 0
M  V30 7866 H 754.658 -4.78347 1.31903 0
M  V30 7867 N 753.831 -1.1567 -1.07043 0
M  V30 7868 C 755.08 -0.928039 -1.79082 0
M  V30 7869 C 755.393 0.545968 -1.87826 0
M  V30 7870 O 756.599 0.892308 -2.56418 0
M  V30 7871 C 755.055 -1.61103 -3.21829 0
M  V30 7872 C 754.663 -3.12228 -3.21275 0
M  V30 7873 C 756.407 -1.46404 -3.98455 0
M  V30 7874 C 754.314 -3.733 -4.58695 0
M  V30 7875 H 753.244 -0.34357 -0.671175 0
M  V30 7876 H 755.895 -1.38718 -1.20123 0
M  V30 7877 H 754.277 -1.07958 -3.81 0
M  V30 7878 H 755.451 -3.72155 -2.71731 0
M  V30 7879 H 753.766 -3.26725 -2.58147 0
M  V30 7880 H 756.363 -1.8942 -5.00024 0
M  V30 7881 H 756.706 -0.41195 -4.14257 0
M  V30 7882 H 757.239 -1.96663 -3.45787 0
M  V30 7883 H 753.978 -4.78423 -4.48098 0
M  V30 7884 H 753.498 -3.18157 -5.08465 0
M  V30 7885 H 755.177 -3.7441 -5.27661 0
M  V30 7886 N 755.309 1.25446 -0.953992 0
M  V30 7887 C 756.241 2.25111 -0.431004 0
M  V30 7888 C 757.254 1.56377 0.452764 0
M  V30 7889 O 758.443 1.76579 0.261144 0
M  V30 7890 C 755.543 3.3655 0.39839 0
M  V30 7891 C 754.716 4.34843 -0.472229 0
M  V30 7892 C 753.775 5.25351 0.29886 0
M  V30 7893 O 752.801 5.68396 -0.302522 0
M  V30 7894 N 754.003 5.5824 1.59211 0
M  V30 7895 H 756.768 2.70619 -1.28785 0
M  V30 7896 H 754.329 1.39346 -0.824281 0
M  V30 7897 H 756.321 3.94059 0.921941 0
M  V30 7898 H 754.891 2.90436 1.15609 0
M  V30 7899 H 754.111 3.76222 -1.17689 0
M  V30 7900 H 755.399 4.97497 -1.06648 0
M  V30 7901 H 754.797 5.25172 2.10264 0
M  V30 7902 H 753.354 6.18336 2.06164 0
M  V30 7903 N 756.787 0.722489 1.40064 0
M  V30 7904 C 757.719 0.0349057 2.29173 0
M  V30 7905 C 758.732 -0.716571 1.46182 0
M  V30 7906 O 759.921 -0.562806 1.69395 0
M  V30 7907 C 757.021 -0.974839 3.24577 0
M  V30 7908 C 756.194 -0.287471 4.36454 0
M  V30 7909 C 755.253 -1.20356 5.12251 0
M  V30 7910 O 754.279 -0.685753 5.65054 0
M  V30 7911 N 755.481 -2.53422 5.22262 0
M  V30 7912 H 758.246 0.800058 2.88824 0
M  V30 7913 H 755.807 0.57068 1.51509 0
M  V30 7914 H 757.799 -1.59002 3.72157 0
M  V30 7915 H 756.369 -1.6413 2.66046 0
M  V30 7916 H 755.589 0.508008 3.90913 0
M  V30 7917 H 756.877 0.189382 5.08447 0
M  V30 7918 H 756.275 -2.97981 4.80857 0
M  V30 7919 H 754.832 -3.10067 5.73325 0
M  V30 7920 N 758.265 -1.50454 0.469181 0
M  V30 7921 C 759.513 -2.01916 -0.0862982 0
M  V30 7922 C 759.834 -1.35337 -1.40388 0
M  V30 7923 O 759.104 -0.498096 -1.89462 0
M  V30 7924 H 757.684 -0.746185 -0.0348825 0
M  V30 7925 H 760.346 -1.84804 0.619167 0
M  V30 7926 H 759.442 -3.11182 -0.239189 0
M  V30 7927 N 759.743 -0.201713 -1.56304 0
M  V30 7928 C 760.989 0.429292 -1.98818 0
M  V30 7929 C 761.344 1.58779 -1.08659 0
M  V30 7930 O 760.637 1.91142 -0.132365 0
M  V30 7931 C 760.831 0.931432 -3.45049 0
M  V30 7932 C 760.66 -0.176878 -4.49352 0
M  V30 7933 C 759.43 -0.636712 -5.01272 0
M  V30 7934 C 761.628 -0.988177 -5.04717 0
M  V30 7935 N 759.61 -1.72215 -5.8925 0
M  V30 7936 C 760.981 -1.92288 -5.89428 0
M  V30 7937 C 763.036 -1.02985 -4.87133 0
M  V30 7938 C 761.739 -2.89582 -6.58434 0
M  V30 7939 C 763.765 -1.99087 -5.56883 0
M  V30 7940 C 763.127 -2.913 -6.41345 0
M  V30 7941 H 759.226 0.124322 -0.772054 0
M  V30 7942 H 761.81 -0.308929 -1.92234 0
M  V30 7943 H 759.981 1.63907 -3.52121 0
M  V30 7944 H 761.713 1.5336 -3.74517 0
M  V30 7945 H 758.468 -0.228861 -4.73047 0
M  V30 7946 H 758.892 -2.26627 -6.37941 0
M  V30 7947 H 763.534 -0.330894 -4.21503 0
M  V30 7948 H 761.252 -3.6045 -7.23258 0
M  V30 7949 H 764.838 -2.0296 -5.45251 0
M  V30 7950 H 763.718 -3.6445 -6.94367 0
M  V30 7951 N 761.222 1.57436 0.0718424 0
M  V30 7952 C 762.169 2.03686 1.08539 0
M  V30 7953 C 763.139 0.917474 1.38462 0
M  V30 7954 O 764.324 1.18513 1.4953 0
M  V30 7955 C 761.464 2.48566 2.39393 0
M  V30 7956 C 760.577 3.74122 2.16001 0
M  V30 7957 C 759.712 4.07786 3.40418 0
M  V30 7958 C 758.751 5.26383 3.1239 0
M  V30 7959 N 757.888 5.55685 4.29138 0
M  V30 7960 H 762.728 2.90043 0.684018 0
M  V30 7961 H 760.265 1.43438 0.326183 0
M  V30 7962 H 762.223 2.72639 3.15791 0
M  V30 7963 H 760.853 1.65186 2.77333 0
M  V30 7964 H 759.905 3.57389 1.30296 0
M  V30 7965 H 761.217 4.60659 1.91298 0
M  V30 7966 H 760.371 4.32759 4.25211 0
M  V30 7967 H 759.11 3.19817 3.68197 0
M  V30 7968 H 758.115 5.01206 2.25993 0
M  V30 7969 H 759.34 6.1597 2.85934 0
M  V30 7970 H 757.286 4.70675 4.56948 0
M  V30 7971 H 757.203 6.3664 4.07708 0
M  V30 7972 H 758.471 5.85209 5.14928 0
M  V30 7973 N 762.7 -0.34323 1.53817 0
M  V30 7974 C 764.111 -0.918823 1.62525 0
M  V30 7975 C 764.462 -1.89542 0.506765 0
M  V30 7976 O 763.587 -2.13326 -0.363441 0
M  V30 7977 C 764.182 -1.67326 2.94597 0
M  V30 7978 C 762.741 -2.19786 3.05567 0
M  V30 7979 C 761.888 -1.01708 2.57974 0
M  V30 7980 H 764.839 -0.121358 1.58235 0
M  V30 7981 H 764.86 -2.53615 2.83654 0
M  V30 7982 H 764.372 -0.962223 3.75983 0
M  V30 7983 H 762.473 -2.94065 2.28816 0
M  V30 7984 H 762.586 -2.46135 4.1104 0
M  V30 7985 H 760.95 -1.39058 2.13389 0
M  V30 7986 H 761.733 -0.320671 3.41799 0
M  V30 7987 N 764.178 -1.45556 -0.604258 0
M  V30 7988 C 765.589 -1.44171 -1.18624 0
M  V30 7989 C 765.94 -0.171081 -1.95453 0
M  V30 7990 O 765.065 0.727156 -2.03817 0
M  V30 7991 C 765.66 -2.61193 -2.15786 0
M  V30 7992 C 764.219 -2.62918 -2.69353 0
M  V30 7993 C 763.366 -2.36479 -1.4482 0
M  V30 7994 H 766.317 -1.53747 -0.393381 0
M  V30 7995 H 766.338 -2.35481 -2.98879 0
M  V30 7996 H 765.85 -3.53656 -1.59841 0
M  V30 7997 H 763.951 -1.7447 -3.29228 0
M  V30 7998 H 764.064 -3.6224 -3.13559 0
M  V30 7999 H 762.428 -1.86103 -1.73891 0
M  V30 8000 H 763.211 -3.31091 -0.907376 0
M  V30 8001 N 765.656 0.84705 -1.32902 0
M  V30 8002 C 767.072 1.13645 -1.12058 0
M  V30 8003 C 767.272 2.01281 0.093937 0
M  V30 8004 O 766.328 2.4026 0.776608 0
M  V30 8005 C 767.641 1.80644 -2.40392 0
M  V30 8006 C 769.189 1.93246 -2.46221 0
M  V30 8007 C 769.664 2.6366 -3.74496 0
M  V30 8008 N 771.155 2.71179 -3.75521 0
M  V30 8009 C 771.89 3.26332 -4.71482 0
M  V30 8010 N 771.386 3.82236 -5.77813 0
M  V30 8011 N 773.179 3.24507 -4.58968 0
M  V30 8012 H 765.33 0.263612 -2.10758 0
M  V30 8013 H 767.593 0.17944 -0.930863 0
M  V30 8014 H 767.299 1.23708 -3.29225 0
M  V30 8015 H 767.173 2.80736 -2.51926 0
M  V30 8016 H 769.56 2.49338 -1.57843 0
M  V30 8017 H 769.641 0.921272 -2.38634 0
M  V30 8018 H 769.285 2.08229 -4.63253 0
M  V30 8019 H 769.215 3.65234 -3.79357 0
M  V30 8020 H 771.706 2.31527 -2.9867 0
M  V30 8021 H 772.019 4.22499 -6.47082 0
M  V30 8022 H 770.364 3.80546 -5.81558 0
M  V30 8023 H 773.555 2.80085 -3.7506 0
M  V30 8024 H 773.728 3.67188 -5.33926 0
M  V30 8025 N 767.134 1.16236 1.06428 0
M  V30 8026 C 768.382 0.941171 1.78847 0
M  V30 8027 C 768.703 -0.53248 1.87589 0
M  V30 8028 O 767.973 -1.38686 1.38358 0
M  V30 8029 H 766.553 0.345228 0.66244 0
M  V30 8030 H 769.215 1.46479 1.28569 0
M  V30 8031 H 768.311 1.35871 2.80972 0
M  V30 8032 N 768.612 -1.24939 0.960631 0
M  V30 8033 C 770.028 -1.45039 0.666018 0
M  V30 8034 C 770.228 -1.86021 -0.774501 0
M  V30 8035 O 769.284 -1.99392 -1.54916 0
M  V30 8036 C 770.597 -2.51775 1.64408 0
M  V30 8037 C 772.145 -2.6561 1.65592 0
M  V30 8038 C 772.62 -3.75536 2.62177 0
M  V30 8039 N 774.111 -3.82954 2.60577 0
M  V30 8040 C 774.846 -4.67517 3.31987 0
M  V30 8041 N 774.342 -5.56321 4.1289 0
M  V30 8042 N 776.135 -4.61535 3.20845 0
M  V30 8043 H 768.286 -0.96632 1.89145 0
M  V30 8044 H 770.549 -0.486034 0.813926 0
M  V30 8045 H 770.255 -2.28534 2.67329 0
M  V30 8046 H 770.129 -3.49804 1.41128 0
M  V30 8047 H 772.516 -2.88212 0.633846 0
M  V30 8048 H 772.597 -1.67962 1.92931 0
M  V30 8049 H 772.241 -3.53684 3.64514 0
M  V30 8050 H 772.171 -4.72682 2.32119 0
M  V30 8051 H 774.662 -3.19478 2.01847 0
M  V30 8052 H 774.975 -6.17787 4.64283 0
M  V30 8053 H 773.32 -5.5601 4.16987 0
M  V30 8054 H 776.511 -3.91169 2.57108 0
M  V30 8055 H 776.684 -5.27214 3.76762 0
M  V30 8056 N 770.09 -0.729906 -1.39679 0
M  V30 8057 C 771.337 -0.275622 -2.00615 0
M  V30 8058 C 771.665 1.13559 -1.57907 0
M  V30 8059 O 770.92 1.78745 -0.796789 0
M  V30 8060 C 771.219 -0.319564 -3.55968 0
M  V30 8061 C 770.885 -1.68308 -4.1831 0
M  V30 8062 C 769.547 -2.05629 -4.35052 0
M  V30 8063 C 771.899 -2.57857 -4.52945 0
M  V30 8064 C 769.227 -3.32018 -4.83716 0
M  V30 8065 C 771.579 -3.83613 -5.03015 0
M  V30 8066 C 770.243 -4.21033 -5.17965 0
M  V30 8067 H 769.513 -0.100857 -0.734104 0
M  V30 8068 H 772.16 -0.93575 -1.67081 0
M  V30 8069 H 770.465 0.42414 -3.89497 0
M  V30 8070 H 772.162 0.0499905 -4.00969 0
M  V30 8071 H 768.752 -1.3829 -4.05677 0
M  V30 8072 H 772.936 -2.30295 -4.39634 0
M  V30 8073 H 768.192 -3.6096 -4.93475 0
M  V30 8074 H 772.366 -4.53162 -5.28788 0
M  V30 8075 H 769.993 -5.19034 -5.55435 0
M  V30 8076 N 771.568 1.50203 -0.477153 0
M  V30 8077 C 772.845 1.95115 0.137609 0
M  V30 8078 C 773.225 1.41778 1.56404 0
M  V30 8079 O 772.573 0.621333 2.1989 0
M  V30 8080 C 772.783 3.4892 0.0747168 0
M  V30 8081 C 774.131 4.238 0.260585 0
M  V30 8082 O 775.155 3.5588 0.151021 0
M  V30 8083 O 774.014 5.44366 0.482534 0
M  V30 8084 H 771.108 0.81987 0.108364 0
M  V30 8085 H 773.654 1.60946 -0.537989 0
M  V30 8086 H 772.426 3.80308 -0.920966 0
M  V30 8087 H 772.049 3.89642 0.791509 0
M  V30 8088 N 773.046 0.209999 1.56195 0
M  V30 8089 C 774.292 -0.425442 1.98287 0
M  V30 8090 C 774.625 -1.60232 1.09724 0
M  V30 8091 O 773.9 -1.93902 0.152414 0
M  V30 8092 C 774.183 -0.871189 3.49403 0
M  V30 8093 C 774.036 0.308527 4.48741 0
M  V30 8094 C 775.355 -1.73146 4.04609 0
M  V30 8095 H 772.474 -0.153169 0.720908 0
M  V30 8096 H 775.116 0.303916 1.87554 0
M  V30 8097 H 773.266 -1.49266 3.58681 0
M  V30 8098 H 774.938 0.946487 4.51486 0
M  V30 8099 H 773.181 0.957878 4.23092 0
M  V30 8100 H 773.852 -0.0461143 5.51981 0
M  V30 8101 H 776.328 -1.2072 3.98203 0
M  V30 8102 H 775.204 -2.01228 5.10684 0
M  V30 8103 H 775.465 -2.69083 3.5078 0
M  V30 8104 N 774.524 -1.57472 -0.0634922 0
M  V30 8105 C 775.454 -2.07297 -1.07473 0
M  V30 8106 C 776.435 -0.968162 -1.39859 0
M  V30 8107 O 777.62 -1.24139 -1.49343 0
M  V30 8108 C 774.75 -2.52381 -2.38581 0
M  V30 8109 C 773.704 -3.66813 -2.20526 0
M  V30 8110 C 773.03 -3.97982 -3.57092 0
M  V30 8111 C 774.33 -4.96553 -1.61965 0
M  V30 8112 H 776.024 -2.92033 -0.660092 0
M  V30 8113 H 773.57 -1.40488 -0.316074 0
M  V30 8114 H 775.523 -2.85852 -3.09624 0
M  V30 8115 H 774.247 -1.64684 -2.8204 0
M  V30 8116 H 772.906 -3.33639 -1.51924 0
M  V30 8117 H 772.554 -3.07403 -3.98136 0
M  V30 8118 H 772.254 -4.7504 -3.45848 0
M  V30 8119 H 773.778 -4.33956 -4.29552 0
M  V30 8120 H 775.192 -5.28201 -2.22883 0
M  V30 8121 H 773.589 -5.7799 -1.61394 0
M  V30 8122 H 774.659 -4.81396 -0.581918 0
M  V30 8123 N 776.003 0.335068 -1.53997 0
M  V30 8124 C 777.414 0.910191 -1.6301 0
M  V30 8125 C 777.765 1.89271 -0.516809 0
M  V30 8126 O 776.89 2.13516 0.352123 0
M  V30 8127 C 777.485 1.65761 -2.9548 0
M  V30 8128 C 776.044 2.18163 -3.06728 0
M  V30 8129 C 775.191 1.00338 -2.5851 0
M  V30 8130 H 778.142 0.112965 -1.58297 0
M  V30 8131 H 778.163 2.52107 -2.84995 0
M  V30 8132 H 777.675 0.94227 -3.76488 0
M  V30 8133 H 775.776 2.92847 -2.30372 0
M  V30 8134 H 775.889 2.43952 -4.1234 0
M  V30 8135 H 774.253 1.37925 -2.14124 0
M  V30 8136 H 775.036 0.30254 -3.41964 0
M  V30 8137 N 777.481 1.45874 0.596531 0
M  V30 8138 C 778.411 1.5824 1.71705 0
M  V30 8139 C 779.392 0.433366 1.64487 0
M  V30 8140 O 780.577 0.657895 1.82717 0
M  V30 8141 C 777.707 1.55927 3.10329 0
M  V30 8142 C 776.661 2.69659 3.32367 0
M  V30 8143 C 775.987 2.52403 4.71377 0
M  V30 8144 C 777.287 4.11591 3.21544 0
M  V30 8145 H 778.981 2.52035 1.61613 0
M  V30 8146 H 776.527 1.21297 0.776082 0
M  V30 8147 H 778.48 1.63173 3.88526 0
M  V30 8148 H 777.204 0.586674 3.21288 0
M  V30 8149 H 775.863 2.61859 2.56564 0
M  V30 8150 H 775.511 1.53258 4.79083 0
M  V30 8151 H 775.211 3.28679 4.87077 0
M  V30 8152 H 776.735 2.6152 5.5176 0
M  V30 8153 H 778.149 4.20576 3.89601 0
M  V30 8154 H 776.546 4.88344 3.4877 0
M  V30 8155 H 777.616 4.32719 2.1882 0
M  V30 8156 N 778.959 -0.83999 1.33349 0
M  V30 8157 C 779.889 -1.965 1.26135 0
M  V30 8158 C 780.87 -1.69505 0.142152 0
M  V30 8159 O 782.055 -1.91346 0.331743 0
M  V30 8160 C 779.185 -3.32632 0.99866 0
M  V30 8161 C 778.139 -3.74021 2.08068 0
M  V30 8162 C 777.465 -5.07947 1.67014 0
M  V30 8163 C 778.765 -3.87925 3.49731 0
M  V30 8164 H 780.459 -2.02793 2.20262 0
M  V30 8165 H 778.005 -0.974297 1.06035 0
M  V30 8166 H 779.958 -4.10903 0.934696 0
M  V30 8167 H 778.682 -3.26593 0.0217759 0
M  V30 8168 H 777.341 -2.98012 2.13505 0
M  V30 8169 H 776.989 -4.98378 0.680316 0
M  V30 8170 H 776.689 -5.36611 2.39422 0
M  V30 8171 H 778.213 -5.88695 1.62082 0
M  V30 8172 H 779.627 -4.5651 3.46802 0
M  V30 8173 H 778.024 -4.28023 4.20614 0
M  V30 8174 H 779.094 -2.90407 3.88319 0
M  V30 8175 N 780.437 -1.16799 -1.0581 0
M  V30 8176 C 781.367 -0.902241 -2.15364 0
M  V30 8177 C 782.348 0.153351 -1.69407 0
M  V30 8178 O 783.533 0.00442032 -1.94199 0
M  V30 8179 C 780.663 -0.407911 -3.44896 0
M  V30 8180 C 779.617 -1.40197 -4.04387 0
M  V30 8181 C 778.943 -0.765848 -5.29187 0
M  V30 8182 C 780.243 -2.77316 -4.42598 0
M  V30 8183 H 781.937 -1.81841 -2.37853 0
M  V30 8184 H 779.483 -0.875731 -1.14311 0
M  V30 8185 H 781.436 -0.20945 -4.20879 0
M  V30 8186 H 780.16 0.54378 -3.22041 0
M  V30 8187 H 778.819 -1.58707 -3.30466 0
M  V30 8188 H 778.467 0.192482 -5.02632 0
M  V30 8189 H 778.167 -1.42939 -5.69949 0
M  V30 8190 H 779.691 -0.577519 -6.07863 0
M  V30 8191 H 781.105 -2.62561 -5.09642 0
M  V30 8192 H 779.502 -3.4019 -4.94359 0
M  V30 8193 H 780.572 -3.32199 -3.53231 0
M  V30 8194 N 781.915 1.24427 -0.967243 0
M  V30 8195 C 782.847 2.24641 -0.454856 0
M  V30 8196 C 783.86 1.56849 0.436152 0
M  V30 8197 O 785.049 1.76846 0.242401 0
M  V30 8198 C 782.149 3.36954 0.362672 0
M  V30 8199 C 781.322 4.34318 -0.518324 0
M  V30 8200 C 780.381 5.25638 0.243122 0
M  V30 8201 O 779.407 5.68043 -0.362791 0
M  V30 8202 N 780.609 5.59897 1.53282 0
M  V30 8203 H 783.374 2.69238 -1.31648 0
M  V30 8204 H 780.935 1.38464 -0.839015 0
M  V30 8205 H 782.927 3.95014 0.880094 0
M  V30 8206 H 781.497 2.91646 1.12522 0
M  V30 8207 H 780.717 3.74953 -1.21672 0
M  V30 8208 H 782.005 4.96338 -1.11919 0
M  V30 8209 H 781.403 5.27373 2.04682 0
M  V30 8210 H 779.96 6.20488 1.99594 0
M  V30 8211 N 783.393 0.737304 1.3929 0
M  V30 8212 C 784.356 0.10731 2.28949 0
M  V30 8213 C 785.356 -0.664716 1.46418 0
M  V30 8214 O 786.546 -0.493392 1.67067 0
M  V30 8215 C 783.678 -0.857145 3.29948 0
M  V30 8216 H 784.871 0.89725 2.86163 0
M  V30 8217 H 782.424 0.503279 1.47976 0
M  V30 8218 H 783.159 -1.67336 2.77794 0
M  V30 8219 H 782.944 -0.306167 3.90903 0
M  V30 8220 H 784.434 -1.29444 3.97031 0
M  V30 8221 N 784.871 -1.49948 0.485112 0
M  V30 8222 C 785.819 -2.30449 -0.315609 0
M  V30 8223 C 786.813 -1.38351 -0.977516 0
M  V30 8224 O 788.019 -1.55477 -0.907019 0
M  V30 8225 H 784.394 -0.742262 -0.120629 0
M  V30 8226 H 786.365 -2.95925 0.383552 0
M  V30 8227 C 785.114 -3.19283 -1.37673 0
M  V30 8228 H 784.437 -3.90067 -0.876801 0
M  V30 8229 H 785.877 -3.78579 -1.90929 0
M  V30 8230 C 784.336 -2.37817 -2.38631 0
M  V30 8231 O 784.866 -2.0711 -3.44192 0
M  V30 8232 N 783.072 -2.00135 -2.107 0
M  V30 8233 H 782.619 -2.25307 -1.24878 0
M  V30 8234 H 782.577 -1.45933 -2.7848 0
M  V30 8235 N 786.349 -0.21828 -1.56081 0
M  V30 8236 C 787.597 0.413488 -1.97825 0
M  V30 8237 C 787.918 1.60527 -1.10707 0
M  V30 8238 O 787.188 1.9504 -0.183378 0
M  V30 8239 H 785.768 0.155757 -0.730581 0
M  V30 8240 H 788.43 -0.310413 -1.92412 0
M  V30 8241 H 787.526 0.742024 -3.03151 0
M  V30 8242 N 787.827 1.57504 0.0551401 0
M  V30 8243 C 788.775 2.05884 1.08233 0
M  V30 8244 C 789.769 0.967383 1.39061 0
M  V30 8245 O 790.975 1.15242 1.38273 0
M  V30 8246 H 787.35 0.656673 0.366449 0
M  V30 8247 H 789.321 2.91273 0.648269 0
M  V30 8248 C 788.07 2.53221 2.38273 0
M  V30 8249 H 787.393 3.36809 2.15406 0
M  V30 8250 H 788.833 2.9081 3.08554 0
M  V30 8251 C 787.292 1.42218 3.05411 0
M  V30 8252 O 787.822 0.773638 3.9418 0
M  V30 8253 N 786.028 1.16316 2.66306 0
M  V30 8254 H 785.575 1.69237 1.94207 0
M  V30 8255 H 785.533 0.422534 3.11548 0
M  V30 8256 N 789.305 -0.326896 1.54172 0
M  V30 8257 C 790.582 -1.08326 1.62864 0
M  V30 8258 C 790.962 -2.06018 0.46039 0
M  V30 8259 O 790.31 -2.21889 -0.545685 0
M  V30 8260 C 790.52 -1.78816 2.9971 0
M  V30 8261 C 791.868 -2.31958 3.55641 0
M  V30 8262 O 792.892 -1.88888 3.01993 0
M  V30 8263 O 791.751 -3.10801 4.49517 0
M  V30 8264 H 788.845 -0.499131 0.659392 0
M  V30 8265 H 791.391 -0.327054 1.66519 0
M  V30 8266 H 790.163 -1.07739 3.76176 0
M  V30 8267 H 789.786 -2.61255 2.99719 0
M  V30 8268 N 790.784 -1.46188 -0.588786 0
M  V30 8269 C 792.195 -1.45421 -1.17088 0
M  V30 8270 C 792.546 -0.191801 -1.9526 0
M  V30 8271 O 791.671 0.705497 -2.04577 0
M  V30 8272 C 792.266 -2.63467 -2.13004 0
M  V30 8273 C 790.825 -2.6576 -2.6655 0
M  V30 8274 C 789.972 -2.38002 -1.42304 0
M  V30 8275 H 792.923 -1.54156 -0.377052 0
M  V30 8276 H 792.944 -2.38638 -2.96365 0
M  V30 8277 H 792.456 -3.55331 -1.56081 0
M  V30 8278 H 790.557 -1.77952 -3.27359 0
M  V30 8279 H 790.67 -3.65545 -3.09699 0
M  V30 8280 H 789.034 -1.87936 -1.71907 0
M  V30 8281 H 789.817 -3.32035 -0.872209 0
M  V30 8282 N 792.262 0.832906 -1.33792 0
M  V30 8283 C 793.172 1.97514 -1.26592 0
M  V30 8284 C 794.188 1.73114 -0.175391 0
M  V30 8285 O 795.364 1.97387 -0.400062 0
M  V30 8286 C 792.429 3.31625 -1.01121 0
M  V30 8287 C 791.49 3.69101 -2.19233 0
M  V30 8288 C 790.723 4.96813 -1.94968 0
M  V30 8289 O 790.946 5.63208 -0.902955 0
M  V30 8290 O 789.88 5.31932 -2.8166 0
M  V30 8291 H 793.706 2.0653 -2.22664 0
M  V30 8292 H 791.291 0.966826 -1.13898 0
M  V30 8293 H 793.173 4.11968 -0.886571 0
M  V30 8294 H 791.848 3.23599 -0.080822 0
M  V30 8295 H 790.755 2.89243 -2.37253 0
M  V30 8296 H 792.088 3.818 -3.10628 0
M  V30 8297 N 793.74 1.17359 1.05189 0
M  V30 8298 C 794.67 0.91365 2.14883 0
M  V30 8299 C 795.651 -0.144365 1.69486 0
M  V30 8300 O 796.836 0.00587861 1.94199 0
M  V30 8301 C 793.966 0.426196 3.44675 0
M  V30 8302 C 792.92 1.4234 4.03638 0
M  V30 8303 C 792.246 0.793902 5.28773 0
M  V30 8304 C 793.546 2.7966 4.41121 0
M  V30 8305 H 795.24 1.831 2.36885 0
M  V30 8306 H 792.786 0.881781 1.13845 0
M  V30 8307 H 794.739 0.231767 4.20762 0
M  V30 8308 H 793.463 -0.526693 3.22325 0
M  V30 8309 H 792.122 1.60457 3.2962 0
M  V30 8310 H 791.77 -0.165824 5.02727 0
M  V30 8311 H 791.47 1.45959 5.69183 0
M  V30 8312 H 792.994 0.609747 6.07548 0
M  V30 8313 H 794.408 2.6526 5.08242 0
M  V30 8314 H 792.805 3.42807 4.92548 0
M  V30 8315 H 793.875 3.34068 3.51464 0
M  V30 8316 N 795.218 -1.23913 0.973828 0
M  V30 8317 C 796.465 -1.92151 0.639079 0
M  V30 8318 C 796.793 -1.76064 -0.826545 0
M  V30 8319 O 796.048 -1.11126 -1.61088 0
M  V30 8320 C 796.347 -3.4406 0.967356 0
M  V30 8321 C 796.013 -3.80321 2.42212 0
M  V30 8322 C 794.675 -3.8993 2.81971 0
M  V30 8323 C 797.027 -3.97935 3.36596 0
M  V30 8324 C 794.355 -4.14575 4.15144 0
M  V30 8325 C 796.707 -4.24079 4.69404 0
M  V30 8326 C 795.371 -4.31908 5.08932 0
M  V30 8327 H 794.641 -0.70313 0.233856 0
M  V30 8328 H 797.288 -1.47072 1.22646 0
M  V30 8329 H 795.593 -3.90667 0.297807 0
M  V30 8330 H 797.29 -3.95077 0.686654 0
M  V30 8331 H 793.88 -3.73411 2.10385 0
M  V30 8332 H 798.064 -3.89908 3.07059 0
M  V30 8333 H 793.32 -4.18858 4.45385 0
M  V30 8334 H 797.494 -4.36652 5.42502 0
M  V30 8335 H 795.121 -4.50758 6.12145 0
M  V30 8336 N 796.696 -0.74468 -1.38897 0
M  V30 8337 C 797.628 -0.0713608 -2.29089 0
M  V30 8338 C 798.641 0.693224 -1.47303 0
M  V30 8339 O 799.83 0.535785 -1.70269 0
M  V30 8340 C 796.93 0.923078 -3.26087 0
M  V30 8341 C 796.103 0.217998 -4.36856 0
M  V30 8342 C 795.162 1.12192 -5.14101 0
M  V30 8343 O 794.188 0.595771 -5.66073 0
M  V30 8344 N 795.39 2.45082 -5.26227 0
M  V30 8345 H 798.155 -0.845906 -2.87514 0
M  V30 8346 H 795.716 -0.594712 -1.50581 0
M  V30 8347 H 797.708 1.53061 -3.74639 0
M  V30 8348 H 796.278 1.59876 -2.68623 0
M  V30 8349 H 795.498 -0.570134 -3.90055 0
M  V30 8350 H 796.786 -0.270248 -5.08082 0
M  V30 8351 H 796.184 2.90294 -4.85537 0
M  V30 8352 H 794.741 3.00907 -5.78185 0
M  V30 8353 N 798.174 1.49689 -0.493057 0
M  V30 8354 C 799.423 2.01622 0.0560733 0
M  V30 8355 C 799.736 1.37838 1.3878 0
M  V30 8356 O 800.942 1.81054 2.02316 0
M  V30 8357 C 799.398 3.59586 0.150409 0
M  V30 8358 C 799.006 4.32338 -1.1742 0
M  V30 8359 C 800.75 4.19489 0.650327 0
M  V30 8360 C 798.657 5.8214 -1.04246 0
M  V30 8361 H 797.587 0.753594 0.0247297 0
M  V30 8362 H 800.238 1.723 -0.631279 0
M  V30 8363 H 798.62 3.8559 0.902035 0
M  V30 8364 H 799.794 4.18042 -1.9385 0
M  V30 8365 H 798.109 3.84144 -1.60694 0
M  V30 8366 H 800.706 5.29181 0.766272 0
M  V30 8367 H 801.049 3.82326 1.6472 0
M  V30 8368 H 801.582 3.97775 -0.0445371 0
M  V30 8369 H 798.321 6.23814 -2.01336 0
M  V30 8370 H 797.841 5.98952 -0.31892 0
M  V30 8371 H 799.52 6.43004 -0.717957 0
M  V30 8372 N 799.652 0.226554 1.55963 0
M  V30 8373 C 801.063 -0.280381 1.84583 0
M  V30 8374 C 801.414 -1.59105 1.14804 0
M  V30 8375 O 800.539 -2.12297 0.419414 0
M  V30 8376 C 801.134 -0.515499 3.34855 0
M  V30 8377 C 799.693 -0.966733 3.63774 0
M  V30 8378 C 798.84 -0.0325753 2.77281 0
M  V30 8379 H 801.791 0.449626 1.52197 0
M  V30 8380 H 801.812 -1.36085 3.55332 0
M  V30 8381 H 801.324 0.438594 3.85614 0
M  V30 8382 H 799.425 -1.93401 3.18476 0
M  V30 8383 H 799.538 -0.837679 4.7172 0
M  V30 8384 H 797.902 -0.540279 2.48904 0
M  V30 8385 H 798.685 0.916524 3.30839 0
M  V30 8386 N 801.13 -1.57531 -0.0467866 0
M  V30 8387 C 802.541 -1.76945 -0.595603 0
M  V30 8388 C 802.892 -0.855354 -1.76573 0
M  V30 8389 O 802.017 -0.045668 -2.16352 0
M  V30 8390 C 802.612 -3.20881 -1.08725 0
M  V30 8391 C 801.171 -3.41553 -1.58172 0
M  V30 8392 C 800.318 -2.72533 -0.511968 0
M  V30 8393 H 803.269 -1.57682 0.179436 0
M  V30 8394 H 803.29 -3.26419 -1.95528 0
M  V30 8395 H 802.802 -3.87385 -0.235398 0
M  V30 8396 H 800.903 -2.80199 -2.456 0
M  V30 8397 H 801.016 -4.50104 -1.64143 0
M  V30 8398 H 799.38 -2.35797 -0.962899 0
M  V30 8399 H 800.163 -3.41709 0.330117 0
M  V30 8400 N 802.608 0.318715 -1.54344 0
M  V30 8401 C 803.518 1.41535 -1.87097 0
M  V30 8402 C 804.534 1.56361 -0.763353 0
M  V30 8403 O 805.71 1.71365 -1.05811 0
M  V30 8404 C 802.775 2.76178 -2.09587 0
M  V30 8405 C 801.836 2.70486 -3.3337 0
M  V30 8406 C 801.069 3.98708 -3.54778 0
M  V30 8407 O 801.292 4.9721 -2.79532 0
M  V30 8408 O 800.226 4.01674 -4.48266 0
M  V30 8409 H 804.052 1.16764 -2.80357 0
M  V30 8410 H 801.637 0.51318 -1.4031 0
M  V30 8411 H 803.519 3.55873 -2.25682 0
M  V30 8412 H 802.194 3.00829 -1.19514 0
M  V30 8413 H 801.101 1.89325 -3.22656 0
M  V30 8414 H 802.434 2.50789 -4.23516 0
M  V30 8415 N 804.086 1.46499 0.581025 0
M  V30 8416 C 805.016 1.60052 1.70017 0
M  V30 8417 C 805.997 0.450788 1.64018 0
M  V30 8418 O 807.182 0.677237 1.82009 0
M  V30 8419 C 804.312 1.5921 3.08658 0
M  V30 8420 C 803.266 2.73169 3.29488 0
M  V30 8421 C 802.592 2.57389 4.68674 0
M  V30 8422 C 803.892 4.14978 3.1716 0
M  V30 8423 H 805.586 2.53735 1.5893 0
M  V30 8424 H 803.132 1.22113 0.763173 0
M  V30 8425 H 805.085 1.67285 3.86773 0
M  V30 8426 H 803.809 0.620718 3.20647 0
M  V30 8427 H 802.468 2.64566 2.53773 0
M  V30 8428 H 802.116 1.58331 4.77431 0
M  V30 8429 H 801.816 3.33826 4.83564 0
M  V30 8430 H 803.34 2.67358 5.48956 0
M  V30 8431 H 804.754 4.24684 3.85119 0
M  V30 8432 H 803.151 4.92016 3.4357 0
M  V30 8433 H 804.221 4.35016 2.14218 0
M  V30 8434 N 805.565 -0.825799 1.34232 0
M  V30 8435 C 806.811 -1.58419 1.26614 0
M  V30 8436 C 807.144 -1.93503 -0.164341 0
M  V30 8437 O 806.419 -1.59785 -1.109 0
M  V30 8438 C 806.702 -2.8856 2.15418 0
M  V30 8439 C 806.555 -2.60075 3.66989 0
M  V30 8440 C 807.874 -3.90107 2.03726 0
M  V30 8441 H 804.993 -0.574794 0.461282 0
M  V30 8442 H 807.635 -0.951519 1.64457 0
M  V30 8443 H 805.785 -3.42553 1.83275 0
M  V30 8444 H 807.457 -2.12414 4.09485 0
M  V30 8445 H 805.7 -1.93565 3.88221 0
M  V30 8446 H 806.371 -3.52866 4.24488 0
M  V30 8447 H 808.847 -3.45459 2.31942 0
M  V30 8448 H 807.723 -4.78976 2.68092 0
M  V30 8449 H 807.984 -4.30329 1.01337 0
M  V30 8450 N 807.043 -1.17915 -1.04565 0
M  V30 8451 C 807.973 -0.925033 -2.14395 0
M  V30 8452 C 808.954 0.135375 -1.6956 0
M  V30 8453 O 810.139 -0.0161774 -1.94193 0
M  V30 8454 C 807.269 -0.444469 -3.44444 0
M  V30 8455 C 806.223 -1.44478 -4.02877 0
M  V30 8456 C 805.549 -0.821933 -5.28345 0
M  V30 8457 C 806.849 -2.81995 -4.39632 0
M  V30 8458 H 808.543 -1.84354 -2.35911 0
M  V30 8459 H 806.089 -0.887806 -1.13375 0
M  V30 8460 H 808.042 -0.254078 -4.20633 0
M  V30 8461 H 806.766 0.509592 -3.226 0
M  V30 8462 H 805.425 -1.62203 -3.28764 0
M  V30 8463 H 805.073 0.139161 -5.02807 0
M  V30 8464 H 804.773 -1.48976 -5.68401 0
M  V30 8465 H 806.297 -0.641959 -6.07216 0
M  V30 8466 H 807.711 -2.67952 -5.06828 0
M  V30 8467 H 806.108 -3.45414 -4.90723 0
M  V30 8468 H 807.178 -3.35927 -3.49687 0
M  V30 8469 N 808.521 1.23394 -0.980386 0
M  V30 8470 C 809.431 2.28561 -0.528864 0
M  V30 8471 C 810.447 1.68946 0.416329 0
M  V30 8472 O 811.623 1.99355 0.286251 0
M  V30 8473 C 808.688 3.46323 0.16155 0
M  V30 8474 C 807.749 4.21297 -0.825044 0
M  V30 8475 C 806.982 5.33437 -0.167483 0
M  V30 8476 O 807.205 5.60812 1.04146 0
M  V30 8477 O 806.139 5.95637 -0.866047 0
M  V30 8478 H 809.965 2.69326 -1.40346 0
M  V30 8479 H 807.55 1.29325 -0.748019 0
M  V30 8480 H 809.432 4.17811 0.548841 0
M  V30 8481 H 808.107 3.0751 1.01092 0
M  V30 8482 H 807.014 3.52134 -1.26303 0
M  V30 8483 H 808.347 4.6396 -1.64322 0
M  V30 8484 N 809.999 0.752036 1.385 0
M  V30 8485 C 811.245 0.307958 2.00448 0
M  V30 8486 C 811.578 -1.10702 1.59558 0
M  V30 8487 O 810.853 -1.75788 0.832391 0
M  V30 8488 C 811.136 0.429092 3.57534 0
M  V30 8489 C 810.989 1.88507 4.08393 0
M  V30 8490 C 812.308 -0.178442 4.39738 0
M  V30 8491 H 809.427 0.113373 0.728228 0
M  V30 8492 H 812.069 0.951389 1.64465 0
M  V30 8493 H 810.219 -0.118695 3.88319 0
M  V30 8494 H 811.891 2.49104 3.88259 0
M  V30 8495 H 810.134 2.40066 3.61318 0
M  V30 8496 H 810.805 1.92099 5.17496 0
M  V30 8497 H 813.281 0.28872 4.15097 0
M  V30 8498 H 812.157 -0.0634349 5.48863 0
M  V30 8499 H 812.418 -1.26655 4.23569 0
M  V30 8500 N 811.477 -1.49425 0.500989 0
M  V30 8501 C 812.888 -1.86624 0.0532011 0
M  V30 8502 C 813.239 -1.41331 -1.36088 0
M  V30 8503 O 812.364 -0.791195 -2.01418 0
M  V30 8504 C 812.959 -3.38681 0.0897693 0
M  V30 8505 C 811.518 -3.75181 -0.302677 0
M  V30 8506 C 810.665 -2.73419 0.462307 0
M  V30 8507 H 813.616 -1.41743 0.713773 0
M  V30 8508 H 813.637 -3.73902 -0.705528 0
M  V30 8509 H 813.149 -3.71616 1.11907 0
M  V30 8510 H 811.25 -3.47855 -1.33521 0
M  V30 8511 H 811.363 -4.79097 0.0167653 0
M  V30 8512 H 809.727 -2.54548 -0.0878557 0
M  V30 8513 H 810.51 -3.09198 1.49169 0
M  V30 8514 N 812.955 -0.234822 -1.55841 0
M  V30 8515 C 814.204 0.393685 -1.97821 0
M  V30 8516 C 814.517 1.59947 -1.1259 0
M  V30 8517 O 815.723 2.29835 -1.44528 0
M  V30 8518 C 814.179 0.751811 -3.5196 0
M  V30 8519 C 813.787 -0.431898 -4.45913 0
M  V30 8520 C 815.531 1.34518 -4.02623 0
M  V30 8521 C 813.438 -0.0505976 -5.91378 0
M  V30 8522 H 812.368 0.150864 -0.738753 0
M  V30 8523 H 815.019 -0.333132 -1.80451 0
M  V30 8524 H 813.401 1.53642 -3.6498 0
M  V30 8525 H 814.575 -1.20935 -4.44647 0
M  V30 8526 H 812.89 -0.939385 -4.05666 0
M  V30 8527 H 815.487 1.64359 -5.08813 0
M  V30 8528 H 815.83 2.26554 -3.49255 0
M  V30 8529 H 816.363 0.623729 -3.9288 0
M  V30 8530 H 813.102 -0.937779 -6.48757 0
M  V30 8531 H 812.622 0.690898 -5.95808 0
M  V30 8532 H 814.301 0.37146 -6.45933 0
M  V30 8533 N 814.433 1.57553 0.0384317 0
M  V30 8534 C 815.849 1.54663 0.39391 0
M  V30 8535 C 816.049 0.959685 1.77179 0
M  V30 8536 O 815.105 0.576647 2.45827 0
M  V30 8537 C 816.418 2.99156 0.304352 0
M  V30 8538 C 817.966 3.10659 0.382119 0
M  V30 8539 C 818.441 4.56866 0.322111 0
M  V30 8540 N 819.932 4.61629 0.38119 0
M  V30 8541 C 820.667 5.72284 0.357501 0
M  V30 8542 N 820.163 6.92207 0.286654 0
M  V30 8543 N 821.956 5.60628 0.406538 0
M  V30 8544 H 814.107 1.9406 -0.86339 0
M  V30 8545 H 816.37 0.889673 -0.327392 0
M  V30 8546 H 816.076 3.45788 -0.642141 0
M  V30 8547 H 815.95 3.60753 1.10168 0
M  V30 8548 H 818.337 2.6398 1.31904 0
M  V30 8549 H 818.418 2.5191 -0.444391 0
M  V30 8550 H 818.062 5.0421 -0.611104 0
M  V30 8551 H 817.992 5.13515 1.1666 0
M  V30 8552 H 820.483 3.75343 0.438838 0
M  V30 8553 H 820.796 7.72316 0.273421 0
M  V30 8554 H 819.141 6.9454 0.252841 0
M  V30 8555 H 822.332 4.65836 0.459812 0
M  V30 8556 H 822.505 6.46858 0.384608 0
M  V30 8557 N 815.911 -0.310526 1.54511 0
M  V30 8558 C 816.861 -1.38405 1.81185 0
M  V30 8559 C 817.845 -1.46355 0.668499 0
M  V30 8560 O 819.037 -1.50668 0.928873 0
M  V30 8561 C 816.166 -2.75059 2.0542 0
M  V30 8562 C 815.252 -2.7137 3.25913 0
M  V30 8563 N 815.643 -2.37298 4.4668 0
M  V30 8564 C 813.941 -3.02484 3.27749 0
M  V30 8565 C 814.642 -2.42669 5.28665 0
M  V30 8566 N 813.618 -2.79639 4.66158 0
M  V30 8567 H 817.42 -1.11012 2.72128 0
M  V30 8568 H 814.934 -0.519068 1.53881 0
M  V30 8569 H 816.931 -3.52451 2.22674 0
M  V30 8570 H 815.591 -3.03372 1.15739 0
M  V30 8571 H 816.602 -2.09917 4.73451 0
M  V30 8572 H 813.279 -3.35754 2.48144 0
M  V30 8573 H 814.669 -2.19206 6.35136 0
M  V30 8574 N 817.389 -1.46805 -0.573248 0
M  V30 8575 C 818.8 -1.46655 -1.15539 0
M  V30 8576 C 819.151 -0.2125 -1.95046 0
M  V30 8577 O 818.276 0.683759 -2.05314 0
M  V30 8578 C 818.871 -2.65711 -2.10198 0
M  V30 8579 C 817.43 -2.68572 -2.63716 0
M  V30 8580 C 816.577 -2.39498 -1.39772 0
M  V30 8581 H 819.528 -1.54547 -0.36068 0
M  V30 8582 H 819.549 -2.41768 -2.93817 0
M  V30 8583 H 819.061 -3.56967 -1.52303 0
M  V30 8584 H 817.162 -1.81414 -3.25453 0
M  V30 8585 H 817.275 -3.68809 -3.05805 0
M  V30 8586 H 815.639 -1.89749 -1.69904 0
M  V30 8587 H 816.422 -3.32942 -0.836943 0
M  V30 8588 N 818.867 0.818669 -1.34668 0
M  V30 8589 C 819.814 1.92983 -1.26595 0
M  V30 8590 C 820.784 1.65506 -0.140315 0
M  V30 8591 O 821.969 1.88063 -0.322005 0
M  V30 8592 C 819.109 3.2932 -1.03163 0
M  V30 8593 C 818.222 3.69061 -2.24539 0
M  V30 8594 C 817.357 4.94368 -1.94355 0
M  V30 8595 C 816.396 5.26702 -3.11851 0
M  V30 8596 N 815.533 6.43187 -2.81522 0
M  V30 8597 H 820.373 1.99219 -2.2162 0
M  V30 8598 H 817.91 0.974612 -1.1018 0
M  V30 8599 H 819.868 4.07897 -0.87613 0
M  V30 8600 H 818.498 3.22584 -0.118045 0
M  V30 8601 H 817.55 2.85842 -2.50995 0
M  V30 8602 H 818.862 3.88924 -3.12313 0
M  V30 8603 H 818.016 5.80742 -1.75566 0
M  V30 8604 H 816.755 4.76515 -1.03848 0
M  V30 8605 H 815.76 4.38823 -3.31231 0
M  V30 8606 H 816.985 5.46492 -4.03142 0
M  V30 8607 H 814.931 6.26783 -1.93596 0
M  V30 8608 H 814.848 6.63243 -3.62829 0
M  V30 8609 H 816.116 7.32621 -2.66247 0
M  V30 8610 N 820.346 1.18468 1.03938 0
M  V30 8611 C 821.593 0.980833 1.77161 0
M  V30 8612 C 821.921 -0.489425 1.88242 0
M  V30 8613 O 821.176 -1.37961 1.388 0
M  V30 8614 C 821.475 1.58229 3.20466 0
M  V30 8615 C 821.141 3.07889 3.29416 0
M  V30 8616 C 819.803 3.48737 3.31566 0
M  V30 8617 C 822.155 4.03903 3.29411 0
M  V30 8618 C 819.483 4.84171 3.31355 0
M  V30 8619 C 821.835 5.39253 3.3074 0
M  V30 8620 C 820.499 5.79547 3.31182 0
M  V30 8621 H 819.769 0.358912 0.648277 0
M  V30 8622 H 822.416 1.47552 1.22069 0
M  V30 8623 H 820.721 1.00964 3.78568 0
M  V30 8624 H 822.418 1.39998 3.75768 0
M  V30 8625 H 819.008 2.75335 3.28464 0
M  V30 8626 H 823.192 3.73395 3.2694 0
M  V30 8627 H 818.448 5.14685 3.30015 0
M  V30 8628 H 822.622 6.13417 3.29686 0
M  V30 8629 H 820.249 6.84466 3.30772 0
M  V30 8630 N 821.824 -1.22873 0.986916 0
M  V30 8631 C 822.734 -2.28277 0.540978 0
M  V30 8632 C 823.75 -1.69164 -0.407363 0
M  V30 8633 O 824.926 -1.99504 -0.275674 0
M  V30 8634 C 821.991 -3.46404 -0.143181 0
M  V30 8635 C 821.052 -4.20854 0.847375 0
M  V30 8636 C 820.285 -5.33341 0.19577 0
M  V30 8637 O 820.508 -5.61356 -1.0117 0
M  V30 8638 O 819.442 -5.95169 0.897623 0
M  V30 8639 H 823.268 -2.68578 1.41773 0
M  V30 8640 H 820.853 -1.28927 0.754867 0
M  V30 8641 H 822.735 -4.18096 -0.526676 0
M  V30 8642 H 821.41 -3.08041 -0.994593 0
M  V30 8643 H 820.317 -3.51459 1.28169 0
M  V30 8644 H 821.65 -4.63082 1.6678 0
M  V30 8645 N 823.302 -0.75937 -1.38099 0
M  V30 8646 C 824.548 -0.327559 -2.00745 0
M  V30 8647 C 824.903 1.08042 -1.592 0
M  V30 8648 O 824.196 1.7306 -0.822236 0
M  V30 8649 C 824.39 -0.394999 -3.55211 0
M  V30 8650 C 824.219 -1.80798 -4.11755 0
M  V30 8651 C 822.989 -2.42585 -4.43262 0
M  V30 8652 C 825.187 -2.76556 -4.33614 0
M  V30 8653 N 823.169 -3.75784 -4.85448 0
M  V30 8654 C 824.54 -3.94532 -4.78273 0
M  V30 8655 C 826.595 -2.74004 -4.15724 0
M  V30 8656 C 825.298 -5.10322 -5.06916 0
M  V30 8657 C 827.324 -3.88957 -4.45496 0
M  V30 8658 C 826.686 -5.05672 -4.90383 0
M  V30 8659 H 822.785 -0.166644 -0.764038 0
M  V30 8660 H 825.369 -0.99056 -1.67619 0
M  V30 8661 H 823.54 0.237761 -3.87672 0
M  V30 8662 H 825.272 0.0576828 -4.04659 0
M  V30 8663 H 822.027 -1.94302 -4.31907 0
M  V30 8664 H 822.451 -4.44234 -5.10867 0
M  V30 8665 H 827.093 -1.84948 -3.80203 0
M  V30 8666 H 824.811 -5.99988 -5.41332 0
M  V30 8667 H 828.397 -3.88308 -4.33253 0
M  V30 8668 H 827.277 -5.93146 -5.1298 0
M  V30 8669 N 824.78 1.49157 -0.508906 0
M  V30 8670 C 826.027 2.02473 0.0327983 0
M  V30 8671 C 826.355 1.38792 1.36261 0
M  V30 8672 O 825.61 0.515576 1.88786 0
M  V30 8673 C 825.909 3.56687 0.225717 0
M  V30 8674 C 825.575 4.39046 -1.02708 0
M  V30 8675 C 824.237 4.61271 -1.37048 0
M  V30 8676 C 826.589 4.86902 -1.85946 0
M  V30 8677 C 823.917 5.28598 -2.54562 0
M  V30 8678 C 826.269 5.55521 -3.0262 0
M  V30 8679 C 824.933 5.7599 -3.3733 0
M  V30 8680 H 824.203 0.740903 0.0120017 0
M  V30 8681 H 826.85 1.79372 -0.670665 0
M  V30 8682 H 825.155 3.78511 1.01177 0
M  V30 8683 H 826.852 3.95541 0.659433 0
M  V30 8684 H 823.442 4.21994 -0.749615 0
M  V30 8685 H 827.626 4.69553 -1.6073 0
M  V30 8686 H 822.882 5.42646 -2.81682 0
M  V30 8687 H 827.056 5.91576 -3.67438 0
M  V30 8688 H 824.683 6.27934 -4.2849 0
M  V30 8689 N 826.258 0.243083 1.55714 0
M  V30 8690 C 827.205 -0.658078 2.21219 0
M  V30 8691 C 828.175 -1.1742 1.17481 0
M  V30 8692 O 829.36 -1.22937 1.45915 0
M  V30 8693 C 826.5 -1.85104 2.91257 0
M  V30 8694 C 825.613 -1.3718 4.09641 0
M  V30 8695 C 824.748 -2.52403 4.67404 0
M  V30 8696 C 823.787 -2.01321 5.78045 0
M  V30 8697 N 822.924 -3.09896 6.30007 0
M  V30 8698 H 827.764 -0.0927854 2.97856 0
M  V30 8699 H 825.301 -0.0340375 1.47061 0
M  V30 8700 H 827.259 -2.55179 3.3006 0
M  V30 8701 H 825.889 -2.38887 2.17101 0
M  V30 8702 H 824.941 -0.565232 3.76177 0
M  V30 8703 H 826.253 -0.957409 4.89525 0
M  V30 8704 H 825.407 -3.30525 5.08761 0
M  V30 8705 H 824.146 -2.97142 3.86728 0
M  V30 8706 H 823.151 -1.21667 5.36169 0
M  V30 8707 H 824.376 -1.57556 6.6057 0
M  V30 8708 H 822.322 -3.54077 5.52237 0
M  V30 8709 H 822.239 -2.72776 7.05074 0
M  V30 8710 H 823.507 -3.8809 6.76023 0
M  V30 8711 N 827.736 -1.57571 -0.0300757 0
M  V30 8712 C 829.013 -1.80381 -0.756447 0
M  V30 8713 C 829.393 -0.840906 -1.93628 0
M  V30 8714 O 828.741 0.117143 -2.282 0
M  V30 8715 C 828.951 -3.2807 -1.19043 0
M  V30 8716 C 830.299 -3.93025 -1.60676 0
M  V30 8717 O 831.323 -3.32213 -1.28503 0
M  V30 8718 O 830.182 -5.00092 -2.20386 0
M  V30 8719 H 827.276 -0.741737 -0.365725 0
M  V30 8720 H 829.822 -1.69699 -0.00693177 0
M  V30 8721 H 828.594 -3.89748 -0.348128 0
M  V30 8722 H 828.217 -3.43637 -1.99999 0
M  V30 8723 N 829.214 0.302327 -1.54673 0
M  V30 8724 C 830.144 1.37759 -1.88533 0
M  V30 8725 C 831.125 1.52961 -0.744113 0
M  V30 8726 O 832.31 1.6649 -0.999731 0
M  V30 8727 C 829.44 2.74201 -2.13146 0
M  V30 8728 C 828.394 2.73765 -3.28993 0
M  V30 8729 C 827.72 4.13483 -3.39022 0
M  V30 8730 C 829.02 2.35624 -4.66132 0
M  V30 8731 H 830.714 1.0967 -2.78591 0
M  V30 8732 H 828.26 0.52613 -1.34044 0
M  V30 8733 H 830.213 3.49508 -2.35419 0
M  V30 8734 H 828.937 3.03812 -1.19858 0
M  V30 8735 H 827.596 2.00914 -3.06642 0
M  V30 8736 H 827.244 4.40269 -2.43253 0
M  V30 8737 H 826.944 4.14093 -4.16894 0
M  V30 8738 H 828.468 4.90572 -3.63553 0
M  V30 8739 H 829.882 3.00647 -4.88143 0
M  V30 8740 H 828.279 2.47449 -5.46707 0
M  V30 8741 H 829.349 1.30753 -4.66939 0
M  V30 8742 N 830.692 1.47107 0.565454 0
M  V30 8743 C 831.94 1.53005 1.32038 0
M  V30 8744 C 832.261 0.190453 1.94068 0
M  V30 8745 O 831.531 -0.784783 1.79494 0
M  V30 8746 H 830.111 0.563578 0.490294 0
M  V30 8747 H 832.773 1.83351 0.660928 0
M  V30 8748 H 831.869 2.29215 2.11818 0
M  V30 8749 N 832.17 -0.811516 1.35101 0
M  V30 8750 C 833.1 -1.9378 1.30275 0
M  V30 8751 C 834.081 -1.69165 0.178075 0
M  V30 8752 O 835.266 -1.90599 0.372256 0
M  V30 8753 C 832.396 -3.30439 1.06899 0
M  V30 8754 C 831.35 -3.69523 2.15955 0
M  V30 8755 C 830.676 -5.0429 1.77751 0
M  V30 8756 C 831.976 -3.80419 3.57881 0
M  V30 8757 H 833.67 -1.98075 2.24514 0
M  V30 8758 H 831.216 -0.951586 1.08078 0
M  V30 8759 H 833.169 -4.08828 1.02164 0
M  V30 8760 H 831.893 -3.26473 0.0910462 0
M  V30 8761 H 830.552 -2.93416 2.19778 0
M  V30 8762 H 830.2 -4.96823 0.785876 0
M  V30 8763 H 829.9 -5.31411 2.5075 0
M  V30 8764 H 831.424 -5.85125 1.74533 0
M  V30 8765 H 832.838 -4.49051 3.56407 0
M  V30 8766 H 831.235 -4.19005 4.29598 0
M  V30 8767 H 832.305 -2.82105 3.94391 0
M  V30 8768 N 833.648 -1.19017 -1.03309 0
M  V30 8769 C 834.595 -0.924088 -2.11493 0
M  V30 8770 C 835.565 0.139464 -1.65513 0
M  V30 8771 O 836.75 -0.00178761 -1.908 0
M  V30 8772 C 833.89 -0.464255 -3.41963 0
M  V30 8773 C 833.003 -1.5941 -4.01513 0
M  V30 8774 C 832.138 -1.08622 -5.19976 0
M  V30 8775 C 831.177 -2.19024 -5.71572 0
M  V30 8776 N 830.314 -1.69575 -6.81314 0
M  V30 8777 H 835.154 -1.85039 -2.33591 0
M  V30 8778 H 832.691 -0.922593 -1.14572 0
M  V30 8779 H 834.649 -0.179078 -4.16815 0
M  V30 8780 H 833.279 0.425062 -3.19989 0
M  V30 8781 H 832.331 -1.99458 -3.23915 0
M  V30 8782 H 833.643 -2.42604 -4.35826 0
M  V30 8783 H 832.797 -0.756022 -6.01971 0
M  V30 8784 H 831.536 -0.223955 -4.87186 0
M  V30 8785 H 830.541 -2.5288 -4.88193 0
M  V30 8786 H 831.766 -3.05699 -6.06403 0
M  V30 8787 H 829.712 -0.856494 -6.50385 0
M  V30 8788 H 829.629 -2.46361 -7.14732 0
M  V30 8789 H 830.897 -1.39505 -7.66915 0
M  V30 8790 N 835.127 1.22348 -0.993418 0
M  V30 8791 C 836.373 1.91689 -0.680217 0
M  V30 8792 C 836.728 1.75912 0.779269 0
M  V30 8793 O 836.021 1.11761 1.55628 0
M  V30 8794 C 836.215 3.42477 -1.02197 0
M  V30 8795 C 836.044 3.72923 -2.51313 0
M  V30 8796 C 834.814 3.9291 -3.17726 0
M  V30 8797 C 837.012 3.7736 -3.49434 0
M  V30 8798 N 834.994 4.10672 -4.56313 0
M  V30 8799 C 836.365 4.00269 -4.73481 0
M  V30 8800 C 838.42 3.60211 -3.43733 0
M  V30 8801 C 837.123 4.0781 -5.92523 0
M  V30 8802 C 839.149 3.69011 -4.62152 0
M  V30 8803 C 838.511 3.92371 -5.85 0
M  V30 8804 H 834.61 0.722086 -0.300193 0
M  V30 8805 H 837.194 1.47273 -1.27353 0
M  V30 8806 H 835.365 3.85699 -0.457223 0
M  V30 8807 H 837.097 3.99204 -0.664702 0
M  V30 8808 H 833.852 3.90345 -2.68193 0
M  V30 8809 H 834.276 4.2348 -5.28199 0
M  V30 8810 H 838.918 3.41137 -2.49771 0
M  V30 8811 H 836.636 4.25688 -6.86888 0
M  V30 8812 H 840.222 3.5708 -4.59331 0
M  V30 8813 H 839.102 3.9901 -6.75101 0
M  V30 8814 N 836.605 0.766683 1.37694 0
M  V30 8815 C 837.835 0.339446 2.03792 0
M  V30 8816 C 838.243 -1.04153 1.57952 0
M  V30 8817 O 837.586 -1.67521 0.753826 0
M  V30 8818 C 837.648 0.29822 3.58261 0
M  V30 8819 C 837.312 1.62293 4.27212 0
M  V30 8820 C 838.309 2.57447 4.51682 0
M  V30 8821 C 835.994 1.89597 4.65143 0
M  V30 8822 C 837.988 3.78117 5.13134 0
M  V30 8823 C 835.675 3.10538 5.26317 0
M  V30 8824 C 836.673 4.04617 5.50249 0
M  V30 8825 O 836.361 5.23429 6.10145 0
M  V30 8826 H 836.093 0.140952 0.661142 0
M  V30 8827 H 838.647 1.04022 1.77111 0
M  V30 8828 H 836.877 -0.458897 3.83967 0
M  V30 8829 H 838.566 -0.101263 4.05774 0
M  V30 8830 H 839.332 2.37633 4.22795 0
M  V30 8831 H 835.211 1.17199 4.45854 0
M  V30 8832 H 838.755 4.51563 5.3173 0
M  V30 8833 H 834.652 3.3024 5.54628 0
M  V30 8834 H 835.42 5.24187 6.28626 0
M  V30 8835 N 838.083 -1.48885 0.516809 0
M  V30 8836 C 839.331 -2.02088 -0.0220166 0
M  V30 8837 C 839.652 -1.39735 -1.36011 0
M  V30 8838 O 838.922 -0.558119 -1.87781 0
M  V30 8839 H 837.502 -0.746917 -0.0111255 0
M  V30 8840 H 840.164 -1.8274 0.677647 0
M  V30 8841 H 839.26 -3.11786 -0.140067 0
M  V30 8842 N 839.561 -0.251338 -1.55583 0
M  V30 8843 C 840.491 0.640437 -2.24545 0
M  V30 8844 C 841.472 1.17781 -1.22726 0
M  V30 8845 O 842.657 1.21633 -1.5139 0
M  V30 8846 C 839.787 1.8355 -2.94834 0
M  V30 8847 C 838.741 1.4307 -4.03379 0
M  V30 8848 C 838.067 2.70695 -4.61116 0
M  V30 8849 C 839.367 0.59848 -5.1886 0
M  V30 8850 H 841.061 0.0653772 -2.99329 0
M  V30 8851 H 838.607 0.0300042 -1.43969 0
M  V30 8852 H 840.56 2.46505 -3.4178 0
M  V30 8853 H 839.284 2.43601 -2.17546 0
M  V30 8854 H 837.943 0.824474 -3.57209 0
M  V30 8855 H 837.591 3.28954 -3.80524 0
M  V30 8856 H 837.291 2.44332 -5.34393 0
M  V30 8857 H 838.815 3.34541 -5.10798 0
M  V30 8858 H 840.229 1.13244 -5.62004 0
M  V30 8859 H 838.626 0.430728 -5.98552 0
M  V30 8860 H 839.696 -0.38829 -4.83343 0
M  V30 8861 N 841.039 1.57585 0.0217189 0
M  V30 8862 C 842.45 1.7787 0.567377 0
M  V30 8863 C 842.801 0.883337 1.7519 0
M  V30 8864 O 841.926 0.0800819 2.16252 0
M  V30 8865 C 842.521 3.2257 1.03606 0
M  V30 8866 C 841.08 3.44026 1.52718 0
M  V30 8867 C 840.227 2.73313 0.468545 0
M  V30 8868 H 843.178 1.57377 -0.2045 0
M  V30 8869 H 843.199 3.29488 1.9031 0
M  V30 8870 H 842.711 3.87711 0.173739 0
M  V30 8871 H 840.812 2.8407 2.41111 0
M  V30 8872 H 840.925 4.52659 1.56962 0
M  V30 8873 H 839.289 2.37299 0.925263 0
M  V30 8874 H 840.072 3.41141 -0.384438 0
M  V30 8875 N 842.517 -0.29412 1.54831 0
M  V30 8876 C 843.48 -1.3461 1.85507 0
M  V30 8877 C 844.48 -1.43359 0.728343 0
M  V30 8878 O 845.67 -1.42875 0.996609 0
M  V30 8879 C 842.802 -2.73012 2.0415 0
M  V30 8880 H 843.995 -1.08651 2.79526 0
M  V30 8881 H 841.548 -0.531138 1.46999 0
M  V30 8882 H 842.283 -3.04183 1.12441 0
M  V30 8883 H 842.068 -2.68051 2.86166 0
M  V30 8884 H 843.558 -3.49061 2.29229 0
M  V30 8885 N 843.995 -1.47404 -0.557645 0
M  V30 8886 C 845.241 -1.54235 -1.31679 0
M  V30 8887 C 845.574 -0.203782 -1.93128 0
M  V30 8888 O 844.849 0.787536 -1.77843 0
M  V30 8889 C 845.132 -2.66003 -2.42723 0
M  V30 8890 C 844.985 -4.09475 -1.86145 0
M  V30 8891 C 846.304 -2.73685 -3.44652 0
M  V30 8892 H 843.423 -0.561466 -0.477415 0
M  V30 8893 H 846.065 -1.79459 -0.624067 0
M  V30 8894 H 844.215 -2.44627 -3.01811 0
M  V30 8895 H 845.887 -4.42213 -1.31321 0
M  V30 8896 H 844.13 -4.17774 -1.16823 0
M  V30 8897 H 844.801 -4.83451 -2.66418 0
M  V30 8898 H 847.277 -2.92968 -2.95481 0
M  V30 8899 H 846.153 -3.53665 -4.19777 0
M  V30 8900 H 846.414 -1.80726 -4.03473 0
M  V30 8901 N 845.473 0.80434 -1.35529 0
M  V30 8902 C 846.698 1.598 -1.32207 0
M  V30 8903 C 847.123 1.87848 0.0974226 0
M  V30 8904 O 846.481 1.46728 1.06492 0
M  V30 8905 C 846.529 2.90483 -2.13663 0
M  V30 8906 O 845.633 3.83411 -1.51888 0
M  V30 8907 H 844.974 0.485305 -0.453183 0
M  V30 8908 H 847.504 0.998119 -1.78602 0
M  V30 8909 H 847.514 3.39888 -2.257 0
M  V30 8910 H 846.189 2.69395 -3.16859 0
M  V30 8911 H 844.766 3.41967 -1.48704 0
M  V30 8912 N 846.951 1.19563 1.02676 0
M  V30 8913 C 847.899 0.931942 2.13114 0
M  V30 8914 C 848.893 -0.113007 1.69023 0
M  V30 8915 O 850.099 0.0364298 1.79963 0
M  V30 8916 H 846.474 0.283981 0.696318 0
M  V30 8917 H 848.445 1.86991 2.32545 0
M  V30 8918 C 847.194 0.489461 3.44238 0
M  V30 8919 H 846.517 1.28508 3.78584 0
M  V30 8920 H 847.957 0.34408 4.22602 0
M  V30 8921 C 846.416 -0.796761 3.27343 0
M  V30 8922 O 846.946 -1.85767 3.56165 0
M  V30 8923 N 845.152 -0.754824 2.80626 0
M  V30 8924 H 844.699 0.108778 2.5737 0
M  V30 8925 H 844.657 -1.6158 2.69702 0
M  V30 8926 N 848.429 -1.21819 0.999893 0
M  V30 8927 C 849.362 -2.22635 0.500887 0
M  V30 8928 C 850.34 -1.56459 -0.442636 0
M  V30 8929 O 851.524 -1.84902 -0.366551 0
M  V30 8930 C 848.651 -3.37598 -0.273046 0
M  V30 8931 C 847.697 -4.22006 0.617511 0
M  V30 8932 S 848.53 -4.93583 2.07693 0
M  V30 8933 C 849.686 -6.1198 1.31269 0
M  V30 8934 H 849.919 -2.64618 1.35516 0
M  V30 8935 H 847.452 -1.31606 0.807419 0
M  V30 8936 H 849.41 -4.04251 -0.713515 0
M  V30 8937 H 848.071 -2.94108 -1.10268 0
M  V30 8938 H 847.264 -5.03995 0.0216543 0
M  V30 8939 H 846.866 -3.6052 0.99504 0
M  V30 8940 H 849.158 -6.74979 0.583933 0
M  V30 8941 H 850.101 -6.75991 2.10811 0
M  V30 8942 H 850.509 -5.5847 0.822901 0
M  V30 8943 N 849.908 -0.773975 -1.37286 0
M  V30 8944 C 850.838 -0.175782 -2.32837 0
M  V30 8945 C 851.819 0.680603 -1.5589 0
M  V30 8946 O 853.004 0.617607 -1.84117 0
M  V30 8947 C 850.134 0.702388 -3.40123 0
M  V30 8948 C 849.088 -0.0528687 -4.27967 0
M  V30 8949 C 848.414 0.944891 -5.26285 0
M  V30 8950 C 849.714 -1.23316 -5.07534 0
M  V30 8951 H 851.408 -0.974016 -2.83114 0
M  V30 8952 H 848.954 -0.469826 -1.3612 0
M  V30 8953 H 850.907 1.13069 -4.05947 0
M  V30 8954 H 849.631 1.53316 -2.88378 0
M  V30 8955 H 848.29 -0.461978 -3.63678 0
M  V30 8956 H 847.938 1.77028 -4.70819 0
M  V30 8957 H 847.638 0.444079 -5.8592 0
M  V30 8958 H 849.162 1.37209 -5.94984 0
M  V30 8959 H 850.576 -0.881395 -5.66484 0
M  V30 8960 H 848.973 -1.66621 -5.76504 0
M  V30 8961 H 850.043 -2.03617 -4.40077 0
M  V30 8962 N 851.386 1.48609 -0.524698 0
M  V30 8963 C 852.316 2.32366 0.229837 0
M  V30 8964 C 853.297 1.41759 0.940129 0
M  V30 8965 O 854.482 1.7065 0.926936 0
M  V30 8966 C 851.612 3.22835 1.28043 0
M  V30 8967 C 850.566 4.22424 0.688603 0
M  V30 8968 C 849.892 5.0199 1.84146 0
M  V30 8969 C 851.192 5.21217 -0.336176 0
M  V30 8970 H 852.886 2.95698 -0.469339 0
M  V30 8971 H 850.432 1.42197 -0.227156 0
M  V30 8972 H 852.385 3.80253 1.8162 0
M  V30 8973 H 851.109 2.57492 2.00912 0
M  V30 8974 H 849.768 3.66185 0.174402 0
M  V30 8975 H 849.416 4.33076 2.5584 0
M  V30 8976 H 849.116 5.69392 1.45142 0
M  V30 8977 H 850.64 5.62259 2.38111 0
M  V30 8978 H 852.054 5.7319 0.112307 0
M  V30 8979 H 850.451 5.96642 -0.643324 0
M  V30 8980 H 851.521 4.68676 -1.24381 0
M  V30 8981 N 852.864 0.259585 1.55447 0
M  V30 8982 C 853.774 -0.645026 2.25558 0
M  V30 8983 C 854.79 -1.18291 1.27606 0
M  V30 8984 O 855.966 -1.21649 1.6051 0
M  V30 8985 C 853.031 -1.81964 2.9511 0
M  V30 8986 C 852.092 -1.31997 4.08504 0
M  V30 8987 C 851.325 -2.43861 4.74729 0
M  V30 8988 O 851.548 -3.62876 4.40088 0
M  V30 8989 O 850.482 -2.12898 5.6299 0
M  V30 8990 H 854.308 -0.0775399 3.03601 0
M  V30 8991 H 851.893 0.0275859 1.49375 0
M  V30 8992 H 853.775 -2.50485 3.38873 0
M  V30 8993 H 852.45 -2.37451 2.19997 0
M  V30 8994 H 851.357 -0.601676 3.6923 0
M  V30 8995 H 852.69 -0.811045 4.85472 0
M  V30 8996 N 854.342 -1.57594 -0.0133615 0
M  V30 8997 C 855.591 -1.8916 -0.700103 0
M  V30 8998 C 855.904 -0.860147 -1.75673 0
M  V30 8999 O 857.11 -1.06556 -2.49716 0
M  V30 9000 C 855.566 -3.35742 -1.29635 0
M  V30 9001 C 855.174 -4.47154 -0.275249 0
M  V30 9002 C 856.918 -3.76436 -1.96205 0
M  V30 9003 C 854.825 -5.84805 -0.880726 0
M  V30 9004 H 853.755 -0.705805 -0.265247 0
M  V30 9005 H 856.406 -1.83445 0.044993 0
M  V30 9006 H 854.788 -3.36252 -2.09167 0
M  V30 9007 H 855.962 -4.58139 0.494506 0
M  V30 9008 H 854.277 -4.15394 0.289256 0
M  V30 9009 H 856.874 -4.76606 -2.42386 0
M  V30 9010 H 857.217 -3.09249 -2.78695 0
M  V30 9011 H 857.75 -3.78168 -1.23426 0
M  V30 9012 H 854.489 -6.55431 -0.0949013 0
M  V30 9013 H 854.009 -5.7751 -1.61995 0
M  V30 9014 H 855.688 -6.32038 -1.38338 0
M  V30 9015 N 855.82 0.285905 -1.54985 0
M  V30 9016 C 857.068 1.01718 -1.74636 0
M  V30 9017 C 857.389 1.87277 -0.543342 0
M  V30 9018 O 856.659 1.90847 0.442078 0
M  V30 9019 H 855.239 0.378549 -0.643979 0
M  V30 9020 H 857.901 0.313247 -1.92366 0
M  V30 9021 H 856.997 1.66159 -2.64192 0
M  V30 9022 N 857.298 1.47698 0.54982 0
M  V30 9023 C 858.546 1.54397 1.30407 0
M  V30 9024 C 858.867 0.211026 1.93855 0
M  V30 9025 O 858.137 -0.765701 1.80316 0
M  V30 9026 H 856.717 0.568747 0.484289 0
M  V30 9027 H 859.379 1.84042 0.641444 0
M  V30 9028 H 858.475 2.31449 2.09375 0
M  V30 9029 N 858.776 -0.797141 1.35954 0
M  V30 9030 C 859.706 -1.92387 1.32323 0
M  V30 9031 C 860.687 -1.68967 0.196007 0
M  V30 9032 O 861.872 -1.90193 0.39245 0
M  V30 9033 C 859.002 -3.29286 1.10398 0
M  V30 9034 C 857.956 -3.67212 2.19862 0
M  V30 9035 C 857.282 -5.02377 1.8309 0
M  V30 9036 C 858.582 -3.76602 3.61896 0
M  V30 9037 H 860.276 -1.95683 2.26602 0
M  V30 9038 H 857.822 -0.94007 1.09081 0
M  V30 9039 H 859.775 -4.07721 1.06495 0
M  V30 9040 H 858.499 -3.26358 0.125668 0
M  V30 9041 H 857.158 -2.91069 2.22878 0
M  V30 9042 H 856.806 -4.95961 0.838527 0
M  V30 9043 H 856.506 -5.28722 2.56372 0
M  V30 9044 H 858.03 -5.8324 1.80729 0
M  V30 9045 H 859.444 -4.45246 3.6115 0
M  V30 9046 H 857.841 -4.14425 4.34018 0
M  V30 9047 H 858.911 -2.77906 3.97361 0
M  V30 9048 N 860.254 -1.20106 -1.0204 0
M  V30 9049 C 861.164 -0.962051 -2.13967 0
M  V30 9050 C 862.18 0.0808053 -1.73812 0
M  V30 9051 O 863.356 -0.105774 -2.01122 0
M  V30 9052 C 860.421 -0.513108 -3.42882 0
M  V30 9053 C 859.482 -1.62636 -3.97301 0
M  V30 9054 C 858.715 -1.19875 -5.20063 0
M  V30 9055 O 858.938 -0.0658423 -5.70362 0
M  V30 9056 O 857.872 -2.00467 -5.67536 0
M  V30 9057 H 861.698 -1.8991 -2.36998 0
M  V30 9058 H 859.283 -0.984608 -1.12365 0
M  V30 9059 H 861.165 -0.271797 -4.20523 0
M  V30 9060 H 859.84 0.395402 -3.21276 0
M  V30 9061 H 858.747 -1.92192 -3.20957 0
M  V30 9062 H 860.08 -2.51174 -4.23288 0
M  V30 9063 N 861.732 1.21287 -1.00634 0
M  V30 9064 C 862.979 1.90389 -0.6898 0
M  V30 9065 C 863.307 1.78193 0.779574 0
M  V30 9066 O 862.562 1.15358 1.58085 0
M  V30 9067 C 862.861 3.41374 -1.05824 0
M  V30 9068 C 862.527 3.73766 -2.5221 0
M  V30 9069 C 861.189 3.82317 -2.92211 0
M  V30 9070 C 863.541 3.88871 -3.47028 0
M  V30 9071 C 860.869 4.03423 -4.2599 0
M  V30 9072 C 863.221 4.11484 -4.80483 0
M  V30 9073 C 861.885 4.18263 -5.20204 0
M  V30 9074 H 861.155 0.696683 -0.252416 0
M  V30 9075 H 863.802 1.43769 -1.26502 0
M  V30 9076 H 862.107 3.8974 -0.401281 0
M  V30 9077 H 863.804 3.93118 -0.79116 0
M  V30 9078 H 860.394 3.67702 -2.20212 0
M  V30 9079 H 864.578 3.8163 -3.17289 0
M  V30 9080 H 859.834 4.06902 -4.56334 0
M  V30 9081 H 864.008 4.22115 -5.53888 0
M  V30 9082 H 861.635 4.34369 -6.23881 0
M  V30 9083 N 863.21 0.781244 1.36873 0
M  V30 9084 C 864.435 0.360398 2.04245 0
M  V30 9085 C 864.86 -1.01242 1.58529 0
M  V30 9086 O 864.218 -1.65063 0.749936 0
M  V30 9087 C 864.266 0.42329 3.58107 0
M  V30 9088 O 863.37 -0.572796 4.08403 0
M  V30 9089 H 862.711 0.154386 0.645803 0
M  V30 9090 H 865.241 1.06008 1.74996 0
M  V30 9091 H 865.251 0.283967 4.07011 0
M  V30 9092 H 863.926 1.42477 3.90734 0
M  V30 9093 H 862.503 -0.395809 3.70793 0
M  V30 9094 N 864.689 -1.48329 0.532571 0
M  V30 9095 C 865.652 -2.2816 -0.218069 0
M  V30 9096 C 866.652 -1.35526 -0.865409 0
M  V30 9097 O 867.842 -1.58394 -0.725061 0
M  V30 9098 C 864.974 -3.1448 -1.31586 0
M  V30 9099 H 866.167 -2.95987 0.482865 0
M  V30 9100 H 863.72 -1.53612 0.288603 0
M  V30 9101 H 864.455 -2.5129 -2.04997 0
M  V30 9102 H 864.24 -3.82625 -0.856779 0
M  V30 9103 H 865.73 -3.74693 -1.84377 0
M  V30 9104 N 866.167 -0.267825 -1.55308 0
M  V30 9105 C 867.407 0.352316 -2.01341 0
M  V30 9106 C 867.771 1.53593 -1.1521 0
M  V30 9107 O 868.972 2.22521 -1.50791 0
M  V30 9108 C 867.243 0.731857 -3.49827 0
M  V30 9109 S 868.802 1.33956 -4.17853 0
M  V30 9110 H 865.62 0.109927 -0.702451 0
M  V30 9111 H 868.222 -0.387955 -1.91612 0
M  V30 9112 H 866.926 -0.138561 -4.10166 0
M  V30 9113 H 866.457 1.50378 -3.63525 0
M  V30 9114 H 868.472 2.62831 -4.20874 0
M  V30 9115 N 867.645 1.57599 0.00500368 0
M  V30 9116 C 869.056 1.78462 0.54848 0
M  V30 9117 C 869.407 0.901869 1.74243 0
M  V30 9118 O 868.532 0.103014 2.16155 0
M  V30 9119 C 869.127 3.2365 1.00179 0
M  V30 9120 C 867.686 3.45627 1.49061 0
M  V30 9121 C 866.833 2.73794 0.439531 0
M  V30 9122 H 869.784 1.57151 -0.22118 0
M  V30 9123 H 869.805 3.31488 1.86805 0
M  V30 9124 H 869.317 3.87873 0.132607 0
M  V30 9125 H 867.418 2.86612 2.38085 0
M  V30 9126 H 867.531 4.54298 1.52152 0
M  V30 9127 H 865.895 2.38267 0.900043 0
M  V30 9128 H 866.678 3.40714 -0.420599 0
M  V30 9129 N 869.123 -0.277682 1.55134 0
M  V30 9130 C 870.37 -1.0099 1.7552 0
M  V30 9131 C 870.698 -1.86452 0.553712 0
M  V30 9132 O 869.953 -1.90122 -0.463896 0
M  V30 9133 C 870.252 -1.92599 3.01065 0
M  V30 9134 C 869.918 -1.22926 4.3382 0
M  V30 9135 C 868.58 -1.03659 4.69902 0
M  V30 9136 C 870.932 -0.733071 5.16019 0
M  V30 9137 C 868.26 -0.334933 5.85743 0
M  V30 9138 C 870.612 -0.0450319 6.32584 0
M  V30 9139 C 869.276 0.159393 6.6731 0
M  V30 9140 H 868.546 -0.36955 0.642273 0
M  V30 9141 H 871.193 -0.282611 1.89403 0
M  V30 9142 H 869.498 -2.71934 2.82062 0
M  V30 9143 H 871.195 -2.49367 3.14034 0
M  V30 9144 H 867.785 -1.38933 4.05457 0
M  V30 9145 H 871.969 -0.869565 4.88623 0
M  V30 9146 H 867.225 -0.165783 6.11175 0
M  V30 9147 H 871.399 0.34723 6.95534 0
M  V30 9148 H 869.026 0.70507 7.56923 0
M  V30 9149 N 870.601 -1.47988 -0.541979 0
M  V30 9150 C 871.826 -1.59286 -1.32826 0
M  V30 9151 C 872.251 -0.24894 -1.86445 0
M  V30 9152 O 871.609 0.777581 -1.63778 0
M  V30 9153 C 871.657 -2.6334 -2.46343 0
M  V30 9154 O 870.761 -2.19667 -3.49028 0
M  V30 9155 H 870.102 -0.534543 -0.393903 0
M  V30 9156 H 872.632 -1.93885 -0.653427 0
M  V30 9157 H 872.642 -2.84238 -2.92699 0
M  V30 9158 H 871.317 -3.60913 -2.06675 0
M  V30 9159 H 869.894 -2.08932 -3.08872 0
M  V30 9160 N 872.079 0.78992 -1.36375 0
M  V30 9161 C 873.327 1.54472 -1.30319 0
M  V30 9162 C 873.648 1.94647 0.117338 0
M  V30 9163 O 872.918 1.64906 1.05748 0
M  V30 9164 H 871.498 0.572879 -0.479394 0
M  V30 9165 H 874.16 0.941245 -1.70665 0
M  V30 9166 H 873.256 2.45252 -1.93024 0
M  V30 9167 N 873.557 1.20646 1.01402 0
M  V30 9168 C 874.803 1.02974 1.75408 0
M  V30 9169 C 875.158 -0.433294 1.87458 0
M  V30 9170 O 874.451 -1.31741 1.39122 0
M  V30 9171 C 874.645 1.64991 3.17037 0
M  V30 9172 C 874.474 3.17174 3.18796 0
M  V30 9173 C 873.244 3.86165 3.2589 0
M  V30 9174 C 875.442 4.14369 3.04636 0
M  V30 9175 N 873.424 5.25614 3.1718 0
M  V30 9176 C 874.795 5.4051 3.03724 0
M  V30 9177 C 876.85 4.05534 2.88872 0
M  V30 9178 C 875.553 6.58836 2.88664 0
M  V30 9179 C 877.579 5.23486 2.75166 0
M  V30 9180 C 876.941 6.48535 2.74922 0
M  V30 9181 H 873.04 0.431068 0.65246 0
M  V30 9182 H 875.624 1.52858 1.20593 0
M  V30 9183 H 873.795 1.17688 3.70141 0
M  V30 9184 H 875.527 1.40612 3.79487 0
M  V30 9185 H 872.282 3.37038 3.32719 0
M  V30 9186 H 872.706 5.98625 3.16192 0
M  V30 9187 H 877.348 3.09661 2.87872 0
M  V30 9188 H 875.066 7.5488 2.88413 0
M  V30 9189 H 878.652 5.18464 2.63982 0
M  V30 9190 H 877.532 7.3827 2.64439 0
M  V30 9191 N 875.035 -1.20752 1.01276 0
M  V30 9192 C 876.265 -1.93725 0.717934 0
M  V30 9193 C 876.673 -1.74769 -0.724732 0
M  V30 9194 O 876.016 -1.05642 -1.50285 0
M  V30 9195 C 876.078 -3.46196 0.968954 0
M  V30 9196 C 875.742 -3.88909 2.39998 0
M  V30 9197 C 876.739 -3.94982 3.38061 0
M  V30 9198 C 874.424 -4.21006 2.7397 0
M  V30 9199 C 876.418 -4.32558 4.68159 0
M  V30 9200 C 874.105 -4.58257 4.04282 0
M  V30 9201 C 875.103 -4.64004 5.01187 0
M  V30 9202 O 874.791 -5.00403 6.29168 0
M  V30 9203 H 874.523 -0.622663 0.263186 0
M  V30 9204 H 877.077 -1.54299 1.35577 0
M  V30 9205 H 875.307 -3.85728 0.273952 0
M  V30 9206 H 876.996 -4.00394 0.666312 0
M  V30 9207 H 877.762 -3.70353 3.13151 0
M  V30 9208 H 873.641 -4.15725 1.99233 0
M  V30 9209 H 877.185 -4.36959 5.43795 0
M  V30 9210 H 873.082 -4.82341 4.28973 0
M  V30 9211 H 873.85 -5.18409 6.33399 0
M  V30 9212 N 876.513 -0.788492 -1.36457 0
M  V30 9213 C 877.446 -0.132189 -2.27817 0
M  V30 9214 C 878.424 0.691166 -1.47179 0
M  V30 9215 O 879.608 0.662344 -1.7648 0
M  V30 9216 C 876.735 0.818386 -3.28664 0
M  V30 9217 C 875.781 0.0769392 -4.26431 0
M  V30 9218 S 876.614 -1.24666 -5.20786 0
M  V30 9219 C 877.77 -0.300063 -6.2518 0
M  V30 9220 H 878.003 -0.906824 -2.83132 0
M  V30 9221 H 875.536 -0.582666 -1.42984 0
M  V30 9222 H 877.494 1.36138 -3.87268 0
M  V30 9223 H 876.155 1.56626 -2.72263 0
M  V30 9224 H 875.348 0.79819 -4.97639 0
M  V30 9225 H 874.95 -0.395547 -3.71902 0
M  V30 9226 H 877.242 0.521434 -6.7549 0
M  V30 9227 H 878.185 -0.980808 -7.01274 0
M  V30 9228 H 878.593 0.0961898 -5.64418 0
M  V30 9229 N 877.991 1.48044 -0.54043 0
M  V30 9230 C 879.239 2.02097 -0.0101367 0
M  V30 9231 C 879.56 1.41881 1.33771 0
M  V30 9232 O 878.83 0.587923 1.8687 0
M  V30 9233 H 877.41 0.747 -0.000758716 0
M  V30 9234 H 880.072 1.81639 -0.706634 0
M  V30 9235 H 879.168 3.11969 0.0904474 0
M  V30 9236 N 879.47 0.276058 1.55163 0
M  V30 9237 C 880.698 -0.343772 2.04024 0
M  V30 9238 C 881.113 -1.49397 1.15438 0
M  V30 9239 O 880.47 -1.81662 0.174692 0
M  V30 9240 C 880.521 -0.823885 3.51986 0
M  V30 9241 O 880.242 0.280507 4.37201 0
M  V30 9242 C 881.743 -1.51143 4.16738 0
M  V30 9243 H 878.963 -0.07828 0.666418 0
M  V30 9244 H 881.507 0.408427 2.0038 0
M  V30 9245 H 879.662 -1.52617 3.56071 0
M  V30 9246 H 880.076 -0.0887831 5.24425 0
M  V30 9247 H 881.55 -1.79878 5.2187 0
M  V30 9248 H 882.027 -2.44327 3.64967 0
M  V30 9249 H 882.633 -0.852975 4.16659 0
M  V30 9250 N 880.948 -1.576 0.00335426 0
M  V30 9251 C 881.858 -2.12067 -1.00322 0
M  V30 9252 C 882.874 -1.06672 -1.37467 0
M  V30 9253 O 884.05 -1.38592 -1.46131 0
M  V30 9254 C 881.115 -2.61593 -2.27531 0
M  V30 9255 C 880.176 -3.81602 -1.96668 0
M  V30 9256 C 879.409 -4.28756 -3.17811 0
M  V30 9257 O 879.632 -3.75222 -4.2961 0
M  V30 9258 O 878.566 -5.20877 -3.01613 0
M  V30 9259 H 882.392 -2.98299 -0.570199 0
M  V30 9260 H 879.977 -1.47835 -0.215682 0
M  V30 9261 H 881.859 -2.93631 -3.02256 0
M  V30 9262 H 880.534 -1.78457 -2.70065 0
M  V30 9263 H 879.441 -3.54531 -1.19408 0
M  V30 9264 H 880.774 -4.65822 -1.58968 0
M  V30 9265 N 882.426 0.269451 -1.5528 0
M  V30 9266 C 883.675 0.998381 -1.75258 0
M  V30 9267 C 883.988 1.87321 -0.563034 0
M  V30 9268 O 885.194 2.63719 -0.645313 0
M  V30 9269 C 883.65 1.82505 -3.10193 0
M  V30 9270 C 883.258 0.99871 -4.36726 0
M  V30 9271 C 885.002 2.54807 -3.3952 0
M  V30 9272 C 882.909 1.81997 -5.627 0
M  V30 9273 H 881.839 0.376488 -0.653278 0
M  V30 9274 H 884.49 0.253909 -1.81735 0
M  V30 9275 H 882.872 2.61061 -2.97763 0
M  V30 9276 H 884.046 0.257064 -4.60082 0
M  V30 9277 H 882.361 0.390074 -4.14569 0
M  V30 9278 H 884.958 3.16662 -4.30847 0
M  V30 9279 H 885.301 3.25273 -2.59813 0
M  V30 9280 H 885.834 1.83278 -3.53064 0
M  V30 9281 H 882.573 1.15945 -6.45164 0
M  V30 9282 H 882.093 2.53749 -5.43481 0
M  V30 9283 H 883.772 2.39274 -6.0113 0
M  V30 9284 N 883.904 1.48273 0.534124 0
M  V30 9285 C 885.152 1.55771 1.28762 0
M  V30 9286 C 885.473 0.231575 1.9362 0
M  V30 9287 O 884.743 -0.746533 1.81118 0
M  V30 9288 H 883.323 0.573851 0.47823 0
M  V30 9289 H 885.985 1.84712 0.621888 0
M  V30 9290 H 885.081 2.33657 2.06908 0
M  V30 9291 N 885.382 -0.782676 1.36792 0
M  V30 9292 C 886.628 -1.54311 1.3159 0
M  V30 9293 C 886.961 -1.93928 -0.102696 0
M  V30 9294 O 886.236 -1.63233 -1.05761 0
M  V30 9295 C 886.519 -2.81561 2.24489 0
M  V30 9296 C 886.372 -2.48268 3.75078 0
M  V30 9297 C 887.691 -3.83428 2.16034 0
M  V30 9298 H 884.81 -0.559828 0.479335 0
M  V30 9299 H 887.452 -0.898717 1.67401 0
M  V30 9300 H 885.602 -3.36549 1.9408 0
M  V30 9301 H 887.274 -1.99279 4.16036 0
M  V30 9302 H 885.517 -1.81116 3.94182 0
M  V30 9303 H 886.188 -3.39183 4.35499 0
M  V30 9304 H 888.664 -3.37905 2.42815 0
M  V30 9305 H 887.54 -4.70204 2.83194 0
M  V30 9306 H 887.801 -4.26887 1.14976 0
M  V30 9307 N 886.86 -1.21182 -1.00761 0
M  V30 9308 C 888.276 -0.968607 -1.26847 0
M  V30 9309 C 888.476 0.346561 -1.98497 0
M  V30 9310 O 887.532 1.07287 -2.28573 0
M  V30 9311 C 888.845 -2.1574 -2.09467 0
M  V30 9312 C 890.393 -2.19937 -2.22703 0
M  V30 9313 C 890.868 -3.38328 -3.08704 0
M  V30 9314 N 892.359 -3.38398 -3.16293 0
M  V30 9315 C 893.094 -4.26653 -3.83086 0
M  V30 9316 N 892.59 -5.25101 -4.5193 0
M  V30 9317 N 894.383 -4.14469 -3.797 0
M  V30 9318 H 886.534 -2.05763 -0.526816 0
M  V30 9319 H 888.797 -0.90087 -0.29519 0
M  V30 9320 H 888.503 -3.11034 -1.64167 0
M  V30 9321 H 888.377 -2.14584 -3.10216 0
M  V30 9322 H 890.764 -1.25201 -2.67224 0
M  V30 9323 H 890.845 -2.25139 -1.21433 0
M  V30 9324 H 890.489 -4.33356 -2.64886 0
M  V30 9325 H 890.419 -3.30364 -4.10082 0
M  V30 9326 H 892.91 -2.67149 -2.67282 0
M  V30 9327 H 893.223 -5.8875 -5.00592 0
M  V30 9328 H 891.568 -5.29029 -4.50726 0
M  V30 9329 H 894.759 -3.3682 -3.25069 0
M  V30 9330 H 894.932 -4.83458 -4.31477 0
M  V30 9331 N 888.338 1.20213 -1.01915 0
M  V30 9332 C 889.615 1.85348 -0.62495 0
M  V30 9333 C 889.995 1.91101 0.896854 0
M  V30 9334 O 889.343 1.42075 1.78961 0
M  V30 9335 C 889.553 3.24849 -1.27571 0
M  V30 9336 C 890.901 4.01107 -1.39277 0
M  V30 9337 O 891.925 3.34211 -1.23212 0
M  V30 9338 O 890.784 5.20914 -1.6526 0
M  V30 9339 H 887.878 0.798303 -0.215965 0
M  V30 9340 H 890.424 1.27782 -1.11669 0
M  V30 9341 H 889.196 3.1544 -2.31545 0
M  V30 9342 H 888.819 3.90049 -0.77122 0
M  V30 9343 N 889.816 0.795718 1.36037 0
M  V30 9344 C 891.046 0.382597 2.03026 0
M  V30 9345 C 891.454 -1.00779 1.60126 0
M  V30 9346 O 890.797 -1.65884 0.78919 0
M  V30 9347 C 890.859 0.374145 3.57548 0
M  V30 9348 C 890.523 1.71318 4.23673 0
M  V30 9349 C 891.52 2.6697 4.4612 0
M  V30 9350 C 889.205 1.99421 4.61017 0
M  V30 9351 C 891.199 3.88916 5.04998 0
M  V30 9352 C 888.886 3.21632 5.19611 0
M  V30 9353 C 889.884 4.16198 5.41542 0
M  V30 9354 O 889.572 5.36254 5.98905 0
M  V30 9355 H 889.304 0.154944 0.658003 0
M  V30 9356 H 891.858 1.07756 1.74865 0
M  V30 9357 H 890.088 -0.377349 3.84854 0
M  V30 9358 H 891.777 -0.01517 4.05897 0
M  V30 9359 H 892.543 2.46548 4.17659 0
M  V30 9360 H 888.422 1.2663 4.43267 0
M  V30 9361 H 891.966 4.6274 5.22032 0
M  V30 9362 H 887.863 3.4193 5.47498 0
M  V30 9363 H 888.631 5.37403 6.17366 0
M  V30 9364 N 891.294 -1.47756 0.548274 0
M  V30 9365 C 892.534 -2.04387 0.0231354 0
M  V30 9366 C 892.898 -1.41438 -1.29843 0
M  V30 9367 O 894.099 -1.89064 -1.91072 0
M  V30 9368 C 892.37 -3.57316 -0.077482 0
M  V30 9369 S 893.929 -4.35339 -0.550038 0
M  V30 9370 H 890.747 -0.710694 0.0208428 0
M  V30 9371 H 893.349 -1.81239 0.732984 0
M  V30 9372 H 892.053 -4.00658 0.88888 0
M  V30 9373 H 891.584 -3.84947 -0.811157 0
M  V30 9374 H 893.599 -4.61957 -1.81135 0
M  V30 9375 N 892.772 -0.284283 -1.55015 0
M  V30 9376 C 894.049 0.382125 -1.91831 0
M  V30 9377 C 894.429 1.73007 -1.20962 0
M  V30 9378 O 893.777 2.25962 -0.339594 0
M  V30 9379 C 893.987 0.513341 -3.45204 0
M  V30 9380 C 895.335 0.791989 -4.17148 0
M  V30 9381 O 896.359 0.597799 -3.51148 0
M  V30 9382 O 895.218 1.16394 -5.33961 0
M  V30 9383 H 892.312 0.210707 -0.799707 0
M  V30 9384 H 894.858 -0.331111 -1.66438 0
M  V30 9385 H 893.63 -0.434911 -3.88876 0
M  V30 9386 H 893.253 1.27569 -3.76579 0
M  V30 9387 N 894.251 1.57596 -0.0117121 0
M  V30 9388 C 895.199 2.1029 0.994035 0
M  V30 9389 C 896.193 1.02549 1.34833 0
M  V30 9390 O 897.399 1.21003 1.3326 0
M  V30 9391 H 893.774 0.671624 0.338268 0
M  V30 9392 H 895.745 2.93761 0.524147 0
M  V30 9393 C 894.494 2.63099 2.27319 0
M  V30 9394 H 893.817 3.45642 2.00927 0
M  V30 9395 H 895.257 3.03635 2.95942 0
M  V30 9396 C 893.716 1.55044 2.99104 0
M  V30 9397 O 894.246 0.940127 3.90544 0
M  V30 9398 N 892.452 1.27506 2.61133 0
M  V30 9399 H 891.999 1.77322 1.86855 0
M  V30 9400 H 891.957 0.554292 3.09475 0
M  V30 9401 N 895.729 -0.261212 1.5542 0
M  V30 9402 C 896.954 -1.01341 1.80955 0
M  V30 9403 C 897.379 -1.78711 0.586849 0
M  V30 9404 O 896.737 -1.75266 -0.463837 0
M  V30 9405 C 896.785 -1.93835 3.04073 0
M  V30 9406 O 895.889 -3.02791 2.79985 0
M  V30 9407 H 895.23 -0.289123 0.597749 0
M  V30 9408 H 897.76 -0.286543 2.02584 0
M  V30 9409 H 897.77 -2.3557 3.33123 0
M  V30 9410 H 896.445 -1.36936 3.9271 0
M  V30 9411 H 895.022 -2.65287 2.62063 0
M  V30 9412 N 897.207 -1.48554 -0.526253 0
M  V30 9413 C 898.623 -1.34757 -0.855138 0
M  V30 9414 C 898.823 -0.36142 -1.98232 0
M  V30 9415 O 897.879 0.216026 -2.51574 0
M  V30 9416 C 899.192 -2.74877 -1.21915 0
M  V30 9417 C 900.74 -2.83393 -1.32882 0
M  V30 9418 C 901.215 -4.24223 -1.72624 0
M  V30 9419 N 902.706 -4.26913 -1.7972 0
M  V30 9420 C 903.441 -5.32824 -2.11863 0
M  V30 9421 N 902.937 -6.49008 -2.42405 0
M  V30 9422 N 904.73 -5.20221 -2.12901 0
M  V30 9423 H 896.881 -2.11284 0.217422 0
M  V30 9424 H 899.144 -0.947367 0.0346362 0
M  V30 9425 H 898.85 -3.48619 -0.464486 0
M  V30 9426 H 898.724 -3.0864 -2.16844 0
M  V30 9427 H 901.111 -2.09904 -2.07424 0
M  V30 9428 H 901.192 -2.53245 -0.360638 0
M  V30 9429 H 900.836 -4.98229 -0.986411 0
M  V30 9430 H 900.766 -4.51817 -2.70498 0
M  V30 9431 H 903.257 -3.4311 -1.58379 0
M  V30 9432 H 903.57 -7.25561 -2.66048 0
M  V30 9433 H 901.915 -6.52277 -2.39917 0
M  V30 9434 H 905.106 -4.28469 -1.885 0
M  V30 9435 H 905.279 -6.02861 -2.37619 0
M  V30 9436 N 898.685 0.775411 -1.37205 0
M  V30 9437 C 899.915 1.56219 -1.352 0
M  V30 9438 C 900.323 1.89087 0.065456 0
M  V30 9439 O 899.666 1.51655 1.03665 0
M  V30 9440 C 899.728 2.9019 -2.12203 0
M  V30 9441 C 899.392 2.79978 -3.61195 0
M  V30 9442 C 900.389 2.51258 -4.55154 0
M  V30 9443 C 898.074 2.98115 -4.04268 0
M  V30 9444 C 900.068 2.40798 -5.90165 0
M  V30 9445 C 897.755 2.87276 -5.39366 0
M  V30 9446 C 898.753 2.58657 -6.32128 0
M  V30 9447 O 898.441 2.47838 -7.64743 0
M  V30 9448 H 898.173 0.490735 -0.464925 0
M  V30 9449 H 900.727 0.969201 -1.81096 0
M  V30 9450 H 898.957 3.51594 -1.60992 0
M  V30 9451 H 900.646 3.51561 -2.02879 0
M  V30 9452 H 901.412 2.36935 -4.23186 0
M  V30 9453 H 897.291 3.19392 -3.3243 0
M  V30 9454 H 900.835 2.18381 -6.62537 0
M  V30 9455 H 896.732 3.01166 -5.70937 0
M  V30 9456 H 897.5 2.63215 -7.75023 0
M  V30 9457 N 900.163 1.21714 1.00117 0
M  V30 9458 C 901.111 0.976937 2.11089 0
M  V30 9459 C 902.105 -0.0771295 1.69224 0
M  V30 9460 O 903.311 0.0745945 1.79845 0
M  V30 9461 H 899.686 0.298687 0.690138 0
M  V30 9462 H 901.657 1.91881 2.28526 0
M  V30 9463 C 900.406 0.562369 3.43122 0
M  V30 9464 H 899.729 1.36509 3.75773 0
M  V30 9465 H 901.169 0.433642 4.21777 0
M  V30 9466 C 899.628 -0.727148 3.28959 0
M  V30 9467 O 900.158 -1.78171 3.60025 0
M  V30 9468 N 898.364 -0.695129 2.82164 0
M  V30 9469 H 897.911 0.163346 2.57082 0
M  V30 9470 H 897.869 -1.55822 2.73069 0
M  V30 9471 N 901.641 -1.19671 1.02551 0
M  V30 9472 C 902.89 -1.88591 0.715272 0
M  V30 9473 C 903.203 -1.80274 -0.758982 0
M  V30 9474 O 904.409 -2.44413 -1.18213 0
M  V30 9475 C 902.865 -3.38264 1.22905 0
M  V30 9476 C 902.473 -3.55146 2.73084 0
M  V30 9477 C 904.217 -4.12683 0.994649 0
M  V30 9478 C 902.124 -4.98693 3.17897 0
M  V30 9479 H 901.054 -0.706326 0.263857 0
M  V30 9480 H 903.705 -1.35322 1.23936 0
M  V30 9481 H 902.087 -3.9091 0.632892 0
M  V30 9482 H 903.261 -3.12845 3.38326 0
M  V30 9483 H 901.576 -2.94112 2.94766 0
M  V30 9484 H 904.173 -5.18536 1.30478 0
M  V30 9485 H 904.516 -4.16243 -0.0686466 0
M  V30 9486 H 905.049 -3.66164 1.55464 0
M  V30 9487 H 901.788 -5.00293 4.23542 0
M  V30 9488 H 901.308 -5.4177 2.57381 0
M  V30 9489 H 902.987 -5.67327 3.11045 0
M  V30 9490 N 903.119 -0.802921 -1.35613 0
M  V30 9491 C 904.049 -0.225131 -2.32412 0
M  V30 9492 C 905.03 0.647383 -1.57299 0
M  V30 9493 O 906.215 0.578414 -1.85386 0
M  V30 9494 C 903.345 0.630085 -3.41537 0
M  V30 9495 C 902.299 -0.143635 -4.27759 0
M  V30 9496 C 901.625 0.833046 -5.28171 0
M  V30 9497 C 902.925 -1.34054 -5.04804 0
M  V30 9498 H 904.619 -1.03385 -2.80984 0
M  V30 9499 H 902.165 -0.498593 -1.35093 0
M  V30 9500 H 904.118 1.04433 -4.08254 0
M  V30 9501 H 902.842 1.47165 -2.91565 0
M  V30 9502 H 901.501 -0.539015 -3.62616 0
M  V30 9503 H 901.149 1.67001 -4.74468 0
M  V30 9504 H 900.849 0.319697 -5.8673 0
M  V30 9505 H 902.373 1.24558 -5.97761 0
M  V30 9506 H 903.787 -1.00136 -5.64487 0
M  V30 9507 H 902.184 -1.78812 -5.72841 0
M  V30 9508 H 903.254 -2.12906 -4.35659 0
M  V30 9509 N 904.597 1.47463 -0.556102 0
M  V30 9510 C 905.507 2.33785 0.195378 0
M  V30 9511 C 906.523 1.48123 0.913 0
M  V30 9512 O 907.699 1.81053 0.882141 0
M  V30 9513 C 904.764 3.24795 1.21282 0
M  V30 9514 C 903.825 4.26346 0.502747 0
M  V30 9515 C 903.058 5.13007 1.47172 0
M  V30 9516 O 903.281 5.02103 2.70646 0
M  V30 9517 O 902.215 5.93588 0.996814 0
M  V30 9518 H 906.041 2.99341 -0.512676 0
M  V30 9519 H 903.626 1.46004 -0.31673 0
M  V30 9520 H 905.508 3.81015 1.80016 0
M  V30 9521 H 904.183 2.61868 1.90282 0
M  V30 9522 H 903.09 3.73889 -0.125757 0
M  V30 9523 H 904.423 4.91984 -0.145779 0
M  V30 9524 N 906.075 0.2925 1.54862 0
M  V30 9525 C 906.985 -0.597036 2.26876 0
M  V30 9526 C 908.001 -1.15558 1.30086 0
M  V30 9527 O 909.177 -1.18217 1.63054 0
M  V30 9528 C 906.242 -1.75664 2.98903 0
M  V30 9529 C 905.303 -1.23303 4.11212 0
M  V30 9530 C 904.536 -2.33736 4.79795 0
M  V30 9531 O 904.759 -3.53459 4.47686 0
M  V30 9532 O 903.693 -2.00908 5.67379 0
M  V30 9533 H 907.519 -0.0131242 3.03697 0
M  V30 9534 H 905.104 0.0592642 1.49282 0
M  V30 9535 H 906.986 -2.43241 3.4411 0
M  V30 9536 H 905.661 -2.32731 2.24984 0
M  V30 9537 H 904.568 -0.523222 3.70423 0
M  V30 9538 H 905.901 -0.707887 4.87083 0
M  V30 9539 N 907.553 -1.57587 0.0200696 0
M  V30 9540 C 908.799 -1.91708 -0.661503 0
M  V30 9541 C 909.132 -0.895968 -1.72296 0
M  V30 9542 O 908.407 0.082577 -1.94325 0
M  V30 9543 C 908.69 -3.36344 -1.28627 0
M  V30 9544 C 908.543 -4.49186 -0.234982 0
M  V30 9545 C 909.862 -3.80771 -2.20685 0
M  V30 9546 H 906.981 -0.69717 -0.239005 0
M  V30 9547 H 909.623 -1.8985 0.0754764 0
M  V30 9548 H 907.773 -3.38058 -1.91439 0
M  V30 9549 H 909.445 -4.59606 0.395011 0
M  V30 9550 H 907.688 -4.31557 0.440565 0
M  V30 9551 H 908.359 -5.47395 -0.711558 0
M  V30 9552 H 910.835 -3.80735 -1.67868 0
M  V30 9553 H 909.711 -4.82685 -2.61356 0
M  V30 9554 H 909.972 -3.15764 -3.09428 0
M  V30 9555 N 909.032 0.252966 -1.55557 0
M  V30 9556 C 909.995 1.29645 -1.8901 0
M  V30 9557 C 910.995 1.41378 -0.766096 0
M  V30 9558 O 912.185 1.40183 -1.03414 0
M  V30 9559 C 909.317 2.67504 -2.11316 0
M  V30 9560 H 910.51 1.01202 -2.82309 0
M  V30 9561 H 908.063 0.491977 -1.48355 0
M  V30 9562 H 908.798 3.01095 -1.20466 0
M  V30 9563 H 908.583 2.6037 -2.93172 0
M  V30 9564 H 910.073 3.42861 -2.38403 0
M  V30 9565 N 910.51 1.48831 0.518367 0
M  V30 9566 C 911.457 1.64216 1.62178 0
M  V30 9567 C 912.427 0.483942 1.58894 0
M  V30 9568 O 913.612 0.708857 1.77144 0
M  V30 9569 C 910.752 1.69867 3.00399 0
M  V30 9570 C 909.865 2.96875 3.1383 0
M  V30 9571 C 909 2.93613 4.42679 0
M  V30 9572 C 908.039 4.15276 4.4968 0
M  V30 9573 N 907.176 4.10024 5.69934 0
M  V30 9574 H 912.016 2.58439 1.48368 0
M  V30 9575 H 909.553 1.28154 0.722152 0
M  V30 9576 H 911.511 1.71124 3.8049 0
M  V30 9577 H 910.141 0.791249 3.12952 0
M  V30 9578 H 909.193 3.0531 2.26914 0
M  V30 9579 H 910.505 3.86863 3.14863 0
M  V30 9580 H 909.659 2.93337 5.31073 0
M  V30 9581 H 908.398 2.01375 4.44184 0
M  V30 9582 H 907.403 4.15816 3.59691 0
M  V30 9583 H 908.628 5.08687 4.49904 0
M  V30 9584 H 906.574 3.20613 5.72314 0
M  V30 9585 H 906.491 4.93728 5.72511 0
M  V30 9586 H 907.759 4.13824 6.60583 0
M  V30 9587 N 911.988 -0.768124 1.37614 0
M  V30 9588 C 912.935 -1.88151 1.33671 0
M  V30 9589 C 913.905 -1.64871 0.201645 0
M  V30 9590 O 915.09 -1.86739 0.391582 0
M  V30 9591 C 912.23 -3.25264 1.15314 0
M  V30 9592 C 911.343 -3.60473 2.38082 0
M  V30 9593 C 910.478 -4.86814 2.12569 0
M  V30 9594 C 909.517 -5.14765 3.31184 0
M  V30 9595 N 908.654 -6.32295 3.052 0
M  V30 9596 H 913.494 -1.90857 2.28862 0
M  V30 9597 H 911.031 -0.933048 1.13722 0
M  V30 9598 H 912.989 -4.04364 1.02691 0
M  V30 9599 H 911.619 -3.21924 0.237689 0
M  V30 9600 H 910.671 -2.7633 2.61431 0
M  V30 9601 H 911.983 -3.77065 3.26532 0
M  V30 9602 H 911.137 -5.73826 1.96999 0
M  V30 9603 H 909.876 -4.72333 1.21462 0
M  V30 9604 H 908.881 -4.26227 3.4729 0
M  V30 9605 H 910.106 -5.31153 4.23147 0
M  V30 9606 H 908.052 -6.19166 2.16726 0
M  V30 9607 H 907.969 -6.4932 3.87195 0
M  V30 9608 H 909.237 -7.22234 2.93254 0
M  V30 9609 N 913.466 -1.22244 -0.994698 0
M  V30 9610 C 914.399 -0.934168 -2.08203 0
M  V30 9611 C 915.377 0.122231 -1.6214 0
M  V30 9612 O 916.561 -0.00896598 -1.88498 0
M  V30 9613 C 913.688 -0.404646 -3.36274 0
M  V30 9614 C 912.734 -1.44544 -4.01259 0
M  V30 9615 S 913.567 -3.01816 -4.42343 0
M  V30 9616 C 914.723 -2.50497 -5.73587 0
M  V30 9617 H 914.956 -1.85493 -2.32335 0
M  V30 9618 H 912.489 -1.0533 -1.12893 0
M  V30 9619 H 914.447 -0.105719 -4.10364 0
M  V30 9620 H 913.108 0.494971 -3.10176 0
M  V30 9621 H 912.301 -1.02478 -4.93472 0
M  V30 9622 H 911.903 -1.69298 -3.33488 0
M  V30 9623 H 914.195 -1.91626 -6.49835 0
M  V30 9624 H 915.138 -3.41193 -6.20478 0
M  V30 9625 H 915.546 -1.91845 -5.30901 0
M  V30 9626 N 914.944 1.19125 -1.03184 0
M  V30 9627 C 915.892 2.24492 -0.608781 0
M  V30 9628 C 916.886 1.65529 0.360065 0
M  V30 9629 O 918.092 1.78546 0.22832 0
M  V30 9630 H 914.467 0.73048 -0.178616 0
M  V30 9631 H 916.438 2.5749 -1.50803 0
M  V30 9632 C 915.187 3.47693 0.0215126 0
M  V30 9633 H 914.51 3.93354 -0.715024 0
M  V30 9634 H 915.95 4.23072 0.280429 0
M  V30 9635 C 914.409 3.12088 1.26896 0
M  V30 9636 O 914.939 3.25013 2.36071 0
M  V30 9637 N 913.145 2.66494 1.15886 0
M  V30 9638 H 912.692 2.56176 0.270463 0
M  V30 9639 H 912.65 2.43042 1.99444 0
M  V30 9640 N 916.422 0.810101 1.35185 0
M  V30 9641 C 917.352 0.237453 2.32289 0
M  V30 9642 C 918.333 -0.639032 1.5764 0
M  V30 9643 O 919.518 -0.568575 1.8569 0
M  V30 9644 C 916.648 -0.611964 3.41866 0
M  V30 9645 C 915.602 0.166318 4.27677 0
M  V30 9646 C 914.928 -0.805024 5.28605 0
M  V30 9647 C 916.228 1.36729 5.04086 0
M  V30 9648 H 917.922 1.04874 2.80432 0
M  V30 9649 H 915.468 0.505751 1.34826 0
M  V30 9650 H 917.421 -1.02267 4.08802 0
M  V30 9651 H 916.145 -1.45617 2.92341 0
M  V30 9652 H 914.804 0.558238 3.62325 0
M  V30 9653 H 914.452 -1.64483 4.75347 0
M  V30 9654 H 914.152 -0.288577 5.86891 0
M  V30 9655 H 915.676 -1.21386 5.98413 0
M  V30 9656 H 917.09 1.03128 5.63948 0
M  V30 9657 H 915.487 1.81848 5.71884 0
M  V30 9658 H 916.557 2.15214 4.34524 0
M  V30 9659 N 917.9 -1.47166 0.563914 0
M  V30 9660 C 919.177 -1.95586 -0.0236172 0
M  V30 9661 C 919.557 -1.50655 -1.47872 0
M  V30 9662 O 918.905 -0.748479 -2.15894 0
M  V30 9663 C 919.115 -3.48762 0.128841 0
M  V30 9664 C 920.463 -4.24598 -0.0130544 0
M  V30 9665 O 921.487 -3.56155 0.0567242 0
M  V30 9666 O 920.346 -5.46253 -0.164332 0
M  V30 9667 H 917.44 -0.824793 -0.0603789 0
M  V30 9668 H 919.986 -1.57536 0.63091 0
M  V30 9669 H 918.758 -3.74291 1.14113 0
M  V30 9670 H 918.381 -3.93594 -0.56299 0
M  V30 9671 N 919.378 -0.300708 -1.54705 0
M  V30 9672 C 920.311 0.617513 -2.19686 0
M  V30 9673 C 921.289 1.1331 -1.16617 0
M  V30 9674 O 922.473 1.20135 -1.45258 0
M  V30 9675 C 919.6 1.84486 -2.84047 0
M  V30 9676 C 918.646 1.46253 -4.0064 0
M  V30 9677 S 919.479 0.518718 -5.32982 0
M  V30 9678 C 920.635 1.75387 -6.00825 0
M  V30 9679 H 920.868 0.0654548 -2.97228 0
M  V30 9680 H 918.401 -0.0848492 -1.54167 0
M  V30 9681 H 920.359 2.54921 -3.21754 0
M  V30 9682 H 919.02 2.36808 -2.06351 0
M  V30 9683 H 918.213 2.37648 -4.44454 0
M  V30 9684 H 917.815 0.838129 -3.64488 0
M  V30 9685 H 920.107 2.69448 -6.21614 0
M  V30 9686 H 921.05 1.35829 -6.9495 0
M  V30 9687 H 921.458 1.93045 -5.30466 0
M  V30 9688 N 920.856 1.57574 -0.0284266 0
M  V30 9689 C 922.272 1.56194 0.327958 0
M  V30 9690 C 922.472 1.03397 1.72949 0
M  V30 9691 O 921.528 0.680392 2.4316 0
M  V30 9692 C 922.841 3.00177 0.177196 0
M  V30 9693 C 924.389 3.12 0.250014 0
M  V30 9694 C 924.864 4.57821 0.128049 0
M  V30 9695 N 926.355 4.6283 0.185054 0
M  V30 9696 C 927.09 5.73286 0.114454 0
M  V30 9697 N 926.586 6.928 -0.00719225 0
M  V30 9698 N 928.379 5.61848 0.16839 0
M  V30 9699 H 920.53 1.90224 -0.944921 0
M  V30 9700 H 922.793 0.874987 -0.364832 0
M  V30 9701 H 922.499 3.42753 -0.788224 0
M  V30 9702 H 922.373 3.65101 0.94768 0
M  V30 9703 H 924.76 2.69337 1.20589 0
M  V30 9704 H 924.841 2.49799 -0.550835 0
M  V30 9705 H 924.485 5.01165 -0.824407 0
M  V30 9706 H 924.415 5.18001 0.947753 0
M  V30 9707 H 926.906 3.76867 0.279247 0
M  V30 9708 H 927.219 7.72781 -0.0543903 0
M  V30 9709 H 925.564 6.94987 -0.0419648 0
M  V30 9710 H 928.755 4.67367 0.261821 0
M  V30 9711 H 928.928 6.47907 0.109908 0
M  V30 9712 N 922.334 -0.244713 1.55689 0
M  V30 9713 C 923.281 -1.30301 1.905 0
M  V30 9714 C 924.251 -1.4772 0.759478 0
M  V30 9715 O 925.436 -1.61667 1.01333 0
M  V30 9716 C 922.576 -2.653 2.20703 0
M  V30 9717 C 921.689 -2.55872 3.48071 0
M  V30 9718 C 920.824 -3.83238 3.67834 0
M  V30 9719 C 919.863 -3.68436 4.88796 0
M  V30 9720 N 919 -4.877 5.05068 0
M  V30 9721 H 923.84 -0.999143 2.80751 0
M  V30 9722 H 921.377 -0.482099 1.38976 0
M  V30 9723 H 923.335 -3.43884 2.36219 0
M  V30 9724 H 921.965 -2.93831 1.33653 0
M  V30 9725 H 921.017 -1.68846 3.40874 0
M  V30 9726 H 922.329 -2.40845 4.36801 0
M  V30 9727 H 921.483 -4.70266 3.83321 0
M  V30 9728 H 920.222 -4.01165 2.77341 0
M  V30 9729 H 919.227 -2.79793 4.73282 0
M  V30 9730 H 920.452 -3.52003 5.8075 0
M  V30 9731 H 918.398 -5.05983 4.17513 0
M  V30 9732 H 918.315 -4.75312 5.8789 0
M  V30 9733 H 919.583 -5.76219 5.24969 0
M  V30 9734 N 923.813 -1.49104 -0.510467 0
M  V30 9735 C 925.041 -1.61806 -1.28944 0
M  V30 9736 C 925.456 -0.285774 -1.86625 0
M  V30 9737 O 924.813 0.727551 -1.67371 0
M  V30 9738 C 924.864 -2.67966 -2.42645 0
M  V30 9739 O 924.585 -3.96026 -1.87337 0
M  V30 9740 C 926.086 -2.91286 -3.34166 0
M  V30 9741 H 923.306 -0.544999 -0.391429 0
M  V30 9742 H 925.85 -1.95071 -0.613805 0
M  V30 9743 H 924.005 -2.37505 -3.06056 0
M  V30 9744 H 924.419 -4.54427 -2.61909 0
M  V30 9745 H 925.893 -3.69323 -4.1025 0
M  V30 9746 H 926.37 -2.00842 -3.90588 0
M  V30 9747 H 926.976 -3.23127 -2.76531 0
M  V30 9748 N 925.291 0.760815 -1.38019 0
M  V30 9749 C 926.516 1.55513 -1.37224 0
M  V30 9750 C 926.941 1.88062 0.037611 0
M  V30 9751 O 926.299 1.50042 1.0177 0
M  V30 9752 C 926.347 2.83539 -2.22796 0
M  V30 9753 O 925.451 3.78384 -1.64009 0
M  V30 9754 H 924.792 0.470642 -0.468393 0
M  V30 9755 H 927.322 0.940792 -1.81687 0
M  V30 9756 H 927.332 3.32535 -2.36399 0
M  V30 9757 H 926.007 2.59178 -3.25269 0
M  V30 9758 H 924.584 3.37063 -1.59508 0
M  V30 9759 N 926.769 1.22769 0.988202 0
M  V30 9760 C 927.994 1.08239 1.76915 0
M  V30 9761 C 928.419 -0.362519 1.84574 0
M  V30 9762 O 927.777 -1.26202 1.30165 0
M  V30 9763 C 927.825 1.70363 3.17819 0
M  V30 9764 O 926.929 0.960484 4.01059 0
M  V30 9765 H 926.27 0.379872 0.544604 0
M  V30 9766 H 928.8 1.62663 1.24104 0
M  V30 9767 H 928.81 1.7528 3.6843 0
M  V30 9768 H 927.485 2.75505 3.1156 0
M  V30 9769 H 926.062 0.987667 3.59582 0
M  V30 9770 N 928.247 -1.18576 1.03814 0
M  V30 9771 C 929.177 -2.24334 0.647795 0
M  V30 9772 C 930.158 -1.66508 -0.34774 0
M  V30 9773 O 931.343 -1.92852 -0.228401 0
M  V30 9774 C 928.473 -3.47299 0.00734922 0
M  V30 9775 C 927.427 -4.17859 0.926152 0
M  V30 9776 C 926.753 -5.34489 0.150317 0
M  V30 9777 C 928.053 -4.71632 2.24411 0
M  V30 9778 H 929.747 -2.57241 1.53191 0
M  V30 9779 H 927.293 -1.23649 0.738028 0
M  V30 9780 H 929.246 -4.20486 -0.277434 0
M  V30 9781 H 927.97 -3.13619 -0.911626 0
M  V30 9782 H 926.629 -3.46567 1.19528 0
M  V30 9783 H 926.277 -4.97056 -0.770985 0
M  V30 9784 H 925.977 -5.82633 0.762407 0
M  V30 9785 H 927.501 -6.10467 -0.127508 0
M  V30 9786 H 928.915 -5.36526 2.02021 0
M  V30 9787 H 927.312 -5.303 2.80894 0
M  V30 9788 H 928.382 -3.89192 2.89236 0
M  V30 9789 N 929.725 -0.817259 -1.34754 0
M  V30 9790 C 930.971 -0.412407 -1.99175 0
M  V30 9791 C 931.326 1.01192 -1.6364 0
M  V30 9792 O 930.619 1.69417 -0.894897 0
M  V30 9793 C 930.813 -0.5453 -3.53216 0
M  V30 9794 C 930.642 -1.981 -4.03716 0
M  V30 9795 C 929.412 -2.61167 -4.32574 0
M  V30 9796 C 931.61 -2.94698 -4.21494 0
M  V30 9797 N 929.592 -3.96035 -4.69073 0
M  V30 9798 C 930.963 -4.14462 -4.61109 0
M  V30 9799 C 933.018 -2.9139 -4.03728 0
M  V30 9800 C 931.721 -5.31363 -4.84815 0
M  V30 9801 C 933.747 -4.07502 -4.28598 0
M  V30 9802 C 933.109 -5.26016 -4.68494 0
M  V30 9803 H 929.208 -0.198899 -0.756282 0
M  V30 9804 H 931.792 -1.06076 -1.63266 0
M  V30 9805 H 929.963 0.073122 -3.88331 0
M  V30 9806 H 931.695 -0.113999 -4.04539 0
M  V30 9807 H 928.45 -2.12446 -4.23277 0
M  V30 9808 H 928.874 -4.65502 -4.91566 0
M  V30 9809 H 933.516 -2.00908 -3.72016 0
M  V30 9810 H 931.234 -6.22408 -5.15397 0
M  V30 9811 H 934.82 -4.06335 -4.16393 0
M  V30 9812 H 933.7 -6.14369 -4.87361 0
M  V30 9813 N 931.203 1.46865 -0.571711 0
M  V30 9814 C 932.15 2.30189 0.167808 0
M  V30 9815 C 933.12 1.3995 0.89461 0
M  V30 9816 O 934.305 1.68905 0.887451 0
M  V30 9817 C 931.445 3.24205 1.1826 0
M  V30 9818 C 930.558 4.2954 0.460376 0
M  V30 9819 C 929.693 5.10693 1.46173 0
M  V30 9820 C 928.732 6.07788 0.725291 0
M  V30 9821 N 927.869 6.81847 1.67417 0
M  V30 9822 H 932.709 2.92902 -0.548831 0
M  V30 9823 H 930.246 1.44362 -0.282474 0
M  V30 9824 H 932.204 3.77147 1.7837 0
M  V30 9825 H 930.834 2.63324 1.86709 0
M  V30 9826 H 929.886 3.79541 -0.255546 0
M  V30 9827 H 931.198 4.98665 -0.115855 0
M  V30 9828 H 930.352 5.67857 2.13595 0
M  V30 9829 H 929.091 4.41502 2.07188 0
M  V30 9830 H 928.096 5.49787 0.037228 0
M  V30 9831 H 929.321 6.78993 0.120678 0
M  V30 9832 H 927.267 6.15376 2.27263 0
M  V30 9833 H 927.184 7.47195 1.15046 0
M  V30 9834 H 928.452 7.43577 2.33908 0
M  V30 9835 N 932.681 0.308908 1.54543 0
M  V30 9836 C 933.958 -0.351558 1.92415 0
M  V30 9837 C 934.338 -1.71061 1.23699 0
M  V30 9838 O 933.686 -2.25394 0.3755 0
M  V30 9839 C 933.896 -0.458357 3.45977 0
M  V30 9840 C 935.244 -0.725524 4.18355 0
M  V30 9841 O 936.268 -0.541859 3.52054 0
M  V30 9842 O 935.127 -1.07884 5.35745 0
M  V30 9843 H 932.221 -0.197957 0.802958 0
M  V30 9844 H 934.767 0.357548 1.65891 0
M  V30 9845 H 933.539 0.496723 3.88134 0
M  V30 9846 H 933.162 -1.21562 3.78561 0
M  V30 9847 N 934.159 -1.57557 0.0367827 0
M  V30 9848 C 935.091 -2.07597 -0.971395 0
M  V30 9849 C 936.104 -1.0009 -1.28397 0
M  V30 9850 O 937.293 -1.27692 -1.24728 0
M  V30 9851 C 934.393 -2.492 -2.2968 0
M  V30 9852 C 933.566 -3.79875 -2.16826 0
M  V30 9853 C 932.625 -4.07946 -3.32366 0
M  V30 9854 O 931.651 -4.78083 -3.0891 0
M  V30 9855 N 932.853 -3.58722 -4.56397 0
M  V30 9856 H 935.618 -2.94714 -0.544389 0
M  V30 9857 H 933.179 -1.61205 -0.1498 0
M  V30 9858 H 935.171 -2.65065 -3.05815 0
M  V30 9859 H 933.741 -1.67407 -2.63995 0
M  V30 9860 H 932.961 -3.73732 -1.2537 0
M  V30 9861 H 934.249 -4.65476 -2.0545 0
M  V30 9862 H 933.647 -3.01994 -4.78347 0
M  V30 9863 H 932.204 -3.79852 -5.29675 0
M  V30 9864 N 935.637 0.236453 -1.55816 0
M  V30 9865 C 936.6 1.27633 -1.90375 0
M  V30 9866 C 937.6 1.40557 -0.781048 0
M  V30 9867 O 938.79 1.39078 -1.04895 0
M  V30 9868 C 935.922 2.65247 -2.14142 0
M  V30 9869 H 937.115 0.982019 -2.83366 0
M  V30 9870 H 934.668 0.476215 -1.48869 0
M  V30 9871 H 935.403 2.99801 -1.23653 0
M  V30 9872 H 935.188 2.57246 -2.95917 0
M  V30 9873 H 936.678 3.40313 -2.42026 0
M  V30 9874 N 937.115 1.49373 0.502552 0
M  V30 9875 C 938.045 1.68839 1.61294 0
M  V30 9876 C 939.026 0.537096 1.61398 0
M  V30 9877 O 940.211 0.772764 1.78163 0
M  V30 9878 C 937.341 1.75347 2.99784 0
M  V30 9879 C 936.295 2.90251 3.14545 0
M  V30 9880 C 935.621 2.8187 4.54371 0
M  V30 9881 C 936.921 4.31207 2.94717 0
M  V30 9882 H 938.615 2.61803 1.45257 0
M  V30 9883 H 936.161 1.25987 0.697371 0
M  V30 9884 H 938.114 1.87552 3.77362 0
M  V30 9885 H 936.838 0.789814 3.16906 0
M  V30 9886 H 935.497 2.77646 2.39392 0
M  V30 9887 H 935.145 1.83416 4.68367 0
M  V30 9888 H 934.845 3.5899 4.65188 0
M  V30 9889 H 936.369 2.96081 5.34012 0
M  V30 9890 H 937.783 4.44501 3.62065 0
M  V30 9891 H 936.18 5.09536 3.17007 0
M  V30 9892 H 937.25 4.45759 1.90857 0
M  V30 9893 N 938.594 -0.753485 1.38421 0
M  V30 9894 C 939.84 -1.51485 1.34834 0
M  V30 9895 C 940.173 -1.94102 -0.0615381 0
M  V30 9896 O 939.448 -1.65439 -1.02274 0
M  V30 9897 C 939.731 -2.76736 2.30411 0
M  V30 9898 C 939.584 -2.40256 3.80259 0
M  V30 9899 C 940.903 -3.7876 2.24119 0
M  V30 9900 H 938.022 -0.549534 0.491102 0
M  V30 9901 H 940.664 -0.863006 1.6927 0
M  V30 9902 H 938.814 -3.32357 2.01175 0
M  V30 9903 H 940.486 -1.90409 4.20169 0
M  V30 9904 H 938.729 -1.72714 3.97935 0
M  V30 9905 H 939.4 -3.29869 4.42595 0
M  V30 9906 H 941.876 -3.32679 2.49928 0
M  V30 9907 H 940.752 -4.64092 2.93104 0
M  V30 9908 H 941.013 -4.24352 1.24006 0
M  V30 9909 N 940.072 -1.23292 -0.981677 0
M  V30 9910 C 940.982 -1.02964 -2.10798 0
M  V30 9911 C 941.998 0.0254674 -1.73981 0
M  V30 9912 O 943.174 -0.169706 -2.00684 0
M  V30 9913 C 940.239 -0.621934 -3.41076 0
M  V30 9914 C 939.3 -1.75194 -3.91926 0
M  V30 9915 C 938.533 -1.36359 -5.15986 0
M  V30 9916 O 938.756 -0.247265 -5.69864 0
M  V30 9917 O 937.69 -2.18421 -5.60871 0
M  V30 9918 H 941.516 -1.97354 -2.30836 0
M  V30 9919 H 939.101 -1.01986 -1.09175 0
M  V30 9920 H 940.983 -0.405446 -4.19445 0
M  V30 9921 H 939.658 0.29299 -3.22371 0
M  V30 9922 H 938.565 -2.02305 -3.1468 0
M  V30 9923 H 939.898 -2.64513 -4.15083 0
M  V30 9924 N 941.55 1.18024 -1.04442 0
M  V30 9925 C 942.799 1.8743 -0.745185 0
M  V30 9926 C 943.112 1.81459 0.730206 0
M  V30 9927 O 944.318 2.46263 1.1431 0
M  V30 9928 C 942.774 3.36266 -1.28271 0
M  V30 9929 C 942.382 3.50757 -2.787 0
M  V30 9930 C 944.126 4.11048 -1.06018 0
M  V30 9931 C 942.033 4.93573 -3.25791 0
M  V30 9932 H 940.963 0.702038 -0.27506 0
M  V30 9933 H 943.614 1.33333 -1.26073 0
M  V30 9934 H 941.996 3.89853 -0.695002 0
M  V30 9935 H 943.17 3.07423 -3.43261 0
M  V30 9936 H 941.485 2.89385 -2.99408 0
M  V30 9937 H 944.082 5.16395 -1.38711 0
M  V30 9938 H 944.425 4.163 0.00241716 0
M  V30 9939 H 944.958 3.63644 -1.61269 0
M  V30 9940 H 941.697 4.93491 -4.31447 0
M  V30 9941 H 941.217 5.37607 -2.65968 0
M  V30 9942 H 942.896 5.62307 -3.20031 0
M  V30 9943 N 943.028 0.824394 1.34319 0
M  V30 9944 C 943.976 0.235628 2.31403 0
M  V30 9945 C 944.97 -0.624443 1.57471 0
M  V30 9946 O 946.176 -0.515618 1.72457 0
M  V30 9947 H 942.551 0.0574537 0.749802 0
M  V30 9948 H 944.522 1.06925 2.78585 0
M  V30 9949 C 943.271 -0.586617 3.42716 0
M  V30 9950 H 942.594 0.0658669 3.99746 0
M  V30 9951 H 944.034 -0.964661 4.1288 0
M  V30 9952 C 942.493 -1.75957 2.87299 0
M  V30 9953 O 943.023 -2.8578 2.82299 0
M  V30 9954 N 941.229 -1.57678 2.44102 0
M  V30 9955 H 940.776 -0.683436 2.48369 0
M  V30 9956 H 940.734 -2.36311 2.07375 0
M  V30 9957 N 944.506 -1.46559 0.579492 0
M  V30 9958 C 945.755 -2.01606 0.0615735 0
M  V30 9959 C 946.068 -1.45695 -1.30508 0
M  V30 9960 O 947.274 -1.92541 -1.91416 0
M  V30 9961 C 945.73 -3.59851 0.059496 0
M  V30 9962 C 945.338 -4.24757 1.42427 0
M  V30 9963 C 947.082 -4.22567 -0.404646 0
M  V30 9964 C 944.989 -5.75072 1.38009 0
M  V30 9965 H 943.919 -0.753754 0.0192491 0
M  V30 9966 H 946.57 -1.68326 0.73066 0
M  V30 9967 H 944.952 -3.90193 -0.675691 0
M  V30 9968 H 946.126 -4.06029 2.17893 0
M  V30 9969 H 944.441 -3.74121 1.82817 0
M  V30 9970 H 947.038 -5.32748 -0.456441 0
M  V30 9971 H 947.381 -3.91279 -1.42149 0
M  V30 9972 H 947.914 -3.96839 0.276376 0
M  V30 9973 H 944.653 -6.11014 2.37364 0
M  V30 9974 H 944.173 -5.96073 0.667583 0
M  V30 9975 H 945.852 -6.37724 1.09163 0
M  V30 9976 N 945.984 -0.3171 -1.54377 0
M  V30 9977 C 946.947 0.53905 -2.22771 0
M  V30 9978 C 947.947 1.04865 -1.21901 0
M  V30 9979 O 949.137 0.942108 -1.46526 0
M  V30 9980 C 946.269 1.74804 -2.92671 0
M  V30 9981 H 947.462 -0.0587417 -2.99842 0
M  V30 9982 H 945.015 -0.068107 -1.56152 0
M  V30 9983 H 945.75 2.38524 -2.1972 0
M  V30 9984 H 945.535 1.39011 -3.66631 0
M  V30 9985 H 947.025 2.35592 -3.44799 0
M  V30 9986 N 947.462 1.57535 -0.0451378 0
M  V30 9987 C 948.708 1.92736 0.630921 0
M  V30 9988 C 949.041 0.923265 1.70849 0
M  V30 9989 O 948.316 -0.0516512 1.94431 0
M  V30 9990 C 948.599 3.38348 1.23259 0
M  V30 9991 C 948.452 4.49503 0.16349 0
M  V30 9992 C 949.771 3.84233 2.14599 0
M  V30 9993 H 946.89 0.700884 0.227883 0
M  V30 9994 H 949.532 1.89706 -0.10567 0
M  V30 9995 H 947.682 3.41061 1.86037 0
M  V30 9996 H 949.354 4.58919 -0.46808 0
M  V30 9997 H 947.597 4.30802 -0.509166 0
M  V30 9998 H 948.268 5.48457 0.624382 0
M  V30 9999 H 950.744 3.83358 1.6179 0
M  V30 10000 H 949.62 4.86781 2.53644 0
M  V30 10001 H 949.881 3.20646 3.04366 0
M  V30 10002 N 948.94 -0.228186 1.55939 0
M  V30 10003 C 949.87 -1.28607 1.94891 0
M  V30 10004 C 950.851 -1.49236 0.816245 0
M  V30 10005 O 952.036 -1.61531 1.07803 0
M  V30 10006 C 949.166 -2.63719 2.25986 0
M  V30 10007 C 948.12 -2.57757 3.4168 0
M  V30 10008 C 947.446 -3.96837 3.58364 0
M  V30 10009 C 948.746 -2.13116 4.76843 0
M  V30 10010 H 950.44 -0.962531 2.83506 0
M  V30 10011 H 947.986 -0.461577 1.36402 0
M  V30 10012 H 949.939 -3.37878 2.51826 0
M  V30 10013 H 948.663 -2.97747 1.34217 0
M  V30 10014 H 947.322 -1.86055 3.15878 0
M  V30 10015 H 946.97 -4.28162 2.63982 0
M  V30 10016 H 946.67 -3.93731 4.36176 0
M  V30 10017 H 948.194 -4.72668 3.86545 0
M  V30 10018 H 949.608 -2.77015 5.01932 0
M  V30 10019 H 948.005 -2.21083 5.57891 0
M  V30 10020 H 949.075 -1.08326 4.72645 0
M  V30 10021 N 950.418 -1.49637 -0.494624 0
M  V30 10022 C 951.648 -1.62928 -1.27036 0
M  V30 10023 C 952.056 -0.302464 -1.86767 0
M  V30 10024 O 951.399 0.722878 -1.68879 0
M  V30 10025 C 951.461 -2.64449 -2.43531 0
M  V30 10026 C 951.125 -4.08632 -2.0462 0
M  V30 10027 C 952.122 -4.95238 -1.58225 0
M  V30 10028 C 949.807 -4.54405 -2.1406 0
M  V30 10029 C 951.801 -6.25658 -1.21782 0
M  V30 10030 C 949.488 -5.84836 -1.77228 0
M  V30 10031 C 950.486 -6.70287 -1.31165 0
M  V30 10032 O 950.174 -7.98287 -0.948339 0
M  V30 10033 H 949.906 -0.551263 -0.391261 0
M  V30 10034 H 952.46 -1.96453 -0.599621 0
M  V30 10035 H 950.69 -2.26117 -3.137 0
M  V30 10036 H 952.379 -2.67203 -3.05545 0
M  V30 10037 H 953.145 -4.611 -1.50373 0
M  V30 10038 H 949.024 -3.88056 -2.48865 0
M  V30 10039 H 952.568 -6.92309 -0.857566 0
M  V30 10040 H 948.465 -6.18502 -1.84732 0
M  V30 10041 H 949.233 -8.11353 -1.07925 0
M  V30 10042 N 951.896 0.746133 -1.38819 0
M  V30 10043 C 953.121 1.54049 -1.38866 0
M  V30 10044 C 953.546 1.88092 0.0176624 0
M  V30 10045 O 952.904 1.51113 1.00173 0
M  V30 10046 C 952.952 2.8116 -2.25791 0
M  V30 10047 O 952.056 3.76623 -1.68014 0
M  V30 10048 H 951.397 0.465648 -0.473359 0
M  V30 10049 H 953.927 0.921469 -1.82675 0
M  V30 10050 H 953.937 3.30009 -2.39913 0
M  V30 10051 H 952.612 2.55713 -3.27999 0
M  V30 10052 H 951.189 3.35352 -1.63074 0
M  V30 10053 N 953.375 1.23811 0.975125 0
M  V30 10054 C 954.622 1.07336 1.71712 0
M  V30 10055 C 954.95 -0.388954 1.90571 0
M  V30 10056 O 954.205 -1.30409 1.45918 0
M  V30 10057 C 954.504 1.74994 3.11628 0
M  V30 10058 C 954.17 3.24918 3.12632 0
M  V30 10059 C 952.832 3.65822 3.12614 0
M  V30 10060 C 955.184 4.20797 3.07538 0
M  V30 10061 C 952.512 5.01054 3.05224 0
M  V30 10062 C 954.864 5.56027 3.0169 0
M  V30 10063 C 953.528 5.96287 2.99996 0
M  V30 10064 H 952.798 0.392771 0.62834 0
M  V30 10065 H 955.445 1.53815 1.14075 0
M  V30 10066 H 953.75 1.20889 3.72684 0
M  V30 10067 H 955.447 1.5972 3.67819 0
M  V30 10068 H 952.037 2.92359 3.13407 0
M  V30 10069 H 956.221 3.902 3.06688 0
M  V30 10070 H 951.477 5.31454 3.02268 0
M  V30 10071 H 955.651 6.3003 2.96706 0
M  V30 10072 H 953.278 7.01037 2.94025 0
M  V30 10073 N 954.853 -1.17469 1.05066 0
M  V30 10074 C 955.785 -2.20974 0.608526 0
M  V30 10075 C 956.798 -1.59481 -0.327066 0
M  V30 10076 O 957.987 -1.78096 -0.12 0
M  V30 10077 C 955.087 -3.38652 -0.12969 0
M  V30 10078 C 954.26 -4.29716 0.816285 0
M  V30 10079 C 953.319 -5.26064 0.119556 0
M  V30 10080 O 952.345 -5.64194 0.753241 0
M  V30 10081 N 953.547 -5.69126 -1.14347 0
M  V30 10082 H 956.312 -2.59529 1.49882 0
M  V30 10083 H 953.873 -1.32355 0.932406 0
M  V30 10084 H 955.865 -4.00139 -0.605886 0
M  V30 10085 H 954.435 -2.98705 -0.921638 0
M  V30 10086 H 953.655 -3.6568 1.47213 0
M  V30 10087 H 954.943 -4.87449 1.45845 0
M  V30 10088 H 954.341 -5.4022 -1.67866 0
M  V30 10089 H 952.898 -6.32764 -1.56376 0
M  V30 10090 N 956.331 -0.831506 -1.3388 0
M  V30 10091 C 957.556 -0.435954 -2.02766 0
M  V30 10092 C 957.981 0.952889 -1.62178 0
M  V30 10093 O 957.339 1.62166 -0.810681 0
M  V30 10094 C 957.387 -0.555907 -3.56289 0
M  V30 10095 O 956.491 0.420826 -4.10247 0
M  V30 10096 H 955.832 -0.178248 -0.639628 0
M  V30 10097 H 958.362 -1.1243 -1.70941 0
M  V30 10098 H 958.372 -0.434831 -4.05676 0
M  V30 10099 H 957.047 -1.56881 -3.85177 0
M  V30 10100 H 955.624 0.257919 -3.72007 0
M  V30 10101 N 957.809 1.4625 -0.587256 0
M  V30 10102 C 959.086 1.95599 -0.00750181 0
M  V30 10103 C 959.466 1.52989 1.45457 0
M  V30 10104 O 958.814 0.782731 2.14676 0
M  V30 10105 C 959.024 3.48513 -0.184309 0
M  V30 10106 C 960.372 4.24565 -0.0544972 0
M  V30 10107 O 961.396 3.5602 -0.113378 0
M  V30 10108 O 960.255 5.46445 0.0774075 0
M  V30 10109 H 957.349 0.825649 0.0472495 0
M  V30 10110 H 959.895 1.56512 -0.655893 0
M  V30 10111 H 958.667 3.72428 -1.20053 0
M  V30 10112 H 958.29 3.9444 0.500301 0
M  V30 10113 N 959.287 0.325282 1.54207 0
M  V30 10114 C 960.234 -0.539889 2.24397 0
M  V30 10115 C 961.204 -1.11028 1.2354 0
M  V30 10116 O 962.389 -1.1503 1.52226 0
M  V30 10117 C 959.529 -1.69405 3.00659 0
M  V30 10118 C 958.642 -1.15273 4.16337 0
M  V30 10119 C 957.777 -2.27272 4.80126 0
M  V30 10120 C 956.816 -1.70397 5.87904 0
M  V30 10121 N 955.953 -2.76065 6.45548 0
M  V30 10122 H 960.793 0.0652318 2.97929 0
M  V30 10123 H 958.33 0.043964 1.47034 0
M  V30 10124 H 960.288 -2.37325 3.43122 0
M  V30 10125 H 958.918 -2.27043 2.29458 0
M  V30 10126 H 957.97 -0.365034 3.78645 0
M  V30 10127 H 959.282 -0.696576 4.93912 0
M  V30 10128 H 958.436 -3.03092 5.25566 0
M  V30 10129 H 957.175 -2.76224 4.01935 0
M  V30 10130 H 956.18 -0.930752 5.41864 0
M  V30 10131 H 957.405 -1.22319 6.67993 0
M  V30 10132 H 955.351 -3.24306 5.7023 0
M  V30 10133 H 955.268 -2.35018 7.18542 0
M  V30 10134 H 956.536 -3.5171 6.95644 0
M  V30 10135 N 960.765 -1.57509 0.0534917 0
M  V30 10136 C 962.011 -1.93068 -0.62069 0
M  V30 10137 C 962.344 -0.932313 -1.70357 0
M  V30 10138 O 961.619 0.0413393 -1.94456 0
M  V30 10139 C 961.902 -3.38997 -1.21463 0
M  V30 10140 C 961.755 -4.49583 -0.13965 0
M  V30 10141 C 963.074 -3.85366 -2.12558 0
M  V30 10142 H 960.193 -0.702083 -0.224163 0
M  V30 10143 H 962.835 -1.89647 0.115729 0
M  V30 10144 H 960.985 -3.42043 -1.84226 0
M  V30 10145 H 962.657 -4.58664 0.492411 0
M  V30 10146 H 960.9 -4.30525 0.532006 0
M  V30 10147 H 961.571 -5.48781 -0.595287 0
M  V30 10148 H 964.047 -3.8421 -1.59755 0
M  V30 10149 H 962.923 -4.8812 -2.51058 0
M  V30 10150 H 963.184 -3.22256 -3.02661 0
M  V30 10151 N 962.243 0.219913 -1.56058 0
M  V30 10152 C 963.471 0.960915 -1.83232 0
M  V30 10153 C 963.886 1.77878 -0.632828 0
M  V30 10154 O 963.243 1.78093 0.398624 0
M  V30 10155 C 963.294 1.87716 -3.08942 0
M  V30 10156 O 963.015 1.09235 -4.24263 0
M  V30 10157 C 964.516 2.73192 -3.49115 0
M  V30 10158 H 961.736 0.281546 -0.609075 0
M  V30 10159 H 964.28 0.234648 -2.03149 0
M  V30 10160 H 962.435 2.55736 -2.90995 0
M  V30 10161 H 962.849 1.71446 -4.95688 0
M  V30 10162 H 964.323 3.33181 -4.40107 0
M  V30 10163 H 964.8 3.45668 -2.70943 0
M  V30 10164 H 965.406 2.10583 -3.69506 0
M  V30 10165 N 963.721 1.49897 0.486681 0
M  V30 10166 C 964.97 1.59349 1.23656 0
M  V30 10167 C 965.283 0.292024 1.93408 0
M  V30 10168 O 966.489 0.265258 2.70201 0
M  V30 10169 C 964.945 2.81215 2.24602 0
M  V30 10170 C 964.553 4.18177 1.60725 0
M  V30 10171 C 966.297 3.00004 3.00329 0
M  V30 10172 C 964.204 5.31247 2.59866 0
M  V30 10173 H 963.134 0.593363 0.465227 0
M  V30 10174 H 965.785 1.76306 0.508769 0
M  V30 10175 H 964.167 2.57783 3.00606 0
M  V30 10176 H 965.341 4.51802 0.90616 0
M  V30 10177 H 963.656 4.04864 0.973362 0
M  V30 10178 H 966.253 3.81649 3.74497 0
M  V30 10179 H 966.596 2.1112 3.58795 0
M  V30 10180 H 967.129 3.23544 2.3144 0
M  V30 10181 H 963.868 6.22236 2.06161 0
M  V30 10182 H 963.388 5.02059 3.28172 0
M  V30 10183 H 965.067 5.61177 3.22009 0
M  V30 10184 N 965.199 -0.738761 1.39212 0
M  V30 10185 C 966.445 -1.50046 1.36433 0
M  V30 10186 C 966.778 -1.94157 -0.0409474 0
M  V30 10187 O 966.053 -1.66515 -1.00514 0
M  V30 10188 C 966.336 -2.74277 2.33333 0
M  V30 10189 C 966.189 -2.36209 3.82786 0
M  V30 10190 C 967.508 -3.76361 2.28123 0
M  V30 10191 H 964.627 -0.544294 0.496903 0
M  V30 10192 H 967.269 -0.845005 1.70175 0
M  V30 10193 H 965.419 -3.30204 2.04689 0
M  V30 10194 H 967.091 -1.85942 4.22165 0
M  V30 10195 H 965.334 -1.68483 3.99745 0
M  V30 10196 H 966.005 -3.25156 4.46069 0
M  V30 10197 H 968.481 -3.30009 2.53443 0
M  V30 10198 H 967.357 -4.60957 2.9801 0
M  V30 10199 H 967.618 -4.23013 1.28499 0
M  V30 10200 N 966.677 -1.24326 -0.968545 0
M  V30 10201 C 967.954 -0.990459 -1.68669 0
M  V30 10202 C 968.334 0.487487 -2.05394 0
M  V30 10203 O 967.682 1.46158 -1.75642 0
M  V30 10204 C 967.892 -1.91251 -2.91931 0
M  V30 10205 C 969.24 -2.18291 -3.6419 0
M  V30 10206 O 970.264 -1.88897 -3.01987 0
M  V30 10207 O 969.123 -2.68204 -4.76161 0
M  V30 10208 H 966.217 -0.374515 -0.737338 0
M  V30 10209 H 968.763 -1.35421 -1.02271 0
M  V30 10210 H 967.535 -2.9111 -2.61478 0
M  V30 10211 H 967.158 -1.55188 -3.66064 0
M  V30 10212 N 968.156 1.1691 -1.05688 0
M  V30 10213 C 969.106 2.19056 -0.632339 0
M  V30 10214 C 970.09 1.574 0.333797 0
M  V30 10215 O 971.282 1.76361 0.150223 0
M  V30 10216 C 968.411 3.43297 -0.0138209 0
M  V30 10217 C 967.497 4.12042 -1.00408 0
M  V30 10218 N 967.888 4.56535 -2.17737 0
M  V30 10219 C 966.186 4.38139 -0.833663 0
M  V30 10220 C 966.887 5.09644 -2.80425 0
M  V30 10221 N 965.863 5.02153 -2.08191 0
M  V30 10222 H 969.665 2.51165 -1.52621 0
M  V30 10223 H 967.179 1.33294 -0.927707 0
M  V30 10224 H 969.176 4.1576 0.308117 0
M  V30 10225 H 967.836 3.12677 0.87538 0
M  V30 10226 H 968.847 4.50463 -2.55546 0
M  V30 10227 H 965.524 4.175 0.00406684 0
M  V30 10228 H 966.914 5.54153 -3.79952 0
M  V30 10229 N 969.634 0.838594 1.33437 0
M  V30 10230 C 970.584 0.243681 2.26694 0
M  V30 10231 C 971.568 -0.601168 1.49247 0
M  V30 10232 O 972.76 -0.453181 1.711 0
M  V30 10233 C 969.889 -0.580525 3.38356 0
M  V30 10234 C 968.975 0.275819 4.23202 0
M  V30 10235 N 969.366 1.3544 4.87329 0
M  V30 10236 C 967.664 0.0628047 4.45956 0
M  V30 10237 C 968.365 1.87991 5.50486 0
M  V30 10238 N 967.341 1.18143 5.30607 0
M  V30 10239 H 971.143 1.06849 2.73789 0
M  V30 10240 H 968.657 0.683019 1.47338 0
M  V30 10241 H 970.654 -1.02301 4.04153 0
M  V30 10242 H 969.314 -1.40331 2.92809 0
M  V30 10243 H 970.325 1.73729 4.87892 0
M  V30 10244 H 967.002 -0.726563 4.11129 0
M  V30 10245 H 968.392 2.78312 6.11549 0
M  V30 10246 N 971.112 -1.45937 0.595003 0
M  V30 10247 C 972.337 -2.07207 0.0894416 0
M  V30 10248 C 972.762 -1.43884 -1.21157 0
M  V30 10249 O 972.12 -0.526998 -1.73472 0
M  V30 10250 C 972.168 -3.60565 -0.0499828 0
M  V30 10251 O 971.272 -3.97364 -1.10342 0
M  V30 10252 H 970.613 -0.660471 0.0683627 0
M  V30 10253 H 973.143 -1.87386 0.82144 0
M  V30 10254 H 973.153 -4.0722 -0.252234 0
M  V30 10255 H 971.828 -4.06044 0.90006 0
M  V30 10256 H 970.405 -3.62401 -0.878645 0
M  V30 10257 N 972.59 -0.333456 -1.54032 0
M  V30 10258 C 973.553 0.515392 -2.2333 0
M  V30 10259 C 974.553 1.03566 -1.23007 0
M  V30 10260 O 975.743 0.926514 -1.47517 0
M  V30 10261 C 972.875 1.7169 -2.94508 0
M  V30 10262 H 974.068 -0.0905407 -2.99763 0
M  V30 10263 H 971.621 -0.0846651 -1.56071 0
M  V30 10264 H 972.356 2.3618 -2.22237 0
M  V30 10265 H 972.141 1.35115 -3.68085 0
M  V30 10266 H 973.631 2.31922 -3.47278 0
M  V30 10267 N 974.068 1.57479 -0.061844 0
M  V30 10268 C 975.296 1.97429 0.618837 0
M  V30 10269 C 975.711 0.939826 1.63746 0
M  V30 10270 O 975.068 -0.0747173 1.82347 0
M  V30 10271 C 975.119 3.3746 1.29628 0
M  V30 10272 O 974.84 4.36941 0.318431 0
M  V30 10273 C 976.341 3.92228 2.06572 0
M  V30 10274 H 973.561 0.649513 0.168444 0
M  V30 10275 H 976.105 2.04078 -0.131303 0
M  V30 10276 H 974.26 3.31928 1.99757 0
M  V30 10277 H 974.674 5.18313 0.803239 0
M  V30 10278 H 976.148 4.92458 2.49377 0
M  V30 10279 H 976.625 3.28231 2.91824 0
M  V30 10280 H 977.231 4.01131 1.4133 0
M  V30 10281 N 975.546 -0.211634 1.56173 0
M  V30 10282 C 976.456 -1.2831 1.96402 0
M  V30 10283 C 977.472 -1.50731 0.869254 0
M  V30 10284 O 978.648 -1.63669 1.17365 0
M  V30 10285 C 975.713 -2.61084 2.28114 0
M  V30 10286 C 974.774 -2.46879 3.51211 0
M  V30 10287 C 974.007 -3.73321 3.81401 0
M  V30 10288 O 974.23 -4.76773 3.13119 0
M  V30 10289 O 973.164 -3.69839 4.74871 0
M  V30 10290 H 976.99 -0.971733 2.87734 0
M  V30 10291 H 974.575 -0.415305 1.43512 0
M  V30 10292 H 976.457 -3.39481 2.49661 0
M  V30 10293 H 975.132 -2.91881 1.39954 0
M  V30 10294 H 974.039 -1.66648 3.34932 0
M  V30 10295 H 975.372 -2.21018 4.39786 0
M  V30 10296 N 977.024 -1.50153 -0.478725 0
M  V30 10297 C 978.249 -1.64776 -1.2595 0
M  V30 10298 C 978.674 -0.327794 -1.85222 0
M  V30 10299 O 978.032 0.707418 -1.66929 0
M  V30 10300 C 978.08 -2.73551 -2.34952 0
M  V30 10301 O 977.184 -2.34273 -3.39397 0
M  V30 10302 H 976.525 -0.550769 -0.370877 0
M  V30 10303 H 979.055 -1.96482 -0.570605 0
M  V30 10304 H 979.065 -2.96397 -2.8038 0
M  V30 10305 H 977.74 -3.69354 -1.91181 0
M  V30 10306 H 976.317 -2.21844 -2.99733 0
M  V30 10307 N 978.502 0.731368 -1.39602 0
M  V30 10308 C 979.749 1.491 -1.37024 0
M  V30 10309 C 980.077 1.94473 0.0326423 0
M  V30 10310 O 979.332 1.6737 1.01418 0
M  V30 10311 C 979.631 2.74224 -2.29208 0
M  V30 10312 C 979.297 2.477 -3.7677 0
M  V30 10313 C 977.959 2.40175 -4.16976 0
M  V30 10314 C 980.311 2.25098 -4.70086 0
M  V30 10315 C 977.639 2.08095 -5.48556 0
M  V30 10316 C 979.991 1.94534 -6.01946 0
M  V30 10317 C 978.655 1.85481 -6.41212 0
M  V30 10318 H 977.925 0.545595 -0.501405 0
M  V30 10319 H 980.572 0.839127 -1.72136 0
M  V30 10320 H 978.877 3.44171 -1.87225 0
M  V30 10321 H 980.574 3.32264 -2.24504 0
M  V30 10322 H 977.164 2.54436 -3.44906 0
M  V30 10323 H 981.348 2.29876 -4.39853 0
M  V30 10324 H 976.604 1.99611 -5.77897 0
M  V30 10325 H 980.778 1.76054 -6.73779 0
M  V30 10326 H 978.405 1.60389 -7.43088 0
M  V30 10327 N 979.98 1.24838 0.961938 0
M  V30 10328 C 981.229 1.0855 1.69999 0
M  V30 10329 C 981.542 -0.374645 1.91979 0
M  V30 10330 O 982.748 -0.657822 2.6341 0
M  V30 10331 C 981.204 1.89424 3.06017 0
M  V30 10332 C 980.812 3.39885 2.9186 0
M  V30 10333 C 982.556 1.81684 3.83655 0
M  V30 10334 C 980.463 4.13082 4.23223 0
M  V30 10335 H 979.393 0.402603 0.637516 0
M  V30 10336 H 982.044 1.4897 1.07146 0
M  V30 10337 H 980.426 1.41823 3.69733 0
M  V30 10338 H 981.6 3.95108 2.37121 0
M  V30 10339 H 979.915 3.4864 2.27683 0
M  V30 10340 H 982.512 2.3367 4.80939 0
M  V30 10341 H 982.855 0.783247 4.08865 0
M  V30 10342 H 983.388 2.26997 3.26676 0
M  V30 10343 H 980.127 5.16824 4.03204 0
M  V30 10344 H 979.647 3.62644 4.77755 0
M  V30 10345 H 981.326 4.20397 4.91808 0
M  V30 10346 N 981.458 -1.16348 1.06306 0
M  V30 10347 C 982.405 -2.20741 0.673962 0
M  V30 10348 C 983.375 -1.628 -0.329454 0
M  V30 10349 O 984.56 -1.89547 -0.218313 0
M  V30 10350 C 981.7 -3.45036 0.0667008 0
M  V30 10351 C 980.813 -4.17221 1.12031 0
M  V30 10352 C 979.948 -5.29034 0.479176 0
M  V30 10353 C 978.987 -5.93021 1.51631 0
M  V30 10354 N 978.124 -6.96327 0.898528 0
M  V30 10355 H 982.964 -2.53376 1.56859 0
M  V30 10356 H 980.501 -1.24449 0.784276 0
M  V30 10357 H 982.459 -4.16099 -0.302916 0
M  V30 10358 H 981.089 -3.1295 -0.791333 0
M  V30 10359 H 980.141 -3.4476 1.60763 0
M  V30 10360 H 981.453 -4.60902 1.90712 0
M  V30 10361 H 980.607 -6.06674 0.0565993 0
M  V30 10362 H 979.346 -4.86517 -0.33951 0
M  V30 10363 H 978.351 -5.14104 1.94878 0
M  V30 10364 H 979.576 -6.37618 2.3371 0
M  V30 10365 H 977.522 -6.55923 0.100555 0
M  V30 10366 H 977.439 -7.38379 1.62272 0
M  V30 10367 H 978.707 -7.77888 0.5011 0
M  V30 10368 N 982.937 -0.845659 -1.3299 0
M  V30 10369 C 983.887 -0.2557 -2.26562 0
M  V30 10370 C 984.871 0.593245 -1.49564 0
M  V30 10371 O 986.063 0.444101 -1.71338 0
M  V30 10372 C 983.192 0.562573 -3.38659 0
M  V30 10373 C 982.278 -0.298259 -4.2305 0
M  V30 10374 N 982.669 -1.38023 -4.86604 0
M  V30 10375 C 980.967 -0.0864539 -4.45916 0
M  V30 10376 C 981.668 -1.90907 -5.49481 0
M  V30 10377 N 980.644 -1.20955 -5.29973 0
M  V30 10378 H 984.446 -1.083 -2.73219 0
M  V30 10379 H 981.96 -0.690823 -1.46974 0
M  V30 10380 H 983.957 1.00157 -4.0469 0
M  V30 10381 H 982.617 1.38777 -2.93549 0
M  V30 10382 H 983.628 -1.76314 -4.86964 0
M  V30 10383 H 980.305 0.70475 -4.11509 0
M  V30 10384 H 981.695 -2.81552 -6.10064 0
M  V30 10385 N 984.415 1.45619 -0.602734 0
M  V30 10386 C 985.348 2.27583 0.167708 0
M  V30 10387 C 986.326 1.36844 0.878206 0
M  V30 10388 O 987.51 1.6627 0.888058 0
M  V30 10389 C 984.637 3.15094 1.24232 0
M  V30 10390 C 983.683 4.21739 0.63549 0
M  V30 10391 S 984.516 5.32638 -0.552944 0
M  V30 10392 C 985.672 6.23716 0.522382 0
M  V30 10393 H 985.905 2.92579 -0.527697 0
M  V30 10394 H 983.438 1.4939 -0.390127 0
M  V30 10395 H 985.396 3.66071 1.85748 0
M  V30 10396 H 984.057 2.49372 1.90978 0
M  V30 10397 H 983.25 4.82874 1.44389 0
M  V30 10398 H 982.852 3.73878 0.0955772 0
M  V30 10399 H 985.144 6.62819 1.40276 0
M  V30 10400 H 986.087 7.0808 -0.0526951 0
M  V30 10401 H 986.495 5.58282 0.83553 0
M  V30 10402 N 985.893 0.34162 1.53853 0
M  V30 10403 C 986.803 -0.524555 2.2866 0
M  V30 10404 C 987.819 -1.1136 1.33697 0
M  V30 10405 O 988.995 -1.1297 1.66732 0
M  V30 10406 C 986.06 -1.66065 3.04341 0
M  V30 10407 C 985.121 -1.10158 4.14926 0
M  V30 10408 C 984.354 -2.18353 4.86988 0
M  V30 10409 O 984.577 -3.39038 4.58704 0
M  V30 10410 O 983.511 -1.82756 5.73484 0
M  V30 10411 H 987.337 0.0835014 3.03585 0
M  V30 10412 H 984.922 0.106727 1.49018 0
M  V30 10413 H 986.804 -2.3217 3.51674 0
M  V30 10414 H 985.479 -2.25456 2.32275 0
M  V30 10415 H 984.386 -0.405109 3.719 0
M  V30 10416 H 985.719 -0.552567 4.89088 0
M  V30 10417 N 987.371 -1.57444 0.0701946 0
M  V30 10418 C 988.319 -2.13834 -0.915302 0
M  V30 10419 C 989.313 -1.07483 -1.30934 0
M  V30 10420 O 990.519 -1.25865 -1.28678 0
M  V30 10421 H 986.894 -0.683716 -0.313108 0
M  V30 10422 H 988.865 -2.95503 -0.414758 0
M  V30 10423 C 987.614 -2.71355 -2.17398 0
M  V30 10424 H 986.937 -3.52861 -1.87961 0
M  V30 10425 H 988.377 -3.1441 -2.84469 0
M  V30 10426 C 986.836 -1.66038 -2.93143 0
M  V30 10427 O 987.366 -1.08443 -3.86786 0
M  V30 10428 N 985.572 -1.3711 -2.56221 0
M  V30 10429 H 985.119 -1.84135 -1.80145 0
M  V30 10430 H 985.077 -0.66877 -3.07205 0
M  V30 10431 N 988.849 0.203349 -1.56283 0
M  V30 10432 C 989.759 1.27266 -1.9708 0
M  V30 10433 C 990.775 1.50268 -0.877236 0
M  V30 10434 O 991.951 1.63044 -1.18231 0
M  V30 10435 C 989.016 2.59871 -2.29495 0
M  V30 10436 C 988.077 2.45012 -3.52516 0
M  V30 10437 C 987.31 3.71293 -3.83376 0
M  V30 10438 O 987.533 4.75106 -3.15643 0
M  V30 10439 O 986.467 3.67316 -4.76826 0
M  V30 10440 H 990.293 0.956461 -2.88246 0
M  V30 10441 H 987.878 0.407688 -1.4373 0
M  V30 10442 H 989.76 3.38152 -2.51458 0
M  V30 10443 H 988.435 2.91135 -1.415 0
M  V30 10444 H 987.342 1.6487 -3.35811 0
M  V30 10445 H 988.675 2.18683 -4.40952 0
M  V30 10446 N 990.327 1.50405 0.470755 0
M  V30 10447 C 991.557 1.64928 1.24428 0
M  V30 10448 C 991.965 0.332139 1.86262 0
M  V30 10449 O 991.308 -0.695919 1.70008 0
M  V30 10450 C 991.37 2.6829 2.39293 0
M  V30 10451 C 991.034 4.11835 1.98093 0
M  V30 10452 C 992.031 4.97693 1.50326 0
M  V30 10453 C 989.716 4.57753 2.06803 0
M  V30 10454 C 991.71 6.27516 1.11813 0
M  V30 10455 C 989.397 5.87582 1.67902 0
M  V30 10456 C 990.395 6.72289 1.20485 0
M  V30 10457 O 990.083 7.99694 0.821219 0
M  V30 10458 H 989.815 0.557418 0.382442 0
M  V30 10459 H 992.369 1.97382 0.568292 0
M  V30 10460 H 990.599 2.31079 3.10063 0
M  V30 10461 H 992.288 2.7203 3.01255 0
M  V30 10462 H 993.054 4.63434 1.43018 0
M  V30 10463 H 988.933 3.91966 2.42659 0
M  V30 10464 H 992.477 6.93586 0.747317 0
M  V30 10465 H 988.374 6.21362 1.74869 0
M  V30 10466 H 989.142 8.12968 0.950038 0
M  V30 10467 N 991.805 -0.723954 1.39988 0
M  V30 10468 C 993.221 -1.03095 1.21834 0
M  V30 10469 C 993.421 -2.01309 0.0876647 0
M  V30 10470 O 992.477 -2.46277 -0.55714 0
M  V30 10471 C 993.79 -1.58267 2.5568 0
M  V30 10472 C 995.338 -1.70293 2.6262 0
M  V30 10473 C 995.813 -2.28872 3.96713 0
M  V30 10474 N 997.304 -2.36269 3.98411 0
M  V30 10475 C 998.039 -2.82557 4.98948 0
M  V30 10476 N 997.535 -3.28661 6.0988 0
M  V30 10477 N 999.328 -2.81866 4.86321 0
M  V30 10478 H 991.479 -0.0727891 2.12275 0
M  V30 10479 H 993.742 -0.0949029 0.943238 0
M  V30 10480 H 993.448 -0.935642 3.39026 0
M  V30 10481 H 993.322 -2.56914 2.76179 0
M  V30 10482 H 995.709 -2.34115 1.7965 0
M  V30 10483 H 995.79 -0.70268 2.45959 0
M  V30 10484 H 995.434 -1.65675 4.80119 0
M  V30 10485 H 995.364 -3.29595 4.107 0
M  V30 10486 H 997.855 -2.03697 3.18302 0
M  V30 10487 H 998.168 -3.62524 6.82493 0
M  V30 10488 H 996.513 -3.26641 6.13458 0
M  V30 10489 H 999.704 -2.45179 3.98754 0
M  V30 10490 H 999.877 -3.17626 5.64817 0
M  V30 10491 N 993.283 -1.25346 -0.955304 0
M  V30 10492 C 994.523 -1.11259 -1.71467 0
M  V30 10493 C 994.887 0.340759 -1.88952 0
M  V30 10494 O 996.088 0.60344 -2.61939 0
M  V30 10495 C 994.359 -1.84541 -3.06071 0
M  V30 10496 S 995.918 -1.86337 -3.97271 0
M  V30 10497 H 992.736 -0.397683 -0.58938 0
M  V30 10498 H 995.338 -1.58861 -1.13945 0
M  V30 10499 H 994.042 -2.89377 -2.91014 0
M  V30 10500 H 993.573 -1.37323 -3.68654 0
M  V30 10501 H 995.588 -0.939925 -4.87216 0
M  V30 10502 N 994.761 1.15782 -1.06922 0
M  V30 10503 C 996.177 1.38454 -0.793896 0
M  V30 10504 C 996.377 1.92238 0.603875 0
M  V30 10505 O 995.433 2.1253 1.36335 0
M  V30 10506 C 996.746 2.3595 -1.86408 0
M  V30 10507 C 998.294 2.49622 -1.88833 0
M  V30 10508 C 998.769 3.50406 -2.94923 0
M  V30 10509 N 1000.26 3.57938 -2.93997 0
M  V30 10510 C 1001 4.35728 -3.72731 0
M  V30 10511 N 1000.49 5.16888 -4.61301 0
M  V30 10512 N 1002.28 4.30774 -3.61096 0
M  V30 10513 H 994.435 0.792101 -1.97077 0
M  V30 10514 H 996.698 0.410779 -0.85438 0
M  V30 10515 H 996.404 2.03537 -2.86819 0
M  V30 10516 H 996.278 3.35677 -1.72049 0
M  V30 10517 H 998.665 2.81335 -0.890759 0
M  V30 10518 H 998.746 1.49909 -2.0727 0
M  V30 10519 H 998.39 3.19429 -3.94877 0
M  V30 10520 H 998.32 4.49864 -2.73734 0
M  V30 10521 H 1000.81 3.00007 -2.29791 0
M  V30 10522 H 1001.12 5.73477 -5.18019 0
M  V30 10523 H 999.469 5.16209 -4.65353 0
M  V30 10524 H 1002.66 3.66432 -2.91282 0
M  V30 10525 H 1002.83 4.91151 -4.22699 0
M  V30 10526 N 996.239 0.8527 1.3254 0
M  V30 10527 C 997.487 0.454224 1.96929 0
M  V30 10528 C 997.808 -0.993034 1.67821 0
M  V30 10529 O 997.078 -1.69371 0.984393 0
M  V30 10530 H 995.658 0.164977 0.728554 0
M  V30 10531 H 998.32 1.0887 1.61658 0
M  V30 10532 H 997.416 0.597667 3.06324 0
M  V30 10533 N 997.718 -1.45297 0.610449 0
M  V30 10534 C 998.966 -2.01819 0.106548 0
M  V30 10535 C 999.287 -1.48102 -1.26849 0
M  V30 10536 O 998.557 -0.676411 -1.83852 0
M  V30 10537 H 997.137 -0.746113 0.0363982 0
M  V30 10538 H 999.799 -1.78061 0.792491 0
M  V30 10539 H 998.895 -3.12045 0.0585 0
M  V30 10540 N 999.196 -0.349774 -1.5367 0
M  V30 10541 C 1000.44 0.245095 -2.02925 0
M  V30 10542 C 1000.8 1.4727 -1.23189 0
M  V30 10543 O 1002 2.14215 -1.62374 0
M  V30 10544 C 1000.27 0.545392 -3.53214 0
M  V30 10545 S 1001.83 1.11619 -4.24366 0
M  V30 10546 H 998.649 0.0725368 -0.70729 0
M  V30 10547 H 1001.25 -0.488979 -1.89286 0
M  V30 10548 H 999.955 -0.355786 -4.08855 0
M  V30 10549 H 999.486 1.30897 -3.70985 0
M  V30 10550 H 1001.5 2.40151 -4.34214 0
M  V30 10551 N 1000.67 1.57404 -0.0785433 0
M  V30 10552 C 1002.08 1.81118 0.45311 0
M  V30 10553 C 1002.44 0.992963 1.69218 0
M  V30 10554 O 1001.56 0.217448 2.15305 0
M  V30 10555 C 1002.16 3.28506 0.82882 0
M  V30 10556 C 1000.71 3.53042 1.3053 0
M  V30 10557 C 999.862 2.75739 0.29378 0
M  V30 10558 H 1002.81 1.55758 -0.304171 0
M  V30 10559 H 1002.83 3.40924 1.68971 0
M  V30 10560 H 1002.35 3.88031 -0.0731826 0
M  V30 10561 H 1000.45 2.98829 2.22558 0
M  V30 10562 H 1000.56 4.61724 1.27857 0
M  V30 10563 H 998.924 2.42703 0.772477 0
M  V30 10564 H 999.707 3.38005 -0.600613 0
M  V30 10565 N 1002.15 -0.195058 1.56388 0
M  V30 10566 C 1003.11 -1.2254 1.93692 0
M  V30 10567 C 1004.11 -1.38437 0.81804 0
M  V30 10568 O 1005.3 -1.36248 1.08545 0
M  V30 10569 C 1002.44 -2.59476 2.21099 0
M  V30 10570 H 1003.63 -0.906544 2.8587 0
M  V30 10571 H 1001.18 -0.436577 1.50079 0
M  V30 10572 H 1001.92 -2.96417 1.31558 0
M  V30 10573 H 1001.7 -2.4931 3.02634 0
M  V30 10574 H 1003.19 -3.33777 2.50964 0
M  V30 10575 N 1003.63 -1.50653 -0.462772 0
M  V30 10576 C 1004.91 -1.5258 -1.22387 0
M  V30 10577 C 1005.29 -0.275263 -2.09298 0
M  V30 10578 O 1004.63 0.740943 -2.16153 0
M  V30 10579 C 1004.84 -2.82611 -2.04773 0
M  V30 10580 C 1006.19 -3.33592 -2.62681 0
M  V30 10581 O 1007.22 -2.83989 -2.15008 0
M  V30 10582 O 1006.08 -4.20081 -3.49563 0
M  V30 10583 H 1003.17 -0.612367 -0.55582 0
M  V30 10584 H 1005.72 -1.62948 -0.473914 0
M  V30 10585 H 1004.49 -3.65098 -1.40781 0
M  V30 10586 H 1004.11 -2.75286 -2.86886 0
M  V30 10587 N 1005.11 0.71652 -1.4037 0
M  V30 10588 C 1006.35 1.47736 -1.39805 0
M  V30 10589 C 1006.71 1.924 0.000340438 0
M  V30 10590 O 1006 1.652 0.970547 0
M  V30 10591 C 1006.2 2.71777 -2.32103 0
M  V30 10592 C 1006.03 2.39245 -3.80778 0
M  V30 10593 C 1004.8 2.30632 -4.49597 0
M  V30 10594 C 1006.99 2.03576 -4.72294 0
M  V30 10595 N 1004.98 1.90764 -5.83509 0
M  V30 10596 C 1006.35 1.74302 -5.94995 0
M  V30 10597 C 1008.4 1.90204 -4.60138 0
M  V30 10598 C 1007.1 1.33001 -7.06897 0
M  V30 10599 C 1009.13 1.50307 -5.71981 0
M  V30 10600 C 1008.49 1.2193 -6.93767 0
M  V30 10601 H 1004.59 0.538721 -0.566836 0
M  V30 10602 H 1007.18 0.831018 -1.76074 0
M  V30 10603 H 1005.35 3.34163 -1.97963 0
M  V30 10604 H 1007.08 3.38112 -2.22402 0
M  V30 10605 H 1003.83 2.48341 -4.03266 0
M  V30 10606 H 1004.26 1.73372 -6.54424 0
M  V30 10607 H 1008.9 2.10805 -3.66499 0
M  V30 10608 H 1006.62 1.11143 -8.0042 0
M  V30 10609 H 1010.2 1.4054 -5.6457 0
M  V30 10610 H 1009.08 0.915214 -7.78841 0
M  V30 10611 N 1006.59 1.25851 0.948643 0
M  V30 10612 C 1007.83 1.11119 1.69648 0
M  V30 10613 C 1008.17 -0.345995 1.91093 0
M  V30 10614 O 1007.44 -1.25467 1.48621 0
M  V30 10615 C 1007.72 1.87261 3.0758 0
M  V30 10616 C 1007.58 3.40842 2.93507 0
M  V30 10617 C 1008.9 1.6605 4.07573 0
M  V30 10618 H 1006.01 0.405052 0.615713 0
M  V30 10619 H 1008.66 1.54756 1.10229 0
M  V30 10620 H 1006.81 1.50172 3.58303 0
M  V30 10621 H 1008.48 3.87641 2.50064 0
M  V30 10622 H 1006.72 3.68248 2.29294 0
M  V30 10623 H 1007.39 3.89339 3.91305 0
M  V30 10624 H 1009.87 1.98348 3.65783 0
M  V30 10625 H 1008.74 2.21753 5.02113 0
M  V30 10626 H 1009.01 0.603256 4.37965 0
M  V30 10627 N 1008.06 -1.15214 1.07534 0
M  V30 10628 C 1009.31 -1.86548 0.810651 0
M  V30 10629 C 1009.67 -1.80863 -0.656236 0
M  V30 10630 O 1008.96 -1.22216 -1.47559 0
M  V30 10631 C 1009.15 -3.34623 1.25547 0
M  V30 10632 C 1008.98 -3.54725 2.76406 0
M  V30 10633 C 1007.75 -3.70089 3.44038 0
M  V30 10634 C 1009.95 -3.52392 3.74599 0
M  V30 10635 N 1007.93 -3.78262 4.8352 0
M  V30 10636 C 1009.3 -3.66701 4.9993 0
M  V30 10637 C 1011.36 -3.35677 3.6773 0
M  V30 10638 C 1010.06 -3.66023 6.19209 0
M  V30 10639 C 1012.09 -3.36298 4.86475 0
M  V30 10640 C 1011.45 -3.51139 6.1064 0
M  V30 10641 H 1007.55 -0.699691 0.349223 0
M  V30 10642 H 1010.13 -1.3815 1.37196 0
M  V30 10643 H 1008.3 -3.81633 0.721837 0
M  V30 10644 H 1010.03 -3.93677 0.938126 0
M  V30 10645 H 1006.79 -3.70943 2.94446 0
M  V30 10646 H 1007.21 -3.86087 5.56117 0
M  V30 10647 H 1011.86 -3.2312 2.72678 0
M  V30 10648 H 1009.57 -3.77358 7.14581 0
M  V30 10649 H 1013.16 -3.2459 4.82838 0
M  V30 10650 H 1012.04 -3.51555 7.00984 0
M  V30 10651 N 1009.54 -0.859717 -1.32086 0
M  V30 10652 C 1010.79 -0.461779 -1.96343 0
M  V30 10653 C 1011.1 0.988837 -1.68764 0
M  V30 10654 O 1012.31 1.49244 -2.268 0
M  V30 10655 C 1010.77 -0.77484 -3.5146 0
M  V30 10656 C 1010.37 -2.24153 -3.87891 0
M  V30 10657 C 1012.12 -0.444873 -4.22162 0
M  V30 10658 C 1010.03 -2.49754 -5.36075 0
M  V30 10659 H 1008.96 -0.168951 -0.734828 0
M  V30 10660 H 1011.61 -1.0512 -1.50406 0
M  V30 10661 H 1009.99 -0.114792 -3.95834 0
M  V30 10662 H 1011.16 -2.94378 -3.54511 0
M  V30 10663 H 1009.48 -2.53651 -3.30227 0
M  V30 10664 H 1012.07 -0.613508 -5.31169 0
M  V30 10665 H 1012.42 0.61391 -4.11749 0
M  V30 10666 H 1012.95 -1.06103 -3.83389 0
M  V30 10667 H 1009.69 -3.54276 -5.51515 0
M  V30 10668 H 1009.21 -1.84112 -5.70844 0
M  V30 10669 H 1010.89 -2.3396 -6.03218 0
M  V30 10670 N 1011.02 1.44971 -0.618145 0
M  V30 10671 C 1012.27 2.02458 -0.117656 0
M  V30 10672 C 1012.6 1.48413 1.25248 0
M  V30 10673 O 1011.87 0.662997 1.82851 0
M  V30 10674 C 1012.16 3.59987 -0.0901897 0
M  V30 10675 C 1012.01 4.24343 -1.49175 0
M  V30 10676 C 1013.33 4.36099 0.592121 0
M  V30 10677 H 1010.45 0.735672 -0.0442291 0
M  V30 10678 H 1013.09 1.727 -0.792138 0
M  V30 10679 H 1011.24 3.85471 0.484175 0
M  V30 10680 H 1012.91 4.10009 -2.114 0
M  V30 10681 H 1011.16 3.82337 -2.04941 0
M  V30 10682 H 1011.83 5.33298 -1.42468 0
M  V30 10683 H 1014.3 4.1597 0.103813 0
M  V30 10684 H 1013.18 5.45822 0.580481 0
M  V30 10685 H 1013.44 4.09746 1.66015 0
M  V30 10686 N 1012.5 0.357919 1.53482 0
M  V30 10687 C 1013.91 -0.122938 1.86295 0
M  V30 10688 C 1014.26 -1.48803 1.27875 0
M  V30 10689 O 1013.39 -2.07978 0.597828 0
M  V30 10690 C 1013.98 -0.229853 3.38019 0
M  V30 10691 C 1012.54 -0.654955 3.70658 0
M  V30 10692 C 1011.69 0.202539 2.76559 0
M  V30 10693 H 1014.64 0.576997 1.47839 0
M  V30 10694 H 1014.66 -1.05481 3.65587 0
M  V30 10695 H 1014.17 0.763825 3.80509 0
M  V30 10696 H 1012.27 -1.65714 3.33721 0
M  V30 10697 H 1012.38 -0.43488 4.77122 0
M  V30 10698 H 1010.75 -0.327388 2.52587 0
M  V30 10699 H 1011.53 1.19361 3.21882 0
M  V30 10700 N 1013.98 -1.5736 0.0868897 0
M  V30 10701 C 1015.39 -1.81356 -0.443499 0
M  V30 10702 C 1015.74 -1.00192 -1.68689 0
M  V30 10703 O 1014.86 -0.228863 -2.15186 0
M  V30 10704 C 1015.46 -3.28941 -0.811387 0
M  V30 10705 C 1014.02 -3.53729 -1.28656 0
M  V30 10706 C 1013.16 -2.75891 -0.279153 0
M  V30 10707 H 1016.12 -1.55594 0.312427 0
M  V30 10708 H 1016.14 -3.41815 -1.6716 0
M  V30 10709 H 1015.65 -3.87987 0.0937598 0
M  V30 10710 H 1013.75 -3.00005 -2.2097 0
M  V30 10711 H 1013.86 -4.62396 -1.25406 0
M  V30 10712 H 1012.23 -2.4311 -0.759595 0
M  V30 10713 H 1013.01 -3.37682 0.618529 0
M  V30 10714 N 1015.45 0.186762 -1.56489 0
M  V30 10715 C 1016.39 1.25971 -1.9028 0
M  V30 10716 C 1017.37 1.43543 -0.763822 0
M  V30 10717 O 1018.55 1.58799 -1.01564 0
M  V30 10718 C 1015.68 2.62507 -2.14028 0
M  V30 10719 C 1014.72 2.61758 -3.36727 0
M  V30 10720 S 1015.56 2.12366 -4.9159 0
M  V30 10721 C 1016.71 3.5071 -5.18414 0
M  V30 10722 H 1016.94 0.971203 -2.80989 0
M  V30 10723 H 1014.48 0.390636 -1.49377 0
M  V30 10724 H 1016.44 3.41098 -2.28391 0
M  V30 10725 H 1015.1 2.88564 -1.24054 0
M  V30 10726 H 1014.29 3.62173 -3.50495 0
M  V30 10727 H 1013.89 1.91254 -3.214 0
M  V30 10728 H 1016.18 4.46622 -5.09445 0
M  V30 10729 H 1017.13 3.41829 -6.20128 0
M  V30 10730 H 1017.53 3.46008 -4.46026 0
M  V30 10731 N 1016.93 1.50896 0.454776 0
M  V30 10732 C 1018.16 1.66759 1.23313 0
M  V30 10733 C 1018.58 0.35722 1.84677 0
M  V30 10734 O 1017.94 -0.680771 1.68033 0
M  V30 10735 C 1017.99 2.77254 2.3057 0
M  V30 10736 O 1017.09 2.39642 3.35627 0
M  V30 10737 H 1016.43 0.556599 0.362068 0
M  V30 10738 H 1018.96 1.97365 0.539274 0
M  V30 10739 H 1018.97 3.0082 2.75629 0
M  V30 10740 H 1017.65 3.72349 1.85281 0
M  V30 10741 H 1016.23 2.26584 2.96165 0
M  V30 10742 N 1018.41 -0.709066 1.40748 0
M  V30 10743 C 1019.66 -1.46611 1.39103 0
M  V30 10744 C 1019.98 -1.95 -0.00365366 0
M  V30 10745 O 1019.25 -1.70791 -0.959541 0
M  V30 10746 H 1017.83 -0.543954 0.511979 0
M  V30 10747 H 1020.49 -0.840141 1.75863 0
M  V30 10748 H 1019.59 -2.33581 2.06994 0
M  V30 10749 N 1019.89 -1.26353 -0.941956 0
M  V30 10750 C 1021.11 -1.14731 -1.72776 0
M  V30 10751 C 1021.54 0.293766 -1.85792 0
M  V30 10752 O 1020.9 1.21284 -1.34759 0
M  V30 10753 C 1020.95 -1.82041 -3.11277 0
M  V30 10754 O 1020.05 -1.10867 -3.97218 0
M  V30 10755 H 1019.39 -0.399823 -0.53013 0
M  V30 10756 H 1021.92 -1.67157 -1.17981 0
M  V30 10757 H 1021.93 -1.88834 -3.61671 0
M  V30 10758 H 1020.61 -2.86879 -3.0112 0
M  V30 10759 H 1019.18 -1.12044 -3.55669 0
M  V30 10760 N 1021.37 1.14642 -1.08144 0
M  V30 10761 C 1022.62 1.84964 -0.804437 0
M  V30 10762 C 1022.93 1.8369 0.672106 0
M  V30 10763 O 1024.14 2.49775 1.06417 0
M  V30 10764 C 1022.59 3.32015 -1.38904 0
M  V30 10765 C 1022.2 3.41713 -2.89718 0
M  V30 10766 C 1023.94 4.07467 -1.19041 0
M  V30 10767 C 1021.85 4.82958 -3.41329 0
M  V30 10768 H 1020.78 0.692932 -0.297256 0
M  V30 10769 H 1023.43 1.29255 -1.30251 0
M  V30 10770 H 1021.81 3.87445 -0.818679 0
M  V30 10771 H 1022.99 2.96347 -3.52867 0
M  V30 10772 H 1021.3 2.79713 -3.08463 0
M  V30 10773 H 1023.9 5.1172 -1.55069 0
M  V30 10774 H 1024.24 4.16097 -0.130027 0
M  V30 10775 H 1024.78 3.58329 -1.72757 0
M  V30 10776 H 1021.51 4.79515 -4.46929 0
M  V30 10777 H 1021.03 5.28873 -2.82937 0
M  V30 10778 H 1022.71 5.51841 -3.37759 0
M  V30 10779 N 1022.85 0.866709 1.31628 0
M  V30 10780 C 1024.07 0.49039 2.01004 0
M  V30 10781 C 1024.49 -0.916244 1.65077 0
M  V30 10782 O 1023.85 -1.59975 0.8783 0
M  V30 10783 C 1023.9 0.634011 3.55897 0
M  V30 10784 O 1023.62 1.98525 3.90537 0
M  V30 10785 C 1025.12 0.258277 4.42547 0
M  V30 10786 H 1022.34 0.191421 0.643117 0
M  V30 10787 H 1024.88 1.16698 1.67934 0
M  V30 10788 H 1023.04 0.00501801 3.874 0
M  V30 10789 H 1023.45 1.99067 4.85255 0
M  V30 10790 H 1024.93 0.409733 5.50477 0
M  V30 10791 H 1025.4 -0.802301 4.3181 0
M  V30 10792 H 1026.01 0.862837 4.16456 0
M  V30 10793 N 1024.32 -1.44642 0.625825 0
M  V30 10794 C 1025.73 -1.85502 0.211175 0
M  V30 10795 C 1026.09 -1.52356 -1.2362 0
M  V30 10796 O 1025.21 -0.959051 -1.93988 0
M  V30 10797 C 1025.81 -3.36702 0.37648 0
M  V30 10798 C 1024.36 -3.76396 0.0163795 0
M  V30 10799 C 1023.51 -2.68517 0.692368 0
M  V30 10800 H 1026.46 -1.35183 0.831333 0
M  V30 10801 H 1026.48 -3.78536 -0.386106 0
M  V30 10802 H 1026 -3.60795 1.42999 0
M  V30 10803 H 1024.1 -3.57919 -1.0356 0
M  V30 10804 H 1024.21 -4.77231 0.422742 0
M  V30 10805 H 1022.57 -2.54377 0.128191 0
M  V30 10806 H 1023.36 -2.95444 1.74837 0
M  V30 10807 N 1025.8 -0.366053 -1.5329 0
M  V30 10808 C 1027.05 0.223824 -2.01561 0
M  V30 10809 C 1027.38 1.48382 -1.25286 0
M  V30 10810 O 1026.66 1.91385 -0.34669 0
M  V30 10811 C 1026.94 0.5153 -3.56394 0
M  V30 10812 C 1026.79 -0.758357 -4.43361 0
M  V30 10813 C 1028.11 1.31568 -4.19974 0
M  V30 10814 H 1025.23 0.0798751 -0.732659 0
M  V30 10815 H 1027.87 -0.491038 -1.83545 0
M  V30 10816 H 1026.02 1.12429 -3.71876 0
M  V30 10817 H 1027.69 -1.39584 -4.39675 0
M  V30 10818 H 1025.94 -1.37862 -4.11311 0
M  V30 10819 H 1026.61 -0.509366 -5.49645 0
M  V30 10820 H 1029.08 0.800514 -4.08327 0
M  V30 10821 H 1027.96 1.48837 -5.28336 0
M  V30 10822 H 1028.22 2.32432 -3.76069 0
M  V30 10823 N 1027.28 1.57312 -0.0952337 0
M  V30 10824 C 1028.53 1.94358 0.568442 0
M  V30 10825 C 1028.85 0.97698 1.68182 0
M  V30 10826 O 1028.11 -0.00340398 1.957 0
M  V30 10827 C 1028.41 3.37937 1.16332 0
M  V30 10828 C 1028.07 4.50565 0.173715 0
M  V30 10829 C 1026.74 4.81099 -0.0984673 0
M  V30 10830 C 1029.09 5.18777 -0.501992 0
M  V30 10831 C 1026.42 5.77172 -1.05305 0
M  V30 10832 C 1028.77 6.15874 -1.44505 0
M  V30 10833 C 1027.43 6.44813 -1.72546 0
M  V30 10834 H 1026.7 0.711206 0.208007 0
M  V30 10835 H 1029.35 1.90734 -0.171096 0
M  V30 10836 H 1027.65 3.3814 1.97911 0
M  V30 10837 H 1029.35 3.63902 1.68453 0
M  V30 10838 H 1025.94 4.26766 0.396042 0
M  V30 10839 H 1030.13 4.95363 -0.304855 0
M  V30 10840 H 1025.38 5.97909 -1.2773 0
M  V30 10841 H 1029.56 6.67824 -1.97444 0
M  V30 10842 H 1027.18 7.19067 -2.46671 0
M  V30 10843 N 1028.76 -0.17846 1.56586 0
M  V30 10844 C 1029.71 -1.22552 1.92263 0
M  V30 10845 C 1030.69 -1.40163 0.790131 0
M  V30 10846 O 1031.88 -1.42254 1.05322 0
M  V30 10847 C 1029.01 -2.5666 2.27993 0
M  V30 10848 C 1028.1 -2.42772 3.47739 0
M  V30 10849 N 1028.49 -1.98588 4.65185 0
M  V30 10850 C 1026.79 -2.73619 3.52205 0
M  V30 10851 C 1027.49 -1.96991 5.47329 0
M  V30 10852 N 1026.46 -2.39126 4.8818 0
M  V30 10853 H 1030.27 -0.875493 2.80557 0
M  V30 10854 H 1027.78 -0.386785 1.57727 0
M  V30 10855 H 1029.78 -3.32312 2.51743 0
M  V30 10856 H 1028.44 -2.92472 1.41034 0
M  V30 10857 H 1029.45 -1.69036 4.89538 0
M  V30 10858 H 1026.13 -3.13516 2.75706 0
M  V30 10859 H 1027.52 -1.64589 6.51429 0
M  V30 10860 N 1030.24 -1.51135 -0.446768 0
M  V30 10861 C 1031.17 -1.67949 -1.55967 0
M  V30 10862 C 1032.18 -0.560337 -1.52853 0
M  V30 10863 O 1033.37 -0.83435 -1.578 0
M  V30 10864 C 1030.47 -1.6703 -2.9488 0
M  V30 10865 C 1029.64 -2.95377 -3.22601 0
M  V30 10866 C 1028.7 -2.86772 -4.4119 0
M  V30 10867 O 1027.73 -3.60722 -4.40304 0
M  V30 10868 N 1028.93 -2.01979 -5.44228 0
M  V30 10869 H 1031.69 -2.63951 -1.41951 0
M  V30 10870 H 1029.26 -1.48903 -0.635569 0
M  V30 10871 H 1031.25 -1.58854 -3.7222 0
M  V30 10872 H 1029.82 -0.786623 -3.02541 0
M  V30 10873 H 1029.04 -3.17494 -2.33647 0
M  V30 10874 H 1030.33 -3.80356 -3.37945 0
M  V30 10875 H 1029.72 -1.41257 -5.4778 0
M  V30 10876 H 1028.28 -1.99689 -6.20457 0
M  V30 10877 N 1031.71 0.701592 -1.41122 0
M  V30 10878 C 1032.62 1.84548 -1.44841 0
M  V30 10879 C 1033.64 1.70654 -0.339594 0
M  V30 10880 O 1034.82 1.92675 -0.586378 0
M  V30 10881 C 1031.88 3.20477 -1.3227 0
M  V30 10882 C 1030.94 3.46524 -2.53415 0
M  V30 10883 C 1030.17 4.75968 -2.41434 0
M  V30 10884 O 1030.4 5.52037 -1.43566 0
M  V30 10885 O 1029.33 5.02664 -3.31078 0
M  V30 10886 H 1033.16 1.84367 -2.41335 0
M  V30 10887 H 1030.74 0.853863 -1.22595 0
M  V30 10888 H 1032.62 4.01642 -1.2752 0
M  V30 10889 H 1031.3 3.21355 -0.388889 0
M  V30 10890 H 1030.21 2.65313 -2.63742 0
M  V30 10891 H 1031.54 3.50455 -3.45604 0
M  V30 10892 N 1033.19 1.2685 0.935242 0
M  V30 10893 C 1034.12 1.03244 2.03509 0
M  V30 10894 C 1035.1 -0.0447323 1.62538 0
M  V30 10895 O 1036.29 0.0988905 1.8824 0
M  V30 10896 C 1033.41 0.564626 3.33961 0
M  V30 10897 C 1032.46 1.63524 3.93906 0
M  V30 10898 S 1033.29 3.22577 4.27439 0
M  V30 10899 C 1034.45 2.77579 5.60982 0
M  V30 10900 H 1034.68 1.96367 2.2322 0
M  V30 10901 H 1032.21 1.10597 1.07739 0
M  V30 10902 H 1034.17 0.301388 4.09392 0
M  V30 10903 H 1032.83 -0.346419 3.12184 0
M  V30 10904 H 1032.03 1.25905 4.8802 0
M  V30 10905 H 1031.63 1.85017 3.25031 0
M  V30 10906 H 1033.92 2.22412 6.39952 0
M  V30 10907 H 1034.86 3.70408 6.03493 0
M  V30 10908 H 1035.27 2.16956 5.21143 0
M  V30 10909 N 1034.67 -1.14067 1.0875 0
M  V30 10910 C 1035.6 -2.21385 0.74236 0
M  V30 10911 C 1036.58 -1.67833 -0.276805 0
M  V30 10912 O 1037.77 -1.93647 -0.1464 0
M  V30 10913 C 1034.9 -3.46956 0.154644 0
M  V30 10914 C 1033.85 -4.13555 1.10255 0
M  V30 10915 C 1033.18 -5.3337 0.376877 0
M  V30 10916 C 1034.48 -4.6169 2.44213 0
M  V30 10917 H 1036.17 -2.50512 1.63964 0
M  V30 10918 H 1033.72 -1.20408 0.789807 0
M  V30 10919 H 1035.67 -4.21284 -0.0988419 0
M  V30 10920 H 1034.39 -3.17203 -0.777789 0
M  V30 10921 H 1033.05 -3.41186 1.34119 0
M  V30 10922 H 1032.7 -4.99879 -0.559472 0
M  V30 10923 H 1032.4 -5.78875 1.00884 0
M  V30 10924 H 1033.92 -6.10458 0.131527 0
M  V30 10925 H 1035.34 -5.27475 2.24595 0
M  V30 10926 H 1033.74 -5.17909 3.03134 0
M  V30 10927 H 1034.81 -3.76574 3.05483 0
M  V30 10928 N 1036.15 -0.873678 -1.31166 0
M  V30 10929 C 1037.1 -0.321349 -2.3037 0
M  V30 10930 C 1038.09 0.565568 -1.5968 0
M  V30 10931 O 1039.3 0.451257 -1.74252 0
M  V30 10932 H 1035.67 -0.0852425 -0.747153 0
M  V30 10933 H 1037.64 -1.17191 -2.74425 0
M  V30 10934 C 1036.39 0.459016 -3.44657 0
M  V30 10935 H 1035.71 -0.214185 -3.99226 0
M  V30 10936 H 1037.15 0.810758 -4.16176 0
M  V30 10937 C 1035.61 1.65173 -2.93632 0
M  V30 10938 O 1036.14 2.75105 -2.92711 0
M  V30 10939 N 1034.35 1.4851 -2.49786 0
M  V30 10940 H 1033.9 0.590785 -2.50734 0
M  V30 10941 H 1033.85 2.28452 -2.16002 0
M  V30 10942 N 1037.63 1.44308 -0.633487 0
M  V30 10943 C 1038.86 2.06085 -0.145852 0
M  V30 10944 C 1039.26 1.47432 1.18577 0
M  V30 10945 O 1038.61 0.592575 1.7388 0
M  V30 10946 C 1038.67 3.59477 0.0407848 0
M  V30 10947 C 1038.33 4.40607 -1.21304 0
M  V30 10948 C 1039.33 4.73937 -2.13728 0
M  V30 10949 C 1037.02 4.80943 -1.44911 0
M  V30 10950 C 1039.01 5.46489 -3.28068 0
M  V30 10951 C 1036.7 5.53243 -2.59548 0
M  V30 10952 C 1037.69 5.85936 -3.50953 0
M  V30 10953 O 1037.38 6.56764 -4.6359 0
M  V30 10954 H 1037.11 0.671484 -0.0780085 0
M  V30 10955 H 1039.67 1.86128 -0.868658 0
M  V30 10956 H 1037.9 3.77933 0.818761 0
M  V30 10957 H 1039.59 4.03013 0.483273 0
M  V30 10958 H 1040.35 4.43311 -1.96725 0
M  V30 10959 H 1036.23 4.54915 -0.746537 0
M  V30 10960 H 1039.78 5.71924 -3.99435 0
M  V30 10961 H 1035.67 5.83285 -2.76493 0
M  V30 10962 H 1036.44 6.75234 -4.62602 0
M  V30 10963 N 1039.1 0.374177 1.53094 0
M  V30 10964 C 1040.52 0.0234783 1.59583 0
M  V30 10965 C 1040.72 -1.45984 1.38892 0
M  V30 10966 O 1039.78 -2.22251 1.19836 0
M  V30 10967 C 1041.09 0.487117 2.96728 0
M  V30 10968 C 1042.64 0.442073 3.09862 0
M  V30 10969 C 1043.11 0.881659 4.49434 0
M  V30 10970 N 1044.6 0.837062 4.55574 0
M  V30 10971 C 1045.34 1.14878 5.61774 0
M  V30 10972 N 1044.83 1.53022 6.75689 0
M  V30 10973 N 1046.63 1.07102 5.51802 0
M  V30 10974 H 1038.78 1.34003 1.64794 0
M  V30 10975 H 1041.04 0.548281 0.773364 0
M  V30 10976 H 1040.75 1.52252 3.17037 0
M  V30 10977 H 1040.62 -0.121772 3.77003 0
M  V30 10978 H 1043.01 -0.584216 2.89259 0
M  V30 10979 H 1043.09 1.08657 2.31576 0
M  V30 10980 H 1042.73 1.90611 4.70776 0
M  V30 10981 H 1042.66 0.214326 5.26164 0
M  V30 10982 H 1045.15 0.556173 3.73785 0
M  V30 10983 H 1045.47 1.75211 7.52676 0
M  V30 10984 H 1043.81 1.56895 6.77059 0
M  V30 10985 H 1047 0.772149 4.61688 0
M  V30 10986 H 1047.18 1.31728 6.3447 0
M  V30 10987 N 1040.58 -1.57259 0.103575 0
M  V30 10988 C 1041.51 -2.17509 -0.84923 0
M  V30 10989 C 1042.49 -1.11079 -1.28824 0
M  V30 10990 O 1043.68 -1.39252 -1.35361 0
M  V30 10991 C 1040.81 -2.76221 -2.10522 0
M  V30 10992 C 1039.76 -3.88098 -1.80454 0
M  V30 10993 C 1039.09 -4.33549 -3.12952 0
M  V30 10994 C 1040.39 -5.10909 -1.08486 0
M  V30 10995 H 1042.08 -2.9738 -0.347217 0
M  V30 10996 H 1039.63 -1.43045 -0.165568 0
M  V30 10997 H 1041.58 -3.17024 -2.77621 0
M  V30 10998 H 1040.31 -1.93617 -2.63021 0
M  V30 10999 H 1038.96 -3.47847 -1.15749 0
M  V30 11000 H 1038.61 -3.47825 -3.63355 0
M  V30 11001 H 1038.31 -5.08984 -2.93614 0
M  V30 11002 H 1039.84 -4.76992 -3.81196 0
M  V30 11003 H 1041.25 -5.48828 -1.65711 0
M  V30 11004 H 1039.65 -5.91828 -0.992973 0
M  V30 11005 H 1040.72 -4.84851 -0.0690108 0
M  V30 11006 N 1042.06 0.170153 -1.56679 0
M  V30 11007 C 1043.29 0.902134 -1.86197 0
M  V30 11008 C 1043.7 1.75775 -0.689098 0
M  V30 11009 O 1043.06 1.79271 0.341763 0
M  V30 11010 C 1043.11 1.77792 -3.14757 0
M  V30 11011 O 1042.83 0.956817 -4.27524 0
M  V30 11012 C 1044.33 2.61947 -3.57629 0
M  V30 11013 H 1041.55 0.262026 -0.617724 0
M  V30 11014 H 1044.1 0.169899 -2.03793 0
M  V30 11015 H 1042.25 2.46348 -2.98984 0
M  V30 11016 H 1042.67 1.5559 -5.00891 0
M  V30 11017 H 1044.14 3.19011 -4.50484 0
M  V30 11018 H 1044.62 3.36873 -2.81803 0
M  V30 11019 H 1045.22 1.98721 -3.76019 0
M  V30 11020 N 1043.54 1.5137 0.438746 0
M  V30 11021 C 1044.95 1.56462 1.01866 0
M  V30 11022 C 1045.3 0.387244 1.9234 0
M  V30 11023 O 1044.43 -0.496131 2.10636 0
M  V30 11024 C 1045.02 2.83557 1.85421 0
M  V30 11025 C 1043.58 2.91224 2.38464 0
M  V30 11026 C 1042.73 2.51109 1.17641 0
M  V30 11027 H 1045.68 1.57167 0.220072 0
M  V30 11028 H 1045.7 2.6724 2.70857 0
M  V30 11029 H 1045.21 3.69229 1.19546 0
M  V30 11030 H 1043.31 2.09979 3.07798 0
M  V30 11031 H 1043.42 3.94844 2.71358 0
M  V30 11032 H 1041.79 2.04276 1.5213 0
M  V30 11033 H 1042.57 3.39125 0.533785 0
M  V30 11034 N 1045.02 -0.694098 1.41492 0
M  V30 11035 C 1046.24 -1.48789 1.44488 0
M  V30 11036 C 1046.67 -1.88028 0.0521588 0
M  V30 11037 O 1046.02 -1.54727 -0.944952 0
M  V30 11038 C 1046.07 -2.72586 2.3607 0
M  V30 11039 O 1045.18 -3.70128 1.81876 0
M  V30 11040 H 1044.52 -0.447758 0.490315 0
M  V30 11041 H 1047.05 -0.853036 1.85969 0
M  V30 11042 H 1047.06 -3.20877 2.51995 0
M  V30 11043 H 1045.73 -2.43363 3.37264 0
M  V30 11044 H 1044.31 -3.29069 1.75408 0
M  V30 11045 N 1046.49 -1.27344 -0.928501 0
M  V30 11046 C 1047.74 -1.13635 -1.6761 0
M  V30 11047 C 1048.07 0.317957 -1.91884 0
M  V30 11048 O 1047.32 1.24904 -1.50657 0
M  V30 11049 C 1047.62 -1.86439 -3.04918 0
M  V30 11050 C 1047.29 -3.36298 -3.00358 0
M  V30 11051 C 1045.95 -3.77173 -2.98821 0
M  V30 11052 C 1048.3 -4.31921 -2.91708 0
M  V30 11053 C 1045.63 -5.12037 -2.86417 0
M  V30 11054 C 1047.98 -5.66841 -2.80846 0
M  V30 11055 C 1046.65 -6.07011 -2.77659 0
M  V30 11056 H 1045.92 -0.415821 -0.61333 0
M  V30 11057 H 1048.56 -1.57943 -1.08288 0
M  V30 11058 H 1046.87 -1.34638 -3.6794 0
M  V30 11059 H 1048.57 -1.73261 -3.61637 0
M  V30 11060 H 1045.16 -3.0379 -3.0234 0
M  V30 11061 H 1049.34 -4.01314 -2.91994 0
M  V30 11062 H 1044.6 -5.42307 -2.82336 0
M  V30 11063 H 1048.77 -6.40608 -2.73119 0
M  V30 11064 H 1046.4 -7.11467 -2.67804 0
M  V30 11065 N 1047.97 1.13488 -1.09353 0
M  V30 11066 C 1048.88 2.2248 -0.744307 0
M  V30 11067 C 1049.9 1.72145 0.253404 0
M  V30 11068 O 1051.07 2.01176 0.0949339 0
M  V30 11069 C 1048.14 3.46286 -0.16928 0
M  V30 11070 C 1047.2 4.11516 -1.22284 0
M  V30 11071 C 1046.43 5.29412 -0.675161 0
M  V30 11072 O 1046.66 5.68185 0.502182 0
M  V30 11073 O 1045.59 5.8467 -1.42983 0
M  V30 11074 H 1049.42 2.54723 -1.65378 0
M  V30 11075 H 1047 1.21607 -0.867879 0
M  V30 11076 H 1048.88 4.2114 0.14811 0
M  V30 11077 H 1047.56 3.15745 0.713214 0
M  V30 11078 H 1046.47 3.38492 -1.59292 0
M  V30 11079 H 1047.8 4.46186 -2.07796 0
M  V30 11080 N 1049.45 0.880621 1.30701 0
M  V30 11081 C 1050.68 0.51094 2.00182 0
M  V30 11082 C 1051.09 -0.903914 1.66211 0
M  V30 11083 O 1050.43 -1.60529 0.893089 0
M  V30 11084 C 1050.49 0.600775 3.54445 0
M  V30 11085 C 1050.16 1.97915 4.1192 0
M  V30 11086 C 1051.16 2.94802 4.28238 0
M  V30 11087 C 1048.84 2.28336 4.47401 0
M  V30 11088 C 1050.83 4.20245 4.79242 0
M  V30 11089 C 1048.52 3.54026 4.98105 0
M  V30 11090 C 1049.52 4.49796 5.13978 0
M  V30 11091 O 1049.21 5.73256 5.63589 0
M  V30 11092 H 1048.94 0.196477 0.646818 0
M  V30 11093 H 1051.49 1.18659 1.67658 0
M  V30 11094 H 1049.72 -0.131832 3.86475 0
M  V30 11095 H 1051.41 0.242996 4.05172 0
M  V30 11096 H 1052.18 2.7261 4.01134 0
M  V30 11097 H 1048.06 1.54564 4.34317 0
M  V30 11098 H 1051.6 4.95003 4.91546 0
M  V30 11099 H 1047.5 3.76057 5.24644 0
M  V30 11100 H 1048.27 5.75577 5.81939 0
M  V30 11101 N 1050.93 -1.4397 0.641131 0
M  V30 11102 C 1051.86 -2.28997 -0.0963315 0
M  V30 11103 C 1052.87 -1.4184 -0.799071 0
M  V30 11104 O 1054.06 -1.65896 -0.658846 0
M  V30 11105 C 1051.16 -3.18465 -1.15903 0
M  V30 11106 C 1050.34 -4.34093 -0.536828 0
M  V30 11107 C 1049.4 -5.04522 -1.4948 0
M  V30 11108 O 1048.42 -5.60202 -1.00807 0
M  V30 11109 N 1049.62 -5.06899 -2.82901 0
M  V30 11110 H 1052.39 -2.9293 0.633422 0
M  V30 11111 H 1049.95 -1.54527 0.48302 0
M  V30 11112 H 1051.94 -3.62445 -1.80044 0
M  V30 11113 H 1050.51 -2.56214 -1.79089 0
M  V30 11114 H 1049.73 -3.9318 0.283414 0
M  V30 11115 H 1051.02 -5.08698 -0.101966 0
M  V30 11116 H 1050.42 -4.63012 -3.25017 0
M  V30 11117 H 1048.97 -5.54637 -3.42376 0
M  V30 11118 N 1052.41 -0.382291 -1.52893 0
M  V30 11119 C 1053.82 0.0932841 -1.86467 0
M  V30 11120 C 1054.17 1.4675 -1.30226 0
M  V30 11121 O 1053.29 2.07001 -0.63084 0
M  V30 11122 C 1053.89 0.176048 -3.38342 0
M  V30 11123 C 1052.45 0.595904 -3.71653 0
M  V30 11124 C 1051.6 -0.246511 -2.76202 0
M  V30 11125 H 1054.55 -0.600443 -1.46903 0
M  V30 11126 H 1054.57 0.996512 -3.67219 0
M  V30 11127 H 1054.08 -0.824264 -3.79246 0
M  V30 11128 H 1052.18 1.60384 -3.36315 0
M  V30 11129 H 1052.29 0.358919 -4.77754 0
M  V30 11130 H 1050.66 0.287162 -2.53076 0
M  V30 11131 H 1051.44 -1.24467 -3.19942 0
M  V30 11132 N 1053.89 1.57202 -0.111913 0
M  V30 11133 C 1055.16 1.86459 0.590972 0
M  V30 11134 C 1055.54 1.01182 1.85271 0
M  V30 11135 O 1054.89 0.0887891 2.28327 0
M  V30 11136 C 1055.1 3.37455 0.890225 0
M  V30 11137 C 1056.45 4.05895 1.24638 0
M  V30 11138 O 1057.47 3.42433 0.980713 0
M  V30 11139 O 1056.33 5.17903 1.74466 0
M  V30 11140 H 1053.43 0.771652 0.297459 0
M  V30 11141 H 1055.97 1.69072 -0.145882 0
M  V30 11142 H 1054.74 3.913 -0.00419012 0
M  V30 11143 H 1054.37 3.60248 1.68248 0
M  V30 11144 N 1055.36 -0.161842 1.56767 0
M  V30 11145 C 1056.77 -0.723385 1.72116 0
M  V30 11146 C 1057.13 -1.82355 0.723961 0
M  V30 11147 O 1056.25 -2.16107 -0.112643 0
M  V30 11148 C 1056.85 -1.31895 3.12072 0
M  V30 11149 C 1055.4 -1.82722 3.29074 0
M  V30 11150 C 1054.55 -0.709863 2.6806 0
M  V30 11151 H 1057.5 0.0636647 1.58572 0
M  V30 11152 H 1057.52 -2.18871 3.11249 0
M  V30 11153 H 1057.04 -0.51801 3.84627 0
M  V30 11154 H 1055.14 -2.6543 2.61491 0
M  V30 11155 H 1055.25 -1.96614 4.36898 0
M  V30 11156 H 1053.61 -1.13273 2.28126 0
M  V30 11157 H 1054.4 0.0793884 3.43208 0
M  V30 11158 N 1056.84 -1.516 -0.430713 0
M  V30 11159 C 1058.09 -1.65801 -1.17821 0
M  V30 11160 C 1058.44 -0.372769 -1.88754 0
M  V30 11161 O 1057.74 0.631767 -1.80885 0
M  V30 11162 C 1057.93 -2.804 -2.21609 0
M  V30 11163 C 1057.76 -4.19944 -1.60863 0
M  V30 11164 C 1056.53 -4.85786 -1.39068 0
M  V30 11165 C 1058.73 -5.02806 -1.08124 0
M  V30 11166 N 1056.71 -6.09425 -0.73989 0
M  V30 11167 C 1058.08 -6.17501 -0.556114 0
M  V30 11168 C 1060.13 -4.88288 -0.973635 0
M  V30 11169 C 1058.84 -7.1927 0.0660558 0
M  V30 11170 C 1060.86 -5.9027 -0.36535 0
M  V30 11171 C 1060.23 -7.04242 0.149205 0
M  V30 11172 H 1056.32 -0.660545 -0.418574 0
M  V30 11173 H 1058.91 -1.88847 -0.473799 0
M  V30 11174 H 1057.08 -2.59006 -2.89431 0
M  V30 11175 H 1058.81 -2.83747 -2.88565 0
M  V30 11176 H 1055.57 -4.4377 -1.65425 0
M  V30 11177 H 1055.99 -6.75622 -0.431745 0
M  V30 11178 H 1060.63 -4.00421 -1.35731 0
M  V30 11179 H 1058.35 -8.06779 0.461848 0
M  V30 11180 H 1061.94 -5.81107 -0.283902 0
M  V30 11181 H 1060.82 -7.81804 0.61249 0
M  V30 11182 N 1058.32 0.686584 -1.41858 0
M  V30 11183 C 1059.27 1.82167 -1.4463 0
M  V30 11184 C 1060.26 1.66286 -0.323313 0
M  V30 11185 O 1061.47 1.73038 -0.495773 0
M  V30 11186 H 1057.84 0.600454 -0.452724 0
M  V30 11187 H 1059.81 1.76947 -2.40276 0
M  V30 11188 C 1058.56 3.20248 -1.35412 0
M  V30 11189 H 1057.89 3.33089 -2.21115 0
M  V30 11190 H 1059.33 3.99723 -1.41413 0
M  V30 11191 C 1057.78 3.36832 -0.0674972 0
M  V30 11192 O 1058.31 3.91845 0.884325 0
M  V30 11193 N 1056.52 2.90598 0.011519 0
M  V30 11194 H 1056.07 2.46016 -0.76381 0
M  V30 11195 H 1056.03 3.02072 0.871774 0
M  V30 11196 N 1059.8 1.27835 0.921735 0
M  V30 11197 C 1061.03 1.17352 1.704 0
M  V30 11198 C 1061.44 -0.268892 1.86875 0
M  V30 11199 O 1060.8 -1.18253 1.39005 0
M  V30 11200 C 1060.85 1.85889 3.10045 0
M  V30 11201 O 1060.57 3.24495 2.94338 0
M  V30 11202 C 1062.07 1.81607 4.04393 0
M  V30 11203 H 1059.29 0.40773 0.532914 0
M  V30 11204 H 1061.83 1.68815 1.15419 0
M  V30 11205 H 1059.99 1.38316 3.61867 0
M  V30 11206 H 1060.4 3.58705 3.82663 0
M  V30 11207 H 1061.88 2.34165 4.99871 0
M  V30 11208 H 1062.35 0.786697 4.32097 0
M  V30 11209 H 1062.96 2.28822 3.58498 0
M  V30 11210 N 1061.28 -1.12907 1.09954 0
M  V30 11211 C 1062.23 -2.16558 0.713204 0
M  V30 11212 C 1063.21 -1.5853 -0.27515 0
M  V30 11213 O 1064.4 -1.76797 -0.0846643 0
M  V30 11214 C 1061.53 -3.43009 0.141224 0
M  V30 11215 C 1060.62 -4.08032 1.15632 0
M  V30 11216 N 1061.01 -4.48139 2.34531 0
M  V30 11217 C 1059.31 -4.34743 0.995701 0
M  V30 11218 C 1060.01 -4.98885 2.99147 0
M  V30 11219 N 1058.98 -4.9408 2.26684 0
M  V30 11220 H 1062.78 -2.45328 1.61838 0
M  V30 11221 H 1060.3 -1.29759 0.976539 0
M  V30 11222 H 1062.3 -4.16617 -0.153598 0
M  V30 11223 H 1060.96 -3.15711 -0.758729 0
M  V30 11224 H 1061.97 -4.40668 2.72089 0
M  V30 11225 H 1058.64 -4.17227 0.150888 0
M  V30 11226 H 1060.03 -5.3967 4.00257 0
M  V30 11227 N 1062.75 -0.88754 -1.30232 0
M  V30 11228 C 1064 -0.508031 -1.96334 0
M  V30 11229 C 1064.33 0.940905 -1.69884 0
M  V30 11230 O 1063.61 1.66523 -1.005 0
M  V30 11231 C 1063.89 -0.786566 -3.51405 0
M  V30 11232 C 1063.74 -2.28632 -3.8736 0
M  V30 11233 C 1065.06 -0.264803 -4.39303 0
M  V30 11234 H 1062.18 -0.186051 -0.71313 0
M  V30 11235 H 1064.82 -1.112 -1.5406 0
M  V30 11236 H 1062.97 -0.272523 -3.87543 0
M  V30 11237 H 1064.65 -2.86896 -3.61231 0
M  V30 11238 H 1062.89 -2.75194 -3.35337 0
M  V30 11239 H 1063.56 -2.43181 -4.95547 0
M  V30 11240 H 1066.04 -0.704809 -4.10087 0
M  V30 11241 H 1064.91 -0.488998 -5.46717 0
M  V30 11242 H 1065.17 0.834055 -4.34161 0
M  V30 11243 N 1064.23 1.43628 -0.648757 0
M  V30 11244 C 1065.48 2.02695 -0.169158 0
M  V30 11245 C 1065.83 1.50239 1.20191 0
M  V30 11246 O 1065.13 0.684018 1.78974 0
M  V30 11247 C 1065.32 3.57214 -0.115282 0
M  V30 11248 C 1065.15 4.24663 -1.47959 0
M  V30 11249 C 1063.92 4.60917 -2.07084 0
M  V30 11250 C 1066.12 4.53962 -2.41708 0
M  V30 11251 N 1064.1 5.13416 -3.36566 0
M  V30 11252 C 1065.47 5.07733 -3.55819 0
M  V30 11253 C 1067.53 4.35927 -2.40566 0
M  V30 11254 C 1066.23 5.45367 -4.69007 0
M  V30 11255 C 1068.25 4.7462 -3.52831 0
M  V30 11256 C 1067.62 5.2852 -4.65667 0
M  V30 11257 H 1063.72 0.774751 -0.106227 0
M  V30 11258 H 1066.3 1.74869 -0.85609 0
M  V30 11259 H 1064.47 3.84614 0.54098 0
M  V30 11260 H 1066.2 4.02961 0.374775 0
M  V30 11261 H 1062.96 4.45812 -1.59841 0
M  V30 11262 H 1063.38 5.44124 -4.02813 0
M  V30 11263 H 1068.02 3.93533 -1.54569 0
M  V30 11264 H 1065.74 5.86707 -5.55698 0
M  V30 11265 H 1069.33 4.62364 -3.53144 0
M  V30 11266 H 1068.21 5.57906 -5.511 0
M  V30 11267 N 1065.71 0.390394 1.52688 0
M  V30 11268 C 1066.66 -0.444229 2.26485 0
M  V30 11269 C 1067.63 -1.05688 1.28138 0
M  V30 11270 O 1068.81 -1.0847 1.56968 0
M  V30 11271 C 1065.95 -1.56501 3.07574 0
M  V30 11272 C 1065.07 -0.975111 4.20851 0
M  V30 11273 C 1064.2 -2.06704 4.89333 0
M  V30 11274 C 1063.24 -1.45309 5.94602 0
M  V30 11275 N 1062.38 -2.48437 6.56676 0
M  V30 11276 H 1067.22 0.191535 2.97384 0
M  V30 11277 H 1064.75 0.106287 1.46716 0
M  V30 11278 H 1066.71 -2.22558 3.52879 0
M  V30 11279 H 1065.34 -2.17107 2.38881 0
M  V30 11280 H 1064.39 -0.204109 3.79852 0
M  V30 11281 H 1065.71 -0.486465 4.96422 0
M  V30 11282 H 1064.86 -2.80528 5.37949 0
M  V30 11283 H 1063.6 -2.58928 4.13289 0
M  V30 11284 H 1062.6 -0.700091 5.45324 0
M  V30 11285 H 1063.83 -0.938775 6.7258 0
M  V30 11286 H 1061.77 -2.99829 5.83471 0
M  V30 11287 H 1061.69 -2.04331 7.27863 0
M  V30 11288 H 1062.96 -3.21888 7.09935 0
M  V30 11289 N 1067.19 -1.57141 0.120249 0
M  V30 11290 C 1068.44 -1.94852 -0.536387 0
M  V30 11291 C 1068.76 -1.00452 -1.67136 0
M  V30 11292 O 1068.03 -0.061053 -1.95805 0
M  V30 11293 H 1066.61 -0.719411 -0.201138 0
M  V30 11294 H 1069.27 -1.93977 0.189482 0
M  V30 11295 H 1068.37 -2.97917 -0.930145 0
M  V30 11296 N 1068.67 0.153526 -1.5685 0
M  V30 11297 C 1069.89 0.882335 -1.87143 0
M  V30 11298 C 1070.31 1.75034 -0.707702 0
M  V30 11299 O 1069.67 1.79624 0.32273 0
M  V30 11300 C 1069.72 1.74444 -3.16625 0
M  V30 11301 O 1069.44 0.911419 -4.28515 0
M  V30 11302 C 1070.94 2.58139 -3.60388 0
M  V30 11303 H 1068.16 0.25546 -0.620469 0
M  V30 11304 H 1070.7 0.148275 -2.03962 0
M  V30 11305 H 1068.86 2.43163 -3.0158 0
M  V30 11306 H 1069.27 1.50268 -5.02513 0
M  V30 11307 H 1070.75 3.14215 -4.53842 0
M  V30 11308 H 1071.22 3.33865 -2.85361 0
M  V30 11309 H 1071.83 1.94721 -3.78105 0
M  V30 11310 N 1070.14 1.51827 0.422667 0
M  V30 11311 C 1071.09 1.74791 1.53463 0
M  V30 11312 C 1072.09 0.614602 1.57858 0
M  V30 11313 O 1073.29 0.796336 1.61426 0
M  V30 11314 H 1069.67 0.552524 0.510118 0
M  V30 11315 H 1071.64 2.67974 1.31273 0
M  V30 11316 C 1070.39 1.90339 2.90975 0
M  V30 11317 H 1069.71 2.76958 2.8833 0
M  V30 11318 H 1071.15 2.10413 3.68106 0
M  V30 11319 C 1069.61 0.66695 3.30232 0
M  V30 11320 O 1070.14 -0.171542 4.01334 0
M  V30 11321 N 1068.35 0.506768 2.86147 0
M  V30 11322 H 1067.89 1.19019 2.28456 0
M  V30 11323 H 1067.85 -0.319247 3.12775 0
M  V30 11324 N 1071.62 -0.679052 1.4222 0
M  V30 11325 C 1072.87 -1.43627 1.42182 0
M  V30 11326 C 1073.19 -1.94964 0.0377095 0
M  V30 11327 O 1072.46 -1.72788 -0.923098 0
M  V30 11328 H 1071.04 -0.532972 0.523402 0
M  V30 11329 H 1073.7 -0.802649 1.77605 0
M  V30 11330 H 1072.8 -2.29137 2.11902 0
M  V30 11331 N 1073.1 -1.28322 -0.914942 0
M  V30 11332 C 1074.33 -1.18254 -1.69775 0
M  V30 11333 C 1074.74 0.258978 -1.87015 0
M  V30 11334 O 1074.1 1.17514 -1.3963 0
M  V30 11335 C 1074.15 -1.8753 -3.09054 0
M  V30 11336 O 1073.87 -3.26051 -2.92613 0
M  V30 11337 C 1075.37 -1.83749 -4.03424 0
M  V30 11338 H 1072.59 -0.41055 -0.530744 0
M  V30 11339 H 1075.14 -1.69425 -1.14523 0
M  V30 11340 H 1073.29 -1.40233 -3.61128 0
M  V30 11341 H 1073.71 -3.60729 -3.80756 0
M  V30 11342 H 1075.18 -2.36813 -4.98622 0
M  V30 11343 H 1075.66 -0.809601 -4.31674 0
M  V30 11344 H 1076.26 -2.3072 -3.57279 0
M  V30 11345 N 1074.58 1.12322 -1.10551 0
M  V30 11346 C 1075.99 1.6539 -0.8662 0
M  V30 11347 C 1076.34 1.86695 0.603284 0
M  V30 11348 O 1075.47 1.59432 1.46323 0
M  V30 11349 C 1076.06 3.00443 -1.56587 0
M  V30 11350 C 1074.62 3.50456 -1.37323 0
M  V30 11351 C 1073.77 2.25454 -1.61449 0
M  V30 11352 H 1076.72 0.960866 -1.26305 0
M  V30 11353 H 1076.74 3.66972 -1.00557 0
M  V30 11354 H 1076.25 2.84905 -2.63535 0
M  V30 11355 H 1074.35 3.71176 -0.325431 0
M  V30 11356 H 1074.46 4.29839 -2.11601 0
M  V30 11357 H 1072.83 2.32621 -1.03729 0
M  V30 11358 H 1073.61 2.12469 -2.69651 0
M  V30 11359 N 1076.06 0.894434 1.2976 0
M  V30 11360 C 1077.28 0.532916 1.99919 0
M  V30 11361 C 1077.7 -0.881022 1.66983 0
M  V30 11362 O 1077.06 -1.58076 0.912035 0
M  V30 11363 C 1077.11 0.70936 3.54472 0
M  V30 11364 O 1076.83 2.06764 3.86239 0
M  V30 11365 C 1078.33 0.352089 4.419 0
M  V30 11366 H 1075.55 0.205019 0.638912 0
M  V30 11367 H 1078.09 1.20233 1.65421 0
M  V30 11368 H 1076.25 0.0871901 3.87302 0
M  V30 11369 H 1076.66 2.09315 4.80924 0
M  V30 11370 H 1078.14 0.526405 5.49484 0
M  V30 11371 H 1078.61 -0.710527 4.33415 0
M  V30 11372 H 1079.22 0.950979 4.14532 0
M  V30 11373 N 1077.53 -1.43282 0.656365 0
M  V30 11374 C 1078.48 -2.30776 -0.0333155 0
M  V30 11375 C 1079.45 -1.44928 -0.811493 0
M  V30 11376 O 1080.64 -1.73792 -0.787465 0
M  V30 11377 C 1077.78 -3.30548 -0.991566 0
M  V30 11378 C 1076.89 -4.31493 -0.209159 0
M  V30 11379 C 1076.02 -5.18346 -1.16149 0
M  V30 11380 C 1075.06 -6.10983 -0.369699 0
M  V30 11381 N 1074.2 -6.90449 -1.27378 0
M  V30 11382 H 1079.04 -2.89204 0.718668 0
M  V30 11383 H 1076.58 -1.4247 0.366161 0
M  V30 11384 H 1078.54 -3.86905 -1.56078 0
M  V30 11385 H 1077.17 -2.73762 -1.71039 0
M  V30 11386 H 1076.22 -3.77405 0.476394 0
M  V30 11387 H 1077.53 -4.97142 0.406394 0
M  V30 11388 H 1076.68 -5.79345 -1.80124 0
M  V30 11389 H 1075.42 -4.52831 -1.81095 0
M  V30 11390 H 1074.43 -5.49069 0.283377 0
M  V30 11391 H 1075.65 -6.78541 0.275399 0
M  V30 11392 H 1073.6 -6.27579 -1.90999 0
M  V30 11393 H 1073.52 -7.52631 -0.71287 0
M  V30 11394 H 1074.78 -7.5595 -1.90158 0
M  V30 11395 N 1079.01 -0.398486 -1.52479 0
M  V30 11396 C 1080.43 -0.0488635 -1.59525 0
M  V30 11397 C 1080.63 1.43756 -1.41197 0
M  V30 11398 O 1079.69 2.20317 -1.23357 0
M  V30 11399 C 1081 -0.534262 -2.95916 0
M  V30 11400 C 1082.55 -0.491314 -3.0912 0
M  V30 11401 C 1083.02 -0.953049 -4.47974 0
M  V30 11402 N 1084.51 -0.909434 -4.54184 0
M  V30 11403 C 1085.25 -1.23801 -5.59876 0
M  V30 11404 N 1084.74 -1.63752 -6.73169 0
M  V30 11405 N 1086.54 -1.15867 -5.50028 0
M  V30 11406 H 1078.69 -1.36608 -1.62641 0
M  V30 11407 H 1080.95 -0.560515 -0.764544 0
M  V30 11408 H 1080.66 -1.57277 -3.14574 0
M  V30 11409 H 1080.53 0.0617787 -3.77149 0
M  V30 11410 H 1082.92 0.538123 -2.90152 0
M  V30 11411 H 1083 -1.12327 -2.29818 0
M  V30 11412 H 1082.64 -1.98076 -4.67684 0
M  V30 11413 H 1082.57 -0.298007 -5.25756 0
M  V30 11414 H 1085.06 -0.615569 -3.72853 0
M  V30 11415 H 1085.38 -1.87163 -7.49793 0
M  V30 11416 H 1083.72 -1.67647 -6.74477 0
M  V30 11417 H 1086.91 -0.845502 -4.60401 0
M  V30 11418 H 1087.09 -1.41805 -6.32294 0
M  V30 11419 N 1080.49 1.57075 -0.12858 0
M  V30 11420 C 1081.91 1.57964 0.227961 0
M  V30 11421 C 1082.11 1.14186 1.66023 0
M  V30 11422 O 1081.16 0.833655 2.38341 0
M  V30 11423 C 1082.48 3.00697 -0.0140648 0
M  V30 11424 C 1084.02 3.12958 0.0510876 0
M  V30 11425 C 1084.5 4.57709 -0.163368 0
M  V30 11426 N 1085.99 4.6307 -0.109663 0
M  V30 11427 C 1086.73 5.72853 -0.250366 0
M  V30 11428 N 1086.22 6.91351 -0.447772 0
M  V30 11429 N 1088.01 5.61781 -0.189265 0
M  V30 11430 H 1080.17 1.83829 -1.06398 0
M  V30 11431 H 1082.43 0.850014 -0.419739 0
M  V30 11432 H 1082.13 3.37047 -1.00461 0
M  V30 11433 H 1082.01 3.70389 0.713571 0
M  V30 11434 H 1084.4 2.7646 1.03216 0
M  V30 11435 H 1084.48 2.4579 -0.708583 0
M  V30 11436 H 1084.12 4.94907 -1.14146 0
M  V30 11437 H 1084.05 5.2298 0.616405 0
M  V30 11438 H 1086.54 3.7788 0.0390086 0
M  V30 11439 H 1086.85 7.70871 -0.54574 0
M  V30 11440 H 1085.2 6.93314 -0.483866 0
M  V30 11441 H 1088.39 4.68086 -0.0359374 0
M  V30 11442 H 1088.56 6.47294 -0.302359 0
M  V30 11443 N 1081.97 -0.145205 1.5693 0
M  V30 11444 C 1082.93 -1.16316 1.97492 0
M  V30 11445 C 1083.93 -1.35764 0.861668 0
M  V30 11446 O 1085.12 -1.32726 1.12825 0
M  V30 11447 C 1082.25 -2.52311 2.29242 0
M  V30 11448 H 1083.45 -0.815138 2.8861 0
M  V30 11449 H 1081 -0.38861 1.51392 0
M  V30 11450 H 1081.74 -2.92081 1.40922 0
M  V30 11451 H 1081.52 -2.39555 3.10412 0
M  V30 11452 H 1083.01 -3.25624 2.61456 0
M  V30 11453 N 1083.45 -1.52049 -0.414609 0
M  V30 11454 C 1084.7 -1.65067 -1.15912 0
M  V30 11455 C 1085.01 -0.383969 -1.91794 0
M  V30 11456 O 1086.22 -0.393872 -2.68628 0
M  V30 11457 C 1084.67 -2.91611 -2.1093 0
M  V30 11458 C 1084.28 -4.25369 -1.4059 0
M  V30 11459 C 1086.02 -3.13992 -2.85674 0
M  V30 11460 C 1083.93 -5.43041 -2.34223 0
M  V30 11461 H 1082.86 -0.614884 -0.436387 0
M  V30 11462 H 1085.51 -1.78533 -0.424072 0
M  V30 11463 H 1083.89 -2.71831 -2.87965 0
M  V30 11464 H 1085.07 -4.55611 -0.689568 0
M  V30 11465 H 1083.38 -4.09047 -0.779088 0
M  V30 11466 H 1085.98 -3.99082 -3.55861 0
M  V30 11467 H 1086.32 -2.27998 -3.48314 0
M  V30 11468 H 1086.86 -3.34217 -2.1574 0
M  V30 11469 H 1083.59 -6.31364 -1.76238 0
M  V30 11470 H 1083.11 -5.17144 -3.03845 0
M  V30 11471 H 1084.79 -5.75901 -2.94868 0
M  V30 11472 N 1084.93 0.6715 -1.42579 0
M  V30 11473 C 1086.17 1.42871 -1.42941 0
M  V30 11474 C 1086.49 1.94941 -0.0480483 0
M  V30 11475 O 1085.76 1.73275 0.913921 0
M  V30 11476 H 1084.34 0.530189 -0.526221 0
M  V30 11477 H 1087.01 0.793219 -1.78028 0
M  V30 11478 H 1086.1 2.2801 -2.13114 0
M  V30 11479 N 1086.4 1.28806 0.908124 0
M  V30 11480 C 1087.65 1.16287 1.65781 0
M  V30 11481 C 1087.98 -0.287389 1.92365 0
M  V30 11482 O 1087.23 -1.22491 1.52625 0
M  V30 11483 C 1087.53 1.91267 3.01914 0
M  V30 11484 C 1087.2 3.41033 2.9497 0
M  V30 11485 C 1085.86 3.81879 2.92783 0
M  V30 11486 C 1088.21 4.36507 2.848 0
M  V30 11487 C 1085.54 5.16529 2.78235 0
M  V30 11488 C 1087.89 5.71237 2.71792 0
M  V30 11489 C 1086.56 6.11351 2.67967 0
M  V30 11490 H 1085.83 0.425526 0.606637 0
M  V30 11491 H 1088.47 1.59646 1.05762 0
M  V30 11492 H 1086.78 1.40474 3.65752 0
M  V30 11493 H 1088.48 1.78992 3.58835 0
M  V30 11494 H 1085.07 3.08561 2.97469 0
M  V30 11495 H 1089.25 4.05909 2.85573 0
M  V30 11496 H 1084.51 5.4673 2.73672 0
M  V30 11497 H 1088.68 6.44872 2.62892 0
M  V30 11498 H 1086.31 7.15637 2.56451 0
M  V30 11499 N 1087.88 -1.11734 1.11145 0
M  V30 11500 C 1088.83 -2.17683 0.766979 0
M  V30 11501 C 1089.8 -1.64051 -0.260108 0
M  V30 11502 O 1090.98 -1.90302 -0.137723 0
M  V30 11503 C 1088.12 -3.44442 0.212982 0
M  V30 11504 C 1087.24 -4.12094 1.29626 0
M  V30 11505 C 1086.37 -5.26526 0.703127 0
M  V30 11506 C 1085.41 -5.86057 1.76647 0
M  V30 11507 N 1084.55 -6.91889 1.19306 0
M  V30 11508 H 1089.39 -2.46495 1.67465 0
M  V30 11509 H 1086.92 -1.21011 0.836353 0
M  V30 11510 H 1088.88 -4.17009 -0.126162 0
M  V30 11511 H 1087.51 -3.16025 -0.657888 0
M  V30 11512 H 1086.56 -3.37631 1.75241 0
M  V30 11513 H 1087.88 -4.52398 2.10089 0
M  V30 11514 H 1087.03 -6.05888 0.313859 0
M  V30 11515 H 1085.77 -4.87519 -0.132856 0
M  V30 11516 H 1084.77 -5.05375 2.16508 0
M  V30 11517 H 1086 -6.27132 2.60543 0
M  V30 11518 H 1083.95 -6.54906 0.378664 0
M  V30 11519 H 1083.86 -7.30832 1.93443 0
M  V30 11520 H 1085.13 -7.75062 0.830578 0
M  V30 11521 N 1089.36 -0.901303 -1.29284 0
M  V30 11522 C 1090.31 -0.378666 -2.27672 0
M  V30 11523 C 1091.28 0.540102 -1.57074 0
M  V30 11524 O 1092.46 0.464997 -1.85047 0
M  V30 11525 C 1089.6 0.38635 -3.42931 0
M  V30 11526 C 1088.71 -0.563496 -4.28309 0
M  V30 11527 C 1087.85 0.218731 -5.30749 0
M  V30 11528 C 1086.89 -0.725536 -6.07785 0
M  V30 11529 N 1086.03 0.0223854 -7.02096 0
M  V30 11530 H 1090.87 -1.22277 -2.71758 0
M  V30 11531 H 1088.4 -0.614302 -1.33659 0
M  V30 11532 H 1090.36 0.845967 -4.08533 0
M  V30 11533 H 1088.99 1.1949 -2.9987 0
M  V30 11534 H 1088.04 -1.14163 -3.62865 0
M  V30 11535 H 1089.35 -1.28623 -4.81931 0
M  V30 11536 H 1088.51 0.739473 -6.02177 0
M  V30 11537 H 1087.25 0.97459 -4.77863 0
M  V30 11538 H 1086.25 -1.25776 -5.3522 0
M  V30 11539 H 1087.48 -1.48075 -6.6276 0
M  V30 11540 H 1085.42 0.760482 -6.51577 0
M  V30 11541 H 1085.34 -0.640408 -7.53283 0
M  V30 11542 H 1086.61 0.523339 -7.77741 0
M  V30 11543 N 1090.84 1.42931 -0.663954 0
M  V30 11544 C 1091.77 2.33499 0.00731327 0
M  V30 11545 C 1092.75 1.50074 0.800733 0
M  V30 11546 O 1093.93 1.78708 0.760062 0
M  V30 11547 C 1091.06 3.33569 0.966897 0
M  V30 11548 C 1090.02 4.27064 0.282839 0
M  V30 11549 C 1089.34 5.17257 1.35461 0
M  V30 11550 C 1090.64 5.1564 -0.831438 0
M  V30 11551 H 1092.34 2.89879 -0.749044 0
M  V30 11552 H 1089.88 1.39385 -0.361656 0
M  V30 11553 H 1091.84 3.95833 1.44549 0
M  V30 11554 H 1090.56 2.75469 1.75455 0
M  V30 11555 H 1089.22 3.6618 -0.175417 0
M  V30 11556 H 1088.87 4.5549 2.13397 0
M  V30 11557 H 1088.57 5.80634 0.902098 0
M  V30 11558 H 1090.09 5.82395 1.83436 0
M  V30 11559 H 1091.51 5.71651 -0.434534 0
M  V30 11560 H 1089.9 5.87794 -1.20908 0
M  V30 11561 H 1090.97 4.54687 -1.68487 0
M  V30 11562 N 1092.32 0.406567 1.52266 0
M  V30 11563 C 1093.28 -0.408251 2.25535 0
M  V30 11564 C 1094.28 -0.975795 1.27808 0
M  V30 11565 O 1095.47 -0.855077 1.5177 0
M  V30 11566 C 1092.6 -1.57443 3.02365 0
M  V30 11567 H 1093.79 0.233459 2.9899 0
M  V30 11568 H 1091.35 0.159032 1.55489 0
M  V30 11569 H 1092.08 -2.25308 2.33252 0
M  V30 11570 H 1091.87 -1.17399 3.74112 0
M  V30 11571 H 1093.36 -2.15088 3.57948 0
M  V30 11572 N 1093.79 -1.57004 0.136909 0
M  V30 11573 C 1094.7 -2.19807 -0.819887 0
M  V30 11574 C 1095.72 -1.17939 -1.27932 0
M  V30 11575 O 1096.9 -1.50478 -1.3386 0
M  V30 11576 C 1093.96 -2.79935 -2.04542 0
M  V30 11577 C 1093.02 -3.96897 -1.6362 0
M  V30 11578 C 1092.26 -4.54148 -2.80331 0
M  V30 11579 O 1092.48 -4.10282 -3.96264 0
M  V30 11580 O 1091.41 -5.44565 -2.56384 0
M  V30 11581 H 1095.24 -3.02058 -0.315337 0
M  V30 11582 H 1092.82 -1.49131 -0.0896151 0
M  V30 11583 H 1094.71 -3.18191 -2.76283 0
M  V30 11584 H 1093.38 -2.00703 -2.53969 0
M  V30 11585 H 1092.29 -3.63376 -0.889316 0
M  V30 11586 H 1093.62 -4.77618 -1.18918 0
M  V30 11587 N 1095.27 0.136881 -1.57004 0
M  V30 11588 C 1096.24 1.15267 -1.98106 0
M  V30 11589 C 1097.24 1.35305 -0.868856 0
M  V30 11590 O 1098.43 1.32126 -1.13527 0
M  V30 11591 C 1095.56 2.51092 -2.30577 0
M  V30 11592 H 1096.75 0.799821 -2.89038 0
M  V30 11593 H 1094.3 0.380576 -1.51596 0
M  V30 11594 H 1095.04 2.9133 -1.42469 0
M  V30 11595 H 1094.82 2.37906 -3.11678 0
M  V30 11596 H 1096.31 3.24232 -2.63179 0
M  V30 11597 N 1096.75 1.52266 0.40654 0
M  V30 11598 C 1098 1.66699 1.15496 0
M  V30 11599 C 1098.33 0.397019 1.90098 0
M  V30 11600 O 1097.6 -0.604646 1.84863 0
M  V30 11601 C 1097.89 2.8907 2.14734 0
M  V30 11602 C 1097.74 4.26123 1.44012 0
M  V30 11603 C 1099.06 3.06966 3.15373 0
M  V30 11604 H 1096.18 0.606642 0.418515 0
M  V30 11605 H 1098.82 1.84826 0.440381 0
M  V30 11606 H 1096.97 2.73745 2.75673 0
M  V30 11607 H 1098.64 4.5318 0.861722 0
M  V30 11608 H 1096.89 4.27406 0.742064 0
M  V30 11609 H 1097.56 5.07799 2.16436 0
M  V30 11610 H 1100.03 3.21205 2.64512 0
M  V30 11611 H 1098.91 3.94097 3.82072 0
M  V30 11612 H 1099.17 2.20395 3.83247 0
M  V30 11613 N 1098.23 -0.663929 1.42933 0
M  V30 11614 C 1099.18 -1.77717 1.47259 0
M  V30 11615 C 1100.15 -1.62922 0.323387 0
M  V30 11616 O 1101.33 -1.83319 0.529021 0
M  V30 11617 C 1098.47 -3.15814 1.39124 0
M  V30 11618 C 1097.58 -3.4182 2.64165 0
M  V30 11619 C 1096.72 -4.69705 2.48094 0
M  V30 11620 C 1095.76 -4.88781 3.68456 0
M  V30 11621 N 1094.89 -6.07915 3.51261 0
M  V30 11622 H 1099.73 -1.73355 2.42388 0
M  V30 11623 H 1097.27 -0.846121 1.2033 0
M  V30 11624 H 1099.23 -3.95633 1.32403 0
M  V30 11625 H 1097.86 -3.19274 0.475829 0
M  V30 11626 H 1096.91 -2.56176 2.81208 0
M  V30 11627 H 1098.22 -3.51805 3.53602 0
M  V30 11628 H 1097.38 -5.57632 2.39021 0
M  V30 11629 H 1096.12 -4.62022 1.56164 0
M  V30 11630 H 1095.12 -3.99292 3.7795 0
M  V30 11631 H 1096.35 -4.98301 4.61381 0
M  V30 11632 H 1094.29 -6.01384 2.62057 0
M  V30 11633 H 1094.21 -6.1881 4.34293 0
M  V30 11634 H 1095.48 -6.98492 3.4602 0
M  V30 11635 N 1099.71 -1.29285 -0.901281 0
M  V30 11636 C 1100.95 -1.17165 -1.65162 0
M  V30 11637 C 1101.28 0.277184 -1.92515 0
M  V30 11638 O 1100.54 1.2168 -1.53273 0
M  V30 11639 C 1100.84 -1.92865 -3.00895 0
M  V30 11640 C 1100.5 -3.42593 -2.93157 0
M  V30 11641 C 1099.16 -3.83426 -2.90754 0
M  V30 11642 C 1101.52 -4.38011 -2.82481 0
M  V30 11643 C 1098.84 -5.17997 -2.75492 0
M  V30 11644 C 1101.2 -5.7267 -2.68759 0
M  V30 11645 C 1099.86 -6.12764 -2.64721 0
M  V30 11646 H 1099.13 -0.428737 -0.604372 0
M  V30 11647 H 1101.78 -1.60204 -1.04914 0
M  V30 11648 H 1100.08 -1.42412 -3.65001 0
M  V30 11649 H 1101.78 -1.80893 -3.57881 0
M  V30 11650 H 1098.37 -3.10134 -2.95829 0
M  V30 11651 H 1102.55 -4.07417 -2.83416 0
M  V30 11652 H 1097.81 -5.48173 -2.70769 0
M  V30 11653 H 1101.98 -6.46258 -2.59469 0
M  V30 11654 H 1099.61 -7.16987 -2.52652 0
M  V30 11655 N 1101.18 1.11143 -1.11736 0
M  V30 11656 C 1102.41 1.87285 -0.891007 0
M  V30 11657 C 1102.83 1.79758 0.553971 0
M  V30 11658 O 1102.19 1.16221 1.39149 0
M  V30 11659 C 1102.24 3.33924 -1.36114 0
M  V30 11660 O 1101.34 4.08917 -0.534851 0
M  V30 11661 H 1100.69 0.581418 -0.320701 0
M  V30 11662 H 1103.22 1.40469 -1.4876 0
M  V30 11663 H 1103.23 3.84772 -1.35701 0
M  V30 11664 H 1101.9 3.38719 -2.41334 0
M  V30 11665 H 1100.48 3.67954 -0.605355 0
M  V30 11666 N 1102.66 0.908147 1.28804 0
M  V30 11667 C 1103.63 0.397058 2.25735 0
M  V30 11668 C 1104.63 -0.473483 1.53671 0
M  V30 11669 O 1105.82 -0.277335 1.71978 0
M  V30 11670 C 1102.95 -0.431392 3.38159 0
M  V30 11671 H 1104.14 1.25323 2.72459 0
M  V30 11672 H 1101.69 0.687041 1.4039 0
M  V30 11673 H 1102.43 -1.3072 2.96787 0
M  V30 11674 H 1102.21 0.192502 3.91627 0
M  V30 11675 H 1103.7 -0.78 4.10251 0
M  V30 11676 N 1104.14 -1.42577 0.671525 0
M  V30 11677 C 1105.09 -2.30798 -0.00883676 0
M  V30 11678 C 1106.06 -1.4578 -0.796076 0
M  V30 11679 O 1107.24 -1.74617 -0.768987 0
M  V30 11680 C 1104.38 -3.31581 -0.956452 0
M  V30 11681 C 1103.5 -4.31691 -0.163381 0
M  V30 11682 C 1102.63 -5.19549 -1.10645 0
M  V30 11683 C 1101.67 -6.1134 -0.304876 0
M  V30 11684 N 1100.81 -6.91761 -1.20048 0
M  V30 11685 H 1105.65 -2.88426 0.749301 0
M  V30 11686 H 1103.18 -1.42074 0.381251 0
M  V30 11687 H 1105.14 -3.88539 -1.51966 0
M  V30 11688 H 1103.77 -2.75561 -1.68126 0
M  V30 11689 H 1102.82 -3.76879 0.516396 0
M  V30 11690 H 1104.14 -4.96683 0.459099 0
M  V30 11691 H 1103.29 -5.81223 -1.73969 0
M  V30 11692 H 1102.03 -4.54726 -1.76282 0
M  V30 11693 H 1101.03 -5.48738 0.341597 0
M  V30 11694 H 1102.26 -6.78211 0.347352 0
M  V30 11695 H 1100.2 -6.2957 -1.84331 0
M  V30 11696 H 1100.12 -7.53345 -0.633003 0
M  V30 11697 H 1101.39 -7.57924 -1.82129 0
M  V30 11698 N 1105.62 -0.414636 -1.52048 0
M  V30 11699 C 1106.55 0.399119 -2.30064 0
M  V30 11700 C 1107.53 1.04126 -1.34506 0
M  V30 11701 O 1108.71 1.04923 -1.63416 0
M  V30 11702 C 1105.84 1.51305 -3.12608 0
M  V30 11703 C 1104.8 0.995621 -4.16259 0
M  V30 11704 C 1104.12 2.20357 -4.87183 0
M  V30 11705 C 1105.42 0.0458178 -5.2228 0
M  V30 11706 H 1107.12 -0.251879 -2.98339 0
M  V30 11707 H 1104.66 -0.122579 -1.43477 0
M  V30 11708 H 1106.62 2.08936 -3.65956 0
M  V30 11709 H 1105.34 2.19201 -2.42113 0
M  V30 11710 H 1104 0.441676 -3.6393 0
M  V30 11711 H 1103.65 2.8682 -4.13211 0
M  V30 11712 H 1103.35 1.86385 -5.57256 0
M  V30 11713 H 1104.87 2.78584 -5.43345 0
M  V30 11714 H 1106.29 0.531102 -5.70835 0
M  V30 11715 H 1104.68 -0.20536 -5.99749 0
M  V30 11716 H 1105.75 -0.897807 -4.76516 0
M  V30 11717 N 1107.1 1.56929 -0.145233 0
M  V30 11718 C 1108.03 2.12449 0.833107 0
M  V30 11719 C 1109.01 1.0476 1.24355 0
M  V30 11720 O 1110.19 1.32579 1.33997 0
M  V30 11721 C 1107.32 2.64274 2.11842 0
M  V30 11722 C 1106.36 3.84093 1.85404 0
M  V30 11723 S 1107.2 5.25172 1.04663 0
M  V30 11724 C 1108.35 5.80384 2.34318 0
M  V30 11725 H 1108.59 2.951 0.360969 0
M  V30 11726 H 1106.12 1.54246 0.0690187 0
M  V30 11727 H 1108.08 2.94783 2.8568 0
M  V30 11728 H 1106.74 1.81756 2.56171 0
M  V30 11729 H 1105.93 4.18593 2.80706 0
M  V30 11730 H 1105.53 3.54336 1.19675 0
M  V30 11731 H 1107.83 5.91709 3.29981 0
M  V30 11732 H 1108.77 6.7798 2.04325 0
M  V30 11733 H 1109.18 5.08617 2.44885 0
M  V30 11734 N 1108.58 -0.128553 1.57075 0
M  V30 11735 C 1109.82 -0.836355 1.83982 0
M  V30 11736 C 1110.14 -1.80862 0.728971 0
M  V30 11737 O 1109.41 -1.94326 -0.247859 0
M  V30 11738 H 1107.99 -0.31185 0.678792 0
M  V30 11739 H 1110.66 -0.118153 1.94542 0
M  V30 11740 H 1109.75 -1.38741 2.79567 0
M  V30 11741 N 1110.05 -1.5248 -0.398459 0
M  V30 11742 C 1110.99 -1.72826 -1.50545 0
M  V30 11743 C 1112 -0.608683 -1.50993 0
M  V30 11744 O 1113.19 -0.88413 -1.55066 0
M  V30 11745 C 1110.29 -1.76327 -2.89417 0
M  V30 11746 C 1109.46 -3.05491 -3.1304 0
M  V30 11747 C 1108.52 -3.00663 -4.31843 0
M  V30 11748 O 1107.55 -3.74548 -4.28605 0
M  V30 11749 N 1108.75 -2.19191 -5.37527 0
M  V30 11750 H 1111.51 -2.68333 -1.33482 0
M  V30 11751 H 1109.07 -1.5085 -0.587875 0
M  V30 11752 H 1111.07 -1.70616 -3.66977 0
M  V30 11753 H 1109.64 -0.882476 -2.99885 0
M  V30 11754 H 1108.86 -3.24767 -2.23428 0
M  V30 11755 H 1110.14 -3.90915 -3.25673 0
M  V30 11756 H 1109.54 -1.58613 -5.43009 0
M  V30 11757 H 1108.1 -2.19328 -6.1379 0
M  V30 11758 N 1111.53 0.65634 -1.43283 0
M  V30 11759 C 1112.49 1.75117 -1.47874 0
M  V30 11760 C 1113.49 1.56629 -0.363846 0
M  V30 11761 O 1114.68 1.62584 -0.625464 0
M  V30 11762 C 1111.82 3.13957 -1.32831 0
M  V30 11763 H 1113.01 1.72429 -2.45374 0
M  V30 11764 H 1110.56 0.867704 -1.30002 0
M  V30 11765 H 1111.3 3.22259 -0.36326 0
M  V30 11766 H 1111.08 3.28781 -2.13649 0
M  V30 11767 H 1112.57 3.93799 -1.38969 0
M  V30 11768 N 1113.01 1.29761 0.894412 0
M  V30 11769 C 1113.94 1.09666 2.00121 0
M  V30 11770 C 1114.92 0.00700077 1.62598 0
M  V30 11771 O 1116.1 0.158728 1.87831 0
M  V30 11772 C 1113.23 0.670588 3.31995 0
M  V30 11773 C 1112.28 1.75974 3.88504 0
M  V30 11774 S 1113.11 3.36013 4.1696 0
M  V30 11775 C 1114.27 2.95285 5.51867 0
M  V30 11776 H 1114.5 2.03369 2.1686 0
M  V30 11777 H 1112.03 1.13968 1.04166 0
M  V30 11778 H 1113.99 0.431481 4.08226 0
M  V30 11779 H 1112.65 -0.246924 3.13128 0
M  V30 11780 H 1111.84 1.41367 4.83768 0
M  V30 11781 H 1111.45 1.95264 3.1898 0
M  V30 11782 H 1113.74 2.42659 6.32553 0
M  V30 11783 H 1114.68 3.8942 5.91403 0
M  V30 11784 H 1115.09 2.33426 5.13977 0
M  V30 11785 N 1114.49 -1.10549 1.12324 0
M  V30 11786 C 1115.45 -2.15039 0.793156 0
M  V30 11787 C 1116.45 -1.59651 -0.19192 0
M  V30 11788 O 1117.64 -1.74167 0.0337262 0
M  V30 11789 C 1114.77 -3.40433 0.17842 0
M  V30 11790 H 1115.97 -2.4575 1.71892 0
M  V30 11791 H 1113.52 -1.25892 0.926333 0
M  V30 11792 H 1114.25 -3.15338 -0.757122 0
M  V30 11793 H 1114.04 -3.81921 0.887645 0
M  V30 11794 H 1115.53 -4.17584 -0.0360724 0
M  V30 11795 N 1115.97 -0.914965 -1.28321 0
M  V30 11796 C 1116.91 -0.402792 -2.27258 0
M  V30 11797 C 1117.88 0.523412 -1.57638 0
M  V30 11798 O 1119.07 0.445344 -1.8553 0
M  V30 11799 C 1116.21 0.349956 -3.43321 0
M  V30 11800 C 1115.32 -0.608892 -4.27687 0
M  V30 11801 C 1114.46 0.162425 -5.30952 0
M  V30 11802 C 1113.49 -0.789959 -6.06981 0
M  V30 11803 N 1112.63 -0.0520826 -7.02081 0
M  V30 11804 H 1117.47 -1.25153 -2.70446 0
M  V30 11805 H 1115.01 -0.628444 -1.33 0
M  V30 11806 H 1116.97 0.802589 -4.09407 0
M  V30 11807 H 1115.6 1.16303 -3.01121 0
M  V30 11808 H 1114.65 -1.18005 -3.61634 0
M  V30 11809 H 1115.96 -1.33727 -4.8054 0
M  V30 11810 H 1115.11 0.675563 -6.02927 0
M  V30 11811 H 1113.85 0.923851 -4.7887 0
M  V30 11812 H 1112.86 -1.31446 -5.33856 0
M  V30 11813 H 1114.08 -1.55096 -6.61152 0
M  V30 11814 H 1112.03 0.691331 -6.52347 0
M  V30 11815 H 1111.95 -0.720267 -7.52561 0
M  V30 11816 H 1113.21 0.44082 -7.78253 0
M  V30 11817 N 1117.44 1.42219 -0.679077 0
M  V30 11818 C 1118.86 1.55737 -0.349034 0
M  V30 11819 C 1119.06 1.65789 1.14527 0
M  V30 11820 O 1118.12 1.62717 1.93079 0
M  V30 11821 C 1119.43 2.80516 -1.0831 0
M  V30 11822 C 1120.98 2.94294 -1.06584 0
M  V30 11823 C 1121.45 4.2194 -1.78132 0
M  V30 11824 N 1122.94 4.28861 -1.75021 0
M  V30 11825 C 1123.68 5.26453 -2.27234 0
M  V30 11826 N 1123.17 6.30171 -2.87847 0
M  V30 11827 N 1124.97 5.1828 -2.17584 0
M  V30 11828 H 1117.12 1.33939 -1.64846 0
M  V30 11829 H 1119.38 0.645029 -0.694725 0
M  V30 11830 H 1119.09 2.79241 -2.13816 0
M  V30 11831 H 1118.96 3.71539 -0.651069 0
M  V30 11832 H 1121.35 2.95094 -0.0191061 0
M  V30 11833 H 1121.43 2.04491 -1.53679 0
M  V30 11834 H 1121.07 4.21901 -2.82776 0
M  V30 11835 H 1121 5.10685 -1.28483 0
M  V30 11836 H 1123.49 3.54537 -1.30814 0
M  V30 11837 H 1123.81 7.01 -3.25298 0
M  V30 11838 H 1122.15 6.30721 -2.91918 0
M  V30 11839 H 1125.34 4.36172 -1.69916 0
M  V30 11840 H 1125.52 5.94172 -2.58581 0
M  V30 11841 N 1118.92 0.422693 1.51826 0
M  V30 11842 C 1120.17 -0.148861 2.02253 0
M  V30 11843 C 1120.5 -1.43629 1.30707 0
M  V30 11844 O 1119.78 -1.89967 0.417482 0
M  V30 11845 C 1120.06 -0.382672 3.58061 0
M  V30 11846 C 1119.91 0.922386 4.40241 0
M  V30 11847 C 1121.23 -1.1589 4.24567 0
M  V30 11848 H 1118.35 -0.0526279 0.735119 0
M  V30 11849 H 1120.99 0.558821 1.81596 0
M  V30 11850 H 1119.14 -0.985495 3.75793 0
M  V30 11851 H 1120.81 1.55806 4.34191 0
M  V30 11852 H 1119.06 1.53032 4.05911 0
M  V30 11853 H 1119.73 0.713012 5.47376 0
M  V30 11854 H 1122.2 -0.648415 4.11017 0
M  V30 11855 H 1121.08 -1.29125 5.33496 0
M  V30 11856 H 1121.34 -2.18315 3.84436 0
M  V30 11857 N 1120.4 -1.5685 0.153553 0
M  V30 11858 C 1121.35 -2.1709 -0.783626 0
M  V30 11859 C 1122.32 -1.10567 -1.23952 0
M  V30 11860 O 1123.5 -1.38638 -1.31088 0
M  V30 11861 C 1120.64 -2.80183 -2.01473 0
M  V30 11862 C 1119.75 -4.01117 -1.60403 0
M  V30 11863 C 1118.89 -4.5219 -2.78743 0
M  V30 11864 C 1117.93 -5.65574 -2.34079 0
M  V30 11865 N 1117.07 -6.11235 -3.4545 0
M  V30 11866 H 1121.91 -2.96836 -0.263127 0
M  V30 11867 H 1119.44 -1.46625 -0.11816 0
M  V30 11868 H 1121.4 -3.14912 -2.73654 0
M  V30 11869 H 1120.03 -2.03071 -2.50923 0
M  V30 11870 H 1119.08 -3.72325 -0.779631 0
M  V30 11871 H 1120.39 -4.83243 -1.23605 0
M  V30 11872 H 1119.55 -4.89008 -3.59105 0
M  V30 11873 H 1118.29 -3.69085 -3.18791 0
M  V30 11874 H 1117.29 -5.28326 -1.52158 0
M  V30 11875 H 1118.52 -6.50468 -1.95109 0
M  V30 11876 H 1116.46 -5.31064 -3.85106 0
M  V30 11877 H 1116.38 -6.88304 -3.12687 0
M  V30 11878 H 1117.65 -6.527 -4.26149 0
M  V30 11879 N 1121.88 0.120221 -1.57141 0
M  V30 11880 C 1122.84 1.13159 -1.99318 0
M  V30 11881 C 1123.84 1.34376 -0.883158 0
M  V30 11882 O 1125.03 1.30914 -1.14922 0
M  V30 11883 C 1122.16 2.48632 -2.33227 0
M  V30 11884 H 1123.36 0.769119 -2.8987 0
M  V30 11885 H 1120.91 0.364475 -1.51991 0
M  V30 11886 H 1121.64 2.89802 -1.45551 0
M  V30 11887 H 1121.43 2.34587 -3.14184 0
M  V30 11888 H 1122.92 3.21423 -2.66603 0
M  V30 11889 N 1123.36 1.52689 0.390367 0
M  V30 11890 C 1124.58 1.71541 1.15678 0
M  V30 11891 C 1125 0.433171 1.83764 0
M  V30 11892 O 1124.36 -0.592248 1.72623 0
M  V30 11893 C 1124.41 2.864 2.20584 0
M  V30 11894 O 1124.13 4.0966 1.55274 0
M  V30 11895 C 1125.63 3.1692 3.09962 0
M  V30 11896 H 1122.85 0.574381 0.346883 0
M  V30 11897 H 1125.39 1.99332 0.456851 0
M  V30 11898 H 1123.55 2.61075 2.86214 0
M  V30 11899 H 1123.96 4.73802 2.2497 0
M  V30 11900 H 1125.44 4.00755 3.79604 0
M  V30 11901 H 1125.91 2.31245 3.73393 0
M  V30 11902 H 1126.52 3.4408 2.49979 0
M  V30 11903 N 1124.83 -0.648732 1.43629 0
M  V30 11904 C 1126.08 -1.40446 1.44768 0
M  V30 11905 C 1126.4 -1.95447 0.0773445 0
M  V30 11906 O 1127.6 -2.71479 -0.0337942 0
M  V30 11907 C 1126.06 -2.54194 2.54781 0
M  V30 11908 C 1125.67 -2.05781 3.97942 0
M  V30 11909 C 1127.41 -3.31529 2.65121 0
M  V30 11910 C 1125.32 -3.16767 4.99412 0
M  V30 11911 H 1124.25 -0.527717 0.538545 0
M  V30 11912 H 1126.9 -0.699756 1.69634 0
M  V30 11913 H 1125.28 -3.27156 2.23125 0
M  V30 11914 H 1126.45 -1.398 4.39081 0
M  V30 11915 H 1124.77 -1.41312 3.91688 0
M  V30 11916 H 1127.37 -4.14233 3.38105 0
M  V30 11917 H 1127.71 -3.79855 1.70341 0
M  V30 11918 H 1128.24 -2.65649 2.961 0
M  V30 11919 H 1124.98 -2.73404 5.9576 0
M  V30 11920 H 1124.5 -3.81445 4.62882 0
M  V30 11921 H 1126.18 -3.81827 5.22319 0
M  V30 11922 N 1126.31 -1.30234 -0.887518 0
M  V30 11923 C 1127.24 -1.18969 -2.00919 0
M  V30 11924 C 1128.22 -0.080952 -1.69907 0
M  V30 11925 O 1129.41 -0.262546 -1.92417 0
M  V30 11926 C 1126.54 -0.878094 -3.36016 0
M  V30 11927 C 1125.49 -1.94449 -3.81279 0
M  V30 11928 C 1124.82 -1.48594 -5.13638 0
M  V30 11929 C 1126.12 -3.35519 -4.00281 0
M  V30 11930 H 1127.81 -2.12808 -2.10602 0
M  V30 11931 H 1125.36 -1.02454 -1.01189 0
M  V30 11932 H 1127.31 -0.785954 -4.14006 0
M  V30 11933 H 1126.04 0.0959779 -3.26459 0
M  V30 11934 H 1124.69 -2.02622 -3.05516 0
M  V30 11935 H 1124.34 -0.500204 -5.00507 0
M  V30 11936 H 1124.04 -2.19921 -5.44893 0
M  V30 11937 H 1125.57 -1.40754 -5.94156 0
M  V30 11938 H 1126.98 -3.30119 -4.68716 0
M  V30 11939 H 1125.38 -4.0491 -4.42909 0
M  V30 11940 H 1126.45 -3.77597 -3.04218 0
M  V30 11941 N 1127.79 1.09952 -1.12909 0
M  V30 11942 C 1129.02 1.8552 -0.909163 0
M  V30 11943 C 1129.43 1.81173 0.545253 0
M  V30 11944 O 1128.77 1.20223 1.38896 0
M  V30 11945 C 1128.83 3.34693 -1.31228 0
M  V30 11946 C 1128.5 3.62794 -2.77902 0
M  V30 11947 C 1129.49 3.58973 -3.76078 0
M  V30 11948 C 1127.18 3.91311 -3.1493 0
M  V30 11949 C 1129.17 3.83271 -5.09296 0
M  V30 11950 C 1126.86 4.15265 -4.48328 0
M  V30 11951 C 1127.86 4.11236 -5.4532 0
M  V30 11952 O 1127.55 4.34576 -6.76313 0
M  V30 11953 H 1127.28 0.59303 -0.324486 0
M  V30 11954 H 1129.83 1.39878 -1.5041 0
M  V30 11955 H 1128.06 3.81016 -0.660573 0
M  V30 11956 H 1129.75 3.9166 -1.06569 0
M  V30 11957 H 1130.52 3.36974 -3.48817 0
M  V30 11958 H 1126.4 3.93575 -2.40041 0
M  V30 11959 H 1129.94 3.80041 -5.84991 0
M  V30 11960 H 1125.84 4.36743 -4.75316 0
M  V30 11961 H 1126.61 4.52065 -6.82334 0
M  V30 11962 N 1129.27 0.921757 1.27833 0
M  V30 11963 C 1130.23 0.420978 2.25301 0
M  V30 11964 C 1131.23 -0.457158 1.54165 0
M  V30 11965 O 1132.42 -0.259079 1.72263 0
M  V30 11966 C 1129.55 -0.395501 3.38598 0
M  V30 11967 H 1130.75 1.28206 2.71115 0
M  V30 11968 H 1128.3 0.701893 1.39654 0
M  V30 11969 H 1129.03 -1.27565 2.98157 0
M  V30 11970 H 1128.82 0.234029 3.91401 0
M  V30 11971 H 1130.31 -0.736444 4.11055 0
M  V30 11972 N 1130.75 -1.41857 0.686609 0
M  V30 11973 C 1131.97 -2.05699 0.222561 0
M  V30 11974 C 1132.39 -1.51636 -1.12481 0
M  V30 11975 O 1131.75 -0.660925 -1.70112 0
M  V30 11976 C 1131.8 -3.61138 0.161818 0
M  V30 11977 O 1131.52 -4.13199 1.45596 0
M  V30 11978 C 1133.02 -4.42112 -0.324304 0
M  V30 11979 H 1130.24 -0.662665 0.10543 0
M  V30 11980 H 1132.78 -1.81788 0.936671 0
M  V30 11981 H 1130.94 -3.8412 -0.503056 0
M  V30 11982 H 1131.35 -5.0717 1.33712 0
M  V30 11983 H 1132.83 -5.51097 -0.315694 0
M  V30 11984 H 1133.3 -4.1756 -1.36164 0
M  V30 11985 H 1133.91 -4.24174 0.309251 0
M  V30 11986 N 1132.22 -0.430739 -1.51599 0
M  V30 11987 C 1133.13 0.390347 -2.3133 0
M  V30 11988 C 1134.15 1.03376 -1.39962 0
M  V30 11989 O 1135.33 1.03057 -1.73035 0
M  V30 11990 C 1132.39 1.48039 -3.13505 0
M  V30 11991 C 1131.45 0.857792 -4.20643 0
M  V30 11992 C 1130.69 1.89589 -4.9889 0
M  V30 11993 O 1130.91 3.11717 -4.77691 0
M  V30 11994 O 1129.84 1.49009 -5.83164 0
M  V30 11995 H 1133.67 -0.260358 -3.02582 0
M  V30 11996 H 1131.25 -0.193428 -1.48143 0
M  V30 11997 H 1133.14 2.11272 -3.64612 0
M  V30 11998 H 1131.81 2.1153 -2.45024 0
M  V30 11999 H 1130.72 0.187592 -3.73629 0
M  V30 12000 H 1132.05 0.266474 -4.91478 0
M  V30 12001 N 1133.7 1.56767 -0.161869 0
M  V30 12002 C 1134.93 2.00964 0.492027 0
M  V30 12003 C 1135.35 1.04206 1.57437 0
M  V30 12004 O 1134.7 0.0413998 1.82453 0
M  V30 12005 C 1134.75 3.4502 1.07904 0
M  V30 12006 O 1134.47 4.38082 0.0399085 0
M  V30 12007 C 1135.98 4.04572 1.81209 0
M  V30 12008 H 1133.2 0.658911 0.126797 0
M  V30 12009 H 1135.74 2.0283 -0.260824 0
M  V30 12010 H 1133.89 3.43959 1.78243 0
M  V30 12011 H 1134.31 5.22372 0.471985 0
M  V30 12012 H 1135.78 5.07321 2.17554 0
M  V30 12013 H 1136.26 3.46126 2.70359 0
M  V30 12014 H 1136.87 4.09307 1.15534 0
M  V30 12015 N 1135.18 -0.111886 1.57202 0
M  V30 12016 C 1136.43 -0.816794 1.84859 0
M  V30 12017 C 1136.75 -1.80079 0.748113 0
M  V30 12018 O 1136.02 -1.94578 -0.227235 0
M  V30 12019 H 1134.6 -0.304633 0.682061 0
M  V30 12020 H 1137.26 -0.097513 1.94656 0
M  V30 12021 H 1136.36 -1.35768 2.81022 0
M  V30 12022 N 1136.66 -1.52894 -0.382264 0
M  V30 12023 C 1137.61 -1.78151 -1.46734 0
M  V30 12024 C 1138.58 -0.625034 -1.53891 0
M  V30 12025 O 1139.76 -0.865467 -1.70042 0
M  V30 12026 C 1136.9 -1.96223 -2.83885 0
M  V30 12027 C 1136.01 -3.23925 -2.85826 0
M  V30 12028 C 1135.15 -3.32277 -4.14446 0
M  V30 12029 C 1134.19 -4.54076 -4.10465 0
M  V30 12030 N 1133.32 -4.59672 -5.30703 0
M  V30 12031 H 1138.16 -2.70748 -1.24497 0
M  V30 12032 H 1135.7 -1.34135 -0.603838 0
M  V30 12033 H 1137.66 -2.04686 -3.63537 0
M  V30 12034 H 1136.29 -1.0698 -3.04557 0
M  V30 12035 H 1135.34 -3.245 -1.98505 0
M  V30 12036 H 1136.65 -4.1364 -2.78754 0
M  V30 12037 H 1135.81 -3.3996 -5.02506 0
M  V30 12038 H 1134.55 -2.40548 -4.2425 0
M  V30 12039 H 1133.55 -4.46511 -3.20793 0
M  V30 12040 H 1134.78 -5.47128 -4.02278 0
M  V30 12041 H 1132.72 -3.70838 -5.41124 0
M  V30 12042 H 1132.64 -5.43268 -5.25734 0
M  V30 12043 H 1133.91 -4.71618 -6.20642 0
M  V30 12044 N 1138.14 0.641106 -1.43971 0
M  V30 12045 C 1139.36 1.43324 -1.4991 0
M  V30 12046 C 1139.79 1.87705 -0.121908 0
M  V30 12047 O 1139.15 1.58127 0.886875 0
M  V30 12048 C 1139.19 2.63637 -2.46025 0
M  V30 12049 O 1138.3 3.63123 -1.95488 0
M  V30 12050 H 1137.64 0.429252 -0.506595 0
M  V30 12051 H 1140.17 0.783427 -1.89007 0
M  V30 12052 H 1140.18 3.11304 -2.63731 0
M  V30 12053 H 1138.85 2.30678 -3.46064 0
M  V30 12054 H 1137.43 3.22332 -1.87501 0
M  V30 12055 N 1139.62 1.30703 0.880598 0
M  V30 12056 C 1140.55 1.1327 1.99255 0
M  V30 12057 C 1141.56 0.0747186 1.62628 0
M  V30 12058 O 1142.75 0.321169 1.75587 0
M  V30 12059 C 1139.85 0.706179 3.31461 0
M  V30 12060 C 1139.02 1.84687 3.96497 0
M  V30 12061 C 1138.08 1.40817 5.07008 0
M  V30 12062 O 1137.11 2.1161 5.28403 0
M  V30 12063 N 1138.31 0.289619 5.79777 0
M  V30 12064 H 1141.07 2.09043 2.14759 0
M  V30 12065 H 1138.64 1.22896 1.05395 0
M  V30 12066 H 1140.63 0.395617 4.02762 0
M  V30 12067 H 1139.2 -0.159631 3.12192 0
M  V30 12068 H 1138.42 2.32531 3.18312 0
M  V30 12069 H 1139.71 2.61117 4.36687 0
M  V30 12070 H 1139.1 -0.300177 5.64903 0
M  V30 12071 H 1137.66 0.0385346 6.51789 0
M  V30 12072 N 1141.09 -1.09351 1.1349 0
M  V30 12073 C 1142.06 -2.14185 0.815919 0
M  V30 12074 C 1143.06 -1.59845 -0.174976 0
M  V30 12075 O 1144.25 -1.74122 0.0521971 0
M  V30 12076 C 1141.38 -3.40224 0.214517 0
M  V30 12077 H 1142.57 -2.43913 1.74489 0
M  V30 12078 H 1140.12 -1.24902 0.939634 0
M  V30 12079 H 1140.86 -3.16123 -0.723634 0
M  V30 12080 H 1140.64 -3.80958 0.928102 0
M  V30 12081 H 1142.13 -4.17599 0.00821999 0
M  V30 12082 N 1142.57 -0.928524 -1.27343 0
M  V30 12083 C 1143.8 -0.584884 -1.98148 0
M  V30 12084 C 1144.21 0.841603 -1.69451 0
M  V30 12085 O 1143.55 1.57104 -0.952053 0
M  V30 12086 C 1143.61 -0.731911 -3.51971 0
M  V30 12087 C 1143.28 -2.13067 -4.04291 0
M  V30 12088 C 1144.28 -3.10492 -4.17002 0
M  V30 12089 C 1141.96 -2.44784 -4.38619 0
M  V30 12090 C 1143.95 -4.37742 -4.63315 0
M  V30 12091 C 1141.64 -3.72269 -4.84622 0
M  V30 12092 C 1142.64 -4.68562 -4.9693 0
M  V30 12093 O 1142.33 -5.93779 -5.41924 0
M  V30 12094 H 1142.06 -0.220347 -0.63908 0
M  V30 12095 H 1144.61 -1.24799 -1.63139 0
M  V30 12096 H 1142.84 -0.0116966 -3.86698 0
M  V30 12097 H 1144.53 -0.393206 -4.03991 0
M  V30 12098 H 1145.3 -2.8731 -3.9074 0
M  V30 12099 H 1141.18 -1.70577 -4.28281 0
M  V30 12100 H 1144.72 -5.12905 -4.72836 0
M  V30 12101 H 1140.62 -3.95269 -5.10326 0
M  V30 12102 H 1141.39 -5.96779 -5.60176 0
M  V30 12103 N 1144.05 1.41491 -0.694123 0
M  V30 12104 C 1145.01 2.2917 -0.0368562 0
M  V30 12105 C 1146.01 1.44305 0.709426 0
M  V30 12106 O 1147.2 1.6547 0.544533 0
M  V30 12107 C 1144.33 3.27156 0.958201 0
M  V30 12108 H 1145.53 2.88787 -0.808829 0
M  V30 12109 H 1143.08 1.49453 -0.457538 0
M  V30 12110 H 1143.82 2.72516 1.75799 0
M  V30 12111 H 1143.6 3.89776 0.426227 0
M  V30 12112 H 1145.09 3.92863 1.41592 0
M  V30 12113 N 1145.53 0.438773 1.51369 0
M  V30 12114 C 1146.47 -0.37195 2.27783 0
M  V30 12115 C 1147.44 -1.01558 1.31435 0
M  V30 12116 O 1148.63 -1.03421 1.60339 0
M  V30 12117 C 1145.77 -1.46636 3.12397 0
M  V30 12118 C 1144.88 -0.840727 4.2374 0
M  V30 12119 C 1144.02 -1.91031 4.95662 0
M  V30 12120 C 1143.06 -1.26318 5.98924 0
M  V30 12121 N 1142.19 -2.27419 6.64248 0
M  V30 12122 H 1147.03 0.286048 2.96624 0
M  V30 12123 H 1144.57 0.152909 1.46303 0
M  V30 12124 H 1146.53 -2.11219 3.59781 0
M  V30 12125 H 1145.16 -2.09397 2.45668 0
M  V30 12126 H 1144.21 -0.0831588 3.80309 0
M  V30 12127 H 1145.52 -0.328285 4.97719 0
M  V30 12128 H 1144.68 -2.63272 5.46601 0
M  V30 12129 H 1143.42 -2.45649 4.21317 0
M  V30 12130 H 1142.42 -0.526246 5.47276 0
M  V30 12131 H 1143.65 -0.724324 6.75226 0
M  V30 12132 H 1141.59 -2.81114 5.92715 0
M  V30 12133 H 1141.51 -1.81071 7.33996 0
M  V30 12134 H 1142.78 -2.99139 7.19817 0
M  V30 12135 N 1147.01 -1.56678 0.170181 0
M  V30 12136 C 1148.23 -2.01223 -0.481362 0
M  V30 12137 C 1148.65 -1.05039 -1.56883 0
M  V30 12138 O 1148.01 -0.0510751 -1.82429 0
M  V30 12139 C 1148.06 -3.45588 -1.06073 0
M  V30 12140 O 1147.78 -4.38097 -0.0166754 0
M  V30 12141 C 1149.28 -4.05527 -1.79061 0
M  V30 12142 H 1146.5 -0.659574 -0.1233 0
M  V30 12143 H 1149.04 -2.02689 0.271576 0
M  V30 12144 H 1147.2 -3.449 -1.76417 0
M  V30 12145 H 1147.61 -5.22615 -0.444276 0
M  V30 12146 H 1149.09 -5.08467 -2.1486 0
M  V30 12147 H 1149.56 -3.47554 -2.68519 0
M  V30 12148 H 1150.17 -4.09914 -1.13361 0
M  V30 12149 N 1148.48 0.103547 -1.57259 0
M  V30 12150 C 1149.41 1.12714 -2.04494 0
M  V30 12151 C 1150.39 1.42278 -0.932255 0
M  V30 12152 O 1151.58 1.52453 -1.20298 0
M  V30 12153 C 1148.71 2.44927 -2.46228 0
M  V30 12154 C 1147.66 2.2979 -3.61082 0
M  V30 12155 C 1146.99 3.67105 -3.88765 0
M  V30 12156 C 1148.29 1.7455 -4.9227 0
M  V30 12157 H 1149.98 0.734198 -2.90258 0
M  V30 12158 H 1147.53 0.351725 -1.39638 0
M  V30 12159 H 1149.48 3.16798 -2.77879 0
M  V30 12160 H 1148.21 2.8614 -1.57453 0
M  V30 12161 H 1146.87 1.60366 -3.29664 0
M  V30 12162 H 1146.51 4.05831 -2.97171 0
M  V30 12163 H 1146.21 3.57825 -4.66084 0
M  V30 12164 H 1147.74 4.40456 -4.22884 0
M  V30 12165 H 1149.15 2.36253 -5.22358 0
M  V30 12166 H 1147.55 1.76051 -5.73695 0
M  V30 12167 H 1148.62 0.704242 -4.79759 0
M  V30 12168 N 1149.96 1.53094 0.37415 0
M  V30 12169 C 1151.2 1.70558 1.12647 0
M  V30 12170 C 1151.57 0.443515 1.86807 0
M  V30 12171 O 1152.77 0.49472 2.64208 0
M  V30 12172 C 1151.04 2.91565 2.06699 0
M  V30 12173 S 1152.6 3.29692 2.89567 0
M  V30 12174 H 1149.41 0.600238 0.381097 0
M  V30 12175 H 1152.02 1.91177 0.408865 0
M  V30 12176 H 1150.72 3.81625 1.50965 0
M  V30 12177 H 1150.25 2.73323 2.82945 0
M  V30 12178 H 1152.27 2.81036 4.08942 0
M  V30 12179 N 1151.44 -0.633461 1.44309 0
M  V30 12180 C 1152.35 -1.77428 1.53481 0
M  V30 12181 C 1153.37 -1.68839 0.420628 0
M  V30 12182 O 1154.54 -1.89658 0.677638 0
M  V30 12183 C 1151.61 -3.13801 1.47409 0
M  V30 12184 C 1150.67 -3.34039 2.6966 0
M  V30 12185 C 1149.9 -4.63907 2.63868 0
M  V30 12186 O 1150.12 -5.44559 1.69741 0
M  V30 12187 O 1149.06 -4.86295 3.54684 0
M  V30 12188 H 1152.88 -1.72642 2.49857 0
M  V30 12189 H 1150.47 -0.794399 1.26529 0
M  V30 12190 H 1152.35 -3.95101 1.46537 0
M  V30 12191 H 1151.03 -3.19134 0.541769 0
M  V30 12192 H 1149.93 -2.52427 2.761 0
M  V30 12193 H 1151.27 -3.33566 3.61931 0
M  V30 12194 N 1152.92 -1.31168 -0.873655 0
M  V30 12195 C 1154.17 -1.20003 -1.62118 0
M  V30 12196 C 1154.48 0.241505 -1.94103 0
M  V30 12197 O 1155.69 0.474801 -2.67316 0
M  V30 12198 C 1154.14 -2.10055 -2.92241 0
M  V30 12199 C 1153.75 -3.59183 -2.67752 0
M  V30 12200 C 1155.49 -2.07681 -3.70228 0
M  V30 12201 C 1153.4 -4.41255 -3.93761 0
M  V30 12202 H 1152.33 -0.445564 -0.608267 0
M  V30 12203 H 1154.98 -1.55997 -0.966287 0
M  V30 12204 H 1153.36 -1.66956 -3.59085 0
M  V30 12205 H 1154.54 -4.10504 -2.09339 0
M  V30 12206 H 1152.85 -3.63496 -2.03125 0
M  V30 12207 H 1155.45 -2.66246 -4.637 0
M  V30 12208 H 1155.79 -1.06304 -4.02499 0
M  V30 12209 H 1156.33 -2.48961 -3.10263 0
M  V30 12210 H 1153.07 -5.43372 -3.66643 0
M  V30 12211 H 1152.59 -3.94694 -4.51638 0
M  V30 12212 H 1154.26 -4.53278 -4.6168 0
M  V30 12213 N 1154.4 1.08748 -1.14068 0
M  V30 12214 C 1155.64 1.81065 -0.906738 0
M  V30 12215 C 1155.97 1.86057 0.566844 0
M  V30 12216 O 1155.23 1.32976 1.43582 0
M  V30 12217 C 1155.53 3.26734 -1.44843 0
M  V30 12218 C 1155.19 3.41866 -2.94005 0
M  V30 12219 C 1153.85 3.45703 -3.34729 0
M  V30 12220 C 1156.21 3.45831 -3.89937 0
M  V30 12221 C 1153.53 3.51092 -4.70055 0
M  V30 12222 C 1155.89 3.52755 -5.25116 0
M  V30 12223 C 1154.55 3.54863 -5.65357 0
M  V30 12224 H 1153.82 0.662564 -0.331799 0
M  V30 12225 H 1156.47 1.28065 -1.42378 0
M  V30 12226 H 1154.77 3.82419 -0.852239 0
M  V30 12227 H 1156.47 3.81236 -1.2434 0
M  V30 12228 H 1153.06 3.39568 -2.61518 0
M  V30 12229 H 1157.24 3.421 -3.59557 0
M  V30 12230 H 1152.5 3.51015 -5.00598 0
M  V30 12231 H 1156.67 3.54768 -5.9926 0
M  V30 12232 H 1154.3 3.58792 -6.70203 0
M  V30 12233 N 1155.87 0.935264 1.26849 0
M  V30 12234 C 1156.82 0.438896 2.26588 0
M  V30 12235 C 1157.79 -0.498267 1.5845 0
M  V30 12236 O 1158.98 -0.415771 1.86215 0
M  V30 12237 C 1156.12 -0.295293 3.43834 0
M  V30 12238 C 1155.23 0.676857 4.26665 0
M  V30 12239 C 1154.36 -0.0779349 5.31143 0
M  V30 12240 C 1153.4 0.886425 6.05648 0
M  V30 12241 N 1152.54 0.163771 7.01909 0
M  V30 12242 H 1157.38 1.29439 2.6842 0
M  V30 12243 H 1154.92 0.649523 1.31983 0
M  V30 12244 H 1156.88 -0.737354 4.10632 0
M  V30 12245 H 1155.51 -1.11497 3.02933 0
M  V30 12246 H 1154.56 1.23744 3.5971 0
M  V30 12247 H 1155.87 1.41355 4.78351 0
M  V30 12248 H 1155.02 -0.579557 6.03926 0
M  V30 12249 H 1153.76 -0.84755 4.80279 0
M  V30 12250 H 1152.77 1.39923 5.31697 0
M  V30 12251 H 1153.99 1.65595 6.58601 0
M  V30 12252 H 1151.94 -0.58746 6.53364 0
M  V30 12253 H 1151.86 0.839902 7.5132 0
M  V30 12254 H 1153.12 -0.316951 7.78855 0
M  V30 12255 N 1157.35 -1.41121 0.701616 0
M  V30 12256 C 1158.3 -2.27994 0.0168361 0
M  V30 12257 C 1159.29 -1.42523 -0.746733 0
M  V30 12258 O 1160.48 -1.6574 -0.621232 0
M  V30 12259 C 1157.61 -3.30898 -0.914417 0
M  V30 12260 C 1156.69 -4.23846 -0.146776 0
M  V30 12261 N 1157.08 -4.9839 0.862624 0
M  V30 12262 C 1155.38 -4.44366 -0.38138 0
M  V30 12263 C 1156.08 -5.66463 1.32266 0
M  V30 12264 N 1155.06 -5.39731 0.647433 0
M  V30 12265 H 1158.86 -2.83065 0.790675 0
M  V30 12266 H 1156.38 -1.53405 0.532977 0
M  V30 12267 H 1158.37 -3.91964 -1.4202 0
M  V30 12268 H 1157.03 -2.77387 -1.68779 0
M  V30 12269 H 1158.04 -5.02761 1.24305 0
M  V30 12270 H 1154.72 -4.01856 -1.13216 0
M  V30 12271 H 1156.11 -6.36213 2.16061 0
M  V30 12272 N 1158.83 -0.446794 -1.51134 0
M  V30 12273 C 1159.79 0.348311 -2.26538 0
M  V30 12274 C 1160.79 0.941566 -1.3035 0
M  V30 12275 O 1161.98 0.814537 -1.53984 0
M  V30 12276 C 1159.12 1.49371 -3.06433 0
M  V30 12277 H 1160.31 -0.312648 -2.98266 0
M  V30 12278 H 1157.86 -0.200201 -1.55013 0
M  V30 12279 H 1158.6 2.19045 -2.39144 0
M  V30 12280 H 1158.38 1.07439 -3.77093 0
M  V30 12281 H 1159.87 2.05522 -3.63525 0
M  V30 12282 N 1160.31 1.56586 -0.178487 0
M  V30 12283 C 1161.56 1.97098 0.464617 0
M  V30 12284 C 1161.88 1.06476 1.62767 0
M  V30 12285 O 1161.14 0.100337 1.95443 0
M  V30 12286 C 1161.44 3.43629 0.982552 0
M  V30 12287 C 1161.1 4.50853 -0.0653645 0
M  V30 12288 C 1159.77 4.79901 -0.353349 0
M  V30 12289 C 1162.12 5.15387 -0.776279 0
M  V30 12290 C 1159.45 5.70779 -1.35751 0
M  V30 12291 C 1161.8 6.07349 -1.76948 0
M  V30 12292 C 1160.46 6.34761 -2.06483 0
M  V30 12293 H 1159.73 0.721232 0.170016 0
M  V30 12294 H 1162.38 1.89559 -0.271959 0
M  V30 12295 H 1160.68 3.48155 1.79709 0
M  V30 12296 H 1162.38 3.7232 1.48926 0
M  V30 12297 H 1158.97 4.28266 0.169266 0
M  V30 12298 H 1163.15 4.9305 -0.567008 0
M  V30 12299 H 1158.41 5.90298 -1.59244 0
M  V30 12300 H 1162.58 6.56419 -2.32567 0
M  V30 12301 H 1160.21 7.0498 -2.84441 0
M  V30 12302 N 1161.79 -0.095206 1.57312 0
M  V30 12303 C 1163.06 -0.830388 1.77099 0
M  V30 12304 C 1163.44 -1.9694 0.760121 0
M  V30 12305 O 1162.79 -2.2752 -0.211403 0
M  V30 12306 C 1163 -1.32507 3.22867 0
M  V30 12307 C 1164.35 -1.7679 3.86045 0
M  V30 12308 O 1165.37 -1.42131 3.26615 0
M  V30 12309 O 1164.23 -2.40876 4.90552 0
M  V30 12310 H 1161.33 -0.396083 0.72598 0
M  V30 12311 H 1163.87 -0.0770965 1.69525 0
M  V30 12312 H 1162.64 -0.508992 3.87975 0
M  V30 12313 H 1162.27 -2.14037 3.35073 0
M  V30 12314 N 1163.26 -1.53291 -0.366026 0
M  V30 12315 C 1164.23 -1.79025 -1.43117 0
M  V30 12316 C 1165.23 -0.660676 -1.46601 0
M  V30 12317 O 1166.42 -0.928875 -1.47369 0
M  V30 12318 C 1163.55 -1.91192 -2.82238 0
M  V30 12319 H 1164.74 -2.74154 -1.21572 0
M  V30 12320 H 1162.3 -1.44361 -0.599132 0
M  V30 12321 H 1163.03 -0.98129 -3.09097 0
M  V30 12322 H 1162.82 -2.7335 -2.81109 0
M  V30 12323 H 1164.31 -2.12696 -3.59375 0
M  V30 12324 N 1164.74 0.6258 -1.44643 0
M  V30 12325 C 1165.69 1.73751 -1.51919 0
M  V30 12326 C 1166.66 1.62007 -0.36647 0
M  V30 12327 O 1167.84 1.81852 -0.577439 0
M  V30 12328 C 1164.98 3.12015 -1.47448 0
M  V30 12329 C 1164.1 3.34696 -2.73135 0
M  V30 12330 C 1163.23 4.62962 -2.6046 0
M  V30 12331 C 1162.27 4.7884 -3.81286 0
M  V30 12332 N 1161.41 5.98388 -3.67255 0
M  V30 12333 H 1166.25 1.66867 -2.46899 0
M  V30 12334 H 1163.79 0.813921 -1.22531 0
M  V30 12335 H 1165.74 3.91983 -1.42846 0
M  V30 12336 H 1164.37 3.179 -0.560312 0
M  V30 12337 H 1163.43 2.4863 -2.87901 0
M  V30 12338 H 1164.74 3.42306 -3.62806 0
M  V30 12339 H 1163.89 5.51099 -2.53722 0
M  V30 12340 H 1162.63 4.57719 -1.68359 0
M  V30 12341 H 1161.64 3.89131 -3.88403 0
M  V30 12342 H 1162.86 4.85893 -4.74431 0
M  V30 12343 H 1160.81 5.94224 -2.77909 0
M  V30 12344 H 1160.72 6.07078 -4.50547 0
M  V30 12345 H 1161.99 6.89072 -3.64417 0
M  V30 12346 N 1166.22 1.31629 0.866686 0
M  V30 12347 C 1167.47 1.21683 1.62238 0
M  V30 12348 C 1167.8 -0.223767 1.92907 0
M  V30 12349 O 1167.07 -1.15761 1.563 0
M  V30 12350 C 1167.36 2.06443 2.95048 0
M  V30 12351 C 1167.21 3.58818 2.71237 0
M  V30 12352 C 1168.53 1.91634 3.96187 0
M  V30 12353 H 1165.65 0.443389 0.588707 0
M  V30 12354 H 1168.29 1.61453 1.00164 0
M  V30 12355 H 1166.44 1.72654 3.48027 0
M  V30 12356 H 1168.11 4.0276 2.24905 0
M  V30 12357 H 1166.36 3.82085 2.05411 0
M  V30 12358 H 1167.03 4.13436 3.65752 0
M  V30 12359 H 1169.5 2.21209 3.52428 0
M  V30 12360 H 1168.38 2.53236 4.86993 0
M  V30 12361 H 1168.64 0.880564 4.33242 0
M  V30 12362 N 1167.7 -1.08142 1.14644 0
M  V30 12363 C 1168.63 -2.14476 0.779437 0
M  V30 12364 C 1169.61 -1.60812 -0.240454 0
M  V30 12365 O 1170.79 -1.88059 -0.128881 0
M  V30 12366 C 1167.92 -3.38333 0.157692 0
M  V30 12367 C 1166.97 -4.10754 1.14819 0
M  V30 12368 S 1167.8 -4.63227 2.68666 0
M  V30 12369 C 1168.96 -5.90367 2.07888 0
M  V30 12370 H 1169.19 -2.45276 1.68009 0
M  V30 12371 H 1166.72 -1.20292 0.967942 0
M  V30 12372 H 1168.68 -4.10038 -0.194607 0
M  V30 12373 H 1167.34 -3.05726 -0.720435 0
M  V30 12374 H 1166.53 -4.99644 0.661226 0
M  V30 12375 H 1166.14 -3.44974 1.44462 0
M  V30 12376 H 1168.43 -6.62107 1.43599 0
M  V30 12377 H 1169.37 -6.43764 2.94913 0
M  V30 12378 H 1169.78 -5.43507 1.52514 0
M  V30 12379 N 1169.18 -0.941978 -1.26351 0
M  V30 12380 C 1170.4 -0.606231 -1.98342 0
M  V30 12381 C 1170.83 0.812014 -1.6967 0
M  V30 12382 O 1170.19 1.54712 -0.9452 0
M  V30 12383 C 1170.23 -0.855864 -3.50296 0
M  V30 12384 O 1169.34 0.0716251 -4.12338 0
M  V30 12385 H 1168.68 -0.231815 -0.62222 0
M  V30 12386 H 1171.21 -1.26513 -1.60797 0
M  V30 12387 H 1171.22 -0.777079 -4.00531 0
M  V30 12388 H 1169.89 -1.8896 -3.70496 0
M  V30 12389 H 1168.47 -0.0582866 -3.72854 0
M  V30 12390 N 1170.66 1.40747 -0.709091 0
M  V30 12391 C 1171.59 2.282 -0.00156906 0
M  V30 12392 C 1172.57 1.42981 0.774279 0
M  V30 12393 O 1173.75 1.724 0.762276 0
M  V30 12394 C 1170.88 3.23441 1.00517 0
M  V30 12395 C 1169.92 4.25291 0.320904 0
M  V30 12396 S 1170.76 5.27069 -0.946518 0
M  V30 12397 C 1171.91 6.25873 0.0582856 0
M  V30 12398 H 1172.15 2.87859 -0.743271 0
M  V30 12399 H 1169.68 1.46085 -0.499866 0
M  V30 12400 H 1171.64 3.78841 1.58082 0
M  V30 12401 H 1170.3 2.62851 1.71954 0
M  V30 12402 H 1169.49 4.92255 1.08173 0
M  V30 12403 H 1169.09 3.73557 -0.18202 0
M  V30 12404 H 1171.38 6.71398 0.907233 0
M  V30 12405 H 1172.33 7.05739 -0.577787 0
M  V30 12406 H 1172.74 5.62942 0.419108 0
M  V30 12407 N 1172.13 0.454803 1.50895 0
M  V30 12408 C 1173.04 -0.353495 2.31921 0
M  V30 12409 C 1174.06 -1.01136 1.41589 0
M  V30 12410 O 1175.24 -1.00291 1.74653 0
M  V30 12411 C 1172.3 -1.43032 3.15821 0
M  V30 12412 C 1171.36 -0.790763 4.21954 0
M  V30 12413 C 1170.59 -1.81628 5.01843 0
M  V30 12414 O 1170.82 -3.04078 4.8259 0
M  V30 12415 O 1169.75 -1.39713 5.8546 0
M  V30 12416 H 1173.58 0.308463 3.02129 0
M  V30 12417 H 1171.16 0.216971 1.47816 0
M  V30 12418 H 1173.04 -2.05444 3.67927 0
M  V30 12419 H 1171.72 -2.07605 2.48358 0
M  V30 12420 H 1170.63 -0.128127 3.73881 0
M  V30 12421 H 1171.96 -0.188251 4.9184 0
M  V30 12422 N 1173.61 -1.56489 0.186789 0
M  V30 12423 C 1174.52 -2.22304 -0.749543 0
M  V30 12424 C 1175.54 -1.21949 -1.24115 0
M  V30 12425 O 1176.71 -1.5466 -1.29005 0
M  V30 12426 C 1173.78 -2.863 -1.95533 0
M  V30 12427 C 1172.84 -4.01901 -1.5091 0
M  V30 12428 C 1172.07 -4.62837 -2.6574 0
M  V30 12429 O 1172.3 -4.22681 -3.8301 0
M  V30 12430 O 1171.23 -5.52446 -2.38929 0
M  V30 12431 H 1175.06 -3.02909 -0.21908 0
M  V30 12432 H 1172.64 -1.49341 -0.0421249 0
M  V30 12433 H 1174.52 -3.2682 -2.6602 0
M  V30 12434 H 1173.2 -2.08681 -2.47455 0
M  V30 12435 H 1172.1 -3.66021 -0.773261 0
M  V30 12436 H 1173.44 -4.8116 -1.03663 0
M  V30 12437 N 1175.09 0.086862 -1.5736 0
M  V30 12438 C 1176.32 0.801004 -1.9044 0
M  V30 12439 C 1176.73 1.72396 -0.779513 0
M  V30 12440 O 1176.07 1.81894 0.256972 0
M  V30 12441 C 1176.13 1.66055 -3.18851 0
M  V30 12442 C 1175.8 0.908561 -4.47877 0
M  V30 12443 C 1176.79 0.234621 -5.1937 0
M  V30 12444 C 1174.48 0.8802 -4.94528 0
M  V30 12445 C 1176.47 -0.45762 -6.35755 0
M  V30 12446 C 1174.16 0.184179 -6.10822 0
M  V30 12447 C 1175.16 -0.483545 -6.81286 0
M  V30 12448 O 1174.85 -1.16839 -7.95364 0
M  V30 12449 H 1174.58 0.233794 -0.634284 0
M  V30 12450 H 1177.13 0.0660113 -2.05294 0
M  V30 12451 H 1175.36 2.43798 -3.00165 0
M  V30 12452 H 1177.05 2.252 -3.37698 0
M  V30 12453 H 1177.82 0.247938 -4.84366 0
M  V30 12454 H 1173.7 1.38938 -4.39565 0
M  V30 12455 H 1177.24 -0.979369 -6.90691 0
M  V30 12456 H 1173.14 0.168737 -6.45279 0
M  V30 12457 H 1173.9 -1.07612 -8.11395 0
M  V30 12458 N 1176.57 1.53483 0.357892 0
M  V30 12459 C 1177.84 1.60649 1.11585 0
M  V30 12460 C 1178.22 0.418789 2.06904 0
M  V30 12461 O 1177.57 -0.590279 2.20744 0
M  V30 12462 C 1177.78 2.96046 1.84818 0
M  V30 12463 C 1179.13 3.50895 2.39076 0
M  V30 12464 O 1180.15 2.98126 1.94934 0
M  V30 12465 O 1179.01 4.43163 3.19794 0
M  V30 12466 H 1176.11 0.649202 0.512315 0
M  V30 12467 H 1178.65 1.65826 0.360537 0
M  V30 12468 H 1177.43 3.73929 1.15296 0
M  V30 12469 H 1177.05 2.94395 2.6724 0
M  V30 12470 N 1178.05 -0.61812 1.44973 0
M  V30 12471 C 1179.29 -1.37343 1.47715 0
M  V30 12472 C 1179.61 -1.95239 0.118784 0
M  V30 12473 O 1180.81 -2.7149 0.0237981 0
M  V30 12474 C 1179.27 -2.48732 2.60116 0
M  V30 12475 C 1178.88 -1.97294 4.02218 0
M  V30 12476 C 1180.62 -3.25831 2.72093 0
M  V30 12477 C 1178.53 -3.06102 5.06019 0
M  V30 12478 H 1177.46 -0.516175 0.549617 0
M  V30 12479 H 1180.11 -0.663617 1.7108 0
M  V30 12480 H 1178.49 -3.2235 2.30014 0
M  V30 12481 H 1179.67 -1.30455 4.41948 0
M  V30 12482 H 1177.98 -1.32972 3.94598 0
M  V30 12483 H 1180.58 -4.06968 3.46815 0
M  V30 12484 H 1180.92 -3.76156 1.7836 0
M  V30 12485 H 1181.45 -2.59309 3.01668 0
M  V30 12486 H 1178.19 -2.60706 6.01426 0
M  V30 12487 H 1177.71 -3.71541 4.70869 0
M  V30 12488 H 1179.39 -3.70662 5.30301 0
M  V30 12489 N 1179.52 -1.32087 -0.859693 0
M  V30 12490 C 1180.77 -1.22542 -1.6159 0
M  V30 12491 C 1181.1 0.213533 -1.93022 0
M  V30 12492 O 1180.38 1.14931 -1.56911 0
M  V30 12493 C 1180.66 -2.08004 -2.93949 0
M  V30 12494 C 1180.51 -3.60252 -2.6933 0
M  V30 12495 C 1181.83 -1.93732 -3.95166 0
M  V30 12496 H 1178.95 -0.446504 -0.586347 0
M  V30 12497 H 1181.59 -1.61982 -0.993064 0
M  V30 12498 H 1179.74 -1.74498 -3.47106 0
M  V30 12499 H 1181.42 -4.03947 -2.22766 0
M  V30 12500 H 1179.66 -3.83169 -2.03382 0
M  V30 12501 H 1180.33 -4.1537 -3.63555 0
M  V30 12502 H 1182.81 -2.23075 -3.5125 0
M  V30 12503 H 1181.68 -2.55815 -4.85644 0
M  V30 12504 H 1181.94 -0.903528 -4.32769 0
M  V30 12505 N 1181 1.07532 -1.15215 0
M  V30 12506 C 1181.95 2.12909 -0.815714 0
M  V30 12507 C 1182.94 1.59662 0.1992 0
M  V30 12508 O 1184.13 1.77 0.000215597 0
M  V30 12509 C 1181.26 3.41945 -0.304717 0
M  V30 12510 C 1180.34 4.0205 -1.34968 0
M  V30 12511 N 1180.73 4.36439 -2.55646 0
M  V30 12512 C 1179.03 4.29498 -1.20199 0
M  V30 12513 C 1179.73 4.84044 -3.22609 0
M  V30 12514 N 1178.71 4.82702 -2.5 0
M  V30 12515 H 1182.51 2.37327 -1.73358 0
M  V30 12516 H 1180.02 1.24952 -1.03734 0
M  V30 12517 H 1182.02 4.16875 -0.0453503 0
M  V30 12518 H 1180.68 3.18971 0.607235 0
M  V30 12519 H 1181.69 4.27184 -2.92804 0
M  V30 12520 H 1178.37 4.16032 -0.349781 0
M  V30 12521 H 1179.76 5.19959 -4.2555 0
M  V30 12522 N 1182.48 0.948665 1.2585 0
M  V30 12523 C 1183.41 0.482036 2.2847 0
M  V30 12524 C 1184.39 -0.468553 1.63519 0
M  V30 12525 O 1185.58 -0.368796 1.90666 0
M  V30 12526 C 1182.71 -0.246603 3.46423 0
M  V30 12527 C 1181.66 0.61815 4.23513 0
M  V30 12528 C 1180.99 -0.240884 5.34157 0
M  V30 12529 C 1182.29 1.89327 4.86778 0
M  V30 12530 H 1183.98 1.33973 2.67753 0
M  V30 12531 H 1181.53 0.645645 1.28715 0
M  V30 12532 H 1183.48 -0.584135 4.17332 0
M  V30 12533 H 1182.2 -1.13849 3.06114 0
M  V30 12534 H 1180.86 0.938682 3.54379 0
M  V30 12535 H 1180.51 -1.13235 4.90089 0
M  V30 12536 H 1180.21 0.334367 5.86648 0
M  V30 12537 H 1181.73 -0.573517 6.07901 0
M  V30 12538 H 1183.15 1.62252 5.49861 0
M  V30 12539 H 1181.55 2.41369 5.49419 0
M  V30 12540 H 1182.62 2.60006 4.09298 0
M  V30 12541 N 1183.96 -1.40369 0.716545 0
M  V30 12542 C 1184.87 -2.34508 0.065658 0
M  V30 12543 C 1185.88 -1.57352 -0.742723 0
M  V30 12544 O 1187.06 -1.89735 -0.675456 0
M  V30 12545 C 1184.13 -3.36262 -0.844337 0
M  V30 12546 C 1183.19 -4.29292 -0.0257971 0
M  V30 12547 C 1182.42 -5.26185 -0.892452 0
M  V30 12548 O 1182.64 -5.29071 -2.13166 0
M  V30 12549 O 1181.58 -6.0099 -0.330933 0
M  V30 12550 H 1185.4 -2.91789 0.842184 0
M  V30 12551 H 1182.99 -1.41579 0.477034 0
M  V30 12552 H 1184.87 -3.98661 -1.36555 0
M  V30 12553 H 1183.54 -2.81393 -1.59999 0
M  V30 12554 H 1182.45 -3.70175 0.540512 0
M  V30 12555 H 1183.78 -4.87316 0.69166 0
M  V30 12556 N 1185.44 -0.462799 -1.50652 0
M  V30 12557 C 1186.39 0.354133 -2.25233 0
M  V30 12558 C 1187.37 0.968553 -1.28483 0
M  V30 12559 O 1188.56 0.882476 -1.53432 0
M  V30 12560 C 1185.69 1.44033 -3.11624 0
M  V30 12561 C 1184.78 0.834046 -4.15818 0
M  V30 12562 N 1185.17 -0.0407022 -5.05784 0
M  V30 12563 C 1183.47 1.0989 -4.3225 0
M  V30 12564 C 1184.17 -0.383917 -5.80432 0
M  V30 12565 N 1183.14 0.238851 -5.43075 0
M  V30 12566 H 1186.95 -0.319855 -2.92154 0
M  V30 12567 H 1184.46 -0.276428 -1.6003 0
M  V30 12568 H 1186.46 2.03868 -3.63653 0
M  V30 12569 H 1185.12 2.11639 -2.4625 0
M  V30 12570 H 1186.13 -0.408959 -5.16283 0
M  V30 12571 H 1182.8 1.77056 -3.78097 0
M  V30 12572 H 1184.19 -1.0973 -6.62879 0
M  V30 12573 N 1186.91 1.56388 -0.195085 0
M  V30 12574 C 1187.82 2.22698 0.737743 0
M  V30 12575 C 1188.84 1.22605 1.23466 0
M  V30 12576 O 1190.02 1.55342 1.28183 0
M  V30 12577 C 1187.08 2.87333 1.94011 0
M  V30 12578 C 1186.14 4.02696 1.48776 0
M  V30 12579 C 1185.38 4.64239 2.63282 0
M  V30 12580 O 1185.6 4.24706 3.80763 0
M  V30 12581 O 1184.53 5.53705 2.35996 0
M  V30 12582 H 1188.36 3.03021 0.203013 0
M  V30 12583 H 1185.94 1.49361 0.0342044 0
M  V30 12584 H 1187.83 3.28226 2.64284 0
M  V30 12585 H 1186.5 2.0999 2.46345 0
M  V30 12586 H 1185.41 3.66426 0.753839 0
M  V30 12587 H 1186.74 4.81703 1.01109 0
M  V30 12588 N 1188.39 -0.0785156 1.57404 0
M  V30 12589 C 1189.62 -0.792042 1.9114 0
M  V30 12590 C 1190.04 -1.71458 0.790408 0
M  V30 12591 O 1189.39 -1.80959 -0.236662 0
M  V30 12592 C 1189.44 -1.59138 3.24588 0
M  V30 12593 O 1189.16 -0.705931 4.32375 0
M  V30 12594 C 1190.67 -2.4065 3.72293 0
M  V30 12595 H 1187.89 -0.225566 0.63195 0
M  V30 12596 H 1190.43 -0.0507929 2.04437 0
M  V30 12597 H 1188.58 -2.28498 3.12838 0
M  V30 12598 H 1189 -1.26121 5.09111 0
M  V30 12599 H 1190.47 -2.92204 4.68317 0
M  V30 12600 H 1190.95 -3.1987 3.00965 0
M  V30 12601 H 1191.56 -1.7646 3.86965 0
M  V30 12602 N 1189.87 -1.5367 -0.349747 0
M  V30 12603 C 1190.8 -1.84208 -1.43492 0
M  V30 12604 C 1191.78 -0.696725 -1.55177 0
M  V30 12605 O 1192.97 -0.948061 -1.69486 0
M  V30 12606 C 1190.1 -2.04613 -2.80625 0
M  V30 12607 C 1189.05 -3.20419 -2.83753 0
M  V30 12608 C 1188.38 -3.26147 -4.23713 0
M  V30 12609 C 1189.68 -4.58666 -2.49846 0
M  V30 12610 H 1191.37 -2.75087 -1.18185 0
M  V30 12611 H 1188.92 -1.32363 -0.567101 0
M  V30 12612 H 1190.87 -2.2456 -3.56582 0
M  V30 12613 H 1189.59 -1.10459 -3.07354 0
M  V30 12614 H 1188.25 -3.00318 -2.10249 0
M  V30 12615 H 1187.9 -2.29599 -4.47541 0
M  V30 12616 H 1187.6 -4.03963 -4.26717 0
M  V30 12617 H 1189.12 -3.48296 -5.0152 0
M  V30 12618 H 1190.54 -4.78668 -3.15516 0
M  V30 12619 H 1188.94 -5.3884 -2.64144 0
M  V30 12620 H 1190.01 -4.62697 -1.4505 0
M  V30 12621 N 1191.35 0.610423 -1.45298 0
M  V30 12622 C 1192.59 1.37154 -1.49388 0
M  V30 12623 C 1192.93 1.93737 -0.134025 0
M  V30 12624 O 1192.2 1.74888 0.851138 0
M  V30 12625 C 1192.49 2.52155 -2.5708 0
M  V30 12626 C 1192.34 2.00786 -4.02498 0
M  V30 12627 C 1193.66 3.54294 -2.61082 0
M  V30 12628 H 1190.78 0.497346 -0.54389 0
M  V30 12629 H 1193.42 0.688358 -1.77092 0
M  V30 12630 H 1191.57 3.10434 -2.33587 0
M  V30 12631 H 1193.24 1.47178 -4.37191 0
M  V30 12632 H 1191.48 1.31809 -4.1329 0
M  V30 12633 H 1192.15 2.83674 -4.73533 0
M  V30 12634 H 1194.63 3.05851 -2.82125 0
M  V30 12635 H 1193.51 4.32254 -3.38301 0
M  V30 12636 H 1193.77 4.09726 -1.66063 0
M  V30 12637 N 1192.83 1.32541 0.852676 0
M  V30 12638 C 1193.76 1.24254 1.97694 0
M  V30 12639 C 1194.74 0.125971 1.69633 0
M  V30 12640 O 1195.92 0.31347 1.91653 0
M  V30 12641 C 1193.05 0.966874 3.3357 0
M  V30 12642 C 1192.01 2.0449 3.75989 0
M  V30 12643 C 1191.33 1.6216 5.09518 0
M  V30 12644 C 1192.63 3.46013 3.91244 0
M  V30 12645 H 1194.33 2.18317 2.04886 0
M  V30 12646 H 1191.87 1.05101 0.984371 0
M  V30 12647 H 1193.83 0.895444 4.11776 0
M  V30 12648 H 1192.55 -0.0093893 3.26599 0
M  V30 12649 H 1191.21 2.10651 3.00036 0
M  V30 12650 H 1190.86 0.632729 4.99005 0
M  V30 12651 H 1190.56 2.3429 5.38871 0
M  V30 12652 H 1192.08 1.56457 5.90215 0
M  V30 12653 H 1193.49 3.4243 4.59799 0
M  V30 12654 H 1191.89 4.1651 4.32017 0
M  V30 12655 H 1192.96 3.8553 2.941 0
M  V30 12656 N 1194.3 -1.0692 1.15784 0
M  V30 12657 C 1195.55 -1.79866 0.936815 0
M  V30 12658 C 1195.88 -1.867 -0.534477 0
M  V30 12659 O 1195.16 -1.35395 -1.39637 0
M  V30 12660 C 1195.44 -3.24691 1.55717 0
M  V30 12661 C 1195.29 -3.25975 3.09936 0
M  V30 12662 C 1196.61 -4.22076 1.24658 0
M  V30 12663 H 1193.73 -0.652971 0.341756 0
M  V30 12664 H 1196.37 -1.25085 1.43016 0
M  V30 12665 H 1194.52 -3.7147 1.13763 0
M  V30 12666 H 1196.2 -2.87405 3.60827 0
M  V30 12667 H 1194.44 -2.64808 3.43597 0
M  V30 12668 H 1195.11 -4.28114 3.48458 0
M  V30 12669 H 1197.59 -3.83709 1.60956 0
M  V30 12670 H 1196.46 -5.21691 1.70675 0
M  V30 12671 H 1196.72 -4.41794 0.164341 0
M  V30 12672 N 1195.78 -0.955326 -1.25345 0
M  V30 12673 C 1197.03 -0.611388 -1.93365 0
M  V30 12674 C 1197.36 0.84953 -1.74633 0
M  V30 12675 O 1196.64 1.60962 -1.09185 0
M  V30 12676 C 1196.92 -0.971732 -3.46741 0
M  V30 12677 C 1196.77 -2.48843 -3.74696 0
M  V30 12678 C 1198.09 -0.497295 -4.37281 0
M  V30 12679 H 1195.21 -0.223591 -0.702265 0
M  V30 12680 H 1197.85 -1.1921 -1.47949 0
M  V30 12681 H 1196 -0.477568 -3.85554 0
M  V30 12682 H 1197.67 -3.05641 -3.45516 0
M  V30 12683 H 1195.92 -2.92582 -3.20278 0
M  V30 12684 H 1196.59 -2.69107 -4.8196 0
M  V30 12685 H 1199.06 -0.921196 -4.05775 0
M  V30 12686 H 1197.94 -0.778113 -5.43357 0
M  V30 12687 H 1198.2 0.602743 -4.37972 0
M  V30 12688 N 1197.26 1.39987 -0.723979 0
M  V30 12689 C 1198.49 2.05037 -0.27702 0
M  V30 12690 C 1198.9 1.54565 1.08421 0
M  V30 12691 O 1198.26 0.705795 1.683 0
M  V30 12692 C 1198.31 3.60582 -0.25751 0
M  V30 12693 O 1198.03 4.09194 -1.565 0
M  V30 12694 C 1199.53 4.42817 0.206972 0
M  V30 12695 H 1196.75 0.659637 -0.122963 0
M  V30 12696 H 1199.3 1.7924 -0.98454 0
M  V30 12697 H 1197.45 3.85319 0.401037 0
M  V30 12698 H 1197.87 5.03447 -1.47112 0
M  V30 12699 H 1199.34 5.5174 0.16947 0
M  V30 12700 H 1199.82 4.21023 1.25045 0
M  V30 12701 H 1200.42 4.23205 -0.421604 0
M  V30 12702 N 1198.74 0.470782 1.50404 0
M  V30 12703 C 1199.96 -0.084284 2.07229 0
M  V30 12704 C 1200.39 -1.32774 1.33239 0
M  V30 12705 O 1199.75 -1.77274 0.379971 0
M  V30 12706 C 1199.8 -0.351565 3.58882 0
M  V30 12707 O 1198.9 -1.43211 3.86736 0
M  V30 12708 H 1198.24 0.0128479 0.663876 0
M  V30 12709 H 1200.77 0.661735 1.93603 0
M  V30 12710 H 1200.78 -0.592151 4.0368 0
M  V30 12711 H 1199.46 0.557084 4.12152 0
M  V30 12712 H 1198.03 -1.17886 3.53776 0
M  V30 12713 N 1200.22 -1.56282 0.203376 0
M  V30 12714 C 1201.45 -2.02198 -0.438572 0
M  V30 12715 C 1201.86 -1.08343 -1.54619 0
M  V30 12716 O 1201.22 -0.0897594 -1.82279 0
M  V30 12717 C 1201.27 -3.4776 -0.987184 0
M  V30 12718 O 1200.99 -4.38034 0.0762552 0
M  V30 12719 C 1202.49 -4.09234 -1.70419 0
M  V30 12720 H 1199.71 -0.662041 -0.109282 0
M  V30 12721 H 1202.25 -2.02067 0.314509 0
M  V30 12722 H 1200.41 -3.48564 -1.69061 0
M  V30 12723 H 1200.82 -5.2344 -0.333322 0
M  V30 12724 H 1202.3 -5.1291 -2.04027 0
M  V30 12725 H 1202.77 -3.53172 -2.61087 0
M  V30 12726 H 1203.38 -4.12226 -1.04641 0
M  V30 12727 N 1201.7 0.070167 -1.57444 0
M  V30 12728 C 1202.94 0.769014 -1.8733 0
M  V30 12729 C 1203.27 1.77496 -0.79533 0
M  V30 12730 O 1202.53 1.94586 0.208495 0
M  V30 12731 C 1202.82 1.5111 -3.23883 0
M  V30 12732 C 1202.49 0.644988 -4.46263 0
M  V30 12733 C 1201.15 0.406307 -4.79482 0
M  V30 12734 C 1203.5 0.0444938 -5.21181 0
M  V30 12735 C 1200.83 -0.442322 -5.8503 0
M  V30 12736 C 1203.18 -0.791599 -6.27628 0
M  V30 12737 C 1201.85 -1.04014 -6.59346 0
M  V30 12738 H 1201.12 0.281402 -0.685488 0
M  V30 12739 H 1203.77 0.029752 -1.91477 0
M  V30 12740 H 1202.07 2.32261 -3.15535 0
M  V30 12741 H 1203.77 2.05665 -3.44242 0
M  V30 12742 H 1200.36 0.841148 -4.20265 0
M  V30 12743 H 1204.54 0.216005 -4.9583 0
M  V30 12744 H 1199.8 -0.643607 -6.08003 0
M  V30 12745 H 1203.97 -1.26363 -6.8484 0
M  V30 12746 H 1201.6 -1.69949 -7.4096 0
M  V30 12747 N 1203.17 1.53854 0.341593 0
M  V30 12748 C 1204.42 1.70856 1.07948 0
M  V30 12749 C 1204.74 0.475474 1.89114 0
M  V30 12750 O 1204.01 -0.510592 1.89129 0
M  V30 12751 H 1202.59 0.629914 0.401519 0
M  V30 12752 H 1205.25 1.91112 0.382393 0
M  V30 12753 H 1204.35 2.5803 1.75575 0
M  V30 12754 N 1204.65 -0.602709 1.4562 0
M  V30 12755 C 1205.6 -1.73425 1.55005 0
M  V30 12756 C 1206.59 -1.64118 0.419713 0
M  V30 12757 O 1207.8 -1.69853 0.595815 0
M  V30 12758 H 1204.17 -0.573038 0.486962 0
M  V30 12759 H 1206.15 -1.62637 2.50184 0
M  V30 12760 C 1204.89 -3.11808 1.53853 0
M  V30 12761 H 1204.22 -3.19631 2.40158 0
M  V30 12762 H 1205.66 -3.90798 1.64477 0
M  V30 12763 C 1204.12 -3.35866 0.263765 0
M  V30 12764 O 1204.65 -3.96334 -0.654364 0
M  V30 12765 N 1202.85 -2.90171 0.157927 0
M  V30 12766 H 1202.4 -2.41144 0.905944 0
M  V30 12767 H 1202.36 -3.06641 -0.694175 0
M  V30 12768 N 1206.13 -1.32992 -0.845635 0
M  V30 12769 C 1207.38 -1.2382 -1.59728 0
M  V30 12770 C 1207.7 0.197724 -1.93995 0
M  V30 12771 O 1206.97 1.12477 -1.60392 0
M  V30 12772 H 1205.55 -0.455296 -0.592212 0
M  V30 12773 H 1208.21 -1.66627 -1.01101 0
M  V30 12774 H 1207.31 -1.82717 -2.53023 0
M  V30 12775 N 1207.61 1.06304 -1.1635 0
M  V30 12776 C 1208.88 1.75916 -0.855166 0
M  V30 12777 C 1209.26 2.0094 0.647024 0
M  V30 12778 O 1208.61 1.63642 1.59479 0
M  V30 12779 C 1208.82 3.06028 -1.67774 0
M  V30 12780 C 1210.17 3.80184 -1.89065 0
M  V30 12781 O 1211.19 3.15868 -1.64639 0
M  V30 12782 O 1210.05 4.95723 -2.30045 0
M  V30 12783 H 1207.15 0.764432 -0.315551 0
M  V30 12784 H 1209.69 1.12574 -1.26985 0
M  V30 12785 H 1208.47 2.83498 -2.69712 0
M  V30 12786 H 1208.09 3.77104 -1.26009 0
M  V30 12787 N 1209.09 0.96196 1.24836 0
M  V30 12788 C 1210.5 0.660388 1.7463 0
M  V30 12789 C 1210.85 -0.824064 1.78055 0
M  V30 12790 O 1209.97 -1.64485 1.40619 0
M  V30 12791 C 1210.57 1.19205 3.17137 0
M  V30 12792 C 1209.13 0.940493 3.64461 0
M  V30 12793 C 1208.27 1.33076 2.43282 0
M  V30 12794 H 1211.22 1.13794 1.1062 0
M  V30 12795 H 1211.25 0.555595 3.76422 0
M  V30 12796 H 1210.76 2.27247 3.14612 0
M  V30 12797 H 1208.86 -0.124645 3.72391 0
M  V30 12798 H 1208.97 1.5821 4.52224 0
M  V30 12799 H 1207.34 0.749139 2.43434 0
M  V30 12800 H 1208.12 2.42055 2.43442 0
M  V30 12801 N 1210.56 -1.39601 0.731392 0
M  V30 12802 C 1211.97 -1.83424 0.348194 0
M  V30 12803 C 1212.33 -1.61106 -1.11979 0
M  V30 12804 O 1211.45 -1.1003 -1.86339 0
M  V30 12805 C 1212.05 -3.32982 0.6252 0
M  V30 12806 C 1210.6 -3.75238 0.295536 0
M  V30 12807 C 1209.75 -2.62642 0.88964 0
M  V30 12808 H 1212.7 -1.28644 0.929318 0
M  V30 12809 H 1212.72 -3.80357 -0.104254 0
M  V30 12810 H 1212.24 -3.49193 1.69368 0
M  V30 12811 H 1210.34 -3.64615 -0.767254 0
M  V30 12812 H 1210.45 -4.72781 0.775576 0
M  V30 12813 H 1208.81 -2.52726 0.316529 0
M  V30 12814 H 1209.6 -2.81661 1.96271 0
M  V30 12815 N 1212.04 -0.478751 -1.50152 0
M  V30 12816 C 1212.95 0.316554 -2.32455 0
M  V30 12817 C 1213.97 0.98871 -1.4318 0
M  V30 12818 O 1215.14 0.974998 -1.76226 0
M  V30 12819 C 1212.21 1.3799 -3.18056 0
M  V30 12820 C 1211.27 0.723534 -4.23159 0
M  V30 12821 C 1210.5 1.73621 -5.0467 0
M  V30 12822 O 1210.73 2.96362 -4.87366 0
M  V30 12823 O 1209.66 1.30381 -5.87609 0
M  V30 12824 H 1213.49 -0.356491 -3.016 0
M  V30 12825 H 1211.07 -0.24046 -1.47452 0
M  V30 12826 H 1212.95 1.99565 -3.71149 0
M  V30 12827 H 1211.63 2.03627 -2.5163 0
M  V30 12828 H 1210.54 0.0686296 -3.74037 0
M  V30 12829 H 1211.87 0.109979 -4.92077 0
M  V30 12830 N 1213.52 1.56172 -0.211661 0
M  V30 12831 C 1214.47 2.21206 0.719063 0
M  V30 12832 C 1215.46 1.18835 1.20725 0
M  V30 12833 O 1216.67 1.36939 1.16823 0
M  V30 12834 H 1213.04 0.709129 0.250279 0
M  V30 12835 H 1215.01 2.98038 0.147022 0
M  V30 12836 C 1213.76 2.89826 1.92084 0
M  V30 12837 H 1213.09 3.68351 1.55428 0
M  V30 12838 H 1214.53 3.38744 2.55006 0
M  V30 12839 C 1212.99 1.91756 2.77004 0
M  V30 12840 O 1213.52 1.42826 3.75451 0
M  V30 12841 N 1211.72 1.59622 2.42836 0
M  V30 12842 H 1211.27 1.99606 1.62835 0
M  V30 12843 H 1211.23 0.942641 2.99936 0
M  V30 12844 N 1215 -0.0618163 1.57479 0
M  V30 12845 C 1216.25 -0.757569 1.87364 0
M  V30 12846 C 1216.57 -1.77607 0.805025 0
M  V30 12847 O 1215.84 -1.95202 -0.165216 0
M  V30 12848 H 1214.42 -0.28278 0.691408 0
M  V30 12849 H 1217.08 -0.0355354 1.94868 0
M  V30 12850 H 1216.18 -1.26758 2.85199 0
M  V30 12851 N 1216.48 -1.54033 -0.333429 0
M  V30 12852 C 1217.39 -1.85737 -1.43314 0
M  V30 12853 C 1218.4 -0.748398 -1.57083 0
M  V30 12854 O 1219.58 -1.04171 -1.72367 0
M  V30 12855 C 1216.64 -2.06942 -2.78165 0
M  V30 12856 C 1215.7 -3.30774 -2.73655 0
M  V30 12857 C 1214.94 -3.50957 -4.02075 0
M  V30 12858 O 1215.16 -2.74774 -4.99855 0
M  V30 12859 O 1214.09 -4.44412 -4.05933 0
M  V30 12860 H 1217.92 -2.7923 -1.19434 0
M  V30 12861 H 1215.51 -1.39814 -0.526546 0
M  V30 12862 H 1217.39 -2.22276 -3.58011 0
M  V30 12863 H 1216.06 -1.16638 -3.01956 0
M  V30 12864 H 1214.97 -3.20835 -1.92395 0
M  V30 12865 H 1216.3 -4.21103 -2.54819 0
M  V30 12866 N 1217.95 0.594978 -1.45938 0
M  V30 12867 C 1218.9 1.70489 -1.5557 0
M  V30 12868 C 1219.87 1.61193 -0.400751 0
M  V30 12869 O 1221.06 1.80587 -0.615882 0
M  V30 12870 C 1218.2 3.08817 -1.54033 0
M  V30 12871 C 1217.31 3.28827 -2.80173 0
M  V30 12872 C 1216.44 4.57333 -2.70222 0
M  V30 12873 C 1215.48 4.70644 -3.91357 0
M  V30 12874 N 1214.62 5.90463 -3.79865 0
M  V30 12875 H 1219.46 1.61593 -2.50383 0
M  V30 12876 H 1217 0.787747 -1.24229 0
M  V30 12877 H 1218.96 3.88865 -1.51129 0
M  V30 12878 H 1217.59 3.1664 -0.627617 0
M  V30 12879 H 1216.64 2.42467 -2.9311 0
M  V30 12880 H 1217.95 3.34534 -3.69985 0
M  V30 12881 H 1217.1 5.45593 -2.65354 0
M  V30 12882 H 1215.84 4.54045 -1.7803 0
M  V30 12883 H 1214.85 3.80805 -3.9657 0
M  V30 12884 H 1216.07 4.75721 -4.8463 0
M  V30 12885 H 1214.02 5.88196 -2.90451 0
M  V30 12886 H 1213.94 5.97385 -4.63322 0
M  V30 12887 H 1215.2 6.81187 -3.78952 0
M  V30 12888 N 1219.43 1.33438 0.838571 0
M  V30 12889 C 1220.68 1.24912 1.59384 0
M  V30 12890 C 1221.01 -0.185017 1.93618 0
M  V30 12891 O 1220.26 -1.14229 1.58904 0
M  V30 12892 C 1220.56 2.07002 2.9135 0
M  V30 12893 C 1220.23 3.5619 2.76477 0
M  V30 12894 C 1218.89 3.96862 2.72129 0
M  V30 12895 C 1221.24 4.5099 2.61261 0
M  V30 12896 C 1218.57 5.30551 2.50464 0
M  V30 12897 C 1220.92 5.84841 2.4113 0
M  V30 12898 C 1219.59 6.24696 2.35183 0
M  V30 12899 H 1218.86 0.457084 0.583228 0
M  V30 12900 H 1221.5 1.65027 0.971506 0
M  V30 12901 H 1219.81 1.59665 3.57791 0
M  V30 12902 H 1221.5 1.97762 3.48843 0
M  V30 12903 H 1218.09 3.23896 2.80695 0
M  V30 12904 H 1222.28 4.20476 2.63655 0
M  V30 12905 H 1217.53 5.60468 2.44307 0
M  V30 12906 H 1221.71 6.57901 2.2834 0
M  V30 12907 H 1219.34 7.28225 2.18156 0
M  V30 12908 N 1220.91 -1.05686 1.16912 0
M  V30 12909 C 1222.16 -1.78244 0.95254 0
M  V30 12910 C 1222.48 -1.87924 -0.520525 0
M  V30 12911 O 1221.75 -1.39239 -1.37802 0
M  V30 12912 H 1220.33 -0.660228 0.349439 0
M  V30 12913 H 1222.99 -1.27634 1.47294 0
M  V30 12914 H 1222.09 -2.80102 1.37657 0
M  V30 12915 N 1222.39 -0.968567 -1.24324 0
M  V30 12916 C 1223.63 -0.63879 -1.94162 0
M  V30 12917 C 1223.99 0.81112 -1.74025 0
M  V30 12918 O 1225.19 1.25116 -2.37906 0
M  V30 12919 C 1223.46 -1.00432 -3.42999 0
M  V30 12920 S 1225.02 -0.789227 -4.31644 0
M  V30 12921 H 1221.84 -0.234322 -0.671278 0
M  V30 12922 H 1224.44 -1.2457 -1.50673 0
M  V30 12923 H 1223.15 -2.05643 -3.55161 0
M  V30 12924 H 1222.68 -0.388221 -3.9148 0
M  V30 12925 H 1224.69 0.332976 -4.95082 0
M  V30 12926 N 1223.87 1.39211 -0.738786 0
M  V30 12927 C 1224.83 2.28937 -0.109746 0
M  V30 12928 C 1225.83 1.46488 0.663157 0
M  V30 12929 O 1227.02 1.67119 0.491614 0
M  V30 12930 C 1224.15 3.30039 0.853633 0
M  V30 12931 H 1225.34 2.86068 -0.900295 0
M  V30 12932 H 1222.9 1.47922 -0.504853 0
M  V30 12933 H 1223.63 2.77971 1.6704 0
M  V30 12934 H 1223.42 3.90935 0.302007 0
M  V30 12935 H 1224.91 3.97169 1.29022 0
M  V30 12936 N 1225.34 0.486708 1.49896 0
M  V30 12937 C 1226.27 -0.288898 2.31706 0
M  V30 12938 C 1227.26 -0.975901 1.3932 0
M  V30 12939 O 1228.44 -0.970065 1.68236 0
M  V30 12940 C 1225.57 -1.36218 3.19471 0
M  V30 12941 C 1224.52 -0.795884 4.20535 0
M  V30 12942 C 1223.85 -1.96862 4.97141 0
M  V30 12943 C 1225.15 0.203421 5.21904 0
M  V30 12944 H 1226.84 0.393934 2.96797 0
M  V30 12945 H 1224.39 0.190894 1.42729 0
M  V30 12946 H 1226.34 -1.91238 3.75508 0
M  V30 12947 H 1225.07 -2.074 2.52295 0
M  V30 12948 H 1223.73 -0.267538 3.65622 0
M  V30 12949 H 1223.37 -2.66779 4.26425 0
M  V30 12950 H 1223.07 -1.59585 5.65514 0
M  V30 12951 H 1224.6 -2.52343 5.56017 0
M  V30 12952 H 1226.01 -0.258144 5.72719 0
M  V30 12953 H 1224.41 0.491273 5.98086 0
M  V30 12954 H 1225.48 1.12414 4.7169 0
M  V30 12955 N 1226.82 -1.56058 0.219941 0
M  V30 12956 C 1227.76 -2.16182 -0.730796 0
M  V30 12957 C 1228.73 -1.10574 -1.19215 0
M  V30 12958 O 1229.92 -1.38821 -1.27518 0
M  V30 12959 C 1227.05 -2.7408 -1.98992 0
M  V30 12960 C 1226.09 -3.92502 -1.66867 0
M  V30 12961 S 1226.92 -5.29568 -0.794875 0
M  V30 12962 C 1228.08 -5.90903 -2.0636 0
M  V30 12963 H 1228.31 -2.96487 -0.219762 0
M  V30 12964 H 1225.85 -1.54399 0.00465254 0
M  V30 12965 H 1227.8 -3.08078 -2.7129 0
M  V30 12966 H 1226.47 -1.93771 -2.47207 0
M  V30 12967 H 1225.66 -4.31509 -2.60414 0
M  V30 12968 H 1225.26 -3.59642 -1.02633 0
M  V30 12969 H 1227.55 -6.06778 -3.01374 0
M  V30 12970 H 1228.5 -6.86957 -1.71745 0
M  V30 12971 H 1228.9 -5.19722 -2.2034 0
M  V30 12972 N 1228.3 0.053464 -1.57509 0
M  V30 12973 C 1229.21 1.07902 -2.08313 0
M  V30 12974 C 1230.23 1.41223 -1.01647 0
M  V30 12975 O 1231.4 1.51032 -1.33233 0
M  V30 12976 C 1228.47 2.36813 -2.5322 0
M  V30 12977 C 1227.53 2.10297 -3.74264 0
M  V30 12978 C 1226.76 3.33062 -4.1702 0
M  V30 12979 O 1226.99 4.42857 -3.59491 0
M  V30 12980 O 1225.92 3.20195 -5.09665 0
M  V30 12981 H 1229.75 0.677368 -2.9605 0
M  V30 12982 H 1227.33 0.268838 -1.46961 0
M  V30 12983 H 1229.21 3.12645 -2.82544 0
M  V30 12984 H 1227.89 2.76323 -1.68605 0
M  V30 12985 H 1226.79 1.32111 -3.49996 0
M  V30 12986 H 1228.13 1.75658 -4.59788 0
M  V30 12987 N 1229.78 1.54207 0.325255 0
M  V30 12988 C 1230.71 1.78318 1.42401 0
M  V30 12989 C 1231.69 0.633078 1.49769 0
M  V30 12990 O 1232.87 0.870324 1.67205 0
M  V30 12991 C 1230 1.89823 2.80509 0
M  V30 12992 C 1229.05 3.12102 2.9068 0
M  V30 12993 S 1229.88 4.70746 2.55262 0
M  V30 12994 C 1231.04 4.85154 3.95444 0
M  V30 12995 H 1231.27 2.71234 1.21736 0
M  V30 12996 H 1228.8 1.45309 0.521993 0
M  V30 12997 H 1230.76 1.97136 3.60066 0
M  V30 12998 H 1229.42 0.978873 2.98458 0
M  V30 12999 H 1228.61 3.16881 3.91921 0
M  V30 13000 H 1228.22 3.03109 2.19091 0
M  V30 13001 H 1230.51 4.67687 4.90178 0
M  V30 13002 H 1231.45 5.87254 3.95649 0
M  V30 13003 H 1231.86 4.13471 3.8432 0
M  V30 13004 N 1231.26 -0.58723 1.46251 0
M  V30 13005 C 1232.67 -0.910129 1.31106 0
M  V30 13006 C 1232.87 -1.99557 0.279141 0
M  V30 13007 O 1231.93 -2.50466 -0.319867 0
M  V30 13008 C 1233.24 -1.33177 2.69601 0
M  V30 13009 C 1234.79 -1.44486 2.77656 0
M  V30 13010 C 1235.27 -1.90018 4.16722 0
M  V30 13011 N 1236.76 -1.97219 4.19117 0
M  V30 13012 C 1237.49 -2.33714 5.23608 0
M  V30 13013 N 1236.99 -2.69034 6.3843 0
M  V30 13014 N 1238.78 -2.3423 5.10972 0
M  V30 13015 H 1230.93 0.12987 2.12003 0
M  V30 13016 H 1233.19 -0.00456718 0.947989 0
M  V30 13017 H 1232.9 -0.608243 3.464 0
M  V30 13018 H 1232.77 -2.29421 2.99409 0
M  V30 13019 H 1235.16 -2.15926 2.01147 0
M  V30 13020 H 1235.24 -0.465047 2.51537 0
M  V30 13021 H 1234.89 -1.19159 4.93724 0
M  V30 13022 H 1234.82 -2.88949 4.40245 0
M  V30 13023 H 1237.31 -1.72431 3.36268 0
M  V30 13024 H 1237.62 -2.95822 7.13939 0
M  V30 13025 H 1235.97 -2.66683 6.41798 0
M  V30 13026 H 1239.16 -2.06056 4.20308 0
M  V30 13027 H 1239.33 -2.62345 5.92519 0
M  V30 13028 N 1232.74 -1.33881 -0.831482 0
M  V30 13029 C 1233.69 -1.2131 -1.93049 0
M  V30 13030 C 1234.67 -0.114199 -1.60494 0
M  V30 13031 O 1235.86 -0.343027 -1.73644 0
M  V30 13032 C 1232.99 -0.962034 -3.29545 0
M  V30 13033 C 1232.08 -2.10372 -3.68245 0
M  V30 13034 N 1232.47 -3.35427 -3.78579 0
M  V30 13035 C 1230.77 -2.01206 -3.98036 0
M  V30 13036 C 1231.47 -4.10351 -4.12295 0
M  V30 13037 N 1230.44 -3.3886 -4.25059 0
M  V30 13038 H 1234.24 -2.1609 -1.99204 0
M  V30 13039 H 1231.76 -1.25995 -1.02464 0
M  V30 13040 H 1233.76 -0.852895 -4.08082 0
M  V30 13041 H 1232.42 -0.0228423 -3.24692 0
M  V30 13042 H 1233.43 -3.70085 -3.62295 0
M  V30 13043 H 1230.1 -1.14991 -4.01352 0
M  V30 13044 H 1231.49 -5.18302 -4.27566 0
M  V30 13045 N 1234.21 1.05064 -1.1747 0
M  V30 13046 C 1235.62 1.59547 -0.969628 0
M  V30 13047 C 1235.98 1.90153 0.483332 0
M  V30 13048 O 1235.1 1.68415 1.35887 0
M  V30 13049 C 1235.7 2.89877 -1.75377 0
M  V30 13050 C 1234.25 3.41013 -1.59332 0
M  V30 13051 C 1233.4 2.1473 -1.7546 0
M  V30 13052 H 1236.35 0.878595 -1.3216 0
M  V30 13053 H 1236.37 3.59834 -1.23691 0
M  V30 13054 H 1235.89 2.67569 -2.8112 0
M  V30 13055 H 1233.99 3.68355 -0.560827 0
M  V30 13056 H 1234.1 4.15512 -2.38509 0
M  V30 13057 H 1232.46 2.25553 -1.18313 0
M  V30 13058 H 1233.25 1.9489 -2.82618 0
M  V30 13059 N 1235.69 0.975146 1.23809 0
M  V30 13060 C 1236.64 0.503396 2.27087 0
M  V30 13061 C 1237.63 -0.43689 1.63669 0
M  V30 13062 O 1238.84 -0.31136 1.77287 0
M  V30 13063 H 1235.21 0.144346 0.738017 0
M  V30 13064 H 1237.19 1.38627 2.64244 0
M  V30 13065 C 1235.93 -0.183682 3.47214 0
M  V30 13066 H 1235.26 0.530753 3.96261 0
M  V30 13067 H 1236.7 -0.477479 4.21303 0
M  V30 13068 C 1235.16 -1.41317 3.05829 0
M  V30 13069 O 1235.69 -2.50975 3.13647 0
M  V30 13070 N 1233.89 -1.28191 2.60798 0
M  V30 13071 H 1233.44 -0.38967 2.54636 0
M  V30 13072 H 1233.4 -2.10565 2.33473 0
M  V30 13073 N 1237.17 -1.38817 0.746158 0
M  V30 13074 C 1238.39 -2.05096 0.308302 0
M  V30 13075 C 1238.82 -1.55902 -1.05244 0
M  V30 13076 O 1238.18 -0.707685 -1.66918 0
M  V30 13077 C 1238.23 -3.59068 0.332016 0
M  V30 13078 O 1237.33 -4.06813 -0.676547 0
M  V30 13079 H 1236.67 -0.649523 0.1379 0
M  V30 13080 H 1239.2 -1.77637 1.0152 0
M  V30 13081 H 1239.21 -4.07601 0.180293 0
M  V30 13082 H 1237.89 -3.94234 1.32487 0
M  V30 13083 H 1236.46 -3.69666 -0.490046 0
M  V30 13084 N 1238.65 -0.49465 -1.49636 0
M  V30 13085 C 1239.89 0.0521945 -2.02733 0
M  V30 13086 C 1240.23 1.3723 -1.37411 0
M  V30 13087 O 1239.5 1.87758 -0.507642 0
M  V30 13088 C 1239.78 0.2114 -3.59479 0
M  V30 13089 C 1239.64 -1.13138 -4.35339 0
M  V30 13090 C 1240.96 0.955015 -4.29613 0
M  V30 13091 H 1238.08 0.0174946 -0.736792 0
M  V30 13092 H 1240.72 -0.644827 -1.78723 0
M  V30 13093 H 1238.87 0.805078 -3.80067 0
M  V30 13094 H 1240.54 -1.76345 -4.26263 0
M  V30 13095 H 1238.78 -1.72224 -3.98147 0
M  V30 13096 H 1239.45 -0.97336 -5.4335 0
M  V30 13097 H 1241.93 0.451575 -4.13642 0
M  V30 13098 H 1240.81 1.03524 -5.39049 0
M  V30 13099 H 1241.07 1.99724 -3.94414 0
M  V30 13100 N 1240.13 1.55939 -0.228214 0
M  V30 13101 C 1241.06 2.17874 0.711589 0
M  V30 13102 C 1242.07 1.14969 1.15265 0
M  V30 13103 O 1243.26 1.41919 1.08265 0
M  V30 13104 C 1240.36 2.75294 1.97652 0
M  V30 13105 C 1239.53 4.03435 1.68994 0
M  V30 13106 C 1238.59 4.45354 2.8026 0
M  V30 13107 O 1237.62 5.12117 2.48445 0
M  V30 13108 N 1238.82 4.11588 4.0936 0
M  V30 13109 H 1241.58 2.99148 0.181757 0
M  V30 13110 H 1239.15 1.6183 -0.0474567 0
M  V30 13111 H 1241.14 3.00305 2.71292 0
M  V30 13112 H 1239.71 1.98285 2.41665 0
M  V30 13113 H 1238.93 3.8621 0.789657 0
M  V30 13114 H 1240.22 4.87015 1.47287 0
M  V30 13115 H 1239.61 3.57953 4.38048 0
M  V30 13116 H 1238.17 4.41477 4.79522 0
M  V30 13117 N 1241.6 -0.0451101 1.57535 0
M  V30 13118 C 1242.51 -1.06796 2.08882 0
M  V30 13119 C 1243.53 -1.40682 1.02394 0
M  V30 13120 O 1244.71 -1.50324 1.34033 0
M  V30 13121 C 1241.77 -2.35467 2.54472 0
M  V30 13122 C 1240.83 -2.0831 3.75374 0
M  V30 13123 C 1240.07 -3.30846 4.1878 0
M  V30 13124 O 1240.29 -4.40945 3.61834 0
M  V30 13125 O 1239.22 -3.17488 5.11356 0
M  V30 13126 H 1243.05 -0.661658 2.96405 0
M  V30 13127 H 1240.63 -0.26104 1.47102 0
M  V30 13128 H 1242.52 -3.11143 2.84198 0
M  V30 13129 H 1241.19 -2.75425 1.70068 0
M  V30 13130 H 1240.1 -1.30254 3.50692 0
M  V30 13131 H 1241.43 -1.73218 4.60713 0
M  V30 13132 N 1243.08 -1.54377 -0.317073 0
M  V30 13133 C 1243.99 -1.87247 -1.41335 0
M  V30 13134 C 1245.01 -0.765017 -1.5628 0
M  V30 13135 O 1246.18 -1.05994 -1.71252 0
M  V30 13136 C 1243.25 -2.0988 -2.75955 0
M  V30 13137 C 1242.31 -3.33658 -2.70131 0
M  V30 13138 C 1241.54 -3.55202 -3.9833 0
M  V30 13139 O 1241.77 -2.80061 -4.96913 0
M  V30 13140 O 1240.7 -4.48693 -4.01196 0
M  V30 13141 H 1244.53 -2.80481 -1.16465 0
M  V30 13142 H 1242.11 -1.40364 -0.511687 0
M  V30 13143 H 1243.99 -2.2606 -3.55633 0
M  V30 13144 H 1242.67 -1.19834 -3.00702 0
M  V30 13145 H 1241.58 -3.22857 -1.88981 0
M  V30 13146 H 1242.91 -4.23782 -2.50338 0
M  V30 13147 N 1244.56 0.579466 -1.4656 0
M  V30 13148 C 1245.98 0.903163 -1.31587 0
M  V30 13149 C 1246.18 1.99406 -0.28972 0
M  V30 13150 O 1245.23 2.50632 0.30658 0
M  V30 13151 C 1246.55 1.31745 -2.70303 0
M  V30 13152 C 1248.09 1.43012 -2.78418 0
M  V30 13153 C 1248.57 1.87805 -4.17724 0
M  V30 13154 N 1250.06 1.94993 -4.20157 0
M  V30 13155 C 1250.79 2.30934 -5.2484 0
M  V30 13156 N 1250.29 2.65645 -6.39847 0
M  V30 13157 N 1252.08 2.31517 -5.12207 0
M  V30 13158 H 1244.23 -0.141111 -2.11931 0
M  V30 13159 H 1246.5 -0.000460304 -0.948 0
M  V30 13160 H 1246.2 0.589864 -3.46718 0
M  V30 13161 H 1246.08 2.2783 -3.00622 0
M  V30 13162 H 1248.46 2.14856 -2.02289 0
M  V30 13163 H 1248.55 0.451701 -2.5178 0
M  V30 13164 H 1248.19 1.16539 -4.94349 0
M  V30 13165 H 1248.12 2.86611 -4.41771 0
M  V30 13166 H 1250.61 1.70645 -3.37178 0
M  V30 13167 H 1250.92 2.92032 -7.15498 0
M  V30 13168 H 1249.27 2.63276 -6.43204 0
M  V30 13169 H 1252.46 2.03824 -4.21394 0
M  V30 13170 H 1252.63 2.59199 -5.93902 0
M  V30 13171 N 1246.04 1.3432 0.824371 0
M  V30 13172 C 1246.99 1.25776 1.93517 0
M  V30 13173 C 1247.96 0.133298 1.65564 0
M  V30 13174 O 1249.14 0.31403 1.88198 0
M  V30 13175 C 1246.28 1.01766 3.29754 0
M  V30 13176 C 1245.39 2.22973 3.7001 0
M  V30 13177 C 1244.53 1.92258 4.95187 0
M  V30 13178 C 1243.57 3.09616 5.2802 0
M  V30 13179 N 1242.7 2.78793 6.44375 0
M  V30 13180 H 1247.54 2.20774 2.00157 0
M  V30 13181 H 1245.08 1.09766 0.979274 0
M  V30 13182 H 1247.04 0.858831 4.08265 0
M  V30 13183 H 1245.67 0.10437 3.22631 0
M  V30 13184 H 1244.72 2.49781 2.86903 0
M  V30 13185 H 1246.03 3.10661 3.90245 0
M  V30 13186 H 1245.19 1.73102 5.81481 0
M  V30 13187 H 1243.93 1.01827 4.76951 0
M  V30 13188 H 1242.93 3.29368 4.40223 0
M  V30 13189 H 1244.16 4.00822 5.48196 0
M  V30 13190 H 1242.1 1.90938 6.27598 0
M  V30 13191 H 1242.02 3.60014 6.64775 0
M  V30 13192 H 1243.29 2.63139 7.33743 0
M  V30 13193 N 1247.52 -1.0444 1.18026 0
M  V30 13194 C 1248.74 -1.81772 0.998684 0
M  V30 13195 C 1249.17 -1.82682 -0.448225 0
M  V30 13196 O 1248.52 -1.24136 -1.32136 0
M  V30 13197 C 1248.57 -3.2542 1.55352 0
M  V30 13198 O 1247.68 -4.05103 0.772351 0
M  V30 13199 H 1247.02 -0.561731 0.354054 0
M  V30 13200 H 1249.55 -1.31557 1.56697 0
M  V30 13201 H 1249.56 -3.76206 1.57903 0
M  V30 13202 H 1248.23 -3.24073 2.60672 0
M  V30 13203 H 1246.81 -3.63798 0.818852 0
M  V30 13204 N 1248.99 -0.981699 -1.2329 0
M  V30 13205 C 1250.22 -0.668399 -1.95489 0
M  V30 13206 C 1250.63 0.768976 -1.72868 0
M  V30 13207 O 1249.98 1.52925 -1.01783 0
M  V30 13208 C 1250.04 -0.880535 -3.4855 0
M  V30 13209 C 1249.7 -2.30023 -3.9489 0
M  V30 13210 C 1250.7 -3.27899 -4.03458 0
M  V30 13211 C 1248.38 -2.63167 -4.27842 0
M  V30 13212 C 1250.38 -4.56999 -4.44332 0
M  V30 13213 C 1248.06 -3.92489 -4.68397 0
M  V30 13214 C 1249.06 -4.89216 -4.76609 0
M  V30 13215 O 1248.75 -6.16229 -5.16253 0
M  V30 13216 H 1248.48 -0.247255 -0.629159 0
M  V30 13217 H 1251.04 -1.31606 -1.57699 0
M  V30 13218 H 1249.27 -0.175698 -3.86301 0
M  V30 13219 H 1250.96 -0.564198 -4.0196 0
M  V30 13220 H 1251.72 -3.03624 -3.78203 0
M  V30 13221 H 1247.6 -1.88588 -4.20661 0
M  V30 13222 H 1251.14 -5.32498 -4.50656 0
M  V30 13223 H 1247.04 -4.16558 -4.93102 0
M  V30 13224 H 1247.81 -6.20001 -5.34361 0
M  V30 13225 N 1250.47 1.3842 -0.753509 0
M  V30 13226 C 1251.42 2.30457 -0.12574 0
M  V30 13227 C 1252.39 1.50173 0.709728 0
M  V30 13228 O 1253.57 1.78804 0.665872 0
M  V30 13229 C 1250.71 3.36593 0.761503 0
M  V30 13230 C 1249.83 4.31909 -0.0885848 0
M  V30 13231 C 1248.96 5.25116 0.801655 0
M  V30 13232 C 1248 6.12078 -0.0520719 0
M  V30 13233 N 1247.14 6.97583 0.795124 0
M  V30 13234 H 1251.98 2.83567 -0.916187 0
M  V30 13235 H 1249.52 1.39609 -0.463436 0
M  V30 13236 H 1251.47 3.96738 1.29054 0
M  V30 13237 H 1250.1 2.84894 1.51774 0
M  V30 13238 H 1249.16 3.73227 -0.735249 0
M  V30 13239 H 1250.47 4.93161 -0.747899 0
M  V30 13240 H 1249.62 5.90377 1.39786 0
M  V30 13241 H 1248.36 4.6423 1.4947 0
M  V30 13242 H 1247.37 5.45813 -0.660946 0
M  V30 13243 H 1248.59 6.75032 -0.742178 0
M  V30 13244 H 1246.54 6.39246 1.47312 0
M  V30 13245 H 1246.45 7.55754 0.192705 0
M  V30 13246 H 1247.72 7.67254 1.3763 0
M  V30 13247 N 1251.95 0.502579 1.49372 0
M  V30 13248 C 1253.2 -0.0414423 2.02758 0
M  V30 13249 C 1253.53 -1.36499 1.38136 0
M  V30 13250 O 1252.8 -1.87487 0.517593 0
M  V30 13251 C 1253.09 -0.192333 3.59586 0
M  V30 13252 C 1252.94 1.15445 4.34733 0
M  V30 13253 C 1254.26 -0.932218 4.30114 0
M  V30 13254 H 1251.38 -0.0135869 0.736875 0
M  V30 13255 H 1254.02 0.654296 1.78379 0
M  V30 13256 H 1252.17 -0.78491 3.80488 0
M  V30 13257 H 1253.84 1.78603 4.25322 0
M  V30 13258 H 1252.09 1.74333 3.97228 0
M  V30 13259 H 1252.76 1.00216 5.42827 0
M  V30 13260 H 1255.23 -0.429632 4.13876 0
M  V30 13261 H 1254.11 -1.00664 5.39591 0
M  V30 13262 H 1254.37 -1.9763 3.95468 0
M  V30 13263 N 1253.43 -1.55816 0.23648 0
M  V30 13264 C 1254.84 -1.59159 -0.118601 0
M  V30 13265 C 1255.04 -1.25352 -1.57763 0
M  V30 13266 O 1254.1 -0.995863 -2.32032 0
M  V30 13267 C 1255.41 -2.99885 0.221175 0
M  V30 13268 C 1256.96 -3.12567 0.164624 0
M  V30 13269 C 1257.44 -4.55496 0.478285 0
M  V30 13270 N 1258.93 -4.61215 0.428402 0
M  V30 13271 C 1259.66 -5.69768 0.644398 0
M  V30 13272 N 1259.16 -6.86624 0.922966 0
M  V30 13273 N 1260.95 -5.59143 0.575814 0
M  V30 13274 H 1253.1 -1.76063 1.18809 0
M  V30 13275 H 1255.37 -0.819079 0.477297 0
M  V30 13276 H 1255.07 -3.29326 1.2344 0
M  V30 13277 H 1254.95 -3.74425 -0.456723 0
M  V30 13278 H 1257.33 -2.82914 -0.839263 0
M  V30 13279 H 1257.41 -2.40325 0.876219 0
M  V30 13280 H 1257.06 -4.85868 1.47968 0
M  V30 13281 H 1256.99 -5.25984 -0.254671 0
M  V30 13282 H 1259.48 -3.77251 0.221398 0
M  V30 13283 H 1259.79 -7.6528 1.07548 0
M  V30 13284 H 1258.14 -6.88333 0.960325 0
M  V30 13285 H 1261.33 -4.66727 0.358307 0
M  V30 13286 H 1261.5 -6.43674 0.747548 0
M  V30 13287 N 1254.91 0.036755 -1.57557 0
M  V30 13288 C 1256.15 0.729106 -1.88919 0
M  V30 13289 C 1256.48 1.75769 -0.832801 0
M  V30 13290 O 1255.74 1.94985 0.167173 0
M  V30 13291 C 1256.04 1.44206 -3.27016 0
M  V30 13292 C 1255.7 0.550184 -4.47531 0
M  V30 13293 C 1254.36 0.304511 -4.80236 0
M  V30 13294 C 1256.72 -0.0660664 -5.21158 0
M  V30 13295 C 1254.04 -0.566316 -5.8396 0
M  V30 13296 C 1256.4 -0.92455 -6.25807 0
M  V30 13297 C 1255.06 -1.17976 -6.56992 0
M  V30 13298 H 1254.33 0.266799 -0.691303 0
M  V30 13299 H 1256.98 -0.0108698 -1.91497 0
M  V30 13300 H 1255.28 2.25516 -3.2039 0
M  V30 13301 H 1256.98 1.98317 -3.48527 0
M  V30 13302 H 1253.57 0.751814 -4.21955 0
M  V30 13303 H 1257.75 0.110784 -4.96176 0
M  V30 13304 H 1253.01 -0.772428 -6.06501 0
M  V30 13305 H 1257.18 -1.40861 -6.82005 0
M  V30 13306 H 1254.81 -1.85627 -7.37188 0
M  V30 13307 N 1256.39 1.54543 0.308881 0
M  V30 13308 C 1257.33 1.85693 1.40074 0
M  V30 13309 C 1258.33 0.730004 1.52864 0
M  V30 13310 O 1259.53 0.913884 1.55075 0
M  V30 13311 H 1255.91 0.588842 0.467728 0
M  V30 13312 H 1257.88 2.76973 1.11034 0
M  V30 13313 C 1256.63 2.11399 2.76054 0
M  V30 13314 H 1255.95 2.97583 2.66992 0
M  V30 13315 H 1257.39 2.37139 3.51484 0
M  V30 13316 C 1255.85 0.91007 3.24375 0
M  V30 13317 O 1256.38 0.12663 4.015 0
M  V30 13318 N 1254.59 0.717629 2.816 0
M  V30 13319 H 1254.13 1.35637 2.18998 0
M  V30 13320 H 1254.09 -0.0863585 3.14281 0
M  V30 13321 N 1257.86 -0.571685 1.46866 0
M  V30 13322 C 1259.09 -1.36008 1.56578 0
M  V30 13323 C 1259.51 -1.86909 0.211326 0
M  V30 13324 O 1258.87 -1.62179 -0.810421 0
M  V30 13325 C 1258.92 -2.51598 2.58323 0
M  V30 13326 O 1258.02 -3.53383 2.1259 0
M  V30 13327 H 1257.36 -0.404593 0.526498 0
M  V30 13328 H 1259.89 -0.692357 1.92529 0
M  V30 13329 H 1259.9 -2.98366 2.78283 0
M  V30 13330 H 1258.58 -2.13904 3.56676 0
M  V30 13331 H 1257.16 -3.13019 2.02666 0
M  V30 13332 N 1259.34 -1.34755 -0.817236 0
M  V30 13333 C 1260.59 -1.2762 -1.5761 0
M  V30 13334 C 1260.92 0.152017 -1.93604 0
M  V30 13335 O 1260.2 1.09881 -1.60488 0
M  V30 13336 C 1260.48 -2.17251 -2.87183 0
M  V30 13337 C 1260.33 -3.68638 -2.57733 0
M  V30 13338 C 1261.65 -2.06206 -3.88802 0
M  V30 13339 H 1258.77 -0.464933 -0.571845 0
M  V30 13340 H 1261.41 -1.6506 -0.941028 0
M  V30 13341 H 1259.56 -1.85452 -3.41379 0
M  V30 13342 H 1261.23 -4.10829 -2.09802 0
M  V30 13343 H 1259.48 -3.89445 -1.91089 0
M  V30 13344 H 1260.15 -4.26726 -3.50156 0
M  V30 13345 H 1262.62 -2.34137 -3.43975 0
M  V30 13346 H 1261.5 -2.71136 -4.77259 0
M  V30 13347 H 1261.76 -1.04075 -4.29675 0
M  V30 13348 N 1260.82 1.03812 -1.18578 0
M  V30 13349 C 1262.04 1.8124 -1.00831 0
M  V30 13350 C 1262.47 1.82917 0.43853 0
M  V30 13351 O 1261.83 1.24835 1.31476 0
M  V30 13352 C 1261.88 3.24592 -1.57075 0
M  V30 13353 O 1260.98 4.04688 -0.793824 0
M  V30 13354 H 1260.32 0.559846 -0.357028 0
M  V30 13355 H 1262.85 1.30724 -1.57393 0
M  V30 13356 H 1262.86 3.75363 -1.59896 0
M  V30 13357 H 1261.54 3.22686 -2.62387 0
M  V30 13358 H 1260.11 3.63359 -0.838134 0
M  V30 13359 N 1262.3 0.988223 1.22768 0
M  V30 13360 C 1263.52 0.679426 1.95955 0
M  V30 13361 C 1263.95 -0.748483 1.72567 0
M  V30 13362 O 1263.31 -1.51097 1.00197 0
M  V30 13363 C 1263.35 0.985284 3.46878 0
M  V30 13364 O 1262.46 0.0814607 4.1232 0
M  V30 13365 H 1261.8 0.254749 0.613188 0
M  V30 13366 H 1264.33 1.32393 1.55991 0
M  V30 13367 H 1264.34 0.925198 3.97371 0
M  V30 13368 H 1263.01 2.02581 3.63227 0
M  V30 13369 H 1261.59 0.196629 3.72381 0
M  V30 13370 N 1263.78 -1.38018 0.760839 0
M  V30 13371 C 1265.01 -2.03934 0.330804 0
M  V30 13372 C 1265.41 -1.57509 -1.04821 0
M  V30 13373 O 1264.76 -0.746718 -1.67839 0
M  V30 13374 C 1264.82 -3.58384 0.28303 0
M  V30 13375 C 1264.48 -4.27896 1.6048 0
M  V30 13376 C 1265.48 -4.52769 2.5553 0
M  V30 13377 C 1263.16 -4.65943 1.87624 0
M  V30 13378 C 1265.16 -5.14732 3.75938 0
M  V30 13379 C 1262.85 -5.27629 3.08304 0
M  V30 13380 C 1263.84 -5.51959 4.02281 0
M  V30 13381 O 1263.53 -6.12358 5.20838 0
M  V30 13382 H 1263.26 -0.661733 0.138148 0
M  V30 13383 H 1265.82 -1.77551 1.03271 0
M  V30 13384 H 1264.05 -3.83769 -0.47517 0
M  V30 13385 H 1265.74 -4.05727 -0.118464 0
M  V30 13386 H 1266.5 -4.23798 2.35839 0
M  V30 13387 H 1262.38 -4.46346 1.15308 0
M  V30 13388 H 1265.93 -5.33639 4.49305 0
M  V30 13389 H 1261.82 -5.56023 3.27886 0
M  V30 13390 H 1262.59 -6.30842 5.21517 0
M  V30 13391 N 1265.25 -0.510493 -1.49103 0
M  V30 13392 C 1266.48 0.0293113 -2.07379 0
M  V30 13393 C 1266.9 1.29195 -1.36713 0
M  V30 13394 O 1266.26 1.76204 -0.426838 0
M  V30 13395 C 1266.31 0.25629 -3.59688 0
M  V30 13396 O 1265.41 1.32907 -3.90397 0
M  V30 13397 H 1264.75 -0.0304449 -0.663302 0
M  V30 13398 H 1267.28 -0.712832 -1.91781 0
M  V30 13399 H 1267.29 0.484915 -4.05108 0
M  V30 13400 H 1265.97 -0.666163 -4.1053 0
M  V30 13401 H 1264.55 1.08464 -3.56777 0
M  V30 13402 N 1266.73 1.55688 -0.24474 0
M  V30 13403 C 1268.01 1.90796 0.430821 0
M  V30 13404 C 1268.39 1.1652 1.76029 0
M  V30 13405 O 1267.74 0.281978 2.26753 0
M  V30 13406 C 1267.95 3.43786 0.601027 0
M  V30 13407 C 1269.29 4.14998 0.897894 0
M  V30 13408 O 1270.32 3.49513 0.68697 0
M  V30 13409 O 1269.18 5.30826 1.29945 0
M  V30 13410 H 1266.27 0.794086 0.230991 0
M  V30 13411 H 1268.82 1.67227 -0.288646 0
M  V30 13412 H 1267.59 3.89856 -0.335804 0
M  V30 13413 H 1267.21 3.73211 1.37112 0
M  V30 13414 N 1268.21 -0.0283989 1.57574 0
M  V30 13415 C 1269.43 -0.734537 1.93957 0
M  V30 13416 C 1269.86 -1.68062 0.844787 0
M  V30 13417 O 1269.22 -1.802 -0.199432 0
M  V30 13418 C 1269.27 -1.46716 3.29404 0
M  V30 13419 O 1268.37 -2.58036 3.217 0
M  V30 13420 H 1267.71 -0.197507 0.633946 0
M  V30 13421 H 1270.24 0.0163258 2.04593 0
M  V30 13422 H 1270.25 -1.83693 3.64309 0
M  V30 13423 H 1268.93 -0.773292 4.08648 0
M  V30 13424 H 1267.5 -2.23597 2.98427 0
M  V30 13425 N 1269.69 -1.54705 -0.300681 0
M  V30 13426 C 1270.62 -1.8205 -1.39249 0
M  V30 13427 C 1271.63 -0.703476 -1.46816 0
M  V30 13428 O 1272.82 -0.980957 -1.49129 0
M  V30 13429 C 1269.92 -1.94376 -2.77617 0
M  V30 13430 C 1269.09 -3.2478 -2.92979 0
M  V30 13431 C 1268.15 -3.27518 -4.11848 0
M  V30 13432 O 1267.18 -4.01047 -4.03918 0
M  V30 13433 N 1268.38 -2.52932 -5.22499 0
M  V30 13434 H 1271.15 -2.76279 -1.16146 0
M  V30 13435 H 1268.71 -1.54283 -0.49075 0
M  V30 13436 H 1270.7 -1.93609 -3.55384 0
M  V30 13437 H 1269.27 -1.07141 -2.93666 0
M  V30 13438 H 1268.49 -3.38319 -2.02322 0
M  V30 13439 H 1269.78 -4.10835 -3.00153 0
M  V30 13440 H 1269.18 -1.92825 -5.31822 0
M  V30 13441 H 1267.73 -2.57919 -5.98599 0
M  V30 13442 N 1271.17 0.563888 -1.47167 0
M  V30 13443 C 1272.11 1.67151 -1.59152 0
M  V30 13444 C 1273.08 1.60307 -0.434852 0
M  V30 13445 O 1274.27 1.7924 -0.654049 0
M  V30 13446 C 1271.41 3.0548 -1.60549 0
M  V30 13447 C 1270.52 3.2281 -2.87085 0
M  V30 13448 C 1269.66 4.51498 -2.79862 0
M  V30 13449 C 1268.7 4.62237 -4.01252 0
M  V30 13450 N 1267.83 5.82273 -3.92305 0
M  V30 13451 H 1272.67 1.56245 -2.53755 0
M  V30 13452 H 1270.21 0.761219 -1.25872 0
M  V30 13453 H 1272.17 3.85572 -1.59343 0
M  V30 13454 H 1270.8 3.15237 -0.69464 0
M  V30 13455 H 1269.85 2.36196 -2.98188 0
M  V30 13456 H 1271.16 3.2661 -3.76997 0
M  V30 13457 H 1270.32 5.39842 -2.76867 0
M  V30 13458 H 1269.05 4.50166 -1.87621 0
M  V30 13459 H 1268.06 3.72307 -4.04558 0
M  V30 13460 H 1269.28 4.65334 -4.94612 0
M  V30 13461 H 1267.23 5.81902 -3.02862 0
M  V30 13462 H 1267.15 5.87422 -4.7589 0
M  V30 13463 H 1268.42 6.72996 -3.93315 0
M  V30 13464 N 1272.64 1.35187 0.810078 0
M  V30 13465 C 1273.87 1.31528 1.60359 0
M  V30 13466 C 1274.29 -0.105385 1.87805 0
M  V30 13467 O 1273.65 -1.07113 1.46276 0
M  V30 13468 C 1273.7 2.12429 2.91386 0
M  V30 13469 O 1272.8 1.50262 3.84051 0
M  V30 13470 H 1272.15 0.451122 0.487222 0
M  V30 13471 H 1274.68 1.78178 1.00568 0
M  V30 13472 H 1274.69 2.24257 3.40841 0
M  V30 13473 H 1273.36 3.15714 2.70735 0
M  V30 13474 H 1271.94 1.47253 3.42594 0
M  V30 13475 N 1274.12 -1.03182 1.19127 0
M  V30 13476 C 1275.35 -1.80703 1.01791 0
M  V30 13477 C 1275.77 -1.83147 -0.428824 0
M  V30 13478 O 1275.13 -1.2553 -1.30812 0
M  V30 13479 C 1275.18 -3.23754 1.58794 0
M  V30 13480 O 1274.28 -4.04261 0.815274 0
M  V30 13481 H 1273.62 -0.557944 0.359992 0
M  V30 13482 H 1276.15 -1.29887 1.58084 0
M  V30 13483 H 1276.16 -3.7451 1.61884 0
M  V30 13484 H 1274.84 -3.2129 2.64094 0
M  V30 13485 H 1273.42 -3.62909 0.857392 0
M  V30 13486 N 1275.6 -0.99472 -1.22242 0
M  V30 13487 C 1276.85 -0.670275 -1.90661 0
M  V30 13488 C 1277.17 0.800369 -1.77818 0
M  V30 13489 O 1276.44 1.57381 -1.16653 0
M  V30 13490 H 1275.02 -0.244925 -0.705706 0
M  V30 13491 H 1277.68 -1.26162 -1.48557 0
M  V30 13492 H 1276.78 -0.934408 -2.97784 0
M  V30 13493 N 1277.08 1.37613 -0.768148 0
M  V30 13494 C 1278.36 1.93921 -0.255724 0
M  V30 13495 C 1278.74 1.70215 1.2486 0
M  V30 13496 O 1278.08 1.0489 2.03003 0
M  V30 13497 C 1278.29 3.43354 -0.625204 0
M  V30 13498 C 1279.64 4.20439 -0.592978 0
M  V30 13499 O 1280.67 3.51701 -0.564375 0
M  V30 13500 O 1279.52 5.43008 -0.616849 0
M  V30 13501 H 1276.62 0.824968 -0.0579366 0
M  V30 13502 H 1279.16 1.46921 -0.849257 0
M  V30 13503 H 1277.94 3.54177 -1.66356 0
M  V30 13504 H 1277.56 3.976 -0.00442816 0
M  V30 13505 N 1278.56 0.518393 1.4883 0
M  V30 13506 C 1279.8 -0.019866 2.0209 0
M  V30 13507 C 1280.13 -1.35863 1.3988 0
M  V30 13508 O 1279.4 -1.87722 0.560117 0
M  V30 13509 H 1277.98 -0.0103306 0.746929 0
M  V30 13510 H 1280.64 0.679591 1.82668 0
M  V30 13511 H 1279.73 -0.136749 3.118 0
M  V30 13512 N 1280.03 -1.55556 0.252993 0
M  V30 13513 C 1281.45 -1.85032 -0.249011 0
M  V30 13514 C 1281.8 -1.17488 -1.57134 0
M  V30 13515 O 1280.92 -0.455387 -2.11554 0
M  V30 13516 C 1281.52 -3.35682 -0.458589 0
M  V30 13517 C 1280.08 -3.65362 -0.90485 0
M  V30 13518 C 1279.22 -2.77296 0.0144927 0
M  V30 13519 H 1282.17 -1.51412 0.475394 0
M  V30 13520 H 1282.19 -3.57591 -1.30034 0
M  V30 13521 H 1281.71 -3.84814 0.503981 0
M  V30 13522 H 1279.81 -3.21713 -1.87967 0
M  V30 13523 H 1279.92 -4.73074 -0.757492 0
M  V30 13524 H 1278.28 -2.49785 -0.497954 0
M  V30 13525 H 1279.07 -3.29236 0.972546 0
M  V30 13526 N 1281.51 0.0200419 -1.57587 0
M  V30 13527 C 1282.79 0.744946 -1.80859 0
M  V30 13528 C 1283.17 1.93089 -0.853218 0
M  V30 13529 O 1282.52 2.28269 0.10261 0
M  V30 13530 C 1282.73 1.16952 -3.28821 0
M  V30 13531 C 1284.08 1.5817 -3.9404 0
M  V30 13532 O 1285.1 1.26385 -3.33024 0
M  V30 13533 O 1283.96 2.17197 -5.01486 0
M  V30 13534 H 1281.05 0.360995 -0.744051 0
M  V30 13535 H 1283.6 -0.00387374 -1.697 0
M  V30 13536 H 1282.37 0.323304 -3.89962 0
M  V30 13537 H 1281.99 1.97807 -3.44903 0
M  V30 13538 N 1282.99 1.54862 0.292472 0
M  V30 13539 C 1283.92 1.89406 1.36556 0
M  V30 13540 C 1284.9 0.753838 1.52484 0
M  V30 13541 O 1286.09 1.01031 1.6585 0
M  V30 13542 C 1283.22 2.14888 2.72838 0
M  V30 13543 C 1282.17 3.3073 2.71665 0
M  V30 13544 C 1281.5 3.41648 4.11316 0
M  V30 13545 C 1282.8 4.67622 2.32651 0
M  V30 13546 H 1284.49 2.79284 1.07894 0
M  V30 13547 H 1282.04 1.34377 0.517585 0
M  V30 13548 H 1283.99 2.3764 3.48002 0
M  V30 13549 H 1282.71 1.2179 3.03042 0
M  V30 13550 H 1281.37 3.07915 1.98958 0
M  V30 13551 H 1281.02 2.46051 4.38711 0
M  V30 13552 H 1280.72 4.19522 4.11431 0
M  V30 13553 H 1282.24 3.6667 4.88248 0
M  V30 13554 H 1283.66 4.90048 2.97533 0
M  V30 13555 H 1282.06 5.48272 2.43963 0
M  V30 13556 H 1283.13 4.67762 1.27777 0
M  V30 13557 N 1284.47 -0.556076 1.47464 0
M  V30 13558 C 1285.88 -0.882115 1.33007 0
M  V30 13559 C 1286.08 -1.9892 0.321407 0
M  V30 13560 O 1285.14 -2.51088 -0.266668 0
M  V30 13561 C 1286.45 -1.27428 2.72365 0
M  V30 13562 C 1288 -1.38564 2.80658 0
M  V30 13563 C 1288.48 -1.81136 4.20659 0
M  V30 13564 N 1289.97 -1.88284 4.23206 0
M  V30 13565 C 1290.7 -2.22555 5.28447 0
M  V30 13566 N 1290.2 -2.55432 6.43993 0
M  V30 13567 N 1291.99 -2.23339 5.15826 0
M  V30 13568 H 1284.14 0.17481 2.11679 0
M  V30 13569 H 1286.41 0.0155421 0.947873 0
M  V30 13570 H 1286.11 -0.53463 3.47613 0
M  V30 13571 H 1285.99 -2.23019 3.04208 0
M  V30 13572 H 1288.37 -2.1161 2.05682 0
M  V30 13573 H 1288.45 -0.411588 2.52467 0
M  V30 13574 H 1288.1 -1.08659 4.96141 0
M  V30 13575 H 1288.03 -2.79546 4.46275 0
M  V30 13576 H 1290.52 -1.65259 3.3985 0
M  V30 13577 H 1290.83 -2.80612 7.20053 0
M  V30 13578 H 1289.18 -2.5301 6.47311 0
M  V30 13579 H 1292.37 -1.97094 4.24584 0
M  V30 13580 H 1292.54 -2.49717 5.97951 0
M  V30 13581 N 1285.95 -1.35615 -0.802897 0
M  V30 13582 C 1287.22 -1.19655 -1.54732 0
M  V30 13583 C 1287.6 0.222827 -2.09921 0
M  V30 13584 O 1286.95 1.2268 -1.92774 0
M  V30 13585 C 1287.16 -2.26761 -2.65293 0
M  V30 13586 C 1288.51 -2.62754 -3.33535 0
M  V30 13587 O 1289.53 -2.25702 -2.75567 0
M  V30 13588 O 1288.39 -3.26476 -4.38264 0
M  V30 13589 H 1285.49 -0.465079 -0.683835 0
M  V30 13590 H 1288.03 -1.47307 -0.84254 0
M  V30 13591 H 1286.81 -3.21946 -2.22411 0
M  V30 13592 H 1286.43 -2.00399 -3.43404 0
M  V30 13593 N 1287.43 1.02549 -1.19673 0
M  V30 13594 C 1288.37 2.13015 -0.934209 0
M  V30 13595 C 1289.37 1.69035 0.111208 0
M  V30 13596 O 1290.57 1.79959 -0.0383449 0
M  V30 13597 H 1286.95 0.696015 -0.284722 0
M  V30 13598 H 1288.92 2.32346 -1.87238 0
M  V30 13599 C 1287.67 3.44185 -0.493124 0
M  V30 13600 H 1286.99 3.78447 -1.28911 0
M  V30 13601 H 1288.43 4.22565 -0.348577 0
M  V30 13602 C 1286.89 3.27427 0.793277 0
M  V30 13603 O 1287.42 3.56362 1.85388 0
M  V30 13604 N 1285.63 2.80706 0.751837 0
M  V30 13605 H 1285.17 2.57359 -0.111517 0
M  V30 13606 H 1285.13 2.69874 1.61292 0
M  V30 13607 N 1288.9 1.00119 1.21713 0
M  V30 13608 C 1290.15 0.681723 1.9068 0
M  V30 13609 C 1290.48 -0.787121 1.77861 0
M  V30 13610 O 1289.73 -1.58573 1.14687 0
M  V30 13611 C 1290.03 1.04376 3.41819 0
M  V30 13612 C 1289.7 2.50624 3.74831 0
M  V30 13613 C 1288.36 2.90587 3.83552 0
M  V30 13614 C 1290.71 3.45377 3.90339 0
M  V30 13615 C 1288.04 4.24276 4.05225 0
M  V30 13616 C 1290.39 4.78734 4.13517 0
M  V30 13617 C 1289.06 5.18427 4.20464 0
M  V30 13618 H 1288.33 0.24946 0.697747 0
M  V30 13619 H 1290.97 1.25892 1.44304 0
M  V30 13620 H 1289.28 0.384756 3.89906 0
M  V30 13621 H 1290.98 0.774488 3.9345 0
M  V30 13622 H 1287.57 2.18651 3.68632 0
M  V30 13623 H 1291.75 3.15669 3.82971 0
M  V30 13624 H 1287.01 4.54605 4.08833 0
M  V30 13625 H 1291.18 5.52094 4.24459 0
M  V30 13626 H 1288.81 6.22034 4.3701 0
M  V30 13627 N 1290.38 -1.37203 0.775435 0
M  V30 13628 C 1291.29 -2.34019 0.165062 0
M  V30 13629 C 1292.31 -1.6036 -0.675316 0
M  V30 13630 O 1293.48 -1.9243 -0.594375 0
M  V30 13631 C 1290.55 -3.3954 -0.700957 0
M  V30 13632 C 1289.61 -4.29015 0.156304 0
M  V30 13633 C 1288.84 -5.29497 -0.668476 0
M  V30 13634 O 1289.07 -5.37636 -1.90535 0
M  V30 13635 O 1288 -6.01852 -0.0757351 0
M  V30 13636 H 1291.83 -2.87955 0.965184 0
M  V30 13637 H 1289.41 -1.39429 0.536654 0
M  V30 13638 H 1291.29 -4.04094 -1.19524 0
M  V30 13639 H 1289.97 -2.87926 -1.4792 0
M  V30 13640 H 1288.87 -3.67549 0.69703 0
M  V30 13641 H 1290.21 -4.83944 0.897725 0
M  V30 13642 N 1291.86 -0.526279 -1.48553 0
M  V30 13643 C 1293.08 0.00731432 -2.07399 0
M  V30 13644 C 1293.51 1.27737 -1.38075 0
M  V30 13645 O 1292.87 1.75741 -0.445503 0
M  V30 13646 C 1292.92 0.218126 -3.5994 0
M  V30 13647 O 1292.02 1.28759 -3.91784 0
M  V30 13648 H 1291.36 -0.0374784 -0.662941 0
M  V30 13649 H 1293.89 -0.733133 -1.91014 0
M  V30 13650 H 1293.9 0.44192 -4.056 0
M  V30 13651 H 1292.58 -0.709668 -4.09801 0
M  V30 13652 H 1291.15 1.04674 -3.57907 0
M  V30 13653 N 1293.34 1.5542 -0.261239 0
M  V30 13654 C 1294.3 2.20683 0.619011 0
M  V30 13655 C 1295.3 1.18042 1.09192 0
M  V30 13656 O 1296.49 1.43035 0.99432 0
M  V30 13657 C 1293.62 2.86179 1.85242 0
M  V30 13658 H 1294.82 2.99859 0.0493924 0
M  V30 13659 H 1292.37 1.56296 -0.0117687 0
M  V30 13660 H 1293.1 2.10978 2.4629 0
M  V30 13661 H 1292.89 3.61381 1.52138 0
M  V30 13662 H 1294.38 3.36081 2.47869 0
M  V30 13663 N 1294.82 -0.0116844 1.57596 0
M  V30 13664 C 1296.06 -0.697577 1.89679 0
M  V30 13665 C 1296.38 -1.74956 0.861122 0
M  V30 13666 O 1295.65 -1.95629 -0.103031 0
M  V30 13667 H 1294.23 -0.26064 0.700054 0
M  V30 13668 H 1296.9 0.0264782 1.94882 0
M  V30 13669 H 1295.99 -1.17621 2.89088 0
M  V30 13670 N 1296.29 -1.55015 -0.284256 0
M  V30 13671 C 1297.7 -1.65915 -0.856104 0
M  V30 13672 C 1298.06 -0.578758 -1.8747 0
M  V30 13673 O 1297.18 0.281733 -2.14558 0
M  V30 13674 C 1297.78 -3.0077 -1.55957 0
M  V30 13675 C 1296.33 -3.13735 -2.0796 0
M  V30 13676 C 1295.48 -2.61669 -0.917849 0
M  V30 13677 H 1298.43 -1.58583 -0.0608587 0
M  V30 13678 H 1298.45 -2.9313 -2.42601 0
M  V30 13679 H 1297.97 -3.79382 -0.81798 0
M  V30 13680 H 1296.07 -2.39875 -2.85115 0
M  V30 13681 H 1296.18 -4.20138 -2.30263 0
M  V30 13682 H 1294.54 -2.18542 -1.3081 0
M  V30 13683 H 1295.33 -3.42774 -0.189946 0
M  V30 13684 N 1297.77 0.548248 -1.47757 0
M  V30 13685 C 1298.7 1.66409 -1.63799 0
M  V30 13686 C 1299.68 1.62973 -0.487211 0
M  V30 13687 O 1300.87 1.80455 -0.717612 0
M  V30 13688 C 1298 3.05035 -1.66046 0
M  V30 13689 C 1296.95 3.23322 -2.80441 0
M  V30 13690 C 1296.28 4.62824 -2.67765 0
M  V30 13691 C 1297.58 3.07837 -4.2194 0
M  V30 13692 H 1299.27 1.53239 -2.57212 0
M  V30 13693 H 1296.82 0.735783 -1.23783 0
M  V30 13694 H 1298.77 3.82951 -1.75859 0
M  V30 13695 H 1297.49 3.19185 -0.69199 0
M  V30 13696 H 1296.15 2.47816 -2.70153 0
M  V30 13697 H 1295.8 4.73786 -1.68927 0
M  V30 13698 H 1295.5 4.76007 -3.44515 0
M  V30 13699 H 1297.03 5.42864 -2.7952 0
M  V30 13700 H 1298.44 3.75563 -4.33157 0
M  V30 13701 H 1296.84 3.32525 -4.99547 0
M  V30 13702 H 1297.91 2.04474 -4.3968 0
M  V30 13703 N 1299.25 1.36039 0.795694 0
M  V30 13704 C 1300.21 1.29709 1.88966 0
M  V30 13705 C 1301.21 0.206142 1.59473 0
M  V30 13706 O 1302.4 0.460534 1.68002 0
M  V30 13707 C 1299.53 1.00922 3.25619 0
M  V30 13708 H 1300.73 2.26993 1.95995 0
M  V30 13709 H 1298.28 1.2072 0.992791 0
M  V30 13710 H 1299.02 0.0407027 3.24274 0
M  V30 13711 H 1298.8 1.79863 3.48413 0
M  V30 13712 H 1300.29 0.990826 4.05675 0
M  V30 13713 N 1300.73 -1.01913 1.20215 0
M  V30 13714 C 1301.68 -2.12516 0.945493 0
M  V30 13715 C 1302.67 -1.69091 -0.102243 0
M  V30 13716 O 1303.88 -1.79936 0.047888 0
M  V30 13717 H 1300.25 -0.694496 0.288409 0
M  V30 13718 H 1302.22 -2.31349 1.88468 0
M  V30 13719 C 1300.97 -3.43919 0.51137 0
M  V30 13720 H 1300.29 -3.77758 1.30916 0
M  V30 13721 H 1301.73 -4.22374 0.370981 0
M  V30 13722 C 1300.19 -3.27844 -0.775902 0
M  V30 13723 O 1300.72 -3.5734 -1.83496 0
M  V30 13724 N 1298.93 -2.81101 -0.73694 0
M  V30 13725 H 1298.48 -2.57296 0.125164 0
M  V30 13726 H 1298.43 -2.70726 -1.59859 0
M  V30 13727 N 1302.21 -1.00763 -1.2118 0
M  V30 13728 C 1303.45 -0.692851 -1.90598 0
M  V30 13729 C 1303.79 0.774698 -1.78079 0
M  V30 13730 O 1303.06 1.56186 -1.15914 0
M  V30 13731 C 1303.34 -1.11792 -3.42308 0
M  V30 13732 C 1303.2 -2.64511 -3.63805 0
M  V30 13733 C 1304.52 -0.682314 -4.34779 0
M  V30 13734 H 1301.63 -0.253175 -0.69215 0
M  V30 13735 H 1304.28 -1.25378 -1.4276 0
M  V30 13736 H 1302.43 -0.640665 -3.83181 0
M  V30 13737 H 1304.1 -3.20021 -3.32242 0
M  V30 13738 H 1302.34 -3.05903 -3.0758 0
M  V30 13739 H 1303.01 -2.89306 -4.70113 0
M  V30 13740 H 1305.49 -1.09247 -4.01503 0
M  V30 13741 H 1304.36 -1.00787 -5.39568 0
M  V30 13742 H 1304.63 0.416441 -4.40134 0
M  V30 13743 N 1303.68 1.3679 -0.7827 0
M  V30 13744 C 1305.1 1.52719 -0.463594 0
M  V30 13745 C 1305.3 1.73827 1.01914 0
M  V30 13746 O 1304.36 1.76591 1.80477 0
M  V30 13747 C 1305.67 2.71709 -1.2882 0
M  V30 13748 C 1307.22 2.85577 -1.2812 0
M  V30 13749 C 1307.69 4.07564 -2.0894 0
M  V30 13750 N 1309.18 4.14697 -2.0635 0
M  V30 13751 C 1309.92 5.08147 -2.65659 0
M  V30 13752 N 1309.41 6.07083 -3.33799 0
M  V30 13753 N 1311.21 5.00712 -2.55429 0
M  V30 13754 H 1303.36 1.21342 -1.74327 0
M  V30 13755 H 1305.62 0.591719 -0.740657 0
M  V30 13756 H 1305.33 2.62612 -2.3394 0
M  V30 13757 H 1305.2 3.65686 -0.924873 0
M  V30 13758 H 1307.59 2.94139 -0.237947 0
M  V30 13759 H 1307.67 1.92528 -1.68424 0
M  V30 13760 H 1307.31 3.99763 -3.13293 0
M  V30 13761 H 1307.24 4.99748 -1.66011 0
M  V30 13762 H 1309.73 3.43856 -1.56752 0
M  V30 13763 H 1310.05 6.74939 -3.764 0
M  V30 13764 H 1308.39 6.07329 -3.379 0
M  V30 13765 H 1311.58 4.22367 -2.01802 0
M  V30 13766 H 1311.76 5.73354 -3.01943 0
M  V30 13767 N 1305.16 0.53415 1.48272 0
M  V30 13768 C 1306.41 0.00157259 2.025 0
M  V30 13769 C 1306.74 -1.33886 1.41085 0
M  V30 13770 O 1305.99 -1.87884 0.547544 0
M  V30 13771 C 1306.29 -0.165144 3.57018 0
M  V30 13772 C 1305.96 1.10146 4.3724 0
M  V30 13773 C 1304.62 1.44857 4.58879 0
M  V30 13774 C 1306.97 1.94183 4.83676 0
M  V30 13775 C 1304.3 2.63497 5.24201 0
M  V30 13776 C 1306.65 3.12005 5.50305 0
M  V30 13777 C 1305.32 3.47058 5.70182 0
M  V30 13778 H 1304.59 0.00057545 0.741 0
M  V30 13779 H 1307.23 0.701014 1.78208 0
M  V30 13780 H 1305.54 -0.947384 3.80173 0
M  V30 13781 H 1307.23 -0.592202 3.96603 0
M  V30 13782 H 1303.82 0.821132 4.20661 0
M  V30 13783 H 1308.01 1.68677 4.66757 0
M  V30 13784 H 1303.26 2.90852 5.37787 0
M  V30 13785 H 1307.44 3.77426 5.85254 0
M  V30 13786 H 1305.07 4.39086 6.2057 0
M  V30 13787 N 1306.64 -1.55279 0.269478 0
M  V30 13788 C 1307.87 -2.04334 -0.355313 0
M  V30 13789 C 1308.29 -1.14677 -1.491 0
M  V30 13790 O 1307.65 -0.144215 -1.80726 0
M  V30 13791 C 1307.7 -3.51172 -0.819162 0
M  V30 13792 O 1306.8 -3.64615 -1.9269 0
M  V30 13793 H 1306.14 -0.659827 -0.0743229 0
M  V30 13794 H 1308.67 -2.00609 0.402131 0
M  V30 13795 H 1308.68 -3.92428 -1.11642 0
M  V30 13796 H 1307.36 -4.15898 0.0117821 0
M  V30 13797 H 1305.93 -3.35261 -1.63261 0
M  V30 13798 N 1308.12 0.00332656 -1.576 0
M  V30 13799 C 1309.36 0.68989 -1.90705 0
M  V30 13800 C 1309.7 1.73608 -0.870291 0
M  V30 13801 O 1308.97 1.94181 0.111416 0
M  V30 13802 C 1309.26 1.33605 -3.34397 0
M  V30 13803 C 1309.11 0.301638 -4.48787 0
M  V30 13804 C 1310.43 2.26313 -3.77453 0
M  V30 13805 H 1307.55 0.249328 -0.693545 0
M  V30 13806 H 1310.19 -0.0472847 -1.89941 0
M  V30 13807 H 1308.34 1.96437 -3.35179 0
M  V30 13808 H 1310.01 -0.326738 -4.60141 0
M  V30 13809 H 1308.25 -0.376451 -4.32163 0
M  V30 13810 H 1308.92 0.792741 -5.46278 0
M  V30 13811 H 1311.4 1.73502 -3.78201 0
M  V30 13812 H 1310.28 2.68492 -4.78752 0
M  V30 13813 H 1310.54 3.14082 -3.11135 0
M  V30 13814 N 1309.6 1.55164 0.276031 0
M  V30 13815 C 1310.84 1.75627 1.00803 0
M  V30 13816 C 1311.17 0.555696 1.86393 0
M  V30 13817 O 1310.43 -0.461872 1.90172 0
M  V30 13818 C 1310.73 3.0127 1.92279 0
M  V30 13819 C 1310.39 4.33951 1.22464 0
M  V30 13820 C 1309.05 4.70013 1.03158 0
M  V30 13821 C 1311.41 5.16097 0.72758 0
M  V30 13822 C 1308.73 5.85779 0.328699 0
M  V30 13823 C 1311.09 6.32588 0.0383001 0
M  V30 13824 C 1309.75 6.67292 -0.166494 0
M  V30 13825 H 1309.02 0.642665 0.368866 0
M  V30 13826 H 1311.67 1.89433 0.280595 0
M  V30 13827 H 1309.97 2.82351 2.71634 0
M  V30 13828 H 1311.67 3.14299 2.49032 0
M  V30 13829 H 1308.26 4.05605 1.38501 0
M  V30 13830 H 1312.44 4.88715 0.864365 0
M  V30 13831 H 1307.7 6.11192 0.159279 0
M  V30 13832 H 1311.87 6.95496 -0.354631 0
M  V30 13833 H 1309.5 7.56848 -0.713124 0
M  V30 13834 N 1311.07 -0.540404 1.48045 0
M  V30 13835 C 1312.32 -1.29422 1.55224 0
M  V30 13836 C 1312.64 -1.93716 0.223365 0
M  V30 13837 O 1311.91 -1.808 -0.754204 0
M  V30 13838 H 1310.49 -0.480658 0.571819 0
M  V30 13839 H 1313.16 -0.629712 1.84447 0
M  V30 13840 H 1312.25 -2.07897 2.32777 0
M  V30 13841 N 1312.55 -1.36459 -0.788468 0
M  V30 13842 C 1313.48 -1.33545 -1.91541 0
M  V30 13843 C 1314.46 -0.206762 -1.68839 0
M  V30 13844 O 1315.65 -0.404553 -1.89939 0
M  V30 13845 C 1312.78 -1.12492 -3.28577 0
M  V30 13846 C 1311.73 -2.22196 -3.65805 0
M  V30 13847 C 1311.06 -1.86285 -5.01201 0
M  V30 13848 C 1312.36 -3.64286 -3.7429 0
M  V30 13849 H 1314.05 -2.27844 -1.94236 0
M  V30 13850 H 1311.6 -1.09677 -0.933105 0
M  V30 13851 H 1313.55 -1.09089 -4.07035 0
M  V30 13852 H 1312.28 -0.146446 -3.26272 0
M  V30 13853 H 1310.93 -2.24727 -2.89644 0
M  V30 13854 H 1310.58 -0.87009 -4.95417 0
M  V30 13855 H 1310.28 -2.59734 -5.27079 0
M  V30 13856 H 1311.81 -1.84439 -5.82078 0
M  V30 13857 H 1313.22 -3.63977 -4.42937 0
M  V30 13858 H 1311.62 -4.36648 -4.11653 0
M  V30 13859 H 1312.69 -3.99123 -2.75371 0
M  V30 13860 N 1314.03 1.01274 -1.20754 0
M  V30 13861 C 1315.28 1.74586 -1.01804 0
M  V30 13862 C 1315.6 1.89727 0.450419 0
M  V30 13863 O 1314.87 1.44257 1.32539 0
M  V30 13864 H 1313.45 0.646804 -0.373702 0
M  V30 13865 H 1316.11 1.22079 -1.5193 0
M  V30 13866 H 1315.21 2.748 -1.47958 0
M  V30 13867 N 1315.51 1.01404 1.20644 0
M  V30 13868 C 1316.73 0.720839 1.9447 0
M  V30 13869 C 1317.16 -0.711711 1.74116 0
M  V30 13870 O 1316.52 -1.48938 1.03379 0
M  V30 13871 C 1316.57 1.05864 3.4471 0
M  V30 13872 O 1315.67 0.168901 4.12054 0
M  V30 13873 H 1315.01 0.267698 0.607646 0
M  V30 13874 H 1317.54 1.35672 1.53147 0
M  V30 13875 H 1317.55 1.00928 3.9532 0
M  V30 13876 H 1316.23 2.1024 3.58848 0
M  V30 13877 H 1314.8 0.275572 3.7188 0
M  V30 13878 N 1316.99 -1.36373 0.789944 0
M  V30 13879 C 1318.4 -1.52471 0.471686 0
M  V30 13880 C 1318.6 -1.74365 -1.0099 0
M  V30 13881 O 1317.66 -1.77546 -1.79538 0
M  V30 13882 C 1318.97 -2.71022 1.30259 0
M  V30 13883 C 1320.52 -2.84893 1.29633 0
M  V30 13884 C 1321 -4.0645 2.11098 0
M  V30 13885 N 1322.49 -4.13597 2.08547 0
M  V30 13886 C 1323.22 -5.06731 2.6835 0
M  V30 13887 N 1322.72 -6.05305 3.37013 0
M  V30 13888 N 1324.51 -4.9935 2.58081 0
M  V30 13889 H 1316.66 -1.20416 1.74968 0
M  V30 13890 H 1318.92 -0.587782 0.743785 0
M  V30 13891 H 1318.63 -2.61368 2.35329 0
M  V30 13892 H 1318.5 -3.6519 0.944254 0
M  V30 13893 H 1320.89 -2.94009 0.253542 0
M  V30 13894 H 1320.97 -1.91632 1.69443 0
M  V30 13895 H 1320.62 -3.98096 3.15408 0
M  V30 13896 H 1320.55 -4.98861 1.68659 0
M  V30 13897 H 1323.04 -3.4302 1.58573 0
M  V30 13898 H 1323.35 -6.72934 3.79974 0
M  V30 13899 H 1321.7 -6.05529 3.41116 0
M  V30 13900 H 1324.89 -4.21291 2.04039 0
M  V30 13901 H 1325.06 -5.71745 3.04979 0
M  V30 13902 N 1318.47 -0.542005 -1.47987 0
M  V30 13903 C 1319.43 0.203537 -2.28294 0
M  V30 13904 C 1320.43 0.856762 -1.36074 0
M  V30 13905 O 1321.62 0.71496 -1.58852 0
M  V30 13906 C 1318.75 1.29581 -3.15312 0
M  V30 13907 H 1319.94 -0.501701 -2.95674 0
M  V30 13908 H 1317.5 -0.298378 -1.53426 0
M  V30 13909 H 1318.23 2.03393 -2.5259 0
M  V30 13910 H 1318.02 0.832398 -3.83163 0
M  V30 13911 H 1319.51 1.81988 -3.75859 0
M  V30 13912 N 1319.94 1.55134 -0.277709 0
M  V30 13913 C 1321.17 2.03765 0.341106 0
M  V30 13914 C 1321.58 1.15543 1.49822 0
M  V30 13915 O 1320.92 0.168642 1.82924 0
M  V30 13916 C 1320.99 3.48513 0.881974 0
M  V30 13917 C 1320.65 4.56764 -0.146837 0
M  V30 13918 C 1321.65 5.10823 -0.967252 0
M  V30 13919 C 1319.33 5.01509 -0.281824 0
M  V30 13920 C 1321.33 6.08147 -1.90882 0
M  V30 13921 C 1319.01 5.98658 -1.22686 0
M  V30 13922 C 1320.01 6.51859 -2.03886 0
M  V30 13923 O 1319.7 7.47108 -2.96791 0
M  V30 13924 H 1319.43 0.671068 0.0815052 0
M  V30 13925 H 1321.99 2.013 -0.408341 0
M  V30 13926 H 1320.22 3.48226 1.68154 0
M  V30 13927 H 1321.9 3.80469 1.41416 0
M  V30 13928 H 1322.67 4.77065 -0.873714 0
M  V30 13929 H 1318.55 4.59743 0.340203 0
M  V30 13930 H 1322.09 6.49597 -2.54301 0
M  V30 13931 H 1317.99 6.31834 -1.32121 0
M  V30 13932 H 1318.76 7.64832 -2.91502 0
M  V30 13933 N 1321.42 0.00503138 1.57599 0
M  V30 13934 C 1322.83 -0.537106 1.78807 0
M  V30 13935 C 1323.18 -1.73666 0.912945 0
M  V30 13936 O 1322.31 -2.16085 0.116775 0
M  V30 13937 C 1322.9 -0.98116 3.24282 0
M  V30 13938 C 1321.46 -1.46857 3.46569 0
M  V30 13939 C 1320.61 -0.422088 2.74069 0
M  V30 13940 H 1323.56 0.231182 1.57007 0
M  V30 13941 H 1323.58 -1.8469 3.32671 0
M  V30 13942 H 1323.09 -0.107907 3.8795 0
M  V30 13943 H 1321.19 -2.36255 2.88122 0
M  V30 13944 H 1321.31 -1.49256 4.55258 0
M  V30 13945 H 1319.67 -0.884853 2.38836 0
M  V30 13946 H 1320.45 0.442285 3.40439 0
M  V30 13947 N 1322.9 -1.55308 -0.267798 0
M  V30 13948 C 1323.85 -1.84933 -1.33356 0
M  V30 13949 C 1324.83 -0.708605 -1.44456 0
M  V30 13950 O 1326.03 -0.970069 -1.4805 0
M  V30 13951 C 1323.15 -2.12927 -2.69289 0
M  V30 13952 C 1322.24 -3.33273 -2.62279 0
M  V30 13953 N 1322.63 -4.53055 -2.24889 0
M  V30 13954 C 1320.93 -3.35966 -2.93331 0
M  V30 13955 C 1321.63 -5.35156 -2.27998 0
M  V30 13956 N 1320.61 -4.73692 -2.66677 0
M  V30 13957 H 1324.41 -2.75086 -1.03465 0
M  V30 13958 H 1321.92 -1.55254 -0.476435 0
M  V30 13959 H 1323.92 -2.32309 -3.46177 0
M  V30 13960 H 1322.58 -1.24061 -3.00065 0
M  V30 13961 H 1323.59 -4.79059 -1.9678 0
M  V30 13962 H 1320.27 -2.57308 -3.28784 0
M  V30 13963 H 1321.66 -6.4094 -2.01608 0
M  V30 13964 N 1324.38 0.532545 -1.4833 0
M  V30 13965 C 1325.62 1.28851 -1.56217 0
M  V30 13966 C 1325.95 1.93076 -0.234967 0
M  V30 13967 O 1325.21 1.79722 0.774508 0
M  V30 13968 C 1325.51 2.40117 -2.64724 0
M  V30 13969 C 1325.17 1.93562 -4.0724 0
M  V30 13970 C 1323.83 1.80583 -4.46031 0
M  V30 13971 C 1326.19 1.58349 -4.96563 0
M  V30 13972 C 1323.51 1.30722 -5.71952 0
M  V30 13973 C 1325.87 1.09951 -6.22972 0
M  V30 13974 C 1324.53 0.955866 -6.60621 0
M  V30 13975 H 1323.8 0.4715 -0.571637 0
M  V30 13976 H 1326.45 0.594564 -1.82036 0
M  V30 13977 H 1324.75 3.15171 -2.32754 0
M  V30 13978 H 1326.45 2.98252 -2.68042 0
M  V30 13979 H 1323.04 2.04614 -3.76605 0
M  V30 13980 H 1327.22 1.67237 -4.67274 0
M  V30 13981 H 1322.48 1.18286 -5.99849 0
M  V30 13982 H 1326.65 0.817736 -6.91582 0
M  V30 13983 H 1324.28 0.567302 -7.5808 0
M  V30 13984 N 1325.86 1.36875 0.78122 0
M  V30 13985 C 1327.1 1.32949 1.55254 0
M  V30 13986 C 1327.46 -0.0879862 1.91798 0
M  V30 13987 O 1328.66 -0.251878 2.67617 0
M  V30 13988 C 1326.93 2.23382 2.78989 0
M  V30 13989 S 1328.49 2.37218 3.69152 0
M  V30 13990 H 1325.31 0.472105 0.531637 0
M  V30 13991 H 1327.91 1.72529 0.91945 0
M  V30 13992 H 1326.61 3.25307 2.50207 0
M  V30 13993 H 1326.15 1.84852 3.47266 0
M  V30 13994 H 1328.16 1.57575 4.70515 0
M  V30 13995 N 1327.33 -1.00632 1.21289 0
M  V30 13996 C 1328.3 -2.07543 0.972548 0
M  V30 13997 C 1329.3 -1.60703 -0.0559244 0
M  V30 13998 O 1330.49 -1.73255 0.181213 0
M  V30 13999 C 1327.62 -3.37696 0.466297 0
M  V30 14000 H 1328.81 -2.30298 1.92101 0
M  V30 14001 H 1326.36 -1.17588 1.02969 0
M  V30 14002 H 1327.1 -3.2062 -0.487148 0
M  V30 14003 H 1326.88 -3.73024 1.20813 0
M  V30 14004 H 1328.37 -4.16388 0.317962 0
M  V30 14005 N 1328.81 -1.02043 -1.20104 0
M  V30 14006 C 1330.06 -0.711973 -1.89571 0
M  V30 14007 C 1330.39 0.758725 -1.79091 0
M  V30 14008 O 1329.64 1.56728 -1.17195 0
M  V30 14009 C 1329.94 -1.098 -3.40116 0
M  V30 14010 C 1329.61 -2.56555 -3.70797 0
M  V30 14011 C 1328.27 -2.96653 -3.78881 0
M  V30 14012 C 1330.62 -3.51543 -3.84795 0
M  V30 14013 C 1327.95 -4.30669 -3.98424 0
M  V30 14014 C 1330.3 -4.85252 -4.05849 0
M  V30 14015 C 1328.96 -5.2505 -4.12163 0
M  V30 14016 H 1328.23 -0.260529 -0.69369 0
M  V30 14017 H 1330.88 -1.28172 -1.42282 0
M  V30 14018 H 1329.19 -0.446738 -3.89245 0
M  V30 14019 H 1330.88 -0.836985 -3.92168 0
M  V30 14020 H 1327.47 -2.24488 -3.65107 0
M  V30 14021 H 1331.66 -3.21721 -3.77901 0
M  V30 14022 H 1326.91 -4.61052 -4.01548 0
M  V30 14023 H 1331.09 -5.58777 -4.15622 0
M  V30 14024 H 1328.71 -6.28908 -4.27059 0
M  V30 14025 N 1330.29 1.35952 -0.797165 0
M  V30 14026 C 1331.54 1.98639 -0.372405 0
M  V30 14027 C 1331.86 1.63571 1.06158 0
M  V30 14028 O 1331.13 0.913516 1.73297 0
M  V30 14029 H 1329.71 0.734753 -0.13471 0
M  V30 14030 H 1332.37 1.66022 -1.02092 0
M  V30 14031 H 1331.47 3.08533 -0.47049 0
M  V30 14032 N 1331.77 0.549846 1.47697 0
M  V30 14033 C 1332.72 -0.222213 2.26915 0
M  V30 14034 C 1333.7 -0.891996 1.33911 0
M  V30 14035 O 1334.89 -0.791519 1.58316 0
M  V30 14036 C 1332.02 -1.25619 3.19491 0
M  V30 14037 C 1331.11 -0.590193 4.19973 0
M  V30 14038 N 1331.5 0.335519 5.04686 0
M  V30 14039 C 1329.8 -0.845012 4.37922 0
M  V30 14040 C 1330.5 0.721672 5.77206 0
M  V30 14041 N 1329.48 0.078184 5.43544 0
M  V30 14042 H 1333.28 0.489645 2.89792 0
M  V30 14043 H 1330.79 0.36926 1.58146 0
M  V30 14044 H 1332.79 -1.82319 3.74921 0
M  V30 14045 H 1331.45 -1.96922 2.5817 0
M  V30 14046 H 1332.46 0.709271 5.1302 0
M  V30 14047 H 1329.14 -1.54711 3.87777 0
M  V30 14048 H 1330.53 1.48191 6.55354 0
M  V30 14049 N 1333.25 -1.54984 0.285932 0
M  V30 14050 C 1334.21 -2.2164 -0.583824 0
M  V30 14051 C 1335.21 -1.19764 -1.073 0
M  V30 14052 O 1336.4 -1.44598 -0.971439 0
M  V30 14053 C 1333.53 -2.8909 -1.80665 0
M  V30 14054 H 1334.72 -2.999 -0.00168109 0
M  V30 14055 H 1332.28 -1.56257 0.0366325 0
M  V30 14056 H 1333.01 -2.14869 -2.42903 0
M  V30 14057 H 1332.8 -3.63756 -1.4637 0
M  V30 14058 H 1334.29 -3.39982 -2.42491 0
M  V30 14059 N 1334.72 -0.0133892 -1.57594 0
M  V30 14060 C 1335.97 0.669624 -1.91426 0
M  V30 14061 C 1336.3 1.72675 -0.888656 0
M  V30 14062 O 1335.58 1.94288 0.0908138 0
M  V30 14063 C 1335.86 1.30051 -3.35796 0
M  V30 14064 C 1335.71 0.254021 -4.49082 0
M  V30 14065 C 1337.03 2.22297 -3.79832 0
M  V30 14066 H 1334.15 0.241958 -0.69615 0
M  V30 14067 H 1336.79 -0.0674278 -1.8988 0
M  V30 14068 H 1334.94 1.92871 -3.37243 0
M  V30 14069 H 1336.62 -0.375524 -4.59769 0
M  V30 14070 H 1334.86 -0.422267 -4.3174 0
M  V30 14071 H 1335.53 0.734756 -5.47088 0
M  V30 14072 H 1338.01 1.69481 -3.8002 0
M  V30 14073 H 1336.88 2.634 -4.81572 0
M  V30 14074 H 1337.14 3.10764 -3.14449 0
M  V30 14075 N 1336.2 1.55448 0.259558 0
M  V30 14076 C 1337.48 1.6742 1.01143 0
M  V30 14077 C 1337.86 0.549525 2.03822 0
M  V30 14078 O 1337.21 -0.448699 2.24051 0
M  V30 14079 C 1337.42 3.07201 1.65616 0
M  V30 14080 C 1338.77 3.6539 2.16277 0
M  V30 14081 O 1339.79 3.0992 1.7558 0
M  V30 14082 O 1338.65 4.62604 2.90963 0
M  V30 14083 H 1335.74 0.680469 0.469991 0
M  V30 14084 H 1338.29 1.67783 0.254348 0
M  V30 14085 H 1337.06 3.80504 0.912819 0
M  V30 14086 H 1336.68 3.10794 2.47977 0
M  V30 14087 N 1337.68 -0.524672 1.4861 0
M  V30 14088 C 1338.91 -1.30482 1.60568 0
M  V30 14089 C 1339.32 -1.86889 0.267952 0
M  V30 14090 O 1338.68 -1.66669 -0.743488 0
M  V30 14091 C 1338.73 -2.45191 2.65638 0
M  V30 14092 O 1338.45 -1.91107 3.9422 0
M  V30 14093 C 1339.95 -3.36931 2.88084 0
M  V30 14094 H 1337.17 -0.396612 0.541239 0
M  V30 14095 H 1339.72 -0.632392 1.94476 0
M  V30 14096 H 1337.87 -3.08308 2.34574 0
M  V30 14097 H 1338.29 -2.66234 4.51907 0
M  V30 14098 H 1339.76 -4.13755 3.65391 0
M  V30 14099 H 1340.24 -3.92487 1.97106 0
M  V30 14100 H 1340.84 -2.79601 3.20473 0
M  V30 14101 N 1339.16 -1.37287 -0.77395 0
M  V30 14102 C 1340.09 -1.35569 -1.90114 0
M  V30 14103 C 1341.07 -0.224658 -1.6861 0
M  V30 14104 O 1342.25 -0.424676 -1.895 0
M  V30 14105 C 1339.38 -1.15971 -3.27365 0
M  V30 14106 C 1338.34 -2.26063 -3.63427 0
M  V30 14107 C 1337.66 -1.9159 -4.99197 0
M  V30 14108 C 1338.96 -3.68236 -3.70405 0
M  V30 14109 H 1340.66 -2.29891 -1.91808 0
M  V30 14110 H 1338.2 -1.10661 -0.92142 0
M  V30 14111 H 1340.16 -1.134 -4.05855 0
M  V30 14112 H 1338.88 -0.181043 -3.26098 0
M  V30 14113 H 1337.54 -2.27786 -2.87244 0
M  V30 14114 H 1337.19 -0.922586 -4.94467 0
M  V30 14115 H 1336.89 -2.65309 -5.24294 0
M  V30 14116 H 1338.41 -1.90602 -5.80089 0
M  V30 14117 H 1339.83 -3.68655 -4.39052 0
M  V30 14118 H 1338.22 -4.4099 -4.06999 0
M  V30 14119 H 1339.29 -4.02021 -2.71122 0
M  V30 14120 N 1340.64 0.999871 -1.21821 0
M  V30 14121 C 1341.57 2.10708 -1.00621 0
M  V30 14122 C 1342.55 1.69954 0.0705417 0
M  V30 14123 O 1343.73 1.9399 -0.0903042 0
M  V30 14124 C 1340.86 3.42496 -0.575646 0
M  V30 14125 C 1339.82 3.97068 -1.59754 0
M  V30 14126 C 1339.14 5.24822 -1.02304 0
M  V30 14127 C 1340.44 4.28545 -2.98574 0
M  V30 14128 H 1342.14 2.28701 -1.93226 0
M  V30 14129 H 1339.68 1.09903 -0.930443 0
M  V30 14130 H 1341.64 4.19357 -0.414481 0
M  V30 14131 H 1340.36 3.2431 0.386059 0
M  V30 14132 H 1339.02 3.22332 -1.74636 0
M  V30 14133 H 1338.67 5.02972 -0.0529016 0
M  V30 14134 H 1338.37 5.62299 -1.70567 0
M  V30 14135 H 1339.89 6.04322 -0.873312 0
M  V30 14136 H 1341.3 4.96229 -2.87106 0
M  V30 14137 H 1339.7 4.77178 -3.63897 0
M  V30 14138 H 1340.77 3.36607 -3.49032 0
M  V30 14139 N 1342.11 1.02678 1.19562 0
M  V30 14140 C 1343.02 0.615738 2.26375 0
M  V30 14141 C 1344.04 -0.351525 1.70412 0
M  V30 14142 O 1345.22 -0.209932 2.00303 0
M  V30 14143 C 1342.28 -0.0292135 3.46688 0
M  V30 14144 C 1341.34 0.985284 4.1784 0
M  V30 14145 C 1340.58 0.371016 5.32409 0
M  V30 14146 O 1340.8 -0.826591 5.64379 0
M  V30 14147 O 1339.73 1.09282 5.91896 0
M  V30 14148 H 1343.56 1.50526 2.63772 0
M  V30 14149 H 1341.14 0.796847 1.26375 0
M  V30 14150 H 1343.03 -0.38893 4.19601 0
M  V30 14151 H 1341.7 -0.892778 3.11145 0
M  V30 14152 H 1340.61 1.39655 3.47055 0
M  V30 14153 H 1341.94 1.81915 4.57349 0
M  V30 14154 N 1343.59 -1.35528 0.804364 0
M  V30 14155 C 1344.5 -2.33616 0.214663 0
M  V30 14156 C 1345.52 -1.61757 -0.64115 0
M  V30 14157 O 1346.69 -1.93647 -0.553424 0
M  V30 14158 C 1343.76 -3.40951 -0.628778 0
M  V30 14159 C 1342.82 -4.28587 0.247269 0
M  V30 14160 C 1342.05 -5.30796 -0.556012 0
M  V30 14161 O 1342.28 -5.41557 -1.79088 0
M  V30 14162 O 1341.21 -6.01878 0.0519437 0
M  V30 14163 H 1345.04 -2.85843 1.02605 0
M  V30 14164 H 1342.62 -1.38259 0.566108 0
M  V30 14165 H 1344.5 -4.06538 -1.10926 0
M  V30 14166 H 1343.18 -2.90999 -1.4178 0
M  V30 14167 H 1342.09 -3.65988 0.774835 0
M  V30 14168 H 1343.42 -4.81931 1.00017 0
M  V30 14169 N 1345.07 -0.557671 -1.47404 0
M  V30 14170 C 1346 0.178019 -2.3282 0
M  V30 14171 C 1346.98 0.908318 -1.43818 0
M  V30 14172 O 1348.17 0.888693 -1.72673 0
M  V30 14173 C 1345.3 1.2082 -3.25607 0
M  V30 14174 C 1344.25 0.594335 -4.23853 0
M  V30 14175 C 1343.58 1.72919 -5.05968 0
M  V30 14176 C 1344.88 -0.452196 -5.20339 0
M  V30 14177 H 1346.57 -0.535091 -2.9458 0
M  V30 14178 H 1344.12 -0.258775 -1.41656 0
M  V30 14179 H 1346.07 1.73104 -3.84204 0
M  V30 14180 H 1344.79 1.95126 -2.61903 0
M  V30 14181 H 1343.45 0.0927898 -3.66483 0
M  V30 14182 H 1343.1 2.4613 -4.38668 0
M  V30 14183 H 1342.8 1.32422 -5.72484 0
M  V30 14184 H 1344.33 2.25527 -5.67424 0
M  V30 14185 H 1345.74 -0.0154011 -5.73298 0
M  V30 14186 H 1344.14 -0.776068 -5.95061 0
M  V30 14187 H 1345.21 -1.34791 -4.65789 0
M  V30 14188 N 1346.55 1.54831 -0.294147 0
M  V30 14189 C 1347.8 1.99606 0.316509 0
M  V30 14190 C 1348.12 1.18405 1.54936 0
M  V30 14191 O 1347.39 0.278289 1.93913 0
M  V30 14192 H 1345.97 0.737309 0.119938 0
M  V30 14193 H 1348.63 1.90669 -0.403891 0
M  V30 14194 H 1347.73 3.06409 0.593282 0
M  V30 14195 N 1348.03 0.0217466 1.57585 0
M  V30 14196 C 1349.28 -0.657187 1.91116 0
M  V30 14197 C 1349.6 -1.7309 0.898039 0
M  V30 14198 O 1348.87 -1.95803 -0.0615116 0
M  V30 14199 H 1347.45 -0.245732 0.705425 0
M  V30 14200 H 1350.11 0.0678096 1.94782 0
M  V30 14201 H 1349.2 -1.11462 2.91518 0
M  V30 14202 N 1349.51 -1.55583 -0.251311 0
M  V30 14203 C 1350.42 -1.93073 -1.33266 0
M  V30 14204 C 1351.43 -0.830612 -1.52895 0
M  V30 14205 O 1352.61 -1.13162 -1.66602 0
M  V30 14206 C 1349.67 -2.21396 -2.66805 0
M  V30 14207 C 1348.73 -3.44815 -2.55737 0
M  V30 14208 C 1347.97 -3.71777 -3.82907 0
M  V30 14209 O 1348.19 -3.00884 -4.84587 0
M  V30 14210 O 1347.12 -4.65305 -3.81805 0
M  V30 14211 H 1350.95 -2.85168 -1.04465 0
M  V30 14212 H 1348.53 -1.42408 -0.451693 0
M  V30 14213 H 1350.42 -2.4094 -3.45725 0
M  V30 14214 H 1349.09 -1.3248 -2.95348 0
M  V30 14215 H 1348 -3.30582 -1.75118 0
M  V30 14216 H 1349.33 -4.34019 -2.32139 0
M  V30 14217 N 1350.98 0.516783 -1.48886 0
M  V30 14218 C 1352.4 0.84654 -1.35299 0
M  V30 14219 C 1352.6 1.97998 -0.374035 0
M  V30 14220 O 1351.66 2.51707 0.200003 0
M  V30 14221 C 1352.97 1.20162 -2.75648 0
M  V30 14222 C 1354.52 1.31074 -2.84233 0
M  V30 14223 C 1354.99 1.69919 -4.25313 0
M  V30 14224 N 1356.48 1.76998 -4.28049 0
M  V30 14225 C 1357.22 2.08466 -5.34162 0
M  V30 14226 N 1356.71 2.38268 -6.50538 0
M  V30 14227 N 1358.51 2.09584 -5.21566 0
M  V30 14228 H 1350.66 -0.230871 -2.11142 0
M  V30 14229 H 1352.92 -0.0406678 -0.947127 0
M  V30 14230 H 1352.63 0.442278 -3.48908 0
M  V30 14231 H 1352.5 2.14875 -3.10014 0
M  V30 14232 H 1354.89 2.06083 -2.1122 0
M  V30 14233 H 1354.97 0.344506 -2.5347 0
M  V30 14234 H 1354.61 0.954667 -4.98847 0
M  V30 14235 H 1354.54 2.67616 -4.5353 0
M  V30 14236 H 1357.03 1.56191 -3.44112 0
M  V30 14237 H 1357.35 2.61423 -7.2724 0
M  V30 14238 H 1355.69 2.35758 -6.53791 0
M  V30 14239 H 1358.88 1.85768 -4.2966 0
M  V30 14240 H 1359.06 2.33776 -6.04362 0
M  V30 14241 N 1352.46 1.37696 0.766659 0
M  V30 14242 C 1353.71 1.32507 1.52069 0
M  V30 14243 C 1354.02 -0.0864967 1.95409 0
M  V30 14244 O 1355.23 -0.260877 2.70244 0
M  V30 14245 C 1353.69 2.32614 2.74625 0
M  V30 14246 C 1353.29 3.79325 2.38363 0
M  V30 14247 C 1355.04 2.36445 3.52554 0
M  V30 14248 C 1352.94 4.7115 3.57451 0
M  V30 14249 H 1351.87 0.492491 0.570937 0
M  V30 14250 H 1354.53 1.63183 0.839268 0
M  V30 14251 H 1352.91 1.94963 3.44682 0
M  V30 14252 H 1354.08 4.25841 1.76056 0
M  V30 14253 H 1352.4 3.78488 1.73597 0
M  V30 14254 H 1354.99 3.02252 4.41076 0
M  V30 14255 H 1355.34 1.37953 3.92778 0
M  V30 14256 H 1355.87 2.72829 2.89498 0
M  V30 14257 H 1352.61 5.70789 3.22304 0
M  V30 14258 H 1352.13 4.29335 4.18846 0
M  V30 14259 H 1353.81 4.88532 4.242 0
M  V30 14260 N 1353.94 -0.993397 1.22349 0
M  V30 14261 C 1354.87 -2.10171 1.01737 0
M  V30 14262 C 1355.85 -1.69989 -0.0615276 0
M  V30 14263 O 1357.04 -1.93939 0.100591 0
M  V30 14264 C 1354.17 -3.42186 0.593801 0
M  V30 14265 C 1353.12 -3.96215 1.61858 0
M  V30 14266 C 1352.45 -5.24272 1.05086 0
M  V30 14267 C 1353.75 -4.26956 3.00842 0
M  V30 14268 H 1355.44 -2.27673 1.94436 0
M  V30 14269 H 1352.99 -1.09408 0.936258 0
M  V30 14270 H 1354.94 -4.19131 0.436715 0
M  V30 14271 H 1353.66 -3.2451 -0.368855 0
M  V30 14272 H 1352.32 -3.21401 1.76343 0
M  V30 14273 H 1351.97 -5.02937 0.0795747 0
M  V30 14274 H 1351.67 -5.61387 1.73547 0
M  V30 14275 H 1353.19 -6.03851 0.905349 0
M  V30 14276 H 1354.61 -4.94699 2.89734 0
M  V30 14277 H 1353 -4.75242 3.66422 0
M  V30 14278 H 1354.07 -3.34752 3.50812 0
M  V30 14279 N 1355.42 -1.03311 -1.19015 0
M  V30 14280 C 1356.36 -0.617567 -2.22384 0
M  V30 14281 C 1357.33 0.370779 -1.61909 0
M  V30 14282 O 1358.52 0.266481 -1.8893 0
M  V30 14283 C 1355.66 0.0211303 -3.45094 0
M  V30 14284 C 1354.77 -1.01377 -4.19937 0
M  V30 14285 C 1353.91 -0.344385 -5.30082 0
M  V30 14286 C 1352.95 -1.3649 -5.96688 0
M  V30 14287 N 1352.08 -0.721026 -6.98388 0
M  V30 14288 H 1356.92 -1.5036 -2.57286 0
M  V30 14289 H 1354.46 -0.75235 -1.26405 0
M  V30 14290 H 1356.42 0.408713 -4.15193 0
M  V30 14291 H 1355.05 0.870721 -3.10835 0
M  V30 14292 H 1354.1 -1.51937 -3.4874 0
M  V30 14293 H 1355.41 -1.78921 -4.65606 0
M  V30 14294 H 1354.57 0.097814 -6.06621 0
M  V30 14295 H 1353.31 0.463216 -4.85495 0
M  V30 14296 H 1352.31 -1.81732 -5.18897 0
M  V30 14297 H 1353.54 -2.17407 -6.43359 0
M  V30 14298 H 1351.48 0.0664057 -6.55966 0
M  V30 14299 H 1351.4 -1.43428 -7.4227 0
M  V30 14300 H 1352.67 -0.30297 -7.78911 0
M  V30 14301 N 1356.9 1.35099 -0.81154 0
M  V30 14302 C 1357.83 2.2756 -0.170838 0
M  V30 14303 C 1358.81 1.48331 0.666085 0
M  V30 14304 O 1359.99 1.77579 0.632294 0
M  V30 14305 C 1357.12 3.30006 0.762483 0
M  V30 14306 C 1356.16 4.265 0.00454934 0
M  V30 14307 S 1357 5.18595 -1.33488 0
M  V30 14308 C 1358.15 6.24581 -0.406132 0
M  V30 14309 H 1358.39 2.81553 -0.95475 0
M  V30 14310 H 1355.92 1.41974 -0.606851 0
M  V30 14311 H 1357.88 3.89523 1.29545 0
M  V30 14312 H 1356.54 2.74882 1.51982 0
M  V30 14313 H 1355.73 4.98922 0.71361 0
M  V30 14314 H 1355.33 3.71178 -0.458613 0
M  V30 14315 H 1357.62 6.76278 0.406707 0
M  V30 14316 H 1358.57 6.99509 -1.09969 0
M  V30 14317 H 1358.98 5.645 0.000376348 0
M  V30 14318 N 1358.37 0.56548 1.47106 0
M  V30 14319 C 1359.79 0.225855 1.57994 0
M  V30 14320 C 1359.99 -1.27173 1.56299 0
M  V30 14321 O 1359.05 -2.05242 1.47078 0
M  V30 14322 C 1360.36 0.859829 2.88145 0
M  V30 14323 C 1361.91 0.831821 3.01744 0
M  V30 14324 C 1362.38 1.44502 4.34607 0
M  V30 14325 N 1363.87 1.40857 4.41263 0
M  V30 14326 C 1364.61 1.85258 5.42648 0
M  V30 14327 N 1364.1 2.37553 6.508 0
M  V30 14328 N 1365.9 1.76279 5.33744 0
M  V30 14329 H 1358.05 1.53837 1.46451 0
M  V30 14330 H 1360.31 0.642013 0.697512 0
M  V30 14331 H 1360.02 1.91264 2.95146 0
M  V30 14332 H 1359.89 0.357762 3.755 0
M  V30 14333 H 1362.28 -0.212319 2.94335 0
M  V30 14334 H 1362.36 1.37173 2.1591 0
M  V30 14335 H 1362 2.48827 4.42773 0
M  V30 14336 H 1361.93 0.880479 5.19187 0
M  V30 14337 H 1364.42 1.02614 3.63702 0
M  V30 14338 H 1364.74 2.69335 7.24347 0
M  V30 14339 H 1363.08 2.41569 6.51667 0
M  V30 14340 H 1366.27 1.35195 4.48152 0
M  V30 14341 H 1366.45 2.11199 6.12616 0
M  V30 14342 N 1359.85 -1.54672 0.302354 0
M  V30 14343 C 1360.76 -2.27251 -0.582578 0
M  V30 14344 C 1361.78 -1.30819 -1.14727 0
M  V30 14345 O 1362.95 -1.63803 -1.17177 0
M  V30 14346 C 1360.02 -3.00016 -1.73757 0
M  V30 14347 C 1359.08 -4.11988 -1.20682 0
M  V30 14348 C 1358.31 -4.81273 -2.30676 0
M  V30 14349 O 1358.54 -4.49927 -3.50602 0
M  V30 14350 O 1357.47 -5.68647 -1.97291 0
M  V30 14351 H 1361.3 -3.03699 0.00621365 0
M  V30 14352 H 1358.88 -1.49242 0.0687684 0
M  V30 14353 H 1360.76 -3.45652 -2.41045 0
M  V30 14354 H 1359.44 -2.26462 -2.31294 0
M  V30 14355 H 1358.35 -3.70749 -0.499625 0
M  V30 14356 H 1359.68 -4.87524 -0.676858 0
M  V30 14357 N 1361.33 -0.0301034 -1.57571 0
M  V30 14358 C 1362.58 0.647042 -1.91462 0
M  V30 14359 C 1362.9 1.72612 -0.907206 0
M  V30 14360 O 1362.17 1.95833 0.0511268 0
M  V30 14361 H 1360.75 0.241988 -0.706718 0
M  V30 14362 H 1363.41 -0.0781385 -1.94743 0
M  V30 14363 H 1362.51 1.09915 -2.92105 0
M  V30 14364 N 1362.81 1.55714 0.243056 0
M  V30 14365 C 1364.09 1.68483 0.993614 0
M  V30 14366 C 1364.47 0.571112 2.03228 0
M  V30 14367 O 1363.81 -0.42491 2.24515 0
M  V30 14368 C 1364.02 3.0894 1.62349 0
M  V30 14369 C 1365.37 3.67663 2.12389 0
M  V30 14370 O 1366.4 3.11764 1.72283 0
M  V30 14371 O 1365.25 4.65664 2.8604 0
M  V30 14372 H 1362.35 0.685415 0.462747 0
M  V30 14373 H 1364.89 1.68043 0.236538 0
M  V30 14374 H 1363.67 3.81451 0.87241 0
M  V30 14375 H 1363.29 3.13407 2.44667 0
M  V30 14376 N 1364.29 -0.50888 1.49158 0
M  V30 14377 C 1365.2 -1.63782 1.67966 0
M  V30 14378 C 1366.21 -1.64667 0.562207 0
M  V30 14379 O 1367.39 -1.83232 0.835935 0
M  V30 14380 C 1364.45 -3.00179 1.73474 0
M  V30 14381 C 1363.51 -3.09983 2.97 0
M  V30 14382 C 1362.75 -4.39875 3.02235 0
M  V30 14383 O 1362.97 -5.28214 2.15282 0
M  V30 14384 O 1361.9 -4.54486 3.94621 0
M  V30 14385 H 1365.73 -1.50846 2.63589 0
M  V30 14386 H 1363.32 -0.684306 1.32807 0
M  V30 14387 H 1365.2 -3.8126 1.79495 0
M  V30 14388 H 1363.87 -3.13394 0.810287 0
M  V30 14389 H 1362.78 -2.28119 2.965 0
M  V30 14390 H 1364.11 -3.01693 3.88899 0
M  V30 14391 N 1365.76 -1.381 -0.759346 0
M  V30 14392 C 1366.69 -1.37578 -1.88665 0
M  V30 14393 C 1367.68 -0.242529 -1.68362 0
M  V30 14394 O 1368.86 -0.444751 -1.89039 0
M  V30 14395 C 1365.99 -1.19437 -3.26117 0
M  V30 14396 C 1364.94 -2.29905 -3.61009 0
M  V30 14397 C 1364.27 -1.96874 -4.97136 0
M  V30 14398 C 1365.57 -3.72143 -3.66479 0
M  V30 14399 H 1367.26 -2.31912 -1.89359 0
M  V30 14400 H 1364.81 -1.11632 -0.909631 0
M  V30 14401 H 1366.76 -1.17698 -4.0463 0
M  V30 14402 H 1365.49 -0.21562 -3.25887 0
M  V30 14403 H 1364.15 -2.3082 -2.84812 0
M  V30 14404 H 1363.79 -0.974979 -4.9346 0
M  V30 14405 H 1363.49 -2.70855 -5.21451 0
M  V30 14406 H 1365.02 -1.96744 -5.78035 0
M  V30 14407 H 1366.43 -3.73291 -4.35117 0
M  V30 14408 H 1364.83 -4.45282 -4.02299 0
M  V30 14409 H 1365.9 -4.04874 -2.66843 0
M  V30 14410 N 1367.24 0.986894 -1.22875 0
M  V30 14411 C 1368.48 1.74243 -1.06859 0
M  V30 14412 C 1368.85 1.88024 0.388736 0
M  V30 14413 O 1370.05 2.60318 0.669907 0
M  V30 14414 C 1368.32 3.10668 -1.76692 0
M  V30 14415 S 1369.88 4.01884 -1.76166 0
M  V30 14416 H 1366.7 0.59931 -0.382555 0
M  V30 14417 H 1369.3 1.17951 -1.55909 0
M  V30 14418 H 1368 2.98285 -2.81877 0
M  V30 14419 H 1367.53 3.7203 -1.27897 0
M  V30 14420 H 1369.55 4.89451 -0.815627 0
M  V30 14421 N 1368.72 1.0394 1.18466 0
M  V30 14422 C 1369.97 0.740576 1.88042 0
M  V30 14423 C 1370.29 -0.733822 1.80666 0
M  V30 14424 O 1369.56 -1.52943 1.22414 0
M  V30 14425 H 1368.14 0.270949 0.696129 0
M  V30 14426 H 1370.8 1.31588 1.43772 0
M  V30 14427 H 1369.9 1.04429 2.94111 0
M  V30 14428 N 1370.2 -1.34667 0.818693 0
M  V30 14429 C 1371.13 -2.28368 0.195126 0
M  V30 14430 C 1372.14 -1.50836 -0.612562 0
M  V30 14431 O 1373.33 -1.72917 -0.442936 0
M  V30 14432 C 1370.43 -3.30601 -0.745411 0
M  V30 14433 C 1369.61 -4.37396 0.0185308 0
M  V30 14434 C 1368.66 -5.19415 -0.842298 0
M  V30 14435 O 1367.69 -5.68467 -0.288821 0
M  V30 14436 N 1368.89 -5.38709 -2.1627 0
M  V30 14437 H 1371.66 -2.8252 1.00013 0
M  V30 14438 H 1369.22 -1.47146 0.675262 0
M  V30 14439 H 1371.21 -3.82367 -1.3258 0
M  V30 14440 H 1369.78 -2.76875 -1.45118 0
M  V30 14441 H 1369 -3.86402 0.780205 0
M  V30 14442 H 1370.29 -5.05877 0.544575 0
M  V30 14443 H 1369.69 -5.00523 -2.63616 0
M  V30 14444 H 1368.24 -5.9361 -2.69204 0
M  V30 14445 N 1371.68 -0.573274 -1.46804 0
M  V30 14446 C 1372.59 0.168081 -2.33997 0
M  V30 14447 C 1373.6 0.895652 -1.49178 0
M  V30 14448 O 1374.78 0.860951 -1.8207 0
M  V30 14449 C 1371.84 1.17483 -3.26188 0
M  V30 14450 C 1370.9 0.452956 -4.26904 0
M  V30 14451 C 1370.14 1.41175 -5.1469 0
M  V30 14452 O 1370.36 2.64767 -5.05227 0
M  V30 14453 O 1369.29 0.927472 -5.94711 0
M  V30 14454 H 1373.12 -0.547576 -2.98723 0
M  V30 14455 H 1370.71 -0.333747 -1.45624 0
M  V30 14456 H 1372.59 1.75557 -3.8309 0
M  V30 14457 H 1371.26 1.87213 -2.6407 0
M  V30 14458 H 1370.17 -0.169383 -3.73716 0
M  V30 14459 H 1371.5 -0.203186 -4.9178 0
M  V30 14460 N 1373.15 1.5451 -0.310553 0
M  V30 14461 C 1374.06 2.27557 0.570518 0
M  V30 14462 C 1375.08 1.31426 1.14032 0
M  V30 14463 O 1376.26 1.64423 1.16306 0
M  V30 14464 C 1373.32 3.00933 1.72163 0
M  V30 14465 C 1372.38 4.12623 1.18495 0
M  V30 14466 C 1371.62 4.8249 2.28121 0
M  V30 14467 O 1371.84 4.5178 3.48211 0
M  V30 14468 O 1370.77 5.69686 1.94273 0
M  V30 14469 H 1374.6 3.03692 -0.0223195 0
M  V30 14470 H 1372.18 1.49203 -0.0766821 0
M  V30 14471 H 1374.07 3.46925 2.39208 0
M  V30 14472 H 1372.74 2.27685 2.3009 0
M  V30 14473 H 1371.65 3.71008 0.479956 0
M  V30 14474 H 1372.98 4.87876 0.650994 0
M  V30 14475 N 1374.63 0.0384594 1.57553 0
M  V30 14476 C 1375.6 -0.925358 2.0969 0
M  V30 14477 C 1376.6 -1.24811 1.01385 0
M  V30 14478 O 1377.79 -1.1869 1.27508 0
M  V30 14479 C 1374.92 -2.2391 2.57055 0
M  V30 14480 H 1376.11 -0.473633 2.96136 0
M  V30 14481 H 1373.66 -0.209736 1.54886 0
M  V30 14482 H 1374.4 -2.73691 1.73964 0
M  V30 14483 H 1374.18 -2.01793 3.36188 0
M  V30 14484 H 1375.67 -2.92974 2.97583 0
M  V30 14485 N 1376.11 -1.55841 -0.234795 0
M  V30 14486 C 1377.36 -1.78238 -0.961116 0
M  V30 14487 C 1377.69 -0.604919 -1.84854 0
M  V30 14488 O 1376.94 0.411289 -1.91329 0
M  V30 14489 C 1377.24 -3.06262 -1.84223 0
M  V30 14490 C 1376.91 -4.37045 -1.10916 0
M  V30 14491 C 1375.57 -4.72582 -0.906606 0
M  V30 14492 C 1377.92 -5.17844 -0.59049 0
M  V30 14493 C 1375.25 -5.86444 -0.173275 0
M  V30 14494 C 1377.6 -6.32468 0.129433 0
M  V30 14495 C 1376.26 -6.66616 0.343357 0
M  V30 14496 H 1375.53 -0.652219 -0.351697 0
M  V30 14497 H 1378.18 -1.9011 -0.230272 0
M  V30 14498 H 1376.49 -2.89454 -2.64052 0
M  V30 14499 H 1378.18 -3.20791 -2.40612 0
M  V30 14500 H 1374.77 -4.09134 -1.27699 0
M  V30 14501 H 1378.96 -4.90835 -0.734487 0
M  V30 14502 H 1374.21 -6.114 0.00282409 0
M  V30 14503 H 1378.39 -6.94312 0.538905 0
M  V30 14504 H 1376.01 -7.54691 0.913538 0
M  V30 14505 N 1377.59 0.500963 -1.49426 0
M  V30 14506 C 1379.01 0.832142 -1.36189 0
M  V30 14507 C 1379.21 1.9759 -0.395014 0
M  V30 14508 O 1378.26 2.51905 0.173294 0
M  V30 14509 C 1379.57 1.17232 -2.76907 0
M  V30 14510 C 1381.12 1.28052 -2.85607 0
M  V30 14511 C 1381.6 1.65399 -4.27092 0
M  V30 14512 N 1383.09 1.72448 -4.29902 0
M  V30 14513 C 1383.82 2.02789 -5.36343 0
M  V30 14514 N 1383.32 2.31354 -6.53029 0
M  V30 14515 N 1385.11 2.0404 -5.23759 0
M  V30 14516 H 1377.26 -0.253253 -2.10885 0
M  V30 14517 H 1379.53 -0.0507111 -0.946643 0
M  V30 14518 H 1379.23 0.405247 -3.49357 0
M  V30 14519 H 1379.11 2.11574 -3.12276 0
M  V30 14520 H 1381.49 2.03831 -2.13394 0
M  V30 14521 H 1381.57 0.317603 -2.53821 0
M  V30 14522 H 1381.22 0.901704 -4.99832 0
M  V30 14523 H 1381.15 2.6279 -4.56343 0
M  V30 14524 H 1383.64 1.52532 -3.45749 0
M  V30 14525 H 1383.95 2.53695 -7.29972 0
M  V30 14526 H 1382.3 2.28811 -6.56255 0
M  V30 14527 H 1385.49 1.812 -4.31606 0
M  V30 14528 H 1385.66 2.27353 -6.06807 0
M  V30 14529 N 1379.07 1.38501 0.752011 0
M  V30 14530 C 1380.3 1.38032 1.54125 0
M  V30 14531 C 1380.71 -0.0295066 1.88777 0
M  V30 14532 O 1380.07 -0.996522 1.52891 0
M  V30 14533 C 1380.12 2.23741 2.83941 0
M  V30 14534 O 1379.84 3.59232 2.50767 0
M  V30 14535 C 1381.34 2.31469 3.7807 0
M  V30 14536 H 1378.56 0.472077 0.476848 0
M  V30 14537 H 1381.1 1.82101 0.930572 0
M  V30 14538 H 1379.26 1.8313 3.41383 0
M  V30 14539 H 1379.67 4.04376 3.34036 0
M  V30 14540 H 1381.15 2.95722 4.66103 0
M  V30 14541 H 1381.62 1.32882 4.18616 0
M  V30 14542 H 1382.23 2.72477 3.26552 0
M  V30 14543 N 1380.55 -0.980364 1.23396 0
M  V30 14544 C 1381.79 -1.72501 1.07772 0
M  V30 14545 C 1382.15 -1.88581 -0.381434 0
M  V30 14546 O 1381.44 -1.42702 -1.27854 0
M  V30 14547 C 1381.63 -3.12367 1.73671 0
M  V30 14548 C 1381.46 -3.09928 3.25844 0
M  V30 14549 C 1380.23 -3.15117 3.95006 0
M  V30 14550 C 1382.43 -2.93093 4.22612 0
M  V30 14551 N 1380.41 -3.02564 5.34161 0
M  V30 14552 C 1381.78 -2.88703 5.48681 0
M  V30 14553 C 1383.84 -2.77578 4.13346 0
M  V30 14554 C 1382.54 -2.70386 6.66546 0
M  V30 14555 C 1384.57 -2.60625 5.30875 0
M  V30 14556 C 1383.93 -2.56933 6.55869 0
M  V30 14557 H 1380.03 -0.640325 0.448897 0
M  V30 14558 H 1382.61 -1.16332 1.56125 0
M  V30 14559 H 1380.78 -3.66754 1.27851 0
M  V30 14560 H 1382.52 -3.75465 1.51023 0
M  V30 14561 H 1379.27 -3.23298 3.46086 0
M  V30 14562 H 1379.69 -2.99563 6.07117 0
M  V30 14563 H 1384.34 -2.79223 3.17481 0
M  V30 14564 H 1382.05 -2.67486 7.62546 0
M  V30 14565 H 1385.64 -2.49584 5.25547 0
M  V30 14566 H 1384.52 -2.43979 7.45281 0
M  V30 14567 N 1382.02 -1.04567 -1.17913 0
M  V30 14568 C 1382.99 -0.645476 -2.19923 0
M  V30 14569 C 1383.99 0.299763 -1.57981 0
M  V30 14570 O 1385.18 0.0844825 -1.73995 0
M  V30 14571 C 1382.31 0.0528935 -3.40859 0
M  V30 14572 H 1383.5 -1.54828 -2.56843 0
M  V30 14573 H 1381.05 -0.838812 -1.31885 0
M  V30 14574 H 1381.79 0.969261 -3.09477 0
M  V30 14575 H 1381.57 -0.626558 -3.87062 0
M  V30 14576 H 1383.06 0.319221 -4.16378 0
M  V30 14577 N 1383.5 1.34231 -0.825823 0
M  V30 14578 C 1384.45 2.29467 -0.247724 0
M  V30 14579 C 1385.42 1.53724 0.629127 0
M  V30 14580 O 1386.6 1.82082 0.570156 0
M  V30 14581 C 1383.74 3.40157 0.582012 0
M  V30 14582 C 1382.86 4.30832 -0.317406 0
M  V30 14583 C 1381.99 5.28627 0.522176 0
M  V30 14584 C 1381.03 6.10941 -0.376448 0
M  V30 14585 N 1380.17 7.00817 0.424232 0
M  V30 14586 H 1385.01 2.78311 -1.06521 0
M  V30 14587 H 1382.54 1.36956 -0.536788 0
M  V30 14588 H 1384.5 4.03021 1.07843 0
M  V30 14589 H 1383.13 2.92539 1.36459 0
M  V30 14590 H 1382.18 3.68805 -0.932054 0
M  V30 14591 H 1383.5 4.88503 -1.00826 0
M  V30 14592 H 1382.65 5.96957 1.08295 0
M  V30 14593 H 1381.39 4.71501 1.24652 0
M  V30 14594 H 1380.39 5.41542 -0.94934 0
M  V30 14595 H 1381.62 6.70149 -1.09895 0
M  V30 14596 H 1379.57 6.46156 1.1322 0
M  V30 14597 H 1379.48 7.55713 -0.208175 0
M  V30 14598 H 1380.75 7.7347 0.967664 0
M  V30 14599 N 1384.98 0.581051 1.46498 0
M  V30 14600 C 1385.93 -0.153147 2.30291 0
M  V30 14601 C 1386.9 -0.885681 1.40517 0
M  V30 14602 O 1388.08 -0.876678 1.69467 0
M  V30 14603 C 1385.22 -1.16193 3.24951 0
M  V30 14604 C 1384.33 -0.433016 4.29824 0
M  V30 14605 C 1383.47 -1.42918 5.11613 0
M  V30 14606 C 1382.51 -0.686576 6.08237 0
M  V30 14607 N 1381.65 -1.63072 6.829 0
M  V30 14608 H 1386.49 0.56747 2.92547 0
M  V30 14609 H 1384.02 0.29166 1.4418 0
M  V30 14610 H 1385.98 -1.75965 3.78275 0
M  V30 14611 H 1384.61 -1.85028 2.64508 0
M  V30 14612 H 1383.66 0.279707 3.7937 0
M  V30 14613 H 1384.97 0.147604 4.98582 0
M  V30 14614 H 1384.13 -2.09975 5.69206 0
M  V30 14615 H 1382.87 -2.04373 4.42813 0
M  V30 14616 H 1381.87 -0.00222013 5.498 0
M  V30 14617 H 1383.1 -0.0774416 6.79056 0
M  V30 14618 H 1381.04 -2.2334 6.1681 0
M  V30 14619 H 1380.96 -1.10286 7.47912 0
M  V30 14620 H 1382.23 -2.29169 7.45052 0
M  V30 14621 N 1386.46 -1.54343 0.318742 0
M  V30 14622 C 1387.7 -2.00777 -0.285699 0
M  V30 14623 C 1388.04 -1.20664 -1.52164 0
M  V30 14624 O 1387.31 -0.287674 -1.92361 0
M  V30 14625 C 1387.59 -3.54641 -0.624649 0
M  V30 14626 C 1387.45 -4.45483 0.621663 0
M  V30 14627 C 1388.77 -4.15729 -1.4442 0
M  V30 14628 H 1385.89 -0.729856 -0.102367 0
M  V30 14629 H 1388.53 -1.84968 0.434364 0
M  V30 14630 H 1386.68 -3.68243 -1.23811 0
M  V30 14631 H 1388.35 -4.43759 1.25998 0
M  V30 14632 H 1386.59 -4.15356 1.25148 0
M  V30 14633 H 1387.26 -5.50951 0.340106 0
M  V30 14634 H 1389.74 -4.05672 -0.925699 0
M  V30 14635 H 1388.62 -5.23509 -1.65013 0
M  V30 14636 H 1388.88 -3.68743 -2.43887 0
M  V30 14637 N 1387.94 -0.0468143 -1.5753 0
M  V30 14638 C 1389.18 0.627939 -1.92518 0
M  V30 14639 C 1389.51 1.71107 -0.924801 0
M  V30 14640 O 1388.77 1.95597 0.0635812 0
M  V30 14641 C 1389.06 1.26669 -3.342 0
M  V30 14642 C 1388.73 0.312184 -4.49818 0
M  V30 14643 C 1387.39 0.0495202 -4.81175 0
M  V30 14644 C 1389.74 -0.342228 -5.20075 0
M  V30 14645 C 1387.07 -0.875064 -5.80137 0
M  V30 14646 C 1389.42 -1.25498 -6.20027 0
M  V30 14647 C 1388.09 -1.52636 -6.49814 0
M  V30 14648 H 1387.36 0.229779 -0.704473 0
M  V30 14649 H 1390.01 -0.112363 -1.9117 0
M  V30 14650 H 1388.31 2.08215 -3.31894 0
M  V30 14651 H 1390.01 1.79563 -3.5855 0
M  V30 14652 H 1386.6 0.527088 -4.25347 0
M  V30 14653 H 1390.78 -0.152384 -4.96066 0
M  V30 14654 H 1386.04 -1.09284 -6.01554 0
M  V30 14655 H 1390.21 -1.76815 -6.7358 0
M  V30 14656 H 1387.84 -2.24443 -7.26312 0
M  V30 14657 N 1389.41 1.55964 0.226527 0
M  V30 14658 C 1390.36 1.92007 1.28069 0
M  V30 14659 C 1391.33 0.776666 1.46823 0
M  V30 14660 O 1392.52 1.03213 1.60474 0
M  V30 14661 C 1389.66 2.23784 2.62707 0
M  V30 14662 C 1388.77 3.51034 2.51792 0
M  V30 14663 C 1387.9 3.72281 3.7892 0
M  V30 14664 C 1386.94 4.93062 3.62707 0
M  V30 14665 N 1386.08 5.10725 4.81772 0
M  V30 14666 H 1390.92 2.81898 0.96631 0
M  V30 14667 H 1388.46 1.39529 0.465847 0
M  V30 14668 H 1390.42 2.40217 3.41104 0
M  V30 14669 H 1389.05 1.37073 2.92251 0
M  V30 14670 H 1388.1 3.42822 1.64856 0
M  V30 14671 H 1389.41 4.39582 2.35731 0
M  V30 14672 H 1388.56 3.88783 4.6576 0
M  V30 14673 H 1387.3 2.82004 3.97901 0
M  V30 14674 H 1386.31 4.76515 2.7425 0
M  V30 14675 H 1387.53 5.84819 3.45201 0
M  V30 14676 H 1385.48 4.2339 5.01076 0
M  V30 14677 H 1385.4 5.93397 4.68419 0
M  V30 14678 H 1386.66 5.31658 5.70053 0
M  V30 14679 N 1390.89 -0.493031 1.4969 0
M  V30 14680 C 1391.86 -1.57598 1.6642 0
M  V30 14681 C 1392.86 -1.51615 0.535668 0
M  V30 14682 O 1394.05 -1.54626 0.802283 0
M  V30 14683 C 1391.18 -2.97249 1.66901 0
M  V30 14684 H 1392.37 -1.4409 2.63017 0
M  V30 14685 H 1389.92 -0.717846 1.3884 0
M  V30 14686 H 1390.66 -3.16225 0.719164 0
M  V30 14687 H 1390.44 -3.02999 2.48865 0
M  V30 14688 H 1391.93 -3.75914 1.81874 0
M  V30 14689 N 1392.37 -1.38898 -0.744656 0
M  V30 14690 C 1393.33 -1.36633 -1.84022 0
M  V30 14691 C 1394.33 -0.265187 -1.58598 0
M  V30 14692 O 1395.52 -0.522569 -1.66177 0
M  V30 14693 C 1392.66 -1.12938 -3.21649 0
M  V30 14694 H 1393.85 -2.34111 -1.87435 0
M  V30 14695 H 1391.4 -1.24322 -0.947302 0
M  V30 14696 H 1392.14 -0.161027 -3.239 0
M  V30 14697 H 1391.92 -1.9267 -3.41498 0
M  V30 14698 H 1393.41 -1.14071 -4.01718 0
M  V30 14699 N 1393.85 0.973806 -1.23914 0
M  V30 14700 C 1395.09 1.731 -1.08701 0
M  V30 14701 C 1395.45 1.88425 0.368772 0
M  V30 14702 O 1396.65 2.61014 0.642259 0
M  V30 14703 C 1394.92 3.08777 -1.79977 0
M  V30 14704 S 1396.48 3.99993 -1.80419 0
M  V30 14705 H 1393.3 0.595219 -0.38889 0
M  V30 14706 H 1395.9 1.16291 -1.57152 0
M  V30 14707 H 1394.61 2.95278 -2.85024 0
M  V30 14708 H 1394.14 3.70652 -1.31835 0
M  V30 14709 H 1396.15 4.88558 -0.867494 0
M  V30 14710 N 1395.33 1.05191 1.17357 0
M  V30 14711 C 1396.6 0.675826 1.83554 0
M  V30 14712 C 1396.98 -0.843812 1.93502 0
M  V30 14713 O 1396.33 -1.74975 1.46956 0
M  V30 14714 C 1396.54 1.36481 3.21207 0
M  V30 14715 C 1397.89 1.50285 3.97114 0
M  V30 14716 O 1398.91 1.32382 3.30686 0
M  V30 14717 O 1397.77 1.79562 5.16159 0
M  V30 14718 H 1394.87 0.237898 0.792044 0
M  V30 14719 H 1397.41 1.1515 1.24654 0
M  V30 14720 H 1396.18 2.40156 3.08935 0
M  V30 14721 H 1395.81 0.878491 3.87774 0
M  V30 14722 N 1396.8 -1.33791 0.83293 0
M  V30 14723 C 1398.05 -1.98266 0.426412 0
M  V30 14724 C 1398.38 -1.65848 -1.01035 0
M  V30 14725 O 1397.66 -0.93528 -1.70537 0
M  V30 14726 C 1397.94 -3.54356 0.640586 0
M  V30 14727 C 1397.79 -3.96482 2.12419 0
M  V30 14728 C 1399.11 -4.40022 0.0829237 0
M  V30 14729 H 1396.23 -0.720213 0.156404 0
M  V30 14730 H 1398.87 -1.58527 1.04735 0
M  V30 14731 H 1397.02 -3.88338 0.11204 0
M  V30 14732 H 1398.7 -3.72786 2.71714 0
M  V30 14733 H 1396.94 -3.46429 2.61092 0
M  V30 14734 H 1397.61 -5.05179 2.22482 0
M  V30 14735 H 1400.09 -4.12651 0.534634 0
M  V30 14736 H 1398.96 -5.48272 0.262511 0
M  V30 14737 H 1399.22 -4.30341 -1.01287 0
M  V30 14738 N 1398.28 -0.588812 -1.46187 0
M  V30 14739 C 1399.53 -0.076728 -2.02355 0
M  V30 14740 C 1399.86 1.28557 -1.45956 0
M  V30 14741 O 1399.11 1.85722 -0.616899 0
M  V30 14742 C 1399.41 0.0325249 -3.57385 0
M  V30 14743 C 1399.08 -1.26298 -4.32851 0
M  V30 14744 C 1397.74 -1.61789 -4.53186 0
M  V30 14745 C 1400.09 -2.12001 -4.76136 0
M  V30 14746 C 1397.42 -2.82771 -5.1406 0
M  V30 14747 C 1399.77 -3.32214 -5.38346 0
M  V30 14748 C 1398.44 -3.6798 -5.56908 0
M  V30 14749 H 1397.71 -0.0280768 -0.740468 0
M  V30 14750 H 1400.35 -0.766671 -1.75483 0
M  V30 14751 H 1398.66 0.805632 -3.83428 0
M  V30 14752 H 1400.35 0.444597 -3.98528 0
M  V30 14753 H 1396.94 -0.976692 -4.17323 0
M  V30 14754 H 1401.13 -1.85884 -4.60175 0
M  V30 14755 H 1396.38 -3.10611 -5.26622 0
M  V30 14756 H 1400.56 -3.98888 -5.70843 0
M  V30 14757 H 1398.19 -4.61815 -6.03846 0
M  V30 14758 N 1399.76 1.54172 -0.326923 0
M  V30 14759 C 1401 2.02539 0.275192 0
M  V30 14760 C 1401.36 1.2099 1.49082 0
M  V30 14761 O 1402.57 1.59176 2.16602 0
M  V30 14762 C 1400.84 3.52366 0.597767 0
M  V30 14763 S 1402.4 4.22663 1.17906 0
M  V30 14764 H 1399.21 0.706135 0.0830286 0
M  V30 14765 H 1401.82 1.89991 -0.460826 0
M  V30 14766 H 1400.52 4.09338 -0.295052 0
M  V30 14767 H 1400.05 3.69001 1.36389 0
M  V30 14768 H 1402.07 4.30601 2.46571 0
M  V30 14769 N 1401.24 0.0551678 1.57503 0
M  V30 14770 C 1402.48 -0.618636 1.93134 0
M  V30 14771 C 1402.82 -1.70258 0.934125 0
M  V30 14772 O 1402.09 -1.9446 -0.0392699 0
M  V30 14773 C 1402.38 -1.21103 3.39126 0
M  V30 14774 C 1402.23 -0.134865 4.49598 0
M  V30 14775 C 1403.55 -2.12148 3.85592 0
M  V30 14776 H 1400.67 -0.223416 0.702321 0
M  V30 14777 H 1403.31 0.117748 1.89635 0
M  V30 14778 H 1401.46 -1.83862 3.42238 0
M  V30 14779 H 1403.13 0.497292 4.58612 0
M  V30 14780 H 1401.37 0.536587 4.30469 0
M  V30 14781 H 1402.04 -0.589447 5.48844 0
M  V30 14782 H 1404.52 -1.59346 3.8438 0
M  V30 14783 H 1403.4 -2.50539 4.88387 0
M  V30 14784 H 1403.66 -3.02318 3.22578 0
M  V30 14785 N 1402.72 -1.56081 -0.218252 0
M  V30 14786 C 1403.96 -1.78893 -0.940296 0
M  V30 14787 C 1404.29 -0.62425 -1.84738 0
M  V30 14788 O 1403.56 0.358686 -1.92588 0
M  V30 14789 H 1402.14 -0.659828 -0.350193 0
M  V30 14790 H 1404.8 -1.93546 -0.229316 0
M  V30 14791 H 1403.89 -2.71167 -1.54516 0
M  V30 14792 N 1404.2 0.485086 -1.49949 0
M  V30 14793 C 1405.47 1.24639 -1.50747 0
M  V30 14794 C 1405.85 2.09683 -0.244162 0
M  V30 14795 O 1405.2 2.1503 0.772949 0
M  V30 14796 C 1405.41 2.08946 -2.7954 0
M  V30 14797 C 1406.76 2.67604 -3.29656 0
M  V30 14798 O 1407.78 2.192 -2.80766 0
M  V30 14799 O 1406.64 3.55761 -4.14845 0
M  V30 14800 H 1403.74 0.564849 -0.604049 0
M  V30 14801 H 1406.28 0.498052 -1.62227 0
M  V30 14802 H 1405.05 1.46185 -3.62968 0
M  V30 14803 H 1404.68 2.90941 -2.70997 0
M  V30 14804 N 1405.67 1.39291 0.737279 0
M  V30 14805 C 1406.95 1.26901 1.48847 0
M  V30 14806 C 1407.33 -0.122417 2.10745 0
M  V30 14807 O 1406.68 -1.13343 1.98408 0
M  V30 14808 C 1406.89 2.3916 2.54172 0
M  V30 14809 C 1408.24 2.78368 3.20619 0
M  V30 14810 O 1409.26 2.38593 2.64484 0
M  V30 14811 O 1408.12 3.47014 4.22189 0
M  V30 14812 H 1405.21 0.497176 0.660867 0
M  V30 14813 H 1407.76 1.51159 0.771299 0
M  V30 14814 H 1406.53 3.3219 2.06797 0
M  V30 14815 H 1406.15 2.16555 3.33451 0
M  V30 14816 N 1407.15 -0.967221 1.24429 0
M  V30 14817 C 1408.4 -1.71279 1.08588 0
M  V30 14818 C 1408.73 -1.90558 -0.374325 0
M  V30 14819 O 1408.01 -1.46742 -1.27659 0
M  V30 14820 C 1408.29 -3.10326 1.82674 0
M  V30 14821 C 1408.14 -2.98535 3.36447 0
M  V30 14822 C 1409.46 -4.09993 1.59981 0
M  V30 14823 H 1406.58 -0.621658 0.395867 0
M  V30 14824 H 1409.22 -1.12514 1.53103 0
M  V30 14825 H 1407.37 -3.60492 1.44836 0
M  V30 14826 H 1409.04 -2.55791 3.83886 0
M  V30 14827 H 1407.29 -2.34736 3.64803 0
M  V30 14828 H 1407.96 -3.97041 3.83487 0
M  V30 14829 H 1410.43 -3.68687 1.92897 0
M  V30 14830 H 1409.31 -5.05349 2.14274 0
M  V30 14831 H 1409.57 -4.38812 0.538173 0
M  V30 14832 N 1408.63 -1.05812 -1.16797 0
M  V30 14833 C 1409.58 -0.658636 -2.2308 0
M  V30 14834 C 1410.57 0.323104 -1.6629 0
M  V30 14835 O 1411.78 0.188492 -1.7901 0
M  V30 14836 H 1408.15 -0.194843 -0.72632 0
M  V30 14837 H 1410.12 -1.56501 -2.54067 0
M  V30 14838 C 1408.87 -0.0559428 -3.47655 0
M  V30 14839 H 1408.2 -0.802468 -3.91664 0
M  V30 14840 H 1409.64 0.186118 -4.23591 0
M  V30 14841 C 1408.09 1.19913 -3.14837 0
M  V30 14842 O 1408.62 2.28772 -3.30191 0
M  V30 14843 N 1406.83 1.09921 -2.69009 0
M  V30 14844 H 1406.38 0.213331 -2.56715 0
M  V30 14845 H 1406.34 1.93981 -2.47424 0
M  V30 14846 N 1410.11 1.33347 -0.840014 0
M  V30 14847 C 1411.36 1.97007 -0.432581 0
M  V30 14848 C 1411.67 1.67278 1.01378 0
M  V30 14849 O 1412.88 2.2456 1.52595 0
M  V30 14850 C 1411.33 3.52572 -0.72258 0
M  V30 14851 C 1410.94 3.91176 -2.1837 0
M  V30 14852 C 1412.68 4.22776 -0.382153 0
M  V30 14853 C 1410.59 5.39724 -2.41768 0
M  V30 14854 H 1409.52 0.737255 -0.158024 0
M  V30 14855 H 1412.17 1.5195 -1.02876 0
M  V30 14856 H 1410.55 3.9596 -0.0560179 0
M  V30 14857 H 1411.73 3.58842 -2.89083 0
M  V30 14858 H 1410.04 3.33956 -2.48721 0
M  V30 14859 H 1412.64 5.32021 -0.534588 0
M  V30 14860 H 1412.98 4.10792 0.674967 0
M  V30 14861 H 1413.52 3.84922 -1.004 0
M  V30 14862 H 1410.25 5.56713 -3.4605 0
M  V30 14863 H 1409.77 5.73514 -1.75617 0
M  V30 14864 H 1411.45 6.06624 -2.2498 0
M  V30 14865 N 1411.59 0.596556 1.45873 0
M  V30 14866 C 1412.5 -0.130832 2.34235 0
M  V30 14867 C 1413.51 -0.871805 1.50584 0
M  V30 14868 O 1414.69 -0.831877 1.83417 0
M  V30 14869 C 1411.75 -1.12279 3.28016 0
M  V30 14870 C 1410.81 -0.384982 4.2757 0
M  V30 14871 C 1410.05 -1.32969 5.1687 0
M  V30 14872 O 1410.27 -2.56696 5.09375 0
M  V30 14873 O 1409.2 -0.832741 5.96112 0
M  V30 14874 H 1413.03 0.59503 2.97814 0
M  V30 14875 H 1410.61 0.356873 1.45075 0
M  V30 14876 H 1412.5 -1.6944 3.85834 0
M  V30 14877 H 1411.17 -1.82988 2.67015 0
M  V30 14878 H 1410.08 0.228816 3.734 0
M  V30 14879 H 1411.41 0.281398 4.91395 0
M  V30 14880 N 1413.06 -1.53996 0.335095 0
M  V30 14881 C 1414.01 -2.24736 -0.52559 0
M  V30 14882 C 1414.98 -1.24244 -1.10239 0
M  V30 14883 O 1416.17 -1.52955 -1.14058 0
M  V30 14884 C 1413.31 -3.01732 -1.67487 0
M  V30 14885 C 1412.42 -4.17062 -1.1262 0
M  V30 14886 C 1411.55 -4.81563 -2.2421 0
M  V30 14887 C 1410.59 -5.88977 -1.6665 0
M  V30 14888 N 1409.73 -6.47293 -2.71949 0
M  V30 14889 H 1414.57 -2.97881 0.0842008 0
M  V30 14890 H 1412.11 -1.47003 0.0533254 0
M  V30 14891 H 1414.06 -3.44626 -2.35135 0
M  V30 14892 H 1412.69 -2.30899 -2.25578 0
M  V30 14893 H 1411.75 -3.78869 -0.340917 0
M  V30 14894 H 1413.06 -4.94346 -0.665113 0
M  V30 14895 H 1412.21 -5.27486 -2.9974 0
M  V30 14896 H 1410.95 -4.03685 -2.73659 0
M  V30 14897 H 1409.96 -5.42446 -0.89623 0
M  V30 14898 H 1411.18 -6.68758 -1.18064 0
M  V30 14899 H 1409.13 -5.72283 -3.20668 0
M  V30 14900 H 1409.04 -7.20024 -2.30438 0
M  V30 14901 H 1410.31 -6.97869 -3.47273 0
M  V30 14902 N 1414.54 -0.0635198 -1.57472 0
M  V30 14903 C 1415.5 0.891881 -2.11135 0
M  V30 14904 C 1416.5 1.23182 -1.03358 0
M  V30 14905 O 1417.69 1.16646 -1.2938 0
M  V30 14906 C 1414.83 2.19792 -2.60584 0
M  V30 14907 H 1416.02 0.426461 -2.96852 0
M  V30 14908 H 1413.57 0.185069 -1.552 0
M  V30 14909 H 1414.31 2.70889 -1.78297 0
M  V30 14910 H 1414.09 1.96419 -3.39355 0
M  V30 14911 H 1415.58 2.88203 -3.02206 0
M  V30 14912 N 1416.02 1.56195 0.209972 0
M  V30 14913 C 1416.97 1.94226 1.27981 0
M  V30 14914 C 1417.96 0.825742 1.47912 0
M  V30 14915 O 1419.17 1.01066 1.48949 0
M  V30 14916 H 1415.54 0.617395 0.429333 0
M  V30 14917 H 1417.51 2.83474 0.931946 0
M  V30 14918 C 1416.26 2.28527 2.62051 0
M  V30 14919 H 1415.59 3.1396 2.47526 0
M  V30 14920 H 1417.03 2.59012 3.35692 0
M  V30 14921 C 1415.48 1.11452 3.17931 0
M  V30 14922 O 1416.01 0.381713 3.99882 0
M  V30 14923 N 1414.22 0.895263 2.76466 0
M  V30 14924 H 1413.77 1.4929 2.09929 0
M  V30 14925 H 1413.73 0.113688 3.14194 0
M  V30 14926 N 1417.5 -0.477127 1.50204 0
M  V30 14927 C 1418.45 -1.59664 1.69145 0
M  V30 14928 C 1419.44 -1.59971 0.557294 0
M  V30 14929 O 1420.65 -1.64192 0.737623 0
M  V30 14930 H 1417.02 -0.529706 0.533775 0
M  V30 14931 H 1418.99 -1.40848 2.63067 0
M  V30 14932 C 1417.74 -2.97647 1.79726 0
M  V30 14933 H 1417.06 -2.98127 2.66383 0
M  V30 14934 H 1418.5 -3.75453 1.97006 0
M  V30 14935 C 1416.96 -3.32422 0.547464 0
M  V30 14936 O 1417.49 -4.00454 -0.316115 0
M  V30 14937 N 1415.7 -2.87788 0.40328 0
M  V30 14938 H 1415.25 -2.32598 1.10706 0
M  V30 14939 H 1415.2 -3.11421 -0.431797 0
M  V30 14940 N 1418.98 -1.3968 -0.729882 0
M  V30 14941 C 1420.2 -1.40654 -1.52418 0
M  V30 14942 C 1420.63 -0.00428997 -1.881 0
M  V30 14943 O 1419.98 0.984023 -1.52272 0
M  V30 14944 C 1420.03 -2.29057 -2.78506 0
M  V30 14945 O 1419.14 -1.72397 -3.74637 0
M  V30 14946 H 1418.48 -0.478761 -0.460091 0
M  V30 14947 H 1421.01 -1.83738 -0.900087 0
M  V30 14948 H 1421.02 -2.43748 -3.27187 0
M  V30 14949 H 1419.69 -3.30961 -2.51868 0
M  V30 14950 H 1418.27 -1.66977 -3.33426 0
M  V30 14951 N 1420.45 0.960609 -1.2494 0
M  V30 14952 C 1421.38 2.074 -1.07274 0
M  V30 14953 C 1422.37 1.70092 0.0164365 0
M  V30 14954 O 1423.55 1.93604 -0.151975 0
M  V30 14955 C 1420.68 3.40491 -0.684317 0
M  V30 14956 C 1419.63 3.91784 -1.72306 0
M  V30 14957 C 1418.96 5.21301 -1.18949 0
M  V30 14958 C 1420.26 4.18829 -3.12056 0
M  V30 14959 H 1421.95 2.22438 -2.00404 0
M  V30 14960 H 1419.5 1.06888 -0.964937 0
M  V30 14961 H 1421.45 4.17826 -0.547686 0
M  V30 14962 H 1420.18 3.25374 0.282687 0
M  V30 14963 H 1418.84 3.16613 -1.84802 0
M  V30 14964 H 1418.48 5.02549 -0.212892 0
M  V30 14965 H 1418.18 5.56588 -1.8837 0
M  V30 14966 H 1419.71 6.01238 -1.06513 0
M  V30 14967 H 1421.12 4.86844 -3.02748 0
M  V30 14968 H 1419.52 4.6536 -3.78894 0
M  V30 14969 H 1420.59 3.25333 -3.59564 0
M  V30 14970 N 1421.93 1.0643 1.16234 0
M  V30 14971 C 1423.18 0.77689 1.86138 0
M  V30 14972 C 1423.49 -0.699301 1.82672 0
M  V30 14973 O 1424.7 -1.10113 2.48168 0
M  V30 14974 C 1423.16 1.3396 3.3404 0
M  V30 14975 C 1422.76 2.84613 3.45976 0
M  V30 14976 C 1424.51 1.12979 4.09189 0
M  V30 14977 C 1422.42 3.34122 4.87972 0
M  V30 14978 H 1421.35 0.286936 0.697269 0
M  V30 14979 H 1424 1.28318 1.31174 0
M  V30 14980 H 1422.38 0.761073 3.88618 0
M  V30 14981 H 1423.55 3.48429 3.01552 0
M  V30 14982 H 1421.87 3.04277 2.84262 0
M  V30 14983 H 1424.46 1.47456 5.13966 0
M  V30 14984 H 1424.81 0.0682424 4.16244 0
M  V30 14985 H 1425.34 1.67418 3.60855 0
M  V30 14986 H 1422.08 4.39761 4.86097 0
M  V30 14987 H 1421.6 2.75055 5.33015 0
M  V30 14988 H 1423.28 3.29529 5.56794 0
M  V30 14989 N 1423.41 -1.329 0.847073 0
M  V30 14990 C 1424.64 -2.02244 0.459588 0
M  V30 14991 C 1425.06 -1.63279 -0.933897 0
M  V30 14992 O 1424.42 -0.829551 -1.61208 0
M  V30 14993 C 1424.47 -3.55616 0.59745 0
M  V30 14994 O 1423.57 -4.1071 -0.372919 0
M  V30 14995 H 1422.91 -0.637504 0.1857 0
M  V30 14996 H 1425.44 -1.69617 1.14417 0
M  V30 14997 H 1425.45 -4.05141 0.482145 0
M  V30 14998 H 1424.13 -3.8332 1.61365 0
M  V30 14999 H 1422.7 -3.72283 -0.214487 0
M  V30 15000 N 1424.89 -0.604284 -1.45555 0
M  V30 15001 C 1425.84 0.129013 -2.32242 0
M  V30 15002 C 1426.83 0.862933 -1.45773 0
M  V30 15003 O 1428.04 0.778874 -1.62276 0
M  V30 15004 H 1424.41 0.0604661 -0.749565 0
M  V30 15005 H 1426.38 -0.620603 -2.91875 0
M  V30 15006 C 1425.13 1.11516 -3.29332 0
M  V30 15007 H 1424.45 0.559849 -3.95861 0
M  V30 15008 H 1425.89 1.59824 -3.92724 0
M  V30 15009 C 1424.35 2.18706 -2.5626 0
M  V30 15010 O 1424.88 3.26397 -2.34154 0
M  V30 15011 N 1423.09 1.93899 -2.16452 0
M  V30 15012 H 1422.64 1.0633 -2.34631 0
M  V30 15013 H 1422.59 2.65824 -1.67884 0
M  V30 15014 N 1426.37 1.53816 -0.343257 0
M  V30 15015 C 1427.64 1.9315 0.308609 0
M  V30 15016 C 1428.02 1.27479 1.68263 0
M  V30 15017 O 1427.37 0.425614 2.24501 0
M  V30 15018 C 1427.58 3.46912 0.381176 0
M  V30 15019 C 1428.93 4.19868 0.632153 0
M  V30 15020 O 1429.95 3.53174 0.463303 0
M  V30 15021 O 1428.81 5.38016 0.959237 0
M  V30 15022 H 1425.91 0.807169 0.180022 0
M  V30 15023 H 1428.45 1.65053 -0.394412 0
M  V30 15024 H 1427.22 3.86932 -0.583058 0
M  V30 15025 H 1426.85 3.81175 1.13099 0
M  V30 15026 N 1427.84 0.0718701 1.57436 0
M  V30 15027 C 1429.26 -0.28476 1.57039 0
M  V30 15028 C 1429.46 -1.70032 1.08127 0
M  V30 15029 O 1428.52 -2.41191 0.747189 0
M  V30 15030 C 1429.83 -0.0943482 3.00552 0
M  V30 15031 C 1431.38 -0.163879 3.12571 0
M  V30 15032 C 1431.85 -0.00174658 4.58 0
M  V30 15033 N 1433.34 -0.0573489 4.63164 0
M  V30 15034 C 1434.08 0.0436849 5.73383 0
M  V30 15035 N 1433.57 0.198243 6.92516 0
M  V30 15036 N 1435.37 -0.0133856 5.62098 0
M  V30 15037 H 1427.52 0.99702 1.87545 0
M  V30 15038 H 1429.78 0.388822 0.864593 0
M  V30 15039 H 1429.49 0.882445 3.40449 0
M  V30 15040 H 1429.36 -0.846636 3.67576 0
M  V30 15041 H 1431.75 -1.13116 2.7256 0
M  V30 15042 H 1431.83 0.619513 2.48185 0
M  V30 15043 H 1431.47 0.9623 4.98701 0
M  V30 15044 H 1431.4 -0.804543 5.20418 0
M  V30 15045 H 1433.89 -0.175212 3.77494 0
M  V30 15046 H 1434.21 0.267479 7.72337 0
M  V30 15047 H 1432.55 0.233606 6.94607 0
M  V30 15048 H 1435.74 -0.132835 4.67911 0
M  V30 15049 H 1435.92 0.0688076 6.47963 0
M  V30 15050 N 1429.32 -1.56304 -0.201686 0
M  V30 15051 C 1430.55 -1.84692 -0.943583 0
M  V30 15052 C 1430.97 -0.654649 -1.7634 0
M  V30 15053 O 1430.33 0.396586 -1.76909 0
M  V30 15054 C 1430.38 -3.11251 -1.82085 0
M  V30 15055 O 1429.48 -2.9134 -2.91881 0
M  V30 15056 H 1428.82 -0.608351 -0.266092 0
M  V30 15057 H 1431.35 -2.0353 -0.208992 0
M  V30 15058 H 1431.36 -3.41874 -2.2268 0
M  V30 15059 H 1430.04 -3.97652 -1.21844 0
M  V30 15060 H 1428.62 -2.72 -2.55089 0
M  V30 15061 N 1430.8 0.469154 -1.50455 0
M  V30 15062 C 1432.05 1.22002 -1.62748 0
M  V30 15063 C 1432.4 1.89642 -0.324611 0
M  V30 15064 O 1431.69 1.79218 0.677597 0
M  V30 15065 C 1431.89 2.28673 -2.7467 0
M  V30 15066 C 1431.72 1.71498 -4.15714 0
M  V30 15067 C 1430.49 1.51386 -4.8209 0
M  V30 15068 C 1432.69 1.20886 -4.99891 0
M  V30 15069 N 1430.67 0.894745 -6.07345 0
M  V30 15070 C 1432.04 0.713084 -6.15886 0
M  V30 15071 C 1434.09 1.09759 -4.85652 0
M  V30 15072 C 1432.8 0.117016 -7.19205 0
M  V30 15073 C 1434.82 0.515452 -5.89149 0
M  V30 15074 C 1434.18 0.0300686 -7.04394 0
M  V30 15075 H 1430.28 0.435249 -0.649679 0
M  V30 15076 H 1432.87 0.521706 -1.8758 0
M  V30 15077 H 1431.04 2.95929 -2.51557 0
M  V30 15078 H 1432.77 2.95693 -2.76311 0
M  V30 15079 H 1429.53 1.76665 -4.39416 0
M  V30 15080 H 1429.95 0.603547 -6.74304 0
M  V30 15081 H 1434.59 1.45878 -3.96837 0
M  V30 15082 H 1432.31 -0.256378 -8.07693 0
M  V30 15083 H 1435.9 0.431698 -5.80196 0
M  V30 15084 H 1434.78 -0.413327 -7.8311 0
M  V30 15085 N 1432.28 1.40065 0.722464 0
M  V30 15086 C 1433.23 1.39784 1.83655 0
M  V30 15087 C 1434.2 0.255743 1.64119 0
M  V30 15088 O 1435.38 0.452766 1.8535 0
M  V30 15089 C 1432.52 1.25946 3.21297 0
M  V30 15090 C 1431.63 2.49805 3.52451 0
M  V30 15091 C 1430.77 2.2846 4.79562 0
M  V30 15092 C 1429.81 3.4793 5.03598 0
M  V30 15093 N 1428.94 3.25823 6.21919 0
M  V30 15094 H 1433.78 2.35013 1.83229 0
M  V30 15095 H 1431.32 1.16728 0.895154 0
M  V30 15096 H 1433.28 1.15931 4.00769 0
M  V30 15097 H 1431.91 0.343402 3.20968 0
M  V30 15098 H 1430.96 2.70375 2.67585 0
M  V30 15099 H 1432.27 3.38753 3.66126 0
M  V30 15100 H 1431.43 2.15758 5.67039 0
M  V30 15101 H 1430.17 1.36926 4.68084 0
M  V30 15102 H 1429.17 3.61116 4.14579 0
M  V30 15103 H 1430.4 4.40382 5.16953 0
M  V30 15104 H 1428.34 2.36965 6.11705 0
M  V30 15105 H 1428.26 4.08333 6.36239 0
M  V30 15106 H 1429.53 3.16841 7.12202 0
M  V30 15107 N 1433.76 -0.95397 1.25448 0
M  V30 15108 C 1435.17 -1.22516 1.02284 0
M  V30 15109 C 1435.37 -1.99816 -0.259933 0
M  V30 15110 O 1434.43 -2.33022 -0.972479 0
M  V30 15111 C 1435.74 -1.9989 2.24643 0
M  V30 15112 C 1437.29 -2.1293 2.29412 0
M  V30 15113 C 1437.77 -2.93703 3.51429 0
M  V30 15114 N 1439.26 -3.01281 3.51829 0
M  V30 15115 C 1439.99 -3.64174 4.42905 0
M  V30 15116 N 1439.49 -4.28673 5.44253 0
M  V30 15117 N 1441.28 -3.61321 4.30585 0
M  V30 15118 H 1433.43 -0.436859 2.07859 0
M  V30 15119 H 1435.69 -0.255744 0.912852 0
M  V30 15120 H 1435.4 -1.50489 3.17877 0
M  V30 15121 H 1435.27 -3.00593 2.27868 0
M  V30 15122 H 1437.66 -2.61528 1.367 0
M  V30 15123 H 1437.74 -1.1153 2.30206 0
M  V30 15124 H 1437.39 -2.45795 4.44463 0
M  V30 15125 H 1437.32 -3.95331 3.47881 0
M  V30 15126 H 1439.81 -2.55414 2.78517 0
M  V30 15127 H 1440.12 -4.74522 6.09958 0
M  V30 15128 H 1438.47 -4.27299 5.48125 0
M  V30 15129 H 1441.66 -3.10118 3.50634 0
M  V30 15130 H 1441.83 -4.1005 5.0176 0
M  V30 15131 N 1435.24 -1.07045 -1.15668 0
M  V30 15132 C 1436.18 -0.68226 -2.22369 0
M  V30 15133 C 1437.18 0.305448 -1.66623 0
M  V30 15134 O 1438.38 0.169495 -1.792 0
M  V30 15135 H 1434.76 -0.202536 -0.724212 0
M  V30 15136 H 1436.73 -1.59187 -2.52393 0
M  V30 15137 C 1435.48 -0.0928131 -3.47576 0
M  V30 15138 H 1434.8 -0.843964 -3.90791 0
M  V30 15139 H 1436.24 0.14118 -4.23765 0
M  V30 15140 C 1434.7 1.16567 -3.16091 0
M  V30 15141 O 1435.23 2.25257 -3.32599 0
M  V30 15142 N 1433.44 1.07061 -2.7016 0
M  V30 15143 H 1432.98 0.186091 -2.56927 0
M  V30 15144 H 1432.94 1.91346 -2.49468 0
M  V30 15145 N 1436.71 1.32449 -0.85411 0
M  V30 15146 C 1437.66 2.2889 -0.296341 0
M  V30 15147 C 1438.63 1.55024 0.596378 0
M  V30 15148 O 1439.82 1.8325 0.531406 0
M  V30 15149 C 1436.96 3.41315 0.509729 0
M  V30 15150 C 1436.07 4.30062 -0.40872 0
M  V30 15151 C 1435.2 5.29616 0.409928 0
M  V30 15152 C 1434.24 6.10005 -0.505953 0
M  V30 15153 N 1433.38 7.01559 0.275483 0
M  V30 15154 H 1438.22 2.75989 -1.12401 0
M  V30 15155 H 1435.76 1.35787 -0.565717 0
M  V30 15156 H 1437.71 4.05218 0.992697 0
M  V30 15157 H 1436.34 2.95367 1.30223 0
M  V30 15158 H 1435.4 3.66745 -1.01007 0
M  V30 15159 H 1436.71 4.86255 -1.11165 0
M  V30 15160 H 1435.86 5.99119 0.956083 0
M  V30 15161 H 1434.6 4.74039 1.14623 0
M  V30 15162 H 1433.61 5.39406 -1.064 0
M  V30 15163 H 1434.83 6.67667 -1.24086 0
M  V30 15164 H 1432.78 6.48412 0.994887 0
M  V30 15165 H 1432.69 7.55102 -0.368426 0
M  V30 15166 H 1433.96 7.75349 0.803382 0
M  V30 15167 N 1438.19 0.611994 1.45232 0
M  V30 15168 C 1439.44 0.108911 2.02207 0
M  V30 15169 C 1439.77 -1.26219 1.47983 0
M  V30 15170 O 1439.02 -1.84718 0.646368 0
M  V30 15171 C 1439.32 0.0243361 3.57392 0
M  V30 15172 C 1438.99 1.33168 4.30787 0
M  V30 15173 C 1437.65 1.68978 4.50555 0
M  V30 15174 C 1440 2.19549 4.72703 0
M  V30 15175 C 1437.33 2.90913 5.09496 0
M  V30 15176 C 1439.68 3.40737 5.32993 0
M  V30 15177 C 1438.34 3.76794 5.50983 0
M  V30 15178 H 1437.61 0.0398534 0.739927 0
M  V30 15179 H 1440.26 0.794492 1.74241 0
M  V30 15180 H 1438.57 -0.74453 3.84661 0
M  V30 15181 H 1440.26 -0.381139 3.99185 0
M  V30 15182 H 1436.85 1.04296 4.15717 0
M  V30 15183 H 1441.04 1.93181 4.57159 0
M  V30 15184 H 1436.29 3.1895 5.21614 0
M  V30 15185 H 1440.47 4.07919 5.64425 0
M  V30 15186 H 1438.09 4.71364 5.96423 0
M  V30 15187 N 1439.67 -1.53632 0.351409 0
M  V30 15188 C 1441.09 -1.596 -0.000214515 0
M  V30 15189 C 1441.29 -1.36709 -1.4803 0
M  V30 15190 O 1440.34 -1.16524 -2.24006 0
M  V30 15191 C 1441.65 -2.97419 0.443013 0
M  V30 15192 C 1443.2 -3.10485 0.396025 0
M  V30 15193 C 1443.68 -4.50693 0.814843 0
M  V30 15194 N 1445.17 -4.56766 0.76934 0
M  V30 15195 C 1445.9 -5.63418 1.06526 0
M  V30 15196 N 1445.4 -6.77887 1.42974 0
M  V30 15197 N 1447.19 -5.53331 0.988986 0
M  V30 15198 H 1439.34 -1.66765 1.31542 0
M  V30 15199 H 1441.61 -0.781418 0.53674 0
M  V30 15200 H 1441.31 -3.19262 1.47529 0
M  V30 15201 H 1441.19 -3.76781 -0.177725 0
M  V30 15202 H 1443.57 -2.8836 -0.627092 0
M  V30 15203 H 1443.65 -2.33163 1.05207 0
M  V30 15204 H 1443.3 -4.73554 1.83601 0
M  V30 15205 H 1443.23 -5.26424 0.136193 0
M  V30 15206 H 1445.72 -3.74569 0.500623 0
M  V30 15207 H 1446.03 -7.55194 1.64018 0
M  V30 15208 H 1444.38 -6.79314 1.46827 0
M  V30 15209 H 1447.57 -4.62783 0.703526 0
M  V30 15210 H 1447.74 -6.36355 1.22295 0
M  V30 15211 N 1441.15 -0.0802183 -1.57396 0
M  V30 15212 C 1442.08 0.881426 -2.16225 0
M  V30 15213 C 1443.06 1.30459 -1.09154 0
M  V30 15214 O 1444.24 1.37413 -1.37227 0
M  V30 15215 C 1441.37 2.14599 -2.73065 0
M  V30 15216 C 1440.33 1.86195 -3.85377 0
M  V30 15217 C 1439.65 3.19354 -4.28856 0
M  V30 15218 C 1440.95 1.16059 -5.09242 0
M  V30 15219 H 1442.65 0.391325 -2.96832 0
M  V30 15220 H 1440.19 0.186785 -1.42783 0
M  V30 15221 H 1442.15 2.82297 -3.12868 0
M  V30 15222 H 1440.87 2.65866 -1.89691 0
M  V30 15223 H 1439.53 1.209 -3.46091 0
M  V30 15224 H 1439.18 3.68479 -3.42392 0
M  V30 15225 H 1438.88 3.01137 -5.04569 0
M  V30 15226 H 1440.4 3.88235 -4.71281 0
M  V30 15227 H 1441.82 1.7384 -5.46308 0
M  V30 15228 H 1440.21 1.08072 -5.90288 0
M  V30 15229 H 1441.28 0.14098 -4.84695 0
M  V30 15230 N 1442.63 1.56409 0.193394 0
M  V30 15231 C 1443.85 1.84837 0.929676 0
M  V30 15232 C 1444.27 0.662928 1.76779 0
M  V30 15233 O 1443.63 -0.368339 1.78744 0
M  V30 15234 C 1443.68 3.12083 1.82445 0
M  V30 15235 O 1443.4 4.26056 1.02018 0
M  V30 15236 C 1444.9 3.53701 2.67227 0
M  V30 15237 H 1442.12 0.613766 0.271168 0
M  V30 15238 H 1444.66 2.03518 0.200134 0
M  V30 15239 H 1442.82 2.95294 2.5076 0
M  V30 15240 H 1443.23 4.98526 1.63008 0
M  V30 15241 H 1444.71 4.45699 3.25663 0
M  V30 15242 H 1445.18 2.76771 3.41019 0
M  V30 15243 H 1445.79 3.73027 2.04281 0
M  V30 15244 N 1444.1 -0.461169 1.50702 0
M  V30 15245 C 1445.35 -1.21251 1.62186 0
M  V30 15246 C 1445.68 -1.91735 0.326818 0
M  V30 15247 O 1444.93 -1.83212 -0.687879 0
M  V30 15248 C 1445.23 -2.27213 2.75879 0
M  V30 15249 C 1444.9 -1.73912 4.16011 0
M  V30 15250 C 1443.56 -1.59097 4.54138 0
M  V30 15251 C 1445.91 -1.34477 5.03553 0
M  V30 15252 C 1443.24 -1.03285 5.77537 0
M  V30 15253 C 1445.59 -0.801027 6.27508 0
M  V30 15254 C 1444.26 -0.639586 6.64429 0
M  V30 15255 H 1443.53 -0.443689 0.593482 0
M  V30 15256 H 1446.17 -0.507035 1.84666 0
M  V30 15257 H 1444.48 -3.03707 2.47526 0
M  V30 15258 H 1446.18 -2.85124 2.81967 0
M  V30 15259 H 1442.77 -1.86413 3.85938 0
M  V30 15260 H 1446.95 -1.44753 4.74721 0
M  V30 15261 H 1442.21 -0.895316 6.04809 0
M  V30 15262 H 1446.38 -0.486842 6.94696 0
M  V30 15263 H 1444.01 -0.204966 7.59924 0
M  V30 15264 N 1445.58 -1.40446 -0.715026 0
M  V30 15265 C 1446.83 -1.3896 -1.47709 0
M  V30 15266 C 1447.16 0.00798698 -1.94198 0
M  V30 15267 O 1446.44 0.976732 -1.68197 0
M  V30 15268 C 1446.72 -2.37955 -2.70277 0
M  V30 15269 C 1446.57 -3.8674 -2.29678 0
M  V30 15270 C 1447.89 -2.34478 -3.72435 0
M  V30 15271 H 1445.01 -0.50607 -0.535782 0
M  V30 15272 H 1447.65 -1.71585 -0.815999 0
M  V30 15273 H 1445.8 -2.10264 -3.26682 0
M  V30 15274 H 1447.47 -4.2526 -1.7875 0
M  V30 15275 H 1445.72 -4.02547 -1.61674 0
M  V30 15276 H 1446.39 -4.51524 -3.17538 0
M  V30 15277 H 1448.86 -2.59007 -3.2566 0
M  V30 15278 H 1447.74 -3.05791 -4.55832 0
M  V30 15279 H 1448 -1.35661 -4.20771 0
M  V30 15280 N 1447.06 0.947303 -1.25952 0
M  V30 15281 C 1448.02 2.02667 -1.07046 0
M  V30 15282 C 1449.02 1.60787 -0.0208127 0
M  V30 15283 O 1450.21 1.72193 -0.263668 0
M  V30 15284 C 1447.34 3.35087 -0.626885 0
M  V30 15285 H 1448.54 2.20871 -2.0287 0
M  V30 15286 H 1446.09 1.12541 -1.08462 0
M  V30 15287 H 1446.83 3.22579 0.333621 0
M  V30 15288 H 1446.61 3.66835 -1.38473 0
M  V30 15289 H 1448.1 4.14397 -0.516264 0
M  V30 15290 N 1448.54 1.07657 1.15099 0
M  V30 15291 C 1449.45 0.711198 2.2356 0
M  V30 15292 C 1450.46 -0.278932 1.7175 0
M  V30 15293 O 1451.64 -0.124788 2.01013 0
M  V30 15294 C 1448.71 0.117855 3.465 0
M  V30 15295 C 1447.77 1.16162 4.13286 0
M  V30 15296 C 1447 0.596494 5.30356 0
M  V30 15297 O 1447.22 -0.586474 5.67377 0
M  V30 15298 O 1446.16 1.34288 5.86729 0
M  V30 15299 H 1449.98 1.61578 2.5715 0
M  V30 15300 H 1447.57 0.84973 1.22882 0
M  V30 15301 H 1449.45 -0.210613 4.20873 0
M  V30 15302 H 1448.12 -0.760008 3.14652 0
M  V30 15303 H 1447.03 1.54249 3.4082 0
M  V30 15304 H 1448.36 2.01149 4.49221 0
M  V30 15305 N 1450.02 -1.31994 0.861122 0
M  V30 15306 C 1450.98 -2.27019 0.315421 0
M  V30 15307 C 1451.98 -1.51864 -0.528575 0
M  V30 15308 O 1453.17 -1.70867 -0.339154 0
M  V30 15309 C 1450.3 -3.36384 -0.553021 0
M  V30 15310 H 1451.49 -2.768 1.1542 0
M  V30 15311 H 1449.05 -1.42776 0.635982 0
M  V30 15312 H 1449.78 -2.91882 -1.41335 0
M  V30 15313 H 1449.57 -3.92067 0.0511919 0
M  V30 15314 H 1451.06 -4.07172 -0.927392 0
M  V30 15315 N 1451.49 -0.619688 -1.44906 0
M  V30 15316 C 1452.91 -0.203309 -1.8559 0
M  V30 15317 C 1453.26 1.24265 -1.51831 0
M  V30 15318 O 1452.38 1.94392 -0.950819 0
M  V30 15319 C 1452.98 -0.362204 -3.36858 0
M  V30 15320 C 1451.54 -0.000423575 -3.764 0
M  V30 15321 C 1450.68 -0.680979 -2.68808 0
M  V30 15322 H 1453.63 -0.825595 -1.35535 0
M  V30 15323 H 1453.65 0.402149 -3.78369 0
M  V30 15324 H 1453.17 -1.41468 -3.61398 0
M  V30 15325 H 1451.27 1.05077 -3.57477 0
M  V30 15326 H 1451.38 -0.402508 -4.77406 0
M  V30 15327 H 1449.74 -0.117407 -2.54429 0
M  V30 15328 H 1450.53 -1.73583 -2.96182 0
M  V30 15329 N 1452.97 1.53444 -0.359552 0
M  V30 15330 C 1453.88 2.29257 0.497834 0
M  V30 15331 C 1454.9 1.34987 1.09793 0
M  V30 15332 O 1456.07 1.68039 1.11017 0
M  V30 15333 C 1453.14 3.06258 1.62502 0
M  V30 15334 C 1452.2 4.16183 1.05308 0
M  V30 15335 C 1451.43 4.89503 2.12655 0
M  V30 15336 O 1451.66 4.6263 3.33661 0
M  V30 15337 O 1450.59 5.75578 1.76051 0
M  V30 15338 H 1454.42 3.03467 -0.118925 0
M  V30 15339 H 1452 1.48884 -0.124111 0
M  V30 15340 H 1453.88 3.5436 2.2805 0
M  V30 15341 H 1452.56 2.3489 2.22729 0
M  V30 15342 H 1451.47 3.72348 0.361679 0
M  V30 15343 H 1452.8 4.897 0.49545 0
M  V30 15344 N 1454.45 0.0885642 1.57351 0
M  V30 15345 C 1455.38 -0.869946 2.16689 0
M  V30 15346 C 1456.36 -1.29878 1.09844 0
M  V30 15347 O 1457.55 -1.36684 1.37954 0
M  V30 15348 C 1454.68 -2.13148 2.74199 0
M  V30 15349 C 1453.63 -1.84149 3.86359 0
M  V30 15350 C 1452.96 -3.17075 4.30543 0
M  V30 15351 C 1454.26 -1.13357 5.09851 0
M  V30 15352 H 1455.95 -0.375578 2.97035 0
M  V30 15353 H 1453.5 -0.17921 1.42881 0
M  V30 15354 H 1455.45 -2.80634 3.14361 0
M  V30 15355 H 1454.17 -2.64856 1.91098 0
M  V30 15356 H 1452.83 -1.19063 3.46727 0
M  V30 15357 H 1452.48 -3.66658 3.44342 0
M  V30 15358 H 1452.18 -2.98457 5.06159 0
M  V30 15359 H 1453.7 -3.85731 4.73333 0
M  V30 15360 H 1455.12 -1.70941 5.47222 0
M  V30 15361 H 1453.52 -1.0494 5.90853 0
M  V30 15362 H 1454.59 -0.115273 4.84763 0
M  V30 15363 N 1455.93 -1.56509 -0.185096 0
M  V30 15364 C 1457.16 -1.85327 -0.91986 0
M  V30 15365 C 1457.57 -0.672294 -1.76425 0
M  V30 15366 O 1456.93 0.358854 -1.78937 0
M  V30 15367 C 1456.98 -3.13047 -1.80787 0
M  V30 15368 O 1456.7 -4.26591 -0.997569 0
M  V30 15369 C 1458.2 -3.55114 -2.65347 0
M  V30 15370 H 1455.42 -0.615196 -0.267909 0
M  V30 15371 H 1457.97 -2.03622 -0.189338 0
M  V30 15372 H 1456.12 -2.96619 -2.4919 0
M  V30 15373 H 1456.53 -4.99384 -1.60362 0
M  V30 15374 H 1458.01 -4.47419 -3.23295 0
M  V30 15375 H 1458.49 -2.78576 -3.39547 0
M  V30 15376 H 1459.09 -3.74105 -2.023 0
M  V30 15377 N 1457.41 0.45317 -1.50944 0
M  V30 15378 C 1458.34 1.56678 -1.67287 0
M  V30 15379 C 1459.35 1.53089 -0.553853 0
M  V30 15380 O 1460.54 1.58152 -0.827653 0
M  V30 15381 C 1457.64 2.95585 -1.65779 0
M  V30 15382 C 1456.81 3.2385 -2.94007 0
M  V30 15383 C 1455.87 4.42401 -2.84899 0
M  V30 15384 O 1454.9 4.4183 -3.58853 0
M  V30 15385 N 1456.1 5.4508 -1.99671 0
M  V30 15386 H 1458.87 1.43069 -2.63347 0
M  V30 15387 H 1456.43 0.641875 -1.48632 0
M  V30 15388 H 1458.42 3.7289 -1.57275 0
M  V30 15389 H 1456.99 3.02872 -0.773791 0
M  V30 15390 H 1456.21 2.34991 -3.16501 0
M  V30 15391 H 1457.5 3.39554 -3.7892 0
M  V30 15392 H 1456.89 5.48374 -1.38933 0
M  V30 15393 H 1455.45 6.21298 -1.97057 0
M  V30 15394 N 1458.88 1.40823 0.707568 0
M  V30 15395 C 1460.13 1.39259 1.46463 0
M  V30 15396 C 1460.45 -0.00157854 1.95 0
M  V30 15397 O 1459.72 -0.957723 1.70893 0
M  V30 15398 H 1458.3 0.512558 0.543409 0
M  V30 15399 H 1460.97 1.75952 0.838269 0
M  V30 15400 H 1460.06 2.07243 2.3336 0
M  V30 15401 N 1460.36 -0.94061 1.26453 0
M  V30 15402 C 1461.29 -2.05667 1.10559 0
M  V30 15403 C 1462.27 -1.70097 0.0106258 0
M  V30 15404 O 1463.46 -1.93338 0.182756 0
M  V30 15405 C 1460.59 -3.3936 0.7384 0
M  V30 15406 C 1459.54 -3.88993 1.78517 0
M  V30 15407 C 1458.87 -5.19343 1.27228 0
M  V30 15408 C 1460.17 -4.13812 3.1868 0
M  V30 15409 H 1461.86 -2.19221 2.03918 0
M  V30 15410 H 1459.41 -1.05339 0.98182 0
M  V30 15411 H 1461.36 -4.16902 0.61409 0
M  V30 15412 H 1460.09 -3.25783 -0.230887 0
M  V30 15413 H 1458.74 -3.13633 1.89816 0
M  V30 15414 H 1458.39 -5.02147 0.292816 0
M  V30 15415 H 1458.09 -5.53521 1.97201 0
M  V30 15416 H 1459.62 -5.99468 1.16065 0
M  V30 15417 H 1461.03 -4.81966 3.10455 0
M  V30 15418 H 1459.43 -4.59273 3.86249 0
M  V30 15419 H 1460.5 -3.19571 3.64695 0
M  V30 15420 N 1461.84 -1.08266 -1.14527 0
M  V30 15421 C 1463.07 -0.832994 -1.89937 0
M  V30 15422 C 1463.49 0.608985 -1.77969 0
M  V30 15423 O 1462.85 1.42657 -1.11887 0
M  V30 15424 C 1462.9 -1.25782 -3.37952 0
M  V30 15425 O 1462 -0.408853 -4.10368 0
M  V30 15426 H 1461.34 -0.30267 -0.591005 0
M  V30 15427 H 1463.87 -1.44371 -1.44977 0
M  V30 15428 H 1463.88 -1.23804 -3.88763 0
M  V30 15429 H 1462.56 -2.30804 -3.4598 0
M  V30 15430 H 1461.13 -0.49192 -3.69641 0
M  V30 15431 N 1463.32 1.31536 -0.86811 0
M  V30 15432 C 1464.27 2.30504 -0.311581 0
M  V30 15433 C 1465.26 1.59439 0.572332 0
M  V30 15434 O 1466.47 1.74059 0.458639 0
M  V30 15435 H 1462.84 0.747508 -0.0820745 0
M  V30 15436 H 1464.81 2.74919 -1.16026 0
M  V30 15437 C 1463.56 3.44459 0.473622 0
M  V30 15438 H 1462.89 3.99313 -0.197259 0
M  V30 15439 H 1464.33 4.15829 0.828393 0
M  V30 15440 C 1462.78 2.92929 1.66416 0
M  V30 15441 O 1463.31 2.91543 2.76344 0
M  V30 15442 N 1461.52 2.49154 1.49568 0
M  V30 15443 H 1461.07 2.50481 0.601408 0
M  V30 15444 H 1461.03 2.15032 2.29366 0
M  V30 15445 N 1464.8 0.627364 1.44575 0
M  V30 15446 C 1466.04 0.130545 2.02379 0
M  V30 15447 C 1466.38 -1.24301 1.49208 0
M  V30 15448 O 1465.65 -1.82425 0.674626 0
M  V30 15449 C 1465.93 0.11311 3.59922 0
M  V30 15450 C 1465.79 1.51874 4.23385 0
M  V30 15451 C 1467.11 -0.564341 4.36467 0
M  V30 15452 H 1464.23 0.0489125 0.735375 0
M  V30 15453 H 1466.87 0.803118 1.72192 0
M  V30 15454 H 1465.02 -0.459621 3.85772 0
M  V30 15455 H 1466.69 2.14007 4.08655 0
M  V30 15456 H 1464.93 2.07371 3.81024 0
M  V30 15457 H 1465.6 1.4586 5.3238 0
M  V30 15458 H 1468.08 -0.0773244 4.16028 0
M  V30 15459 H 1466.96 -0.545715 5.46181 0
M  V30 15460 H 1467.22 -1.63403 4.10794 0
M  V30 15461 N 1466.28 -1.53251 0.367684 0
M  V30 15462 C 1467.23 -2.22578 -0.494287 0
M  V30 15463 C 1468.21 -1.22175 -1.047 0
M  V30 15464 O 1469.4 -1.47613 -0.976696 0
M  V30 15465 C 1466.53 -3.02007 -1.63238 0
M  V30 15466 C 1465.62 -4.09788 -1.09244 0
M  V30 15467 N 1466.01 -5.05048 -0.275665 0
M  V30 15468 C 1464.31 -4.24532 -1.36705 0
M  V30 15469 C 1465.01 -5.81696 0.0201973 0
M  V30 15470 N 1463.98 -5.40518 -0.577991 0
M  V30 15471 H 1467.78 -2.93583 0.136532 0
M  V30 15472 H 1465.3 -1.61446 0.175813 0
M  V30 15473 H 1467.3 -3.50193 -2.26209 0
M  V30 15474 H 1465.96 -2.32533 -2.26624 0
M  V30 15475 H 1466.97 -5.1783 0.0853053 0
M  V30 15476 H 1463.64 -3.66285 -2.00354 0
M  V30 15477 H 1465.03 -6.68444 0.680622 0
M  V30 15478 N 1467.75 -0.0969077 -1.57302 0
M  V30 15479 C 1468.7 0.861379 -2.14124 0
M  V30 15480 C 1469.67 1.27858 -1.06026 0
M  V30 15481 O 1470.86 1.36001 -1.33822 0
M  V30 15482 C 1468 2.11443 -2.72738 0
M  V30 15483 C 1467.11 1.7476 -3.95074 0
M  V30 15484 C 1466.24 2.94864 -4.41847 0
M  V30 15485 C 1465.28 2.54316 -5.56767 0
M  V30 15486 N 1464.42 3.67261 -5.98384 0
M  V30 15487 H 1469.26 0.369968 -2.95694 0
M  V30 15488 H 1466.8 0.170943 -1.46103 0
M  V30 15489 H 1468.75 2.84829 -3.04842 0
M  V30 15490 H 1467.38 2.5808 -1.93893 0
M  V30 15491 H 1466.44 0.91335 -3.69272 0
M  V30 15492 H 1467.75 1.40946 -4.78472 0
M  V30 15493 H 1466.9 3.76501 -4.75744 0
M  V30 15494 H 1465.64 3.31889 -3.57352 0
M  V30 15495 H 1464.65 1.71106 -5.22497 0
M  V30 15496 H 1465.87 2.18432 -6.43012 0
M  V30 15497 H 1463.82 4.04001 -5.16836 0
M  V30 15498 H 1463.73 3.37298 -6.76584 0
M  V30 15499 H 1465 4.49403 -6.36912 0
M  V30 15500 N 1469.23 1.56605 0.176793 0
M  V30 15501 C 1470.18 1.95985 1.21896 0
M  V30 15502 C 1471.15 0.822983 1.44278 0
M  V30 15503 O 1472.33 1.08266 1.57109 0
M  V30 15504 C 1469.47 2.32029 2.55454 0
M  V30 15505 C 1468.59 3.58867 2.40497 0
M  V30 15506 C 1467.72 3.84148 3.66884 0
M  V30 15507 C 1466.76 5.04352 3.46837 0
M  V30 15508 N 1465.9 5.25794 4.6528 0
M  V30 15509 H 1470.74 2.84829 0.876137 0
M  V30 15510 H 1468.27 1.4094 0.421221 0
M  V30 15511 H 1470.23 2.50947 3.33289 0
M  V30 15512 H 1468.86 1.46301 2.87743 0
M  V30 15513 H 1467.91 3.47893 1.53866 0
M  V30 15514 H 1469.23 4.46859 2.21627 0
M  V30 15515 H 1468.38 4.03404 4.53155 0
M  V30 15516 H 1467.12 2.9452 3.88727 0
M  V30 15517 H 1466.12 4.84999 2.58952 0
M  V30 15518 H 1467.35 5.95505 3.26421 0
M  V30 15519 H 1465.3 4.39117 4.87352 0
M  V30 15520 H 1465.21 6.07999 4.49303 0
M  V30 15521 H 1466.48 5.49524 5.5285 0
M  V30 15522 N 1470.71 -0.445159 1.51182 0
M  V30 15523 C 1472.13 -0.781023 1.39184 0
M  V30 15524 C 1472.33 -1.95988 0.468076 0
M  V30 15525 O 1471.38 -2.52374 -0.0796822 0
M  V30 15526 C 1472.69 -1.06874 2.81067 0
M  V30 15527 C 1474.24 -1.17364 2.90163 0
M  V30 15528 C 1474.72 -1.49433 4.32936 0
M  V30 15529 N 1476.21 -1.56373 4.36006 0
M  V30 15530 C 1476.94 -1.82743 5.435 0
M  V30 15531 N 1476.44 -2.06958 6.61166 0
M  V30 15532 N 1478.23 -1.84461 5.30971 0
M  V30 15533 H 1470.38 0.331347 2.098 0
M  V30 15534 H 1472.65 0.0858102 0.944108 0
M  V30 15535 H 1472.35 -0.275306 3.50621 0
M  V30 15536 H 1472.23 -1.99839 3.19913 0
M  V30 15537 H 1474.61 -1.95771 2.20812 0
M  V30 15538 H 1474.69 -0.22318 2.54825 0
M  V30 15539 H 1474.34 -0.715573 5.02834 0
M  V30 15540 H 1474.27 -2.45673 4.65782 0
M  V30 15541 H 1476.76 -1.39595 3.51172 0
M  V30 15542 H 1477.07 -2.26427 7.38885 0
M  V30 15543 H 1475.42 -2.04297 6.64295 0
M  V30 15544 H 1478.61 -1.65057 4.38034 0
M  V30 15545 H 1478.78 -2.04675 6.14827 0
M  V30 15546 N 1472.19 -1.41197 -0.700089 0
M  V30 15547 C 1473.43 -1.40519 -1.46227 0
M  V30 15548 C 1473.77 -0.0126108 -1.94196 0
M  V30 15549 O 1473.04 0.958837 -1.69223 0
M  V30 15550 C 1473.32 -2.40808 -2.67738 0
M  V30 15551 C 1473.18 -3.89154 -2.25563 0
M  V30 15552 C 1474.5 -2.38415 -3.69927 0
M  V30 15553 H 1471.62 -0.511724 -0.530384 0
M  V30 15554 H 1474.26 -1.72441 -0.797754 0
M  V30 15555 H 1472.41 -2.13717 -3.24434 0
M  V30 15556 H 1474.08 -4.27132 -1.74229 0
M  V30 15557 H 1472.32 -4.04239 -1.57395 0
M  V30 15558 H 1472.99 -4.54866 -3.12731 0
M  V30 15559 H 1475.47 -2.62447 -3.22895 0
M  V30 15560 H 1474.35 -3.10609 -4.52563 0
M  V30 15561 H 1474.61 -1.40116 -4.19309 0
M  V30 15562 N 1473.67 0.933891 -1.2695 0
M  V30 15563 C 1474.89 1.72042 -1.15828 0
M  V30 15564 C 1475.32 1.85975 0.28193 0
M  V30 15565 O 1474.67 1.35528 1.20423 0
M  V30 15566 C 1474.72 3.10112 -1.84019 0
M  V30 15567 O 1473.83 3.96504 -1.13394 0
M  V30 15568 H 1473.17 0.527573 -0.40319 0
M  V30 15569 H 1475.7 1.16914 -1.67905 0
M  V30 15570 H 1475.71 3.60461 -1.91133 0
M  V30 15571 H 1474.38 2.99287 -2.8879 0
M  V30 15572 H 1472.96 3.54948 -1.14307 0
M  V30 15573 N 1475.14 1.08871 1.13951 0
M  V30 15574 C 1476.11 0.726655 2.17376 0
M  V30 15575 C 1477.11 -0.240922 1.58985 0
M  V30 15576 O 1478.3 -0.0198472 1.74189 0
M  V30 15577 C 1475.43 0.0736505 3.4082 0
M  V30 15578 H 1476.62 1.64254 2.5092 0
M  V30 15579 H 1474.17 0.887183 1.28681 0
M  V30 15580 H 1474.91 -0.853733 3.12861 0
M  V30 15581 H 1474.69 0.769782 3.84469 0
M  V30 15582 H 1476.18 -0.164465 4.17276 0
M  V30 15583 N 1476.62 -1.31073 0.875073 0
M  V30 15584 C 1477.58 -2.26672 0.339481 0
M  V30 15585 C 1478.58 -1.52416 -0.512439 0
M  V30 15586 O 1479.77 -1.71217 -0.321012 0
M  V30 15587 C 1476.91 -3.36952 -0.517311 0
M  V30 15588 H 1478.1 -2.7556 1.18349 0
M  V30 15589 H 1475.65 -1.42093 0.65109 0
M  V30 15590 H 1476.39 -2.93364 -1.38231 0
M  V30 15591 H 1476.17 -3.9199 0.092773 0
M  V30 15592 H 1477.66 -4.08133 -0.884154 0
M  V30 15593 N 1478.1 -0.635022 -1.4424 0
M  V30 15594 C 1479.52 -0.300978 -1.56736 0
M  V30 15595 C 1479.72 1.19571 -1.62188 0
M  V30 15596 O 1478.77 1.97991 -1.56703 0
M  V30 15597 C 1480.09 -0.996327 -2.83714 0
M  V30 15598 C 1481.63 -0.97484 -2.97432 0
M  V30 15599 C 1482.11 -1.65073 -4.27218 0
M  V30 15600 N 1483.6 -1.6175 -4.3404 0
M  V30 15601 C 1484.33 -2.10938 -5.33191 0
M  V30 15602 N 1483.83 -2.68333 -6.38725 0
M  V30 15603 N 1485.62 -2.01544 -5.24725 0
M  V30 15604 H 1477.77 -1.60649 -1.38945 0
M  V30 15605 H 1480.04 -0.674561 -0.666087 0
M  V30 15606 H 1479.74 -2.05128 -2.85684 0
M  V30 15607 H 1479.62 -0.536511 -3.73365 0
M  V30 15608 H 1482 0.071646 -2.95013 0
M  V30 15609 H 1482.09 -1.47318 -2.0912 0
M  V30 15610 H 1481.73 -2.69669 -4.30397 0
M  V30 15611 H 1481.66 -1.12719 -5.14395 0
M  V30 15612 H 1484.15 -1.1985 -3.58392 0
M  V30 15613 H 1484.46 -3.03588 -7.10672 0
M  V30 15614 H 1482.81 -2.72385 -6.39399 0
M  V30 15615 H 1486 -1.56423 -4.41191 0
M  V30 15616 H 1486.17 -2.40187 -6.01842 0
M  V30 15617 N 1479.58 1.53054 -0.375806 0
M  V30 15618 C 1480.51 2.28973 0.45754 0
M  V30 15619 C 1481.49 1.31812 1.07516 0
M  V30 15620 O 1482.67 1.60693 1.09048 0
M  V30 15621 C 1479.8 3.08657 1.59212 0
M  V30 15622 C 1478.76 4.1359 1.10123 0
M  V30 15623 C 1478.08 4.81417 2.32684 0
M  V30 15624 C 1479.38 5.21994 0.17872 0
M  V30 15625 H 1481.08 2.98883 -0.175872 0
M  V30 15626 H 1478.62 1.43743 -0.0860253 0
M  V30 15627 H 1480.58 3.6052 2.18182 0
M  V30 15628 H 1479.3 2.36456 2.25291 0
M  V30 15629 H 1477.96 3.62688 0.534151 0
M  V30 15630 H 1477.61 4.05778 2.97243 0
M  V30 15631 H 1477.31 5.52332 2.00506 0
M  V30 15632 H 1478.83 5.36079 2.92322 0
M  V30 15633 H 1480.25 5.69298 0.676204 0
M  V30 15634 H 1478.64 6.00077 -0.0526605 0
M  V30 15635 H 1479.71 4.78646 -0.776246 0
M  V30 15636 N 1481.06 0.105248 1.57248 0
M  V30 15637 C 1481.99 -0.846915 2.176 0
M  V30 15638 C 1482.97 -1.28706 1.11216 0
M  V30 15639 O 1484.15 -1.35213 1.39396 0
M  V30 15640 C 1481.28 -2.10228 2.76445 0
M  V30 15641 C 1480.24 -1.80041 3.8829 0
M  V30 15642 C 1479.56 -3.12491 4.33882 0
M  V30 15643 C 1480.86 -1.07943 5.11024 0
M  V30 15644 H 1482.56 -0.344052 2.97417 0
M  V30 15645 H 1480.1 -0.164045 1.43063 0
M  V30 15646 H 1482.06 -2.77284 3.17319 0
M  V30 15647 H 1480.78 -2.62815 1.93897 0
M  V30 15648 H 1479.44 -1.15379 3.4797 0
M  V30 15649 H 1479.09 -3.62985 3.48211 0
M  V30 15650 H 1478.79 -2.93072 5.09296 0
M  V30 15651 H 1480.31 -3.80688 4.77398 0
M  V30 15652 H 1481.72 -1.65127 5.49004 0
M  V30 15653 H 1480.12 -0.986674 5.91933 0
M  V30 15654 H 1481.19 -0.0638511 4.84858 0
M  V30 15655 N 1482.53 -1.56697 -0.168486 0
M  V30 15656 C 1483.76 -1.86652 -0.904195 0
M  V30 15657 C 1484.18 -0.691906 -1.74912 0
M  V30 15658 O 1483.54 0.358971 -1.77711 0
M  V30 15659 C 1483.59 -3.15043 -1.75442 0
M  V30 15660 O 1482.69 -2.97466 -2.85636 0
M  V30 15661 H 1482.04 -0.613859 -0.253128 0
M  V30 15662 H 1484.57 -2.03927 -0.165773 0
M  V30 15663 H 1484.58 -3.4652 -2.15378 0
M  V30 15664 H 1483.25 -4.00147 -1.13381 0
M  V30 15665 H 1481.83 -2.7735 -2.49262 0
M  V30 15666 N 1484.01 0.437135 -1.51416 0
M  V30 15667 C 1485.43 0.773631 -1.39596 0
M  V30 15668 C 1485.63 1.95737 -0.478463 0
M  V30 15669 O 1484.68 2.52413 0.0662971 0
M  V30 15670 C 1486 1.05381 -2.8163 0
M  V30 15671 C 1487.55 1.15824 -2.90782 0
M  V30 15672 C 1488.02 1.47135 -4.33722 0
M  V30 15673 N 1489.51 1.54059 -4.3683 0
M  V30 15674 C 1490.25 1.79858 -5.44462 0
M  V30 15675 N 1489.74 2.03449 -6.62254 0
M  V30 15676 N 1491.54 1.81642 -5.31942 0
M  V30 15677 H 1483.69 -0.342468 -2.09621 0
M  V30 15678 H 1485.95 -0.0908158 -0.94364 0
M  V30 15679 H 1485.66 0.256708 -3.50762 0
M  V30 15680 H 1485.53 1.98139 -3.20968 0
M  V30 15681 H 1487.92 1.94597 -2.21847 0
M  V30 15682 H 1488 0.209663 -2.54939 0
M  V30 15683 H 1487.64 0.688897 -5.03206 0
M  V30 15684 H 1487.57 2.43199 -4.67078 0
M  V30 15685 H 1490.06 1.3773 -3.51907 0
M  V30 15686 H 1490.38 2.22506 -7.40075 0
M  V30 15687 H 1488.72 2.00771 -6.65369 0
M  V30 15688 H 1491.91 1.62731 -4.38903 0
M  V30 15689 H 1492.08 2.01411 -6.15904 0
M  V30 15690 N 1485.49 1.41566 0.692592 0
M  V30 15691 C 1486.42 1.39582 1.81795 0
M  V30 15692 C 1487.44 0.29754 1.60058 0
M  V30 15693 O 1488.62 0.559463 1.69506 0
M  V30 15694 C 1485.72 1.15506 3.18609 0
M  V30 15695 C 1484.9 2.37432 3.67349 0
M  V30 15696 C 1483.96 2.09168 4.82841 0
M  V30 15697 O 1482.98 2.8223 4.94303 0
M  V30 15698 N 1484.18 1.08377 5.70294 0
M  V30 15699 H 1486.95 2.36577 1.83988 0
M  V30 15700 H 1484.51 1.36216 0.875026 0
M  V30 15701 H 1486.5 0.945452 3.93501 0
M  V30 15702 H 1485.07 0.270987 3.11423 0
M  V30 15703 H 1484.29 2.74076 2.8333 0
M  V30 15704 H 1485.58 3.18661 3.96652 0
M  V30 15705 H 1484.98 0.479122 5.63667 0
M  V30 15706 H 1483.54 0.934042 6.45073 0
M  V30 15707 N 1486.97 -0.927146 1.27443 0
M  V30 15708 C 1487.92 -2.04917 1.10053 0
M  V30 15709 C 1488.91 -1.69384 0.0234668 0
M  V30 15710 O 1490.12 -1.79085 0.181228 0
M  V30 15711 H 1486.49 -0.671189 0.33913 0
M  V30 15712 H 1488.46 -2.16732 2.05109 0
M  V30 15713 C 1487.21 -3.39178 0.765072 0
M  V30 15714 H 1486.53 -3.67006 1.58577 0
M  V30 15715 H 1487.97 -4.18458 0.683266 0
M  V30 15716 C 1486.43 -3.32696 -0.530578 0
M  V30 15717 O 1486.96 -3.69967 -1.56484 0
M  V30 15718 N 1485.17 -2.85793 -0.526396 0
M  V30 15719 H 1484.72 -2.55658 0.315675 0
M  V30 15720 H 1484.67 -2.81838 -1.39337 0
M  V30 15721 N 1488.45 -1.09474 -1.13372 0
M  V30 15722 C 1489.38 -0.756441 -2.20908 0
M  V30 15723 C 1490.36 0.266113 -1.68006 0
M  V30 15724 O 1491.54 0.134067 -1.93737 0
M  V30 15725 C 1488.67 -0.176733 -3.4685 0
M  V30 15726 C 1487.63 -1.12886 -4.12845 0
M  V30 15727 C 1486.95 -0.410831 -5.33119 0
M  V30 15728 C 1488.25 -2.47148 -4.60125 0
M  V30 15729 H 1489.95 -1.65555 -2.49463 0
M  V30 15730 H 1487.49 -0.797458 -1.19902 0
M  V30 15731 H 1489.45 0.0720151 -4.21338 0
M  V30 15732 H 1488.17 0.757576 -3.17692 0
M  V30 15733 H 1486.83 -1.36289 -3.40325 0
M  V30 15734 H 1486.48 0.527632 -5.00225 0
M  V30 15735 H 1486.18 -1.04567 -5.78221 0
M  V30 15736 H 1487.7 -0.170394 -6.10362 0
M  V30 15737 H 1489.11 -2.27949 -5.26034 0
M  V30 15738 H 1487.51 -3.06425 -5.15969 0
M  V30 15739 H 1488.58 -3.07874 -3.74622 0
M  V30 15740 N 1489.92 1.30607 -0.882012 0
M  V30 15741 C 1490.86 2.27177 -0.303861 0
M  V30 15742 C 1491.87 1.53587 0.539898 0
M  V30 15743 O 1493.06 1.74833 0.359931 0
M  V30 15744 C 1490.16 3.33781 0.586828 0
M  V30 15745 C 1489.33 4.3681 -0.227197 0
M  V30 15746 C 1488.39 5.22842 0.593519 0
M  V30 15747 O 1487.42 5.69197 0.0172694 0
M  V30 15748 N 1488.62 5.48414 1.90321 0
M  V30 15749 H 1491.38 2.77426 -1.13378 0
M  V30 15750 H 1488.94 1.43756 -0.744698 0
M  V30 15751 H 1490.94 3.88257 1.14186 0
M  V30 15752 H 1489.51 2.83483 1.31743 0
M  V30 15753 H 1488.73 3.82239 -0.963674 0
M  V30 15754 H 1490.01 5.02703 -0.785315 0
M  V30 15755 H 1489.41 5.1253 2.39435 0
M  V30 15756 H 1487.97 6.05778 2.40575 0
M  V30 15757 N 1491.4 0.642663 1.43901 0
M  V30 15758 C 1492.63 0.157518 2.06801 0
M  V30 15759 C 1493.05 -1.16361 1.47789 0
M  V30 15760 O 1492.41 -1.71645 0.583747 0
M  V30 15761 C 1492.46 0.0685904 3.60535 0
M  V30 15762 O 1491.56 -0.972183 4.00777 0
M  V30 15763 H 1490.9 0.0900406 0.657867 0
M  V30 15764 H 1493.43 0.882604 1.84584 0
M  V30 15765 H 1493.44 -0.118212 4.07829 0
M  V30 15766 H 1492.12 1.03307 4.02865 0
M  V30 15767 H 1490.7 -0.75902 3.65094 0
M  V30 15768 N 1492.88 -1.52852 0.383918 0
M  V30 15769 C 1494.29 -1.86477 -0.0912997 0
M  V30 15770 C 1494.64 -1.30382 -1.46611 0
M  V30 15771 O 1493.77 -0.633042 -2.06934 0
M  V30 15772 C 1494.36 -3.38361 -0.172447 0
M  V30 15773 C 1492.92 -3.71716 -0.591948 0
M  V30 15774 C 1492.07 -2.76176 0.24945 0
M  V30 15775 H 1495.02 -1.46839 0.602006 0
M  V30 15776 H 1495.04 -3.67325 -0.992603 0
M  V30 15777 H 1494.55 -3.79158 0.8283 0
M  V30 15778 H 1492.65 -3.36486 -1.60026 0
M  V30 15779 H 1492.77 -4.77792 -0.353835 0
M  V30 15780 H 1491.13 -2.53106 -0.284469 0
M  V30 15781 H 1491.91 -3.19809 1.24808 0
M  V30 15782 N 1494.36 -0.113586 -1.5719 0
M  V30 15783 C 1495.31 0.83862 -2.15025 0
M  V30 15784 C 1496.28 1.26726 -1.07376 0
M  V30 15785 O 1497.46 1.34574 -1.35257 0
M  V30 15786 C 1494.6 2.08538 -2.74965 0
M  V30 15787 C 1493.71 1.70559 -3.96905 0
M  V30 15788 C 1492.85 2.90161 -4.44949 0
M  V30 15789 C 1491.89 2.48396 -5.59433 0
M  V30 15790 N 1491.03 3.60894 -6.02246 0
M  V30 15791 H 1495.87 0.338585 -2.9607 0
M  V30 15792 H 1493.4 0.155437 -1.46276 0
M  V30 15793 H 1495.36 2.81579 -3.07846 0
M  V30 15794 H 1493.99 2.56009 -1.96619 0
M  V30 15795 H 1493.04 0.874133 -3.7022 0
M  V30 15796 H 1494.35 1.35863 -4.7994 0
M  V30 15797 H 1493.51 3.71434 -4.7971 0
M  V30 15798 H 1492.25 3.28081 -3.60852 0
M  V30 15799 H 1491.25 1.65555 -5.24282 0
M  V30 15800 H 1492.48 2.116 -6.45292 0
M  V30 15801 H 1490.42 3.98497 -5.21091 0
M  V30 15802 H 1490.34 3.30103 -6.80124 0
M  V30 15803 H 1491.61 4.42622 -6.41643 0
M  V30 15804 N 1495.84 1.56784 0.160173 0
M  V30 15805 C 1497.06 1.87129 0.894283 0
M  V30 15806 C 1497.49 0.701172 1.74543 0
M  V30 15807 O 1496.85 -0.349542 1.77899 0
M  V30 15808 C 1496.89 3.15969 1.73769 0
M  V30 15809 O 1496 2.98977 2.84054 0
M  V30 15810 H 1495.34 0.615192 0.249869 0
M  V30 15811 H 1497.87 2.04012 0.154956 0
M  V30 15812 H 1497.88 3.47657 2.13538 0
M  V30 15813 H 1496.55 4.00742 1.11258 0
M  V30 15814 H 1495.13 2.78668 2.47788 0
M  V30 15815 N 1497.32 -0.429099 1.51646 0
M  V30 15816 C 1498.54 -1.20465 1.68828 0
M  V30 15817 C 1498.97 -1.84044 0.388514 0
M  V30 15818 O 1498.32 -1.69165 -0.652152 0
M  V30 15819 C 1498.37 -2.25831 2.81128 0
M  V30 15820 O 1497.48 -3.31511 2.45305 0
M  V30 15821 H 1496.82 -0.352568 0.562665 0
M  V30 15822 H 1499.35 -0.505698 1.98252 0
M  V30 15823 H 1499.36 -2.70484 3.05455 0
M  V30 15824 H 1498.03 -1.78934 3.7544 0
M  V30 15825 H 1496.61 -2.92277 2.31579 0
M  V30 15826 N 1498.79 -1.41931 -0.685074 0
M  V30 15827 C 1500.21 -1.24631 -0.996957 0
M  V30 15828 C 1500.41 -0.143146 -2.00991 0
M  V30 15829 O 1499.47 0.489012 -2.47719 0
M  V30 15830 C 1500.78 -2.59947 -1.51156 0
M  V30 15831 C 1502.33 -2.67216 -1.62986 0
M  V30 15832 C 1502.8 -4.02874 -2.17845 0
M  V30 15833 N 1504.29 -4.04775 -2.25192 0
M  V30 15834 C 1505.03 -5.0655 -2.68691 0
M  V30 15835 N 1504.52 -6.18712 -3.11717 0
M  V30 15836 N 1506.32 -4.93909 -2.68348 0
M  V30 15837 H 1498.47 -2.12395 -0.0142223 0
M  V30 15838 H 1500.73 -0.945496 -0.0688552 0
M  V30 15839 H 1500.44 -3.41477 -0.841793 0
M  V30 15840 H 1500.31 -2.83159 -2.49201 0
M  V30 15841 H 1502.7 -1.86038 -2.29071 0
M  V30 15842 H 1502.78 -2.47804 -0.634584 0
M  V30 15843 H 1502.42 -4.84505 -1.52372 0
M  V30 15844 H 1502.35 -4.19633 -3.18144 0
M  V30 15845 H 1504.84 -3.23798 -1.94841 0
M  V30 15846 H 1505.16 -6.9223 -3.43565 0
M  V30 15847 H 1503.5 -6.22232 -3.096 0
M  V30 15848 H 1506.69 -4.05364 -2.34089 0
M  V30 15849 H 1506.87 -5.73361 -3.01929 0
M  V30 15850 N 1500.27 0.920374 -1.27933 0
M  V30 15851 C 1501.5 1.70804 -1.17647 0
M  V30 15852 C 1501.92 1.86264 0.262189 0
M  V30 15853 O 1501.28 1.36798 1.18979 0
M  V30 15854 C 1501.33 3.08142 -1.87298 0
M  V30 15855 O 1500.43 3.95279 -1.17593 0
M  V30 15856 H 1499.77 0.523267 -0.408763 0
M  V30 15857 H 1502.3 1.15127 -1.69136 0
M  V30 15858 H 1502.31 3.58414 -1.94945 0
M  V30 15859 H 1500.99 2.96208 -2.91948 0
M  V30 15860 H 1499.56 3.53716 -1.18065 0
M  V30 15861 N 1501.75 1.10074 1.1279 0
M  V30 15862 C 1502.98 0.862906 1.88047 0
M  V30 15863 C 1503.39 -0.586346 1.79464 0
M  V30 15864 O 1502.75 -1.40402 1.16591 0
M  V30 15865 C 1502.8 1.29784 3.37399 0
M  V30 15866 O 1502.52 2.69026 3.4577 0
M  V30 15867 C 1504.02 1.09336 4.29605 0
M  V30 15868 H 1501.24 0.309981 0.595108 0
M  V30 15869 H 1503.79 1.46444 1.42738 0
M  V30 15870 H 1501.94 0.740056 3.80266 0
M  V30 15871 H 1502.36 2.87532 4.38663 0
M  V30 15872 H 1503.83 1.44687 5.327 0
M  V30 15873 H 1504.31 0.031679 4.39189 0
M  V30 15874 H 1504.91 1.63743 3.92516 0
M  V30 15875 N 1503.23 -1.30138 0.888926 0
M  V30 15876 C 1504.48 -1.95265 0.5054 0
M  V30 15877 C 1504.79 -1.70925 -0.950998 0
M  V30 15878 O 1506 -2.30069 -1.44155 0
M  V30 15879 C 1504.45 -3.49647 0.852937 0
M  V30 15880 C 1504.06 -3.82802 2.32737 0
M  V30 15881 C 1505.8 -4.21067 0.538801 0
M  V30 15882 C 1503.71 -5.30379 2.61633 0
M  V30 15883 H 1502.64 -0.730882 0.185278 0
M  V30 15884 H 1505.29 -1.48027 1.08444 0
M  V30 15885 H 1503.67 -3.9548 0.202937 0
M  V30 15886 H 1504.85 -3.47866 3.02202 0
M  V30 15887 H 1503.16 -3.24495 2.60944 0
M  V30 15888 H 1505.76 -5.2967 0.731676 0
M  V30 15889 H 1506.1 -4.13014 -0.522039 0
M  V30 15890 H 1506.64 -3.8093 1.14617 0
M  V30 15891 H 1503.37 -5.43486 3.66473 0
M  V30 15892 H 1502.89 -5.66601 1.96782 0
M  V30 15893 H 1504.57 -5.97856 2.47339 0
M  V30 15894 N 1504.71 -0.650285 -1.43559 0
M  V30 15895 C 1505.95 -0.162484 -2.01847 0
M  V30 15896 C 1506.28 1.22251 -1.51278 0
M  V30 15897 O 1505.54 1.82939 -0.695115 0
M  V30 15898 C 1505.83 -0.119084 -3.57202 0
M  V30 15899 C 1505.5 -1.44543 -4.27104 0
M  V30 15900 C 1504.16 -1.80864 -4.45917 0
M  V30 15901 C 1506.51 -2.32005 -4.66715 0
M  V30 15902 C 1503.84 -3.04319 -5.01604 0
M  V30 15903 C 1506.19 -3.54748 -5.23771 0
M  V30 15904 C 1504.86 -3.9127 -5.408 0
M  V30 15905 H 1504.13 -0.0594573 -0.738611 0
M  V30 15906 H 1506.78 -0.84041 -1.72074 0
M  V30 15907 H 1505.08 0.642282 -3.865 0
M  V30 15908 H 1506.78 0.275168 -4.00055 0
M  V30 15909 H 1503.37 -1.15281 -4.12805 0
M  V30 15910 H 1507.55 -2.05234 -4.51877 0
M  V30 15911 H 1502.81 -3.32668 -5.12974 0
M  V30 15912 H 1506.98 -4.2274 -5.53411 0
M  V30 15913 H 1504.61 -4.87011 -5.83716 0
M  V30 15914 N 1506.18 1.52647 -0.392018 0
M  V30 15915 C 1507.43 2.01912 0.18958 0
M  V30 15916 C 1507.76 1.27786 1.46234 0
M  V30 15917 O 1507.04 0.379124 1.90769 0
M  V30 15918 C 1507.32 3.57217 0.454734 0
M  V30 15919 C 1507.17 4.4201 -0.833501 0
M  V30 15920 C 1508.49 4.22146 1.24421 0
M  V30 15921 H 1505.61 0.733909 0.0674281 0
M  V30 15922 H 1508.25 1.82685 -0.52212 0
M  V30 15923 H 1506.4 3.73731 1.06101 0
M  V30 15924 H 1508.08 4.37242 -1.47027 0
M  V30 15925 H 1506.32 4.08912 -1.44823 0
M  V30 15926 H 1506.99 5.48701 -0.602585 0
M  V30 15927 H 1509.47 4.09627 0.731093 0
M  V30 15928 H 1508.34 5.30786 1.39848 0
M  V30 15929 H 1508.6 3.7996 2.26016 0
M  V30 15930 N 1507.66 0.121921 1.57128 0
M  V30 15931 C 1509.08 -0.234655 1.57866 0
M  V30 15932 C 1509.28 -1.66506 1.13482 0
M  V30 15933 O 1508.33 -2.38692 0.823544 0
M  V30 15934 C 1509.65 0.00131784 3.007 0
M  V30 15935 C 1511.2 -0.0643537 3.12934 0
M  V30 15936 C 1511.67 0.143964 4.57774 0
M  V30 15937 N 1513.16 0.0900323 4.63112 0
M  V30 15938 C 1513.9 0.22608 5.72954 0
M  V30 15939 N 1513.39 0.418461 6.91535 0
M  V30 15940 N 1515.19 0.165449 5.61856 0
M  V30 15941 H 1507.34 1.05618 1.84279 0
M  V30 15942 H 1509.6 0.416132 0.851785 0
M  V30 15943 H 1509.31 0.99031 3.3747 0
M  V30 15944 H 1509.18 -0.729266 3.70083 0
M  V30 15945 H 1511.57 -1.04387 2.7602 0
M  V30 15946 H 1511.65 0.698157 2.46088 0
M  V30 15947 H 1511.29 1.12047 4.95387 0
M  V30 15948 H 1511.22 -0.638569 5.22714 0
M  V30 15949 H 1513.71 -0.0550269 3.7786 0
M  V30 15950 H 1514.03 0.513057 7.71095 0
M  V30 15951 H 1512.37 0.454471 6.93512 0
M  V30 15952 H 1515.56 0.0160945 4.68097 0
M  V30 15953 H 1515.73 0.274917 6.47417 0
M  V30 15954 N 1509.14 -1.56867 -0.151857 0
M  V30 15955 C 1510.07 -2.00932 -1.18949 0
M  V30 15956 C 1511.05 -0.888062 -1.45077 0
M  V30 15957 O 1512.24 -1.15553 -1.56081 0
M  V30 15958 C 1509.37 -2.3858 -2.52383 0
M  V30 15959 C 1508.32 -3.53845 -2.40785 0
M  V30 15960 C 1507.65 -3.77292 -3.78886 0
M  V30 15961 C 1508.95 -4.8667 -1.89605 0
M  V30 15962 H 1510.64 -2.87863 -0.823107 0
M  V30 15963 H 1508.19 -1.38491 -0.394499 0
M  V30 15964 H 1510.14 -2.68006 -3.25193 0
M  V30 15965 H 1508.86 -1.48579 -2.90847 0
M  V30 15966 H 1507.52 -3.24577 -1.70427 0
M  V30 15967 H 1507.17 -2.84551 -4.14777 0
M  V30 15968 H 1506.87 -4.54861 -3.71989 0
M  V30 15969 H 1508.39 -4.09139 -4.53252 0
M  V30 15970 H 1509.81 -5.14846 -2.52204 0
M  V30 15971 H 1508.21 -5.6801 -1.93609 0
M  V30 15972 H 1509.28 -4.77366 -0.851438 0
M  V30 15973 N 1510.62 0.421051 -1.51871 0
M  V30 15974 C 1511.57 1.51101 -1.70741 0
M  V30 15975 C 1512.55 1.50792 -0.561305 0
M  V30 15976 O 1513.74 1.5697 -0.817894 0
M  V30 15977 C 1510.87 2.89145 -1.85067 0
M  V30 15978 C 1509.96 2.94148 -3.05512 0
M  V30 15979 N 1510.35 2.68866 -4.28421 0
M  V30 15980 C 1508.65 3.25314 -3.05101 0
M  V30 15981 C 1509.35 2.80131 -5.09805 0
M  V30 15982 N 1508.33 3.12501 -4.44797 0
M  V30 15983 H 1512.13 1.30331 -2.63422 0
M  V30 15984 H 1509.64 0.628598 -1.49741 0
M  V30 15985 H 1511.64 3.6758 -1.96699 0
M  V30 15986 H 1510.3 3.10923 -0.935788 0
M  V30 15987 H 1511.31 2.43485 -4.57094 0
M  V30 15988 H 1507.99 3.52762 -2.23306 0
M  V30 15989 H 1509.38 2.64401 -6.17691 0
M  V30 15990 N 1512.1 1.42293 0.677538 0
M  V30 15991 C 1513.32 1.46008 1.46592 0
M  V30 15992 C 1513.74 0.0706015 1.88668 0
M  V30 15993 O 1513.1 -0.914076 1.57959 0
M  V30 15994 C 1513.15 2.38477 2.71682 0
M  V30 15995 O 1512.87 3.72019 2.31372 0
M  V30 15996 C 1514.37 2.51185 3.65269 0
M  V30 15997 H 1511.59 0.49669 0.451154 0
M  V30 15998 H 1514.13 1.86777 0.832736 0
M  V30 15999 H 1512.29 2.00969 3.31195 0
M  V30 16000 H 1512.7 4.21514 3.12131 0
M  V30 16001 H 1514.18 3.20014 4.49772 0
M  V30 16002 H 1514.65 1.54885 4.10983 0
M  V30 16003 H 1515.26 2.89404 3.1165 0
M  V30 16004 N 1513.57 -0.913576 1.28419 0
M  V30 16005 C 1514.52 -2.03739 1.1222 0
M  V30 16006 C 1515.52 -1.69349 0.0414309 0
M  V30 16007 O 1516.72 -1.78883 0.200213 0
M  V30 16008 H 1513.1 -0.667554 0.34623 0
M  V30 16009 H 1515.07 -2.14544 2.07397 0
M  V30 16010 C 1513.82 -3.38348 0.801003 0
M  V30 16011 H 1513.14 -3.65304 1.6246 0
M  V30 16012 H 1514.58 -4.1771 0.727611 0
M  V30 16013 C 1513.04 -3.3324 -0.495261 0
M  V30 16014 O 1513.57 -3.71606 -1.52551 0
M  V30 16015 N 1511.78 -2.86335 -0.496054 0
M  V30 16016 H 1511.32 -2.55309 0.342773 0
M  V30 16017 H 1511.28 -2.833 -1.3634 0
M  V30 16018 N 1515.05 -1.1067 -1.12204 0
M  V30 16019 C 1516.3 -0.84895 -1.83405 0
M  V30 16020 C 1516.62 0.62724 -1.84637 0
M  V30 16021 O 1515.89 1.45546 -1.31123 0
M  V30 16022 H 1514.47 -0.311074 -0.679148 0
M  V30 16023 H 1517.13 -1.39747 -1.35856 0
M  V30 16024 H 1516.23 -1.21398 -2.87522 0
M  V30 16025 N 1516.53 1.29665 -0.895815 0
M  V30 16026 C 1517.76 2.00399 -0.534333 0
M  V30 16027 C 1518.18 1.66632 0.872654 0
M  V30 16028 O 1517.54 0.888811 1.58018 0
M  V30 16029 C 1517.59 3.53154 -0.729023 0
M  V30 16030 O 1516.69 4.11812 0.22023 0
M  V30 16031 H 1516.03 0.630173 -0.209233 0
M  V30 16032 H 1518.56 1.65253 -1.20634 0
M  V30 16033 H 1518.57 4.03073 -0.632179 0
M  V30 16034 H 1517.25 3.77067 -1.75481 0
M  V30 16035 H 1515.82 3.72822 0.0761687 0
M  V30 16036 N 1518.01 0.657889 1.43212 0
M  V30 16037 C 1518.94 -0.0695999 2.29094 0
M  V30 16038 C 1519.95 -0.782463 1.42763 0
M  V30 16039 O 1521.14 -0.63944 1.66654 0
M  V30 16040 C 1518.24 -1.12178 3.19796 0
M  V30 16041 C 1517.42 -0.486131 4.3469 0
M  V30 16042 C 1516.47 -1.43582 5.06232 0
M  V30 16043 O 1515.5 -0.942622 5.61341 0
M  V30 16044 N 1516.7 -2.76966 5.10167 0
M  V30 16045 H 1519.47 0.667565 2.92171 0
M  V30 16046 H 1517.03 0.501022 1.53953 0
M  V30 16047 H 1519.02 -1.75801 3.64522 0
M  V30 16048 H 1517.59 -1.76087 2.58287 0
M  V30 16049 H 1516.81 0.329281 3.92822 0
M  V30 16050 H 1518.1 -0.0425918 5.08782 0
M  V30 16051 H 1517.5 -3.19592 4.66774 0
M  V30 16052 H 1516.05 -3.3588 5.58595 0
M  V30 16053 N 1519.49 -1.52437 0.400108 0
M  V30 16054 C 1520.4 -2.30496 -0.436875 0
M  V30 16055 C 1521.41 -1.37851 -1.06175 0
M  V30 16056 O 1522.59 -1.70924 -1.06522 0
M  V30 16057 C 1519.65 -3.10459 -1.54325 0
M  V30 16058 C 1518.71 -4.18829 -0.942367 0
M  V30 16059 C 1517.95 -4.94969 -1.99602 0
M  V30 16060 O 1518.17 -4.71314 -3.21278 0
M  V30 16061 O 1517.1 -5.80043 -1.60728 0
M  V30 16062 H 1520.93 -3.03045 0.199343 0
M  V30 16063 H 1518.52 -1.48502 0.163541 0
M  V30 16064 H 1520.4 -3.60282 -2.18575 0
M  V30 16065 H 1519.07 -2.40713 -2.16423 0
M  V30 16066 H 1517.98 -3.73176 -0.262831 0
M  V30 16067 H 1519.31 -4.90841 -0.365441 0
M  V30 16068 N 1520.96 -0.130252 -1.57061 0
M  V30 16069 C 1521.89 0.812189 -2.18919 0
M  V30 16070 C 1522.88 1.2692 -1.13249 0
M  V30 16071 O 1524.06 1.32978 -1.41529 0
M  V30 16072 C 1521.19 2.05803 -2.79754 0
M  V30 16073 C 1520.14 1.73841 -3.91105 0
M  V30 16074 C 1519.47 3.05549 -4.38799 0
M  V30 16075 C 1520.77 0.997991 -5.12677 0
M  V30 16076 H 1522.46 0.296692 -2.97926 0
M  V30 16077 H 1520.01 0.141265 -1.43305 0
M  V30 16078 H 1521.96 2.72201 -3.21691 0
M  V30 16079 H 1520.69 2.59697 -1.98053 0
M  V30 16080 H 1519.35 1.09828 -3.49762 0
M  V30 16081 H 1518.99 3.57399 -3.53942 0
M  V30 16082 H 1518.69 2.84932 -5.13894 0
M  V30 16083 H 1520.22 3.73045 -4.83394 0
M  V30 16084 H 1521.63 1.56372 -5.51562 0
M  V30 16085 H 1520.03 0.892378 -5.93428 0
M  V30 16086 H 1521.1 -0.0132936 -4.84898 0
M  V30 16087 N 1522.44 1.56945 0.143535 0
M  V30 16088 C 1523.38 1.95134 1.2023 0
M  V30 16089 C 1524.39 0.847593 1.38995 0
M  V30 16090 O 1525.58 1.12599 1.38505 0
M  V30 16091 C 1522.68 2.21316 2.56656 0
M  V30 16092 C 1521.85 3.52604 2.58822 0
M  V30 16093 C 1520.91 3.67285 3.76813 0
M  V30 16094 O 1519.94 4.39644 3.61527 0
M  V30 16095 N 1521.14 3.04208 4.94406 0
M  V30 16096 H 1523.9 2.86561 0.87766 0
M  V30 16097 H 1521.46 1.58437 0.333065 0
M  V30 16098 H 1523.46 2.28375 3.34106 0
M  V30 16099 H 1522.03 1.36137 2.81399 0
M  V30 16100 H 1521.25 3.56954 1.67264 0
M  V30 16101 H 1522.53 4.38944 2.57304 0
M  V30 16102 H 1521.93 2.45344 5.09728 0
M  V30 16103 H 1520.49 3.16824 5.69619 0
M  V30 16104 N 1523.92 -0.412991 1.52093 0
M  V30 16105 C 1525.15 -1.1804 1.69558 0
M  V30 16106 C 1525.56 -1.84858 0.403007 0
M  V30 16107 O 1524.9 -1.72541 -0.630506 0
M  V30 16108 C 1524.96 -2.28876 2.7723 0
M  V30 16109 C 1524.63 -1.82226 4.19098 0
M  V30 16110 C 1525.63 -1.31216 5.03069 0
M  V30 16111 C 1523.31 -1.89177 4.65314 0
M  V30 16112 C 1525.3 -0.877743 6.31328 0
M  V30 16113 C 1522.99 -1.45347 5.93563 0
M  V30 16114 C 1523.99 -0.947302 6.76399 0
M  V30 16115 O 1523.68 -0.515315 8.02247 0
M  V30 16116 H 1523.41 -0.360882 0.571612 0
M  V30 16117 H 1525.96 -0.492521 1.99408 0
M  V30 16118 H 1524.19 -3.01015 2.42748 0
M  V30 16119 H 1525.88 -2.9065 2.83333 0
M  V30 16120 H 1526.65 -1.25221 4.68556 0
M  V30 16121 H 1522.53 -2.27518 4.00945 0
M  V30 16122 H 1526.07 -0.481977 6.95933 0
M  V30 16123 H 1521.97 -1.51019 6.27585 0
M  V30 16124 H 1522.74 -0.638973 8.16002 0
M  V30 16125 N 1525.4 -1.4265 -0.669982 0
M  V30 16126 C 1526.33 -1.42457 -1.79551 0
M  V30 16127 C 1527.34 -0.322966 -1.59564 0
M  V30 16128 O 1528.53 -0.586359 -1.68594 0
M  V30 16129 C 1525.63 -1.20561 -3.16731 0
M  V30 16130 C 1524.81 -2.43246 -3.63525 0
M  V30 16131 C 1523.87 -2.16823 -4.79452 0
M  V30 16132 O 1522.89 -2.90058 -4.8975 0
M  V30 16133 N 1524.09 -1.17436 -5.68497 0
M  V30 16134 H 1526.86 -2.39474 -1.80201 0
M  V30 16135 H 1524.42 -1.37591 -0.853244 0
M  V30 16136 H 1526.41 -1.00794 -3.91947 0
M  V30 16137 H 1524.98 -0.320497 -3.10953 0
M  V30 16138 H 1524.2 -2.78549 -2.78934 0
M  V30 16139 H 1525.49 -3.24931 -3.91532 0
M  V30 16140 H 1524.89 -0.568736 -5.62834 0
M  V30 16141 H 1523.44 -1.03655 -6.43505 0
M  V30 16142 N 1526.88 0.906753 -1.28902 0
M  V30 16143 C 1528.29 1.47175 -1.14876 0
M  V30 16144 C 1528.64 1.94487 0.258693 0
M  V30 16145 O 1527.76 1.83088 1.15359 0
M  V30 16146 C 1528.36 2.67491 -2.07928 0
M  V30 16147 C 1526.92 3.20148 -1.97946 0
M  V30 16148 C 1526.07 1.92846 -1.99263 0
M  V30 16149 H 1529.02 0.718777 -1.4149 0
M  V30 16150 H 1529.04 3.42989 -1.64738 0
M  V30 16151 H 1528.55 2.33025 -3.10356 0
M  V30 16152 H 1526.65 3.59322 -0.985806 0
M  V30 16153 H 1526.76 3.84923 -2.85256 0
M  V30 16154 H 1525.13 2.10247 -1.43765 0
M  V30 16155 H 1525.91 1.60666 -3.03383 0
M  V30 16156 N 1528.36 1.11264 1.11616 0
M  V30 16157 C 1529.6 0.858664 1.82952 0
M  V30 16158 C 1529.92 -0.617439 1.84967 0
M  V30 16159 O 1529.19 -1.44849 1.31893 0
M  V30 16160 H 1527.77 0.314671 0.677489 0
M  V30 16161 H 1530.44 1.40466 1.35113 0
M  V30 16162 H 1529.53 1.22921 2.86874 0
M  V30 16163 N 1529.83 -1.29188 0.902679 0
M  V30 16164 C 1531.11 -1.90365 0.449496 0
M  V30 16165 C 1531.49 -1.81911 -1.07105 0
M  V30 16166 O 1530.84 -1.24778 -1.91423 0
M  V30 16167 C 1531.05 -3.35324 0.967418 0
M  V30 16168 C 1532.4 -4.12342 1.0129 0
M  V30 16169 O 1533.42 -3.44239 0.915293 0
M  V30 16170 O 1532.28 -5.34048 1.15994 0
M  V30 16171 H 1529.37 -0.814956 0.140628 0
M  V30 16172 H 1531.92 -1.37633 0.992739 0
M  V30 16173 H 1530.69 -3.35646 2.0114 0
M  V30 16174 H 1530.31 -3.95539 0.404358 0
M  V30 16175 N 1531.31 -0.665475 -1.42861 0
M  V30 16176 C 1532.26 0.0411925 -2.27963 0
M  V30 16177 C 1533.25 0.782763 -1.40576 0
M  V30 16178 O 1534.44 0.66321 -1.64105 0
M  V30 16179 C 1531.57 0.998333 -3.28463 0
M  V30 16180 C 1530.65 0.254595 -4.23335 0
M  V30 16181 N 1531.04 -0.735508 -5.00424 0
M  V30 16182 C 1529.34 0.494345 -4.43252 0
M  V30 16183 C 1530.04 -1.17807 -5.69646 0
M  V30 16184 N 1529.02 -0.509865 -5.41204 0
M  V30 16185 H 1532.82 -0.718381 -2.84985 0
M  V30 16186 H 1530.33 -0.493763 -1.54712 0
M  V30 16187 H 1532.33 1.51949 -3.88223 0
M  V30 16188 H 1530.99 1.75783 -2.73002 0
M  V30 16189 H 1532 -1.1147 -5.05762 0
M  V30 16190 H 1528.68 1.23407 -3.98845 0
M  V30 16191 H 1530.07 -1.998 -6.41506 0
M  V30 16192 N 1532.79 1.52222 -0.408187 0
M  V30 16193 C 1533.72 2.29892 0.408868 0
M  V30 16194 C 1534.7 1.34063 1.04695 0
M  V30 16195 O 1535.89 1.6297 1.05615 0
M  V30 16196 C 1533.02 3.11964 1.52629 0
M  V30 16197 C 1531.97 4.15833 1.01326 0
M  V30 16198 C 1531.3 4.86244 2.2242 0
M  V30 16199 C 1532.6 5.22256 0.0679573 0
M  V30 16200 H 1534.29 2.98443 -0.23923 0
M  V30 16201 H 1531.84 1.43528 -0.116496 0
M  V30 16202 H 1533.79 3.65067 2.10486 0
M  V30 16203 H 1532.51 2.41181 2.20225 0
M  V30 16204 H 1531.17 3.63739 0.4571 0
M  V30 16205 H 1530.82 4.11991 2.88569 0
M  V30 16206 H 1530.52 5.56461 1.88746 0
M  V30 16207 H 1532.04 5.42159 2.80885 0
M  V30 16208 H 1533.46 5.70604 0.555295 0
M  V30 16209 H 1531.85 5.9983 -0.179934 0
M  V30 16210 H 1532.92 4.76892 -0.877599 0
M  V30 16211 N 1534.27 0.138579 1.5699 0
M  V30 16212 C 1535.52 -0.513611 1.95465 0
M  V30 16213 C 1535.84 -1.65952 1.02396 0
M  V30 16214 O 1535.11 -1.9572 0.0839001 0
M  V30 16215 H 1533.69 -0.192729 0.72171 0
M  V30 16216 H 1536.35 0.212107 1.93742 0
M  V30 16217 H 1535.44 -0.895313 2.98983 0
M  V30 16218 N 1535.75 -1.57019 -0.13521 0
M  V30 16219 C 1536.99 -1.84262 -0.847071 0
M  V30 16220 C 1537.32 -0.721946 -1.80282 0
M  V30 16221 O 1536.6 0.273535 -1.92567 0
M  V30 16222 C 1536.88 -3.22043 -1.61123 0
M  V30 16223 C 1536.74 -4.44689 -0.67617 0
M  V30 16224 C 1538.05 -3.57188 -2.57108 0
M  V30 16225 H 1535.17 -0.670246 -0.306496 0
M  V30 16226 H 1537.82 -1.89671 -0.111843 0
M  V30 16227 H 1535.97 -3.17563 -2.23799 0
M  V30 16228 H 1537.64 -4.61262 -0.0595009 0
M  V30 16229 H 1535.88 -4.33798 0.0134526 0
M  V30 16230 H 1536.55 -5.37727 -1.24714 0
M  V30 16231 H 1539.03 -3.62354 -2.04545 0
M  V30 16232 H 1537.9 -4.54602 -3.07617 0
M  V30 16233 H 1538.16 -2.83758 -3.39019 0
M  V30 16234 N 1537.22 0.404919 -1.52309 0
M  V30 16235 C 1538.47 1.15148 -1.66575 0
M  V30 16236 C 1538.8 1.9039 -0.397754 0
M  V30 16237 O 1538.05 1.85639 0.619407 0
M  V30 16238 C 1538.35 2.16817 -2.84121 0
M  V30 16239 C 1538.02 1.58352 -4.22179 0
M  V30 16240 C 1536.68 1.42132 -4.5973 0
M  V30 16241 C 1539.03 1.15695 -5.08197 0
M  V30 16242 C 1536.36 0.817785 -5.80973 0
M  V30 16243 C 1538.71 0.56758 -6.30049 0
M  V30 16244 C 1537.38 0.392547 -6.66345 0
M  V30 16245 H 1536.65 0.421357 -0.60954 0
M  V30 16246 H 1539.29 0.438148 -1.8642 0
M  V30 16247 H 1537.6 2.94311 -2.58628 0
M  V30 16248 H 1539.3 2.74463 -2.92355 0
M  V30 16249 H 1535.89 1.71961 -3.92591 0
M  V30 16250 H 1540.07 1.27034 -4.79767 0
M  V30 16251 H 1535.33 0.670228 -6.07715 0
M  V30 16252 H 1539.5 0.228674 -6.96024 0
M  V30 16253 H 1537.13 -0.0772156 -7.60161 0
M  V30 16254 N 1538.7 1.43003 0.662408 0
M  V30 16255 C 1540.11 1.39275 1.24336 0
M  V30 16256 C 1540.46 0.0921999 1.95983 0
M  V30 16257 O 1539.59 -0.808677 2.00722 0
M  V30 16258 C 1540.18 2.52287 2.26134 0
M  V30 16259 C 1538.74 2.51853 2.79727 0
M  V30 16260 C 1537.89 2.30453 1.5423 0
M  V30 16261 H 1540.84 1.52038 0.455002 0
M  V30 16262 H 1540.86 2.23249 3.08123 0
M  V30 16263 H 1540.37 3.46929 1.73959 0
M  V30 16264 H 1538.48 1.61064 3.3599 0
M  V30 16265 H 1538.59 3.49313 3.27898 0
M  V30 16266 H 1536.95 1.78946 1.81247 0
M  V30 16267 H 1537.74 3.27167 1.04003 0
M  V30 16268 N 1540.18 -0.899904 1.29381 0
M  V30 16269 C 1541.43 -1.64712 1.17109 0
M  V30 16270 C 1541.75 -1.93011 -0.277772 0
M  V30 16271 O 1541.02 -1.55604 -1.19013 0
M  V30 16272 H 1539.6 -0.610532 0.430418 0
M  V30 16273 H 1542.26 -1.07905 1.62304 0
M  V30 16274 H 1541.36 -2.60362 1.72098 0
M  V30 16275 N 1541.66 -1.11854 -1.11024 0
M  V30 16276 C 1542.61 -0.77596 -2.19275 0
M  V30 16277 C 1543.6 0.234503 -1.67769 0
M  V30 16278 O 1544.81 0.0933372 -1.79758 0
M  V30 16279 H 1541.18 -0.23307 -0.71497 0
M  V30 16280 H 1543.15 -1.69749 -2.45414 0
M  V30 16281 C 1541.9 -0.240148 -3.4687 0
M  V30 16282 H 1541.22 -1.00895 -3.86859 0
M  V30 16283 H 1542.66 -0.0386799 -4.23982 0
M  V30 16284 C 1541.12 1.03056 -3.20751 0
M  V30 16285 O 1541.65 2.10948 -3.41854 0
M  V30 16286 N 1539.86 0.955066 -2.74457 0
M  V30 16287 H 1539.41 0.0769523 -2.57485 0
M  V30 16288 H 1539.36 1.80593 -2.57359 0
M  V30 16289 N 1543.14 1.28707 -0.909517 0
M  V30 16290 C 1544.09 2.25045 -0.365899 0
M  V30 16291 C 1545.07 1.5228 0.51959 0
M  V30 16292 O 1546.26 1.733 0.360004 0
M  V30 16293 C 1543.39 3.41 0.396725 0
M  V30 16294 C 1542.48 4.21092 -0.504243 0
M  V30 16295 N 1542.87 4.79293 -1.61592 0
M  V30 16296 C 1541.17 4.44964 -0.303843 0
M  V30 16297 C 1541.87 5.39516 -2.17481 0
M  V30 16298 N 1540.84 5.23442 -1.4666 0
M  V30 16299 H 1544.65 2.67611 -1.21497 0
M  V30 16300 H 1542.16 1.4343 -0.761686 0
M  V30 16301 H 1544.16 4.09094 0.80299 0
M  V30 16302 H 1542.82 2.99969 1.24294 0
M  V30 16303 H 1543.83 4.77785 -1.99856 0
M  V30 16304 H 1540.5 4.14456 0.503201 0
M  V30 16305 H 1541.89 5.95606 -3.10972 0
M  V30 16306 N 1544.61 0.673042 1.42506 0
M  V30 16307 C 1545.52 -0.00648572 2.34599 0
M  V30 16308 C 1546.54 -0.790758 1.54994 0
M  V30 16309 O 1547.72 -0.733482 1.87569 0
M  V30 16310 C 1544.78 -0.94734 3.33506 0
M  V30 16311 C 1543.84 -0.157795 4.2901 0
M  V30 16312 C 1543.08 -1.05384 5.23192 0
M  V30 16313 O 1543.3 -2.29334 5.22266 0
M  V30 16314 O 1542.23 -0.515584 5.99688 0
M  V30 16315 H 1546.06 0.752059 2.94241 0
M  V30 16316 H 1543.64 0.433272 1.42979 0
M  V30 16317 H 1545.53 -1.4875 3.94273 0
M  V30 16318 H 1544.2 -1.68577 2.7634 0
M  V30 16319 H 1543.11 0.426426 3.71662 0
M  V30 16320 H 1544.44 0.54148 4.89212 0
M  V30 16321 N 1546.09 -1.52004 0.416254 0
M  V30 16322 C 1547.37 -1.94403 -0.216103 0
M  V30 16323 C 1547.75 -1.35362 -1.61989 0
M  V30 16324 O 1547.1 -0.532242 -2.22215 0
M  V30 16325 C 1547.31 -3.48336 -0.215225 0
M  V30 16326 C 1548.66 -4.22406 -0.431109 0
M  V30 16327 O 1549.68 -3.54982 -0.294271 0
M  V30 16328 O 1548.54 -5.4198 -0.70145 0
M  V30 16329 H 1545.63 -0.814838 -0.141306 0
M  V30 16330 H 1548.18 -1.62983 0.472712 0
M  V30 16331 H 1546.95 -3.83709 0.767004 0
M  V30 16332 H 1546.57 -3.86137 -0.947841 0
M  V30 16333 N 1547.57 -0.146903 -1.56914 0
M  V30 16334 C 1548.5 0.788924 -2.19769 0
M  V30 16335 C 1549.48 1.25712 -1.14589 0
M  V30 16336 O 1550.67 1.3147 -1.42931 0
M  V30 16337 C 1547.8 2.02824 -2.81921 0
M  V30 16338 C 1546.75 1.69683 -3.92927 0
M  V30 16339 C 1546.08 3.00877 -4.42015 0
M  V30 16340 C 1547.38 0.943559 -5.13706 0
M  V30 16341 H 1549.07 0.265076 -2.98224 0
M  V30 16342 H 1546.62 0.126057 -1.43447 0
M  V30 16343 H 1548.57 2.68773 -3.2456 0
M  V30 16344 H 1547.29 2.57581 -2.00797 0
M  V30 16345 H 1545.95 1.06112 -3.50907 0
M  V30 16346 H 1545.6 3.53625 -3.57713 0
M  V30 16347 H 1545.3 2.79466 -5.16888 0
M  V30 16348 H 1546.82 3.67897 -4.87323 0
M  V30 16349 H 1548.24 1.50513 -5.5319 0
M  V30 16350 H 1546.64 0.829387 -5.94341 0
M  V30 16351 H 1547.71 -0.0647228 -4.84857 0
M  V30 16352 N 1549.05 1.57088 0.126881 0
M  V30 16353 C 1550.29 1.84709 0.837287 0
M  V30 16354 C 1550.63 0.731496 1.79897 0
M  V30 16355 O 1549.9 -0.263319 1.92709 0
M  V30 16356 C 1550.19 3.22893 1.59412 0
M  V30 16357 C 1550.04 4.45041 0.652578 0
M  V30 16358 C 1551.36 3.58547 2.5521 0
M  V30 16359 H 1548.48 0.671862 0.302937 0
M  V30 16360 H 1551.12 1.89727 0.101783 0
M  V30 16361 H 1549.27 3.18746 2.22112 0
M  V30 16362 H 1550.94 4.61287 0.0350382 0
M  V30 16363 H 1549.18 4.33785 -0.0364578 0
M  V30 16364 H 1549.85 5.38381 1.21861 0
M  V30 16365 H 1552.33 3.63434 2.0262 0
M  V30 16366 H 1551.21 4.56227 3.05202 0
M  V30 16367 H 1551.47 2.85552 3.37509 0
M  V30 16368 N 1550.53 -0.396836 1.52522 0
M  V30 16369 C 1551.47 -1.50474 1.77371 0
M  V30 16370 C 1552.47 -1.56792 0.641307 0
M  V30 16371 O 1553.67 -1.60052 0.823621 0
M  V30 16372 H 1550.05 -0.500667 0.561103 0
M  V30 16373 H 1552.02 -1.26706 2.70163 0
M  V30 16374 C 1550.77 -2.87702 1.95251 0
M  V30 16375 H 1550.09 -2.83588 2.81812 0
M  V30 16376 H 1551.53 -3.64482 2.16631 0
M  V30 16377 C 1549.99 -3.29053 0.722904 0
M  V30 16378 O 1550.52 -4.01567 -0.103398 0
M  V30 16379 N 1548.73 -2.85246 0.555263 0
M  V30 16380 H 1548.27 -2.26403 1.22879 0
M  V30 16381 H 1548.23 -3.13272 -0.266113 0
M  V30 16382 N 1552.01 -1.43353 -0.654814 0
M  V30 16383 C 1552.97 -1.4806 -1.7496 0
M  V30 16384 C 1553.97 -0.365513 -1.56591 0
M  V30 16385 O 1555.16 -0.627194 -1.62517 0
M  V30 16386 C 1552.29 -1.33165 -3.13815 0
M  V30 16387 H 1553.48 -2.45557 -1.72167 0
M  V30 16388 H 1551.04 -1.30094 -0.86632 0
M  V30 16389 H 1551.77 -0.366689 -3.2222 0
M  V30 16390 H 1551.56 -2.13998 -3.28553 0
M  V30 16391 H 1553.05 -1.39388 -3.93651 0
M  V30 16392 N 1553.48 0.89303 -1.29857 0
M  V30 16393 C 1554.41 2.01422 -1.18117 0
M  V30 16394 C 1555.39 1.6994 -0.0737487 0
M  V30 16395 O 1556.58 1.92527 -0.254387 0
M  V30 16396 C 1553.71 3.36385 -0.863842 0
M  V30 16397 C 1552.66 3.821 -1.92831 0
M  V30 16398 C 1551.99 5.14263 -1.46415 0
M  V30 16399 C 1553.29 4.01699 -3.33819 0
M  V30 16400 H 1554.98 2.11502 -2.11913 0
M  V30 16401 H 1552.53 1.01622 -1.02024 0
M  V30 16402 H 1554.48 4.14335 -0.768397 0
M  V30 16403 H 1553.21 3.26415 0.109816 0
M  V30 16404 H 1551.87 3.06372 -2.01325 0
M  V30 16405 H 1551.51 5.00714 -0.478983 0
M  V30 16406 H 1551.21 5.45821 -2.17609 0
M  V30 16407 H 1552.74 5.94747 -1.38234 0
M  V30 16408 H 1554.15 4.70111 -3.28129 0
M  V30 16409 H 1552.55 4.44621 -4.03029 0
M  V30 16410 H 1553.62 3.05816 -3.76304 0
M  V30 16411 N 1554.96 1.12442 1.10429 0
M  V30 16412 C 1556.21 0.874466 1.81758 0
M  V30 16413 C 1556.52 -0.601487 1.86122 0
M  V30 16414 O 1557.73 -0.968037 2.53656 0
M  V30 16415 C 1556.19 1.51478 3.2647 0
M  V30 16416 C 1555.79 3.02552 3.30403 0
M  V30 16417 C 1557.54 1.34511 4.02625 0
M  V30 16418 C 1555.44 3.59518 4.69575 0
M  V30 16419 H 1554.37 0.323494 0.681078 0
M  V30 16420 H 1557.03 1.35091 1.24188 0
M  V30 16421 H 1555.41 0.966 3.84037 0
M  V30 16422 H 1556.58 3.63924 2.82659 0
M  V30 16423 H 1554.9 3.18917 2.67733 0
M  V30 16424 H 1557.49 1.74492 5.05427 0
M  V30 16425 H 1557.84 0.288788 4.15297 0
M  V30 16426 H 1558.37 1.86311 3.51473 0
M  V30 16427 H 1555.11 4.6491 4.62103 0
M  V30 16428 H 1554.63 3.02922 5.17686 0
M  V30 16429 H 1556.31 3.58581 5.38543 0
M  V30 16430 N 1556.44 -1.28223 0.91633 0
M  V30 16431 C 1557.35 -2.30956 0.411882 0
M  V30 16432 C 1558.37 -1.66609 -0.501753 0
M  V30 16433 O 1559.54 -1.97641 -0.387317 0
M  V30 16434 C 1556.61 -3.45053 -0.337558 0
M  V30 16435 C 1555.67 -4.2495 0.609609 0
M  V30 16436 C 1554.9 -5.33598 -0.104159 0
M  V30 16437 O 1555.12 -5.54786 -1.32546 0
M  V30 16438 O 1554.06 -5.99272 0.561851 0
M  V30 16439 H 1557.88 -2.76118 1.26461 0
M  V30 16440 H 1555.47 -1.32964 0.681246 0
M  V30 16441 H 1557.35 -4.14477 -0.760722 0
M  V30 16442 H 1556.03 -3.01968 -1.16607 0
M  V30 16443 H 1554.93 -3.58104 1.08222 0
M  V30 16444 H 1556.27 -4.7172 1.40502 0
M  V30 16445 N 1557.92 -0.68059 -1.42147 0
M  V30 16446 C 1559.33 -0.350691 -1.55699 0
M  V30 16447 C 1559.53 1.1435 -1.6591 0
M  V30 16448 O 1558.59 1.92905 -1.62923 0
M  V30 16449 C 1559.9 -1.08608 -2.80401 0
M  V30 16450 C 1561.45 -1.06897 -2.9418 0
M  V30 16451 C 1561.93 -1.78581 -4.2175 0
M  V30 16452 N 1563.42 -1.75477 -4.28675 0
M  V30 16453 C 1564.15 -2.27794 -5.26211 0
M  V30 16454 N 1563.65 -2.88518 -6.29865 0
M  V30 16455 N 1565.44 -2.18135 -5.18048 0
M  V30 16456 H 1557.59 -1.64988 -1.33763 0
M  V30 16457 H 1559.85 -0.695411 -0.644289 0
M  V30 16458 H 1559.56 -2.14113 -2.79014 0
M  V30 16459 H 1559.43 -0.655022 -3.71469 0
M  V30 16460 H 1561.82 -0.0222464 -2.95092 0
M  V30 16461 H 1561.9 -1.53897 -2.04327 0
M  V30 16462 H 1561.55 -2.83225 -4.21599 0
M  V30 16463 H 1561.48 -1.29027 -5.10548 0
M  V30 16464 H 1563.97 -1.31191 -3.54397 0
M  V30 16465 H 1564.28 -3.26043 -7.00654 0
M  V30 16466 H 1562.63 -2.92589 -6.3041 0
M  V30 16467 H 1565.82 -1.7038 -4.35991 0
M  V30 16468 H 1565.99 -2.59213 -5.93896 0
M  V30 16469 N 1559.4 1.51781 -0.424309 0
M  V30 16470 C 1560.33 2.30313 0.384462 0
M  V30 16471 C 1561.31 1.35166 1.03268 0
M  V30 16472 O 1562.49 1.64081 1.0388 0
M  V30 16473 C 1559.62 3.13566 1.49311 0
M  V30 16474 C 1558.58 4.16884 0.969096 0
M  V30 16475 C 1557.9 4.88576 2.17251 0
M  V30 16476 C 1559.2 5.22298 0.0125613 0
M  V30 16477 H 1560.9 2.98172 -0.270871 0
M  V30 16478 H 1558.44 1.43396 -0.131712 0
M  V30 16479 H 1560.39 3.67279 2.06602 0
M  V30 16480 H 1559.12 2.43504 2.17655 0
M  V30 16481 H 1557.78 3.64203 0.418494 0
M  V30 16482 H 1557.43 4.15029 2.84183 0
M  V30 16483 H 1557.13 5.58432 1.82833 0
M  V30 16484 H 1558.65 5.45107 2.75119 0
M  V30 16485 H 1560.06 5.71161 0.494744 0
M  V30 16486 H 1558.46 5.99606 -0.243544 0
M  V30 16487 H 1559.53 4.75935 -0.92813 0
M  V30 16488 N 1560.87 0.155222 1.56834 0
M  V30 16489 C 1561.78 -0.794179 2.20749 0
M  V30 16490 C 1562.8 -1.26546 1.19424 0
M  V30 16491 O 1563.98 -1.32094 1.5203 0
M  V30 16492 C 1561.04 -2.01261 2.82303 0
M  V30 16493 C 1560.1 -1.58976 3.98779 0
M  V30 16494 C 1559.33 -2.75011 4.57389 0
M  V30 16495 O 1559.56 -3.91449 4.14879 0
M  V30 16496 O 1558.49 -2.50011 5.4752 0
M  V30 16497 H 1562.32 -0.280064 3.02406 0
M  V30 16498 H 1559.9 -0.0722048 1.49225 0
M  V30 16499 H 1561.78 -2.72551 3.21394 0
M  V30 16500 H 1560.46 -2.51609 2.03653 0
M  V30 16501 H 1559.37 -0.846848 3.64389 0
M  V30 16502 H 1560.7 -1.13336 4.78974 0
M  V30 16503 N 1562.35 -1.57153 -0.118549 0
M  V30 16504 C 1563.63 -1.75846 -0.856587 0
M  V30 16505 C 1564.01 -0.730801 -1.98047 0
M  V30 16506 O 1563.36 0.245156 -2.27181 0
M  V30 16507 C 1563.57 -3.20864 -1.37286 0
M  V30 16508 C 1564.91 -3.83378 -1.82501 0
M  V30 16509 O 1565.94 -3.24469 -1.46964 0
M  V30 16510 O 1564.8 -4.86922 -2.48132 0
M  V30 16511 H 1561.89 -0.72002 -0.406817 0
M  V30 16512 H 1564.44 -1.69392 -0.102254 0
M  V30 16513 H 1563.21 -3.87177 -0.566531 0
M  V30 16514 H 1562.83 -3.31858 -2.18988 0
M  V30 16515 N 1563.83 0.388742 -1.5273 0
M  V30 16516 C 1564.79 1.45759 -1.76881 0
M  V30 16517 C 1565.79 1.47565 -0.63884 0
M  V30 16518 O 1566.98 1.48731 -0.906895 0
M  V30 16519 C 1564.11 2.85045 -1.86981 0
M  V30 16520 H 1565.31 1.25629 -2.72319 0
M  V30 16521 H 1562.86 0.620497 -1.43456 0
M  V30 16522 H 1563.6 3.1052 -0.935296 0
M  V30 16523 H 1563.38 2.85136 -2.69147 0
M  V30 16524 H 1564.87 3.62492 -2.07338 0
M  V30 16525 N 1565.31 1.43698 0.647203 0
M  V30 16526 C 1566.72 1.40586 1.22851 0
M  V30 16527 C 1567.07 0.112981 1.95874 0
M  V30 16528 O 1566.19 -0.787342 2.01569 0
M  V30 16529 C 1566.79 2.54672 2.23445 0
M  V30 16530 C 1565.35 2.54806 2.7704 0
M  V30 16531 C 1564.5 2.32076 1.51777 0
M  V30 16532 H 1567.45 1.52512 0.43885 0
M  V30 16533 H 1567.47 2.26505 3.05738 0
M  V30 16534 H 1566.98 3.48755 1.70269 0
M  V30 16535 H 1565.08 1.64619 3.34262 0
M  V30 16536 H 1565.19 3.52771 3.24175 0
M  V30 16537 H 1563.56 1.80858 1.79339 0
M  V30 16538 H 1564.34 3.28252 1.00527 0
M  V30 16539 N 1566.79 -0.886131 1.30328 0
M  V30 16540 C 1568.2 -1.45328 1.17203 0
M  V30 16541 C 1568.55 -1.94874 -0.227719 0
M  V30 16542 O 1567.67 -1.84901 -1.12431 0
M  V30 16543 C 1568.27 -2.64149 2.12157 0
M  V30 16544 C 1566.83 -3.16958 2.03014 0
M  V30 16545 C 1565.97 -1.89651 2.02306 0
M  V30 16546 H 1568.93 -0.696177 1.42615 0
M  V30 16547 H 1568.95 -3.40325 1.70173 0
M  V30 16548 H 1568.46 -2.28058 3.14024 0
M  V30 16549 H 1566.56 -3.57709 1.04285 0
M  V30 16550 H 1566.67 -3.80336 2.91344 0
M  V30 16551 H 1565.04 -2.07933 1.47091 0
M  V30 16552 H 1565.82 -1.5582 3.05901 0
M  V30 16553 N 1568.26 -1.13026 -1.09832 0
M  V30 16554 C 1569.51 -0.890736 -1.82191 0
M  V30 16555 C 1569.84 0.581818 -1.8528 0
M  V30 16556 O 1569.12 1.43037 -1.31798 0
M  V30 16557 C 1569.4 -1.47403 -3.28549 0
M  V30 16558 C 1569.25 -3.0154 -3.33757 0
M  V30 16559 C 1570.57 -1.13876 -4.25112 0
M  V30 16560 H 1567.69 -0.325028 -0.661457 0
M  V30 16561 H 1570.33 -1.39787 -1.28684 0
M  V30 16562 H 1568.48 -1.04272 -3.74245 0
M  V30 16563 H 1570.16 -3.53395 -2.96495 0
M  V30 16564 H 1568.4 -3.36746 -2.73467 0
M  V30 16565 H 1569.07 -3.37449 -4.36843 0
M  V30 16566 H 1571.55 -1.51139 -3.87681 0
M  V30 16567 H 1570.42 -1.57343 -5.25865 0
M  V30 16568 H 1570.68 -0.051854 -4.4207 0
M  V30 16569 N 1569.74 1.27735 -0.923117 0
M  V30 16570 C 1570.69 2.28975 -0.409065 0
M  V30 16571 C 1571.68 1.61723 0.504194 0
M  V30 16572 O 1572.89 1.75848 0.384402 0
M  V30 16573 H 1569.27 0.743354 -0.113705 0
M  V30 16574 H 1571.24 2.69751 -1.27582 0
M  V30 16575 C 1569.99 3.46158 0.327099 0
M  V30 16576 H 1569.31 3.98117 -0.366444 0
M  V30 16577 H 1570.75 4.18968 0.65128 0
M  V30 16578 C 1569.21 2.99724 1.53842 0
M  V30 16579 O 1569.74 3.03001 2.6373 0
M  V30 16580 N 1567.94 2.55274 1.38865 0
M  V30 16581 H 1567.49 2.52807 0.494629 0
M  V30 16582 H 1567.45 2.24567 2.20039 0
M  V30 16583 N 1571.22 0.688118 1.41784 0
M  V30 16584 C 1572.15 -0.02099 2.2919 0
M  V30 16585 C 1573.17 -0.752005 1.44391 0
M  V30 16586 O 1574.35 -0.603947 1.67972 0
M  V30 16587 C 1571.45 -1.0537 3.22103 0
M  V30 16588 C 1570.63 -0.393817 4.35624 0
M  V30 16589 C 1569.69 -1.32812 5.09163 0
M  V30 16590 O 1568.71 -0.823341 5.63214 0
M  V30 16591 N 1569.91 -2.66083 5.15927 0
M  V30 16592 H 1572.68 0.729389 2.90689 0
M  V30 16593 H 1570.24 0.533564 1.52855 0
M  V30 16594 H 1572.23 -1.6803 3.68169 0
M  V30 16595 H 1570.8 -1.70568 2.61964 0
M  V30 16596 H 1570.02 0.41253 3.92035 0
M  V30 16597 H 1571.31 0.065338 5.08758 0
M  V30 16598 H 1570.71 -3.09619 4.73448 0
M  V30 16599 H 1569.27 -3.23956 5.65593 0
M  V30 16600 N 1572.7 -1.51554 0.432352 0
M  V30 16601 C 1573.63 -2.24175 -0.426721 0
M  V30 16602 C 1574.61 -1.2591 -1.02885 0
M  V30 16603 O 1575.79 -1.55031 -1.07227 0
M  V30 16604 C 1572.92 -2.9883 -1.59431 0
M  V30 16605 C 1571.97 -4.11712 -1.11335 0
M  V30 16606 S 1572.8 -5.35467 -0.0594485 0
M  V30 16607 C 1573.96 -6.13659 -1.23182 0
M  V30 16608 H 1574.19 -2.96693 0.18984 0
M  V30 16609 H 1571.72 -1.5287 0.216828 0
M  V30 16610 H 1573.68 -3.42442 -2.2637 0
M  V30 16611 H 1572.34 -2.2591 -2.18228 0
M  V30 16612 H 1571.53 -4.63207 -1.98633 0
M  V30 16613 H 1571.14 -3.70335 -0.522268 0
M  V30 16614 H 1573.43 -6.42443 -2.15113 0
M  V30 16615 H 1574.37 -7.04043 -0.756938 0
M  V30 16616 H 1574.78 -5.45074 -1.46813 0
M  V30 16617 N 1574.18 -0.163538 -1.56749 0
M  V30 16618 C 1575.42 0.48412 -1.96937 0
M  V30 16619 C 1575.76 1.63418 -1.04919 0
M  V30 16620 O 1575.03 1.94269 -0.094783 0
M  V30 16621 C 1575.31 0.974532 -3.46663 0
M  V30 16622 C 1575.17 -0.175173 -4.49459 0
M  V30 16623 C 1576.49 1.85082 -3.9929 0
M  V30 16624 H 1573.6 0.174503 -0.716043 0
M  V30 16625 H 1576.25 -0.248103 -1.88373 0
M  V30 16626 H 1574.4 1.59849 -3.54091 0
M  V30 16627 H 1576.07 -0.812038 -4.54096 0
M  V30 16628 H 1574.31 -0.831853 -4.2575 0
M  V30 16629 H 1574.98 0.20996 -5.51601 0
M  V30 16630 H 1577.46 1.32488 -3.94444 0
M  V30 16631 H 1576.33 2.163 -5.04485 0
M  V30 16632 H 1576.6 2.79378 -3.42638 0
M  V30 16633 N 1575.65 1.57214 0.110213 0
M  V30 16634 C 1576.6 2.00978 1.13474 0
M  V30 16635 C 1577.57 0.883436 1.40658 0
M  V30 16636 O 1578.76 1.14832 1.52376 0
M  V30 16637 C 1575.9 2.42654 2.45383 0
M  V30 16638 C 1575.01 3.68744 2.2506 0
M  V30 16639 C 1574.14 3.99363 3.50261 0
M  V30 16640 C 1573.18 5.18608 3.25133 0
M  V30 16641 N 1572.32 5.45055 4.42561 0
M  V30 16642 H 1577.16 2.88289 0.754543 0
M  V30 16643 H 1574.7 1.426 0.361064 0
M  V30 16644 H 1576.66 2.64857 3.22345 0
M  V30 16645 H 1575.29 1.58374 2.81278 0
M  V30 16646 H 1574.34 3.54106 1.38972 0
M  V30 16647 H 1575.65 4.55857 2.02475 0
M  V30 16648 H 1574.8 4.22261 4.35638 0
M  V30 16649 H 1573.54 3.10743 3.75886 0
M  V30 16650 H 1572.55 4.95546 2.38148 0
M  V30 16651 H 1573.77 6.08814 3.0087 0
M  V30 16652 H 1571.72 4.59392 4.6829 0
M  V30 16653 H 1571.64 6.26508 4.23111 0
M  V30 16654 H 1572.9 5.72478 5.29046 0
M  V30 16655 N 1577.13 -0.380637 1.52934 0
M  V30 16656 C 1578.38 -1.1265 1.68635 0
M  V30 16657 C 1578.71 -1.89397 0.429227 0
M  V30 16658 O 1577.99 -1.85863 -0.573182 0
M  V30 16659 C 1578.27 -2.09797 2.92673 0
M  V30 16660 C 1578.12 -1.36758 4.28506 0
M  V30 16661 C 1579.44 -3.10117 3.12274 0
M  V30 16662 H 1576.56 -0.408158 0.613658 0
M  V30 16663 H 1579.2 -0.408947 1.85547 0
M  V30 16664 H 1577.35 -2.70987 2.78385 0
M  V30 16665 H 1579.02 -0.784679 4.54577 0
M  V30 16666 H 1577.27 -0.669413 4.28604 0
M  V30 16667 H 1577.94 -2.07786 5.11399 0
M  V30 16668 H 1580.41 -2.59022 3.25648 0
M  V30 16669 H 1579.29 -3.75328 4.00525 0
M  V30 16670 H 1579.55 -3.79451 2.26868 0
M  V30 16671 N 1578.61 -1.44039 -0.639573 0
M  V30 16672 C 1579.52 -1.52728 -1.78077 0
M  V30 16673 C 1580.54 -0.413467 -1.69016 0
M  V30 16674 O 1581.71 -0.669592 -1.89943 0
M  V30 16675 C 1578.78 -1.46078 -3.14424 0
M  V30 16676 C 1577.84 -2.68242 -3.35179 0
M  V30 16677 C 1577.07 -2.61899 -4.65021 0
M  V30 16678 O 1577.29 -1.67431 -5.45273 0
M  V30 16679 O 1576.23 -3.52619 -4.87795 0
M  V30 16680 H 1580.05 -2.49122 -1.737 0
M  V30 16681 H 1577.64 -1.26191 -0.799755 0
M  V30 16682 H 1579.52 -1.44861 -3.95719 0
M  V30 16683 H 1578.2 -0.528236 -3.19361 0
M  V30 16684 H 1577.1 -2.75028 -2.53595 0
M  V30 16685 H 1578.44 -3.60514 -3.35098 0
M  V30 16686 N 1580.09 0.879207 -1.30796 0
M  V30 16687 C 1581.02 2.00158 -1.20246 0
M  V30 16688 C 1582 1.69852 -0.091769 0
M  V30 16689 O 1583.18 1.92246 -0.274792 0
M  V30 16690 C 1580.31 3.3545 -0.899472 0
M  V30 16691 C 1579.27 3.80033 -1.96873 0
M  V30 16692 C 1578.59 5.12681 -1.51861 0
M  V30 16693 C 1579.89 3.98136 -3.38061 0
M  V30 16694 H 1581.59 2.09242 -2.14145 0
M  V30 16695 H 1579.13 1.00535 -1.03096 0
M  V30 16696 H 1581.09 4.13497 -0.812299 0
M  V30 16697 H 1579.81 3.26513 0.075189 0
M  V30 16698 H 1578.47 3.04219 -2.04564 0
M  V30 16699 H 1578.12 5.00178 -0.532063 0
M  V30 16700 H 1577.82 5.43482 -2.23386 0
M  V30 16701 H 1579.34 5.93247 -1.44534 0
M  V30 16702 H 1580.76 4.66604 -3.33096 0
M  V30 16703 H 1579.15 4.40321 -4.07722 0
M  V30 16704 H 1580.22 3.01807 -3.79526 0
M  V30 16705 N 1581.57 1.13606 1.09231 0
M  V30 16706 C 1582.5 0.837908 2.17948 0
M  V30 16707 C 1583.48 -0.203575 1.68877 0
M  V30 16708 O 1584.66 -0.0620702 1.94101 0
M  V30 16709 C 1581.79 0.305342 3.45955 0
M  V30 16710 C 1580.75 1.2813 4.08371 0
M  V30 16711 C 1580.07 0.608412 5.31227 0
M  V30 16712 C 1581.37 2.64055 4.50636 0
M  V30 16713 H 1583.07 1.747 2.43147 0
M  V30 16714 H 1580.61 0.84141 1.1686 0
M  V30 16715 H 1582.57 0.0844116 4.21315 0
M  V30 16716 H 1581.29 -0.639144 3.20285 0
M  V30 16717 H 1579.95 1.48826 3.35032 0
M  V30 16718 H 1579.6 -0.341613 5.01839 0
M  V30 16719 H 1579.3 1.25956 5.73942 0
M  V30 16720 H 1580.82 0.396809 6.09309 0
M  V30 16721 H 1582.24 2.47316 5.17212 0
M  V30 16722 H 1580.63 3.25364 5.0424 0
M  V30 16723 H 1581.7 3.21566 3.62937 0
M  V30 16724 N 1583.05 -1.27244 0.929878 0
M  V30 16725 C 1583.96 -2.30506 0.436355 0
M  V30 16726 C 1584.97 -1.67131 -0.484054 0
M  V30 16727 O 1586.15 -1.9804 -0.366332 0
M  V30 16728 C 1583.21 -3.45391 -0.300942 0
M  V30 16729 C 1582.27 -4.24279 0.654647 0
M  V30 16730 C 1581.51 -5.33679 -0.047558 0
M  V30 16731 O 1581.73 -5.56161 -1.26654 0
M  V30 16732 O 1580.66 -5.98642 0.62538 0
M  V30 16733 H 1584.49 -2.74762 1.29382 0
M  V30 16734 H 1582.07 -1.32234 0.695311 0
M  V30 16735 H 1583.96 -4.1526 -0.716718 0
M  V30 16736 H 1582.63 -3.03187 -1.13398 0
M  V30 16737 H 1581.54 -3.56936 1.12015 0
M  V30 16738 H 1582.87 -4.70204 1.45497 0
M  V30 16739 N 1584.52 -0.695628 -1.41417 0
M  V30 16740 C 1585.43 -0.0308378 -2.3458 0
M  V30 16741 C 1586.45 0.766 -1.56232 0
M  V30 16742 O 1587.63 0.703548 -1.88712 0
M  V30 16743 C 1584.69 0.894162 -3.34971 0
M  V30 16744 C 1583.75 0.0895231 -4.29207 0
M  V30 16745 C 1582.98 0.970467 -5.24802 0
M  V30 16746 O 1583.21 2.20997 -5.25848 0
M  V30 16747 O 1582.14 0.420114 -6.00432 0
M  V30 16748 H 1585.97 -0.798775 -2.93007 0
M  V30 16749 H 1583.55 -0.455964 -1.42272 0
M  V30 16750 H 1585.43 1.42458 -3.9659 0
M  V30 16751 H 1584.11 1.64159 -2.78987 0
M  V30 16752 H 1583.02 -0.4855 -3.70936 0
M  V30 16753 H 1584.35 -0.619241 -4.88289 0
M  V30 16754 N 1586 1.51322 -0.440383 0
M  V30 16755 C 1587.42 1.5933 -0.0928372 0
M  V30 16756 C 1587.62 1.45107 1.39807 0
M  V30 16757 O 1586.67 1.29385 2.16831 0
M  V30 16758 C 1587.99 2.9433 -0.615663 0
M  V30 16759 C 1589.53 3.07647 -0.576373 0
M  V30 16760 C 1590.01 4.45176 -1.07622 0
M  V30 16761 N 1591.5 4.51504 -1.03434 0
M  V30 16762 C 1592.24 5.56249 -1.39194 0
M  V30 16763 N 1591.73 6.68398 -1.82254 0
M  V30 16764 N 1593.52 5.46624 -1.30991 0
M  V30 16765 H 1585.68 1.58812 -1.41041 0
M  V30 16766 H 1587.94 0.748795 -0.581386 0
M  V30 16767 H 1587.64 3.10117 -1.65892 0
M  V30 16768 H 1587.52 3.77176 -0.0422513 0
M  V30 16769 H 1589.91 2.91526 0.457904 0
M  V30 16770 H 1589.99 2.26633 -1.18622 0
M  V30 16771 H 1589.63 4.62044 -2.10898 0
M  V30 16772 H 1589.56 5.24734 -0.442882 0
M  V30 16773 H 1592.05 3.71013 -0.718156 0
M  V30 16774 H 1592.36 7.44347 -2.07769 0
M  V30 16775 H 1590.71 6.69598 -1.86183 0
M  V30 16776 H 1593.9 4.57894 -0.972145 0
M  V30 16777 H 1594.07 6.28143 -1.59188 0
M  V30 16778 N 1587.48 0.171848 1.5666 0
M  V30 16779 C 1588.43 -0.775125 2.19305 0
M  V30 16780 C 1589.42 -1.23711 1.15724 0
M  V30 16781 O 1590.63 -1.2027 1.33922 0
M  V30 16782 H 1587 -0.268245 0.70253 0
M  V30 16783 H 1588.97 -0.222823 2.97567 0
M  V30 16784 C 1587.72 -1.99397 2.84844 0
M  V30 16785 H 1587.05 -1.64752 3.64276 0
M  V30 16786 H 1588.49 -2.63545 3.32145 0
M  V30 16787 C 1586.94 -2.81794 1.84645 0
M  V30 16788 O 1587.47 -3.78964 1.33225 0
M  V30 16789 N 1585.68 -2.4682 1.5339 0
M  V30 16790 H 1585.23 -1.67862 1.95397 0
M  V30 16791 H 1585.19 -3.02238 0.866004 0
M  V30 16792 N 1588.96 -1.5727 -0.101874 0
M  V30 16793 C 1590.19 -1.89943 -0.820329 0
M  V30 16794 C 1590.6 -0.764867 -1.72613 0
M  V30 16795 O 1589.96 0.263499 -1.80588 0
M  V30 16796 C 1590.01 -3.2219 -1.63939 0
M  V30 16797 O 1589.73 -4.31279 -0.770039 0
M  V30 16798 C 1591.23 -3.6868 -2.46151 0
M  V30 16799 H 1588.45 -0.628532 -0.234922 0
M  V30 16800 H 1590.99 -2.04339 -0.0811362 0
M  V30 16801 H 1589.15 -3.09411 -2.33117 0
M  V30 16802 H 1589.56 -5.07182 -1.33665 0
M  V30 16803 H 1591.04 -4.63928 -2.99124 0
M  V30 16804 H 1591.51 -2.96183 -3.24303 0
M  V30 16805 H 1592.12 -3.84303 -1.82185 0
M  V30 16806 N 1590.44 0.372521 -1.53134 0
M  V30 16807 C 1591.4 1.43875 -1.78417 0
M  V30 16808 C 1592.4 1.46879 -0.654455 0
M  V30 16809 O 1593.59 1.47761 -0.922619 0
M  V30 16810 C 1590.72 2.83046 -1.89994 0
M  V30 16811 H 1591.91 1.22733 -2.73636 0
M  V30 16812 H 1589.47 0.605247 -1.44106 0
M  V30 16813 H 1590.2 3.09511 -0.968179 0
M  V30 16814 H 1589.99 2.82265 -2.72156 0
M  V30 16815 H 1591.48 3.60273 -2.11171 0
M  V30 16816 N 1591.91 1.44376 0.631925 0
M  V30 16817 C 1592.84 1.54005 1.75512 0
M  V30 16818 C 1593.82 0.393126 1.65495 0
M  V30 16819 O 1595.01 0.613143 1.84267 0
M  V30 16820 C 1592.14 1.48313 3.14039 0
M  V30 16821 C 1591.09 2.61474 3.38844 0
M  V30 16822 C 1590.42 2.40834 4.77392 0
M  V30 16823 C 1591.72 4.03627 3.31485 0
M  V30 16824 H 1593.41 2.48019 1.6771 0
M  V30 16825 H 1590.96 1.19368 0.80543 0
M  V30 16826 H 1592.91 1.5365 3.9239 0
M  V30 16827 H 1591.64 0.508152 3.22623 0
M  V30 16828 H 1590.3 2.55525 2.62874 0
M  V30 16829 H 1589.94 1.4153 4.82678 0
M  V30 16830 H 1589.64 3.16703 4.94947 0
M  V30 16831 H 1591.17 2.47988 5.57974 0
M  V30 16832 H 1592.58 4.1095 3.99741 0
M  V30 16833 H 1590.98 4.79694 3.60574 0
M  V30 16834 H 1592.05 4.27255 2.29307 0
M  V30 16835 N 1593.39 -0.872258 1.31261 0
M  V30 16836 C 1594.64 -1.6219 1.20576 0
M  V30 16837 C 1594.96 -1.93557 -0.236769 0
M  V30 16838 O 1594.23 -1.58094 -1.15686 0
M  V30 16839 H 1592.81 -0.601265 0.443272 0
M  V30 16840 H 1595.47 -1.04438 1.64556 0
M  V30 16841 H 1594.57 -2.56653 1.77582 0
M  V30 16842 N 1594.87 -1.14184 -1.08627 0
M  V30 16843 C 1596.12 -0.91001 -1.81236 0
M  V30 16844 C 1596.45 0.562134 -1.85886 0
M  V30 16845 O 1595.72 1.41631 -1.33307 0
M  V30 16846 C 1596.01 -1.50879 -3.26967 0
M  V30 16847 C 1595.86 -3.05063 -3.3054 0
M  V30 16848 C 1597.18 -1.18379 -4.2388 0
M  V30 16849 H 1594.3 -0.332025 -0.657973 0
M  V30 16850 H 1596.94 -1.41144 -1.27194 0
M  V30 16851 H 1595.09 -1.08236 -3.73118 0
M  V30 16852 H 1596.76 -3.5652 -2.9273 0
M  V30 16853 H 1595 -3.39628 -2.6988 0
M  V30 16854 H 1595.68 -3.42064 -4.33239 0
M  V30 16855 H 1598.15 -1.55242 -3.86056 0
M  V30 16856 H 1597.03 -1.62911 -5.24167 0
M  V30 16857 H 1597.29 -0.0987385 -4.4199 0
M  V30 16858 N 1596.35 1.26749 -0.936613 0
M  V30 16859 C 1597.6 1.93255 -0.577524 0
M  V30 16860 C 1597.91 1.74337 0.886905 0
M  V30 16861 O 1599.12 2.3526 1.35517 0
M  V30 16862 C 1597.57 3.4624 -0.982119 0
M  V30 16863 C 1597.18 3.739 -2.46784 0
M  V30 16864 C 1598.92 4.18777 -0.694706 0
M  V30 16865 C 1596.83 5.20303 -2.81138 0
M  V30 16866 H 1595.76 0.723502 -0.212276 0
M  V30 16867 H 1598.41 1.43901 -1.13863 0
M  V30 16868 H 1596.79 3.94454 -0.349577 0
M  V30 16869 H 1597.97 3.3641 -3.14905 0
M  V30 16870 H 1596.28 3.14587 -2.72808 0
M  V30 16871 H 1598.88 5.2659 -0.927756 0
M  V30 16872 H 1599.22 4.14667 0.368392 0
M  V30 16873 H 1599.76 3.76414 -1.28676 0
M  V30 16874 H 1596.5 5.29511 -3.86392 0
M  V30 16875 H 1596.02 5.58907 -2.17675 0
M  V30 16876 H 1597.69 5.88265 -2.69358 0
M  V30 16877 N 1597.83 0.703118 1.41046 0
M  V30 16878 C 1599.05 0.245088 2.05947 0
M  V30 16879 C 1599.48 -1.09988 1.52592 0
M  V30 16880 O 1598.83 -1.69015 0.656023 0
M  V30 16881 C 1598.88 0.221444 3.59919 0
M  V30 16882 O 1597.99 -0.801324 4.0454 0
M  V30 16883 H 1597.33 0.117862 0.653456 0
M  V30 16884 H 1599.86 0.960099 1.80674 0
M  V30 16885 H 1599.87 0.0548681 4.07963 0
M  V30 16886 H 1598.54 1.20301 3.98121 0
M  V30 16887 H 1597.12 -0.603489 3.67984 0
M  V30 16888 N 1599.3 -1.51086 0.448402 0
M  V30 16889 C 1600.25 -2.29611 -0.371711 0
M  V30 16890 C 1601.25 -1.35926 -1.01096 0
M  V30 16891 O 1602.45 -1.53219 -0.944663 0
M  V30 16892 H 1598.83 -0.739099 -0.138694 0
M  V30 16893 H 1600.8 -2.96772 0.311275 0
M  V30 16894 C 1599.55 -3.1583 -1.45418 0
M  V30 16895 H 1598.87 -3.87813 -0.971661 0
M  V30 16896 H 1600.31 -3.7381 -2.00105 0
M  V30 16897 C 1598.77 -2.31927 -2.44359 0
M  V30 16898 O 1599.3 -1.98655 -3.4914 0
M  V30 16899 N 1597.51 -1.94938 -2.15517 0
M  V30 16900 H 1597.05 -2.22195 -1.30335 0
M  V30 16901 H 1597.01 -1.39098 -2.81956 0
M  V30 16902 N 1600.78 -0.180154 -1.56567 0
M  V30 16903 C 1602.03 0.456651 -1.98208 0
M  V30 16904 C 1602.38 1.60262 -1.06461 0
M  V30 16905 O 1601.68 1.91307 -0.106011 0
M  V30 16906 C 1601.87 0.978895 -3.43733 0
M  V30 16907 C 1601.7 -0.114936 -4.49553 0
M  V30 16908 C 1600.47 -0.567571 -5.02102 0
M  V30 16909 C 1602.67 -0.918528 -5.06031 0
M  V30 16910 N 1600.65 -1.64078 -5.91567 0
M  V30 16911 C 1602.02 -1.84147 -5.92022 0
M  V30 16912 C 1604.08 -0.96262 -4.88506 0
M  V30 16913 C 1602.78 -2.8048 -6.62362 0
M  V30 16914 C 1604.8 -1.91393 -5.59573 0
M  V30 16915 C 1604.17 -2.82434 -6.45299 0
M  V30 16916 H 1600.27 0.13495 -0.770268 0
M  V30 16917 H 1602.85 -0.282408 -1.92641 0
M  V30 16918 H 1601.02 1.68744 -3.49828 0
M  V30 16919 H 1602.75 1.58506 -3.72368 0
M  V30 16920 H 1599.51 -0.163649 -4.73317 0
M  V30 16921 H 1599.93 -2.17814 -6.41004 0
M  V30 16922 H 1604.57 -0.272775 -4.21919 0
M  V30 16923 H 1602.29 -3.50448 -7.28156 0
M  V30 16924 H 1605.88 -1.95427 -5.47996 0
M  V30 16925 H 1604.76 -3.54847 -6.99324 0
M  V30 16926 N 1602.26 1.57322 0.0935319 0
M  V30 16927 C 1603.49 1.90375 0.810245 0
M  V30 16928 C 1603.9 0.774011 1.72205 0
M  V30 16929 O 1603.26 -0.253918 1.80725 0
M  V30 16930 C 1603.31 3.23054 1.62228 0
M  V30 16931 O 1603.03 4.31682 0.747157 0
M  V30 16932 C 1604.53 3.6998 2.44192 0
M  V30 16933 H 1601.75 0.629769 0.231586 0
M  V30 16934 H 1604.3 2.04379 0.0702984 0
M  V30 16935 H 1602.45 3.10643 2.31472 0
M  V30 16936 H 1602.87 5.07884 1.30974 0
M  V30 16937 H 1604.34 4.65507 2.96659 0
M  V30 16938 H 1604.82 2.97899 3.22727 0
M  V30 16939 H 1605.42 3.85264 1.80144 0
M  V30 16940 N 1603.74 -0.364395 1.53329 0
M  V30 16941 C 1605.02 -1.12265 1.60174 0
M  V30 16942 C 1605.4 -2.0708 0.410015 0
M  V30 16943 O 1604.74 -2.20492 -0.599631 0
M  V30 16944 C 1604.95 -1.86071 2.9526 0
M  V30 16945 C 1606.3 -2.40562 3.49879 0
M  V30 16946 O 1607.33 -1.96196 2.97297 0
M  V30 16947 O 1606.18 -3.2167 4.41804 0
M  V30 16948 H 1603.28 -0.515062 0.647024 0
M  V30 16949 H 1605.82 -0.367563 1.65672 0
M  V30 16950 H 1604.6 -1.1688 3.73436 0
M  V30 16951 H 1604.22 -2.68486 2.93259 0
M  V30 16952 N 1605.22 -1.44709 -0.62426 0
M  V30 16953 C 1606.13 -1.54608 -1.76447 0
M  V30 16954 C 1607.14 -0.43137 -1.68568 0
M  V30 16955 O 1608.32 -0.6897 -1.89222 0
M  V30 16956 C 1605.38 -1.49404 -3.12857 0
M  V30 16957 C 1604.44 -2.71782 -3.32315 0
M  V30 16958 C 1603.68 -2.66817 -4.62217 0
M  V30 16959 O 1603.9 -1.73205 -5.43467 0
M  V30 16960 O 1602.83 -3.57773 -4.84027 0
M  V30 16961 H 1606.66 -2.50951 -1.71048 0
M  V30 16962 H 1604.25 -1.27033 -0.786326 0
M  V30 16963 H 1606.13 -1.4905 -3.9416 0
M  V30 16964 H 1604.8 -0.562078 -3.18783 0
M  V30 16965 H 1603.71 -2.77702 -2.50664 0
M  V30 16966 H 1605.04 -3.64048 -3.31255 0
M  V30 16967 N 1606.69 0.865285 -1.31722 0
M  V30 16968 C 1607.62 1.98871 -1.22362 0
M  V30 16969 C 1608.61 1.69745 -0.109779 0
M  V30 16970 O 1609.79 1.91944 -0.295167 0
M  V30 16971 C 1606.92 3.34477 -0.935 0
M  V30 16972 C 1605.87 3.77924 -2.00892 0
M  V30 16973 C 1605.2 5.11042 -1.57291 0
M  V30 16974 C 1606.5 3.94528 -3.42264 0
M  V30 16975 H 1608.19 2.06959 -2.16352 0
M  V30 16976 H 1605.74 0.994355 -1.04157 0
M  V30 16977 H 1607.69 4.12612 -0.856111 0
M  V30 16978 H 1606.42 3.26575 0.0405536 0
M  V30 16979 H 1605.08 3.02032 -2.07779 0
M  V30 16980 H 1604.72 4.99586 -0.585084 0
M  V30 16981 H 1604.42 5.41082 -2.29138 0
M  V30 16982 H 1605.95 5.91681 -1.50818 0
M  V30 16983 H 1607.36 4.63045 -3.38027 0
M  V30 16984 H 1605.76 4.35972 -4.12369 0
M  V30 16985 H 1606.83 2.97765 -3.82706 0
M  V30 16986 N 1608.17 1.14759 1.0802 0
M  V30 16987 C 1609.59 0.8888 1.32561 0
M  V30 16988 C 1609.79 -0.467926 1.95992 0
M  V30 16989 O 1608.84 -1.21135 2.21546 0
M  V30 16990 C 1610.16 2.02456 2.22333 0
M  V30 16991 C 1611.71 2.05831 2.35802 0
M  V30 16992 C 1612.18 3.18711 3.28918 0
M  V30 16993 N 1613.67 3.18315 3.36496 0
M  V30 16994 C 1614.41 4.02297 4.08589 0
M  V30 16995 N 1613.9 4.96327 4.83354 0
M  V30 16996 N 1615.7 3.90344 4.0446 0
M  V30 16997 H 1607.85 2.02135 0.652307 0
M  V30 16998 H 1610.11 0.881021 0.35001 0
M  V30 16999 H 1609.82 3.00354 1.82976 0
M  V30 17000 H 1609.69 1.95108 3.2282 0
M  V30 17001 H 1612.08 1.08537 2.74415 0
M  V30 17002 H 1612.16 2.17248 1.35044 0
M  V30 17003 H 1611.8 4.16253 2.91025 0
M  V30 17004 H 1611.73 3.04531 4.29614 0
M  V30 17005 H 1614.22 2.50214 2.83199 0
M  V30 17006 H 1614.54 5.56865 5.35837 0
M  V30 17007 H 1612.88 5.00321 4.82394 0
M  V30 17008 H 1616.07 3.162 3.45159 0
M  V30 17009 H 1616.24 4.56019 4.60381 0
M  V30 17010 N 1609.65 -1.26251 0.943322 0
M  V30 17011 C 1610.58 -2.28673 0.472347 0
M  V30 17012 C 1611.56 -1.63319 -0.475481 0
M  V30 17013 O 1612.75 -1.90508 -0.376875 0
M  V30 17014 C 1609.88 -3.46316 -0.261286 0
M  V30 17015 C 1608.83 -4.23771 0.600192 0
M  V30 17016 C 1608.16 -5.3405 -0.263525 0
M  V30 17017 C 1609.46 -4.87576 1.87262 0
M  V30 17018 H 1611.15 -2.68319 1.32836 0
M  V30 17019 H 1608.7 -1.28987 0.640182 0
M  V30 17020 H 1610.65 -4.1708 -0.601821 0
M  V30 17021 H 1609.37 -3.05629 -1.15146 0
M  V30 17022 H 1608.03 -3.54774 0.923651 0
M  V30 17023 H 1607.68 -4.89604 -1.15312 0
M  V30 17024 H 1607.38 -5.86784 0.309495 0
M  V30 17025 H 1608.9 -6.07652 -0.599281 0
M  V30 17026 H 1610.32 -5.50544 1.59919 0
M  V30 17027 H 1608.72 -5.50437 2.39038 0
M  V30 17028 H 1609.79 -4.10397 2.58268 0
M  V30 17029 N 1611.13 -0.710588 -1.40671 0
M  V30 17030 C 1612.54 -0.320926 -1.83921 0
M  V30 17031 C 1612.89 1.14358 -1.59426 0
M  V30 17032 O 1612.02 1.87952 -1.07252 0
M  V30 17033 C 1612.61 -0.5757 -3.33873 0
M  V30 17034 C 1611.17 -0.239799 -3.75635 0
M  V30 17035 C 1610.32 -0.850552 -2.63934 0
M  V30 17036 H 1613.27 -0.910118 -1.3001 0
M  V30 17037 H 1613.29 0.160707 -3.8016 0
M  V30 17038 H 1612.8 -1.64166 -3.51669 0
M  V30 17039 H 1610.9 0.821297 -3.63436 0
M  V30 17040 H 1611.02 -0.705306 -4.7388 0
M  V30 17041 H 1609.38 -0.278977 -2.53168 0
M  V30 17042 H 1610.16 -1.92068 -2.84543 0
M  V30 17043 N 1612.61 1.50847 -0.456408 0
M  V30 17044 C 1614.02 1.867 0.00222532 0
M  V30 17045 C 1614.37 1.37229 1.40224 0
M  V30 17046 O 1613.49 0.731052 2.03678 0
M  V30 17047 C 1614.09 3.38798 0.0108142 0
M  V30 17048 C 1612.65 3.74117 0.413924 0
M  V30 17049 C 1611.8 2.74671 -0.380933 0
M  V30 17050 H 1614.75 1.43799 -0.671379 0
M  V30 17051 H 1614.77 3.71642 0.816217 0
M  V30 17052 H 1614.28 3.74774 -1.00826 0
M  V30 17053 H 1612.38 3.43737 1.43789 0
M  V30 17054 H 1612.49 4.78936 0.125471 0
M  V30 17055 H 1610.86 2.54175 0.163385 0
M  V30 17056 H 1611.64 3.1349 -1.39924 0
M  V30 17057 N 1614.09 0.188454 1.56469 0
M  V30 17058 C 1615.33 -0.454307 1.99287 0
M  V30 17059 C 1615.69 -1.59256 1.07245 0
M  V30 17060 O 1616.89 -2.29905 1.39273 0
M  V30 17061 C 1615.16 -0.908909 3.4565 0
M  V30 17062 S 1616.72 -1.55044 4.10496 0
M  V30 17063 H 1613.54 -0.145527 0.695948 0
M  V30 17064 H 1616.14 0.289956 1.93338 0
M  V30 17065 H 1614.84 -0.0703211 4.1034 0
M  V30 17066 H 1614.38 -1.6868 3.55402 0
M  V30 17067 H 1616.39 -2.83905 4.06955 0
M  V30 17068 N 1615.56 -1.5737 -0.0851874 0
M  V30 17069 C 1616.79 -1.90802 -0.800137 0
M  V30 17070 C 1617.21 -0.783132 -1.71792 0
M  V30 17071 O 1616.56 0.244331 -1.80857 0
M  V30 17072 C 1616.61 -3.2391 -1.60513 0
M  V30 17073 O 1616.34 -4.32072 -0.724253 0
M  V30 17074 C 1617.84 -3.7127 -2.42226 0
M  V30 17075 H 1615.06 -0.630988 -0.228242 0
M  V30 17076 H 1617.6 -2.04414 -0.0594587 0
M  V30 17077 H 1615.76 -3.11867 -2.29822 0
M  V30 17078 H 1616.17 -5.08571 -1.28279 0
M  V30 17079 H 1617.64 -4.67074 -2.94187 0
M  V30 17080 H 1618.12 -2.99606 -3.21143 0
M  V30 17081 H 1618.73 -3.86214 -1.78099 0
M  V30 17082 N 1617.04 0.356258 -1.53521 0
M  V30 17083 C 1618.29 1.09526 -1.69372 0
M  V30 17084 C 1618.6 1.90189 -0.456912 0
M  V30 17085 O 1619.81 2.66928 -0.496141 0
M  V30 17086 C 1618.27 1.99643 -2.99451 0
M  V30 17087 C 1617.87 1.24248 -4.30426 0
M  V30 17088 C 1619.62 2.73478 -3.24669 0
M  V30 17089 C 1617.52 2.13321 -5.51587 0
M  V30 17090 H 1616.45 0.412594 -0.631096 0
M  V30 17091 H 1619.11 0.355603 -1.80021 0
M  V30 17092 H 1617.49 2.77377 -2.82627 0
M  V30 17093 H 1618.66 0.515123 -4.57912 0
M  V30 17094 H 1616.98 0.622355 -4.11723 0
M  V30 17095 H 1619.57 3.40366 -4.12377 0
M  V30 17096 H 1619.92 3.39355 -2.4113 0
M  V30 17097 H 1620.45 2.02823 -3.4221 0
M  V30 17098 H 1617.19 1.52006 -6.37632 0
M  V30 17099 H 1616.71 2.8388 -5.28368 0
M  V30 17100 H 1618.39 2.72666 -5.86739 0
M  V30 17101 N 1618.52 1.45038 0.616577 0
M  V30 17102 C 1619.77 1.48585 1.37582 0
M  V30 17103 C 1620.09 0.124065 1.94104 0
M  V30 17104 O 1619.35 -0.876112 1.74994 0
M  V30 17105 C 1619.65 2.50545 2.54876 0
M  V30 17106 C 1619.31 3.95493 2.16555 0
M  V30 17107 C 1617.98 4.34963 2.05818 0
M  V30 17108 C 1620.33 4.86685 1.86512 0
M  V30 17109 C 1617.66 5.63531 1.63246 0
M  V30 17110 C 1620.01 6.15657 1.4543 0
M  V30 17111 C 1618.67 6.54066 1.33244 0
M  V30 17112 H 1617.94 0.543711 0.503447 0
M  V30 17113 H 1620.59 1.78334 0.697787 0
M  V30 17114 H 1618.89 2.14332 3.27977 0
M  V30 17115 H 1620.59 2.50531 3.13106 0
M  V30 17116 H 1617.18 3.64275 2.25836 0
M  V30 17117 H 1621.37 4.56936 1.9371 0
M  V30 17118 H 1616.62 5.92094 1.52427 0
M  V30 17119 H 1620.8 6.85768 1.21226 0
M  V30 17120 H 1618.42 7.5359 1.0003 0
M  V30 17121 N 1620 -0.858287 1.32179 0
M  V30 17122 C 1620.93 -1.97304 1.16636 0
M  V30 17123 C 1621.94 -1.62478 0.102311 0
M  V30 17124 O 1623.13 -1.75016 0.350926 0
M  V30 17125 C 1620.23 -3.30215 0.762337 0
M  V30 17126 C 1619.4 -3.93305 1.9139 0
M  V30 17127 C 1618.46 -5.04545 1.49402 0
M  V30 17128 O 1617.49 -5.24735 2.20548 0
M  V30 17129 N 1618.69 -5.79202 0.387984 0
M  V30 17130 H 1621.46 -2.11179 2.12658 0
M  V30 17131 H 1619.02 -1.03294 1.24668 0
M  V30 17132 H 1621.01 -4.02032 0.463922 0
M  V30 17133 H 1619.58 -3.12418 -0.10662 0
M  V30 17134 H 1618.8 -3.1432 2.37901 0
M  V30 17135 H 1620.09 -4.32192 2.68492 0
M  V30 17136 H 1619.49 -5.65331 -0.204252 0
M  V30 17137 H 1618.04 -6.51629 0.149158 0
M  V30 17138 N 1621.48 -1.1533 -1.07409 0
M  V30 17139 C 1622.44 -0.852155 -2.1277 0
M  V30 17140 C 1623.44 0.14782 -1.60119 0
M  V30 17141 O 1624.63 -0.0817436 -1.74008 0
M  V30 17142 C 1621.76 -0.272233 -3.39811 0
M  V30 17143 H 1622.95 -1.78604 -2.40917 0
M  V30 17144 H 1620.51 -0.960698 -1.23289 0
M  V30 17145 H 1621.24 0.669873 -3.17306 0
M  V30 17146 H 1621.03 -0.992629 -3.79327 0
M  V30 17147 H 1622.52 -0.0790986 -4.17525 0
M  V30 17148 N 1622.95 1.25748 -0.950004 0
M  V30 17149 C 1624.2 1.93336 -0.602294 0
M  V30 17150 C 1624.53 1.74454 0.859994 0
M  V30 17151 O 1623.78 1.08032 1.6318 0
M  V30 17152 C 1624.08 3.45843 -0.901521 0
M  V30 17153 C 1623.75 3.84874 -2.3491 0
M  V30 17154 C 1622.41 3.9524 -2.74479 0
M  V30 17155 C 1624.76 4.04286 -3.28941 0
M  V30 17156 C 1622.09 4.22422 -4.07157 0
M  V30 17157 C 1624.44 4.32959 -4.61225 0
M  V30 17158 C 1623.11 4.41541 -5.00597 0
M  V30 17159 H 1622.38 0.707465 -0.220395 0
M  V30 17160 H 1625.02 1.49386 -1.19817 0
M  V30 17161 H 1623.33 3.91164 -0.2232 0
M  V30 17162 H 1625.03 3.96316 -0.611134 0
M  V30 17163 H 1621.62 3.77358 -2.03221 0
M  V30 17164 H 1625.8 3.95697 -2.99563 0
M  V30 17165 H 1621.06 4.27281 -4.37311 0
M  V30 17166 H 1625.23 4.46925 -5.3407 0
M  V30 17167 H 1622.86 4.62358 -6.03431 0
M  V30 17168 N 1624.43 0.718038 1.40292 0
M  V30 17169 C 1625.38 0.0670495 2.30703 0
M  V30 17170 C 1626.35 -0.747716 1.48319 0
M  V30 17171 O 1627.53 -0.711161 1.77051 0
M  V30 17172 C 1624.67 -0.846918 3.34546 0
M  V30 17173 C 1623.79 -0.0213622 4.31995 0
M  V30 17174 C 1622.92 -0.935035 5.22906 0
M  V30 17175 C 1621.96 -0.103715 6.12012 0
M  V30 17176 N 1621.1 -0.972397 6.95334 0
M  V30 17177 H 1625.94 0.843724 2.85806 0
M  V30 17178 H 1623.47 0.427756 1.40743 0
M  V30 17179 H 1625.43 -1.39109 3.93325 0
M  V30 17180 H 1624.06 -1.58975 2.80939 0
M  V30 17181 H 1623.11 0.640026 3.74977 0
M  V30 17182 H 1624.43 0.62215 4.94905 0
M  V30 17183 H 1623.58 -1.54766 5.86628 0
M  V30 17184 H 1622.32 -1.61236 4.60276 0
M  V30 17185 H 1621.32 0.521826 5.47318 0
M  V30 17186 H 1622.55 0.570146 6.76702 0
M  V30 17187 H 1620.5 -1.63533 6.3529 0
M  V30 17188 H 1620.41 -0.384977 7.55019 0
M  V30 17189 H 1621.68 -1.57112 7.63503 0
M  V30 17190 N 1625.91 -1.50602 0.464402 0
M  V30 17191 C 1627.14 -2.06401 -0.0906449 0
M  V30 17192 C 1627.55 -1.32913 -1.3465 0
M  V30 17193 O 1626.89 -0.389959 -1.79513 0
M  V30 17194 C 1626.95 -3.56655 -0.451375 0
M  V30 17195 C 1626.62 -4.51584 0.701504 0
M  V30 17196 C 1627.61 -4.95259 1.5816 0
M  V30 17197 C 1625.3 -4.94354 0.88993 0
M  V30 17198 C 1627.29 -5.80404 2.63458 0
M  V30 17199 C 1624.98 -5.79283 1.94615 0
M  V30 17200 C 1625.98 -6.22208 2.81684 0
M  V30 17201 O 1625.67 -7.05446 3.85489 0
M  V30 17202 H 1625.4 -0.676 0.000751268 0
M  V30 17203 H 1627.95 -1.94836 0.650235 0
M  V30 17204 H 1626.18 -3.66098 -1.24535 0
M  V30 17205 H 1627.87 -3.94848 -0.940722 0
M  V30 17206 H 1628.64 -4.6289 1.44768 0
M  V30 17207 H 1624.52 -4.60467 0.221708 0
M  V30 17208 H 1628.06 -6.13829 3.3145 0
M  V30 17209 H 1623.96 -6.11064 2.08016 0
M  V30 17210 H 1624.73 -7.23682 3.82396 0
M  V30 17211 N 1627.39 -0.19675 -1.56367 0
M  V30 17212 C 1628.62 0.446491 -2.01718 0
M  V30 17213 C 1629.03 1.55621 -1.07604 0
M  V30 17214 O 1628.37 1.83553 -0.0733943 0
M  V30 17215 C 1628.43 1.06182 -3.43461 0
M  V30 17216 C 1628.1 0.0906278 -4.5691 0
M  V30 17217 C 1629.09 -0.700599 -5.15158 0
M  V30 17218 C 1626.78 -0.0209341 -5.02296 0
M  V30 17219 C 1628.77 -1.59034 -6.17241 0
M  V30 17220 C 1626.46 -0.91423 -6.04223 0
M  V30 17221 C 1627.46 -1.6975 -6.61569 0
M  V30 17222 O 1627.14 -2.57582 -7.61516 0
M  V30 17223 H 1626.88 0.116254 -0.665929 0
M  V30 17224 H 1629.43 -0.303224 -2.03149 0
M  V30 17225 H 1627.66 1.86015 -3.39021 0
M  V30 17226 H 1629.35 1.60988 -3.72609 0
M  V30 17227 H 1630.12 -0.624723 -4.8096 0
M  V30 17228 H 1625.99 0.578557 -4.57355 0
M  V30 17229 H 1629.54 -2.20215 -6.6193 0
M  V30 17230 H 1625.44 -0.991215 -6.37844 0
M  V30 17231 H 1626.2 -2.5138 -7.78942 0
M  V30 17232 N 1628.87 1.57413 0.0768405 0
M  V30 17233 C 1629.8 2.06378 1.09226 0
M  V30 17234 C 1630.78 0.956269 1.40675 0
M  V30 17235 O 1631.96 1.22868 1.5039 0
M  V30 17236 C 1629.09 2.50349 2.40712 0
M  V30 17237 C 1628.05 3.64931 2.23628 0
M  V30 17238 C 1627.37 3.9494 3.60453 0
M  V30 17239 C 1628.67 4.95162 1.66169 0
M  V30 17240 H 1630.37 2.91463 0.684827 0
M  V30 17241 H 1627.91 1.40215 0.327974 0
M  V30 17242 H 1629.87 2.83216 3.12036 0
M  V30 17243 H 1628.59 1.62287 2.83426 0
M  V30 17244 H 1627.25 3.32339 1.54747 0
M  V30 17245 H 1626.9 3.04016 4.00728 0
M  V30 17246 H 1626.6 4.72091 3.49863 0
M  V30 17247 H 1628.12 4.30299 4.33215 0
M  V30 17248 H 1629.53 5.26292 2.27353 0
M  V30 17249 H 1627.93 5.76601 1.66289 0
M  V30 17250 H 1629 4.80885 0.62271 0
M  V30 17251 N 1630.34 -0.348112 1.53707 0
M  V30 17252 C 1631.62 -1.1056 1.61356 0
M  V30 17253 C 1632 -2.06633 0.431955 0
M  V30 17254 O 1631.35 -2.21115 -0.576211 0
M  V30 17255 C 1631.56 -1.82929 2.97217 0
M  V30 17256 C 1632.91 -2.36837 3.52411 0
M  V30 17257 O 1633.93 -1.93032 2.99361 0
M  V30 17258 O 1632.79 -3.16966 4.45191 0
M  V30 17259 H 1629.88 -0.50817 0.652451 0
M  V30 17260 H 1632.43 -0.349971 1.66052 0
M  V30 17261 H 1631.2 -1.12912 3.74655 0
M  V30 17262 H 1630.83 -2.65361 2.9609 0
M  V30 17263 N 1631.82 -1.45363 -0.608876 0
M  V30 17264 C 1633.07 -1.48586 -1.364 0
M  V30 17265 C 1633.38 -0.131213 -1.95159 0
M  V30 17266 O 1634.59 -0.0410845 -2.71469 0
M  V30 17267 C 1633.05 -2.61694 -2.47071 0
M  V30 17268 C 1632.65 -4.03466 -1.94729 0
M  V30 17269 C 1634.4 -2.74162 -3.24091 0
M  V30 17270 C 1632.31 -5.07958 -3.02874 0
M  V30 17271 H 1631.24 -0.552893 -0.512665 0
M  V30 17272 H 1633.89 -1.71499 -0.65271 0
M  V30 17273 H 1632.27 -2.32062 -3.20879 0
M  V30 17274 H 1633.44 -4.4277 -1.27638 0
M  V30 17275 H 1631.76 -3.95436 -1.30457 0
M  V30 17276 H 1634.35 -3.494 -4.04752 0
M  V30 17277 H 1634.7 -1.80751 -3.75013 0
M  V30 17278 H 1635.23 -3.03313 -2.57383 0
M  V30 17279 H 1631.97 -6.03073 -2.56871 0
M  V30 17280 H 1631.49 -4.73225 -3.68535 0
M  V30 17281 H 1633.17 -5.3265 -3.67277 0
M  V30 17282 N 1633.3 0.851265 -1.32632 0
M  V30 17283 C 1634.53 1.63805 -1.26394 0
M  V30 17284 C 1634.94 1.88056 0.167454 0
M  V30 17285 O 1634.3 1.45196 1.10564 0
M  V30 17286 C 1634.35 2.9954 -2.02381 0
M  V30 17287 O 1634.07 2.76361 -3.39935 0
M  V30 17288 C 1635.57 3.93982 -2.03207 0
M  V30 17289 H 1632.79 0.510088 -0.435948 0
M  V30 17290 H 1635.34 1.06123 -1.74809 0
M  V30 17291 H 1633.49 3.53859 -1.5768 0
M  V30 17292 H 1633.91 3.62708 -3.78871 0
M  V30 17293 H 1635.38 4.86478 -2.60851 0
M  V30 17294 H 1635.86 4.27211 -1.01918 0
M  V30 17295 H 1636.46 3.45601 -2.47871 0
M  V30 17296 N 1634.78 1.15898 1.06796 0
M  V30 17297 C 1636.01 0.961372 1.83208 0
M  V30 17298 C 1636.42 -0.490392 1.8232 0
M  V30 17299 O 1635.78 -1.34025 1.2387 0
M  V30 17300 C 1635.83 1.47486 3.30045 0
M  V30 17301 O 1635.55 2.86976 3.31023 0
M  V30 17302 C 1637.05 1.31955 4.23205 0
M  V30 17303 H 1634.27 0.34109 0.57784 0
M  V30 17304 H 1636.82 1.53805 1.34775 0
M  V30 17305 H 1634.97 0.940586 3.75808 0
M  V30 17306 H 1635.38 3.1038 4.22805 0
M  V30 17307 H 1636.86 1.72721 5.24282 0
M  V30 17308 H 1637.34 0.264439 4.38403 0
M  V30 17309 H 1637.94 1.84319 3.83284 0
M  V30 17310 N 1636.26 -1.25243 0.956659 0
M  V30 17311 C 1637.67 -1.74909 0.652979 0
M  V30 17312 C 1638.02 -1.77704 -0.831605 0
M  V30 17313 O 1637.14 -1.39921 -1.65079 0
M  V30 17314 C 1637.74 -3.17639 1.1786 0
M  V30 17315 C 1636.3 -3.64856 0.925034 0
M  V30 17316 C 1635.44 -2.43844 1.32044 0
M  V30 17317 H 1638.4 -1.11101 1.13324 0
M  V30 17318 H 1638.42 -3.76654 0.539633 0
M  V30 17319 H 1637.93 -3.15572 2.25911 0
M  V30 17320 H 1636.03 -3.72335 -0.14043 0
M  V30 17321 H 1636.14 -4.5289 1.56292 0
M  V30 17322 H 1634.51 -2.43749 0.738813 0
M  V30 17323 H 1635.29 -2.44466 2.41021 0
M  V30 17324 N 1637.73 -0.725468 -1.3991 0
M  V30 17325 C 1639.15 -0.340415 -1.8357 0
M  V30 17326 C 1639.5 1.1266 -1.6063 0
M  V30 17327 O 1638.62 1.86804 -1.0924 0
M  V30 17328 C 1639.22 -0.611079 -3.33244 0
M  V30 17329 C 1637.78 -0.279627 -3.7536 0
M  V30 17330 C 1636.92 -0.878498 -2.63017 0
M  V30 17331 H 1639.87 -0.923856 -1.29037 0
M  V30 17332 H 1639.89 0.120377 -3.8031 0
M  V30 17333 H 1639.41 -1.67886 -3.49908 0
M  V30 17334 H 1637.51 0.782703 -3.64286 0
M  V30 17335 H 1637.62 -0.755528 -4.73105 0
M  V30 17336 H 1635.98 -0.305813 -2.52857 0
M  V30 17337 H 1636.77 -1.95075 -2.8249 0
M  V30 17338 N 1639.21 1.50354 -0.472382 0
M  V30 17339 C 1640.44 2.06746 0.0798134 0
M  V30 17340 C 1640.86 1.3361 1.33393 0
M  V30 17341 O 1640.21 0.405765 1.77932 0
M  V30 17342 C 1640.26 3.59636 0.3666 0
M  V30 17343 O 1639.98 4.30015 -0.837776 0
M  V30 17344 C 1641.49 4.32655 0.965618 0
M  V30 17345 H 1638.71 0.670956 -0.00765904 0
M  V30 17346 H 1641.25 1.93504 -0.661535 0
M  V30 17347 H 1639.4 3.72676 1.05788 0
M  V30 17348 H 1639.82 5.21248 -0.583161 0
M  V30 17349 H 1641.29 5.406 1.11604 0
M  V30 17350 H 1641.77 3.93237 1.95606 0
M  V30 17351 H 1642.38 4.24149 0.312676 0
M  V30 17352 N 1640.69 0.205039 1.56261 0
M  V30 17353 C 1642.1 -0.305792 1.84179 0
M  V30 17354 C 1642.45 -1.60672 1.126 0
M  V30 17355 O 1641.58 -2.12855 0.390118 0
M  V30 17356 C 1642.17 -0.561596 3.34113 0
M  V30 17357 C 1640.73 -1.01677 3.62407 0
M  V30 17358 C 1639.88 -0.0707844 2.7721 0
M  V30 17359 H 1642.83 0.428609 1.52803 0
M  V30 17360 H 1642.85 -1.40969 3.53423 0
M  V30 17361 H 1642.36 0.38541 3.86182 0
M  V30 17362 H 1640.46 -1.97771 3.1578 0
M  V30 17363 H 1640.58 -0.902607 4.70521 0
M  V30 17364 H 1638.94 -0.574529 2.48136 0
M  V30 17365 H 1639.72 0.870844 3.32071 0
M  V30 17366 N 1642.17 -1.57451 -0.0684915 0
M  V30 17367 C 1643.1 -2.06954 -1.0813 0
M  V30 17368 C 1644.08 -0.963716 -1.40166 0
M  V30 17369 O 1645.27 -1.23664 -1.49736 0
M  V30 17370 C 1642.4 -2.51622 -2.39381 0
M  V30 17371 C 1641.35 -3.66111 -2.2169 0
M  V30 17372 C 1640.68 -3.96846 -3.58354 0
M  V30 17373 C 1641.98 -4.96036 -1.63541 0
M  V30 17374 H 1643.67 -2.91822 -0.66936 0
M  V30 17375 H 1641.22 -1.40387 -0.320533 0
M  V30 17376 H 1643.17 -2.84867 -3.1053 0
M  V30 17377 H 1641.89 -1.63788 -2.82562 0
M  V30 17378 H 1640.55 -3.33155 -1.52982 0
M  V30 17379 H 1640.2 -3.06137 -3.9911 0
M  V30 17380 H 1639.9 -4.73939 -3.47354 0
M  V30 17381 H 1641.42 -4.3259 -4.30927 0
M  V30 17382 H 1642.84 -5.27491 -2.24559 0
M  V30 17383 H 1641.23 -5.77474 -1.63228 0
M  V30 17384 H 1642.3 -4.81208 -0.597199 0
M  V30 17385 N 1643.65 0.339955 -1.5389 0
M  V30 17386 C 1644.58 1.43837 -1.78448 0
M  V30 17387 C 1645.59 1.48559 -0.665885 0
M  V30 17388 O 1646.78 1.51577 -0.942686 0
M  V30 17389 C 1643.88 2.82474 -1.87248 0
M  V30 17390 C 1643.05 3.01149 -3.17219 0
M  V30 17391 C 1642.11 4.20049 -3.16931 0
M  V30 17392 O 1641.14 4.13994 -3.90638 0
M  V30 17393 N 1642.34 5.28767 -2.39553 0
M  V30 17394 H 1645.11 1.2314 -2.73234 0
M  V30 17395 H 1642.67 0.529855 -1.52984 0
M  V30 17396 H 1644.66 3.60196 -1.84502 0
M  V30 17397 H 1643.23 2.96297 -0.996322 0
M  V30 17398 H 1642.45 2.10867 -3.3306 0
M  V30 17399 H 1643.74 3.10511 -4.03063 0
M  V30 17400 H 1643.14 5.36557 -1.79228 0
M  V30 17401 H 1641.69 6.04969 -2.42601 0
M  V30 17402 N 1645.13 1.45684 0.601159 0
M  V30 17403 C 1646.06 1.57694 1.72206 0
M  V30 17404 C 1647.04 0.428141 1.64624 0
M  V30 17405 O 1648.22 0.65209 1.82925 0
M  V30 17406 C 1645.35 1.54941 3.10822 0
M  V30 17407 C 1644.31 2.68603 3.33222 0
M  V30 17408 C 1643.63 2.50906 4.72176 0
M  V30 17409 C 1644.93 4.10568 3.22849 0
M  V30 17410 H 1646.63 2.51521 1.62412 0
M  V30 17411 H 1644.17 1.2105 0.779929 0
M  V30 17412 H 1646.12 1.61939 3.89042 0
M  V30 17413 H 1644.85 0.576471 3.21472 0
M  V30 17414 H 1643.51 2.61043 2.57394 0
M  V30 17415 H 1643.16 1.51736 4.79568 0
M  V30 17416 H 1642.86 3.27131 4.88118 0
M  V30 17417 H 1644.38 2.59767 5.52588 0
M  V30 17418 H 1645.79 4.19336 3.90935 0
M  V30 17419 H 1644.19 4.87234 3.50318 0
M  V30 17420 H 1645.26 4.32022 2.20192 0
M  V30 17421 N 1646.6 -0.84422 1.33082 0
M  V30 17422 C 1647.54 -1.96055 1.18722 0
M  V30 17423 C 1648.55 -1.62361 0.119538 0
M  V30 17424 O 1649.74 -1.74634 0.369469 0
M  V30 17425 C 1646.84 -3.29387 0.797318 0
M  V30 17426 C 1646.01 -3.91253 1.95551 0
M  V30 17427 C 1645.07 -5.02932 1.54745 0
M  V30 17428 O 1644.1 -5.22367 2.26101 0
M  V30 17429 N 1645.3 -5.78758 0.449394 0
M  V30 17430 H 1648.06 -2.08912 2.14886 0
M  V30 17431 H 1645.62 -1.01966 1.25756 0
M  V30 17432 H 1647.62 -4.01517 0.506536 0
M  V30 17433 H 1646.19 -3.12514 -0.0734775 0
M  V30 17434 H 1645.41 -3.11779 2.41221 0
M  V30 17435 H 1646.69 -4.2932 2.73061 0
M  V30 17436 H 1646.09 -5.65516 -0.14428 0
M  V30 17437 H 1644.65 -6.51434 0.218264 0
M  V30 17438 N 1648.08 -1.16463 -1.0618 0
M  V30 17439 C 1649.01 -0.829995 -2.13644 0
M  V30 17440 C 1650.03 0.16326 -1.61979 0
M  V30 17441 O 1651.22 -0.0616575 -1.78393 0
M  V30 17442 C 1648.32 -0.215222 -3.38216 0
M  V30 17443 C 1647.49 -1.24886 -4.19192 0
M  V30 17444 C 1646.55 -0.653683 -5.22124 0
M  V30 17445 O 1645.57 -1.32285 -5.53615 0
M  V30 17446 N 1646.78 0.559031 -5.77802 0
M  V30 17447 H 1649.54 -1.75487 -2.42949 0
M  V30 17448 H 1647.1 -1.06212 -1.22191 0
M  V30 17449 H 1649.09 0.196005 -4.04225 0
M  V30 17450 H 1647.66 0.613229 -3.06526 0
M  V30 17451 H 1646.88 -1.83622 -3.48822 0
M  V30 17452 H 1648.17 -1.94639 -4.70099 0
M  V30 17453 H 1647.57 1.12083 -5.54485 0
M  V30 17454 H 1646.13 0.912453 -6.45382 0
M  V30 17455 N 1649.56 1.24734 -0.963288 0
M  V30 17456 C 1650.81 1.92686 -0.622766 0
M  V30 17457 C 1651.13 1.75357 0.841442 0
M  V30 17458 O 1650.39 1.09757 1.62025 0
M  V30 17459 C 1650.69 3.44867 -0.938151 0
M  V30 17460 C 1650.35 3.82361 -2.38979 0
M  V30 17461 C 1649.02 3.92307 -2.78655 0
M  V30 17462 C 1651.37 4.00775 -3.3321 0
M  V30 17463 C 1648.7 4.1808 -4.11614 0
M  V30 17464 C 1651.05 4.28043 -4.65792 0
M  V30 17465 C 1649.71 4.36207 -5.05252 0
M  V30 17466 H 1648.98 0.705088 -0.227886 0
M  V30 17467 H 1651.63 1.48107 -1.21395 0
M  V30 17468 H 1649.93 3.90905 -0.264676 0
M  V30 17469 H 1651.63 3.95645 -0.653134 0
M  V30 17470 H 1648.22 3.75182 -2.07212 0
M  V30 17471 H 1652.41 3.92497 -3.03743 0
M  V30 17472 H 1647.66 4.22619 -4.41818 0
M  V30 17473 H 1651.84 4.41236 -5.3878 0
M  V30 17474 H 1649.46 4.55931 -6.08301 0
M  V30 17475 N 1651.04 0.732878 1.39523 0
M  V30 17476 C 1652 0.10004 2.28982 0
M  V30 17477 C 1653 -0.669361 1.46206 0
M  V30 17478 O 1654.19 -0.498694 1.66909 0
M  V30 17479 C 1651.32 -0.867616 3.29674 0
M  V30 17480 H 1652.52 0.88816 2.86447 0
M  V30 17481 H 1650.07 0.498578 1.48135 0
M  V30 17482 H 1650.8 -1.68217 2.77261 0
M  V30 17483 H 1650.59 -0.318577 3.90804 0
M  V30 17484 H 1652.08 -1.30704 3.96618 0
M  V30 17485 N 1652.52 -1.50101 0.480349 0
M  V30 17486 C 1653.74 -2.07278 -0.0710872 0
M  V30 17487 C 1654.17 -1.34082 -1.31923 0
M  V30 17488 O 1653.52 -0.391251 -1.77028 0
M  V30 17489 C 1653.57 -3.59099 -0.328706 0
M  V30 17490 O 1652.68 -3.8764 -1.40745 0
M  V30 17491 H 1652.02 -0.66378 0.0170748 0
M  V30 17492 H 1654.55 -1.93178 0.674049 0
M  V30 17493 H 1654.56 -4.04049 -0.566435 0
M  V30 17494 H 1653.23 -4.11789 0.583316 0
M  V30 17495 H 1651.81 -3.54519 -1.15631 0
M  V30 17496 N 1653.99 -0.213323 -1.5615 0
M  V30 17497 C 1654.92 0.695003 -2.22917 0
M  V30 17498 C 1655.9 1.20738 -1.19818 0
M  V30 17499 O 1657.09 1.25289 -1.48379 0
M  V30 17500 C 1654.22 1.90685 -2.9027 0
M  V30 17501 C 1653.17 1.52865 -3.9977 0
M  V30 17502 C 1652.5 2.81859 -4.54378 0
M  V30 17503 C 1653.8 0.724829 -5.17246 0
M  V30 17504 H 1655.49 0.138351 -2.9908 0
M  V30 17505 H 1653.04 0.0651029 -1.43853 0
M  V30 17506 H 1654.99 2.54766 -3.35667 0
M  V30 17507 H 1653.72 2.48833 -2.11541 0
M  V30 17508 H 1652.38 0.911336 -3.55092 0
M  V30 17509 H 1652.02 3.38135 -3.72389 0
M  V30 17510 H 1651.72 2.57291 -5.28275 0
M  V30 17511 H 1653.25 3.46897 -5.02489 0
M  V30 17512 H 1654.66 1.26915 -5.59076 0
M  V30 17513 H 1653.06 0.57656 -5.97324 0
M  V30 17514 H 1654.13 -0.270309 -4.84146 0
M  V30 17515 N 1655.47 1.57485 0.0601405 0
M  V30 17516 C 1656.44 2.03493 1.05467 0
M  V30 17517 C 1657.44 0.933816 1.30907 0
M  V30 17518 O 1658.63 1.19837 1.26431 0
M  V30 17519 C 1655.76 2.42549 2.39547 0
M  V30 17520 H 1656.95 2.92595 0.657893 0
M  V30 17521 H 1654.5 1.53272 0.306183 0
M  V30 17522 H 1655.24 1.56509 2.84034 0
M  V30 17523 H 1655.02 3.22911 2.22421 0
M  V30 17524 H 1656.51 2.7868 3.1101 0
M  V30 17525 N 1656.95 -0.331789 1.54068 0
M  V30 17526 C 1658.18 -1.09044 1.75832 0
M  V30 17527 C 1658.59 -1.81976 0.503012 0
M  V30 17528 O 1657.95 -1.74758 -0.525913 0
M  V30 17529 C 1658 -2.09489 2.94613 0
M  V30 17530 O 1657.72 -1.39521 4.1529 0
M  V30 17531 C 1659.22 -2.97637 3.28522 0
M  V30 17532 H 1656.44 -0.324701 0.587205 0
M  V30 17533 H 1658.99 -0.380417 2.00931 0
M  V30 17534 H 1657.14 -2.76038 2.71812 0
M  V30 17535 H 1657.56 -2.06717 4.82046 0
M  V30 17536 H 1659.03 -3.64027 4.14956 0
M  V30 17537 H 1659.51 -3.64292 2.45332 0
M  V30 17538 H 1660.11 -2.3666 3.53372 0
M  V30 17539 N 1658.43 -1.46001 -0.593424 0
M  V30 17540 C 1659.65 -1.54541 -1.38318 0
M  V30 17541 C 1660.08 -0.183555 -1.87202 0
M  V30 17542 O 1659.44 0.834407 -1.60958 0
M  V30 17543 C 1659.48 -2.54559 -2.55405 0
M  V30 17544 O 1658.59 -2.07321 -3.56499 0
M  V30 17545 H 1657.93 -0.520434 -0.412364 0
M  V30 17546 H 1660.46 -1.9148 -0.720862 0
M  V30 17547 H 1660.47 -2.73823 -3.02465 0
M  V30 17548 H 1659.14 -3.53461 -2.19176 0
M  V30 17549 H 1657.72 -1.97997 -3.15993 0
M  V30 17550 N 1659.91 0.83715 -1.33527 0
M  V30 17551 C 1660.82 1.97915 -1.25964 0
M  V30 17552 C 1661.83 1.73169 -0.169894 0
M  V30 17553 O 1663.01 1.97513 -0.393793 0
M  V30 17554 C 1660.07 3.31945 -1.00068 0
M  V30 17555 C 1659.13 3.69795 -2.1806 0
M  V30 17556 C 1658.37 4.97429 -1.9339 0
M  V30 17557 O 1658.59 5.63492 -0.885069 0
M  V30 17558 O 1657.52 5.32823 -2.79969 0
M  V30 17559 H 1661.35 2.07236 -2.22007 0
M  V30 17560 H 1658.94 0.970437 -1.13591 0
M  V30 17561 H 1660.82 4.12248 -0.873487 0
M  V30 17562 H 1659.49 3.23623 -0.0705475 0
M  V30 17563 H 1658.4 2.89995 -2.36334 0
M  V30 17564 H 1659.73 3.82784 -3.09414 0
M  V30 17565 N 1661.38 1.17024 1.05561 0
M  V30 17566 C 1662.33 0.88356 2.13218 0
M  V30 17567 C 1663.3 -0.171025 1.65217 0
M  V30 17568 O 1664.49 -0.0346242 1.90769 0
M  V30 17569 C 1661.63 0.398912 3.42787 0
M  V30 17570 C 1660.74 1.51718 4.04482 0
M  V30 17571 C 1659.87 0.986793 5.21954 0
M  V30 17572 C 1658.91 2.08077 5.75648 0
M  V30 17573 N 1658.05 1.56542 6.84426 0
M  V30 17574 H 1662.89 1.80548 2.37079 0
M  V30 17575 H 1660.43 0.90056 1.16311 0
M  V30 17576 H 1662.39 0.0995018 4.17081 0
M  V30 17577 H 1661.02 -0.48605 3.1912 0
M  V30 17578 H 1660.07 1.9324 3.27662 0
M  V30 17579 H 1661.38 2.34243 4.40377 0
M  V30 17580 H 1660.53 0.641006 6.03304 0
M  V30 17581 H 1659.27 0.130942 4.87524 0
M  V30 17582 H 1658.28 2.43517 4.9293 0
M  V30 17583 H 1659.5 2.94071 6.12127 0
M  V30 17584 H 1657.45 0.732221 6.51901 0
M  V30 17585 H 1657.37 2.32677 7.19303 0
M  V30 17586 H 1658.63 1.24844 7.69438 0
M  V30 17587 N 1662.86 -1.24221 0.969889 0
M  V30 17588 C 1663.77 -2.29001 0.509467 0
M  V30 17589 C 1664.79 -1.68587 -0.430637 0
M  V30 17590 O 1665.96 -1.99106 -0.303142 0
M  V30 17591 C 1663.03 -3.46174 -0.190906 0
M  V30 17592 C 1662.09 -4.21982 0.789296 0
M  V30 17593 C 1661.32 -5.3356 0.122252 0
M  V30 17594 O 1661.55 -5.59909 -1.08896 0
M  V30 17595 O 1660.48 -5.9635 0.815517 0
M  V30 17596 H 1664.31 -2.70506 1.38058 0
M  V30 17597 H 1661.89 -1.29955 0.737028 0
M  V30 17598 H 1663.77 -4.1733 -0.584244 0
M  V30 17599 H 1662.45 -3.06642 -1.03695 0
M  V30 17600 H 1661.36 -3.53192 1.23313 0
M  V30 17601 H 1662.69 -4.65337 1.60382 0
M  V30 17602 N 1664.34 -0.740267 -1.39132 0
M  V30 17603 C 1665.29 -0.103744 -2.30567 0
M  V30 17604 C 1666.26 0.724026 -1.49489 0
M  V30 17605 O 1667.44 0.682904 -1.7816 0
M  V30 17606 C 1664.58 0.793587 -3.35851 0
M  V30 17607 C 1663.7 -0.0473671 -4.31974 0
M  V30 17608 C 1662.83 0.851726 -5.24327 0
M  V30 17609 C 1661.87 0.00633633 -6.121 0
M  V30 17610 N 1661.01 0.861652 -6.96793 0
M  V30 17611 H 1665.85 -0.889087 -2.84428 0
M  V30 17612 H 1663.38 -0.450093 -1.40045 0
M  V30 17613 H 1665.34 1.32834 -3.95488 0
M  V30 17614 H 1663.97 1.54485 -2.83433 0
M  V30 17615 H 1663.02 -0.699601 -3.73911 0
M  V30 17616 H 1664.34 -0.700806 -4.93852 0
M  V30 17617 H 1663.49 1.45413 -5.89016 0
M  V30 17618 H 1662.23 1.53893 -4.62783 0
M  V30 17619 H 1661.23 -0.608833 -5.46419 0
M  V30 17620 H 1662.46 -0.677731 -6.7571 0
M  V30 17621 H 1660.4 1.53405 -6.37811 0
M  V30 17622 H 1660.32 0.264812 -7.55536 0
M  V30 17623 H 1661.59 1.44945 -7.65905 0
M  V30 17624 N 1665.82 1.49844 -0.488302 0
M  V30 17625 C 1666.75 2.26762 0.333396 0
M  V30 17626 C 1667.76 1.32785 0.941918 0
M  V30 17627 O 1668.95 1.58165 0.827407 0
M  V30 17628 C 1666.05 3.04721 1.48318 0
M  V30 17629 C 1665.23 4.26181 0.984303 0
M  V30 17630 C 1664.28 4.8629 2.01018 0
M  V30 17631 O 1663.31 5.4672 1.58384 0
M  V30 17632 N 1664.51 4.74813 3.33965 0
M  V30 17633 H 1667.28 2.97921 -0.32609 0
M  V30 17634 H 1664.84 1.58704 -0.320092 0
M  V30 17635 H 1666.83 3.4181 2.16676 0
M  V30 17636 H 1665.4 2.36251 2.04705 0
M  V30 17637 H 1664.62 3.93998 0.126039 0
M  V30 17638 H 1665.91 5.04895 0.62919 0
M  V30 17639 H 1665.31 4.26793 3.71301 0
M  V30 17640 H 1663.86 5.16122 3.98072 0
M  V30 17641 N 1667.3 0.221601 1.56034 0
M  V30 17642 C 1668.71 -0.133783 1.59038 0
M  V30 17643 C 1668.91 -1.58952 1.23841 0
M  V30 17644 O 1667.97 -2.32972 0.973677 0
M  V30 17645 C 1669.28 0.192549 3.00083 0
M  V30 17646 C 1670.83 0.134791 3.1271 0
M  V30 17647 C 1671.3 0.434799 4.55931 0
M  V30 17648 N 1672.8 0.384372 4.61602 0
M  V30 17649 C 1673.53 0.59 5.70357 0
M  V30 17650 N 1673.03 0.857405 6.87474 0
M  V30 17651 N 1674.82 0.522433 5.59667 0
M  V30 17652 H 1666.97 1.17124 1.77189 0
M  V30 17653 H 1669.23 0.46946 0.823597 0
M  V30 17654 H 1668.94 1.20292 3.30488 0
M  V30 17655 H 1668.81 -0.49243 3.73972 0
M  V30 17656 H 1671.2 -0.866221 2.821 0
M  V30 17657 H 1671.28 0.853247 2.4115 0
M  V30 17658 H 1670.93 1.43325 4.87258 0
M  V30 17659 H 1670.86 -0.304849 5.25717 0
M  V30 17660 H 1673.35 0.185389 3.77445 0
M  V30 17661 H 1673.66 1.00241 7.66271 0
M  V30 17662 H 1672 0.894599 6.89218 0
M  V30 17663 H 1675.2 0.313754 4.67047 0
M  V30 17664 H 1675.37 0.686094 6.44358 0
M  V30 17665 N 1668.77 -1.57515 -0.0517878 0
M  V30 17666 C 1669.7 -2.0809 -1.05929 0
M  V30 17667 C 1670.69 -0.978529 -1.39136 0
M  V30 17668 O 1671.87 -1.25245 -1.48416 0
M  V30 17669 C 1669 -2.54147 -2.36699 0
M  V30 17670 C 1667.95 -3.68442 -2.17794 0
M  V30 17671 C 1667.28 -4.00624 -3.54125 0
M  V30 17672 C 1668.58 -4.97743 -1.5827 0
M  V30 17673 H 1670.27 -2.92515 -0.638371 0
M  V30 17674 H 1667.82 -1.40719 -0.305625 0
M  V30 17675 H 1669.77 -2.88145 -3.07491 0
M  V30 17676 H 1668.5 -1.66775 -2.80809 0
M  V30 17677 H 1667.16 -3.34758 -1.4944 0
M  V30 17678 H 1666.8 -3.10353 -3.95841 0
M  V30 17679 H 1666.5 -4.77597 -3.42308 0
M  V30 17680 H 1668.03 -4.37136 -4.26315 0
M  V30 17681 H 1669.44 -5.29843 -2.18951 0
M  V30 17682 H 1667.84 -5.79173 -1.57094 0
M  V30 17683 H 1668.91 -4.81815 -0.546127 0
M  V30 17684 N 1670.25 0.323614 -1.54242 0
M  V30 17685 C 1671.18 1.40344 -1.86616 0
M  V30 17686 C 1672.16 1.53972 -0.722963 0
M  V30 17687 O 1673.35 1.67852 -0.976692 0
M  V30 17688 C 1670.48 2.77112 -2.09347 0
M  V30 17689 C 1669.43 2.78273 -3.25189 0
M  V30 17690 C 1668.76 4.18116 -3.33291 0
M  V30 17691 C 1670.06 2.42025 -4.6284 0
M  V30 17692 H 1671.75 1.13499 -2.77053 0
M  V30 17693 H 1669.3 0.544553 -1.33306 0
M  V30 17694 H 1671.25 3.52719 -2.3058 0
M  V30 17695 H 1669.98 3.05435 -1.1566 0
M  V30 17696 H 1668.64 2.05121 -3.03844 0
M  V30 17697 H 1668.28 4.4358 -2.37163 0
M  V30 17698 H 1667.98 4.19799 -4.11147 0
M  V30 17699 H 1669.51 4.95536 -3.56758 0
M  V30 17700 H 1670.92 3.07346 -4.83954 0
M  V30 17701 H 1669.32 2.5496 -5.43245 0
M  V30 17702 H 1670.39 1.37175 -4.65092 0
M  V30 17703 N 1671.73 1.46313 0.585673 0
M  V30 17704 C 1672.98 1.51694 1.34598 0
M  V30 17705 C 1673.31 0.166889 1.93482 0
M  V30 17706 O 1672.59 -0.821331 1.76308 0
M  V30 17707 C 1672.87 2.61322 2.47755 0
M  V30 17708 C 1672.72 4.05848 1.93926 0
M  V30 17709 C 1674.04 2.67058 3.49812 0
M  V30 17710 H 1671.16 0.552253 0.488043 0
M  V30 17711 H 1673.8 1.78235 0.658201 0
M  V30 17712 H 1671.95 2.38822 3.06425 0
M  V30 17713 H 1673.62 4.39626 1.39736 0
M  V30 17714 H 1671.87 4.15468 1.24775 0
M  V30 17715 H 1672.54 4.78279 2.75596 0
M  V30 17716 H 1675.01 2.87276 3.01018 0
M  V30 17717 H 1673.89 3.45589 4.2645 0
M  V30 17718 H 1674.15 1.72993 4.06849 0
M  V30 17719 N 1673.21 -0.830057 1.33969 0
M  V30 17720 C 1674.14 -1.95557 1.27592 0
M  V30 17721 C 1675.12 -1.69395 0.154745 0
M  V30 17722 O 1676.31 -1.91094 0.345954 0
M  V30 17723 C 1673.44 -3.31881 1.02335 0
M  V30 17724 C 1672.39 -3.72464 2.10842 0
M  V30 17725 C 1671.72 -5.06692 1.70785 0
M  V30 17726 C 1673.02 -3.85315 3.52604 0
M  V30 17727 H 1674.71 -2.0115 2.21763 0
M  V30 17728 H 1672.26 -0.96639 1.06756 0
M  V30 17729 H 1674.21 -4.10197 0.965206 0
M  V30 17730 H 1672.93 -3.26568 0.0460462 0
M  V30 17731 H 1671.59 -2.96417 2.15714 0
M  V30 17732 H 1671.24 -4.97859 0.717334 0
M  V30 17733 H 1670.94 -5.34817 2.43403 0
M  V30 17734 H 1672.46 -5.87474 1.66452 0
M  V30 17735 H 1673.88 -4.5392 3.50185 0
M  V30 17736 H 1672.27 -4.24886 4.23783 0
M  V30 17737 H 1673.34 -2.87514 3.90466 0
M  V30 17738 N 1674.69 -1.17582 -1.04939 0
M  V30 17739 C 1675.91 -0.99097 -1.82194 0
M  V30 17740 C 1676.34 0.455965 -1.8249 0
M  V30 17741 O 1675.7 1.32661 -1.23575 0
M  V30 17742 C 1675.74 -1.53971 -3.26076 0
M  V30 17743 O 1674.85 -0.755172 -4.05427 0
M  V30 17744 H 1674.19 -0.351669 -0.563227 0
M  V30 17745 H 1676.72 -1.56138 -1.3222 0
M  V30 17746 H 1676.73 -1.56307 -3.76872 0
M  V30 17747 H 1675.4 -2.59295 -3.25175 0
M  V30 17748 H 1673.98 -0.803423 -3.64142 0
M  V30 17749 N 1676.17 1.23705 -0.976463 0
M  V30 17750 C 1677.11 2.25023 -0.513156 0
M  V30 17751 C 1678.08 1.60003 0.445903 0
M  V30 17752 O 1679.27 1.87481 0.354323 0
M  V30 17753 C 1676.41 3.44619 0.182088 0
M  V30 17754 C 1675.52 4.24209 -0.816769 0
M  V30 17755 C 1674.66 5.31112 -0.0967355 0
M  V30 17756 C 1673.69 6.02406 -1.08507 0
M  V30 17757 N 1672.83 7.00991 -0.394455 0
M  V30 17758 H 1677.67 2.64019 -1.38194 0
M  V30 17759 H 1675.21 1.29777 -0.692566 0
M  V30 17760 H 1677.17 4.12835 0.601948 0
M  V30 17761 H 1675.8 3.06435 1.01477 0
M  V30 17762 H 1674.85 3.55448 -1.35503 0
M  V30 17763 H 1676.16 4.73445 -1.57006 0
M  V30 17764 H 1675.31 6.05504 0.380686 0
M  V30 17765 H 1674.05 4.82806 0.689187 0
M  V30 17766 H 1673.06 5.26809 -1.57328 0
M  V30 17767 H 1674.28 6.528 -1.87159 0
M  V30 17768 H 1672.23 6.54943 0.372331 0
M  V30 17769 H 1672.15 7.48152 -1.08647 0
M  V30 17770 H 1673.41 7.79476 0.0607087 0
M  V30 17771 N 1677.64 0.747635 1.38738 0
M  V30 17772 C 1678.89 0.300552 1.99853 0
M  V30 17773 C 1679.21 -1.11986 1.59638 0
M  V30 17774 O 1678.48 -1.76477 0.850447 0
M  V30 17775 H 1677.06 0.108134 0.739132 0
M  V30 17776 H 1679.72 0.960405 1.69594 0
M  V30 17777 H 1678.82 0.358956 3.10029 0
M  V30 17778 N 1679.12 -1.49583 0.496242 0
M  V30 17779 C 1680.05 -2.31885 -0.274139 0
M  V30 17780 C 1681.03 -1.39939 -0.96701 0
M  V30 17781 O 1682.22 -1.6885 -0.959333 0
M  V30 17782 C 1679.35 -3.20332 -1.34181 0
M  V30 17783 C 1678.3 -4.21033 -0.769091 0
M  V30 17784 C 1677.63 -4.98385 -1.93693 0
M  V30 17785 C 1678.93 -5.21764 0.236648 0
M  V30 17786 H 1680.62 -2.9654 0.412824 0
M  V30 17787 H 1678.17 -1.42605 0.199979 0
M  V30 17788 H 1680.12 -3.76718 -1.88843 0
M  V30 17789 H 1678.84 -2.53611 -2.05789 0
M  V30 17790 H 1677.5 -3.65785 -0.244252 0
M  V30 17791 H 1677.15 -4.28115 -2.64058 0
M  V30 17792 H 1676.85 -5.66519 -1.55981 0
M  V30 17793 H 1678.38 -5.57613 -2.48798 0
M  V30 17794 H 1679.79 -5.72871 -0.221672 0
M  V30 17795 H 1678.19 -5.97761 0.529346 0
M  V30 17796 H 1679.26 -4.70964 1.15415 0
M  V30 17797 N 1680.6 -0.229873 -1.55915 0
M  V30 17798 C 1681.53 0.70927 -2.1795 0
M  V30 17799 C 1682.54 1.15142 -1.15092 0
M  V30 17800 O 1683.73 1.08114 -1.42034 0
M  V30 17801 C 1680.83 1.97359 -2.75504 0
M  V30 17802 C 1680.01 1.68565 -4.03614 0
M  V30 17803 C 1679.07 2.79786 -4.45652 0
M  V30 17804 O 1678.09 2.479 -5.12381 0
M  V30 17805 N 1679.29 4.08921 -4.12024 0
M  V30 17806 H 1682.06 0.178573 -2.99168 0
M  V30 17807 H 1679.62 -0.0491789 -1.61825 0
M  V30 17808 H 1681.61 2.70972 -3.00593 0
M  V30 17809 H 1680.18 2.41454 -1.98542 0
M  V30 17810 H 1679.4 0.785547 -3.86294 0
M  V30 17811 H 1680.69 1.46769 -4.87172 0
M  V30 17812 H 1680.09 4.37667 -3.58419 0
M  V30 17813 H 1678.64 4.79052 -4.41987 0
M  V30 17814 N 1682.08 1.5754 0.0434337 0
M  V30 17815 C 1682.99 2.08996 1.06574 0
M  V30 17816 C 1684 1.02544 1.40573 0
M  V30 17817 O 1685.18 1.34192 1.50181 0
M  V30 17818 C 1682.24 2.54723 2.35196 0
M  V30 17819 C 1681.31 3.75595 2.0791 0
M  V30 17820 C 1680.54 4.19132 3.304 0
M  V30 17821 O 1680.76 3.62303 4.40559 0
M  V30 17822 O 1679.7 5.11694 3.16944 0
M  V30 17823 H 1683.52 2.96475 0.658503 0
M  V30 17824 H 1681.11 1.47129 0.259475 0
M  V30 17825 H 1682.99 2.84529 3.1084 0
M  V30 17826 H 1681.66 1.70361 2.75243 0
M  V30 17827 H 1680.57 3.5083 1.2988 0
M  V30 17828 H 1681.9 4.60897 1.72727 0
M  V30 17829 N 1683.56 -0.31543 1.54411 0
M  V30 17830 C 1684.79 -1.07018 1.76722 0
M  V30 17831 C 1685.19 -1.81921 0.519754 0
M  V30 17832 O 1684.54 -1.76201 -0.519501 0
M  V30 17833 C 1684.6 -2.10781 2.91224 0
M  V30 17834 C 1684.26 -1.55204 4.29838 0
M  V30 17835 C 1685.26 -0.989568 5.10395 0
M  V30 17836 C 1682.94 -1.59201 4.76403 0
M  V30 17837 C 1684.94 -0.474466 6.35632 0
M  V30 17838 C 1682.63 -1.07304 6.01605 0
M  V30 17839 C 1683.62 -0.51522 6.81054 0
M  V30 17840 O 1683.31 -0.00407259 8.039 0
M  V30 17841 H 1683.04 -0.323799 0.593406 0
M  V30 17842 H 1685.6 -0.364708 2.02136 0
M  V30 17843 H 1683.83 -2.84968 2.614 0
M  V30 17844 H 1685.52 -2.72043 3.01243 0
M  V30 17845 H 1686.28 -0.951691 4.75571 0
M  V30 17846 H 1682.16 -2.01559 4.14602 0
M  V30 17847 H 1685.71 -0.0384139 6.97589 0
M  V30 17848 H 1681.6 -1.10802 6.35919 0
M  V30 17849 H 1682.37 -0.118732 8.18414 0
M  V30 17850 N 1685.03 -1.46622 -0.577906 0
M  V30 17851 C 1685.94 -1.60143 -1.71439 0
M  V30 17852 C 1686.96 -0.484781 -1.6711 0
M  V30 17853 O 1688.14 -0.749551 -1.86932 0
M  V30 17854 C 1685.2 -1.59282 -3.07945 0
M  V30 17855 C 1684.26 -2.82216 -3.235 0
M  V30 17856 C 1683.5 -2.81387 -4.53495 0
M  V30 17857 O 1683.72 -1.90407 -5.37681 0
M  V30 17858 O 1682.65 -3.72991 -4.724 0
M  V30 17859 H 1686.48 -2.56265 -1.62978 0
M  V30 17860 H 1684.06 -1.2947 -0.745514 0
M  V30 17861 H 1685.95 -1.61515 -3.89218 0
M  V30 17862 H 1684.62 -0.663212 -3.16833 0
M  V30 17863 H 1683.53 -2.85536 -2.41702 0
M  V30 17864 H 1684.86 -3.74402 -3.19506 0
M  V30 17865 N 1686.51 0.822941 -1.34408 0
M  V30 17866 C 1687.42 1.96567 -1.28056 0
M  V30 17867 C 1688.44 1.72979 -0.188251 0
M  V30 17868 O 1689.61 1.97084 -0.41472 0
M  V30 17869 C 1686.68 3.30865 -1.03583 0
M  V30 17870 C 1685.74 3.67461 -2.2197 0
M  V30 17871 C 1684.97 4.9535 -1.98655 0
M  V30 17872 O 1685.2 5.62521 -0.944785 0
M  V30 17873 O 1684.13 5.29824 -2.85605 0
M  V30 17874 H 1687.96 2.0487 -2.24192 0
M  V30 17875 H 1685.54 0.958334 -1.14614 0
M  V30 17876 H 1687.42 4.11298 -0.917162 0
M  V30 17877 H 1686.1 3.2353 -0.104868 0
M  V30 17878 H 1685.01 2.87472 -2.39396 0
M  V30 17879 H 1686.34 3.79481 -3.13456 0
M  V30 17880 N 1687.99 1.18137 1.04314 0
M  V30 17881 C 1689.24 0.98666 1.77867 0
M  V30 17882 C 1689.59 -0.478878 1.86345 0
M  V30 17883 O 1688.88 -1.35094 1.35868 0
M  V30 17884 C 1689.08 1.57211 3.20966 0
M  V30 17885 C 1688.91 3.09305 3.26436 0
M  V30 17886 C 1687.68 3.78104 3.3521 0
M  V30 17887 C 1689.88 4.06817 3.1465 0
M  V30 17888 N 1687.86 5.17723 3.29903 0
M  V30 17889 C 1689.23 5.32943 3.16815 0
M  V30 17890 C 1691.28 3.98369 2.98675 0
M  V30 17891 C 1689.99 6.51601 3.04645 0
M  V30 17892 C 1692.01 5.1662 2.8785 0
M  V30 17893 C 1691.37 6.41638 2.90655 0
M  V30 17894 H 1687.47 0.415029 0.662778 0
M  V30 17895 H 1690.06 1.49871 1.24284 0
M  V30 17896 H 1688.23 1.08627 3.729 0
M  V30 17897 H 1689.96 1.31316 3.82803 0
M  V30 17898 H 1686.72 3.28825 3.40839 0
M  V30 17899 H 1687.14 5.90736 3.30695 0
M  V30 17900 H 1691.78 3.02549 2.95337 0
M  V30 17901 H 1689.5 7.47622 3.06735 0
M  V30 17902 H 1693.09 5.11872 2.76546 0
M  V30 17903 H 1691.97 7.31602 2.82363 0
M  V30 17904 N 1689.47 -1.23186 0.98301 0
M  V30 17905 C 1690.42 -2.24748 0.525082 0
M  V30 17906 C 1691.39 -1.60237 -0.437411 0
M  V30 17907 O 1692.57 -1.87666 -0.344376 0
M  V30 17908 C 1689.71 -3.44711 -0.163809 0
M  V30 17909 C 1688.82 -4.23769 0.839254 0
M  V30 17910 C 1687.96 -5.31053 0.1249 0
M  V30 17911 C 1687 -6.01822 1.117 0
M  V30 17912 N 1686.13 -7.00772 0.431625 0
M  V30 17913 H 1690.97 -2.63283 1.39593 0
M  V30 17914 H 1688.51 -1.29407 0.699438 0
M  V30 17915 H 1690.47 -4.13148 -0.580046 0
M  V30 17916 H 1689.1 -3.06969 -0.998507 0
M  V30 17917 H 1688.15 -3.54724 1.37386 0
M  V30 17918 H 1689.46 -4.72606 1.59515 0
M  V30 17919 H 1688.62 -6.05698 -0.348569 0
M  V30 17920 H 1687.36 -4.83165 -0.663573 0
M  V30 17921 H 1686.36 -5.25967 1.6012 0
M  V30 17922 H 1687.59 -6.51799 1.90618 0
M  V30 17923 H 1685.53 -6.55131 -0.337592 0
M  V30 17924 H 1685.45 -7.47566 1.12613 0
M  V30 17925 H 1686.72 -7.79498 -0.0193703 0
M  V30 17926 N 1690.95 -0.754982 -1.38339 0
M  V30 17927 C 1692.19 -0.321184 -2.00848 0
M  V30 17928 C 1692.55 1.08546 -1.58857 0
M  V30 17929 O 1691.84 1.7332 -0.816737 0
M  V30 17930 C 1692.03 -0.383719 -3.55334 0
M  V30 17931 C 1691.86 -1.7949 -4.12327 0
M  V30 17932 C 1690.63 -2.41176 -4.4403 0
M  V30 17933 C 1692.83 -2.75178 -4.3449 0
M  V30 17934 N 1690.81 -3.74241 -4.86638 0
M  V30 17935 C 1692.18 -3.93011 -4.79523 0
M  V30 17936 C 1694.24 -2.72683 -4.16592 0
M  V30 17937 C 1692.94 -5.0871 -5.08534 0
M  V30 17938 C 1694.97 -3.87541 -4.46728 0
M  V30 17939 C 1694.33 -5.04112 -4.91986 0
M  V30 17940 H 1690.43 -0.164217 -0.764563 0
M  V30 17941 H 1693.01 -0.985233 -1.67932 0
M  V30 17942 H 1691.18 0.250068 -3.87594 0
M  V30 17943 H 1692.92 0.0705302 -4.04639 0
M  V30 17944 H 1689.67 -1.9293 -4.32522 0
M  V30 17945 H 1690.1 -4.4261 -5.12275 0
M  V30 17946 H 1694.74 -1.8374 -3.80788 0
M  V30 17947 H 1692.46 -5.98266 -5.43234 0
M  V30 17948 H 1696.04 -3.86931 -4.34483 0
M  V30 17949 H 1694.92 -5.91514 -5.1486 0
M  V30 17950 N 1692.42 1.49318 -0.504168 0
M  V30 17951 C 1693.67 2.02062 0.039149 0
M  V30 17952 C 1693.99 1.38577 1.37191 0
M  V30 17953 O 1693.26 0.542179 1.88248 0
M  V30 17954 H 1691.84 0.746796 0.0174575 0
M  V30 17955 H 1694.51 1.83308 -0.66213 0
M  V30 17956 H 1693.6 3.11656 0.166496 0
M  V30 17957 N 1693.9 0.238138 1.5579 0
M  V30 17958 C 1694.85 -0.665098 2.21009 0
M  V30 17959 C 1695.82 -1.17793 1.17107 0
M  V30 17960 O 1697 -1.234 1.45523 0
M  V30 17961 C 1694.14 -1.86028 2.90667 0
M  V30 17962 C 1693.26 -1.3848 4.09203 0
M  V30 17963 C 1692.39 -2.53885 4.666 0
M  V30 17964 C 1691.43 -2.03155 5.77403 0
M  V30 17965 N 1690.57 -3.11895 6.2902 0
M  V30 17966 H 1695.41 -0.102242 2.97825 0
M  V30 17967 H 1692.95 -0.0387064 1.47049 0
M  V30 17968 H 1694.9 -2.56226 3.29248 0
M  V30 17969 H 1693.53 -2.39575 2.16341 0
M  V30 17970 H 1692.59 -0.577172 3.75996 0
M  V30 17971 H 1693.9 -0.972946 4.89219 0
M  V30 17972 H 1693.05 -3.32139 5.07709 0
M  V30 17973 H 1691.79 -2.98368 3.85782 0
M  V30 17974 H 1690.8 -1.23369 5.3578 0
M  V30 17975 H 1692.02 -1.59653 6.60067 0
M  V30 17976 H 1689.97 -3.55828 5.5111 0
M  V30 17977 H 1689.88 -2.75013 7.04204 0
M  V30 17978 H 1691.15 -3.90234 6.74787 0
M  V30 17979 N 1695.38 -1.57561 -0.0350783 0
M  V30 17980 C 1696.33 -2.07246 -1.05602 0
M  V30 17981 C 1697.32 -0.985013 -1.37818 0
M  V30 17982 O 1698.53 -1.16993 -1.36794 0
M  V30 17983 H 1694.9 -0.661286 -0.358057 0
M  V30 17984 H 1696.87 -2.92075 -0.611124 0
M  V30 17985 C 1695.62 -2.56235 -2.3503 0
M  V30 17986 H 1694.95 -3.39525 -2.111 0
M  V30 17987 H 1696.39 -2.94716 -3.04826 0
M  V30 17988 C 1694.85 -1.46096 -3.03575 0
M  V30 17989 O 1695.38 -0.823772 -3.93163 0
M  V30 17990 N 1693.58 -1.19698 -2.64803 0
M  V30 17991 H 1693.13 -1.71697 -1.92036 0
M  V30 17992 H 1693.09 -0.462174 -3.10984 0
M  V30 17993 N 1696.86 0.307236 -1.54576 0
M  V30 17994 C 1698.27 0.88064 -1.64626 0
M  V30 17995 C 1698.62 1.88308 -0.550865 0
M  V30 17996 O 1697.75 2.14116 0.313553 0
M  V30 17997 C 1698.34 1.60405 -2.98422 0
M  V30 17998 C 1696.9 2.12595 -3.10613 0
M  V30 17999 C 1696.05 0.956593 -2.60278 0
M  V30 18000 H 1699 0.0843939 -1.58475 0
M  V30 18001 H 1699.02 2.46925 -2.89496 0
M  V30 18002 H 1698.53 0.874209 -3.78126 0
M  V30 18003 H 1696.63 2.88644 -2.35617 0
M  V30 18004 H 1696.74 2.36475 -4.16673 0
M  V30 18005 H 1695.11 1.3404 -2.16576 0
M  V30 18006 H 1695.89 0.24081 -3.42454 0
M  V30 18007 N 1698.34 1.46926 0.570122 0
M  V30 18008 C 1699.56 1.5648 1.35358 0
M  V30 18009 C 1699.98 0.210356 1.87624 0
M  V30 18010 O 1699.34 -0.794388 1.64304 0
M  V30 18011 C 1699.39 2.57973 2.53243 0
M  V30 18012 O 1699.11 3.88157 2.03139 0
M  V30 18013 C 1700.61 2.77587 3.4563 0
M  V30 18014 H 1697.83 0.528787 0.413068 0
M  V30 18015 H 1700.37 1.9244 0.691895 0
M  V30 18016 H 1698.53 2.24982 3.15375 0
M  V30 18017 H 1698.94 4.43506 2.80004 0
M  V30 18018 H 1700.42 3.52495 4.24795 0
M  V30 18019 H 1700.89 1.84944 3.98362 0
M  V30 18020 H 1701.5 3.11724 2.89324 0
M  V30 18021 N 1699.82 -0.815801 1.34842 0
M  V30 18022 C 1701.06 -1.56747 1.26938 0
M  V30 18023 C 1701.38 -1.9497 -0.156887 0
M  V30 18024 O 1702.58 -2.69128 -0.358132 0
M  V30 18025 C 1701.04 -2.82832 2.22562 0
M  V30 18026 C 1700.65 -2.51883 3.70485 0
M  V30 18027 C 1702.39 -3.60849 2.23581 0
M  V30 18028 C 1700.3 -3.74204 4.57957 0
M  V30 18029 H 1699.23 -0.58832 0.471588 0
M  V30 18030 H 1701.88 -0.897551 1.60051 0
M  V30 18031 H 1700.26 -3.51486 1.8241 0
M  V30 18032 H 1701.44 -1.91294 4.19217 0
M  V30 18033 H 1699.75 -1.87129 3.71983 0
M  V30 18034 H 1702.35 -4.51686 2.86154 0
M  V30 18035 H 1702.69 -3.97496 1.23703 0
M  V30 18036 H 1703.22 -2.99146 2.62215 0
M  V30 18037 H 1699.96 -3.42672 5.58799 0
M  V30 18038 H 1699.48 -4.34051 4.13956 0
M  V30 18039 H 1701.16 -4.41536 4.72921 0
M  V30 18040 N 1701.29 -1.18689 -1.03686 0
M  V30 18041 C 1702.54 -0.98606 -1.77214 0
M  V30 18042 C 1702.87 0.482788 -1.88103 0
M  V30 18043 O 1702.15 1.3585 -1.39194 0
M  V30 18044 C 1702.43 -1.64611 -3.20274 0
M  V30 18045 C 1702.28 -3.18808 -3.17304 0
M  V30 18046 C 1703.6 -1.36251 -4.18478 0
M  V30 18047 H 1700.72 -0.359634 -0.643298 0
M  V30 18048 H 1703.36 -1.46412 -1.21094 0
M  V30 18049 H 1701.51 -1.23964 -3.68192 0
M  V30 18050 H 1703.19 -3.68615 -2.77346 0
M  V30 18051 H 1701.43 -3.50769 -2.55232 0
M  V30 18052 H 1702.1 -3.60131 -4.18341 0
M  V30 18053 H 1704.58 -1.71476 -3.79124 0
M  V30 18054 H 1703.45 -1.84997 -5.16786 0
M  V30 18055 H 1703.71 -0.286113 -4.41173 0
M  V30 18056 N 1702.77 1.22662 -0.989529 0
M  V30 18057 C 1703.68 2.28162 -0.545835 0
M  V30 18058 C 1704.7 1.69251 0.403762 0
M  V30 18059 O 1705.87 1.99563 0.271428 0
M  V30 18060 C 1702.94 3.46434 0.135808 0
M  V30 18061 C 1702 4.20673 -0.85633 0
M  V30 18062 C 1701.23 5.33298 -0.207121 0
M  V30 18063 O 1701.46 5.6157 0.99975 0
M  V30 18064 O 1700.39 5.94977 -0.910288 0
M  V30 18065 H 1704.22 2.68276 -1.42344 0
M  V30 18066 H 1701.8 1.28766 -0.757609 0
M  V30 18067 H 1703.68 4.18207 0.517776 0
M  V30 18068 H 1702.36 3.08252 0.988035 0
M  V30 18069 H 1701.26 3.51186 -1.28917 0
M  V30 18070 H 1702.6 4.62726 -1.67765 0
M  V30 18071 N 1704.25 0.762308 1.37937 0
M  V30 18072 C 1705.5 0.322846 2.00214 0
M  V30 18073 C 1705.83 -1.09513 1.60376 0
M  V30 18074 O 1705.1 -1.75165 0.845432 0
M  V30 18075 C 1705.39 0.455651 3.57206 0
M  V30 18076 C 1705.24 1.91537 4.06981 0
M  V30 18077 C 1706.56 -0.145758 4.39859 0
M  V30 18078 H 1703.68 0.118781 0.727365 0
M  V30 18079 H 1706.32 0.963585 1.63753 0
M  V30 18080 H 1704.47 -0.0898341 3.88396 0
M  V30 18081 H 1706.14 2.51983 3.86397 0
M  V30 18082 H 1704.38 2.42744 3.59524 0
M  V30 18083 H 1705.06 1.9594 5.16054 0
M  V30 18084 H 1707.53 0.31956 4.14871 0
M  V30 18085 H 1706.41 -0.0226441 5.48895 0
M  V30 18086 H 1706.67 -1.23504 4.24499 0
M  V30 18087 N 1705.73 -1.49049 0.51208 0
M  V30 18088 C 1706.66 -2.32163 -0.249529 0
M  V30 18089 C 1707.64 -1.40957 -0.952114 0
M  V30 18090 O 1708.82 -1.69858 -0.94137 0
M  V30 18091 C 1705.95 -3.21737 -1.30776 0
M  V30 18092 C 1704.91 -4.21825 -0.724392 0
M  V30 18093 C 1704.23 -5.00411 -1.88396 0
M  V30 18094 C 1705.53 -5.21483 0.291975 0
M  V30 18095 H 1707.23 -2.96086 0.444253 0
M  V30 18096 H 1704.77 -1.42385 0.215093 0
M  V30 18097 H 1706.73 -3.78699 -1.84837 0
M  V30 18098 H 1705.45 -2.55779 -2.03088 0
M  V30 18099 H 1704.11 -3.66024 -0.205441 0
M  V30 18100 H 1703.76 -4.30891 -2.59502 0
M  V30 18101 H 1703.46 -5.68141 -1.49964 0
M  V30 18102 H 1704.98 -5.6022 -2.42869 0
M  V30 18103 H 1706.4 -5.73074 -0.160899 0
M  V30 18104 H 1704.79 -5.97166 0.592717 0
M  V30 18105 H 1705.86 -4.69714 1.20404 0
M  V30 18106 N 1707.21 -0.246397 -1.55662 0
M  V30 18107 C 1708.12 0.664125 -2.25003 0
M  V30 18108 C 1709.13 1.19368 -1.26598 0
M  V30 18109 O 1710.31 1.23006 -1.59473 0
M  V30 18110 C 1707.37 1.8446 -2.93557 0
M  V30 18111 C 1706.43 1.35456 -4.0737 0
M  V30 18112 C 1705.67 2.47877 -4.72645 0
M  V30 18113 O 1705.89 3.66594 -4.36995 0
M  V30 18114 O 1704.82 2.17663 -5.61165 0
M  V30 18115 H 1708.65 0.103277 -3.03524 0
M  V30 18116 H 1706.23 -0.0149207 -1.49393 0
M  V30 18117 H 1708.12 2.53349 -3.36737 0
M  V30 18118 H 1706.79 2.39308 -2.17976 0
M  V30 18119 H 1705.7 0.632958 -3.68706 0
M  V30 18120 H 1707.03 0.852175 -4.84767 0
M  V30 18121 N 1708.68 1.57577 0.026722 0
M  V30 18122 C 1709.59 2.10114 1.04351 0
M  V30 18123 C 1710.61 1.04029 1.39477 0
M  V30 18124 O 1711.79 1.35778 1.48749 0
M  V30 18125 C 1708.85 2.57203 2.32481 0
M  V30 18126 C 1707.91 3.77779 2.03915 0
M  V30 18127 C 1707.14 4.22613 3.25936 0
M  V30 18128 O 1707.37 3.66955 4.36692 0
M  V30 18129 O 1706.3 5.15026 3.11499 0
M  V30 18130 H 1710.13 2.97157 0.627021 0
M  V30 18131 H 1707.71 1.47396 0.243855 0
M  V30 18132 H 1709.59 2.87809 3.07805 0
M  V30 18133 H 1708.27 1.7327 2.73421 0
M  V30 18134 H 1707.18 3.52188 1.26152 0
M  V30 18135 H 1708.51 4.62703 1.67829 0
M  V30 18136 N 1710.16 -0.299034 1.54737 0
M  V30 18137 C 1711.41 -1.034 1.74111 0
M  V30 18138 C 1711.74 -1.87197 0.527965 0
M  V30 18139 O 1710.99 -1.89465 -0.490052 0
M  V30 18140 C 1711.29 -1.9673 2.98382 0
M  V30 18141 C 1710.96 -1.28893 4.32085 0
M  V30 18142 C 1709.62 -1.10124 4.68429 0
M  V30 18143 C 1711.97 -0.804114 5.1496 0
M  V30 18144 C 1709.3 -0.415622 5.85226 0
M  V30 18145 C 1711.65 -0.132204 6.32462 0
M  V30 18146 C 1710.31 0.0674159 6.67466 0
M  V30 18147 H 1709.58 -0.378366 0.637119 0
M  V30 18148 H 1712.23 -0.308686 1.88996 0
M  V30 18149 H 1710.54 -2.75795 2.78288 0
M  V30 18150 H 1712.23 -2.53671 3.10567 0
M  V30 18151 H 1708.82 -1.44507 4.03504 0
M  V30 18152 H 1713.01 -0.93682 4.87378 0
M  V30 18153 H 1708.26 -0.249993 6.10889 0
M  V30 18154 H 1712.44 0.251345 6.95946 0
M  V30 18155 H 1710.06 0.600691 7.57823 0
M  V30 18156 N 1711.64 -1.47227 -0.562322 0
M  V30 18157 C 1713.05 -1.47509 -1.14446 0
M  V30 18158 C 1713.4 -0.22699 -1.94883 0
M  V30 18159 O 1712.53 0.668483 -2.05816 0
M  V30 18160 C 1713.12 -2.67266 -2.08217 0
M  V30 18161 C 1711.68 -2.70524 -2.61713 0
M  V30 18162 C 1710.83 -2.4053 -1.37988 0
M  V30 18163 H 1713.78 -1.54811 -0.349185 0
M  V30 18164 H 1713.8 -2.43945 -2.92012 0
M  V30 18165 H 1713.31 -3.58089 -1.49646 0
M  V30 18166 H 1711.41 -1.83827 -3.24096 0
M  V30 18167 H 1711.53 -3.71072 -3.03056 0
M  V30 18168 H 1709.89 -1.91007 -1.68489 0
M  V30 18169 H 1710.67 -3.33554 -0.812177 0
M  V30 18170 N 1713.12 0.808639 -1.35273 0
M  V30 18171 C 1714.34 1.60219 -1.31699 0
M  V30 18172 C 1714.77 1.87816 0.103386 0
M  V30 18173 O 1714.13 1.46389 1.06957 0
M  V30 18174 C 1714.17 2.9116 -2.12739 0
M  V30 18175 O 1713.28 3.83891 -1.5067 0
M  V30 18176 H 1712.62 0.486742 -0.45164 0
M  V30 18177 H 1715.15 1.00378 -1.78284 0
M  V30 18178 H 1715.16 3.40602 -2.2462 0
M  V30 18179 H 1713.83 2.70399 -3.16002 0
M  V30 18180 H 1712.41 3.42437 -1.47618 0
M  V30 18181 N 1714.6 1.19237 1.03055 0
M  V30 18182 C 1715.85 0.988287 1.75829 0
M  V30 18183 C 1716.16 -0.481903 1.89571 0
M  V30 18184 O 1717.36 -0.804762 2.59299 0
M  V30 18185 C 1715.82 1.71934 3.16175 0
M  V30 18186 C 1715.43 3.22952 3.10493 0
M  V30 18187 C 1717.17 1.59844 3.93256 0
M  V30 18188 C 1715.08 3.88654 4.4576 0
M  V30 18189 H 1714.01 0.366153 0.659127 0
M  V30 18190 H 1716.66 1.42716 1.15345 0
M  V30 18191 H 1715.04 1.20828 3.77116 0
M  V30 18192 H 1716.22 3.81163 2.58943 0
M  V30 18193 H 1714.53 3.35298 2.46909 0
M  V30 18194 H 1717.13 2.06283 4.93307 0
M  V30 18195 H 1717.47 0.552317 4.1262 0
M  V30 18196 H 1718 2.08286 3.38913 0
M  V30 18197 H 1714.74 4.93357 4.31601 0
M  V30 18198 H 1714.26 3.35231 4.97373 0
M  V30 18199 H 1715.94 3.92104 5.14649 0
M  V30 18200 N 1716.07 -1.22136 0.99602 0
M  V30 18201 C 1717.01 -2.23518 0.507162 0
M  V30 18202 C 1718.02 -1.57824 -0.399426 0
M  V30 18203 O 1719.21 -1.77364 -0.20106 0
M  V30 18204 C 1716.31 -3.37709 -0.283931 0
M  V30 18205 C 1715.48 -4.3299 0.619549 0
M  V30 18206 C 1714.54 -5.26062 -0.120376 0
M  V30 18207 O 1713.57 -5.67041 0.495269 0
M  V30 18208 N 1714.77 -5.63322 -1.40172 0
M  V30 18209 H 1717.53 -2.66092 1.37896 0
M  V30 18210 H 1715.09 -1.36468 0.871102 0
M  V30 18211 H 1717.09 -3.96961 -0.787661 0
M  V30 18212 H 1715.66 -2.94193 -1.05685 0
M  V30 18213 H 1714.88 -3.72011 1.3039 0
M  V30 18214 H 1716.16 -4.93591 1.23473 0
M  V30 18215 H 1715.56 -5.32006 -1.92318 0
M  V30 18216 H 1714.12 -6.24977 -1.85058 0
M  V30 18217 N 1717.55 -0.769612 -1.37531 0
M  V30 18218 C 1718.49 -0.100781 -2.27977 0
M  V30 18219 C 1719.46 0.711383 -1.46213 0
M  V30 18220 O 1720.65 0.686602 -1.75551 0
M  V30 18221 C 1717.77 0.863601 -3.27505 0
M  V30 18222 C 1716.82 0.135698 -4.26284 0
M  V30 18223 S 1717.65 -1.17477 -5.22455 0
M  V30 18224 C 1718.81 -0.213878 -6.25534 0
M  V30 18225 H 1719.04 -0.86772 -2.84355 0
M  V30 18226 H 1716.58 -0.562906 -1.43773 0
M  V30 18227 H 1718.53 1.41462 -3.85355 0
M  V30 18228 H 1717.19 1.60363 -2.70079 0
M  V30 18229 H 1716.39 0.866694 -4.96492 0
M  V30 18230 H 1715.99 -0.344257 -3.72412 0
M  V30 18231 H 1718.28 0.614474 -6.74708 0
M  V30 18232 H 1719.22 -0.884072 -7.02559 0
M  V30 18233 H 1719.63 0.173963 -5.64232 0
M  V30 18234 N 1719.03 1.48775 -0.519977 0
M  V30 18235 C 1720.44 1.86541 -0.0769625 0
M  V30 18236 C 1720.79 1.43053 1.34277 0
M  V30 18237 O 1719.92 0.816781 2.00394 0
M  V30 18238 C 1720.51 3.38539 -0.132891 0
M  V30 18239 C 1719.07 3.75536 0.254875 0
M  V30 18240 C 1718.22 2.72808 -0.497088 0
M  V30 18241 H 1721.17 1.40822 -0.731765 0
M  V30 18242 H 1721.19 3.7477 0.657856 0
M  V30 18243 H 1720.7 3.70161 -1.1663 0
M  V30 18244 H 1718.8 3.49527 1.29081 0
M  V30 18245 H 1718.92 4.79037 -0.0777747 0
M  V30 18246 H 1717.28 2.5464 0.0554331 0
M  V30 18247 H 1718.06 3.07274 -1.53094 0
M  V30 18248 N 1720.51 0.254649 1.55529 0
M  V30 18249 C 1721.47 -0.62836 2.20418 0
M  V30 18250 C 1722.47 -1.09691 1.17578 0
M  V30 18251 O 1723.66 -1.00037 1.42612 0
M  V30 18252 C 1720.79 -1.86453 2.85391 0
M  V30 18253 H 1721.99 -0.0621032 2.99836 0
M  V30 18254 H 1719.54 0.00514311 1.56299 0
M  V30 18255 H 1720.27 -2.47182 2.09932 0
M  V30 18256 H 1720.06 -1.53669 3.60733 0
M  V30 18257 H 1721.55 -2.49291 3.35028 0
M  V30 18258 N 1721.99 -1.57589 -0.0183649 0
M  V30 18259 C 1723.21 -1.94024 -0.718491 0
M  V30 18260 C 1723.63 -0.85529 -1.68316 0
M  V30 18261 O 1722.99 0.167403 -1.81731 0
M  V30 18262 C 1723.04 -3.30427 -1.4663 0
M  V30 18263 O 1722.76 -4.34755 -0.540345 0
M  V30 18264 C 1724.26 -3.81209 -2.26262 0
M  V30 18265 H 1721.48 -0.640101 -0.201275 0
M  V30 18266 H 1724.02 -2.04482 0.0272935 0
M  V30 18267 H 1722.18 -3.21333 -2.16388 0
M  V30 18268 H 1722.59 -5.13554 -1.06593 0
M  V30 18269 H 1724.07 -4.79131 -2.74112 0
M  V30 18270 H 1724.54 -3.12957 -3.08147 0
M  V30 18271 H 1725.15 -3.9342 -1.61558 0
M  V30 18272 N 1723.46 0.290824 -1.54893 0
M  V30 18273 C 1724.39 1.36354 -1.89551 0
M  V30 18274 C 1725.38 1.52403 -0.75546 0
M  V30 18275 O 1726.56 1.65743 -1.01208 0
M  V30 18276 C 1723.69 2.72609 -2.15178 0
M  V30 18277 C 1722.64 2.71313 -3.31019 0
M  V30 18278 C 1721.97 4.10952 -3.42085 0
M  V30 18279 C 1723.27 2.32153 -4.6787 0
M  V30 18280 H 1724.96 1.07597 -2.79398 0
M  V30 18281 H 1722.51 0.516154 -1.34432 0
M  V30 18282 H 1724.46 3.47749 -2.3801 0
M  V30 18283 H 1723.19 3.02913 -1.22112 0
M  V30 18284 H 1721.85 1.9863 -3.08126 0
M  V30 18285 H 1721.49 4.38449 -2.46518 0
M  V30 18286 H 1721.19 4.10984 -4.1996 0
M  V30 18287 H 1722.72 4.87857 -3.67189 0
M  V30 18288 H 1724.13 2.97011 -4.90364 0
M  V30 18289 H 1722.53 2.4338 -5.48531 0
M  V30 18290 H 1723.6 1.27279 -4.67897 0
M  V30 18291 N 1724.94 1.47523 0.554506 0
M  V30 18292 C 1725.87 1.63093 1.67102 0
M  V30 18293 C 1726.85 0.480298 1.63178 0
M  V30 18294 O 1728.04 0.709956 1.80757 0
M  V30 18295 C 1725.17 1.64751 3.05736 0
M  V30 18296 C 1724.12 2.79068 3.24507 0
M  V30 18297 C 1723.45 2.65801 4.63955 0
M  V30 18298 C 1724.75 4.20631 3.09623 0
M  V30 18299 H 1726.44 2.56561 1.54328 0
M  V30 18300 H 1723.99 1.2347 0.741023 0
M  V30 18301 H 1725.94 1.74234 3.83693 0
M  V30 18302 H 1724.67 0.678453 3.19475 0
M  V30 18303 H 1723.32 2.691 2.48959 0
M  V30 18304 H 1722.97 1.66917 4.74497 0
M  V30 18305 H 1722.67 3.42494 4.77464 0
M  V30 18306 H 1724.2 2.77216 5.44044 0
M  V30 18307 H 1725.61 4.31562 3.77396 0
M  V30 18308 H 1724.01 4.98133 3.3464 0
M  V30 18309 H 1725.08 4.38809 2.06336 0
M  V30 18310 N 1726.42 -0.801453 1.357 0
M  V30 18311 C 1727.35 -1.92807 1.31711 0
M  V30 18312 C 1728.33 -1.69028 0.190642 0
M  V30 18313 O 1729.52 -1.90317 0.38641 0
M  V30 18314 C 1726.65 -3.29635 1.09352 0
M  V30 18315 C 1725.6 -3.67908 2.18695 0
M  V30 18316 C 1724.93 -5.02955 1.81494 0
M  V30 18317 C 1726.23 -3.77749 3.60698 0
M  V30 18318 H 1727.92 -1.96401 2.2598 0
M  V30 18319 H 1725.47 -0.943528 1.08782 0
M  V30 18320 H 1727.42 -4.08058 1.052 0
M  V30 18321 H 1726.14 -3.26396 0.115306 0
M  V30 18322 H 1724.8 -2.91775 2.21952 0
M  V30 18323 H 1724.45 -4.96225 0.822776 0
M  V30 18324 H 1724.15 -5.29533 2.54692 0
M  V30 18325 H 1725.67 -5.83811 1.78876 0
M  V30 18326 H 1727.09 -4.4639 3.59734 0
M  V30 18327 H 1725.49 -4.15801 4.327 0
M  V30 18328 H 1726.56 -2.79167 3.96477 0
M  V30 18329 N 1727.9 -1.19782 -1.02421 0
M  V30 18330 C 1729.13 -1.02871 -1.79514 0
M  V30 18331 C 1729.54 0.422387 -1.84014 0
M  V30 18332 O 1728.9 1.29335 -1.28758 0
M  V30 18333 C 1728.95 -1.59634 -3.24344 0
M  V30 18334 O 1728.67 -2.99064 -3.20144 0
M  V30 18335 C 1730.17 -1.47571 -4.18016 0
M  V30 18336 H 1727.39 -0.362301 -0.564782 0
M  V30 18337 H 1729.94 -1.58701 -1.28974 0
M  V30 18338 H 1728.09 -1.07942 -3.72058 0
M  V30 18339 H 1728.5 -3.25859 -4.10994 0
M  V30 18340 H 1729.98 -1.92061 -5.1751 0
M  V30 18341 H 1730.46 -0.426967 -4.3712 0
M  V30 18342 H 1731.06 -1.98417 -3.76179 0
M  V30 18343 N 1729.38 1.21606 -1.00248 0
M  V30 18344 C 1730.31 2.23246 -0.519009 0
M  V30 18345 C 1731.32 1.58034 0.391051 0
M  V30 18346 O 1732.51 1.77468 0.191652 0
M  V30 18347 C 1729.61 3.37854 0.266017 0
M  V30 18348 C 1728.78 4.32655 -0.642503 0
M  V30 18349 C 1727.84 5.26119 0.0924758 0
M  V30 18350 O 1726.87 5.66771 -0.525333 0
M  V30 18351 N 1728.07 5.64058 1.37183 0
M  V30 18352 H 1730.84 2.65357 -1.39305 0
M  V30 18353 H 1728.4 1.36004 -0.878327 0
M  V30 18354 H 1730.39 3.97373 0.766598 0
M  V30 18355 H 1728.96 2.94749 1.04123 0
M  V30 18356 H 1728.18 3.71314 -1.32361 0
M  V30 18357 H 1729.47 4.92929 -1.26089 0
M  V30 18358 H 1728.87 5.33018 1.89493 0
M  V30 18359 H 1727.42 6.2595 1.81741 0
M  V30 18360 N 1730.86 0.776895 1.37121 0
M  V30 18361 C 1731.79 0.180738 2.32799 0
M  V30 18362 C 1732.77 -0.677284 1.56035 0
M  V30 18363 O 1733.95 -0.613687 1.84249 0
M  V30 18364 C 1731.08 -0.695148 3.40272 0
M  V30 18365 C 1730.04 0.0619772 4.27955 0
M  V30 18366 C 1729.36 -0.933688 5.26485 0
M  V30 18367 C 1730.66 1.24396 5.0727 0
M  V30 18368 H 1732.36 0.980039 2.82906 0
M  V30 18369 H 1729.9 0.472722 1.3602 0
M  V30 18370 H 1731.85 -1.12205 4.06187 0
M  V30 18371 H 1730.58 -1.52702 2.88703 0
M  V30 18372 H 1729.24 0.469717 3.63578 0
M  V30 18373 H 1728.89 -1.76025 4.71194 0
M  V30 18374 H 1728.59 -0.431608 5.86013 0
M  V30 18375 H 1730.11 -1.35942 5.95275 0
M  V30 18376 H 1731.52 0.89345 5.66295 0
M  V30 18377 H 1729.92 1.67848 5.76149 0
M  V30 18378 H 1730.99 2.04553 4.39643 0
M  V30 18379 N 1732.33 -1.48497 0.527859 0
M  V30 18380 C 1733.56 -2.07399 -0.00510725 0
M  V30 18381 C 1733.98 -1.38211 -1.2759 0
M  V30 18382 O 1733.34 -0.447373 -1.75694 0
M  V30 18383 C 1733.39 -3.59963 -0.214295 0
M  V30 18384 O 1732.49 -3.91921 -1.28342 0
M  V30 18385 H 1731.83 -0.662901 0.0381838 0
M  V30 18386 H 1734.36 -1.90936 0.735166 0
M  V30 18387 H 1734.37 -4.05646 -0.437604 0
M  V30 18388 H 1733.05 -4.09725 0.714028 0
M  V30 18389 H 1731.63 -3.58019 -1.04293 0
M  V30 18390 N 1733.81 -0.262893 -1.55392 0
M  V30 18391 C 1734.74 0.623732 -2.25015 0
M  V30 18392 C 1735.72 1.16865 -1.23598 0
M  V30 18393 O 1736.91 1.20505 -1.5229 0
M  V30 18394 C 1734.04 1.81353 -2.9619 0
M  V30 18395 C 1732.99 1.40069 -4.04431 0
M  V30 18396 C 1732.32 2.67261 -4.63115 0
M  V30 18397 C 1733.62 0.559905 -5.1929 0
M  V30 18398 H 1735.31 0.0431306 -2.99369 0
M  V30 18399 H 1732.86 0.0193043 -1.43987 0
M  V30 18400 H 1734.81 2.43958 -3.43602 0
M  V30 18401 H 1733.53 2.41977 -2.1935 0
M  V30 18402 H 1732.19 0.797905 -3.57811 0
M  V30 18403 H 1731.84 3.26117 -3.82958 0
M  V30 18404 H 1731.54 2.40354 -5.36194 0
M  V30 18405 H 1733.07 3.30735 -5.1327 0
M  V30 18406 H 1734.48 1.09064 -5.6283 0
M  V30 18407 H 1732.88 0.386234 -5.98856 0
M  V30 18408 H 1733.95 -0.424199 -4.83041 0
M  V30 18409 N 1735.29 1.57597 0.0100073 0
M  V30 18410 C 1736.22 2.10825 1.00375 0
M  V30 18411 C 1737.2 1.01507 1.36493 0
M  V30 18412 O 1738.39 1.29136 1.45043 0
M  V30 18413 C 1735.52 2.60334 2.29878 0
M  V30 18414 C 1734.47 3.74087 2.07949 0
M  V30 18415 C 1733.8 4.09873 3.43378 0
M  V30 18416 C 1735.1 5.01764 1.45018 0
M  V30 18417 H 1736.79 2.94105 0.560591 0
M  V30 18418 H 1734.34 1.4148 0.268208 0
M  V30 18419 H 1736.29 2.96196 2.99743 0
M  V30 18420 H 1735.01 1.74162 2.76288 0
M  V30 18421 H 1733.67 3.38603 1.40512 0
M  V30 18422 H 1733.32 3.20739 3.87473 0
M  V30 18423 H 1733.02 4.86505 3.29525 0
M  V30 18424 H 1734.54 4.48285 4.14575 0
M  V30 18425 H 1735.96 5.35462 2.04826 0
M  V30 18426 H 1734.35 5.83135 1.41683 0
M  V30 18427 H 1735.42 4.83093 0.41819 0
M  V30 18428 N 1736.77 -0.282606 1.55045 0
M  V30 18429 C 1737.7 -1.37115 1.83663 0
M  V30 18430 C 1738.71 -1.45985 0.720563 0
M  V30 18431 O 1739.9 -1.47974 0.998294 0
M  V30 18432 C 1737 -2.7533 1.97603 0
M  V30 18433 C 1736.17 -2.89168 3.28177 0
M  V30 18434 C 1735.23 -4.07997 3.32302 0
M  V30 18435 O 1734.26 -3.9921 4.05734 0
M  V30 18436 N 1735.46 -5.19512 2.59013 0
M  V30 18437 H 1738.23 -1.12914 2.77616 0
M  V30 18438 H 1735.79 -0.472711 1.54845 0
M  V30 18439 H 1737.78 -3.531 1.97743 0
M  V30 18440 H 1736.35 -2.92396 1.1056 0
M  V30 18441 H 1735.57 -1.9836 3.40657 0
M  V30 18442 H 1736.86 -2.95338 4.1431 0
M  V30 18443 H 1736.26 -5.29536 1.99018 0
M  V30 18444 H 1734.81 -5.95549 2.64887 0
M  V30 18445 N 1738.25 -1.47815 -0.546675 0
M  V30 18446 C 1739.66 -1.48715 -1.12875 0
M  V30 18447 C 1740.01 -0.247647 -1.94631 0
M  V30 18448 O 1739.13 0.646615 -2.06514 0
M  V30 18449 C 1739.73 -2.69459 -2.05371 0
M  V30 18450 C 1738.29 -2.73285 -2.58829 0
M  V30 18451 C 1737.43 -2.4198 -1.35429 0
M  V30 18452 H 1740.38 -1.55172 -0.332746 0
M  V30 18453 H 1740.41 -2.47028 -2.89408 0
M  V30 18454 H 1739.92 -3.59656 -1.4584 0
M  V30 18455 H 1738.02 -1.87254 -3.22128 0
M  V30 18456 H 1738.13 -3.74265 -2.99103 0
M  V30 18457 H 1736.5 -1.92783 -1.66454 0
M  V30 18458 H 1737.28 -3.34397 -0.776753 0
M  V30 18459 N 1739.72 0.794246 -1.36123 0
M  V30 18460 C 1741.14 1.0916 -1.16431 0
M  V30 18461 C 1741.34 2.01495 0.0148797 0
M  V30 18462 O 1740.4 2.43123 0.681729 0
M  V30 18463 C 1741.71 1.71071 -2.47295 0
M  V30 18464 C 1743.26 1.83435 -2.53615 0
M  V30 18465 C 1743.73 2.48761 -3.84554 0
M  V30 18466 N 1745.22 2.56235 -3.85873 0
M  V30 18467 C 1745.96 3.07579 -4.83924 0
M  V30 18468 N 1745.45 3.59267 -5.92367 0
M  V30 18469 N 1747.25 3.06246 -4.71349 0
M  V30 18470 H 1739.4 0.180705 -2.1163 0
M  V30 18471 H 1741.66 0.142774 -0.937187 0
M  V30 18472 H 1741.37 1.10693 -3.33826 0
M  V30 18473 H 1741.24 2.70634 -2.62749 0
M  V30 18474 H 1743.63 2.42953 -1.67505 0
M  V30 18475 H 1743.71 0.82692 -2.42065 0
M  V30 18476 H 1743.35 1.8989 -4.71067 0
M  V30 18477 H 1743.28 3.50066 -3.93397 0
M  V30 18478 H 1745.77 2.19629 -3.07525 0
M  V30 18479 H 1746.09 3.96781 -6.63163 0
M  V30 18480 H 1744.43 3.57432 -5.96043 0
M  V30 18481 H 1747.62 2.65151 -3.85762 0
M  V30 18482 H 1747.8 3.45953 -5.47924 0
M  V30 18483 N 1741.2 1.20323 1.01785 0
M  V30 18484 C 1742.43 1.03671 1.78706 0
M  V30 18485 C 1742.84 -0.417188 1.84543 0
M  V30 18486 O 1742.18 -1.30146 1.29645 0
M  V30 18487 C 1742.24 1.54318 3.24694 0
M  V30 18488 C 1741.91 3.02598 3.42466 0
M  V30 18489 C 1742.91 4.00267 3.31787 0
M  V30 18490 C 1740.59 3.41531 3.68323 0
M  V30 18491 C 1742.58 5.34858 3.46707 0
M  V30 18492 C 1740.27 4.76278 3.82887 0
M  V30 18493 C 1741.27 5.7275 3.72083 0
M  V30 18494 O 1740.96 7.05055 3.86203 0
M  V30 18495 H 1740.69 0.365174 0.56888 0
M  V30 18496 H 1743.24 1.59826 1.29014 0
M  V30 18497 H 1741.47 0.925474 3.75462 0
M  V30 18498 H 1743.16 1.33705 3.83246 0
M  V30 18499 H 1743.93 3.71534 3.11749 0
M  V30 18500 H 1739.81 2.66983 3.75821 0
M  V30 18501 H 1743.35 6.10142 3.3819 0
M  V30 18502 H 1739.25 5.04702 4.02425 0
M  V30 18503 H 1740.02 7.12284 4.03228 0
M  V30 18504 N 1742.68 -1.21073 1.00892 0
M  V30 18505 C 1743.91 -1.93952 0.71178 0
M  V30 18506 C 1744.32 -1.74538 -0.730278 0
M  V30 18507 O 1743.66 -1.05164 -1.50619 0
M  V30 18508 C 1743.72 -3.46502 0.957957 0
M  V30 18509 C 1743.39 -3.89669 2.38762 0
M  V30 18510 C 1744.38 -3.96053 3.36805 0
M  V30 18511 C 1742.07 -4.21873 2.72632 0
M  V30 18512 C 1744.06 -4.34042 4.66783 0
M  V30 18513 C 1741.75 -4.59538 4.02825 0
M  V30 18514 C 1742.75 -4.65593 4.99712 0
M  V30 18515 O 1742.44 -5.02398 6.27576 0
M  V30 18516 H 1742.17 -0.623495 0.261208 0
M  V30 18517 H 1744.72 -1.54728 1.35086 0
M  V30 18518 H 1742.95 -3.85813 0.261704 0
M  V30 18519 H 1744.64 -4.00603 0.653596 0
M  V30 18520 H 1745.41 -3.71346 3.11974 0
M  V30 18521 H 1741.29 -4.16356 1.97912 0
M  V30 18522 H 1744.83 -4.38683 5.42405 0
M  V30 18523 H 1740.73 -4.837 4.27439 0
M  V30 18524 H 1741.49 -5.20417 6.3175 0
M  V30 18525 N 1744.16 -0.784156 -1.36707 0
M  V30 18526 C 1745.38 -0.364744 -2.04168 0
M  V30 18527 C 1745.81 1.00905 -1.58745 0
M  V30 18528 O 1745.17 1.64903 -0.753447 0
M  V30 18529 C 1745.21 -0.43091 -3.58016 0
M  V30 18530 O 1744.32 0.564103 -4.08524 0
M  V30 18531 H 1743.66 -0.15576 -0.645473 0
M  V30 18532 H 1746.19 -1.0638 -1.74769 0
M  V30 18533 H 1746.2 -0.292629 -4.06949 0
M  V30 18534 H 1744.87 -1.43308 -3.9043 0
M  V30 18535 H 1743.45 0.387917 -3.70877 0
M  V30 18536 N 1745.64 1.48215 -0.535727 0
M  V30 18537 C 1746.89 2.017 -0.0016958 0
M  V30 18538 C 1747.2 1.41756 1.34776 0
M  V30 18539 O 1748.4 1.86774 1.97048 0
M  V30 18540 C 1746.86 3.59869 0.0473588 0
M  V30 18541 C 1746.47 4.28798 -1.29754 0
M  V30 18542 C 1748.21 4.21179 0.529915 0
M  V30 18543 C 1746.12 5.78915 -1.20876 0
M  V30 18544 H 1745.05 0.753993 0.00313606 0
M  V30 18545 H 1747.7 1.70421 -0.680368 0
M  V30 18546 H 1746.08 3.88015 0.791229 0
M  V30 18547 H 1747.26 4.12318 -2.05743 0
M  V30 18548 H 1745.57 3.79384 -1.7163 0
M  V30 18549 H 1748.17 5.31158 0.614396 0
M  V30 18550 H 1748.51 3.86887 1.53702 0
M  V30 18551 H 1749.04 3.97484 -0.158445 0
M  V30 18552 H 1745.78 6.17792 -2.1912 0
M  V30 18553 H 1745.3 5.97792 -0.490333 0
M  V30 18554 H 1746.98 6.40684 -0.901824 0
M  V30 18555 N 1747.11 0.27113 1.5525 0
M  V30 18556 C 1748.34 -0.353138 2.04371 0
M  V30 18557 C 1748.76 -1.48978 1.14835 0
M  V30 18558 O 1748.12 -1.8071 0.146138 0
M  V30 18559 C 1748.17 -0.815425 3.51259 0
M  V30 18560 O 1747.27 -1.92302 3.6482 0
M  V30 18561 H 1746.62 -0.0736207 0.659906 0
M  V30 18562 H 1749.15 0.404266 2.00566 0
M  V30 18563 H 1749.16 -1.11224 3.92547 0
M  V30 18564 H 1747.83 0.0162079 4.15897 0
M  V30 18565 H 1746.41 -1.62904 3.35435 0
M  V30 18566 N 1748.59 -1.576 -0.00164943 0
M  V30 18567 C 1749.82 -1.95176 -0.701511 0
M  V30 18568 C 1750.24 -0.873191 -1.66604 0
M  V30 18569 O 1749.6 0.168818 -1.80512 0
M  V30 18570 C 1749.65 -3.31847 -1.41104 0
M  V30 18571 O 1748.75 -3.26034 -2.52539 0
M  V30 18572 H 1748.09 -0.637207 -0.186718 0
M  V30 18573 H 1750.62 -2.04536 0.0510494 0
M  V30 18574 H 1750.63 -3.67374 -1.77483 0
M  V30 18575 H 1749.31 -4.09901 -0.70382 0
M  V30 18576 H 1747.89 -3.0218 -2.18499 0
M  V30 18577 N 1750.07 0.274379 -1.55193 0
M  V30 18578 C 1751.3 1.02871 -1.8009 0
M  V30 18579 C 1751.72 1.79202 -0.571676 0
M  V30 18580 O 1751.08 1.74867 0.478679 0
M  V30 18581 C 1751.13 1.96406 -3.02418 0
M  V30 18582 O 1750.23 3.05154 -2.77408 0
M  V30 18583 H 1749.57 0.294181 -0.595276 0
M  V30 18584 H 1752.1 0.303708 -2.02333 0
M  V30 18585 H 1752.11 2.38385 -3.31114 0
M  V30 18586 H 1750.79 1.40261 -3.91535 0
M  V30 18587 H 1749.36 2.675 -2.59805 0
M  V30 18588 N 1751.55 1.48103 0.538828 0
M  V30 18589 C 1752.96 1.49312 1.12085 0
M  V30 18590 C 1753.31 0.257965 1.94497 0
M  V30 18591 O 1752.44 -0.635654 2.06854 0
M  V30 18592 C 1753.03 2.70545 2.03939 0
M  V30 18593 C 1751.59 2.74654 2.57376 0
M  V30 18594 C 1750.74 2.42695 1.34144 0
M  V30 18595 H 1753.69 1.55347 0.324512 0
M  V30 18596 H 1753.71 2.4856 2.88094 0
M  V30 18597 H 1753.22 3.60424 1.4393 0
M  V30 18598 H 1751.32 1.8896 3.21131 0
M  V30 18599 H 1751.43 3.75846 2.97114 0
M  V30 18600 H 1749.8 1.93663 1.65429 0
M  V30 18601 H 1750.58 3.34804 0.759009 0
M  V30 18602 N 1753.03 -0.787016 1.36542 0
M  V30 18603 C 1754.3 -1.53325 1.21452 0
M  V30 18604 C 1754.68 -2.10166 -0.198313 0
M  V30 18605 O 1754.03 -1.94192 -1.20422 0
M  V30 18606 C 1754.24 -2.62629 2.29841 0
M  V30 18607 C 1755.59 -3.30446 2.66628 0
M  V30 18608 O 1756.61 -2.72914 2.28903 0
M  V30 18609 O 1755.47 -4.34424 3.31569 0
M  V30 18610 H 1752.57 -0.678361 0.473028 0
M  V30 18611 H 1755.11 -0.825292 1.4828 0
M  V30 18612 H 1753.88 -2.18639 3.24519 0
M  V30 18613 H 1753.51 -3.41042 2.04393 0
M  V30 18614 N 1754.5 -1.20861 -1.01145 0
M  V30 18615 C 1755.44 -0.905387 -2.09471 0
M  V30 18616 C 1756.42 0.144563 -1.61956 0
M  V30 18617 O 1757.6 0.0170118 -1.88492 0
M  V30 18618 C 1754.73 -0.358266 -3.368 0
M  V30 18619 C 1753.77 -1.39001 -4.03213 0
M  V30 18620 S 1754.61 -2.95692 -4.4646 0
M  V30 18621 C 1755.76 -2.42569 -5.76984 0
M  V30 18622 H 1755.99 -1.82274 -2.34869 0
M  V30 18623 H 1753.53 -1.03765 -1.14334 0
M  V30 18624 H 1755.49 -0.0491564 -4.10471 0
M  V30 18625 H 1754.15 0.537669 -3.09464 0
M  V30 18626 H 1753.34 -0.956674 -4.94837 0
M  V30 18627 H 1752.94 -1.64686 -3.35789 0
M  V30 18628 H 1755.23 -1.82652 -6.52414 0
M  V30 18629 H 1756.18 -3.3261 -6.25121 0
M  V30 18630 H 1756.58 -1.8451 -5.33494 0
M  V30 18631 N 1755.98 1.20536 -1.01532 0
M  V30 18632 C 1757.21 1.93571 -0.722055 0
M  V30 18633 C 1757.62 1.74923 0.721011 0
M  V30 18634 O 1756.96 1.05961 1.5006 0
M  V30 18635 C 1757.03 3.45989 -0.97632 0
M  V30 18636 C 1756.69 3.88397 -2.40825 0
M  V30 18637 C 1757.69 3.94262 -3.38901 0
M  V30 18638 C 1755.37 4.20422 -2.74865 0
M  V30 18639 C 1757.37 4.3156 -4.69078 0
M  V30 18640 C 1755.05 4.57395 -4.05256 0
M  V30 18641 C 1756.05 4.62937 -5.02174 0
M  V30 18642 O 1755.74 4.99063 -6.30232 0
M  V30 18643 H 1755.47 0.622101 -0.264511 0
M  V30 18644 H 1758.02 1.5401 -1.35905 0
M  V30 18645 H 1756.25 3.85669 -0.282161 0
M  V30 18646 H 1757.94 4.00251 -0.674832 0
M  V30 18647 H 1758.71 3.69686 -3.13938 0
M  V30 18648 H 1754.59 4.153 -2.00117 0
M  V30 18649 H 1758.13 4.358 -5.44724 0
M  V30 18650 H 1754.03 4.81427 -4.29998 0
M  V30 18651 H 1754.8 5.1706 -6.34501 0
M  V30 18652 N 1757.46 0.791395 1.36289 0
M  V30 18653 C 1758.87 0.427611 1.81737 0
M  V30 18654 C 1759.22 -1.04868 1.65822 0
M  V30 18655 O 1758.35 -1.81379 1.18028 0
M  V30 18656 C 1758.94 0.769378 3.29949 0
M  V30 18657 C 1757.5 0.458397 3.73598 0
M  V30 18658 C 1756.65 1.00299 2.58526 0
M  V30 18659 H 1759.6 0.98437 1.24482 0
M  V30 18660 H 1759.62 0.061211 3.80451 0
M  V30 18661 H 1759.13 1.8439 3.415 0
M  V30 18662 H 1757.23 -0.608006 3.67606 0
M  V30 18663 H 1757.35 0.980392 4.68962 0
M  V30 18664 H 1755.71 0.426106 2.5111 0
M  V30 18665 H 1756.49 2.08331 2.72861 0
M  V30 18666 N 1758.94 -1.47929 0.54358 0
M  V30 18667 C 1760.22 -1.95535 -0.0505687 0
M  V30 18668 C 1760.6 -1.48603 -1.49934 0
M  V30 18669 O 1759.94 -0.718655 -2.16905 0
M  V30 18670 C 1760.15 -3.48907 0.0807654 0
M  V30 18671 C 1761.5 -4.2454 -0.0715671 0
M  V30 18672 O 1762.53 -3.56199 0.007637 0
M  V30 18673 O 1761.39 -5.45975 -0.239596 0
M  V30 18674 H 1758.48 -0.823883 -0.0717396 0
M  V30 18675 H 1761.03 -1.58391 0.60914 0
M  V30 18676 H 1759.8 -3.75828 1.08944 0
M  V30 18677 H 1759.42 -3.92781 -0.617178 0
M  V30 18678 N 1760.42 -0.27936 -1.55104 0
M  V30 18679 C 1761.33 0.616249 -2.26361 0
M  V30 18680 C 1762.34 1.16656 -1.29102 0
M  V30 18681 O 1763.52 1.19596 -1.62046 0
M  V30 18682 C 1760.58 1.78191 -2.97403 0
M  V30 18683 C 1759.65 1.26785 -4.10151 0
M  V30 18684 C 1758.88 2.37795 -4.77796 0
M  V30 18685 O 1759.1 3.57242 -4.44673 0
M  V30 18686 O 1758.04 2.05711 -5.65656 0
M  V30 18687 H 1761.86 0.0388715 -3.03675 0
M  V30 18688 H 1759.45 -0.0466058 -1.49327 0
M  V30 18689 H 1761.33 2.4615 -3.42036 0
M  V30 18690 H 1760 2.3463 -2.23003 0
M  V30 18691 H 1758.91 0.554608 -3.69966 0
M  V30 18692 H 1760.24 0.749157 -4.86465 0
M  V30 18693 N 1761.9 1.57599 -0.0067085 0
M  V30 18694 C 1763.14 1.9114 0.677733 0
M  V30 18695 C 1763.47 0.881328 1.7305 0
M  V30 18696 O 1762.75 -0.099049 1.94248 0
M  V30 18697 C 1763.03 3.35241 1.31474 0
M  V30 18698 C 1762.89 4.4897 0.273055 0
M  V30 18699 C 1764.2 3.78886 2.23905 0
M  V30 18700 H 1761.32 0.695119 0.244907 0
M  V30 18701 H 1763.97 1.89907 -0.059378 0
M  V30 18702 H 1762.12 3.36423 1.94299 0
M  V30 18703 H 1763.79 4.59924 -0.356031 0
M  V30 18704 H 1762.03 4.31915 -0.403961 0
M  V30 18705 H 1762.7 5.46772 0.757941 0
M  V30 18706 H 1765.18 3.79299 1.7109 0
M  V30 18707 H 1764.05 4.80451 2.65439 0
M  V30 18708 H 1764.31 3.13129 3.12094 0
M  V30 18709 N 1763.37 -0.266145 1.55336 0
M  V30 18710 C 1764.32 -1.33159 1.85075 0
M  V30 18711 C 1765.31 -1.44381 0.710142 0
M  V30 18712 O 1766.5 -1.47946 0.971644 0
M  V30 18713 C 1763.63 -2.69063 2.13214 0
M  V30 18714 C 1762.71 -2.61924 3.33552 0
M  V30 18715 N 1763.11 -2.24407 4.53294 0
M  V30 18716 C 1761.4 -2.92973 3.36278 0
M  V30 18717 C 1762.1 -2.27428 5.35398 0
M  V30 18718 N 1761.08 -2.66173 4.73976 0
M  V30 18719 H 1764.88 -1.03172 2.75196 0
M  V30 18720 H 1762.4 -0.474782 1.55305 0
M  V30 18721 H 1764.39 -3.45929 2.32677 0
M  V30 18722 H 1763.05 -2.99933 1.2438 0
M  V30 18723 H 1764.06 -1.9627 4.79269 0
M  V30 18724 H 1760.74 -3.2851 2.57658 0
M  V30 18725 H 1762.13 -2.00925 6.41154 0
M  V30 18726 N 1764.85 -1.48386 -0.530967 0
M  V30 18727 C 1765.78 -1.6573 -1.64486 0
M  V30 18728 C 1766.76 -0.506198 -1.62393 0
M  V30 18729 O 1767.95 -0.738623 -1.79605 0
M  V30 18730 C 1765.08 -1.69594 -3.03076 0
M  V30 18731 C 1764.03 -2.84195 -3.20027 0
M  V30 18732 C 1763.36 -2.73148 -4.59668 0
M  V30 18733 C 1764.66 -4.25504 -3.02892 0
M  V30 18734 H 1766.35 -2.58983 -1.50227 0
M  V30 18735 H 1763.9 -1.24633 -0.721286 0
M  V30 18736 H 1765.85 -1.80316 -3.80873 0
M  V30 18737 H 1764.57 -0.729193 -3.18356 0
M  V30 18738 H 1763.23 -2.73027 -2.44647 0
M  V30 18739 H 1762.88 -1.74444 -4.71782 0
M  V30 18740 H 1762.58 -3.50047 -4.71954 0
M  V30 18741 H 1764.11 -2.85836 -5.39565 0
M  V30 18742 H 1765.52 -4.37511 -3.70482 0
M  V30 18743 H 1763.92 -5.03393 -3.26673 0
M  V30 18744 H 1764.99 -4.42036 -1.99329 0
M  V30 18745 N 1766.33 0.779763 -1.36958 0
M  V30 18746 C 1767.56 1.56875 -1.34899 0
M  V30 18747 C 1767.97 1.88679 0.0675345 0
M  V30 18748 O 1767.33 1.50852 1.02712 0
M  V30 18749 C 1767.38 2.88391 -2.17975 0
M  V30 18750 O 1767.1 2.57954 -3.54107 0
M  V30 18751 C 1768.6 3.82657 -2.23805 0
M  V30 18752 H 1765.82 0.486262 -0.462374 0
M  V30 18753 H 1768.37 0.967072 -1.80189 0
M  V30 18754 H 1766.52 3.45003 -1.76215 0
M  V30 18755 H 1766.94 3.42115 -3.97564 0
M  V30 18756 H 1768.41 4.71967 -2.86272 0
M  V30 18757 H 1768.89 4.21208 -1.24421 0
M  V30 18758 H 1769.49 3.31976 -2.65843 0
M  V30 18759 N 1767.81 1.21396 1.00503 0
M  V30 18760 C 1769.05 1.0327 1.74537 0
M  V30 18761 C 1769.39 -0.432746 1.89317 0
M  V30 18762 O 1768.66 -1.32111 1.42747 0
M  V30 18763 C 1768.94 1.73045 3.15797 0
M  V30 18764 C 1768.8 3.27108 3.0874 0
M  V30 18765 C 1770.12 1.47298 4.14718 0
M  V30 18766 H 1767.24 0.376563 0.633537 0
M  V30 18767 H 1769.88 1.49571 1.17169 0
M  V30 18768 H 1768.03 1.33682 3.64776 0
M  V30 18769 H 1769.7 3.75839 2.67475 0
M  V30 18770 H 1767.94 3.57413 2.45843 0
M  V30 18771 H 1768.61 3.71096 4.08646 0
M  V30 18772 H 1771.09 1.81468 3.74444 0
M  V30 18773 H 1769.97 1.98633 5.11699 0
M  V30 18774 H 1770.23 0.402981 4.4026 0
M  V30 18775 N 1769.29 -1.19996 1.0217 0
M  V30 18776 C 1770.25 -2.21179 0.601036 0
M  V30 18777 C 1771.25 -1.57345 -0.331531 0
M  V30 18778 O 1772.44 -1.73789 -0.119521 0
M  V30 18779 C 1769.57 -3.40683 -0.121557 0
M  V30 18780 H 1770.76 -2.5991 1.49622 0
M  V30 18781 H 1768.32 -1.33548 0.812071 0
M  V30 18782 H 1769.05 -3.07461 -1.03142 0
M  V30 18783 H 1768.84 -3.88245 0.548448 0
M  V30 18784 H 1770.33 -4.1565 -0.403046 0
M  V30 18785 N 1770.76 -0.798611 -1.35867 0
M  V30 18786 C 1772.01 -0.371795 -1.98244 0
M  V30 18787 C 1772.33 1.06474 -1.64081 0
M  V30 18788 O 1773.53 1.59428 -2.19761 0
M  V30 18789 C 1771.99 -0.613821 -3.54627 0
M  V30 18790 C 1771.6 -2.06237 -3.97706 0
M  V30 18791 C 1773.34 -0.251966 -4.23752 0
M  V30 18792 C 1771.25 -2.25057 -5.46903 0
M  V30 18793 H 1770.18 -0.135278 -0.741765 0
M  V30 18794 H 1772.83 -0.981544 -1.55042 0
M  V30 18795 H 1771.21 0.0657688 -3.95945 0
M  V30 18796 H 1772.38 -2.77912 -3.67562 0
M  V30 18797 H 1770.7 -2.38334 -3.41447 0
M  V30 18798 H 1773.3 -0.370736 -5.33413 0
M  V30 18799 H 1773.64 0.800968 -4.08522 0
M  V30 18800 H 1774.17 -0.885155 -3.87827 0
M  V30 18801 H 1770.91 -3.28767 -5.67091 0
M  V30 18802 H 1770.43 -1.57898 -5.78643 0
M  V30 18803 H 1772.11 -2.06219 -6.13256 0
M  V30 18804 N 1772.24 1.47639 -0.551417 0
M  V30 18805 C 1773.49 2.02784 -0.0252425 0
M  V30 18806 C 1773.82 1.42549 1.31884 0
M  V30 18807 O 1773.1 0.578954 1.85684 0
M  V30 18808 C 1773.38 3.60024 0.0740051 0
M  V30 18809 C 1773.23 4.30702 -1.29676 0
M  V30 18810 C 1774.55 4.32946 0.790302 0
M  V30 18811 H 1771.67 0.736923 -0.0106473 0
M  V30 18812 H 1774.31 1.76131 -0.712589 0
M  V30 18813 H 1772.46 3.82863 0.65939 0
M  V30 18814 H 1774.13 4.1922 -1.9249 0
M  V30 18815 H 1772.38 3.91282 -1.87299 0
M  V30 18816 H 1773.05 5.39238 -1.18009 0
M  V30 18817 H 1775.52 4.15065 0.293326 0
M  V30 18818 H 1774.4 5.42608 0.828692 0
M  V30 18819 H 1774.66 4.01752 1.84521 0
M  V30 18820 N 1773.72 0.287581 1.54954 0
M  V30 18821 C 1774.95 -0.331442 2.04735 0
M  V30 18822 C 1775.37 -1.47752 1.16409 0
M  V30 18823 O 1774.73 -1.80545 0.165297 0
M  V30 18824 C 1774.78 -0.778123 3.52105 0
M  V30 18825 O 1773.88 -1.88422 3.66839 0
M  V30 18826 H 1773.22 -0.0666173 0.66065 0
M  V30 18827 H 1775.75 0.425516 2.00126 0
M  V30 18828 H 1775.76 -1.07054 3.93705 0
M  V30 18829 H 1774.44 0.0603184 4.15856 0
M  V30 18830 H 1773.01 -1.59338 3.37144 0
M  V30 18831 N 1775.2 -1.57593 0.0150662 0
M  V30 18832 C 1776.43 -1.95221 -0.676193 0
M  V30 18833 C 1776.84 -0.889349 -1.66995 0
M  V30 18834 O 1776.18 0.138825 -1.83175 0
M  V30 18835 C 1776.24 -3.28921 -1.45092 0
M  V30 18836 C 1775.91 -4.52815 -0.61707 0
M  V30 18837 C 1776.9 -5.19801 0.101686 0
M  V30 18838 C 1774.59 -4.99184 -0.558606 0
M  V30 18839 C 1776.58 -6.31466 0.86773 0
M  V30 18840 C 1774.27 -6.10735 0.211154 0
M  V30 18841 C 1775.27 -6.76734 0.923041 0
M  V30 18842 O 1774.95 -7.86145 1.68021 0
M  V30 18843 H 1774.69 -0.648074 -0.192293 0
M  V30 18844 H 1777.24 -2.05291 0.0668663 0
M  V30 18845 H 1775.47 -3.15301 -2.2388 0
M  V30 18846 H 1777.16 -3.51552 -2.02894 0
M  V30 18847 H 1777.93 -4.84955 0.0657637 0
M  V30 18848 H 1773.8 -4.47629 -1.10226 0
M  V30 18849 H 1777.35 -6.82913 1.42391 0
M  V30 18850 H 1773.25 -6.4502 0.248843 0
M  V30 18851 H 1774.01 -8.02739 1.5985 0
M  V30 18852 N 1776.68 0.257904 -1.55475 0
M  V30 18853 C 1778.09 0.605871 -1.47653 0
M  V30 18854 C 1778.29 1.88837 -0.703063 0
M  V30 18855 O 1777.35 2.51469 -0.227981 0
M  V30 18856 C 1778.66 0.718813 -2.91982 0
M  V30 18857 C 1780.21 0.81187 -3.02287 0
M  V30 18858 C 1780.68 0.956465 -4.47901 0
M  V30 18859 N 1782.18 1.02161 -4.51793 0
M  V30 18860 C 1782.91 1.15256 -5.61697 0
M  V30 18861 N 1782.41 1.24975 -6.81435 0
M  V30 18862 N 1784.2 1.18485 -5.4947 0
M  V30 18863 H 1776.35 -0.584154 -2.04209 0
M  V30 18864 H 1778.61 -0.200045 -0.926653 0
M  V30 18865 H 1778.32 -0.15335 -3.51366 0
M  V30 18866 H 1778.19 1.59429 -3.41851 0
M  V30 18867 H 1780.58 1.67449 -2.42991 0
M  V30 18868 H 1780.66 -0.0885307 -2.55647 0
M  V30 18869 H 1780.31 0.0984438 -5.07805 0
M  V30 18870 H 1780.24 1.87174 -4.92213 0
M  V30 18871 H 1782.73 0.958295 -3.65548 0
M  V30 18872 H 1783.04 1.34843 -7.60945 0
M  V30 18873 H 1781.38 1.21952 -6.84217 0
M  V30 18874 H 1784.58 1.10534 -4.54863 0
M  V30 18875 H 1784.75 1.28346 -6.35162 0
M  V30 18876 N 1778.15 1.48666 0.52309 0
M  V30 18877 C 1779.38 1.60707 1.30311 0
M  V30 18878 C 1779.8 0.269941 1.8686 0
M  V30 18879 O 1779.15 -0.741714 1.66748 0
M  V30 18880 C 1779.21 2.65899 2.44908 0
M  V30 18881 O 1778.93 3.94423 1.90688 0
M  V30 18882 C 1780.43 2.88443 3.36624 0
M  V30 18883 H 1777.65 0.541661 0.396035 0
M  V30 18884 H 1780.19 1.94544 0.630322 0
M  V30 18885 H 1778.35 2.34902 3.08058 0
M  V30 18886 H 1778.76 4.5219 2.65753 0
M  V30 18887 H 1780.23 3.65831 4.13366 0
M  V30 18888 H 1780.71 1.97524 3.92277 0
M  V30 18889 H 1781.32 3.20771 2.7926 0
M  V30 18890 N 1779.63 -0.772489 1.37369 0
M  V30 18891 C 1781.05 -1.07294 1.18153 0
M  V30 18892 C 1781.25 -2.01493 0.0171782 0
M  V30 18893 O 1780.3 -2.44177 -0.642964 0
M  V30 18894 C 1781.62 -1.67116 2.49986 0
M  V30 18895 C 1783.17 -1.79377 2.56501 0
M  V30 18896 C 1783.64 -2.42612 3.88463 0
M  V30 18897 N 1785.13 -2.50063 3.89901 0
M  V30 18898 C 1785.87 -2.99841 4.88756 0
M  V30 18899 N 1785.36 -3.49798 5.98008 0
M  V30 18900 N 1787.16 -2.98709 4.76161 0
M  V30 18901 H 1779.31 -0.147014 2.11891 0
M  V30 18902 H 1781.57 -0.127846 0.93934 0
M  V30 18903 H 1781.28 -1.05369 3.35545 0
M  V30 18904 H 1781.15 -2.6642 2.67021 0
M  V30 18905 H 1783.54 -2.40257 1.71349 0
M  V30 18906 H 1783.62 -0.788304 2.4335 0
M  V30 18907 H 1783.26 -1.82372 4.74029 0
M  V30 18908 H 1783.19 -3.43763 3.98917 0
M  V30 18909 H 1785.68 -2.14709 3.1098 0
M  V30 18910 H 1786 -3.86181 6.69391 0
M  V30 18911 H 1784.34 -3.47905 6.01654 0
M  V30 18912 H 1787.53 -2.5898 3.89932 0
M  V30 18913 H 1787.7 -3.37193 5.53358 0
M  V30 18914 N 1781.11 -1.21927 -0.998575 0
M  V30 18915 C 1782.39 -0.949034 -1.71034 0
M  V30 18916 C 1782.77 0.537429 -2.04144 0
M  V30 18917 O 1782.12 1.50398 -1.72026 0
M  V30 18918 C 1782.33 -1.84076 -2.96508 0
M  V30 18919 C 1783.67 -2.09345 -3.69405 0
M  V30 18920 O 1784.7 -1.81477 -3.06504 0
M  V30 18921 O 1783.56 -2.56513 -4.82559 0
M  V30 18922 H 1780.65 -0.356423 -0.746252 0
M  V30 18923 H 1783.2 -1.32886 -1.05543 0
M  V30 18924 H 1781.97 -2.84647 -2.68499 0
M  V30 18925 H 1781.59 -1.46215 -3.69739 0
M  V30 18926 N 1782.59 1.19452 -1.02805 0
M  V30 18927 C 1783.84 1.8874 -0.722599 0
M  V30 18928 C 1784.16 1.79957 0.751028 0
M  V30 18929 O 1783.43 1.20949 1.54104 0
M  V30 18930 H 1782.01 0.698683 -0.264294 0
M  V30 18931 H 1784.67 1.45021 -1.30211 0
M  V30 18932 H 1783.77 2.95094 -1.01617 0
M  V30 18933 N 1784.07 0.805805 1.35442 0
M  V30 18934 C 1784.98 0.217149 2.33593 0
M  V30 18935 C 1785.99 -0.639428 1.61825 0
M  V30 18936 O 1787.17 -0.551363 1.93706 0
M  V30 18937 C 1784.23 -0.625149 3.41017 0
M  V30 18938 C 1783.29 0.25183 4.28561 0
M  V30 18939 C 1782.53 -0.550363 5.30855 0
M  V30 18940 O 1782.75 -1.78511 5.41747 0
M  V30 18941 O 1781.68 0.0583487 6.01872 0
M  V30 18942 H 1785.51 1.02909 2.85733 0
M  V30 18943 H 1783.1 0.567579 1.38199 0
M  V30 18944 H 1784.98 -1.10493 4.06656 0
M  V30 18945 H 1783.65 -1.4147 2.91149 0
M  V30 18946 H 1782.56 0.77873 3.65905 0
M  V30 18947 H 1783.89 1.0053 4.81824 0
M  V30 18948 N 1785.54 -1.47344 0.559239 0
M  V30 18949 C 1786.79 -2.02068 0.035872 0
M  V30 18950 C 1787.11 -1.43573 -1.31953 0
M  V30 18951 O 1786.38 -0.611672 -1.86106 0
M  V30 18952 H 1784.96 -0.746929 0.0102713 0
M  V30 18953 H 1787.63 -1.80724 0.729707 0
M  V30 18954 H 1786.72 -3.12059 -0.0507123 0
M  V30 18955 N 1787.02 -0.295795 -1.54799 0
M  V30 18956 C 1788.43 0.19789 -1.85648 0
M  V30 18957 C 1788.78 1.53834 -1.21776 0
M  V30 18958 O 1787.91 2.10218 -0.513554 0
M  V30 18959 C 1788.5 0.365844 -3.36819 0
M  V30 18960 C 1787.06 0.80375 -3.67718 0
M  V30 18961 C 1786.21 -0.0909572 -2.77151 0
M  V30 18962 H 1789.16 -0.516968 -1.50044 0
M  V30 18963 H 1789.18 1.20123 -3.61041 0
M  V30 18964 H 1788.69 -0.60991 -3.83278 0
M  V30 18965 H 1786.8 1.79024 -3.26774 0
M  V30 18966 H 1786.91 0.626745 -4.74983 0
M  V30 18967 H 1785.27 0.428882 -2.51063 0
M  V30 18968 H 1786.06 -1.06297 -3.26429 0
M  V30 18969 N 1788.5 1.57583 -0.0234236 0
M  V30 18970 C 1789.75 1.90742 0.655764 0
M  V30 18971 C 1790.06 0.900914 1.73617 0
M  V30 18972 O 1791.27 1.12355 2.47161 0
M  V30 18973 C 1789.73 3.38676 1.21763 0
M  V30 18974 C 1789.33 4.47674 0.170811 0
M  V30 18975 C 1791.08 3.80912 1.87366 0
M  V30 18976 C 1788.98 5.86702 0.743996 0
M  V30 18977 H 1787.91 0.711803 0.248701 0
M  V30 18978 H 1790.57 1.8329 -0.0877955 0
M  V30 18979 H 1788.95 3.41042 2.01262 0
M  V30 18980 H 1790.12 4.5686 -0.601298 0
M  V30 18981 H 1788.44 4.14606 -0.386127 0
M  V30 18982 H 1791.03 4.82133 2.31197 0
M  V30 18983 H 1791.38 3.15669 2.71402 0
M  V30 18984 H 1791.91 3.80945 1.14566 0
M  V30 18985 H 1788.65 6.55474 -0.0580976 0
M  V30 18986 H 1788.17 5.81133 1.48472 0
M  V30 18987 H 1789.85 6.35094 1.23549 0
M  V30 18988 N 1789.98 -0.249655 1.5561 0
M  V30 18989 C 1790.93 -1.31189 1.86477 0
M  V30 18990 C 1791.91 -1.43619 0.725415 0
M  V30 18991 O 1793.11 -1.46907 0.987281 0
M  V30 18992 C 1790.23 -2.66786 2.16056 0
M  V30 18993 C 1789.32 -2.58371 3.36311 0
M  V30 18994 N 1789.71 -2.19587 4.55648 0
M  V30 18995 C 1788.01 -2.8939 3.39366 0
M  V30 18996 C 1788.71 -2.21737 5.3778 0
M  V30 18997 N 1787.69 -2.61131 4.76772 0
M  V30 18998 H 1791.49 -1.00248 2.76275 0
M  V30 18999 H 1789 -0.458283 1.558 0
M  V30 19000 H 1791 -3.43442 2.36333 0
M  V30 19001 H 1789.66 -2.98597 1.27555 0
M  V30 19002 H 1790.67 -1.91176 4.81323 0
M  V30 19003 H 1787.35 -3.25758 2.61128 0
M  V30 19004 H 1788.74 -1.94114 6.43249 0
M  V30 19005 N 1791.46 -1.48941 -0.515198 0
M  V30 19006 C 1792.41 -1.60958 -1.61482 0
M  V30 19007 C 1793.39 -0.46591 -1.54007 0
M  V30 19008 O 1794.58 -0.718134 -1.61777 0
M  V30 19009 C 1791.71 -1.66623 -3.00153 0
M  V30 19010 C 1790.8 -2.8652 -3.12677 0
M  V30 19011 N 1791.19 -4.10769 -2.95131 0
M  V30 19012 C 1789.49 -2.84161 -3.43756 0
M  V30 19013 C 1790.19 -4.9129 -3.11463 0
M  V30 19014 N 1789.16 -4.24384 -3.39704 0
M  V30 19015 H 1792.97 -2.54756 -1.46549 0
M  V30 19016 H 1790.48 -1.45517 -0.721007 0
M  V30 19017 H 1792.48 -1.73328 -3.79161 0
M  V30 19018 H 1791.14 -0.739523 -3.16166 0
M  V30 19019 H 1792.15 -4.40974 -2.71593 0
M  V30 19020 H 1788.83 -2.00809 -3.66035 0
M  V30 19021 H 1790.22 -5.99948 -3.0251 0
M  V30 19022 N 1792.94 0.765193 -1.37777 0
M  V30 19023 C 1794.18 1.52096 -1.33084 0
M  V30 19024 C 1794.5 1.94827 0.08221 0
M  V30 19025 O 1793.77 1.66787 1.02757 0
M  V30 19026 H 1792.35 0.564139 -0.489649 0
M  V30 19027 H 1795.02 0.910308 -1.72335 0
M  V30 19028 H 1794.11 2.4173 -1.97416 0
M  V30 19029 N 1794.41 1.22455 0.992094 0
M  V30 19030 C 1795.66 1.05115 1.73432 0
M  V30 19031 C 1795.99 -0.412642 1.89765 0
M  V30 19032 O 1795.27 -1.3059 1.44141 0
M  V30 19033 C 1795.55 1.76385 3.13943 0
M  V30 19034 C 1795.4 3.30364 3.05253 0
M  V30 19035 C 1796.72 1.51688 4.13133 0
M  V30 19036 H 1793.84 0.383261 0.629508 0
M  V30 19037 H 1796.48 1.50805 1.15576 0
M  V30 19038 H 1794.63 1.37544 3.63337 0
M  V30 19039 H 1796.31 3.78655 2.63474 0
M  V30 19040 H 1794.55 3.6 2.42038 0
M  V30 19041 H 1795.22 3.75409 4.04687 0
M  V30 19042 H 1797.7 1.85429 3.72499 0
M  V30 19043 H 1796.57 2.04049 5.09564 0
M  V30 19044 H 1796.83 0.449654 4.39807 0
M  V30 19045 N 1795.89 -1.18905 1.03437 0
M  V30 19046 C 1797.13 -1.90424 0.74284 0
M  V30 19047 C 1797.5 -1.78157 -0.715837 0
M  V30 19048 O 1798.7 -2.44323 -1.12069 0
M  V30 19049 C 1796.97 -3.37067 1.18831 0
M  V30 19050 S 1798.53 -4.26745 1.02146 0
M  V30 19051 H 1795.34 -0.657626 0.270275 0
M  V30 19052 H 1797.95 -1.43717 1.32535 0
M  V30 19053 H 1796.65 -3.43522 2.24545 0
M  V30 19054 H 1796.18 -3.88808 0.599328 0
M  V30 19055 H 1798.2 -4.96158 -0.0647961 0
M  V30 19056 N 1797.37 -0.812977 -1.35013 0
M  V30 19057 C 1798.59 -0.407969 -2.03348 0
M  V30 19058 C 1799.02 0.975148 -1.60849 0
M  V30 19059 O 1798.38 1.63267 -0.788256 0
M  V30 19060 C 1798.43 -0.506754 -3.57022 0
M  V30 19061 O 1797.53 0.477322 -4.09628 0
M  V30 19062 H 1796.87 -0.169416 -0.642023 0
M  V30 19063 H 1799.4 -1.10064 -1.72474 0
M  V30 19064 H 1799.41 -0.378883 -4.06237 0
M  V30 19065 H 1798.09 -1.51557 -3.87302 0
M  V30 19066 H 1796.66 0.309161 -3.71616 0
M  V30 19067 N 1798.85 1.47045 -0.567045 0
M  V30 19068 C 1800.07 2.0734 -0.0498828 0
M  V30 19069 C 1800.5 1.41545 1.23881 0
M  V30 19070 O 1799.86 0.493798 1.74446 0
M  V30 19071 C 1799.9 3.60404 0.118782 0
M  V30 19072 O 1799.01 3.95186 1.17905 0
M  V30 19073 H 1798.35 0.661656 -0.055746 0
M  V30 19074 H 1800.88 1.8892 -0.78553 0
M  V30 19075 H 1800.89 4.06664 0.3299 0
M  V30 19076 H 1799.56 4.07688 -0.822409 0
M  V30 19077 H 1798.14 3.60658 0.947644 0
M  V30 19078 N 1800.33 0.304 1.5464 0
M  V30 19079 C 1801.57 -0.297701 2.0121 0
M  V30 19080 C 1801.93 -1.51295 1.18859 0
M  V30 19081 O 1801.22 -1.89859 0.257697 0
M  V30 19082 C 1801.41 -0.702651 3.50425 0
M  V30 19083 C 1801.24 0.47181 4.47218 0
M  V30 19084 C 1800.01 0.964773 4.96004 0
M  V30 19085 C 1802.21 1.31774 4.97132 0
M  V30 19086 N 1800.19 2.10568 5.76658 0
M  V30 19087 C 1801.56 2.3061 5.75516 0
M  V30 19088 C 1803.62 1.34777 4.79312 0
M  V30 19089 C 1802.32 3.32228 6.37979 0
M  V30 19090 C 1804.35 2.35255 5.42595 0
M  V30 19091 C 1803.71 3.3282 6.20814 0
M  V30 19092 H 1799.81 -0.073314 0.778556 0
M  V30 19093 H 1802.39 0.434597 1.89788 0
M  V30 19094 H 1800.56 -1.40412 3.62131 0
M  V30 19095 H 1802.3 -1.28415 3.83786 0
M  V30 19096 H 1799.05 0.539254 4.7052 0
M  V30 19097 H 1799.47 2.68063 6.21668 0
M  V30 19098 H 1804.12 0.607191 4.18417 0
M  V30 19099 H 1801.83 4.07203 6.98005 0
M  V30 19100 H 1805.42 2.38355 5.30733 0
M  V30 19101 H 1804.3 4.09296 6.68914 0
M  V30 19102 N 1801.8 -1.57568 0.0317802 0
M  V30 19103 C 1802.73 -2.13412 -0.947499 0
M  V30 19104 C 1803.71 -1.05091 -1.33753 0
M  V30 19105 O 1804.9 -1.32936 -1.41568 0
M  V30 19106 C 1802.03 -2.66337 -2.22895 0
M  V30 19107 C 1800.98 -3.79469 -1.97958 0
M  V30 19108 C 1800.31 -4.18833 -3.3239 0
M  V30 19109 C 1801.61 -5.05432 -1.31664 0
M  V30 19110 H 1803.3 -2.95488 -0.482417 0
M  V30 19111 H 1800.85 -1.42142 -0.230603 0
M  V30 19112 H 1802.8 -3.04039 -2.91784 0
M  V30 19113 H 1801.53 -1.81426 -2.71574 0
M  V30 19114 H 1800.19 -3.42209 -1.31485 0
M  V30 19115 H 1799.83 -3.30899 -3.78833 0
M  V30 19116 H 1799.53 -4.95071 -3.16511 0
M  V30 19117 H 1801.06 -4.5912 -4.02544 0
M  V30 19118 H 1802.47 -5.40704 -1.90558 0
M  V30 19119 H 1800.87 -5.86686 -1.26173 0
M  V30 19120 H 1801.94 -4.84032 -0.28996 0
M  V30 19121 N 1803.28 0.241399 -1.5574 0
M  V30 19122 C 1804.23 1.31868 -1.91608 0
M  V30 19123 C 1805.22 1.49545 -0.795774 0
M  V30 19124 O 1806.43 1.50955 -0.980442 0
M  V30 19125 H 1802.81 0.441685 -0.60862 0
M  V30 19126 H 1804.78 0.98887 -2.81538 0
M  V30 19127 C 1803.53 2.66602 -2.23201 0
M  V30 19128 H 1802.85 2.53802 -3.08909 0
M  V30 19129 H 1804.29 3.40842 -2.52196 0
M  V30 19130 C 1802.75 3.20112 -1.05024 0
M  V30 19131 O 1803.28 4.0057 -0.301069 0
M  V30 19132 N 1801.48 2.78214 -0.839381 0
M  V30 19133 H 1801.03 2.12894 -1.4503 0
M  V30 19134 H 1800.99 3.1436 -0.050362 0
M  V30 19135 N 1804.76 1.49212 0.507292 0
M  V30 19136 C 1806.18 1.35835 0.837908 0
M  V30 19137 C 1806.38 0.386634 1.97756 0
M  V30 19138 O 1805.43 -0.183971 2.51829 0
M  V30 19139 C 1806.75 2.76407 1.18404 0
M  V30 19140 C 1808.29 2.85062 1.29262 0
M  V30 19141 C 1808.77 4.26387 1.67208 0
M  V30 19142 N 1810.26 4.29168 1.74268 0
M  V30 19143 C 1810.99 5.35479 2.05061 0
M  V30 19144 N 1810.49 6.52042 2.34121 0
M  V30 19145 N 1812.28 5.2289 2.06259 0
M  V30 19146 H 1804.43 2.1099 -0.244311 0
M  V30 19147 H 1806.7 0.946849 -0.0466977 0
M  V30 19148 H 1806.4 3.49183 0.420053 0
M  V30 19149 H 1806.28 3.11376 2.12896 0
M  V30 19150 H 1808.66 2.12528 2.04734 0
M  V30 19151 H 1808.75 2.53684 0.328359 0
M  V30 19152 H 1808.39 4.99445 0.922884 0
M  V30 19153 H 1808.32 4.55225 2.64723 0
M  V30 19154 H 1810.81 3.45099 1.53996 0
M  V30 19155 H 1811.12 7.2889 2.56787 0
M  V30 19156 H 1809.47 6.55279 2.31591 0
M  V30 19157 H 1812.66 4.30834 1.83028 0
M  V30 19158 H 1812.83 6.05838 2.29923 0
M  V30 19159 N 1806.24 -0.757876 1.38181 0
M  V30 19160 C 1807.49 -1.51222 1.33472 0
M  V30 19161 C 1807.8 -1.9546 -0.0740525 0
M  V30 19162 O 1809.01 -2.70404 -0.243664 0
M  V30 19163 C 1807.46 -2.73138 2.34358 0
M  V30 19164 C 1807.07 -2.35943 3.80835 0
M  V30 19165 C 1808.81 -3.51041 2.38685 0
M  V30 19166 C 1806.72 -3.54444 4.73417 0
M  V30 19167 H 1805.65 -0.567789 0.496116 0
M  V30 19168 H 1808.3 -0.828861 1.63714 0
M  V30 19169 H 1806.68 -3.43433 1.97153 0
M  V30 19170 H 1807.86 -1.73341 4.26954 0
M  V30 19171 H 1806.17 -1.71184 3.79585 0
M  V30 19172 H 1808.77 -4.39143 3.05054 0
M  V30 19173 H 1809.11 -3.91892 1.40451 0
M  V30 19174 H 1809.65 -2.87755 2.74667 0
M  V30 19175 H 1806.39 -3.18663 5.7283 0
M  V30 19176 H 1805.91 -4.16103 4.31993 0
M  V30 19177 H 1807.58 -4.21081 4.91223 0
M  V30 19178 N 1807.72 -1.22979 -0.985586 0
M  V30 19179 C 1808.65 -0.964185 -2.07933 0
M  V30 19180 C 1809.66 0.0599162 -1.6269 0
M  V30 19181 O 1810.85 -0.174984 -1.7764 0
M  V30 19182 C 1807.95 -0.429879 -3.36163 0
M  V30 19183 C 1807.12 -1.51293 -4.10401 0
M  V30 19184 C 1806.18 -0.984411 -5.1691 0
M  V30 19185 O 1805.21 -1.67225 -5.44081 0
M  V30 19186 N 1806.41 0.190439 -5.80188 0
M  V30 19187 H 1809.18 -1.90582 -2.31297 0
M  V30 19188 H 1806.74 -1.13767 -1.15189 0
M  V30 19189 H 1808.73 -0.0614639 -4.04653 0
M  V30 19190 H 1807.3 0.417049 -3.09806 0
M  V30 19191 H 1806.52 -2.05434 -3.36438 0
M  V30 19192 H 1807.81 -2.24141 -4.56769 0
M  V30 19193 H 1807.2 0.765928 -5.60491 0
M  V30 19194 H 1805.76 0.500168 -6.49878 0
M  V30 19195 N 1809.19 1.18355 -1.04066 0
M  V30 19196 C 1810.16 2.20195 -0.636148 0
M  V30 19197 C 1811.16 1.57853 0.306457 0
M  V30 19198 O 1812.35 1.73958 0.0918576 0
M  V30 19199 C 1809.48 3.40833 0.0673423 0
M  V30 19200 H 1810.67 2.57497 -1.53738 0
M  V30 19201 H 1808.23 1.32239 -0.833214 0
M  V30 19202 H 1808.96 3.09063 0.982371 0
M  V30 19203 H 1808.75 3.87324 -0.610145 0
M  V30 19204 H 1810.24 4.16239 0.336869 0
M  V30 19205 N 1810.67 0.820125 1.3458 0
M  V30 19206 C 1811.95 0.329573 1.92803 0
M  V30 19207 C 1812.33 -1.18271 1.74858 0
M  V30 19208 O 1811.68 -1.98851 1.12564 0
M  V30 19209 C 1811.89 0.755833 3.40717 0
M  V30 19210 C 1813.24 0.75306 4.17869 0
M  V30 19211 O 1814.26 0.698235 3.49289 0
M  V30 19212 O 1813.12 0.823708 5.40257 0
M  V30 19213 H 1810.21 0.0893898 0.822155 0
M  V30 19214 H 1812.76 0.904729 1.43571 0
M  V30 19215 H 1811.53 1.79757 3.47568 0
M  V30 19216 H 1811.15 0.15622 3.97293 0
M  V30 19217 N 1812.15 -1.46743 0.574835 0
M  V30 19218 C 1813.06 -2.34015 -0.16559 0
M  V30 19219 C 1814.08 -1.49273 -0.894064 0
M  V30 19220 O 1815.25 -1.82162 -0.859013 0
M  V30 19221 C 1812.32 -3.26313 -1.17136 0
M  V30 19222 C 1811.38 -4.26952 -0.448413 0
M  V30 19223 C 1810.61 -5.1484 -1.40627 0
M  V30 19224 O 1810.83 -5.05508 -2.6423 0
M  V30 19225 O 1809.77 -5.9481 -0.921143 0
M  V30 19226 H 1813.59 -2.98664 0.550754 0
M  V30 19227 H 1811.18 -1.45589 0.335297 0
M  V30 19228 H 1813.06 -3.83276 -1.75149 0
M  V30 19229 H 1811.74 -2.64269 -1.86931 0
M  V30 19230 H 1810.64 -3.73698 0.17336 0
M  V30 19231 H 1811.98 -4.91759 0.208419 0
M  V30 19232 N 1813.63 -0.312197 -1.54477 0
M  V30 19233 C 1814.56 0.551829 -2.26886 0
M  V30 19234 C 1815.54 1.12874 -1.27254 0
M  V30 19235 O 1816.72 1.15599 -1.56046 0
M  V30 19236 C 1813.85 1.71839 -3.01809 0
M  V30 19237 C 1812.81 1.27131 -4.08683 0
M  V30 19238 C 1812.13 2.52392 -4.71384 0
M  V30 19239 C 1813.43 0.394413 -5.20809 0
M  V30 19240 H 1815.13 -0.0521331 -2.99355 0
M  V30 19241 H 1812.67 -0.0265138 -1.43976 0
M  V30 19242 H 1814.63 2.32903 -3.5119 0
M  V30 19243 H 1813.35 2.34876 -2.26938 0
M  V30 19244 H 1812.01 0.683666 -3.60169 0
M  V30 19245 H 1811.66 3.13768 -3.93139 0
M  V30 19246 H 1811.36 2.23174 -5.43569 0
M  V30 19247 H 1812.88 3.14239 -5.23533 0
M  V30 19248 H 1814.3 0.911031 -5.66015 0
M  V30 19249 H 1812.69 0.195517 -5.99781 0
M  V30 19250 H 1813.76 -0.577661 -4.81447 0
M  V30 19251 N 1815.11 1.57549 -0.040136 0
M  V30 19252 C 1816.35 1.92535 0.637037 0
M  V30 19253 C 1816.69 0.917836 1.71141 0
M  V30 19254 O 1815.96 -0.057824 1.94414 0
M  V30 19255 C 1816.24 3.37955 1.24333 0
M  V30 19256 C 1816.1 4.49449 0.177761 0
M  V30 19257 C 1817.42 3.8355 2.15818 0
M  V30 19258 H 1814.53 0.700157 0.230107 0
M  V30 19259 H 1817.18 1.89739 -0.0996468 0
M  V30 19260 H 1815.33 3.40468 1.87119 0
M  V30 19261 H 1817 4.59065 -0.453507 0
M  V30 19262 H 1815.24 4.30961 -0.495486 0
M  V30 19263 H 1815.91 5.48256 0.641792 0
M  V30 19264 H 1818.39 3.82842 1.63006 0
M  V30 19265 H 1817.26 4.85974 2.55188 0
M  V30 19266 H 1817.53 3.19678 3.05382 0
M  V30 19267 N 1816.58 -0.233136 1.55866 0
M  V30 19268 C 1818 -0.801092 1.6864 0
M  V30 19269 C 1818.35 -1.85465 0.640081 0
M  V30 19270 O 1817.47 -2.15368 -0.211038 0
M  V30 19271 C 1818.07 -1.45984 3.05735 0
M  V30 19272 C 1816.63 -1.97533 3.20403 0
M  V30 19273 C 1815.77 -0.831321 2.64546 0
M  V30 19274 H 1818.72 -0.00868708 1.58698 0
M  V30 19275 H 1818.74 -2.32832 3.00948 0
M  V30 19276 H 1818.26 -0.692805 3.81866 0
M  V30 19277 H 1816.36 -2.77074 2.4912 0
M  V30 19278 H 1816.47 -2.16326 4.27481 0
M  V30 19279 H 1814.83 -1.23554 2.22725 0
M  V30 19280 H 1815.62 -0.0771465 3.43213 0
M  V30 19281 N 1818.06 -1.49479 -0.499372 0
M  V30 19282 C 1819.3 -1.60667 -1.26355 0
M  V30 19283 C 1819.67 -0.28764 -1.89833 0
M  V30 19284 O 1820.87 -0.274714 -2.67393 0
M  V30 19285 C 1819.14 -2.73489 -2.30084 0
M  V30 19286 S 1820.7 -3.04637 -3.15819 0
M  V30 19287 H 1817.52 -0.566696 -0.429391 0
M  V30 19288 H 1820.12 -1.87145 -0.565436 0
M  V30 19289 H 1818.82 -3.67846 -1.81982 0
M  V30 19290 H 1818.35 -2.49009 -3.04562 0
M  V30 19291 H 1820.37 -2.46284 -4.30765 0
M  V30 19292 N 1819.54 0.750537 -1.38581 0
M  V30 19293 C 1820.79 1.50974 -1.34956 0
M  V30 19294 C 1821.12 1.94409 0.0594396 0
M  V30 19295 O 1820.37 1.65957 1.03715 0
M  V30 19296 C 1820.67 2.77356 -2.25407 0
M  V30 19297 C 1820.34 2.52868 -3.73321 0
M  V30 19298 C 1819 2.45899 -4.13627 0
M  V30 19299 C 1821.35 2.31554 -4.66939 0
M  V30 19300 C 1818.68 2.15635 -5.45636 0
M  V30 19301 C 1821.03 2.02811 -5.99208 0
M  V30 19302 C 1819.69 1.943 -6.38595 0
M  V30 19303 H 1818.96 0.552453 -0.493838 0
M  V30 19304 H 1821.61 0.862769 -1.70964 0
M  V30 19305 H 1819.92 3.46719 -1.82465 0
M  V30 19306 H 1821.61 3.35326 -2.19904 0
M  V30 19307 H 1818.2 2.59165 -3.41367 0
M  V30 19308 H 1822.39 2.35916 -4.36643 0
M  V30 19309 H 1817.64 2.07556 -5.75092 0
M  V30 19310 H 1821.82 1.85323 -6.71289 0
M  V30 19311 H 1819.44 1.70614 -7.40807 0
M  V30 19312 N 1821.02 1.235 0.979051 0
M  V30 19313 C 1822.27 1.06949 1.72307 0
M  V30 19314 C 1822.6 -0.392491 1.90192 0
M  V30 19315 O 1821.87 -1.29054 1.45518 0
M  V30 19316 C 1822.16 1.79705 3.12055 0
M  V30 19317 C 1822.01 3.33583 3.01732 0
M  V30 19318 C 1823.33 1.56062 4.11501 0
M  V30 19319 H 1820.45 0.389917 0.625407 0
M  V30 19320 H 1823.09 1.52022 1.1397 0
M  V30 19321 H 1821.24 1.4139 3.61858 0
M  V30 19322 H 1822.91 3.81428 2.59443 0
M  V30 19323 H 1821.15 3.62547 2.38206 0
M  V30 19324 H 1821.83 3.79681 4.00683 0
M  V30 19325 H 1824.3 1.8937 3.70511 0
M  V30 19326 H 1823.18 2.09442 5.07371 0
M  V30 19327 H 1823.44 0.496276 4.39306 0
M  V30 19328 N 1822.5 -1.17802 1.04693 0
M  V30 19329 C 1823.91 -1.39944 0.76733 0
M  V30 19330 C 1824.11 -1.91051 -0.640451 0
M  V30 19331 O 1823.17 -2.09889 -1.40366 0
M  V30 19332 C 1824.48 -2.39465 1.81871 0
M  V30 19333 C 1826.03 -2.5318 1.84035 0
M  V30 19334 C 1826.51 -3.55971 2.88182 0
M  V30 19335 N 1828 -3.63484 2.87113 0
M  V30 19336 C 1828.73 -4.42762 3.64348 0
M  V30 19337 N 1828.23 -5.25597 4.51353 0
M  V30 19338 N 1830.02 -4.37586 3.52809 0
M  V30 19339 H 1822.17 -0.829567 1.9553 0
M  V30 19340 H 1824.43 -0.427009 0.846385 0
M  V30 19341 H 1824.14 -2.08974 2.82883 0
M  V30 19342 H 1824.01 -3.38899 1.65612 0
M  V30 19343 H 1826.4 -2.82984 0.836908 0
M  V30 19344 H 1826.48 -1.53837 2.04371 0
M  V30 19345 H 1826.13 -3.26906 3.88709 0
M  V30 19346 H 1826.06 -4.55006 2.65099 0
M  V30 19347 H 1828.55 -3.04338 2.24024 0
M  V30 19348 H 1828.86 -5.83258 5.06981 0
M  V30 19349 H 1827.21 -5.24996 4.55417 0
M  V30 19350 H 1830.4 -3.71924 2.84236 0
M  V30 19351 H 1830.57 -4.99128 4.13249 0
M  V30 19352 N 1823.98 -0.827251 -1.34143 0
M  V30 19353 C 1825.22 -0.41656 -1.9776 0
M  V30 19354 C 1825.54 1.02488 -1.65895 0
M  V30 19355 O 1824.81 1.71219 -0.951891 0
M  V30 19356 H 1823.39 -0.151044 -0.73157 0
M  V30 19357 H 1826.06 -1.05765 -1.63706 0
M  V30 19358 H 1825.15 -0.539101 -3.07409 0
M  V30 19359 N 1825.45 1.46436 -0.582609 0
M  V30 19360 C 1826.42 2.28769 0.140502 0
M  V30 19361 C 1827.42 1.38385 0.818911 0
M  V30 19362 O 1828.61 1.60763 0.670882 0
M  V30 19363 C 1825.74 3.18765 1.20836 0
M  V30 19364 H 1826.93 2.94178 -0.583049 0
M  V30 19365 H 1824.48 1.52544 -0.340575 0
M  V30 19366 H 1825.22 2.58103 1.9635 0
M  V30 19367 H 1825 3.85312 0.726417 0
M  V30 19368 H 1826.49 3.80735 1.71553 0
M  V30 19369 N 1826.93 0.320385 1.54309 0
M  V30 19370 C 1828.34 -0.16833 1.8594 0
M  V30 19371 C 1828.69 -1.51877 1.24208 0
M  V30 19372 O 1827.82 -2.09374 0.546933 0
M  V30 19373 C 1828.41 -0.312212 3.37358 0
M  V30 19374 C 1826.97 -0.745147 3.68951 0
M  V30 19375 C 1826.12 0.135038 2.76971 0
M  V30 19376 H 1829.07 0.540773 1.49202 0
M  V30 19377 H 1829.09 -1.14364 3.62906 0
M  V30 19378 H 1828.6 0.670809 3.82259 0
M  V30 19379 H 1826.7 -1.73803 3.29581 0
M  V30 19380 H 1826.82 -0.5511 4.7592 0
M  V30 19381 H 1825.18 -0.388886 2.51714 0
M  V30 19382 H 1825.96 1.11477 3.24697 0
M  V30 19383 N 1828.41 -1.57525 0.0484906 0
M  V30 19384 C 1829.63 -1.97309 -0.639062 0
M  V30 19385 C 1830.06 -0.925753 -1.63742 0
M  V30 19386 O 1829.42 0.111304 -1.80958 0
M  V30 19387 C 1829.47 -3.36168 -1.30475 0
M  V30 19388 O 1828.57 -3.33903 -2.42038 0
M  V30 19389 H 1827.91 -0.642824 -0.166351 0
M  V30 19390 H 1830.44 -2.0427 0.116095 0
M  V30 19391 H 1830.45 -3.72835 -1.65705 0
M  V30 19392 H 1829.13 -4.11933 -0.573057 0
M  V30 19393 H 1827.7 -3.08978 -2.08775 0
M  V30 19394 N 1829.89 0.224867 -1.55988 0
M  V30 19395 C 1831.13 0.949747 -1.78846 0
M  V30 19396 C 1831.46 1.84465 -0.616678 0
M  V30 19397 O 1830.72 1.91587 0.399098 0
M  V30 19398 C 1831.02 1.8227 -3.07429 0
M  V30 19399 C 1830.68 1.08131 -4.37743 0
M  V30 19400 C 1829.34 0.876497 -4.7315 0
M  V30 19401 C 1831.7 0.557505 -5.1821 0
M  V30 19402 C 1829.02 0.13593 -5.86543 0
M  V30 19403 C 1831.38 -0.169702 -6.32372 0
M  V30 19404 C 1830.04 -0.385796 -6.66384 0
M  V30 19405 H 1829.31 0.347537 -0.654446 0
M  V30 19406 H 1831.96 0.218162 -1.90253 0
M  V30 19407 H 1830.26 2.62204 -2.91129 0
M  V30 19408 H 1831.96 2.38564 -3.22317 0
M  V30 19409 H 1828.55 1.25091 -4.09939 0
M  V30 19410 H 1832.73 0.703218 -4.91293 0
M  V30 19411 H 1827.99 -0.0417543 -6.11386 0
M  V30 19412 H 1832.16 -0.583104 -6.93955 0
M  V30 19413 H 1829.79 -0.961574 -7.54094 0
M  V30 19414 N 1831.37 1.49742 0.491438 0
M  V30 19415 C 1832.32 1.63507 1.58901 0
M  V30 19416 C 1833.3 0.490352 1.53246 0
M  V30 19417 O 1834.49 0.74378 1.60614 0
M  V30 19418 C 1831.62 1.71377 2.97464 0
M  V30 19419 C 1830.71 2.91458 3.08079 0
M  V30 19420 N 1831.1 4.15412 2.88559 0
M  V30 19421 C 1829.4 2.89594 3.39192 0
M  V30 19422 C 1830.1 4.96183 3.03608 0
M  V30 19423 N 1829.07 4.29735 3.3291 0
M  V30 19424 H 1832.87 2.57055 1.42478 0
M  V30 19425 H 1830.39 1.46646 0.697765 0
M  V30 19426 H 1832.39 1.79338 3.76355 0
M  V30 19427 H 1831.05 0.789729 3.1495 0
M  V30 19428 H 1832.06 4.45239 2.64543 0
M  V30 19429 H 1828.73 2.06607 3.62794 0
M  V30 19430 H 1830.12 6.04684 2.92927 0
M  V30 19431 N 1832.84 -0.743177 1.38977 0
M  V30 19432 C 1833.77 -1.87047 1.3977 0
M  V30 19433 C 1834.76 -1.68068 0.262161 0
M  V30 19434 O 1835.94 -1.88507 0.466782 0
M  V30 19435 C 1833.07 -3.24701 1.23234 0
M  V30 19436 C 1832.02 -3.58302 2.34102 0
M  V30 19437 C 1831.35 -4.94805 2.02663 0
M  V30 19438 C 1832.65 -3.62111 3.76395 0
M  V30 19439 H 1834.34 -1.8664 2.34107 0
M  V30 19440 H 1831.89 -0.896541 1.12686 0
M  V30 19441 H 1833.84 -4.03228 1.22412 0
M  V30 19442 H 1832.57 -3.25614 0.253638 0
M  V30 19443 H 1831.23 -2.82099 2.34128 0
M  V30 19444 H 1830.87 -4.92289 1.0325 0
M  V30 19445 H 1830.57 -5.18254 2.76922 0
M  V30 19446 H 1832.1 -5.75699 2.03477 0
M  V30 19447 H 1833.51 -4.30731 3.78343 0
M  V30 19448 H 1831.91 -3.97075 4.49946 0
M  V30 19449 H 1832.98 -2.62099 4.07961 0
M  V30 19450 N 1834.32 -1.24018 -0.972487 0
M  V30 19451 C 1835.73 -1.07076 -1.52943 0
M  V30 19452 C 1836.08 0.35937 -1.92881 0
M  V30 19453 O 1835.21 1.24713 -1.76849 0
M  V30 19454 C 1835.8 -1.93753 -2.7793 0
M  V30 19455 C 1834.36 -1.81048 -3.29998 0
M  V30 19456 C 1833.51 -1.88977 -2.02936 0
M  V30 19457 H 1836.46 -1.37565 -0.791304 0
M  V30 19458 H 1836.48 -1.46699 -3.51084 0
M  V30 19459 H 1835.99 -2.97833 -2.48832 0
M  V30 19460 H 1834.1 -0.797825 -3.63958 0
M  V30 19461 H 1834.21 -2.64876 -3.99221 0
M  V30 19462 H 1832.57 -1.32649 -2.17431 0
M  V30 19463 H 1833.36 -2.94627 -1.76209 0
M  V30 19464 N 1835.8 1.17245 -1.05316 0
M  V30 19465 C 1837.22 1.39535 -0.774741 0
M  V30 19466 C 1837.42 1.91388 0.63031 0
M  V30 19467 O 1836.47 2.10631 1.39251 0
M  V30 19468 C 1837.79 2.38497 -1.83139 0
M  V30 19469 C 1839.33 2.52201 -1.85375 0
M  V30 19470 C 1839.81 3.54437 -2.90066 0
M  V30 19471 N 1841.3 3.61956 -2.89037 0
M  V30 19472 C 1842.03 4.40824 -3.66691 0
M  V30 19473 N 1841.53 5.23196 -4.54134 0
M  V30 19474 N 1843.32 4.35709 -3.55125 0
M  V30 19475 H 1835.47 0.819186 -1.95967 0
M  V30 19476 H 1837.74 0.422515 -0.848637 0
M  V30 19477 H 1837.44 2.07471 -2.83987 0
M  V30 19478 H 1837.32 3.38016 -1.67407 0
M  V30 19479 H 1839.7 2.82536 -0.851904 0
M  V30 19480 H 1839.79 1.52751 -2.05184 0
M  V30 19481 H 1839.43 3.2484 -3.90437 0
M  V30 19482 H 1839.36 4.53593 -2.67508 0
M  V30 19483 H 1841.85 3.03146 -2.25635 0
M  V30 19484 H 1842.16 5.80562 -5.10067 0
M  V30 19485 H 1840.51 5.22573 -4.58194 0
M  V30 19486 H 1843.7 3.70411 -2.86205 0
M  V30 19487 H 1843.87 4.9693 -4.1589 0
M  V30 19488 N 1837.28 0.834353 1.33702 0
M  V30 19489 C 1838.23 0.252818 2.31222 0
M  V30 19490 C 1839.22 -0.612723 1.57931 0
M  V30 19491 O 1840.43 -0.502788 1.72835 0
M  V30 19492 H 1836.8 0.0630243 0.749354 0
M  V30 19493 H 1838.77 1.08992 2.77783 0
M  V30 19494 C 1837.52 -0.561132 3.43142 0
M  V30 19495 H 1836.84 0.0955723 3.99686 0
M  V30 19496 H 1838.28 -0.933951 4.13586 0
M  V30 19497 C 1836.74 -1.73817 2.88599 0
M  V30 19498 O 1837.27 -2.83674 2.84415 0
M  V30 19499 N 1835.48 -1.5586 2.45267 0
M  V30 19500 H 1835.03 -0.664959 2.4887 0
M  V30 19501 H 1834.98 -2.34764 2.09125 0
M  V30 19502 N 1838.76 -1.46125 0.590367 0
M  V30 19503 C 1840.17 -1.85962 0.165876 0
M  V30 19504 C 1840.52 -1.49296 -1.27299 0
M  V30 19505 O 1839.64 -0.911461 -1.96269 0
M  V30 19506 C 1840.24 -3.3752 0.294262 0
M  V30 19507 C 1838.8 -3.76324 -0.0754118 0
M  V30 19508 C 1837.94 -2.70126 0.626682 0
M  V30 19509 H 1840.9 -1.3717 0.79812 0
M  V30 19510 H 1840.92 -3.77482 -0.4783 0
M  V30 19511 H 1840.43 -3.64175 1.34159 0
M  V30 19512 H 1838.53 -3.55287 -1.12258 0
M  V30 19513 H 1838.64 -4.7812 0.306241 0
M  V30 19514 H 1837.01 -2.54614 0.0661219 0
M  V30 19515 H 1837.79 -2.99619 1.6758 0
M  V30 19516 N 1840.23 -0.328564 -1.54137 0
M  V30 19517 C 1841.17 0.569226 -2.22019 0
M  V30 19518 C 1842.18 1.0759 -1.22181 0
M  V30 19519 O 1843.37 0.988621 -1.48622 0
M  V30 19520 C 1840.47 1.79439 -2.87498 0
M  V30 19521 C 1839.64 1.42555 -4.13517 0
M  V30 19522 C 1838.7 2.50878 -4.62544 0
M  V30 19523 O 1837.73 2.14812 -5.27109 0
M  V30 19524 N 1838.93 3.8189 -4.37196 0
M  V30 19525 H 1841.69 -0.0120478 -2.99698 0
M  V30 19526 H 1839.25 -0.151994 -1.61185 0
M  V30 19527 H 1841.25 2.51307 -3.17218 0
M  V30 19528 H 1839.82 2.28339 -2.13495 0
M  V30 19529 H 1839.04 0.538288 -3.90507 0
M  V30 19530 H 1840.32 1.1549 -4.9552 0
M  V30 19531 H 1839.72 4.13987 -3.85527 0
M  V30 19532 H 1838.28 4.49974 -4.71558 0
M  V30 19533 N 1841.71 1.57497 -0.0568439 0
M  V30 19534 C 1842.96 1.932 0.61658 0
M  V30 19535 C 1843.29 0.935936 1.70158 0
M  V30 19536 O 1842.57 -0.0372005 1.94464 0
M  V30 19537 C 1842.85 3.39254 1.20742 0
M  V30 19538 C 1842.7 4.49612 0.130081 0
M  V30 19539 C 1844.02 3.85817 2.11738 0
M  V30 19540 H 1841.14 0.702558 0.222668 0
M  V30 19541 H 1843.78 1.89622 -0.119765 0
M  V30 19542 H 1841.93 3.42434 1.83497 0
M  V30 19543 H 1843.6 4.58559 -0.502172 0
M  V30 19544 H 1841.85 4.30411 -0.541167 0
M  V30 19545 H 1842.52 5.48906 0.583606 0
M  V30 19546 H 1844.99 3.8455 1.58936 0
M  V30 19547 H 1843.87 4.88653 2.50019 0
M  V30 19548 H 1844.13 3.22899 3.01974 0
M  V30 19549 N 1843.19 -0.216591 1.56105 0
M  V30 19550 C 1844.6 -0.783161 1.6948 0
M  V30 19551 C 1844.95 -1.84776 0.659716 0
M  V30 19552 O 1844.08 -2.1558 -0.188184 0
M  V30 19553 C 1844.67 -1.42733 3.07267 0
M  V30 19554 C 1843.23 -1.94123 3.2248 0
M  V30 19555 C 1842.38 -0.803216 2.65412 0
M  V30 19556 H 1845.33 0.00814542 1.58698 0
M  V30 19557 H 1845.35 -2.29627 3.034 0
M  V30 19558 H 1844.86 -0.652264 3.8258 0
M  V30 19559 H 1842.96 -2.74416 2.52045 0
M  V30 19560 H 1843.08 -2.1178 4.29751 0
M  V30 19561 H 1841.44 -1.21185 2.24023 0
M  V30 19562 H 1842.22 -0.0407398 3.43276 0
M  V30 19563 N 1844.67 -1.5 -0.48349 0
M  V30 19564 C 1845.91 -1.61998 -1.24644 0
M  V30 19565 C 1846.27 -0.307758 -1.89517 0
M  V30 19566 O 1847.47 -0.303059 -2.67086 0
M  V30 19567 C 1845.74 -2.75914 -2.27171 0
M  V30 19568 S 1847.3 -3.0797 -3.1257 0
M  V30 19569 H 1844.12 -0.571218 -0.423357 0
M  V30 19570 H 1846.72 -1.87734 -0.545555 0
M  V30 19571 H 1845.43 -3.69755 -1.7807 0
M  V30 19572 H 1844.96 -2.52225 -3.01904 0
M  V30 19573 H 1846.97 -2.50839 -4.28129 0
M  V30 19574 N 1846.15 0.735796 -1.39369 0
M  V30 19575 C 1847.4 1.49079 -1.35861 0
M  V30 19576 C 1847.71 1.95553 0.0429472 0
M  V30 19577 O 1848.91 2.70758 0.200614 0
M  V30 19578 C 1847.37 2.69375 -2.38674 0
M  V30 19579 C 1846.98 2.29854 -3.8454 0
M  V30 19580 C 1848.72 3.47199 -2.44239 0
M  V30 19581 C 1846.63 3.46868 -4.78996 0
M  V30 19582 H 1845.56 0.559825 -0.505086 0
M  V30 19583 H 1848.21 0.80271 -1.65012 0
M  V30 19584 H 1846.59 3.40253 -2.02592 0
M  V30 19585 H 1847.77 1.66527 -4.29657 0
M  V30 19586 H 1846.08 1.65123 -3.82261 0
M  V30 19587 H 1848.68 4.34234 -3.12002 0
M  V30 19588 H 1849.02 3.89608 -1.46668 0
M  V30 19589 H 1849.55 2.83349 -2.7921 0
M  V30 19590 H 1846.29 3.0951 -5.77827 0
M  V30 19591 H 1845.81 4.09178 -4.38558 0
M  V30 19592 H 1847.49 4.13213 -4.9786 0
M  V30 19593 N 1847.63 1.24532 0.965897 0
M  V30 19594 C 1848.56 1.06393 2.07853 0
M  V30 19595 C 1849.54 -0.0236467 1.70084 0
M  V30 19596 O 1850.72 0.143767 1.93667 0
M  V30 19597 C 1847.85 0.669877 3.40778 0
M  V30 19598 C 1846.81 1.70643 3.92511 0
M  V30 19599 C 1846.13 1.16738 5.21801 0
M  V30 19600 C 1847.43 3.10278 4.20149 0
M  V30 19601 H 1849.13 1.99459 2.23285 0
M  V30 19602 H 1846.67 0.960397 1.07296 0
M  V30 19603 H 1848.62 0.52997 4.18054 0
M  V30 19604 H 1847.35 -0.296477 3.25252 0
M  V30 19605 H 1846.01 1.83458 3.17393 0
M  V30 19606 H 1845.66 0.191586 5.02635 0
M  V30 19607 H 1845.36 1.86009 5.57382 0
M  V30 19608 H 1846.88 1.03963 6.01684 0
M  V30 19609 H 1848.29 3.00681 4.88123 0
M  V30 19610 H 1846.69 3.76918 4.66962 0
M  V30 19611 H 1847.76 3.58182 3.26854 0
M  V30 19612 N 1849.1 -1.16685 1.05936 0
M  V30 19613 C 1850.35 -1.87405 0.775061 0
M  V30 19614 C 1850.68 -1.81279 -0.696543 0
M  V30 19615 O 1849.96 -1.22595 -1.50999 0
M  V30 19616 C 1850.24 -3.37124 1.26569 0
M  V30 19617 C 1850.09 -3.5196 2.80078 0
M  V30 19618 C 1851.41 -4.31401 0.870695 0
M  V30 19619 H 1848.53 -0.680488 0.283028 0
M  V30 19620 H 1851.17 -1.37174 1.31466 0
M  V30 19621 H 1849.32 -3.80033 0.806653 0
M  V30 19622 H 1851 -3.18014 3.34163 0
M  V30 19623 H 1849.24 -2.9399 3.18986 0
M  V30 19624 H 1849.91 -4.5709 3.09471 0
M  V30 19625 H 1852.39 -3.96373 1.266 0
M  V30 19626 H 1851.26 -5.34676 1.2415 0
M  V30 19627 H 1851.52 -4.41529 -0.224692 0
M  V30 19628 N 1850.58 -0.841432 -1.33258 0
M  V30 19629 C 1851.83 -0.437512 -1.97307 0
M  V30 19630 C 1852.15 1.00723 -1.66973 0
M  V30 19631 O 1851.42 1.70199 -0.969998 0
M  V30 19632 H 1850 -0.158794 -0.729927 0
M  V30 19633 H 1852.66 -1.07495 -1.62575 0
M  V30 19634 H 1851.76 -0.571675 -3.0682 0
M  V30 19635 N 1852.06 1.4581 -0.598108 0
M  V30 19636 C 1853.47 1.85871 -0.175736 0
M  V30 19637 C 1853.82 1.49969 1.26505 0
M  V30 19638 O 1852.95 0.921857 1.95782 0
M  V30 19639 C 1853.54 3.37359 -0.312157 0
M  V30 19640 C 1852.1 3.76359 0.0554534 0
M  V30 19641 C 1851.25 2.6979 -0.640999 0
M  V30 19642 H 1854.2 1.36745 -0.805383 0
M  V30 19643 H 1854.22 3.7773 0.458274 0
M  V30 19644 H 1853.73 3.63458 -1.36088 0
M  V30 19645 H 1851.83 3.55878 1.10372 0
M  V30 19646 H 1851.95 4.77951 -0.331592 0
M  V30 19647 H 1850.31 2.54576 -0.0796238 0
M  V30 19648 H 1851.09 2.98726 -1.69167 0
M  V30 19649 N 1853.54 0.336733 1.53961 0
M  V30 19650 C 1854.79 -0.261343 2.00403 0
M  V30 19651 C 1855.11 -1.51612 1.22633 0
M  V30 19652 O 1854.38 -1.93072 0.331659 0
M  V30 19653 H 1852.96 -0.0995594 0.740336 0
M  V30 19654 H 1855.62 0.456319 1.89483 0
M  V30 19655 H 1854.71 -0.508557 3.07929 0
M  V30 19656 N 1855.02 -1.57465 0.0651956 0
M  V30 19657 C 1856.24 -1.9756 -0.614633 0
M  V30 19658 C 1856.66 -0.943308 -1.63546 0
M  V30 19659 O 1856.02 0.0708362 -1.82362 0
M  V30 19660 C 1856.07 -3.37735 -1.28909 0
M  V30 19661 O 1855.79 -4.37008 -0.309131 0
M  V30 19662 C 1857.29 -3.92667 -2.05736 0
M  V30 19663 H 1854.51 -0.64987 -0.167061 0
M  V30 19664 H 1857.05 -2.0405 0.135647 0
M  V30 19665 H 1855.21 -3.32352 -1.9905 0
M  V30 19666 H 1855.62 -5.18483 -0.792206 0
M  V30 19667 H 1857.1 -4.92988 -2.48329 0
M  V30 19668 H 1857.57 -3.28851 -2.91124 0
M  V30 19669 H 1858.18 -4.01431 -1.40476 0
M  V30 19670 N 1856.49 0.20831 -1.56217 0
M  V30 19671 C 1857.74 0.928886 -1.79488 0
M  V30 19672 C 1858.06 1.84337 -0.636 0
M  V30 19673 O 1857.33 1.92813 0.346416 0
M  V30 19674 H 1855.91 0.345985 -0.662045 0
M  V30 19675 H 1858.57 0.216988 -1.93688 0
M  V30 19676 H 1857.67 1.52786 -2.72145 0
M  V30 19677 N 1857.97 1.50255 0.475528 0
M  V30 19678 C 1859.22 1.60263 1.22468 0
M  V30 19679 C 1859.53 0.306389 1.93185 0
M  V30 19680 O 1860.74 0.285331 2.69997 0
M  V30 19681 C 1859.2 2.82876 2.22506 0
M  V30 19682 C 1858.8 4.19359 1.57612 0
M  V30 19683 C 1860.55 3.02228 2.98091 0
M  V30 19684 C 1858.45 5.33164 2.55911 0
M  V30 19685 H 1857.38 0.596804 0.460804 0
M  V30 19686 H 1860.04 1.76679 0.495653 0
M  V30 19687 H 1858.42 2.6001 2.98682 0
M  V30 19688 H 1859.59 4.52463 0.872559 0
M  V30 19689 H 1857.91 4.05576 0.943247 0
M  V30 19690 H 1860.5 3.84422 3.7165 0
M  V30 19691 H 1860.85 2.13781 3.57216 0
M  V30 19692 H 1861.38 3.25255 2.29029 0
M  V30 19693 H 1858.12 6.23751 2.01531 0
M  V30 19694 H 1857.64 5.04484 3.24432 0
M  V30 19695 H 1859.32 5.63554 3.17829 0
M  V30 19696 N 1859.45 -0.728395 1.39758 0
M  V30 19697 C 1860.41 -1.82415 1.38772 0
M  V30 19698 C 1861.41 -1.58278 0.283678 0
M  V30 19699 O 1862.6 -1.65556 0.541927 0
M  V30 19700 C 1859.73 -3.20309 1.16684 0
M  V30 19701 H 1860.93 -1.8469 2.36283 0
M  V30 19702 H 1858.48 -0.932729 1.25419 0
M  V30 19703 H 1859.22 -3.2369 0.198817 0
M  V30 19704 H 1859 -3.39226 1.96643 0
M  V30 19705 H 1860.49 -4.0036 1.18751 0
M  V30 19706 N 1860.93 -1.25042 -0.959279 0
M  V30 19707 C 1862.34 -1.08692 -1.51799 0
M  V30 19708 C 1862.69 0.338893 -1.93251 0
M  V30 19709 O 1861.81 1.22831 -1.78162 0
M  V30 19710 C 1862.41 -1.9669 -2.7586 0
M  V30 19711 C 1860.97 -1.84538 -3.28059 0
M  V30 19712 C 1860.12 -1.91119 -2.0092 0
M  V30 19713 H 1863.07 -1.38396 -0.776669 0
M  V30 19714 H 1863.09 -1.50414 -3.49508 0
M  V30 19715 H 1862.6 -3.00455 -2.45659 0
M  V30 19716 H 1860.7 -0.836383 -3.63091 0
M  V30 19717 H 1860.81 -2.69095 -3.96389 0
M  V30 19718 H 1859.18 -1.34948 -2.16012 0
M  V30 19719 H 1859.96 -2.9648 -1.73074 0
M  V30 19720 N 1862.41 1.16121 -1.06553 0
M  V30 19721 C 1863.65 1.86715 -0.783827 0
M  V30 19722 C 1863.98 1.81857 0.689799 0
M  V30 19723 O 1863.24 1.23093 1.5214 0
M  V30 19724 C 1863.54 3.35676 -1.22705 0
M  V30 19725 C 1863.2 3.60732 -2.70524 0
M  V30 19726 C 1861.86 3.67279 -3.10901 0
M  V30 19727 C 1864.22 3.71093 -3.65977 0
M  V30 19728 C 1861.54 3.81691 -4.45566 0
M  V30 19729 C 1863.9 3.87027 -5.00393 0
M  V30 19730 C 1862.56 3.91817 -5.40403 0
M  V30 19731 H 1861.83 0.683238 -0.286823 0
M  V30 19732 H 1864.48 1.37285 -1.3351 0
M  V30 19733 H 1862.78 3.87255 -0.595017 0
M  V30 19734 H 1864.48 3.88686 -0.986096 0
M  V30 19735 H 1861.07 3.5627 -2.38263 0
M  V30 19736 H 1865.25 3.65343 -3.35914 0
M  V30 19737 H 1860.51 3.83654 -4.76046 0
M  V30 19738 H 1864.68 3.93986 -5.74237 0
M  V30 19739 H 1862.31 4.02737 -6.44753 0
M  V30 19740 N 1863.88 0.848487 1.3281 0
M  V30 19741 C 1865.3 0.537529 1.50276 0
M  V30 19742 C 1865.5 -0.93314 1.78591 0
M  V30 19743 O 1864.56 -1.71649 1.85184 0
M  V30 19744 C 1865.87 1.41919 2.65103 0
M  V30 19745 C 1867.42 1.41897 2.78988 0
M  V30 19746 C 1867.89 2.2857 3.96888 0
M  V30 19747 N 1869.38 2.26331 4.04139 0
M  V30 19748 C 1870.12 2.90127 4.94585 0
M  V30 19749 N 1869.61 3.63011 5.9008 0
M  V30 19750 N 1871.41 2.79547 4.87658 0
M  V30 19751 H 1863.56 1.80038 1.12695 0
M  V30 19752 H 1865.82 0.768636 0.554889 0
M  V30 19753 H 1865.53 2.4647 2.50889 0
M  V30 19754 H 1865.4 1.10213 3.60739 0
M  V30 19755 H 1867.79 0.381128 2.92628 0
M  V30 19756 H 1867.87 1.77614 1.84084 0
M  V30 19757 H 1867.51 3.32418 3.84006 0
M  V30 19758 H 1867.44 1.90188 4.91056 0
M  V30 19759 H 1869.93 1.73337 3.35802 0
M  V30 19760 H 1870.25 4.08872 6.55777 0
M  V30 19761 H 1868.59 3.67119 5.90126 0
M  V30 19762 H 1871.78 2.22162 4.12021 0
M  V30 19763 H 1871.96 3.29548 5.57944 0
M  V30 19764 N 1865.36 -1.4549 0.605832 0
M  V30 19765 C 1866.59 -2.07135 0.104838 0
M  V30 19766 C 1867.01 -1.4478 -1.20085 0
M  V30 19767 O 1866.37 -0.539875 -1.73075 0
M  V30 19768 C 1866.42 -3.60593 -0.0231858 0
M  V30 19769 O 1865.52 -3.98173 -1.07386 0
M  V30 19770 H 1864.86 -0.659945 0.0732691 0
M  V30 19771 H 1867.39 -1.8677 0.835343 0
M  V30 19772 H 1867.4 -4.07396 -0.221964 0
M  V30 19773 H 1866.08 -4.05364 0.930211 0
M  V30 19774 H 1864.66 -3.63044 -0.851689 0
M  V30 19775 N 1866.84 -0.344893 -1.5378 0
M  V30 19776 C 1868.09 0.251208 -2.00936 0
M  V30 19777 C 1868.42 1.50449 -1.23269 0
M  V30 19778 O 1867.67 1.93249 -0.308738 0
M  V30 19779 C 1867.97 0.609495 -3.52165 0
M  V30 19780 C 1867.64 -0.547063 -4.47569 0
M  V30 19781 C 1866.3 -0.864456 -4.73372 0
M  V30 19782 C 1868.65 -1.3229 -5.04132 0
M  V30 19783 C 1865.98 -1.96003 -5.52991 0
M  V30 19784 C 1868.33 -2.40874 -5.84947 0
M  V30 19785 C 1866.99 -2.73171 -6.09043 0
M  V30 19786 H 1866.26 0.0919233 -0.735276 0
M  V30 19787 H 1868.91 -0.473086 -1.85564 0
M  V30 19788 H 1867.22 1.41452 -3.65375 0
M  V30 19789 H 1868.91 1.08262 -3.86109 0
M  V30 19790 H 1865.5 -0.289626 -4.2762 0
M  V30 19791 H 1869.69 -1.09095 -4.84161 0
M  V30 19792 H 1864.94 -2.21449 -5.69886 0
M  V30 19793 H 1869.12 -3.01421 -6.27789 0
M  V30 19794 H 1866.74 -3.5819 -6.70525 0
M  V30 19795 N 1868.32 1.57428 -0.0735454 0
M  V30 19796 C 1869.56 1.94654 0.590036 0
M  V30 19797 C 1869.92 0.953457 1.67114 0
M  V30 19798 O 1869.21 -0.0239893 1.91585 0
M  V30 19799 C 1869.41 3.36302 1.20978 0
M  V30 19800 C 1869.24 4.49297 0.190244 0
M  V30 19801 C 1868.01 5.04796 -0.225707 0
M  V30 19802 C 1870.2 5.11096 -0.573191 0
M  V30 19803 N 1868.19 6.01334 -1.23577 0
M  V30 19804 C 1869.56 6.03149 -1.43568 0
M  V30 19805 C 1871.61 4.9391 -0.629068 0
M  V30 19806 C 1870.31 6.7986 -2.34909 0
M  V30 19807 C 1872.34 5.71266 -1.52999 0
M  V30 19808 C 1871.7 6.62969 -2.38015 0
M  V30 19809 H 1867.8 0.759341 0.186884 0
M  V30 19810 H 1870.39 1.94113 -0.151096 0
M  V30 19811 H 1868.56 3.37578 1.92083 0
M  V30 19812 H 1870.29 3.6076 1.83398 0
M  V30 19813 H 1867.04 4.73337 0.157761 0
M  V30 19814 H 1867.47 6.54301 -1.73836 0
M  V30 19815 H 1872.11 4.22798 0.014025 0
M  V30 19816 H 1869.83 7.50249 -3.00253 0
M  V30 19817 H 1873.41 5.59989 -1.57808 0
M  V30 19818 H 1872.29 7.21781 -3.06597 0
M  V30 19819 N 1869.8 -0.200022 1.56326 0
M  V30 19820 C 1870.73 -1.27187 1.90673 0
M  V30 19821 C 1871.74 -1.41961 0.796933 0
M  V30 19822 O 1872.93 -1.42474 1.07533 0
M  V30 19823 C 1870.03 -2.64468 2.11919 0
M  V30 19824 C 1869.2 -2.71366 3.43044 0
M  V30 19825 C 1868.26 -3.89809 3.53462 0
M  V30 19826 O 1867.29 -3.77142 4.26325 0
M  V30 19827 N 1868.49 -5.05052 2.86187 0
M  V30 19828 H 1871.26 -0.980397 2.83211 0
M  V30 19829 H 1868.82 -0.389967 1.57133 0
M  V30 19830 H 1870.81 -3.42122 2.16182 0
M  V30 19831 H 1869.38 -2.86124 1.25904 0
M  V30 19832 H 1868.6 -1.80024 3.50692 0
M  V30 19833 H 1869.89 -2.72961 4.29383 0
M  V30 19834 H 1869.28 -5.18242 2.26808 0
M  V30 19835 H 1867.84 -5.8067 2.96083 0
M  V30 19836 N 1871.27 -1.50505 -0.467553 0
M  V30 19837 C 1872.21 -1.65784 -1.58267 0
M  V30 19838 C 1873.22 -0.539219 -1.53611 0
M  V30 19839 O 1874.41 -0.812524 -1.58935 0
M  V30 19840 C 1871.51 -1.62951 -2.97154 0
M  V30 19841 C 1870.68 -2.90903 -3.26641 0
M  V30 19842 C 1869.74 -2.80665 -4.451 0
M  V30 19843 O 1868.77 -3.5462 -4.45234 0
M  V30 19844 N 1869.97 -1.9446 -5.4696 0
M  V30 19845 H 1872.73 -2.6197 -1.45575 0
M  V30 19846 H 1870.29 -1.48013 -0.656029 0
M  V30 19847 H 1872.29 -1.53709 -3.74373 0
M  V30 19848 H 1870.86 -0.744855 -3.03596 0
M  V30 19849 H 1870.08 -3.14244 -2.38001 0
M  V30 19850 H 1871.36 -3.75663 -3.43155 0
M  V30 19851 H 1870.76 -1.33694 -5.49675 0
M  V30 19852 H 1869.32 -1.9112 -6.2315 0
M  V30 19853 N 1872.75 0.720973 -1.40142 0
M  V30 19854 C 1874.17 1.02835 -1.22054 0
M  V30 19855 C 1874.37 2.0129 -0.091949 0
M  V30 19856 O 1873.42 2.46395 0.551897 0
M  V30 19857 C 1874.74 1.57722 -2.56016 0
M  V30 19858 C 1876.29 1.69734 -2.62982 0
M  V30 19859 C 1876.76 2.28027 -3.972 0
M  V30 19860 N 1878.25 2.3542 -3.98913 0
M  V30 19861 C 1878.99 2.81495 -4.99548 0
M  V30 19862 N 1878.48 3.27362 -6.10578 0
M  V30 19863 N 1880.28 2.80831 -4.86919 0
M  V30 19864 H 1872.43 0.068271 -2.1229 0
M  V30 19865 H 1874.69 0.0928952 -0.943438 0
M  V30 19866 H 1874.4 0.928424 -3.39224 0
M  V30 19867 H 1874.27 2.56326 -2.76725 0
M  V30 19868 H 1876.66 2.33732 -1.80148 0
M  V30 19869 H 1876.74 0.697443 -2.46108 0
M  V30 19870 H 1876.38 1.64653 -4.80471 0
M  V30 19871 H 1876.31 3.28721 -4.114 0
M  V30 19872 H 1878.8 2.03019 -3.18735 0
M  V30 19873 H 1879.12 3.61071 -6.83263 0
M  V30 19874 H 1877.46 3.25335 -6.14152 0
M  V30 19875 H 1880.65 2.4433 -3.99275 0
M  V30 19876 H 1880.82 3.16423 -5.65492 0
M  V30 19877 N 1874.23 1.25549 0.952634 0
M  V30 19878 C 1875.16 1.01898 2.05304 0
M  V30 19879 C 1876.18 -0.0167609 1.62791 0
M  V30 19880 O 1877.36 0.222021 1.77114 0
M  V30 19881 C 1874.46 0.518856 3.34905 0
M  V30 19882 C 1873.64 1.62121 4.06246 0
M  V30 19883 C 1872.7 1.12111 5.14118 0
M  V30 19884 O 1871.72 1.81591 5.39456 0
M  V30 19885 N 1872.92 -0.0365454 5.80488 0
M  V30 19886 H 1875.69 1.96648 2.26163 0
M  V30 19887 H 1873.25 1.16782 1.12132 0
M  V30 19888 H 1875.24 0.168729 4.04348 0
M  V30 19889 H 1873.81 -0.334763 3.10802 0
M  V30 19890 H 1873.03 2.14282 3.30873 0
M  V30 19891 H 1874.32 2.36173 4.50666 0
M  V30 19892 H 1873.72 -0.617055 5.62325 0
M  V30 19893 H 1872.28 -0.327688 6.50976 0
M  V30 19894 N 1875.71 -1.15554 1.07168 0
M  V30 19895 C 1876.96 -1.86296 0.793718 0
M  V30 19896 C 1877.28 -1.8222 -0.680145 0
M  V30 19897 O 1876.54 -1.23899 -1.51485 0
M  V30 19898 C 1876.84 -3.3502 1.24484 0
M  V30 19899 C 1876.5 -3.59292 2.72434 0
M  V30 19900 C 1875.17 -3.65625 3.12844 0
M  V30 19901 C 1877.52 -3.69147 3.6794 0
M  V30 19902 C 1874.85 -3.79323 4.47584 0
M  V30 19903 C 1877.2 -3.84368 5.02438 0
M  V30 19904 C 1875.86 -3.88946 5.42473 0
M  V30 19905 H 1875.13 -0.681707 0.290442 0
M  V30 19906 H 1877.78 -1.36575 1.34236 0
M  V30 19907 H 1876.08 -3.86934 0.615546 0
M  V30 19908 H 1877.78 -3.88158 1.00669 0
M  V30 19909 H 1874.37 -3.55002 2.40149 0
M  V30 19910 H 1878.55 -3.63556 3.37847 0
M  V30 19911 H 1873.81 -3.81124 4.78074 0
M  V30 19912 H 1877.98 -3.90935 5.76318 0
M  V30 19913 H 1875.61 -3.99312 6.4688 0
M  V30 19914 N 1877.19 -0.855519 -1.32358 0
M  V30 19915 C 1878.46 -0.380575 -1.91862 0
M  V30 19916 C 1878.84 1.13593 -1.77932 0
M  V30 19917 O 1878.19 1.95797 -1.17796 0
M  V30 19918 C 1878.4 -0.845902 -3.38593 0
M  V30 19919 C 1879.75 -0.863586 -4.15725 0
M  V30 19920 O 1880.77 -0.790597 -3.47315 0
M  V30 19921 O 1879.63 -0.966658 -5.37883 0
M  V30 19922 H 1876.73 -0.111156 -0.819496 0
M  V30 19923 H 1879.27 -0.942476 -1.41122 0
M  V30 19924 H 1878.05 -1.88909 -3.42679 0
M  V30 19925 H 1877.67 -0.2615 -3.96739 0
M  V30 19926 N 1878.67 1.45167 -0.61354 0
M  V30 19927 C 1879.91 2.01407 -0.10861 0
M  V30 19928 C 1880.23 1.48701 1.27072 0
M  V30 19929 O 1881.43 1.96956 1.8687 0
M  V30 19930 C 1879.89 3.59614 -0.143466 0
M  V30 19931 C 1879.5 4.21317 -1.52302 0
M  V30 19932 C 1881.24 4.23396 0.305912 0
M  V30 19933 C 1879.15 5.71694 -1.51393 0
M  V30 19934 H 1878.08 0.7531 -0.0368359 0
M  V30 19935 H 1880.73 1.66575 -0.769748 0
M  V30 19936 H 1879.11 3.91664 0.584438 0
M  V30 19937 H 1880.29 4.00832 -2.2731 0
M  V30 19938 H 1878.6 3.69753 -1.91499 0
M  V30 19939 H 1881.2 5.33668 0.331977 0
M  V30 19940 H 1881.54 3.9449 1.32978 0
M  V30 19941 H 1882.07 3.96086 -0.36892 0
M  V30 19942 H 1878.81 6.05308 -2.5156 0
M  V30 19943 H 1878.33 5.94353 -0.80652 0
M  V30 19944 H 1880.01 6.35003 -1.24017 0
M  V30 19945 N 1880.14 0.353044 1.53595 0
M  V30 19946 C 1881.08 -0.533833 2.22897 0
M  V30 19947 C 1882.09 -1.05633 1.23877 0
M  V30 19948 O 1883.28 -0.964851 1.50176 0
M  V30 19949 C 1880.38 -1.74842 2.90316 0
M  V30 19950 C 1879.55 -1.35959 4.15733 0
M  V30 19951 C 1878.61 -2.43488 4.66476 0
M  V30 19952 O 1877.64 -2.06399 5.3046 0
M  V30 19953 N 1878.84 -3.74887 4.43216 0
M  V30 19954 H 1881.6 0.0597255 2.9964 0
M  V30 19955 H 1879.16 0.177618 1.60923 0
M  V30 19956 H 1881.16 -2.46228 3.21176 0
M  V30 19957 H 1879.73 -2.24913 2.17101 0
M  V30 19958 H 1878.95 -0.476094 3.91314 0
M  V30 19959 H 1880.23 -1.07592 4.97294 0
M  V30 19960 H 1879.63 -4.07801 3.92064 0
M  V30 19961 H 1878.19 -4.42415 4.78657 0
M  V30 19962 N 1881.62 -1.57387 0.0818932 0
M  V30 19963 C 1882.57 -2.09823 -0.892101 0
M  V30 19964 C 1883.56 -1.0102 -1.25235 0
M  V30 19965 O 1884.75 -1.27315 -1.22963 0
M  V30 19966 C 1881.88 -2.67153 -2.15601 0
M  V30 19967 C 1880.96 -3.82977 -1.8218 0
M  V30 19968 N 1881.35 -4.91541 -1.19254 0
M  V30 19969 C 1879.65 -3.92463 -2.1187 0
M  V30 19970 C 1880.35 -5.723 -1.04149 0
M  V30 19971 N 1879.33 -5.20899 -1.55451 0
M  V30 19972 H 1883.13 -2.91146 -0.401425 0
M  V30 19973 H 1880.64 -1.61943 -0.121708 0
M  V30 19974 H 1882.64 -3.0304 -2.86308 0
M  V30 19975 H 1881.3 -1.87281 -2.65247 0
M  V30 19976 H 1882.31 -5.10694 -0.860949 0
M  V30 19977 H 1878.99 -3.2358 -2.63822 0
M  V30 19978 H 1880.38 -6.69642 -0.550434 0
M  V30 19979 N 1883.1 0.191729 -1.56429 0
M  V30 19980 C 1884.05 1.23761 -1.94813 0
M  V30 19981 C 1885.02 1.45057 -0.809178 0
M  V30 19982 O 1886.2 1.58135 -1.06762 0
M  V30 19983 C 1883.34 2.57656 -2.2958 0
M  V30 19984 C 1882.45 2.4391 -3.56555 0
M  V30 19985 C 1881.59 3.70533 -3.8063 0
M  V30 19986 C 1880.63 3.51634 -5.01019 0
M  V30 19987 N 1879.77 4.70276 -5.2133 0
M  V30 19988 H 1884.61 0.903277 -2.8398 0
M  V30 19989 H 1882.14 0.434651 -1.40532 0
M  V30 19990 H 1884.1 3.35668 -2.47755 0
M  V30 19991 H 1882.73 2.89125 -1.43549 0
M  V30 19992 H 1881.78 1.57179 -3.46409 0
M  V30 19993 H 1883.09 2.25881 -4.44724 0
M  V30 19994 H 1882.25 4.56984 -3.99062 0
M  V30 19995 H 1880.99 3.9152 -2.90798 0
M  V30 19996 H 1879.99 2.63568 -4.82506 0
M  V30 19997 H 1881.22 3.32089 -5.92363 0
M  V30 19998 H 1879.16 4.9152 -4.34446 0
M  V30 19999 H 1879.08 4.55084 -6.03684 0
M  V30 20000 H 1880.35 5.58069 -5.44224 0
M  V30 20001 N 1884.58 1.50751 0.459565 0
M  V30 20002 C 1885.83 1.61995 1.20839 0
M  V30 20003 C 1886.15 0.327782 1.92225 0
M  V30 20004 O 1885.42 -0.655341 1.84613 0
M  V30 20005 H 1884 0.596972 0.449036 0
M  V30 20006 H 1886.66 1.87582 0.52906 0
M  V30 20007 H 1885.75 2.43678 1.95006 0
M  V30 20008 N 1886.06 -0.713531 1.40522 0
M  V30 20009 C 1886.99 -1.83724 1.35354 0
M  V30 20010 C 1887.97 -1.61055 0.223598 0
M  V30 20011 O 1889.15 -1.84041 0.407593 0
M  V30 20012 C 1886.28 -3.20099 1.10699 0
M  V30 20013 C 1885.32 -3.61592 2.26172 0
M  V30 20014 S 1886.16 -3.68469 3.88576 0
M  V30 20015 C 1887.31 -5.076 3.66188 0
M  V30 20016 H 1887.55 -1.87828 2.30452 0
M  V30 20017 H 1885.08 -0.88051 1.26832 0
M  V30 20018 H 1887.04 -3.98836 0.971588 0
M  V30 20019 H 1885.7 -3.13626 0.172515 0
M  V30 20020 H 1884.89 -4.60617 2.04568 0
M  V30 20021 H 1884.49 -2.90117 2.36026 0
M  V30 20022 H 1886.78 -5.94578 3.24782 0
M  V30 20023 H 1887.73 -5.3424 4.64751 0
M  V30 20024 H 1888.14 -4.7829 2.99831 0
M  V30 20025 N 1887.53 -1.26053 -0.945962 0
M  V30 20026 C 1888.48 -1.06999 -2.06529 0
M  V30 20027 C 1889.48 0.00168092 -1.694 0
M  V30 20028 O 1890.68 -0.154623 -1.79335 0
M  V30 20029 H 1887.06 -0.329129 -0.676149 0
M  V30 20030 H 1889.03 -2.01869 -2.19753 0
M  V30 20031 C 1887.78 -0.714636 -3.40277 0
M  V30 20032 H 1887.1 -1.53111 -3.6932 0
M  V30 20033 H 1888.54 -0.62107 -4.19427 0
M  V30 20034 C 1887 0.579908 -3.31871 0
M  V30 20035 O 1887.53 1.61959 -3.67603 0
M  V30 20036 N 1885.73 0.568764 -2.8498 0
M  V30 20037 H 1885.28 -0.277687 -2.56099 0
M  V30 20038 H 1885.24 1.43505 -2.79738 0
M  V30 20039 N 1889.01 1.14984 -1.07779 0
M  V30 20040 C 1890.42 1.67453 -0.825611 0
M  V30 20041 C 1890.77 1.85168 0.648631 0
M  V30 20042 O 1889.9 1.55817 1.50167 0
M  V30 20043 C 1890.49 3.04172 -1.49214 0
M  V30 20044 C 1889.05 3.53701 -1.28736 0
M  V30 20045 C 1888.2 2.29324 -1.55903 0
M  V30 20046 H 1891.15 0.99138 -1.23925 0
M  V30 20047 H 1891.17 3.69315 -0.915779 0
M  V30 20048 H 1890.68 2.91247 -2.56509 0
M  V30 20049 H 1888.78 3.71859 -0.234821 0
M  V30 20050 H 1888.9 4.34871 -2.01056 0
M  V30 20051 H 1887.26 2.35081 -0.980257 0
M  V30 20052 H 1888.04 2.18982 -2.6439 0
M  V30 20053 N 1890.49 0.862526 1.31902 0
M  V30 20054 C 1891.73 0.47617 1.98776 0
M  V30 20055 C 1892.09 -0.952142 1.66728 0
M  V30 20056 O 1893.29 -1.44346 2.26754 0
M  V30 20057 C 1891.57 0.71747 3.50124 0
M  V30 20058 S 1893.12 0.429862 4.36689 0
M  V30 20059 H 1889.94 0.178053 0.688344 0
M  V30 20060 H 1892.54 1.11694 1.60451 0
M  V30 20061 H 1891.25 1.75592 3.70939 0
M  V30 20062 H 1890.78 0.0634148 3.93349 0
M  V30 20063 H 1892.79 -0.740921 4.90637 0
M  V30 20064 N 1891.97 -1.4484 0.62123 0
M  V30 20065 C 1893.38 -1.85568 0.205284 0
M  V30 20066 C 1893.73 -1.51963 -1.24104 0
M  V30 20067 O 1892.86 -0.952887 -1.94291 0
M  V30 20068 C 1893.45 -3.3682 0.365788 0
M  V30 20069 C 1892.01 -3.764 0.00442911 0
M  V30 20070 C 1891.16 -2.68736 0.683839 0
M  V30 20071 H 1894.11 -1.35447 0.827036 0
M  V30 20072 H 1894.13 -3.78411 -0.398123 0
M  V30 20073 H 1893.64 -3.61247 1.41853 0
M  V30 20074 H 1891.74 -3.57588 -1.04696 0
M  V30 20075 H 1891.85 -4.77363 0.407588 0
M  V30 20076 H 1890.22 -2.54417 0.120114 0
M  V30 20077 H 1891 -2.95997 1.73898 0
M  V30 20078 N 1893.45 -0.361184 -1.53405 0
M  V30 20079 C 1894.38 0.530831 -2.2194 0
M  V30 20080 C 1895.36 1.08647 -1.20974 0
M  V30 20081 O 1896.54 1.14343 -1.4986 0
M  V30 20082 C 1893.67 1.73198 -2.91067 0
M  V30 20083 C 1892.71 1.30419 -4.0607 0
M  V30 20084 S 1893.55 0.30917 -5.34607 0
M  V30 20085 C 1894.7 1.51675 -6.07244 0
M  V30 20086 H 1894.94 -0.0512313 -2.97256 0
M  V30 20087 H 1892.47 -0.145281 -1.53715 0
M  V30 20088 H 1894.43 2.42098 -3.3151 0
M  V30 20089 H 1893.09 2.28528 -2.15485 0
M  V30 20090 H 1892.28 2.20024 -4.53437 0
M  V30 20091 H 1891.88 0.694455 -3.67496 0
M  V30 20092 H 1894.18 2.44847 -6.31709 0
M  V30 20093 H 1895.12 1.08454 -6.99745 0
M  V30 20094 H 1895.53 1.7208 -5.37632 0
M  V30 20095 N 1894.92 1.57341 -0.0902386 0
M  V30 20096 C 1896.17 1.94464 0.575461 0
M  V30 20097 C 1896.5 0.971819 1.68135 0
M  V30 20098 O 1895.78 0.00405665 1.945 0
M  V30 20099 C 1896.06 3.41739 1.13518 0
M  V30 20100 C 1895.91 4.49787 0.0346821 0
M  V30 20101 C 1897.23 3.90222 2.03506 0
M  V30 20102 H 1894.35 0.707123 0.207716 0
M  V30 20103 H 1896.99 1.89325 -0.15996 0
M  V30 20104 H 1895.14 3.46249 1.76192 0
M  V30 20105 H 1896.82 4.5739 -0.599326 0
M  V30 20106 H 1895.06 4.29166 -0.632342 0
M  V30 20107 H 1895.73 5.50021 0.467044 0
M  V30 20108 H 1898.21 3.87834 1.50744 0
M  V30 20109 H 1897.08 4.93846 2.39598 0
M  V30 20110 H 1897.34 3.29232 2.95057 0
M  V30 20111 N 1896.4 -0.183431 1.56529 0
M  V30 20112 C 1897.33 -1.22973 1.98494 0
M  V30 20113 C 1898.31 -1.46837 0.858653 0
M  V30 20114 O 1899.5 -1.58377 1.12385 0
M  V30 20115 C 1896.63 -2.57138 2.33446 0
M  V30 20116 C 1895.58 -2.47865 3.48922 0
M  V30 20117 C 1894.91 -3.8641 3.69582 0
M  V30 20118 C 1896.21 -1.99371 4.82751 0
M  V30 20119 H 1897.9 -0.880938 2.86147 0
M  V30 20120 H 1895.45 -0.422321 1.37668 0
M  V30 20121 H 1897.4 -3.30527 2.614 0
M  V30 20122 H 1896.13 -2.93781 1.42689 0
M  V30 20123 H 1894.78 -1.76932 3.21077 0
M  V30 20124 H 1894.43 -4.20426 2.76136 0
M  V30 20125 H 1894.13 -3.81077 4.47274 0
M  V30 20126 H 1895.66 -4.61403 3.99924 0
M  V30 20127 H 1897.07 -2.62526 5.0966 0
M  V30 20128 H 1895.47 -2.05014 5.63994 0
M  V30 20129 H 1896.54 -0.947442 4.75554 0
M  V30 20130 N 1897.88 -1.50992 -0.451564 0
M  V30 20131 C 1899.13 -1.63197 -1.20394 0
M  V30 20132 C 1899.46 -0.340409 -1.91193 0
M  V30 20133 O 1898.73 0.65926 -1.82986 0
M  V30 20134 C 1899.02 -2.82567 -2.23221 0
M  V30 20135 C 1898.87 -4.2166 -1.56598 0
M  V30 20136 C 1900.19 -2.97468 -3.24347 0
M  V30 20137 H 1897.31 -0.59395 -0.43634 0
M  V30 20138 H 1899.95 -1.83437 -0.495056 0
M  V30 20139 H 1898.1 -2.65441 -2.83678 0
M  V30 20140 H 1899.77 -4.50422 -0.995877 0
M  V30 20141 H 1898.02 -4.25015 -0.86862 0
M  V30 20142 H 1898.69 -5.0115 -2.31415 0
M  V30 20143 H 1901.16 -3.13211 -2.73931 0
M  V30 20144 H 1900.04 -3.82581 -3.93603 0
M  V30 20145 H 1900.3 -2.08921 -3.89621 0
M  V30 20146 N 1899.36 0.706069 -1.40899 0
M  V30 20147 C 1900.61 1.46604 -1.39691 0
M  V30 20148 C 1900.93 1.945 -0.00244032 0
M  V30 20149 O 1900.19 1.69172 0.983828 0
M  V30 20150 C 1900.49 2.70045 -2.34116 0
M  V30 20151 C 1900.15 2.40863 -3.81177 0
M  V30 20152 C 1898.82 2.32615 -4.21241 0
M  V30 20153 C 1901.17 2.16582 -4.74069 0
M  V30 20154 C 1898.5 1.98167 -5.5222 0
M  V30 20155 C 1900.85 1.83645 -6.05357 0
M  V30 20156 C 1899.51 1.73885 -6.44454 0
M  V30 20157 H 1898.78 0.536463 -0.511164 0
M  V30 20158 H 1901.43 0.807941 -1.73622 0
M  V30 20159 H 1899.73 3.40738 -1.93403 0
M  V30 20160 H 1901.43 3.2816 -2.3046 0
M  V30 20161 H 1898.02 2.48173 -3.49439 0
M  V30 20162 H 1902.2 2.21905 -4.43928 0
M  V30 20163 H 1897.46 1.89155 -5.81404 0
M  V30 20164 H 1901.63 1.63873 -6.76845 0
M  V30 20165 H 1899.26 1.46959 -7.4586 0
M  V30 20166 N 1900.84 1.26553 0.939264 0
M  V30 20167 C 1902.08 1.11989 1.68235 0
M  V30 20168 C 1902.41 -0.336993 1.92066 0
M  V30 20169 O 1901.68 -1.23742 1.51871 0
M  V30 20170 H 1900.26 0.41144 0.623479 0
M  V30 20171 H 1902.92 1.58909 1.12845 0
M  V30 20172 H 1902.01 1.64011 2.65531 0
M  V30 20173 N 1902.31 -1.14411 1.08387 0
M  V30 20174 C 1903.55 -1.87102 0.822937 0
M  V30 20175 C 1903.92 -1.81032 -0.63963 0
M  V30 20176 O 1905.12 -2.48857 -1.01606 0
M  V30 20177 C 1903.39 -3.31723 1.33021 0
M  V30 20178 S 1904.95 -4.22029 1.20154 0
M  V30 20179 H 1901.77 -0.645571 0.297924 0
M  V30 20180 H 1904.37 -1.37967 1.38511 0
M  V30 20181 H 1903.07 -3.33689 2.38913 0
M  V30 20182 H 1902.6 -3.85916 0.763695 0
M  V30 20183 H 1904.62 -4.95986 0.1457 0
M  V30 20184 N 1903.79 -0.869509 -1.31443 0
M  V30 20185 C 1905.21 -0.561369 -1.49402 0
M  V30 20186 C 1905.41 0.90461 -1.80053 0
M  V30 20187 O 1904.46 1.68681 -1.87891 0
M  V30 20188 C 1905.78 -1.46118 -2.62812 0
M  V30 20189 C 1907.33 -1.46317 -2.76695 0
M  V30 20190 C 1907.8 -2.34855 -3.93201 0
M  V30 20191 N 1909.29 -2.32732 -4.00487 0
M  V30 20192 C 1910.03 -2.97959 -4.89906 0
M  V30 20193 N 1909.52 -3.72353 -5.8423 0
M  V30 20194 N 1911.32 -2.8727 -4.83149 0
M  V30 20195 H 1903.47 -1.81808 -1.09816 0
M  V30 20196 H 1905.73 -0.777367 -0.542591 0
M  V30 20197 H 1905.44 -2.5043 -2.46936 0
M  V30 20198 H 1905.31 -1.15938 -3.5894 0
M  V30 20199 H 1907.7 -0.427634 -2.91985 0
M  V30 20200 H 1907.78 -1.8052 -1.81235 0
M  V30 20201 H 1907.42 -3.38485 -3.78669 0
M  V30 20202 H 1907.35 -1.97976 -4.87968 0
M  V30 20203 H 1909.84 -1.78657 -3.33002 0
M  V30 20204 H 1910.16 -4.19253 -6.4919 0
M  V30 20205 H 1908.5 -3.76461 -5.8421 0
M  V30 20206 H 1911.69 -2.28689 -4.08435 0
M  V30 20207 H 1911.86 -3.38383 -5.52631 0
M  V30 20208 N 1905.27 1.44508 -0.628902 0
M  V30 20209 C 1906.2 2.28908 0.115743 0
M  V30 20210 C 1907.22 1.41158 0.811067 0
M  V30 20211 O 1908.4 1.65331 0.672887 0
M  V30 20212 C 1905.5 3.17471 1.18599 0
M  V30 20213 C 1904.68 4.33622 0.573612 0
M  V30 20214 C 1903.74 5.03236 1.53752 0
M  V30 20215 O 1902.76 5.59328 1.05553 0
M  V30 20216 N 1903.96 5.04483 2.87189 0
M  V30 20217 H 1906.73 2.93456 -0.608565 0
M  V30 20218 H 1904.29 1.54931 -0.469902 0
M  V30 20219 H 1906.28 3.60906 1.8311 0
M  V30 20220 H 1904.85 2.54687 1.81255 0
M  V30 20221 H 1904.07 3.93406 -0.25007 0
M  V30 20222 H 1905.36 5.08593 0.14509 0
M  V30 20223 H 1904.76 4.6024 3.28931 0
M  V30 20224 H 1903.32 5.51714 3.47066 0
M  V30 20225 N 1906.75 0.369315 1.53212 0
M  V30 20226 C 1907.97 -0.222451 2.06204 0
M  V30 20227 C 1908.4 -1.41373 1.24077 0
M  V30 20228 O 1907.76 -1.79415 0.260767 0
M  V30 20229 C 1907.81 -0.590386 3.55734 0
M  V30 20230 O 1906.91 -1.68711 3.76311 0
M  V30 20231 H 1906.25 -0.0315041 0.663252 0
M  V30 20232 H 1908.78 0.531 1.97589 0
M  V30 20233 H 1908.79 -0.860345 3.98826 0
M  V30 20234 H 1907.47 0.28067 4.14952 0
M  V30 20235 H 1906.04 -1.41242 3.45116 0
M  V30 20236 N 1908.23 -1.57291 0.0985816 0
M  V30 20237 C 1909.17 -2.14215 -0.8591 0
M  V30 20238 C 1910.14 -1.06162 -1.27745 0
M  V30 20239 O 1911.33 -1.33967 -1.35858 0
M  V30 20240 C 1908.47 -2.72963 -2.11152 0
M  V30 20241 C 1907.58 -3.95259 -1.74339 0
M  V30 20242 C 1906.72 -4.4216 -2.94394 0
M  V30 20243 C 1905.76 -5.57038 -2.53723 0
M  V30 20244 N 1904.89 -5.98775 -3.66624 0
M  V30 20245 H 1909.73 -2.95734 -0.366821 0
M  V30 20246 H 1907.27 -1.46121 -0.169388 0
M  V30 20247 H 1909.23 -3.05145 -2.84504 0
M  V30 20248 H 1907.86 -1.94167 -2.57874 0
M  V30 20249 H 1906.91 -3.69369 -0.90942 0
M  V30 20250 H 1908.22 -4.78622 -1.40436 0
M  V30 20251 H 1907.38 -4.76144 -3.75994 0
M  V30 20252 H 1906.12 -3.57705 -3.31509 0
M  V30 20253 H 1905.12 -5.22678 -1.7055 0
M  V30 20254 H 1906.35 -6.43244 -2.17748 0
M  V30 20255 H 1904.29 -5.17265 -4.03451 0
M  V30 20256 H 1904.21 -6.76943 -3.36578 0
M  V30 20257 H 1905.48 -6.3739 -4.48725 0
M  V30 20258 N 1909.71 0.175127 -1.56624 0
M  V30 20259 C 1910.95 0.890653 -1.8097 0
M  V30 20260 C 1911.27 1.83577 -0.675199 0
M  V30 20261 O 1912.47 2.59338 -0.803492 0
M  V30 20262 C 1910.93 1.63427 -3.20655 0
M  V30 20263 C 1910.54 0.732982 -4.41963 0
M  V30 20264 C 1912.28 2.33825 -3.54297 0
M  V30 20265 C 1910.19 1.47661 -5.72669 0
M  V30 20266 H 1909.12 0.336324 -0.674835 0
M  V30 20267 H 1911.77 0.143627 -1.82937 0
M  V30 20268 H 1910.15 2.42591 -3.12994 0
M  V30 20269 H 1911.33 -0.0214223 -4.60795 0
M  V30 20270 H 1909.64 0.138848 -4.16168 0
M  V30 20271 H 1912.24 2.90048 -4.49195 0
M  V30 20272 H 1912.58 3.08979 -2.78994 0
M  V30 20273 H 1913.11 1.61608 -3.63494 0
M  V30 20274 H 1909.85 0.767472 -6.50992 0
M  V30 20275 H 1909.37 2.20444 -5.57821 0
M  V30 20276 H 1911.05 2.02512 -6.1449 0
M  V30 20277 N 1911.18 1.5123 0.44355 0
M  V30 20278 C 1912.46 1.54127 1.20434 0
M  V30 20279 C 1912.84 0.301893 2.0893 0
M  V30 20280 O 1912.19 -0.713356 2.17079 0
M  V30 20281 C 1912.4 2.85196 2.01157 0
M  V30 20282 C 1913.75 3.3691 2.58411 0
M  V30 20283 O 1914.77 2.86704 2.11374 0
M  V30 20284 O 1913.63 4.24498 3.44185 0
M  V30 20285 H 1910.72 0.619396 0.547976 0
M  V30 20286 H 1913.27 1.63539 0.453125 0
M  V30 20287 H 1912.04 3.66861 1.3612 0
M  V30 20288 H 1911.66 2.78917 2.83357 0
M  V30 20289 N 1912.66 -0.698586 1.41271 0
M  V30 20290 C 1913.61 -1.80459 1.3935 0
M  V30 20291 C 1914.6 -1.58647 0.268341 0
M  V30 20292 O 1915.79 -1.6953 0.508777 0
M  V30 20293 C 1912.92 -3.18739 1.27515 0
M  V30 20294 C 1912 -3.46257 2.44881 0
M  V30 20295 N 1912.39 -3.44491 3.70351 0
M  V30 20296 C 1910.69 -3.76792 2.38629 0
M  V30 20297 C 1911.39 -3.70829 4.48175 0
M  V30 20298 N 1910.37 -3.90423 3.78247 0
M  V30 20299 H 1914.17 -1.77452 2.34282 0
M  V30 20300 H 1911.68 -0.898448 1.35284 0
M  V30 20301 H 1913.68 -3.97963 1.24221 0
M  V30 20302 H 1912.34 -3.2296 0.335652 0
M  V30 20303 H 1913.35 -3.24942 4.03278 0
M  V30 20304 H 1910.03 -3.88402 1.53136 0
M  V30 20305 H 1911.42 -3.75625 5.57096 0
M  V30 20306 N 1914.14 -1.27049 -0.93254 0
M  V30 20307 C 1915.39 -1.12488 -1.67419 0
M  V30 20308 C 1915.7 0.329736 -1.92801 0
M  V30 20309 O 1916.91 0.596164 -2.64874 0
M  V30 20310 C 1915.36 -1.96515 -3.01513 0
M  V30 20311 C 1914.97 -3.46604 -2.83847 0
M  V30 20312 C 1916.72 -1.90589 -3.7931 0
M  V30 20313 C 1914.62 -4.22847 -4.13466 0
M  V30 20314 H 1913.55 -0.417373 -0.627946 0
M  V30 20315 H 1916.2 -1.5143 -1.03639 0
M  V30 20316 H 1914.59 -1.50413 -3.66322 0
M  V30 20317 H 1915.76 -4.00535 -2.27835 0
M  V30 20318 H 1914.07 -3.53859 -2.19484 0
M  V30 20319 H 1916.67 -2.44831 -4.75355 0
M  V30 20320 H 1917.01 -0.87846 -4.06926 0
M  V30 20321 H 1917.55 -2.34559 -3.21289 0
M  V30 20322 H 1914.29 -5.26094 -3.91031 0
M  V30 20323 H 1913.81 -3.73695 -4.69161 0
M  V30 20324 H 1915.49 -4.31761 -4.81863 0
M  V30 20325 N 1915.62 1.13835 -1.08993 0
M  V30 20326 C 1916.85 1.88588 -0.843698 0
M  V30 20327 C 1917.26 1.79154 0.608307 0
M  V30 20328 O 1916.6 1.1529 1.43017 0
M  V30 20329 C 1916.66 3.39079 -1.19438 0
M  V30 20330 C 1916.32 3.72295 -2.65038 0
M  V30 20331 C 1917.32 3.71911 -3.63288 0
M  V30 20332 C 1915.01 4.0209 -3.01046 0
M  V30 20333 C 1917 4.00855 -4.95574 0
M  V30 20334 C 1914.69 4.30697 -4.33525 0
M  V30 20335 C 1915.69 4.30063 -5.30598 0
M  V30 20336 O 1915.37 4.57972 -6.60694 0
M  V30 20337 H 1915.11 0.60402 -0.303539 0
M  V30 20338 H 1917.66 1.45055 -1.45424 0
M  V30 20339 H 1915.89 3.83094 -0.526861 0
M  V30 20340 H 1917.58 3.95149 -0.928011 0
M  V30 20341 H 1918.34 3.48972 -3.36814 0
M  V30 20342 H 1914.22 4.01733 -2.26123 0
M  V30 20343 H 1917.77 4.00276 -5.71336 0
M  V30 20344 H 1913.66 4.53106 -4.59745 0
M  V30 20345 H 1914.43 4.75661 -6.661 0
M  V30 20346 N 1917.1 0.876467 1.3098 0
M  V30 20347 C 1918.51 0.569284 1.49102 0
M  V30 20348 C 1918.71 -0.895048 1.8053 0
M  V30 20349 O 1917.77 -1.67682 1.88783 0
M  V30 20350 C 1919.08 1.4751 2.62033 0
M  V30 20351 C 1920.63 1.47783 2.75915 0
M  V30 20352 C 1921.1 2.36937 3.9195 0
M  V30 20353 N 1922.59 2.34853 3.99247 0
M  V30 20354 C 1923.33 3.00553 4.88319 0
M  V30 20355 N 1922.83 3.75446 5.82247 0
M  V30 20356 N 1924.62 2.89828 4.81618 0
M  V30 20357 H 1916.77 1.82388 1.08851 0
M  V30 20358 H 1919.03 0.780233 0.538461 0
M  V30 20359 H 1918.74 2.51737 2.45605 0
M  V30 20360 H 1918.61 1.1784 3.5832 0
M  V30 20361 H 1921 0.443113 2.91754 0
M  V30 20362 H 1921.08 1.81479 1.80275 0
M  V30 20363 H 1920.72 3.40488 3.76869 0
M  V30 20364 H 1920.65 2.00561 4.86911 0
M  V30 20365 H 1923.15 1.80421 3.32049 0
M  V30 20366 H 1923.46 4.2269 6.46957 0
M  V30 20367 H 1921.8 3.79554 5.82206 0
M  V30 20368 H 1924.99 2.30852 4.07216 0
M  V30 20369 H 1925.17 3.41309 5.50829 0
M  V30 20370 N 1918.57 -1.44173 0.636557 0
M  V30 20371 C 1919.48 -2.34507 -0.0661877 0
M  V30 20372 C 1920.5 -1.52931 -0.829947 0
M  V30 20373 O 1921.68 -1.85641 -0.780979 0
M  V30 20374 C 1918.74 -3.30987 -1.03191 0
M  V30 20375 C 1917.8 -4.28469 -0.266924 0
M  V30 20376 C 1917.03 -5.20341 -1.18664 0
M  V30 20377 O 1917.26 -5.1626 -2.42552 0
M  V30 20378 O 1916.19 -5.98181 -0.668035 0
M  V30 20379 H 1920.02 -2.9606 0.676932 0
M  V30 20380 H 1917.6 -1.44036 0.396744 0
M  V30 20381 H 1919.48 -3.9036 -1.58736 0
M  V30 20382 H 1918.16 -2.7196 -1.75555 0
M  V30 20383 H 1917.07 -3.72627 0.331702 0
M  V30 20384 H 1918.4 -4.90432 0.416803 0
M  V30 20385 N 1920.05 -0.377435 -1.53014 0
M  V30 20386 C 1920.96 0.471045 -2.29822 0
M  V30 20387 C 1921.98 1.0821 -1.36259 0
M  V30 20388 O 1923.15 1.09048 -1.69324 0
M  V30 20389 C 1920.22 1.58917 -3.08134 0
M  V30 20390 C 1919.28 1.00444 -4.17384 0
M  V30 20391 C 1918.51 2.06928 -4.91952 0
M  V30 20392 O 1918.74 3.2824 -4.66492 0
M  V30 20393 O 1917.67 1.69321 -5.77593 0
M  V30 20394 H 1921.5 -0.154333 -3.03308 0
M  V30 20395 H 1919.08 -0.141478 -1.48729 0
M  V30 20396 H 1920.96 2.23899 -3.56997 0
M  V30 20397 H 1919.64 2.19973 -2.37473 0
M  V30 20398 H 1918.54 0.3182 -3.72744 0
M  V30 20399 H 1919.88 0.438266 -4.90245 0
M  V30 20400 N 1921.53 1.57237 -0.106922 0
M  V30 20401 C 1922.76 1.9912 0.562038 0
M  V30 20402 C 1923.17 0.986338 1.60987 0
M  V30 20403 O 1922.53 -0.0224611 1.82486 0
M  V30 20404 C 1922.58 3.41034 1.19909 0
M  V30 20405 O 1922.3 4.37674 0.193157 0
M  V30 20406 C 1923.8 3.97984 1.95253 0
M  V30 20407 H 1921.02 0.654071 0.149772 0
M  V30 20408 H 1923.57 2.03618 -0.189699 0
M  V30 20409 H 1921.72 3.37513 1.90168 0
M  V30 20410 H 1922.14 5.20401 0.654461 0
M  V30 20411 H 1923.61 4.99398 2.35171 0
M  V30 20412 H 1924.09 3.36455 2.82303 0
M  V30 20413 H 1924.69 4.05014 1.29784 0
M  V30 20414 N 1923.01 -0.166818 1.56715 0
M  V30 20415 C 1923.94 -1.2086 1.99787 0
M  V30 20416 C 1924.92 -1.45918 0.874178 0
M  V30 20417 O 1926.1 -1.57176 1.14058 0
M  V30 20418 C 1923.23 -2.54648 2.3616 0
M  V30 20419 C 1922.19 -2.44151 3.51532 0
M  V30 20420 C 1921.51 -3.82469 3.7366 0
M  V30 20421 C 1922.81 -1.9424 4.84838 0
M  V30 20422 H 1924.51 -0.850538 2.87065 0
M  V30 20423 H 1922.05 -0.407696 1.38108 0
M  V30 20424 H 1924.01 -3.27736 2.64891 0
M  V30 20425 H 1922.73 -2.92251 1.45797 0
M  V30 20426 H 1921.39 -1.73516 3.22936 0
M  V30 20427 H 1921.04 -4.17473 2.8058 0
M  V30 20428 H 1920.74 -3.76312 4.5129 0
M  V30 20429 H 1922.26 -4.57136 4.04796 0
M  V30 20430 H 1923.68 -2.57105 5.12416 0
M  V30 20431 H 1922.07 -1.99021 5.66137 0
M  V30 20432 H 1923.14 -0.89695 4.76532 0
M  V30 20433 N 1924.49 -1.51463 -0.435524 0
M  V30 20434 C 1925.42 -1.69104 -1.54715 0
M  V30 20435 C 1926.43 -0.571681 -1.52432 0
M  V30 20436 O 1927.62 -0.846054 -1.57176 0
M  V30 20437 C 1924.72 -1.69217 -2.9363 0
M  V30 20438 C 1923.89 -2.97766 -3.20397 0
M  V30 20439 C 1922.95 -2.90043 -4.39046 0
M  V30 20440 O 1921.98 -3.63985 -4.37611 0
M  V30 20441 N 1923.18 -2.06018 -5.42712 0
M  V30 20442 H 1925.95 -2.64998 -1.39985 0
M  V30 20443 H 1923.51 -1.49371 -0.624486 0
M  V30 20444 H 1925.5 -1.61616 -3.71029 0
M  V30 20445 H 1924.07 -0.809085 -3.01948 0
M  V30 20446 H 1923.29 -3.19222 -2.31282 0
M  V30 20447 H 1924.58 -3.82857 -3.35109 0
M  V30 20448 H 1923.97 -1.45324 -5.46715 0
M  V30 20449 H 1922.53 -2.04295 -6.18956 0
M  V30 20450 N 1925.96 0.691085 -1.4164 0
M  V30 20451 C 1926.93 1.78671 -1.43559 0
M  V30 20452 C 1927.93 1.5747 -0.325543 0
M  V30 20453 O 1929.12 1.64061 -0.585631 0
M  V30 20454 C 1926.25 3.17102 -1.25135 0
M  V30 20455 H 1927.44 1.78361 -2.41096 0
M  V30 20456 H 1925 0.899148 -1.27848 0
M  V30 20457 H 1925.73 3.23049 -0.284567 0
M  V30 20458 H 1925.52 3.33893 -2.05567 0
M  V30 20459 H 1927.01 3.97071 -1.29324 0
M  V30 20460 N 1927.44 1.27542 0.925789 0
M  V30 20461 C 1928.39 1.10432 2.02666 0
M  V30 20462 C 1929.36 0.004846 1.66099 0
M  V30 20463 O 1930.54 0.167531 1.90063 0
M  V30 20464 C 1927.68 0.759567 3.36637 0
M  V30 20465 C 1926.8 1.93687 3.86147 0
M  V30 20466 C 1925.93 1.53382 5.08574 0
M  V30 20467 C 1924.97 2.67849 5.50385 0
M  V30 20468 N 1924.11 2.2812 6.64007 0
M  V30 20469 H 1928.95 2.04632 2.16633 0
M  V30 20470 H 1926.49 1.01863 1.06124 0
M  V30 20471 H 1928.44 0.540492 4.13684 0
M  V30 20472 H 1927.07 -0.145477 3.22472 0
M  V30 20473 H 1926.13 2.26843 3.05363 0
M  V30 20474 H 1927.44 2.79548 4.13104 0
M  V30 20475 H 1926.59 1.2761 5.93128 0
M  V30 20476 H 1925.33 0.646332 4.83398 0
M  V30 20477 H 1924.34 2.94333 4.64379 0
M  V30 20478 H 1925.56 3.57222 5.77554 0
M  V30 20479 H 1923.51 1.41825 6.40485 0
M  V30 20480 H 1923.42 3.07519 6.90629 0
M  V30 20481 H 1924.69 2.056 7.51897 0
M  V30 20482 N 1928.92 -1.13255 1.09595 0
M  V30 20483 C 1929.87 -2.20794 0.731624 0
M  V30 20484 C 1930.86 -1.67263 -0.268256 0
M  V30 20485 O 1932.07 -1.79533 -0.129535 0
M  V30 20486 H 1928.44 -0.719521 0.218618 0
M  V30 20487 H 1930.41 -2.48784 1.6477 0
M  V30 20488 C 1929.16 -3.47283 0.170214 0
M  V30 20489 H 1928.49 -3.88814 0.930805 0
M  V30 20490 H 1929.93 -4.23974 -0.0467499 0
M  V30 20491 C 1928.39 -3.18609 -1.09497 0
M  V30 20492 O 1928.92 -3.37534 -2.17793 0
M  V30 20493 N 1927.12 -2.72477 -1.01017 0
M  V30 20494 H 1926.67 -2.57278 -0.128814 0
M  V30 20495 H 1926.63 -2.53668 -1.85741 0
M  V30 20496 N 1930.4 -0.883401 -1.30514 0
M  V30 20497 C 1931.35 -0.347254 -2.28173 0
M  V30 20498 C 1932.32 0.561698 -1.56314 0
M  V30 20499 O 1933.5 0.490454 -1.84389 0
M  V30 20500 C 1930.64 0.433573 -3.42366 0
M  V30 20501 C 1929.75 -0.504417 -4.29045 0
M  V30 20502 C 1928.89 0.291853 -5.30398 0
M  V30 20503 C 1927.93 -0.641708 -6.08727 0
M  V30 20504 N 1927.06 0.119139 -7.01999 0
M  V30 20505 H 1931.9 -1.1852 -2.73417 0
M  V30 20506 H 1929.44 -0.595824 -1.34493 0
M  V30 20507 H 1931.4 0.902186 -4.07328 0
M  V30 20508 H 1930.03 1.23611 -2.98195 0
M  V30 20509 H 1929.08 -1.09152 -3.64404 0
M  V30 20510 H 1930.39 -1.21969 -4.83658 0
M  V30 20511 H 1929.55 0.822389 -6.011 0
M  V30 20512 H 1928.29 1.04035 -4.76475 0
M  V30 20513 H 1927.29 -1.18389 -5.36902 0
M  V30 20514 H 1928.52 -1.38927 -6.64738 0
M  V30 20515 H 1926.46 0.850204 -6.50467 0
M  V30 20516 H 1926.38 -0.536537 -7.54094 0
M  V30 20517 H 1927.65 0.63047 -7.76946 0
M  V30 20518 N 1931.88 1.43833 -0.644194 0
M  V30 20519 C 1933.12 2.01515 -0.153623 0
M  V30 20520 C 1933.45 1.51022 1.23358 0
M  V30 20521 O 1932.72 0.719137 1.82223 0
M  V30 20522 H 1931.3 0.74506 -0.053802 0
M  V30 20523 H 1933.96 1.76163 -0.833833 0
M  V30 20524 H 1933.05 3.11824 -0.131313 0
M  V30 20525 N 1933.35 0.385544 1.52811 0
M  V30 20526 C 1934.6 -0.198138 2.0183 0
M  V30 20527 C 1934.93 -1.46774 1.27165 0
M  V30 20528 O 1934.21 -1.90928 0.371034 0
M  V30 20529 C 1934.49 -0.469873 3.57021 0
M  V30 20530 C 1934.34 0.814756 4.42359 0
M  V30 20531 C 1935.66 -1.26209 4.21615 0
M  V30 20532 H 1932.78 -0.0705386 0.733617 0
M  V30 20533 H 1935.42 0.514372 1.82905 0
M  V30 20534 H 1933.57 -1.07684 3.73278 0
M  V30 20535 H 1935.25 1.45172 4.37862 0
M  V30 20536 H 1933.49 1.43088 4.09522 0
M  V30 20537 H 1934.16 0.57932 5.48952 0
M  V30 20538 H 1936.64 -0.748451 4.09313 0
M  V30 20539 H 1935.51 -1.42096 5.30188 0
M  V30 20540 H 1935.77 -2.27624 3.78998 0
M  V30 20541 N 1934.83 -1.57178 0.115259 0
M  V30 20542 C 1936.08 -1.95066 -0.543645 0
M  V30 20543 C 1936.41 -0.998318 -1.66925 0
M  V30 20544 O 1935.66 -0.0215177 -1.95688 0
M  V30 20545 C 1935.96 -3.39391 -1.12019 0
M  V30 20546 C 1935.63 -4.5075 -0.116323 0
M  V30 20547 C 1934.29 -4.80935 0.159725 0
M  V30 20548 C 1936.64 -5.18096 0.568016 0
M  V30 20549 C 1933.97 -5.75784 1.12646 0
M  V30 20550 C 1936.32 -6.13984 1.52336 0
M  V30 20551 C 1934.99 -6.42564 1.80743 0
M  V30 20552 H 1934.26 -0.713797 -0.198934 0
M  V30 20553 H 1936.9 -1.90501 0.195371 0
M  V30 20554 H 1935.21 -3.40633 -1.93589 0
M  V30 20555 H 1936.9 -3.66018 -1.63805 0
M  V30 20556 H 1933.49 -4.27236 -0.341664 0
M  V30 20557 H 1937.68 -4.94934 0.367913 0
M  V30 20558 H 1932.93 -5.96234 1.35334 0
M  V30 20559 H 1937.11 -6.65255 2.05933 0
M  V30 20560 H 1934.74 -7.15867 2.55808 0
M  V30 20561 N 1936.31 0.158505 -1.56801 0
M  V30 20562 C 1937.73 0.510743 -1.51207 0
M  V30 20563 C 1937.93 1.83983 -0.821733 0
M  V30 20564 O 1936.98 2.4951 -0.387444 0
M  V30 20565 C 1938.3 0.531668 -2.95962 0
M  V30 20566 C 1939.84 0.617983 -3.06839 0
M  V30 20567 C 1940.32 0.66968 -4.53078 0
M  V30 20568 N 1941.81 0.73222 -4.57376 0
M  V30 20569 C 1942.55 0.793011 -5.6789 0
M  V30 20570 N 1942.04 0.81385 -6.88003 0
M  V30 20571 N 1943.83 0.833013 -5.55893 0
M  V30 20572 H 1935.99 -0.712841 -2.00081 0
M  V30 20573 H 1938.25 -0.258572 -0.912055 0
M  V30 20574 H 1937.95 -0.376495 -3.49679 0
M  V30 20575 H 1937.83 1.37366 -3.51298 0
M  V30 20576 H 1940.22 1.51657 -2.53149 0
M  V30 20577 H 1940.3 -0.250933 -2.54566 0
M  V30 20578 H 1939.94 -0.2247 -5.07403 0
M  V30 20579 H 1939.87 1.55492 -5.0312 0
M  V30 20580 H 1942.36 0.72388 -3.70902 0
M  V30 20581 H 1942.67 0.861766 -7.6798 0
M  V30 20582 H 1941.02 0.781915 -6.90587 0
M  V30 20583 H 1944.21 0.813822 -4.60971 0
M  V30 20584 H 1944.38 0.876926 -6.42039 0
M  V30 20585 N 1937.79 1.51692 0.427485 0
M  V30 20586 C 1938.7 1.76576 1.5446 0
M  V30 20587 C 1939.72 0.650421 1.61386 0
M  V30 20588 O 1940.89 0.933787 1.78444 0
M  V30 20589 C 1937.96 1.89451 2.90361 0
M  V30 20590 C 1937.02 3.13326 2.93471 0
M  V30 20591 C 1936.25 3.25577 4.22889 0
M  V30 20592 O 1936.47 2.43528 5.15801 0
M  V30 20593 O 1935.41 4.18618 4.32484 0
M  V30 20594 H 1939.23 2.7136 1.36373 0
M  V30 20595 H 1936.82 1.36312 0.611496 0
M  V30 20596 H 1938.7 1.99848 3.70997 0
M  V30 20597 H 1937.38 0.978556 3.08555 0
M  V30 20598 H 1936.28 3.08401 2.11754 0
M  V30 20599 H 1937.62 4.04643 2.80223 0
M  V30 20600 N 1939.27 -0.683564 1.42004 0
M  V30 20601 C 1940.2 -1.8095 1.47578 0
M  V30 20602 C 1941.18 -1.66804 0.333208 0
M  V30 20603 O 1942.36 -1.86357 0.546314 0
M  V30 20604 C 1939.49 -3.19182 1.36895 0
M  V30 20605 C 1938.45 -3.4805 2.49089 0
M  V30 20606 C 1937.77 -4.85764 2.23467 0
M  V30 20607 C 1939.07 -3.4582 3.91415 0
M  V30 20608 H 1940.77 -1.76543 2.41812 0
M  V30 20609 H 1938.31 -0.84794 1.16387 0
M  V30 20610 H 1940.27 -3.97674 1.39404 0
M  V30 20611 H 1938.99 -3.24245 0.391513 0
M  V30 20612 H 1937.65 -2.71915 2.45882 0
M  V30 20613 H 1937.3 -4.87467 1.24037 0
M  V30 20614 H 1937 -5.06043 2.98654 0
M  V30 20615 H 1938.52 -5.66551 2.27711 0
M  V30 20616 H 1939.94 -4.14297 3.96272 0
M  V30 20617 H 1938.33 -3.77633 4.66383 0
M  V30 20618 H 1939.4 -2.4456 4.1871 0
M  V30 20619 N 1940.75 -1.28031 -0.919012 0
M  V30 20620 C 1941.98 -1.17544 -1.69903 0
M  V30 20621 C 1942.38 0.269221 -1.87275 0
M  V30 20622 O 1941.73 1.19432 -1.39577 0
M  V30 20623 C 1941.79 -1.79632 -3.11404 0
M  V30 20624 C 1941.45 -3.28856 -3.17337 0
M  V30 20625 C 1942.45 -4.25367 -2.9893 0
M  V30 20626 C 1940.13 -3.69719 -3.40019 0
M  V30 20627 C 1942.13 -5.60718 -3.03108 0
M  V30 20628 C 1939.82 -5.05198 -3.43829 0
M  V30 20629 C 1940.81 -6.00507 -3.25393 0
M  V30 20630 O 1940.5 -7.33515 -3.28955 0
M  V30 20631 H 1940.23 -0.409225 -0.538062 0
M  V30 20632 H 1942.79 -1.69573 -1.15906 0
M  V30 20633 H 1941.02 -1.22091 -3.66921 0
M  V30 20634 H 1942.71 -1.63737 -3.7141 0
M  V30 20635 H 1943.47 -3.95132 -2.81239 0
M  V30 20636 H 1939.35 -2.96003 -3.53416 0
M  V30 20637 H 1942.9 -6.35087 -2.88636 0
M  V30 20638 H 1938.79 -5.35085 -3.61047 0
M  V30 20639 H 1939.56 -7.42074 -3.45352 0
M  V30 20640 N 1942.22 1.12672 -1.10194 0
M  V30 20641 C 1943.45 1.87955 -0.864907 0
M  V30 20642 C 1943.87 1.79527 0.584436 0
M  V30 20643 O 1943.22 1.1674 1.40278 0
M  V30 20644 C 1943.27 3.37261 -1.30143 0
M  V30 20645 O 1943 3.45483 -2.69394 0
M  V30 20646 C 1944.5 4.29488 -1.09793 0
M  V30 20647 H 1941.72 0.594777 -0.310614 0
M  V30 20648 H 1944.26 1.42583 -1.46596 0
M  V30 20649 H 1942.42 3.80187 -0.744103 0
M  V30 20650 H 1942.83 4.38357 -2.87999 0
M  V30 20651 H 1944.3 5.32546 -1.45254 0
M  V30 20652 H 1944.78 4.39185 -0.0363527 0
M  V30 20653 H 1945.39 3.92341 -1.6416 0
M  V30 20654 N 1943.7 0.89031 1.30043 0
M  V30 20655 C 1944.66 0.365912 2.2626 0
M  V30 20656 C 1945.66 -0.494616 1.53004 0
M  V30 20657 O 1946.85 -0.301009 1.7158 0
M  V30 20658 C 1943.99 -0.477952 3.37533 0
M  V30 20659 H 1945.18 1.21557 2.7416 0
M  V30 20660 H 1942.73 0.667628 1.41324 0
M  V30 20661 H 1943.47 -1.34798 2.94958 0
M  V30 20662 H 1943.25 0.138514 3.91855 0
M  V30 20663 H 1944.74 -0.836463 4.09137 0
M  V30 20664 N 1945.18 -1.43489 0.651812 0
M  V30 20665 C 1946.41 -2.05882 0.172084 0
M  V30 20666 C 1946.82 -1.4893 -1.1669 0
M  V30 20667 O 1946.16 -0.614669 -1.73111 0
M  V30 20668 C 1946.22 -3.595 0.00499624 0
M  V30 20669 C 1945.89 -4.39026 1.26905 0
M  V30 20670 C 1946.88 -4.71177 2.19746 0
M  V30 20671 C 1944.57 -4.79058 1.51024 0
M  V30 20672 C 1946.56 -5.42267 3.35001 0
M  V30 20673 C 1944.25 -5.49893 2.66572 0
M  V30 20674 C 1945.25 -5.81419 3.58386 0
M  V30 20675 O 1944.94 -6.50807 4.71916 0
M  V30 20676 H 1944.67 -0.670436 0.0865532 0
M  V30 20677 H 1947.22 -1.85006 0.89229 0
M  V30 20678 H 1945.45 -3.78945 -0.770567 0
M  V30 20679 H 1947.14 -4.03596 -0.431912 0
M  V30 20680 H 1947.91 -4.4077 2.02354 0
M  V30 20681 H 1943.79 -4.53928 0.804408 0
M  V30 20682 H 1947.33 -5.66791 4.06686 0
M  V30 20683 H 1943.23 -5.79717 2.83899 0
M  V30 20684 H 1943.99 -6.69289 4.71163 0
M  V30 20685 N 1946.66 -0.393643 -1.52605 0
M  V30 20686 C 1947.88 0.189618 -2.06531 0
M  V30 20687 C 1948.31 1.39382 -1.26311 0
M  V30 20688 O 1947.67 1.78977 -0.289278 0
M  V30 20689 C 1947.71 0.533717 -3.56628 0
M  V30 20690 O 1946.82 1.62703 -3.78948 0
M  V30 20691 H 1946.16 0.0209483 -0.663669 0
M  V30 20692 H 1948.69 -0.562368 -1.9672 0
M  V30 20693 H 1948.7 0.796786 -4.00144 0
M  V30 20694 H 1947.37 -0.34665 -4.14453 0
M  V30 20695 H 1945.95 1.35734 -3.47319 0
M  V30 20696 N 1948.14 1.57115 -0.123593 0
M  V30 20697 C 1949.55 1.5789 0.232975 0
M  V30 20698 C 1949.75 1.13659 1.66385 0
M  V30 20699 O 1948.81 0.826084 2.38604 0
M  V30 20700 C 1950.12 3.007 -0.0045178 0
M  V30 20701 C 1951.67 3.12941 0.0610235 0
M  V30 20702 C 1952.14 4.57758 -0.148835 0
M  V30 20703 N 1953.63 4.63103 -0.0949606 0
M  V30 20704 C 1954.37 5.7293 -0.232177 0
M  V30 20705 N 1953.87 6.9149 -0.42582 0
M  V30 20706 N 1955.66 5.61839 -0.171428 0
M  V30 20707 H 1947.81 1.84166 -1.05814 0
M  V30 20708 H 1950.07 0.851342 -0.417038 0
M  V30 20709 H 1949.78 3.37364 -0.993901 0
M  V30 20710 H 1949.65 3.70161 0.725327 0
M  V30 20711 H 1952.04 2.76131 1.04094 0
M  V30 20712 H 1952.12 2.46014 -0.700776 0
M  V30 20713 H 1951.76 4.95267 -1.12574 0
M  V30 20714 H 1951.69 5.22782 0.633006 0
M  V30 20715 H 1954.19 3.77866 0.0510058 0
M  V30 20716 H 1954.5 7.7104 -0.521263 0
M  V30 20717 H 1952.84 6.93464 -0.461851 0
M  V30 20718 H 1956.03 4.68095 -0.0210758 0
M  V30 20719 H 1956.21 6.47387 -0.281807 0
M  V30 20720 N 1949.61 -0.150187 1.56883 0
M  V30 20721 C 1950.52 -1.20504 2.01286 0
M  V30 20722 C 1951.54 -1.47204 0.927733 0
M  V30 20723 O 1952.72 -1.58937 1.23697 0
M  V30 20724 C 1949.78 -2.51932 2.38184 0
M  V30 20725 C 1948.84 -2.32906 3.60629 0
M  V30 20726 C 1948.07 -3.58067 3.95757 0
M  V30 20727 O 1948.3 -4.64119 3.31587 0
M  V30 20728 O 1947.23 -3.5092 4.89018 0
M  V30 20729 H 1951.06 -0.858075 2.91326 0
M  V30 20730 H 1948.64 -0.358669 1.45031 0
M  V30 20731 H 1950.52 -3.29423 2.6279 0
M  V30 20732 H 1949.2 -2.86165 1.513 0
M  V30 20733 H 1948.11 -1.53377 3.41213 0
M  V30 20734 H 1949.44 -2.0359 4.4812 0
M  V30 20735 N 1951.09 -1.51916 -0.419434 0
M  V30 20736 C 1952.5 -1.57746 -0.998651 0
M  V30 20737 C 1952.85 -0.411706 -1.91832 0
M  V30 20738 O 1951.98 0.469268 -2.11251 0
M  V30 20739 C 1952.57 -2.85895 -1.81795 0
M  V30 20740 C 1951.13 -2.94238 -2.34736 0
M  V30 20741 C 1950.28 -2.52587 -1.14434 0
M  V30 20742 H 1953.23 -1.57434 -0.200039 0
M  V30 20743 H 1953.25 -2.70667 -2.67431 0
M  V30 20744 H 1952.76 -3.70722 -1.14834 0
M  V30 20745 H 1950.87 -2.13881 -3.05099 0
M  V30 20746 H 1950.98 -3.98268 -2.66308 0
M  V30 20747 H 1949.34 -2.06196 -1.49516 0
M  V30 20748 H 1950.13 -3.39777 -0.490555 0
M  V30 20749 N 1952.57 0.676023 -1.42365 0
M  V30 20750 C 1953.85 1.43189 -1.33252 0
M  V30 20751 C 1954.23 2.11078 0.0306765 0
M  V30 20752 O 1953.58 2.03148 1.0461 0
M  V30 20753 C 1953.79 2.43534 -2.49984 0
M  V30 20754 C 1955.13 3.08213 -2.92044 0
M  V30 20755 O 1956.16 2.53861 -2.49866 0
M  V30 20756 O 1955.02 4.06702 -3.65042 0
M  V30 20757 H 1952.11 0.638626 -0.525438 0
M  V30 20758 H 1954.66 0.704851 -1.5437 0
M  V30 20759 H 1953.43 1.92159 -3.40867 0
M  V30 20760 H 1953.05 3.23721 -2.30847 0
M  V30 20761 N 1954.05 1.28517 0.912209 0
M  V30 20762 C 1955 1.12575 2.01483 0
M  V30 20763 C 1955.97 0.0224628 1.66085 0
M  V30 20764 O 1957.15 0.18768 1.89875 0
M  V30 20765 C 1954.29 0.795229 3.35813 0
M  V30 20766 C 1953.4 1.97772 3.84071 0
M  V30 20767 C 1952.54 1.58768 5.06918 0
M  V30 20768 C 1951.58 2.73672 5.47513 0
M  V30 20769 N 1950.71 2.3515 6.6155 0
M  V30 20770 H 1955.55 2.06918 2.1445 0
M  V30 20771 H 1953.09 1.02983 1.05037 0
M  V30 20772 H 1955.05 0.584339 4.13088 0
M  V30 20773 H 1953.68 -0.111266 3.22608 0
M  V30 20774 H 1952.73 2.30069 3.0294 0
M  V30 20775 H 1954.04 2.83913 4.10115 0
M  V30 20776 H 1953.2 1.33894 5.91741 0
M  V30 20777 H 1951.94 0.697566 4.82686 0
M  V30 20778 H 1950.94 2.99242 4.61231 0
M  V30 20779 H 1952.17 3.63328 5.73733 0
M  V30 20780 H 1950.11 1.4861 6.38945 0
M  V30 20781 H 1950.03 3.14827 6.87328 0
M  V30 20782 H 1951.3 2.13564 7.49674 0
M  V30 20783 N 1955.53 -1.12086 1.1079 0
M  V30 20784 C 1956.94 -1.65205 0.869718 0
M  V30 20785 C 1957.29 -1.86823 -0.599309 0
M  V30 20786 O 1956.41 -1.59743 -1.45983 0
M  V30 20787 C 1957.01 -3.00109 1.57226 0
M  V30 20788 C 1955.57 -3.50163 1.38068 0
M  V30 20789 C 1954.71 -2.2511 1.61928 0
M  V30 20790 H 1957.67 -0.958175 1.2651 0
M  V30 20791 H 1957.69 -3.66757 1.01337 0
M  V30 20792 H 1957.2 -2.84344 2.64141 0
M  V30 20793 H 1955.3 -3.71106 0.33333 0
M  V30 20794 H 1955.41 -4.29388 2.12515 0
M  V30 20795 H 1953.78 -2.32399 1.04224 0
M  V30 20796 H 1954.56 -2.11895 2.70103 0
M  V30 20797 N 1957 -0.897194 -1.29569 0
M  V30 20798 C 1957.95 -0.371435 -2.27792 0
M  V30 20799 C 1958.92 0.545087 -1.56901 0
M  V30 20800 O 1960.11 0.47087 -1.84899 0
M  V30 20801 C 1957.25 0.397236 -3.42806 0
M  V30 20802 C 1956.36 -0.549895 -4.28486 0
M  V30 20803 C 1955.49 0.23558 -5.30677 0
M  V30 20804 C 1954.53 -0.706236 -6.08012 0
M  V30 20805 N 1953.67 0.0446763 -7.02086 0
M  V30 20806 H 1958.51 -1.21414 -2.72145 0
M  V30 20807 H 1956.05 -0.610055 -1.33853 0
M  V30 20808 H 1958.01 0.858933 -4.08262 0
M  V30 20809 H 1956.64 1.20441 -2.99489 0
M  V30 20810 H 1955.69 -1.13011 -3.63226 0
M  V30 20811 H 1957 -1.27092 -4.82337 0
M  V30 20812 H 1956.15 0.758588 -6.01939 0
M  V30 20813 H 1954.89 0.989757 -4.77551 0
M  V30 20814 H 1953.9 -1.24077 -5.35617 0
M  V30 20815 H 1955.12 -1.4597 -6.63227 0
M  V30 20816 H 1953.07 0.781165 -6.51332 0
M  V30 20817 H 1952.99 -0.616488 -7.53482 0
M  V30 20818 H 1954.25 0.548029 -7.77571 0
M  V30 20819 N 1958.48 1.43142 -0.659413 0
M  V30 20820 C 1959.43 2.30783 0.0284037 0
M  V30 20821 C 1960.4 1.451 0.808407 0
M  V30 20822 O 1961.58 1.73959 0.783764 0
M  V30 20823 C 1958.72 3.30758 0.984529 0
M  V30 20824 C 1957.84 4.31537 0.199975 0
M  V30 20825 C 1956.97 5.18592 1.15046 0
M  V30 20826 C 1956.01 6.1106 0.356695 0
M  V30 20827 N 1955.15 6.90718 1.25909 0
M  V30 20828 H 1959.99 2.89051 -0.724821 0
M  V30 20829 H 1957.53 1.42392 -0.369192 0
M  V30 20830 H 1959.48 3.87236 1.55254 0
M  V30 20831 H 1958.11 2.74125 1.70456 0
M  V30 20832 H 1957.17 3.77303 -0.484425 0
M  V30 20833 H 1958.48 4.97054 -0.416974 0
M  V30 20834 H 1957.63 5.79727 1.7889 0
M  V30 20835 H 1956.37 4.53215 1.80131 0
M  V30 20836 H 1955.38 5.49008 -0.295063 0
M  V30 20837 H 1956.6 6.78481 -0.28984 0
M  V30 20838 H 1954.55 6.27984 1.89662 0
M  V30 20839 H 1954.46 7.52782 0.69685 0
M  V30 20840 H 1955.73 7.56353 1.88549 0
M  V30 20841 N 1959.96 0.40173 1.52394 0
M  V30 20842 C 1961.19 -0.175915 2.0585 0
M  V30 20843 C 1961.6 -1.40031 1.27232 0
M  V30 20844 O 1960.94 -1.80972 0.315396 0
M  V30 20845 C 1961 -0.598467 3.54484 0
M  V30 20846 C 1960.67 0.514174 4.54098 0
M  V30 20847 C 1961.66 1.37546 5.01375 0
M  V30 20848 C 1959.35 0.684753 4.97611 0
M  V30 20849 C 1961.34 2.39233 5.90801 0
M  V30 20850 C 1959.03 1.70495 5.86834 0
M  V30 20851 C 1960.03 2.55715 6.33324 0
M  V30 20852 O 1959.72 3.55989 7.20782 0
M  V30 20853 H 1959.45 -0.0272021 0.675452 0
M  V30 20854 H 1962 0.569114 1.97358 0
M  V30 20855 H 1960.23 -1.39566 3.60636 0
M  V30 20856 H 1961.92 -1.10319 3.90621 0
M  V30 20857 H 1962.69 1.25504 4.6848 0
M  V30 20858 H 1958.57 0.0311144 4.60989 0
M  V30 20859 H 1962.11 3.05785 6.2701 0
M  V30 20860 H 1958.01 1.82571 6.19143 0
M  V30 20861 H 1958.78 3.52145 7.38875 0
M  V30 20862 N 1961.44 -1.57047 0.131923 0
M  V30 20863 C 1962.68 -1.95921 -0.5237 0
M  V30 20864 C 1963.02 -1.01606 -1.65499 0
M  V30 20865 O 1962.29 -0.0556233 -1.9442 0
M  V30 20866 C 1962.58 -3.44629 -1.04418 0
M  V30 20867 C 1962.43 -4.4972 0.084583 0
M  V30 20868 C 1963.75 -3.9548 -1.93089 0
M  V30 20869 H 1960.87 -0.712382 -0.188894 0
M  V30 20870 H 1963.51 -1.88835 0.2101 0
M  V30 20871 H 1961.66 -3.50799 -1.6695 0
M  V30 20872 H 1963.33 -4.5564 0.720384 0
M  V30 20873 H 1961.57 -4.27339 0.745906 0
M  V30 20874 H 1962.24 -5.51066 -0.321051 0
M  V30 20875 H 1964.72 -3.91695 -1.40408 0
M  V30 20876 H 1963.6 -5.00025 -2.2642 0
M  V30 20877 H 1963.86 -3.36939 -2.86224 0
M  V30 20878 N 1962.92 0.141865 -1.5696 0
M  V30 20879 C 1963.85 1.20022 -1.95262 0
M  V30 20880 C 1964.86 1.38905 -0.849072 0
M  V30 20881 O 1966.05 1.38385 -1.12747 0
M  V30 20882 C 1963.15 2.56421 -2.21589 0
M  V30 20883 C 1962.32 2.58447 -3.52879 0
M  V30 20884 C 1961.38 3.76422 -3.67686 0
M  V30 20885 O 1960.41 3.61059 -4.40028 0
M  V30 20886 N 1961.61 4.94082 -3.04734 0
M  V30 20887 H 1964.38 0.87461 -2.86654 0
M  V30 20888 H 1961.94 0.331379 -1.58472 0
M  V30 20889 H 1963.93 3.33863 -2.28731 0
M  V30 20890 H 1962.5 2.81254 -1.36437 0
M  V30 20891 H 1961.72 1.66884 -3.57132 0
M  V30 20892 H 1963.01 2.56837 -4.39218 0
M  V30 20893 H 1962.4 5.09467 -2.45886 0
M  V30 20894 H 1960.96 5.69281 -3.1743 0
M  V30 20895 N 1964.39 1.52136 0.411372 0
M  V30 20896 C 1965.67 1.56646 1.17138 0
M  V30 20897 C 1966.05 0.346143 2.08243 0
M  V30 20898 O 1965.4 -0.66715 2.18544 0
M  V30 20899 C 1965.61 2.89399 1.95063 0
M  V30 20900 C 1966.96 3.42316 2.51207 0
M  V30 20901 O 1967.98 2.91123 2.05245 0
M  V30 20902 O 1966.84 4.31703 3.35104 0
M  V30 20903 H 1963.93 0.63088 0.534715 0
M  V30 20904 H 1966.48 1.64463 0.418334 0
M  V30 20905 H 1965.25 3.69666 1.28308 0
M  V30 20906 H 1964.88 2.84864 2.77377 0
M  V30 20907 N 1965.87 -0.668464 1.42721 0
M  V30 20908 C 1967.12 -1.42428 1.42819 0
M  V30 20909 C 1967.44 -1.95535 0.0504025 0
M  V30 20910 O 1968.64 -2.71407 -0.0712036 0
M  V30 20911 C 1967.1 -2.57681 2.51254 0
M  V30 20912 C 1966.71 -2.11246 3.95069 0
M  V30 20913 C 1968.45 -3.35151 2.60527 0
M  V30 20914 C 1966.36 -3.23619 4.95 0
M  V30 20915 H 1965.29 -0.535089 0.531221 0
M  V30 20916 H 1967.94 -0.723067 1.68653 0
M  V30 20917 H 1966.32 -3.302 2.18595 0
M  V30 20918 H 1967.49 -1.45838 4.37113 0
M  V30 20919 H 1965.81 -1.46697 3.89704 0
M  V30 20920 H 1968.41 -4.18853 3.32364 0
M  V30 20921 H 1968.75 -3.82166 1.6509 0
M  V30 20922 H 1969.28 -2.69705 2.92411 0
M  V30 20923 H 1966.02 -2.81588 5.91936 0
M  V30 20924 H 1965.54 -3.87788 4.57581 0
M  V30 20925 H 1967.22 -3.88988 5.17008 0
M  V30 20926 N 1967.35 -1.28999 -0.905381 0
M  V30 20927 C 1968.28 -1.16189 -2.0254 0
M  V30 20928 C 1969.26 -0.0575293 -1.70003 0
M  V30 20929 O 1970.45 -0.236004 -1.92761 0
M  V30 20930 C 1967.58 -0.831704 -3.37194 0
M  V30 20931 C 1966.53 -1.89176 -3.83922 0
M  V30 20932 C 1965.86 -1.41501 -5.15637 0
M  V30 20933 C 1967.16 -3.29971 -4.04866 0
M  V30 20934 H 1968.85 -2.09886 -2.13514 0
M  V30 20935 H 1966.4 -1.0105 -1.02591 0
M  V30 20936 H 1968.35 -0.728825 -4.1505 0
M  V30 20937 H 1967.07 0.140958 -3.26296 0
M  V30 20938 H 1965.73 -1.98393 -3.08279 0
M  V30 20939 H 1965.38 -0.431182 -5.01149 0
M  V30 20940 H 1965.08 -2.12391 -5.47872 0
M  V30 20941 H 1966.61 -1.32552 -5.96039 0
M  V30 20942 H 1968.02 -3.23628 -4.73221 0
M  V30 20943 H 1966.42 -3.98768 -4.48447 0
M  V30 20944 H 1967.49 -3.73369 -3.09393 0
M  V30 20945 N 1968.83 1.11497 -1.11383 0
M  V30 20946 C 1969.76 2.17283 -0.729431 0
M  V30 20947 C 1970.77 1.61041 0.238642 0
M  V30 20948 O 1971.96 1.78487 0.0216271 0
M  V30 20949 C 1969.06 3.38852 -0.057216 0
M  V30 20950 C 1968.24 4.24562 -1.05196 0
M  V30 20951 C 1967.3 5.24605 -0.40941 0
M  V30 20952 O 1966.32 5.59183 -1.06315 0
M  V30 20953 N 1967.52 5.74565 0.827957 0
M  V30 20954 H 1970.29 2.50871 -1.63963 0
M  V30 20955 H 1967.85 1.27013 -1.00396 0
M  V30 20956 H 1969.84 4.02871 0.384356 0
M  V30 20957 H 1968.41 3.03332 0.755551 0
M  V30 20958 H 1967.63 3.57008 -1.6715 0
M  V30 20959 H 1968.92 4.78667 -1.72498 0
M  V30 20960 H 1968.32 5.48653 1.37827 0
M  V30 20961 H 1966.87 6.40423 1.21252 0
M  V30 20962 N 1970.31 0.904053 1.29092 0
M  V30 20963 C 1971.22 0.389825 2.31339 0
M  V30 20964 C 1972.23 -0.517628 1.66122 0
M  V30 20965 O 1973.41 -0.406158 1.97262 0
M  V30 20966 C 1970.47 -0.370468 3.44715 0
M  V30 20967 C 1969.54 0.569032 4.25512 0
M  V30 20968 C 1968.77 -0.155071 5.33475 0
M  V30 20969 O 1968.99 -1.37834 5.53496 0
M  V30 20970 O 1967.93 0.504642 5.99781 0
M  V30 20971 H 1971.75 1.2382 2.77313 0
M  V30 20972 H 1969.34 0.668528 1.33608 0
M  V30 20973 H 1971.22 -0.800237 4.13732 0
M  V30 20974 H 1969.89 -1.19484 3.00841 0
M  V30 20975 H 1968.8 1.048 3.59121 0
M  V30 20976 H 1970.13 1.35994 4.7304 0
M  V30 20977 N 1971.79 -1.4279 0.666995 0
M  V30 20978 C 1972.72 -2.29134 -0.0550112 0
M  V30 20979 C 1973.73 -1.43259 -0.773357 0
M  V30 20980 O 1974.92 -1.67057 -0.628816 0
M  V30 20981 C 1972.02 -3.20503 -1.1014 0
M  V30 20982 C 1971.19 -4.34991 -0.458443 0
M  V30 20983 C 1970.25 -5.07136 -1.40356 0
M  V30 20984 O 1969.28 -5.61929 -0.90686 0
M  V30 20985 N 1970.48 -5.1192 -2.73712 0
M  V30 20986 H 1973.24 -2.9174 0.686156 0
M  V30 20987 H 1970.81 -1.5363 0.510814 0
M  V30 20988 H 1972.8 -3.65634 -1.73477 0
M  V30 20989 H 1971.37 -2.59403 -1.74439 0
M  V30 20990 H 1970.59 -3.92605 0.354287 0
M  V30 20991 H 1971.88 -5.08799 -0.0101948 0
M  V30 20992 H 1971.27 -4.68799 -3.16613 0
M  V30 20993 H 1969.83 -5.60722 -3.32316 0
M  V30 20994 N 1973.26 -0.409806 -1.52179 0
M  V30 20995 C 1974.19 0.406421 -2.29936 0
M  V30 20996 C 1975.17 1.04553 -1.34174 0
M  V30 20997 O 1976.36 1.05441 -1.63082 0
M  V30 20998 C 1973.49 1.52297 -3.12127 0
M  V30 20999 C 1972.44 1.00883 -4.15941 0
M  V30 21000 C 1971.77 2.21903 -4.8648 0
M  V30 21001 C 1973.07 0.0623996 -5.22263 0
M  V30 21002 H 1974.76 -0.242406 -2.98417 0
M  V30 21003 H 1972.31 -0.118023 -1.43516 0
M  V30 21004 H 1974.26 2.10097 -3.65291 0
M  V30 21005 H 1972.99 2.19968 -2.41416 0
M  V30 21006 H 1971.65 0.453228 -3.63788 0
M  V30 21007 H 1971.29 2.88131 -4.12298 0
M  V30 21008 H 1970.99 1.88153 -5.56662 0
M  V30 21009 H 1972.52 2.80308 -5.42457 0
M  V30 21010 H 1973.93 0.549223 -5.70663 0
M  V30 21011 H 1972.33 -0.186317 -5.99811 0
M  V30 21012 H 1973.4 -0.882673 -4.76799 0
M  V30 21013 N 1974.74 1.56975 -0.14025 0
M  V30 21014 C 1975.7 2.15234 0.78784 0
M  V30 21015 C 1976.7 1.09243 1.17994 0
M  V30 21016 O 1977.89 1.34916 1.10197 0
M  V30 21017 C 1975.03 2.70994 2.06821 0
M  V30 21018 H 1976.22 2.98579 0.281166 0
M  V30 21019 H 1973.77 1.55918 0.109151 0
M  V30 21020 H 1974.51 1.91297 2.6187 0
M  V30 21021 H 1974.29 3.48532 1.79633 0
M  V30 21022 H 1975.78 3.15904 2.7312 0
M  V30 21023 N 1976.22 -0.133539 1.57033 0
M  V30 21024 C 1977.13 -1.18362 2.02553 0
M  V30 21025 C 1978.15 -1.46212 0.943294 0
M  V30 21026 O 1979.32 -1.57616 1.25376 0
M  V30 21027 C 1976.39 -2.49391 2.40842 0
M  V30 21028 C 1975.45 -2.29068 3.63079 0
M  V30 21029 C 1974.68 -3.53849 3.99533 0
M  V30 21030 O 1974.9 -4.60576 3.36491 0
M  V30 21031 O 1973.84 -3.45713 4.92713 0
M  V30 21032 H 1977.66 -0.827128 2.9222 0
M  V30 21033 H 1975.25 -0.343267 1.45403 0
M  V30 21034 H 1977.13 -3.26617 2.66269 0
M  V30 21035 H 1975.81 -2.84544 1.54326 0
M  V30 21036 H 1974.71 -1.49749 3.42821 0
M  V30 21037 H 1976.05 -1.98826 4.50254 0
M  V30 21038 N 1977.7 -1.52352 -0.403298 0
M  V30 21039 C 1978.92 -1.70849 -1.17582 0
M  V30 21040 C 1979.35 -0.419696 -1.83358 0
M  V30 21041 O 1978.71 0.623346 -1.70247 0
M  V30 21042 C 1978.75 -2.8492 -2.21027 0
M  V30 21043 O 1977.86 -2.50896 -3.273 0
M  V30 21044 H 1977.2 -0.568568 -0.342967 0
M  V30 21045 H 1979.73 -1.99082 -0.471975 0
M  V30 21046 H 1979.74 -3.10002 -2.6526 0
M  V30 21047 H 1978.41 -3.78423 -1.72536 0
M  V30 21048 H 1976.99 -2.36506 -2.88304 0
M  V30 21049 N 1979.18 0.660885 -1.43074 0
M  V30 21050 C 1980.42 1.42296 -1.44498 0
M  V30 21051 C 1980.75 1.94087 -0.0661594 0
M  V30 21052 O 1980.03 1.71803 0.911806 0
M  V30 21053 C 1980.31 2.60995 -2.481 0
M  V30 21054 C 1980.17 2.14746 -3.95227 0
M  V30 21055 C 1981.48 3.63212 -2.48526 0
M  V30 21056 H 1978.6 0.516071 -0.526156 0
M  V30 21057 H 1981.25 0.749896 -1.74575 0
M  V30 21058 H 1979.4 3.18417 -2.22583 0
M  V30 21059 H 1981.07 1.62384 -4.31774 0
M  V30 21060 H 1979.31 1.46188 -4.08426 0
M  V30 21061 H 1979.98 3.00068 -4.63318 0
M  V30 21062 H 1982.46 3.15534 -2.71251 0
M  V30 21063 H 1981.33 4.43825 -3.22971 0
M  V30 21064 H 1981.59 4.15285 -1.51626 0
M  V30 21065 N 1980.65 1.29477 0.898527 0
M  V30 21066 C 1981.88 1.20232 1.68011 0
M  V30 21067 C 1982.29 -0.239393 1.87679 0
M  V30 21068 O 1981.64 -1.17197 1.41459 0
M  V30 21069 C 1981.7 1.84564 3.08507 0
M  V30 21070 C 1981.36 3.33862 3.12065 0
M  V30 21071 C 1982.36 4.30068 2.92125 0
M  V30 21072 C 1980.04 3.75082 3.34094 0
M  V30 21073 C 1982.04 5.65469 2.94149 0
M  V30 21074 C 1979.72 5.10604 3.35748 0
M  V30 21075 C 1980.72 6.05607 3.15798 0
M  V30 21076 O 1980.41 7.38655 3.17243 0
M  V30 21077 H 1980.14 0.417733 0.531484 0
M  V30 21078 H 1982.7 1.71396 1.13193 0
M  V30 21079 H 1980.93 1.27913 3.64932 0
M  V30 21080 H 1982.62 1.69625 3.68758 0
M  V30 21081 H 1983.38 3.99556 2.74918 0
M  V30 21082 H 1979.26 3.01588 3.48662 0
M  V30 21083 H 1982.8 6.39598 2.78496 0
M  V30 21084 H 1978.7 5.40761 3.52488 0
M  V30 21085 H 1979.47 7.47475 3.33502 0
M  V30 21086 N 1982.13 -1.10905 1.11972 0
M  V30 21087 C 1983.55 -1.3478 0.854776 0
M  V30 21088 C 1983.75 -1.94737 -0.517653 0
M  V30 21089 O 1982.8 -2.18391 -1.26734 0
M  V30 21090 C 1984.12 -2.27414 1.96732 0
M  V30 21091 C 1985.67 -2.40964 1.99764 0
M  V30 21092 C 1986.14 -3.36923 3.10237 0
M  V30 21093 N 1987.63 -3.44488 3.09648 0
M  V30 21094 C 1988.37 -4.18695 3.91768 0
M  V30 21095 N 1987.86 -4.95829 4.83865 0
M  V30 21096 N 1989.66 -4.14263 3.79924 0
M  V30 21097 H 1981.81 -0.703538 2.0041 0
M  V30 21098 H 1984.07 -0.372318 0.871828 0
M  V30 21099 H 1983.78 -1.90561 2.956 0
M  V30 21100 H 1983.65 -3.27681 1.86829 0
M  V30 21101 H 1986.04 -2.77089 1.01518 0
M  V30 21102 H 1986.12 -1.40529 2.13741 0
M  V30 21103 H 1985.76 -3.01524 4.08712 0
M  V30 21104 H 1985.69 -4.37225 2.93499 0
M  V30 21105 H 1988.18 -2.89475 2.42925 0
M  V30 21106 H 1988.5 -5.49836 5.43047 0
M  V30 21107 H 1986.84 -4.9497 4.87883 0
M  V30 21108 H 1990.03 -3.53095 3.07314 0
M  V30 21109 H 1990.2 -4.71837 4.44155 0
M  V30 21110 N 1983.61 -0.910886 -1.2861 0
M  V30 21111 C 1984.57 -0.401862 -2.2565 0
M  V30 21112 C 1985.57 0.470212 -1.53771 0
M  V30 21113 O 1986.76 0.273674 -1.72037 0
M  V30 21114 C 1983.9 0.424193 -3.38251 0
M  V30 21115 H 1985.09 -1.25903 -2.72192 0
M  V30 21116 H 1982.64 -0.690027 -1.40244 0
M  V30 21117 H 1983.38 1.30088 -2.97065 0
M  V30 21118 H 1983.16 -0.200837 -3.91585 0
M  V30 21119 H 1984.65 0.771267 -4.10416 0
M  V30 21120 N 1985.09 1.42434 -0.674558 0
M  V30 21121 C 1986.02 2.33498 -0.0100395 0
M  V30 21122 C 1987 1.50665 0.789558 0
M  V30 21123 O 1988.18 1.79268 0.74676 0
M  V30 21124 C 1985.31 3.34279 0.942081 0
M  V30 21125 C 1984.27 4.27263 0.251094 0
M  V30 21126 C 1983.59 5.18249 1.31614 0
M  V30 21127 C 1984.89 5.15008 -0.869735 0
M  V30 21128 H 1986.59 2.89314 -0.770566 0
M  V30 21129 H 1984.13 1.39112 -0.372004 0
M  V30 21130 H 1986.09 3.96896 1.41604 0
M  V30 21131 H 1984.81 2.76765 1.73403 0
M  V30 21132 H 1983.47 3.6604 -0.202625 0
M  V30 21133 H 1983.12 4.57063 2.10006 0
M  V30 21134 H 1982.82 5.81288 0.858923 0
M  V30 21135 H 1984.34 5.83742 1.79103 0
M  V30 21136 H 1985.76 5.71312 -0.477004 0
M  V30 21137 H 1984.15 5.86879 -1.25273 0
M  V30 21138 H 1985.22 4.53422 -1.71861 0
M  V30 21139 N 1986.57 0.417871 1.51959 0
M  V30 21140 C 1987.51 -0.403305 2.27249 0
M  V30 21141 C 1988.48 -1.0336 1.30023 0
M  V30 21142 O 1989.67 -1.05621 1.58899 0
M  V30 21143 C 1986.81 -1.50928 3.10346 0
M  V30 21144 C 1985.92 -0.899043 4.22541 0
M  V30 21145 C 1985.06 -1.97844 4.92982 0
M  V30 21146 C 1984.1 -1.3456 5.97126 0
M  V30 21147 N 1983.23 -2.36552 6.6105 0
M  V30 21148 H 1988.07 0.245143 2.9699 0
M  V30 21149 H 1985.61 0.132733 1.465 0
M  V30 21150 H 1987.57 -2.16157 3.56836 0
M  V30 21151 H 1986.2 -2.12763 2.42759 0
M  V30 21152 H 1985.25 -0.135561 3.80158 0
M  V30 21153 H 1986.56 -0.396845 4.97219 0
M  V30 21154 H 1985.72 -2.7078 5.42921 0
M  V30 21155 H 1984.45 -2.51432 4.17892 0
M  V30 21156 H 1983.46 -0.601616 5.46499 0
M  V30 21157 H 1984.68 -0.817308 6.74164 0
M  V30 21158 H 1982.63 -2.89256 5.88784 0
M  V30 21159 H 1982.55 -1.91169 7.3143 0
M  V30 21160 H 1983.82 -3.09031 7.15626 0
M  V30 21161 N 1988.04 -1.56898 0.148573 0
M  V30 21162 C 1988.95 -2.2041 -0.80353 0
M  V30 21163 C 1989.97 -1.18886 -1.27052 0
M  V30 21164 O 1991.15 -1.51468 -1.32738 0
M  V30 21165 C 1988.21 -2.81447 -2.02456 0
M  V30 21166 C 1987.27 -3.98102 -1.60665 0
M  V30 21167 C 1986.51 -4.56219 -2.76948 0
M  V30 21168 O 1986.73 -4.13215 -3.93204 0
M  V30 21169 O 1985.66 -5.46455 -2.52329 0
M  V30 21170 H 1989.49 -3.02284 -0.292881 0
M  V30 21171 H 1987.07 -1.49193 -0.0785299 0
M  V30 21172 H 1988.96 -3.20235 -2.73911 0
M  V30 21173 H 1987.63 -2.02585 -2.5247 0
M  V30 21174 H 1986.54 -3.64027 -0.862287 0
M  V30 21175 H 1987.87 -4.78489 -1.15365 0
M  V30 21176 N 1989.52 0.125209 -1.57102 0
M  V30 21177 C 1990.45 1.17944 -1.96524 0
M  V30 21178 C 1991.47 1.37997 -0.863757 0
M  V30 21179 O 1992.66 1.37182 -1.14208 0
M  V30 21180 C 1989.76 2.54056 -2.24296 0
M  V30 21181 C 1988.93 2.5469 -3.55601 0
M  V30 21182 C 1987.99 3.72501 -3.71658 0
M  V30 21183 O 1987.01 3.56372 -4.43833 0
M  V30 21184 N 1988.22 4.90822 -3.09958 0
M  V30 21185 H 1990.98 0.844157 -2.87566 0
M  V30 21186 H 1988.54 0.314552 -1.58815 0
M  V30 21187 H 1990.53 3.31418 -2.32259 0
M  V30 21188 H 1989.1 2.79791 -1.39412 0
M  V30 21189 H 1988.32 1.63087 -3.58882 0
M  V30 21190 H 1989.61 2.52164 -4.41917 0
M  V30 21191 H 1989.01 5.0683 -2.51276 0
M  V30 21192 H 1987.57 5.65882 -3.23451 0
M  V30 21193 N 1991 1.52564 0.395213 0
M  V30 21194 C 1992.25 1.66974 1.1386 0
M  V30 21195 C 1992.57 0.409016 1.90662 0
M  V30 21196 O 1991.84 -0.576451 1.87227 0
M  V30 21197 H 1990.42 0.61548 0.423313 0
M  V30 21198 H 1993.08 1.89657 0.449024 0
M  V30 21199 H 1992.18 2.5173 1.84496 0
M  V30 21200 N 1992.48 -0.653289 1.43422 0
M  V30 21201 C 1993.73 -1.41039 1.44749 0
M  V30 21202 C 1994.05 -1.94864 0.0728692 0
M  V30 21203 O 1993.32 -1.74425 -0.891782 0
M  V30 21204 H 1991.9 -0.523445 0.53293 0
M  V30 21205 H 1994.56 -0.770483 1.79024 0
M  V30 21206 H 1993.66 -2.25278 2.16001 0
M  V30 21207 N 1993.96 -1.29952 -0.891648 0
M  V30 21208 C 1994.91 -1.12384 -1.98378 0
M  V30 21209 C 1995.89 -0.0409187 -1.60848 0
M  V30 21210 O 1997.08 -0.263515 -1.75027 0
M  V30 21211 C 1994.21 -0.81081 -3.33588 0
M  V30 21212 C 1993.3 -1.93366 -3.77452 0
M  V30 21213 N 1993.69 -3.17821 -3.93476 0
M  V30 21214 C 1991.99 -1.82852 -4.06794 0
M  V30 21215 C 1992.69 -3.9113 -4.30572 0
M  V30 21216 N 1991.66 -3.19131 -4.40064 0
M  V30 21217 H 1995.47 -2.06784 -2.08848 0
M  V30 21218 H 1992.98 -1.21194 -1.08101 0
M  V30 21219 H 1994.98 -0.665983 -4.11546 0
M  V30 21220 H 1993.64 0.125193 -3.24459 0
M  V30 21221 H 1994.65 -3.53185 -3.78788 0
M  V30 21222 H 1991.32 -0.965759 -4.06176 0
M  V30 21223 H 1992.71 -4.98273 -4.50748 0
M  V30 21224 N 1995.44 1.1031 -1.12559 0
M  V30 21225 C 1996.68 1.81665 -0.876399 0
M  V30 21226 C 1997 1.86186 0.599506 0
M  V30 21227 O 1998.2 2.53759 0.965337 0
M  V30 21228 C 1996.66 3.26308 -1.51826 0
M  V30 21229 C 1996.27 3.30081 -3.02904 0
M  V30 21230 C 1998.01 4.02482 -1.34939 0
M  V30 21231 C 1995.92 4.69192 -3.60018 0
M  V30 21232 H 1994.85 0.680734 -0.324218 0
M  V30 21233 H 1997.5 1.24044 -1.35223 0
M  V30 21234 H 1995.88 3.83934 -0.970087 0
M  V30 21235 H 1997.06 2.82272 -3.64224 0
M  V30 21236 H 1995.37 2.67393 -3.19202 0
M  V30 21237 H 1997.97 5.05241 -1.7503 0
M  V30 21238 H 1998.31 4.15266 -0.293208 0
M  V30 21239 H 1998.84 3.51274 -1.86685 0
M  V30 21240 H 1995.58 4.61608 -4.65401 0
M  V30 21241 H 1995.1 5.17363 -3.03473 0
M  V30 21242 H 1996.78 5.38161 -3.59153 0
M  V30 21243 N 1996.91 0.917694 1.28125 0
M  V30 21244 C 1998.14 0.568064 1.98637 0
M  V30 21245 C 1998.55 -0.855939 1.68732 0
M  V30 21246 O 1997.89 -1.57905 0.938699 0
M  V30 21247 C 1997.96 0.702044 3.52578 0
M  V30 21248 C 1997.62 2.09632 4.06083 0
M  V30 21249 C 1998.62 3.06946 4.19619 0
M  V30 21250 C 1996.3 2.41056 4.40678 0
M  V30 21251 C 1998.3 4.33798 4.67009 0
M  V30 21252 C 1995.98 3.68147 4.87761 0
M  V30 21253 C 1996.98 4.64332 5.00884 0
M  V30 21254 O 1996.67 5.89163 5.46939 0
M  V30 21255 H 1996.4 0.214921 0.640925 0
M  V30 21256 H 1998.96 1.23412 1.64191 0
M  V30 21257 H 1997.19 -0.0210885 3.86694 0
M  V30 21258 H 1998.87 0.358941 4.0431 0
M  V30 21259 H 1999.64 2.83987 3.93162 0
M  V30 21260 H 1995.52 1.6694 4.29712 0
M  V30 21261 H 1999.06 5.08878 4.77167 0
M  V30 21262 H 1994.96 3.90929 5.13659 0
M  V30 21263 H 1995.73 5.92008 5.65216 0
M  V30 21264 N 1998.39 -1.42074 0.682102 0
M  V30 21265 C 1999.64 -2.01733 0.207714 0
M  V30 21266 C 1999.97 -1.53844 -1.18514 0
M  V30 21267 O 1999.25 -0.74378 -1.79717 0
M  V30 21268 C 1999.53 -3.59228 0.250438 0
M  V30 21269 C 1999.38 -4.17278 1.67927 0
M  V30 21270 C 2000.7 -4.38303 -0.397296 0
M  V30 21271 H 1997.82 -0.732972 0.0769518 0
M  V30 21272 H 2000.46 -1.69 0.868272 0
M  V30 21273 H 1998.61 -3.87245 -0.312007 0
M  V30 21274 H 2000.28 -4.00187 2.29452 0
M  V30 21275 H 1998.53 -3.7283 2.21767 0
M  V30 21276 H 1999.2 -5.26423 1.66079 0
M  V30 21277 H 2001.67 -4.1602 0.0815622 0
M  V30 21278 H 2000.55 -5.47866 -0.336797 0
M  V30 21279 H 2000.81 -4.16733 -1.476 0
M  V30 21280 N 1999.87 -0.425924 -1.51735 0
M  V30 21281 C 2001.11 0.143658 -2.03895 0
M  V30 21282 C 2001.47 1.40947 -1.30376 0
M  V30 21283 O 2002.67 2.05857 -1.72848 0
M  V30 21284 C 2000.95 0.368683 -3.55493 0
M  V30 21285 S 2002.5 0.903307 -4.29402 0
M  V30 21286 H 1999.32 0.0371973 -0.710026 0
M  V30 21287 H 2001.92 -0.582706 -1.86614 0
M  V30 21288 H 2000.63 -0.559105 -4.06574 0
M  V30 21289 H 2000.16 1.12245 -3.77047 0
M  V30 21290 H 2002.17 2.18213 -4.45643 0
M  V30 21291 N 2001.35 1.56817 -0.156891 0
M  V30 21292 C 2002.6 1.96051 0.490764 0
M  V30 21293 C 2002.92 1.04326 1.64746 0
M  V30 21294 O 2002.19 0.106736 1.95609 0
M  V30 21295 H 2000.77 0.72391 0.184293 0
M  V30 21296 H 2003.43 1.93482 -0.234704 0
M  V30 21297 H 2002.52 3.00007 0.86036 0
M  V30 21298 N 2002.83 -0.116876 1.57166 0
M  V30 21299 C 2004.1 -0.854715 1.75937 0
M  V30 21300 C 2004.48 -1.97969 0.732908 0
M  V30 21301 O 2003.83 -2.27207 -0.242738 0
M  V30 21302 C 2004.04 -1.36944 3.2101 0
M  V30 21303 C 2005.39 -1.82093 3.83572 0
M  V30 21304 O 2006.41 -1.46618 3.24625 0
M  V30 21305 O 2005.27 -2.47614 4.87186 0
M  V30 21306 H 2002.37 -0.40605 0.720453 0
M  V30 21307 H 2004.91 -0.100451 1.69402 0
M  V30 21308 H 2003.68 -0.56241 3.87237 0
M  V30 21309 H 2003.31 -2.18635 3.32091 0
M  V30 21310 N 2004.3 -1.52772 -0.387116 0
M  V30 21311 C 2005.55 -1.68156 -1.13364 0
M  V30 21312 C 2005.88 -0.421195 -1.89577 0
M  V30 21313 O 2005.16 0.581056 -1.85618 0
M  V30 21314 C 2005.44 -2.91781 -2.11036 0
M  V30 21315 C 2005.29 -4.27922 -1.38573 0
M  V30 21316 C 2006.61 -3.10957 -3.11438 0
M  V30 21317 H 2003.73 -0.611922 -0.410755 0
M  V30 21318 H 2006.37 -1.85372 -0.416809 0
M  V30 21319 H 2004.52 -2.77234 -2.72165 0
M  V30 21320 H 2006.2 -4.54241 -0.803941 0
M  V30 21321 H 2004.44 -4.28316 -0.687576 0
M  V30 21322 H 2005.11 -5.10514 -2.09952 0
M  V30 21323 H 2007.59 -3.24547 -2.604 0
M  V30 21324 H 2006.46 -3.9893 -3.77022 0
M  V30 21325 H 2006.72 -2.25258 -3.80409 0
M  V30 21326 N 2005.78 0.645673 -1.43767 0
M  V30 21327 C 2007.01 1.43303 -1.49237 0
M  V30 21328 C 2007.42 1.88464 -0.11261 0
M  V30 21329 O 2006.78 1.59955 0.878664 0
M  V30 21330 C 2006.83 2.66302 -2.4447 0
M  V30 21331 O 2006.55 2.23028 -3.77081 0
M  V30 21332 C 2008.05 3.59583 -2.59259 0
M  V30 21333 H 2005.27 0.439978 -0.506617 0
M  V30 21334 H 2007.82 0.790924 -1.88586 0
M  V30 21335 H 2005.97 3.26636 -2.08296 0
M  V30 21336 H 2006.39 3.02664 -4.28363 0
M  V30 21337 H 2007.86 4.42532 -3.29953 0
M  V30 21338 H 2008.34 4.07431 -1.64001 0
M  V30 21339 H 2008.94 3.05126 -2.96274 0
M  V30 21340 N 2007.26 1.30423 0.884744 0
M  V30 21341 C 2008.19 1.1115 1.99301 0
M  V30 21342 C 2009.17 0.0190841 1.62589 0
M  V30 21343 O 2010.35 0.172682 1.87707 0
M  V30 21344 C 2007.48 0.695241 3.31488 0
M  V30 21345 C 2006.53 1.78856 3.87186 0
M  V30 21346 S 2007.36 3.39102 4.14452 0
M  V30 21347 C 2008.52 2.99379 5.49657 0
M  V30 21348 H 2008.75 2.04975 2.15343 0
M  V30 21349 H 2006.28 1.14739 1.03316 0
M  V30 21350 H 2008.24 0.461806 4.07894 0
M  V30 21351 H 2006.9 -0.223647 3.13303 0
M  V30 21352 H 2006.09 1.44959 4.82704 0
M  V30 21353 H 2005.7 1.97629 3.1752 0
M  V30 21354 H 2007.99 2.47353 6.30732 0
M  V30 21355 H 2008.93 3.93805 5.88493 0
M  V30 21356 H 2009.34 2.37239 5.12228 0
M  V30 21357 N 2008.74 -1.09711 1.13142 0
M  V30 21358 C 2009.7 -2.14443 0.809114 0
M  V30 21359 C 2010.7 -1.59789 -0.18005 0
M  V30 21360 O 2011.89 -1.74137 0.0466686 0
M  V30 21361 C 2009.02 -3.40291 0.203714 0
M  V30 21362 H 2010.22 -2.44466 1.73713 0
M  V30 21363 H 2007.77 -1.252 0.935663 0
M  V30 21364 H 2008.5 -3.15892 -0.733667 0
M  V30 21365 H 2008.29 -3.8125 0.916003 0
M  V30 21366 H 2009.78 -4.176 -0.00503851 0
M  V30 21367 N 2010.22 -0.924476 -1.27637 0
M  V30 21368 C 2011.18 -0.425772 -2.25211 0
M  V30 21369 C 2012.18 0.453876 -1.54261 0
M  V30 21370 O 2013.37 0.255412 -1.72317 0
M  V30 21371 C 2010.5 0.388294 -3.38681 0
M  V30 21372 H 2011.69 -1.28783 -2.70841 0
M  V30 21373 H 2009.25 -0.704863 -1.39504 0
M  V30 21374 H 2009.98 1.2693 -2.98428 0
M  V30 21375 H 2009.77 -0.242358 -3.9135 0
M  V30 21376 H 2011.26 0.727693 -4.11211 0
M  V30 21377 N 2011.69 1.41711 -0.689627 0
M  V30 21378 C 2012.97 1.95052 -0.146379 0
M  V30 21379 C 2013.35 1.62932 1.34225 0
M  V30 21380 O 2012.7 0.933198 2.08575 0
M  V30 21381 C 2012.91 3.46324 -0.431327 0
M  V30 21382 C 2014.26 4.23106 -0.355847 0
M  V30 21383 O 2015.28 3.54316 -0.365905 0
M  V30 21384 O 2014.14 5.45615 -0.310824 0
M  V30 21385 H 2011.23 0.82692 -0.0115 0
M  V30 21386 H 2013.78 1.5146 -0.765378 0
M  V30 21387 H 2012.55 3.62963 -1.46197 0
M  V30 21388 H 2012.18 3.96997 0.218942 0
M  V30 21389 N 2013.17 0.433965 1.51507 0
M  V30 21390 C 2014.42 -0.133827 2.02358 0
M  V30 21391 C 2014.75 -1.42654 1.3177 0
M  V30 21392 O 2014.03 -1.89651 0.431588 0
M  V30 21393 C 2014.31 -0.356052 3.58335 0
M  V30 21394 C 2014.16 0.955077 4.39543 0
M  V30 21395 C 2015.48 -1.12732 4.25417 0
M  V30 21396 H 2012.6 -0.0471634 0.735489 0
M  V30 21397 H 2015.24 0.572301 1.81176 0
M  V30 21398 H 2013.39 -0.957541 3.76515 0
M  V30 21399 H 2015.06 1.59029 4.33021 0
M  V30 21400 H 2013.31 1.56044 4.04762 0
M  V30 21401 H 2013.98 0.753671 5.46831 0
M  V30 21402 H 2016.45 -0.617852 4.11487 0
M  V30 21403 H 2015.33 -1.25157 5.34441 0
M  V30 21404 H 2015.59 -2.15452 3.86048 0
M  V30 21405 N 2014.65 -1.56732 0.165206 0
M  V30 21406 C 2015.58 -2.20674 -0.763223 0
M  V30 21407 C 2016.56 -1.16048 -1.24366 0
M  V30 21408 O 2017.75 -1.44456 -1.29793 0
M  V30 21409 C 2014.88 -2.84269 -1.9952 0
M  V30 21410 C 2013.83 -3.94881 -1.65085 0
M  V30 21411 C 2013.16 -4.45496 -2.95698 0
M  V30 21412 C 2014.46 -5.14773 -0.883543 0
M  V30 21413 H 2016.15 -2.98513 -0.230254 0
M  V30 21414 H 2013.7 -1.43585 -0.109308 0
M  V30 21415 H 2015.65 -3.27674 -2.64967 0
M  V30 21416 H 2014.37 -2.03789 -2.55221 0
M  V30 21417 H 2013.03 -3.52122 -1.0201 0
M  V30 21418 H 2012.68 -3.61815 -3.49426 0
M  V30 21419 H 2012.38 -5.20114 -2.73414 0
M  V30 21420 H 2013.9 -4.91584 -3.62185 0
M  V30 21421 H 2015.32 -5.54908 -1.44047 0
M  V30 21422 H 2013.72 -5.95268 -0.759968 0
M  V30 21423 H 2014.79 -4.84748 0.121303 0
M  V30 21424 N 2016.13 0.10854 -1.57226 0
M  V30 21425 C 2017.08 1.1326 -2.01099 0
M  V30 21426 C 2018.05 1.40564 -0.884932 0
M  V30 21427 O 2019.23 1.52253 -1.14994 0
M  V30 21428 C 2016.37 2.45125 -2.42915 0
M  V30 21429 C 2015.48 2.24667 -3.68983 0
M  V30 21430 C 2014.62 3.49836 -3.99736 0
M  V30 21431 C 2013.66 3.24581 -5.18954 0
M  V30 21432 N 2012.79 4.4198 -5.45525 0
M  V30 21433 H 2017.63 0.751475 -2.88369 0
M  V30 21434 H 2015.17 0.359547 -1.42638 0
M  V30 21435 H 2017.13 3.22063 -2.652 0
M  V30 21436 H 2015.76 2.8111 -1.58673 0
M  V30 21437 H 2014.81 1.38595 -3.54253 0
M  V30 21438 H 2016.12 2.01989 -4.56072 0
M  V30 21439 H 2015.28 4.35188 -4.22725 0
M  V30 21440 H 2014.02 3.75555 -3.11143 0
M  V30 21441 H 2013.02 2.37621 -4.95799 0
M  V30 21442 H 2014.25 3.00222 -6.09134 0
M  V30 21443 H 2012.19 4.678 -4.5989 0
M  V30 21444 H 2012.11 4.22445 -6.26958 0
M  V30 21445 H 2013.38 5.28436 -5.73041 0
M  V30 21446 N 2017.61 1.52975 0.379009 0
M  V30 21447 C 2018.57 1.77806 1.4463 0
M  V30 21448 C 2019.57 0.648223 1.47155 0
M  V30 21449 O 2020.76 0.916347 1.48151 0
M  V30 21450 C 2017.89 1.88792 2.83849 0
M  V30 21451 H 2019.08 2.73113 1.23892 0
M  V30 21452 H 2016.64 1.43848 0.61135 0
M  V30 21453 H 2017.37 0.955049 3.09918 0
M  V30 21454 H 2017.16 2.70957 2.83416 0
M  V30 21455 H 2018.65 2.09642 3.61165 0
M  V30 21456 N 2019.08 -0.63804 1.44107 0
M  V30 21457 C 2020.33 -1.39366 1.45808 0
M  V30 21458 C 2020.65 -1.95384 0.091867 0
M  V30 21459 O 2021.85 -2.71497 -0.0136182 0
M  V30 21460 C 2020.31 -2.52293 2.56663 0
M  V30 21461 C 2019.92 -2.02818 3.99461 0
M  V30 21462 C 2021.66 -3.29549 2.67577 0
M  V30 21463 C 2019.57 -3.13047 5.01753 0
M  V30 21464 H 2018.5 -0.5237 0.542452 0
M  V30 21465 H 2021.15 -0.687131 1.70149 0
M  V30 21466 H 2019.53 -3.25489 2.2555 0
M  V30 21467 H 2020.7 -1.36533 4.40108 0
M  V30 21468 H 2019.02 -1.38398 3.92728 0
M  V30 21469 H 2021.62 -4.11709 3.41174 0
M  V30 21470 H 2021.96 -3.78579 1.73159 0
M  V30 21471 H 2022.49 -2.63441 2.98066 0
M  V30 21472 H 2019.23 -2.68969 5.97776 0
M  V30 21473 H 2018.75 -3.77995 4.65704 0
M  V30 21474 H 2020.43 -3.77934 5.25142 0
M  V30 21475 N 2020.56 -1.3089 -0.877815 0
M  V30 21476 C 2021.49 -1.13694 -1.99013 0
M  V30 21477 C 2022.51 -0.0781797 -1.62612 0
M  V30 21478 O 2023.7 -0.324906 -1.75518 0
M  V30 21479 C 2020.8 -0.713232 -3.3131 0
M  V30 21480 C 2019.97 -1.8553 -3.96103 0
M  V30 21481 C 2019.03 -1.41895 -5.06707 0
M  V30 21482 O 2018.05 -2.12734 -5.27952 0
M  V30 21483 N 2019.26 -0.301958 -5.79714 0
M  V30 21484 H 2022.02 -2.09499 -2.14313 0
M  V30 21485 H 2019.58 -1.2312 -1.05133 0
M  V30 21486 H 2021.57 -0.404189 -4.02677 0
M  V30 21487 H 2020.14 0.152987 -3.12225 0
M  V30 21488 H 2019.36 -2.33208 -3.17817 0
M  V30 21489 H 2020.65 -2.62046 -4.3613 0
M  V30 21490 H 2020.05 0.288154 -5.64966 0
M  V30 21491 H 2018.61 -0.0524068 -6.51779 0
M  V30 21492 N 2022.04 1.0911 -1.13723 0
M  V30 21493 C 2023.46 1.33403 -0.87611 0
M  V30 21494 C 2023.66 1.95536 0.486607 0
M  V30 21495 O 2022.71 2.2038 1.23243 0
M  V30 21496 C 2024.03 2.24255 -2.00325 0
M  V30 21497 C 2025.57 2.37755 -2.03572 0
M  V30 21498 C 2026.05 3.31944 -3.15558 0
M  V30 21499 N 2027.54 3.39519 -3.15089 0
M  V30 21500 C 2028.27 4.12409 -3.9838 0
M  V30 21501 N 2027.77 4.88068 -4.91692 0
M  V30 21502 N 2029.56 4.08167 -3.86467 0
M  V30 21503 H 2021.71 0.671565 -2.01504 0
M  V30 21504 H 2023.98 0.358401 -0.877641 0
M  V30 21505 H 2023.68 1.85834 -2.98595 0
M  V30 21506 H 2023.56 3.24667 -1.92019 0
M  V30 21507 H 2025.94 2.75438 -1.05913 0
M  V30 21508 H 2026.03 1.3711 -2.1595 0
M  V30 21509 H 2025.67 2.94984 -4.13458 0
M  V30 21510 H 2025.6 4.32501 -3.00418 0
M  V30 21511 H 2028.09 2.85573 -2.475 0
M  V30 21512 H 2028.4 5.41127 -5.51726 0
M  V30 21513 H 2026.75 4.87146 -4.95695 0
M  V30 21514 H 2029.94 3.48161 -3.12892 0
M  V30 21515 H 2030.11 4.64711 -4.51606 0
M  V30 21516 N 2023.52 0.931232 1.27145 0
M  V30 21517 C 2024.77 0.569326 1.93498 0
M  V30 21518 C 2025.08 -0.894288 1.73959 0
M  V30 21519 O 2026.29 -1.36513 2.34684 0
M  V30 21520 C 2024.74 0.967432 3.46654 0
M  V30 21521 C 2024.35 2.45197 3.74943 0
M  V30 21522 C 2026.09 0.676947 4.19068 0
M  V30 21523 C 2024 2.7893 5.2149 0
M  V30 21524 H 2022.93 0.209208 0.724395 0
M  V30 21525 H 2025.58 1.13252 1.44382 0
M  V30 21526 H 2023.96 0.332853 3.94599 0
M  V30 21527 H 2025.14 3.13476 3.37742 0
M  V30 21528 H 2023.45 2.71472 3.1574 0
M  V30 21529 H 2026.05 0.905425 5.26978 0
M  V30 21530 H 2026.39 -0.385967 4.14507 0
M  V30 21531 H 2026.93 1.27079 3.76956 0
M  V30 21532 H 2023.67 3.84144 5.31144 0
M  V30 21533 H 2023.19 2.15304 5.59825 0
M  V30 21534 H 2024.86 2.66862 5.89401 0
M  V30 21535 N 2025 -1.41343 0.697132 0
M  V30 21536 C 2025.93 -2.28193 -0.017778 0
M  V30 21537 C 2026.91 -1.4232 -0.786373 0
M  V30 21538 O 2028.09 -1.71747 -0.776865 0
M  V30 21539 C 2025.22 -3.22577 -1.03256 0
M  V30 21540 C 2024.27 -4.25004 -0.356949 0
M  V30 21541 S 2025.1 -5.27852 0.901798 0
M  V30 21542 C 2026.25 -6.25801 -0.111346 0
M  V30 21543 H 2026.49 -2.88479 0.718839 0
M  V30 21544 H 2024.02 -1.46503 0.487463 0
M  V30 21545 H 2025.98 -3.77487 -1.61288 0
M  V30 21546 H 2024.64 -2.61384 -1.74176 0
M  V30 21547 H 2023.83 -4.9132 -1.12343 0
M  V30 21548 H 2023.43 -3.73698 0.150343 0
M  V30 21549 H 2025.73 -6.70605 -0.964122 0
M  V30 21550 H 2026.67 -7.06203 0.517933 0
M  V30 21551 H 2027.08 -5.62566 -0.466819 0
M  V30 21552 N 2026.48 -0.441993 -1.51275 0
M  V30 21553 C 2027.7 0.121451 -2.06543 0
M  V30 21554 C 2028.12 1.36058 -1.30896 0
M  V30 21555 O 2027.48 1.78713 -0.369834 0
M  V30 21556 C 2027.53 0.438983 -3.58825 0
M  V30 21557 O 2027.25 -0.750969 -4.31616 0
M  V30 21558 C 2028.75 1.05259 -4.30622 0
M  V30 21559 H 2025.97 0.00586064 -0.670974 0
M  V30 21560 H 2028.51 -0.622415 -1.94798 0
M  V30 21561 H 2026.67 1.13275 -3.70469 0
M  V30 21562 H 2027.08 -0.478024 -5.22317 0
M  V30 21563 H 2028.56 1.22474 -5.38242 0
M  V30 21564 H 2029.03 2.03489 -3.89216 0
M  V30 21565 H 2029.64 0.398068 -4.23433 0
M  V30 21566 N 2027.95 1.56642 -0.173515 0
M  V30 21567 C 2028.89 2.15251 0.787381 0
M  V30 21568 C 2029.9 1.10866 1.19217 0
M  V30 21569 O 2031.09 1.38044 1.13164 0
M  V30 21570 C 2028.19 2.6821 2.07163 0
M  V30 21571 C 2027.36 3.97275 1.83006 0
M  V30 21572 C 2026.42 4.35276 2.95671 0
M  V30 21573 O 2025.45 5.03111 2.6621 0
M  V30 21574 N 2026.65 3.97014 4.23509 0
M  V30 21575 H 2029.41 2.98329 0.28631 0
M  V30 21576 H 2026.97 1.61897 0.00919258 0
M  V30 21577 H 2028.97 2.90629 2.81632 0
M  V30 21578 H 2027.54 1.89708 2.48454 0
M  V30 21579 H 2026.76 3.83211 0.924298 0
M  V30 21580 H 2028.04 4.81564 1.64237 0
M  V30 21581 H 2027.44 3.42407 4.50304 0
M  V30 21582 H 2026 4.24429 4.94675 0
M  V30 21583 N 2029.43 -0.1002 1.57281 0
M  V30 21584 C 2030.36 -1.14803 1.98376 0
M  V30 21585 C 2031.38 -1.36605 0.885602 0
M  V30 21586 O 2032.57 -1.35347 1.16376 0
M  V30 21587 C 2029.67 -2.50456 2.2831 0
M  V30 21588 C 2028.84 -2.49 3.59608 0
M  V30 21589 C 2027.9 -3.66541 3.77537 0
M  V30 21590 O 2026.92 -3.49266 4.49447 0
M  V30 21591 N 2028.13 -4.85829 3.17727 0
M  V30 21592 H 2030.89 -0.798301 2.88872 0
M  V30 21593 H 2028.45 -0.289246 1.59295 0
M  V30 21594 H 2030.44 -3.27681 2.37502 0
M  V30 21595 H 2029.01 -2.77538 1.43846 0
M  V30 21596 H 2028.23 -1.57357 3.61431 0
M  V30 21597 H 2029.52 -2.45101 4.45873 0
M  V30 21598 H 2028.92 -5.02769 2.59307 0
M  V30 21599 H 2027.48 -5.60665 3.32412 0
M  V30 21600 N 2030.91 -1.53174 -0.370891 0
M  V30 21601 C 2032.16 -1.68764 -1.11189 0
M  V30 21602 C 2032.48 -0.439297 -1.89987 0
M  V30 21603 O 2031.75 0.546592 -1.8812 0
M  V30 21604 H 2030.33 -0.622136 -0.413467 0
M  V30 21605 H 2032.99 -1.90347 -0.418794 0
M  V30 21606 H 2032.09 -2.54633 -1.80468 0
M  V30 21607 N 2032.39 0.630389 -1.44443 0
M  V30 21608 C 2033.33 1.74232 -1.51367 0
M  V30 21609 C 2034.3 1.62122 -0.361324 0
M  V30 21610 O 2035.49 1.82035 -0.571662 0
M  V30 21611 C 2032.63 3.12481 -1.46457 0
M  V30 21612 C 2031.74 3.35561 -2.72071 0
M  V30 21613 C 2030.88 4.63787 -2.58989 0
M  V30 21614 C 2029.92 4.80048 -3.79764 0
M  V30 21615 N 2029.05 5.99551 -3.65354 0
M  V30 21616 H 2033.89 1.6765 -2.46368 0
M  V30 21617 H 2031.43 0.817807 -1.22272 0
M  V30 21618 H 2033.39 3.92435 -1.41601 0
M  V30 21619 H 2032.02 3.18076 -0.550216 0
M  V30 21620 H 2031.07 2.49543 -2.8711 0
M  V30 21621 H 2032.38 3.43456 -3.61717 0
M  V30 21622 H 2031.54 5.51902 -2.51971 0
M  V30 21623 H 2030.28 4.58251 -1.66905 0
M  V30 21624 H 2029.28 3.90362 -3.87166 0
M  V30 21625 H 2030.51 4.87397 -4.72886 0
M  V30 21626 H 2028.45 5.95104 -2.76021 0
M  V30 21627 H 2028.37 6.08505 -4.48617 0
M  V30 21628 H 2029.64 6.90226 -3.62228 0
M  V30 21629 N 2033.87 1.31354 0.870861 0
M  V30 21630 C 2034.8 1.21518 1.99388 0
M  V30 21631 C 2035.78 0.102582 1.6979 0
M  V30 21632 O 2036.96 0.287028 1.92067 0
M  V30 21633 C 2034.09 0.920813 3.34871 0
M  V30 21634 C 2033.05 1.99289 3.78772 0
M  V30 21635 C 2032.37 1.55123 5.11704 0
M  V30 21636 C 2033.67 3.40589 3.95975 0
M  V30 21637 H 2035.37 2.15473 2.07875 0
M  V30 21638 H 2032.91 1.03734 0.998761 0
M  V30 21639 H 2034.86 0.838612 4.12971 0
M  V30 21640 H 2033.59 -0.0543971 3.26555 0
M  V30 21641 H 2032.25 2.06496 3.0291 0
M  V30 21642 H 2031.9 0.563901 4.99829 0
M  V30 21643 H 2031.6 2.26842 5.42048 0
M  V30 21644 H 2033.12 1.48308 5.92315 0
M  V30 21645 H 2034.53 3.36061 4.64474 0
M  V30 21646 H 2032.93 4.10517 4.37716 0
M  V30 21647 H 2034 3.8144 2.99385 0
M  V30 21648 N 2035.34 -1.08505 1.143 0
M  V30 21649 C 2036.57 -1.85155 0.934475 0
M  V30 21650 C 2036.99 -1.81002 -0.511866 0
M  V30 21651 O 2036.35 -1.19437 -1.36398 0
M  V30 21652 C 2036.4 -3.30656 1.43871 0
M  V30 21653 O 2035.5 -4.07557 0.630143 0
M  V30 21654 H 2034.84 -0.573775 0.334183 0
M  V30 21655 H 2037.37 -1.36959 1.51998 0
M  V30 21656 H 2037.38 -3.815 1.44644 0
M  V30 21657 H 2036.06 -3.32995 2.49173 0
M  V30 21658 H 2034.64 -3.66441 0.691067 0
M  V30 21659 N 2036.82 -0.937962 -1.26649 0
M  V30 21660 C 2037.78 -0.449635 -2.24746 0
M  V30 21661 C 2038.78 0.437489 -1.54734 0
M  V30 21662 O 2039.97 0.237121 -1.72579 0
M  V30 21663 C 2037.11 0.35235 -3.39074 0
M  V30 21664 H 2038.3 -1.31648 -2.6946 0
M  V30 21665 H 2035.85 -0.71962 -1.38749 0
M  V30 21666 H 2036.59 1.23758 -2.99757 0
M  V30 21667 H 2036.37 -0.283853 -3.91071 0
M  V30 21668 H 2037.86 0.684038 -4.1196 0
M  V30 21669 N 2038.3 1.40971 -0.704618 0
M  V30 21670 C 2039.21 2.34555 -0.0457738 0
M  V30 21671 C 2040.23 1.56717 0.756037 0
M  V30 21672 O 2041.4 1.89156 0.691518 0
M  V30 21673 C 2038.47 3.35534 0.872815 0
M  V30 21674 C 2037.53 4.29255 0.062192 0
M  V30 21675 C 2036.76 5.2541 0.937031 0
M  V30 21676 O 2036.98 5.27245 2.17644 0
M  V30 21677 O 2035.92 6.00687 0.381874 0
M  V30 21678 H 2039.74 2.92493 -0.817415 0
M  V30 21679 H 2037.33 1.41979 -0.465014 0
M  V30 21680 H 2039.21 3.97489 1.3993 0
M  V30 21681 H 2037.89 2.80026 1.62379 0
M  V30 21682 H 2036.79 3.7062 -0.509109 0
M  V30 21683 H 2038.13 4.87885 -0.65032 0
M  V30 21684 N 2039.78 0.45001 1.51039 0
M  V30 21685 C 2041.06 -0.172746 1.94836 0
M  V30 21686 C 2041.44 -1.58934 1.38936 0
M  V30 21687 O 2040.78 -2.20974 0.581609 0
M  V30 21688 C 2040.99 -0.137579 3.48729 0
M  V30 21689 C 2042.34 -0.33691 4.23261 0
M  V30 21690 O 2043.37 -0.215124 3.5555 0
M  V30 21691 O 2042.22 -0.580548 5.43408 0
M  V30 21692 H 2039.32 -0.12312 0.817784 0
M  V30 21693 H 2041.86 0.5089 1.6189 0
M  V30 21694 H 2040.64 0.852286 3.81905 0
M  V30 21695 H 2040.26 -0.861592 3.88152 0
M  V30 21696 N 2041.26 -1.56548 0.18182 0
M  V30 21697 C 2042.22 -2.17247 -0.730497 0
M  V30 21698 C 2043.22 -1.12333 -1.15056 0
M  V30 21699 O 2044.41 -1.3779 -1.06581 0
M  V30 21700 C 2041.54 -2.76383 -1.99563 0
M  V30 21701 H 2042.73 -2.9922 -0.201904 0
M  V30 21702 H 2040.29 -1.56153 -0.0677734 0
M  V30 21703 H 2041.02 -1.98173 -2.56706 0
M  V30 21704 H 2040.81 -3.53172 -1.70329 0
M  V30 21705 H 2042.3 -3.23034 -2.64649 0
M  V30 21706 N 2042.73 0.0918577 -1.57332 0
M  V30 21707 C 2043.98 0.793187 -1.85884 0
M  V30 21708 C 2044.3 1.79111 -0.770985 0
M  V30 21709 O 2043.57 1.94851 0.202438 0
M  V30 21710 H 2042.15 0.295923 -0.685885 0
M  V30 21711 H 2044.82 0.0727166 -1.94764 0
M  V30 21712 H 2043.91 1.32178 -2.82728 0
M  V30 21713 N 2044.21 1.53368 0.362763 0
M  V30 21714 C 2045.46 1.69938 1.10674 0
M  V30 21715 C 2045.79 0.451301 1.88883 0
M  V30 21716 O 2045.07 -0.551452 1.86519 0
M  V30 21717 C 2045.35 2.95101 2.06367 0
M  V30 21718 C 2045.2 4.30073 1.31748 0
M  V30 21719 C 2046.52 3.15872 3.06452 0
M  V30 21720 H 2043.64 0.61838 0.400968 0
M  V30 21721 H 2046.28 1.86011 0.387265 0
M  V30 21722 H 2044.43 2.81529 2.6772 0
M  V30 21723 H 2046.1 4.55462 0.731574 0
M  V30 21724 H 2044.35 4.29356 0.619347 0
M  V30 21725 H 2045.02 5.13789 2.01803 0
M  V30 21726 H 2047.49 3.28649 2.55204 0
M  V30 21727 H 2046.37 4.04878 3.70628 0
M  V30 21728 H 2046.63 2.31281 3.76778 0
M  V30 21729 N 2045.69 -0.62272 1.44776 0
M  V30 21730 C 2046.94 -1.3821 1.48 0
M  V30 21731 C 2047.27 -1.94155 0.115835 0
M  V30 21732 O 2046.52 -1.74621 -0.883522 0
M  V30 21733 C 2046.82 -2.55936 2.49463 0
M  V30 21734 C 2046.49 -2.1823 3.94571 0
M  V30 21735 C 2045.15 -2.0766 4.34086 0
M  V30 21736 C 2047.5 -1.88574 4.8589 0
M  V30 21737 C 2044.83 -1.65634 5.62834 0
M  V30 21738 C 2047.18 -1.48038 6.15035 0
M  V30 21739 C 2045.84 -1.36016 6.53495 0
M  V30 21740 H 2045.11 -0.505748 0.541572 0
M  V30 21741 H 2047.76 -0.705341 1.78037 0
M  V30 21742 H 2046.07 -3.28883 2.1294 0
M  V30 21743 H 2047.76 -3.14165 2.49201 0
M  V30 21744 H 2044.35 -2.27378 3.63314 0
M  V30 21745 H 2048.54 -1.95645 4.5611 0
M  V30 21746 H 2043.79 -1.54936 5.91443 0
M  V30 21747 H 2047.97 -1.24132 6.85248 0
M  V30 21748 H 2045.59 -1.03224 7.53159 0
M  V30 21749 N 2047.17 -1.31814 -0.863883 0
M  V30 21750 C 2048.42 -1.21205 -1.61221 0
M  V30 21751 C 2048.73 0.227073 -1.94277 0
M  V30 21752 O 2049.94 0.454922 -2.67662 0
M  V30 21753 C 2048.39 -2.12221 -2.90672 0
M  V30 21754 C 2048 -3.61163 -2.65076 0
M  V30 21755 C 2049.74 -2.10427 -3.68674 0
M  V30 21756 C 2047.65 -4.44169 -3.90471 0
M  V30 21757 H 2046.58 -0.450072 -0.604939 0
M  V30 21758 H 2049.23 -1.56711 -0.954668 0
M  V30 21759 H 2047.61 -1.6962 -3.57834 0
M  V30 21760 H 2048.79 -4.12049 -2.06283 0
M  V30 21761 H 2047.1 -3.64995 -2.00418 0
M  V30 21762 H 2049.7 -2.69684 -4.61708 0
M  V30 21763 H 2050.04 -1.09293 -4.01697 0
M  V30 21764 H 2050.58 -2.5126 -3.08404 0
M  V30 21765 H 2047.32 -5.46082 -3.62595 0
M  V30 21766 H 2046.84 -3.98039 -4.48693 0
M  V30 21767 H 2048.51 -4.56696 -4.58299 0
M  V30 21768 N 2048.65 1.07897 -1.14873 0
M  V30 21769 C 2049.87 1.84657 -0.944281 0
M  V30 21770 C 2050.3 1.8127 0.50226 0
M  V30 21771 O 2049.65 1.20159 1.35763 0
M  V30 21772 C 2049.7 3.29889 -1.45622 0
M  V30 21773 O 2048.81 4.07217 -0.651748 0
M  V30 21774 H 2048.15 0.571994 -0.337222 0
M  V30 21775 H 2050.68 1.36151 -1.52723 0
M  V30 21776 H 2050.69 3.80727 -1.46665 0
M  V30 21777 H 2049.36 3.31668 -2.50936 0
M  V30 21778 H 2047.94 3.66069 -0.710491 0
M  V30 21779 N 2050.12 0.944665 1.2615 0
M  V30 21780 C 2051.54 0.647519 1.45874 0
M  V30 21781 C 2051.74 -0.798095 1.85021 0
M  V30 21782 O 2050.8 -1.57439 1.97406 0
M  V30 21783 C 2052.11 1.61192 2.53845 0
M  V30 21784 C 2053.66 1.62201 2.67694 0
M  V30 21785 C 2054.13 2.5738 3.7884 0
M  V30 21786 N 2055.62 2.55686 3.86237 0
M  V30 21787 C 2056.36 3.26015 4.71701 0
M  V30 21788 N 2055.85 4.05782 5.61527 0
M  V30 21789 N 2057.65 3.1495 4.65578 0
M  V30 21790 H 2049.8 1.87901 0.990296 0
M  V30 21791 H 2052.06 0.807679 0.496345 0
M  V30 21792 H 2051.77 2.64402 2.31915 0
M  V30 21793 H 2051.64 1.36668 3.5157 0
M  V30 21794 H 2054.03 0.597142 2.88995 0
M  V30 21795 H 2054.11 1.9078 1.70402 0
M  V30 21796 H 2053.75 3.59987 3.5829 0
M  V30 21797 H 2053.68 2.26089 4.75596 0
M  V30 21798 H 2056.17 1.97768 3.22019 0
M  V30 21799 H 2056.49 4.56389 6.23642 0
M  V30 21800 H 2054.83 4.09882 5.61268 0
M  V30 21801 H 2058.02 2.52113 3.94407 0
M  V30 21802 H 2058.2 3.70027 5.31962 0
M  V30 21803 N 2051.6 -1.40596 0.712085 0
M  V30 21804 C 2052.54 -2.28199 0.00642592 0
M  V30 21805 C 2053.51 -1.43146 -0.771234 0
M  V30 21806 O 2054.7 -1.72561 -0.758605 0
M  V30 21807 C 2051.82 -3.23654 -0.998287 0
M  V30 21808 C 2050.87 -4.25358 -0.311852 0
M  V30 21809 S 2051.7 -5.26866 0.957734 0
M  V30 21810 C 2052.86 -6.25884 -0.0449648 0
M  V30 21811 H 2053.09 -2.877 0.749396 0
M  V30 21812 H 2050.63 -1.45978 0.502974 0
M  V30 21813 H 2052.58 -3.79176 -1.57275 0
M  V30 21814 H 2051.24 -2.63217 -1.71394 0
M  V30 21815 H 2050.44 -4.92484 -1.07125 0
M  V30 21816 H 2050.04 -3.73517 0.18997 0
M  V30 21817 H 2052.33 -6.7159 -0.892942 0
M  V30 21818 H 2053.27 -7.05614 0.592806 0
M  V30 21819 H 2053.68 -5.6303 -0.407125 0
M  V30 21820 N 2053.08 -0.458013 -1.50798 0
M  V30 21821 C 2054.5 -0.111425 -1.59211 0
M  V30 21822 C 2054.7 1.38104 -1.46729 0
M  V30 21823 O 2053.75 2.15306 -1.31907 0
M  V30 21824 C 2055.07 -0.649971 -2.93591 0
M  V30 21825 C 2056.61 -0.612237 -3.06954 0
M  V30 21826 C 2057.09 -1.1281 -4.43889 0
M  V30 21827 N 2058.58 -1.08696 -4.50266 0
M  V30 21828 C 2059.31 -1.45676 -5.54586 0
M  V30 21829 N 2058.81 -1.90042 -6.66225 0
M  V30 21830 N 2060.6 -1.37362 -5.45058 0
M  V30 21831 H 2052.75 -1.42885 -1.57155 0
M  V30 21832 H 2055.02 -0.590085 -0.741959 0
M  V30 21833 H 2054.72 -1.695 -3.0816 0
M  V30 21834 H 2054.6 -0.0862666 -3.77101 0
M  V30 21835 H 2056.98 0.42385 -2.9204 0
M  V30 21836 H 2057.07 -1.21259 -2.25233 0
M  V30 21837 H 2056.71 -2.16276 -4.59551 0
M  V30 21838 H 2056.64 -0.50409 -5.24182 0
M  V30 21839 H 2059.13 -0.761406 -3.7015 0
M  V30 21840 H 2059.44 -2.16442 -7.41871 0
M  V30 21841 H 2057.79 -1.93985 -6.67379 0
M  V30 21842 H 2060.98 -1.02552 -4.56728 0
M  V30 21843 H 2061.15 -1.66508 -6.26242 0
M  V30 21844 N 2054.56 1.56449 -0.190119 0
M  V30 21845 C 2055.84 1.89172 0.497312 0
M  V30 21846 C 2056.22 1.1029 1.79998 0
M  V30 21847 O 2055.56 0.202471 2.27601 0
M  V30 21848 C 2055.77 3.41472 0.720941 0
M  V30 21849 C 2057.12 4.11602 1.04254 0
M  V30 21850 O 2058.15 3.46895 0.808835 0
M  V30 21851 O 2057.01 5.25955 1.48438 0
M  V30 21852 H 2054.1 0.785518 0.258632 0
M  V30 21853 H 2056.65 1.68135 -0.229961 0
M  V30 21854 H 2055.42 3.90793 -0.199197 0
M  V30 21855 H 2055.04 3.68185 1.50085 0
M  V30 21856 N 2056.04 -0.0835127 1.57379 0
M  V30 21857 C 2057.31 -0.817204 1.77711 0
M  V30 21858 C 2057.69 -1.9637 0.774736 0
M  V30 21859 O 2057.04 -2.27671 -0.194489 0
M  V30 21860 C 2057.25 -1.30104 3.23842 0
M  V30 21861 C 2058.6 -1.73916 3.87348 0
M  V30 21862 O 2059.62 -1.39699 3.27662 0
M  V30 21863 O 2058.48 -2.37224 4.92328 0
M  V30 21864 H 2055.58 -0.390677 0.728904 0
M  V30 21865 H 2058.12 -0.0644961 1.69577 0
M  V30 21866 H 2056.9 -0.480145 3.88343 0
M  V30 21867 H 2056.52 -2.11541 3.36654 0
M  V30 21868 N 2057.52 -1.53558 -0.354624 0
M  V30 21869 C 2058.46 -1.81453 -1.45525 0
M  V30 21870 C 2059.46 -0.684302 -1.54963 0
M  V30 21871 O 2060.66 -0.867445 -1.57719 0
M  V30 21872 H 2057.04 -0.574697 -0.485003 0
M  V30 21873 H 2059.01 -2.73555 -1.19207 0
M  V30 21874 C 2057.76 -2.0311 -2.82208 0
M  V30 21875 H 2057.08 -2.89525 -2.75709 0
M  V30 21876 H 2058.52 -2.266 -3.58369 0
M  V30 21877 C 2056.98 -0.813372 -3.26934 0
M  V30 21878 O 2057.51 -0.00738144 -4.01699 0
M  V30 21879 N 2055.72 -0.633715 -2.83606 0
M  V30 21880 H 2055.26 -1.29076 -2.22928 0
M  V30 21881 H 2055.22 0.179621 -3.13886 0
M  V30 21882 N 2058.99 0.615033 -1.45104 0
M  V30 21883 C 2060.41 0.934983 -1.29345 0
M  V30 21884 C 2060.61 2.00053 -0.241008 0
M  V30 21885 O 2059.67 2.4981 0.367607 0
M  V30 21886 C 2060.98 1.38297 -2.6701 0
M  V30 21887 C 2062.53 1.49759 -2.74848 0
M  V30 21888 C 2063 1.97936 -4.1302 0
M  V30 21889 N 2064.49 2.05181 -4.15277 0
M  V30 21890 C 2065.23 2.43664 -5.19052 0
M  V30 21891 N 2064.72 2.81169 -6.33179 0
M  V30 21892 N 2066.52 2.43938 -5.06409 0
M  V30 21893 H 2058.67 -0.0893888 -2.12212 0
M  V30 21894 H 2060.93 0.0226574 -0.947729 0
M  V30 21895 H 2060.64 0.674238 -3.45177 0
M  V30 21896 H 2060.51 2.35093 -2.94976 0
M  V30 21897 H 2062.9 2.19725 -1.9699 0
M  V30 21898 H 2062.98 0.512965 -2.50604 0
M  V30 21899 H 2062.62 1.28559 -4.9136 0
M  V30 21900 H 2062.55 2.97298 -4.34651 0
M  V30 21901 H 2065.04 1.78817 -3.32916 0
M  V30 21902 H 2065.36 3.09393 -7.08164 0
M  V30 21903 H 2063.7 2.78882 -6.36592 0
M  V30 21904 H 2066.89 2.1404 -4.16299 0
M  V30 21905 H 2067.07 2.73604 -5.87405 0
M  V30 21906 N 2060.47 1.3227 0.85688 0
M  V30 21907 C 2061.7 1.25516 1.64101 0
M  V30 21908 C 2062.11 -0.179564 1.88346 0
M  V30 21909 O 2061.45 -1.12637 1.45116 0
M  V30 21910 C 2061.51 1.94285 3.02479 0
M  V30 21911 C 2061.18 3.43622 3.01286 0
M  V30 21912 C 2062.18 4.39144 2.78295 0
M  V30 21913 C 2059.86 3.85521 3.21992 0
M  V30 21914 C 2061.85 5.74541 2.7601 0
M  V30 21915 C 2059.54 5.21027 3.19334 0
M  V30 21916 C 2060.54 6.15348 2.96372 0
M  V30 21917 O 2060.23 7.48374 2.93583 0
M  V30 21918 H 2059.96 0.43443 0.517925 0
M  V30 21919 H 2062.51 1.7491 1.07683 0
M  V30 21920 H 2060.74 1.39458 3.60678 0
M  V30 21921 H 2062.43 1.81271 3.63175 0
M  V30 21922 H 2063.2 4.081 2.62067 0
M  V30 21923 H 2059.08 3.12528 3.38891 0
M  V30 21924 H 2062.62 6.48135 2.58006 0
M  V30 21925 H 2058.52 5.51701 3.35106 0
M  V30 21926 H 2059.29 7.57707 3.09553 0
M  V30 21927 N 2061.95 -1.07287 1.15444 0
M  V30 21928 C 2062.9 -2.12735 0.820244 0
M  V30 21929 C 2063.88 -1.59704 -0.195801 0
M  V30 21930 O 2065.08 -1.77 0.00355156 0
M  V30 21931 C 2062.2 -3.41879 0.311994 0
M  V30 21932 C 2061.29 -4.01762 1.35823 0
M  V30 21933 N 2061.68 -4.35894 2.56574 0
M  V30 21934 C 2059.98 -4.29241 1.21113 0
M  V30 21935 C 2060.68 -4.83356 3.23638 0
M  V30 21936 N 2059.66 -4.82169 2.51026 0
M  V30 21937 H 2063.46 -2.36958 1.73863 0
M  V30 21938 H 2060.97 -1.24731 1.03999 0
M  V30 21939 H 2062.97 -4.16865 0.0542227 0
M  V30 21940 H 2061.63 -3.191 -0.600445 0
M  V30 21941 H 2062.64 -4.2656 2.93712 0
M  V30 21942 H 2059.32 -4.15957 0.358635 0
M  V30 21943 H 2060.71 -5.19052 4.26655 0
M  V30 21944 N 2063.43 -0.951342 -1.25647 0
M  V30 21945 C 2064.34 -0.475416 -2.29732 0
M  V30 21946 C 2065.35 0.455617 -1.67929 0
M  V30 21947 O 2066.53 0.332666 -1.98634 0
M  V30 21948 C 2063.59 0.242274 -3.45852 0
M  V30 21949 C 2062.66 -0.726566 -4.23107 0
M  V30 21950 C 2061.89 -0.043031 -5.33683 0
M  V30 21951 O 2062.11 1.17196 -5.5823 0
M  V30 21952 O 2061.05 -0.726899 -5.97495 0
M  V30 21953 H 2064.87 -1.34027 -2.72526 0
M  V30 21954 H 2062.46 -0.717655 -1.31035 0
M  V30 21955 H 2064.34 0.646132 -4.16417 0
M  V30 21956 H 2063.01 1.08236 -3.05068 0
M  V30 21957 H 2061.92 -1.18057 -3.54984 0
M  V30 21958 H 2063.25 -1.53457 -4.67666 0
M  V30 21959 N 2064.91 1.40216 -0.719531 0
M  V30 21960 C 2066.18 1.94697 -0.18772 0
M  V30 21961 C 2066.56 1.65742 1.30739 0
M  V30 21962 O 2065.91 0.97723 2.06549 0
M  V30 21963 C 2066.12 3.45332 -0.50469 0
M  V30 21964 C 2067.47 4.22256 -0.445515 0
M  V30 21965 O 2068.49 3.5346 -0.440978 0
M  V30 21966 O 2067.35 5.44833 -0.426487 0
M  V30 21967 H 2064.45 0.82649 -0.0290376 0
M  V30 21968 H 2066.99 1.49802 -0.797333 0
M  V30 21969 H 2065.76 3.5978 -1.53863 0
M  V30 21970 H 2065.39 3.97372 0.134684 0
M  V30 21971 N 2066.38 0.466004 1.50553 0
M  V30 21972 C 2067.63 -0.0923956 2.01488 0
M  V30 21973 C 2067.95 -1.41242 1.35315 0
M  V30 21974 O 2069.15 -2.05546 1.77379 0
M  V30 21975 C 2067.61 -0.21518 3.59256 0
M  V30 21976 C 2067.22 1.09611 4.34384 0
M  V30 21977 C 2068.96 -0.725811 4.18249 0
M  V30 21978 C 2066.87 0.937394 5.83924 0
M  V30 21979 H 2065.8 -0.0383052 0.753026 0
M  V30 21980 H 2068.45 0.600129 1.73409 0
M  V30 21981 H 2066.83 -0.97137 3.83902 0
M  V30 21982 H 2068 1.86285 4.21467 0
M  V30 21983 H 2066.32 1.53746 3.86977 0
M  V30 21984 H 2068.92 -0.861504 5.27714 0
M  V30 21985 H 2069.26 -1.71583 3.79296 0
M  V30 21986 H 2069.79 -0.0271476 3.97791 0
M  V30 21987 H 2066.53 1.90063 6.27341 0
M  V30 21988 H 2066.05 0.210939 5.99429 0
M  V30 21989 H 2067.73 0.601974 6.44194 0
M  V30 21990 N 2067.86 -1.56346 0.198413 0
M  V30 21991 C 2069.11 -1.97674 -0.43948 0
M  V30 21992 C 2069.44 -1.0854 -1.61398 0
M  V30 21993 O 2068.69 -0.125218 -1.95299 0
M  V30 21994 C 2068.99 -3.44852 -0.938713 0
M  V30 21995 C 2068.66 -4.50733 0.122773 0
M  V30 21996 C 2067.32 -4.79412 0.414434 0
M  V30 21997 C 2069.67 -5.14356 0.841848 0
M  V30 21998 C 2067 -5.69004 1.43009 0
M  V30 21999 C 2069.35 -6.05046 1.84667 0
M  V30 22000 C 2068.01 -6.3208 2.1455 0
M  V30 22001 H 2067.28 -0.723339 -0.160817 0
M  V30 22002 H 2069.93 -1.89197 0.296077 0
M  V30 22003 H 2068.24 -3.50415 -1.75261 0
M  V30 22004 H 2069.93 -3.74186 -1.44173 0
M  V30 22005 H 2066.52 -4.28446 -0.114715 0
M  V30 22006 H 2070.71 -4.92288 0.629749 0
M  V30 22007 H 2065.96 -5.88222 1.66749 0
M  V30 22008 H 2070.14 -6.53404 2.40907 0
M  V30 22009 H 2067.76 -7.01301 2.93395 0
M  V30 22010 N 2069.34 0.0751653 -1.57421 0
M  V30 22011 C 2070.59 0.773427 -1.86715 0
M  V30 22012 C 2070.91 1.78283 -0.789938 0
M  V30 22013 O 2070.18 1.95055 0.18176 0
M  V30 22014 H 2068.76 0.288632 -0.688985 0
M  V30 22015 H 2071.42 0.0520552 -1.9483 0
M  V30 22016 H 2070.52 1.29172 -2.84114 0
M  V30 22017 N 2070.82 1.53744 0.346476 0
M  V30 22018 C 2072.06 1.71103 1.08866 0
M  V30 22019 C 2072.4 0.47131 1.88394 0
M  V30 22020 O 2071.67 -0.531638 1.87093 0
M  V30 22021 C 2071.96 2.97273 2.03225 0
M  V30 22022 C 2071.81 4.31446 1.27179 0
M  V30 22023 C 2073.13 3.19105 3.03084 0
M  V30 22024 H 2070.25 0.622598 0.394387 0
M  V30 22025 H 2072.89 1.86412 0.367514 0
M  V30 22026 H 2071.04 2.84352 2.64719 0
M  V30 22027 H 2072.71 4.56212 0.683225 0
M  V30 22028 H 2070.95 4.29989 0.573773 0
M  V30 22029 H 2071.62 5.15901 1.96343 0
M  V30 22030 H 2074.1 3.31337 2.51704 0
M  V30 22031 H 2072.98 4.08786 3.66313 0
M  V30 22032 H 2073.24 2.35265 3.74303 0
M  V30 22033 N 2072.3 -0.607329 1.45428 0
M  V30 22034 C 2073.52 -1.39296 1.52984 0
M  V30 22035 C 2073.94 -1.88099 0.162539 0
M  V30 22036 O 2073.3 -1.62229 -0.835945 0
M  V30 22037 C 2073.35 -2.59727 2.51444 0
M  V30 22038 O 2073.07 -2.12952 3.82862 0
M  V30 22039 C 2074.57 -3.52583 2.68701 0
M  V30 22040 H 2071.79 -0.426391 0.518104 0
M  V30 22041 H 2074.33 -0.740646 1.90617 0
M  V30 22042 H 2072.49 -3.20999 2.16883 0
M  V30 22043 H 2072.9 -2.91201 4.36237 0
M  V30 22044 H 2074.38 -4.33629 3.4157 0
M  V30 22045 H 2074.85 -4.0294 1.74746 0
M  V30 22046 H 2075.46 -2.97163 3.0426 0
M  V30 22047 N 2073.77 -1.32722 -0.849853 0
M  V30 22048 C 2074.7 -1.24675 -1.97429 0
M  V30 22049 C 2075.69 -0.129581 -1.69606 0
M  V30 22050 O 2076.87 -0.317548 -1.91586 0
M  V30 22051 C 2074 -0.973971 -3.33363 0
M  V30 22052 C 2072.95 -2.05289 -3.75553 0
M  V30 22053 C 2072.28 -1.63244 -5.09171 0
M  V30 22054 C 2073.58 -3.46845 -3.90507 0
M  V30 22055 H 2075.27 -2.18753 -2.0442 0
M  V30 22056 H 2072.82 -1.0531 -0.982132 0
M  V30 22057 H 2074.77 -0.904206 -4.11585 0
M  V30 22058 H 2073.5 0.00243816 -3.266 0
M  V30 22059 H 2072.16 -2.11289 -2.99587 0
M  V30 22060 H 2071.8 -0.643348 -4.98869 0
M  V30 22061 H 2071.5 -2.35437 -5.38371 0
M  V30 22062 H 2073.03 -1.57713 -5.8988 0
M  V30 22063 H 2074.44 -3.43408 -4.59069 0
M  V30 22064 H 2072.84 -4.17429 -4.3113 0
M  V30 22065 H 2073.91 -3.86155 -2.93278 0
M  V30 22066 N 2075.25 1.06673 -1.16011 0
M  V30 22067 C 2076.67 1.31515 -0.90421 0
M  V30 22068 C 2076.87 1.96524 0.445021 0
M  V30 22069 O 2075.92 2.22945 1.18541 0
M  V30 22070 C 2077.24 2.19955 -2.05037 0
M  V30 22071 C 2078.79 2.33384 -2.08569 0
M  V30 22072 C 2079.26 3.25176 -3.22528 0
M  V30 22073 N 2080.75 3.32759 -3.2222 0
M  V30 22074 C 2081.49 4.03866 -4.07038 0
M  V30 22075 N 2080.98 4.77529 -5.01934 0
M  V30 22076 N 2082.78 3.99877 -3.95037 0
M  V30 22077 H 2074.93 0.628672 -2.02883 0
M  V30 22078 H 2077.19 0.339704 -0.885045 0
M  V30 22079 H 2076.9 1.79458 -3.02469 0
M  V30 22080 H 2076.77 3.20521 -1.98862 0
M  V30 22081 H 2079.16 2.7313 -1.11732 0
M  V30 22082 H 2079.24 1.32499 -2.1881 0
M  V30 22083 H 2078.88 2.86147 -4.19622 0
M  V30 22084 H 2078.81 4.26031 -3.09524 0
M  V30 22085 H 2081.3 2.80259 -2.53502 0
M  V30 22086 H 2081.62 5.29302 -5.6308 0
M  V30 22087 H 2079.96 4.76522 -5.05917 0
M  V30 22088 H 2083.15 3.41446 -3.20207 0
M  V30 22089 H 2083.32 4.55027 -4.61361 0
M  V30 22090 N 2076.73 0.957992 1.25141 0
M  V30 22091 C 2077.96 0.631888 1.97015 0
M  V30 22092 C 2078.37 -0.796708 1.71167 0
M  V30 22093 O 2077.73 -1.53335 0.989683 0
M  V30 22094 C 2077.78 0.885137 3.50496 0
M  V30 22095 O 2077.5 2.25756 3.75454 0
M  V30 22096 C 2079 0.571882 4.39596 0
M  V30 22097 H 2076.22 0.236606 0.6279 0
M  V30 22098 H 2078.77 1.28328 1.59224 0
M  V30 22099 H 2076.92 0.280102 3.86386 0
M  V30 22100 H 2077.34 2.33023 4.69894 0
M  V30 22101 H 2078.81 0.799598 5.46178 0
M  V30 22102 H 2079.29 -0.493643 4.36417 0
M  V30 22103 H 2079.89 1.15639 4.09277 0
M  V30 22104 N 2078.21 -1.39832 0.726957 0
M  V30 22105 C 2079.44 -2.0468 0.280975 0
M  V30 22106 C 2079.85 -1.54906 -1.08631 0
M  V30 22107 O 2079.19 -0.705568 -1.6961 0
M  V30 22108 C 2079.25 -3.58968 0.195552 0
M  V30 22109 C 2078.92 -4.31682 1.49998 0
M  V30 22110 C 2079.91 -4.58866 2.44413 0
M  V30 22111 C 2077.6 -4.7038 1.76206 0
M  V30 22112 C 2079.59 -5.23747 3.63274 0
M  V30 22113 C 2077.28 -5.3499 2.95346 0
M  V30 22114 C 2078.28 -5.61605 3.88702 0
M  V30 22115 O 2077.96 -6.24877 5.05751 0
M  V30 22116 H 2077.7 -0.664906 0.12197 0
M  V30 22117 H 2080.25 -1.80016 0.989104 0
M  V30 22118 H 2078.48 -3.82497 -0.568613 0
M  V30 22119 H 2080.17 -4.05318 -0.217367 0
M  V30 22120 H 2080.94 -4.29424 2.25434 0
M  V30 22121 H 2076.81 -4.49025 1.04389 0
M  V30 22122 H 2080.36 -5.44437 4.36158 0
M  V30 22123 H 2076.26 -5.63853 3.14229 0
M  V30 22124 H 2077.02 -6.43372 5.05979 0
M  V30 22125 N 2079.69 -0.473982 -1.50304 0
M  V30 22126 C 2080.6 0.323933 -2.32353 0
M  V30 22127 C 2081.61 0.993251 -1.42865 0
M  V30 22128 O 2082.79 0.980589 -1.75916 0
M  V30 22129 C 2079.85 1.38999 -3.17616 0
M  V30 22130 C 2078.91 0.736965 -4.22927 0
M  V30 22131 C 2078.15 1.75223 -5.04116 0
M  V30 22132 O 2078.37 2.97908 -4.86423 0
M  V30 22133 O 2077.3 1.32246 -5.87192 0
M  V30 22134 H 2081.13 -0.346913 -3.01712 0
M  V30 22135 H 2078.72 -0.235777 -1.47528 0
M  V30 22136 H 2080.6 2.00742 -3.70514 0
M  V30 22137 H 2079.27 2.04425 -2.50982 0
M  V30 22138 H 2078.18 0.0805047 -3.74013 0
M  V30 22139 H 2079.51 0.125602 -4.9204 0
M  V30 22140 N 2081.16 1.56239 -0.206702 0
M  V30 22141 C 2082.41 1.98197 0.429627 0
M  V30 22142 C 2082.74 1.09386 1.60463 0
M  V30 22143 O 2082.02 0.148321 1.93934 0
M  V30 22144 C 2082.3 3.49218 0.878562 0
M  V30 22145 C 2082.15 4.48805 -0.299054 0
M  V30 22146 C 2083.47 4.04243 1.74 0
M  V30 22147 H 2080.59 0.720583 0.154691 0
M  V30 22148 H 2083.23 1.87617 -0.299957 0
M  V30 22149 H 2081.38 3.58365 1.50023 0
M  V30 22150 H 2083.06 4.51684 -0.936956 0
M  V30 22151 H 2081.3 4.23294 -0.948945 0
M  V30 22152 H 2081.97 5.5197 0.0577652 0
M  V30 22153 H 2084.45 3.97948 1.2156 0
M  V30 22154 H 2083.32 5.10259 2.02305 0
M  V30 22155 H 2083.58 3.50212 2.69823 0
M  V30 22156 N 2082.64 -0.0668159 1.57458 0
M  V30 22157 C 2083.87 -0.777815 1.91723 0
M  V30 22158 C 2084.29 -1.70866 0.803128 0
M  V30 22159 O 2083.64 -1.8113 -0.223207 0
M  V30 22160 C 2083.69 -1.56722 3.25761 0
M  V30 22161 O 2083.41 -0.673779 4.32888 0
M  V30 22162 C 2084.92 -2.37877 3.74071 0
M  V30 22163 H 2082.14 -0.220863 0.633609 0
M  V30 22164 H 2084.68 -0.0355987 2.04469 0
M  V30 22165 H 2082.83 -2.26166 3.14527 0
M  V30 22166 H 2083.25 -1.22335 5.10034 0
M  V30 22167 H 2084.72 -2.88716 4.70476 0
M  V30 22168 H 2085.2 -3.17625 3.03334 0
M  V30 22169 H 2085.81 -1.73579 3.88266 0
M  V30 22170 N 2084.12 -1.53926 -0.338317 0
M  V30 22171 C 2085.07 -1.82986 -1.43592 0
M  V30 22172 C 2086.06 -0.700699 -1.54229 0
M  V30 22173 O 2087.27 -0.884124 -1.5679 0
M  V30 22174 H 2083.64 -0.579808 -0.47888 0
M  V30 22175 H 2085.62 -2.74804 -1.16299 0
M  V30 22176 C 2084.36 -2.06092 -2.80038 0
M  V30 22177 H 2083.69 -2.92433 -2.72622 0
M  V30 22178 H 2085.13 -2.30388 -3.55946 0
M  V30 22179 C 2083.59 -0.848002 -3.26053 0
M  V30 22180 O 2084.12 -0.0499866 -4.01669 0
M  V30 22181 N 2082.32 -0.663759 -2.82918 0
M  V30 22182 H 2081.87 -1.31433 -2.21547 0
M  V30 22183 H 2081.83 0.146319 -3.14059 0
M  V30 22184 N 2085.6 0.599608 -1.45748 0
M  V30 22185 C 2087.02 0.921212 -1.3033 0
M  V30 22186 C 2087.22 1.99787 -0.262213 0
M  V30 22187 O 2086.27 2.50186 0.34109 0
M  V30 22188 C 2087.58 1.35457 -2.68462 0
M  V30 22189 C 2089.13 1.46835 -2.76421 0
M  V30 22190 C 2089.61 1.93544 -4.15096 0
M  V30 22191 N 2091.1 2.00765 -4.1743 0
M  V30 22192 C 2091.83 2.38145 -5.21608 0
M  V30 22193 N 2091.33 2.74437 -6.36126 0
M  V30 22194 N 2093.12 2.38554 -5.08968 0
M  V30 22195 H 2085.27 -0.111892 -2.12105 0
M  V30 22196 H 2087.54 0.0126042 -0.947916 0
M  V30 22197 H 2087.24 0.63759 -3.45872 0
M  V30 22198 H 2087.12 2.31951 -2.97453 0
M  V30 22199 H 2089.5 2.17623 -1.99309 0
M  V30 22200 H 2089.58 0.486356 -2.51134 0
M  V30 22201 H 2089.23 1.2334 -4.92696 0
M  V30 22202 H 2089.16 2.92672 -4.3778 0
M  V30 22203 H 2091.65 1.75275 -3.34794 0
M  V30 22204 H 2091.96 3.01865 -7.11405 0
M  V30 22205 H 2090.31 2.72115 -6.39514 0
M  V30 22206 H 2093.5 2.09612 -4.18546 0
M  V30 22207 H 2093.67 2.67359 -5.90274 0
M  V30 22208 N 2087.08 1.33171 0.842803 0
M  V30 22209 C 2088.01 1.2572 1.96766 0
M  V30 22210 C 2088.99 0.138574 1.69535 0
M  V30 22211 O 2090.17 0.327704 1.91415 0
M  V30 22212 C 2087.3 0.991637 3.32842 0
M  V30 22213 C 2086.26 2.07278 3.74459 0
M  V30 22214 C 2085.58 1.65942 5.08299 0
M  V30 22215 C 2086.88 3.48911 3.88662 0
M  V30 22216 H 2088.58 2.19834 2.03257 0
M  V30 22217 H 2086.12 1.05829 0.976533 0
M  V30 22218 H 2088.08 0.926021 4.111 0
M  V30 22219 H 2086.8 0.0148823 3.26597 0
M  V30 22220 H 2085.46 2.12875 2.98462 0
M  V30 22221 H 2085.11 0.669795 4.98521 0
M  V30 22222 H 2084.81 2.38288 5.37115 0
M  V30 22223 H 2086.33 1.60839 5.89036 0
M  V30 22224 H 2087.75 3.45837 4.57241 0
M  V30 22225 H 2086.14 4.1971 4.2891 0
M  V30 22226 H 2087.21 3.87705 2.91226 0
M  V30 22227 N 2088.56 -1.06056 1.16576 0
M  V30 22228 C 2089.97 -1.31034 0.911171 0
M  V30 22229 C 2090.17 -1.96758 -0.434593 0
M  V30 22230 O 2089.23 -2.2357 -1.17357 0
M  V30 22231 C 2090.54 -2.18865 2.06201 0
M  V30 22232 C 2092.09 -2.32274 2.09804 0
M  V30 22233 C 2092.56 -3.23461 3.24248 0
M  V30 22234 N 2094.05 -3.31045 3.2398 0
M  V30 22235 C 2094.79 -4.01702 4.09174 0
M  V30 22236 N 2094.29 -4.7486 5.0446 0
M  V30 22237 N 2096.08 -3.97777 3.97153 0
M  V30 22238 H 2088.23 -0.617904 2.03213 0
M  V30 22239 H 2090.49 -0.335006 0.886834 0
M  V30 22240 H 2090.2 -1.77852 3.03417 0
M  V30 22241 H 2090.07 -3.19462 2.00559 0
M  V30 22242 H 2092.46 -2.72534 1.13179 0
M  V30 22243 H 2092.54 -1.31337 2.19509 0
M  V30 22244 H 2092.18 -2.83918 4.21133 0
M  V30 22245 H 2092.11 -4.24384 3.11779 0
M  V30 22246 H 2094.61 -2.78911 2.54984 0
M  V30 22247 H 2094.92 -5.26308 5.65879 0
M  V30 22248 H 2093.26 -4.73832 5.08437 0
M  V30 22249 H 2096.45 -3.39743 3.22013 0
M  V30 22250 H 2096.63 -4.52574 4.63768 0
M  V30 22251 N 2090.03 -0.964615 -1.24631 0
M  V30 22252 C 2091.26 -0.641907 -1.97216 0
M  V30 22253 C 2091.68 0.781279 -1.71107 0
M  V30 22254 O 2091.04 1.52981 -0.972952 0
M  V30 22255 C 2091.09 -0.918908 -3.48695 0
M  V30 22256 O 2090.19 -0.00276058 -4.124 0
M  V30 22257 H 2089.53 -0.243001 -0.617937 0
M  V30 22258 H 2092.06 -1.29393 -1.58489 0
M  V30 22259 H 2092.07 -0.849197 -3.99065 0
M  V30 22260 H 2090.75 -1.95612 -3.67027 0
M  V30 22261 H 2089.33 -0.125529 -3.72689 0
M  V30 22262 N 2091.51 1.39445 -0.734362 0
M  V30 22263 C 2092.42 2.34405 -0.0955161 0
M  V30 22264 C 2093.44 1.58285 0.722625 0
M  V30 22265 O 2094.61 1.9058 0.65124 0
M  V30 22266 C 2091.68 3.3731 0.801447 0
M  V30 22267 C 2090.74 4.2929 -0.0288733 0
M  V30 22268 C 2089.97 5.27279 0.825373 0
M  V30 22269 O 2090.2 5.31743 2.06411 0
M  V30 22270 O 2089.13 6.01362 0.254373 0
M  V30 22271 H 2092.96 2.90693 -0.879273 0
M  V30 22272 H 2090.54 1.4096 -0.495025 0
M  V30 22273 H 2092.42 4.00368 1.31468 0
M  V30 22274 H 2091.1 2.83408 1.56403 0
M  V30 22275 H 2090 3.69456 -0.587608 0
M  V30 22276 H 2091.34 4.86396 -0.753661 0
M  V30 22277 N 2092.99 0.481946 1.5005 0
M  V30 22278 C 2094.21 -0.0688814 2.07286 0
M  V30 22279 C 2094.64 -1.3178 1.34222 0
M  V30 22280 O 2094 -1.76986 0.393135 0
M  V30 22281 C 2094.05 -0.324885 3.59133 0
M  V30 22282 O 2093.15 -1.40333 3.87789 0
M  V30 22283 H 2092.49 0.0177812 0.663762 0
M  V30 22284 H 2095.02 0.676104 1.93106 0
M  V30 22285 H 2095.03 -0.562135 4.04109 0
M  V30 22286 H 2093.71 0.587698 4.11727 0
M  V30 22287 H 2092.28 -1.15253 3.54642 0
M  V30 22288 N 2094.47 -1.56127 0.214985 0
M  V30 22289 C 2095.72 -1.97304 -0.41881 0
M  V30 22290 C 2096.03 -1.10547 -1.61366 0
M  V30 22291 O 2097.24 -1.41593 -2.31654 0
M  V30 22292 C 2095.69 -3.50975 -0.796509 0
M  V30 22293 C 2095.3 -4.46426 0.375156 0
M  V30 22294 C 2097.04 -4.0088 -1.39627 0
M  V30 22295 C 2094.95 -5.91395 -0.0246118 0
M  V30 22296 H 2093.88 -0.736775 -0.160246 0
M  V30 22297 H 2096.53 -1.8086 0.310157 0
M  V30 22298 H 2094.91 -3.62996 -1.58271 0
M  V30 22299 H 2096.09 -4.46149 1.15271 0
M  V30 22300 H 2094.4 -4.06827 0.887721 0
M  V30 22301 H 2097 -5.06681 -1.70816 0
M  V30 22302 H 2097.34 -3.46346 -2.30977 0
M  V30 22303 H 2097.88 -3.92055 -0.673641 0
M  V30 22304 H 2094.61 -6.49897 0.855201 0
M  V30 22305 H 2094.13 -5.94881 -0.766611 0
M  V30 22306 H 2095.81 -6.45408 -0.453573 0
M  V30 22307 N 2095.95 0.0584645 -1.57492 0
M  V30 22308 C 2096.91 1.05251 -2.03605 0
M  V30 22309 C 2097.91 1.30807 -0.935209 0
M  V30 22310 O 2099.1 1.26304 -1.19971 0
M  V30 22311 C 2096.23 2.39288 -2.42804 0
M  V30 22312 H 2097.42 0.654779 -2.92665 0
M  V30 22313 H 2094.98 0.304552 -1.53304 0
M  V30 22314 H 2095.71 2.83868 -1.56811 0
M  V30 22315 H 2095.5 2.22077 -3.23147 0
M  V30 22316 H 2096.99 3.10713 -2.79011 0
M  V30 22317 N 2097.42 1.54103 0.330149 0
M  V30 22318 C 2098.67 1.71993 1.06886 0
M  V30 22319 C 2099 0.490142 1.88223 0
M  V30 22320 O 2098.25 -0.528125 1.88439 0
M  V30 22321 C 2098.55 2.94358 2.02702 0
M  V30 22322 C 2098.22 4.294 1.37572 0
M  V30 22323 C 2096.88 4.66116 1.1954 0
M  V30 22324 C 2099.23 5.13235 0.907703 0
M  V30 22325 C 2096.56 5.8427 0.533447 0
M  V30 22326 C 2098.91 6.32067 0.259603 0
M  V30 22327 C 2097.58 6.67466 0.0670758 0
M  V30 22328 H 2096.85 0.629366 0.391125 0
M  V30 22329 H 2099.49 1.88335 0.346701 0
M  V30 22330 H 2097.8 2.72675 2.81346 0
M  V30 22331 H 2099.5 3.05394 2.59877 0
M  V30 22332 H 2096.09 4.00511 1.52608 0
M  V30 22333 H 2100.27 4.85392 1.03482 0
M  V30 22334 H 2095.53 6.10261 0.373022 0
M  V30 22335 H 2099.7 6.96311 -0.111078 0
M  V30 22336 H 2097.33 7.58879 -0.447886 0
M  V30 22337 N 2098.9 -0.59187 1.46064 0
M  V30 22338 C 2100.15 -1.34657 1.50168 0
M  V30 22339 C 2100.46 -1.94993 0.153981 0
M  V30 22340 O 2101.67 -2.71402 0.0727633 0
M  V30 22341 C 2100.13 -2.44 2.6456 0
M  V30 22342 C 2099.73 -1.90007 4.05711 0
M  V30 22343 C 2101.48 -3.2087 2.77926 0
M  V30 22344 C 2099.39 -2.96925 5.11458 0
M  V30 22345 H 2098.32 -0.506178 0.558838 0
M  V30 22346 H 2100.97 -0.632651 1.72249 0
M  V30 22347 H 2099.35 -3.18149 2.35791 0
M  V30 22348 H 2100.52 -1.22462 4.44229 0
M  V30 22349 H 2098.84 -1.25833 3.96932 0
M  V30 22350 H 2101.43 -4.00647 3.54099 0
M  V30 22351 H 2101.78 -3.72878 1.85115 0
M  V30 22352 H 2102.31 -2.53825 3.06296 0
M  V30 22353 H 2099.05 -2.49815 6.0603 0
M  V30 22354 H 2098.57 -3.62987 4.77494 0
M  V30 22355 H 2100.25 -3.61036 5.369 0
M  V30 22356 N 2100.38 -1.33616 -0.835729 0
M  V30 22357 C 2101.29 -1.26175 -1.9778 0
M  V30 22358 C 2102.31 -0.171736 -1.7315 0
M  V30 22359 O 2103.48 -0.395895 -1.97471 0
M  V30 22360 C 2100.55 -1.00421 -3.31838 0
M  V30 22361 C 2099.61 -2.18454 -3.69563 0
M  V30 22362 C 2098.84 -1.93919 -4.97223 0
M  V30 22363 O 2099.06 -0.891065 -5.63397 0
M  V30 22364 O 2098 -2.80536 -5.32525 0
M  V30 22365 H 2101.82 -2.22227 -2.07 0
M  V30 22366 H 2099.41 -1.13694 -0.969228 0
M  V30 22367 H 2101.29 -0.877873 -4.12155 0
M  V30 22368 H 2099.97 -0.0739914 -3.23615 0
M  V30 22369 H 2098.87 -2.36642 -2.89743 0
M  V30 22370 H 2100.21 -3.09821 -3.82455 0
M  V30 22371 N 2101.86 1.05436 -1.17136 0
M  V30 22372 C 2102.77 2.16633 -0.900413 0
M  V30 22373 C 2103.78 1.7351 0.130523 0
M  V30 22374 O 2104.96 2.01342 -0.0481629 0
M  V30 22375 C 2102.03 3.4421 -0.414754 0
M  V30 22376 C 2101.09 4.01793 -1.51198 0
M  V30 22377 C 2100.32 5.23281 -1.0494 0
M  V30 22378 O 2100.54 5.70317 0.0974405 0
M  V30 22379 O 2099.48 5.73041 -1.8414 0
M  V30 22380 H 2103.3 2.42336 -1.83049 0
M  V30 22381 H 2100.89 1.15137 -0.952042 0
M  V30 22382 H 2102.77 4.21128 -0.151319 0
M  V30 22383 H 2101.44 3.20013 0.487199 0
M  V30 22384 H 2100.35 3.26326 -1.82926 0
M  V30 22385 H 2101.68 4.30304 -2.38955 0
M  V30 22386 N 2103.34 0.971211 1.24118 0
M  V30 22387 C 2104.56 0.652357 1.96873 0
M  V30 22388 C 2104.99 -0.772193 1.71519 0
M  V30 22389 O 2104.34 -1.52463 0.981051 0
M  V30 22390 C 2104.39 0.937388 3.48203 0
M  V30 22391 O 2103.5 0.0246311 4.12393 0
M  V30 22392 H 2102.84 0.246274 0.61664 0
M  V30 22393 H 2105.37 1.30231 1.578 0
M  V30 22394 H 2105.38 0.870349 3.98609 0
M  V30 22395 H 2104.05 1.97556 3.65984 0
M  V30 22396 H 2102.63 0.145292 3.72617 0
M  V30 22397 N 2104.81 -1.39054 0.741747 0
M  V30 22398 C 2105.76 -2.30556 0.106197 0
M  V30 22399 C 2106.73 -1.49566 -0.722434 0
M  V30 22400 O 2107.92 -1.78233 -0.681008 0
M  V30 22401 C 2105.06 -3.35936 -0.790013 0
M  V30 22402 C 2104.17 -4.31969 0.051964 0
M  V30 22403 C 2103.3 -5.24418 -0.846146 0
M  V30 22404 C 2102.34 -6.121 0.000177444 0
M  V30 22405 N 2101.48 -6.96884 -0.854237 0
M  V30 22406 H 2106.32 -2.84333 0.892113 0
M  V30 22407 H 2103.86 -1.39997 0.451583 0
M  V30 22408 H 2105.82 -3.95629 -1.32413 0
M  V30 22409 H 2104.45 -2.83597 -1.54183 0
M  V30 22410 H 2103.5 -3.73837 0.70358 0
M  V30 22411 H 2104.81 -4.93777 0.706061 0
M  V30 22412 H 2103.96 -5.8917 -1.44786 0
M  V30 22413 H 2102.7 -4.62947 -1.53401 0
M  V30 22414 H 2101.71 -5.46353 0.614648 0
M  V30 22415 H 2102.93 -6.75637 0.684921 0
M  V30 22416 H 2100.88 -6.37974 -1.52727 0
M  V30 22417 H 2100.8 -7.55564 -0.256771 0
M  V30 22418 H 2102.06 -7.66059 -1.4413 0
M  V30 22419 N 2106.29 -0.489897 -1.49792 0
M  V30 22420 C 2107.24 0.294423 -2.28914 0
M  V30 22421 C 2108.21 0.970384 -1.34806 0
M  V30 22422 O 2109.39 0.979195 -1.63757 0
M  V30 22423 C 2106.53 1.35949 -3.17194 0
M  V30 22424 C 2105.65 0.696419 -4.2635 0
M  V30 22425 C 2104.78 1.74098 -5.0186 0
M  V30 22426 C 2103.82 1.05917 -6.02866 0
M  V30 22427 N 2102.96 2.04743 -6.71584 0
M  V30 22428 H 2107.8 -0.386562 -2.95482 0
M  V30 22429 H 2105.34 -0.202479 -1.457 0
M  V30 22430 H 2107.29 1.98886 -3.66743 0
M  V30 22431 H 2105.92 2.00938 -2.52633 0
M  V30 22432 H 2104.98 -0.0459714 -3.80372 0
M  V30 22433 H 2106.29 0.159163 -4.98546 0
M  V30 22434 H 2105.44 2.44568 -5.55222 0
M  V30 22435 H 2104.18 2.31207 -4.29412 0
M  V30 22436 H 2103.19 0.340189 -5.48747 0
M  V30 22437 H 2104.41 0.494725 -6.77296 0
M  V30 22438 H 2102.36 2.60835 -6.01915 0
M  V30 22439 H 2102.27 1.56053 -7.39718 0
M  V30 22440 H 2103.54 2.74536 -7.29555 0
M  V30 22441 N 2107.77 1.56011 -0.223262 0
M  V30 22442 C 2109.05 1.90185 0.457074 0
M  V30 22443 C 2109.43 1.14083 1.77618 0
M  V30 22444 O 2108.78 0.250703 2.27121 0
M  V30 22445 C 2108.99 3.42925 0.648347 0
M  V30 22446 C 2110.33 4.13721 0.955 0
M  V30 22447 O 2111.36 3.48533 0.735072 0
M  V30 22448 O 2110.22 5.28985 1.37248 0
M  V30 22449 H 2107.31 0.790827 0.241912 0
M  V30 22450 H 2109.86 1.67609 -0.265573 0
M  V30 22451 H 2108.63 3.90282 -0.282045 0
M  V30 22452 H 2108.25 3.71286 1.42242 0
M  V30 22453 N 2109.25 -0.0501116 1.5752 0
M  V30 22454 C 2110.48 -0.757437 1.92537 0
M  V30 22455 C 2110.89 -1.70005 0.821205 0
M  V30 22456 O 2110.25 -1.81356 -0.203983 0
M  V30 22457 C 2110.3 -1.53258 3.27405 0
M  V30 22458 O 2110.02 -0.627828 4.33578 0
M  V30 22459 C 2111.52 -2.33896 3.76573 0
M  V30 22460 H 2108.74 -0.21413 0.635916 0
M  V30 22461 H 2111.29 -0.01391 2.04495 0
M  V30 22462 H 2109.44 -2.22818 3.16909 0
M  V30 22463 H 2109.85 -1.16918 5.11303 0
M  V30 22464 H 2111.33 -2.83709 4.73511 0
M  V30 22465 H 2111.81 -3.14389 3.06685 0
M  V30 22466 H 2112.41 -1.69451 3.90085 0
M  V30 22467 N 2110.73 -1.54276 -0.321972 0
M  V30 22468 C 2112 -1.63209 -1.07806 0
M  V30 22469 C 2112.38 -0.466965 -2.0587 0
M  V30 22470 O 2111.73 0.538598 -2.22062 0
M  V30 22471 C 2111.94 -3.00279 -1.77858 0
M  V30 22472 C 2113.29 -3.5638 -2.30822 0
M  V30 22473 O 2114.31 -3.02594 -1.87923 0
M  V30 22474 O 2113.17 -4.50507 -3.09364 0
M  V30 22475 H 2110.27 -0.660982 -0.497023 0
M  V30 22476 H 2112.81 -1.66622 -0.321736 0
M  V30 22477 H 2111.58 -3.76518 -1.06537 0
M  V30 22478 H 2111.21 -3.00552 -2.60297 0
M  V30 22479 N 2112.2 0.584116 -1.46376 0
M  V30 22480 C 2113.11 1.72116 -1.59415 0
M  V30 22481 C 2114.13 1.67314 -0.477692 0
M  V30 22482 O 2115.31 1.87248 -0.74162 0
M  V30 22483 C 2112.37 3.08617 -1.57975 0
M  V30 22484 C 2111.43 3.24694 -2.80842 0
M  V30 22485 C 2110.67 4.54683 -2.79462 0
M  V30 22486 O 2110.89 5.38484 -1.88126 0
M  V30 22487 O 2109.82 4.73977 -3.70985 0
M  V30 22488 H 2113.65 1.64062 -2.55572 0
M  V30 22489 H 2111.23 0.750995 -1.29153 0
M  V30 22490 H 2113.12 3.899 -1.59863 0
M  V30 22491 H 2111.79 3.17111 -0.649775 0
M  V30 22492 H 2110.7 2.4291 -2.84509 0
M  V30 22493 H 2112.03 3.2109 -3.73044 0
M  V30 22494 N 2113.68 1.34058 0.828631 0
M  V30 22495 C 2114.93 1.2628 1.58686 0
M  V30 22496 C 2115.26 -0.168425 1.93468 0
M  V30 22497 O 2114.54 -1.11237 1.59551 0
M  V30 22498 C 2114.82 2.14808 2.89015 0
M  V30 22499 C 2114.67 3.66439 2.60849 0
M  V30 22500 C 2115.99 2.02902 3.90536 0
M  V30 22501 H 2113.11 0.460068 0.575766 0
M  V30 22502 H 2115.75 1.64256 0.954988 0
M  V30 22503 H 2113.9 1.82551 3.42939 0
M  V30 22504 H 2115.58 4.09036 2.13278 0
M  V30 22505 H 2113.82 3.87811 1.94384 0
M  V30 22506 H 2114.49 4.23742 3.53761 0
M  V30 22507 H 2116.97 2.31212 3.45948 0
M  V30 22508 H 2115.84 2.6708 4.79541 0
M  V30 22509 H 2116.1 1.00429 4.30542 0
M  V30 22510 N 2115.16 -1.04814 1.17694 0
M  V30 22511 C 2116.41 -1.77883 0.967671 0
M  V30 22512 C 2116.74 -1.87874 -0.503367 0
M  V30 22513 O 2115.99 -1.37773 -1.38986 0
M  V30 22514 C 2116.29 -3.2163 1.55849 0
M  V30 22515 C 2115.96 -3.3169 3.05439 0
M  V30 22516 C 2114.62 -3.34142 3.46269 0
M  V30 22517 C 2116.97 -3.32397 4.0145 0
M  V30 22518 C 2114.3 -3.34935 4.81701 0
M  V30 22519 C 2116.65 -3.34729 5.36786 0
M  V30 22520 C 2115.31 -3.3547 5.77076 0
M  V30 22521 H 2114.58 -0.65092 0.354096 0
M  V30 22522 H 2117.23 -1.23159 1.46643 0
M  V30 22523 H 2115.54 -3.79306 0.981546 0
M  V30 22524 H 2117.23 -3.76796 1.37208 0
M  V30 22525 H 2113.82 -3.30496 2.72892 0
M  V30 22526 H 2118.01 -3.29699 3.70961 0
M  V30 22527 H 2113.26 -3.33822 5.12224 0
M  V30 22528 H 2117.44 -3.34224 6.10956 0
M  V30 22529 H 2115.06 -3.35838 6.81995 0
M  V30 22530 N 2116.64 -0.977779 -1.23601 0
M  V30 22531 C 2117.86 -0.662789 -1.96524 0
M  V30 22532 C 2118.29 0.763086 -1.71926 0
M  V30 22533 O 2117.65 1.51941 -0.989123 0
M  V30 22534 C 2117.7 -0.95584 -3.47701 0
M  V30 22535 O 2116.8 -0.046501 -4.12374 0
M  V30 22536 H 2116.14 -0.249541 -0.615325 0
M  V30 22537 H 2118.67 -1.31066 -1.57108 0
M  V30 22538 H 2118.68 -0.891475 -3.98142 0
M  V30 22539 H 2117.36 -1.99494 -3.64932 0
M  V30 22540 H 2115.93 -0.165051 -3.72535 0
M  V30 22541 N 2118.12 1.38658 -0.749111 0
M  V30 22542 C 2119.34 2.0503 -0.312666 0
M  V30 22543 C 2119.77 1.56125 1.04912 0
M  V30 22544 O 2119.13 0.711236 1.66767 0
M  V30 22545 C 2119.17 3.58997 -0.339658 0
M  V30 22546 O 2118.28 4.06956 0.667887 0
M  V30 22547 H 2117.62 0.649228 -0.139282 0
M  V30 22548 H 2120.15 1.7742 -1.01898 0
M  V30 22549 H 2120.16 4.07562 -0.188968 0
M  V30 22550 H 2118.83 3.93951 -1.33325 0
M  V30 22551 H 2117.41 3.69769 0.482177 0
M  V30 22552 O 2119.63 0.639498 1.48299 0
M  V30 22553 H 2120.33 0.160835 1.93031 0
M  V30 END ATOM
M  V30 BEGIN BOND
M  V30 END BOND
M  V30 END CTAB
M  END
$$$$
