drugbank_target|P00813 Adenosine deaminase (DB00552; DB00975; DB02096; DB02472; DB02616; DB02830; DB03015; DB03220; DB03370; DB03572; DB04218; DB04440; DB07711; DB07783; DB07785; DB07786)
 OpenBabel12092120073D

  0  0  0     0  0            999 V3000
M  V30 BEGIN CTAB
M  V30 COUNTS 5709 5774 0 0 0
M  V30 BEGIN ATOM
M  V30 1 H -0.908 1.98254 -0.117106 0
M  V30 2 N 0 1.576 0 0
M  V30 3 C 0.933 2.03868 1.02534 0
M  V30 4 C 1.911 0.928543 1.3348 0
M  V30 5 O 3.095 1.19667 1.45644 0
M  V30 6 C 0.222 2.43627 2.35294 0
M  V30 7 C -0.732 3.65373 2.2001 0
M  V30 8 S 0.101 5.13292 1.52614 0
M  V30 9 C 1.257 5.56322 2.86805 0
M  V30 10 H 1.49 2.90518 0.631377 0
M  V30 11 H -0.977 1.52953 0.210867 0
M  V30 12 H 0.981 2.67203 3.11629 0
M  V30 13 H -0.358 1.57376 2.7183 0
M  V30 14 H -1.165 3.90944 3.18086 0
M  V30 15 H -1.563 3.418 1.51819 0
M  V30 16 H 0.729 5.58782 3.83104 0
M  V30 17 H 1.672 6.56266 2.65933 0
M  V30 18 H 2.08 4.83886 2.90714 0
M  V30 19 N 1.4781 -0.272755 1.55222 0
M  V30 20 C 2.4411 -1.32041 1.87344 0
M  V30 21 C 3.4411 -1.42342 0.74803 0
M  V30 22 O 4.6311 -1.41488 1.0162 0
M  V30 23 C 1.7631 -2.70173 2.07893 0
M  V30 24 H 2.9561 -1.04789 2.80997 0
M  V30 25 H 0.5091 -0.51083 1.47717 0
M  V30 26 H 1.2441 -3.02605 1.16622 0
M  V30 27 H 1.0291 -2.64082 2.89833 0
M  V30 28 H 2.5191 -3.45869 2.34017 0
M  V30 29 N 2.9562 -1.48159 -0.537278 0
M  V30 30 C 3.8882 -1.58218 -1.65831 0
M  V30 31 C 4.9012 -0.466948 -1.5596 0
M  V30 32 O 6.0902 -0.73747 -1.62553 0
M  V30 33 C 3.1902 -1.48906 -3.04434 0
M  V30 34 C 2.3632 -2.75343 -3.3986 0
M  V30 35 C 1.4222 -2.59588 -4.57712 0
M  V30 36 O 0.4482 -3.33457 -4.61297 0
M  V30 37 N 1.6502 -1.68724 -5.55439 0
M  V30 38 H 4.4152 -2.54891 -1.57641 0
M  V30 39 H 1.9762 -1.4479 -0.724386 0
M  V30 40 H 3.9682 -1.36072 -3.81139 0
M  V30 41 H 2.5382 -0.602368 -3.06741 0
M  V30 42 H 1.7582 -3.02795 -2.52406 0
M  V30 43 H 3.0462 -3.5924 -3.60311 0
M  V30 44 H 2.4442 -1.07898 -5.55315 0
M  V30 45 H 1.0012 -1.61832 -6.3139 0
M  V30 46 N 4.4343 0.785586 -1.36625 0
M  V30 47 C 5.6623 1.57448 -1.3423 0
M  V30 48 C 6.0773 1.88649 0.0755653 0
M  V30 49 O 5.4343 1.50414 1.03354 0
M  V30 50 C 5.4853 2.89316 -2.16745 0
M  V30 51 O 5.2063 2.59459 -3.53005 0
M  V30 52 C 6.7073 3.83606 -2.22174 0
M  V30 53 H 3.9273 0.488226 -0.4603 0
M  V30 54 H 6.4713 0.974733 -1.79775 0
M  V30 55 H 4.6263 3.4575 -1.74745 0
M  V30 56 H 5.0403 3.43804 -3.96105 0
M  V30 57 H 6.5143 4.73181 -2.8426 0
M  V30 58 H 6.9913 4.21734 -1.22627 0
M  V30 59 H 7.5973 3.33104 -2.64427 0
M  V30 60 N 5.9124 1.20967 1.01018 0
M  V30 61 C 7.3234 1.02319 1.56165 0
M  V30 62 C 7.6744 -0.418546 1.91684 0
M  V30 63 O 6.7994 -1.30096 1.72928 0
M  V30 64 C 7.3944 1.85109 2.8376 0
M  V30 65 C 5.9534 1.70809 3.35412 0
M  V30 66 C 5.1004 1.82643 2.08655 0
M  V30 67 H 8.0514 1.35065 0.833255 0
M  V30 68 H 8.0724 1.35827 3.55431 0
M  V30 69 H 7.5844 2.90035 2.57878 0
M  V30 70 H 5.6854 0.685464 3.66241 0
M  V30 71 H 5.7984 2.52467 4.07182 0
M  V30 72 H 4.1624 1.25896 2.21409 0
M  V30 73 H 4.9454 2.89066 1.85191 0
M  V30 74 N 7.3905 -1.2043 1.01659 0
M  V30 75 C 8.3535 -2.21433 0.591616 0
M  V30 76 C 9.3535 -1.57203 -0.338226 0
M  V30 77 O 10.5435 -1.73737 -0.126918 0
M  V30 78 C 7.6755 -3.40628 -0.136058 0
M  V30 79 H 8.8685 -2.60545 1.48514 0
M  V30 80 H 6.4215 -1.33893 0.806379 0
M  V30 81 H 7.1565 -3.07019 -1.04449 0
M  V30 82 H 6.9415 -3.88475 0.531917 0
M  V30 83 H 8.4315 -4.15475 -0.420735 0
M  V30 84 N 8.8686 -0.792821 -1.36206 0
M  V30 85 C 10.1156 -0.366786 -1.99151 0
M  V30 86 C 10.4436 1.06243 -1.62919 0
M  V30 87 O 9.6986 1.74927 -0.877442 0
M  V30 88 C 9.9976 -0.481501 -3.54142 0
M  V30 89 C 9.6636 -1.87202 -4.10203 0
M  V30 90 C 8.3256 -2.25248 -4.25226 0
M  V30 91 C 10.6776 -2.78237 -4.40719 0
M  V30 92 C 8.0056 -3.53723 -4.68078 0
M  V30 93 C 10.3576 -4.06144 -4.85005 0
M  V30 94 C 9.0216 -4.44207 -4.98234 0
M  V30 95 H 8.2916 -0.134217 -0.728743 0
M  V30 96 H 10.9386 -1.01094 -1.62641 0
M  V30 97 H 9.2436 0.246146 -3.91026 0
M  V30 98 H 10.9406 -0.132844 -4.0078 0
M  V30 99 H 7.5306 -1.56639 -3.98951 0
M  V30 100 H 11.7146 -2.50097 -4.28679 0
M  V30 101 H 6.9706 -3.8308 -4.76508 0
M  V30 102 H 11.1446 -4.76796 -5.07581 0
M  V30 103 H 8.7716 -5.43814 -5.31197 0
M  V30 104 N 10.3467 1.47872 -0.545128 0
M  V30 105 C 11.6237 1.9554 0.0485222 0
M  V30 106 C 12.0037 1.4876 1.49779 0
M  V30 107 O 11.3517 0.720925 2.16829 0
M  V30 108 C 11.5617 3.48898 -0.084417 0
M  V30 109 C 12.9097 4.24547 0.0671239 0
M  V30 110 O 13.9337 3.56198 -0.0113649 0
M  V30 111 O 12.7927 5.45999 0.233882 0
M  V30 112 H 9.8867 0.823957 0.0708773 0
M  V30 113 H 12.4327 1.58327 -0.610798 0
M  V30 114 H 11.2047 3.75714 -1.09337 0
M  V30 115 H 10.8277 3.92845 0.613066 0
M  V30 116 N 11.8248 0.280983 1.55075 0
M  V30 117 C 12.7718 -0.603937 2.22758 0
M  V30 118 C 13.7418 -1.1452 1.20309 0
M  V30 119 O 14.9268 -1.19343 1.48869 0
M  V30 120 C 12.0668 -1.77947 2.95684 0
M  V30 121 C 11.1798 -1.2715 4.12864 0
M  V30 122 C 10.3148 -2.4093 4.7342 0
M  V30 123 C 9.3538 -1.87165 5.82783 0
M  V30 124 N 8.4908 -2.94441 6.37377 0
M  V30 125 H 13.3308 -0.020124 2.97993 0
M  V30 126 H 10.8678 0.00183425 1.471 0
M  V30 127 H 12.8258 -2.47055 3.36184 0
M  V30 128 H 11.4558 -2.33522 2.22861 0
M  V30 129 H 10.5078 -0.473331 3.77444 0
M  V30 130 H 11.8198 -0.837751 4.91715 0
M  V30 131 H 10.9738 -3.18021 5.1667 0
M  V30 132 H 9.7128 -2.87623 3.93859 0
M  V30 133 H 8.7178 -1.08556 5.38976 0
M  V30 134 H 9.9428 -1.41401 6.64216 0
M  V30 135 H 7.8888 -3.40505 5.60707 0
M  V30 136 H 7.8058 -2.55501 7.11516 0
M  V30 137 H 9.0738 -3.71489 6.85285 0
M  V30 138 N 13.3029 -1.57598 0.00835791 0
M  V30 139 C 14.7139 -1.7892 -0.53333 0
M  V30 140 C 15.0649 -0.916609 -1.73473 0
M  V30 141 O 14.1899 -0.121336 -2.1606 0
M  V30 142 C 14.7849 -3.24488 -0.974313 0
M  V30 143 C 13.3439 -3.46878 -1.46125 0
M  V30 144 C 12.4909 -2.74157 -0.416302 0
M  V30 145 H 15.4419 -1.56958 0.234495 0
M  V30 146 H 15.4629 -3.3306 -1.83988 0
M  V30 147 H 14.9749 -3.87972 -0.099718 0
M  V30 148 H 13.0759 -2.8862 -2.35646 0
M  V30 149 H 13.1889 -4.55572 -1.48295 0
M  V30 150 H 11.5529 -2.39022 -0.87981 0
M  V30 151 H 12.3359 -3.40345 0.44947 0
M  V30 152 N 14.781 0.264519 -1.55364 0
M  V30 153 C 15.728 1.32717 -1.88825 0
M  V30 154 C 16.698 1.48675 -0.740605 0
M  V30 155 O 17.883 1.62945 -0.992657 0
M  V30 156 C 15.023 2.68089 -2.17307 0
M  V30 157 C 14.136 2.60284 -3.44785 0
M  V30 158 C 13.271 3.87892 -3.62924 0
M  V30 159 C 12.31 3.74631 -4.84064 0
M  V30 160 N 11.447 4.94092 -4.98816 0
M  V30 161 H 16.287 1.03481 -2.79456 0
M  V30 162 H 13.824 0.499757 -1.3835 0
M  V30 163 H 15.782 3.46864 -2.31821 0
M  V30 164 H 14.412 2.95509 -1.299 0
M  V30 165 H 13.464 1.73173 -3.38697 0
M  V30 166 H 14.776 2.46388 -4.33698 0
M  V30 167 H 13.93 4.75109 -3.77302 0
M  V30 168 H 12.669 4.04664 -2.7221 0
M  V30 169 H 11.674 2.85797 -4.69681 0
M  V30 170 H 12.899 3.5937 -5.76221 0
M  V30 171 H 10.845 5.11259 -4.11036 0
M  V30 172 H 10.762 4.8276 -5.81789 0
M  V30 173 H 12.03 5.82857 -5.17588 0
M  V30 174 N 16.2591 1.48442 0.529413 0
M  V30 175 C 17.5051 1.5672 1.28711 0
M  V30 176 C 17.8381 0.2406 1.92704 0
M  V30 177 O 17.1131 -0.753454 1.79313 0
M  V30 178 C 17.3961 2.70587 2.37603 0
M  V30 179 C 17.2491 4.12953 1.78297 0
M  V30 180 C 18.5681 2.80212 3.39366 0
M  V30 181 H 15.6871 0.570474 0.466613 0
M  V30 182 H 18.3291 1.80617 0.589706 0
M  V30 183 H 16.4791 2.50342 2.97088 0
M  V30 184 H 18.1511 4.44639 1.22858 0
M  V30 185 H 16.3941 4.19927 1.0883 0
M  V30 186 H 17.0651 4.88448 2.57144 0
M  V30 187 H 19.5411 2.98553 2.89836 0
M  V30 188 H 18.4171 3.61611 4.12951 0
M  V30 189 H 18.6781 1.88393 3.99951 0
M  V30 190 N 17.7372 -0.778329 1.37039 0
M  V30 191 C 18.6472 -1.92253 1.34446 0
M  V30 192 C 19.6632 -1.72267 0.244991 0
M  V30 193 O 20.8392 -1.95615 0.479258 0
M  V30 194 C 17.9042 -3.27282 1.144 0
M  V30 195 C 16.9652 -3.59969 2.33925 0
M  V30 196 C 16.1982 -4.88555 2.14825 0
M  V30 197 O 16.4212 -5.59113 1.12912 0
M  V30 198 O 15.3552 -5.20153 3.02861 0
M  V30 199 H 19.1812 -1.97392 2.30803 0
M  V30 200 H 16.7662 -0.920154 1.17701 0
M  V30 201 H 18.6482 -4.08062 1.05182 0
M  V30 202 H 17.3232 -3.23011 0.211124 0
M  V30 203 H 16.2302 -2.7945 2.48714 0
M  V30 204 H 17.5632 -3.68976 3.25757 0
M  V30 205 N 19.2153 -1.21501 -1.00376 0
M  V30 206 C 20.1453 -0.999478 -2.11028 0
M  V30 207 C 21.1263 0.0759671 -1.6993 0
M  V30 208 O 22.3113 -0.0841106 -1.94018 0
M  V30 209 C 19.4413 -0.564709 -3.42678 0
M  V30 210 C 18.3953 -1.58486 -3.97576 0
M  V30 211 C 17.7213 -1.00628 -5.25146 0
M  V30 212 C 19.0213 -2.97204 -4.29496 0
M  V30 213 H 20.7153 -1.92495 -2.29317 0
M  V30 214 H 18.2613 -0.92693 -1.102 0
M  V30 215 H 20.2143 -0.401091 -4.19487 0
M  V30 216 H 18.9383 0.396411 -3.24185 0
M  V30 217 H 17.5973 -1.73606 -3.22888 0
M  V30 218 H 17.2453 -0.0368439 -5.02987 0
M  V30 219 H 16.9453 -1.68771 -5.62841 0
M  V30 220 H 18.4693 -0.854015 -6.04598 0
M  V30 221 H 19.8833 -2.8552 -4.97143 0
M  V30 222 H 18.2803 -3.62372 -4.78338 0
M  V30 223 H 19.3503 -3.47956 -3.3772 0
M  V30 224 N 20.6934 1.19889 -1.02296 0
M  V30 225 C 21.6434 2.20777 -0.56934 0
M  V30 226 C 22.6274 1.56379 0.378741 0
M  V30 227 O 23.8194 1.75859 0.200673 0
M  V30 228 C 20.9484 3.43196 0.0845077 0
M  V30 229 C 20.0344 4.14749 -0.88566 0
M  V30 230 N 20.4254 4.62584 -2.04573 0
M  V30 231 C 18.7234 4.40347 -0.707835 0
M  V30 232 C 19.4244 5.17466 -2.65714 0
M  V30 233 N 18.4004 5.0791 -1.93723 0
M  V30 234 H 22.2024 2.55434 -1.45365 0
M  V30 235 H 19.7164 1.35897 -0.88915 0
M  V30 236 H 21.7134 4.14707 0.427067 0
M  V30 237 H 20.3734 3.10042 0.964574 0
M  V30 238 H 21.3844 4.57597 -2.4254 0
M  V30 239 H 18.0614 4.17317 0.12364 0
M  V30 240 H 19.4514 5.64808 -3.63925 0
M  V30 241 N 22.1715 0.800033 1.35784 0
M  V30 242 C 23.4175 0.377901 1.99248 0
M  V30 243 C 23.7505 -1.05052 1.63333 0
M  V30 244 O 23.0255 -1.72768 0.893385 0
M  V30 245 C 23.3085 0.553922 3.55814 0
M  V30 246 C 23.1615 2.0268 4.01548 0
M  V30 247 C 24.4805 -0.0244802 4.40093 0
M  V30 248 H 21.5995 0.138782 0.723815 0
M  V30 249 H 24.2415 1.00835 1.61035 0
M  V30 250 H 22.3915 0.0172398 3.88496 0
M  V30 251 H 24.0635 2.62536 3.79305 0
M  V30 252 H 22.3065 2.5256 3.52698 0
M  V30 253 H 22.9775 2.10087 5.10458 0
M  V30 254 H 25.4535 0.433775 4.13833 0
M  V30 255 H 24.3295 0.128637 5.48749 0
M  V30 256 H 24.5905 -1.11758 4.27741 0
M  V30 257 N 23.6496 -1.47581 0.552962 0
M  V30 258 C 24.5996 -2.26961 -0.217423 0
M  V30 259 C 25.5836 -1.34099 -0.889168 0
M  V30 260 O 26.7756 -1.58483 -0.788176 0
M  V30 261 C 23.9046 -3.19756 -1.24944 0
M  V30 262 C 22.9906 -4.20097 -0.581327 0
M  V30 263 N 23.3816 -5.04614 0.346171 0
M  V30 264 C 21.6796 -4.38099 -0.835767 0
M  V30 265 C 22.3806 -5.77052 0.733854 0
M  V30 266 N 21.3566 -5.43526 0.0896567 0
M  V30 267 H 25.1586 -2.89688 0.495761 0
M  V30 268 H 22.6726 -1.58068 0.372597 0
M  V30 269 H 24.6696 -3.75305 -1.81527 0
M  V30 270 H 23.3296 -2.58585 -1.96376 0
M  V30 271 H 24.3406 -5.12869 0.720098 0
M  V30 272 H 21.0176 -3.88102 -1.53892 0
M  V30 273 H 22.4076 -6.5504 1.49574 0
M  V30 274 N 25.1277 -0.289203 -1.54924 0
M  V30 275 C 26.0577 0.58549 -2.2604 0
M  V30 276 C 27.0387 1.14753 -1.25562 0
M  V30 277 O 28.2237 1.17906 -1.54311 0
M  V30 278 C 25.3537 1.76305 -2.99222 0
M  V30 279 C 24.3077 1.33191 -4.06748 0
M  V30 280 C 23.6337 2.5937 -4.6758 0
M  V30 281 C 24.9337 0.471775 -5.20165 0
M  V30 282 H 26.6277 -0.00763532 -2.99399 0
M  V30 283 H 24.1737 -0.00511229 -1.43999 0
M  V30 284 H 26.1267 2.38097 -3.47689 0
M  V30 285 H 24.8507 2.38223 -2.23422 0
M  V30 286 H 23.5097 0.737121 -3.59113 0
M  V30 287 H 23.1577 3.19576 -3.88433 0
M  V30 288 H 22.8577 2.31228 -5.40192 0
M  V30 289 H 24.3817 3.21985 -5.18804 0
M  V30 290 H 25.7957 0.995056 -5.64599 0
M  V30 291 H 24.1927 0.284639 -5.99425 0
M  V30 292 H 25.2627 -0.506041 -4.82252 0
M  V30 293 N 26.6058 1.57591 -0.0167156 0
M  V30 294 C 27.8828 1.82547 0.702564 0
M  V30 295 C 28.2628 0.898018 1.91047 0
M  V30 296 O 27.6108 -0.0493456 2.28447 0
M  V30 297 C 27.8208 3.31459 1.09251 0
M  V30 298 C 29.1688 3.97622 1.48937 0
M  V30 299 O 30.1928 3.35881 1.18584 0
M  V30 300 O 29.0518 5.06415 2.05442 0
M  V30 301 H 26.1458 0.752268 0.343544 0
M  V30 302 H 28.6918 1.69644 -0.0434495 0
M  V30 303 H 27.4638 3.9061 0.23227 0
M  V30 304 H 27.0868 3.49422 1.89709 0
M  V30 305 N 28.0839 -0.256276 1.55502 0
M  V30 306 C 29.3319 -0.983672 1.76545 0
M  V30 307 C 29.6529 -1.86206 0.578982 0
M  V30 308 O 28.9229 -1.91656 -0.405577 0
M  V30 309 H 27.5029 -0.366191 0.651086 0
M  V30 310 H 30.1649 -0.276479 1.92929 0
M  V30 311 H 29.2609 -1.61087 2.67315 0
M  V30 312 N 29.562 -1.4872 -0.521534 0
M  V30 313 C 30.787 -1.61101 -1.30618 0
M  V30 314 C 31.212 -0.274611 -1.86085 0
M  V30 315 O 30.57 0.754937 -1.64834 0
M  V30 316 C 30.618 -2.66709 -2.4269 0
M  V30 317 O 29.722 -2.24456 -3.45967 0
M  V30 318 H 29.063 -0.539921 -0.386499 0
M  V30 319 H 31.593 -1.94767 -0.626645 0
M  V30 320 H 31.603 -2.88245 -2.88754 0
M  V30 321 H 30.278 -3.63727 -2.01682 0
M  V30 322 H 28.855 -2.13168 -3.05964 0
M  V30 323 N 31.0401 0.771051 -1.3745 0
M  V30 324 C 32.2891 1.52491 -1.3202 0
M  V30 325 C 32.6021 1.9538 0.0927347 0
M  V30 326 O 33.8081 2.70159 0.269503 0
M  V30 327 C 32.2641 2.75366 -2.31736 0
M  V30 328 C 31.8721 2.39573 -3.78562 0
M  V30 329 C 33.6161 3.53307 -2.35318 0
M  V30 330 C 31.5231 3.58954 -4.70007 0
M  V30 331 H 30.4531 0.572506 -0.490666 0
M  V30 332 H 33.1041 0.844474 -1.62914 0
M  V30 333 H 31.4861 3.45303 -1.93861 0
M  V30 334 H 32.6601 1.77415 -4.25277 0
M  V30 335 H 30.9751 1.74805 -3.77932 0
M  V30 336 H 33.5721 4.42039 -3.00842 0
M  V30 337 H 33.9151 3.93217 -1.36698 0
M  V30 338 H 34.4481 2.90367 -2.71904 0
M  V30 339 H 31.1871 3.24125 -5.69757 0
M  V30 340 H 30.7071 4.20214 -4.27996 0
M  V30 341 H 32.3861 4.25758 -4.87175 0
M  V30 342 N 32.5182 1.22032 0.997298 0
M  V30 343 C 33.4652 0.986467 2.08656 0
M  V30 344 C 34.4352 -0.0902671 1.65855 0
M  V30 345 O 35.6202 0.0584294 1.90711 0
M  V30 346 C 32.7602 0.565569 3.40434 0
M  V30 347 C 31.8732 1.71259 3.96604 0
M  V30 348 C 31.0082 1.24011 5.16522 0
M  V30 349 C 30.0472 2.35896 5.64818 0
M  V30 350 N 29.1842 1.89726 6.7598 0
M  V30 351 H 34.0242 1.91892 2.27994 0
M  V30 352 H 31.5612 0.956199 1.11782 0
M  V30 353 H 33.5192 0.302738 4.161 0
M  V30 354 H 32.1492 -0.329879 3.2111 0
M  V30 355 H 31.2012 2.08986 3.17851 0
M  V30 356 H 32.5132 2.55436 4.28432 0
M  V30 357 H 31.6672 0.934395 5.99461 0
M  V30 358 H 30.4062 0.368487 4.86306 0
M  V30 359 H 29.4112 2.67261 4.8047 0
M  V30 360 H 30.6362 3.23567 5.97061 0
M  V30 361 H 28.5822 1.0492 6.47555 0
M  V30 362 H 28.4992 2.67471 7.07103 0
M  V30 363 H 29.7672 1.62211 7.62435 0
M  V30 364 N 33.9963 -1.19345 1.0293 0
M  V30 365 C 35.4073 -1.70725 0.755633 0
M  V30 366 C 35.7583 -1.82326 -0.724676 0
M  V30 367 O 34.8833 -1.49471 -1.56484 0
M  V30 368 C 35.4783 -3.10084 1.36503 0
M  V30 369 C 34.0373 -3.58723 1.13994 0
M  V30 370 C 33.1843 -2.35577 1.46283 0
M  V30 371 H 36.1353 -1.0418 1.19718 0
M  V30 372 H 36.1563 -3.72787 0.762217 0
M  V30 373 H 35.6683 -3.01609 2.44241 0
M  V30 374 H 33.7693 -3.72512 0.0807901 0
M  V30 375 H 33.8823 -4.42816 1.82894 0
M  V30 376 H 32.2463 -2.38935 0.88217 0
M  V30 377 H 33.0293 -2.29731 2.55105 0
M  V30 378 N 35.4744 -0.807222 -1.35358 0
M  V30 379 C 36.3844 -0.219594 -2.3357 0
M  V30 380 C 37.4004 0.637734 -1.61892 0
M  V30 381 O 38.5764 0.549336 -1.93763 0
M  V30 382 C 35.6414 0.62158 -3.41083 0
M  V30 383 C 34.7024 -0.256315 -4.28534 0
M  V30 384 C 33.9354 0.544807 -5.30912 0
M  V30 385 O 34.1584 1.77944 -5.41934 0
M  V30 386 O 33.0924 -0.0646478 -6.01865 0
M  V30 387 H 36.9184 -1.03208 -2.85625 0
M  V30 388 H 34.5034 -0.569025 -1.38139 0
M  V30 389 H 36.3854 1.10067 -4.06772 0
M  V30 390 H 35.0604 1.41165 -2.91297 0
M  V30 391 H 33.9674 -0.782559 -3.65823 0
M  V30 392 H 35.3004 -1.01034 -4.81719 0
M  V30 393 N 36.9525 1.47285 -0.560781 0
M  V30 394 C 38.1805 2.06855 -0.0430262 0
M  V30 395 C 38.5955 1.41291 1.25229 0
M  V30 396 O 37.9525 0.510648 1.7521 0
M  V30 397 C 38.0035 3.61178 0.152518 0
M  V30 398 O 37.7245 4.24285 -1.0915 0
M  V30 399 C 39.2255 4.37624 0.707145 0
M  V30 400 H 36.4455 0.669319 -0.0474652 0
M  V30 401 H 38.9895 1.89237 -0.77521 0
M  V30 402 H 37.1445 3.78298 0.834843 0
M  V30 403 H 37.5585 5.16868 -0.891482 0
M  V30 404 H 39.0325 5.46271 0.793244 0
M  V30 405 H 39.5095 4.04152 1.71923 0
M  V30 406 H 40.1155 4.25257 0.0604027 0
M  V30 407 N 38.4306 0.297415 1.54768 0
M  V30 408 C 39.6796 -0.313669 1.99246 0
M  V30 409 C 39.9926 -1.55281 1.18942 0
M  V30 410 O 41.1986 -2.23825 1.5367 0
M  V30 411 C 39.6546 -0.609407 3.54703 0
M  V30 412 C 39.2626 0.611192 4.43811 0
M  V30 413 C 41.0066 -1.18188 4.07715 0
M  V30 414 C 38.9136 0.288805 5.90694 0
M  V30 415 H 37.8436 -0.120979 0.744231 0
M  V30 416 H 40.4946 0.40556 1.78962 0
M  V30 417 H 38.8766 -1.38813 3.70873 0
M  V30 418 H 40.0506 1.3875 4.39414 0
M  V30 419 H 38.3656 1.10205 4.01552 0
M  V30 420 H 40.9626 -1.43727 5.15021 0
M  V30 421 H 41.3056 -2.12299 3.58099 0
M  V30 422 H 41.8386 -0.464944 3.95074 0
M  V30 423 H 38.5776 1.19838 6.44453 0
M  V30 424 H 38.0976 -0.450305 5.98107 0
M  V30 425 H 39.7766 -0.110933 6.46905 0
M  V30 426 N 39.9087 -1.5758 0.0250728 0
M  V30 427 C 40.8387 -2.13007 -0.956575 0
M  V30 428 C 41.8197 -1.0452 -1.342 0
M  V30 429 O 43.0047 -1.32332 -1.42133 0
M  V30 430 C 40.1347 -2.65386 -2.24026 0
M  V30 431 C 39.0887 -3.78623 -1.99571 0
M  V30 432 C 38.4147 -4.17414 -3.3417 0
M  V30 433 C 39.7147 -5.04867 -1.33814 0
M  V30 434 H 41.4087 -2.9528 -0.494991 0
M  V30 435 H 38.9547 -1.42042 -0.236651 0
M  V30 436 H 40.9077 -3.02794 -2.93076 0
M  V30 437 H 39.6317 -1.80268 -2.72343 0
M  V30 438 H 38.2907 -3.41646 -1.32941 0
M  V30 439 H 37.9387 -3.29284 -3.80238 0
M  V30 440 H 37.6387 -4.93719 -3.18615 0
M  V30 441 H 39.1627 -4.57402 -4.04495 0
M  V30 442 H 40.5767 -5.39888 -1.92857 0
M  V30 443 H 38.9737 -5.86144 -1.28669 0
M  V30 444 H 40.0437 -4.83904 -0.310561 0
M  V30 445 N 41.3868 0.248026 -1.55636 0
M  V30 446 C 42.6168 0.992367 -1.81206 0
M  V30 447 C 43.0248 1.7949 -0.598324 0
M  V30 448 O 42.3678 1.78292 0.442434 0
M  V30 449 C 42.4298 1.97926 -3.00109 0
M  V30 450 C 42.0938 1.36377 -4.36177 0
M  V30 451 C 43.0908 0.76682 -5.14214 0
M  V30 452 C 40.7758 1.38347 -4.82872 0
M  V30 453 C 42.7698 0.197778 -6.37093 0
M  V30 454 C 40.4568 0.810574 -6.057 0
M  V30 455 C 41.4548 0.218754 -6.8265 0
M  V30 456 O 41.1428 -0.345298 -8.03158 0
M  V30 457 H 40.8748 0.297704 -0.606917 0
M  V30 458 H 43.4288 0.276517 -2.0353 0
M  V30 459 H 41.6588 2.73339 -2.73538 0
M  V30 460 H 43.3478 2.58694 -3.12781 0
M  V30 461 H 44.1138 0.744114 -4.79258 0
M  V30 462 H 39.9928 1.8335 -4.2297 0
M  V30 463 H 43.5368 -0.264788 -6.97097 0
M  V30 464 H 39.4338 0.830604 -6.40134 0
M  V30 465 H 40.2018 -0.237055 -8.18157 0
M  V30 466 N 42.8649 1.48995 0.513639 0
M  V30 467 C 44.0949 1.61297 1.291 0
M  V30 468 C 44.5029 0.278656 1.87137 0
M  V30 469 O 43.8459 -0.744325 1.67945 0
M  V30 470 C 43.9079 2.61326 2.46879 0
M  V30 471 C 43.5719 4.05993 2.09807 0
M  V30 472 C 44.5689 4.93183 1.64519 0
M  V30 473 C 42.2539 4.51642 2.19829 0
M  V30 474 C 44.2479 6.24056 1.2974 0
M  V30 475 C 41.9349 5.82532 1.84662 0
M  V30 476 C 42.9329 6.68562 1.3969 0
M  V30 477 O 42.6209 7.97014 1.04992 0
M  V30 478 H 42.3529 0.546236 0.39825 0
M  V30 479 H 44.9069 1.95673 0.62459 0
M  V30 480 H 43.1369 2.22104 3.16554 0
M  V30 481 H 44.8259 2.6329 3.08923 0
M  V30 482 H 45.5919 4.59147 1.56233 0
M  V30 483 H 41.4709 3.84855 2.53786 0
M  V30 484 H 45.0149 6.91161 0.945659 0
M  V30 485 H 40.9119 6.16099 1.92594 0
M  V30 486 H 41.6799 8.09913 1.18249 0
M  V30 487 N 44.343 -0.763751 1.37857 0
M  V30 488 C 45.591 -1.51957 1.33243 0
M  V30 489 C 45.912 -1.94835 -0.0801709 0
M  V30 490 O 45.182 -1.66894 -1.02582 0
M  V30 491 H 43.762 -0.563626 0.49024 0
M  V30 492 H 46.424 -0.908504 1.7243 0
M  V30 493 H 45.52 -2.41523 1.97669 0
M  V30 494 N 45.8211 -1.22559 -0.990812 0
M  V30 495 C 47.2371 -0.985996 -1.255 0
M  V30 496 C 47.4371 0.319173 -1.98956 0
M  V30 497 O 46.4931 1.04127 -2.3003 0
M  V30 498 C 47.8061 -2.18607 -2.06474 0
M  V30 499 C 49.3541 -2.22985 -2.19651 0
M  V30 500 C 49.8291 -3.4255 -3.04012 0
M  V30 501 N 51.3201 -3.42725 -3.11599 0
M  V30 502 C 52.0551 -4.31892 -3.7717 0
M  V30 503 N 51.5511 -5.31279 -4.44651 0
M  V30 504 N 53.3441 -4.19662 -3.73952 0
M  V30 505 H 45.4951 -2.06469 -0.49841 0
M  V30 506 H 47.7581 -0.904853 -0.282747 0
M  V30 507 H 47.4641 -3.13267 -1.59865 0
M  V30 508 H 47.3381 -2.18838 -3.07229 0
M  V30 509 H 49.7251 -1.28871 -2.65474 0
M  V30 510 H 49.8061 -2.26791 -1.18319 0
M  V30 511 H 49.4501 -4.36965 -2.58889 0
M  V30 512 H 49.3801 -3.35984 -4.0549 0
M  V30 513 H 51.8711 -2.70807 -2.63575 0
M  V30 514 H 52.1841 -5.95593 -4.92431 0
M  V30 515 H 50.5291 -5.3519 -4.43392 0
M  V30 516 H 53.7201 -3.41268 -3.20396 0
M  V30 517 H 53.8931 -4.89358 -4.24774 0
M  V30 518 N 47.2992 1.18797 -1.03562 0
M  V30 519 C 48.7152 1.40671 -0.753917 0
M  V30 520 C 48.9152 1.9043 0.658686 0
M  V30 521 O 47.9712 2.08538 1.42366 0
M  V30 522 C 49.2842 2.41192 -1.79574 0
M  V30 523 C 50.8322 2.54928 -1.81606 0
M  V30 524 C 51.3072 3.58709 -2.84766 0
M  V30 525 N 52.7982 3.66212 -2.83625 0
M  V30 526 C 53.5332 4.46225 -3.60098 0
M  V30 527 N 53.0292 5.29888 -4.46308 0
M  V30 528 N 54.8222 4.40939 -3.4861 0
M  V30 529 H 46.9732 0.848221 -1.94728 0
M  V30 530 H 49.2362 0.435081 -0.842264 0
M  V30 531 H 48.9422 2.11669 -2.80872 0
M  V30 532 H 48.8162 3.40467 -1.62365 0
M  V30 533 H 51.2032 2.83771 -0.809817 0
M  V30 534 H 51.2842 1.55784 -2.02891 0
M  V30 535 H 50.9282 3.30607 -3.85566 0
M  V30 536 H 50.8582 4.57519 -2.60737 0
M  V30 537 H 53.3492 3.06466 -2.21105 0
M  V30 538 H 53.6622 5.88078 -5.01382 0
M  V30 539 H 52.0072 5.29326 -4.50377 0
M  V30 540 H 55.1982 3.74624 -2.80668 0
M  V30 541 H 55.3712 5.03056 -4.08459 0
M  V30 542 N 48.7773 0.814389 1.34928 0
M  V30 543 C 50.1933 0.499084 1.51596 0
M  V30 544 C 50.3933 -0.978319 1.76157 0
M  V30 545 O 49.4493 -1.76309 1.80752 0
M  V30 546 C 50.7623 1.35121 2.68631 0
M  V30 547 C 52.3103 1.34746 2.82511 0
M  V30 548 C 52.7853 2.18388 4.0258 0
M  V30 549 N 54.2763 2.15966 4.09772 0
M  V30 550 C 55.0113 2.77437 5.01813 0
M  V30 551 N 54.5073 3.47866 5.99134 0
M  V30 552 N 56.3003 2.67037 4.94619 0
M  V30 553 H 48.4513 1.7711 1.17243 0
M  V30 554 H 50.7143 0.754256 0.574284 0
M  V30 555 H 50.4203 2.40001 2.57085 0
M  V30 556 H 50.2943 1.00991 3.63429 0
M  V30 557 H 52.6813 0.30648 2.93504 0
M  V30 558 H 52.7623 1.72869 1.88547 0
M  V30 559 H 52.4063 3.2253 3.92347 0
M  V30 560 H 52.3363 1.77621 4.9574 0
M  V30 561 H 54.8273 1.64729 3.40107 0
M  V30 562 H 55.1403 3.92038 6.65977 0
M  V30 563 H 53.4853 3.51972 5.99284 0
M  V30 564 H 56.6763 2.11597 4.17546 0
M  V30 565 H 56.8493 3.15232 5.66156 0
M  V30 566 N 50.2554 -1.46986 0.568584 0
M  V30 567 C 51.5034 -2.02041 0.0487022 0
M  V30 568 C 51.8244 -1.44408 -1.31039 0
M  V30 569 O 51.0944 -0.623477 -1.85714 0
M  V30 570 H 49.6744 -0.746849 0.015014 0
M  V30 571 H 52.3364 -1.80257 0.741168 0
M  V30 572 H 51.4324 -3.12085 -0.0308961 0
M  V30 573 N 51.7335 -0.305618 -1.54608 0
M  V30 574 C 52.9825 0.303098 -1.9941 0
M  V30 575 C 53.2955 1.54648 -1.19764 0
M  V30 576 O 54.5015 2.23007 -1.54855 0
M  V30 577 C 52.9575 0.590588 -3.55021 0
M  V30 578 C 52.5655 -0.634719 -4.43481 0
M  V30 579 C 54.3095 1.16025 -4.08336 0
M  V30 580 C 52.2165 -0.320126 -5.90533 0
M  V30 581 H 51.1465 0.117031 -0.744862 0
M  V30 582 H 53.7975 -0.415045 -1.78745 0
M  V30 583 H 52.1795 1.36845 -3.71604 0
M  V30 584 H 53.3535 -1.41079 -4.38672 0
M  V30 585 H 51.6685 -1.12333 -4.00962 0
M  V30 586 H 54.2655 1.40994 -5.15776 0
M  V30 587 H 54.6085 2.10397 -3.5922 0
M  V30 588 H 55.1415 0.443985 -3.95315 0
M  V30 589 H 51.8805 -1.23254 -6.43808 0
M  V30 590 H 51.4005 0.418579 -5.98338 0
M  V30 591 H 53.0795 0.0766241 -6.46955 0
M  V30 592 N 53.2116 1.57565 -0.0334293 0
M  V30 593 C 54.1746 2.09393 0.932048 0
M  V30 594 C 55.1746 1.00986 1.25134 0
M  V30 595 O 56.3646 1.27129 1.19096 0
M  V30 596 C 53.4966 2.56338 2.2473 0
M  V30 597 H 54.6896 2.95984 0.483085 0
M  V30 598 H 52.2426 1.54819 0.21468 0
M  V30 599 H 52.9776 1.7309 2.74245 0
M  V30 600 H 52.7626 3.35542 2.02865 0
M  V30 601 H 54.2526 2.96646 2.93923 0
M  V30 602 N 54.6897 -0.239769 1.55765 0
M  V30 603 C 55.6197 -1.30052 1.9393 0
M  V30 604 C 56.6007 -1.49839 0.805132 0
M  V30 605 O 57.7857 -1.62328 1.06599 0
M  V30 606 C 54.9157 -2.65391 2.2402 0
M  V30 607 C 53.8697 -2.60289 3.39755 0
M  V30 608 C 53.1957 -3.99489 3.55405 0
M  V30 609 C 54.4957 -2.16654 4.75246 0
M  V30 610 H 56.1897 -0.983573 2.82783 0
M  V30 611 H 53.7357 -0.471701 1.36055 0
M  V30 612 H 55.6887 -3.3974 2.49308 0
M  V30 613 H 54.4127 -2.98736 1.32 0
M  V30 614 H 53.0717 -1.88398 3.14487 0
M  V30 615 H 52.7197 -4.30112 2.60793 0
M  V30 616 H 52.4197 -3.96962 4.33238 0
M  V30 617 H 53.9437 -4.75528 3.83022 0
M  V30 618 H 55.3577 -2.80737 4.99859 0
M  V30 619 H 53.7547 -2.25223 5.56232 0
M  V30 620 H 54.8247 -1.11835 4.71827 0
M  V30 621 N 56.1678 -1.49265 -0.50573 0
M  V30 622 C 57.5788 -1.51769 -1.08734 0
M  V30 623 C 57.9298 -0.301192 -1.93874 0
M  V30 624 O 57.0548 0.589456 -2.08217 0
M  V30 625 C 57.6498 -2.75017 -1.97867 0
M  V30 626 C 56.2088 -2.80314 -2.51199 0
M  V30 627 C 55.3558 -2.4562 -1.28709 0
M  V30 628 H 58.3068 -1.56031 -0.289855 0
M  V30 629 H 58.3278 -2.5491 -2.82491 0
M  V30 630 H 57.8398 -3.63539 -1.35873 0
M  V30 631 H 55.9408 -1.96061 -3.16845 0
M  V30 632 H 56.0538 -3.82366 -2.88675 0
M  V30 633 H 54.4178 -1.97297 -1.61078 0
M  V30 634 H 55.2008 -3.36411 -0.6843 0
M  V30 635 N 57.6459 0.756429 -1.3826 0
M  V30 636 C 58.6089 1.85176 -1.35065 0
M  V30 637 C 59.6089 1.58818 -0.251703 0
M  V30 638 O 60.7989 1.66615 -0.508433 0
M  V30 639 C 57.9309 3.22596 -1.10201 0
M  V30 640 H 59.1239 1.89417 -2.3251 0
M  V30 641 H 56.6769 0.95783 -1.23512 0
M  V30 642 H 57.4119 3.24025 -0.133504 0
M  V30 643 H 57.1969 3.43122 -1.89762 0
M  V30 644 H 58.6869 4.02673 -1.10654 0
M  V30 645 N 59.124 1.23083 0.984299 0
M  V30 646 C 60.072 1.00593 2.09723 0
M  V30 647 C 61.066 -0.0538014 1.69315 0
M  V30 648 O 62.272 0.0993719 1.79725 0
M  V30 649 H 58.647 0.30817 0.685956 0
M  V30 650 H 60.618 1.95012 2.2586 0
M  V30 651 C 59.367 0.609601 3.42314 0
M  V30 652 H 58.69 1.41675 3.73856 0
M  V30 653 H 60.13 0.491726 4.21139 0
M  V30 654 C 58.589 -0.681745 3.2993 0
M  V30 655 O 59.119 -1.73192 3.62446 0
M  V30 656 N 57.325 -0.656178 2.83095 0
M  V30 657 H 56.872 0.198759 2.56832 0
M  V30 658 H 56.83 -1.52044 2.75191 0
M  V30 659 N 60.6021 -1.18246 1.0419 0
M  V30 660 C 61.8301 -1.92195 0.766072 0
M  V30 661 C 62.2451 -1.76247 -0.676933 0
M  V30 662 O 61.6021 -1.09293 -1.46155 0
M  V30 663 C 61.6531 -3.43568 1.12442 0
M  V30 664 O 61.3741 -3.59015 2.51078 0
M  V30 665 C 62.8751 -4.34613 0.873275 0
M  V30 666 H 60.0951 -0.610114 0.279288 0
M  V30 667 H 62.6391 -1.50007 1.38989 0
M  V30 668 H 60.7941 -3.8354 0.545542 0
M  V30 669 H 61.2081 -4.5273 2.64831 0
M  V30 670 H 62.6821 -5.39374 1.17385 0
M  V30 671 H 63.1591 -4.38781 -0.191909 0
M  V30 672 H 63.7651 -4.00341 1.43551 0
M  V30 673 N 62.0802 -0.821533 -1.34494 0
M  V30 674 C 63.0432 -0.247847 -2.27856 0
M  V30 675 C 64.0432 0.573453 -1.50227 0
M  V30 676 O 65.2332 0.389759 -1.69784 0
M  V30 677 C 62.3652 0.652698 -3.34593 0
M  V30 678 H 63.5582 -1.07146 -2.80107 0
M  V30 679 H 61.1112 -0.593291 -1.44602 0
M  V30 680 H 61.8462 1.49943 -2.87555 0
M  V30 681 H 61.6312 0.065292 -3.92046 0
M  V30 682 H 63.1212 1.04793 -4.04238 0
M  V30 683 N 63.5583 1.46682 -0.576371 0
M  V30 684 C 64.4683 2.34032 0.163141 0
M  V30 685 C 65.4843 1.49367 0.892501 0
M  V30 686 O 66.6603 1.82252 0.857106 0
M  V30 687 C 63.7253 3.26435 1.16795 0
M  V30 688 C 62.7863 4.26998 0.443944 0
M  V30 689 C 62.0193 5.14986 1.40088 0
M  V30 690 O 62.2423 5.05785 2.637 0
M  V30 691 O 61.1763 5.94906 0.914917 0
M  V30 692 H 65.0023 2.98607 -0.55388 0
M  V30 693 H 62.5873 1.45554 -0.336821 0
M  V30 694 H 64.4693 3.83459 1.74748 0
M  V30 695 H 63.1443 2.64465 1.86655 0
M  V30 696 H 62.0513 3.7368 -0.177271 0
M  V30 697 H 63.3843 4.91736 -0.213566 0
M  V30 698 N 65.0364 0.313813 1.54444 0
M  V30 699 C 66.2844 -0.291099 1.99993 0
M  V30 700 C 66.6054 -1.53418 1.20366 0
M  V30 701 O 65.8754 -1.93544 0.302927 0
M  V30 702 H 64.4554 -0.110552 0.738774 0
M  V30 703 H 67.1174 0.428106 1.9014 0
M  V30 704 H 66.2134 -0.554268 3.07139 0
M  V30 705 N 66.5145 -1.57545 0.0417849 0
M  V30 706 C 67.4445 -2.14009 -0.933929 0
M  V30 707 C 68.4255 -1.05938 -1.33083 0
M  V30 708 O 69.6105 -1.33833 -1.40721 0
M  V30 709 C 66.7405 -2.67747 -2.21199 0
M  V30 710 C 65.6945 -3.80718 -1.95544 0
M  V30 711 C 65.0205 -4.20935 -3.29724 0
M  V30 712 C 66.3205 -5.06258 -1.28452 0
M  V30 713 H 68.0145 -2.95788 -0.463645 0
M  V30 714 H 65.5605 -1.42285 -0.221573 0
M  V30 715 H 67.5135 -3.05886 -2.89848 0
M  V30 716 H 66.2375 -1.83147 -2.70416 0
M  V30 717 H 64.8965 -3.43037 -1.2931 0
M  V30 718 H 64.5445 -3.33298 -3.76724 0
M  V30 719 H 64.2445 -4.9707 -3.13361 0
M  V30 720 H 65.7685 -4.61666 -3.9962 0
M  V30 721 H 67.1825 -5.41903 -1.8712 0
M  V30 722 H 65.5795 -5.87475 -1.22445 0
M  V30 723 H 66.6495 -4.84207 -0.259219 0
M  V30 724 N 67.9926 0.231505 -1.5589 0
M  V30 725 C 68.9226 1.29022 -1.94617 0
M  V30 726 C 69.9036 1.4941 -0.813067 0
M  V30 727 O 71.0886 1.6176 -1.07459 0
M  V30 728 C 68.2186 2.64199 -2.25424 0
M  V30 729 C 67.1726 2.58484 -3.41131 0
M  V30 730 C 66.4986 3.97599 -3.57518 0
M  V30 731 C 67.7986 2.1413 -4.76388 0
M  V30 732 H 69.4926 0.968563 -2.83301 0
M  V30 733 H 67.0386 0.464479 -1.36303 0
M  V30 734 H 68.9916 3.38413 -2.51107 0
M  V30 735 H 67.7156 2.98032 -1.33583 0
M  V30 736 H 66.3746 1.86727 -3.15481 0
M  V30 737 H 66.0226 4.28723 -2.6307 0
M  V30 738 H 65.7226 3.94659 -4.35337 0
M  V30 739 H 67.2466 4.7349 -3.85538 0
M  V30 740 H 68.6606 2.78083 -5.01341 0
M  V30 741 H 67.0576 2.2227 -5.57419 0
M  V30 742 H 68.1276 1.09331 -4.72414 0
M  V30 743 N 69.4707 1.49531 0.497807 0
M  V30 744 C 70.4187 1.66926 1.61983 0
M  V30 745 C 71.4127 0.535167 1.60724 0
M  V30 746 O 72.6187 0.714896 1.65195 0
M  V30 747 H 68.9937 0.526415 0.537021 0
M  V30 748 H 70.9647 2.61098 1.44465 0
M  V30 749 C 69.7137 1.75602 3.00099 0
M  V30 750 H 69.0367 2.62244 3.01775 0
M  V30 751 H 70.4767 1.91807 3.78135 0
M  V30 752 C 68.9357 0.501543 3.33146 0
M  V30 753 O 69.4657 -0.371342 3.9998 0
M  V30 754 N 67.6717 0.363531 2.88317 0
M  V30 755 H 67.2187 1.07485 2.34104 0
M  V30 756 H 67.1767 -0.474728 3.10795 0
M  V30 757 N 70.9488 -0.749086 1.3866 0
M  V30 758 C 72.1948 -1.51056 1.35314 0
M  V30 759 C 72.5278 -1.94121 -0.0553751 0
M  V30 760 O 71.8028 -1.65763 -1.01749 0
M  V30 761 C 72.0858 -2.76003 2.31288 0
M  V30 762 C 71.9388 -2.39047 3.8102 0
M  V30 763 C 73.2578 -3.78046 2.2532 0
M  V30 764 H 70.3768 -0.547972 0.492844 0
M  V30 765 H 73.0188 -0.857628 1.69543 0
M  V30 766 H 71.1688 -3.31716 2.02229 0
M  V30 767 H 72.8408 -1.89074 4.20771 0
M  V30 768 H 71.0838 -1.71449 3.98482 0
M  V30 769 H 71.7548 -3.28462 4.4364 0
M  V30 770 H 74.2308 -3.31884 2.50983 0
M  V30 771 H 73.1068 -4.63159 2.94576 0
M  V30 772 H 73.3678 -4.23957 1.25352 0
M  V30 773 N 72.4269 -1.23603 -0.977757 0
M  V30 774 C 73.6759 -1.06377 -1.71368 0
M  V30 775 C 73.9889 0.399062 -1.91486 0
M  V30 776 O 75.1949 0.691312 -2.62551 0
M  V30 777 C 73.6509 -1.85512 -3.08404 0
M  V30 778 C 73.2589 -3.36141 -2.96164 0
M  V30 779 C 75.0029 -1.76783 -3.85938 0
M  V30 780 C 72.9099 -4.07659 -4.28449 0
M  V30 781 H 71.8399 -0.394452 -0.642591 0
M  V30 782 H 74.4909 -1.47594 -1.09034 0
M  V30 783 H 72.8729 -1.37103 -3.71509 0
M  V30 784 H 74.0469 -3.92056 -2.42133 0
M  V30 785 H 72.3619 -3.45712 -2.32104 0
M  V30 786 H 74.9589 -2.27526 -4.83876 0
M  V30 787 H 75.3019 -0.731116 -4.0983 0
M  V30 788 H 75.8349 -2.22818 -3.2954 0
M  V30 789 H 72.5739 -5.11648 -4.09752 0
M  V30 790 H 72.0939 -3.5653 -4.82334 0
M  V30 791 H 73.7729 -4.141 -4.97122 0
M  V30 792 N 73.905 1.17692 -1.04816 0
M  V30 793 C 75.153 1.87488 -0.754497 0
M  V30 794 C 75.474 1.81205 0.720407 0
M  V30 795 O 74.744 1.23544 1.52032 0
M  V30 796 H 73.324 0.694101 -0.276102 0
M  V30 797 H 75.986 1.42793 -1.32651 0
M  V30 798 H 75.082 2.93328 -1.06606 0
M  V30 799 N 75.3831 0.828654 1.34056 0
M  V30 800 C 76.3161 0.199763 2.27324 0
M  V30 801 C 77.2941 -0.647168 1.49166 0
M  V30 802 O 78.4781 -0.609661 1.78369 0
M  V30 803 C 75.6051 -0.720455 3.30949 0
M  V30 804 C 74.6511 0.0496888 4.26471 0
M  V30 805 S 75.4841 1.40072 5.16856 0
M  V30 806 C 76.6401 0.485527 6.24014 0
M  V30 807 H 76.8731 0.990478 2.80316 0
M  V30 808 H 74.4061 0.624857 1.41191 0
M  V30 809 H 76.3641 -1.24581 3.91139 0
M  V30 810 H 75.0251 -1.48474 2.76793 0
M  V30 811 H 74.2181 -0.650104 4.9979 0
M  V30 812 H 73.8201 0.505779 3.70564 0
M  V30 813 H 76.1121 -0.320672 6.76741 0
M  V30 814 H 77.0551 1.18856 6.98054 0
M  V30 815 H 77.4631 0.0714109 5.64455 0
M  V30 816 N 76.8612 -1.46375 0.584142 0
M  V30 817 C 78.1382 -1.956 0.0033388 0
M  V30 818 C 78.5182 -1.52679 -1.45782 0
M  V30 819 O 77.8662 -0.77816 -2.14842 0
M  V30 820 C 78.0762 -3.48551 0.176891 0
M  V30 821 C 79.4242 -4.24576 0.0454609 0
M  V30 822 O 80.4482 -3.56043 0.105801 0
M  V30 823 O 79.3072 -5.46427 -0.0890376 0
M  V30 824 H 76.4012 -0.825547 -0.0490066 0
M  V30 825 H 78.9472 -1.56652 0.65256 0
M  V30 826 H 77.7192 -3.72683 1.1926 0
M  V30 827 H 77.3422 -3.94332 -0.508695 0
M  V30 828 N 78.3393 -0.321999 -1.54275 0
M  V30 829 C 79.2863 0.544664 -2.24281 0
M  V30 830 C 80.2563 1.1129 -1.23303 0
M  V30 831 O 81.4413 1.15354 -1.51981 0
M  V30 832 C 78.5813 1.70045 -3.00298 0
M  V30 833 C 77.6943 1.16159 -4.1609 0
M  V30 834 C 76.8293 2.28293 -4.79641 0
M  V30 835 C 75.8683 1.71648 -5.8754 0
M  V30 836 N 75.0053 2.77438 -6.44959 0
M  V30 837 H 79.8453 -0.0588907 -2.97942 0
M  V30 838 H 77.3823 -0.0408345 -1.47043 0
M  V30 839 H 79.3403 2.38054 -3.42616 0
M  V30 840 H 77.9703 2.27531 -2.28975 0
M  V30 841 H 77.0223 0.373092 -3.78566 0
M  V30 842 H 78.3343 0.707087 -4.93763 0
M  V30 843 H 77.4883 3.0421 -5.2492 0
M  V30 844 H 76.2273 2.77079 -4.01346 0
M  V30 845 H 75.2323 0.942282 -5.41665 0
M  V30 846 H 76.4573 1.23741 -6.67731 0
M  V30 847 H 74.4033 3.25519 -5.69538 0
M  V30 848 H 74.3203 2.36547 -7.1804 0
M  V30 849 H 75.5883 3.53189 -6.94894 0
M  V30 850 N 79.8174 1.5752 -0.0501392 0
M  V30 851 C 81.2284 1.80271 0.485705 0
M  V30 852 C 81.5794 0.96228 1.70981 0
M  V30 853 O 80.7044 0.178578 2.15662 0
M  V30 854 C 81.2994 3.26957 0.887938 0
M  V30 855 C 79.8584 3.5063 1.36877 0
M  V30 856 C 79.0054 2.75165 0.343468 0
M  V30 857 H 81.9564 1.56281 -0.276028 0
M  V30 858 H 81.9774 3.37821 1.75093 0
M  V30 859 H 81.4894 3.881 -0.0031809 0
M  V30 860 H 79.5904 2.94766 2.27911 0
M  V30 861 H 79.7034 4.59343 1.36164 0
M  V30 862 H 78.0674 2.4127 0.816128 0
M  V30 863 H 78.8504 3.39034 -0.539548 0
M  V30 864 N 81.2955 -0.223234 1.56011 0
M  V30 865 C 82.2255 -1.27988 1.95298 0
M  V30 866 C 83.2065 -1.48976 0.820979 0
M  V30 867 O 84.3915 -1.61188 1.08315 0
M  V30 868 C 81.5215 -2.63 2.26822 0
M  V30 869 C 80.4755 -2.56671 3.42497 0
M  V30 870 C 79.8015 -3.95697 3.59622 0
M  V30 871 C 81.1015 -2.11601 4.77517 0
M  V30 872 H 82.7955 -0.953525 2.8381 0
M  V30 873 H 80.3415 -0.457244 1.36548 0
M  V30 874 H 82.2945 -3.37077 2.52898 0
M  V30 875 H 81.0185 -2.9732 1.35161 0
M  V30 876 H 79.6775 -1.85051 3.16467 0
M  V30 877 H 79.3255 -4.27322 2.6534 0
M  V30 878 H 79.0255 -3.92345 4.37424 0
M  V30 879 H 80.5495 -4.71438 3.88044 0
M  V30 880 H 81.9635 -2.7542 5.02809 0
M  V30 881 H 80.3605 -2.19311 5.5859 0
M  V30 882 H 81.4305 -1.06824 4.72987 0
M  V30 883 N 82.7736 -1.49793 -0.48987 0
M  V30 884 C 84.0016 -1.63568 -1.26701 0
M  V30 885 C 84.4166 -0.311465 -1.86213 0
M  V30 886 O 83.7736 0.704416 -1.68357 0
M  V30 887 C 83.8246 -2.71284 -2.38929 0
M  V30 888 O 83.5456 -3.9857 -1.81861 0
M  V30 889 C 85.0466 -2.95864 -3.3012 0
M  V30 890 H 82.2666 -0.550342 -0.383881 0
M  V30 891 H 84.8106 -1.95898 -0.586864 0
M  V30 892 H 82.9656 -2.417 -3.02753 0
M  V30 893 H 83.3796 -4.57993 -2.55622 0
M  V30 894 H 84.8536 -3.74941 -4.05121 0
M  V30 895 H 85.3306 -2.06206 -3.87783 0
M  V30 896 H 85.9366 -3.26907 -2.72051 0
M  V30 897 N 84.2517 0.741722 -1.39055 0
M  V30 898 C 85.1817 1.869 -1.39966 0
M  V30 899 C 86.1627 1.6804 -0.26392 0
M  V30 900 O 87.3477 1.88458 -0.468755 0
M  V30 901 C 84.4777 3.24572 -1.23574 0
M  V30 902 C 83.4317 3.58056 -2.34477 0
M  V30 903 C 82.7577 4.94593 -2.0318 0
M  V30 904 C 84.0577 3.61716 -3.76774 0
M  V30 905 H 85.7517 1.86395 -2.34302 0
M  V30 906 H 83.2977 0.895361 -1.1278 0
M  V30 907 H 85.2507 4.031 -1.22834 0
M  V30 908 H 83.9747 3.25587 -0.257045 0
M  V30 909 H 82.6337 2.81854 -2.34423 0
M  V30 910 H 82.2817 4.92181 -1.03765 0
M  V30 911 H 81.9817 5.17964 -2.77465 0
M  V30 912 H 83.5057 5.75486 -2.04079 0
M  V30 913 H 84.9197 4.30335 -3.78794 0
M  V30 914 H 83.3167 3.96603 -4.50362 0
M  V30 915 H 84.3867 2.61672 -4.08235 0
M  V30 916 N 85.7298 1.2412 0.971189 0
M  V30 917 C 87.1408 1.07236 1.52831 0
M  V30 918 C 87.4918 -0.357352 1.92918 0
M  V30 919 O 86.6168 -1.24528 1.76979 0
M  V30 920 C 87.2118 1.94043 2.77728 0
M  V30 921 C 85.7708 1.81394 3.29808 0
M  V30 922 C 84.9178 1.89189 2.02738 0
M  V30 923 H 87.8688 1.37648 0.789864 0
M  V30 924 H 87.8898 1.47066 3.5093 0
M  V30 925 H 87.4018 2.98093 2.4852 0
M  V30 926 H 85.5028 0.801634 3.63874 0
M  V30 927 H 85.6158 2.65294 3.98944 0
M  V30 928 H 83.9798 1.32877 2.17292 0
M  V30 929 H 84.7628 2.94812 1.759 0
M  V30 930 N 87.2079 -1.17134 1.05439 0
M  V30 931 C 88.4849 -1.83411 0.679699 0
M  V30 932 C 88.8649 -1.9368 -0.839726 0
M  V30 933 O 88.2129 -1.47325 -1.74664 0
M  V30 934 C 88.4229 -3.20918 1.37159 0
M  V30 935 C 89.7709 -3.96796 1.51123 0
M  V30 936 O 90.7949 -3.30406 1.3308 0
M  V30 937 O 89.6539 -5.15778 1.80651 0
M  V30 938 H 86.7479 -0.79154 0.239569 0
M  V30 939 H 89.2939 -1.24411 1.15413 0
M  V30 940 H 88.0659 -3.08428 2.40807 0
M  V30 941 H 87.6889 -3.87587 0.886674 0
M  V30 942 N 88.686 -0.835752 -1.33615 0
M  V30 943 C 89.933 -0.429959 -1.97883 0
M  V30 944 C 90.261 1.01006 -1.66217 0
M  V30 945 O 89.516 1.72047 -0.93265 0
M  V30 946 C 89.815 -0.593925 -3.52431 0
M  V30 947 C 89.481 -2.00158 -4.04039 0
M  V30 948 C 88.143 -2.38662 -4.17844 0
M  V30 949 C 90.495 -2.92117 -4.31644 0
M  V30 950 C 87.823 -3.68435 -4.56588 0
M  V30 951 C 90.175 -4.21368 -4.71838 0
M  V30 952 C 88.839 -4.59833 -4.83849 0
M  V30 953 H 88.109 -0.157333 -0.724104 0
M  V30 954 H 90.756 -1.06217 -1.59343 0
M  V30 955 H 89.061 0.121619 -3.91611 0
M  V30 956 H 90.758 -0.260282 -4.00154 0
M  V30 957 H 87.348 -1.69252 -3.93766 0
M  V30 958 H 91.532 -2.63608 -4.20505 0
M  V30 959 H 86.788 -3.98046 -4.64079 0
M  V30 960 H 90.962 -4.92703 -4.92155 0
M  V30 961 H 88.589 -5.60438 -5.13627 0
M  V30 962 N 90.1641 1.46063 -0.591896 0
M  V30 963 C 91.0941 2.33172 0.123673 0
M  V30 964 C 92.0751 1.45897 0.87453 0
M  V30 965 O 93.2601 1.74698 0.848181 0
M  V30 966 C 90.3901 3.28336 1.13194 0
M  V30 967 C 89.3441 4.25124 0.495324 0
M  V30 968 C 88.6701 5.09863 1.61071 0
M  V30 969 C 89.9701 5.19143 -0.573425 0
M  V30 970 H 91.6641 2.93252 -0.603646 0
M  V30 971 H 89.2101 1.41014 -0.291741 0
M  V30 972 H 91.1631 3.88137 1.64097 0
M  V30 973 H 89.8871 2.66383 1.88965 0
M  V30 974 H 88.5461 3.66599 0.00729452 0
M  V30 975 H 88.1941 4.44288 2.35832 0
M  V30 976 H 87.8941 5.75417 1.19035 0
M  V30 977 H 89.4181 5.72529 2.12233 0
M  V30 978 H 90.8321 5.73106 -0.1491 0
M  V30 979 H 89.2291 5.93089 -0.914636 0
M  V30 980 H 90.2991 4.62519 -1.45617 0
M  V30 981 N 91.6422 0.330177 1.54103 0
M  V30 982 C 92.6052 -0.520144 2.2322 0
M  V30 983 C 93.6052 -1.03828 1.22786 0
M  V30 984 O 94.7952 -0.929652 1.4732 0
M  V30 985 C 91.9272 -1.72317 2.94142 0
M  V30 986 H 93.1202 0.0841605 2.99782 0
M  V30 987 H 90.6732 0.0813433 1.56088 0
M  V30 988 H 91.4082 -2.36653 2.21734 0
M  V30 989 H 91.1932 -1.35898 3.67796 0
M  V30 990 H 92.6832 -2.3266 3.46784 0
M  V30 991 N 93.1203 -1.57491 0.0584922 0
M  V30 992 C 94.0673 -2.11958 -0.913376 0
M  V30 993 C 95.0373 -1.02875 -1.30407 0
M  V30 994 O 96.2223 -1.30464 -1.39226 0
M  V30 995 C 93.3623 -2.67497 -2.18035 0
M  V30 996 C 92.4753 -3.90691 -1.84349 0
M  V30 997 C 91.6103 -4.3452 -3.05559 0
M  V30 998 C 90.6493 -5.50395 -2.67827 0
M  V30 999 N 89.7863 -5.89244 -3.81754 0
M  V30 1000 H 94.6263 -2.94704 -0.442017 0
M  V30 1001 H 92.1633 -1.45643 -0.206545 0
M  V30 1002 H 94.1213 -2.978 -2.92183 0
M  V30 1003 H 92.7513 -1.87537 -2.62735 0
M  V30 1004 H 91.8033 -3.66934 -1.00319 0
M  V30 1005 H 93.1153 -4.7489 -1.5258 0
M  V30 1006 H 92.2693 -4.66414 -3.87998 0
M  V30 1007 H 91.0083 -3.49147 -3.40511 0
M  V30 1008 H 90.0133 -5.18165 -1.83806 0
M  V30 1009 H 91.2383 -6.3749 -2.34059 0
M  V30 1010 H 89.1843 -5.06823 -4.16493 0
M  V30 1011 H 89.1013 -6.68151 -3.53708 0
M  V30 1012 H 90.3693 -6.25756 -4.64811 0
M  V30 1013 N 94.5984 0.214957 -1.56127 0
M  V30 1014 C 95.8454 0.938372 -1.79446 0
M  V30 1015 C 96.1734 1.8407 -0.628378 0
M  V30 1016 O 95.4284 1.91837 0.386925 0
M  V30 1017 C 95.7274 1.80314 -3.0858 0
M  V30 1018 C 95.3934 1.05349 -4.3842 0
M  V30 1019 C 94.0554 0.846435 -4.73697 0
M  V30 1020 C 96.4074 0.524588 -5.18553 0
M  V30 1021 C 93.7354 0.098683 -5.86617 0
M  V30 1022 C 96.0874 -0.209853 -6.32252 0
M  V30 1023 C 94.7514 -0.428102 -6.66126 0
M  V30 1024 H 94.0214 0.343375 -0.656639 0
M  V30 1025 H 96.6684 0.206077 -1.90388 0
M  V30 1026 H 94.9734 2.6035 -2.92789 0
M  V30 1027 H 96.6704 2.36513 -3.23825 0
M  V30 1028 H 93.2604 1.22486 -4.10725 0
M  V30 1029 H 97.4444 0.672008 -4.91729 0
M  V30 1030 H 92.7004 -0.0805753 -6.11347 0
M  V30 1031 H 96.8744 -0.627157 -6.9357 0
M  V30 1032 H 94.5014 -1.00944 -7.53468 0
M  V30 1033 N 96.0765 1.50051 0.48192 0
M  V30 1034 C 97.3535 1.51009 1.2432 0
M  V30 1035 C 97.7335 0.248587 2.09631 0
M  V30 1036 O 97.0815 -0.768409 2.15192 0
M  V30 1037 C 97.2915 2.79981 2.08355 0
M  V30 1038 C 98.6395 3.3022 2.66908 0
M  V30 1039 O 99.6635 2.81228 2.18607 0
M  V30 1040 O 98.5225 4.15595 3.54884 0
M  V30 1041 H 95.6165 0.605239 0.563573 0
M  V30 1042 H 98.1625 1.62332 0.494627 0
M  V30 1043 H 96.9345 3.63275 1.45419 0
M  V30 1044 H 96.5575 2.7161 2.90368 0
M  V30 1045 N 97.5546 -0.734337 1.39446 0
M  V30 1046 C 98.7846 -1.52137 1.39778 0
M  V30 1047 C 99.1926 -1.89198 -0.00929312 0
M  V30 1048 O 98.5356 -1.54666 -0.991168 0
M  V30 1049 C 98.5976 -2.83762 2.20724 0
M  V30 1050 C 98.2616 -2.69131 3.69347 0
M  V30 1051 C 99.2586 -2.37635 4.62413 0
M  V30 1052 C 96.9436 -2.85982 4.1294 0
M  V30 1053 C 98.9376 -2.23172 5.97054 0
M  V30 1054 C 96.6246 -2.71137 5.47657 0
M  V30 1055 C 97.6226 -2.39777 6.39528 0
M  V30 1056 O 97.3106 -2.25026 7.71763 0
M  V30 1057 H 97.0426 -0.476717 0.479288 0
M  V30 1058 H 99.5966 -0.915012 1.83893 0
M  V30 1059 H 97.8266 -3.4666 1.71359 0
M  V30 1060 H 99.5156 -3.45383 2.13226 0
M  V30 1061 H 100.282 -2.24267 4.30034 0
M  V30 1062 H 96.1606 -3.09383 3.41765 0
M  V30 1063 H 99.7046 -1.98617 6.68728 0
M  V30 1064 H 95.6016 -2.84083 5.79626 0
M  V30 1065 H 96.3696 -2.40091 7.82495 0
M  V30 1066 N 99.0327 -1.24633 -0.964593 0
M  V30 1067 C 100.263 -1.11339 -1.74032 0
M  V30 1068 C 100.671 0.336593 -1.86182 0
M  V30 1069 O 100.014 1.24389 -1.35178 0
M  V30 1070 C 100.076 -1.68284 -3.1768 0
M  V30 1071 C 99.7397 -3.17196 -3.28992 0
M  V30 1072 C 100.737 -4.14308 -3.14078 0
M  V30 1073 C 98.4217 -3.57215 -3.53133 0
M  V30 1074 C 100.416 -5.4942 -3.23135 0
M  V30 1075 C 98.1027 -4.92468 -3.61827 0
M  V30 1076 C 99.1007 -5.8838 -3.46841 0
M  V30 1077 O 98.7887 -7.21173 -3.55197 0
M  V30 1078 H 98.5207 -0.389551 -0.552472 0
M  V30 1079 H 101.075 -1.65282 -1.21946 0
M  V30 1080 H 99.3047 -1.08777 -3.71085 0
M  V30 1081 H 100.994 -1.50234 -3.77074 0
M  V30 1082 H 101.76 -3.84731 -2.95308 0
M  V30 1083 H 97.6387 -2.83063 -3.63863 0
M  V30 1084 H 101.183 -6.24263 -3.11355 0
M  V30 1085 H 97.0797 -5.21714 -3.80111 0
M  V30 1086 H 97.8477 -7.29135 -3.71892 0
M  V30 1087 N 100.511 1.16574 -1.06058 0
M  V30 1088 C 101.444 2.19798 -0.61352 0
M  V30 1089 C 102.422 1.58509 0.362453 0
M  V30 1090 O 103.606 1.86527 0.271994 0
M  V30 1091 C 100.733 3.3855 0.100915 0
M  V30 1092 C 99.7788 4.18317 -0.831438 0
M  V30 1093 S 100.612 4.82375 -2.32539 0
M  V30 1094 C 101.768 6.04508 -1.62238 0
M  V30 1095 H 102.001 2.5738 -1.48805 0
M  V30 1096 H 99.5338 1.27327 -0.873338 0
M  V30 1097 H 101.492 4.07358 0.506898 0
M  V30 1098 H 100.153 2.99338 0.951604 0
M  V30 1099 H 99.3458 5.03232 -0.278071 0
M  V30 1100 H 98.9478 3.5499 -1.17719 0
M  V30 1101 H 101.24 6.71133 -0.926622 0
M  V30 1102 H 102.183 6.64389 -2.44934 0
M  V30 1103 H 102.591 5.53559 -1.106 0
M  V30 1104 N 101.989 0.842826 1.3317 0
M  V30 1105 C 103.4 0.496651 1.79973 0
M  V30 1106 C 103.751 -0.984641 1.69703 0
M  V30 1107 O 102.876 -1.76743 1.24863 0
M  V30 1108 C 103.471 0.894727 3.26772 0
M  V30 1109 C 102.03 0.600629 3.71577 0
M  V30 1110 C 101.177 1.10091 2.5451 0
M  V30 1111 H 104.128 1.03116 1.20635 0
M  V30 1112 H 104.149 0.206347 3.7994 0
M  V30 1113 H 103.661 1.97287 3.34215 0
M  V30 1114 H 101.762 -0.467284 3.69658 0
M  V30 1115 H 101.875 1.15863 4.64879 0
M  V30 1116 H 100.239 0.52162 2.49301 0
M  V30 1117 H 101.022 2.18591 2.64713 0
M  V30 1118 N 103.467 -1.45747 0.599634 0
M  V30 1119 C 104.43 -2.28917 -0.113835 0
M  V30 1120 C 105.43 -1.3933 -0.802729 0
M  V30 1121 O 106.62 -1.61534 -0.652103 0
M  V30 1122 C 103.752 -3.20152 -1.17114 0
M  V30 1123 H 104.945 -2.93478 0.617289 0
M  V30 1124 H 102.498 -1.52137 0.358327 0
M  V30 1125 H 103.233 -2.60374 -1.93329 0
M  V30 1126 H 103.018 -3.86133 -0.681468 0
M  V30 1127 H 104.508 -3.82708 -1.67105 0
M  V30 1128 N 104.945 -0.338344 -1.53925 0
M  V30 1129 C 106.194 0.260732 -2.00008 0
M  V30 1130 C 106.507 1.52073 -1.23017 0
M  V30 1131 O 107.713 2.19672 -1.5955 0
M  V30 1132 C 106.169 0.51515 -3.56194 0
M  V30 1133 C 105.777 -0.728645 -4.42035 0
M  V30 1134 C 107.521 1.07337 -4.10706 0
M  V30 1135 C 105.428 -0.445315 -5.89721 0
M  V30 1136 H 104.358 0.101205 -0.747177 0
M  V30 1137 H 107.009 -0.452866 -1.77824 0
M  V30 1138 H 105.391 1.28932 -3.74423 0
M  V30 1139 H 106.565 -1.50352 -4.35581 0
M  V30 1140 H 104.88 -1.20813 -3.98489 0
M  V30 1141 H 107.477 1.30022 -5.18651 0
M  V30 1142 H 107.82 2.0273 -3.63602 0
M  V30 1143 H 108.353 0.360034 -3.96167 0
M  V30 1144 H 105.092 -1.36883 -6.41049 0
M  V30 1145 H 104.612 0.291569 -5.99091 0
M  V30 1146 H 106.291 -0.0606218 -6.46972 0
M  V30 1147 N 106.423 1.57458 -0.0668435 0
M  V30 1148 C 107.386 2.11323 0.887422 0
M  V30 1149 C 108.386 1.03618 1.22964 0
M  V30 1150 O 109.576 1.29626 1.16373 0
M  V30 1151 C 106.708 2.61048 2.19242 0
M  V30 1152 H 107.901 2.96942 0.420194 0
M  V30 1153 H 105.454 1.55239 0.181793 0
M  V30 1154 H 106.189 1.78868 2.70512 0
M  V30 1155 H 105.974 3.39769 1.95702 0
M  V30 1156 H 107.464 3.02814 2.87565 0
M  V30 1157 N 107.901 -0.206675 1.56239 0
M  V30 1158 C 109.149 -0.927007 1.79586 0
M  V30 1159 C 109.47 -1.8427 0.637929 0
M  V30 1160 O 108.74 -1.92849 -0.344398 0
M  V30 1161 H 107.32 -0.345292 0.662407 0
M  V30 1162 H 109.982 -0.21496 1.93711 0
M  V30 1163 H 109.078 -1.52501 2.72305 0
M  V30 1164 N 109.379 -1.50304 -0.473955 0
M  V30 1165 C 110.619 -1.62786 -1.23612 0
M  V30 1166 C 110.983 -0.319786 -1.89318 0
M  V30 1167 O 112.184 -0.320012 -2.66888 0
M  V30 1168 C 110.455 -2.77351 -2.25414 0
M  V30 1169 S 112.014 -3.09948 -3.10608 0
M  V30 1170 H 108.832 -0.573895 -0.419721 0
M  V30 1171 H 111.434 -1.88076 -0.533623 0
M  V30 1172 H 110.138 -3.70879 -1.75719 0
M  V30 1173 H 109.669 -2.54137 -3.00296 0
M  V30 1174 H 111.684 -2.53553 -4.26527 0
M  V30 1175 N 110.857 0.726932 -1.39834 0
M  V30 1176 C 112.273 1.03354 -1.21615 0
M  V30 1177 C 112.473 2.01327 -0.08338 0
M  V30 1178 O 111.529 2.46158 0.56238 0
M  V30 1179 C 112.842 1.58811 -2.55342 0
M  V30 1180 C 114.39 1.70851 -2.62257 0
M  V30 1181 C 114.865 2.29716 -3.96225 0
M  V30 1182 N 116.356 2.37116 -3.97907 0
M  V30 1183 C 117.091 2.83619 -4.98345 0
M  V30 1184 N 116.587 3.29958 -6.09179 0
M  V30 1185 N 118.38 2.82901 -4.8572 0
M  V30 1186 H 110.531 0.0773069 -2.12259 0
M  V30 1187 H 112.794 0.0969102 -0.943034 0
M  V30 1188 H 112.5 0.942855 -3.38826 0
M  V30 1189 H 112.374 2.57502 -2.75632 0
M  V30 1190 H 114.761 2.34497 -1.79152 0
M  V30 1191 H 114.842 0.707913 -2.45809 0
M  V30 1192 H 114.486 1.66696 -4.79765 0
M  V30 1193 H 114.416 3.30469 -4.09997 0
M  V30 1194 H 116.907 2.04374 -3.17868 0
M  V30 1195 H 117.22 3.63976 -6.8172 0
M  V30 1196 H 115.565 3.27946 -6.12761 0
M  V30 1197 H 118.756 2.46027 -3.98231 0
M  V30 1198 H 118.929 3.18827 -5.6414 0
M  V30 1199 N 112.336 1.25143 0.95797 0
M  V30 1200 C 113.246 1.06968 2.08794 0
M  V30 1201 C 114.262 0.00773911 1.73998 0
M  V30 1202 O 115.438 0.207972 2.00323 0
M  V30 1203 C 112.503 0.68691 3.39827 0
M  V30 1204 C 111.564 1.82641 3.88511 0
M  V30 1205 C 110.797 1.46181 5.1329 0
M  V30 1206 O 111.02 0.355971 5.69288 0
M  V30 1207 O 109.954 2.29085 5.566 0
M  V30 1208 H 113.78 2.01723 2.27027 0
M  V30 1209 H 111.365 1.04051 1.07209 0
M  V30 1210 H 113.247 0.485417 4.18595 0
M  V30 1211 H 111.922 -0.231417 3.22872 0
M  V30 1212 H 110.829 2.08274 3.10762 0
M  V30 1213 H 112.162 2.72386 4.09959 0
M  V30 1214 N 113.814 -1.1601 1.06675 0
M  V30 1215 C 114.777 -2.18724 0.685001 0
M  V30 1216 C 115.777 -1.58496 -0.271246 0
M  V30 1217 O 116.967 -1.74119 -0.0531156 0
M  V30 1218 C 114.099 -3.40899 0.00853648 0
M  V30 1219 H 115.292 -2.54011 1.59431 0
M  V30 1220 H 112.845 -1.30352 0.862441 0
M  V30 1221 H 113.58 -3.11173 -0.913337 0
M  V30 1222 H 113.365 -3.8587 0.696204 0
M  V30 1223 H 114.855 -4.16886 -0.24414 0
M  V30 1224 N 115.292 -0.849877 -1.32721 0
M  V30 1225 C 116.541 -0.447175 -1.96681 0
M  V30 1226 C 116.854 1.00135 -1.68025 0
M  V30 1227 O 118.06 1.50926 -2.25685 0
M  V30 1228 C 116.516 -0.7487 -3.52026 0
M  V30 1229 C 116.124 -2.21264 -3.89546 0
M  V30 1230 C 117.868 -0.413487 -4.22481 0
M  V30 1231 C 115.775 -2.45763 -5.37917 0
M  V30 1232 H 114.705 -0.163486 -0.736063 0
M  V30 1233 H 117.356 -1.03999 -1.51183 0
M  V30 1234 H 115.738 -0.0853727 -3.95908 0
M  V30 1235 H 116.912 -2.91736 -3.56689 0
M  V30 1236 H 115.227 -2.5119 -3.32103 0
M  V30 1237 H 117.824 -0.574017 -5.3161 0
M  V30 1238 H 118.167 0.644492 -4.11281 0
M  V30 1239 H 118.7 -1.03251 -3.84167 0
M  V30 1240 H 115.439 -3.50168 -5.54132 0
M  V30 1241 H 114.959 -1.79864 -5.72197 0
M  V30 1242 H 116.638 -2.29471 -6.0494 0
M  V30 1243 N 116.77 1.45427 -0.607355 0
M  V30 1244 C 117.717 2.3053 0.111625 0
M  V30 1245 C 118.687 1.4209 0.860216 0
M  V30 1246 O 119.872 1.71019 0.845998 0
M  V30 1247 C 117.012 3.26992 1.10319 0
M  V30 1248 C 116.125 4.30535 0.355493 0
M  V30 1249 C 115.26 5.14105 1.33676 0
M  V30 1250 C 114.299 6.09376 0.576862 0
M  V30 1251 N 113.436 6.85727 1.5074 0
M  V30 1252 H 118.276 2.91477 -0.620093 0
M  V30 1253 H 115.813 1.43631 -0.317594 0
M  V30 1254 H 117.771 3.81385 1.6912 0
M  V30 1255 H 116.401 2.67799 1.80232 0
M  V30 1256 H 115.453 3.78805 -0.348023 0
M  V30 1257 H 116.765 4.98235 -0.237423 0
M  V30 1258 H 115.919 5.72897 1.99684 0
M  V30 1259 H 114.658 4.46423 1.9636 0
M  V30 1260 H 113.663 5.49715 -0.0968519 0
M  V30 1261 H 114.888 6.79085 -0.0449341 0
M  V30 1262 H 112.834 6.20735 2.12189 0
M  V30 1263 H 112.751 7.49778 0.967913 0
M  V30 1264 H 114.019 7.4906 2.15706 0
M  V30 1265 N 118.248 0.346503 1.53744 0
M  V30 1266 C 119.664 -0.00530975 1.59599 0
M  V30 1267 C 119.864 -1.48465 1.36236 0
M  V30 1268 O 118.92 -2.24376 1.15808 0
M  V30 1269 C 120.233 0.433516 2.97559 0
M  V30 1270 C 121.781 0.386111 3.10609 0
M  V30 1271 C 122.256 0.800451 4.50951 0
M  V30 1272 N 123.747 0.754753 4.5701 0
M  V30 1273 C 124.482 1.04727 5.63755 0
M  V30 1274 N 123.978 1.4081 6.7834 0
M  V30 1275 N 125.771 0.971316 5.53644 0
M  V30 1276 H 117.922 1.31009 1.67184 0
M  V30 1277 H 120.185 0.534242 0.783128 0
M  V30 1278 H 119.891 1.46509 3.19731 0
M  V30 1279 H 119.765 -0.189753 3.76722 0
M  V30 1280 H 122.152 -0.636295 2.88158 0
M  V30 1281 H 122.233 1.04462 2.33498 0
M  V30 1282 H 121.877 1.82088 4.74137 0
M  V30 1283 H 121.807 0.119386 5.26465 0
M  V30 1284 H 124.298 0.488662 3.74727 0
M  V30 1285 H 124.611 1.61607 7.55714 0
M  V30 1286 H 122.956 1.44657 6.79779 0
M  V30 1287 H 126.147 0.688748 4.63005 0
M  V30 1288 H 126.32 1.20263 6.36742 0
M  V30 1289 N 119.726 -1.57421 0.075193 0
M  V30 1290 C 120.975 -1.92794 -0.592731 0
M  V30 1291 C 121.288 -0.957478 -1.70563 0
M  V30 1292 O 122.494 -1.20417 -2.43335 0
M  V30 1293 C 120.95 -3.42495 -1.10569 0
M  V30 1294 C 120.558 -4.47994 -0.0236121 0
M  V30 1295 C 122.302 -3.86864 -1.74748 0
M  V30 1296 C 120.209 -5.88829 -0.550803 0
M  V30 1297 H 119.139 -0.719591 -0.225177 0
M  V30 1298 H 121.79 -1.82902 0.147978 0
M  V30 1299 H 120.172 -3.47471 -1.89947 0
M  V30 1300 H 121.346 -4.54637 0.751099 0
M  V30 1301 H 119.661 -4.13113 0.522159 0
M  V30 1302 H 122.258 -4.8947 -2.15229 0
M  V30 1303 H 122.601 -3.24417 -2.60882 0
M  V30 1304 H 123.134 -3.84504 -1.01986 0
M  V30 1305 H 119.873 -6.54929 0.273457 0
M  V30 1306 H 119.393 -5.85698 -1.29296 0
M  V30 1307 H 121.072 -6.38811 -1.02613 0
M  V30 1308 N 121.204 0.198386 -1.56346 0
M  V30 1309 C 122.167 1.22952 -1.93431 0
M  V30 1310 C 123.167 1.38611 -0.815092 0
M  V30 1311 O 124.357 1.36479 -1.08255 0
M  V30 1312 C 121.489 2.59946 -2.20546 0
M  V30 1313 H 122.682 0.912626 -2.85677 0
M  V30 1314 H 120.235 0.43977 -1.49986 0
M  V30 1315 H 120.97 2.96696 -1.30927 0
M  V30 1316 H 120.755 2.49953 -3.02102 0
M  V30 1317 H 122.245 3.3431 -2.50253 0
M  V30 1318 N 122.682 1.50554 0.465978 0
M  V30 1319 C 123.912 1.65323 1.23903 0
M  V30 1320 C 124.32 0.338051 1.86155 0
M  V30 1321 O 123.663 -0.690518 1.70228 0
M  V30 1322 C 123.725 2.69048 2.3844 0
M  V30 1323 C 123.389 4.12462 1.96784 0
M  V30 1324 C 124.386 4.98168 1.48745 0
M  V30 1325 C 122.071 4.58407 2.05349 0
M  V30 1326 C 124.065 6.27868 1.0982 0
M  V30 1327 C 121.752 5.88112 1.66035 0
M  V30 1328 C 122.75 6.72668 1.18349 0
M  V30 1329 O 122.438 7.99951 0.795825 0
M  V30 1330 H 122.17 0.558629 0.38067 0
M  V30 1331 H 124.724 1.97561 0.562022 0
M  V30 1332 H 122.954 2.32062 3.09328 0
M  V30 1333 H 124.643 2.72985 3.0039 0
M  V30 1334 H 125.409 4.63885 1.41546 0
M  V30 1335 H 121.288 3.92735 2.41414 0
M  V30 1336 H 124.832 6.93819 0.725293 0
M  V30 1337 H 120.729 6.21914 1.72895 0
M  V30 1338 H 121.497 8.13265 0.924222 0
M  V30 1339 N 124.16 -0.719506 1.40217 0
M  V30 1340 C 125.07 -1.86378 1.42479 0
M  V30 1341 C 126.086 -1.71073 0.317834 0
M  V30 1342 O 127.262 -1.93406 0.561794 0
M  V30 1343 C 124.327 -3.22136 1.28178 0
M  V30 1344 C 123.388 -3.49723 2.48982 0
M  V30 1345 C 122.621 -4.79004 2.35353 0
M  V30 1346 O 122.844 -5.53821 1.36524 0
M  V30 1347 O 121.778 -5.06839 3.2465 0
M  V30 1348 H 125.604 -1.87425 2.38968 0
M  V30 1349 H 123.189 -0.869405 1.21498 0
M  V30 1350 H 125.071 -4.03234 1.22395 0
M  V30 1351 H 123.746 -3.21825 0.347934 0
M  V30 1352 H 122.653 -2.6865 2.60342 0
M  V30 1353 H 123.986 -3.54828 3.41113 0
M  V30 1354 N 125.638 -1.25649 -0.95132 0
M  V30 1355 C 126.885 -1.10594 -1.69633 0
M  V30 1356 C 127.213 0.352515 -1.91279 0
M  V30 1357 O 126.468 1.27601 -1.4838 0
M  V30 1358 C 126.767 -1.80909 -3.08231 0
M  V30 1359 C 126.433 -3.30825 -3.06375 0
M  V30 1360 C 125.095 -3.71722 -3.05576 0
M  V30 1361 C 127.447 -4.26589 -2.99452 0
M  V30 1362 C 124.775 -5.06788 -2.95606 0
M  V30 1363 C 127.127 -5.61683 -2.91024 0
M  V30 1364 C 125.791 -6.01904 -2.88562 0
M  V30 1365 H 125.061 -0.404691 -0.620731 0
M  V30 1366 H 127.708 -1.55964 -1.11119 0
M  V30 1367 H 126.013 -1.27979 -3.70309 0
M  V30 1368 H 127.71 -1.6671 -3.64704 0
M  V30 1369 H 124.3 -2.98287 -3.07771 0
M  V30 1370 H 128.484 -3.95982 -2.99185 0
M  V30 1371 H 123.74 -5.37126 -2.92071 0
M  V30 1372 H 127.914 -6.35578 -2.84629 0
M  V30 1373 H 125.541 -7.06521 -2.80593 0
M  V30 1374 N 127.117 1.15442 -1.07289 0
M  V30 1375 C 128.363 1.86489 -0.796846 0
M  V30 1376 C 128.696 1.82078 0.675371 0
M  V30 1377 O 127.971 1.24346 1.4956 0
M  V30 1378 C 128.254 3.35626 -1.30489 0
M  V30 1379 C 128.107 3.48673 -2.84161 0
M  V30 1380 C 129.426 4.30357 -0.920907 0
M  V30 1381 H 126.545 0.677144 -0.290939 0
M  V30 1382 H 129.187 1.35633 -1.33056 0
M  V30 1383 H 127.337 3.79068 -0.850883 0
M  V30 1384 H 129.009 3.14099 -3.37846 0
M  V30 1385 H 127.252 2.90253 -3.22391 0
M  V30 1386 H 127.923 4.53453 -3.14777 0
M  V30 1387 H 130.399 3.94871 -1.3121 0
M  V30 1388 H 129.275 5.33193 -1.30372 0
M  V30 1389 H 129.536 4.4176 0.173226 0
M  V30 1390 N 128.595 0.856903 1.32268 0
M  V30 1391 C 129.505 0.306131 2.32594 0
M  V30 1392 C 130.521 -0.577209 1.64147 0
M  V30 1393 O 131.697 -0.477043 1.95669 0
M  V30 1394 C 128.762 -0.494561 3.43154 0
M  V30 1395 C 127.823 0.415186 4.27288 0
M  V30 1396 C 127.056 -0.347387 5.32568 0
M  V30 1397 O 127.279 -1.57708 5.48165 0
M  V30 1398 O 126.213 0.287982 6.01211 0
M  V30 1399 H 130.039 1.13737 2.81598 0
M  V30 1400 H 127.624 0.619902 1.35932 0
M  V30 1401 H 129.506 -0.948944 4.10576 0
M  V30 1402 H 128.181 -1.30257 2.96336 0
M  V30 1403 H 127.088 0.917793 3.62667 0
M  V30 1404 H 128.421 1.18844 4.77637 0
M  V30 1405 N 130.073 -1.45103 0.615059 0
M  V30 1406 C 131.006 -2.27717 -0.148408 0
M  V30 1407 C 131.984 -1.37584 -0.866572 0
M  V30 1408 O 133.168 -1.67017 -0.87393 0
M  V30 1409 C 130.295 -3.16136 -1.21557 0
M  V30 1410 C 129.341 -4.22263 -0.599712 0
M  V30 1411 S 130.174 -5.3215 0.598081 0
M  V30 1412 C 131.33 -6.24137 -0.469484 0
M  V30 1413 H 131.563 -2.92121 0.552483 0
M  V30 1414 H 129.096 -1.49054 0.402778 0
M  V30 1415 H 131.054 -3.67633 -1.82638 0
M  V30 1416 H 129.715 -2.50982 -1.88857 0
M  V30 1417 H 128.908 -4.84081 -1.4029 0
M  V30 1418 H 128.51 -3.73945 -0.063876 0
M  V30 1419 H 130.802 -6.63984 -1.34652 0
M  V30 1420 H 131.745 -7.0801 0.112725 0
M  V30 1421 H 132.153 -5.58971 -0.788168 0
M  V30 1422 N 131.551 -0.354651 -1.53558 0
M  V30 1423 C 132.498 0.496968 -2.25386 0
M  V30 1424 C 133.468 1.0865 -1.25636 0
M  V30 1425 O 134.653 1.12104 -1.54394 0
M  V30 1426 C 131.793 1.63637 -3.03837 0
M  V30 1427 C 130.906 1.07307 -4.18461 0
M  V30 1428 C 130.041 2.18068 -4.84376 0
M  V30 1429 C 129.08 1.59147 -5.91049 0
M  V30 1430 N 128.217 2.63695 -6.50699 0
M  V30 1431 H 133.057 -0.122075 -2.9775 0
M  V30 1432 H 130.594 -0.0720154 -1.46924 0
M  V30 1433 H 132.552 2.30734 -3.47589 0
M  V30 1434 H 131.182 2.22623 -2.33749 0
M  V30 1435 H 130.234 0.292708 -3.79272 0
M  V30 1436 H 131.546 0.602193 -4.95152 0
M  V30 1437 H 130.7 2.93007 -5.31255 0
M  V30 1438 H 129.439 2.68504 -4.07133 0
M  V30 1439 H 128.444 0.827175 -5.43542 0
M  V30 1440 H 129.669 1.09549 -6.70206 0
M  V30 1441 H 127.615 3.13365 -5.76315 0
M  V30 1442 H 127.532 2.21263 -7.22896 0
M  V30 1443 H 128.8 3.3837 -7.02229 0
M  V30 1444 N 133.029 1.57378 -0.0835403 0
M  V30 1445 C 133.992 2.12252 0.864959 0
M  V30 1446 C 134.992 1.04916 1.21858 0
M  V30 1447 O 136.182 1.30853 1.14991 0
M  V30 1448 C 133.314 2.63358 2.16461 0
M  V30 1449 H 134.507 2.97371 0.388676 0
M  V30 1450 H 132.06 1.55423 0.165317 0
M  V30 1451 H 132.795 1.81727 2.686 0
M  V30 1452 H 132.58 3.41826 1.92087 0
M  V30 1453 H 134.07 3.05847 2.84337 0
M  V30 1454 N 134.507 -0.190092 1.56449 0
M  V30 1455 C 135.454 -1.23557 1.94942 0
M  V30 1456 C 136.424 -1.44972 0.810696 0
M  V30 1457 O 137.609 -1.58023 1.06927 0
M  V30 1458 C 134.749 -2.57416 2.2985 0
M  V30 1459 C 133.862 -2.43537 3.5681 0
M  V30 1460 C 132.997 -3.70134 3.81017 0
M  V30 1461 C 132.036 -3.51109 5.01387 0
M  V30 1462 N 131.173 -4.6973 5.21822 0
M  V30 1463 H 136.013 -0.900304 2.84075 0
M  V30 1464 H 133.55 -0.43318 1.40577 0
M  V30 1465 H 135.508 -3.35409 2.48106 0
M  V30 1466 H 134.138 -2.88975 1.43852 0
M  V30 1467 H 133.19 -1.56816 3.46573 0
M  V30 1468 H 134.502 -2.25415 4.4496 0
M  V30 1469 H 133.656 -4.56566 3.9954 0
M  V30 1470 H 132.395 -3.91215 2.91207 0
M  V30 1471 H 131.4 -2.63063 4.82782 0
M  V30 1472 H 132.625 -3.31468 5.9271 0
M  V30 1473 H 130.571 -4.91065 4.34961 0
M  V30 1474 H 130.488 -4.54452 6.0416 0
M  V30 1475 H 131.756 -5.57499 5.44808 0
M  V30 1476 N 135.985 -1.50799 -0.457987 0
M  V30 1477 C 136.895 -1.73426 -1.57989 0
M  V30 1478 C 137.911 -0.617745 -1.62665 0
M  V30 1479 O 139.087 -0.897614 -1.80291 0
M  V30 1480 C 136.152 -1.83557 -2.94122 0
M  V30 1481 C 135.213 -3.07345 -2.99729 0
M  V30 1482 C 134.446 -3.16983 -4.29368 0
M  V30 1483 O 134.669 -2.33077 -5.20607 0
M  V30 1484 O 133.603 -4.09812 -4.40837 0
M  V30 1485 H 137.429 -2.68555 -1.41817 0
M  V30 1486 H 135.014 -1.35052 -0.638859 0
M  V30 1487 H 136.896 -1.92326 -3.74952 0
M  V30 1488 H 135.571 -0.916137 -3.10465 0
M  V30 1489 H 134.478 -3.04068 -2.1793 0
M  V30 1490 H 135.811 -3.9891 -2.88326 0
M  V30 1491 N 137.463 0.71206 -1.40597 0
M  V30 1492 C 138.711 1.46907 -1.38791 0
M  V30 1493 C 139.032 1.94998 0.00780391 0
M  V30 1494 O 138.302 1.70587 0.963174 0
M  V30 1495 H 136.882 0.545043 -0.51082 0
M  V30 1496 H 139.544 0.843882 -1.75683 0
M  V30 1497 H 138.64 2.34021 -2.06496 0
M  V30 1498 N 138.941 1.26152 0.944643 0
M  V30 1499 C 140.187 1.11657 1.69294 0
M  V30 1500 C 140.52 -0.339926 1.91202 0
M  V30 1501 O 139.795 -1.24994 1.49019 0
M  V30 1502 C 140.078 1.88236 3.06984 0
M  V30 1503 C 139.931 3.41772 2.92424 0
M  V30 1504 C 141.25 1.67343 4.07043 0
M  V30 1505 H 138.369 0.407004 0.614424 0
M  V30 1506 H 141.011 1.55106 1.09737 0
M  V30 1507 H 139.161 1.51308 3.57824 0
M  V30 1508 H 140.833 3.88433 2.48832 0
M  V30 1509 H 139.076 3.68974 2.28124 0
M  V30 1510 H 139.747 3.90579 3.90067 0
M  V30 1511 H 142.223 1.99509 3.65151 0
M  V30 1512 H 141.099 2.23346 5.01406 0
M  V30 1513 H 141.36 0.617158 4.37771 0
M  V30 1514 N 140.419 -1.14872 1.07899 0
M  V30 1515 C 141.665 -1.86064 0.806725 0
M  V30 1516 C 141.998 -1.82434 -0.665706 0
M  V30 1517 O 141.273 -1.25138 -1.48899 0
M  V30 1518 C 141.556 -3.34929 1.32267 0
M  V30 1519 C 141.409 -3.47161 2.86006 0
M  V30 1520 C 142.728 -4.29863 0.943717 0
M  V30 1521 H 139.847 -0.675591 0.294526 0
M  V30 1522 H 142.489 -1.34925 1.33773 0
M  V30 1523 H 140.639 -3.78611 0.870974 0
M  V30 1524 H 142.311 -3.12302 3.39507 0
M  V30 1525 H 140.554 -2.88539 3.23925 0
M  V30 1526 H 141.225 -4.51777 3.17177 0
M  V30 1527 H 143.701 -3.9417 1.33302 0
M  V30 1528 H 142.577 -5.32494 1.33198 0
M  V30 1529 H 142.838 -4.41846 -0.149796 0
M  V30 1530 N 141.898 -0.863906 -1.31812 0
M  V30 1531 C 143.128 -0.485406 -2.00817 0
M  V30 1532 C 143.536 0.925007 -1.65046 0
M  V30 1533 O 142.879 1.61653 -0.872574 0
M  V30 1534 C 142.941 -0.555589 -3.55181 0
M  V30 1535 C 142.605 -1.92654 -4.14407 0
M  V30 1536 C 143.602 -2.89324 -4.31958 0
M  V30 1537 C 141.287 -2.2262 -4.50273 0
M  V30 1538 C 143.281 -4.14108 -4.84555 0
M  V30 1539 C 140.968 -3.47654 -5.02573 0
M  V30 1540 C 141.966 -4.43214 -5.19664 0
M  V30 1541 O 141.654 -5.66033 -5.70843 0
M  V30 1542 H 141.386 -0.188224 -0.649267 0
M  V30 1543 H 143.94 -1.16514 -1.69156 0
M  V30 1544 H 142.17 0.181037 -3.86276 0
M  V30 1545 H 143.859 -0.19138 -4.05449 0
M  V30 1546 H 144.625 -2.6748 -4.04573 0
M  V30 1547 H 140.504 -1.4902 -4.3625 0
M  V30 1548 H 144.048 -4.88703 -4.9781 0
M  V30 1549 H 139.945 -3.69345 -5.29391 0
M  V30 1550 H 140.713 -5.6812 -5.89222 0
M  V30 1551 N 143.376 1.44774 -0.622745 0
M  V30 1552 C 144.622 2.0242 -0.124083 0
M  V30 1553 C 144.955 1.4881 1.24777 0
M  V30 1554 O 144.23 0.668799 1.8264 0
M  V30 1555 C 144.513 3.59957 -0.101619 0
M  V30 1556 C 144.366 4.23867 -1.50521 0
M  V30 1557 C 145.685 4.36284 0.578272 0
M  V30 1558 H 142.804 0.735528 -0.0465645 0
M  V30 1559 H 145.446 1.72447 -0.797617 0
M  V30 1560 H 143.596 3.85623 0.471934 0
M  V30 1561 H 145.268 4.09336 -2.12701 0
M  V30 1562 H 143.511 3.81684 -2.06154 0
M  V30 1563 H 144.182 5.32843 -1.4416 0
M  V30 1564 H 146.658 4.16001 0.0906057 0
M  V30 1565 H 145.534 5.46004 0.563149 0
M  V30 1566 H 145.795 4.10271 1.64713 0
M  V30 1567 N 144.854 0.36279 1.53368 0
M  V30 1568 C 145.764 -0.492994 2.29362 0
M  V30 1569 C 146.78 -1.09507 1.35219 0
M  V30 1570 O 147.956 -1.10662 1.68273 0
M  V30 1571 C 145.021 -1.61855 3.066 0
M  V30 1572 C 144.082 -1.04429 4.16405 0
M  V30 1573 C 143.315 -2.11621 4.89951 0
M  V30 1574 O 143.538 -3.32684 4.63333 0
M  V30 1575 O 142.472 -1.74835 5.75948 0
M  V30 1576 H 146.298 0.125331 3.03441 0
M  V30 1577 H 143.883 0.127253 1.48857 0
M  V30 1578 H 145.765 -2.27302 3.54841 0
M  V30 1579 H 144.44 -2.22233 2.3536 0
M  V30 1580 H 143.347 -0.353819 3.72423 0
M  V30 1581 H 144.68 -0.485113 4.89804 0
M  V30 1582 N 146.332 -1.57332 0.0918853 0
M  V30 1583 C 147.578 -1.94524 -0.573425 0
M  V30 1584 C 147.911 -0.973578 -1.68033 0
M  V30 1585 O 147.186 -0.00609226 -1.94499 0
M  V30 1586 C 147.469 -3.41858 -1.13161 0
M  V30 1587 C 147.322 -4.4979 -0.0299747 0
M  V30 1588 C 148.641 -3.90435 -2.03098 0
M  V30 1589 H 145.76 -0.70734 -0.206975 0
M  V30 1590 H 148.402 -1.89309 0.161942 0
M  V30 1591 H 146.552 -3.46433 -1.7583 0
M  V30 1592 H 148.224 -4.57327 0.604112 0
M  V30 1593 H 146.467 -4.291 0.636833 0
M  V30 1594 H 147.138 -5.50069 -0.461287 0
M  V30 1595 H 149.614 -3.87992 -1.50338 0
M  V30 1596 H 148.49 -4.94097 -2.39081 0
M  V30 1597 H 148.751 -3.29541 -2.94712 0
M  V30 1598 N 147.81 0.181792 -1.56548 0
M  V30 1599 C 149.226 0.53316 -1.50431 0
M  V30 1600 C 149.426 1.85184 -0.794297 0
M  V30 1601 O 148.482 2.50058 -0.350318 0
M  V30 1602 C 149.795 0.575597 -2.9514 0
M  V30 1603 C 151.343 0.663519 -3.05886 0
M  V30 1604 C 151.818 0.736946 -4.52032 0
M  V30 1605 N 153.309 0.800118 -4.56237 0
M  V30 1606 C 154.044 0.877327 -5.66649 0
M  V30 1607 N 153.54 0.916016 -6.86718 0
M  V30 1608 N 155.333 0.915542 -5.54594 0
M  V30 1609 H 147.484 -0.683025 -2.01118 0
M  V30 1610 H 149.747 -0.244988 -0.915797 0
M  V30 1611 H 149.453 -0.324482 -3.502 0
M  V30 1612 H 149.327 1.42572 -3.49218 0
M  V30 1613 H 151.714 1.55403 -2.50867 0
M  V30 1614 H 151.795 -0.21307 -2.54911 0
M  V30 1615 H 151.439 -0.149262 -5.07681 0
M  V30 1616 H 151.369 1.62953 -5.00753 0
M  V30 1617 H 153.86 0.778926 -3.69785 0
M  V30 1618 H 154.173 0.975813 -7.66614 0
M  V30 1619 H 152.518 0.884469 -6.89349 0
M  V30 1620 H 155.709 0.882245 -4.59711 0
M  V30 1621 H 155.882 0.972253 -6.40665 0
M  V30 1622 N 149.288 1.51039 0.449983 0
M  V30 1623 C 150.518 1.66627 1.22143 0
M  V30 1624 C 150.926 0.357776 1.85786 0
M  V30 1625 O 150.269 -0.672424 1.70951 0
M  V30 1626 C 150.331 2.71562 2.35573 0
M  V30 1627 C 149.995 4.14526 1.92399 0
M  V30 1628 C 150.992 4.99717 1.43453 0
M  V30 1629 C 148.677 4.60559 2.00475 0
M  V30 1630 C 150.671 6.28998 1.03155 0
M  V30 1631 C 148.358 5.8984 1.59788 0
M  V30 1632 C 149.356 6.73886 1.11208 0
M  V30 1633 O 149.044 8.0075 0.710935 0
M  V30 1634 H 148.776 0.562635 0.374724 0
M  V30 1635 H 151.33 1.98146 0.541036 0
M  V30 1636 H 149.56 2.3533 3.06849 0
M  V30 1637 H 151.249 2.76156 2.97478 0
M  V30 1638 H 152.015 4.65361 1.36618 0
M  V30 1639 H 147.894 3.95273 2.37235 0
M  V30 1640 H 151.438 6.9455 0.651663 0
M  V30 1641 H 147.335 6.23713 1.66289 0
M  V30 1642 H 148.103 8.142 0.837913 0
M  V30 1643 N 150.766 -0.704594 1.40972 0
M  V30 1644 C 151.991 -1.49858 1.43378 0
M  V30 1645 C 152.416 -1.88061 0.038184 0
M  V30 1646 O 151.774 -1.5402 -0.956425 0
M  V30 1647 C 151.822 -2.74333 2.34038 0
M  V30 1648 O 150.926 -3.7147 1.7912 0
M  V30 1649 H 150.267 -0.45139 0.486974 0
M  V30 1650 H 152.797 -0.866832 1.8533 0
M  V30 1651 H 152.807 -3.22741 2.49604 0
M  V30 1652 H 151.482 -2.45863 3.35446 0
M  V30 1653 H 150.059 -3.30363 1.72958 0
M  V30 1654 N 152.244 -1.26651 -0.937939 0
M  V30 1655 C 153.655 -1.1125 -1.49934 0
M  V30 1656 C 154.006 0.306077 -1.93798 0
M  V30 1657 O 153.131 1.19792 -1.80219 0
M  V30 1658 C 153.726 -2.01339 -2.72485 0
M  V30 1659 C 152.285 -1.90074 -3.24883 0
M  V30 1660 C 151.432 -1.94498 -1.97651 0
M  V30 1661 H 154.383 -1.39693 -0.753091 0
M  V30 1662 H 154.404 -1.56319 -3.46907 0
M  V30 1663 H 153.916 -3.04577 -2.40529 0
M  V30 1664 H 152.017 -0.897827 -3.61621 0
M  V30 1665 H 152.13 -2.75778 -3.9177 0
M  V30 1666 H 150.494 -1.38591 -2.13693 0
M  V30 1667 H 151.277 -2.99372 -1.68022 0
M  V30 1668 N 153.722 1.14298 -1.08507 0
M  V30 1669 C 154.672 2.17449 -0.685569 0
M  V30 1670 C 155.656 1.58167 0.295315 0
M  V30 1671 O 156.848 1.76675 0.107172 0
M  V30 1672 C 153.977 3.43161 -0.0975318 0
M  V30 1673 C 153.063 4.09471 -1.10426 0
M  V30 1674 N 153.454 4.51089 -2.28806 0
M  V30 1675 C 151.752 4.35976 -0.940258 0
M  V30 1676 C 152.453 5.02654 -2.9277 0
M  V30 1677 N 151.429 4.96927 -2.20374 0
M  V30 1678 H 155.231 2.47369 -1.587 0
M  V30 1679 H 152.745 1.30992 -0.959936 0
M  V30 1680 H 154.742 4.16388 0.20664 0
M  V30 1681 H 153.402 3.14719 0.798872 0
M  V30 1682 H 154.413 4.44097 -2.66455 0
M  V30 1683 H 151.09 4.17386 -0.0977441 0
M  V30 1684 H 152.48 5.44723 -3.93352 0
M  V30 1685 N 155.201 0.870884 1.31352 0
M  V30 1686 C 156.131 0.343096 2.30966 0
M  V30 1687 C 157.112 -0.566507 1.60389 0
M  V30 1688 O 158.297 -0.483336 1.88089 0
M  V30 1689 C 155.427 -0.455487 3.443 0
M  V30 1690 C 154.381 0.361103 4.26474 0
M  V30 1691 C 153.707 -0.563221 5.31725 0
M  V30 1692 C 155.007 1.59566 4.97329 0
M  V30 1693 H 156.701 1.17548 2.75359 0
M  V30 1694 H 154.247 0.566686 1.32381 0
M  V30 1695 H 156.2 -0.83525 4.13039 0
M  V30 1696 H 154.924 -1.32139 2.98675 0
M  V30 1697 H 153.583 0.722825 3.59403 0
M  V30 1698 H 153.231 -1.42643 4.82351 0
M  V30 1699 H 152.931 -0.0207409 5.87596 0
M  V30 1700 H 154.455 -0.939808 6.03324 0
M  V30 1701 H 155.869 1.28728 5.58661 0
M  V30 1702 H 154.266 2.07728 5.63 0
M  V30 1703 H 155.336 2.34798 4.24262 0
M  V30 1704 N 156.679 -1.44442 0.630414 0
M  V30 1705 C 157.609 -2.33418 -0.0618083 0
M  V30 1706 C 158.59 -1.48165 -0.835541 0
M  V30 1707 O 159.775 -1.76886 -0.801564 0
M  V30 1708 C 156.905 -3.31222 -1.04449 0
M  V30 1709 C 155.859 -4.26288 -0.382436 0
M  V30 1710 C 155.185 -5.13954 -1.47497 0
M  V30 1711 C 156.485 -5.1744 0.710865 0
M  V30 1712 H 158.179 -2.91548 0.681184 0
M  V30 1713 H 155.725 -1.40191 0.329026 0
M  V30 1714 H 157.678 -3.92351 -1.53748 0
M  V30 1715 H 156.402 -2.71299 -1.81836 0
M  V30 1716 H 155.061 -3.6649 0.0899054 0
M  V30 1717 H 154.709 -4.50385 -2.2397 0
M  V30 1718 H 154.409 -5.7837 -1.03737 0
M  V30 1719 H 155.933 -5.77955 -1.96979 0
M  V30 1720 H 157.347 -5.72509 0.300996 0
M  V30 1721 H 155.744 -5.90455 1.07156 0
M  V30 1722 H 156.814 -4.58496 1.57829 0
M  V30 1723 N 158.157 -0.370918 -1.53173 0
M  V30 1724 C 159.12 0.460778 -2.24521 0
M  V30 1725 C 160.12 1.00536 -1.25496 0
M  V30 1726 O 161.31 0.890266 -1.49733 0
M  V30 1727 C 158.442 1.64457 -2.98608 0
M  V30 1728 H 159.635 -0.163613 -2.99453 0
M  V30 1729 H 157.188 -0.122699 -1.55818 0
M  V30 1730 H 157.923 2.30691 -2.2793 0
M  V30 1731 H 157.708 1.26099 -3.7127 0
M  V30 1732 H 159.198 2.23384 -3.5283 0
M  V30 1733 N 159.635 1.57281 -0.100228 0
M  V30 1734 C 160.583 2.15542 0.874328 0
M  V30 1735 C 161.577 1.09962 1.28859 0
M  V30 1736 O 162.783 1.28298 1.26252 0
M  V30 1737 H 159.158 0.689567 0.300003 0
M  V30 1738 H 161.129 2.96241 0.35829 0
M  V30 1739 C 159.878 2.75454 2.1218 0
M  V30 1740 H 159.201 3.56384 1.81193 0
M  V30 1741 H 160.641 3.19781 2.78417 0
M  V30 1742 C 159.1 1.71602 2.89921 0
M  V30 1743 O 159.63 1.15804 3.84646 0
M  V30 1744 N 157.836 1.41975 2.53558 0
M  V30 1745 H 157.383 1.87539 1.76598 0
M  V30 1746 H 157.341 0.727274 3.05873 0
M  V30 1747 N 161.113 -0.173488 1.56642 0
M  V30 1748 C 162.338 -0.910149 1.86363 0
M  V30 1749 C 162.763 -1.75132 0.686318 0
M  V30 1750 O 162.121 -1.77595 -0.364643 0
M  V30 1751 C 162.169 -1.76447 3.14482 0
M  V30 1752 O 161.273 -2.86584 2.96553 0
M  V30 1753 H 160.614 -0.255086 0.613047 0
M  V30 1754 H 163.144 -0.172283 2.03873 0
M  V30 1755 H 163.154 -2.16483 3.45831 0
M  V30 1756 H 161.829 -1.14658 3.99783 0
M  V30 1757 H 160.406 -2.50146 2.76553 0
M  V30 1758 N 162.591 -1.51276 -0.441967 0
M  V30 1759 C 163.538 -1.72256 -1.53612 0
M  V30 1760 C 164.508 -0.564164 -1.56225 0
M  V30 1761 O 165.693 -0.798074 -1.73307 0
M  V30 1762 C 162.833 -1.84932 -2.91366 0
M  V30 1763 C 161.946 -3.12459 -2.98317 0
M  V30 1764 C 161.081 -3.15758 -4.27166 0
M  V30 1765 C 160.12 -4.37619 -4.27967 0
M  V30 1766 N 159.257 -4.38493 -5.48333 0
M  V30 1767 H 164.097 -2.65654 -1.35026 0
M  V30 1768 H 161.634 -1.31662 -0.656009 0
M  V30 1769 H 163.592 -1.90263 -3.7129 0
M  V30 1770 H 162.222 -0.949461 -3.08521 0
M  V30 1771 H 161.274 -3.1646 -2.11086 0
M  V30 1772 H 162.586 -4.02382 -2.94771 0
M  V30 1773 H 161.74 -3.19979 -5.15459 0
M  V30 1774 H 160.479 -2.23715 -4.33362 0
M  V30 1775 H 159.484 -4.33579 -3.38067 0
M  V30 1776 H 160.709 -5.30921 -4.23438 0
M  V30 1777 H 158.655 -3.49318 -5.55259 0
M  V30 1778 H 158.572 -5.22219 -5.46647 0
M  V30 1779 H 159.84 -4.469 -6.38671 0
M  V30 1780 N 164.069 0.697108 -1.41344 0
M  V30 1781 C 165.315 1.4593 -1.40827 0
M  V30 1782 C 165.648 1.94193 -0.0167098 0
M  V30 1783 O 164.923 1.69425 0.955263 0
M  V30 1784 C 165.206 2.67229 -2.41373 0
M  V30 1785 C 165.059 2.24741 -3.8963 0
M  V30 1786 C 166.378 3.69423 -2.39196 0
M  V30 1787 H 163.497 0.529303 -0.512842 0
M  V30 1788 H 166.139 0.794112 -1.72609 0
M  V30 1789 H 164.289 3.23982 -2.14401 0
M  V30 1790 H 165.961 1.73327 -4.27499 0
M  V30 1791 H 164.204 1.56542 -4.0457 0
M  V30 1792 H 164.875 3.1177 -4.55525 0
M  V30 1793 H 167.351 3.2234 -2.63128 0
M  V30 1794 H 166.227 4.51907 -3.11563 0
M  V30 1795 H 166.488 4.19012 -1.41001 0
M  V30 1796 N 165.547 1.27147 0.931209 0
M  V30 1797 C 166.457 1.11372 2.06478 0
M  V30 1798 C 167.473 0.044645 1.73943 0
M  V30 1799 O 168.649 0.250417 1.99837 0
M  V30 1800 C 165.714 0.758838 3.38294 0
M  V30 1801 C 164.775 1.90841 3.84549 0
M  V30 1802 C 164.008 1.57036 5.10074 0
M  V30 1803 O 164.231 0.476645 5.68405 0
M  V30 1804 O 163.165 2.40839 5.51616 0
M  V30 1805 H 166.991 2.06493 2.22698 0
M  V30 1806 H 164.576 1.06301 1.04978 0
M  V30 1807 H 166.458 0.574098 4.17471 0
M  V30 1808 H 165.133 -0.162879 3.2329 0
M  V30 1809 H 164.04 2.14819 3.06274 0
M  V30 1810 H 165.373 2.81021 4.04089 0
M  V30 1811 N 167.025 -1.13721 1.09112 0
M  V30 1812 C 168.436 -1.6648 0.845068 0
M  V30 1813 C 168.787 -1.85911 -0.62701 0
M  V30 1814 O 167.912 -1.57556 -1.48341 0
M  V30 1815 C 168.507 -3.02413 1.52748 0
M  V30 1816 C 167.066 -3.52176 1.32849 0
M  V30 1817 C 166.213 -2.27492 1.58564 0
M  V30 1818 H 169.164 -0.976872 1.25072 0
M  V30 1819 H 169.185 -3.68223 0.958752 0
M  V30 1820 H 168.697 -2.88238 2.59885 0
M  V30 1821 H 166.798 -3.7156 0.278137 0
M  V30 1822 H 166.911 -4.32499 2.0611 0
M  V30 1823 H 165.275 -2.33923 1.00758 0
M  V30 1824 H 166.058 -2.15886 2.66924 0
M  V30 1825 N 168.503 -0.877838 -1.30888 0
M  V30 1826 C 169.752 -0.488793 -1.95688 0
M  V30 1827 C 170.065 0.965485 -1.70111 0
M  V30 1828 O 171.271 1.46104 -2.28836 0
M  V30 1829 C 169.727 -0.823201 -3.50359 0
M  V30 1830 C 169.335 -2.29477 -3.84765 0
M  V30 1831 C 171.079 -0.503009 -4.21509 0
M  V30 1832 C 168.986 -2.57118 -5.32583 0
M  V30 1833 H 167.916 -0.179062 -0.732429 0
M  V30 1834 H 170.567 -1.07183 -1.48943 0
M  V30 1835 H 168.949 -0.169331 -3.95638 0
M  V30 1836 H 170.123 -2.99236 -3.5042 0
M  V30 1837 H 168.438 -2.58178 -3.267 0
M  V30 1838 H 171.035 -0.68665 -5.30273 0
M  V30 1839 H 171.378 0.557109 -4.12555 0
M  V30 1840 H 171.911 -1.11376 -3.8189 0
M  V30 1841 H 168.65 -3.61843 -5.4658 0
M  V30 1842 H 168.17 -1.91961 -5.68253 0
M  V30 1843 H 169.849 -2.42251 -5.99936 0
M  V30 1844 N 169.982 1.44106 -0.638065 0
M  V30 1845 C 171.393 1.85316 -0.226894 0
M  V30 1846 C 171.744 1.53399 1.22324 0
M  V30 1847 O 170.869 0.975463 1.93167 0
M  V30 1848 C 171.464 3.3637 -0.405013 0
M  V30 1849 C 170.023 3.76369 -0.0482902 0
M  V30 1850 C 169.17 2.67921 -0.715108 0
M  V30 1851 H 172.121 1.34474 -0.842764 0
M  V30 1852 H 172.142 3.7885 0.354 0
M  V30 1853 H 171.654 3.59569 -1.46053 0
M  V30 1854 H 169.755 3.58784 1.00522 0
M  V30 1855 H 169.868 4.76856 -0.463187 0
M  V30 1856 H 168.232 2.54259 -0.149753 0
M  V30 1857 H 169.015 2.93951 -1.77335 0
M  V30 1858 N 171.46 0.379036 1.52974 0
M  V30 1859 C 172.706 -0.199244 2.02422 0
M  V30 1860 C 173.061 -1.4532 1.26095 0
M  V30 1861 O 172.354 -1.88377 0.34996 0
M  V30 1862 C 172.548 -0.53096 3.53434 0
M  V30 1863 C 172.377 0.689298 4.44386 0
M  V30 1864 C 171.147 1.20546 4.9071 0
M  V30 1865 C 173.345 1.55856 4.90116 0
M  V30 1866 N 171.327 2.38434 5.65705 0
M  V30 1867 C 172.698 2.58396 5.63588 0
M  V30 1868 C 174.753 1.57986 4.7217 0
M  V30 1869 C 173.456 3.62939 6.21022 0
M  V30 1870 C 175.482 2.6143 5.30479 0
M  V30 1871 C 174.844 3.62693 6.03849 0
M  V30 1872 H 170.943 -0.0352671 0.781204 0
M  V30 1873 H 173.527 0.526614 1.87443 0
M  V30 1874 H 171.698 -1.22588 3.68547 0
M  V30 1875 H 173.43 -1.0955 3.89591 0
M  V30 1876 H 170.185 0.768022 4.67331 0
M  V30 1877 H 170.609 2.98055 6.07859 0
M  V30 1878 H 175.251 0.810475 4.14959 0
M  V30 1879 H 172.969 4.40751 6.77321 0
M  V30 1880 H 176.555 2.63949 5.18481 0
M  V30 1881 H 175.435 4.41424 6.48163 0
M  V30 1882 N 172.938 -1.57226 0.108567 0
M  V30 1883 C 173.886 -2.16002 -0.862885 0
M  V30 1884 C 174.88 -1.10644 -1.28274 0
M  V30 1885 O 176.086 -1.28966 -1.2557 0
M  V30 1886 H 172.461 -0.691148 -0.296342 0
M  V30 1887 H 174.432 -2.96427 -0.342575 0
M  V30 1888 C 173.181 -2.76576 -2.10716 0
M  V30 1889 H 172.504 -3.5734 -1.793 0
M  V30 1890 H 173.944 -3.21253 -2.76717 0
M  V30 1891 C 172.403 -1.73137 -2.89007 0
M  V30 1892 O 172.933 -1.17842 -3.84026 0
M  V30 1893 N 171.139 -1.43317 -2.52801 0
M  V30 1894 H 170.686 -1.88473 -1.75601 0
M  V30 1895 H 170.644 -0.743485 -3.05483 0
M  V30 1896 N 174.416 0.165178 -1.56732 0
M  V30 1897 C 175.348 1.22911 -1.93457 0
M  V30 1898 C 176.361 1.40152 -0.828333 0
M  V30 1899 O 177.55 1.40046 -1.10677 0
M  V30 1900 C 174.65 2.59686 -2.17753 0
M  V30 1901 C 173.823 2.63663 -3.48999 0
M  V30 1902 C 172.882 3.81845 -3.62051 0
M  V30 1903 O 171.908 3.67559 -4.34613 0
M  V30 1904 N 173.11 4.98557 -2.97357 0
M  V30 1905 H 175.875 0.917118 -2.85323 0
M  V30 1906 H 173.436 0.354895 -1.57962 0
M  V30 1907 H 175.428 3.37225 -2.23743 0
M  V30 1908 H 173.998 2.83251 -1.32242 0
M  V30 1909 H 173.218 1.72173 -3.54612 0
M  V30 1910 H 174.506 2.63336 -4.35352 0
M  V30 1911 H 173.904 5.13065 -2.38287 0
M  V30 1912 H 172.461 5.73936 -3.08934 0
M  V30 1913 N 175.894 1.51508 0.433938 0
M  V30 1914 C 176.857 1.72473 1.50949 0
M  V30 1915 C 177.857 0.594725 1.49398 0
M  V30 1916 O 179.047 0.862315 1.5136 0
M  V30 1917 C 176.179 1.78431 2.90474 0
M  V30 1918 H 177.372 2.68467 1.33662 0
M  V30 1919 H 174.925 1.41549 0.662836 0
M  V30 1920 H 175.66 0.842645 3.13161 0
M  V30 1921 H 175.445 2.60558 2.93005 0
M  V30 1922 H 176.935 1.96479 3.68491 0
M  V30 1923 N 177.372 -0.689602 1.41712 0
M  V30 1924 C 178.282 -1.83314 1.46401 0
M  V30 1925 C 179.298 -1.7036 0.35405 0
M  V30 1926 O 180.474 -1.92171 0.602692 0
M  V30 1927 C 177.539 -3.19344 1.34982 0
M  V30 1928 C 176.6 -3.44363 2.56344 0
M  V30 1929 C 175.833 -4.73904 2.45461 0
M  V30 1930 O 176.056 -5.508 1.48241 0
M  V30 1931 O 174.99 -4.99839 3.35328 0
M  V30 1932 H 178.816 -1.82314 2.42889 0
M  V30 1933 H 176.401 -0.843438 1.23315 0
M  V30 1934 H 178.283 -4.00547 1.3092 0
M  V30 1935 H 176.958 -3.21014 0.41612 0
M  V30 1936 H 175.865 -2.63067 2.65982 0
M  V30 1937 H 177.198 -3.47512 3.48563 0
M  V30 1938 N 178.85 -1.27639 -0.924453 0
M  V30 1939 C 180.098 -1.13941 -1.66918 0
M  V30 1940 C 180.419 0.314589 -1.92446 0
M  V30 1941 O 179.689 1.21964 -1.53303 0
M  V30 1942 H 178.269 -0.418678 -0.618642 0
M  V30 1943 H 180.931 -1.60213 -1.10985 0
M  V30 1944 H 180.027 -1.67094 -2.63602 0
M  V30 1945 N 180.328 1.1314 -1.09713 0
M  V30 1946 C 181.605 1.80762 -0.747302 0
M  V30 1947 C 181.985 1.96663 0.767265 0
M  V30 1948 O 181.333 1.53706 1.69076 0
M  V30 1949 C 181.543 3.15606 -1.48975 0
M  V30 1950 C 182.891 3.90914 -1.65746 0
M  V30 1951 O 183.915 3.25239 -1.45251 0
M  V30 1952 O 182.774 5.08718 -1.9967 0
M  V30 1953 H 179.868 0.782103 -0.268782 0
M  V30 1954 H 182.414 1.20041 -1.19951 0
M  V30 1955 H 181.186 2.99278 -2.52088 0
M  V30 1956 H 180.809 3.84029 -1.02991 0
M  V30 1957 N 181.806 0.884767 1.30421 0
M  V30 1958 C 182.736 0.367574 2.30589 0
M  V30 1959 C 183.717 -0.549464 1.60981 0
M  V30 1960 O 184.902 -0.46336 1.88591 0
M  V30 1961 C 182.032 -0.418944 3.44764 0
M  V30 1962 C 180.986 0.406316 4.26067 0
M  V30 1963 C 180.312 -0.506793 5.32293 0
M  V30 1964 C 181.612 1.64832 4.95608 0
M  V30 1965 H 183.306 1.20462 2.74097 0
M  V30 1966 H 180.852 0.580695 1.31772 0
M  V30 1967 H 182.805 -0.791395 4.13902 0
M  V30 1968 H 181.529 -1.28964 3.0006 0
M  V30 1969 H 180.188 0.760903 3.58617 0
M  V30 1970 H 179.836 -1.37519 4.83836 0
M  V30 1971 H 179.536 0.0415828 5.87585 0
M  V30 1972 H 181.06 -0.875764 6.04287 0
M  V30 1973 H 182.474 1.34646 5.57264 0
M  V30 1974 H 180.871 2.13688 5.60765 0
M  V30 1975 H 181.941 2.39284 4.21748 0
M  V30 1976 N 183.284 -1.43765 0.645699 0
M  V30 1977 C 184.512 -2.06253 0.163556 0
M  V30 1978 C 184.927 -1.48352 -1.16778 0
M  V30 1979 O 184.284 -0.611932 -1.71935 0
M  V30 1980 C 184.335 -3.61453 0.0583186 0
M  V30 1981 O 184.056 -4.172 1.33702 0
M  V30 1982 C 185.557 -4.41002 -0.450795 0
M  V30 1983 H 182.777 -0.665413 0.0864077 0
M  V30 1984 H 185.321 -1.84396 0.884222 0
M  V30 1985 H 183.476 -3.82522 -0.612865 0
M  V30 1986 H 183.89 -5.10791 1.19131 0
M  V30 1987 H 185.364 -5.49966 -0.473403 0
M  V30 1988 H 185.841 -4.13488 -1.48068 0
M  V30 1989 H 186.447 -4.24886 0.187637 0
M  V30 1990 N 184.763 -0.387143 -1.52771 0
M  V30 1991 C 186.174 0.0873634 -1.86495 0
M  V30 1992 C 186.525 1.46336 -1.30691 0
M  V30 1993 O 185.65 2.068 -0.637409 0
M  V30 1994 C 186.245 0.165305 -3.38396 0
M  V30 1995 C 184.804 0.584101 -3.7184 0
M  V30 1996 C 183.951 -0.255279 -2.76122 0
M  V30 1997 H 186.902 -0.605104 -1.46711 0
M  V30 1998 H 186.923 0.984848 -3.67534 0
M  V30 1999 H 186.435 -0.836301 -3.78982 0
M  V30 2000 H 184.536 1.59315 -3.36823 0
M  V30 2001 H 184.649 0.343749 -4.77865 0
M  V30 2002 H 183.013 0.279126 -2.53166 0
M  V30 2003 H 183.796 -1.25482 -3.19545 0
M  V30 2004 N 186.241 1.57166 -0.116904 0
M  V30 2005 C 187.518 1.86645 0.585049 0
M  V30 2006 C 187.898 1.0177 1.84949 0
M  V30 2007 O 187.246 0.0960379 2.28298 0
M  V30 2008 C 187.456 3.37736 0.879507 0
M  V30 2009 C 188.804 4.06289 1.23348 0
M  V30 2010 O 189.828 3.42743 0.969836 0
M  V30 2011 O 188.687 5.18455 1.7282 0
M  V30 2012 H 185.781 0.772593 0.295007 0
M  V30 2013 H 188.327 1.69025 -0.151249 0
M  V30 2014 H 187.099 3.91296 -0.0166136 0
M  V30 2015 H 186.722 3.6078 1.67103 0
M  V30 2016 N 187.719 -0.156864 1.56817 0
M  V30 2017 C 188.629 -1.2136 2.00771 0
M  V30 2018 C 189.645 -1.47598 0.921459 0
M  V30 2019 O 190.821 -1.59462 1.2302 0
M  V30 2020 C 187.886 -2.52943 2.37109 0
M  V30 2021 C 186.947 -2.34439 3.59634 0
M  V30 2022 C 186.18 -3.59748 3.94229 0
M  V30 2023 O 186.403 -4.65526 3.29609 0
M  V30 2024 O 185.337 -3.52998 4.8752 0
M  V30 2025 H 189.163 -0.870468 2.90958 0
M  V30 2026 H 186.748 -0.36484 1.44877 0
M  V30 2027 H 188.63 -3.30538 2.61386 0
M  V30 2028 H 187.305 -2.86806 1.5008 0
M  V30 2029 H 186.212 -1.54828 3.40557 0
M  V30 2030 H 187.545 -2.05496 4.4725 0
M  V30 2031 N 189.197 -1.51736 -0.425897 0
M  V30 2032 C 190.443 -1.65214 -1.1761 0
M  V30 2033 C 190.776 -0.372778 -1.90589 0
M  V30 2034 O 190.051 0.628139 -1.84078 0
M  V30 2035 C 190.334 -2.86312 -2.18398 0
M  V30 2036 C 190.187 -4.24254 -1.49426 0
M  V30 2037 C 191.506 -3.02925 -3.19256 0
M  V30 2038 H 188.625 -0.601263 -0.426206 0
M  V30 2039 H 191.267 -1.8425 -0.463882 0
M  V30 2040 H 189.417 -2.70213 -2.79137 0
M  V30 2041 H 191.089 -4.52046 -0.919362 0
M  V30 2042 H 189.332 -4.26426 -0.796432 0
M  V30 2043 H 190.003 -5.05001 -2.22885 0
M  V30 2044 H 192.479 -3.1781 -2.68581 0
M  V30 2045 H 191.355 -3.89199 -3.8706 0
M  V30 2046 H 191.616 -2.15497 -3.86023 0
M  V30 2047 N 190.675 0.682077 -1.42076 0
M  V30 2048 C 191.921 1.44428 -1.42367 0
M  V30 2049 C 192.254 1.94164 -0.0373056 0
M  V30 2050 O 191.529 1.70429 0.937239 0
M  V30 2051 C 191.812 2.64654 -2.44194 0
M  V30 2052 C 191.665 2.20596 -3.91991 0
M  V30 2053 C 192.984 3.66865 -2.431 0
M  V30 2054 H 190.103 0.523834 -0.518428 0
M  V30 2055 H 192.745 0.77576 -1.73442 0
M  V30 2056 H 190.895 3.2169 -2.17826 0
M  V30 2057 H 192.567 1.68783 -4.29313 0
M  V30 2058 H 190.81 1.52242 -4.06208 0
M  V30 2059 H 191.481 3.06921 -4.58807 0
M  V30 2060 H 193.957 3.19531 -2.66532 0
M  V30 2061 H 192.833 4.48577 -3.16339 0
M  V30 2062 H 193.094 4.17493 -1.45437 0
M  V30 2063 N 192.153 1.28127 0.917671 0
M  V30 2064 C 193.116 1.11744 2.00115 0
M  V30 2065 C 194.116 0.0583052 1.60694 0
M  V30 2066 O 195.306 0.303755 1.71531 0
M  V30 2067 C 192.438 0.704862 3.33533 0
M  V30 2068 H 193.631 2.07966 2.16079 0
M  V30 2069 H 191.184 1.11058 1.09981 0
M  V30 2070 H 191.919 -0.258299 3.2327 0
M  V30 2071 H 191.704 1.4699 3.63505 0
M  V30 2072 H 193.194 0.612768 4.1308 0
M  V30 2073 N 193.631 -1.12557 1.10312 0
M  V30 2074 C 194.561 -2.20341 0.772798 0
M  V30 2075 C 195.542 -1.68198 -0.25365 0
M  V30 2076 O 196.727 -1.93831 -0.119699 0
M  V30 2077 C 193.857 -3.46709 0.202443 0
M  V30 2078 C 192.811 -4.11996 1.15943 0
M  V30 2079 C 192.137 -5.328 0.450345 0
M  V30 2080 C 193.437 -4.5828 2.50552 0
M  V30 2081 H 195.131 -2.48229 1.674 0
M  V30 2082 H 192.677 -1.19308 0.806326 0
M  V30 2083 H 194.63 -4.2138 -0.0407752 0
M  V30 2084 H 193.354 -3.18245 -0.734001 0
M  V30 2085 H 192.013 -3.39305 1.38808 0
M  V30 2086 H 191.661 -5.00602 -0.490531 0
M  V30 2087 H 191.361 -5.7743 1.08851 0
M  V30 2088 H 192.885 -6.10219 0.215642 0
M  V30 2089 H 194.299 -5.2433 2.31843 0
M  V30 2090 H 192.696 -5.13683 3.10242 0
M  V30 2091 H 193.766 -3.72329 3.10643 0
M  V30 2092 N 195.109 -0.891671 -1.2995 0
M  V30 2093 C 196.355 -0.514261 -1.96171 0
M  V30 2094 C 196.688 0.935506 -1.70182 0
M  V30 2095 O 195.963 1.66204 -1.01028 0
M  V30 2096 C 196.246 -0.797719 -3.51153 0
M  V30 2097 C 196.099 -2.2986 -3.86632 0
M  V30 2098 C 197.418 -0.278749 -4.39216 0
M  V30 2099 H 194.537 -0.188314 -0.712535 0
M  V30 2100 H 197.179 -1.11689 -1.53706 0
M  V30 2101 H 195.329 -0.284826 -3.87455 0
M  V30 2102 H 197.001 -2.88042 -3.60319 0
M  V30 2103 H 195.244 -2.76257 -3.34462 0
M  V30 2104 H 195.915 -2.44753 -4.94773 0
M  V30 2105 H 198.391 -0.717825 -4.09862 0
M  V30 2106 H 197.267 -0.506353 -5.46559 0
M  V30 2107 H 197.528 0.820266 -4.34424 0
M  V30 2108 N 196.587 1.43421 -0.653314 0
M  V30 2109 C 197.835 2.01414 -0.166415 0
M  V30 2110 C 198.156 1.51803 1.22397 0
M  V30 2111 O 197.426 0.730693 1.81763 0
M  V30 2112 H 196.006 0.744703 -0.0585319 0
M  V30 2113 H 198.668 1.75629 -0.845003 0
M  V30 2114 H 197.764 3.11734 -0.151111 0
M  V30 2115 N 198.065 0.39524 1.52563 0
M  V30 2116 C 198.997 -0.472201 2.24283 0
M  V30 2117 C 200.01 -1.02178 1.26742 0
M  V30 2118 O 201.199 -0.923097 1.52778 0
M  V30 2119 C 198.299 -1.66775 2.95024 0
M  V30 2120 C 197.472 -1.2445 4.19322 0
M  V30 2121 C 196.531 -2.30539 4.7301 0
M  V30 2122 O 195.557 -1.91702 5.35947 0
M  V30 2123 N 196.759 -3.6253 4.53379 0
M  V30 2124 H 199.524 0.142282 2.99362 0
M  V30 2125 H 197.085 0.2219 1.60372 0
M  V30 2126 H 199.077 -2.37283 3.27839 0
M  V30 2127 H 197.647 -2.18845 2.23217 0
M  V30 2128 H 196.867 -0.368069 3.92478 0
M  V30 2129 H 198.155 -0.938457 5.0007 0
M  V30 2130 H 197.553 -3.96841 4.03154 0
M  V30 2131 H 196.11 -4.29055 4.90668 0
M  V30 2132 N 199.544 -1.57102 0.125237 0
M  V30 2133 C 200.792 -1.95021 -0.530198 0
M  V30 2134 C 201.113 -1.00982 -1.66816 0
M  V30 2135 O 200.383 -0.0672693 -1.95784 0
M  V30 2136 H 198.963 -0.720046 -0.198853 0
M  V30 2137 H 201.625 -1.93916 0.19564 0
M  V30 2138 H 200.721 -2.98211 -0.920681 0
M  V30 2139 N 201.022 0.148545 -1.56898 0
M  V30 2140 C 201.952 1.18524 -2.01182 0
M  V30 2141 C 202.933 1.4489 -0.891123 0
M  V30 2142 O 204.118 1.55836 -1.15882 0
M  V30 2143 C 201.248 2.51879 -2.39112 0
M  V30 2144 C 200.202 2.40038 -3.54353 0
M  V30 2145 C 199.528 3.78089 -3.78091 0
M  V30 2146 C 200.828 1.88577 -4.87069 0
M  V30 2147 H 202.522 0.817029 -2.88036 0
M  V30 2148 H 200.068 0.391575 -1.38574 0
M  V30 2149 H 202.021 3.24627 -2.68692 0
M  V30 2150 H 200.745 2.90532 -1.49193 0
M  V30 2151 H 199.404 1.69742 -3.24936 0
M  V30 2152 H 199.052 4.14175 -2.85426 0
M  V30 2153 H 198.752 3.71028 -4.55645 0
M  V30 2154 H 200.276 4.52387 -4.10095 0
M  V30 2155 H 201.69 2.51117 -5.15377 0
M  V30 2156 H 200.087 1.9241 -5.68417 0
M  V30 2157 H 201.157 0.84136 -4.77545 0
M  V30 2158 N 202.5 1.5196 0.417844 0
M  V30 2159 C 203.432 1.70895 1.52733 0
M  V30 2160 C 204.445 0.589405 1.51756 0
M  V30 2161 O 205.634 0.864312 1.56179 0
M  V30 2162 C 202.734 1.72627 2.91639 0
M  V30 2163 C 201.907 3.01479 3.16905 0
M  V30 2164 C 200.966 2.95139 4.35637 0
M  V30 2165 O 199.992 3.69059 4.3334 0
M  V30 2166 N 201.194 2.12328 5.40275 0
M  V30 2167 H 203.959 2.66612 1.36888 0
M  V30 2168 H 201.52 1.50089 0.607037 0
M  V30 2169 H 203.512 1.65928 3.6912 0
M  V30 2170 H 202.082 0.844216 3.00985 0
M  V30 2171 H 201.302 3.21895 2.27546 0
M  V30 2172 H 202.59 3.86736 3.30625 0
M  V30 2173 H 201.988 1.51685 5.44985 0
M  V30 2174 H 200.545 2.11494 6.16534 0
M  V30 2175 N 203.978 -0.674533 1.42435 0
M  V30 2176 C 204.888 -1.81751 1.48337 0
M  V30 2177 C 205.904 -1.69975 0.372099 0
M  V30 2178 O 207.08 -1.91521 0.62304 0
M  V30 2179 C 204.145 -3.17895 1.38361 0
M  V30 2180 C 203.206 -3.41625 2.59982 0
M  V30 2181 C 202.439 -4.71274 2.50473 0
M  V30 2182 O 202.662 -5.49197 1.54075 0
M  V30 2183 O 201.596 -4.96254 3.4061 0
M  V30 2184 H 205.422 -1.79728 2.44809 0
M  V30 2185 H 203.007 -0.830312 1.24202 0
M  V30 2186 H 204.889 -3.99136 1.35161 0
M  V30 2187 H 203.564 -3.20555 0.450144 0
M  V30 2188 H 202.471 -2.60231 2.68757 0
M  V30 2189 H 203.804 -3.43796 3.52229 0
M  V30 2190 N 205.456 -1.28612 -0.910864 0
M  V30 2191 C 206.704 -1.15705 -1.65701 0
M  V30 2192 C 207.025 0.29416 -1.92769 0
M  V30 2193 O 206.295 1.20331 -1.54588 0
M  V30 2194 H 204.875 -0.425216 -0.614167 0
M  V30 2195 H 207.537 -1.61381 -1.0928 0
M  V30 2196 H 206.633 -1.6988 -2.61815 0
M  V30 2197 N 206.934 1.1197 -1.10907 0
M  V30 2198 C 207.844 2.21433 -0.774896 0
M  V30 2199 C 208.86 1.72478 0.229657 0
M  V30 2200 O 210.036 2.01288 0.0672008 0
M  V30 2201 C 207.101 3.4602 -0.216986 0
M  V30 2202 C 206.162 4.09791 -1.27944 0
M  V30 2203 C 205.395 5.28431 -0.748055 0
M  V30 2204 O 205.618 5.68823 0.423833 0
M  V30 2205 O 204.552 5.82644 -1.51027 0
M  V30 2206 H 208.378 2.5242 -1.68873 0
M  V30 2207 H 205.963 1.20399 -0.884555 0
M  V30 2208 H 207.845 4.21304 0.090059 0
M  V30 2209 H 206.52 3.16698 0.669633 0
M  V30 2210 H 205.427 3.36265 -1.63941 0
M  V30 2211 H 206.76 4.4328 -2.13925 0
M  V30 2212 N 208.412 0.89855 1.29475 0
M  V30 2213 C 209.828 0.594483 1.48115 0
M  V30 2214 C 210.028 -0.86431 1.82022 0
M  V30 2215 O 209.084 -1.64457 1.91599 0
M  V30 2216 C 210.397 1.51932 2.59494 0
M  V30 2217 C 211.945 1.5244 2.7337 0
M  V30 2218 C 212.42 2.43548 3.87877 0
M  V30 2219 N 213.911 2.41589 3.95208 0
M  V30 2220 C 214.646 3.08789 4.83153 0
M  V30 2221 N 214.142 3.85265 5.75798 0
M  V30 2222 N 215.935 2.97952 4.76635 0
M  V30 2223 H 208.086 1.84207 1.05742 0
M  V30 2224 H 210.349 0.789251 0.525154 0
M  V30 2225 H 210.055 2.55865 2.41301 0
M  V30 2226 H 209.929 1.23899 3.56271 0
M  V30 2227 H 212.316 0.492518 2.90961 0
M  V30 2228 H 212.397 1.8451 1.77172 0
M  V30 2229 H 212.041 3.46829 3.71041 0
M  V30 2230 H 211.971 2.08788 4.83441 0
M  V30 2231 H 214.462 1.86025 3.28943 0
M  V30 2232 H 214.775 4.33598 6.39697 0
M  V30 2233 H 213.12 3.89371 5.75687 0
M  V30 2234 H 216.311 2.37723 4.03244 0
M  V30 2235 H 216.484 3.50599 5.44962 0
M  V30 2236 N 209.89 -1.43072 0.660911 0
M  V30 2237 C 211.167 -1.95307 0.107017 0
M  V30 2238 C 211.547 -1.60192 -1.37484 0
M  V30 2239 O 210.895 -0.890949 -2.10415 0
M  V30 2240 C 211.105 -3.47124 0.361402 0
M  V30 2241 C 212.453 -4.23738 0.270455 0
M  V30 2242 O 213.477 -3.54981 0.294382 0
M  V30 2243 O 212.336 -5.46131 0.200737 0
M  V30 2244 H 209.43 -0.826984 -0.00517729 0
M  V30 2245 H 211.976 -1.52972 0.734681 0
M  V30 2246 H 210.748 -3.65837 1.38848 0
M  V30 2247 H 210.371 -3.96475 -0.298953 0
M  V30 2248 N 211.368 -0.403325 -1.52352 0
M  V30 2249 C 212.615 0.174347 -2.01748 0
M  V30 2250 C 212.943 1.45636 -1.2892 0
M  V30 2251 O 212.198 1.9193 -0.382258 0
M  V30 2252 C 212.497 0.474665 -3.54234 0
M  V30 2253 C 212.163 -0.717458 -4.45155 0
M  V30 2254 C 210.825 -1.04447 -4.69728 0
M  V30 2255 C 213.177 -1.51432 -4.98716 0
M  V30 2256 C 210.505 -2.16963 -5.45109 0
M  V30 2257 C 212.857 -2.6302 -5.75329 0
M  V30 2258 C 211.521 -2.96213 -5.98175 0
M  V30 2259 H 210.791 0.0637981 -0.738248 0
M  V30 2260 H 213.438 -0.543553 -1.83624 0
M  V30 2261 H 211.743 1.27406 -3.70506 0
M  V30 2262 H 213.44 0.934496 -3.89959 0
M  V30 2263 H 210.03 -0.452596 -4.26204 0
M  V30 2264 H 214.214 -1.27491 -4.79645 0
M  V30 2265 H 209.47 -2.43034 -5.61021 0
M  V30 2266 H 213.644 -3.25158 -6.15829 0
M  V30 2267 H 211.271 -3.83516 -6.56368 0
M  V30 2268 N 212.846 1.57033 -0.133567 0
M  V30 2269 C 214.094 1.953 0.519848 0
M  V30 2270 C 214.415 1.01866 1.66278 0
M  V30 2271 O 213.685 0.0776513 1.95746 0
M  V30 2272 H 212.265 0.721091 0.195032 0
M  V30 2273 H 214.927 1.93809 -0.205921 0
M  V30 2274 H 214.023 2.98695 0.904854 0
M  V30 2275 N 214.325 -0.140222 1.56975 0
M  V30 2276 C 215.571 -0.852949 1.83991 0
M  V30 2277 C 215.904 -1.80512 0.716187 0
M  V30 2278 O 215.179 -1.92479 -0.279681 0
M  V30 2279 C 215.462 -1.6215 3.21527 0
M  V30 2280 C 215.315 -0.690363 4.4447 0
M  V30 2281 C 216.634 -2.58247 3.56366 0
M  V30 2282 H 213.753 -0.308634 0.669264 0
M  V30 2283 H 216.395 -0.117898 1.89634 0
M  V30 2284 H 214.545 -2.24812 3.16847 0
M  V30 2285 H 216.217 -0.0742264 4.6124 0
M  V30 2286 H 214.46 -0.000396433 4.338 0
M  V30 2287 H 215.131 -1.2643 5.37326 0
M  V30 2288 H 217.607 -2.05701 3.61699 0
M  V30 2289 H 216.483 -3.09067 4.53617 0
M  V30 2290 H 216.744 -3.39923 2.82674 0
M  V30 2291 N 215.803 -1.52179 -0.40978 0
M  V30 2292 C 216.75 -1.75475 -1.49924 0
M  V30 2293 C 217.72 -0.597175 -1.54994 0
M  V30 2294 O 218.905 -0.834655 -1.71575 0
M  V30 2295 C 216.045 -1.9107 -2.87378 0
M  V30 2296 C 215.158 -3.18717 -2.91622 0
M  V30 2297 C 214.293 -3.24747 -4.20372 0
M  V30 2298 C 213.332 -4.46598 -4.18588 0
M  V30 2299 N 212.469 -4.50025 -5.38908 0
M  V30 2300 H 217.309 -2.68458 -1.29361 0
M  V30 2301 H 214.846 -1.33024 -0.627934 0
M  V30 2302 H 216.804 -1.98096 -3.6717 0
M  V30 2303 H 215.434 -1.01469 -3.06437 0
M  V30 2304 H 214.486 -3.20866 -2.04326 0
M  V30 2305 H 215.798 -4.08544 -2.86169 0
M  V30 2306 H 214.952 -3.30841 -5.08556 0
M  V30 2307 H 213.691 -2.32857 -4.28519 0
M  V30 2308 H 212.696 -4.40652 -3.28794 0
M  V30 2309 H 213.921 -5.39783 -4.12081 0
M  V30 2310 H 211.867 -3.61017 -5.47725 0
M  V30 2311 H 211.784 -5.33697 -5.35447 0
M  V30 2312 H 213.052 -4.60347 -6.29048 0
M  V30 2313 N 217.281 0.66697 -1.42791 0
M  V30 2314 C 218.244 1.76211 -1.46568 0
M  V30 2315 C 219.244 1.56896 -0.352196 0
M  V30 2316 O 220.434 1.63044 -0.613364 0
M  V30 2317 C 217.566 3.14935 -1.30494 0
M  V30 2318 H 218.759 1.74247 -2.44086 0
M  V30 2319 H 216.312 0.877342 -1.29354 0
M  V30 2320 H 217.047 3.2252 -0.339301 0
M  V30 2321 H 216.832 3.30359 -2.11199 0
M  V30 2322 H 218.322 3.94821 -1.36038 0
M  V30 2323 N 218.759 1.29093 0.90403 0
M  V30 2324 C 220.175 1.07011 1.1841 0
M  V30 2325 C 220.375 -0.181358 2.00682 0
M  V30 2326 O 219.431 -0.880331 2.36657 0
M  V30 2327 C 220.744 2.32311 1.90924 0
M  V30 2328 C 222.292 2.37587 2.03768 0
M  V30 2329 C 222.767 3.62679 2.79693 0
M  V30 2330 N 224.258 3.63376 2.87249 0
M  V30 2331 C 224.993 4.56848 3.46522 0
M  V30 2332 N 224.489 5.60648 4.06996 0
M  V30 2333 N 226.282 4.44426 3.44154 0
M  V30 2334 H 218.433 2.09412 0.354993 0
M  V30 2335 H 220.696 0.922181 0.219742 0
M  V30 2336 H 220.402 3.23536 1.37905 0
M  V30 2337 H 220.276 2.39483 2.91424 0
M  V30 2338 H 222.663 1.46853 2.55965 0
M  V30 2339 H 222.744 2.34403 1.02415 0
M  V30 2340 H 222.388 4.53762 2.28173 0
M  V30 2341 H 222.318 3.63119 3.81381 0
M  V30 2342 H 224.809 2.88321 2.44293 0
M  V30 2343 H 225.122 6.28101 4.50232 0
M  V30 2344 H 223.467 5.64463 4.05471 0
M  V30 2345 H 226.658 3.62529 2.96126 0
M  V30 2346 H 226.831 5.17457 3.90054 0
M  V30 2347 N 220.237 -1.11381 1.11499 0
M  V30 2348 C 221.462 -1.87475 0.887019 0
M  V30 2349 C 221.887 -1.79639 -0.557796 0
M  V30 2350 O 221.245 -1.15924 -1.39396 0
M  V30 2351 C 221.293 -3.34213 1.35403 0
M  V30 2352 O 220.397 -4.0903 0.526146 0
M  V30 2353 H 219.738 -0.582099 0.319463 0
M  V30 2354 H 222.268 -1.40785 1.48461 0
M  V30 2355 H 222.278 -3.8506 1.34881 0
M  V30 2356 H 220.953 -3.39232 2.40612 0
M  V30 2357 H 219.53 -3.68082 0.597522 0
M  V30 2358 N 221.715 -0.905404 -1.28997 0
M  V30 2359 C 222.964 -0.530191 -1.94607 0
M  V30 2360 C 223.277 0.929185 -1.72121 0
M  V30 2361 O 224.483 1.41218 -2.31883 0
M  V30 2362 C 222.939 -0.897333 -3.48534 0
M  V30 2363 C 222.547 -2.37587 -3.79811 0
M  V30 2364 C 224.291 -0.592304 -4.20347 0
M  V30 2365 C 222.198 -2.68357 -5.27009 0
M  V30 2366 H 221.128 -0.194558 -0.728466 0
M  V30 2367 H 223.779 -1.10318 -1.46636 0
M  V30 2368 H 222.161 -0.253214 -3.9519 0
M  V30 2369 H 223.335 -3.06602 -3.43994 0
M  V30 2370 H 221.65 -2.6505 -3.2115 0
M  V30 2371 H 224.247 -0.798975 -5.28697 0
M  V30 2372 H 224.59 0.469474 -4.13644 0
M  V30 2373 H 225.123 -1.19452 -3.79442 0
M  V30 2374 H 221.862 -3.73355 -5.38782 0
M  V30 2375 H 221.382 -2.03971 -5.64053 0
M  V30 2376 H 223.061 -2.54922 -5.94663 0
M  V30 2377 N 223.193 1.4272 -0.668489 0
M  V30 2378 C 224.123 2.335 -0.000100175 0
M  V30 2379 C 225.104 1.50328 0.795964 0
M  V30 2380 O 226.289 1.78949 0.754385 0
M  V30 2381 C 223.419 3.33874 0.956302 0
M  V30 2382 C 222.373 4.27152 0.269278 0
M  V30 2383 C 221.699 5.17684 1.33818 0
M  V30 2384 C 222.999 5.15373 -0.847805 0
M  V30 2385 H 224.693 2.89639 -0.758244 0
M  V30 2386 H 222.239 1.39269 -0.366079 0
M  V30 2387 H 224.192 3.9629 1.43292 0
M  V30 2388 H 222.916 2.76025 1.74579 0
M  V30 2389 H 221.575 3.66123 -0.187042 0
M  V30 2390 H 221.223 4.56165 2.1195 0
M  V30 2391 H 220.923 5.80918 0.883659 0
M  V30 2392 H 222.447 5.82974 1.81586 0
M  V30 2393 H 223.861 5.7151 -0.452681 0
M  V30 2394 H 222.258 5.87407 -1.22773 0
M  V30 2395 H 223.328 4.5415 -1.69929 0
M  V30 2396 N 224.671 0.411399 1.52136 0
M  V30 2397 C 225.911 -0.163143 2.03748 0
M  V30 2398 C 226.275 -1.42187 1.29022 0
M  V30 2399 O 227.476 -2.075 1.70872 0
M  V30 2400 C 225.747 -0.402651 3.55125 0
M  V30 2401 S 227.306 -0.944315 4.28519 0
M  V30 2402 H 224.124 -0.0439833 0.709638 0
M  V30 2403 H 226.726 0.56484 1.87163 0
M  V30 2404 H 225.43 0.520212 4.0709 0
M  V30 2405 H 224.961 -1.15844 3.75957 0
M  V30 2406 H 226.976 -2.22463 4.43536 0
M  V30 2407 N 226.149 -1.5696 0.141893 0
M  V30 2408 C 227.389 -1.9785 -0.513304 0
M  V30 2409 C 227.753 -1.02467 -1.62371 0
M  V30 2410 O 228.954 -1.32382 -2.33941 0
M  V30 2411 C 227.225 -3.42797 -1.01118 0
M  V30 2412 S 228.784 -4.05709 -1.67169 0
M  V30 2413 H 225.602 -0.691318 -0.166135 0
M  V30 2414 H 228.204 -1.94114 0.232398 0
M  V30 2415 H 226.908 -4.0995 -0.192179 0
M  V30 2416 H 226.439 -3.50235 -1.79162 0
M  V30 2417 H 228.454 -3.98342 -2.95868 0
M  V30 2418 N 227.627 0.131896 -1.57047 0
M  V30 2419 C 228.56 1.19236 -1.94571 0
M  V30 2420 C 229.538 1.40782 -0.813576 0
M  V30 2421 O 230.722 1.55148 -1.07058 0
M  V30 2422 C 227.849 2.54858 -2.23081 0
M  V30 2423 C 226.895 2.49817 -3.45679 0
M  V30 2424 S 227.728 1.95036 -4.98719 0
M  V30 2425 C 228.884 3.32357 -5.30367 0
M  V30 2426 H 229.117 0.872297 -2.84215 0
M  V30 2427 H 226.65 0.338134 -1.50652 0
M  V30 2428 H 228.608 3.32898 -2.40185 0
M  V30 2429 H 227.269 2.84047 -1.34074 0
M  V30 2430 H 226.462 3.49688 -3.62952 0
M  V30 2431 H 226.064 1.79892 -3.27895 0
M  V30 2432 H 228.356 4.28525 -5.2476 0
M  V30 2433 H 229.299 3.19923 -6.31708 0
M  V30 2434 H 229.707 3.3019 -4.57859 0
M  V30 2435 N 229.106 1.52395 0.401703 0
M  V30 2436 C 230.522 1.41363 0.740864 0
M  V30 2437 C 230.722 0.523982 1.94568 0
M  V30 2438 O 229.778 -0.00741204 2.52499 0
M  V30 2439 C 231.091 2.84011 0.987847 0
M  V30 2440 C 232.639 2.93404 1.09011 0
M  V30 2441 C 233.114 4.37036 1.3698 0
M  V30 2442 N 234.605 4.40304 1.43829 0
M  V30 2443 C 235.34 5.48508 1.67112 0
M  V30 2444 N 234.836 6.66819 1.87949 0
M  V30 2445 N 236.629 5.36034 1.69187 0
M  V30 2446 H 228.78 2.08765 -0.391262 0
M  V30 2447 H 231.043 0.941265 -0.112798 0
M  V30 2448 H 230.749 3.51265 0.174835 0
M  V30 2449 H 230.623 3.25502 1.906 0
M  V30 2450 H 233.01 2.26325 1.8937 0
M  V30 2451 H 233.091 2.55359 0.15015 0
M  V30 2452 H 232.735 5.04676 0.571353 0
M  V30 2453 H 232.665 4.72623 2.3224 0
M  V30 2454 H 235.156 3.55024 1.29486 0
M  V30 2455 H 235.469 7.45063 2.05185 0
M  V30 2456 H 233.814 6.6987 1.85199 0
M  V30 2457 H 237.005 4.42579 1.52451 0
M  V30 2458 H 237.178 6.20434 1.86993 0
M  V30 2459 N 230.584 -0.659388 1.43143 0
M  V30 2460 C 231.534 -1.7655 1.44271 0
M  V30 2461 C 232.518 -1.57847 0.311961 0
M  V30 2462 O 233.71 -1.68064 0.555306 0
M  V30 2463 C 230.839 -3.15104 1.36251 0
M  V30 2464 C 229.925 -3.39377 2.54331 0
M  V30 2465 N 230.316 -3.34153 3.79704 0
M  V30 2466 C 228.614 -3.70072 2.48922 0
M  V30 2467 C 229.315 -3.58337 4.58225 0
M  V30 2468 N 228.291 -3.79851 3.88863 0
M  V30 2469 H 232.093 -1.70928 2.39083 0
M  V30 2470 H 229.607 -0.860823 1.37708 0
M  V30 2471 H 231.604 -3.94389 1.35141 0
M  V30 2472 H 230.264 -3.21913 0.424531 0
M  V30 2473 H 231.275 -3.13704 4.1208 0
M  V30 2474 H 227.952 -3.84034 1.63781 0
M  V30 2475 H 229.342 -3.60129 5.67236 0
M  V30 2476 N 232.062 -1.29571 -0.897171 0
M  V30 2477 C 232.994 -1.10724 -2.00681 0
M  V30 2478 C 234.007 -0.0540026 -1.6271 0
M  V30 2479 O 235.196 -0.298783 -1.75982 0
M  V30 2480 C 232.296 -0.663912 -3.32333 0
M  V30 2481 C 231.469 -1.79622 -3.98816 0
M  V30 2482 C 230.528 -1.34349 -5.0876 0
M  V30 2483 O 229.554 -2.04864 -5.31055 0
M  V30 2484 N 230.756 -0.215764 -5.80099 0
M  V30 2485 H 233.521 -2.06291 -2.17403 0
M  V30 2486 H 231.082 -1.21544 -1.06951 0
M  V30 2487 H 233.074 -0.344295 -4.03233 0
M  V30 2488 H 231.644 0.199375 -3.11964 0
M  V30 2489 H 230.864 -2.28459 -3.21248 0
M  V30 2490 H 232.152 -2.55535 -4.39976 0
M  V30 2491 H 231.55 0.372091 -5.64475 0
M  V30 2492 H 230.107 0.0444707 -6.51785 0
M  V30 2493 N 233.54 1.10788 -1.12088 0
M  V30 2494 C 234.951 1.64181 -0.88891 0
M  V30 2495 C 235.302 1.87508 0.577498 0
M  V30 2496 O 234.427 1.61434 1.44112 0
M  V30 2497 C 235.022 2.98257 -1.60712 0
M  V30 2498 C 233.581 3.4853 -1.42139 0
M  V30 2499 C 232.728 2.23208 -1.6454 0
M  V30 2500 H 235.679 0.943368 -1.27618 0
M  V30 2501 H 235.7 3.65552 -1.05604 0
M  V30 2502 H 235.212 2.81246 -2.67436 0
M  V30 2503 H 233.313 3.70692 -0.376552 0
M  V30 2504 H 233.426 4.26882 -2.17505 0
M  V30 2505 H 231.79 2.31169 -1.06925 0
M  V30 2506 H 232.573 2.08733 -2.72554 0
M  V30 2507 N 235.018 0.912232 1.28515 0
M  V30 2508 C 235.966 0.389597 2.29314 0
M  V30 2509 C 236.96 -0.517915 1.61289 0
M  V30 2510 O 238.166 -0.399328 1.75515 0
M  V30 2511 H 234.541 0.107386 0.744293 0
M  V30 2512 H 236.512 1.25286 2.70825 0
M  V30 2513 C 235.261 -0.356496 3.45868 0
M  V30 2514 H 234.584 0.332608 3.98414 0
M  V30 2515 H 236.024 -0.686851 4.184 0
M  V30 2516 C 234.483 -1.56383 2.98406 0
M  V30 2517 O 235.013 -2.66294 3.00749 0
M  V30 2518 N 233.219 -1.41029 2.54085 0
M  V30 2519 H 232.766 -0.516089 2.52377 0
M  V30 2520 H 232.724 -2.21939 2.22689 0
M  V30 2521 N 236.496 -1.42363 0.676048 0
M  V30 2522 C 237.742 -2.02336 0.207809 0
M  V30 2523 C 238.097 -1.52506 -1.17302 0
M  V30 2524 O 237.39 -0.718048 -1.77636 0
M  V30 2525 C 237.584 -3.56929 0.183431 0
M  V30 2526 C 237.413 -4.21762 1.56036 0
M  V30 2527 C 236.183 -4.56881 2.15842 0
M  V30 2528 C 238.381 -4.49267 2.50327 0
M  V30 2529 N 236.363 -5.069 3.46303 0
M  V30 2530 C 237.734 -5.00851 3.65443 0
M  V30 2531 C 239.789 -4.31257 2.48841 0
M  V30 2532 C 238.492 -5.36317 4.79329 0
M  V30 2533 C 240.518 -4.678 3.61824 0
M  V30 2534 C 239.88 -5.19537 4.75668 0
M  V30 2535 H 235.979 -0.772583 0.120993 0
M  V30 2536 H 238.563 -1.73203 0.889306 0
M  V30 2537 H 236.734 -3.85576 -0.467483 0
M  V30 2538 H 238.466 -4.03603 -0.297808 0
M  V30 2539 H 235.221 -4.4268 1.68319 0
M  V30 2540 H 235.645 -5.36338 4.13123 0
M  V30 2541 H 240.287 -3.90511 1.62051 0
M  V30 2542 H 238.005 -5.75995 5.66794 0
M  V30 2543 H 241.591 -4.55541 3.61903 0
M  V30 2544 H 240.471 -5.47287 5.61646 0
M  V30 2545 N 237.974 -0.419461 -1.51915 0
M  V30 2546 C 239.199 0.154572 -2.06823 0
M  V30 2547 C 239.624 1.3722 -1.28656 0
M  V30 2548 O 238.982 1.78461 -0.319583 0
M  V30 2549 C 239.03 0.473172 -3.57482 0
M  V30 2550 O 238.134 1.56255 -3.81652 0
M  V30 2551 H 237.475 0.0096924 -0.663929 0
M  V30 2552 H 240.005 -0.595642 -1.95738 0
M  V30 2553 H 240.015 0.728825 -4.01438 0
M  V30 2554 H 238.69 -0.416873 -4.13805 0
M  V30 2555 H 237.267 1.29825 -3.49571 0
M  V30 2556 N 239.452 1.56882 -0.150215 0
M  V30 2557 C 240.863 1.82995 0.370076 0
M  V30 2558 C 241.214 1.06907 1.64515 0
M  V30 2559 O 240.339 0.315369 2.1409 0
M  V30 2560 C 240.934 3.31942 0.678208 0
M  V30 2561 C 239.493 3.58625 1.14301 0
M  V30 2562 C 238.64 2.76792 0.167778 0
M  V30 2563 H 241.591 1.54209 -0.374858 0
M  V30 2564 H 241.612 3.48272 1.53254 0
M  V30 2565 H 241.124 3.87294 -0.249991 0
M  V30 2566 H 239.225 3.08664 2.08704 0
M  V30 2567 H 239.338 4.67073 1.06676 0
M  V30 2568 H 237.702 2.45972 0.661037 0
M  V30 2569 H 238.485 3.34916 -0.754069 0
M  V30 2570 N 240.93 -0.123565 1.57115 0
M  V30 2571 C 241.877 -1.15177 2.00007 0
M  V30 2572 C 242.847 -1.41403 0.871454 0
M  V30 2573 O 244.032 -1.53346 1.13533 0
M  V30 2574 C 241.172 -2.47436 2.40561 0
M  V30 2575 C 240.285 -2.28184 3.66819 0
M  V30 2576 C 239.42 -3.53641 3.96373 0
M  V30 2577 C 238.459 -3.29528 5.15827 0
M  V30 2578 N 237.596 -4.47175 5.41275 0
M  V30 2579 H 242.436 -0.779008 2.87638 0
M  V30 2580 H 239.973 -0.373166 1.42288 0
M  V30 2581 H 241.931 -3.24584 2.62109 0
M  V30 2582 H 240.561 -2.82614 1.55978 0
M  V30 2583 H 239.613 -1.41976 3.52912 0
M  V30 2584 H 240.925 -2.0634 4.5412 0
M  V30 2585 H 240.079 -4.39209 4.18545 0
M  V30 2586 H 238.818 -3.78512 3.07538 0
M  V30 2587 H 237.823 -2.42349 4.93505 0
M  V30 2588 H 239.048 -3.06031 6.06236 0
M  V30 2589 H 236.994 -4.72175 4.55397 0
M  V30 2590 H 236.911 -4.28419 6.22891 0
M  V30 2591 H 238.179 -5.3389 5.67963 0
M  V30 2592 N 242.408 -1.52605 -0.393616 0
M  V30 2593 C 243.654 -1.67672 -1.14079 0
M  V30 2594 C 243.987 -0.413121 -1.89755 0
M  V30 2595 O 243.262 0.588952 -1.85369 0
M  V30 2596 C 243.545 -2.9088 -2.12276 0
M  V30 2597 C 243.398 -4.27329 -1.40394 0
M  V30 2598 C 244.717 -3.09628 -3.12759 0
M  V30 2599 H 241.836 -0.610168 -0.413356 0
M  V30 2600 H 244.478 -1.85193 -0.424696 0
M  V30 2601 H 242.628 -2.76073 -2.73342 0
M  V30 2602 H 244.3 -4.53894 -0.82327 0
M  V30 2603 H 242.543 -4.2802 -0.705801 0
M  V30 2604 H 243.214 -5.09615 -2.12123 0
M  V30 2605 H 245.69 -3.23436 -2.61779 0
M  V30 2606 H 244.566 -3.97322 -3.78717 0
M  V30 2607 H 244.827 -2.23637 -3.81365 0
M  V30 2608 N 243.887 0.651787 -1.4349 0
M  V30 2609 C 245.133 1.41376 -1.45398 0
M  V30 2610 C 245.466 1.94041 -0.0784823 0
M  V30 2611 O 244.741 1.72379 0.900878 0
M  V30 2612 C 245.024 2.59414 -2.49752 0
M  V30 2613 C 244.877 2.12232 -3.96582 0
M  V30 2614 C 246.196 3.61626 -2.50827 0
M  V30 2615 H 243.315 0.512719 -0.529422 0
M  V30 2616 H 245.957 0.738796 -1.75048 0
M  V30 2617 H 244.107 3.16997 -2.246 0
M  V30 2618 H 245.779 1.59639 -4.32797 0
M  V30 2619 H 244.022 1.43592 -4.09346 0
M  V30 2620 H 244.693 2.9712 -4.65214 0
M  V30 2621 H 247.169 3.13805 -2.7325 0
M  V30 2622 H 246.045 4.41766 -3.25783 0
M  V30 2623 H 246.306 4.14314 -1.5426 0
M  V30 2624 N 245.365 1.30045 0.890287 0
M  V30 2625 C 246.275 1.17885 2.02831 0
M  V30 2626 C 247.291 0.0999609 1.73713 0
M  V30 2627 O 248.467 0.313867 1.98939 0
M  V30 2628 C 245.532 0.866079 3.35708 0
M  V30 2629 C 244.593 2.02979 3.78283 0
M  V30 2630 C 243.826 1.73184 5.0482 0
M  V30 2631 O 244.049 0.657237 5.66601 0
M  V30 2632 O 242.983 2.58267 5.43674 0
M  V30 2633 H 246.809 2.13474 2.16015 0
M  V30 2634 H 244.394 1.09587 1.01543 0
M  V30 2635 H 246.276 0.706623 4.15433 0
M  V30 2636 H 244.951 -0.0599443 3.23644 0
M  V30 2637 H 243.858 2.24454 2.99285 0
M  V30 2638 H 245.191 2.93734 3.94944 0
M  V30 2639 N 246.843 -1.10192 1.12674 0
M  V30 2640 C 247.773 -2.18652 0.819362 0
M  V30 2641 C 248.754 -1.68698 -0.217915 0
M  V30 2642 O 249.939 -1.94041 -0.0785581 0
M  V30 2643 C 247.069 -3.46202 0.27594 0
M  V30 2644 C 246.023 -4.09444 1.24656 0
M  V30 2645 C 245.349 -5.31725 0.563258 0
M  V30 2646 C 246.649 -4.52863 2.60217 0
M  V30 2647 H 248.343 -2.44622 1.72628 0
M  V30 2648 H 245.889 -1.17571 0.831451 0
M  V30 2649 H 247.842 -4.21372 0.0486149 0
M  V30 2650 H 246.566 -3.1973 -0.666331 0
M  V30 2651 H 245.225 -3.36284 1.45974 0
M  V30 2652 H 244.873 -5.0153 -0.384235 0
M  V30 2653 H 244.573 -5.74991 1.21075 0
M  V30 2654 H 246.097 -6.09624 0.34503 0
M  V30 2655 H 247.511 -5.19294 2.42913 0
M  V30 2656 H 245.908 -5.06986 3.21068 0
M  V30 2657 H 246.978 -3.65656 3.18471 0
M  V30 2658 N 248.321 -0.919034 -1.28029 0
M  V30 2659 C 249.561 -0.562107 -1.96519 0
M  V30 2660 C 249.925 0.878784 -1.70708 0
M  V30 2661 O 251.126 1.34355 -2.32813 0
M  V30 2662 C 249.397 -0.868953 -3.46676 0
M  V30 2663 S 250.956 -0.619237 -4.34409 0
M  V30 2664 H 247.774 -0.2078 -0.679956 0
M  V30 2665 H 250.376 -1.18562 -1.55446 0
M  V30 2666 H 249.08 -1.91547 -3.62957 0
M  V30 2667 H 248.611 -0.234301 -3.92702 0
M  V30 2668 H 250.626 0.526995 -4.93394 0
M  V30 2669 N 249.799 1.42003 -0.683588 0
M  V30 2670 C 250.746 2.30798 -0.0107309 0
M  V30 2671 C 251.716 1.4645 0.783688 0
M  V30 2672 O 252.901 1.75263 0.754156 0
M  V30 2673 C 250.041 3.3238 0.928306 0
M  V30 2674 C 249.154 4.31814 0.126776 0
M  V30 2675 C 248.289 5.20468 1.06236 0
M  V30 2676 C 247.328 6.11577 0.253035 0
M  V30 2677 N 246.465 6.92754 1.14179 0
M  V30 2678 H 251.305 2.8778 -0.773727 0
M  V30 2679 H 248.842 1.41745 -0.393283 0
M  V30 2680 H 250.8 3.89813 1.48666 0
M  V30 2681 H 249.43 2.76976 1.65783 0
M  V30 2682 H 248.482 3.76427 -0.54833 0
M  V30 2683 H 249.794 4.96276 -0.501192 0
M  V30 2684 H 248.948 5.82677 1.69035 0
M  V30 2685 H 247.687 4.56204 1.7242 0
M  V30 2686 H 246.692 5.48428 -0.388108 0
M  V30 2687 H 247.917 6.77892 -0.404839 0
M  V30 2688 H 245.863 6.3111 1.78987 0
M  V30 2689 H 245.78 7.53855 0.569111 0
M  V30 2690 H 247.048 7.59441 1.75697 0
M  V30 2691 N 251.277 0.427512 1.51691 0
M  V30 2692 C 252.224 -0.388867 2.275 0
M  V30 2693 C 253.194 -1.02532 1.30677 0
M  V30 2694 O 254.379 -1.0461 1.59566 0
M  V30 2695 C 251.519 -1.48954 3.11298 0
M  V30 2696 C 250.632 -0.872194 4.23104 0
M  V30 2697 C 249.767 -1.94709 4.94228 0
M  V30 2698 C 248.806 -1.30766 5.97969 0
M  V30 2699 N 247.943 -2.32349 6.62539 0
M  V30 2700 H 252.783 0.263997 2.96828 0
M  V30 2701 H 250.32 0.142033 1.46413 0
M  V30 2702 H 252.278 -2.13887 3.58201 0
M  V30 2703 H 250.908 -2.11217 2.44105 0
M  V30 2704 H 249.96 -0.111419 3.80237 0
M  V30 2705 H 251.272 -0.365264 4.97461 0
M  V30 2706 H 250.426 -2.67327 5.44629 0
M  V30 2707 H 249.165 -2.48773 4.1948 0
M  V30 2708 H 248.17 -0.566902 5.4687 0
M  V30 2709 H 249.395 -0.774483 6.74669 0
M  V30 2710 H 247.341 -2.85511 5.90609 0
M  V30 2711 H 247.258 -1.8652 7.3263 0
M  V30 2712 H 248.526 -3.04481 7.17574 0
M  V30 2713 N 252.755 -1.56801 0.158532 0
M  V30 2714 C 253.985 -2.00568 -0.495583 0
M  V30 2715 C 254.393 -1.03774 -1.58201 0
M  V30 2716 O 253.736 -0.0285797 -1.83678 0
M  V30 2717 C 253.798 -3.40768 -1.14532 0
M  V30 2718 C 253.462 -4.56553 -0.202101 0
M  V30 2719 C 254.459 -5.16714 0.574675 0
M  V30 2720 C 252.144 -5.02197 -0.101648 0
M  V30 2721 C 254.138 -6.20939 1.43924 0
M  V30 2722 C 251.825 -6.06274 0.766508 0
M  V30 2723 C 252.823 -6.65515 1.53555 0
M  V30 2724 O 252.511 -7.67575 2.38922 0
M  V30 2725 H 252.243 -0.662893 -0.13247 0
M  V30 2726 H 254.797 -2.03829 0.253559 0
M  V30 2727 H 253.027 -3.34381 -1.94233 0
M  V30 2728 H 254.716 -3.6857 -1.70033 0
M  V30 2729 H 255.482 -4.82341 0.507167 0
M  V30 2730 H 251.361 -4.55807 -0.689994 0
M  V30 2731 H 254.905 -6.67107 2.03996 0
M  V30 2732 H 250.802 -6.40073 0.835266 0
M  V30 2733 H 251.57 -7.84844 2.32296 0
M  V30 2734 N 254.233 0.115231 -1.57178 0
M  V30 2735 C 255.165 1.16694 -1.97269 0
M  V30 2736 C 256.178 1.37445 -0.872502 0
M  V30 2737 O 257.367 1.36454 -1.15077 0
M  V30 2738 C 254.467 2.52627 -2.25905 0
M  V30 2739 C 253.64 2.52427 -3.57211 0
M  V30 2740 C 252.699 3.70134 -3.74016 0
M  V30 2741 O 251.725 3.53546 -4.46087 0
M  V30 2742 N 252.927 4.88844 -3.13068 0
M  V30 2743 H 255.692 0.82588 -2.88096 0
M  V30 2744 H 253.253 0.304461 -1.59011 0
M  V30 2745 H 255.245 3.29937 -2.34359 0
M  V30 2746 H 253.815 2.789 -1.41186 0
M  V30 2747 H 253.035 1.60805 -3.5991 0
M  V30 2748 H 254.323 2.49353 -4.43509 0
M  V30 2749 H 253.721 5.05225 -2.54489 0
M  V30 2750 H 252.278 5.63817 -3.27037 0
M  V30 2751 N 255.711 1.52812 0.385517 0
M  V30 2752 C 256.643 1.74096 1.49074 0
M  V30 2753 C 257.656 0.621462 1.50472 0
M  V30 2754 O 258.845 0.897245 1.54311 0
M  V30 2755 C 255.945 1.78774 2.87911 0
M  V30 2756 C 255.118 3.08134 3.10439 0
M  V30 2757 C 254.177 3.04313 4.29278 0
M  V30 2758 O 253.203 3.78168 4.25415 0
M  V30 2759 N 254.405 2.23741 5.35649 0
M  V30 2760 H 257.17 2.69455 1.31202 0
M  V30 2761 H 254.731 1.51343 0.575065 0
M  V30 2762 H 256.723 1.73721 3.65518 0
M  V30 2763 H 255.293 0.907869 2.99126 0
M  V30 2764 H 254.513 3.26649 2.20667 0
M  V30 2765 H 255.801 3.93662 3.22347 0
M  V30 2766 H 255.199 1.63211 5.41645 0
M  V30 2767 H 253.756 2.24524 6.11909 0
M  V30 2768 N 257.189 -0.644168 1.43834 0
M  V30 2769 C 258.121 -1.76955 1.45669 0
M  V30 2770 C 259.134 -1.58956 0.351666 0
M  V30 2771 O 260.323 -1.6751 0.616644 0
M  V30 2772 C 257.423 -3.14507 1.26248 0
M  V30 2773 C 256.596 -3.59083 2.49757 0
M  V30 2774 C 255.655 -4.75467 2.25427 0
M  V30 2775 O 254.681 -4.84444 2.98836 0
M  V30 2776 N 255.883 -5.66289 1.27661 0
M  V30 2777 H 258.648 -1.75856 2.42682 0
M  V30 2778 H 256.209 -0.828312 1.39106 0
M  V30 2779 H 258.201 -3.90067 1.0784 0
M  V30 2780 H 256.771 -3.10325 0.376478 0
M  V30 2781 H 255.991 -2.7387 2.8353 0
M  V30 2782 H 257.279 -3.85613 3.31934 0
M  V30 2783 H 256.677 -5.61718 0.670064 0
M  V30 2784 H 255.234 -6.41533 1.15234 0
M  V30 2785 N 258.668 -1.30515 -0.883378 0
M  V30 2786 C 259.896 -1.22359 -1.66841 0
M  V30 2787 C 260.311 0.213296 -1.87591 0
M  V30 2788 O 259.668 1.14075 -1.42454 0
M  V30 2789 C 259.719 -1.95011 -3.04389 0
M  V30 2790 O 259.44 -3.3309 -2.84575 0
M  V30 2791 C 260.941 -1.93532 -3.98824 0
M  V30 2792 H 258.161 -0.423371 -0.520575 0
M  V30 2793 H 260.705 -1.72167 -1.10357 0
M  V30 2794 H 258.86 -1.48997 -3.57601 0
M  V30 2795 H 259.274 -3.69907 -3.71846 0
M  V30 2796 H 260.748 -2.48902 -4.92699 0
M  V30 2797 H 261.225 -0.914627 -4.29571 0
M  V30 2798 H 261.831 -2.39364 -3.51547 0
M  V30 2799 N 260.146 1.09593 -1.13257 0
M  V30 2800 C 261.392 1.82003 -0.89458 0
M  V30 2801 C 261.725 1.85402 0.577906 0
M  V30 2802 O 261 1.32099 1.42759 0
M  V30 2803 C 261.283 3.28237 -1.48096 0
M  V30 2804 C 261.136 3.3312 -3.02244 0
M  V30 2805 C 262.455 4.24871 -1.14774 0
M  V30 2806 H 259.574 0.66077 -0.326424 0
M  V30 2807 H 262.216 1.28389 -1.40058 0
M  V30 2808 H 260.366 3.74024 -1.05062 0
M  V30 2809 H 262.038 2.95748 -3.54021 0
M  V30 2810 H 260.281 2.72756 -3.37323 0
M  V30 2811 H 260.952 4.3613 -3.38371 0
M  V30 2812 H 263.428 3.87361 -1.51957 0
M  V30 2813 H 262.304 5.25532 -1.58452 0
M  V30 2814 H 262.565 4.42058 -0.0611849 0
M  V30 2815 N 261.624 0.925811 1.2754 0
M  V30 2816 C 262.87 0.566092 1.94739 0
M  V30 2817 C 263.203 -0.890057 1.72603 0
M  V30 2818 O 262.478 -1.63467 1.05399 0
M  V30 2819 C 262.761 0.89054 3.48915 0
M  V30 2820 C 262.614 2.4003 3.80402 0
M  V30 2821 C 263.933 0.395101 4.38323 0
M  V30 2822 H 261.052 0.20714 0.707292 0
M  V30 2823 H 263.694 1.15725 1.50691 0
M  V30 2824 H 261.844 0.387452 3.86563 0
M  V30 2825 H 263.516 2.97494 3.52555 0
M  V30 2826 H 261.759 2.85028 3.2702 0
M  V30 2827 H 262.43 2.57785 4.8811 0
M  V30 2828 H 264.906 0.826241 4.07814 0
M  V30 2829 H 263.782 0.651086 5.45025 0
M  V30 2830 H 264.043 -0.704798 4.36446 0
M  V30 2831 N 263.102 -1.41638 0.69111 0
M  V30 2832 C 264.065 -2.29178 0.0319786 0
M  V30 2833 C 265.065 -1.44153 -0.712496 0
M  V30 2834 O 266.255 -1.65354 -0.548053 0
M  V30 2835 C 263.387 -3.26952 -0.965161 0
M  V30 2836 H 264.58 -2.88959 0.802681 0
M  V30 2837 H 262.133 -1.4955 0.454356 0
M  V30 2838 H 262.868 -2.72142 -1.76378 0
M  V30 2839 H 262.653 -3.89685 -0.434522 0
M  V30 2840 H 264.143 -3.92561 -1.42428 0
M  V30 2841 N 264.58 -0.43555 -1.51462 0
M  V30 2842 C 265.829 0.133007 -2.01261 0
M  V30 2843 C 266.142 1.43942 -1.32439 0
M  V30 2844 O 267.348 2.09081 -1.73198 0
M  V30 2845 C 265.804 0.287581 -3.58749 0
M  V30 2846 C 265.412 -1.00829 -4.36506 0
M  V30 2847 C 267.156 0.810004 -4.167 0
M  V30 2848 C 265.063 -0.819454 -5.85695 0
M  V30 2849 H 263.993 0.0534822 -0.752101 0
M  V30 2850 H 266.644 -0.565038 -1.74584 0
M  V30 2851 H 265.026 1.04859 -3.81865 0
M  V30 2852 H 266.2 -1.77749 -4.25138 0
M  V30 2853 H 264.515 -1.45911 -3.89999 0
M  V30 2854 H 267.112 0.967743 -5.2587 0
M  V30 2855 H 267.455 1.79196 -3.75758 0
M  V30 2856 H 267.988 0.107357 -3.97655 0
M  V30 2857 H 264.727 -1.77374 -6.31046 0
M  V30 2858 H 264.247 -0.0900208 -5.99732 0
M  V30 2859 H 265.926 -0.471949 -6.45276 0
M  V30 2860 N 266.058 1.56714 -0.166846 0
M  V30 2861 C 267.335 1.88412 0.525373 0
M  V30 2862 C 267.715 1.07602 1.81618 0
M  V30 2863 O 267.063 0.168621 2.27877 0
M  V30 2864 C 267.273 3.40363 0.771613 0
M  V30 2865 C 268.621 4.10007 1.1036 0
M  V30 2866 O 269.645 3.45655 0.860304 0
M  V30 2867 O 268.504 5.2369 1.56239 0
M  V30 2868 H 265.598 0.781587 0.270278 0
M  V30 2869 H 268.144 1.68458 -0.204946 0
M  V30 2870 H 266.916 3.91046 -0.141093 0
M  V30 2871 H 266.539 3.65914 1.55541 0
M  V30 2872 N 267.536 -0.106894 1.57237 0
M  V30 2873 C 268.466 -1.13148 2.04254 0
M  V30 2874 C 269.447 -1.42476 0.929224 0
M  V30 2875 O 270.632 -1.52709 1.19973 0
M  V30 2876 C 267.762 -2.4545 2.45706 0
M  V30 2877 C 266.716 -2.30558 3.60592 0
M  V30 2878 C 266.042 -3.67931 3.87983 0
M  V30 2879 C 267.342 -1.75597 4.91897 0
M  V30 2880 H 269.036 -0.740374 2.90101 0
M  V30 2881 H 266.582 -0.354696 1.39563 0
M  V30 2882 H 268.535 -3.17389 2.77205 0
M  V30 2883 H 267.259 -2.86475 1.56843 0
M  V30 2884 H 265.918 -1.61067 3.29322 0
M  V30 2885 H 265.566 -4.06462 2.96306 0
M  V30 2886 H 265.266 -3.58817 4.65322 0
M  V30 2887 H 266.79 -4.41356 4.21945 0
M  V30 2888 H 268.204 -2.37364 5.21854 0
M  V30 2889 H 266.601 -1.77272 5.73319 0
M  V30 2890 H 267.671 -0.714451 4.79608 0
M  V30 2891 N 269.014 -1.53014 -0.377408 0
M  V30 2892 C 269.977 -1.77957 -1.44444 0
M  V30 2893 C 270.977 -0.649763 -1.47087 0
M  V30 2894 O 272.167 -0.917897 -1.48055 0
M  V30 2895 C 269.299 -1.89089 -2.83651 0
M  V30 2896 H 270.492 -2.73243 -1.23606 0
M  V30 2897 H 268.045 -1.43912 -0.609844 0
M  V30 2898 H 268.78 -0.958293 -3.09818 0
M  V30 2899 H 268.565 -2.71254 -2.83132 0
M  V30 2900 H 270.055 -2.1002 -3.60945 0
M  V30 2901 N 270.492 0.636531 -1.44174 0
M  V30 2902 C 271.74 1.39343 -1.46383 0
M  V30 2903 C 272.061 1.94766 -0.0955715 0
M  V30 2904 O 271.331 1.75452 0.871395 0
M  V30 2905 H 269.911 0.517199 -0.538994 0
M  V30 2906 H 272.573 0.74957 -1.7991 0
M  V30 2907 H 271.669 2.22746 -2.18611 0
M  V30 2908 N 271.97 1.30982 0.876444 0
M  V30 2909 C 273.247 1.10942 1.61094 0
M  V30 2910 C 273.627 -0.338223 2.08373 0
M  V30 2911 O 272.975 -1.33122 1.85717 0
M  V30 2912 C 273.185 2.11789 2.77392 0
M  V30 2913 C 274.533 2.43965 3.47514 0
M  V30 2914 O 275.557 2.10166 2.87591 0
M  V30 2915 O 274.416 3.01817 4.55597 0
M  V30 2916 H 271.51 0.42667 0.708436 0
M  V30 2917 H 274.056 1.42438 0.922474 0
M  V30 2918 H 272.828 3.09194 2.39823 0
M  V30 2919 H 272.451 1.81161 3.5393 0
M  V30 2920 N 273.449 -1.08991 1.13837 0
M  V30 2921 C 274.359 -2.19301 0.833333 0
M  V30 2922 C 275.375 -1.73026 -0.183847 0
M  V30 2923 O 276.551 -2.01395 -0.0138092 0
M  V30 2924 C 273.616 -3.45323 0.308651 0
M  V30 2925 C 272.677 -4.06255 1.38764 0
M  V30 2926 C 271.91 -5.26262 0.887896 0
M  V30 2927 O 272.133 -5.69747 -0.27287 0
M  V30 2928 O 271.067 -5.78435 1.66421 0
M  V30 2929 H 274.893 -2.47854 1.75506 0
M  V30 2930 H 272.478 -1.18012 0.916166 0
M  V30 2931 H 274.36 -4.21394 0.0216739 0
M  V30 2932 H 273.035 -3.18362 -0.585431 0
M  V30 2933 H 271.942 -3.318 1.72799 0
M  V30 2934 H 273.275 -4.37452 2.25602 0
M  V30 2935 N 274.927 -0.932562 -1.27047 0
M  V30 2936 C 276.155 -0.592031 -1.98249 0
M  V30 2937 C 276.57 0.831062 -1.69525 0
M  V30 2938 O 275.927 1.55299 -0.958561 0
M  V30 2939 C 275.978 -0.814279 -3.5221 0
M  V30 2940 O 275.699 -2.18139 -3.7993 0
M  V30 2941 C 277.2 -0.483121 -4.4066 0
M  V30 2942 H 274.42 -0.223896 -0.632544 0
M  V30 2943 H 276.964 -1.25091 -1.61779 0
M  V30 2944 H 275.119 -0.20213 -3.86872 0
M  V30 2945 H 275.533 -2.235 -4.74498 0
M  V30 2946 H 277.007 -0.689298 -5.47679 0
M  V30 2947 H 277.484 0.581546 -4.35333 0
M  V30 2948 H 278.09 -1.07362 -4.11526 0
M  V30 2949 N 276.405 1.4127 -0.698611 0
M  V30 2950 C 277.654 2.00408 -0.227949 0
M  V30 2951 C 277.967 1.55981 1.18023 0
M  V30 2952 O 279.173 2.07699 1.74852 0
M  V30 2953 C 277.629 3.58129 -0.356636 0
M  V30 2954 C 277.237 4.11536 -1.77037 0
M  V30 2955 C 278.981 4.24466 0.0540969 0
M  V30 2956 C 276.888 5.61701 -1.85055 0
M  V30 2957 H 275.818 0.749586 -0.0814657 0
M  V30 2958 H 278.469 1.61713 -0.867249 0
M  V30 2959 H 276.851 3.94442 0.350965 0
M  V30 2960 H 278.025 3.86636 -2.50698 0
M  V30 2961 H 276.34 3.57736 -2.13105 0
M  V30 2962 H 278.937 5.34698 0.0146723 0
M  V30 2963 H 279.28 4.01687 1.09332 0
M  V30 2964 H 279.813 3.93198 -0.603337 0
M  V30 2965 H 276.552 5.89312 -2.8704 0
M  V30 2966 H 276.072 5.88519 -1.15783 0
M  V30 2967 H 277.751 6.26524 -1.61484 0
M  V30 2968 N 277.883 0.443576 1.51229 0
M  V30 2969 C 279.294 -0.0180867 1.86691 0
M  V30 2970 C 279.645 -1.41384 1.36033 0
M  V30 2971 O 278.77 -2.04291 0.713722 0
M  V30 2972 C 279.365 -0.039597 3.38777 0
M  V30 2973 C 277.924 -0.445692 3.73752 0
M  V30 2974 C 277.071 0.357584 2.74985 0
M  V30 2975 H 280.022 0.659138 1.44364 0
M  V30 2976 H 280.043 -0.847761 3.70936 0
M  V30 2977 H 279.555 0.976382 3.75617 0
M  V30 2978 H 277.656 -1.46704 3.42503 0
M  V30 2979 H 277.769 -0.166155 4.78812 0
M  V30 2980 H 276.133 -0.184973 2.54027 0
M  V30 2981 H 276.916 1.37256 3.14668 0
M  V30 2982 N 279.361 -1.56624 0.175154 0
M  V30 2983 C 280.609 -1.96609 -0.467885 0
M  V30 2984 C 280.93 -1.06238 -1.63519 0
M  V30 2985 O 280.2 -0.129523 -1.95471 0
M  V30 2986 H 278.78 -0.726008 -0.175845 0
M  V30 2987 H 281.442 -1.93195 0.257234 0
M  V30 2988 H 280.538 -3.00989 -0.825342 0
M  V30 2989 N 280.839 0.0985539 -1.57292 0
M  V30 2990 C 282.064 0.820196 -1.90493 0
M  V30 2991 C 282.489 1.71658 -0.769094 0
M  V30 2992 O 281.847 1.79133 0.279495 0
M  V30 2993 C 281.895 1.61242 -3.22542 0
M  V30 2994 O 280.999 2.72108 -3.09888 0
M  V30 2995 H 280.34 0.225547 -0.62452 0
M  V30 2996 H 282.87 0.0748159 -2.04463 0
M  V30 2997 H 282.88 1.99737 -3.55766 0
M  V30 2998 H 281.555 0.954535 -4.04798 0
M  V30 2999 H 280.132 2.36667 -2.88172 0
M  V30 3000 N 282.317 1.53212 0.369288 0
M  V30 3001 C 283.542 1.73423 1.1375 0
M  V30 3002 C 283.967 0.460404 1.82378 0
M  V30 3003 O 283.325 -0.585298 1.71592 0
M  V30 3004 C 283.373 2.89769 2.1463 0
M  V30 3005 O 282.477 2.58119 3.21634 0
M  V30 3006 H 281.818 0.576061 0.330227 0
M  V30 3007 H 284.348 2.00083 0.427547 0
M  V30 3008 H 284.358 3.15829 2.58294 0
M  V30 3009 H 283.033 3.8217 1.64071 0
M  V30 3010 H 281.61 2.42864 2.82969 0
M  V30 3011 N 283.795 -0.628877 1.44509 0
M  V30 3012 C 284.725 -1.75187 1.54376 0
M  V30 3013 C 285.706 -1.65411 0.396618 0
M  V30 3014 O 286.891 -1.84137 0.617031 0
M  V30 3015 C 284.021 -3.13725 1.48976 0
M  V30 3016 C 282.975 -3.38291 2.62189 0
M  V30 3017 C 282.301 -4.76883 2.41841 0
M  V30 3018 C 283.601 -3.30632 4.04326 0
M  V30 3019 H 285.295 -1.67187 2.48373 0
M  V30 3020 H 282.841 -0.802909 1.19538 0
M  V30 3021 H 284.794 -3.92064 1.54478 0
M  V30 3022 H 283.518 -3.22515 0.514961 0
M  V30 3023 H 282.177 -2.62334 2.56079 0
M  V30 3024 H 281.825 -4.82378 1.42548 0
M  V30 3025 H 281.525 -4.94278 3.17747 0
M  V30 3026 H 283.049 -5.57449 2.49165 0
M  V30 3027 H 284.463 -3.98873 4.11793 0
M  V30 3028 H 282.86 -3.59561 4.80454 0
M  V30 3029 H 283.93 -2.28404 4.27738 0
M  V30 3030 N 285.273 -1.31445 -0.869486 0
M  V30 3031 C 286.203 -1.21727 -1.99261 0
M  V30 3032 C 287.184 -0.104359 -1.6978 0
M  V30 3033 O 288.369 -0.289038 -1.92037 0
M  V30 3034 C 285.499 -0.924317 -3.34774 0
M  V30 3035 C 284.453 -1.99685 -3.78563 0
M  V30 3036 C 283.779 -1.55658 -5.11541 0
M  V30 3037 C 285.079 -3.41003 -3.95619 0
M  V30 3038 H 286.773 -2.1569 -2.07649 0
M  V30 3039 H 284.319 -1.03839 -0.997675 0
M  V30 3040 H 286.272 -0.842934 -4.12883 0
M  V30 3041 H 284.996 0.0509793 -3.2656 0
M  V30 3042 H 283.655 -2.06813 -3.02694 0
M  V30 3043 H 283.303 -0.569132 -4.9977 0
M  V30 3044 H 283.003 -2.27409 -5.41811 0
M  V30 3045 H 284.527 -1.48928 -5.92159 0
M  V30 3046 H 285.941 -3.36547 -4.64122 0
M  V30 3047 H 284.338 -4.10975 -4.37286 0
M  V30 3048 H 285.408 -3.81754 -2.98985 0
M  V30 3049 N 286.751 1.08385 -1.14413 0
M  V30 3050 C 288.162 1.62258 -0.923535 0
M  V30 3051 C 288.513 1.88691 0.537595 0
M  V30 3052 O 287.638 1.64454 1.40655 0
M  V30 3053 C 288.233 2.94781 -1.67002 0
M  V30 3054 C 286.792 3.45437 -1.495 0
M  V30 3055 C 285.939 2.19668 -1.69238 0
M  V30 3056 H 288.89 0.916086 -1.2959 0
M  V30 3057 H 288.911 3.63229 -1.13334 0
M  V30 3058 H 288.423 2.7551 -2.73342 0
M  V30 3059 H 286.524 3.6981 -0.455097 0
M  V30 3060 H 286.637 4.22173 -2.2651 0
M  V30 3061 H 285.001 2.28849 -1.11804 0
M  V30 3062 H 285.784 2.02905 -2.7692 0
M  V30 3063 N 288.23 0.939286 1.26551 0
M  V30 3064 C 289.478 0.58469 1.93457 0
M  V30 3065 C 289.799 -0.878774 1.74076 0
M  V30 3066 O 289.069 -1.62421 1.09528 0
M  V30 3067 H 287.649 0.21325 0.715914 0
M  V30 3068 H 290.311 1.1942 1.54029 0
M  V30 3069 H 289.407 0.800849 3.0165 0
M  V30 3070 N 289.708 -1.40897 0.706093 0
M  V30 3071 C 290.658 -2.27987 0.0240746 0
M  V30 3072 C 291.642 -1.42759 -0.742204 0
M  V30 3073 O 292.834 -1.65936 -0.615966 0
M  V30 3074 C 289.963 -3.31186 -0.903907 0
M  V30 3075 C 289.049 -4.2389 -0.133318 0
M  V30 3076 N 289.44 -4.98113 0.878444 0
M  V30 3077 C 287.738 -4.44485 -0.367269 0
M  V30 3078 C 288.439 -5.6604 1.34064 0
M  V30 3079 N 287.415 -5.39522 0.664565 0
M  V30 3080 H 291.217 -2.82812 0.799658 0
M  V30 3081 H 288.731 -1.53235 0.537845 0
M  V30 3082 H 290.728 -3.92413 -1.40775 0
M  V30 3083 H 289.388 -2.77922 -1.67897 0
M  V30 3084 H 290.399 -5.02364 1.25901 0
M  V30 3085 H 287.076 -4.02213 -1.1194 0
M  V30 3086 H 288.466 -6.35524 2.1808 0
M  V30 3087 N 291.186 -0.45159 -1.50991 0
M  V30 3088 C 292.432 0.110237 -2.025 0
M  V30 3089 C 292.765 1.41109 -1.33424 0
M  V30 3090 O 292.04 1.89135 -0.453659 0
M  V30 3091 C 292.323 0.314271 -3.58726 0
M  V30 3092 C 292.176 -1.00623 -4.38401 0
M  V30 3093 C 293.495 1.07767 -4.26702 0
M  V30 3094 H 290.614 0.0385897 -0.735989 0
M  V30 3095 H 293.256 -0.593374 -1.80497 0
M  V30 3096 H 291.406 0.913601 -3.77605 0
M  V30 3097 H 293.078 -1.64064 -4.31139 0
M  V30 3098 H 291.321 -1.6075 -4.02917 0
M  V30 3099 H 291.992 -0.817341 -5.45915 0
M  V30 3100 H 294.468 0.56986 -4.12179 0
M  V30 3101 H 293.344 1.18921 -5.35863 0
M  V30 3102 H 293.605 2.10939 -3.88532 0
M  V30 3103 N 292.664 1.56529 -0.183458 0
M  V30 3104 C 293.596 2.15747 0.773697 0
M  V30 3105 C 294.609 1.1162 1.1851 0
M  V30 3106 O 295.798 1.3876 1.12285 0
M  V30 3107 C 292.898 2.6952 2.05456 0
M  V30 3108 C 292.071 3.98429 1.8048 0
M  V30 3109 C 291.13 4.37145 2.92901 0
M  V30 3110 O 290.156 5.04791 2.6301 0
M  V30 3111 N 291.358 3.99695 4.2098 0
M  V30 3112 H 294.123 2.98505 0.26736 0
M  V30 3113 H 291.684 1.619 -0.0010878 0
M  V30 3114 H 293.676 2.92412 2.79781 0
M  V30 3115 H 292.246 1.91282 2.47245 0
M  V30 3116 H 291.466 3.8379 0.899947 0
M  V30 3117 H 292.754 4.82597 1.61175 0
M  V30 3118 H 292.152 3.4526 4.48121 0
M  V30 3119 H 290.709 4.27562 4.9197 0
M  V30 3120 N 294.142 -0.090211 1.57342 0
M  V30 3121 C 295.105 -1.09335 2.01441 0
M  V30 3122 C 296.105 -1.32666 0.908641 0
M  V30 3123 O 297.295 -1.28697 1.174 0
M  V30 3124 C 294.427 -2.44136 2.3793 0
M  V30 3125 H 295.62 -0.713662 2.91285 0
M  V30 3126 H 293.173 -0.335404 1.52659 0
M  V30 3127 H 293.908 -2.86972 1.51055 0
M  V30 3128 H 293.693 -2.28548 3.18603 0
M  V30 3129 H 295.183 -3.16277 2.72688 0
M  V30 3130 N 295.62 -1.53406 -0.361157 0
M  V30 3131 C 296.85 -1.73465 -1.1222 0
M  V30 3132 C 297.258 -0.465486 -1.83384 0
M  V30 3133 O 296.601 0.571611 -1.7458 0
M  V30 3134 C 296.663 -2.84834 -2.19339 0
M  V30 3135 C 296.327 -4.25038 -1.67903 0
M  V30 3136 C 297.324 -5.07231 -1.14074 0
M  V30 3137 C 295.009 -4.71464 -1.73282 0
M  V30 3138 C 297.003 -6.33942 -0.663068 0
M  V30 3139 C 294.69 -5.98153 -1.25127 0
M  V30 3140 C 295.688 -6.79223 -0.717296 0
M  V30 3141 O 295.376 -8.03533 -0.242865 0
M  V30 3142 H 295.108 -0.583526 -0.341283 0
M  V30 3143 H 297.662 -2.00964 -0.424591 0
M  V30 3144 H 295.892 -2.5282 -2.92607 0
M  V30 3145 H 297.581 -2.9303 -2.80871 0
M  V30 3146 H 298.347 -4.72534 -1.09254 0
M  V30 3147 H 294.226 -4.08432 -2.13786 0
M  V30 3148 H 297.77 -6.97167 -0.245612 0
M  V30 3149 H 293.667 -6.32347 -1.29642 0
M  V30 3150 H 294.435 -8.177 -0.361786 0
M  V30 3151 N 297.098 0.621204 -1.44841 0
M  V30 3152 C 298.03 1.74615 -1.48466 0
M  V30 3153 C 299.043 1.58377 -0.37691 0
M  V30 3154 O 300.232 1.66508 -0.643215 0
M  V30 3155 C 297.332 3.12459 -1.31236 0
M  V30 3156 C 296.505 3.55064 -2.55438 0
M  V30 3157 C 295.564 4.71821 -2.32963 0
M  V30 3158 O 294.59 4.79628 -3.06505 0
M  V30 3159 N 295.792 5.64186 -1.36654 0
M  V30 3160 H 298.557 1.71973 -2.45449 0
M  V30 3161 H 296.118 0.806077 -1.40407 0
M  V30 3162 H 298.11 3.88302 -1.14032 0
M  V30 3163 H 296.68 3.09686 -0.4258 0
M  V30 3164 H 295.9 2.69324 -2.87851 0
M  V30 3165 H 297.188 3.80284 -3.38026 0
M  V30 3166 H 296.586 5.6058 -0.759344 0
M  V30 3167 H 295.143 6.39618 -1.25425 0
M  V30 3168 N 298.576 1.31904 0.862503 0
M  V30 3169 C 299.486 1.22161 2.00285 0
M  V30 3170 C 300.502 0.136785 1.73462 0
M  V30 3171 O 301.678 0.355994 1.98229 0
M  V30 3172 C 298.743 0.937093 3.33796 0
M  V30 3173 C 297.804 2.10957 3.73893 0
M  V30 3174 C 297.037 1.83853 5.01033 0
M  V30 3175 O 297.26 0.777274 5.65079 0
M  V30 3176 O 296.194 2.69741 5.38074 0
M  V30 3177 H 300.02 2.18008 2.11439 0
M  V30 3178 H 297.605 1.11716 0.991957 0
M  V30 3179 H 299.487 0.794583 4.13841 0
M  V30 3180 H 298.162 0.00871894 3.23699 0
M  V30 3181 H 297.069 2.30752 2.94456 0
M  V30 3182 H 298.402 3.02046 3.88625 0
M  V30 3183 N 300.054 -1.07777 1.14986 0
M  V30 3184 C 301.017 -2.13041 0.845358 0
M  V30 3185 C 302.017 -1.60071 -0.152931 0
M  V30 3186 O 303.207 -1.74033 0.0761879 0
M  V30 3187 C 300.339 -3.39896 0.261383 0
M  V30 3188 H 301.532 -2.41485 1.77834 0
M  V30 3189 H 299.085 -1.23595 0.956757 0
M  V30 3190 H 299.82 -3.17091 -0.68 0
M  V30 3191 H 299.605 -3.79642 0.980514 0
M  V30 3192 H 301.095 -4.17548 0.0657687 0
M  V30 3193 N 301.532 -0.945985 -1.26051 0
M  V30 3194 C 302.778 -0.597002 -1.93814 0
M  V30 3195 C 303.111 0.862484 -1.73997 0
M  V30 3196 O 302.386 1.61769 -1.07986 0
M  V30 3197 C 302.669 -0.945937 -3.47454 0
M  V30 3198 C 302.522 -2.46052 -3.76535 0
M  V30 3199 C 303.841 -0.464785 -4.37639 0
M  V30 3200 H 300.96 -0.218366 -0.703907 0
M  V30 3201 H 303.602 -1.18107 -1.48831 0
M  V30 3202 H 301.752 -0.448902 -3.85898 0
M  V30 3203 H 303.424 -3.03065 -3.47778 0
M  V30 3204 H 301.667 -2.90194 -3.22444 0
M  V30 3205 H 302.338 -2.65517 -4.83947 0
M  V30 3206 H 304.814 -0.891016 -4.06448 0
M  V30 3207 H 303.69 -0.737712 -5.4392 0
M  V30 3208 H 303.951 0.635274 -4.37512 0
M  V30 3209 N 303.011 1.40521 -0.713556 0
M  V30 3210 C 303.958 2.30723 -0.059684 0
M  V30 3211 C 304.928 1.48079 0.752448 0
M  V30 3212 O 306.113 1.76823 0.71681 0
M  V30 3213 C 303.253 3.34274 0.857594 0
M  V30 3214 C 302.366 4.31986 0.0351536 0
M  V30 3215 C 301.501 5.22605 0.951724 0
M  V30 3216 C 300.54 6.11976 0.123253 0
M  V30 3217 N 299.677 6.9502 0.99459 0
M  V30 3218 H 304.517 2.86074 -0.834596 0
M  V30 3219 H 302.054 1.40879 -0.42326 0
M  V30 3220 H 304.012 3.92879 1.40364 0
M  V30 3221 H 302.642 2.8043 1.59871 0
M  V30 3222 H 301.694 3.7518 -0.628052 0
M  V30 3223 H 303.006 4.95101 -0.606347 0
M  V30 3224 H 302.16 5.86131 1.56638 0
M  V30 3225 H 300.899 4.59759 1.62705 0
M  V30 3226 H 299.904 5.47482 -0.50435 0
M  V30 3227 H 301.129 6.76881 -0.548539 0
M  V30 3228 H 299.075 6.34764 1.6556 0
M  V30 3229 H 298.992 7.54892 0.40908 0
M  V30 3230 H 300.26 7.62997 1.59549 0
M  V30 3231 N 304.489 0.459591 1.5075 0
M  V30 3232 C 305.714 -0.0996819 2.0716 0
M  V30 3233 C 306.139 -1.33761 1.32249 0
M  V30 3234 O 305.497 -1.77551 0.366786 0
M  V30 3235 C 305.545 -0.378226 3.58611 0
M  V30 3236 O 304.649 -1.46081 3.85661 0
M  V30 3237 H 303.99 0.00791392 0.663953 0
M  V30 3238 H 306.52 0.647329 1.9409 0
M  V30 3239 H 306.53 -0.622135 4.03229 0
M  V30 3240 H 305.205 0.526439 4.12555 0
M  V30 3241 H 303.782 -1.20511 3.5289 0
M  V30 3242 N 305.967 -1.56429 0.191757 0
M  V30 3243 C 307.215 -1.97095 -0.447006 0
M  V30 3244 C 307.536 -1.07967 -1.62383 0
M  V30 3245 O 306.806 -0.150248 -1.95323 0
M  V30 3246 H 305.386 -0.727832 -0.168135 0
M  V30 3247 H 308.048 -1.92911 0.27771 0
M  V30 3248 H 307.144 -3.01848 -0.793371 0
M  V30 3249 N 307.445 0.0818655 -1.57387 0
M  V30 3250 C 308.694 0.781681 -1.85937 0
M  V30 3251 C 309.007 1.79246 -0.782957 0
M  V30 3252 O 310.213 2.54112 -0.955987 0
M  V30 3253 C 308.669 1.44109 -3.29789 0
M  V30 3254 C 308.277 0.469396 -4.45534 0
M  V30 3255 C 310.021 2.12386 -3.67549 0
M  V30 3256 C 307.928 1.13415 -5.80423 0
M  V30 3257 H 306.858 0.295682 -0.693605 0
M  V30 3258 H 309.509 0.0348051 -1.83467 0
M  V30 3259 H 307.891 2.23588 -3.2684 0
M  V30 3260 H 309.065 -0.294856 -4.59856 0
M  V30 3261 H 307.38 -0.108383 -4.16259 0
M  V30 3262 H 309.977 2.62878 -4.65617 0
M  V30 3263 H 310.32 2.91877 -2.96839 0
M  V30 3264 H 310.853 1.39751 -3.72444 0
M  V30 3265 H 307.592 0.379771 -6.54399 0
M  V30 3266 H 307.112 1.8695 -5.69921 0
M  V30 3267 H 308.791 1.65686 -6.25426 0
M  V30 3268 N 308.923 1.53595 0.353017 0
M  V30 3269 C 309.873 1.77299 1.43349 0
M  V30 3270 C 310.857 0.627884 1.48143 0
M  V30 3271 O 312.049 0.88697 1.53173 0
M  V30 3272 C 309.178 1.97757 2.80619 0
M  V30 3273 C 308.264 3.18305 2.80254 0
M  V30 3274 N 308.655 4.39967 2.49526 0
M  V30 3275 C 306.953 3.19283 3.11407 0
M  V30 3276 C 307.654 5.21772 2.57156 0
M  V30 3277 N 306.63 4.58269 2.92388 0
M  V30 3278 H 310.432 2.68963 1.18474 0
M  V30 3279 H 307.946 1.52391 0.561306 0
M  V30 3280 H 309.943 2.1287 3.58458 0
M  V30 3281 H 308.603 1.07329 3.06448 0
M  V30 3282 H 309.614 4.67482 2.22893 0
M  V30 3283 H 306.291 2.3879 3.4247 0
M  V30 3284 H 307.681 6.2885 2.36638 0
M  V30 3285 N 310.401 -0.613514 1.45168 0
M  V30 3286 C 311.817 -0.933629 1.29443 0
M  V30 3287 C 312.017 -2.00028 0.243101 0
M  V30 3288 O 311.073 -2.49848 -0.364992 0
M  V30 3289 C 312.386 -1.38018 2.67155 0
M  V30 3290 C 313.934 -1.49471 2.75004 0
M  V30 3291 C 314.409 -1.97503 4.13227 0
M  V30 3292 N 315.9 -2.04746 4.15491 0
M  V30 3293 C 316.635 -2.43121 5.19307 0
M  V30 3294 N 316.131 -2.80506 6.33473 0
M  V30 3295 N 317.924 -2.43408 5.06664 0
M  V30 3296 H 310.075 0.0916097 2.12202 0
M  V30 3297 H 312.338 -0.0216655 0.947752 0
M  V30 3298 H 312.044 -0.670625 3.45247 0
M  V30 3299 H 311.918 -2.34784 2.95222 0
M  V30 3300 H 314.305 -2.19519 1.9722 0
M  V30 3301 H 314.386 -0.510342 2.50657 0
M  V30 3302 H 314.03 -1.28045 4.91495 0
M  V30 3303 H 313.96 -2.96843 4.34962 0
M  V30 3304 H 316.451 -1.78468 3.33103 0
M  V30 3305 H 316.764 -3.08652 7.08487 0
M  V30 3306 H 315.109 -2.78216 6.36884 0
M  V30 3307 H 318.3 -2.13604 4.16523 0
M  V30 3308 H 318.473 -2.72989 5.87691 0
M  V30 3309 N 311.879 -1.3236 -0.855495 0
M  V30 3310 C 313.107 -1.2587 -1.64208 0
M  V30 3311 C 313.522 0.173457 -1.88002 0
M  V30 3312 O 312.879 1.11027 -1.44842 0
M  V30 3313 C 312.93 -2.01424 -3.00184 0
M  V30 3314 O 312.651 -3.39051 -2.77445 0
M  V30 3315 C 314.152 -2.01948 -3.94629 0
M  V30 3316 H 311.372 -0.434318 -0.511477 0
M  V30 3317 H 313.916 -1.74469 -1.0668 0
M  V30 3318 H 312.071 -1.56549 -3.5436 0
M  V30 3319 H 312.485 -3.77711 -3.63916 0
M  V30 3320 H 313.959 -2.59297 -4.87308 0
M  V30 3321 H 314.436 -1.00554 -4.27534 0
M  V30 3322 H 315.042 -2.46767 -3.4639 0
M  V30 3323 N 313.357 1.07166 -1.15556 0
M  V30 3324 C 314.603 1.80065 -0.932984 0
M  V30 3325 C 314.936 1.86586 0.53845 0
M  V30 3326 O 314.211 1.35098 1.39924 0
M  V30 3327 C 314.494 3.25022 -1.55025 0
M  V30 3328 C 314.347 3.26634 -3.09242 0
M  V30 3329 C 315.666 4.22341 -1.2376 0
M  V30 3330 H 312.785 0.653697 -0.340366 0
M  V30 3331 H 315.427 1.25389 -1.4275 0
M  V30 3332 H 313.577 3.71712 -1.12972 0
M  V30 3333 H 315.249 2.88173 -3.60214 0
M  V30 3334 H 313.492 2.65539 -3.43033 0
M  V30 3335 H 314.163 4.28854 -3.47546 0
M  V30 3336 H 316.639 3.8405 -1.60139 0
M  V30 3337 H 315.515 5.22053 -1.69564 0
M  V30 3338 H 315.776 4.41828 -0.154938 0
M  V30 3339 N 314.835 0.952656 1.25548 0
M  V30 3340 C 315.785 0.442033 2.23674 0
M  V30 3341 C 316.769 -0.467632 1.53955 0
M  V30 3342 O 317.961 -0.301006 1.74422 0
M  V30 3343 C 315.09 -0.280816 3.4215 0
M  V30 3344 C 314.176 0.646803 4.19139 0
M  V30 3345 N 314.567 1.77759 4.73535 0
M  V30 3346 C 312.865 0.454617 4.43677 0
M  V30 3347 C 313.566 2.35658 5.31827 0
M  V30 3348 N 312.542 1.64333 5.18166 0
M  V30 3349 H 316.344 1.30505 2.63336 0
M  V30 3350 H 313.858 0.809904 1.40763 0
M  V30 3351 H 315.855 -0.663747 4.11582 0
M  V30 3352 H 314.515 -1.14046 3.04012 0
M  V30 3353 H 315.526 2.15949 4.7073 0
M  V30 3354 H 312.203 -0.362312 4.15925 0
M  V30 3355 H 313.593 3.30998 5.84713 0
M  V30 3356 N 316.313 -1.40141 0.720998 0
M  V30 3357 C 317.276 -2.29058 0.0805834 0
M  V30 3358 C 318.276 -1.45632 -0.681758 0
M  V30 3359 O 319.466 -1.6648 -0.512856 0
M  V30 3360 C 316.598 -3.28925 -0.895593 0
M  V30 3361 H 317.791 -2.87191 0.863793 0
M  V30 3362 H 315.344 -1.48553 0.485975 0
M  V30 3363 H 316.079 -2.75822 -1.70566 0
M  V30 3364 H 315.864 -3.90519 -0.351766 0
M  V30 3365 H 317.354 -3.95494 -1.34069 0
M  V30 3366 N 317.792 -0.46758 -1.50504 0
M  V30 3367 C 319.04 0.0884469 -2.01906 0
M  V30 3368 C 319.361 1.40532 -1.35188 0
M  V30 3369 O 318.631 1.89515 -0.496079 0
M  V30 3370 H 317.211 0.0356765 -0.746148 0
M  V30 3371 H 319.873 -0.6172 -1.84869 0
M  V30 3372 H 318.969 0.2425 -3.11156 0
M  V30 3373 N 319.27 1.56325 -0.20005 0
M  V30 3374 C 320.18 2.22931 0.730668 0
M  V30 3375 C 321.196 1.22997 1.23076 0
M  V30 3376 O 322.372 1.55748 1.27689 0
M  V30 3377 C 319.437 2.87948 1.93098 0
M  V30 3378 C 318.498 4.03166 1.47497 0
M  V30 3379 C 317.731 4.65073 2.61807 0
M  V30 3380 O 317.954 4.25913 3.79413 0
M  V30 3381 O 316.888 5.54452 2.34237 0
M  V30 3382 H 320.714 3.03084 0.193391 0
M  V30 3383 H 318.299 1.49371 0.0294621 0
M  V30 3384 H 320.181 3.29063 2.6324 0
M  V30 3385 H 318.856 2.10771 2.45677 0
M  V30 3386 H 317.763 3.66664 0.742201 0
M  V30 3387 H 319.096 4.82022 0.995796 0
M  V30 3388 N 320.748 -0.0735177 1.57428 0
M  V30 3389 C 321.994 -0.774145 1.87443 0
M  V30 3390 C 322.327 -1.77311 0.792103 0
M  V30 3391 O 321.602 -1.93492 -0.197793 0
M  V30 3392 C 321.885 -1.48367 3.28115 0
M  V30 3393 C 321.738 -0.501227 4.46999 0
M  V30 3394 C 323.057 -2.429 3.66998 0
M  V30 3395 H 320.176 -0.279971 0.681752 0
M  V30 3396 H 322.818 -0.0373616 1.89963 0
M  V30 3397 H 320.968 -2.11171 3.26097 0
M  V30 3398 H 322.64 0.121468 4.6114 0
M  V30 3399 H 320.883 0.183593 4.33411 0
M  V30 3400 H 321.554 -1.03526 5.42205 0
M  V30 3401 H 324.03 -1.90175 3.70098 0
M  V30 3402 H 322.906 -2.89549 4.66318 0
M  V30 3403 H 323.167 -3.27628 2.96837 0
M  V30 3404 N 322.226 -1.5378 -0.344866 0
M  V30 3405 C 323.474 -1.70625 -1.08311 0
M  V30 3406 C 323.795 -0.471447 -1.89215 0
M  V30 3407 O 323.065 0.514616 -1.8902 0
M  V30 3408 H 321.645 -0.629058 -0.402859 0
M  V30 3409 H 324.307 -1.9103 -0.386459 0
M  V30 3410 H 323.403 -2.57656 -1.76124 0
M  V30 3411 N 323.704 0.605807 -1.45491 0
M  V30 3412 C 324.929 1.39625 -1.53361 0
M  V30 3413 C 325.354 1.87351 -0.167645 0
M  V30 3414 O 324.712 1.60243 0.848051 0
M  V30 3415 C 324.76 2.57559 -2.5238 0
M  V30 3416 O 323.864 3.58248 -2.04285 0
M  V30 3417 H 323.205 0.416771 -0.516912 0
M  V30 3418 H 325.735 0.737103 -1.90861 0
M  V30 3419 H 325.745 3.0478 -2.71244 0
M  V30 3420 H 324.42 2.22171 -3.51586 0
M  V30 3421 H 322.997 3.17664 -1.95305 0
M  V30 3422 N 325.182 1.32811 0.848464 0
M  V30 3423 C 326.145 1.22194 1.9391 0
M  V30 3424 C 327.145 0.143404 1.60159 0
M  V30 3425 O 328.335 0.394253 1.6968 0
M  V30 3426 C 325.467 0.88067 3.29328 0
M  V30 3427 H 326.66 2.19127 2.04752 0
M  V30 3428 H 324.213 1.16731 1.0394 0
M  V30 3429 H 324.948 -0.0865776 3.24184 0
M  V30 3430 H 324.733 1.66052 3.55203 0
M  V30 3431 H 326.223 0.830871 4.09251 0
M  V30 3432 N 326.66 -1.06551 1.16123 0
M  V30 3433 C 327.57 -2.17484 0.879662 0
M  V30 3434 C 328.586 -1.73377 -0.147104 0
M  V30 3435 O 329.762 -2.01379 0.0289128 0
M  V30 3436 C 326.827 -3.44591 0.381829 0
M  V30 3437 C 325.888 -4.0322 1.4735 0
M  V30 3438 C 325.121 -5.24261 0.999324 0
M  V30 3439 O 325.344 -5.70198 -0.151957 0
M  V30 3440 O 324.278 -5.74775 1.78653 0
M  V30 3441 H 328.104 -2.44075 1.80724 0
M  V30 3442 H 325.689 -1.16042 0.940992 0
M  V30 3443 H 327.571 -4.21254 0.111053 0
M  V30 3444 H 326.246 -3.19532 -0.51777 0
M  V30 3445 H 325.153 -3.2806 1.79798 0
M  V30 3446 H 326.486 -4.32568 2.34831 0
M  V30 3447 N 328.138 -0.959301 -1.25041 0
M  V30 3448 C 329.384 -0.617525 -1.9317 0
M  V30 3449 C 329.717 0.843981 -1.74902 0
M  V30 3450 O 328.992 1.60615 -1.09696 0
M  V30 3451 C 329.275 -0.982736 -3.46431 0
M  V30 3452 C 329.128 -2.50032 -3.73904 0
M  V30 3453 C 330.447 -0.511176 -4.37121 0
M  V30 3454 H 327.566 -0.22582 -0.701552 0
M  V30 3455 H 330.208 -1.19679 -1.4757 0
M  V30 3456 H 328.358 -0.489806 -3.854 0
M  V30 3457 H 330.03 -3.06737 -3.44544 0
M  V30 3458 H 328.273 -2.93598 -3.19348 0
M  V30 3459 H 328.944 -2.70635 -4.81103 0
M  V30 3460 H 331.42 -0.934075 -4.0548 0
M  V30 3461 H 330.296 -0.795361 -5.43107 0
M  V30 3462 H 330.557 0.588834 -4.38161 0
M  V30 3463 N 329.616 1.39756 -0.72842 0
M  V30 3464 C 330.862 2.00942 -0.273892 0
M  V30 3465 C 331.195 1.57656 1.13394 0
M  V30 3466 O 330.47 0.802434 1.77176 0
M  V30 3467 C 330.753 3.58211 -0.368346 0
M  V30 3468 C 330.606 4.11534 -1.81548 0
M  V30 3469 C 331.925 4.39372 0.253054 0
M  V30 3470 H 329.044 0.730047 -0.100996 0
M  V30 3471 H 331.686 1.66056 -0.923337 0
M  V30 3472 H 329.836 3.88061 0.184588 0
M  V30 3473 H 331.508 3.92431 -2.42478 0
M  V30 3474 H 329.751 3.65341 -2.33898 0
M  V30 3475 H 330.422 5.20682 -1.83288 0
M  V30 3476 H 332.898 4.15527 -0.218224 0
M  V30 3477 H 331.774 5.48677 0.156585 0
M  V30 3478 H 332.035 4.21358 1.33826 0
M  V30 3479 N 331.094 0.475555 1.50254 0
M  V30 3480 C 332.041 -0.316293 2.28622 0
M  V30 3481 C 333.011 -0.983227 1.33873 0
M  V30 3482 O 334.196 -0.994805 1.62814 0
M  V30 3483 C 331.336 -1.38975 3.1588 0
M  V30 3484 C 330.449 -0.737146 4.25664 0
M  V30 3485 C 329.584 -1.78887 5.00173 0
M  V30 3486 C 328.623 -1.11676 6.01826 0
M  V30 3487 N 327.76 -2.11154 6.69596 0
M  V30 3488 H 332.6 0.358297 2.95838 0
M  V30 3489 H 330.137 0.188541 1.45887 0
M  V30 3490 H 332.095 -2.02383 3.64825 0
M  V30 3491 H 330.725 -2.03344 2.50701 0
M  V30 3492 H 329.777 0.0096065 3.80399 0
M  V30 3493 H 331.089 -0.206816 4.98371 0
M  V30 3494 H 330.243 -2.49865 5.52859 0
M  V30 3495 H 328.982 -2.35302 4.27182 0
M  V30 3496 H 327.987 -0.392633 5.48396 0
M  V30 3497 H 329.212 -0.55945 6.76792 0
M  V30 3498 H 327.158 -2.66577 5.99394 0
M  V30 3499 H 327.075 -1.63118 7.38193 0
M  V30 3500 H 328.343 -2.81497 7.26897 0
M  V30 3501 N 332.573 -1.56217 0.208337 0
M  V30 3502 C 333.483 -2.23316 -0.718836 0
M  V30 3503 C 334.499 -1.23648 -1.22422 0
M  V30 3504 O 335.675 -1.56423 -1.26861 0
M  V30 3505 C 332.74 -2.88968 -1.91568 0
M  V30 3506 C 331.801 -4.03943 -1.45357 0
M  V30 3507 C 331.034 -4.66455 -2.59337 0
M  V30 3508 O 331.257 -4.27919 -3.77149 0
M  V30 3509 O 330.191 -5.55686 -2.31293 0
M  V30 3510 H 334.017 -3.03182 -0.177315 0
M  V30 3511 H 331.602 -1.49384 -0.0215402 0
M  V30 3512 H 333.484 -3.30455 -2.61491 0
M  V30 3513 H 332.159 -2.12071 -2.44556 0
M  V30 3514 H 331.066 -3.67052 -0.722746 0
M  V30 3515 H 332.399 -4.82543 -0.970219 0
M  V30 3516 N 334.051 0.0651679 -1.57465 0
M  V30 3517 C 335.014 1.06117 -2.03155 0
M  V30 3518 C 336.014 1.31204 -0.929632 0
M  V30 3519 O 337.204 1.26813 -1.19432 0
M  V30 3520 C 334.336 2.4032 -2.41783 0
M  V30 3521 H 335.529 0.667231 -2.92383 0
M  V30 3522 H 333.082 0.311075 -1.53173 0
M  V30 3523 H 333.817 2.84532 -1.55601 0
M  V30 3524 H 333.602 2.23451 -3.22199 0
M  V30 3525 H 335.092 3.11898 -2.77685 0
M  V30 3526 N 335.529 1.53961 0.336706 0
M  V30 3527 C 336.775 1.7179 1.07777 0
M  V30 3528 C 337.108 0.483263 1.88091 0
M  V30 3529 O 336.383 -0.519747 1.87427 0
M  V30 3530 C 336.666 2.98558 2.01334 0
M  V30 3531 C 336.519 4.32245 1.24437 0
M  V30 3532 C 337.838 3.21023 3.01052 0
M  V30 3533 H 334.957 0.625089 0.390426 0
M  V30 3534 H 337.599 1.86641 0.35567 0
M  V30 3535 H 335.749 2.86028 2.62908 0
M  V30 3536 H 337.421 4.56637 0.654243 0
M  V30 3537 H 335.664 4.30344 0.546458 0
M  V30 3538 H 336.335 5.17137 1.93063 0
M  V30 3539 H 338.811 3.32929 2.49595 0
M  V30 3540 H 337.687 4.11104 3.6371 0
M  V30 3541 H 337.948 2.37637 3.72802 0
M  V30 3542 N 337.007 -0.598083 1.45811 0
M  V30 3543 C 338.284 -1.35777 1.40797 0
M  V30 3544 C 338.664 -2.10935 0.083462 0
M  V30 3545 O 338.012 -2.08505 -0.934763 0
M  V30 3546 C 338.222 -2.29666 2.62783 0
M  V30 3547 C 339.57 -2.91977 3.08277 0
M  V30 3548 O 340.594 -2.39984 2.63223 0
M  V30 3549 O 339.453 -3.86376 3.86491 0
M  V30 3550 H 336.547 -0.609291 0.55919 0
M  V30 3551 H 339.093 -0.620379 1.57954 0
M  V30 3552 H 337.865 -1.73454 3.50756 0
M  V30 3553 H 337.488 -3.1077 2.48008 0
M  V30 3554 N 338.485 -1.33259 -0.841409 0
M  V30 3555 C 339.734 -1.23921 -1.59143 0
M  V30 3556 C 340.047 0.1941 -1.94635 0
M  V30 3557 O 341.253 0.409474 -2.68394 0
M  V30 3558 C 339.709 -2.17119 -2.87032 0
M  V30 3559 C 339.317 -3.65606 -2.58914 0
M  V30 3560 C 341.061 -2.16648 -3.65053 0
M  V30 3561 C 338.968 -4.50726 -3.82884 0
M  V30 3562 H 337.898 -0.460264 -0.597221 0
M  V30 3563 H 340.549 -1.58307 -0.927959 0
M  V30 3564 H 338.931 -1.75663 -3.54906 0
M  V30 3565 H 340.105 -4.15487 -1.99267 0
M  V30 3566 H 338.42 -3.68341 -1.942 0
M  V30 3567 H 341.017 -2.77474 -4.57069 0
M  V30 3568 H 341.36 -1.16088 -3.99787 0
M  V30 3569 H 341.893 -2.56453 -3.041 0
M  V30 3570 H 338.632 -5.52151 -3.53283 0
M  V30 3571 H 338.152 -4.0559 -4.41879 0
M  V30 3572 H 339.831 -4.64401 -4.50489 0
M  V30 3573 N 339.963 1.05934 -1.16686 0
M  V30 3574 C 340.893 2.1546 -0.899949 0
M  V30 3575 C 341.874 1.69391 0.155154 0
M  V30 3576 O 343.059 1.94199 0.00648693 0
M  V30 3577 C 340.189 3.44939 -0.404241 0
M  V30 3578 C 339.143 4.04536 -1.39767 0
M  V30 3579 C 338.469 5.29268 -0.760216 0
M  V30 3580 C 339.769 4.42893 -2.76845 0
M  V30 3581 H 341.463 2.38046 -1.81588 0
M  V30 3582 H 339.009 1.14404 -0.874514 0
M  V30 3583 H 340.962 4.20901 -0.204971 0
M  V30 3584 H 339.686 3.21983 0.547206 0
M  V30 3585 H 338.345 3.30635 -1.58355 0
M  V30 3586 H 337.993 5.02611 0.197831 0
M  V30 3587 H 337.693 5.70101 -1.42332 0
M  V30 3588 H 339.217 6.07924 -0.57105 0
M  V30 3589 H 340.631 5.09921 -2.62019 0
M  V30 3590 H 339.028 4.94721 -3.39663 0
M  V30 3591 H 340.098 3.53584 -3.31823 0
M  V30 3592 N 341.441 0.965919 1.2453 0
M  V30 3593 C 342.388 0.49402 2.25451 0
M  V30 3594 C 343.358 -0.45948 1.59618 0
M  V30 3595 O 344.543 -0.370238 1.87173 0
M  V30 3596 C 341.683 -0.211359 3.44452 0
M  V30 3597 C 340.796 0.7807 4.24887 0
M  V30 3598 C 339.931 0.0516105 5.31175 0
M  V30 3599 C 338.97 1.03385 6.03306 0
M  V30 3600 N 338.107 0.334887 7.01301 0
M  V30 3601 H 342.947 1.35946 2.65184 0
M  V30 3602 H 340.484 0.681515 1.3036 0
M  V30 3603 H 342.442 -0.637 4.12308 0
M  V30 3604 H 341.072 -1.04077 3.05562 0
M  V30 3605 H 340.124 1.32479 3.56586 0
M  V30 3606 H 341.436 1.52978 4.74762 0
M  V30 3607 H 340.59 -0.432114 6.05159 0
M  V30 3608 H 339.329 -0.730179 4.82203 0
M  V30 3609 H 338.334 1.52847 5.28127 0
M  V30 3610 H 339.559 1.81606 6.54367 0
M  V30 3611 H 337.505 -0.427959 6.54603 0
M  V30 3612 H 337.422 1.02287 7.49048 0
M  V30 3613 H 338.69 -0.126928 7.79397 0
M  V30 3614 N 342.919 -1.39368 0.735821 0
M  V30 3615 C 344.147 -2.04795 0.294393 0
M  V30 3616 C 344.562 -1.55478 -1.07107 0
M  V30 3617 O 343.919 -0.720038 -1.67695 0
M  V30 3618 C 343.97 -3.6035 0.288071 0
M  V30 3619 O 343.691 -4.07852 1.59963 0
M  V30 3620 C 345.192 -4.42976 -0.169422 0
M  V30 3621 H 342.412 -0.658571 0.128551 0
M  V30 3622 H 344.956 -1.78399 0.999701 0
M  V30 3623 H 343.111 -3.85645 -0.368355 0
M  V30 3624 H 343.525 -5.02181 1.51375 0
M  V30 3625 H 344.999 -5.51864 -0.122687 0
M  V30 3626 H 345.476 -4.22068 -1.21472 0
M  V30 3627 H 346.082 -4.22832 0.457469 0
M  V30 3628 N 344.397 -0.483516 -1.5 0
M  V30 3629 C 345.307 0.309172 -2.32554 0
M  V30 3630 C 346.323 0.984159 -1.43493 0
M  V30 3631 O 347.499 0.969399 -1.76535 0
M  V30 3632 C 344.564 1.36979 -3.18493 0
M  V30 3633 C 343.625 0.710095 -4.23387 0
M  V30 3634 C 342.858 1.72018 -5.05218 0
M  V30 3635 O 343.081 2.94813 -4.88305 0
M  V30 3636 O 342.015 1.28515 -5.8802 0
M  V30 3637 H 345.841 -0.366064 -3.01486 0
M  V30 3638 H 343.426 -0.24514 -1.47375 0
M  V30 3639 H 345.308 1.98385 -3.71781 0
M  V30 3640 H 343.983 2.02828 -2.52275 0
M  V30 3641 H 342.89 0.0567539 -3.74057 0
M  V30 3642 H 344.223 0.0943557 -4.9211 0
M  V30 3643 N 345.875 1.56104 -0.216619 0
M  V30 3644 C 347.291 1.58995 0.13886 0
M  V30 3645 C 347.491 1.23333 1.59346 0
M  V30 3646 O 346.547 0.966234 2.33281 0
M  V30 3647 C 347.86 3.00143 -0.182968 0
M  V30 3648 C 349.408 3.12751 -0.124807 0
M  V30 3649 C 349.883 4.56068 -0.420241 0
M  V30 3650 N 351.374 4.61723 -0.369634 0
M  V30 3651 C 352.109 5.70542 -0.571789 0
M  V30 3652 N 351.605 6.87744 -0.835453 0
M  V30 3653 N 353.398 5.59831 -0.504563 0
M  V30 3654 H 345.549 1.77562 -1.16557 0
M  V30 3655 H 347.812 0.825091 -0.466828 0
M  V30 3656 H 347.518 3.30871 -1.19237 0
M  V30 3657 H 347.392 3.73813 0.504367 0
M  V30 3658 H 349.779 2.81822 0.875223 0
M  V30 3659 H 349.86 2.41421 -0.845544 0
M  V30 3660 H 349.504 4.87713 -1.41769 0
M  V30 3661 H 349.434 5.25617 0.321631 0
M  V30 3662 H 351.925 3.77502 -0.173338 0
M  V30 3663 H 352.238 7.66587 -0.977938 0
M  V30 3664 H 350.583 6.895 -0.872592 0
M  V30 3665 H 353.774 4.67145 -0.298842 0
M  V30 3666 H 353.947 6.44573 -0.665519 0
M  V30 3667 N 347.353 -0.0568162 1.57498 0
M  V30 3668 C 348.283 -1.06593 2.0775 0
M  V30 3669 C 349.264 -1.39448 0.974082 0
M  V30 3670 O 350.449 -1.48815 1.24771 0
M  V30 3671 C 347.579 -2.37509 2.5339 0
M  V30 3672 C 346.533 -2.1897 3.67745 0
M  V30 3673 C 345.859 -3.55402 3.99492 0
M  V30 3674 C 347.159 -1.59859 4.97235 0
M  V30 3675 H 348.853 -0.647706 2.9231 0
M  V30 3676 H 346.399 -0.310116 1.40621 0
M  V30 3677 H 348.352 -3.08409 2.87162 0
M  V30 3678 H 347.076 -2.8134 1.65878 0
M  V30 3679 H 345.735 -1.50508 3.3428 0
M  V30 3680 H 345.383 -3.9683 3.09088 0
M  V30 3681 H 345.083 -3.43831 4.76502 0
M  V30 3682 H 346.607 -4.27708 4.35773 0
M  V30 3683 H 348.021 -2.20642 5.29141 0
M  V30 3684 H 346.418 -1.58942 5.78669 0
M  V30 3685 H 347.488 -0.561506 4.81638 0
M  V30 3686 N 348.832 -1.54138 -0.328536 0
M  V30 3687 C 350.08 -1.71765 -1.06496 0
M  V30 3688 C 350.401 -0.49149 -1.88704 0
M  V30 3689 O 349.671 0.494539 -1.89555 0
M  V30 3690 H 348.251 -0.633295 -0.396164 0
M  V30 3691 H 350.913 -1.91429 -0.366176 0
M  V30 3692 H 350.009 -2.5951 -1.73381 0
M  V30 3693 N 350.31 0.590341 -1.46126 0
M  V30 3694 C 351.26 1.69466 -1.5253 0
M  V30 3695 C 352.244 1.56179 -0.386917 0
M  V30 3696 O 353.436 1.65223 -0.634858 0
M  V30 3697 C 350.565 3.08245 -1.5113 0
M  V30 3698 C 349.651 3.26856 -2.70233 0
M  V30 3699 N 350.042 3.15657 -3.95214 0
M  V30 3700 C 348.34 3.57775 -2.66296 0
M  V30 3701 C 349.041 3.36066 -4.74799 0
M  V30 3702 N 348.017 3.60865 -4.06543 0
M  V30 3703 H 351.819 1.59326 -2.46966 0
M  V30 3704 H 349.333 0.79414 -1.41659 0
M  V30 3705 H 351.33 3.87492 -1.53804 0
M  V30 3706 H 349.99 3.19521 -0.577636 0
M  V30 3707 H 351.001 2.93686 -4.26578 0
M  V30 3708 H 347.678 3.75782 -1.81918 0
M  V30 3709 H 349.068 3.32655 -5.83772 0
M  V30 3710 N 351.788 1.33704 0.83433 0
M  V30 3711 C 353.036 1.25169 1.58673 0
M  V30 3712 C 353.357 -0.18127 1.94156 0
M  V30 3713 O 352.627 -1.11113 1.6134 0
M  V30 3714 H 351.207 0.4603 0.58833 0
M  V30 3715 H 353.869 1.67478 0.996847 0
M  V30 3716 H 352.965 1.84856 2.51465 0
M  V30 3717 N 353.266 -1.05314 1.17247 0
M  V30 3718 C 354.496 -1.81707 0.983166 0
M  V30 3719 C 354.904 -1.83222 -0.471822 0
M  V30 3720 O 354.247 -1.25721 -1.3394 0
M  V30 3721 C 354.309 -3.29134 1.44606 0
M  V30 3722 C 353.973 -3.51304 2.92292 0
M  V30 3723 C 354.97 -3.4353 3.90235 0
M  V30 3724 C 352.655 -3.78306 3.30439 0
M  V30 3725 C 354.649 -3.62442 5.24323 0
M  V30 3726 C 352.336 -3.96866 4.64694 0
M  V30 3727 C 353.334 -3.88933 5.61445 0
M  V30 3728 O 353.022 -4.06976 6.93272 0
M  V30 3729 H 352.754 -0.579476 0.348114 0
M  V30 3730 H 355.308 -1.33705 1.55924 0
M  V30 3731 H 353.538 -3.78046 0.813537 0
M  V30 3732 H 355.227 -3.87049 1.22262 0
M  V30 3733 H 355.993 -3.22648 3.62109 0
M  V30 3734 H 351.872 -3.83585 2.55702 0
M  V30 3735 H 355.416 -3.56165 5.99827 0
M  V30 3736 H 351.313 -4.1724 4.92525 0
M  V30 3737 H 352.081 -4.24209 6.99992 0
M  V30 3738 N 354.744 -0.972509 -1.24016 0
M  V30 3739 C 355.694 -0.477561 -2.22942 0
M  V30 3740 C 356.678 0.44308 -1.54679 0
M  V30 3741 O 357.87 0.273219 -1.74879 0
M  V30 3742 C 354.999 0.226348 -3.42553 0
M  V30 3743 C 354.085 -0.713403 -4.18057 0
M  V30 3744 N 354.476 -1.8527 -4.70647 0
M  V30 3745 C 352.774 -0.525145 -4.42898 0
M  V30 3746 C 353.475 -2.44089 -5.28011 0
M  V30 3747 N 352.451 -1.72556 -5.15486 0
M  V30 3748 H 356.253 -1.34678 -2.61226 0
M  V30 3749 H 353.767 -0.832196 -1.39457 0
M  V30 3750 H 355.764 0.598184 -4.12586 0
M  V30 3751 H 354.424 1.09195 -3.05788 0
M  V30 3752 H 355.435 -2.2341 -4.67235 0
M  V30 3753 H 352.112 0.296096 -4.16449 0
M  V30 3754 H 353.502 -3.40259 -5.79374 0
M  V30 3755 N 356.222 1.38976 -0.743202 0
M  V30 3756 C 357.45 2.04636 -0.30525 0
M  V30 3757 C 357.865 1.56044 1.06281 0
M  V30 3758 O 357.222 0.728921 1.67311 0
M  V30 3759 C 357.273 3.60193 -0.307177 0
M  V30 3760 O 356.994 4.06998 -1.62124 0
M  V30 3761 C 358.495 4.4306 0.145928 0
M  V30 3762 H 355.715 0.65788 -0.132041 0
M  V30 3763 H 358.259 1.77866 -1.00915 0
M  V30 3764 H 356.414 3.85835 0.347898 0
M  V30 3765 H 356.828 5.01371 -1.54036 0
M  V30 3766 H 358.302 5.51921 0.0934183 0
M  V30 3767 H 358.779 4.22706 1.19231 0
M  V30 3768 H 359.385 4.22584 -0.479886 0
M  V30 3769 N 357.7 0.491464 1.49741 0
M  V30 3770 C 358.63 -0.28154 2.31796 0
M  V30 3771 C 359.611 -0.971473 1.3963 0
M  V30 3772 O 360.796 -0.964719 1.68543 0
M  V30 3773 C 357.926 -1.35203 3.19902 0
M  V30 3774 C 356.88 -0.782529 4.20786 0
M  V30 3775 C 356.206 -1.95283 4.97764 0
M  V30 3776 C 357.506 0.21999 5.21837 0
M  V30 3777 H 359.2 0.403355 2.96671 0
M  V30 3778 H 356.746 0.195425 1.42668 0
M  V30 3779 H 358.699 -1.90045 3.76113 0
M  V30 3780 H 357.423 -2.06598 2.52953 0
M  V30 3781 H 356.082 -0.255928 3.65706 0
M  V30 3782 H 355.73 -2.65423 4.2727 0
M  V30 3783 H 355.43 -1.57789 5.66018 0
M  V30 3784 H 356.954 -2.50577 5.56816 0
M  V30 3785 H 358.368 -0.23996 5.72798 0
M  V30 3786 H 356.765 0.51026 5.97927 0
M  V30 3787 H 357.835 1.13911 4.7133 0
M  V30 3788 N 359.178 -1.55987 0.224894 0
M  V30 3789 C 360.088 -2.24066 -0.69511 0
M  V30 3790 C 361.104 -1.24939 -1.21104 0
M  V30 3791 O 362.28 -1.5776 -1.25195 0
M  V30 3792 C 359.345 -2.90983 -1.88493 0
M  V30 3793 C 358.406 -4.05462 -1.41064 0
M  V30 3794 C 357.639 -4.69179 -2.54375 0
M  V30 3795 O 357.862 -4.31895 -3.72589 0
M  V30 3796 O 356.796 -5.58108 -2.25386 0
M  V30 3797 H 360.622 -3.03353 -0.145149 0
M  V30 3798 H 358.207 -1.49399 -0.00569476 0
M  V30 3799 H 360.089 -3.33209 -2.57972 0
M  V30 3800 H 358.764 -2.14653 -2.42293 0
M  V30 3801 H 357.671 -3.67798 -0.683774 0
M  V30 3802 H 359.004 -4.83545 -0.918985 0
M  V30 3803 N 360.656 0.0484629 -1.57525 0
M  V30 3804 C 361.933 0.777447 -1.79486 0
M  V30 3805 C 362.313 1.94597 -0.818251 0
M  V30 3806 O 361.661 2.28047 0.143767 0
M  V30 3807 C 361.871 1.22864 -3.26658 0
M  V30 3808 C 363.219 1.65251 -3.91123 0
M  V30 3809 O 364.243 1.32372 -3.3069 0
M  V30 3810 O 363.102 2.26207 -4.97486 0
M  V30 3811 H 360.196 0.374357 -0.737419 0
M  V30 3812 H 362.742 0.0267359 -1.69679 0
M  V30 3813 H 361.514 0.393589 -3.89316 0
M  V30 3814 H 361.137 2.03996 -3.41279 0
M  V30 3815 N 362.134 1.5431 0.320358 0
M  V30 3816 C 363.066 1.80262 1.41556 0
M  V30 3817 C 364.079 0.684723 1.477 0
M  V30 3818 O 365.268 0.961886 1.50366 0
M  V30 3819 C 362.368 1.90825 2.8007 0
M  V30 3820 C 361.541 3.21023 2.97091 0
M  V30 3821 C 360.6 3.22247 4.15985 0
M  V30 3822 O 359.626 3.95871 4.08992 0
M  V30 3823 N 360.828 2.46258 5.25678 0
M  V30 3824 H 363.593 2.74778 1.19655 0
M  V30 3825 H 361.154 1.53646 0.510358 0
M  V30 3826 H 363.146 1.89067 3.57821 0
M  V30 3827 H 361.716 1.03392 2.95006 0
M  V30 3828 H 360.936 3.35715 2.06614 0
M  V30 3829 H 362.224 4.0698 3.05361 0
M  V30 3830 H 361.622 1.86037 5.34235 0
M  V30 3831 H 360.179 2.50275 6.01835 0
M  V30 3832 N 363.613 -0.582584 1.46437 0
M  V30 3833 C 364.576 -1.67366 1.56592 0
M  V30 3834 C 365.576 -1.54575 0.443072 0
M  V30 3835 O 366.766 -1.59191 0.707381 0
M  V30 3836 C 363.898 -3.06791 1.48634 0
M  V30 3837 H 365.091 -1.5972 2.5383 0
M  V30 3838 H 362.644 -0.800432 1.34249 0
M  V30 3839 H 363.379 -3.19993 0.526763 0
M  V30 3840 H 363.164 -3.17484 2.30101 0
M  V30 3841 H 364.654 -3.86218 1.58826 0
M  V30 3842 N 365.091 -1.34144 -0.827227 0
M  V30 3843 C 366.021 -1.28005 -1.95287 0
M  V30 3844 C 367.002 -0.158321 -1.69362 0
M  V30 3845 O 368.187 -0.349987 -1.9102 0
M  V30 3846 C 365.317 -1.03036 -3.31664 0
M  V30 3847 C 364.271 -2.11628 -3.72019 0
M  V30 3848 C 363.597 -1.71854 -5.0633 0
M  V30 3849 C 364.897 -3.53417 -3.8457 0
M  V30 3850 H 366.591 -2.22187 -2.00682 0
M  V30 3851 H 364.137 -1.0696 -0.964135 0
M  V30 3852 H 366.09 -0.973863 -4.09993 0
M  V30 3853 H 364.814 -0.0529391 -3.26557 0
M  V30 3854 H 363.473 -2.16339 -2.95961 0
M  V30 3855 H 363.121 -0.727841 -4.97706 0
M  V30 3856 H 362.821 -2.44531 -5.34302 0
M  V30 3857 H 364.345 -1.67692 -5.87122 0
M  V30 3858 H 365.759 -3.51142 -4.5318 0
M  V30 3859 H 364.156 -4.24679 -4.2399 0
M  V30 3860 H 365.226 -3.91072 -2.86689 0
M  V30 3861 N 366.569 1.04691 -1.17803 0
M  V30 3862 C 367.799 1.81183 -0.992788 0
M  V30 3863 C 368.207 1.8347 0.462098 0
M  V30 3864 O 367.55 1.2643 1.33271 0
M  V30 3865 C 367.612 3.28363 -1.46349 0
M  V30 3866 C 367.276 3.49749 -2.94151 0
M  V30 3867 C 368.273 3.41456 -3.92051 0
M  V30 3868 C 365.958 3.76548 -3.32441 0
M  V30 3869 C 367.952 3.59656 -5.26238 0
M  V30 3870 C 365.639 3.94396 -4.66792 0
M  V30 3871 C 366.637 3.8595 -5.635 0
M  V30 3872 O 366.325 4.03294 -6.9542 0
M  V30 3873 H 366.057 0.577622 -0.351182 0
M  V30 3874 H 368.611 1.32876 -1.5663 0
M  V30 3875 H 366.841 3.77609 -0.833574 0
M  V30 3876 H 368.53 3.86395 -1.24313 0
M  V30 3877 H 369.296 3.20723 -3.63815 0
M  V30 3878 H 365.175 3.82224 -2.57732 0
M  V30 3879 H 368.719 3.52979 -6.01707 0
M  V30 3880 H 364.616 4.14622 -4.94731 0
M  V30 3881 H 365.384 4.2049 -7.02232 0
M  V30 3882 N 368.047 0.979072 1.23499 0
M  V30 3883 C 368.995 0.510604 2.26926 0
M  V30 3884 C 369.989 -0.431691 1.63807 0
M  V30 3885 O 371.195 -0.30573 1.77385 0
M  V30 3886 H 367.57 0.146688 0.737554 0
M  V30 3887 H 369.541 1.39466 2.63803 0
M  V30 3888 C 368.29 -0.172658 3.47271 0
M  V30 3889 H 367.613 0.543331 3.96091 0
M  V30 3890 H 369.053 -0.464101 4.21452 0
M  V30 3891 C 367.512 -1.40345 3.06276 0
M  V30 3892 O 368.042 -2.49978 3.14442 0
M  V30 3893 N 366.248 -1.27362 2.61203 0
M  V30 3894 H 365.795 -0.381584 2.54758 0
M  V30 3895 H 365.753 -2.09822 2.34141 0
M  V30 3896 N 369.525 -1.3858 0.750561 0
M  V30 3897 C 370.941 -1.53759 0.427824 0
M  V30 3898 C 371.141 -1.71401 -1.05943 0
M  V30 3899 O 370.197 -1.72331 -1.84549 0
M  V30 3900 C 371.51 -2.74642 1.22443 0
M  V30 3901 C 373.058 -2.88489 1.2142 0
M  V30 3902 C 373.533 -4.12329 1.9937 0
M  V30 3903 N 375.024 -4.194 1.96616 0
M  V30 3904 C 375.759 -5.14209 2.53727 0
M  V30 3905 N 375.255 -6.14709 3.19539 0
M  V30 3906 N 377.048 -5.06537 2.43673 0
M  V30 3907 H 369.199 -1.25377 1.71447 0
M  V30 3908 H 371.462 -0.608844 0.726645 0
M  V30 3909 H 371.168 -2.68 2.27747 0
M  V30 3910 H 371.042 -3.67745 0.839273 0
M  V30 3911 H 373.429 -2.94614 0.169232 0
M  V30 3912 H 373.51 -1.96406 1.63885 0
M  V30 3913 H 373.154 -4.06966 3.03877 0
M  V30 3914 H 373.084 -5.03486 1.54302 0
M  V30 3915 H 375.575 -3.47421 1.48684 0
M  V30 3916 H 375.888 -6.8354 3.60545 0
M  V30 3917 H 374.233 -6.1505 3.23633 0
M  V30 3918 H 377.424 -4.26962 1.91889 0
M  V30 3919 H 377.597 -5.80245 2.88479 0
M  V30 3920 N 371.003 -0.499398 -1.49478 0
M  V30 3921 C 371.933 0.269244 -2.31943 0
M  V30 3922 C 372.914 0.964054 -1.40143 0
M  V30 3923 O 374.099 0.955767 -1.69052 0
M  V30 3924 C 371.229 1.33504 -3.20615 0
M  V30 3925 C 370.183 0.760202 -4.21195 0
M  V30 3926 C 369.509 1.9264 -4.98792 0
M  V30 3927 C 370.809 -0.247661 -5.21712 0
M  V30 3928 H 372.503 -0.419082 -2.96452 0
M  V30 3929 H 370.049 -0.202988 -1.42562 0
M  V30 3930 H 372.002 1.88048 -3.77115 0
M  V30 3931 H 370.726 2.05253 -2.54045 0
M  V30 3932 H 369.385 0.23653 -3.65836 0
M  V30 3933 H 369.033 2.63154 -4.28671 0
M  V30 3934 H 368.733 1.54785 -5.66847 0
M  V30 3935 H 370.257 2.4762 -5.58137 0
M  V30 3936 H 371.671 0.209579 -5.72917 0
M  V30 3937 H 370.068 -0.541962 -5.97648 0
M  V30 3938 H 371.138 -1.16409 -4.7072 0
M  V30 3939 N 372.481 1.55866 -0.233164 0
M  V30 3940 C 373.897 1.59133 0.121988 0
M  V30 3941 C 374.097 1.25016 1.58029 0
M  V30 3942 O 373.153 0.990922 2.32243 0
M  V30 3943 C 374.466 2.99932 -0.214792 0
M  V30 3944 C 376.014 3.12601 -0.157971 0
M  V30 3945 C 376.489 4.55597 -0.46859 0
M  V30 3946 N 377.98 4.61305 -0.418585 0
M  V30 3947 C 378.715 5.69903 -0.63227 0
M  V30 3948 N 378.211 6.86819 -0.90835 0
M  V30 3949 N 380.004 5.59264 -0.563913 0
M  V30 3950 H 372.155 1.76315 -1.18434 0
M  V30 3951 H 374.418 0.820093 -0.475553 0
M  V30 3952 H 374.124 3.29588 -1.22739 0
M  V30 3953 H 373.998 3.74327 0.464691 0
M  V30 3954 H 376.385 2.82735 0.845283 0
M  V30 3955 H 376.466 2.40511 -0.871102 0
M  V30 3956 H 376.11 4.86182 -1.46934 0
M  V30 3957 H 376.04 5.25928 0.265865 0
M  V30 3958 H 378.531 3.77297 -0.213368 0
M  V30 3959 H 378.844 7.65507 -1.05919 0
M  V30 3960 H 377.189 6.88536 -0.945673 0
M  V30 3961 H 380.38 4.66802 -0.348372 0
M  V30 3962 H 380.553 6.43831 -0.733847 0
M  V30 3963 N 373.959 -0.0401083 1.57549 0
M  V30 3964 C 374.891 -1.07149 2.02612 0
M  V30 3965 C 375.904 -1.33126 0.937085 0
M  V30 3966 O 377.093 -1.30808 1.21456 0
M  V30 3967 C 374.193 -2.41561 2.37701 0
M  V30 3968 C 373.366 -2.35096 3.68848 0
M  V30 3969 C 372.425 -3.51867 3.91249 0
M  V30 3970 O 371.451 -3.3186 4.62447 0
M  V30 3971 N 372.653 -4.73351 3.36035 0
M  V30 3972 H 375.418 -0.687485 2.91708 0
M  V30 3973 H 372.979 -0.228248 1.60283 0
M  V30 3974 H 374.971 -3.18379 2.49833 0
M  V30 3975 H 373.541 -2.71846 1.54332 0
M  V30 3976 H 372.761 -1.4345 3.67173 0
M  V30 3977 H 374.049 -2.27908 4.54901 0
M  V30 3978 H 373.447 -4.92507 2.78304 0
M  V30 3979 H 372.004 -5.47572 3.53565 0
M  V30 3980 N 375.437 -1.54477 -0.31217 0
M  V30 3981 C 376.347 -1.87695 -1.4074 0
M  V30 3982 C 377.363 -0.769975 -1.56036 0
M  V30 3983 O 378.539 -1.06537 -1.70915 0
M  V30 3984 C 375.604 -2.10755 -2.75287 0
M  V30 3985 C 374.665 -3.34514 -2.69071 0
M  V30 3986 C 373.898 -3.56465 -3.97201 0
M  V30 3987 O 374.121 -2.81637 -4.96021 0
M  V30 3988 O 373.055 -4.49964 -3.9977 0
M  V30 3989 H 376.881 -2.80849 -1.15574 0
M  V30 3990 H 374.466 -1.40526 -0.507228 0
M  V30 3991 H 376.348 -2.27188 -3.54913 0
M  V30 3992 H 375.023 -1.20788 -3.0032 0
M  V30 3993 H 373.93 -3.23456 -1.87955 0
M  V30 3994 H 375.263 -4.24575 -2.48992 0
M  V30 3995 N 376.915 0.57481 -1.46744 0
M  V30 3996 C 377.863 1.70435 -1.58286 0
M  V30 3997 C 378.857 1.63287 -0.450956 0
M  V30 3998 O 380.063 1.68685 -0.628121 0
M  V30 3999 H 376.438 0.56364 -0.497809 0
M  V30 4000 H 378.409 1.57833 -2.53242 0
M  V30 4001 C 377.158 3.08815 -1.59776 0
M  V30 4002 H 376.481 3.1499 -2.46214 0
M  V30 4003 H 377.921 3.87588 -1.71905 0
M  V30 4004 C 376.38 3.35301 -0.327812 0
M  V30 4005 O 376.91 3.97511 0.57861 0
M  V30 4006 N 375.116 2.89816 -0.213274 0
M  V30 4007 H 374.663 2.39371 -0.951798 0
M  V30 4008 H 374.621 3.0791 0.63553 0
M  V30 4009 N 378.394 1.34581 0.820102 0
M  V30 4010 C 379.327 1.20735 1.93644 0
M  V30 4011 C 380.305 0.0983343 1.62302 0
M  V30 4012 O 381.489 0.263997 1.86642 0
M  V30 4013 C 378.616 0.856037 3.27704 0
M  V30 4014 C 377.662 1.97521 3.78005 0
M  V30 4015 S 378.495 3.58906 3.97425 0
M  V30 4016 C 379.651 3.25822 5.34407 0
M  V30 4017 H 379.884 2.15231 2.05093 0
M  V30 4018 H 377.417 1.1964 0.97599 0
M  V30 4019 H 379.375 0.660133 4.05157 0
M  V30 4020 H 378.036 -0.0706253 3.14021 0
M  V30 4021 H 377.229 1.68321 4.75062 0
M  V30 4022 H 376.831 2.12875 3.07507 0
M  V30 4023 H 379.123 2.77812 6.17922 0
M  V30 4024 H 380.066 4.22029 5.68592 0
M  V30 4025 H 380.474 2.61932 5.00052 0
M  V30 4026 N 379.872 -1.04064 1.18357 0
M  V30 4027 C 380.822 -2.10393 0.878561 0
M  V30 4028 C 381.806 -1.60183 -0.151713 0
M  V30 4029 O 382.998 -1.76923 0.0523303 0
M  V30 4030 C 380.127 -3.4089 0.406096 0
M  V30 4031 C 379.213 -3.97866 1.46844 0
M  V30 4032 N 379.604 -4.28657 2.68489 0
M  V30 4033 C 377.902 -4.2574 1.32896 0
M  V30 4034 C 378.603 -4.74253 3.36836 0
M  V30 4035 N 377.579 -4.75068 2.64219 0
M  V30 4036 H 381.381 -2.32076 1.80327 0
M  V30 4037 H 378.895 -1.21818 1.07397 0
M  V30 4038 H 380.892 -4.16557 0.169088 0
M  V30 4039 H 379.552 -3.20633 -0.512275 0
M  V30 4040 H 380.563 -4.18304 3.05356 0
M  V30 4041 H 377.24 -4.1481 0.473134 0
M  V30 4042 H 378.63 -5.07096 4.40798 0
M  V30 4043 N 381.35 -0.985608 -1.22978 0
M  V30 4044 C 382.597 -0.657386 -1.91532 0
M  V30 4045 C 382.925 0.809707 -1.76845 0
M  V30 4046 O 382.18 1.60021 -1.12658 0
M  V30 4047 C 382.479 -1.00014 -3.43121 0
M  V30 4048 C 382.145 -2.4583 -3.77993 0
M  V30 4049 C 380.807 -2.85679 -3.87222 0
M  V30 4050 C 383.159 -3.40378 -3.94705 0
M  V30 4051 C 380.487 -4.19081 -4.10595 0
M  V30 4052 C 382.839 -4.73429 -4.1958 0
M  V30 4053 C 381.503 -5.1303 -4.27032 0
M  V30 4054 H 380.773 -0.240555 -0.700867 0
M  V30 4055 H 383.42 -1.24044 -1.45895 0
M  V30 4056 H 381.725 -0.335072 -3.90365 0
M  V30 4057 H 383.422 -0.724322 -3.94404 0
M  V30 4058 H 380.012 -2.13939 -3.71387 0
M  V30 4059 H 384.196 -3.10766 -3.8696 0
M  V30 4060 H 379.452 -4.49362 -4.14589 0
M  V30 4061 H 383.626 -5.46644 -4.31455 0
M  V30 4062 H 381.253 -6.16418 -4.44896 0
M  V30 4063 N 382.828 1.3818 -0.7579 0
M  V30 4064 C 383.738 2.3421 -0.135247 0
M  V30 4065 C 384.754 1.59487 0.695683 0
M  V30 4066 O 385.93 1.91657 0.618832 0
M  V30 4067 C 382.995 3.3862 0.744139 0
M  V30 4068 C 382.056 4.2918 -0.101658 0
M  V30 4069 C 381.289 5.28603 0.735851 0
M  V30 4070 O 381.512 5.35166 1.97366 0
M  V30 4071 O 380.446 6.01707 0.152372 0
M  V30 4072 H 384.272 2.8916 -0.928436 0
M  V30 4073 H 381.857 1.40101 -0.518855 0
M  V30 4074 H 383.739 4.02539 1.2466 0
M  V30 4075 H 382.414 2.86019 1.51575 0
M  V30 4076 H 381.321 3.68407 -0.650167 0
M  V30 4077 H 382.654 4.85048 -0.836024 0
M  V30 4078 N 384.306 0.507319 1.49211 0
M  V30 4079 C 385.555 -0.0368315 2.01666 0
M  V30 4080 C 385.868 -1.37459 1.39156 0
M  V30 4081 O 387.074 -2.00579 1.82976 0
M  V30 4082 C 385.53 -0.116089 3.59713 0
M  V30 4083 C 385.138 1.2154 4.31198 0
M  V30 4084 C 386.882 -0.610268 4.2009 0
M  V30 4085 C 384.789 1.09796 5.81119 0
M  V30 4086 H 383.719 -0.0175376 0.753796 0
M  V30 4087 H 386.37 0.647691 1.71689 0
M  V30 4088 H 384.752 -0.8652 3.86433 0
M  V30 4089 H 385.926 1.9783 4.16173 0
M  V30 4090 H 384.241 1.64352 3.82593 0
M  V30 4091 H 386.838 -0.715742 5.29888 0
M  V30 4092 H 387.181 -1.61064 3.8388 0
M  V30 4093 H 387.714 0.0824916 3.97714 0
M  V30 4094 H 384.453 2.0728 6.21864 0
M  V30 4095 H 383.973 0.376058 5.9862 0
M  V30 4096 H 385.652 0.779281 6.4229 0
M  V30 4097 N 385.784 -1.5574 0.241426 0
M  V30 4098 C 387.024 -2.00714 -0.38644 0
M  V30 4099 C 387.388 -1.12586 -1.55526 0
M  V30 4100 O 388.589 -1.46992 -2.25048 0
M  V30 4101 C 386.86 -3.48534 -0.791128 0
M  V30 4102 S 388.419 -4.15519 -1.41029 0
M  V30 4103 H 385.237 -0.700484 -0.121834 0
M  V30 4104 H 387.839 -1.92243 0.355377 0
M  V30 4105 H 386.543 -4.10342 0.0689225 0
M  V30 4106 H 386.074 -3.6092 -1.56526 0
M  V30 4107 H 388.089 -4.16352 -2.69936 0
M  V30 4108 N 387.262 0.0317525 -1.57568 0
M  V30 4109 C 388.673 0.578692 -1.77505 0
M  V30 4110 C 389.024 1.75749 -0.872164 0
M  V30 4111 O 388.149 2.16298 -0.0663106 0
M  V30 4112 C 388.744 1.05658 -3.21904 0
M  V30 4113 C 387.303 1.54906 -3.43047 0
M  V30 4114 C 386.45 0.485939 -2.73009 0
M  V30 4115 H 389.401 -0.194475 -1.57504 0
M  V30 4116 H 389.422 1.92404 -3.28269 0
M  V30 4117 H 388.934 0.198422 -3.87592 0
M  V30 4118 H 387.035 2.42915 -2.82529 0
M  V30 4119 H 387.148 1.59841 -4.5165 0
M  V30 4120 H 385.512 0.940354 -2.36705 0
M  V30 4121 H 386.295 -0.362709 -3.41379 0
M  V30 4122 N 388.74 1.54641 0.303973 0
M  V30 4123 C 389.986 1.74969 1.03718 0
M  V30 4124 C 390.341 0.527461 1.85029 0
M  V30 4125 O 389.634 -0.480143 1.85486 0
M  V30 4126 C 389.828 2.97753 1.97681 0
M  V30 4127 C 389.657 4.318 1.25613 0
M  V30 4128 C 388.427 4.95616 0.984518 0
M  V30 4129 C 390.625 5.10021 0.662081 0
M  V30 4130 N 388.607 6.13455 0.233794 0
M  V30 4131 C 389.978 6.19984 0.0439736 0
M  V30 4132 C 392.033 4.94663 0.566835 0
M  V30 4133 C 390.736 7.16264 -0.66016 0
M  V30 4134 C 392.762 5.91271 -0.123637 0
M  V30 4135 C 392.124 7.00601 -0.730608 0
M  V30 4136 H 388.223 0.692873 0.362562 0
M  V30 4137 H 390.807 1.92116 0.316135 0
M  V30 4138 H 388.978 2.82036 2.6704 0
M  V30 4139 H 390.71 3.06621 2.64132 0
M  V30 4140 H 387.465 4.55921 1.28191 0
M  V30 4141 H 387.889 6.76879 -0.127996 0
M  V30 4142 H 392.531 4.10267 1.02181 0
M  V30 4143 H 390.249 8.00204 -1.12691 0
M  V30 4144 H 393.835 5.81466 -0.197236 0
M  V30 4145 H 392.715 7.7407 -1.2564 0
M  V30 4146 N 390.218 -0.567019 1.47046 0
M  V30 4147 C 391.443 -1.3551 1.57009 0
M  V30 4148 C 391.868 -1.86841 0.217259 0
M  V30 4149 O 391.226 -1.62435 -0.805268 0
M  V30 4150 C 391.274 -2.50777 2.5912 0
M  V30 4151 O 390.378 -3.52706 2.13711 0
M  V30 4152 H 389.719 -0.402919 0.52778 0
M  V30 4153 H 392.249 -0.686241 1.92748 0
M  V30 4154 H 392.259 -2.97481 2.79229 0
M  V30 4155 H 390.934 -2.12771 3.57353 0
M  V30 4156 H 389.511 -3.12374 2.03659 0
M  V30 4157 N 391.696 -1.35014 -0.812953 0
M  V30 4158 C 392.921 -1.31187 -1.60639 0
M  V30 4159 C 393.346 0.109382 -1.87782 0
M  V30 4160 O 392.704 1.07424 -1.46047 0
M  V30 4161 C 392.752 -2.11809 -2.91838 0
M  V30 4162 O 391.856 -1.49444 -3.8437 0
M  V30 4163 H 391.197 -0.450084 -0.488181 0
M  V30 4164 H 393.727 -1.77963 -1.00947 0
M  V30 4165 H 393.737 -2.23531 -3.41318 0
M  V30 4166 H 392.412 -3.15137 -2.71407 0
M  V30 4167 H 390.989 -1.46524 -3.42907 0
M  V30 4168 N 393.175 1.03435 -1.18907 0
M  V30 4169 C 394.405 1.8012 -1.01195 0
M  V30 4170 C 394.813 1.8395 0.442613 0
M  V30 4171 O 394.156 1.27836 1.31923 0
M  V30 4172 C 394.218 3.26792 -1.49823 0
M  V30 4173 C 393.882 3.46609 -2.97844 0
M  V30 4174 C 394.879 3.37278 -3.95651 0
M  V30 4175 C 392.564 3.73001 -3.36416 0
M  V30 4176 C 394.558 3.54054 -5.30023 0
M  V30 4177 C 392.245 3.89423 -4.70949 0
M  V30 4178 C 393.243 3.79951 -5.67562 0
M  V30 4179 O 392.931 3.95895 -6.99659 0
M  V30 4180 H 392.663 0.573865 -0.357289 0
M  V30 4181 H 395.217 1.31207 -1.58031 0
M  V30 4182 H 393.447 3.76703 -0.873578 0
M  V30 4183 H 395.136 3.85055 -1.28404 0
M  V30 4184 H 395.902 3.16846 -3.67197 0
M  V30 4185 H 391.781 3.79469 -2.61772 0
M  V30 4186 H 395.325 3.46577 -6.05417 0
M  V30 4187 H 391.222 4.09351 -4.99101 0
M  V30 4188 H 391.99 4.13019 -7.06653 0
M  V30 4189 N 394.653 0.992116 1.22453 0
M  V30 4190 C 395.583 0.561677 2.26644 0
M  V30 4191 C 396.564 -0.411055 1.65059 0
M  V30 4192 O 397.749 -0.301861 1.9184 0
M  V30 4193 C 394.879 -0.125247 3.47074 0
M  V30 4194 C 393.833 0.765948 4.21091 0
M  V30 4195 C 393.159 -0.0538484 5.34673 0
M  V30 4196 C 394.459 2.06242 4.79856 0
M  V30 4197 H 396.153 1.43259 2.62902 0
M  V30 4198 H 393.699 0.690283 1.26377 0
M  V30 4199 H 395.652 -0.437764 4.1912 0
M  V30 4200 H 394.376 -1.03069 3.0991 0
M  V30 4201 H 393.035 1.0621 3.50878 0
M  V30 4202 H 392.683 -0.960188 4.9375 0
M  V30 4203 H 392.383 0.539415 5.85119 0
M  V30 4204 H 393.907 -0.360477 6.09535 0
M  V30 4205 H 395.321 1.8139 5.43848 0
M  V30 4206 H 393.718 2.60444 5.40638 0
M  V30 4207 H 394.788 2.74167 3.99951 0
M  V30 4208 N 396.131 -1.37776 0.765217 0
M  V30 4209 C 397.359 -2.04124 0.337767 0
M  V30 4210 C 397.774 -1.57715 -1.03785 0
M  V30 4211 O 397.131 -0.755447 -1.6613 0
M  V30 4212 C 397.182 -3.59658 0.364442 0
M  V30 4213 O 396.903 -4.04367 1.68579 0
M  V30 4214 C 398.404 -4.43236 -0.0754221 0
M  V30 4215 H 395.624 -0.655696 0.142491 0
M  V30 4216 H 398.168 -1.76238 1.03732 0
M  V30 4217 H 396.323 -3.86339 -0.286471 0
M  V30 4218 H 396.737 -4.98857 1.61993 0
M  V30 4219 H 398.211 -5.52 -0.00560067 0
M  V30 4220 H 398.688 -4.2455 -1.12491 0
M  V30 4221 H 399.294 -4.21767 0.547055 0
M  V30 4222 N 397.609 -0.515225 -1.4894 0
M  V30 4223 C 398.857 0.0241671 -2.02086 0
M  V30 4224 C 399.178 1.3616 -1.3959 0
M  V30 4225 O 398.448 1.87841 -0.556121 0
M  V30 4226 H 397.028 0.0119203 -0.746905 0
M  V30 4227 H 399.69 -0.675702 -1.82812 0
M  V30 4228 H 398.786 0.143385 -3.1177 0
M  V30 4229 N 399.087 1.5561 -0.249682 0
M  V30 4230 C 400.05 2.20217 0.635394 0
M  V30 4231 C 401.05 1.17227 1.10066 0
M  V30 4232 O 402.24 1.42292 1.00492 0
M  V30 4233 C 399.372 2.84794 1.87363 0
M  V30 4234 H 400.565 2.99814 0.0716752 0
M  V30 4235 H 398.118 1.563 -0.000153234 0
M  V30 4236 H 398.853 2.09142 2.47851 0
M  V30 4237 H 398.638 3.60241 1.5482 0
M  V30 4238 H 400.128 3.3423 2.5036 0
M  V30 4239 N 400.565 -0.0233959 1.57583 0
M  V30 4240 C 401.811 -0.708611 1.90657 0
M  V30 4241 C 402.166 -1.7266 0.848895 0
M  V30 4242 O 401.459 -1.91075 -0.141749 0
M  V30 4243 C 401.653 -1.41428 3.28227 0
M  V30 4244 C 401.482 -0.466155 4.47277 0
M  V30 4245 C 400.252 -0.085117 5.05228 0
M  V30 4246 C 402.45 0.257836 5.13653 0
M  V30 4247 N 400.432 0.863672 6.07794 0
M  V30 4248 C 401.803 1.06209 6.10835 0
M  V30 4249 C 403.858 0.324174 4.96844 0
M  V30 4250 C 402.561 1.9266 6.93018 0
M  V30 4251 C 404.587 1.17583 5.79593 0
M  V30 4252 C 403.949 1.96799 6.7635 0
M  V30 4253 H 400.048 -0.233222 0.746412 0
M  V30 4254 H 402.632 0.0314512 1.94675 0
M  V30 4255 H 400.803 -2.12477 3.25128 0
M  V30 4256 H 402.535 -2.05233 3.488 0
M  V30 4257 H 399.29 -0.448516 4.71471 0
M  V30 4258 H 399.714 1.33274 6.63752 0
M  V30 4259 H 404.356 -0.273975 4.21911 0
M  V30 4260 H 402.074 2.53552 7.67292 0
M  V30 4261 H 405.66 1.23076 5.68633 0
M  V30 4262 H 404.54 2.61635 7.39268 0
M  V30 4263 N 402.043 -1.548 -0.295768 0
M  V30 4264 C 402.99 -1.86113 -1.36494 0
M  V30 4265 C 403.96 -0.7105 -1.50137 0
M  V30 4266 O 405.145 -0.959626 -1.64912 0
M  V30 4267 C 402.285 -2.11861 -2.72413 0
M  V30 4268 C 401.398 -3.39471 -2.67177 0
M  V30 4269 C 400.533 -3.55035 -3.95125 0
M  V30 4270 C 399.572 -4.76418 -3.84308 0
M  V30 4271 N 398.709 -4.8876 -5.04042 0
M  V30 4272 H 403.549 -2.77314 -1.09091 0
M  V30 4273 H 401.086 -1.37315 -0.52753 0
M  V30 4274 H 403.044 -2.24786 -3.51464 0
M  V30 4275 H 401.674 -1.2392 -2.98066 0
M  V30 4276 H 400.726 -3.35139 -1.79962 0
M  V30 4277 H 402.038 -4.28646 -2.55076 0
M  V30 4278 H 401.192 -3.67653 -4.82614 0
M  V30 4279 H 399.931 -2.64002 -4.10066 0
M  V30 4280 H 398.936 -4.63827 -2.95202 0
M  V30 4281 H 400.161 -5.68863 -3.70906 0
M  V30 4282 H 398.107 -4.00652 -5.19436 0
M  V30 4283 H 398.024 -5.71945 -4.94384 0
M  V30 4284 H 399.292 -5.0574 -5.93167 0
M  V30 4285 N 403.521 0.559213 -1.47345 0
M  V30 4286 C 404.932 1.14134 -1.47751 0
M  V30 4287 C 405.283 1.94834 -0.231103 0
M  V30 4288 O 404.408 2.05957 0.664137 0
M  V30 4289 C 405.003 2.07653 -2.67705 0
M  V30 4290 C 403.562 2.61141 -2.71076 0
M  V30 4291 C 402.709 1.3748 -2.40821 0
M  V30 4292 H 405.66 0.345917 -1.54884 0
M  V30 4293 H 405.681 2.91497 -2.44561 0
M  V30 4294 H 405.193 1.4889 -3.58404 0
M  V30 4295 H 403.294 3.23707 -1.84511 0
M  V30 4296 H 403.407 3.02272 -3.7171 0
M  V30 4297 H 401.771 1.68086 -1.91362 0
M  V30 4298 H 402.554 0.805135 -3.33725 0
M  V30 4299 N 404.999 1.35443 0.805782 0
M  V30 4300 C 406.276 1.19325 1.54987 0
M  V30 4301 C 406.656 -0.227294 2.09873 0
M  V30 4302 O 406.004 -1.2309 1.92512 0
M  V30 4303 C 406.214 2.26196 2.65775 0
M  V30 4304 C 407.562 2.62043 3.34094 0
M  V30 4305 O 408.586 2.25115 2.76046 0
M  V30 4306 O 407.445 3.25542 4.38958 0
M  V30 4307 H 404.539 0.463623 0.684823 0
M  V30 4308 H 407.085 1.47127 0.845674 0
M  V30 4309 H 405.857 3.21471 2.23096 0
M  V30 4310 H 405.48 1.99667 3.43829 0
M  V30 4311 N 406.477 -1.02803 1.19454 0
M  V30 4312 C 407.705 -1.79841 1.02297 0
M  V30 4313 C 408.12 -1.83879 -0.428259 0
M  V30 4314 O 407.477 -1.28345 -1.29745 0
M  V30 4315 C 407.528 -3.24852 1.58598 0
M  V30 4316 O 407.249 -3.21097 2.98041 0
M  V30 4317 C 408.75 -4.18485 1.46236 0
M  V30 4318 H 405.97 -0.565936 0.360496 0
M  V30 4319 H 408.514 -1.2948 1.58288 0
M  V30 4320 H 406.669 -3.72401 1.06753 0
M  V30 4321 H 407.083 -4.12033 3.24545 0
M  V30 4322 H 408.557 -5.18121 1.90407 0
M  V30 4323 H 409.034 -4.37254 0.41301 0
M  V30 4324 H 409.64 -3.76811 1.97215 0
M  V30 4325 N 407.956 -0.998596 -1.21925 0
M  V30 4326 C 408.866 -0.562736 -2.27751 0
M  V30 4327 C 409.882 0.391203 -1.69545 0
M  V30 4328 O 411.058 0.256625 -1.99758 0
M  V30 4329 C 408.123 0.11012 -3.46525 0
M  V30 4330 C 407.184 -0.887495 -4.20026 0
M  V30 4331 C 406.417 -0.246654 -5.3313 0
M  V30 4332 O 406.64 0.958088 -5.62296 0
M  V30 4333 O 405.574 -0.954374 -5.94286 0
M  V30 4334 H 409.4 -1.44329 -2.67213 0
M  V30 4335 H 406.985 -0.767135 -1.28201 0
M  V30 4336 H 408.867 0.486756 -4.18579 0
M  V30 4337 H 407.542 0.965154 -3.08976 0
M  V30 4338 H 406.449 -1.31517 -3.5022 0
M  V30 4339 H 407.782 -1.71191 -4.6147 0
M  V30 4340 N 409.434 1.37368 -0.772513 0
M  V30 4341 C 410.384 2.27613 -0.132823 0
M  V30 4342 C 411.368 1.46138 0.673247 0
M  V30 4343 O 412.56 1.68686 0.536095 0
M  V30 4344 C 409.689 3.35122 0.744864 0
M  V30 4345 C 408.775 4.24044 -0.0690771 0
M  V30 4346 N 409.166 4.93355 -1.1151 0
M  V30 4347 C 407.464 4.45731 0.154782 0
M  V30 4348 C 408.165 5.59 -1.60917 0
M  V30 4349 N 407.141 5.35737 -0.921222 0
M  V30 4350 H 410.943 2.78675 -0.933681 0
M  V30 4351 H 408.457 1.50494 -0.610342 0
M  V30 4352 H 410.454 3.98683 1.21892 0
M  V30 4353 H 409.114 2.85616 1.54446 0
M  V30 4354 H 410.125 4.95785 -1.49726 0
M  V30 4355 H 406.802 4.07096 0.926224 0
M  V30 4356 H 408.192 6.24395 -2.48153 0
M  V30 4357 N 410.912 0.523116 1.48665 0
M  V30 4358 C 411.875 -0.232592 2.28017 0
M  V30 4359 C 412.875 -0.874021 1.34972 0
M  V30 4360 O 414.065 -0.735132 1.57929 0
M  V30 4361 C 411.197 -1.33586 3.13636 0
M  V30 4362 H 412.39 0.464008 2.96289 0
M  V30 4363 H 409.943 0.278816 1.53793 0
M  V30 4364 H 410.678 -2.06593 2.4998 0
M  V30 4365 H 410.463 -0.881125 3.82071 0
M  V30 4366 H 411.953 -1.86759 3.73511 0
M  V30 4367 N 412.39 -1.55475 0.257931 0
M  V30 4368 C 413.636 -1.99502 -0.364266 0
M  V30 4369 C 413.969 -1.146 -1.56782 0
M  V30 4370 O 413.244 -0.211968 -1.93342 0
M  V30 4371 C 413.527 -3.51917 -0.763333 0
M  V30 4372 C 413.38 -4.4758 0.446371 0
M  V30 4373 C 414.699 -4.09742 -1.60623 0
M  V30 4374 H 411.818 -0.725277 -0.130929 0
M  V30 4375 H 414.46 -1.8653 0.361446 0
M  V30 4376 H 412.61 -3.63101 -1.38166 0
M  V30 4377 H 414.282 -4.48362 1.08487 0
M  V30 4378 H 412.525 -4.19947 1.08753 0
M  V30 4379 H 413.196 -5.51862 0.123645 0
M  V30 4380 H 415.672 -4.01727 -1.08418 0
M  V30 4381 H 414.548 -5.16631 -1.85429 0
M  V30 4382 H 414.809 -3.58889 -2.58169 0
M  V30 4383 N 413.868 0.0150385 -1.57593 0
M  V30 4384 C 415.117 0.702115 -1.89085 0
M  V30 4385 C 415.43 1.75764 -0.858277 0
M  V30 4386 O 416.636 2.49829 -1.0629 0
M  V30 4387 C 415.092 1.29992 -3.35604 0
M  V30 4388 C 414.7 0.280007 -4.47124 0
M  V30 4389 C 416.444 1.96606 -3.76227 0
M  V30 4390 C 414.351 0.886949 -5.84711 0
M  V30 4391 H 413.281 0.265997 -0.705522 0
M  V30 4392 H 415.932 -0.0430408 -1.8345 0
M  V30 4393 H 414.314 2.09525 -3.36029 0
M  V30 4394 H 415.488 -0.489631 -4.58191 0
M  V30 4395 H 413.803 -0.284835 -4.15425 0
M  V30 4396 H 416.4 2.42893 -4.76347 0
M  V30 4397 H 416.743 2.79024 -3.08952 0
M  V30 4398 H 417.276 1.23828 -3.78036 0
M  V30 4399 H 414.015 0.101876 -6.55421 0
M  V30 4400 H 413.535 1.6261 -5.77337 0
M  V30 4401 H 415.214 1.39011 -6.3189 0
M  V30 4402 N 415.346 1.54954 0.287554 0
M  V30 4403 C 416.762 1.46469 0.633964 0
M  V30 4404 C 416.962 0.666865 1.90145 0
M  V30 4405 O 416.018 0.179906 2.51858 0
M  V30 4406 C 417.331 2.90556 0.774454 0
M  V30 4407 C 418.879 3.00681 0.869462 0
M  V30 4408 C 419.354 4.45993 1.04184 0
M  V30 4409 N 420.845 4.4976 1.10772 0
M  V30 4410 C 421.58 5.59393 1.25964 0
M  V30 4411 N 421.076 6.78923 1.37968 0
M  V30 4412 N 422.869 5.47107 1.28959 0
M  V30 4413 H 415.02 2.05288 -0.545041 0
M  V30 4414 H 417.283 0.930305 -0.182308 0
M  V30 4415 H 416.989 3.51594 -0.086207 0
M  V30 4416 H 416.863 3.38743 1.6593 0
M  V30 4417 H 419.25 2.39749 1.7206 0
M  V30 4418 H 419.331 2.55769 -0.0396831 0
M  V30 4419 H 418.975 5.07524 0.195422 0
M  V30 4420 H 418.905 4.88548 1.96542 0
M  V30 4421 H 421.396 3.63651 1.02794 0
M  V30 4422 H 421.709 7.58231 1.49353 0
M  V30 4423 H 420.054 6.81763 1.34999 0
M  V30 4424 H 423.245 4.52668 1.19202 0
M  V30 4425 H 423.418 6.32595 1.40455 0
M  V30 4426 N 416.824 -0.551391 1.4764 0
M  V30 4427 C 417.754 -1.66757 1.63445 0
M  V30 4428 C 418.735 -1.63077 0.483742 0
M  V30 4429 O 419.92 -1.80607 0.71377 0
M  V30 4430 C 417.05 -3.05387 1.65396 0
M  V30 4431 C 416.004 -3.23918 2.79752 0
M  V30 4432 C 415.33 -4.63393 2.66779 0
M  V30 4433 C 416.63 -3.08735 4.21284 0
M  V30 4434 H 418.324 -1.53786 2.56886 0
M  V30 4435 H 415.87 -0.738415 1.23626 0
M  V30 4436 H 417.823 -3.83325 1.75043 0
M  V30 4437 H 416.547 -3.19332 0.685195 0
M  V30 4438 H 415.206 -2.48391 2.69625 0
M  V30 4439 H 414.854 -4.74144 1.67918 0
M  V30 4440 H 414.554 -4.7674 3.43501 0
M  V30 4441 H 416.078 -5.43458 2.78364 0
M  V30 4442 H 417.492 -3.76484 4.32357 0
M  V30 4443 H 415.889 -3.33588 4.98838 0
M  V30 4444 H 416.959 -2.0541 4.39243 0
M  V30 4445 N 418.302 -1.35869 -0.798587 0
M  V30 4446 C 419.249 -1.29446 -1.91082 0
M  V30 4447 C 420.219 -0.16487 -1.6528 0
M  V30 4448 O 421.404 -0.349888 -1.87564 0
M  V30 4449 C 418.544 -1.0804 -3.27752 0
M  V30 4450 C 417.657 -2.29993 -3.65687 0
M  V30 4451 C 416.792 -2.01673 -4.91428 0
M  V30 4452 C 415.831 -3.19636 -5.22015 0
M  V30 4453 N 414.968 -2.91039 -6.38937 0
M  V30 4454 H 419.808 -2.24553 -1.95907 0
M  V30 4455 H 417.345 -1.11615 -0.958148 0
M  V30 4456 H 419.303 -0.936586 -4.06551 0
M  V30 4457 H 417.933 -0.16592 -3.22373 0
M  V30 4458 H 416.985 -2.55211 -2.82085 0
M  V30 4459 H 418.297 -3.18052 -3.84245 0
M  V30 4460 H 417.451 -1.84168 -5.78072 0
M  V30 4461 H 416.19 -1.10911 -4.74921 0
M  V30 4462 H 415.195 -3.37709 -4.33858 0
M  V30 4463 H 416.42 -4.11211 -5.40447 0
M  V30 4464 H 414.366 -2.0288 -6.2384 0
M  V30 4465 H 414.283 -3.72635 -6.57784 0
M  V30 4466 H 415.551 -2.77093 -7.28587 0
M  V30 4467 N 419.78 1.02168 -1.19998 0
M  V30 4468 C 420.728 2.12717 -0.940967 0
M  V30 4469 C 421.722 1.69069 0.105841 0
M  V30 4470 O 422.928 1.79946 -0.0440583 0
M  V30 4471 H 419.303 0.695108 -0.28693 0
M  V30 4472 H 421.274 2.3175 -1.87975 0
M  V30 4473 C 420.023 3.44027 -0.504049 0
M  V30 4474 H 419.346 3.78036 -1.30112 0
M  V30 4475 H 420.786 4.22452 -0.361991 0
M  V30 4476 C 419.245 3.27678 0.782878 0
M  V30 4477 O 419.775 3.56949 1.84256 0
M  V30 4478 N 417.981 2.80943 0.742921 0
M  V30 4479 H 417.528 2.57322 -0.119687 0
M  V30 4480 H 417.486 2.70385 1.60435 0
M  V30 4481 N 421.258 1.00505 1.21394 0
M  V30 4482 C 422.535 0.603277 1.86064 0
M  V30 4483 C 422.915 -0.919095 1.90042 0
M  V30 4484 O 422.263 -1.80607 1.39977 0
M  V30 4485 C 422.473 1.23772 3.26315 0
M  V30 4486 C 423.821 1.34586 4.02705 0
M  V30 4487 O 424.845 1.19304 3.35626 0
M  V30 4488 O 423.704 1.59169 5.22807 0
M  V30 4489 H 420.798 0.206634 0.800769 0
M  V30 4490 H 423.344 1.1017 1.29076 0
M  V30 4491 H 422.116 2.27848 3.18121 0
M  V30 4492 H 421.739 0.725648 3.90922 0
M  V30 4493 N 422.737 -1.36956 0.779787 0
M  V30 4494 C 423.669 -2.28833 0.129639 0
M  V30 4495 C 424.682 -1.4902 -0.655511 0
M  V30 4496 O 425.871 -1.71578 -0.492279 0
M  V30 4497 C 422.971 -3.2833 -0.839792 0
M  V30 4498 C 422.144 -4.3727 -0.10675 0
M  V30 4499 C 421.203 -5.16789 -0.990717 0
M  V30 4500 O 420.229 -5.67406 -0.451516 0
M  V30 4501 N 421.431 -5.32294 -2.3161 0
M  V30 4502 H 424.196 -2.85268 0.918803 0
M  V30 4503 H 421.757 -1.49019 0.632841 0
M  V30 4504 H 423.749 -3.78413 -1.43477 0
M  V30 4505 H 422.319 -2.72605 -1.52988 0
M  V30 4506 H 421.539 -3.88478 0.669216 0
M  V30 4507 H 422.827 -5.07229 0.399464 0
M  V30 4508 H 422.225 -4.92768 -2.77843 0
M  V30 4509 H 420.782 -5.85656 -2.86095 0
M  V30 4510 N 424.215 -0.530993 -1.48385 0
M  V30 4511 C 425.178 0.220497 -2.28137 0
M  V30 4512 C 426.178 0.866851 -1.35434 0
M  V30 4513 O 427.368 0.726746 -1.58316 0
M  V30 4514 C 424.5 1.31921 -3.1434 0
M  V30 4515 H 425.693 -0.479714 -2.96038 0
M  V30 4516 H 423.246 -0.286968 -1.53643 0
M  V30 4517 H 423.981 2.05264 -2.51072 0
M  V30 4518 H 423.766 0.86085 -3.82533 0
M  V30 4519 H 425.256 1.84776 -3.74497 0
M  V30 4520 N 425.693 1.55336 -0.266172 0
M  V30 4521 C 426.641 2.23587 0.641228 0
M  V30 4522 C 427.635 1.22986 1.16494 0
M  V30 4523 O 428.841 1.40943 1.1196 0
M  V30 4524 H 425.216 0.717452 0.225315 0
M  V30 4525 H 427.187 2.9837 0.0426561 0
M  V30 4526 C 425.936 2.96369 1.81826 0
M  V30 4527 H 425.259 3.73563 1.42445 0
M  V30 4528 H 426.699 3.47459 2.42998 0
M  V30 4529 C 425.158 2.0133 2.70125 0
M  V30 4530 O 425.688 1.55875 3.70224 0
M  V30 4531 N 423.894 1.6802 2.37102 0
M  V30 4532 H 423.441 2.05181 1.55751 0
M  V30 4533 H 423.399 1.047 2.96454 0
M  V30 4534 N 427.171 -0.0066808 1.57599 0
M  V30 4535 C 428.401 -0.703066 1.94269 0
M  V30 4536 C 428.809 -1.68206 0.866222 0
M  V30 4537 O 428.152 -1.82966 -0.164087 0
M  V30 4538 C 428.214 -1.49616 3.26887 0
M  V30 4539 C 427.878 -0.679494 4.5192 0
M  V30 4540 C 428.875 0.0299508 5.19891 0
M  V30 4541 C 426.56 -0.627433 4.98366 0
M  V30 4542 C 428.554 0.780514 6.32603 0
M  V30 4543 C 426.241 0.126861 6.10968 0
M  V30 4544 C 427.239 0.829574 6.77943 0
M  V30 4545 O 426.927 1.57157 7.88389 0
M  V30 4546 H 426.659 -0.201217 0.645359 0
M  V30 4547 H 429.213 0.0385326 2.05364 0
M  V30 4548 H 427.443 -2.28209 3.12182 0
M  V30 4549 H 429.132 -2.07726 3.48719 0
M  V30 4550 H 429.898 -0.00115963 4.85 0
M  V30 4551 H 425.777 -1.16392 4.46065 0
M  V30 4552 H 429.321 1.32954 6.84813 0
M  V30 4553 H 425.218 0.159815 6.45302 0
M  V30 4554 H 425.986 1.48758 8.04868 0
M  V30 4555 N 428.649 -1.55105 -0.279332 0
M  V30 4556 C 429.874 -1.7976 -1.03446 0
M  V30 4557 C 430.299 -0.565952 -1.79384 0
M  V30 4558 O 429.657 0.484259 -1.74713 0
M  V30 4559 C 429.705 -3.0179 -1.97371 0
M  V30 4560 O 428.809 -2.76432 -3.06038 0
M  V30 4561 H 428.15 -0.594334 -0.29608 0
M  V30 4562 H 430.68 -2.02235 -0.310165 0
M  V30 4563 H 430.69 -3.30351 -2.39441 0
M  V30 4564 H 429.365 -3.91085 -1.4151 0
M  V30 4565 H 427.942 -2.58949 -2.68328 0
M  V30 4566 N 430.127 0.543554 -1.4793 0
M  V30 4567 C 431.057 1.65888 -1.64327 0
M  V30 4568 C 432.038 1.62818 -0.492383 0
M  V30 4569 O 433.223 1.80226 -0.723338 0
M  V30 4570 C 430.353 3.04506 -1.67013 0
M  V30 4571 C 429.307 3.2243 -2.81466 0
M  V30 4572 C 428.633 4.61972 -2.69233 0
M  V30 4573 C 429.933 3.06496 -4.22915 0
M  V30 4574 H 431.627 1.52421 -2.57698 0
M  V30 4575 H 429.173 0.731849 -1.24016 0
M  V30 4576 H 431.126 3.82391 -1.77074 0
M  V30 4577 H 429.85 3.18964 -0.70212 0
M  V30 4578 H 428.509 2.46957 -2.70938 0
M  V30 4579 H 428.157 4.73247 -1.7043 0
M  V30 4580 H 427.857 4.74911 -3.46025 0
M  V30 4581 H 429.381 5.41974 -2.81242 0
M  V30 4582 H 430.795 3.74186 -4.34348 0
M  V30 4583 H 429.192 3.30938 -5.006 0
M  V30 4584 H 430.262 2.03077 -4.40327 0
M  V30 4585 N 431.605 1.3629 0.791371 0
M  V30 4586 C 432.553 1.30514 1.92533 0
M  V30 4587 C 433.547 0.197285 1.68247 0
M  V30 4588 O 434.753 0.364176 1.76278 0
M  V30 4589 H 431.128 0.406263 0.632815 0
M  V30 4590 H 433.099 2.26282 1.94523 0
M  V30 4591 C 431.848 1.10933 3.29529 0
M  V30 4592 H 431.171 1.95427 3.48781 0
M  V30 4593 H 432.611 1.10937 4.0923 0
M  V30 4594 C 431.07 -0.186123 3.36385 0
M  V30 4595 O 431.6 -1.17664 3.84081 0
M  V30 4596 N 429.806 -0.230128 2.89687 0
M  V30 4597 H 429.353 0.576545 2.51065 0
M  V30 4598 H 429.311 -1.09658 2.94657 0
M  V30 4599 N 433.083 -1.0153 1.20538 0
M  V30 4600 C 434.311 -1.78746 1.04199 0
M  V30 4601 C 434.726 -1.84323 -0.408733 0
M  V30 4602 O 434.083 -1.29714 -1.28377 0
M  V30 4603 C 434.134 -3.23152 1.62035 0
M  V30 4604 O 433.855 -3.17918 3.0143 0
M  V30 4605 C 435.356 -4.16911 1.50666 0
M  V30 4606 H 432.576 -0.56208 0.366479 0
M  V30 4607 H 435.12 -1.27794 1.59653 0
M  V30 4608 H 433.275 -3.71248 1.10697 0
M  V30 4609 H 433.689 -4.08567 3.28897 0
M  V30 4610 H 435.163 -5.16072 1.95892 0
M  V30 4611 H 435.64 -4.36791 0.459363 0
M  V30 4612 H 436.246 -3.74698 2.01201 0
M  V30 4613 N 434.561 -1.01147 -1.20859 0
M  V30 4614 C 435.838 -0.613136 -1.85742 0
M  V30 4615 C 436.218 0.909004 -1.90526 0
M  V30 4616 O 435.566 1.79862 -1.40932 0
M  V30 4617 C 435.776 -1.255 -3.25654 0
M  V30 4618 C 437.124 -1.3672 -4.01986 0
M  V30 4619 O 438.148 -1.21082 -3.34989 0
M  V30 4620 O 437.007 -1.6194 -5.21956 0
M  V30 4621 H 434.101 -0.210878 -0.799662 0
M  V30 4622 H 436.647 -1.10853 -1.2849 0
M  V30 4623 H 435.419 -2.29532 -3.16908 0
M  V30 4624 H 435.042 -0.746369 -3.90532 0
M  V30 4625 N 436.039 1.36541 -0.78704 0
M  V30 4626 C 437.316 1.9355 -0.282424 0
M  V30 4627 C 437.696 1.71919 1.22503 0
M  V30 4628 O 437.044 1.07677 2.01539 0
M  V30 4629 C 437.254 3.4246 -0.672462 0
M  V30 4630 C 438.602 4.19582 -0.650863 0
M  V30 4631 O 439.626 3.50889 -0.612789 0
M  V30 4632 O 438.485 5.42106 -0.691623 0
M  V30 4633 H 435.579 0.824091 -0.0693 0
M  V30 4634 H 438.125 1.45736 -0.869423 0
M  V30 4635 H 436.897 3.51851 -1.71221 0
M  V30 4636 H 436.52 3.97556 -0.0592211 0
M  V30 4637 N 437.518 0.538854 1.48102 0
M  V30 4638 C 438.929 0.100679 1.86428 0
M  V30 4639 C 439.28 -1.32447 1.44749 0
M  V30 4640 O 438.405 -1.99339 0.842199 0
M  V30 4641 C 439 0.175933 3.38343 0
M  V30 4642 C 437.559 -0.207098 3.7583 0
M  V30 4643 C 436.706 0.531741 2.72154 0
M  V30 4644 H 439.657 0.749614 1.3988 0
M  V30 4645 H 439.678 -0.610144 3.75576 0
M  V30 4646 H 439.19 1.21328 3.68648 0
M  V30 4647 H 437.291 -1.24626 3.5114 0
M  V30 4648 H 437.404 0.138687 4.78899 0
M  V30 4649 H 435.768 -0.0230462 2.5469 0
M  V30 4650 H 436.551 1.56989 3.05302 0
M  V30 4651 N 438.996 -1.55193 0.274407 0
M  V30 4652 C 439.926 -2.25471 -0.607032 0
M  V30 4653 C 440.907 -1.24461 -1.15946 0
M  V30 4654 O 442.092 -1.53179 -1.19373 0
M  V30 4655 C 439.222 -2.97526 -1.79153 0
M  V30 4656 C 438.176 -4.05459 -1.37067 0
M  V30 4657 C 437.502 -4.65084 -2.6382 0
M  V30 4658 C 438.802 -5.19691 -0.521389 0
M  V30 4659 H 440.496 -2.99393 -0.0209343 0
M  V30 4660 H 438.042 -1.43997 -0.00862866 0
M  V30 4661 H 439.995 -3.45402 -2.41404 0
M  V30 4662 H 438.719 -2.21138 -2.40344 0
M  V30 4663 H 437.378 -3.58393 -0.771355 0
M  V30 4664 H 437.026 -3.85365 -3.23268 0
M  V30 4665 H 436.726 -5.37961 -2.36372 0
M  V30 4666 H 438.25 -5.15708 -3.26921 0
M  V30 4667 H 439.664 -5.63623 -1.04889 0
M  V30 4668 H 438.061 -5.99126 -0.341825 0
M  V30 4669 H 439.131 -4.82713 0.46 0
M  V30 4670 N 440.474 -0.00167713 -1.576 0
M  V30 4671 C 441.723 0.682021 -1.89819 0
M  V30 4672 C 442.036 1.74844 -0.876871 0
M  V30 4673 O 443.242 2.48688 -1.08934 0
M  V30 4674 C 441.698 1.26425 -3.36964 0
M  V30 4675 C 441.306 0.232568 -4.47396 0
M  V30 4676 C 443.05 1.92604 -3.78291 0
M  V30 4677 C 440.957 0.824882 -5.85619 0
M  V30 4678 H 439.887 0.258499 -0.708304 0
M  V30 4679 H 442.538 -0.0624957 -1.83394 0
M  V30 4680 H 440.92 2.05949 -3.38232 0
M  V30 4681 H 442.094 -0.5382 -4.57646 0
M  V30 4682 H 440.409 -0.32888 -4.15099 0
M  V30 4683 H 443.006 2.37827 -4.78897 0
M  V30 4684 H 443.349 2.75732 -3.11894 0
M  V30 4685 H 443.882 1.19812 -3.79328 0
M  V30 4686 H 440.621 0.0323542 -6.55492 0
M  V30 4687 H 440.141 1.56477 -5.79029 0
M  V30 4688 H 441.82 1.32301 -6.33329 0
M  V30 4689 N 441.952 1.55251 0.271103 0
M  V30 4690 C 443.199 1.75946 1.00245 0
M  V30 4691 C 443.527 0.561611 1.86215 0
M  V30 4692 O 442.782 -0.455832 1.90317 0
M  V30 4693 C 443.081 3.01879 1.91321 0
M  V30 4694 C 442.747 4.34337 1.21086 0
M  V30 4695 C 441.409 4.70338 1.01666 0
M  V30 4696 C 443.761 5.16325 0.71119 0
M  V30 4697 C 441.089 5.8588 0.310099 0
M  V30 4698 C 443.441 6.32597 0.0182157 0
M  V30 4699 C 442.105 6.67236 -0.18768 0
M  V30 4700 H 441.375 0.643833 0.366824 0
M  V30 4701 H 444.022 1.89521 0.27458 0
M  V30 4702 H 442.327 2.83212 2.70736 0
M  V30 4703 H 444.024 3.15088 2.48033 0
M  V30 4704 H 440.614 4.06043 1.37213 0
M  V30 4705 H 444.798 4.88987 0.848844 0
M  V30 4706 H 440.054 6.1124 0.139873 0
M  V30 4707 H 444.228 6.9538 -0.376711 0
M  V30 4708 H 441.855 7.56618 -0.73715 0
M  V30 4709 N 443.43 -0.535701 1.48216 0
M  V30 4710 C 444.377 -1.64083 1.62312 0
M  V30 4711 C 445.347 -1.59448 0.465365 0
M  V30 4712 O 446.532 -1.77959 0.688135 0
M  V30 4713 C 443.672 -3.0236 1.66349 0
M  V30 4714 C 442.785 -3.17273 2.93193 0
M  V30 4715 C 441.92 -4.46075 2.88427 0
M  V30 4716 C 440.959 -4.54496 4.1 0
M  V30 4717 N 440.096 -5.7468 4.03345 0
M  V30 4718 H 444.936 -1.51374 2.5669 0
M  V30 4719 H 442.473 -0.737059 1.27302 0
M  V30 4720 H 444.431 -3.82461 1.66672 0
M  V30 4721 H 443.061 -3.13854 0.754672 0
M  V30 4722 H 442.113 -2.30462 3.02641 0
M  V30 4723 H 443.425 -3.19357 3.83162 0
M  V30 4724 H 442.579 -5.3446 2.87119 0
M  V30 4725 H 441.318 -4.46504 1.96177 0
M  V30 4726 H 440.323 -3.64519 4.11589 0
M  V30 4727 H 441.548 -4.5581 5.03402 0
M  V30 4728 H 439.494 -5.76017 3.13912 0
M  V30 4729 H 439.411 -5.78234 4.87013 0
M  V30 4730 H 440.679 -6.65367 4.06087 0
M  V30 4731 N 444.908 -1.36708 -0.784132 0
M  V30 4732 C 446.133 -1.34565 -1.5782 0
M  V30 4733 C 446.558 0.0695257 -1.87971 0
M  V30 4734 O 445.916 1.04302 -1.48293 0
M  V30 4735 C 445.964 -2.17952 -2.87279 0
M  V30 4736 O 445.068 -1.57563 -3.81114 0
M  V30 4737 H 444.409 -0.460337 -0.478524 0
M  V30 4738 H 446.939 -1.80064 -0.971495 0
M  V30 4739 H 446.949 -2.30721 -3.365 0
M  V30 4740 H 445.624 -3.20823 -2.64661 0
M  V30 4741 H 444.201 -1.53764 -3.39722 0
M  V30 4742 N 446.386 1.0089 -1.21074 0
M  V30 4743 C 447.614 1.78191 -1.05145 0
M  V30 4744 C 448.029 1.84537 0.398952 0
M  V30 4745 O 447.386 1.30393 1.27687 0
M  V30 4746 C 447.437 3.22288 -1.63746 0
M  V30 4747 O 447.158 3.16315 -3.03111 0
M  V30 4748 C 448.659 4.16106 -1.52875 0
M  V30 4749 H 445.879 0.560129 -0.369454 0
M  V30 4750 H 448.423 1.26945 -1.60328 0
M  V30 4751 H 446.578 3.70655 -1.12664 0
M  V30 4752 H 446.992 4.06817 -3.31059 0
M  V30 4753 H 448.466 5.15026 -1.98626 0
M  V30 4754 H 448.943 4.36541 -0.482521 0
M  V30 4755 H 449.549 3.73625 -2.03185 0
M  V30 4756 N 447.864 1.01787 1.20321 0
M  V30 4757 C 448.794 0.609625 2.25401 0
M  V30 4758 C 449.775 -0.375951 1.65893 0
M  V30 4759 O 450.96 -0.261101 1.92437 0
M  V30 4760 C 448.09 -0.0515995 3.47262 0
M  V30 4761 C 447.044 0.855095 4.19371 0
M  V30 4762 C 446.37 0.0595757 5.34667 0
M  V30 4763 C 447.67 2.16374 4.75373 0
M  V30 4764 H 449.364 1.48803 2.59804 0
M  V30 4765 H 446.91 0.716934 1.24884 0
M  V30 4766 H 448.863 -0.348764 4.19954 0
M  V30 4767 H 447.587 -0.964726 3.12027 0
M  V30 4768 H 446.246 1.13628 3.48546 0
M  V30 4769 H 445.894 -0.85524 4.95676 0
M  V30 4770 H 445.594 0.663406 5.83843 0
M  V30 4771 H 447.118 -0.231105 6.10162 0
M  V30 4772 H 448.532 1.92885 5.39878 0
M  V30 4773 H 446.929 2.71853 5.34991 0
M  V30 4774 H 447.999 2.82589 3.94045 0
M  V30 4775 N 449.342 -1.36122 0.79427 0
M  V30 4776 C 450.619 -1.93398 0.292685 0
M  V30 4777 C 450.999 -1.72567 -1.21589 0
M  V30 4778 O 450.347 -1.08745 -2.00965 0
M  V30 4779 C 450.557 -3.42099 0.690614 0
M  V30 4780 C 451.905 -4.19231 0.673105 0
M  V30 4781 O 452.929 -3.50559 0.631389 0
M  V30 4782 O 451.788 -5.41732 0.720362 0
M  V30 4783 H 448.882 -0.823712 0.0736693 0
M  V30 4784 H 451.428 -1.45273 0.87714 0
M  V30 4785 H 450.2 -3.50938 1.73085 0
M  V30 4786 H 449.823 -3.97519 0.0803036 0
M  V30 4787 N 450.82 -0.546701 -1.47814 0
M  V30 4788 C 452.048 -0.0232857 -2.06887 0
M  V30 4789 C 452.463 1.26571 -1.4009 0
M  V30 4790 O 451.82 1.7569 -0.493906 0
M  V30 4791 C 451.871 0.186975 -3.61016 0
M  V30 4792 O 451.592 -1.05097 -4.25307 0
M  V30 4793 C 453.093 0.748872 -4.36929 0
M  V30 4794 H 450.313 -0.0410763 -0.669742 0
M  V30 4795 H 452.857 -0.757117 -1.89968 0
M  V30 4796 H 451.012 0.870903 -3.77484 0
M  V30 4797 H 451.426 -0.842121 -5.17695 0
M  V30 4798 H 452.9 0.845334 -5.45489 0
M  V30 4799 H 453.377 1.75772 -4.02493 0
M  V30 4800 H 453.983 0.100979 -4.2518 0
M  V30 4801 N 452.299 1.55045 -0.282633 0
M  V30 4802 C 453.576 1.9179 0.384166 0
M  V30 4803 C 453.956 1.20778 1.73136 0
M  V30 4804 O 453.304 0.33719 2.25998 0
M  V30 4805 C 453.514 3.45149 0.517014 0
M  V30 4806 C 454.862 4.17064 0.796427 0
M  V30 4807 O 455.886 3.51084 0.601535 0
M  V30 4808 O 454.745 5.33837 1.16962 0
M  V30 4809 H 451.839 0.799483 0.211558 0
M  V30 4810 H 454.385 1.66474 -0.32934 0
M  V30 4811 H 453.157 3.88922 -0.430772 0
M  V30 4812 H 452.78 3.76443 1.2797 0
M  V30 4813 N 453.777 0.010035 1.57597 0
M  V30 4814 C 455.007 -0.682422 1.95004 0
M  V30 4815 C 455.415 -1.67278 0.884014 0
M  V30 4816 O 454.758 -1.83129 -0.144672 0
M  V30 4817 C 454.82 -1.46141 3.28456 0
M  V30 4818 C 454.484 -0.631523 4.52615 0
M  V30 4819 C 455.481 0.0850905 5.1983 0
M  V30 4820 C 453.166 -0.574539 4.99003 0
M  V30 4821 C 455.16 0.847566 6.3174 0
M  V30 4822 C 452.847 0.191655 6.10799 0
M  V30 4823 C 453.845 0.901432 6.77025 0
M  V30 4824 O 453.533 1.65511 7.86677 0
M  V30 4825 H 453.265 -0.194361 0.647456 0
M  V30 4826 H 455.819 0.060312 2.05311 0
M  V30 4827 H 454.049 -2.24885 3.14585 0
M  V30 4828 H 455.738 -2.04016 3.50902 0
M  V30 4829 H 456.504 0.0502812 4.84974 0
M  V30 4830 H 452.383 -1.11654 4.47274 0
M  V30 4831 H 455.927 1.4021 6.83364 0
M  V30 4832 H 451.824 0.228249 6.45096 0
M  V30 4833 H 452.592 1.57287 8.03245 0
M  V30 4834 N 455.255 -1.55392 -0.262866 0
M  V30 4835 C 456.187 -1.85392 -1.34768 0
M  V30 4836 C 457.2 -0.739069 -1.45057 0
M  V30 4837 O 458.389 -1.01703 -1.46693 0
M  V30 4838 C 455.489 -2.01088 -2.72795 0
M  V30 4839 C 454.662 -3.31828 -2.84972 0
M  V30 4840 C 453.721 -3.37464 -4.03738 0
M  V30 4841 O 452.747 -4.10778 -3.94018 0
M  V30 4842 N 453.949 -2.65599 -5.16176 0
M  V30 4843 H 456.714 -2.79029 -1.09375 0
M  V30 4844 H 454.275 -1.55434 -0.452981 0
M  V30 4845 H 456.267 -2.02217 -3.50557 0
M  V30 4846 H 454.837 -1.1427 -2.90966 0
M  V30 4847 H 454.057 -3.43152 -1.94012 0
M  V30 4848 H 455.345 -4.18032 -2.90045 0
M  V30 4849 H 454.743 -2.05736 -5.26962 0
M  V30 4850 H 453.3 -2.72439 -5.92132 0
M  V30 4851 N 456.733 0.527833 -1.48498 0
M  V30 4852 C 457.666 1.64892 -1.57753 0
M  V30 4853 C 458.644 1.5687 -0.427867 0
M  V30 4854 O 459.828 1.77311 -0.639764 0
M  V30 4855 C 456.955 3.03301 -1.50752 0
M  V30 4856 C 456.001 3.29675 -2.70586 0
M  V30 4857 S 456.834 3.15712 -4.32535 0
M  V30 4858 C 457.99 4.56564 -4.28136 0
M  V30 4859 H 458.223 1.56792 -2.52594 0
M  V30 4860 H 455.756 0.710959 -1.37057 0
M  V30 4861 H 457.714 3.83123 -1.474 0
M  V30 4862 H 456.375 3.08839 -0.572454 0
M  V30 4863 H 455.568 4.3065 -2.61833 0
M  V30 4864 H 455.17 2.57526 -2.71212 0
M  V30 4865 H 457.462 5.48126 -3.98201 0
M  V30 4866 H 458.405 4.70371 -5.29298 0
M  V30 4867 H 458.813 4.35987 -3.58574 0
M  V30 4868 N 458.211 1.37122 0.776871 0
M  V30 4869 C 459.439 1.3523 1.5659 0
M  V30 4870 C 459.854 -0.0635518 1.88693 0
M  V30 4871 O 459.211 -1.02394 1.51069 0
M  V30 4872 C 459.262 2.18583 2.8793 0
M  V30 4873 O 458.983 3.5465 2.57206 0
M  V30 4874 C 460.484 2.24612 3.82183 0
M  V30 4875 H 457.704 0.4634 0.485285 0
M  V30 4876 H 460.248 1.80392 0.963266 0
M  V30 4877 H 458.403 1.76943 3.4463 0
M  V30 4878 H 458.817 3.98286 3.41275 0
M  V30 4879 H 460.291 2.87267 4.71361 0
M  V30 4880 H 460.768 1.25309 4.20944 0
M  V30 4881 H 461.374 2.66543 3.31414 0
M  V30 4882 N 459.689 -1.00246 1.21608 0
M  V30 4883 C 460.636 -2.09073 0.977613 0
M  V30 4884 C 461.606 -1.65815 -0.097297 0
M  V30 4885 O 462.791 -1.90734 0.0503445 0
M  V30 4886 C 459.931 -3.40671 0.551133 0
M  V30 4887 C 459.044 -3.97326 1.69576 0
M  V30 4888 C 458.179 -5.17043 1.2182 0
M  V30 4889 C 457.218 -5.65813 2.335 0
M  V30 4890 N 456.355 -6.76778 1.86859 0
M  V30 4891 H 461.195 -2.28806 1.90924 0
M  V30 4892 H 458.732 -1.12186 0.951452 0
M  V30 4893 H 460.69 -4.16225 0.285097 0
M  V30 4894 H 459.32 -3.20967 -0.343489 0
M  V30 4895 H 458.372 -3.18734 2.07637 0
M  V30 4896 H 459.684 -4.29511 2.53617 0
M  V30 4897 H 458.838 -5.99852 0.908975 0
M  V30 4898 H 457.577 -4.86458 0.347869 0
M  V30 4899 H 456.582 -4.81599 2.65222 0
M  V30 4900 H 457.807 -5.98427 3.21033 0
M  V30 4901 H 455.753 -6.47994 1.02174 0
M  V30 4902 H 455.67 -7.08231 2.64471 0
M  V30 4903 H 456.938 -7.63116 1.58978 0
M  V30 4904 N 461.167 -1.02423 -1.1978 0
M  V30 4905 C 462.583 -0.740459 -1.41384 0
M  V30 4906 C 462.783 0.676827 -1.89793 0
M  V30 4907 O 461.839 1.4435 -2.0717 0
M  V30 4908 C 463.152 -1.77264 -2.42895 0
M  V30 4909 C 464.7 -1.79165 -2.56649 0
M  V30 4910 C 465.175 -2.8133 -3.6141 0
M  V30 4911 N 466.666 -2.80118 -3.68901 0
M  V30 4912 C 467.401 -3.55824 -4.49641 0
M  V30 4913 N 466.897 -4.41231 -5.34123 0
M  V30 4914 N 468.69 -3.44387 -4.44246 0
M  V30 4915 H 460.841 -1.9391 -0.866764 0
M  V30 4916 H 463.104 -0.838074 -0.443098 0
M  V30 4917 H 462.81 -2.7884 -2.14339 0
M  V30 4918 H 462.684 -1.59108 -3.42001 0
M  V30 4919 H 465.071 -0.782702 -2.84531 0
M  V30 4920 H 465.152 -2.01396 -1.57713 0
M  V30 4921 H 464.796 -3.82394 -3.34271 0
M  V30 4922 H 464.726 -2.56359 -4.59986 0
M  V30 4923 H 467.217 -2.1817 -3.08562 0
M  V30 4924 H 467.53 -4.95747 -5.92836 0
M  V30 4925 H 465.875 -4.45306 -5.33599 0
M  V30 4926 H 469.066 -2.7708 -3.77285 0
M  V30 4927 H 469.239 -4.0364 -5.06931 0
M  V30 4928 N 462.645 1.35699 -0.801477 0
M  V30 4929 C 463.922 1.9324 -0.302937 0
M  V30 4930 C 464.302 1.73209 1.20672 0
M  V30 4931 O 463.65 1.09809 2.00385 0
M  V30 4932 C 463.86 3.41728 -0.708747 0
M  V30 4933 C 465.208 4.18868 -0.695328 0
M  V30 4934 O 466.232 3.5022 -0.649971 0
M  V30 4935 O 465.091 5.41342 -0.749081 0
M  V30 4936 H 462.185 0.82331 -0.0780367 0
M  V30 4937 H 464.731 1.44806 -0.884832 0
M  V30 4938 H 463.503 3.50015 -1.74944 0
M  V30 4939 H 463.126 3.97471 -0.101384 0
M  V30 4940 N 464.123 0.554532 1.47522 0
M  V30 4941 C 465.056 -0.242442 2.26908 0
M  V30 4942 C 466.034 -0.922722 1.33883 0
M  V30 4943 O 467.218 -0.942244 1.63261 0
M  V30 4944 C 464.345 -1.34525 3.10839 0
M  V30 4945 C 463.391 -0.773805 4.19422 0
M  V30 4946 S 464.224 0.377525 5.34168 0
M  V30 4947 C 465.38 -0.727164 6.21662 0
M  V30 4948 H 465.613 0.431218 2.94156 0
M  V30 4949 H 463.146 0.3408 1.50592 0
M  V30 4950 H 465.104 -1.97683 3.59766 0
M  V30 4951 H 463.765 -1.99073 2.42958 0
M  V30 4952 H 462.958 -1.60187 4.77866 0
M  V30 4953 H 462.56 -0.218448 3.73361 0
M  V30 4954 H 464.852 -1.61992 6.57849 0
M  V30 4955 H 465.795 -0.180135 7.07871 0
M  V30 4956 H 466.203 -1.01863 5.55233 0
M  V30 4957 N 465.601 -1.54893 0.290851 0
M  V30 4958 C 466.849 -1.99538 -0.320756 0
M  V30 4959 C 467.17 -1.18075 -1.55188 0
M  V30 4960 O 466.44 -0.274162 -1.93972 0
M  V30 4961 H 465.02 -0.737052 -0.121507 0
M  V30 4962 H 467.682 -1.90755 0.399832 0
M  V30 4963 H 466.778 -3.06282 -0.599802 0
M  V30 4964 N 467.08 -0.0183926 -1.57589 0
M  V30 4965 C 468.327 0.662562 -1.91354 0
M  V30 4966 C 468.655 1.72747 -0.893788 0
M  V30 4967 O 467.91 1.9545 0.0988509 0
M  V30 4968 C 468.209 1.32676 -3.31861 0
M  V30 4969 C 467.875 0.393267 -4.49182 0
M  V30 4970 C 466.537 0.136302 -4.81007 0
M  V30 4971 C 468.889 -0.248366 -5.20608 0
M  V30 4972 C 466.217 -0.770282 -5.81621 0
M  V30 4973 C 468.569 -1.14294 -6.22189 0
M  V30 4974 C 467.233 -1.4089 -6.52462 0
M  V30 4975 H 466.503 0.242448 -0.700214 0
M  V30 4976 H 469.15 -0.0778629 -1.91342 0
M  V30 4977 H 467.455 2.14168 -3.28084 0
M  V30 4978 H 469.152 1.86001 -3.55253 0
M  V30 4979 H 465.742 0.603723 -4.24327 0
M  V30 4980 H 469.926 -0.062883 -4.9626 0
M  V30 4981 H 465.182 -0.984154 -6.03427 0
M  V30 4982 H 469.356 -1.64637 -6.76659 0
M  V30 4983 H 466.983 -2.11306 -7.30242 0
M  V30 4984 N 468.558 1.5553 0.254621 0
M  V30 4985 C 469.786 1.81046 1.00149 0
M  V30 4986 C 470.201 0.593047 1.79244 0
M  V30 4987 O 469.558 -0.438196 1.77161 0
M  V30 4988 C 469.609 3.04684 1.94551 0
M  V30 4989 O 469.33 4.21725 1.18658 0
M  V30 4990 C 470.831 3.42943 2.80901 0
M  V30 4991 H 468.051 0.602653 0.295044 0
M  V30 4992 H 470.595 2.02576 0.279842 0
M  V30 4993 H 468.75 2.85226 2.62154 0
M  V30 4994 H 469.164 4.91746 1.82445 0
M  V30 4995 H 470.638 4.32576 3.42902 0
M  V30 4996 H 471.115 2.63176 3.51617 0
M  V30 4997 H 471.721 3.64724 2.18762 0
M  V30 4998 N 470.036 -0.519951 1.48776 0
M  V30 4999 C 470.946 -1.65025 1.66745 0
M  V30 5000 C 471.962 -1.6508 0.549954 0
M  V30 5001 O 473.138 -1.83848 0.822295 0
M  V30 5002 C 470.203 -3.0146 1.71238 0
M  V30 5003 C 469.264 -3.12182 2.94688 0
M  V30 5004 C 468.497 -4.42109 2.98958 0
M  V30 5005 O 468.72 -5.29799 2.1135 0
M  V30 5006 O 467.654 -4.57406 3.91233 0
M  V30 5007 H 471.48 -1.52801 2.62461 0
M  V30 5008 H 469.065 -0.694157 1.32294 0
M  V30 5009 H 470.947 -3.82584 1.76657 0
M  V30 5010 H 469.622 -3.13988 0.786975 0
M  V30 5011 H 468.529 -2.30316 2.94797 0
M  V30 5012 H 469.862 -3.04574 3.86646 0
M  V30 5013 N 471.514 -1.37532 -0.769588 0
M  V30 5014 C 472.424 -1.35668 -1.91393 0
M  V30 5015 C 473.44 -0.255954 -1.72107 0
M  V30 5016 O 474.616 -0.491704 -1.95305 0
M  V30 5017 C 471.681 -1.16481 -3.26547 0
M  V30 5018 C 470.742 -2.36212 -3.58472 0
M  V30 5019 C 469.975 -2.17932 -4.87177 0
M  V30 5020 O 470.198 -1.1647 -5.58382 0
M  V30 5021 O 469.132 -3.06167 -5.18214 0
M  V30 5022 H 472.958 -2.32055 -1.95918 0
M  V30 5023 H 470.543 -1.18284 -0.912641 0
M  V30 5024 H 472.425 -1.07778 -4.07384 0
M  V30 5025 H 471.1 -0.231687 -3.2287 0
M  V30 5026 H 470.007 -2.50488 -2.77861 0
M  V30 5027 H 471.34 -3.281 -3.66894 0
M  V30 5028 N 472.992 0.995999 -1.22138 0
M  V30 5029 C 473.902 2.11985 -1.00496 0
M  V30 5030 C 474.918 1.7394 0.0457701 0
M  V30 5031 O 476.094 2.00868 -0.146273 0
M  V30 5032 C 473.159 3.41779 -0.582086 0
M  V30 5033 C 472.22 3.93943 -1.70608 0
M  V30 5034 C 471.453 5.17542 -1.30328 0
M  V30 5035 O 471.676 5.70114 -0.180743 0
M  V30 5036 O 470.61 5.63382 -2.11861 0
M  V30 5037 H 474.436 2.33123 -1.94647 0
M  V30 5038 H 472.021 1.10358 -1.00705 0
M  V30 5039 H 473.903 4.1989 -0.356467 0
M  V30 5040 H 472.578 3.22007 0.330592 0
M  V30 5041 H 471.485 3.17019 -1.98619 0
M  V30 5042 H 472.818 4.18141 -2.59651 0
M  V30 5043 N 474.47 1.03057 1.19235 0
M  V30 5044 C 475.717 0.728019 1.88961 0
M  V30 5045 C 476.045 -0.743515 1.79728 0
M  V30 5046 O 475.3 -1.55729 1.1852 0
M  V30 5047 C 475.599 1.1268 3.39172 0
M  V30 5048 C 475.265 2.5969 3.68608 0
M  V30 5049 C 473.927 2.99854 3.76352 0
M  V30 5050 C 476.279 3.54793 3.81801 0
M  V30 5051 C 473.607 4.34031 3.94758 0
M  V30 5052 C 475.959 4.88675 4.0172 0
M  V30 5053 C 474.623 5.28526 4.07697 0
M  V30 5054 H 473.893 0.266401 0.691456 0
M  V30 5055 H 476.54 1.29373 1.41191 0
M  V30 5056 H 474.845 0.479722 3.88852 0
M  V30 5057 H 476.542 0.870203 3.91444 0
M  V30 5058 H 473.132 2.27575 3.63191 0
M  V30 5059 H 477.316 3.24914 3.7516 0
M  V30 5060 H 472.572 4.6444 3.97625 0
M  V30 5061 H 476.746 5.6228 4.1087 0
M  V30 5062 H 474.373 6.32506 4.21712 0
M  V30 5063 N 475.948 -1.35272 0.808662 0
M  V30 5064 C 476.895 -2.29764 0.218482 0
M  V30 5065 C 477.865 -1.52911 -0.648652 0
M  V30 5066 O 479.05 -1.81341 -0.593297 0
M  V30 5067 C 476.19 -3.39388 -0.625282 0
M  V30 5068 C 475.303 -4.31202 0.262516 0
M  V30 5069 C 474.438 -5.27919 -0.589451 0
M  V30 5070 C 473.477 -6.11371 0.298617 0
M  V30 5071 N 472.614 -7.0022 -0.513443 0
M  V30 5072 H 477.454 -2.79645 1.02968 0
M  V30 5073 H 474.991 -1.37629 0.519303 0
M  V30 5074 H 476.949 -4.01615 -1.12966 0
M  V30 5075 H 475.579 -2.90777 -1.40173 0
M  V30 5076 H 474.631 -3.69962 0.885013 0
M  V30 5077 H 475.943 -4.89748 0.945971 0
M  V30 5078 H 475.097 -5.95529 -1.15888 0
M  V30 5079 H 473.836 -4.69875 -1.30647 0
M  V30 5080 H 472.841 -5.42707 0.880301 0
M  V30 5081 H 474.066 -6.71494 1.01352 0
M  V30 5082 H 472.012 -6.44662 -1.21439 0
M  V30 5083 H 471.929 -7.55917 0.111922 0
M  V30 5084 H 473.197 -7.72175 -1.06608 0
M  V30 5085 N 477.426 -0.562348 -1.47226 0
M  V30 5086 C 478.842 -0.222492 -1.58042 0
M  V30 5087 C 479.042 1.27505 -1.56028 0
M  V30 5088 O 478.098 2.05555 -1.46641 0
M  V30 5089 C 479.411 -0.853694 -2.88327 0
M  V30 5090 C 480.959 -0.825397 -3.01921 0
M  V30 5091 C 481.434 -1.43576 -4.34914 0
M  V30 5092 N 482.925 -1.39918 -4.41562 0
M  V30 5093 C 483.66 -1.84103 -5.43041 0
M  V30 5094 N 483.156 -2.36167 -6.51304 0
M  V30 5095 N 484.949 -1.75142 -5.34118 0
M  V30 5096 H 477.1 -1.53525 -1.46778 0
M  V30 5097 H 479.363 -0.640527 -0.698877 0
M  V30 5098 H 479.069 -1.90635 -2.95552 0
M  V30 5099 H 478.943 -0.34977 -3.75575 0
M  V30 5100 H 481.33 0.218583 -2.94289 0
M  V30 5101 H 481.411 -1.36713 -2.16202 0
M  V30 5102 H 481.055 -2.47884 -4.43301 0
M  V30 5103 H 480.985 -0.869427 -5.19373 0
M  V30 5104 H 483.476 -1.0184 -3.63919 0
M  V30 5105 H 483.789 -2.67793 -7.24919 0
M  V30 5106 H 482.134 -2.40181 -6.52179 0
M  V30 5107 H 485.325 -1.34241 -4.48439 0
M  V30 5108 H 485.498 -2.09895 -6.13065 0
M  V30 5109 N 478.904 1.54736 -0.299062 0
M  V30 5110 C 479.834 2.26409 0.571085 0
M  V30 5111 C 480.815 1.2629 1.13951 0
M  V30 5112 O 482 1.55059 1.16921 0
M  V30 5113 C 479.13 3.00338 1.74396 0
M  V30 5114 C 478.084 4.07588 1.30599 0
M  V30 5115 C 477.41 4.69222 2.56387 0
M  V30 5116 C 478.71 5.20455 0.438645 0
M  V30 5117 H 480.404 2.99388 -0.0266991 0
M  V30 5118 H 477.95 1.43993 -0.0142812 0
M  V30 5119 H 479.903 3.49198 2.35878 0
M  V30 5120 H 478.627 2.24934 2.36796 0
M  V30 5121 H 477.286 3.59575 0.71424 0
M  V30 5122 H 476.934 3.9046 3.17097 0
M  V30 5123 H 476.634 5.41653 2.27784 0
M  V30 5124 H 478.158 5.20844 3.18675 0
M  V30 5125 H 479.572 5.65221 0.959085 0
M  V30 5126 H 477.969 5.99594 0.246466 0
M  V30 5127 H 479.039 4.8192 -0.536738 0
M  V30 5128 N 480.382 0.0267497 1.57577 0
M  V30 5129 C 481.33 -0.973923 2.11229 0
M  V30 5130 C 482.324 -1.33849 1.03831 0
M  V30 5131 O 483.53 -1.321 1.22269 0
M  V30 5132 H 479.905 -0.331844 0.674821 0
M  V30 5133 H 481.876 -0.496092 2.94247 0
M  V30 5134 C 480.625 -2.24798 2.65257 0
M  V30 5135 H 479.948 -1.9762 3.47543 0
M  V30 5136 H 481.388 -2.93031 3.06445 0
M  V30 5137 C 479.847 -2.97611 1.57891 0
M  V30 5138 O 480.377 -3.89629 0.97735 0
M  V30 5139 N 478.583 -2.59905 1.29992 0
M  V30 5140 H 478.13 -1.85154 1.79097 0
M  V30 5141 H 478.088 -3.08932 0.583798 0
M  V30 5142 N 481.861 -1.55662 -0.24637 0
M  V30 5143 C 483.11 -1.7672 -0.972254 0
M  V30 5144 C 483.423 -0.59078 -1.86465 0
M  V30 5145 O 484.629 -0.684391 -2.62732 0
M  V30 5146 C 483.085 -3.12869 -1.7788 0
M  V30 5147 C 482.693 -4.38161 -0.933768 0
M  V30 5148 C 484.437 -3.43265 -2.49738 0
M  V30 5149 C 482.344 -5.6534 -1.73623 0
M  V30 5150 H 481.274 -0.658795 -0.366749 0
M  V30 5151 H 483.925 -1.82092 -0.226902 0
M  V30 5152 H 482.307 -3.01606 -2.56612 0
M  V30 5153 H 483.481 -4.60413 -0.188736 0
M  V30 5154 H 481.796 -4.15102 -0.328488 0
M  V30 5155 H 484.393 -4.35501 -3.10231 0
M  V30 5156 H 484.736 -2.64614 -3.2138 0
M  V30 5157 H 485.269 -3.55746 -1.78016 0
M  V30 5158 H 482.008 -6.46814 -1.06354 0
M  V30 5159 H 481.528 -5.47188 -2.45653 0
M  V30 5160 H 483.207 -6.04616 -2.30323 0
M  V30 5161 N 483.339 0.512053 -1.4905 0
M  V30 5162 C 484.287 1.63568 -1.65373 0
M  V30 5163 C 485.281 1.61228 -0.519806 0
M  V30 5164 O 486.487 1.65869 -0.699101 0
M  V30 5165 H 482.862 0.542019 -0.521267 0
M  V30 5166 H 484.833 1.4695 -2.59708 0
M  V30 5167 C 483.582 3.01761 -1.7273 0
M  V30 5168 H 482.905 3.04263 -2.59353 0
M  V30 5169 H 484.345 3.79948 -1.8819 0
M  V30 5170 C 482.804 3.33609 -0.46973 0
M  V30 5171 O 483.334 3.99607 0.409492 0
M  V30 5172 N 481.54 2.88651 -0.336003 0
M  V30 5173 H 481.087 2.35119 -1.05247 0
M  V30 5174 H 481.045 3.10328 0.504363 0
M  V30 5175 N 484.817 1.37938 0.762283 0
M  V30 5176 C 485.78 1.34279 1.85747 0
M  V30 5177 C 486.78 0.244969 1.58923 0
M  V30 5178 O 487.97 0.501365 1.66829 0
M  V30 5179 C 485.102 1.08833 3.23061 0
M  V30 5180 H 486.295 2.31705 1.90401 0
M  V30 5181 H 483.848 1.23105 0.963057 0
M  V30 5182 H 484.583 0.119767 3.24079 0
M  V30 5183 H 484.368 1.88306 3.43923 0
M  V30 5184 H 485.858 1.08946 4.03138 0
M  V30 5185 N 486.295 -0.989507 1.22664 0
M  V30 5186 C 487.258 -2.06183 1.00106 0
M  V30 5187 C 488.258 -1.60765 -0.0337726 0
M  V30 5188 O 489.448 -1.72989 0.205072 0
M  V30 5189 C 486.58 -3.37021 0.51279 0
M  V30 5190 H 487.773 -2.27629 1.95256 0
M  V30 5191 H 485.326 -1.16158 1.0458 0
M  V30 5192 H 486.061 -3.21261 -0.442917 0
M  V30 5193 H 485.846 -3.71323 1.25942 0
M  V30 5194 H 487.336 -4.1591 0.375315 0
M  V30 5195 N 487.773 -1.03688 -1.18687 0
M  V30 5196 C 488.72 -0.624624 -2.22187 0
M  V30 5197 C 489.69 0.365636 -1.62026 0
M  V30 5198 O 490.875 0.260481 -1.89014 0
M  V30 5199 C 488.015 0.0101738 -3.45099 0
M  V30 5200 C 487.128 -1.02709 -4.19613 0
M  V30 5201 C 486.263 -0.361213 -5.2997 0
M  V30 5202 C 485.302 -1.38384 -5.96252 0
M  V30 5203 N 484.439 -0.743196 -6.98155 0
M  V30 5204 H 489.279 -1.51176 -2.56807 0
M  V30 5205 H 486.816 -0.75636 -1.26165 0
M  V30 5206 H 488.774 0.395528 -4.15321 0
M  V30 5207 H 487.404 0.860848 -3.1111 0
M  V30 5208 H 486.456 -1.53043 -3.48256 0
M  V30 5209 H 487.768 -1.80398 -4.65036 0
M  V30 5210 H 486.922 0.0785537 -6.06649 0
M  V30 5211 H 485.661 0.447799 -4.8564 0
M  V30 5212 H 484.666 -1.83378 -5.18317 0
M  V30 5213 H 485.891 -2.19448 -6.42666 0
M  V30 5214 H 483.837 0.0455789 -6.55984 0
M  V30 5215 H 483.754 -1.45784 -7.41811 0
M  V30 5216 H 485.022 -0.327698 -7.78811 0
M  V30 5217 N 489.251 1.34841 -0.815825 0
M  V30 5218 C 490.476 2.03261 -0.41226 0
M  V30 5219 C 490.901 1.61055 0.971751 0
M  V30 5220 O 490.259 0.7917 1.63101 0
M  V30 5221 C 490.307 3.56914 -0.514289 0
M  V30 5222 O 489.411 4.09728 0.468675 0
M  V30 5223 H 488.752 0.641664 -0.170771 0
M  V30 5224 H 491.282 1.72241 -1.10427 0
M  V30 5225 H 491.292 4.06156 -0.387457 0
M  V30 5226 H 489.967 3.86982 -1.52375 0
M  V30 5227 H 488.544 3.71681 0.301316 0
M  V30 5228 N 490.729 0.570148 1.46925 0
M  V30 5229 C 491.954 0.0542592 2.07329 0
M  V30 5230 C 492.379 -1.23582 1.41806 0
M  V30 5231 O 491.737 -1.74341 0.497479 0
M  V30 5232 C 491.785 -0.111175 3.60429 0
M  V30 5233 O 490.889 -1.17071 3.95434 0
M  V30 5234 H 490.23 0.0571425 0.661537 0
M  V30 5235 H 492.76 0.789516 1.88753 0
M  V30 5236 H 492.77 -0.321315 4.06733 0
M  V30 5237 H 491.445 0.831012 4.07513 0
M  V30 5238 H 490.022 -0.940029 3.60857 0
M  V30 5239 N 492.207 -1.54576 0.307264 0
M  V30 5240 C 493.454 -2.00263 -0.300167 0
M  V30 5241 C 493.782 -1.19561 -1.53413 0
M  V30 5242 O 493.037 -0.261487 -1.93945 0
M  V30 5243 C 493.336 -3.50572 -0.695253 0
M  V30 5244 C 493.002 -4.48771 0.437679 0
M  V30 5245 C 491.664 -4.7534 0.748681 0
M  V30 5246 C 494.016 -5.0721 1.19949 0
M  V30 5247 C 491.344 -5.5761 1.8245 0
M  V30 5248 C 493.696 -5.90651 2.26527 0
M  V30 5249 C 492.36 -6.15528 2.58227 0
M  V30 5250 H 491.63 -0.732814 -0.109839 0
M  V30 5251 H 494.277 -1.86664 0.427661 0
M  V30 5252 H 492.582 -3.61814 -1.50326 0
M  V30 5253 H 494.279 -3.83352 -1.17653 0
M  V30 5254 H 490.869 -4.282 0.185187 0
M  V30 5255 H 495.053 -4.86679 0.972474 0
M  V30 5256 H 490.309 -5.75121 2.07476 0
M  V30 5257 H 494.483 -6.34957 2.86011 0
M  V30 5258 H 492.11 -6.79066 3.4172 0
M  V30 5259 N 493.685 -0.035106 -1.57561 0
M  V30 5260 C 494.615 0.942993 -2.13612 0
M  V30 5261 C 495.596 1.33531 -1.05373 0
M  V30 5262 O 496.781 1.41287 -1.33235 0
M  V30 5263 C 493.911 2.22332 -2.66807 0
M  V30 5264 C 492.865 1.97156 -3.79886 0
M  V30 5265 C 492.191 3.31506 -4.19533 0
M  V30 5266 C 493.491 1.30596 -5.05709 0
M  V30 5267 H 495.185 0.476179 -2.95589 0
M  V30 5268 H 492.731 0.227602 -1.4219 0
M  V30 5269 H 494.684 2.91142 -3.04654 0
M  V30 5270 H 493.408 2.7119 -1.81999 0
M  V30 5271 H 492.067 1.30763 -3.42486 0
M  V30 5272 H 491.715 3.78134 -3.31698 0
M  V30 5273 H 491.415 3.15465 -4.95738 0
M  V30 5274 H 492.939 4.01574 -4.59968 0
M  V30 5275 H 494.353 1.89416 -5.41105 0
M  V30 5276 H 492.75 1.24934 -5.86951 0
M  V30 5277 H 493.82 0.279742 -4.84092 0
M  V30 5278 N 495.163 1.55791 0.238111 0
M  V30 5279 C 496.574 1.68383 0.806472 0
M  V30 5280 C 496.925 0.634157 1.85669 0
M  V30 5281 O 496.05 -0.217913 2.153 0
M  V30 5282 C 496.645 3.05268 1.46959 0
M  V30 5283 C 495.204 3.1977 1.98555 0
M  V30 5284 C 494.351 2.64279 0.839763 0
M  V30 5285 H 497.302 1.58694 0.0137535 0
M  V30 5286 H 497.323 3.00203 2.33792 0
M  V30 5287 H 496.835 3.81643 0.704993 0
M  V30 5288 H 494.936 2.48234 2.77868 0
M  V30 5289 H 495.049 4.26788 2.17689 0
M  V30 5290 H 493.413 2.22329 1.24265 0
M  V30 5291 H 494.196 3.43187 0.0881032 0
M  V30 5292 N 496.642 -0.504142 1.49319 0
M  V30 5293 C 497.552 -1.63248 1.68486 0
M  V30 5294 C 498.568 -1.64488 0.567432 0
M  V30 5295 O 499.744 -1.82966 0.841749 0
M  V30 5296 C 496.809 -2.99627 1.74426 0
M  V30 5297 C 495.87 -3.09039 2.97982 0
M  V30 5298 C 495.103 -4.38913 3.0363 0
M  V30 5299 O 495.326 -5.27528 2.16958 0
M  V30 5300 O 494.26 -4.53231 3.96062 0
M  V30 5301 H 498.086 -1.50008 2.64067 0
M  V30 5302 H 495.671 -0.680086 1.33023 0
M  V30 5303 H 497.553 -3.80689 1.80705 0
M  V30 5304 H 496.228 -3.13136 0.820233 0
M  V30 5305 H 495.135 -2.27177 2.97223 0
M  V30 5306 H 496.468 -3.00456 3.89855 0
M  V30 5307 N 498.12 -1.38341 -0.754957 0
M  V30 5308 C 499.397 -1.24995 -1.50451 0
M  V30 5309 C 499.777 0.149244 -2.10572 0
M  V30 5310 O 499.125 1.15861 -1.96948 0
M  V30 5311 C 499.335 -2.35904 -2.57197 0
M  V30 5312 C 500.683 -2.74262 -3.24138 0
M  V30 5313 O 501.707 -2.35205 -2.67501 0
M  V30 5314 O 500.566 -3.4161 -4.26574 0
M  V30 5315 H 497.66 -0.48872 -0.667144 0
M  V30 5316 H 500.206 -1.50165 -0.790486 0
M  V30 5317 H 498.978 -3.2953 -2.11011 0
M  V30 5318 H 498.601 -2.12291 -3.36182 0
M  V30 5319 N 499.598 0.982988 -1.23187 0
M  V30 5320 C 500.508 2.10907 -1.02739 0
M  V30 5321 C 501.524 1.73979 0.0273188 0
M  V30 5322 O 502.7 2.00702 -0.16757 0
M  V30 5323 C 499.765 3.41142 -0.618304 0
M  V30 5324 C 498.826 3.92112 -1.74777 0
M  V30 5325 C 498.059 5.16131 -1.3581 0
M  V30 5326 O 498.282 5.6989 -0.241201 0
M  V30 5327 O 497.216 5.61103 -2.17824 0
M  V30 5328 H 501.042 2.31046 -1.97108 0
M  V30 5329 H 498.627 1.09284 -1.01869 0
M  V30 5330 H 500.509 4.19488 -0.400982 0
M  V30 5331 H 499.184 3.2234 0.296421 0
M  V30 5332 H 498.091 3.14895 -2.0197 0
M  V30 5333 H 499.424 4.15364 -2.64071 0
M  V30 5334 N 501.076 1.04316 1.18135 0
M  V30 5335 C 502.023 0.636398 2.21853 0
M  V30 5336 C 502.993 -0.357039 1.62217 0
M  V30 5337 O 504.178 -0.250453 1.89149 0
M  V30 5338 C 501.318 0.00812779 3.45099 0
M  V30 5339 C 500.431 1.04933 4.19062 0
M  V30 5340 C 499.566 0.389313 5.29771 0
M  V30 5341 C 498.605 1.41544 5.9551 0
M  V30 5342 N 497.742 0.78021 6.97751 0
M  V30 5343 H 502.582 1.52536 2.56002 0
M  V30 5344 H 500.119 0.76304 1.25762 0
M  V30 5345 H 502.077 -0.373497 4.15525 0
M  V30 5346 H 500.707 -0.844336 3.11562 0
M  V30 5347 H 499.759 1.54888 3.47439 0
M  V30 5348 H 501.071 1.82862 4.64072 0
M  V30 5349 H 500.225 -0.0463805 6.06682 0
M  V30 5350 H 498.964 -0.422038 4.8587 0
M  V30 5351 H 497.969 1.86124 5.17337 0
M  V30 5352 H 499.194 2.22854 6.41493 0
M  V30 5353 H 497.14 -0.0107899 6.55999 0
M  V30 5354 H 497.057 1.49716 7.41027 0
M  V30 5355 H 498.325 0.368996 7.78626 0
M  V30 5356 N 502.554 -1.34406 0.822964 0
M  V30 5357 C 503.97 -1.51275 0.508727 0
M  V30 5358 C 504.17 -1.76776 -0.967083 0
M  V30 5359 O 503.226 -1.81871 -1.75155 0
M  V30 5360 C 504.539 -2.67765 1.36829 0
M  V30 5361 C 506.087 -2.81647 1.36542 0
M  V30 5362 C 506.562 -4.01181 2.20947 0
M  V30 5363 N 508.053 -4.08388 2.18571 0
M  V30 5364 C 508.788 -5.00036 2.80627 0
M  V30 5365 N 508.284 -5.96906 3.51674 0
M  V30 5366 N 510.077 -4.92908 2.70181 0
M  V30 5367 H 502.228 -1.16113 1.77852 0
M  V30 5368 H 504.491 -0.56947 0.757897 0
M  V30 5369 H 504.197 -2.55551 2.41633 0
M  V30 5370 H 504.071 -3.62779 1.03303 0
M  V30 5371 H 506.458 -2.93303 0.325163 0
M  V30 5372 H 506.539 -1.87443 1.74066 0
M  V30 5373 H 506.183 -3.90286 3.25022 0
M  V30 5374 H 506.113 -4.94599 1.80774 0
M  V30 5375 H 508.604 -3.39051 1.66891 0
M  V30 5376 H 508.917 -6.63468 3.96271 0
M  V30 5377 H 507.262 -5.9703 3.5578 0
M  V30 5378 H 510.453 -4.1619 2.14251 0
M  V30 5379 H 510.626 -5.64137 3.18831 0
M  V30 5380 N 504.032 -0.577932 -1.46621 0
M  V30 5381 C 504.942 0.160651 -2.34049 0
M  V30 5382 C 505.958 0.890911 -1.49462 0
M  V30 5383 O 507.134 0.855166 -1.82343 0
M  V30 5384 C 504.199 1.16447 -3.26559 0
M  V30 5385 C 503.26 0.4394 -4.27045 0
M  V30 5386 C 502.493 1.3954 -5.15135 0
M  V30 5387 O 502.716 2.63162 -5.06065 0
M  V30 5388 O 501.65 0.908585 -5.95003 0
M  V30 5389 H 505.476 -0.557057 -2.98547 0
M  V30 5390 H 503.061 -0.338369 -1.45518 0
M  V30 5391 H 504.943 1.7434 -3.83645 0
M  V30 5392 H 503.618 1.86373 -2.64663 0
M  V30 5393 H 502.525 -0.181247 -3.73661 0
M  V30 5394 H 503.858 -0.218799 -4.91713 0
M  V30 5395 N 505.51 1.54411 -0.315457 0
M  V30 5396 C 506.44 2.27002 0.547039 0
M  V30 5397 C 507.421 1.27492 1.12605 0
M  V30 5398 O 508.606 1.5629 1.15269 0
M  V30 5399 C 505.736 3.02171 1.71201 0
M  V30 5400 C 504.69 4.0895 1.26268 0
M  V30 5401 C 504.016 4.71915 2.51396 0
M  V30 5402 C 505.316 5.20891 0.383419 0
M  V30 5403 H 507.01 2.99343 -0.0584517 0
M  V30 5404 H 504.556 1.4397 -0.0295527 0
M  V30 5405 H 506.509 3.51681 2.32161 0
M  V30 5406 H 505.233 2.27433 2.34397 0
M  V30 5407 H 503.892 3.60312 0.676062 0
M  V30 5408 H 503.54 3.93801 3.12937 0
M  V30 5409 H 503.24 5.44039 2.22026 0
M  V30 5410 H 504.764 5.24195 3.13133 0
M  V30 5411 H 506.178 5.66206 0.899082 0
M  V30 5412 H 504.575 5.99821 0.182857 0
M  V30 5413 H 505.645 4.81324 -0.587821 0
M  V30 5414 N 506.988 0.0434614 1.5754 0
M  V30 5415 C 507.918 -0.931651 2.14109 0
M  V30 5416 C 508.899 -1.32971 1.06079 0
M  V30 5417 O 510.084 -1.40579 1.33982 0
M  V30 5418 C 507.214 -2.20914 2.67982 0
M  V30 5419 C 506.168 -1.95139 3.80926 0
M  V30 5420 C 505.494 -3.29276 4.21285 0
M  V30 5421 C 506.794 -1.27913 5.06395 0
M  V30 5422 H 508.488 -0.460497 2.95837 0
M  V30 5423 H 506.034 -0.220058 1.42309 0
M  V30 5424 H 507.987 -2.89522 3.06194 0
M  V30 5425 H 506.711 -2.70221 1.83434 0
M  V30 5426 H 505.37 -1.28945 3.43175 0
M  V30 5427 H 505.018 -3.76369 3.33699 0
M  V30 5428 H 504.718 -3.12831 4.97404 0
M  V30 5429 H 506.242 -3.99129 4.62091 0
M  V30 5430 H 507.656 -1.86544 5.42102 0
M  V30 5431 H 506.053 -1.2182 5.87605 0
M  V30 5432 H 507.123 -0.254066 4.84234 0
M  V30 5433 N 508.466 -1.55915 -0.229846 0
M  V30 5434 C 509.743 -1.6932 -0.979295 0
M  V30 5435 C 510.123 -0.588321 -2.02736 0
M  V30 5436 O 509.471 0.40586 -2.24867 0
M  V30 5437 C 509.681 -3.10305 -1.59724 0
M  V30 5438 C 511.029 -3.6945 -2.09264 0
M  V30 5439 O 512.053 -3.13214 -1.69633 0
M  V30 5440 O 510.912 -4.68072 -2.82082 0
M  V30 5441 H 508.006 -0.689314 -0.456919 0
M  V30 5442 H 510.552 -1.68238 -0.222283 0
M  V30 5443 H 509.324 -3.82177 -0.840039 0
M  V30 5444 H 508.947 -3.1547 -2.42001 0
M  V30 5445 N 509.944 0.496216 -1.49584 0
M  V30 5446 C 510.874 1.60576 -1.69521 0
M  V30 5447 C 511.855 1.61169 -0.543933 0
M  V30 5448 O 513.04 1.77834 -0.78031 0
M  V30 5449 C 510.17 2.99038 -1.76616 0
M  V30 5450 C 509.124 3.13312 -2.91581 0
M  V30 5451 C 508.45 4.53172 -2.83794 0
M  V30 5452 C 509.75 2.92886 -4.32452 0
M  V30 5453 H 511.444 1.44146 -2.62416 0
M  V30 5454 H 508.99 0.692024 -1.26282 0
M  V30 5455 H 510.943 3.76564 -1.8915 0
M  V30 5456 H 509.667 3.16568 -0.80324 0
M  V30 5457 H 508.326 2.38213 -2.78658 0
M  V30 5458 H 507.974 4.67585 -1.854 0
M  V30 5459 H 507.674 4.63662 -3.60958 0
M  V30 5460 H 509.198 5.32752 -2.98342 0
M  V30 5461 H 510.612 3.60178 -4.46032 0
M  V30 5462 H 509.009 3.14844 -5.10875 0
M  V30 5463 H 510.079 1.88966 -4.46565 0
M  V30 5464 N 511.423 1.38739 0.74761 0
M  V30 5465 C 512.353 1.39173 1.87492 0
M  V30 5466 C 513.334 0.256794 1.6815 0
M  V30 5467 O 514.519 0.460762 1.88655 0
M  V30 5468 C 511.649 1.22197 3.25093 0
M  V30 5469 C 510.603 2.32957 3.59047 0
M  V30 5470 C 509.929 2.01082 4.95449 0
M  V30 5471 C 511.229 3.75237 3.6331 0
M  V30 5472 H 512.923 2.3351 1.87386 0
M  V30 5473 H 510.469 1.12399 0.900134 0
M  V30 5474 H 512.422 1.21124 4.03617 0
M  V30 5475 H 511.146 0.243241 3.25693 0
M  V30 5476 H 509.805 2.33226 2.82845 0
M  V30 5477 H 509.453 1.01678 4.92616 0
M  V30 5478 H 509.153 2.75267 5.19136 0
M  V30 5479 H 510.677 2.01638 5.76346 0
M  V30 5480 H 512.091 3.76966 4.31937 0
M  V30 5481 H 510.488 4.48677 3.98509 0
M  V30 5482 H 511.558 4.07122 2.634 0
M  V30 5483 N 512.901 -0.976442 1.23707 0
M  V30 5484 C 514.131 -1.75087 1.09673 0
M  V30 5485 C 514.539 -1.85852 -0.354344 0
M  V30 5486 O 513.882 -1.33985 -1.25673 0
M  V30 5487 C 513.944 -3.19272 1.65245 0
M  V30 5488 C 513.608 -3.32004 3.14042 0
M  V30 5489 C 514.605 -3.18017 4.11292 0
M  V30 5490 C 512.29 -3.56525 3.53829 0
M  V30 5491 C 514.284 -3.28363 5.46312 0
M  V30 5492 C 511.971 -3.6651 4.88993 0
M  V30 5493 C 512.969 -3.52439 5.85043 0
M  V30 5494 O 512.657 -3.62063 7.1775 0
M  V30 5495 H 512.389 -0.556164 0.384262 0
M  V30 5496 H 514.943 -1.23518 1.64111 0
M  V30 5497 H 513.173 -3.72107 1.05231 0
M  V30 5498 H 514.862 -3.7849 1.46629 0
M  V30 5499 H 515.628 -2.98966 3.81896 0
M  V30 5500 H 511.507 -3.66547 2.79579 0
M  V30 5501 H 515.051 -3.17297 6.21263 0
M  V30 5502 H 510.948 -3.85072 5.18063 0
M  V30 5503 H 511.716 -3.78833 7.25553 0
M  V30 5504 N 514.379 -1.04941 -1.1758 0
M  V30 5505 C 515.326 -0.648155 -2.21512 0
M  V30 5506 C 516.296 0.348431 -1.62404 0
M  V30 5507 O 517.481 0.240419 -1.89279 0
M  V30 5508 C 514.621 -0.0264291 -3.4509 0
M  V30 5509 C 513.734 -1.07154 -4.185 0
M  V30 5510 C 512.869 -0.417403 -5.29558 0
M  V30 5511 C 511.908 -1.447 -5.94751 0
M  V30 5512 N 511.045 -0.817203 -6.97328 0
M  V30 5513 H 515.885 -1.53891 -2.55189 0
M  V30 5514 H 513.422 -0.769699 -1.25356 0
M  V30 5515 H 515.38 0.351456 -4.15717 0
M  V30 5516 H 514.01 0.827802 -3.12005 0
M  V30 5517 H 513.062 -1.56728 -3.46613 0
M  V30 5518 H 514.374 -1.8532 -4.63096 0
M  V30 5519 H 513.528 0.0142061 -6.06698 0
M  V30 5520 H 512.267 0.396265 -4.86087 0
M  V30 5521 H 511.272 -1.88865 -5.16343 0
M  V30 5522 H 512.497 -2.26252 -6.40302 0
M  V30 5523 H 510.443 -0.0239995 -6.55996 0
M  V30 5524 H 510.36 -1.53644 -7.40223 0
M  V30 5525 H 511.628 -0.410283 -7.7842 0
M  V30 5526 N 515.857 1.33968 -0.830081 0
M  V30 5527 C 516.82 2.27694 -0.26235 0
M  V30 5528 C 517.82 1.50589 0.563876 0
M  V30 5529 O 519.01 1.70028 0.378941 0
M  V30 5530 C 516.142 3.35002 0.63138 0
M  V30 5531 H 517.335 2.79419 -1.08928 0
M  V30 5532 H 514.888 1.44221 -0.602486 0
M  V30 5533 H 515.623 2.88504 1.48109 0
M  V30 5534 H 515.408 3.92079 0.0403276 0
M  V30 5535 H 516.898 4.04897 1.02217 0
M  V30 5536 N 517.335 0.585699 1.46312 0
M  V30 5537 C 518.565 0.0780166 2.06453 0
M  V30 5538 C 518.973 -1.2336 1.43454 0
M  V30 5539 O 518.316 -1.75734 0.535086 0
M  V30 5540 C 518.378 -0.158951 3.59148 0
M  V30 5541 C 518.042 1.06752 4.44357 0
M  V30 5542 C 519.039 1.98031 4.80708 0
M  V30 5543 C 516.724 1.2902 4.85447 0
M  V30 5544 C 518.718 3.09924 5.5698 0
M  V30 5545 C 516.405 2.41218 5.61478 0
M  V30 5546 C 517.403 3.31499 5.97158 0
M  V30 5547 O 517.091 4.41747 6.71651 0
M  V30 5548 H 516.823 0.0558894 0.673686 0
M  V30 5549 H 519.377 0.806994 1.88883 0
M  V30 5550 H 517.607 -0.942575 3.75037 0
M  V30 5551 H 519.296 -0.615513 4.01206 0
M  V30 5552 H 520.062 1.82043 4.49539 0
M  V30 5553 H 515.941 0.596567 4.57124 0
M  V30 5554 H 519.485 3.80415 5.84748 0
M  V30 5555 H 515.382 2.57167 5.9206 0
M  V30 5556 H 516.15 4.40152 6.90079 0
M  V30 5557 N 518.813 -1.54241 0.323641 0
M  V30 5558 C 520.061 -2.00174 -0.278359 0
M  V30 5559 C 520.382 -1.2134 -1.52648 0
M  V30 5560 O 519.652 -0.315244 -1.93347 0
M  V30 5561 H 518.232 -0.739463 -0.105845 0
M  V30 5562 H 520.894 -1.89864 0.440204 0
M  V30 5563 H 519.99 -3.07486 -0.5347 0
M  V30 5564 N 520.291 -0.0518155 -1.57515 0
M  V30 5565 C 521.224 0.957758 -2.07129 0
M  V30 5566 C 522.202 1.30355 -0.971927 0
M  V30 5567 O 523.386 1.41631 -1.2439 0
M  V30 5568 C 520.513 2.27157 -2.51232 0
M  V30 5569 C 519.559 2.07879 -3.72409 0
M  V30 5570 S 520.392 1.35656 -5.18033 0
M  V30 5571 C 521.548 2.68359 -5.65451 0
M  V30 5572 H 521.781 0.53552 -2.92437 0
M  V30 5573 H 519.314 0.160465 -1.53564 0
M  V30 5574 H 521.272 3.02676 -2.77304 0
M  V30 5575 H 519.933 2.66509 -1.66228 0
M  V30 5576 H 519.126 3.05061 -4.01191 0
M  V30 5577 H 518.728 1.40499 -3.46606 0
M  V30 5578 H 521.02 3.64526 -5.71076 0
M  V30 5579 H 521.963 2.44213 -6.64654 0
M  V30 5580 H 522.371 2.74647 -4.93183 0
M  V30 5581 N 521.769 1.56035 0.221574 0
M  V30 5582 C 523.18 1.69229 0.788567 0
M  V30 5583 C 523.531 0.653814 1.84986 0
M  V30 5584 O 522.656 -0.195065 2.15519 0
M  V30 5585 C 523.251 3.06809 1.43713 0
M  V30 5586 C 521.81 3.21858 1.95152 0
M  V30 5587 C 520.957 2.65155 0.811685 0
M  V30 5588 H 523.908 1.587 -0.00307894 0
M  V30 5589 H 523.929 3.02666 2.30594 0
M  V30 5590 H 523.441 3.82369 0.664475 0
M  V30 5591 H 521.542 2.51167 2.7522 0
M  V30 5592 H 521.655 4.29073 2.1315 0
M  V30 5593 H 520.019 2.23635 1.21899 0
M  V30 5594 H 520.802 3.43261 0.0516987 0
M  V30 5595 N 523.247 -0.488276 1.49845 0
M  V30 5596 C 524.658 -1.06955 1.53028 0
M  V30 5597 C 525.009 -1.9351 0.323797 0
M  V30 5598 O 524.134 -2.08891 -0.565116 0
M  V30 5599 C 524.729 -1.94643 2.77307 0
M  V30 5600 C 523.288 -2.4791 2.83227 0
M  V30 5601 C 522.435 -1.25833 2.47106 0
M  V30 5602 H 525.386 -0.271626 1.56358 0
M  V30 5603 H 525.407 -2.79496 2.5819 0
M  V30 5604 H 524.919 -1.31621 3.65099 0
M  V30 5605 H 523.02 -3.14535 1.99745 0
M  V30 5606 H 523.133 -2.84193 3.85709 0
M  V30 5607 H 521.497 -1.58764 1.99163 0
M  V30 5608 H 522.28 -0.644993 3.37186 0
M  V30 5609 N 524.725 -1.39134 -0.740242 0
M  V30 5610 C 525.95 -1.39518 -1.53459 0
M  V30 5611 C 526.375 0.00968883 -1.88098 0
M  V30 5612 O 525.733 0.995312 -1.51536 0
M  V30 5613 C 525.781 -2.26981 -2.802 0
M  V30 5614 O 524.885 -1.69609 -3.75908 0
M  V30 5615 H 524.226 -0.475328 -0.463637 0
M  V30 5616 H 526.756 -1.83064 -0.913717 0
M  V30 5617 H 526.766 -2.41309 -3.28989 0
M  V30 5618 H 525.441 -3.29081 -2.5432 0
M  V30 5619 H 524.018 -1.64495 -3.34658 0
M  V30 5620 N 526.204 0.969867 -1.24223 0
M  V30 5621 C 527.167 2.04564 -1.03373 0
M  V30 5622 C 528.167 1.60798 0.00819206 0
M  V30 5623 O 529.357 1.72641 -0.232567 0
M  V30 5624 C 526.489 3.36163 -0.566343 0
M  V30 5625 H 527.682 2.24494 -1.98853 0
M  V30 5626 H 525.235 1.1448 -1.06415 0
M  V30 5627 H 525.97 3.21925 0.391751 0
M  V30 5628 H 525.755 3.69273 -1.31834 0
M  V30 5629 H 527.245 4.1526 -0.441435 0
M  V30 5630 N 527.682 1.05563 1.17022 0
M  V30 5631 C 528.907 0.788437 1.91829 0
M  V30 5632 C 529.332 -0.650356 1.76499 0
M  V30 5633 O 528.69 -1.45229 1.08527 0
M  V30 5634 C 528.738 1.1786 3.40795 0
M  V30 5635 O 527.842 0.312965 4.11211 0
M  V30 5636 H 527.183 0.288794 0.597908 0
M  V30 5637 H 529.713 1.40948 1.48307 0
M  V30 5638 H 529.723 1.14697 3.91546 0
M  V30 5639 H 528.398 2.22666 3.51273 0
M  V30 5640 H 526.975 0.405515 3.70689 0
M  V30 5641 N 529.16 -1.33526 0.837174 0
M  V30 5642 C 530.123 -2.27551 0.274421 0
M  V30 5643 C 531.123 -1.50886 -0.555881 0
M  V30 5644 O 532.313 -1.70227 -0.369918 0
M  V30 5645 C 529.445 -3.35332 -0.613605 0
M  V30 5646 H 530.638 -2.78837 1.10408 0
M  V30 5647 H 528.191 -1.439 0.610126 0
M  V30 5648 H 528.926 -2.89285 -1.46577 0
M  V30 5649 H 528.711 -3.92095 -0.0195341 0
M  V30 5650 H 530.201 -4.05433 -1.00068 0
M  V30 5651 N 530.638 -0.59345 -1.46 0
M  V30 5652 C 531.886 -0.082988 -2.0193 0
M  V30 5653 C 532.207 1.28569 -1.46612 0
M  V30 5654 O 531.477 1.84629 -0.654909 0
M  V30 5655 H 530.057 -0.0276882 -0.746487 0
M  V30 5656 H 532.719 -0.771657 -1.78973 0
M  V30 5657 H 531.815 -0.022079 -3.12092 0
M  V30 5658 N 532.116 1.54067 -0.331816 0
M  V30 5659 C 533.048 2.22139 0.564538 0
M  V30 5660 C 534.061 1.22408 1.07332 0
M  V30 5661 O 535.25 1.4883 0.985481 0
M  V30 5662 C 532.35 2.87876 1.78831 0
M  V30 5663 C 531.523 4.13817 1.41682 0
M  V30 5664 C 530.582 4.63072 2.49901 0
M  V30 5665 O 529.608 5.27562 2.13699 0
M  V30 5666 N 530.81 4.38001 3.80967 0
M  V30 5667 H 533.575 2.99694 -0.0183736 0
M  V30 5668 H 531.136 1.61153 -0.155396 0
M  V30 5669 H 533.128 3.17747 2.50637 0
M  V30 5670 H 531.698 2.13977 2.27887 0
M  V30 5671 H 530.918 3.9062 0.530044 0
M  V30 5672 H 532.206 4.95762 1.14443 0
M  V30 5673 H 531.604 3.864 4.13173 0
M  V30 5674 H 530.161 4.72507 4.48977 0
M  V30 5675 N 533.594 0.0601682 1.57485 0
M  V30 5676 C 534.542 -0.928899 2.13247 0
M  V30 5677 C 535.536 -1.31616 1.06647 0
M  V30 5678 O 536.742 -1.29476 1.25043 0
M  V30 5679 H 533.117 -0.317455 0.681708 0
M  V30 5680 H 535.088 -0.433566 2.95233 0
M  V30 5681 C 533.837 -2.19121 2.69965 0
M  V30 5682 H 533.16 -1.90204 3.51657 0
M  V30 5683 H 534.6 -2.86465 3.12592 0
M  V30 5684 C 533.059 -2.94195 1.64168 0
M  V30 5685 O 533.589 -3.87468 1.05978 0
M  V30 5686 N 531.795 -2.57089 1.35476 0
M  V30 5687 H 531.342 -1.81314 1.82984 0
M  V30 5688 H 531.3 -3.07624 0.649196 0
M  V30 5689 N 535.072 -1.5615 -0.213296 0
M  V30 5690 C 536.002 -1.96109 -1.26742 0
M  V30 5691 C 536.983 -0.830448 -1.48451 0
M  V30 5692 O 538.168 -1.09339 -1.60495 0
M  V30 5693 C 535.298 -2.28492 -2.61551 0
M  V30 5694 C 534.252 -3.44124 -2.54485 0
M  V30 5695 C 533.578 -3.62134 -3.93399 0
M  V30 5696 C 534.878 -4.78855 -2.08556 0
M  V30 5697 H 536.572 -2.84412 -0.935434 0
M  V30 5698 H 534.118 -1.36836 -0.44854 0
M  V30 5699 H 536.071 -2.55039 -3.3546 0
M  V30 5700 H 534.795 -1.37052 -2.96453 0
M  V30 5701 H 533.454 -3.17639 -1.83033 0
M  V30 5702 H 533.102 -2.68055 -4.25623 0
M  V30 5703 H 532.802 -4.39913 -3.89551 0
M  V30 5704 H 534.326 -3.91038 -4.68958 0
M  V30 5705 H 535.74 -5.04552 -2.72213 0
M  V30 5706 H 534.137 -5.59975 -2.1575 0
M  V30 5707 H 535.207 -4.73657 -1.03811 0
M  V30 5708 O 536.589 0.35868 -1.57467 0
M  V30 5709 H 537.28 1.00907 -1.6534 0
M  V30 END ATOM
M  V30 BEGIN BOND
M  V30 END BOND
M  V30 END CTAB
M  END
$$$$
