drugbank_target|P48547 Potassium voltage-gated channel subfamily C member 1 (DB00228; DB01069; DB01110)
 OpenBabel12092120583D

  0  0  0     0  0            999 V3000
M  V30 BEGIN CTAB
M  V30 COUNTS 8099 8215 0 0 0
M  V30 BEGIN ATOM
M  V30 1 H -0.908 1.98254 -0.117106 0
M  V30 2 N 0 1.576 0 0
M  V30 3 C 0.933 2.03868 1.02534 0
M  V30 4 C 1.911 0.928543 1.3348 0
M  V30 5 O 3.095 1.19667 1.45644 0
M  V30 6 C 0.222 2.43627 2.35294 0
M  V30 7 C -0.732 3.65373 2.2001 0
M  V30 8 S 0.101 5.13292 1.52614 0
M  V30 9 C 1.257 5.56322 2.86805 0
M  V30 10 H 1.49 2.90518 0.631377 0
M  V30 11 H -0.977 1.52953 0.210867 0
M  V30 12 H 0.981 2.67203 3.11629 0
M  V30 13 H -0.358 1.57376 2.7183 0
M  V30 14 H -1.165 3.90944 3.18086 0
M  V30 15 H -1.563 3.418 1.51819 0
M  V30 16 H 0.729 5.58782 3.83104 0
M  V30 17 H 1.672 6.56266 2.65933 0
M  V30 18 H 2.08 4.83886 2.90714 0
M  V30 19 N 1.4781 -0.272755 1.55222 0
M  V30 20 C 2.7261 -1.00234 1.75492 0
M  V30 21 C 3.0471 -1.8681 0.5592 0
M  V30 22 O 2.3171 -1.91215 -0.425882 0
M  V30 23 H 0.8971 -0.373076 0.647166 0
M  V30 24 H 3.5591 -0.296926 1.92625 0
M  V30 25 H 2.6551 -1.63913 2.65592 0
M  V30 26 N 2.9562 -1.48159 -0.537278 0
M  V30 27 C 3.8882 -1.58218 -1.65831 0
M  V30 28 C 4.9012 -0.466948 -1.5596 0
M  V30 29 O 6.0902 -0.73747 -1.62553 0
M  V30 30 C 3.1902 -1.48906 -3.04434 0
M  V30 31 C 2.3632 -2.75343 -3.3986 0
M  V30 32 C 1.4222 -2.59588 -4.57712 0
M  V30 33 O 0.4482 -3.33457 -4.61297 0
M  V30 34 N 1.6502 -1.68724 -5.55439 0
M  V30 35 H 4.4152 -2.54891 -1.57641 0
M  V30 36 H 1.9762 -1.4479 -0.724386 0
M  V30 37 H 3.9682 -1.36072 -3.81139 0
M  V30 38 H 2.5382 -0.602368 -3.06741 0
M  V30 39 H 1.7582 -3.02795 -2.52406 0
M  V30 40 H 3.0462 -3.5924 -3.60311 0
M  V30 41 H 2.4442 -1.07898 -5.55315 0
M  V30 42 H 1.0012 -1.61832 -6.3139 0
M  V30 43 N 4.4343 0.785586 -1.36625 0
M  V30 44 C 5.6823 1.54057 -1.30808 0
M  V30 45 C 6.0033 1.94683 0.111157 0
M  V30 46 O 5.2733 1.65241 1.05224 0
M  V30 47 H 3.8533 0.571354 -0.481211 0
M  V30 48 H 6.5153 0.935821 -1.70963 0
M  V30 49 H 5.6113 2.44637 -1.93801 0
M  V30 50 N 5.9124 1.20967 1.01018 0
M  V30 51 C 7.1894 0.93264 1.71934 0
M  V30 52 C 7.5694 -0.55692 2.03621 0
M  V30 53 O 6.9174 -1.52035 1.7058 0
M  V30 54 C 7.1274 1.81233 2.98254 0
M  V30 55 C 8.4754 2.05804 3.71389 0
M  V30 56 O 9.4994 1.78539 3.08225 0
M  V30 57 O 8.3584 2.51888 4.84989 0
M  V30 58 H 5.4524 0.349272 0.749625 0
M  V30 59 H 7.9984 1.31871 1.06808 0
M  V30 60 H 6.7704 2.82067 2.71208 0
M  V30 61 H 6.3934 1.42674 3.7112 0
M  V30 62 N 7.3905 -1.2043 1.01659 0
M  V30 63 C 8.3005 -2.2689 0.596484 0
M  V30 64 C 9.3165 -1.70107 -0.36599 0
M  V30 65 O 10.4925 -2.00117 -0.226942 0
M  V30 66 C 7.5575 -3.4665 -0.0586659 0
M  V30 67 C 6.6185 -4.18662 0.949751 0
M  V30 68 C 5.8515 -5.32705 0.32577 0
M  V30 69 O 6.0745 -5.63656 -0.874509 0
M  V30 70 O 5.0085 -5.92803 1.04249 0
M  V30 71 H 8.8345 -2.65041 1.4828 0
M  V30 72 H 6.4195 -1.27048 0.786082 0
M  V30 73 H 8.3015 -4.19256 -0.424564 0
M  V30 74 H 6.9765 -3.10375 -0.91918 0
M  V30 75 H 5.8835 -3.48229 1.36702 0
M  V30 76 H 7.2165 -4.58878 1.78023 0
M  V30 77 N 8.8686 -0.792821 -1.36206 0
M  V30 78 C 10.0936 -0.377701 -2.03932 0
M  V30 79 C 10.5186 0.998947 -1.59382 0
M  V30 80 O 9.8766 1.64421 -0.763903 0
M  V30 81 C 9.9246 -0.453635 -3.57735 0
M  V30 82 O 9.0286 0.538151 -4.08874 0
M  V30 83 H 8.3696 -0.159855 -0.644471 0
M  V30 84 H 10.8996 -1.07488 -1.7409 0
M  V30 85 H 10.9096 -0.318464 -4.06755 0
M  V30 86 H 9.5846 -1.45784 -3.89512 0
M  V30 87 H 8.1616 0.364359 -3.71116 0
M  V30 88 N 10.3467 1.47872 -0.545128 0
M  V30 89 C 11.2567 2.33633 0.212746 0
M  V30 90 C 12.2727 1.4744 0.923983 0
M  V30 91 O 13.4487 1.80393 0.895572 0
M  V30 92 C 10.5137 3.23884 1.23693 0
M  V30 93 C 9.5747 4.25961 0.534417 0
M  V30 94 C 8.8077 5.11899 1.5098 0
M  V30 95 O 9.0307 5.00077 2.7437 0
M  V30 96 O 7.9647 5.92831 1.0409 0
M  V30 97 H 11.7907 2.99714 -0.490416 0
M  V30 98 H 9.3757 1.46235 -0.305871 0
M  V30 99 H 11.2577 3.79666 1.82843 0
M  V30 100 H 9.9327 2.60446 1.92222 0
M  V30 101 H 8.8397 3.73972 -0.0979679 0
M  V30 102 H 10.1727 4.92079 -0.109213 0
M  V30 103 N 11.8248 0.280983 1.55075 0
M  V30 104 C 13.2408 -0.0729964 1.59433 0
M  V30 105 C 13.4408 -1.5411 1.29817 0
M  V30 106 O 12.4968 -2.29086 1.06187 0
M  V30 107 C 13.8098 0.306921 2.9913 0
M  V30 108 C 15.3578 0.254023 3.11968 0
M  V30 109 C 15.8328 0.608467 4.5394 0
M  V30 110 N 17.3238 0.560241 4.59799 0
M  V30 111 C 18.0588 0.80722 5.6769 0
M  V30 112 N 17.5548 1.11912 6.83701 0
M  V30 113 N 19.3478 0.735623 5.57266 0
M  V30 114 H 11.4988 1.238 1.7259 0
M  V30 115 H 13.7618 0.500547 0.805082 0
M  V30 116 H 13.4678 1.32816 3.25657 0
M  V30 117 H 13.3418 -0.349363 3.75579 0
M  V30 118 H 15.7288 -0.75794 2.852 0
M  V30 119 H 15.8098 0.944649 2.37718 0
M  V30 120 H 15.4538 1.61814 4.81434 0
M  V30 121 H 15.3838 -0.104013 5.26497 0
M  V30 122 H 17.8748 0.329288 3.76463 0
M  V30 123 H 18.1878 1.29409 7.61888 0
M  V30 124 H 16.5328 1.15695 6.85303 0
M  V30 125 H 19.7238 0.491752 4.6551 0
M  V30 126 H 19.8968 0.931482 6.4127 0
M  V30 127 N 13.3029 -1.57598 0.00835791 0
M  V30 128 C 14.5519 -1.90107 -0.673968 0
M  V30 129 C 14.8649 -0.884275 -1.7447 0
M  V30 130 O 16.0709 -1.09987 -2.48224 0
M  V30 131 C 14.5269 -3.37497 -1.24995 0
M  V30 132 C 14.1349 -4.47491 -0.2136 0
M  V30 133 C 15.8789 -3.79104 -1.90999 0
M  V30 134 C 13.7859 -5.85963 -0.80005 0
M  V30 135 H 12.7159 -0.709393 -0.255495 0
M  V30 136 H 15.3669 -1.83365 0.0702693 0
M  V30 137 H 13.7489 -3.39102 -2.04513 0
M  V30 138 H 14.9229 -4.57414 0.557596 0
M  V30 139 H 13.2379 -4.14956 0.346474 0
M  V30 140 H 15.8349 -4.79901 -2.35795 0
M  V30 141 H 16.1779 -3.1306 -2.74407 0
M  V30 142 H 16.7109 -3.79833 -1.18203 0
M  V30 143 H 13.4499 -6.555 -0.00456708 0
M  V30 144 H 12.9699 -5.79687 -1.54021 0
M  V30 145 H 14.6489 -6.33884 -1.29615 0
M  V30 146 N 14.781 0.264519 -1.55364 0
M  V30 147 C 16.027 0.99646 -1.76631 0
M  V30 148 C 16.36 1.85632 -0.570478 0
M  V30 149 O 15.635 1.89647 0.43175 0
M  V30 150 C 15.918 1.87187 -3.07625 0
M  V30 151 C 15.771 1.04138 -4.37579 0
M  V30 152 C 17.09 2.85749 -3.34717 0
M  V30 153 H 14.209 0.360841 -0.642622 0
M  V30 154 H 16.851 0.268218 -1.88097 0
M  V30 155 H 15.001 2.49279 -2.9798 0
M  V30 156 H 16.673 0.440517 -4.59192 0
M  V30 157 H 14.916 0.345115 -4.32425 0
M  V30 158 H 15.587 1.68729 -5.2558 0
M  V30 159 H 18.063 2.33793 -3.4421 0
M  V30 160 H 16.939 3.44136 -4.27623 0
M  V30 161 H 17.2 3.61311 -2.54768 0
M  V30 162 N 16.2591 1.48442 0.529413 0
M  V30 163 C 17.5081 1.55742 1.28169 0
M  V30 164 C 17.8211 0.236511 1.94165 0
M  V30 165 O 19.0271 0.187761 2.7085 0
M  V30 166 C 17.4831 2.74667 2.32564 0
M  V30 167 C 17.0911 4.13402 1.72636 0
M  V30 168 C 18.8351 2.9128 3.08798 0
M  V30 169 C 16.7421 5.23587 2.74975 0
M  V30 170 H 15.6721 0.579796 0.48203 0
M  V30 171 H 18.3231 1.74776 0.559056 0
M  V30 172 H 16.7051 2.49067 3.07866 0
M  V30 173 H 17.8791 4.49022 1.03519 0
M  V30 174 H 16.1941 4.0191 1.08892 0
M  V30 175 H 18.7911 3.70767 3.85274 0
M  V30 176 H 19.1341 2.00757 3.64695 0
M  V30 177 H 19.6671 3.16782 2.40611 0
M  V30 178 H 16.4061 6.16076 2.23897 0
M  V30 179 H 15.9261 4.92454 3.42417 0
M  V30 180 H 17.6051 5.51724 3.37949 0
M  V30 181 N 17.7372 -0.778329 1.37039 0
M  V30 182 C 18.6852 -1.91278 1.32345 0
M  V30 183 C 19.6792 -1.68051 0.213331 0
M  V30 184 O 20.8852 -1.75922 0.38098 0
M  V30 185 H 17.2602 -0.628909 0.412283 0
M  V30 186 H 19.2312 -1.92355 2.28127 0
M  V30 187 C 17.9802 -3.28455 1.14073 0
M  V30 188 H 17.3032 -3.46901 1.98746 0
M  V30 189 H 18.7432 -4.08152 1.14837 0
M  V30 190 C 17.2022 -3.36548 -0.154015 0
M  V30 191 O 17.7322 -3.85186 -1.13993 0
M  V30 192 N 15.9382 -2.89894 -0.202475 0
M  V30 193 H 15.4852 -2.50504 0.600476 0
M  V30 194 H 15.4432 -2.9569 -1.06841 0
M  V30 195 N 19.2153 -1.21501 -1.00376 0
M  V30 196 C 20.4613 -1.03452 -1.74429 0
M  V30 197 C 20.7943 0.430764 -1.89362 0
M  V30 198 O 20.0693 1.31962 -1.42886 0
M  V30 199 C 20.3523 -1.73375 -3.15615 0
M  V30 200 C 20.2053 -3.27431 -3.08397 0
M  V30 201 C 21.5243 -1.47732 -4.14564 0
M  V30 202 H 18.6433 -0.377226 -0.633143 0
M  V30 203 H 21.2853 -1.49693 -1.17013 0
M  V30 204 H 19.4353 -1.34064 -3.64636 0
M  V30 205 H 21.1073 -3.76119 -2.67081 0
M  V30 206 H 19.3503 -3.5767 -2.45468 0
M  V30 207 H 20.0213 -3.71524 -4.08258 0
M  V30 208 H 22.4973 -1.8186 -3.74254 0
M  V30 209 H 21.3733 -1.99169 -5.11491 0
M  V30 210 H 21.6343 -0.407589 -4.40217 0
M  V30 211 N 20.6934 1.19889 -1.02296 0
M  V30 212 C 21.9414 1.89046 -0.714558 0
M  V30 213 C 22.2624 1.79636 0.758681 0
M  V30 214 O 21.5324 1.20292 1.54618 0
M  V30 215 H 20.1124 0.699802 -0.261317 0
M  V30 216 H 22.7744 1.45574 -1.29592 0
M  V30 217 H 21.8704 2.95524 -1.0036 0
M  V30 218 N 22.1715 0.800033 1.35784 0
M  V30 219 C 23.4195 0.376597 1.9856 0
M  V30 220 C 23.7405 -1.05812 1.63795 0
M  V30 221 O 23.0105 -1.73103 0.917171 0
M  V30 222 H 21.5905 0.136261 0.734467 0
M  V30 223 H 24.2525 1.02442 1.65806 0
M  V30 224 H 23.3485 0.477002 3.08433 0
M  V30 225 N 23.6496 -1.47581 0.552962 0
M  V30 226 C 24.8776 -2.06875 0.0320556 0
M  V30 227 C 25.2926 -1.40625 -1.25976 0
M  V30 228 O 24.6496 -0.501349 -1.75479 0
M  V30 229 C 24.7006 -3.61092 -0.17167 0
M  V30 230 O 24.4216 -4.24858 1.06899 0
M  V30 231 C 25.9226 -4.37242 -0.730344 0
M  V30 232 H 23.1426 -0.669561 0.043915 0
M  V30 233 H 25.6866 -1.89646 0.765163 0
M  V30 234 H 23.8416 -3.7785 -0.854894 0
M  V30 235 H 24.2556 -5.17334 0.864059 0
M  V30 236 H 25.7296 -5.45842 -0.822203 0
M  V30 237 H 26.2066 -4.03235 -1.74064 0
M  V30 238 H 26.8126 -4.25219 -0.0829543 0
M  V30 239 N 25.1277 -0.289203 -1.54924 0
M  V30 240 C 26.5437 0.0645403 -1.59469 0
M  V30 241 C 26.7437 1.53419 -1.30632 0
M  V30 242 O 25.7997 2.2852 -1.074 0
M  V30 243 C 27.1127 -0.32278 -2.98963 0
M  V30 244 C 28.6607 -0.270564 -3.11828 0
M  V30 245 C 29.1357 -0.632532 -4.53611 0
M  V30 246 N 30.6267 -0.584617 -4.59496 0
M  V30 247 C 31.3617 -0.837314 -5.67254 0
M  V30 248 N 30.8577 -1.15536 -6.83098 0
M  V30 249 N 32.6507 -0.765166 -5.56868 0
M  V30 250 H 24.8017 -1.24714 -1.71931 0
M  V30 251 H 27.0647 -0.504809 -0.802416 0
M  V30 252 H 26.7707 -1.34541 -3.24948 0
M  V30 253 H 26.6447 0.32944 -3.75759 0
M  V30 254 H 29.0317 0.742805 -2.85598 0
M  V30 255 H 29.1127 -0.957242 -2.37214 0
M  V30 256 H 28.7567 -1.64365 -4.80569 0
M  V30 257 H 28.6867 0.07609 -5.26545 0
M  V30 258 H 31.1777 -0.349248 -3.76283 0
M  V30 259 H 31.4907 -1.33447 -7.61191 0
M  V30 260 H 29.8357 -1.19328 -6.84679 0
M  V30 261 H 33.0267 -0.516432 -4.65243 0
M  V30 262 H 33.1997 -0.965477 -6.40767 0
M  V30 263 N 26.6058 1.57591 -0.0167156 0
M  V30 264 C 27.5558 2.05953 0.978137 0
M  V30 265 C 28.5398 0.957532 1.29306 0
M  V30 266 O 29.7318 1.22119 1.28125 0
M  V30 267 C 26.8608 2.58006 2.26468 0
M  V30 268 C 25.9468 3.75113 1.97867 0
M  V30 269 N 26.3378 4.86187 1.39486 0
M  V30 270 C 24.6358 3.83363 2.27924 0
M  V30 271 C 25.3368 5.67502 1.27735 0
M  V30 272 N 24.3128 5.14023 1.76866 0
M  V30 273 H 28.1148 2.89236 0.521522 0
M  V30 274 H 25.6288 1.61301 0.188596 0
M  V30 275 H 27.6258 2.90937 2.98599 0
M  V30 276 H 26.2858 1.76148 2.72767 0
M  V30 277 H 27.2968 5.06695 1.07147 0
M  V30 278 H 23.9738 3.1239 2.76982 0
M  V30 279 H 25.3638 6.66791 0.826978 0
M  V30 280 N 28.0839 -0.256276 1.55502 0
M  V30 281 C 29.0159 -1.33981 1.85962 0
M  V30 282 C 30.0289 -1.44743 0.745212 0
M  V30 283 O 31.2179 -1.4626 1.02324 0
M  V30 284 C 28.3179 -2.7194 2.02242 0
M  V30 285 C 27.4909 -2.83562 3.33033 0
M  V30 286 C 26.5499 -4.02304 3.39172 0
M  V30 287 O 25.5759 -3.92273 4.12444 0
M  V30 288 N 26.7779 -5.15045 2.67784 0
M  V30 289 H 29.5429 -1.08191 2.7949 0
M  V30 290 H 27.1039 -0.446388 1.55624 0
M  V30 291 H 29.0959 -3.49697 2.03701 0
M  V30 292 H 27.6659 -2.90479 1.15502 0
M  V30 293 H 26.8859 -1.92555 3.43971 0
M  V30 294 H 28.1739 -2.88271 4.19258 0
M  V30 295 H 27.5719 -5.26085 2.07968 0
M  V30 296 H 26.1289 -5.90972 2.74947 0
M  V30 297 N 29.562 -1.4872 -0.521534 0
M  V30 298 C 30.79 -1.60843 -1.30142 0
M  V30 299 C 31.205 -0.271897 -1.86832 0
M  V30 300 O 30.562 0.739969 -1.66825 0
M  V30 301 C 30.613 -2.66155 -2.4463 0
M  V30 302 O 30.334 -3.94623 -1.90275 0
M  V30 303 C 31.835 -2.88795 -3.36322 0
M  V30 304 H 29.055 -0.542075 -0.395468 0
M  V30 305 H 31.599 -1.94609 -0.628285 0
M  V30 306 H 29.754 -2.35224 -3.07812 0
M  V30 307 H 30.168 -4.52468 -2.65279 0
M  V30 308 H 31.642 -3.66264 -4.12983 0
M  V30 309 H 32.119 -1.97934 -3.9207 0
M  V30 310 H 32.725 -3.21063 -2.78924 0
M  V30 311 N 31.0401 0.771051 -1.3745 0
M  V30 312 C 32.2701 1.55789 -1.35696 0
M  V30 313 C 32.6781 1.89107 0.0594523 0
M  V30 314 O 32.0211 1.51984 1.03183 0
M  V30 315 C 32.0831 2.89515 -2.13123 0
M  V30 316 C 31.7471 2.78829 -3.62082 0
M  V30 317 C 32.7441 2.49812 -4.5595 0
M  V30 318 C 30.4291 2.9683 -4.05213 0
M  V30 319 C 32.4231 2.38923 -5.90927 0
M  V30 320 C 30.1101 2.85562 -5.40276 0
M  V30 321 C 31.1081 2.56649 -6.32946 0
M  V30 322 O 30.7961 2.45408 -7.65526 0
M  V30 323 H 30.5281 0.489257 -0.466481 0
M  V30 324 H 33.0821 0.963446 -1.81403 0
M  V30 325 H 31.3121 3.51081 -1.62107 0
M  V30 326 H 33.0011 3.50915 -2.03994 0
M  V30 327 H 33.7671 2.3559 -4.23937 0
M  V30 328 H 29.6461 3.18335 -3.33442 0
M  V30 329 H 33.1901 2.16277 -6.63227 0
M  V30 330 H 29.0871 2.99351 -5.71891 0
M  V30 331 H 29.8551 2.60753 -7.75855 0
M  V30 332 N 32.5182 1.22032 0.997298 0
M  V30 333 C 33.9342 0.979326 1.26021 0
M  V30 334 C 34.1342 -0.32972 1.98784 0
M  V30 335 O 33.1902 -1.05345 2.29475 0
M  V30 336 C 34.5032 2.17509 2.07631 0
M  V30 337 C 36.0512 2.21817 2.2083 0
M  V30 338 C 36.5262 3.40933 3.05825 0
M  V30 339 N 38.0172 3.41067 3.13412 0
M  V30 340 C 38.7522 4.29885 3.79455 0
M  V30 341 N 38.2482 5.28914 4.47462 0
M  V30 342 N 40.0412 4.17673 3.76173 0
M  V30 343 H 32.1922 2.06202 0.509352 0
M  V30 344 H 34.4552 0.90334 0.287541 0
M  V30 345 H 34.1612 3.12415 1.61524 0
M  V30 346 H 34.0352 2.17206 3.08385 0
M  V30 347 H 36.4222 1.27462 2.66153 0
M  V30 348 H 36.5032 2.2616 1.1952 0
M  V30 349 H 36.1472 4.35586 2.61203 0
M  V30 350 H 36.0772 3.33829 4.07266 0
M  V30 351 H 38.5682 2.69406 2.65007 0
M  V30 352 H 38.8812 5.92973 4.95583 0
M  V30 353 H 37.2262 5.32831 4.46224 0
M  V30 354 H 40.4172 3.39564 3.22202 0
M  V30 355 H 40.5902 4.87098 4.27363 0
M  V30 356 N 33.9963 -1.19345 1.0293 0
M  V30 357 C 35.2213 -1.93538 0.745511 0
M  V30 358 C 35.6463 -1.75007 -0.689511 0
M  V30 359 O 35.0043 -1.05265 -1.47611 0
M  V30 360 C 35.0523 -3.43336 1.10239 0
M  V30 361 O 34.1563 -4.11806 0.221289 0
M  V30 362 H 33.4973 -0.604193 0.275404 0
M  V30 363 H 36.0273 -1.5141 1.37609 0
M  V30 364 H 36.0373 -3.94004 1.05947 0
M  V30 365 H 34.7123 -3.56146 2.14786 0
M  V30 366 H 33.2893 -3.715 0.322842 0
M  V30 367 N 35.4744 -0.807222 -1.35358 0
M  V30 368 C 36.7024 -0.400377 -2.02989 0
M  V30 369 C 37.1174 0.988859 -1.60832 0
M  V30 370 O 36.4744 1.63729 -0.806175 0
M  V30 371 C 36.5254 -0.474867 -3.58368 0
M  V30 372 O 36.2464 -1.80933 -3.98992 0
M  V30 373 C 37.7474 -0.0609112 -4.43258 0
M  V30 374 H 34.9674 -0.162587 -0.651004 0
M  V30 375 H 37.5114 -1.09102 -1.72965 0
M  V30 376 H 35.6664 0.167534 -3.87038 0
M  V30 377 H 36.0804 -1.77256 -4.9364 0
M  V30 378 H 37.5544 -0.164145 -5.51756 0
M  V30 379 H 38.0314 0.993831 -4.27808 0
M  V30 380 H 38.6374 -0.676492 -4.19885 0
M  V30 381 N 36.9525 1.47285 -0.560781 0
M  V30 382 C 37.8825 2.32857 0.173105 0
M  V30 383 C 38.8635 1.44009 0.905281 0
M  V30 384 O 40.0485 1.7286 0.885046 0
M  V30 385 C 37.1785 3.25861 1.20133 0
M  V30 386 C 36.1325 4.23978 0.585388 0
M  V30 387 C 35.4585 5.06332 1.7185 0
M  V30 388 C 36.7585 5.20242 -0.463178 0
M  V30 389 H 38.4525 2.94466 -0.541307 0
M  V30 390 H 35.9985 1.41601 -0.261764 0
M  V30 391 H 37.9515 3.84569 1.72293 0
M  V30 392 H 36.6755 2.62315 1.94573 0
M  V30 393 H 35.3345 3.66501 0.085054 0
M  V30 394 H 34.9825 4.39186 2.45203 0
M  V30 395 H 34.6825 5.72762 1.31213 0
M  V30 396 H 36.2065 5.67899 2.24329 0
M  V30 397 H 37.6205 5.73293 -0.027502 0
M  V30 398 H 36.0175 5.94896 -0.788627 0
M  V30 399 H 37.0875 4.65504 -1.35773 0
M  V30 400 N 38.4306 0.297415 1.54768 0
M  V30 401 C 39.8466 -0.0560823 1.59501 0
M  V30 402 C 40.0466 -1.52725 1.31444 0
M  V30 403 O 39.1026 -2.27947 1.08611 0
M  V30 404 C 40.4156 0.338631 2.98787 0
M  V30 405 C 41.9636 0.287097 3.11681 0
M  V30 406 C 42.4386 0.656579 4.53269 0
M  V30 407 N 43.9296 0.608977 4.59179 0
M  V30 408 C 44.6646 0.867385 5.66802 0
M  V30 409 N 44.1606 1.19157 6.82476 0
M  V30 410 N 45.9536 0.794687 5.56454 0
M  V30 411 H 38.1046 1.25624 1.71267 0
M  V30 412 H 40.3676 0.509057 0.799728 0
M  V30 413 H 40.0736 1.36263 3.2423 0
M  V30 414 H 39.9476 -0.309508 3.75928 0
M  V30 415 H 42.3346 -0.727649 2.85988 0
M  V30 416 H 42.4156 0.969809 2.36703 0
M  V30 417 H 42.0596 1.66912 4.7969 0
M  V30 418 H 41.9896 -0.0481649 5.26578 0
M  V30 419 H 44.4806 0.369198 3.76092 0
M  V30 420 H 44.7936 1.37482 7.60473 0
M  V30 421 H 43.1386 1.22958 6.84037 0
M  V30 422 H 46.3296 0.541098 4.64962 0
M  V30 423 H 46.5026 0.999445 6.40246 0
M  V30 424 N 39.9087 -1.5758 0.0250728 0
M  V30 425 C 41.1367 -1.9593 -0.664747 0
M  V30 426 C 41.5517 -0.901352 -1.65895 0
M  V30 427 O 40.9087 0.117255 -1.82123 0
M  V30 428 C 40.9597 -3.34342 -1.37468 0
M  V30 429 O 40.6807 -4.36079 -0.420324 0
M  V30 430 C 42.1817 -3.873 -2.1567 0
M  V30 431 H 39.4017 -0.645405 -0.183557 0
M  V30 432 H 41.9457 -2.04329 0.0836372 0
M  V30 433 H 40.1007 -3.27175 -2.0745 0
M  V30 434 H 40.5147 -5.16297 -0.923991 0
M  V30 435 H 41.9887 -4.86504 -2.60803 0
M  V30 436 H 42.4657 -3.21331 -2.99405 0
M  V30 437 H 43.0717 -3.97723 -1.50654 0
M  V30 438 N 41.3868 0.248026 -1.55636 0
M  V30 439 C 42.3168 1.31079 -1.93237 0
M  V30 440 C 43.2978 1.50264 -0.797174 0
M  V30 441 O 44.4828 1.62891 -1.05737 0
M  V30 442 C 41.6128 2.66575 -2.22609 0
M  V30 443 C 40.5668 2.62087 -3.3837 0
M  V30 444 C 39.8928 4.01369 -3.53281 0
M  V30 445 C 41.1928 2.19171 -4.7409 0
M  V30 446 H 42.8868 0.998556 -2.82257 0
M  V30 447 H 40.4328 0.47891 -1.35803 0
M  V30 448 H 42.3858 3.41057 -2.47503 0
M  V30 449 H 41.1098 2.99432 -1.30414 0
M  V30 450 H 39.7688 1.90063 -3.13483 0
M  V30 451 H 39.4168 4.31489 -2.58508 0
M  V30 452 H 39.1168 3.99254 -4.31127 0
M  V30 453 H 40.6408 4.77552 -3.80495 0
M  V30 454 H 42.0548 2.83384 -4.98363 0
M  V30 455 H 40.4518 2.2817 -5.5503 0
M  V30 456 H 41.5218 1.14336 -4.71227 0
M  V30 457 N 42.8649 1.48995 0.513639 0
M  V30 458 C 44.2759 1.5119 1.09537 0
M  V30 459 C 44.6269 0.290906 1.94031 0
M  V30 460 O 43.7519 -0.60049 2.07902 0
M  V30 461 C 44.3469 2.73964 1.99322 0
M  V30 462 C 42.9059 2.78978 2.52682 0
M  V30 463 C 42.0529 2.44934 1.30009 0
M  V30 464 H 45.0039 1.55875 0.298125 0
M  V30 465 H 45.0249 2.53409 2.83838 0
M  V30 466 H 44.5369 3.62813 1.37799 0
M  V30 467 H 42.6379 1.94378 3.1788 0
M  V30 468 H 42.7509 3.8083 2.90698 0
M  V30 469 H 41.1149 1.9644 1.62122 0
M  V30 470 H 41.8979 3.36043 0.702131 0
M  V30 471 N 44.343 -0.763751 1.37857 0
M  V30 472 C 45.591 -1.51957 1.33243 0
M  V30 473 C 45.912 -1.94835 -0.0801709 0
M  V30 474 O 45.182 -1.66894 -1.02582 0
M  V30 475 H 43.762 -0.563626 0.49024 0
M  V30 476 H 46.424 -0.908504 1.7243 0
M  V30 477 H 45.52 -2.41523 1.97669 0
M  V30 478 N 45.8211 -1.22559 -0.990812 0
M  V30 479 C 47.0491 -1.07779 -1.76611 0
M  V30 480 C 47.4641 0.371513 -1.85109 0
M  V30 481 O 46.8211 1.25737 -1.32274 0
M  V30 482 C 46.8721 -1.68512 -3.19822 0
M  V30 483 O 46.5931 -3.07774 -3.1178 0
M  V30 484 C 48.0941 -1.59035 -4.13791 0
M  V30 485 H 45.3141 -0.377729 -0.554583 0
M  V30 486 H 47.8581 -1.62195 -1.24551 0
M  V30 487 H 46.0131 -1.18154 -3.68942 0
M  V30 488 H 46.4271 -3.37062 -4.01858 0
M  V30 489 H 47.9011 -2.0625 -5.1202 0
M  V30 490 H 48.3781 -0.547273 -4.35777 0
M  V30 491 H 48.9841 -2.08709 -3.70568 0
M  V30 492 N 47.2992 1.18797 -1.03562 0
M  V30 493 C 48.7152 1.40671 -0.753917 0
M  V30 494 C 48.9152 1.9043 0.658686 0
M  V30 495 O 47.9712 2.08538 1.42366 0
M  V30 496 C 49.2842 2.41192 -1.79574 0
M  V30 497 C 50.8322 2.54928 -1.81606 0
M  V30 498 C 51.3072 3.58709 -2.84766 0
M  V30 499 N 52.7982 3.66212 -2.83625 0
M  V30 500 C 53.5332 4.46225 -3.60098 0
M  V30 501 N 53.0292 5.29888 -4.46308 0
M  V30 502 N 54.8222 4.40939 -3.4861 0
M  V30 503 H 46.9732 0.848221 -1.94728 0
M  V30 504 H 49.2362 0.435081 -0.842264 0
M  V30 505 H 48.9422 2.11669 -2.80872 0
M  V30 506 H 48.8162 3.40467 -1.62365 0
M  V30 507 H 51.2032 2.83771 -0.809817 0
M  V30 508 H 51.2842 1.55784 -2.02891 0
M  V30 509 H 50.9282 3.30607 -3.85566 0
M  V30 510 H 50.8582 4.57519 -2.60737 0
M  V30 511 H 53.3492 3.06466 -2.21105 0
M  V30 512 H 53.6622 5.88078 -5.01382 0
M  V30 513 H 52.0072 5.29326 -4.50377 0
M  V30 514 H 55.1982 3.74624 -2.80668 0
M  V30 515 H 55.3712 5.03056 -4.08459 0
M  V30 516 N 48.7773 0.814389 1.34928 0
M  V30 517 C 49.7073 0.244827 2.32213 0
M  V30 518 C 50.6883 -0.634024 1.57842 0
M  V30 519 O 51.8733 -0.562676 1.8587 0
M  V30 520 C 49.0033 -0.601106 3.42058 0
M  V30 521 C 47.9573 0.179896 4.27622 0
M  V30 522 C 47.2833 -0.788237 5.28858 0
M  V30 523 C 48.5833 1.38329 5.03649 0
M  V30 524 H 50.2773 1.05763 2.80097 0
M  V30 525 H 47.8233 0.510029 1.34665 0
M  V30 526 H 49.7763 -1.00968 4.09125 0
M  V30 527 H 48.5003 -1.44688 2.92802 0
M  V30 528 H 47.1593 0.569739 3.62146 0
M  V30 529 H 46.8073 -1.62973 4.75866 0
M  V30 530 H 46.5073 -0.269942 5.8698 0
M  V30 531 H 48.0313 -1.19485 5.98795 0
M  V30 532 H 49.4453 1.04918 5.63618 0
M  V30 533 H 47.8423 1.83662 5.71304 0
M  V30 534 H 48.9123 2.16592 4.33839 0
M  V30 535 N 50.2554 -1.46986 0.568584 0
M  V30 536 C 51.2184 -2.28624 -0.162366 0
M  V30 537 C 52.2184 -1.37596 -0.832103 0
M  V30 538 O 53.4084 -1.60115 -0.68622 0
M  V30 539 C 50.5404 -3.17596 -1.23878 0
M  V30 540 H 51.7334 -2.94722 0.554899 0
M  V30 541 H 49.2864 -1.52863 0.325976 0
M  V30 542 H 50.0214 -2.56214 -1.98808 0
M  V30 543 H 49.8064 -3.846 -0.763219 0
M  V30 544 H 51.2964 -3.79078 -1.75185 0
M  V30 545 N 51.7335 -0.305618 -1.54608 0
M  V30 546 C 52.9795 0.295595 -2.01241 0
M  V30 547 C 53.3345 1.51171 -1.19018 0
M  V30 548 O 52.6275 1.89832 -0.259684 0
M  V30 549 C 52.8215 0.698983 -3.50498 0
M  V30 550 C 52.6505 -0.476491 -4.47168 0
M  V30 551 C 51.4205 -0.969963 -4.95903 0
M  V30 552 C 53.6185 -1.32294 -4.96994 0
M  V30 553 N 51.6005 -2.11172 -5.76437 0
M  V30 554 C 52.9715 -2.31212 -5.75275 0
M  V30 555 C 55.0265 -1.35278 -4.7917 0
M  V30 556 C 53.7295 -3.32896 -6.37631 0
M  V30 557 C 55.7555 -2.35823 -5.42348 0
M  V30 558 C 55.1175 -3.33469 -6.20466 0
M  V30 559 H 51.2165 0.0724992 -0.778632 0
M  V30 560 H 53.8005 -0.436583 -1.89742 0
M  V30 561 H 51.9715 1.40032 -3.62278 0
M  V30 562 H 53.7035 1.28013 -3.8392 0
M  V30 563 H 50.4585 -0.544178 -4.70463 0
M  V30 564 H 50.8825 -2.68714 -6.21387 0
M  V30 565 H 55.5245 -0.61157 -4.18354 0
M  V30 566 H 53.2425 -4.07933 -6.97579 0
M  V30 567 H 56.8285 -2.38911 -5.30484 0
M  V30 568 H 55.7085 -4.09996 -6.68485 0
M  V30 569 N 53.2116 1.57565 -0.0334293 0
M  V30 570 C 54.1416 2.13511 0.945265 0
M  V30 571 C 55.1226 1.05231 1.33643 0
M  V30 572 O 56.3076 1.33084 1.41429 0
M  V30 573 C 53.4376 2.6657 2.22616 0
M  V30 574 C 52.3916 3.79676 1.97561 0
M  V30 575 C 51.7176 4.1918 3.31952 0
M  V30 576 C 53.0176 5.0557 1.31135 0
M  V30 577 H 54.7116 2.95538 0.479325 0
M  V30 578 H 52.2576 1.42166 0.229115 0
M  V30 579 H 54.2106 3.04344 2.91466 0
M  V30 580 H 52.9346 1.8171 2.71384 0
M  V30 581 H 51.5936 3.42347 1.31127 0
M  V30 582 H 51.2416 3.31296 3.78487 0
M  V30 583 H 50.9416 4.95402 3.15992 0
M  V30 584 H 52.4656 4.59541 4.02063 0
M  V30 585 H 53.8796 5.40903 1.89992 0
M  V30 586 H 52.2766 5.86818 1.25559 0
M  V30 587 H 53.3466 4.84062 0.284894 0
M  V30 588 N 54.6897 -0.239769 1.55765 0
M  V30 589 C 55.6527 -1.28038 1.90103 0
M  V30 590 C 56.6527 -1.40723 0.778055 0
M  V30 591 O 57.8427 -1.39301 1.04599 0
M  V30 592 C 54.9747 -2.65702 2.13577 0
M  V30 593 H 56.1677 -0.988048 2.83157 0
M  V30 594 H 53.7207 -0.479382 1.48767 0
M  V30 595 H 54.4557 -3.00063 1.23015 0
M  V30 596 H 54.2407 -2.57875 2.95369 0
M  V30 597 H 55.7307 -3.40828 2.41301 0
M  V30 598 N 56.1678 -1.49265 -0.50573 0
M  V30 599 C 57.0778 -1.68312 -1.63427 0
M  V30 600 C 58.0938 -0.565682 -1.64548 0
M  V30 601 O 59.2698 -0.839801 -1.83055 0
M  V30 602 C 56.3348 -1.74107 -2.99813 0
M  V30 603 C 55.3958 -2.97653 -3.09356 0
M  V30 604 C 54.6288 -3.03163 -4.39236 0
M  V30 605 O 54.8518 -2.16396 -5.27758 0
M  V30 606 O 53.7858 -3.9558 -4.53652 0
M  V30 607 H 57.6118 -2.63907 -1.50289 0
M  V30 608 H 55.1968 -1.32951 -0.681502 0
M  V30 609 H 57.0788 -1.803 -3.80881 0
M  V30 610 H 55.7538 -0.816901 -3.13223 0
M  V30 611 H 54.6608 -2.96981 -2.27493 0
M  V30 612 H 55.9938 -3.89535 -3.00871 0
M  V30 613 N 57.6459 0.756429 -1.3826 0
M  V30 614 C 59.0569 1.33359 -1.30661 0
M  V30 615 C 59.4079 1.96161 0.0388875 0
M  V30 616 O 58.5329 1.94874 0.940918 0
M  V30 617 C 59.1279 2.42477 -2.36622 0
M  V30 618 C 57.6869 2.95922 -2.3261 0
M  V30 619 C 56.8339 1.69275 -2.19639 0
M  V30 620 H 59.7849 0.55552 -1.4866 0
M  V30 621 H 59.8059 3.22345 -2.02174 0
M  V30 622 H 59.3179 1.96739 -3.34538 0
M  V30 623 H 57.4189 3.45996 -1.38267 0
M  V30 624 H 57.5319 3.50494 -3.26636 0
M  V30 625 H 55.8959 1.92793 -1.66442 0
M  V30 626 H 56.6789 1.25619 -3.19491 0
M  V30 627 N 59.124 1.23083 0.984299 0
M  V30 628 C 60.401 0.9689 1.69917 0
M  V30 629 C 60.781 -0.513604 2.04757 0
M  V30 630 O 60.129 -1.48383 1.73767 0
M  V30 631 C 60.339 1.87518 2.94343 0
M  V30 632 C 61.687 2.13636 3.6694 0
M  V30 633 O 62.711 1.85036 3.04368 0
M  V30 634 O 61.57 2.62119 4.79537 0
M  V30 635 H 58.664 0.365095 0.742048 0
M  V30 636 H 61.21 1.34107 1.03987 0
M  V30 637 H 59.982 2.87756 2.65164 0
M  V30 638 H 59.605 1.50514 3.6801 0
M  V30 639 N 60.6021 -1.18246 1.0419 0
M  V30 640 C 61.5651 -2.20128 0.638452 0
M  V30 641 C 62.5651 -1.57885 -0.304805 0
M  V30 642 O 63.7551 -1.73967 -0.0900369 0
M  V30 643 C 60.8871 -3.4084 -0.0637751 0
M  V30 644 H 62.0801 -2.57336 1.54007 0
M  V30 645 H 59.6331 -1.32152 0.834598 0
M  V30 646 H 60.3681 -3.09166 -0.979136 0
M  V30 647 H 60.1531 -3.8726 0.614198 0
M  V30 648 H 61.6431 -4.16274 -0.332512 0
M  V30 649 N 62.0802 -0.821533 -1.34494 0
M  V30 650 C 63.0302 -0.214793 -2.26986 0
M  V30 651 C 64.0142 0.620125 -1.4847 0
M  V30 652 O 65.2062 0.474933 -1.70509 0
M  V30 653 C 62.3352 0.623566 -3.37589 0
M  V30 654 C 61.4212 -0.221904 -4.23519 0
M  V30 655 N 61.8122 -1.29223 -4.89014 0
M  V30 656 C 60.1102 -0.00600922 -4.46 0
M  V30 657 C 60.8112 -1.80965 -5.52835 0
M  V30 658 N 59.7872 -1.11376 -5.32068 0
M  V30 659 H 63.5892 -1.03354 -2.75128 0
M  V30 660 H 61.1032 -0.6642 -1.48196 0
M  V30 661 H 63.1002 1.0744 -4.02818 0
M  V30 662 H 61.7602 1.44049 -2.90998 0
M  V30 663 H 62.7712 -1.67502 -4.90065 0
M  V30 664 H 59.4482 0.77886 -4.10171 0
M  V30 665 H 60.8382 -2.70502 -6.15043 0
M  V30 666 N 63.5583 1.46682 -0.576371 0
M  V30 667 C 64.7833 2.07304 -0.0630475 0
M  V30 668 C 65.2083 1.42329 1.2298 0
M  V30 669 O 64.5663 0.504865 1.74129 0
M  V30 670 C 64.6143 3.60472 0.095895 0
M  V30 671 O 63.7183 3.95927 1.15394 0
M  V30 672 H 63.0593 0.661288 -0.0599463 0
M  V30 673 H 65.5893 1.88417 -0.797511 0
M  V30 674 H 65.5993 4.06865 0.304071 0
M  V30 675 H 64.2743 4.07157 -0.84828 0
M  V30 676 H 62.8513 3.61252 0.924724 0
M  V30 677 N 65.0364 0.313813 1.54444 0
M  V30 678 C 65.9864 -0.571898 2.20711 0
M  V30 679 C 66.9704 -1.08913 1.18435 0
M  V30 680 O 68.1624 -1.02777 1.44104 0
M  V30 681 C 65.2914 -1.7371 2.96108 0
M  V30 682 C 64.3774 -1.23522 4.05713 0
M  V30 683 N 64.7684 -0.452288 5.03774 0
M  V30 684 C 63.0664 -1.51482 4.19487 0
M  V30 685 C 63.7674 -0.183438 5.81411 0
M  V30 686 N 62.7434 -0.766845 5.38164 0
M  V30 687 H 66.5454 0.0336802 2.93881 0
M  V30 688 H 64.0594 0.119192 1.61962 0
M  V30 689 H 66.0564 -2.38329 3.4206 0
M  V30 690 H 64.7164 -2.34625 2.24458 0
M  V30 691 H 65.7274 -0.0960131 5.17811 0
M  V30 692 H 62.4044 -2.13053 3.59047 0
M  V30 693 H 63.7944 0.446216 6.70417 0
M  V30 694 N 66.5145 -1.57545 0.0417849 0
M  V30 695 C 67.7615 -1.92317 -0.634082 0
M  V30 696 C 68.0895 -0.919334 -1.71402 0
M  V30 697 O 67.3445 0.0698253 -1.95575 0
M  V30 698 C 67.6435 -3.33794 -1.27735 0
M  V30 699 C 67.3095 -4.49716 -0.326543 0
M  V30 700 C 65.9715 -4.81156 -0.0648814 0
M  V30 701 C 68.3235 -5.20182 0.325623 0
M  V30 702 C 65.6515 -5.80414 0.856539 0
M  V30 703 C 68.0035 -6.20424 1.23518 0
M  V30 704 C 66.6675 -6.50298 1.5056 0
M  V30 705 H 65.9375 -0.703736 -0.232027 0
M  V30 706 H 68.5845 -1.91205 0.106259 0
M  V30 707 H 66.8895 -3.31228 -2.09274 0
M  V30 708 H 68.5865 -3.57975 -1.80707 0
M  V30 709 H 65.1765 -4.25176 -0.540665 0
M  V30 710 H 69.3605 -4.96112 0.136546 0
M  V30 711 H 64.6165 -6.019 1.07363 0
M  V30 712 H 68.7905 -6.74141 1.74664 0
M  V30 713 H 66.4175 -7.27025 2.22123 0
M  V30 714 N 67.9926 0.231505 -1.5589 0
M  V30 715 C 69.2696 0.981096 -1.69215 0
M  V30 716 C 69.6496 2.02799 -0.586164 0
M  V30 717 O 68.9976 2.24823 0.408253 0
M  V30 718 C 69.2076 1.60054 -3.10135 0
M  V30 719 C 70.5556 2.09658 -3.69227 0
M  V30 720 O 71.5796 1.69967 -3.13033 0
M  V30 721 O 70.4386 2.8258 -4.67772 0
M  V30 722 H 67.5326 0.457653 -0.688827 0
M  V30 723 H 70.0786 0.224073 -1.68214 0
M  V30 724 H 68.8506 0.844105 -3.82087 0
M  V30 725 H 68.4736 2.42336 -3.15212 0
M  V30 726 N 69.4707 1.49531 0.497807 0
M  V30 727 C 70.7007 1.62657 1.27382 0
M  V30 728 C 71.1087 0.298488 1.86831 0
M  V30 729 O 70.4517 -0.72647 1.68725 0
M  V30 730 C 70.5137 2.6393 2.44093 0
M  V30 731 C 70.1777 4.08195 2.05489 0
M  V30 732 C 71.1747 4.949 1.59279 0
M  V30 733 C 68.8597 4.53948 2.15026 0
M  V30 734 C 70.8537 6.25397 1.23113 0
M  V30 735 C 68.5407 5.84458 1.78473 0
M  V30 736 C 69.5387 6.70006 1.32591 0
M  V30 737 O 69.2267 7.98083 0.965327 0
M  V30 738 H 68.9587 0.550429 0.392434 0
M  V30 739 H 71.5127 1.96325 0.603801 0
M  V30 740 H 69.7427 2.25449 3.14181 0
M  V30 741 H 71.4317 2.66552 3.06113 0
M  V30 742 H 72.1977 4.60779 1.51354 0
M  V30 743 H 68.0767 3.87525 2.4969 0
M  V30 744 H 71.6207 6.92125 0.872299 0
M  V30 745 H 67.5177 6.18107 1.86048 0
M  V30 746 H 68.2857 8.11122 1.09652 0
M  V30 747 N 70.9488 -0.749086 1.3866 0
M  V30 748 C 72.2258 -1.4992 1.25632 0
M  V30 749 C 72.6058 -2.10633 -0.140317 0
M  V30 750 O 71.9538 -1.97437 -1.15025 0
M  V30 751 C 72.1638 -2.56195 2.36992 0
M  V30 752 C 73.5118 -3.22972 2.75634 0
M  V30 753 O 74.5358 -2.66502 2.36337 0
M  V30 754 O 73.3948 -4.25122 3.43415 0
M  V30 755 H 70.4888 -0.665067 0.491544 0
M  V30 756 H 73.0348 -0.784113 1.50498 0
M  V30 757 H 71.8068 -2.09612 3.30422 0
M  V30 758 H 71.4298 -3.35279 2.13714 0
M  V30 759 N 72.4269 -1.23603 -0.977757 0
M  V30 760 C 73.8379 -1.06424 -1.53398 0
M  V30 761 C 74.1889 0.367578 -1.92726 0
M  V30 762 O 73.3139 1.25465 -1.76316 0
M  V30 763 C 73.9089 -1.92568 -2.78753 0
M  V30 764 C 72.4679 -1.79642 -3.30765 0
M  V30 765 C 71.6149 -1.88111 -2.03739 0
M  V30 766 H 74.5659 -1.37227 -0.797152 0
M  V30 767 H 74.5869 -1.45203 -3.51705 0
M  V30 768 H 74.0989 -2.96771 -2.50098 0
M  V30 769 H 72.1999 -0.782325 -3.64294 0
M  V30 770 H 72.3129 -2.63174 -4.00345 0
M  V30 771 H 70.6769 -1.31723 -2.17994 0
M  V30 772 H 71.4599 -2.93875 -1.77461 0
M  V30 773 N 73.905 1.17692 -1.04816 0
M  V30 774 C 75.321 1.39863 -0.768794 0
M  V30 775 C 75.521 1.91118 0.638451 0
M  V30 776 O 74.577 2.10036 1.40146 0
M  V30 777 C 75.89 2.39274 -1.82122 0
M  V30 778 C 77.438 2.52987 -1.843 0
M  V30 779 C 77.913 3.55669 -2.88555 0
M  V30 780 N 79.404 3.63183 -2.87493 0
M  V30 781 C 80.139 4.42381 -3.64811 0
M  V30 782 N 79.635 5.25125 -4.51903 0
M  V30 783 N 81.428 4.37217 -3.53267 0
M  V30 784 H 73.579 0.82752 -1.95617 0
M  V30 785 H 75.842 0.426123 -0.846831 0
M  V30 786 H 75.548 2.08678 -2.83102 0
M  V30 787 H 75.422 3.38725 -1.65967 0
M  V30 788 H 77.809 2.82896 -0.839869 0
M  V30 789 H 77.89 1.53623 -2.04532 0
M  V30 790 H 77.534 3.26499 -3.89051 0
M  V30 791 H 77.464 4.54728 -2.65575 0
M  V30 792 H 79.955 3.04103 -2.24343 0
M  V30 793 H 80.268 5.82728 -5.07591 0
M  V30 794 H 78.613 5.24519 -4.55966 0
M  V30 795 H 81.804 3.71626 -2.84625 0
M  V30 796 H 81.977 4.98696 -4.13771 0
M  V30 797 N 75.3831 0.828654 1.34056 0
M  V30 798 C 76.3461 0.259927 2.27721 0
M  V30 799 C 77.3461 -0.565478 1.50529 0
M  V30 800 O 78.5361 -0.38075 1.69988 0
M  V30 801 C 75.6681 -0.634944 3.34935 0
M  V30 802 H 76.8611 1.0863 2.79534 0
M  V30 803 H 74.4141 0.600951 1.44285 0
M  V30 804 H 75.1491 -1.48416 2.88346 0
M  V30 805 H 74.9341 -0.0444999 3.92075 0
M  V30 806 H 76.4241 -1.02648 4.04788 0
M  V30 807 N 76.8612 -1.46375 0.584142 0
M  V30 808 C 78.1382 -1.956 0.0033388 0
M  V30 809 C 78.5182 -1.52679 -1.45782 0
M  V30 810 O 77.8662 -0.77816 -2.14842 0
M  V30 811 C 78.0762 -3.48551 0.176891 0
M  V30 812 C 79.4242 -4.24576 0.0454609 0
M  V30 813 O 80.4482 -3.56043 0.105801 0
M  V30 814 O 79.3072 -5.46427 -0.0890376 0
M  V30 815 H 76.4012 -0.825547 -0.0490066 0
M  V30 816 H 78.9472 -1.56652 0.65256 0
M  V30 817 H 77.7192 -3.72683 1.1926 0
M  V30 818 H 77.3422 -3.94332 -0.508695 0
M  V30 819 N 78.3393 -0.321999 -1.54275 0
M  V30 820 C 79.2493 0.553631 -2.27974 0
M  V30 821 C 80.2653 1.13054 -1.32268 0
M  V30 822 O 81.4413 1.15084 -1.6528 0
M  V30 823 C 78.5063 1.69927 -3.02201 0
M  V30 824 C 77.5673 1.15433 -4.1349 0
M  V30 825 C 76.8003 2.24537 -4.84168 0
M  V30 826 O 77.0233 3.44852 -4.5435 0
M  V30 827 O 75.9573 1.90044 -5.7111 0
M  V30 828 H 79.7833 -0.0448345 -3.03667 0
M  V30 829 H 77.3683 -0.0877418 -1.49142 0
M  V30 830 H 79.2503 2.3663 -3.48689 0
M  V30 831 H 77.9253 2.28395 -2.29385 0
M  V30 832 H 76.8323 0.452436 -3.71354 0
M  V30 833 H 78.1653 0.614805 -4.88345 0
M  V30 834 N 79.8174 1.5752 -0.0501392 0
M  V30 835 C 81.0644 1.9265 0.623874 0
M  V30 836 C 81.3924 0.928411 1.70912 0
M  V30 837 O 80.6474 -0.0594525 1.9561 0
M  V30 838 C 80.9464 3.34467 1.25963 0
M  V30 839 C 80.6124 4.49883 0.302689 0
M  V30 840 C 79.2744 4.81184 0.0393636 0
M  V30 841 C 81.6264 5.20002 -0.353205 0
M  V30 842 C 78.9544 5.79951 -0.887308 0
M  V30 843 C 81.3064 6.1976 -1.26806 0
M  V30 844 C 79.9704 6.49491 -1.54007 0
M  V30 845 H 79.2404 0.704957 0.228292 0
M  V30 846 H 81.8874 1.91146 -0.116398 0
M  V30 847 H 80.1924 3.32333 2.07514 0
M  V30 848 H 81.8894 3.58928 1.78806 0
M  V30 849 H 78.4794 4.25457 0.518109 0
M  V30 850 H 82.6634 4.96033 -0.162854 0
M  V30 851 H 77.9194 6.01322 -1.10553 0
M  V30 852 H 82.0934 6.73205 -1.78236 0
M  V30 853 H 79.7204 7.25837 -2.25976 0
M  V30 854 N 81.2955 -0.223234 1.56011 0
M  V30 855 C 82.5425 -0.947875 1.78946 0
M  V30 856 C 82.8705 -1.844 0.618608 0
M  V30 857 O 82.1255 -1.91629 -0.397093 0
M  V30 858 C 82.4245 -1.81948 3.0762 0
M  V30 859 C 82.0905 -1.07672 4.37856 0
M  V30 860 C 80.7525 -0.871544 4.73242 0
M  V30 861 C 83.1045 -0.552081 5.18268 0
M  V30 862 C 80.4325 -0.129791 5.86556 0
M  V30 863 C 82.7845 0.17632 6.32354 0
M  V30 864 C 81.4485 0.39277 6.66343 0
M  V30 865 H 80.7185 -0.346852 0.654809 0
M  V30 866 H 83.3655 -0.216171 1.90276 0
M  V30 867 H 81.6705 -2.61899 2.91404 0
M  V30 868 H 83.3675 -2.38227 3.22566 0
M  V30 869 H 79.9575 -1.24662 4.1007 0
M  V30 870 H 84.1415 -0.698076 4.91366 0
M  V30 871 H 79.3975 0.048153 6.11381 0
M  V30 872 H 83.5715 0.590367 6.93893 0
M  V30 873 H 81.1985 0.969466 7.53993 0
M  V30 874 N 82.7736 -1.49793 -0.48987 0
M  V30 875 C 84.0206 -1.59841 -1.24327 0
M  V30 876 C 84.3486 -0.290135 -1.92324 0
M  V30 877 O 83.6036 0.722749 -1.81865 0
M  V30 878 C 83.9026 -2.71488 -2.32441 0
M  V30 879 C 83.5686 -4.12614 -1.81826 0
M  V30 880 C 82.2306 -4.51017 -1.67742 0
M  V30 881 C 84.5826 -5.00892 -1.4407 0
M  V30 882 C 81.9106 -5.75459 -1.14297 0
M  V30 883 C 84.2626 -6.25863 -0.920742 0
M  V30 884 C 82.9266 -6.63086 -0.766383 0
M  V30 885 H 82.1966 -0.584899 -0.454944 0
M  V30 886 H 84.8436 -1.83663 -0.542215 0
M  V30 887 H 83.1486 -2.4168 -3.0838 0
M  V30 888 H 84.8456 -2.76469 -2.90458 0
M  V30 889 H 81.4356 -3.82307 -1.93751 0
M  V30 890 H 85.6196 -4.7187 -1.53794 0
M  V30 891 H 80.8756 -6.02989 -1.01068 0
M  V30 892 H 85.0496 -6.9364 -0.619448 0
M  V30 893 H 82.6766 -7.59393 -0.350083 0
M  V30 894 N 84.2517 0.741722 -1.39055 0
M  V30 895 C 85.5287 1.49252 -1.26425 0
M  V30 896 C 85.9087 2.10705 0.129144 0
M  V30 897 O 85.2567 1.98045 1.13976 0
M  V30 898 C 85.4667 2.54934 -2.38347 0
M  V30 899 C 86.8147 3.21506 -2.77343 0
M  V30 900 O 87.8387 2.65245 -2.37747 0
M  V30 901 O 86.6977 4.23294 -3.45665 0
M  V30 902 H 83.7917 0.662451 -0.495064 0
M  V30 903 H 86.3377 0.776121 -1.50912 0
M  V30 904 H 85.1097 2.07857 -3.31529 0
M  V30 905 H 84.7327 3.34141 -2.15489 0
M  V30 906 N 85.7298 1.2412 0.971189 0
M  V30 907 C 87.1458 1.00584 1.23916 0
M  V30 908 C 87.3458 -0.287481 1.99439 0
M  V30 909 O 86.4018 -1.00454 2.31658 0
M  V30 910 C 87.7148 2.21864 2.0297 0
M  V30 911 C 89.2628 2.26452 2.16076 0
M  V30 912 C 89.7378 3.47343 2.98524 0
M  V30 913 N 91.2288 3.47639 3.06107 0
M  V30 914 C 91.9638 4.37837 3.70251 0
M  V30 915 N 91.4598 5.38286 4.36142 0
M  V30 916 N 93.2528 4.25558 3.67228 0
M  V30 917 H 85.4038 2.07236 0.465499 0
M  V30 918 H 87.6668 0.909236 0.268315 0
M  V30 919 H 87.3728 3.15771 1.54861 0
M  V30 920 H 87.2468 2.23698 3.03709 0
M  V30 921 H 89.6338 1.33078 2.6339 0
M  V30 922 H 89.7148 2.28645 1.14696 0
M  V30 923 H 89.3588 4.41029 2.51905 0
M  V30 924 H 89.2888 3.42393 4.00093 0
M  V30 925 H 91.7798 2.74966 2.59233 0
M  V30 926 H 92.0928 6.03352 4.82894 0
M  V30 927 H 90.4378 5.42176 4.34822 0
M  V30 928 H 93.6288 3.46322 3.14927 0
M  V30 929 H 93.8018 4.96054 4.16935 0
M  V30 930 N 87.2079 -1.17134 1.05439 0
M  V30 931 C 88.1579 -2.1919 0.627675 0
M  V30 932 C 89.1419 -1.57328 -0.337147 0
M  V30 933 O 90.3339 -1.76329 -0.153976 0
M  V30 934 C 87.4629 -3.43299 0.00651435 0
M  V30 935 C 86.5489 -4.12255 0.995312 0
M  V30 936 N 86.9399 -4.56997 2.16765 0
M  V30 937 C 85.2379 -4.38316 0.824336 0
M  V30 938 C 85.9389 -5.10239 2.7934 0
M  V30 939 N 84.9149 -5.02595 2.07122 0
M  V30 940 H 88.7169 -2.5149 1.52086 0
M  V30 941 H 86.2309 -1.33491 0.924868 0
M  V30 942 H 88.2279 -4.15693 -0.316965 0
M  V30 943 H 86.8879 -3.1249 -0.882033 0
M  V30 944 H 87.8989 -4.51006 2.54587 0
M  V30 945 H 84.5759 -4.17498 -0.0129526 0
M  V30 946 H 85.9659 -5.54961 3.78772 0
M  V30 947 N 88.686 -0.835752 -1.33615 0
M  V30 948 C 90.097 -0.487099 -1.80234 0
M  V30 949 C 90.448 0.993627 -1.69179 0
M  V30 950 O 89.573 1.77403 -1.23924 0
M  V30 951 C 90.168 -0.877385 -3.27242 0
M  V30 952 C 88.727 -0.580915 -3.7189 0
M  V30 953 C 87.874 -1.0874 -2.5509 0
M  V30 954 H 90.825 -1.02474 -1.2118 0
M  V30 955 H 90.846 -0.186195 -3.80044 0
M  V30 956 H 90.358 -1.95512 -3.35256 0
M  V30 957 H 88.459 0.486881 -3.69405 0
M  V30 958 H 88.572 -1.13396 -4.65487 0
M  V30 959 H 86.936 -0.508392 -2.49575 0
M  V30 960 H 87.719 -2.17184 -2.65868 0
M  V30 961 N 90.1641 1.46063 -0.591896 0
M  V30 962 C 91.4121 2.01938 -0.0808391 0
M  V30 963 C 91.7331 1.46475 1.28725 0
M  V30 964 O 91.0031 0.652944 1.84698 0
M  V30 965 H 89.5831 0.746516 -0.0268938 0
M  V30 966 H 92.2451 1.79055 -0.769752 0
M  V30 967 H 91.3411 3.12094 -0.0187578 0
M  V30 968 N 91.6422 0.330177 1.54103 0
M  V30 969 C 92.8882 -0.270806 2.00984 0
M  V30 970 C 93.2212 -1.51265 1.21789 0
M  V30 971 O 92.4962 -1.92142 0.301927 0
M  V30 972 C 92.7792 -0.598339 3.55094 0
M  V30 973 C 92.6322 0.654674 4.4501 0
M  V30 974 C 93.9512 -1.41334 4.16789 0
M  V30 975 H 91.0702 -0.0969531 0.730595 0
M  V30 976 H 93.7122 0.448066 1.84641 0
M  V30 977 H 91.8622 -1.21078 3.69151 0
M  V30 978 H 93.5342 1.29285 4.42813 0
M  V30 979 H 91.7772 1.28224 4.14416 0
M  V30 980 H 92.4482 0.380944 5.50684 0
M  V30 981 H 94.9242 -0.895597 4.06347 0
M  V30 982 H 93.8002 -1.61127 5.24718 0
M  V30 983 H 94.0612 -2.41146 3.70541 0
M  V30 984 N 93.1203 -1.57491 0.0584922 0
M  V30 985 C 94.3673 -1.92978 -0.613648 0
M  V30 986 C 94.6953 -0.937461 -1.70417 0
M  V30 987 O 93.9503 0.049078 -1.95638 0
M  V30 988 C 94.2493 -3.3513 -1.24188 0
M  V30 989 C 93.9153 -4.50037 -0.278826 0
M  V30 990 C 92.5773 -4.81198 -0.0138447 0
M  V30 991 C 94.9293 -5.19807 0.380777 0
M  V30 992 C 92.2573 -5.79473 0.918052 0
M  V30 993 C 94.6093 -6.19079 1.30091 0
M  V30 994 C 93.2733 -6.48665 1.57449 0
M  V30 995 H 92.5433 -0.706157 -0.22455 0
M  V30 996 H 95.1903 -1.91082 0.126533 0
M  V30 997 H 93.4953 -3.33429 -2.05749 0
M  V30 998 H 95.1923 -3.59871 -1.769 0
M  V30 999 H 91.7823 -4.25726 -0.495539 0
M  V30 1000 H 95.9663 -4.95939 0.189158 0
M  V30 1001 H 91.2223 -6.00727 1.1374 0
M  V30 1002 H 95.3963 -6.7225 1.81804 0
M  V30 1003 H 93.0233 -7.24628 2.29822 0
M  V30 1004 N 94.5984 0.214957 -1.56127 0
M  V30 1005 C 95.5614 1.24997 -1.92116 0
M  V30 1006 C 96.5614 1.39467 -0.800344 0
M  V30 1007 O 97.7514 1.37619 -1.06802 0
M  V30 1008 C 94.8834 2.62271 -2.17777 0
M  V30 1009 H 96.0764 0.942875 -2.84693 0
M  V30 1010 H 93.6294 0.455654 -1.49511 0
M  V30 1011 H 94.3644 2.98068 -1.27773 0
M  V30 1012 H 94.1494 2.53143 -2.99434 0
M  V30 1013 H 95.6394 3.36946 -2.46693 0
M  V30 1014 N 96.0765 1.50051 0.48192 0
M  V30 1015 C 97.0265 1.64512 1.5786 0
M  V30 1016 C 98.0105 0.500073 1.52932 0
M  V30 1017 O 99.2025 0.753964 1.60139 0
M  V30 1018 C 96.3315 1.73263 2.9637 0
M  V30 1019 C 95.4175 2.93409 3.06222 0
M  V30 1020 N 95.8085 4.17236 2.85915 0
M  V30 1021 C 94.1065 2.91742 3.37346 0
M  V30 1022 C 94.8075 4.981 3.00451 0
M  V30 1023 N 93.7835 4.3184 3.30174 0
M  V30 1024 H 97.5855 2.57955 1.40842 0
M  V30 1025 H 95.0995 1.47086 0.688439 0
M  V30 1026 H 97.0965 1.81724 3.75209 0
M  V30 1027 H 95.7565 0.809711 3.14442 0
M  V30 1028 H 96.7675 4.46909 2.6171 0
M  V30 1029 H 93.4445 2.08907 3.61475 0
M  V30 1030 H 94.8345 6.06532 2.89082 0
M  V30 1031 N 97.5546 -0.734337 1.39446 0
M  V30 1032 C 98.8036 -1.48937 1.36017 0
M  V30 1033 C 99.1166 -1.95557 -0.0409005 0
M  V30 1034 O 100.323 -2.70779 -0.19778 0
M  V30 1035 C 98.7786 -2.69125 2.38955 0
M  V30 1036 C 98.3866 -2.29452 3.8478 0
M  V30 1037 C 100.131 -3.46944 2.44603 0
M  V30 1038 C 98.0376 -3.46366 4.79358 0
M  V30 1039 H 96.9676 -0.559296 0.505672 0
M  V30 1040 H 99.6186 -0.800983 1.65095 0
M  V30 1041 H 98.0006 -3.40041 2.02948 0
M  V30 1042 H 99.1746 -1.66077 4.29831 0
M  V30 1043 H 97.4896 -1.64723 3.82433 0
M  V30 1044 H 100.087 -4.33907 3.12456 0
M  V30 1045 H 100.43 -3.89454 1.47076 0
M  V30 1046 H 100.963 -2.83056 2.79507 0
M  V30 1047 H 97.7016 -3.08905 5.78151 0
M  V30 1048 H 97.2216 -4.08719 4.38986 0
M  V30 1049 H 98.9006 -4.12691 4.98292 0
M  V30 1050 N 99.0327 -1.24633 -0.964593 0
M  V30 1051 C 99.9627 -1.06611 -2.07741 0
M  V30 1052 C 100.944 0.0218666 -1.70086 0
M  V30 1053 O 102.129 -0.145793 -1.93652 0
M  V30 1054 C 99.2587 -0.673444 -3.40708 0
M  V30 1055 C 98.2127 -1.71054 -3.92332 0
M  V30 1056 C 97.5387 -1.17285 -5.21678 0
M  V30 1057 C 98.8387 -3.10718 -4.19824 0
M  V30 1058 H 100.533 -1.99693 -2.23076 0
M  V30 1059 H 98.0787 -0.96152 -1.07195 0
M  V30 1060 H 100.032 -0.534345 -4.17998 0
M  V30 1061 H 98.7557 0.293073 -3.25282 0
M  V30 1062 H 97.4147 -1.83791 -3.17201 0
M  V30 1063 H 97.0627 -0.196847 -5.02615 0
M  V30 1064 H 96.7627 -1.86592 -5.57187 0
M  V30 1065 H 98.2867 -1.04593 -6.01575 0
M  V30 1066 H 99.7007 -3.01192 -4.87808 0
M  V30 1067 H 98.0977 -3.77406 -4.66567 0
M  V30 1068 H 99.1677 -3.58524 -3.26479 0
M  V30 1069 N 100.511 1.16574 -1.06058 0
M  V30 1070 C 101.459 2.22941 -0.663343 0
M  V30 1071 C 102.453 1.66358 0.319593 0
M  V30 1072 O 103.659 1.7905 0.184713 0
M  V30 1073 H 100.034 0.725907 -0.196376 0
M  V30 1074 H 102.005 2.53736 -1.57037 0
M  V30 1075 C 100.754 3.47642 -0.0632808 0
M  V30 1076 H 100.077 3.91493 -0.810733 0
M  V30 1077 H 101.517 4.2363 0.177177 0
M  V30 1078 C 99.9758 3.1509 1.19248 0
M  V30 1079 O 100.506 3.30673 2.28075 0
M  V30 1080 N 98.7118 2.6924 1.09353 0
M  V30 1081 H 98.2588 2.5676 0.207912 0
M  V30 1082 H 98.2168 2.47833 1.93458 0
M  V30 1083 N 101.989 0.842826 1.3317 0
M  V30 1084 C 103.219 0.453397 2.01564 0
M  V30 1085 C 103.627 -0.951147 1.63554 0
M  V30 1086 O 102.97 -1.63021 0.846746 0
M  V30 1087 C 103.032 0.499013 3.5602 0
M  V30 1088 C 102.696 1.86037 4.1742 0
M  V30 1089 C 103.693 2.82416 4.36506 0
M  V30 1090 C 101.378 2.15428 4.53757 0
M  V30 1091 C 103.372 4.06346 4.91082 0
M  V30 1092 C 101.059 3.39615 5.0804 0
M  V30 1093 C 102.057 4.3489 5.26649 0
M  V30 1094 O 101.745 5.5688 5.79776 0
M  V30 1095 H 101.477 0.177871 0.652179 0
M  V30 1096 H 104.031 1.13808 1.70988 0
M  V30 1097 H 102.261 -0.242467 3.85939 0
M  V30 1098 H 103.95 0.126852 4.05702 0
M  V30 1099 H 104.716 2.6101 4.08777 0
M  V30 1100 H 100.595 1.42061 4.38565 0
M  V30 1101 H 104.139 4.80722 5.05522 0
M  V30 1102 H 100.036 3.60876 5.352 0
M  V30 1103 H 100.804 5.58674 5.98185 0
M  V30 1104 N 103.467 -1.45747 0.599634 0
M  V30 1105 C 104.697 -2.06369 0.0977132 0
M  V30 1106 C 105.105 -1.44624 -1.21985 0
M  V30 1107 O 104.448 -0.551831 -1.75216 0
M  V30 1108 C 104.51 -3.59284 -0.124673 0
M  V30 1109 C 104.174 -4.43318 1.10987 0
M  V30 1110 C 105.171 -4.78796 2.02609 0
M  V30 1111 C 102.856 -4.84194 1.33647 0
M  V30 1112 C 104.85 -5.53997 3.15224 0
M  V30 1113 C 102.537 -5.5915 2.46565 0
M  V30 1114 C 103.535 -5.93968 3.37182 0
M  V30 1115 O 103.223 -6.67405 4.48136 0
M  V30 1116 H 102.955 -0.673122 0.0623153 0
M  V30 1117 H 105.509 -1.88104 0.824981 0
M  V30 1118 H 103.739 -3.75919 -0.906745 0
M  V30 1119 H 105.428 -4.01775 -0.577201 0
M  V30 1120 H 106.194 -4.47781 1.86325 0
M  V30 1121 H 102.073 -4.56534 0.64016 0
M  V30 1122 H 105.617 -5.81091 3.85978 0
M  V30 1123 H 101.514 -5.89579 2.62805 0
M  V30 1124 H 102.282 -6.85847 4.46717 0
M  V30 1125 N 104.945 -0.338344 -1.53925 0
M  V30 1126 C 106.361 0.0137736 -1.59594 0
M  V30 1127 C 106.561 1.49186 -1.35447 0
M  V30 1128 O 105.617 2.24987 -1.14616 0
M  V30 1129 C 106.93 -0.41773 -2.97784 0
M  V30 1130 C 108.478 -0.369633 -3.1081 0
M  V30 1131 C 108.953 -0.776524 -4.51369 0
M  V30 1132 N 110.444 -0.730506 -4.57403 0
M  V30 1133 C 111.179 -1.01736 -5.64303 0
M  V30 1134 N 110.675 -1.3721 -6.79077 0
M  V30 1135 N 112.468 -0.941942 -5.54151 0
M  V30 1136 H 104.619 -1.3012 -1.67876 0
M  V30 1137 H 106.882 -0.530082 -0.78595 0
M  V30 1138 H 106.588 -1.44811 -3.20504 0
M  V30 1139 H 106.462 0.209729 -3.76616 0
M  V30 1140 H 108.849 0.651568 -2.87817 0
M  V30 1141 H 108.93 -1.03223 -2.34049 0
M  V30 1142 H 108.574 -1.79571 -4.75096 0
M  V30 1143 H 108.504 -0.0914649 -5.26521 0
M  V30 1144 H 110.995 -0.468783 -3.74981 0
M  V30 1145 H 111.308 -1.57597 -7.5656 0
M  V30 1146 H 109.653 -1.4105 -6.80536 0
M  V30 1147 H 112.844 -0.664184 -4.63364 0
M  V30 1148 H 113.017 -1.16884 -6.37371 0
M  V30 1149 N 106.423 1.57458 -0.0668435 0
M  V30 1150 C 107.651 1.97624 0.612565 0
M  V30 1151 C 108.066 0.94502 1.63447 0
M  V30 1152 O 107.423 -0.0689276 1.8237 0
M  V30 1153 C 107.474 3.37869 1.28555 0
M  V30 1154 O 107.195 4.3704 0.304557 0
M  V30 1155 C 108.696 3.92882 2.05325 0
M  V30 1156 H 105.916 0.650045 0.166381 0
M  V30 1157 H 108.46 2.04035 -0.137782 0
M  V30 1158 H 106.615 3.3256 1.98702 0
M  V30 1159 H 107.029 5.18565 0.786779 0
M  V30 1160 H 108.503 4.93247 2.47812 0
M  V30 1161 H 108.98 3.29156 2.9078 0
M  V30 1162 H 109.586 4.01577 1.40056 0
M  V30 1163 N 107.901 -0.206675 1.56239 0
M  V30 1164 C 109.149 -0.927007 1.79586 0
M  V30 1165 C 109.47 -1.8427 0.637929 0
M  V30 1166 O 108.74 -1.92849 -0.344398 0
M  V30 1167 H 107.32 -0.345292 0.662407 0
M  V30 1168 H 109.982 -0.21496 1.93711 0
M  V30 1169 H 109.078 -1.52501 2.72305 0
M  V30 1170 N 109.379 -1.50304 -0.473955 0
M  V30 1171 C 110.326 -1.68959 -1.57231 0
M  V30 1172 C 111.296 -0.530899 -1.57387 0
M  V30 1173 O 112.481 -0.761133 -1.74961 0
M  V30 1174 C 109.621 -1.7871 -2.95223 0
M  V30 1175 C 108.734 -3.06061 -3.04878 0
M  V30 1176 C 107.869 -3.06626 -4.33767 0
M  V30 1177 C 106.908 -4.28443 -4.37154 0
M  V30 1178 N 106.045 -4.26763 -5.5751 0
M  V30 1179 H 110.885 -2.6273 -1.40631 0
M  V30 1180 H 108.422 -1.30241 -0.683789 0
M  V30 1181 H 110.38 -1.82344 -3.75242 0
M  V30 1182 H 109.01 -0.883806 -3.10465 0
M  V30 1183 H 108.062 -3.11911 -2.17751 0
M  V30 1184 H 109.374 -3.96039 -3.0324 0
M  V30 1185 H 108.528 -3.08973 -5.22131 0
M  V30 1186 H 107.267 -2.14473 -4.3801 0
M  V30 1187 H 106.272 -4.2631 -3.47188 0
M  V30 1188 H 107.497 -5.2182 -4.34605 0
M  V30 1189 H 105.443 -3.37462 -5.62544 0
M  V30 1190 H 105.36 -5.10507 -5.57601 0
M  V30 1191 H 106.628 -4.33253 -6.48006 0
M  V30 1192 N 110.857 0.726932 -1.39834 0
M  V30 1193 C 111.787 1.85405 -1.41941 0
M  V30 1194 C 112.768 1.67751 -0.281728 0
M  V30 1195 O 113.953 1.8795 -0.488717 0
M  V30 1196 C 111.083 3.23243 -1.2701 0
M  V30 1197 C 110.037 3.55549 -2.38262 0
M  V30 1198 C 109.363 4.9241 -2.08415 0
M  V30 1199 C 110.663 3.577 -3.80589 0
M  V30 1200 H 112.357 1.83899 -2.36266 0
M  V30 1201 H 109.903 0.883349 -1.13723 0
M  V30 1202 H 111.856 4.01775 -1.27103 0
M  V30 1203 H 110.58 3.25296 -0.291564 0
M  V30 1204 H 109.239 2.79351 -2.37399 0
M  V30 1205 H 108.887 4.91052 -1.0898 0
M  V30 1206 H 108.587 5.14992 -2.82943 0
M  V30 1207 H 110.111 5.73289 -2.10171 0
M  V30 1208 H 111.525 4.26293 -3.83337 0
M  V30 1209 H 109.922 3.91804 -4.54543 0
M  V30 1210 H 110.992 2.57328 -4.10987 0
M  V30 1211 N 112.336 1.25143 0.95797 0
M  V30 1212 C 113.286 1.01924 2.0395 0
M  V30 1213 C 114.27 -0.0427175 1.60843 0
M  V30 1214 O 115.462 0.17221 1.7616 0
M  V30 1215 C 112.591 0.636373 3.3735 0
M  V30 1216 C 111.677 1.73492 3.8699 0
M  V30 1217 N 112.068 2.96945 4.0946 0
M  V30 1218 C 110.366 1.61467 4.15746 0
M  V30 1219 C 111.067 3.68228 4.50315 0
M  V30 1220 N 110.043 2.95833 4.56053 0
M  V30 1221 H 113.845 1.95653 2.19311 0
M  V30 1222 H 111.359 1.15413 1.14253 0
M  V30 1223 H 113.356 0.451233 4.14451 0
M  V30 1224 H 112.016 -0.293621 3.2337 0
M  V30 1225 H 113.027 3.33025 3.96629 0
M  V30 1226 H 109.704 0.753394 4.10646 0
M  V30 1227 H 111.094 4.74178 4.76031 0
M  V30 1228 N 113.814 -1.1601 1.06675 0
M  V30 1229 C 115.054 -1.88304 0.795037 0
M  V30 1230 C 115.418 -1.80062 -0.666466 0
M  V30 1231 O 116.619 -2.47319 -1.05293 0
M  V30 1232 C 114.89 -3.33664 1.28076 0
M  V30 1233 S 116.449 -4.23768 1.13868 0
M  V30 1234 H 113.267 -0.649928 0.288296 0
M  V30 1235 H 115.869 -1.4001 1.36445 0
M  V30 1236 H 114.573 -3.37203 2.33927 0
M  V30 1237 H 114.104 -3.87009 0.706253 0
M  V30 1238 H 116.119 -4.96148 0.0719668 0
M  V30 1239 N 115.292 -0.849877 -1.32721 0
M  V30 1240 C 116.703 -0.506188 -1.79707 0
M  V30 1241 C 117.054 0.975627 -1.70223 0
M  V30 1242 O 116.179 1.76078 -1.25799 0
M  V30 1243 C 116.774 -0.912044 -3.26293 0
M  V30 1244 C 115.333 -0.620326 -3.71253 0
M  V30 1245 C 114.48 -1.11439 -2.53922 0
M  V30 1246 H 117.431 -1.03754 -1.20087 0
M  V30 1247 H 117.452 -0.226493 -3.79825 0
M  V30 1248 H 116.964 -1.99057 -3.33164 0
M  V30 1249 H 115.065 0.447674 -3.69901 0
M  V30 1250 H 115.178 -1.18327 -4.64258 0
M  V30 1251 H 113.542 -0.534834 -2.49021 0
M  V30 1252 H 114.325 -2.19992 -2.6355 0
M  V30 1253 N 116.77 1.45427 -0.607355 0
M  V30 1254 C 117.733 2.28974 0.101693 0
M  V30 1255 C 118.733 1.39754 0.795329 0
M  V30 1256 O 119.923 1.61878 0.643527 0
M  V30 1257 C 117.055 3.20768 1.15414 0
M  V30 1258 H 118.248 2.93147 -0.632844 0
M  V30 1259 H 115.801 1.51945 -0.366391 0
M  V30 1260 H 116.536 2.61395 1.91945 0
M  V30 1261 H 116.321 3.86489 0.66098 0
M  V30 1262 H 117.811 3.83589 1.65073 0
M  V30 1263 N 118.248 0.346503 1.53744 0
M  V30 1264 C 119.525 -0.304532 1.93215 0
M  V30 1265 C 119.905 -1.67993 1.27834 0
M  V30 1266 O 119.253 -2.24411 0.430352 0
M  V30 1267 C 119.463 -0.373852 3.46992 0
M  V30 1268 C 120.811 -0.62329 4.2 0
M  V30 1269 O 121.835 -0.455847 3.53271 0
M  V30 1270 O 120.694 -0.947879 5.38217 0
M  V30 1271 H 117.788 -0.178318 0.807547 0
M  V30 1272 H 120.334 0.397895 1.64969 0
M  V30 1273 H 119.106 0.591224 3.86808 0
M  V30 1274 H 118.729 -1.12294 3.81413 0
M  V30 1275 N 119.726 -1.57421 0.075193 0
M  V30 1276 C 120.972 -1.93905 -0.594025 0
M  V30 1277 C 121.305 -0.955701 -1.69056 0
M  V30 1278 O 120.58 0.0145373 -1.94495 0
M  V30 1279 C 120.863 -3.40638 -1.1678 0
M  V30 1280 C 120.716 -4.49733 -0.0776792 0
M  V30 1281 C 122.035 -3.88259 -2.07228 0
M  V30 1282 H 119.154 -0.705105 -0.214466 0
M  V30 1283 H 121.796 -1.8947 0.141854 0
M  V30 1284 H 119.946 -3.44549 -1.79494 0
M  V30 1285 H 121.618 -4.57942 0.555573 0
M  V30 1286 H 119.861 -4.29751 0.591286 0
M  V30 1287 H 120.532 -5.49549 -0.519603 0
M  V30 1288 H 123.008 -3.86376 -1.54445 0
M  V30 1289 H 121.884 -4.91533 -2.44308 0
M  V30 1290 H 122.145 -3.26396 -2.98191 0
M  V30 1291 N 121.204 0.198386 -1.56346 0
M  V30 1292 C 122.444 0.92609 -1.82217 0
M  V30 1293 C 122.808 1.80584 -0.652195 0
M  V30 1294 O 124.009 2.56907 -0.790716 0
M  V30 1295 C 122.28 1.72354 -3.13096 0
M  V30 1296 S 123.839 2.50371 -3.6036 0
M  V30 1297 H 120.657 0.310677 -0.639532 0
M  V30 1298 H 123.259 0.189755 -1.94577 0
M  V30 1299 H 121.963 1.0678 -3.96265 0
M  V30 1300 H 121.494 2.50175 -3.03605 0
M  V30 1301 H 123.509 3.74488 -3.25535 0
M  V30 1302 N 122.682 1.50554 0.465978 0
M  V30 1303 C 123.93 1.61479 1.21528 0
M  V30 1304 C 124.251 0.319596 1.92363 0
M  V30 1305 O 123.521 -0.663194 1.84333 0
M  V30 1306 H 122.101 0.595055 0.451573 0
M  V30 1307 H 124.763 1.87355 0.53704 0
M  V30 1308 H 123.859 2.42846 1.96042 0
M  V30 1309 N 124.16 -0.719506 1.40217 0
M  V30 1310 C 125.571 -1.29848 1.34151 0
M  V30 1311 C 125.922 -1.96196 0.0131349 0
M  V30 1312 O 125.047 -1.973 -0.88892 0
M  V30 1313 C 125.642 -2.36118 2.42968 0
M  V30 1314 C 124.201 -2.8965 2.40374 0
M  V30 1315 C 123.348 -1.63393 2.24049 0
M  V30 1316 H 126.299 -0.51591 1.5008 0
M  V30 1317 H 126.32 -3.16871 2.10649 0
M  V30 1318 H 125.832 -1.878 3.39636 0
M  V30 1319 H 123.933 -3.42208 1.47392 0
M  V30 1320 H 124.046 -3.4171 3.35814 0
M  V30 1321 H 122.41 -1.88312 1.71495 0
M  V30 1322 H 123.193 -1.17104 3.2271 0
M  V30 1323 N 125.638 -1.25649 -0.95132 0
M  V30 1324 C 126.568 -1.08808 -2.06599 0
M  V30 1325 C 127.549 0.00382547 -1.701 0
M  V30 1326 O 128.734 -0.166325 -1.93486 0
M  V30 1327 C 125.864 -0.709542 -3.39975 0
M  V30 1328 C 124.818 -1.75206 -3.90496 0
M  V30 1329 C 124.144 -1.22811 -5.20405 0
M  V30 1330 C 125.444 -3.15153 -4.16504 0
M  V30 1331 H 127.138 -2.02048 -2.20946 0
M  V30 1332 H 124.684 -0.972835 -1.06169 0
M  V30 1333 H 126.637 -0.578649 -4.17408 0
M  V30 1334 H 125.361 0.258556 -3.25575 0
M  V30 1335 H 124.02 -1.87145 -3.15234 0
M  V30 1336 H 123.668 -0.250145 -5.02378 0
M  V30 1337 H 123.368 -1.92492 -5.55176 0
M  V30 1338 H 124.892 -1.10968 -6.00432 0
M  V30 1339 H 126.306 -3.06349 -4.84586 0
M  V30 1340 H 124.703 -3.82333 -4.62538 0
M  V30 1341 H 125.773 -3.61966 -3.22658 0
M  V30 1342 N 127.117 1.15442 -1.07289 0
M  V30 1343 C 128.347 1.89821 -0.815576 0
M  V30 1344 C 128.755 1.7823 0.634867 0
M  V30 1345 O 128.098 1.13152 1.44715 0
M  V30 1346 C 128.16 3.40817 -1.14385 0
M  V30 1347 C 127.824 3.76193 -2.59476 0
M  V30 1348 C 128.821 3.77269 -3.57721 0
M  V30 1349 C 126.506 4.0652 -2.95037 0
M  V30 1350 C 128.5 4.08176 -4.89562 0
M  V30 1351 C 126.187 4.37092 -4.27076 0
M  V30 1352 C 127.185 4.37902 -5.24148 0
M  V30 1353 O 126.873 4.67741 -6.53815 0
M  V30 1354 H 126.605 0.608465 -0.294528 0
M  V30 1355 H 129.159 1.472 -1.43252 0
M  V30 1356 H 127.389 3.83835 -0.469865 0
M  V30 1357 H 129.078 3.96485 -0.869179 0
M  V30 1358 H 129.844 3.5394 -3.3159 0
M  V30 1359 H 125.723 4.05049 -2.20128 0
M  V30 1360 H 129.267 4.08723 -5.65324 0
M  V30 1361 H 125.164 4.59889 -4.5296 0
M  V30 1362 H 125.932 4.85509 -6.58957 0
M  V30 1363 N 128.595 0.856903 1.32268 0
M  V30 1364 C 129.505 0.306131 2.32594 0
M  V30 1365 C 130.521 -0.577209 1.64147 0
M  V30 1366 O 131.697 -0.477043 1.95669 0
M  V30 1367 C 128.762 -0.494561 3.43154 0
M  V30 1368 C 127.823 0.415186 4.27288 0
M  V30 1369 C 127.056 -0.347387 5.32568 0
M  V30 1370 O 127.279 -1.57708 5.48165 0
M  V30 1371 O 126.213 0.287982 6.01211 0
M  V30 1372 H 130.039 1.13737 2.81598 0
M  V30 1373 H 127.624 0.619902 1.35932 0
M  V30 1374 H 129.506 -0.948944 4.10576 0
M  V30 1375 H 128.181 -1.30257 2.96336 0
M  V30 1376 H 127.088 0.917793 3.62667 0
M  V30 1377 H 128.421 1.18844 4.77637 0
M  V30 1378 N 130.073 -1.45103 0.615059 0
M  V30 1379 C 130.983 -2.34382 -0.101034 0
M  V30 1380 C 131.999 -1.51681 -0.852585 0
M  V30 1381 O 133.175 -1.8446 -0.808484 0
M  V30 1382 C 130.24 -3.29417 -1.08099 0
M  V30 1383 C 129.301 -4.28025 -0.330577 0
M  V30 1384 C 128.534 -5.1852 -1.26385 0
M  V30 1385 O 128.757 -5.12598 -2.50198 0
M  V30 1386 O 127.691 -5.97122 -0.756866 0
M  V30 1387 H 131.517 -2.97033 0.632855 0
M  V30 1388 H 129.102 -1.4461 0.375293 0
M  V30 1389 H 130.984 -3.87958 -1.6452 0
M  V30 1390 H 129.659 -2.69321 -1.79577 0
M  V30 1391 H 128.566 -3.73078 0.276283 0
M  V30 1392 H 129.899 -4.90997 0.343866 0
M  V30 1393 N 131.551 -0.354651 -1.53558 0
M  V30 1394 C 132.461 0.50515 -2.29097 0
M  V30 1395 C 133.477 1.10223 -1.34636 0
M  V30 1396 O 134.653 1.11553 -1.67684 0
M  V30 1397 C 131.718 1.63479 -3.05738 0
M  V30 1398 C 130.779 1.06636 -4.15845 0
M  V30 1399 C 130.012 2.14217 -4.88822 0
M  V30 1400 O 130.235 3.35137 -4.61562 0
M  V30 1401 O 129.169 1.77887 -5.75013 0
M  V30 1402 H 132.995 -0.109237 -3.03503 0
M  V30 1403 H 130.58 -0.119357 -1.48922 0
M  V30 1404 H 132.462 2.2918 -3.5363 0
M  V30 1405 H 131.137 2.23478 -2.34178 0
M  V30 1406 H 130.044 0.373565 -3.7223 0
M  V30 1407 H 131.377 0.511081 -4.89539 0
M  V30 1408 N 133.029 1.57378 -0.0835403 0
M  V30 1409 C 133.959 2.1641 0.87686 0
M  V30 1410 C 134.94 1.09429 1.30228 0
M  V30 1411 O 136.125 1.37516 1.37124 0
M  V30 1412 C 133.255 2.73517 2.14022 0
M  V30 1413 C 132.209 3.85769 1.85381 0
M  V30 1414 C 131.535 4.29529 3.18448 0
M  V30 1415 C 132.835 5.09486 1.14984 0
M  V30 1416 H 134.529 2.96914 0.385059 0
M  V30 1417 H 132.075 1.42823 0.18377 0
M  V30 1418 H 134.028 3.13463 2.81636 0
M  V30 1419 H 132.752 1.90252 2.65465 0
M  V30 1420 H 131.411 3.46345 1.20169 0
M  V30 1421 H 131.059 3.43169 3.67755 0
M  V30 1422 H 130.759 5.05204 3.00071 0
M  V30 1423 H 132.283 4.72099 3.8724 0
M  V30 1424 H 133.697 5.46674 1.72687 0
M  V30 1425 H 132.094 5.90515 1.06826 0
M  V30 1426 H 133.164 4.84724 0.130749 0
M  V30 1427 N 134.507 -0.190092 1.56449 0
M  V30 1428 C 135.47 -1.21925 1.9408 0
M  V30 1429 C 136.47 -1.38176 0.822431 0
M  V30 1430 O 137.66 -1.35903 1.08977 0
M  V30 1431 C 134.792 -2.58773 2.21922 0
M  V30 1432 H 135.985 -0.897464 2.86157 0
M  V30 1433 H 133.538 -0.43181 1.50217 0
M  V30 1434 H 134.273 -2.95998 1.32499 0
M  V30 1435 H 134.058 -2.48348 3.03424 0
M  V30 1436 H 135.548 -3.32978 2.52022 0
M  V30 1437 N 135.985 -1.50799 -0.457987 0
M  V30 1438 C 137.232 -1.62442 -1.20908 0
M  V30 1439 C 137.56 -0.330865 -1.91665 0
M  V30 1440 O 136.815 0.68401 -1.83357 0
M  V30 1441 C 137.114 -2.76358 -2.2663 0
M  V30 1442 C 136.78 -4.16378 -1.73033 0
M  V30 1443 C 135.442 -4.54473 -1.58138 0
M  V30 1444 C 137.794 -5.03836 -1.33413 0
M  V30 1445 C 135.122 -5.77754 -1.02065 0
M  V30 1446 C 137.474 -6.27676 -0.78778 0
M  V30 1447 C 136.138 -6.64562 -0.625561 0
M  V30 1448 H 135.408 -0.594417 -0.442435 0
M  V30 1449 H 138.055 -1.84772 -0.503136 0
M  V30 1450 H 136.36 -2.48167 -3.03184 0
M  V30 1451 H 138.057 -2.82568 -2.84528 0
M  V30 1452 H 134.647 -3.86331 -1.85598 0
M  V30 1453 H 138.831 -4.75026 -1.4375 0
M  V30 1454 H 134.087 -6.04997 -0.882547 0
M  V30 1455 H 138.261 -6.94797 -0.472177 0
M  V30 1456 H 135.888 -7.59965 -0.188926 0
M  V30 1457 N 137.463 0.71206 -1.40597 0
M  V30 1458 C 138.709 1.47292 -1.40274 0
M  V30 1459 C 139.064 1.92399 -0.00576812 0
M  V30 1460 O 138.357 1.65507 0.965297 0
M  V30 1461 C 138.551 2.71039 -2.32965 0
M  V30 1462 C 138.38 2.38035 -3.81536 0
M  V30 1463 C 137.15 2.29203 -4.50327 0
M  V30 1464 C 139.348 2.02076 -4.72938 0
M  V30 1465 N 137.33 1.88911 -5.84111 0
M  V30 1466 C 138.701 1.72412 -5.95545 0
M  V30 1467 C 140.756 1.88742 -4.60739 0
M  V30 1468 C 139.459 1.30756 -7.07316 0
M  V30 1469 C 141.485 1.4849 -5.72455 0
M  V30 1470 C 140.847 1.19726 -6.94151 0
M  V30 1471 H 136.946 0.536919 -0.568544 0
M  V30 1472 H 139.53 0.825424 -1.76337 0
M  V30 1473 H 137.701 3.33533 -1.99023 0
M  V30 1474 H 139.433 3.37404 -2.23474 0
M  V30 1475 H 136.188 2.47059 -4.04053 0
M  V30 1476 H 136.612 1.71293 -6.54972 0
M  V30 1477 H 141.254 2.0964 -3.67166 0
M  V30 1478 H 138.972 1.08601 -8.00769 0
M  V30 1479 H 142.558 1.38747 -5.65014 0
M  V30 1480 H 141.438 0.890482 -7.79128 0
M  V30 1481 N 138.941 1.26152 0.944643 0
M  V30 1482 C 140.189 1.11271 1.6871 0
M  V30 1483 C 140.51 -0.345166 1.91921 0
M  V30 1484 O 139.78 -1.24387 1.51343 0
M  V30 1485 H 138.36 0.408783 0.625224 0
M  V30 1486 H 141.022 1.58427 1.1352 0
M  V30 1487 H 140.118 1.62879 2.66227 0
M  V30 1488 N 140.419 -1.14872 1.07899 0
M  V30 1489 C 141.668 -1.85135 0.800499 0
M  V30 1490 C 141.981 -1.83547 -0.676014 0
M  V30 1491 O 143.187 -2.49548 -1.06948 0
M  V30 1492 C 141.643 -3.3231 1.38197 0
M  V30 1493 C 141.251 -3.42329 2.8899 0
M  V30 1494 C 142.995 -4.0772 1.18174 0
M  V30 1495 C 140.902 -4.83684 3.403 0
M  V30 1496 H 139.832 -0.693563 0.29578 0
M  V30 1497 H 142.483 -1.29532 1.29976 0
M  V30 1498 H 140.865 -3.87618 0.810431 0
M  V30 1499 H 142.039 -2.97097 3.52236 0
M  V30 1500 H 140.354 -2.80369 3.07867 0
M  V30 1501 H 142.951 -5.12049 1.5398 0
M  V30 1502 H 143.294 -4.16124 0.12117 0
M  V30 1503 H 143.827 -3.58696 1.71994 0
M  V30 1504 H 140.566 -4.80465 4.45907 0
M  V30 1505 H 140.086 -5.29474 2.81811 0
M  V30 1506 H 141.765 -5.52558 3.36584 0
M  V30 1507 N 141.898 -0.863906 -1.31812 0
M  V30 1508 C 143.175 -0.39275 -1.91616 0
M  V30 1509 C 143.555 1.12461 -1.7865 0
M  V30 1510 O 142.903 1.95045 -1.19037 0
M  V30 1511 C 143.113 -0.867385 -3.38049 0
M  V30 1512 C 144.461 -0.889966 -4.15168 0
M  V30 1513 O 145.485 -0.812635 -3.46806 0
M  V30 1514 O 144.344 -1.00079 -5.37258 0
M  V30 1515 H 141.438 -0.116358 -0.818773 0
M  V30 1516 H 143.984 -0.951418 -1.40521 0
M  V30 1517 H 142.756 -1.91081 -3.41473 0
M  V30 1518 H 142.379 -0.286687 -3.96565 0
M  V30 1519 N 143.376 1.44774 -0.622745 0
M  V30 1520 C 144.286 2.34433 0.0886031 0
M  V30 1521 C 145.302 1.52131 0.844529 0
M  V30 1522 O 146.478 1.84886 0.798691 0
M  V30 1523 C 143.543 3.29986 1.0635 0
M  V30 1524 C 142.604 4.28195 0.307873 0
M  V30 1525 C 141.837 5.19183 1.23633 0
M  V30 1526 O 142.06 5.13918 2.47476 0
M  V30 1527 O 140.994 5.97515 0.725189 0
M  V30 1528 H 144.82 2.96693 -0.648599 0
M  V30 1529 H 142.405 1.44408 -0.382957 0
M  V30 1530 H 144.287 3.88825 1.6246 0
M  V30 1531 H 142.962 2.70269 1.78146 0
M  V30 1532 H 141.869 3.72927 -0.296064 0
M  V30 1533 H 143.202 4.90808 -0.3699 0
M  V30 1534 N 144.854 0.36279 1.53368 0
M  V30 1535 C 146.082 -0.228613 2.05633 0
M  V30 1536 C 146.497 -1.42676 1.23649 0
M  V30 1537 O 145.854 -1.80394 0.27647 0
M  V30 1538 C 145.905 -0.624845 3.56059 0
M  V30 1539 O 145.626 0.525675 4.34935 0
M  V30 1540 C 147.127 -1.27493 4.24571 0
M  V30 1541 H 144.347 -0.0407183 0.669763 0
M  V30 1542 H 146.891 0.520352 1.97769 0
M  V30 1543 H 145.046 -1.32373 3.64083 0
M  V30 1544 H 145.46 0.205969 5.24095 0
M  V30 1545 H 146.934 -1.50277 5.31151 0
M  V30 1546 H 147.411 -2.23439 3.78116 0
M  V30 1547 H 148.017 -0.617558 4.20792 0
M  V30 1548 N 146.332 -1.57332 0.0918853 0
M  V30 1549 C 147.609 -1.85691 -0.614668 0
M  V30 1550 C 147.989 -0.988146 -1.86545 0
M  V30 1551 O 147.337 -0.0597055 -2.28422 0
M  V30 1552 C 147.547 -3.36294 -0.933126 0
M  V30 1553 C 148.895 -4.04275 -1.29796 0
M  V30 1554 O 149.919 -3.41157 -1.02424 0
M  V30 1555 O 148.778 -5.1564 -1.81047 0
M  V30 1556 H 145.872 -0.767802 -0.307261 0
M  V30 1557 H 148.418 -1.69244 0.12434 0
M  V30 1558 H 147.19 -3.91273 -0.0456404 0
M  V30 1559 H 146.813 -3.58076 -1.72822 0
M  V30 1560 N 147.81 0.181792 -1.56548 0
M  V30 1561 C 149.056 0.901431 -1.81665 0
M  V30 1562 C 149.389 1.82347 -0.668075 0
M  V30 1563 O 148.664 1.91669 0.330615 0
M  V30 1564 C 148.947 1.70618 -3.17115 0
M  V30 1565 C 148.8 0.807964 -4.42484 0
M  V30 1566 C 150.119 2.67605 -3.49393 0
M  V30 1567 H 147.238 0.32627 -0.660846 0
M  V30 1568 H 149.88 0.168134 -1.89255 0
M  V30 1569 H 148.03 2.33133 -3.10775 0
M  V30 1570 H 149.702 0.19649 -4.60881 0
M  V30 1571 H 147.945 0.115411 -4.33646 0
M  V30 1572 H 148.616 1.40632 -5.33785 0
M  V30 1573 H 151.092 2.15218 -3.56118 0
M  V30 1574 H 149.968 3.20985 -4.45264 0
M  V30 1575 H 150.229 3.47298 -2.73563 0
M  V30 1576 N 149.288 1.51039 0.449983 0
M  V30 1577 C 150.198 1.74261 1.57067 0
M  V30 1578 C 151.214 0.626363 1.62335 0
M  V30 1579 O 152.39 0.907162 1.79812 0
M  V30 1580 C 149.455 1.85114 2.93144 0
M  V30 1581 C 148.516 3.0893 2.98095 0
M  V30 1582 C 147.749 3.19256 4.27681 0
M  V30 1583 O 147.972 2.35835 5.19363 0
M  V30 1584 O 146.906 4.12144 4.38658 0
M  V30 1585 H 150.732 2.69303 1.40391 0
M  V30 1586 H 148.317 1.35389 0.631688 0
M  V30 1587 H 150.199 1.94311 3.73926 0
M  V30 1588 H 148.874 0.932588 3.09975 0
M  V30 1589 H 147.781 3.0522 2.16314 0
M  V30 1590 H 149.114 4.00433 2.86206 0
M  V30 1591 N 150.766 -0.704594 1.40972 0
M  V30 1592 C 152.177 -1.28418 1.3552 0
M  V30 1593 C 152.528 -1.96171 0.0339434 0
M  V30 1594 O 151.653 -1.98231 -0.867944 0
M  V30 1595 C 152.248 -2.33528 2.45459 0
M  V30 1596 C 150.807 -2.87085 2.43433 0
M  V30 1597 C 149.954 -1.61007 2.2577 0
M  V30 1598 H 152.905 -0.499963 1.50619 0
M  V30 1599 H 152.926 -3.14619 2.13998 0
M  V30 1600 H 152.438 -1.84187 3.41609 0
M  V30 1601 H 150.539 -3.40626 1.51013 0
M  V30 1602 H 150.652 -3.3813 3.39419 0
M  V30 1603 H 149.016 -1.86482 1.73483 0
M  V30 1604 H 149.799 -1.13675 3.23933 0
M  V30 1605 N 152.244 -1.26651 -0.937939 0
M  V30 1606 C 153.484 -1.13611 -1.69917 0
M  V30 1607 C 153.848 0.314687 -1.89404 0
M  V30 1608 O 155.049 0.567285 -2.62746 0
M  V30 1609 C 153.32 -1.88742 -3.03498 0
M  V30 1610 S 154.879 -1.91794 -3.94665 0
M  V30 1611 H 151.697 -0.405767 -0.583844 0
M  V30 1612 H 154.299 -1.60416 -1.11745 0
M  V30 1613 H 153.003 -2.9336 -2.86999 0
M  V30 1614 H 152.534 -1.42391 -3.66727 0
M  V30 1615 H 154.549 -1.00698 -4.85875 0
M  V30 1616 N 153.722 1.14298 -1.08507 0
M  V30 1617 C 154.962 1.87016 -0.824894 0
M  V30 1618 C 155.326 1.81099 0.637735 0
M  V30 1619 O 156.527 2.48963 1.01345 0
M  V30 1620 C 154.798 3.31584 -1.33368 0
M  V30 1621 S 156.357 4.21903 -1.20596 0
M  V30 1622 H 153.175 0.645259 -0.2986 0
M  V30 1623 H 155.777 1.37822 -1.38656 0
M  V30 1624 H 154.481 3.33439 -2.39262 0
M  V30 1625 H 154.012 3.85836 -0.767734 0
M  V30 1626 H 156.027 4.95971 -0.150891 0
M  V30 1627 N 155.201 0.870884 1.31352 0
M  V30 1628 C 156.447 0.492314 1.97352 0
M  V30 1629 C 156.802 -0.945174 1.67583 0
M  V30 1630 O 156.095 -1.65674 0.962423 0
M  V30 1631 C 156.289 0.687157 3.50732 0
M  V30 1632 C 156.118 2.14203 3.95407 0
M  V30 1633 C 154.888 2.78382 4.21701 0
M  V30 1634 C 157.086 3.1144 4.09279 0
M  V30 1635 N 155.068 4.14611 4.52737 0
M  V30 1636 C 156.439 4.32702 4.44037 0
M  V30 1637 C 158.494 3.07418 3.91661 0
M  V30 1638 C 157.197 5.50463 4.63015 0
M  V30 1639 C 159.223 4.24438 4.11833 0
M  V30 1640 C 158.585 5.44463 4.46923 0
M  V30 1641 H 154.684 0.229206 0.747655 0
M  V30 1642 H 157.268 1.12568 1.5886 0
M  V30 1643 H 155.439 0.083384 3.8831 0
M  V30 1644 H 157.171 0.276883 4.03752 0
M  V30 1645 H 153.926 2.29326 4.14375 0
M  V30 1646 H 154.35 4.84928 4.72413 0
M  V30 1647 H 158.992 2.15732 3.6362 0
M  V30 1648 H 156.71 6.42666 4.89904 0
M  V30 1649 H 160.296 4.2278 3.99685 0
M  V30 1650 H 159.176 6.33504 4.62214 0
M  V30 1651 N 156.679 -1.44442 0.630414 0
M  V30 1652 C 157.612 -2.27862 -0.124247 0
M  V30 1653 C 158.59 -1.38495 -0.851931 0
M  V30 1654 O 159.774 -1.67935 -0.856166 0
M  V30 1655 C 156.901 -3.17407 -1.18197 0
M  V30 1656 C 155.947 -4.22875 -0.554892 0
M  V30 1657 S 156.78 -5.31485 0.654489 0
M  V30 1658 C 157.936 -6.246 -0.40326 0
M  V30 1659 H 158.169 -2.91519 0.583435 0
M  V30 1660 H 155.702 -1.48618 0.418565 0
M  V30 1661 H 157.66 -3.69549 -1.78728 0
M  V30 1662 H 156.321 -2.52971 -1.86184 0
M  V30 1663 H 155.514 -4.85542 -1.35148 0
M  V30 1664 H 155.116 -3.73992 -0.0242105 0
M  V30 1665 H 157.408 -6.65375 -1.27602 0
M  V30 1666 H 158.351 -7.07851 0.187813 0
M  V30 1667 H 158.759 -5.59775 -0.728837 0
M  V30 1668 N 158.157 -0.370918 -1.53173 0
M  V30 1669 C 159.385 0.217704 -2.05751 0
M  V30 1670 C 159.8 1.42018 -1.24404 0
M  V30 1671 O 159.157 1.80245 -0.286033 0
M  V30 1672 C 159.208 0.605954 -3.56385 0
M  V30 1673 O 158.929 -0.548734 -4.3465 0
M  V30 1674 C 160.43 1.2524 -4.25241 0
M  V30 1675 H 157.65 0.0371659 -0.66997 0
M  V30 1676 H 160.194 -0.530832 -1.9749 0
M  V30 1677 H 158.349 1.3044 -3.6478 0
M  V30 1678 H 158.763 -0.23376 -5.23979 0
M  V30 1679 H 160.237 1.47458 -5.3194 0
M  V30 1680 H 160.714 2.2143 -3.79296 0
M  V30 1681 H 161.32 0.595233 -4.21114 0
M  V30 1682 N 159.635 1.57281 -0.100228 0
M  V30 1683 C 160.865 1.98591 0.569681 0
M  V30 1684 C 161.273 0.978315 1.61943 0
M  V30 1685 O 160.616 -0.0396108 1.83657 0
M  V30 1686 C 160.678 3.36282 1.271 0
M  V30 1687 C 160.342 4.55488 0.371409 0
M  V30 1688 C 161.339 5.18491 -0.382504 0
M  V30 1689 C 159.024 5.01474 0.287965 0
M  V30 1690 C 161.018 6.25852 -1.20779 0
M  V30 1691 C 158.705 6.08701 -0.540965 0
M  V30 1692 C 159.703 6.70755 -1.28749 0
M  V30 1693 O 159.391 7.75914 -2.10269 0
M  V30 1694 H 159.123 0.65752 0.156982 0
M  V30 1695 H 161.677 2.0463 -0.177734 0
M  V30 1696 H 159.907 3.26941 2.0651 0
M  V30 1697 H 161.596 3.62005 1.83595 0
M  V30 1698 H 162.362 4.83891 -0.3278 0
M  V30 1699 H 158.241 4.52932 0.858689 0
M  V30 1700 H 161.785 6.74218 -1.79096 0
M  V30 1701 H 157.682 6.42732 -0.597131 0
M  V30 1702 H 158.45 7.92925 -2.03007 0
M  V30 1703 N 161.113 -0.173488 1.56642 0
M  V30 1704 C 162.529 -0.525174 1.50712 0
M  V30 1705 C 162.729 -1.8476 0.804107 0
M  V30 1706 O 161.785 -2.49869 0.363574 0
M  V30 1707 C 163.098 -0.559937 2.95441 0
M  V30 1708 C 164.646 -0.647288 3.06234 0
M  V30 1709 C 165.121 -0.712963 4.52417 0
M  V30 1710 N 166.612 -0.775911 4.56655 0
M  V30 1711 C 167.347 -0.847264 5.67106 0
M  V30 1712 N 166.843 -0.879585 6.87194 0
M  V30 1713 N 168.636 -0.886117 5.55071 0
M  V30 1714 H 160.787 0.693681 2.00753 0
M  V30 1715 H 163.05 0.249841 0.914485 0
M  V30 1716 H 162.756 0.343049 3.50023 0
M  V30 1717 H 162.63 -1.40718 3.49969 0
M  V30 1718 H 165.017 -1.5407 2.51687 0
M  V30 1719 H 165.098 0.226586 2.54794 0
M  V30 1720 H 164.742 0.176183 5.07594 0
M  V30 1721 H 164.672 -1.60295 5.0161 0
M  V30 1722 H 167.163 -0.759304 3.70193 0
M  V30 1723 H 167.476 -0.935144 7.67121 0
M  V30 1724 H 165.821 -0.847898 6.89808 0
M  V30 1725 H 169.012 -0.857853 4.60172 0
M  V30 1726 H 169.185 -0.938263 6.41171 0
M  V30 1727 N 162.591 -1.51276 -0.441967 0
M  V30 1728 C 163.523 -1.68444 -1.55433 0
M  V30 1729 C 164.536 -0.565187 -1.52674 0
M  V30 1730 O 165.725 -0.839356 -1.57534 0
M  V30 1731 C 162.825 -1.67966 -2.94348 0
M  V30 1732 C 161.998 -2.964 -3.21661 0
M  V30 1733 C 161.057 -2.88171 -4.40277 0
M  V30 1734 O 160.083 -3.62119 -4.39157 0
M  V30 1735 N 161.285 -2.03706 -5.43584 0
M  V30 1736 H 164.05 -2.644 -1.41112 0
M  V30 1737 H 161.611 -1.49104 -0.630838 0
M  V30 1738 H 163.603 -1.60035 -3.71713 0
M  V30 1739 H 162.173 -0.796225 -3.0229 0
M  V30 1740 H 161.393 -3.18234 -2.32638 0
M  V30 1741 H 162.681 -3.81427 -3.36736 0
M  V30 1742 H 162.079 -1.42995 -5.47329 0
M  V30 1743 H 160.636 -2.01658 -6.1982 0
M  V30 1744 N 164.069 0.697108 -1.41344 0
M  V30 1745 C 165.019 1.80313 -1.39539 0
M  V30 1746 C 166.003 1.58618 -0.270001 0
M  V30 1747 O 167.195 1.69477 -0.510551 0
M  V30 1748 C 164.324 3.18606 -1.27848 0
M  V30 1749 C 163.41 3.46001 -2.45244 0
M  V30 1750 N 163.801 3.44103 -3.70711 0
M  V30 1751 C 162.099 3.76542 -2.39023 0
M  V30 1752 C 162.8 3.7036 -4.48563 0
M  V30 1753 N 161.776 3.90027 -3.78655 0
M  V30 1754 H 165.578 1.77207 -2.34468 0
M  V30 1755 H 163.092 0.897031 -1.35378 0
M  V30 1756 H 165.089 3.97833 -1.24637 0
M  V30 1757 H 163.749 3.22925 -0.339032 0
M  V30 1758 H 164.76 3.2452 -4.03618 0
M  V30 1759 H 161.437 3.88241 -1.53542 0
M  V30 1760 H 162.827 3.75042 -5.57488 0
M  V30 1761 N 165.547 1.27147 0.931209 0
M  V30 1762 C 166.963 1.04475 1.20653 0
M  V30 1763 C 167.163 -0.223885 2.00252 0
M  V30 1764 O 166.219 -0.930332 2.34736 0
M  V30 1765 C 167.532 2.28209 1.95809 0
M  V30 1766 C 169.08 2.33211 2.08762 0
M  V30 1767 C 169.555 3.56665 2.87323 0
M  V30 1768 N 171.046 3.57201 2.94892 0
M  V30 1769 C 171.781 4.49395 3.56134 0
M  V30 1770 N 171.277 5.51889 4.18796 0
M  V30 1771 N 173.07 4.37026 3.53504 0
M  V30 1772 H 165.221 2.08612 0.399333 0
M  V30 1773 H 167.484 0.917312 0.239253 0
M  V30 1774 H 167.19 3.20538 1.44736 0
M  V30 1775 H 167.064 2.33247 2.96438 0
M  V30 1776 H 169.451 1.41391 2.59023 0
M  V30 1777 H 169.532 2.32178 1.07364 0
M  V30 1778 H 169.176 4.4882 2.37746 0
M  V30 1779 H 169.106 3.54948 3.88998 0
M  V30 1780 H 171.597 2.83074 2.50354 0
M  V30 1781 H 171.91 6.18409 4.63454 0
M  V30 1782 H 170.255 5.55735 4.17353 0
M  V30 1783 H 173.446 3.56166 3.03749 0
M  V30 1784 H 173.619 5.09067 4.00942 0
M  V30 1785 N 167.025 -1.13721 1.09112 0
M  V30 1786 C 168.302 -1.81155 0.737706 0
M  V30 1787 C 168.682 -1.96253 -0.777683 0
M  V30 1788 O 168.03 -1.52807 -1.69889 0
M  V30 1789 C 168.24 -3.16392 1.47299 0
M  V30 1790 C 169.588 -3.91787 1.63671 0
M  V30 1791 O 170.612 -3.26005 1.43524 0
M  V30 1792 O 169.471 -5.0977 1.96969 0
M  V30 1793 H 166.565 -0.783518 0.26463 0
M  V30 1794 H 169.111 -1.20676 1.19312 0
M  V30 1795 H 167.883 -3.0061 2.50498 0
M  V30 1796 H 167.506 -3.8457 1.00953 0
M  V30 1797 N 168.503 -0.877838 -1.30888 0
M  V30 1798 C 169.466 -0.344265 -2.266 0
M  V30 1799 C 170.466 0.50922 -1.52524 0
M  V30 1800 O 171.656 0.317398 -1.71284 0
M  V30 1801 C 168.788 0.510198 -3.37061 0
M  V30 1802 H 169.981 -1.1893 -2.7531 0
M  V30 1803 H 167.534 -0.654088 -1.41956 0
M  V30 1804 H 168.269 1.37612 -2.93655 0
M  V30 1805 H 168.054 -0.101047 -3.9197 0
M  V30 1806 H 169.544 0.875537 -4.08319 0
M  V30 1807 N 169.982 1.44106 -0.638065 0
M  V30 1808 C 170.892 2.34513 0.0637334 0
M  V30 1809 C 171.908 1.53018 0.828346 0
M  V30 1810 O 173.084 1.85723 0.779036 0
M  V30 1811 C 170.149 3.31095 1.02844 0
M  V30 1812 C 169.21 4.28497 0.26244 0
M  V30 1813 C 168.443 5.20465 1.1812 0
M  V30 1814 O 168.666 5.16514 2.42011 0
M  V30 1815 O 167.6 5.98251 0.661774 0
M  V30 1816 H 171.426 2.95989 -0.68003 0
M  V30 1817 H 169.011 1.43994 -0.398252 0
M  V30 1818 H 170.893 3.90526 1.58327 0
M  V30 1819 H 169.568 2.72144 1.7527 0
M  V30 1820 H 168.475 3.72592 -0.335602 0
M  V30 1821 H 169.808 4.90388 -0.421936 0
M  V30 1822 N 171.46 0.379036 1.52974 0
M  V30 1823 C 172.37 -0.468639 2.29872 0
M  V30 1824 C 173.386 -1.08067 1.36373 0
M  V30 1825 O 174.562 -1.08871 1.69438 0
M  V30 1826 C 171.627 -1.58594 3.083 0
M  V30 1827 C 170.688 -1.00007 4.17489 0
M  V30 1828 C 169.921 -2.06413 4.92168 0
M  V30 1829 O 170.144 -3.27751 4.66835 0
M  V30 1830 O 169.078 -1.68717 5.7777 0
M  V30 1831 H 172.904 0.157508 3.03291 0
M  V30 1832 H 170.489 0.143035 1.48714 0
M  V30 1833 H 172.371 -2.23525 3.57232 0
M  V30 1834 H 171.046 -2.19724 2.37703 0
M  V30 1835 H 169.953 -0.314299 3.72777 0
M  V30 1836 H 171.286 -0.433135 4.90291 0
M  V30 1837 N 172.938 -1.57226 0.108567 0
M  V30 1838 C 173.901 -2.13602 -0.831082 0
M  V30 1839 C 174.901 -1.06841 -1.20173 0
M  V30 1840 O 176.091 -1.32666 -1.12895 0
M  V30 1841 C 173.223 -2.66769 -2.12243 0
M  V30 1842 H 174.416 -2.97951 -0.341317 0
M  V30 1843 H 171.969 -1.55667 -0.14057 0
M  V30 1844 H 172.704 -1.85977 -2.65675 0
M  V30 1845 H 172.489 -3.44839 -1.86625 0
M  V30 1846 H 173.979 -3.10332 -2.79435 0
M  V30 1847 N 174.416 0.165178 -1.56732 0
M  V30 1848 C 175.346 1.20651 -1.99914 0
M  V30 1849 C 176.327 1.45827 -0.875705 0
M  V30 1850 O 177.512 1.57057 -1.14223 0
M  V30 1851 C 174.642 2.54401 -2.36427 0
M  V30 1852 C 173.596 2.43782 -3.51787 0
M  V30 1853 C 172.922 3.82078 -3.7406 0
M  V30 1854 C 174.222 1.93732 -4.85041 0
M  V30 1855 H 175.916 0.847534 -2.87154 0
M  V30 1856 H 173.462 0.40625 -1.38151 0
M  V30 1857 H 175.415 3.27458 -2.65234 0
M  V30 1858 H 174.139 2.92098 -1.46103 0
M  V30 1859 H 172.798 1.73178 -3.23117 0
M  V30 1860 H 172.446 4.17179 -2.81017 0
M  V30 1861 H 172.146 3.7584 -4.51684 0
M  V30 1862 H 173.67 4.56712 -4.05274 0
M  V30 1863 H 175.084 2.56569 -5.12684 0
M  V30 1864 H 173.481 1.98428 -5.66345 0
M  V30 1865 H 174.551 0.891962 -4.76626 0
M  V30 1866 N 175.894 1.51508 0.433938 0
M  V30 1867 C 177.171 1.54888 1.19453 0
M  V30 1868 C 177.551 0.315154 2.08734 0
M  V30 1869 O 176.899 -0.699558 2.17528 0
M  V30 1870 C 177.109 2.86467 1.99342 0
M  V30 1871 C 178.457 3.38545 2.56267 0
M  V30 1872 O 179.481 2.88041 2.0955 0
M  V30 1873 O 178.34 4.26675 3.41483 0
M  V30 1874 H 175.434 0.622863 0.544032 0
M  V30 1875 H 177.98 1.63823 0.442732 0
M  V30 1876 H 176.752 3.67718 1.33788 0
M  V30 1877 H 176.375 2.8071 2.8158 0
M  V30 1878 N 177.372 -0.689602 1.41712 0
M  V30 1879 C 178.597 -1.48329 1.44959 0
M  V30 1880 C 179.022 -1.8801 0.0581283 0
M  V30 1881 O 178.38 -1.55026 -0.940035 0
M  V30 1882 C 178.428 -2.71835 2.36935 0
M  V30 1883 O 177.532 -3.69549 1.8305 0
M  V30 1884 H 176.873 -0.446199 0.491734 0
M  V30 1885 H 179.403 -0.847127 1.86239 0
M  V30 1886 H 179.413 -3.20076 2.53013 0
M  V30 1887 H 178.088 -2.42291 3.38035 0
M  V30 1888 H 176.665 -3.2851 1.76452 0
M  V30 1889 N 178.85 -1.27639 -0.924453 0
M  V30 1890 C 180.097 -1.14167 -1.67249 0
M  V30 1891 C 180.425 0.311863 -1.91984 0
M  V30 1892 O 179.68 1.24425 -1.51053 0
M  V30 1893 C 179.979 -1.87407 -3.04325 0
M  V30 1894 C 179.645 -3.37249 -2.99289 0
M  V30 1895 C 178.307 -3.7812 -2.97622 0
M  V30 1896 C 180.659 -4.32845 -2.90336 0
M  V30 1897 C 177.987 -5.12944 -2.8479 0
M  V30 1898 C 180.339 -5.6773 -2.79045 0
M  V30 1899 C 179.003 -6.07889 -2.7573 0
M  V30 1900 H 178.273 -0.417766 -0.612007 0
M  V30 1901 H 180.92 -1.58286 -1.07786 0
M  V30 1902 H 179.225 -1.35805 -3.67511 0
M  V30 1903 H 180.922 -1.74408 -3.61086 0
M  V30 1904 H 177.512 -3.04748 -3.01374 0
M  V30 1905 H 181.696 -4.02239 -2.90719 0
M  V30 1906 H 176.952 -5.432 -2.80612 0
M  V30 1907 H 181.126 -6.41472 -2.71083 0
M  V30 1908 H 178.753 -7.12314 -2.65544 0
M  V30 1909 N 180.328 1.1314 -1.09713 0
M  V30 1910 C 181.576 1.84119 -0.833338 0
M  V30 1911 C 181.897 1.84097 0.642904 0
M  V30 1912 O 181.167 1.29881 1.46655 0
M  V30 1913 H 179.747 0.681766 -0.305293 0
M  V30 1914 H 182.409 1.37038 -1.38588 0
M  V30 1915 H 181.505 2.88543 -1.18951 0
M  V30 1916 N 181.806 0.884767 1.30421 0
M  V30 1917 C 183.054 0.502112 1.95763 0
M  V30 1918 C 183.375 -0.951815 1.70192 0
M  V30 1919 O 182.645 -1.6692 1.0254 0
M  V30 1920 H 181.225 0.182694 0.724315 0
M  V30 1921 H 183.887 1.1278 1.58955 0
M  V30 1922 H 182.983 0.672188 3.04775 0
M  V30 1923 N 183.284 -1.43765 0.645699 0
M  V30 1924 C 184.247 -2.29163 -0.0409488 0
M  V30 1925 C 185.247 -1.41813 -0.757996 0
M  V30 1926 O 186.437 -1.63527 -0.600382 0
M  V30 1927 C 183.569 -3.23716 -1.06869 0
M  V30 1928 H 184.762 -2.91366 0.710345 0
M  V30 1929 H 182.315 -1.5092 0.406547 0
M  V30 1930 H 183.05 -2.66393 -1.84947 0
M  V30 1931 H 182.835 -3.88105 -0.558277 0
M  V30 1932 H 184.325 -3.87831 -1.54845 0
M  V30 1933 N 184.763 -0.387143 -1.52771 0
M  V30 1934 C 186.174 0.0873634 -1.86495 0
M  V30 1935 C 186.525 1.46336 -1.30691 0
M  V30 1936 O 185.65 2.068 -0.637409 0
M  V30 1937 C 186.245 0.165305 -3.38396 0
M  V30 1938 C 184.804 0.584101 -3.7184 0
M  V30 1939 C 183.951 -0.255279 -2.76122 0
M  V30 1940 H 186.902 -0.605104 -1.46711 0
M  V30 1941 H 186.923 0.984848 -3.67534 0
M  V30 1942 H 186.435 -0.836301 -3.78982 0
M  V30 1943 H 184.536 1.59315 -3.36823 0
M  V30 1944 H 184.649 0.343749 -4.77865 0
M  V30 1945 H 183.013 0.279126 -2.53166 0
M  V30 1946 H 183.796 -1.25482 -3.19545 0
M  V30 1947 N 186.241 1.57166 -0.116904 0
M  V30 1948 C 187.171 2.18222 0.830759 0
M  V30 1949 C 188.152 1.12167 1.27877 0
M  V30 1950 O 189.337 1.40394 1.34176 0
M  V30 1951 C 186.467 2.77996 2.08172 0
M  V30 1952 C 185.421 3.89614 1.77157 0
M  V30 1953 C 184.747 4.36187 3.09265 0
M  V30 1954 C 186.047 5.1181 1.04151 0
M  V30 1955 H 187.741 2.97664 0.321992 0
M  V30 1956 H 185.287 1.4318 0.153434 0
M  V30 1957 H 187.24 3.19366 2.74924 0
M  V30 1958 H 185.964 1.9584 2.6137 0
M  V30 1959 H 184.623 3.48816 1.12796 0
M  V30 1960 H 184.271 3.50893 3.60393 0
M  V30 1961 H 183.971 5.11455 2.89288 0
M  V30 1962 H 185.495 4.80207 3.77139 0
M  V30 1963 H 186.909 5.50214 1.61052 0
M  V30 1964 H 185.306 5.92648 0.942762 0
M  V30 1965 H 186.376 4.84892 0.0279022 0
M  V30 1966 N 187.719 -0.156864 1.56817 0
M  V30 1967 C 188.996 -0.899244 1.73704 0
M  V30 1968 C 189.376 -1.99771 0.682254 0
M  V30 1969 O 188.724 -2.26515 -0.300522 0
M  V30 1970 C 188.934 -1.45075 3.17418 0
M  V30 1971 C 190.282 -1.91802 3.7881 0
M  V30 1972 O 191.306 -1.54838 3.20786 0
M  V30 1973 O 190.165 -2.5994 4.80722 0
M  V30 1974 H 187.259 -0.424267 0.709878 0
M  V30 1975 H 189.805 -0.143561 1.69092 0
M  V30 1976 H 188.577 -0.660846 3.85679 0
M  V30 1977 H 188.2 -2.27021 3.26416 0
M  V30 1978 N 189.197 -1.51736 -0.425897 0
M  V30 1979 C 190.145 -1.74464 -1.53834 0
M  V30 1980 C 191.139 -0.611241 -1.57988 0
M  V30 1981 O 192.345 -0.792899 -1.61596 0
M  V30 1982 H 188.72 -0.551437 -0.511293 0
M  V30 1983 H 190.691 -2.67694 -1.31843 0
M  V30 1984 C 189.44 -1.8972 -2.91379 0
M  V30 1985 H 188.763 -2.76344 -2.88919 0
M  V30 1986 H 190.203 -2.09629 -3.68553 0
M  V30 1987 C 188.662 -0.65992 -3.30374 0
M  V30 1988 O 189.192 0.180083 -4.01296 0
M  V30 1989 N 187.398 -0.500677 -2.86254 0
M  V30 1990 H 186.945 -1.18532 -2.28709 0
M  V30 1991 H 186.903 0.325903 -3.12706 0
M  V30 1992 N 190.675 0.682077 -1.42076 0
M  V30 1993 C 191.9 1.47558 -1.45744 0
M  V30 1994 C 192.325 1.87977 -0.0680981 0
M  V30 1995 O 191.683 1.55522 0.9318 0
M  V30 1996 C 191.731 2.70575 -2.38373 0
M  V30 1997 O 190.835 3.68573 -1.85007 0
M  V30 1998 H 190.176 0.443585 -0.494093 0
M  V30 1999 H 192.706 0.837238 -1.86686 0
M  V30 2000 H 192.716 3.18729 -2.54707 0
M  V30 2001 H 191.391 2.40495 -3.39315 0
M  V30 2002 H 189.968 3.2757 -1.78192 0
M  V30 2003 N 192.153 1.28127 0.917671 0
M  V30 2004 C 193.116 1.11744 2.00115 0
M  V30 2005 C 194.116 0.0583052 1.60694 0
M  V30 2006 O 195.306 0.303755 1.71531 0
M  V30 2007 C 192.438 0.704862 3.33533 0
M  V30 2008 H 193.631 2.07966 2.16079 0
M  V30 2009 H 191.184 1.11058 1.09981 0
M  V30 2010 H 191.919 -0.258299 3.2327 0
M  V30 2011 H 191.704 1.4699 3.63505 0
M  V30 2012 H 193.194 0.612768 4.1308 0
M  V30 2013 N 193.631 -1.12557 1.10312 0
M  V30 2014 C 194.908 -1.80363 0.756878 0
M  V30 2015 C 195.288 -1.97067 -0.756824 0
M  V30 2016 O 194.636 -1.54601 -1.68259 0
M  V30 2017 C 194.846 -3.14812 1.50647 0
M  V30 2018 C 196.194 -3.90029 1.67817 0
M  V30 2019 O 197.218 -3.24464 1.46974 0
M  V30 2020 O 196.077 -5.07652 2.02365 0
M  V30 2021 H 193.171 -0.780667 0.272926 0
M  V30 2022 H 195.717 -1.19404 1.20586 0
M  V30 2023 H 194.489 -2.97936 2.53672 0
M  V30 2024 H 194.112 -3.83478 1.05026 0
M  V30 2025 N 195.109 -0.891671 -1.2995 0
M  V30 2026 C 196.386 -0.433307 -1.9074 0
M  V30 2027 C 196.766 1.08646 -1.80995 0
M  V30 2028 O 196.114 1.92476 -1.23147 0
M  V30 2029 C 196.324 -0.938895 -3.36134 0
M  V30 2030 C 197.672 -0.977829 -4.13187 0
M  V30 2031 O 198.696 -0.886015 -3.45005 0
M  V30 2032 O 197.555 -1.11453 -5.35015 0
M  V30 2033 H 194.649 -0.133699 -0.816121 0
M  V30 2034 H 197.195 -0.981011 -1.38471 0
M  V30 2035 H 195.967 -1.98281 -3.37343 0
M  V30 2036 H 195.59 -0.37074 -3.95868 0
M  V30 2037 N 196.587 1.43421 -0.653314 0
M  V30 2038 C 197.55 2.29182 0.0287951 0
M  V30 2039 C 198.55 1.42213 0.750465 0
M  V30 2040 O 199.74 1.63843 0.591701 0
M  V30 2041 C 196.872 3.24278 1.05151 0
M  V30 2042 H 198.065 2.90985 -0.725786 0
M  V30 2043 H 195.618 1.50702 -0.414545 0
M  V30 2044 H 196.353 2.6737 1.83532 0
M  V30 2045 H 196.138 3.88396 0.537687 0
M  V30 2046 H 197.628 3.88647 1.52786 0
M  V30 2047 N 198.065 0.39524 1.52563 0
M  V30 2048 C 199.342 -0.242908 1.94086 0
M  V30 2049 C 199.722 -1.63841 1.33114 0
M  V30 2050 O 199.07 -2.22928 0.501529 0
M  V30 2051 C 199.28 -0.26327 3.48006 0
M  V30 2052 C 200.628 -0.489354 4.21771 0
M  V30 2053 O 201.652 -0.343226 3.54543 0
M  V30 2054 O 200.511 -0.776169 5.4096 0
M  V30 2055 H 197.605 -0.152536 0.812811 0
M  V30 2056 H 200.151 0.450178 1.6362 0
M  V30 2057 H 198.923 0.713985 3.84731 0
M  V30 2058 H 198.546 -1.00103 3.84792 0
M  V30 2059 N 199.544 -1.57102 0.125237 0
M  V30 2060 C 200.507 -2.14471 -0.80838 0
M  V30 2061 C 201.507 -1.0811 -1.19033 0
M  V30 2062 O 202.697 -1.33856 -1.11482 0
M  V30 2063 C 199.829 -2.69005 -2.09402 0
M  V30 2064 H 201.022 -2.98297 -0.309696 0
M  V30 2065 H 198.575 -1.55807 -0.124051 0
M  V30 2066 H 199.31 -1.88785 -2.63687 0
M  V30 2067 H 199.095 -3.46799 -1.82957 0
M  V30 2068 H 200.585 -3.13278 -2.76128 0
M  V30 2069 N 201.022 0.148545 -1.56898 0
M  V30 2070 C 202.299 0.890019 -1.74178 0
M  V30 2071 C 202.679 1.99407 -0.692839 0
M  V30 2072 O 202.027 2.26671 0.288505 0
M  V30 2073 C 202.237 1.43389 -3.18183 0
M  V30 2074 C 203.585 1.89791 -3.79822 0
M  V30 2075 O 204.609 1.53134 -3.21603 0
M  V30 2076 O 203.468 2.57387 -4.82093 0
M  V30 2077 H 200.562 0.420496 -0.712118 0
M  V30 2078 H 203.108 0.134591 -1.69165 0
M  V30 2079 H 201.88 0.640383 -3.86024 0
M  V30 2080 H 201.503 2.25287 -3.27615 0
M  V30 2081 N 202.5 1.5196 0.417844 0
M  V30 2082 C 203.748 1.65263 1.16329 0
M  V30 2083 C 204.069 0.380634 1.91249 0
M  V30 2084 O 203.339 -0.604214 1.86349 0
M  V30 2085 H 201.919 0.60912 0.432414 0
M  V30 2086 H 204.581 1.88969 0.477162 0
M  V30 2087 H 203.677 2.4896 1.88217 0
M  V30 2088 N 203.978 -0.674533 1.42435 0
M  V30 2089 C 205.389 -1.25514 1.38214 0
M  V30 2090 C 205.74 -1.96055 0.0755464 0
M  V30 2091 O 204.865 -2.00028 -0.8257 0
M  V30 2092 C 205.46 -2.28269 2.50357 0
M  V30 2093 C 204.019 -2.81856 2.49467 0
M  V30 2094 C 203.166 -1.56182 2.29134 0
M  V30 2095 H 206.117 -0.467902 1.51646 0
M  V30 2096 H 206.138 -3.10009 2.20624 0
M  V30 2097 H 205.65 -1.769 3.45439 0
M  V30 2098 H 203.751 -3.37346 1.58204 0
M  V30 2099 H 203.864 -3.30854 3.46515 0
M  V30 2100 H 202.228 -1.82761 1.774 0
M  V30 2101 H 203.011 -1.06778 3.26272 0
M  V30 2102 N 205.456 -1.28612 -0.910864 0
M  V30 2103 C 206.704 -1.15705 -1.65701 0
M  V30 2104 C 207.025 0.29416 -1.92769 0
M  V30 2105 O 206.295 1.20331 -1.54588 0
M  V30 2106 H 204.875 -0.425216 -0.614167 0
M  V30 2107 H 207.537 -1.61381 -1.0928 0
M  V30 2108 H 206.633 -1.6988 -2.61815 0
M  V30 2109 N 206.934 1.1197 -1.10907 0
M  V30 2110 C 208.211 1.79959 -0.766432 0
M  V30 2111 C 208.591 1.97466 0.746363 0
M  V30 2112 O 207.939 1.55491 1.67436 0
M  V30 2113 C 208.149 3.14009 -1.52314 0
M  V30 2114 C 209.497 3.89134 -1.69883 0
M  V30 2115 O 210.521 3.2368 -1.48692 0
M  V30 2116 O 209.38 5.06572 -2.05054 0
M  V30 2117 H 206.474 0.779208 -0.277062 0
M  V30 2118 H 209.02 1.18762 -1.21217 0
M  V30 2119 H 207.792 2.96587 -2.55249 0
M  V30 2120 H 207.415 3.82915 -1.07059 0
M  V30 2121 N 208.412 0.89855 1.29475 0
M  V30 2122 C 209.637 0.538561 2.00285 0
M  V30 2123 C 210.062 -0.869135 1.66816 0
M  V30 2124 O 209.42 -1.57831 0.892145 0
M  V30 2125 C 209.468 0.736475 3.52999 0
M  V30 2126 O 208.572 -0.211537 4.11857 0
M  V30 2127 H 207.913 0.210563 0.62973 0
M  V30 2128 H 210.443 1.20982 1.64998 0
M  V30 2129 H 210.453 0.640685 4.02938 0
M  V30 2130 H 209.128 1.76276 3.76696 0
M  V30 2131 H 207.705 -0.0682991 3.72837 0
M  V30 2132 N 209.89 -1.43072 0.660911 0
M  V30 2133 C 211.138 -2.01323 0.177094 0
M  V30 2134 C 211.459 -1.5245 -1.2159 0
M  V30 2135 O 210.729 -0.740322 -1.81373 0
M  V30 2136 H 209.309 -0.744382 0.0624804 0
M  V30 2137 H 211.971 -1.75179 0.854305 0
M  V30 2138 H 211.067 -3.11649 0.167641 0
M  V30 2139 N 211.368 -0.403325 -1.52352 0
M  V30 2140 C 212.645 0.232611 -1.94212 0
M  V30 2141 C 213.025 1.63133 -1.33981 0
M  V30 2142 O 212.373 2.22659 -0.513344 0
M  V30 2143 C 212.583 0.244811 -3.4814 0
M  V30 2144 C 213.931 0.46698 -4.22024 0
M  V30 2145 O 214.955 0.324419 -3.5472 0
M  V30 2146 O 213.814 0.74747 -5.41364 0
M  V30 2147 H 210.908 0.148223 -0.813609 0
M  V30 2148 H 213.454 -0.458848 -1.63379 0
M  V30 2149 H 212.226 -0.734378 -3.84347 0
M  V30 2150 H 211.849 0.980611 -3.85318 0
M  V30 2151 N 212.846 1.57033 -0.133567 0
M  V30 2152 C 214.094 1.953 0.519848 0
M  V30 2153 C 214.415 1.01866 1.66278 0
M  V30 2154 O 213.685 0.0776513 1.95746 0
M  V30 2155 H 212.265 0.721091 0.195032 0
M  V30 2156 H 214.927 1.93809 -0.205921 0
M  V30 2157 H 214.023 2.98695 0.904854 0
M  V30 2158 N 214.325 -0.140222 1.56975 0
M  V30 2159 C 215.235 -1.19223 2.02047 0
M  V30 2160 C 216.251 -1.46612 0.937062 0
M  V30 2161 O 217.427 -1.58148 1.24704 0
M  V30 2162 C 214.492 -2.50414 2.39778 0
M  V30 2163 C 213.553 -2.30612 3.621 0
M  V30 2164 C 212.786 -3.55547 3.98023 0
M  V30 2165 O 213.009 -4.62004 3.34528 0
M  V30 2166 O 211.943 -3.47808 4.91237 0
M  V30 2167 H 215.769 -0.839559 2.91865 0
M  V30 2168 H 213.354 -0.349453 1.45256 0
M  V30 2169 H 215.236 -3.27747 2.64877 0
M  V30 2170 H 213.911 -2.85198 1.53114 0
M  V30 2171 H 212.818 -1.51207 3.4218 0
M  V30 2172 H 214.151 -2.00741 4.49404 0
M  V30 2173 N 215.803 -1.52179 -0.40978 0
M  V30 2174 C 217.08 -1.56769 -1.16974 0
M  V30 2175 C 217.46 -0.348322 -2.08206 0
M  V30 2176 O 216.808 0.664862 -2.18613 0
M  V30 2177 C 217.018 -2.89603 -1.9476 0
M  V30 2178 C 218.366 -3.42579 -2.50849 0
M  V30 2179 O 219.39 -2.91338 -2.04941 0
M  V30 2180 O 218.249 -4.32054 -3.34652 0
M  V30 2181 H 215.343 -0.631439 -0.534054 0
M  V30 2182 H 217.889 -1.64507 -0.416613 0
M  V30 2183 H 216.661 -3.698 -1.27921 0
M  V30 2184 H 216.284 -2.85155 -2.77079 0
M  V30 2185 N 217.281 0.66697 -1.42791 0
M  V30 2186 C 218.191 1.80962 -1.49299 0
M  V30 2187 C 219.207 1.69775 -0.381108 0
M  V30 2188 O 220.383 1.91188 -0.633188 0
M  V30 2189 C 217.448 3.17156 -1.40045 0
M  V30 2190 C 216.509 3.40242 -2.6179 0
M  V30 2191 C 215.742 4.69939 -2.52969 0
M  V30 2192 O 215.965 5.48372 -1.56985 0
M  V30 2193 O 214.899 4.94441 -3.43237 0
M  V30 2194 H 218.725 1.78427 -2.45759 0
M  V30 2195 H 216.31 0.823713 -1.24641 0
M  V30 2196 H 218.192 3.98413 -1.37276 0
M  V30 2197 H 216.867 3.20312 -0.467138 0
M  V30 2198 H 215.774 2.58802 -2.70134 0
M  V30 2199 H 217.107 3.41923 -3.54047 0
M  V30 2200 N 218.759 1.29093 0.90403 0
M  V30 2201 C 219.689 1.16401 2.02418 0
M  V30 2202 C 220.67 0.0593085 1.69997 0
M  V30 2203 O 221.855 0.238021 1.92736 0
M  V30 2204 C 218.985 0.835233 3.37107 0
M  V30 2205 C 217.939 1.89578 3.83724 0
M  V30 2206 C 217.265 1.42041 5.15489 0
M  V30 2207 C 218.565 3.30394 4.04521 0
M  V30 2208 H 220.259 2.10109 2.13295 0
M  V30 2209 H 217.805 1.01157 1.02486 0
M  V30 2210 H 219.758 0.733169 4.14973 0
M  V30 2211 H 218.482 -0.137543 3.2631 0
M  V30 2212 H 217.141 1.98715 3.08071 0
M  V30 2213 H 216.789 0.436426 5.01103 0
M  V30 2214 H 216.489 2.12964 5.4765 0
M  V30 2215 H 218.013 1.33176 5.959 0
M  V30 2216 H 219.427 3.24123 4.72882 0
M  V30 2217 H 217.824 3.99237 4.48029 0
M  V30 2218 H 218.894 3.73692 3.09002 0
M  V30 2219 N 220.237 -1.11381 1.11499 0
M  V30 2220 C 221.147 -2.21019 0.786628 0
M  V30 2221 C 222.163 -1.72597 -0.220507 0
M  V30 2222 O 223.339 -2.01321 -0.0565251 0
M  V30 2223 C 220.404 -3.459 0.235333 0
M  V30 2224 C 219.465 -4.09107 1.30115 0
M  V30 2225 C 218.698 -5.28027 0.776068 0
M  V30 2226 O 218.921 -5.6904 -0.393661 0
M  V30 2227 O 217.855 -5.81835 1.54114 0
M  V30 2228 H 221.681 -2.51521 1.70209 0
M  V30 2229 H 219.266 -1.19928 0.890928 0
M  V30 2230 H 221.148 -4.21346 -0.067715 0
M  V30 2231 H 219.823 -3.17049 -0.652828 0
M  V30 2232 H 218.73 -3.35391 1.65722 0
M  V30 2233 H 220.063 -4.42139 2.16273 0
M  V30 2234 N 221.715 -0.905404 -1.28997 0
M  V30 2235 C 222.648 -0.331959 -2.25773 0
M  V30 2236 C 223.626 0.559099 -1.52685 0
M  V30 2237 O 224.81 0.50463 -1.8162 0
M  V30 2238 C 221.937 0.526276 -3.34586 0
M  V30 2239 C 220.983 -0.298249 -4.25456 0
M  V30 2240 S 221.816 -1.69968 -5.0781 0
M  V30 2241 C 222.972 -0.848519 -6.20122 0
M  V30 2242 H 223.205 -1.15222 -2.74064 0
M  V30 2243 H 220.738 -0.706112 -1.37308 0
M  V30 2244 H 222.696 1.01565 -3.97737 0
M  V30 2245 H 221.357 1.32084 -2.84978 0
M  V30 2246 H 220.55 0.357607 -5.0273 0
M  V30 2247 H 220.152 -0.720968 -3.66985 0
M  V30 2248 H 222.444 -0.0744325 -6.77459 0
M  V30 2249 H 223.387 -1.59353 -6.89937 0
M  V30 2250 H 223.795 -0.400383 -5.63078 0
M  V30 2251 N 223.193 1.4272 -0.668489 0
M  V30 2252 C 224.421 2.05966 -0.196348 0
M  V30 2253 C 224.836 1.50191 1.14403 0
M  V30 2254 O 224.193 0.639208 1.7094 0
M  V30 2255 C 224.244 3.61314 -0.115815 0
M  V30 2256 O 223.965 4.1502 -1.40322 0
M  V30 2257 C 225.466 4.41663 0.380579 0
M  V30 2258 H 222.686 0.663954 -0.0969829 0
M  V30 2259 H 225.23 1.82966 -0.913446 0
M  V30 2260 H 223.385 3.83448 0.551931 0
M  V30 2261 H 223.799 5.08832 -1.27243 0
M  V30 2262 H 225.273 5.5065 0.385848 0
M  V30 2263 H 225.75 4.15792 1.41471 0
M  V30 2264 H 226.356 4.24534 -0.255209 0
M  V30 2265 N 224.671 0.411399 1.52136 0
M  V30 2266 C 225.618 -0.412975 2.27075 0
M  V30 2267 C 226.588 -1.03912 1.29582 0
M  V30 2268 O 227.773 -1.06296 1.58448 0
M  V30 2269 C 224.913 -1.52247 3.09701 0
M  V30 2270 C 224.026 -0.917021 4.22155 0
M  V30 2271 C 223.161 -1.9994 4.92135 0
M  V30 2272 C 222.2 -1.37101 5.96548 0
M  V30 2273 N 221.337 -2.39364 6.60038 0
M  V30 2274 H 226.177 0.232499 2.97092 0
M  V30 2275 H 223.714 0.126496 1.46555 0
M  V30 2276 H 225.672 -2.17674 3.55913 0
M  V30 2277 H 224.302 -2.13794 2.41851 0
M  V30 2278 H 223.354 -0.151742 3.80097 0
M  V30 2279 H 224.666 -0.418006 4.97045 0
M  V30 2280 H 223.82 -2.73088 5.41763 0
M  V30 2281 H 222.559 -2.53208 4.16818 0
M  V30 2282 H 221.564 -0.624873 5.46237 0
M  V30 2283 H 222.789 -0.845998 6.7381 0
M  V30 2284 H 220.735 -2.91759 5.87548 0
M  V30 2285 H 220.652 -1.9428 7.3061 0
M  V30 2286 H 221.92 -3.12074 7.14304 0
M  V30 2287 N 226.149 -1.5696 0.141893 0
M  V30 2288 C 227.565 -1.58151 -0.21456 0
M  V30 2289 C 227.765 -1.1559 -1.65049 0
M  V30 2290 O 226.821 -0.853832 -2.37626 0
M  V30 2291 C 228.134 -3.00674 0.0395576 0
M  V30 2292 C 229.682 -3.1299 -0.0245529 0
M  V30 2293 C 230.157 -4.57554 0.202167 0
M  V30 2294 N 231.648 -4.62961 0.148919 0
M  V30 2295 C 232.383 -5.7262 0.298924 0
M  V30 2296 N 231.879 -6.90947 0.50637 0
M  V30 2297 N 233.672 -5.61601 0.236886 0
M  V30 2298 H 225.823 -1.8292 1.07953 0
M  V30 2299 H 228.086 -0.846425 0.42693 0
M  V30 2300 H 227.792 -3.36183 1.03315 0
M  V30 2301 H 227.666 -3.70981 -0.682143 0
M  V30 2302 H 230.053 -2.77326 -1.00869 0
M  V30 2303 H 230.134 -2.4518 0.729396 0
M  V30 2304 H 229.778 -4.93922 1.18338 0
M  V30 2305 H 229.708 -5.23484 -0.572044 0
M  V30 2306 H 232.199 -3.77899 -0.00697015 0
M  V30 2307 H 232.512 -7.7038 0.611076 0
M  V30 2308 H 230.857 -6.92878 0.542628 0
M  V30 2309 H 234.048 -4.68039 0.0756209 0
M  V30 2310 H 234.221 -6.47015 0.357227 0
M  V30 2311 N 227.627 0.131896 -1.57047 0
M  V30 2312 C 228.557 1.16384 -2.02428 0
M  V30 2313 C 229.538 1.43936 -0.90644 0
M  V30 2314 O 230.723 1.54599 -1.17528 0
M  V30 2315 C 227.853 2.49328 -2.4177 0
M  V30 2316 C 226.807 2.36266 -3.56879 0
M  V30 2317 C 226.133 3.74057 -3.8208 0
M  V30 2318 C 227.433 1.834 -4.89042 0
M  V30 2319 H 229.127 0.786433 -2.88887 0
M  V30 2320 H 226.673 0.376855 -1.38981 0
M  V30 2321 H 228.626 3.21759 -2.7212 0
M  V30 2322 H 227.35 2.88934 -1.52266 0
M  V30 2323 H 226.009 1.66286 -3.26718 0
M  V30 2324 H 225.657 4.11125 -2.89803 0
M  V30 2325 H 225.357 3.66174 -4.59554 0
M  V30 2326 H 226.881 4.48012 -4.1487 0
M  V30 2327 H 228.295 2.45636 -5.18011 0
M  V30 2328 H 226.692 1.8637 -5.70426 0
M  V30 2329 H 227.762 0.790662 -4.7841 0
M  V30 2330 N 229.106 1.52395 0.401703 0
M  V30 2331 C 230.069 1.75636 1.47257 0
M  V30 2332 C 231.069 0.62628 1.48103 0
M  V30 2333 O 232.259 0.894227 1.49497 0
M  V30 2334 C 229.391 1.84553 2.86624 0
M  V30 2335 H 230.584 2.71241 1.27938 0
M  V30 2336 H 228.137 1.42923 0.632662 0
M  V30 2337 H 228.872 0.908882 3.11303 0
M  V30 2338 H 228.657 2.66715 2.87412 0
M  V30 2339 H 230.147 2.04251 3.64241 0
M  V30 2340 N 230.584 -0.659388 1.43143 0
M  V30 2341 C 231.514 -1.78422 1.50625 0
M  V30 2342 C 232.495 -1.66216 0.361443 0
M  V30 2343 O 233.68 -1.85404 0.577834 0
M  V30 2344 C 230.81 -3.16815 1.42287 0
M  V30 2345 C 229.764 -3.43777 2.54954 0
M  V30 2346 C 229.09 -4.81905 2.31671 0
M  V30 2347 C 230.39 -3.39134 3.97222 0
M  V30 2348 H 232.084 -1.72417 2.44771 0
M  V30 2349 H 229.63 -0.828084 1.17808 0
M  V30 2350 H 231.583 -3.95253 1.46127 0
M  V30 2351 H 230.307 -3.23534 0.446435 0
M  V30 2352 H 228.966 -2.67707 2.50457 0
M  V30 2353 H 228.614 -4.85294 1.32284 0
M  V30 2354 H 228.314 -5.00906 3.07192 0
M  V30 2355 H 229.838 -5.62609 2.37284 0
M  V30 2356 H 231.252 -4.07518 4.03239 0
M  V30 2357 H 229.649 -3.69671 4.72719 0
M  V30 2358 H 230.719 -2.37426 4.22797 0
M  V30 2359 N 232.062 -1.29571 -0.897171 0
M  V30 2360 C 233.287 -1.20705 -1.68656 0
M  V30 2361 C 233.712 0.228582 -1.86706 0
M  V30 2362 O 233.07 1.16494 -1.3892 0
M  V30 2363 C 233.118 -1.9282 -3.04717 0
M  V30 2364 O 232.222 -1.24697 -3.93096 0
M  V30 2365 H 231.563 -0.418126 -0.515816 0
M  V30 2366 H 234.093 -1.71183 -1.12061 0
M  V30 2367 H 234.103 -2.01372 -3.54843 0
M  V30 2368 H 232.778 -2.97239 -2.90899 0
M  V30 2369 H 231.355 -1.2442 -3.51531 0
M  V30 2370 N 233.54 1.10788 -1.12088 0
M  V30 2371 C 234.817 1.79136 -0.785476 0
M  V30 2372 C 235.197 1.98246 0.725377 0
M  V30 2373 O 234.545 1.57258 1.65778 0
M  V30 2374 C 234.755 3.12375 -1.55636 0
M  V30 2375 C 236.103 3.8731 -1.74001 0
M  V30 2376 O 237.127 3.22085 -1.52117 0
M  V30 2377 O 235.986 5.04369 -2.10415 0
M  V30 2378 H 233.08 0.776226 -0.285311 0
M  V30 2379 H 235.626 1.1747 -1.2247 0
M  V30 2380 H 234.398 2.93863 -2.5838 0
M  V30 2381 H 234.021 3.81758 -1.11114 0
M  V30 2382 N 235.018 0.912232 1.28515 0
M  V30 2383 C 236.243 0.559774 1.99703 0
M  V30 2384 C 236.668 -0.851393 1.67729 0
M  V30 2385 O 236.026 -1.56875 0.908834 0
M  V30 2386 C 236.074 0.773874 3.52198 0
M  V30 2387 O 235.178 -0.167842 4.12058 0
M  V30 2388 H 234.519 0.21723 0.627461 0
M  V30 2389 H 237.049 1.22725 1.63706 0
M  V30 2390 H 237.059 0.683386 4.02236 0
M  V30 2391 H 235.734 1.80261 3.74805 0
M  V30 2392 H 234.311 -0.0287509 3.72889 0
M  V30 2393 N 236.496 -1.42363 0.676048 0
M  V30 2394 C 237.907 -1.84649 0.275948 0
M  V30 2395 C 238.258 -1.56588 -1.18214 0
M  V30 2396 O 237.383 -1.02634 -1.90513 0
M  V30 2397 C 237.978 -3.35178 0.494053 0
M  V30 2398 C 236.537 -3.76109 0.148061 0
M  V30 2399 C 235.684 -2.65931 0.785891 0
M  V30 2400 H 238.635 -1.32192 0.878121 0
M  V30 2401 H 238.656 -3.79655 -0.25343 0
M  V30 2402 H 238.168 -3.55571 1.55535 0
M  V30 2403 H 236.269 -3.61323 -0.909742 0
M  V30 2404 H 236.382 -4.7546 0.589454 0
M  V30 2405 H 234.746 -2.53773 0.217113 0
M  V30 2406 H 235.529 -2.89146 1.85067 0
M  V30 2407 N 237.974 -0.419461 -1.51915 0
M  V30 2408 C 239.251 0.211999 -1.94448 0
M  V30 2409 C 239.631 1.61703 -1.35703 0
M  V30 2410 O 238.979 2.22102 -0.536931 0
M  V30 2411 C 239.189 0.207872 -3.4838 0
M  V30 2412 C 240.537 0.422192 -4.22496 0
M  V30 2413 O 241.561 0.286778 -3.55044 0
M  V30 2414 O 240.42 0.690009 -5.42126 0
M  V30 2415 H 237.514 0.139586 -0.815135 0
M  V30 2416 H 240.06 -0.476151 -1.62883 0
M  V30 2417 H 238.832 -0.775102 -3.83546 0
M  V30 2418 H 238.455 0.939688 -3.86336 0
M  V30 2419 N 239.452 1.56882 -0.150215 0
M  V30 2420 C 240.7 1.9584 0.499105 0
M  V30 2421 C 241.021 1.03623 1.65188 0
M  V30 2422 O 240.291 0.0984084 1.95653 0
M  V30 2423 H 238.871 0.723119 0.187373 0
M  V30 2424 H 241.533 1.9358 -0.226466 0
M  V30 2425 H 240.629 2.99638 0.873122 0
M  V30 2426 N 240.93 -0.123565 1.57115 0
M  V30 2427 C 242.346 -0.476961 1.52306 0
M  V30 2428 C 242.546 -1.82109 0.86248 0
M  V30 2429 O 241.602 -2.48586 0.442884 0
M  V30 2430 C 242.915 -0.465661 2.97073 0
M  V30 2431 C 244.463 -0.549534 3.08138 0
M  V30 2432 C 244.938 -0.568669 4.54456 0
M  V30 2433 N 246.429 -0.630237 4.58892 0
M  V30 2434 C 247.164 -0.666415 5.69514 0
M  V30 2435 N 246.66 -0.660514 6.89644 0
M  V30 2436 N 248.453 -0.709077 5.5761 0
M  V30 2437 H 240.604 0.757198 1.98445 0
M  V30 2438 H 242.867 0.278808 0.906074 0
M  V30 2439 H 242.573 0.454232 3.48754 0
M  V30 2440 H 242.447 -1.29513 3.54269 0
M  V30 2441 H 244.834 -1.45985 2.56461 0
M  V30 2442 H 244.915 0.307532 2.53945 0
M  V30 2443 H 244.559 0.337581 5.06777 0
M  V30 2444 H 244.489 -1.44256 5.06456 0
M  V30 2445 H 246.98 -0.641146 3.72421 0
M  V30 2446 H 247.293 -0.690616 7.69708 0
M  V30 2447 H 245.638 -0.628012 6.92157 0
M  V30 2448 H 248.829 -0.711019 4.62668 0
M  V30 2449 H 249.002 -0.733804 6.43832 0
M  V30 2450 N 242.408 -1.52605 -0.393616 0
M  V30 2451 C 243.819 -1.59417 -0.971761 0
M  V30 2452 C 244.17 -0.444173 -1.91106 0
M  V30 2453 O 243.295 0.433382 -2.12016 0
M  V30 2454 C 243.89 -2.88936 -1.76921 0
M  V30 2455 C 242.449 -2.98175 -2.29714 0
M  V30 2456 C 241.596 -2.54491 -1.10135 0
M  V30 2457 H 244.547 -1.57751 -0.173317 0
M  V30 2458 H 244.568 -2.75163 -2.62804 0
M  V30 2459 H 244.08 -3.72616 -1.08532 0
M  V30 2460 H 242.181 -2.19024 -3.01429 0
M  V30 2461 H 242.294 -4.02726 -2.59517 0
M  V30 2462 H 240.658 -2.08702 -1.45999 0
M  V30 2463 H 241.441 -3.4056 -0.432874 0
M  V30 2464 N 243.887 0.651787 -1.4349 0
M  V30 2465 C 245.135 1.40888 -1.44897 0
M  V30 2466 C 245.456 1.94856 -0.0749086 0
M  V30 2467 O 244.726 1.74518 0.889956 0
M  V30 2468 H 243.306 0.522887 -0.533478 0
M  V30 2469 H 245.968 0.768609 -1.79104 0
M  V30 2470 H 245.064 2.25052 -2.16236 0
M  V30 2471 N 245.365 1.30045 0.890287 0
M  V30 2472 C 246.613 1.18327 1.63839 0
M  V30 2473 C 246.934 -0.263455 1.93212 0
M  V30 2474 O 246.204 -1.17856 1.56482 0
M  V30 2475 H 244.784 0.434933 0.607324 0
M  V30 2476 H 247.446 1.631 1.06698 0
M  V30 2477 H 246.542 1.74024 2.59079 0
M  V30 2478 N 246.843 -1.10192 1.12674 0
M  V30 2479 C 248.09 -1.82205 0.883606 0
M  V30 2480 C 248.418 -1.8532 -0.590492 0
M  V30 2481 O 247.673 -1.31137 -1.45264 0
M  V30 2482 C 247.972 -3.28552 1.4067 0
M  V30 2483 C 247.638 -3.45582 2.89627 0
M  V30 2484 C 246.3 -3.49937 3.30299 0
M  V30 2485 C 248.652 -3.50768 3.85501 0
M  V30 2486 C 245.98 -3.57049 4.65546 0
M  V30 2487 C 248.332 -3.59414 5.20581 0
M  V30 2488 C 246.996 -3.62034 5.60792 0
M  V30 2489 H 246.266 -0.666735 0.323334 0
M  V30 2490 H 248.913 -1.29868 1.40736 0
M  V30 2491 H 247.218 -3.83473 0.80347 0
M  V30 2492 H 248.915 -3.82788 1.19475 0
M  V30 2493 H 245.505 -3.42871 2.57172 0
M  V30 2494 H 249.689 -3.46651 3.55171 0
M  V30 2495 H 244.945 -3.57361 4.96088 0
M  V30 2496 H 249.119 -3.62371 5.94693 0
M  V30 2497 H 246.746 -3.67298 6.6558 0
M  V30 2498 N 248.321 -0.919034 -1.28029 0
M  V30 2499 C 249.567 -0.565221 -1.95389 0
M  V30 2500 C 249.922 0.882325 -1.70976 0
M  V30 2501 O 249.215 1.61988 -1.02325 0
M  V30 2502 C 249.409 -0.816855 -3.4794 0
M  V30 2503 C 249.238 -2.28731 -3.87185 0
M  V30 2504 C 248.008 -2.93841 -4.11079 0
M  V30 2505 C 250.206 -3.26415 -3.97439 0
M  V30 2506 N 248.188 -4.31129 -4.37037 0
M  V30 2507 C 249.559 -4.48884 -4.27672 0
M  V30 2508 C 251.614 -3.21742 -3.79982 0
M  V30 2509 C 250.317 -5.67268 -4.42266 0
M  V30 2510 C 252.343 -4.39431 -3.95796 0
M  V30 2511 C 251.705 -5.60675 -4.26407 0
M  V30 2512 H 247.804 -0.256797 -0.738633 0
M  V30 2513 H 250.388 -1.18386 -1.54573 0
M  V30 2514 H 248.559 -0.227445 -3.87733 0
M  V30 2515 H 250.291 -0.426542 -4.02446 0
M  V30 2516 H 247.046 -2.44547 -4.05578 0
M  V30 2517 H 247.47 -5.02127 -4.5409 0
M  V30 2518 H 252.112 -2.29079 -3.55363 0
M  V30 2519 H 249.83 -6.60406 -4.65714 0
M  V30 2520 H 253.416 -4.37323 -3.83719 0
M  V30 2521 H 252.296 -6.50223 -4.38383 0
M  V30 2522 N 249.799 1.42003 -0.683588 0
M  V30 2523 C 251.215 1.55625 -0.353976 0
M  V30 2524 C 251.415 1.66151 1.14 0
M  V30 2525 O 250.471 1.63329 1.92561 0
M  V30 2526 C 251.784 2.80171 -1.092 0
M  V30 2527 C 253.332 2.93954 -1.07518 0
M  V30 2528 C 253.807 4.21372 -1.79471 0
M  V30 2529 N 255.298 4.28303 -1.76381 0
M  V30 2530 C 256.033 5.25729 -2.28904 0
M  V30 2531 N 255.529 6.29254 -2.89846 0
M  V30 2532 N 257.322 5.17586 -2.19228 0
M  V30 2533 H 249.473 1.33415 -1.6527 0
M  V30 2534 H 251.736 0.64282 -0.696769 0
M  V30 2535 H 251.442 2.78561 -2.14701 0
M  V30 2536 H 251.316 3.7133 -0.662862 0
M  V30 2537 H 253.703 2.95086 -0.028475 0
M  V30 2538 H 253.784 2.04002 -1.54328 0
M  V30 2539 H 253.428 4.21001 -2.84114 0
M  V30 2540 H 253.358 5.10275 -1.30104 0
M  V30 2541 H 255.849 3.54119 -1.31939 0
M  V30 2542 H 256.162 6.99964 -3.27522 0
M  V30 2543 H 254.507 6.29791 -2.93919 0
M  V30 2544 H 257.698 4.35631 -1.71299 0
M  V30 2545 H 257.871 5.93348 -2.60466 0
M  V30 2546 N 251.277 0.427512 1.51691 0
M  V30 2547 C 252.693 0.0792977 1.59403 0
M  V30 2548 C 252.893 -1.41035 1.43914 0
M  V30 2549 O 251.949 -2.17922 1.27539 0
M  V30 2550 C 253.262 0.590636 2.94842 0
M  V30 2551 C 254.81 0.550215 3.08126 0
M  V30 2552 C 255.285 1.03836 4.46074 0
M  V30 2553 N 256.776 0.995943 4.52366 0
M  V30 2554 C 257.511 1.34463 5.57411 0
M  V30 2555 N 257.007 1.76569 6.69922 0
M  V30 2556 N 258.8 1.26343 5.47717 0
M  V30 2557 H 250.951 1.39687 1.60004 0
M  V30 2558 H 253.214 0.575003 0.753708 0
M  V30 2559 H 252.92 1.63251 3.11516 0
M  V30 2560 H 252.794 0.0102061 3.77199 0
M  V30 2561 H 255.181 -0.482654 2.91126 0
M  V30 2562 H 255.262 1.16693 2.27632 0
M  V30 2563 H 254.906 2.06965 4.63819 0
M  V30 2564 H 254.836 0.398286 5.25092 0
M  V30 2565 H 257.327 0.68661 3.7161 0
M  V30 2566 H 257.64 2.01438 7.46085 0
M  V30 2567 H 255.985 1.80488 6.71155 0
M  V30 2568 H 259.176 0.933209 4.58703 0
M  V30 2569 H 259.349 1.53846 6.29472 0
M  V30 2570 N 252.755 -1.56801 0.158532 0
M  V30 2571 C 254.001 -1.97559 -0.483957 0
M  V30 2572 C 254.356 -1.04239 -1.61716 0
M  V30 2573 O 253.649 -0.079603 -1.91435 0
M  V30 2574 C 253.843 -3.4235 -1.02623 0
M  V30 2575 C 253.672 -4.49669 0.0528929 0
M  V30 2576 C 252.442 -5.02838 0.498234 0
M  V30 2577 C 254.64 -5.0725 0.848616 0
M  V30 2578 N 252.622 -5.93775 1.559 0
M  V30 2579 C 253.993 -5.94506 1.7596 0
M  V30 2580 C 256.048 -4.89788 0.895121 0
M  V30 2581 C 254.751 -6.66169 2.71314 0
M  V30 2582 C 256.777 -5.62161 1.83654 0
M  V30 2583 C 256.139 -6.49134 2.73503 0
M  V30 2584 H 252.238 -0.768332 -0.145566 0
M  V30 2585 H 254.822 -1.93012 0.255799 0
M  V30 2586 H 252.993 -3.47467 -1.73555 0
M  V30 2587 H 254.725 -3.70145 -1.63629 0
M  V30 2588 H 251.48 -4.73498 0.0983222 0
M  V30 2589 H 251.904 -6.43948 2.08949 0
M  V30 2590 H 256.546 -4.22255 0.21453 0
M  V30 2591 H 254.264 -7.32923 3.40367 0
M  V30 2592 H 257.85 -5.5064 1.87847 0
M  V30 2593 H 256.73 -7.04153 3.45163 0
M  V30 2594 N 254.233 0.115231 -1.57178 0
M  V30 2595 C 255.165 1.16694 -1.97269 0
M  V30 2596 C 256.178 1.37445 -0.872502 0
M  V30 2597 O 257.367 1.36454 -1.15077 0
M  V30 2598 C 254.467 2.52627 -2.25905 0
M  V30 2599 C 253.64 2.52427 -3.57211 0
M  V30 2600 C 252.699 3.70134 -3.74016 0
M  V30 2601 O 251.725 3.53546 -4.46087 0
M  V30 2602 N 252.927 4.88844 -3.13068 0
M  V30 2603 H 255.692 0.82588 -2.88096 0
M  V30 2604 H 253.253 0.304461 -1.59011 0
M  V30 2605 H 255.245 3.29937 -2.34359 0
M  V30 2606 H 253.815 2.789 -1.41186 0
M  V30 2607 H 253.035 1.60805 -3.5991 0
M  V30 2608 H 254.323 2.49353 -4.43509 0
M  V30 2609 H 253.721 5.05225 -2.54489 0
M  V30 2610 H 252.278 5.63817 -3.27037 0
M  V30 2611 N 255.711 1.52812 0.385517 0
M  V30 2612 C 257.122 1.5993 0.963293 0
M  V30 2613 C 257.473 0.454302 1.90868 0
M  V30 2614 O 256.598 -0.422132 2.12243 0
M  V30 2615 C 257.193 2.89871 1.75387 0
M  V30 2616 C 255.752 2.99389 2.28129 0
M  V30 2617 C 254.899 2.55071 1.08783 0
M  V30 2618 H 257.85 1.5784 0.164948 0
M  V30 2619 H 257.871 2.76553 2.61341 0
M  V30 2620 H 257.383 3.73186 1.06554 0
M  V30 2621 H 255.484 2.20619 3.00263 0
M  V30 2622 H 255.597 4.04096 2.57377 0
M  V30 2623 H 253.961 2.09473 1.4489 0
M  V30 2624 H 254.744 3.40785 0.414807 0
M  V30 2625 N 257.189 -0.644168 1.43834 0
M  V30 2626 C 258.605 -0.960875 1.27434 0
M  V30 2627 C 258.805 -2.00499 0.200618 0
M  V30 2628 O 257.861 -2.49018 -0.417906 0
M  V30 2629 C 259.174 -1.43653 2.64167 0
M  V30 2630 C 260.722 -1.55271 2.71772 0
M  V30 2631 C 261.197 -2.06224 4.08944 0
M  V30 2632 N 262.688 -2.13513 4.11055 0
M  V30 2633 C 263.423 -2.54081 5.14033 0
M  V30 2634 N 262.919 -2.9388 6.27381 0
M  V30 2635 N 264.712 -2.54101 5.01387 0
M  V30 2636 H 256.863 0.0465779 2.12349 0
M  V30 2637 H 259.126 -0.0417638 0.94708 0
M  V30 2638 H 258.832 -0.743706 3.43747 0
M  V30 2639 H 258.706 -2.40993 2.90176 0
M  V30 2640 H 261.093 -2.23653 1.92519 0
M  V30 2641 H 261.174 -0.563395 2.49519 0
M  V30 2642 H 260.818 -1.38441 4.88668 0
M  V30 2643 H 260.748 -3.06003 4.28567 0
M  V30 2644 H 263.239 -1.85493 3.29242 0
M  V30 2645 H 263.552 -3.2361 7.01781 0
M  V30 2646 H 261.897 -2.91663 6.30839 0
M  V30 2647 H 265.088 -2.22391 4.11898 0
M  V30 2648 H 265.261 -2.85394 5.81768 0
M  V30 2649 N 258.668 -1.30515 -0.883378 0
M  V30 2650 C 259.917 -1.18795 -1.63005 0
M  V30 2651 C 260.23 0.255923 -1.93919 0
M  V30 2652 O 261.436 0.494654 -2.66956 0
M  V30 2653 C 259.892 -2.07878 -2.93794 0
M  V30 2654 C 259.5 -3.57184 -2.70414 0
M  V30 2655 C 261.244 -2.04924 -3.71761 0
M  V30 2656 C 259.151 -4.38317 -3.97029 0
M  V30 2657 H 258.081 -0.441031 -0.611562 0
M  V30 2658 H 260.732 -1.55275 -0.977854 0
M  V30 2659 H 259.114 -1.64283 -3.60315 0
M  V30 2660 H 260.288 -4.08937 -2.12384 0
M  V30 2661 H 258.603 -3.61976 -2.0582 0
M  V30 2662 H 261.2 -2.62792 -4.65665 0
M  V30 2663 H 261.543 -1.0331 -4.03277 0
M  V30 2664 H 262.076 -2.46649 -3.12104 0
M  V30 2665 H 258.815 -5.40632 -3.70671 0
M  V30 2666 H 258.335 -3.91326 -4.54559 0
M  V30 2667 H 260.014 -4.49834 -4.65036 0
M  V30 2668 N 260.146 1.09593 -1.13257 0
M  V30 2669 C 261.392 1.82181 -0.904521 0
M  V30 2670 C 261.747 1.83967 0.563358 0
M  V30 2671 O 261.04 1.29566 1.41149 0
M  V30 2672 C 261.234 3.27802 -1.42411 0
M  V30 2673 C 261.063 3.40201 -2.94097 0
M  V30 2674 C 259.833 3.52104 -3.62424 0
M  V30 2675 C 262.031 3.32875 -3.92044 0
M  V30 2676 N 260.013 3.53169 -5.0214 0
M  V30 2677 C 261.384 3.40789 -5.17941 0
M  V30 2678 C 263.439 3.16531 -3.84334 0
M  V30 2679 C 262.142 3.34042 -6.37031 0
M  V30 2680 C 264.168 3.11109 -5.02956 0
M  V30 2681 C 263.53 3.19614 -6.27715 0
M  V30 2682 H 259.629 0.681015 -0.384373 0
M  V30 2683 H 262.213 1.3099 -1.44048 0
M  V30 2684 H 260.384 3.77466 -0.915086 0
M  V30 2685 H 262.116 3.88393 -1.13722 0
M  V30 2686 H 258.871 3.5548 -3.12939 0
M  V30 2687 H 259.295 3.57291 -5.75041 0
M  V30 2688 H 263.937 3.08827 -2.88766 0
M  V30 2689 H 261.655 3.4051 -7.32857 0
M  V30 2690 H 265.241 2.99601 -4.98729 0
M  V30 2691 H 264.121 3.15432 -7.17964 0
M  V30 2692 N 261.624 0.925811 1.2754 0
M  V30 2693 C 262.587 0.428129 2.25166 0
M  V30 2694 C 263.587 -0.452261 1.54309 0
M  V30 2695 O 264.777 -0.253608 1.72344 0
M  V30 2696 C 261.909 -0.384749 3.38722 0
M  V30 2697 H 263.102 1.29066 2.70706 0
M  V30 2698 H 260.655 0.706323 1.3943 0
M  V30 2699 H 261.39 -1.26618 2.98561 0
M  V30 2700 H 261.175 0.246454 3.91325 0
M  V30 2701 H 262.665 -0.723389 4.11287 0
M  V30 2702 N 263.102 -1.41638 0.69111 0
M  V30 2703 C 264.032 -2.3347 0.037248 0
M  V30 2704 C 265.013 -1.51575 -0.771947 0
M  V30 2705 O 266.198 -1.80126 -0.72582 0
M  V30 2706 C 263.328 -3.35354 -0.903064 0
M  V30 2707 C 262.282 -4.27526 -0.201288 0
M  V30 2708 C 261.608 -5.19747 -1.25565 0
M  V30 2709 C 262.908 -5.13959 0.929689 0
M  V30 2710 H 264.602 -2.88397 0.804227 0
M  V30 2711 H 262.148 -1.38669 0.388189 0
M  V30 2712 H 264.101 -3.98519 -1.36969 0
M  V30 2713 H 262.825 -2.78767 -1.70166 0
M  V30 2714 H 261.484 -3.65779 0.245265 0
M  V30 2715 H 261.132 -4.59479 -2.04666 0
M  V30 2716 H 260.832 -5.8225 -0.791128 0
M  V30 2717 H 262.356 -5.85789 -1.72288 0
M  V30 2718 H 263.77 -5.70718 0.543546 0
M  V30 2719 H 262.167 -5.85379 1.32103 0
M  V30 2720 H 263.237 -4.51389 1.77133 0
M  V30 2721 N 264.58 -0.43555 -1.51462 0
M  V30 2722 C 265.827 0.131514 -2.02072 0
M  V30 2723 C 266.155 1.42868 -1.31981 0
M  V30 2724 O 265.41 1.91076 -0.422883 0
M  V30 2725 C 265.709 0.39942 -3.55161 0
M  V30 2726 C 265.375 -0.81172 -4.43533 0
M  V30 2727 C 264.037 -1.14387 -4.67407 0
M  V30 2728 C 266.389 -1.61976 -4.95392 0
M  V30 2729 C 263.717 -2.28477 -5.40384 0
M  V30 2730 C 266.069 -2.75164 -5.6962 0
M  V30 2731 C 264.733 -3.08835 -5.91758 0
M  V30 2732 H 264.003 0.0481244 -0.739436 0
M  V30 2733 H 266.65 -0.58238 -1.8243 0
M  V30 2734 H 264.955 1.19519 -3.73125 0
M  V30 2735 H 266.652 0.85157 -3.91854 0
M  V30 2736 H 263.242 -0.542898 -4.25148 0
M  V30 2737 H 267.426 -1.37637 -4.76833 0
M  V30 2738 H 262.682 -2.5488 -5.55739 0
M  V30 2739 H 266.856 -3.38147 -6.08793 0
M  V30 2740 H 264.483 -3.97353 -6.48086 0
M  V30 2741 N 266.058 1.56714 -0.166846 0
M  V30 2742 C 266.968 2.21331 0.777791 0
M  V30 2743 C 267.984 1.20358 1.25658 0
M  V30 2744 O 269.16 1.53005 1.30964 0
M  V30 2745 C 266.225 2.83787 1.99163 0
M  V30 2746 C 265.286 3.99947 1.56016 0
M  V30 2747 C 264.519 4.59415 2.71613 0
M  V30 2748 O 264.742 4.17769 3.88362 0
M  V30 2749 O 263.676 5.49359 2.45945 0
M  V30 2750 H 267.502 3.02605 0.257636 0
M  V30 2751 H 265.087 1.49275 0.0611393 0
M  V30 2752 H 266.969 3.23405 2.70161 0
M  V30 2753 H 265.644 2.05513 2.50092 0
M  V30 2754 H 264.551 3.65007 0.819809 0
M  V30 2755 H 265.884 4.79801 1.09782 0
M  V30 2756 N 267.536 -0.106894 1.57237 0
M  V30 2757 C 268.813 -0.843526 1.76477 0
M  V30 2758 C 269.193 -1.97499 0.745464 0
M  V30 2759 O 268.541 -2.27357 -0.228306 0
M  V30 2760 C 268.751 -1.34903 3.21873 0
M  V30 2761 C 270.099 -1.79654 3.8472 0
M  V30 2762 O 271.123 -1.44554 3.2555 0
M  V30 2763 O 269.982 -2.44515 4.88748 0
M  V30 2764 H 267.076 -0.401468 0.723016 0
M  V30 2765 H 269.622 -0.0896927 1.69463 0
M  V30 2766 H 268.394 -0.53781 3.87586 0
M  V30 2767 H 268.017 -2.16522 3.33473 0
M  V30 2768 N 269.014 -1.53014 -0.377408 0
M  V30 2769 C 270.425 -1.60438 -0.954798 0
M  V30 2770 C 270.776 -0.464418 -1.90624 0
M  V30 2771 O 269.901 0.41087 -2.12464 0
M  V30 2772 C 270.496 -2.90797 -1.73847 0
M  V30 2773 C 269.055 -3.00595 -2.26538 0
M  V30 2774 C 268.202 -2.55645 -1.07429 0
M  V30 2775 H 271.153 -1.57926 -0.156575 0
M  V30 2776 H 271.174 -2.77935 -2.5987 0
M  V30 2777 H 270.686 -3.73746 -1.04574 0
M  V30 2778 H 268.787 -2.22208 -2.99089 0
M  V30 2779 H 268.9 -4.05456 -2.5523 0
M  V30 2780 H 267.264 -2.10239 -1.43777 0
M  V30 2781 H 268.047 -3.41 -0.396728 0
M  V30 2782 N 270.492 0.636531 -1.44174 0
M  V30 2783 C 271.722 1.42146 -1.49927 0
M  V30 2784 C 272.13 1.88812 -0.121063 0
M  V30 2785 O 271.473 1.61126 0.882267 0
M  V30 2786 C 271.535 2.67883 -2.39748 0
M  V30 2787 C 271.199 2.43048 -3.8701 0
M  V30 2788 C 272.196 2.05216 -4.77684 0
M  V30 2789 C 269.881 2.56856 -4.3166 0
M  V30 2790 C 271.875 1.81512 -6.11009 0
M  V30 2791 C 269.562 2.32766 -5.65034 0
M  V30 2792 C 270.56 1.95152 -6.54526 0
M  V30 2793 O 270.248 1.71326 -7.85431 0
M  V30 2794 H 269.98 0.442567 -0.51099 0
M  V30 2795 H 272.534 0.786158 -1.8976 0
M  V30 2796 H 270.764 3.34032 -1.94832 0
M  V30 2797 H 272.453 3.29874 -2.36513 0
M  V30 2798 H 273.219 1.94111 -4.44462 0
M  V30 2799 H 269.098 2.85104 -3.62266 0
M  V30 2800 H 272.642 1.52077 -6.80822 0
M  V30 2801 H 268.539 2.43479 -5.97819 0
M  V30 2802 H 269.307 1.85616 -7.97176 0
M  V30 2803 N 271.97 1.30982 0.876444 0
M  V30 2804 C 273.195 1.23373 1.66715 0
M  V30 2805 C 273.62 -0.19885 1.87046 0
M  V30 2806 O 272.978 -1.1427 1.40756 0
M  V30 2807 C 273.026 1.97644 3.01611 0
M  V30 2808 O 272.13 1.30935 3.91062 0
M  V30 2809 H 271.471 0.426279 0.509099 0
M  V30 2810 H 274.001 1.72944 1.09323 0
M  V30 2811 H 274.011 2.06992 3.51594 0
M  V30 2812 H 272.686 3.01829 2.86133 0
M  V30 2813 H 271.263 1.29996 3.49507 0
M  V30 2814 N 273.449 -1.08991 1.13837 0
M  V30 2815 C 274.674 -1.85551 0.926585 0
M  V30 2816 C 275.099 -1.80782 -0.519566 0
M  V30 2817 O 274.457 -1.18855 -1.36906 0
M  V30 2818 C 274.505 -3.31266 1.42462 0
M  V30 2819 O 273.609 -4.07822 0.612789 0
M  V30 2820 H 272.95 -0.575192 0.331738 0
M  V30 2821 H 275.48 -1.37604 1.51414 0
M  V30 2822 H 275.49 -3.82112 1.43019 0
M  V30 2823 H 274.165 -3.34052 2.47754 0
M  V30 2824 H 272.742 -3.66731 0.675463 0
M  V30 2825 N 274.927 -0.932562 -1.27047 0
M  V30 2826 C 276.343 -0.633544 -1.46487 0
M  V30 2827 C 276.543 0.815746 -1.84249 0
M  V30 2828 O 275.599 1.59319 -1.95892 0
M  V30 2829 C 276.912 -1.58758 -2.55375 0
M  V30 2830 C 278.46 -1.59634 -2.69232 0
M  V30 2831 C 278.935 -2.53747 -3.81283 0
M  V30 2832 N 280.426 -2.51982 -3.88664 0
M  V30 2833 C 281.161 -3.21491 -4.74796 0
M  V30 2834 N 280.657 -4.00395 -5.65381 0
M  V30 2835 N 282.45 -3.10485 -4.68568 0
M  V30 2836 H 274.601 -1.86946 -1.00821 0
M  V30 2837 H 276.864 -0.802897 -0.504044 0
M  V30 2838 H 276.57 -2.62172 -2.34432 0
M  V30 2839 H 276.444 -1.33301 -3.52861 0
M  V30 2840 H 278.831 -0.569488 -2.89553 0
M  V30 2841 H 278.912 -1.89142 -1.72218 0
M  V30 2842 H 278.556 -3.56545 -3.61715 0
M  V30 2843 H 278.486 -2.21532 -4.77735 0
M  V30 2844 H 280.977 -1.94681 -3.23895 0
M  V30 2845 H 281.29 -4.50406 -6.27976 0
M  V30 2846 H 279.635 -4.04498 -5.65161 0
M  V30 2847 H 282.826 -2.48331 -3.96799 0
M  V30 2848 H 282.999 -3.64925 -5.35475 0
M  V30 2849 N 276.405 1.4127 -0.698611 0
M  V30 2850 C 277.635 2.05205 -0.239644 0
M  V30 2851 C 278.043 1.52684 1.11733 0
M  V30 2852 O 277.386 0.671222 1.70998 0
M  V30 2853 C 277.448 3.59289 -0.123126 0
M  V30 2854 C 277.112 4.34619 -1.41263 0
M  V30 2855 C 278.109 4.63701 -2.35111 0
M  V30 2856 C 275.794 4.73837 -1.66684 0
M  V30 2857 C 277.788 5.30966 -3.52639 0
M  V30 2858 C 275.475 5.40837 -2.84498 0
M  V30 2859 C 276.473 5.69329 -3.77298 0
M  V30 2860 O 276.161 6.34949 -4.93047 0
M  V30 2861 H 275.893 0.66723 -0.108537 0
M  V30 2862 H 278.447 1.81974 -0.952602 0
M  V30 2863 H 276.677 3.81272 0.645628 0
M  V30 2864 H 278.366 4.04797 0.299056 0
M  V30 2865 H 279.132 4.33882 -2.16729 0
M  V30 2866 H 275.011 4.51039 -0.953135 0
M  V30 2867 H 278.555 5.53121 -4.25091 0
M  V30 2868 H 274.452 5.70075 -3.02795 0
M  V30 2869 H 275.22 6.53445 -4.92902 0
M  V30 2870 N 277.883 0.443576 1.51229 0
M  V30 2871 C 278.846 -0.353132 2.26463 0
M  V30 2872 C 279.846 -0.944338 1.3015 0
M  V30 2873 O 281.036 -0.817813 1.5381 0
M  V30 2874 C 278.168 -1.50023 3.06114 0
M  V30 2875 H 279.361 0.3063 2.98332 0
M  V30 2876 H 276.914 0.196902 1.55055 0
M  V30 2877 H 277.649 -2.19553 2.38677 0
M  V30 2878 H 277.434 -1.08241 3.76864 0
M  V30 2879 H 278.924 -2.06296 3.63087 0
M  V30 2880 N 279.361 -1.56624 0.175154 0
M  V30 2881 C 280.777 -1.58571 -0.180966 0
M  V30 2882 C 280.977 -1.19065 -1.6256 0
M  V30 2883 O 280.033 -0.904044 -2.35761 0
M  V30 2884 C 281.346 -3.00522 0.103326 0
M  V30 2885 C 282.894 -3.12972 0.0418426 0
M  V30 2886 C 283.369 -4.57022 0.299175 0
M  V30 2887 N 284.86 -4.62541 0.247086 0
M  V30 2888 C 285.595 -5.71857 0.420318 0
M  V30 2889 N 285.091 -6.89717 0.652816 0
M  V30 2890 N 286.884 -5.60972 0.355957 0
M  V30 2891 H 279.035 -1.80589 1.11809 0
M  V30 2892 H 281.298 -0.837178 0.444788 0
M  V30 2893 H 281.004 -3.33916 1.10422 0
M  V30 2894 H 280.878 -3.72344 -0.603299 0
M  V30 2895 H 283.265 -2.79403 -0.949636 0
M  V30 2896 H 283.346 -2.43578 0.781238 0
M  V30 2897 H 282.99 -4.913 1.28788 0
M  V30 2898 H 282.92 -5.24579 -0.460876 0
M  V30 2899 H 285.411 -3.77829 0.0731895 0
M  V30 2900 H 285.724 -7.68911 0.774347 0
M  V30 2901 H 284.069 -6.91572 0.689476 0
M  V30 2902 H 287.26 -4.67773 0.174882 0
M  V30 2903 H 287.433 -6.46111 0.494388 0
M  V30 2904 N 280.839 0.0985539 -1.57292 0
M  V30 2905 C 282.069 0.815135 -1.8984 0
M  V30 2906 C 282.477 1.7297 -0.766679 0
M  V30 2907 O 281.82 1.81698 0.270483 0
M  V30 2908 C 281.882 1.6842 -3.17608 0
M  V30 2909 C 281.546 0.94182 -4.4719 0
M  V30 2910 C 282.543 0.273212 -5.19182 0
M  V30 2911 C 280.228 0.916927 -4.9386 0
M  V30 2912 C 282.222 -0.410361 -6.36078 0
M  V30 2913 C 279.909 0.229567 -6.10669 0
M  V30 2914 C 280.907 -0.432902 -6.81627 0
M  V30 2915 O 280.595 -1.10925 -7.9621 0
M  V30 2916 H 280.327 0.238501 -0.632529 0
M  V30 2917 H 282.881 0.0812659 -2.05239 0
M  V30 2918 H 281.111 2.46022 -2.98345 0
M  V30 2919 H 282.8 2.27704 -3.36015 0
M  V30 2920 H 283.566 0.283927 -4.84168 0
M  V30 2921 H 279.445 1.42201 -4.3852 0
M  V30 2922 H 282.989 -0.928013 -6.914 0
M  V30 2923 H 278.886 0.216686 -6.45136 0
M  V30 2924 H 279.654 -1.01579 -8.12172 0
M  V30 2925 N 282.317 1.53212 0.369288 0
M  V30 2926 C 283.563 1.69466 1.11397 0
M  V30 2927 C 283.896 0.443257 1.89074 0
M  V30 2928 O 283.171 -0.559386 1.86282 0
M  V30 2929 C 283.454 2.9422 2.07621 0
M  V30 2930 C 283.307 4.29508 1.33577 0
M  V30 2931 C 284.626 3.14565 3.07794 0
M  V30 2932 H 281.745 0.616667 0.403597 0
M  V30 2933 H 284.387 1.85845 0.395179 0
M  V30 2934 H 282.537 2.80387 2.68916 0
M  V30 2935 H 284.209 4.55147 0.750955 0
M  V30 2936 H 282.452 4.29088 0.637618 0
M  V30 2937 H 283.123 5.12926 2.03989 0
M  V30 2938 H 285.599 3.2756 2.56601 0
M  V30 2939 H 284.475 4.03297 3.72348 0
M  V30 2940 H 284.736 2.29675 3.77759 0
M  V30 2941 N 283.795 -0.628877 1.44509 0
M  V30 2942 C 284.758 -1.72263 1.51188 0
M  V30 2943 C 285.758 -1.55907 0.39367 0
M  V30 2944 O 286.948 -1.61361 0.656377 0
M  V30 2945 C 284.08 -3.11365 1.38798 0
M  V30 2946 H 285.273 -1.67714 2.4862 0
M  V30 2947 H 282.826 -0.842737 1.31634 0
M  V30 2948 H 283.561 -3.21507 0.424693 0
M  V30 2949 H 283.346 -3.24644 2.19884 0
M  V30 2950 H 284.836 -3.91075 1.46458 0
M  V30 2951 N 285.273 -1.31445 -0.869486 0
M  V30 2952 C 286.52 -1.21158 -1.62256 0
M  V30 2953 C 286.848 0.230155 -1.93133 0
M  V30 2954 O 286.103 1.17906 -1.56194 0
M  V30 2955 C 286.402 -2.00145 -2.96102 0
M  V30 2956 C 286.068 -3.4964 -2.84715 0
M  V30 2957 C 284.73 -3.90403 -2.81317 0
M  V30 2958 C 287.082 -4.44769 -2.71716 0
M  V30 2959 C 284.41 -5.24561 -2.62778 0
M  V30 2960 C 286.762 -5.79054 -2.54714 0
M  V30 2961 C 285.426 -6.19037 -2.49699 0
M  V30 2962 H 284.696 -0.443348 -0.593737 0
M  V30 2963 H 287.343 -1.62715 -1.00976 0
M  V30 2964 H 285.648 -1.5127 -3.6142 0
M  V30 2965 H 287.345 -1.89566 -3.53363 0
M  V30 2966 H 283.935 -3.17256 -2.88178 0
M  V30 2967 H 288.119 -4.14208 -2.73397 0
M  V30 2968 H 283.375 -5.54613 -2.57321 0
M  V30 2969 H 287.549 -6.52393 -2.43632 0
M  V30 2970 H 285.176 -7.22935 -2.35093 0
M  V30 2971 N 286.751 1.08385 -1.14413 0
M  V30 2972 C 287.714 2.13486 -0.834048 0
M  V30 2973 C 288.714 1.59988 0.161418 0
M  V30 2974 O 289.904 1.74071 -0.0669575 0
M  V30 2975 C 287.036 3.4003 -0.243354 0
M  V30 2976 H 288.229 2.42425 -1.7655 0
M  V30 2977 H 285.782 1.24101 -0.950189 0
M  V30 2978 H 286.517 3.16726 0.696807 0
M  V30 2979 H 286.302 3.80157 -0.960367 0
M  V30 2980 H 287.792 4.17577 -0.0436242 0
M  V30 2981 N 288.23 0.939286 1.26551 0
M  V30 2982 C 289.455 0.602008 1.98471 0
M  V30 2983 C 289.88 -0.815624 1.69497 0
M  V30 2984 O 289.238 -1.54912 0.941905 0
M  V30 2985 C 289.286 0.848407 3.50477 0
M  V30 2986 O 288.39 -0.0804009 4.12322 0
M  V30 2987 H 287.731 0.23049 0.622712 0
M  V30 2988 H 290.261 1.2617 1.61066 0
M  V30 2989 H 290.271 0.768553 4.00696 0
M  V30 2990 H 288.946 1.88171 3.70897 0
M  V30 2991 H 287.523 0.0503508 3.72866 0
M  V30 2992 N 289.708 -1.40897 0.706093 0
M  V30 2993 C 290.638 -2.33418 0.0620085 0
M  V30 2994 C 291.619 -1.52385 -0.755827 0
M  V30 2995 O 292.804 -1.80886 -0.706674 0
M  V30 2996 C 289.934 -3.36293 -0.867445 0
M  V30 2997 C 288.888 -4.27716 -0.155932 0
M  V30 2998 C 288.214 -5.2105 -1.20046 0
M  V30 2999 C 289.514 -5.12944 0.984149 0
M  V30 3000 H 291.208 -2.87527 0.83477 0
M  V30 3001 H 288.754 -1.38249 0.402875 0
M  V30 3002 H 290.707 -3.99949 -1.32735 0
M  V30 3003 H 289.431 -2.80556 -1.67199 0
M  V30 3004 H 288.09 -3.65498 0.284047 0
M  V30 3005 H 287.738 -4.61624 -1.99781 0
M  V30 3006 H 287.438 -5.83056 -0.729328 0
M  V30 3007 H 288.962 -5.87584 -1.66066 0
M  V30 3008 H 290.376 -5.70109 0.604048 0
M  V30 3009 H 288.773 -5.83945 1.38304 0
M  V30 3010 H 289.843 -4.49485 1.81911 0
M  V30 3011 N 291.186 -0.45159 -1.50991 0
M  V30 3012 C 292.433 0.110074 -2.02201 0
M  V30 3013 C 292.761 1.4146 -1.33489 0
M  V30 3014 O 292.016 1.90617 -0.443125 0
M  V30 3015 C 292.315 0.361728 -3.55565 0
M  V30 3016 C 291.981 -0.858717 -4.42648 0
M  V30 3017 C 290.643 -1.19338 -4.66167 0
M  V30 3018 C 292.995 -1.67221 -4.93646 0
M  V30 3019 C 290.323 -2.34195 -5.37931 0
M  V30 3020 C 292.675 -2.8119 -5.6667 0
M  V30 3021 C 291.339 -3.15094 -5.88449 0
M  V30 3022 H 290.609 0.040279 -0.739904 0
M  V30 3023 H 293.256 -0.601696 -1.81802 0
M  V30 3024 H 291.561 1.15554 -3.74372 0
M  V30 3025 H 293.258 0.80996 -3.92735 0
M  V30 3026 H 289.848 -0.58796 -4.24548 0
M  V30 3027 H 294.032 -1.42686 -4.75347 0
M  V30 3028 H 289.288 -2.6076 -5.53005 0
M  V30 3029 H 293.462 -3.44585 -6.05173 0
M  V30 3030 H 291.089 -4.04204 -6.43835 0
M  V30 3031 N 292.664 1.56529 -0.183458 0
M  V30 3032 C 293.911 1.97244 0.458357 0
M  V30 3033 C 294.239 1.06992 1.62428 0
M  V30 3034 O 293.494 0.106542 1.9541 0
M  V30 3035 C 293.793 3.43939 0.971637 0
M  V30 3036 C 293.459 4.5083 -0.0796784 0
M  V30 3037 C 292.121 4.79786 -0.368584 0
M  V30 3038 C 294.473 5.15138 -0.792638 0
M  V30 3039 C 291.801 5.70345 -1.37563 0
M  V30 3040 C 294.153 6.06784 -1.78875 0
M  V30 3041 C 292.817 6.34102 -2.08497 0
M  V30 3042 H 292.087 0.721768 0.167725 0
M  V30 3043 H 294.734 1.89472 -0.277976 0
M  V30 3044 H 293.039 3.48724 1.78602 0
M  V30 3045 H 294.736 3.72791 1.47744 0
M  V30 3046 H 291.326 4.28317 0.155668 0
M  V30 3047 H 295.51 4.92868 -0.582659 0
M  V30 3048 H 290.766 5.89789 -1.61118 0
M  V30 3049 H 294.94 6.55677 -2.3465 0
M  V30 3050 H 292.567 7.04074 -2.86678 0
M  V30 3051 N 294.142 -0.090211 1.57342 0
M  V30 3052 C 295.391 -0.791531 1.8552 0
M  V30 3053 C 295.704 -1.79659 0.773441 0
M  V30 3054 O 296.91 -2.54616 0.942497 0
M  V30 3055 C 295.366 -1.45856 3.2902 0
M  V30 3056 C 294.974 -0.493017 4.45279 0
M  V30 3057 C 296.718 -2.14332 3.66418 0
M  V30 3058 C 294.625 -1.16491 5.79814 0
M  V30 3059 H 293.555 -0.299356 0.692027 0
M  V30 3060 H 296.206 -0.0445343 1.83446 0
M  V30 3061 H 294.588 -2.25318 3.2565 0
M  V30 3062 H 295.762 0.270464 4.60006 0
M  V30 3063 H 294.077 0.0863061 4.16311 0
M  V30 3064 H 296.674 -2.65344 4.64216 0
M  V30 3065 H 297.017 -2.93447 2.95287 0
M  V30 3066 H 297.55 -1.41724 3.71698 0
M  V30 3067 H 294.289 -0.41447 6.54188 0
M  V30 3068 H 293.809 -1.8997 5.68921 0
M  V30 3069 H 295.488 -1.69001 6.24538 0
M  V30 3070 N 295.62 -1.53406 -0.361157 0
M  V30 3071 C 296.55 -1.83136 -1.44857 0
M  V30 3072 C 297.531 -0.685174 -1.5569 0
M  V30 3073 O 298.716 -0.93544 -1.70186 0
M  V30 3074 C 295.846 -2.02522 -2.82138 0
M  V30 3075 C 294.8 -3.18302 -2.86126 0
M  V30 3076 C 294.126 -3.22989 -4.26125 0
M  V30 3077 C 295.426 -4.56796 -2.53248 0
M  V30 3078 H 297.12 -2.74201 -1.20226 0
M  V30 3079 H 294.666 -1.31938 -0.576922 0
M  V30 3080 H 296.619 -2.21904 -3.58241 0
M  V30 3081 H 295.343 -1.08172 -3.08166 0
M  V30 3082 H 294.002 -2.98747 -2.12475 0
M  V30 3083 H 293.65 -2.26267 -4.49235 0
M  V30 3084 H 293.35 -4.00781 -4.29708 0
M  V30 3085 H 294.874 -3.44559 -5.04094 0
M  V30 3086 H 296.288 -4.7631 -3.19064 0
M  V30 3087 H 294.685 -5.36862 -2.68141 0
M  V30 3088 H 295.755 -4.61606 -1.48484 0
M  V30 3089 N 297.098 0.621204 -1.44841 0
M  V30 3090 C 298.344 1.3826 -1.48365 0
M  V30 3091 C 298.677 1.93831 -0.119624 0
M  V30 3092 O 297.952 1.74251 0.864111 0
M  V30 3093 C 298.235 2.54058 -2.55199 0
M  V30 3094 C 298.088 2.03772 -4.00995 0
M  V30 3095 C 299.407 3.56225 -2.58442 0
M  V30 3096 H 296.526 0.501374 -0.540179 0
M  V30 3097 H 299.168 0.7015 -1.76576 0
M  V30 3098 H 297.318 3.12162 -2.31274 0
M  V30 3099 H 298.99 1.50423 -4.36086 0
M  V30 3100 H 297.233 1.34876 -4.12299 0
M  V30 3101 H 297.904 2.87185 -4.71411 0
M  V30 3102 H 300.38 3.07939 -2.79844 0
M  V30 3103 H 299.256 4.34756 -3.3508 0
M  V30 3104 H 299.517 4.10949 -1.63013 0
M  V30 3105 N 298.576 1.31904 0.862503 0
M  V30 3106 C 299.801 1.25135 1.65397 0
M  V30 3107 C 300.226 -0.179 1.87246 0
M  V30 3108 O 299.584 -1.1277 1.4196 0
M  V30 3109 C 299.632 2.00832 2.99498 0
M  V30 3110 O 298.736 1.35075 3.89652 0
M  V30 3111 H 298.077 0.431655 0.504549 0
M  V30 3112 H 300.607 1.74094 1.07483 0
M  V30 3113 H 300.617 2.10709 3.49379 0
M  V30 3114 H 299.292 3.04847 2.82916 0
M  V30 3115 H 297.869 1.33696 3.48109 0
M  V30 3116 N 300.054 -1.07777 1.14986 0
M  V30 3117 C 301.303 -1.79669 0.916617 0
M  V30 3118 C 301.616 -1.87474 -0.557917 0
M  V30 3119 O 302.822 -2.55845 -0.908617 0
M  V30 3120 C 301.278 -3.22848 1.59051 0
M  V30 3121 C 300.886 -3.23257 3.10176 0
M  V30 3122 C 302.63 -3.99379 1.43864 0
M  V30 3123 C 300.537 -4.61063 3.70372 0
M  V30 3124 H 299.467 -0.673349 0.33929 0
M  V30 3125 H 302.118 -1.21003 1.37951 0
M  V30 3126 H 300.5 -3.8168 1.0553 0
M  V30 3127 H 301.674 -2.74095 3.70417 0
M  V30 3128 H 299.989 -2.60222 3.25074 0
M  V30 3129 H 302.586 -5.0122 1.86232 0
M  V30 3130 H 302.929 -4.14511 0.385564 0
M  V30 3131 H 303.462 -3.47032 1.94457 0
M  V30 3132 H 300.201 -4.51135 4.7556 0
M  V30 3133 H 299.721 -5.1048 3.14913 0
M  V30 3134 H 301.4 -5.30034 3.71043 0
M  V30 3135 N 301.532 -0.945985 -1.26051 0
M  V30 3136 C 302.76 -0.613025 -1.9761 0
M  V30 3137 C 303.175 0.813035 -1.70397 0
M  V30 3138 O 302.532 1.54274 -0.974979 0
M  V30 3139 C 302.583 -0.85159 -3.51326 0
M  V30 3140 O 302.304 -2.22157 -3.77595 0
M  V30 3141 C 303.805 -0.529831 -4.40122 0
M  V30 3142 H 301.025 -0.230593 -0.630133 0
M  V30 3143 H 303.569 -1.268 -1.60443 0
M  V30 3144 H 301.724 -0.243151 -3.86636 0
M  V30 3145 H 302.138 -2.2852 -4.721 0
M  V30 3146 H 303.612 -0.747348 -5.46917 0
M  V30 3147 H 304.089 0.535341 -4.35925 0
M  V30 3148 H 304.695 -1.11721 -4.10364 0
M  V30 3149 N 303.011 1.40521 -0.713556 0
M  V30 3150 C 304.239 2.05237 -0.261775 0
M  V30 3151 C 304.654 1.53755 1.09567 0
M  V30 3152 O 304.011 0.693268 1.6882 0
M  V30 3153 C 304.062 3.60763 -0.230706 0
M  V30 3154 O 303.783 4.10345 -1.53455 0
M  V30 3155 C 305.284 4.42651 0.239874 0
M  V30 3156 H 302.504 0.660533 -0.118057 0
M  V30 3157 H 305.048 1.79967 -0.971192 0
M  V30 3158 H 303.203 3.8501 0.429661 0
M  V30 3159 H 303.617 5.04526 -1.43366 0
M  V30 3160 H 305.091 5.51599 0.210468 0
M  V30 3161 H 305.568 4.20082 1.28171 0
M  V30 3162 H 306.174 4.23507 -0.390142 0
M  V30 3163 N 304.489 0.459591 1.5075 0
M  V30 3164 C 305.736 -0.0993495 2.02256 0
M  V30 3165 C 306.064 -1.40751 1.34237 0
M  V30 3166 O 305.319 -1.90379 0.453228 0
M  V30 3167 C 305.618 -0.342866 3.55752 0
M  V30 3168 C 305.284 0.88218 4.42186 0
M  V30 3169 C 303.946 1.21808 4.65528 0
M  V30 3170 C 306.298 1.69837 4.92752 0
M  V30 3171 C 303.626 2.37045 5.36681 0
M  V30 3172 C 305.978 2.84192 5.65171 0
M  V30 3173 C 304.642 3.1821 5.8677 0
M  V30 3174 H 303.912 -0.0363545 0.740108 0
M  V30 3175 H 306.559 0.611329 1.8148 0
M  V30 3176 H 304.864 -1.13567 3.7498 0
M  V30 3177 H 306.561 -0.789121 3.93159 0
M  V30 3178 H 303.151 0.610467 4.2423 0
M  V30 3179 H 307.335 1.45205 4.74583 0
M  V30 3180 H 302.591 2.63689 5.51614 0
M  V30 3181 H 306.765 3.4779 6.03337 0
M  V30 3182 H 304.392 4.07613 6.41682 0
M  V30 3183 N 305.967 -1.56429 0.191757 0
M  V30 3184 C 307.207 -1.99383 -0.450099 0
M  V30 3185 C 307.571 -1.07581 -1.59029 0
M  V30 3186 O 308.772 -1.39758 -2.29611 0
M  V30 3187 C 307.043 -3.45841 -0.901611 0
M  V30 3188 S 308.602 -4.10822 -1.54177 0
M  V30 3189 H 305.42 -0.696253 -0.144057 0
M  V30 3190 H 308.022 -1.93276 0.294036 0
M  V30 3191 H 306.726 -4.10354 -0.0616596 0
M  V30 3192 H 306.257 -3.55757 -1.67929 0
M  V30 3193 H 308.272 -4.07553 -2.83046 0
M  V30 3194 N 307.445 0.0818655 -1.57387 0
M  V30 3195 C 308.375 1.09885 -2.06028 0
M  V30 3196 C 309.356 1.4098 -0.951774 0
M  V30 3197 O 310.541 1.50781 -1.22387 0
M  V30 3198 C 307.671 2.4151 -2.4958 0
M  V30 3199 C 306.625 2.24792 -3.64215 0
M  V30 3200 C 305.951 3.61712 -3.93787 0
M  V30 3201 C 307.251 1.67749 -4.94629 0
M  V30 3202 H 308.945 0.694128 -2.91243 0
M  V30 3203 H 306.491 0.332448 -1.4011 0
M  V30 3204 H 308.444 3.12939 -2.82219 0
M  V30 3205 H 307.168 2.83943 -1.61381 0
M  V30 3206 H 305.827 1.55807 -3.31843 0
M  V30 3207 H 305.475 4.01697 -3.02735 0
M  V30 3208 H 305.175 3.51368 -4.70971 0
M  V30 3209 H 306.699 4.34587 -4.28913 0
M  V30 3210 H 308.113 2.29032 -5.25564 0
M  V30 3211 H 306.51 1.68128 -5.76067 0
M  V30 3212 H 307.58 0.638059 -4.80684 0
M  V30 3213 N 308.923 1.53595 0.353017 0
M  V30 3214 C 309.833 1.83897 1.45667 0
M  V30 3215 C 310.849 0.728334 1.58023 0
M  V30 3216 O 312.025 1.01968 1.73679 0
M  V30 3217 C 309.09 2.03383 2.80778 0
M  V30 3218 C 308.151 3.27262 2.77845 0
M  V30 3219 C 307.384 3.45809 4.06512 0
M  V30 3220 O 307.607 2.68387 5.03314 0
M  V30 3221 O 306.541 4.39207 4.11559 0
M  V30 3222 H 310.367 2.77686 1.2298 0
M  V30 3223 H 307.952 1.39132 0.544308 0
M  V30 3224 H 309.834 2.17698 3.60812 0
M  V30 3225 H 308.509 1.12783 3.03417 0
M  V30 3226 H 307.416 3.18359 1.96465 0
M  V30 3227 H 308.749 4.17824 2.60161 0
M  V30 3228 N 310.401 -0.613514 1.45168 0
M  V30 3229 C 311.629 -1.39946 1.5239 0
M  V30 3230 C 312.044 -1.88167 0.154531 0
M  V30 3231 O 311.401 -1.61872 -0.842843 0
M  V30 3232 C 311.452 -2.60795 2.50337 0
M  V30 3233 O 311.173 -2.1458 3.81952 0
M  V30 3234 C 312.674 -3.53723 2.67198 0
M  V30 3235 H 309.894 -0.428593 0.516284 0
M  V30 3236 H 312.438 -0.748753 1.903 0
M  V30 3237 H 310.593 -3.21919 2.15515 0
M  V30 3238 H 311.007 -2.93055 4.34993 0
M  V30 3239 H 312.481 -4.35079 3.39721 0
M  V30 3240 H 312.958 -4.0368 1.73029 0
M  V30 3241 H 313.564 -2.98456 3.02992 0
M  V30 3242 N 311.879 -1.3236 -0.855495 0
M  V30 3243 C 312.829 -1.17809 -1.95205 0
M  V30 3244 C 313.813 -0.0852319 -1.60674 0
M  V30 3245 O 315.005 -0.311651 -1.74235 0
M  V30 3246 C 312.134 -0.902437 -3.31226 0
M  V30 3247 C 311.22 -2.03695 -3.7198 0
M  V30 3248 N 311.611 -3.28544 -3.84568 0
M  V30 3249 C 309.909 -1.93993 -4.016 0
M  V30 3250 C 310.61 -4.02847 -4.19629 0
M  V30 3251 N 309.586 -3.31138 -4.31102 0
M  V30 3252 H 313.388 -2.12462 -2.0307 0
M  V30 3253 H 310.902 -1.24127 -1.0472 0
M  V30 3254 H 312.899 -0.77915 -4.09554 0
M  V30 3255 H 311.559 0.0357267 -3.2468 0
M  V30 3256 H 312.57 -3.6349 -3.68911 0
M  V30 3257 H 309.247 -1.07733 -4.03361 0
M  V30 3258 H 310.637 -5.10506 -4.36845 0
M  V30 3259 N 313.357 1.07166 -1.15556 0
M  V30 3260 C 314.267 2.17947 -0.868116 0
M  V30 3261 C 315.283 1.73297 0.156297 0
M  V30 3262 O 316.459 2.01392 -0.0182327 0
M  V30 3263 C 313.524 3.44789 -0.36355 0
M  V30 3264 C 312.585 4.03996 -1.45209 0
M  V30 3265 C 311.818 5.24783 -0.971508 0
M  V30 3266 O 312.041 5.70109 0.182194 0
M  V30 3267 O 310.975 5.75715 -1.75603 0
M  V30 3268 H 314.801 2.4503 -1.79427 0
M  V30 3269 H 312.386 1.16539 -0.934824 0
M  V30 3270 H 314.268 4.21307 -0.0887113 0
M  V30 3271 H 312.943 3.19253 0.534708 0
M  V30 3272 H 311.85 3.29009 -1.78056 0
M  V30 3273 H 313.183 4.33808 -2.32533 0
M  V30 3274 N 314.835 0.952656 1.25548 0
M  V30 3275 C 316.251 0.656769 1.4546 0
M  V30 3276 C 316.451 -0.78633 1.85524 0
M  V30 3277 O 315.507 -1.56183 1.98402 0
M  V30 3278 C 316.82 1.62801 2.52817 0
M  V30 3279 C 318.368 1.63897 2.66659 0
M  V30 3280 C 318.843 2.5978 3.77198 0
M  V30 3281 N 320.334 2.58133 3.84606 0
M  V30 3282 C 321.069 3.29003 4.69621 0
M  V30 3283 N 320.565 4.09339 5.58939 0
M  V30 3284 N 322.358 3.179 4.63569 0
M  V30 3285 H 314.509 1.88526 0.978344 0
M  V30 3286 H 316.772 0.810815 0.491206 0
M  V30 3287 H 316.478 2.65869 2.30232 0
M  V30 3288 H 316.352 1.38898 3.50695 0
M  V30 3289 H 318.739 0.615481 2.8861 0
M  V30 3290 H 318.82 1.91858 1.69187 0
M  V30 3291 H 318.464 3.62254 3.55997 0
M  V30 3292 H 318.394 2.29105 4.7415 0
M  V30 3293 H 320.885 1.99809 3.20757 0
M  V30 3294 H 321.198 4.6034 6.20731 0
M  V30 3295 H 319.543 4.13438 5.58654 0
M  V30 3296 H 322.734 2.54612 3.92798 0
M  V30 3297 H 322.907 3.73398 5.29602 0
M  V30 3298 N 316.313 -1.40141 0.720998 0
M  V30 3299 C 317.56 -2.00787 0.262842 0
M  V30 3300 C 317.888 -1.5718 -1.14563 0
M  V30 3301 O 317.143 -0.785391 -1.79249 0
M  V30 3302 C 317.442 -3.56165 0.296892 0
M  V30 3303 C 317.108 -4.19373 1.65641 0
M  V30 3304 C 315.77 -4.36352 2.02855 0
M  V30 3305 C 318.122 -4.54578 2.54968 0
M  V30 3306 C 315.45 -4.8582 3.28931 0
M  V30 3307 C 317.802 -5.05447 3.80402 0
M  V30 3308 C 316.466 -5.20635 4.17726 0
M  V30 3309 H 315.736 -0.734731 0.0961807 0
M  V30 3310 H 318.383 -1.67673 0.925093 0
M  V30 3311 H 316.688 -3.8922 -0.448932 0
M  V30 3312 H 318.385 -4.00929 -0.0755208 0
M  V30 3313 H 314.975 -4.06549 1.35704 0
M  V30 3314 H 319.159 -4.41091 2.27491 0
M  V30 3315 H 314.415 -4.95764 3.57811 0
M  V30 3316 H 318.589 -5.31663 4.49786 0
M  V30 3317 H 316.216 -5.58728 5.15487 0
M  V30 3318 N 317.792 -0.46758 -1.50504 0
M  V30 3319 C 318.74 0.342482 -2.30065 0
M  V30 3320 C 319.734 0.993596 -1.37201 0
M  V30 3321 O 320.94 0.925102 -1.54408 0
M  V30 3322 H 317.315 0.129283 -0.740803 0
M  V30 3323 H 319.286 -0.34899 -2.96352 0
M  V30 3324 C 318.035 1.4139 -3.17654 0
M  V30 3325 H 317.358 0.922264 -3.89017 0
M  V30 3326 H 318.798 1.95335 -3.76325 0
M  V30 3327 C 317.257 2.4139 -2.35016 0
M  V30 3328 O 317.787 3.46586 -2.03079 0
M  V30 3329 N 315.993 2.13021 -1.97662 0
M  V30 3330 H 315.54 1.27499 -2.23834 0
M  V30 3331 H 315.498 2.80164 -1.42673 0
M  V30 3332 N 319.27 1.56325 -0.20005 0
M  V30 3333 C 320.681 1.8408 0.31167 0
M  V30 3334 C 321.032 1.12087 1.61031 0
M  V30 3335 O 320.157 0.38332 2.12978 0
M  V30 3336 C 320.752 3.33932 0.57226 0
M  V30 3337 C 319.311 3.6208 1.02834 0
M  V30 3338 C 318.458 2.77186 0.079634 0
M  V30 3339 H 321.409 1.52939 -0.423729 0
M  V30 3340 H 321.43 3.52971 1.42096 0
M  V30 3341 H 320.942 3.86303 -0.37308 0
M  V30 3342 H 319.043 3.15147 1.98778 0
M  V30 3343 H 319.156 4.7023 0.917624 0
M  V30 3344 H 317.52 2.47951 0.582448 0
M  V30 3345 H 318.303 3.32347 -0.860238 0
M  V30 3346 N 320.748 -0.0735177 1.57428 0
M  V30 3347 C 321.997 -0.771809 1.86349 0
M  V30 3348 C 322.31 -1.78828 0.792452 0
M  V30 3349 O 323.516 -2.53602 0.96945 0
M  V30 3350 C 321.972 -1.42358 3.30548 0
M  V30 3351 C 321.58 -0.445761 4.45777 0
M  V30 3352 C 323.324 -2.10434 3.6867 0
M  V30 3353 C 321.231 -1.10335 5.81016 0
M  V30 3354 H 320.161 -0.291999 0.695164 0
M  V30 3355 H 322.812 -0.0250749 1.83483 0
M  V30 3356 H 321.194 -2.21852 3.28021 0
M  V30 3357 H 322.368 0.319239 4.59693 0
M  V30 3358 H 320.683 0.130457 4.16196 0
M  V30 3359 H 323.28 -2.60405 4.67004 0
M  V30 3360 H 323.623 -2.90298 2.98383 0
M  V30 3361 H 324.156 -1.37773 3.7318 0
M  V30 3362 H 320.895 -0.345061 6.54591 0
M  V30 3363 H 320.415 -1.83925 5.70904 0
M  V30 3364 H 322.094 -1.62367 6.26295 0
M  V30 3365 N 322.226 -1.5378 -0.344866 0
M  V30 3366 C 323.472 -1.71216 -1.08687 0
M  V30 3367 C 323.805 -0.473281 -1.88345 0
M  V30 3368 O 323.08 0.52968 -1.87149 0
M  V30 3369 C 323.363 -2.97486 -2.02914 0
M  V30 3370 C 323.216 -4.31579 -1.26727 0
M  V30 3371 C 324.535 -3.19422 -3.0275 0
M  V30 3372 H 321.654 -0.62301 -0.393735 0
M  V30 3373 H 324.296 -1.8645 -0.365563 0
M  V30 3374 H 322.446 -2.84629 -2.64421 0
M  V30 3375 H 324.118 -4.56284 -0.67845 0
M  V30 3376 H 322.361 -4.30049 -0.569273 0
M  V30 3377 H 323.032 -5.16106 -1.95803 0
M  V30 3378 H 325.508 -3.316 -2.51357 0
M  V30 3379 H 324.384 -4.09169 -3.65885 0
M  V30 3380 H 324.645 -2.35656 -3.74057 0
M  V30 3381 N 323.704 0.605807 -1.45491 0
M  V30 3382 C 324.652 1.73754 -1.54636 0
M  V30 3383 C 325.646 1.64207 -0.416219 0
M  V30 3384 O 326.852 1.69979 -0.592199 0
M  V30 3385 H 323.227 0.574073 -0.485741 0
M  V30 3386 H 325.198 1.63169 -2.49837 0
M  V30 3387 C 323.947 3.12135 -1.53189 0
M  V30 3388 H 323.27 3.20141 -2.39478 0
M  V30 3389 H 324.71 3.91147 -1.63645 0
M  V30 3390 C 323.169 3.35921 -0.256616 0
M  V30 3391 O 323.699 3.96194 0.662798 0
M  V30 3392 N 321.905 2.90204 -0.151751 0
M  V30 3393 H 321.452 2.41336 -0.90081 0
M  V30 3394 H 321.41 3.06492 0.700699 0
M  V30 3395 N 325.182 1.32811 0.848464 0
M  V30 3396 C 326.129 1.22265 1.95755 0
M  V30 3397 C 327.099 0.103413 1.65778 0
M  V30 3398 O 328.284 0.280033 1.88734 0
M  V30 3399 C 325.424 0.958014 3.31536 0
M  V30 3400 C 324.537 2.16262 3.73971 0
M  V30 3401 C 323.672 1.83295 4.98575 0
M  V30 3402 C 322.711 3.00041 5.33518 0
M  V30 3403 N 321.848 2.67125 6.49299 0
M  V30 3404 H 326.688 2.17128 2.04107 0
M  V30 3405 H 324.225 1.07982 0.998913 0
M  V30 3406 H 326.183 0.785052 4.09747 0
M  V30 3407 H 324.813 0.046159 3.22767 0
M  V30 3408 H 323.865 2.44565 2.91362 0
M  V30 3409 H 325.177 3.03572 3.95785 0
M  V30 3410 H 324.331 1.62586 5.84509 0
M  V30 3411 H 323.07 0.932078 4.7871 0
M  V30 3412 H 322.075 3.21374 4.46093 0
M  V30 3413 H 323.3 3.90869 5.55336 0
M  V30 3414 H 321.246 1.79586 6.3094 0
M  V30 3415 H 321.163 3.47965 6.71161 0
M  V30 3416 H 322.431 2.49861 7.3837 0
M  V30 3417 N 326.66 -1.06551 1.16123 0
M  V30 3418 C 327.888 -1.83005 0.965237 0
M  V30 3419 C 328.303 -1.82423 -0.486542 0
M  V30 3420 O 327.66 -1.24152 -1.33763 0
M  V30 3421 C 327.711 -3.29733 1.48183 0
M  V30 3422 O 327.432 -3.30416 2.87674 0
M  V30 3423 C 328.933 -4.22926 1.32848 0
M  V30 3424 H 326.153 -0.577118 0.342309 0
M  V30 3425 H 328.697 -1.3445 1.54089 0
M  V30 3426 H 326.852 -3.75609 0.948517 0
M  V30 3427 H 327.266 -4.22149 3.11272 0
M  V30 3428 H 328.74 -5.23916 1.73827 0
M  V30 3429 H 329.217 -4.38346 0.273692 0
M  V30 3430 H 329.823 -3.82894 1.85127 0
M  V30 3431 N 328.138 -0.959301 -1.25041 0
M  V30 3432 C 329.048 -0.489994 -2.29426 0
M  V30 3433 C 330.064 0.444944 -1.68215 0
M  V30 3434 O 331.24 0.320046 -1.98841 0
M  V30 3435 C 328.305 0.220309 -3.45999 0
M  V30 3436 C 327.366 -0.753418 -4.22637 0
M  V30 3437 C 326.599 -0.076918 -5.33645 0
M  V30 3438 O 326.822 1.13649 -5.58963 0
M  V30 3439 O 325.756 -0.764824 -5.97021 0
M  V30 3440 H 329.582 -1.35755 -2.71669 0
M  V30 3441 H 327.167 -0.725961 -1.30576 0
M  V30 3442 H 329.049 0.619677 -4.16819 0
M  V30 3443 H 327.724 1.06296 -3.0575 0
M  V30 3444 H 326.631 -1.20308 -3.54227 0
M  V30 3445 H 327.964 -1.56423 -4.66683 0
M  V30 3446 N 329.616 1.39756 -0.72842 0
M  V30 3447 C 330.865 1.99879 -0.270407 0
M  V30 3448 C 331.178 1.58449 1.14688 0
M  V30 3449 O 332.384 2.11362 1.70407 0
M  V30 3450 C 330.84 3.57292 -0.43252 0
M  V30 3451 C 330.448 4.07688 -1.85727 0
M  V30 3452 C 332.192 4.24485 -0.0359507 0
M  V30 3453 C 330.099 5.5765 -1.96928 0
M  V30 3454 H 329.029 0.747689 -0.0973472 0
M  V30 3455 H 331.68 1.59837 -0.901355 0
M  V30 3456 H 330.062 3.95097 0.267219 0
M  V30 3457 H 331.236 3.81231 -2.58843 0
M  V30 3458 H 329.551 3.53135 -2.20646 0
M  V30 3459 H 332.148 5.34609 -0.0987484 0
M  V30 3460 H 332.491 4.03915 1.00787 0
M  V30 3461 H 333.024 3.9183 -0.686604 0
M  V30 3462 H 329.763 5.8309 -2.99476 0
M  V30 3463 H 329.283 5.8593 -1.28241 0
M  V30 3464 H 330.962 6.22957 -1.74737 0
M  V30 3465 N 331.094 0.475555 1.50254 0
M  V30 3466 C 332.004 -0.321501 2.32387 0
M  V30 3467 C 333.02 -0.991755 1.42969 0
M  V30 3468 O 334.196 -0.978747 1.76018 0
M  V30 3469 C 331.261 -1.38667 3.17762 0
M  V30 3470 C 330.322 -0.732538 4.23004 0
M  V30 3471 C 329.555 -1.74695 5.04299 0
M  V30 3472 O 329.778 -2.97399 4.86734 0
M  V30 3473 O 328.712 -1.31631 5.8733 0
M  V30 3474 H 332.538 0.350071 3.01676 0
M  V30 3475 H 330.123 0.237321 1.47503 0
M  V30 3476 H 332.005 -2.00354 3.70724 0
M  V30 3477 H 330.68 -2.04163 2.51196 0
M  V30 3478 H 329.587 -0.0765902 3.74022 0
M  V30 3479 H 330.92 -0.120452 4.92053 0
M  V30 3480 N 332.573 -1.56217 0.208337 0
M  V30 3481 C 333.521 -2.21053 -0.723769 0
M  V30 3482 C 334.515 -1.18578 -1.20978 0
M  V30 3483 O 335.721 -1.36691 -1.17114 0
M  V30 3484 H 332.096 -0.708595 -0.251788 0
M  V30 3485 H 334.067 -2.98006 -0.153365 0
M  V30 3486 C 332.816 -2.89417 -1.927 0
M  V30 3487 H 332.139 -3.68019 -1.56212 0
M  V30 3488 H 333.579 -3.38201 -2.55727 0
M  V30 3489 C 332.038 -1.91166 -2.77411 0
M  V30 3490 O 332.568 -1.42026 -3.75754 0
M  V30 3491 N 330.774 -1.59105 -2.43175 0
M  V30 3492 H 330.321 -1.99259 -1.63259 0
M  V30 3493 H 330.279 -0.936255 -3.00136 0
M  V30 3494 N 334.051 0.0651679 -1.57465 0
M  V30 3495 C 335.297 0.764193 -1.87851 0
M  V30 3496 C 335.63 1.76889 -0.801495 0
M  V30 3497 O 334.905 1.93594 0.187528 0
M  V30 3498 C 335.188 1.46625 -3.28897 0
M  V30 3499 C 335.041 0.477515 -4.47258 0
M  V30 3500 C 336.36 2.4095 -3.68281 0
M  V30 3501 H 333.479 0.276351 -0.683227 0
M  V30 3502 H 336.121 0.0272868 -1.8998 0
M  V30 3503 H 334.271 2.09438 -3.27212 0
M  V30 3504 H 335.943 -0.145922 -4.61069 0
M  V30 3505 H 334.186 -0.206576 -4.33308 0
M  V30 3506 H 334.857 1.0065 -5.42746 0
M  V30 3507 H 337.333 1.88209 -3.71102 0
M  V30 3508 H 336.209 2.87072 -4.67847 0
M  V30 3509 H 336.47 3.26049 -2.98571 0
M  V30 3510 N 335.529 1.53961 0.336706 0
M  V30 3511 C 336.945 1.44378 0.680241 0
M  V30 3512 C 337.145 0.606034 1.9217 0
M  V30 3513 O 336.201 0.099688 2.52303 0
M  V30 3514 C 337.514 2.87945 0.8665 0
M  V30 3515 C 339.062 2.97763 0.964682 0
M  V30 3516 C 339.537 4.42453 1.18321 0
M  V30 3517 N 341.028 4.46008 1.25025 0
M  V30 3518 C 341.763 5.55102 1.43697 0
M  V30 3519 N 341.259 6.7419 1.59498 0
M  V30 3520 N 343.052 5.42727 1.463 0
M  V30 3521 H 335.203 2.06918 -0.479455 0
M  V30 3522 H 337.466 0.935634 -0.152619 0
M  V30 3523 H 337.172 3.51691 0.0256937 0
M  V30 3524 H 337.046 3.33293 1.76623 0
M  V30 3525 H 339.433 2.34153 1.796 0
M  V30 3526 H 339.514 2.55766 0.041708 0
M  V30 3527 H 339.158 5.06645 0.356788 0
M  V30 3528 H 339.088 4.82048 2.11985 0
M  V30 3529 H 341.579 3.60196 1.14312 0
M  V30 3530 H 341.892 7.53095 1.734 0
M  V30 3531 H 340.237 6.77123 1.56621 0
M  V30 3532 H 343.428 4.48647 1.33543 0
M  V30 3533 H 343.601 6.27806 1.6051 0
M  V30 3534 N 337.007 -0.598083 1.45811 0
M  V30 3535 C 337.955 -1.72932 1.55555 0
M  V30 3536 C 338.949 -1.63984 0.424921 0
M  V30 3537 O 340.155 -1.69663 0.601205 0
M  V30 3538 H 336.53 -0.571489 0.488779 0
M  V30 3539 H 338.501 -1.61842 2.50699 0
M  V30 3540 C 337.25 -3.11318 1.54843 0
M  V30 3541 H 336.573 -3.18867 2.41172 0
M  V30 3542 H 338.013 -3.90274 1.65717 0
M  V30 3543 C 336.472 -3.3578 0.274427 0
M  V30 3544 O 337.002 -3.9654 -0.641778 0
M  V30 3545 N 335.208 -2.90119 0.167139 0
M  V30 3546 H 334.755 -2.40855 0.913596 0
M  V30 3547 H 334.713 -3.0686 -0.684435 0
M  V30 3548 N 338.485 -1.33259 -0.841409 0
M  V30 3549 C 339.733 -1.24326 -1.59334 0
M  V30 3550 C 340.054 0.191564 -1.94057 0
M  V30 3551 O 339.324 1.11967 -1.60749 0
M  V30 3552 H 337.904 -0.457174 -0.590763 0
M  V30 3553 H 340.566 -1.66947 -1.00571 0
M  V30 3554 H 339.662 -1.8352 -2.52442 0
M  V30 3555 N 339.963 1.05934 -1.16686 0
M  V30 3556 C 341.191 1.8249 -0.974929 0
M  V30 3557 C 341.606 1.82679 0.476861 0
M  V30 3558 O 340.963 1.2486 1.33103 0
M  V30 3559 C 341.014 3.28943 -1.49929 0
M  V30 3560 O 340.735 3.28886 -2.89423 0
M  V30 3561 C 342.236 4.22215 -1.35089 0
M  V30 3562 H 339.456 0.575295 -0.345365 0
M  V30 3563 H 342 1.33631 -1.548 0
M  V30 3564 H 340.155 3.751 -0.968423 0
M  V30 3565 H 340.569 4.20493 -3.13506 0
M  V30 3566 H 342.043 5.22987 -1.76603 0
M  V30 3567 H 342.52 4.38195 -0.296935 0
M  V30 3568 H 343.126 3.81907 -1.87155 0
M  V30 3569 N 341.441 0.965919 1.2453 0
M  V30 3570 C 342.373 0.452465 2.2469 0
M  V30 3571 C 343.386 -0.437821 1.56802 0
M  V30 3572 O 344.575 -0.244283 1.76821 0
M  V30 3573 C 341.675 -0.366258 3.36915 0
M  V30 3574 C 340.848 0.513701 4.34373 0
M  V30 3575 C 339.907 -0.248716 5.25612 0
M  V30 3576 O 338.933 0.356745 5.68081 0
M  V30 3577 N 340.135 -1.53877 5.59734 0
M  V30 3578 H 342.9 1.31361 2.69378 0
M  V30 3579 H 340.461 0.837541 1.38553 0
M  V30 3580 H 342.453 -0.884297 3.94921 0
M  V30 3581 H 341.023 -1.12832 2.91526 0
M  V30 3582 H 340.243 1.21273 3.75082 0
M  V30 3583 H 341.531 1.11391 4.96457 0
M  V30 3584 H 340.929 -2.05243 5.27154 0
M  V30 3585 H 339.486 -2.00254 6.20275 0
M  V30 3586 N 342.919 -1.39368 0.735821 0
M  V30 3587 C 344.165 -2.00794 0.284544 0
M  V30 3588 C 344.498 -1.58255 -1.12557 0
M  V30 3589 O 343.773 -0.811819 -1.76748 0
M  V30 3590 C 344.056 -3.58011 0.387337 0
M  V30 3591 C 343.909 -4.10566 1.83728 0
M  V30 3592 C 345.228 -4.395 -0.22975 0
M  V30 3593 H 342.347 -0.729501 0.104866 0
M  V30 3594 H 344.989 -1.65564 0.93213 0
M  V30 3595 H 343.139 -3.88154 -0.164006 0
M  V30 3596 H 344.811 -3.91139 2.44556 0
M  V30 3597 H 343.054 -3.64095 2.35833 0
M  V30 3598 H 343.725 -5.19702 1.86047 0
M  V30 3599 H 346.201 -4.15406 0.240257 0
M  V30 3600 H 345.077 -5.48752 -0.127485 0
M  V30 3601 H 345.338 -4.22062 -1.3159 0
M  V30 3602 N 344.397 -0.483516 -1.5 0
M  V30 3603 C 345.813 -0.138404 -1.58999 0
M  V30 3604 C 346.013 1.35597 -1.4905 0
M  V30 3605 O 345.069 2.13039 -1.35539 0
M  V30 3606 C 346.382 -0.699658 -2.92447 0
M  V30 3607 C 347.93 -0.664195 -3.05872 0
M  V30 3608 C 348.405 -1.20321 -4.41913 0
M  V30 3609 N 349.896 -1.16315 -4.48358 0
M  V30 3610 C 350.631 -1.55058 -5.52037 0
M  V30 3611 N 350.127 -2.01311 -6.62907 0
M  V30 3612 N 351.92 -1.46584 -5.42651 0
M  V30 3613 H 344.071 -1.45529 -1.5471 0
M  V30 3614 H 346.334 -0.60258 -0.731848 0
M  V30 3615 H 346.04 -1.747 -3.05242 0
M  V30 3616 H 345.914 -0.150194 -3.76901 0
M  V30 3617 H 348.301 0.374272 -2.92717 0
M  V30 3618 H 348.382 -1.25061 -2.23144 0
M  V30 3619 H 348.026 -2.24037 -4.55818 0
M  V30 3620 H 347.956 -0.592896 -5.23252 0
M  V30 3621 H 350.447 -0.824058 -3.68806 0
M  V30 3622 H 350.76 -2.2899 -7.38095 0
M  V30 3623 H 349.105 -2.05273 -6.63994 0
M  V30 3624 H 352.296 -1.10281 -4.54924 0
M  V30 3625 H 352.469 -1.77103 -6.23329 0
M  V30 3626 N 345.875 1.56104 -0.216619 0
M  V30 3627 C 347.105 2.02269 0.420802 0
M  V30 3628 C 347.513 1.09575 1.5424 0
M  V30 3629 O 346.856 0.0967308 1.83445 0
M  V30 3630 C 346.918 3.44784 1.01806 0
M  V30 3631 C 346.582 4.56988 0.0325154 0
M  V30 3632 C 347.579 5.14225 -0.766055 0
M  V30 3633 C 345.264 5.02228 -0.0848092 0
M  V30 3634 C 347.258 6.15169 -1.6687 0
M  V30 3635 C 344.945 6.03011 -0.990994 0
M  V30 3636 C 345.943 6.59357 -1.78149 0
M  V30 3637 O 345.631 7.58179 -2.67245 0
M  V30 3638 H 345.363 0.667353 0.107776 0
M  V30 3639 H 347.917 2.02747 -0.329034 0
M  V30 3640 H 346.147 3.41359 1.81689 0
M  V30 3641 H 347.836 3.74626 1.56237 0
M  V30 3642 H 348.602 4.80126 -0.685836 0
M  V30 3643 H 344.481 4.58054 0.520349 0
M  V30 3644 H 348.025 6.59076 -2.28615 0
M  V30 3645 H 343.922 6.36532 -1.07225 0
M  V30 3646 H 344.69 7.75682 -2.61265 0
M  V30 3647 N 347.353 -0.0568162 1.57498 0
M  V30 3648 C 348.583 -0.764515 1.91934 0
M  V30 3649 C 348.991 -1.70877 0.81227 0
M  V30 3650 O 348.334 -1.82351 -0.222213 0
M  V30 3651 C 348.396 -1.5994 3.21962 0
M  V30 3652 C 348.06 -0.822925 4.4953 0
M  V30 3653 C 349.057 -0.135464 5.19723 0
M  V30 3654 C 346.742 -0.785666 4.96117 0
M  V30 3655 C 348.736 0.578861 6.34766 0
M  V30 3656 C 346.423 -0.0675784 6.11063 0
M  V30 3657 C 347.421 0.613471 6.80239 0
M  V30 3658 O 347.109 1.31996 7.92989 0
M  V30 3659 H 346.841 -0.221647 0.63863 0
M  V30 3660 H 349.395 -0.0268218 2.05382 0
M  V30 3661 H 347.625 -2.38026 3.04763 0
M  V30 3662 H 349.314 -2.18715 3.41934 0
M  V30 3663 H 350.08 -0.155458 4.84751 0
M  V30 3664 H 345.959 -1.30524 4.42136 0
M  V30 3665 H 349.503 1.111 6.88696 0
M  V30 3666 H 345.4 -0.0455636 6.45484 0
M  V30 3667 H 346.168 1.23077 8.09194 0
M  V30 3668 N 348.832 -1.54138 -0.328536 0
M  V30 3669 C 350.248 -1.44736 -0.672574 0
M  V30 3670 C 350.448 -0.616217 -1.91846 0
M  V30 3671 O 349.504 -0.113067 -2.52247 0
M  V30 3672 C 350.817 -2.884 -0.851217 0
M  V30 3673 C 352.365 -2.98271 -0.948877 0
M  V30 3674 C 352.84 -4.43074 -1.15973 0
M  V30 3675 N 354.331 -4.46665 -1.22658 0
M  V30 3676 C 355.066 -5.55857 -1.40751 0
M  V30 3677 N 354.562 -6.75026 -1.5592 0
M  V30 3678 N 356.355 -5.43495 -1.4342 0
M  V30 3679 H 348.506 -2.06661 0.490421 0
M  V30 3680 H 350.769 -0.934812 0.157579 0
M  V30 3681 H 350.475 -3.51699 -0.00704236 0
M  V30 3682 H 350.349 -3.34225 -1.74853 0
M  V30 3683 H 352.736 -2.35102 -1.78356 0
M  V30 3684 H 352.817 -2.55785 -0.0281435 0
M  V30 3685 H 352.461 -5.06827 -0.329915 0
M  V30 3686 H 352.391 -4.83165 -2.09426 0
M  V30 3687 H 354.882 -3.60797 -1.124 0
M  V30 3688 H 355.195 -7.54004 -1.69404 0
M  V30 3689 H 353.54 -6.77944 -1.53027 0
M  V30 3690 H 356.731 -4.49349 -1.31162 0
M  V30 3691 H 356.904 -6.28649 -1.57178 0
M  V30 3692 N 350.31 0.590341 -1.46126 0
M  V30 3693 C 351.22 1.72793 -1.58681 0
M  V30 3694 C 352.236 1.67516 -0.470566 0
M  V30 3695 O 353.412 1.87562 -0.733642 0
M  V30 3696 C 350.477 3.09287 -1.5666 0
M  V30 3697 C 349.538 3.25886 -2.79458 0
M  V30 3698 C 348.771 4.55869 -2.77524 0
M  V30 3699 O 348.994 5.3928 -1.85832 0
M  V30 3700 O 347.928 4.75552 -3.68964 0
M  V30 3701 H 351.754 1.65149 -2.54872 0
M  V30 3702 H 349.339 0.756486 -1.28832 0
M  V30 3703 H 351.221 3.90577 -1.58202 0
M  V30 3704 H 349.896 3.17385 -0.636271 0
M  V30 3705 H 348.803 2.44119 -2.83472 0
M  V30 3706 H 350.136 3.22675 -3.71674 0
M  V30 3707 N 351.788 1.33704 0.83433 0
M  V30 3708 C 352.751 1.24244 1.92603 0
M  V30 3709 C 353.751 0.160383 1.59998 0
M  V30 3710 O 354.941 0.412228 1.69252 0
M  V30 3711 C 352.073 0.91555 3.28376 0
M  V30 3712 H 353.266 2.21287 2.02416 0
M  V30 3713 H 350.819 1.17827 1.02696 0
M  V30 3714 H 351.554 -0.0521886 3.24258 0
M  V30 3715 H 351.339 1.69811 3.53422 0
M  V30 3716 H 352.829 0.874231 4.08347 0
M  V30 3717 N 353.266 -1.05314 1.17247 0
M  V30 3718 C 354.176 -2.16538 0.90268 0
M  V30 3719 C 355.192 -1.73523 -0.128707 0
M  V30 3720 O 356.368 -2.01337 0.0502701 0
M  V30 3721 C 353.433 -3.44167 0.418356 0
M  V30 3722 C 352.494 -4.01635 1.51618 0
M  V30 3723 C 351.727 -5.23171 1.05487 0
M  V30 3724 O 351.95 -5.70327 -0.0914715 0
M  V30 3725 O 350.884 -5.72848 1.8474 0
M  V30 3726 H 354.71 -2.42145 1.83302 0
M  V30 3727 H 352.295 -1.15037 0.953246 0
M  V30 3728 H 354.177 -4.21112 0.155726 0
M  V30 3729 H 352.852 -3.20063 -0.48385 0
M  V30 3730 H 351.759 -3.26135 1.83268 0
M  V30 3731 H 353.092 -4.30053 2.39405 0
M  V30 3732 N 354.744 -0.972509 -1.24016 0
M  V30 3733 C 355.972 -0.654803 -1.96265 0
M  V30 3734 C 356.387 0.776708 -1.72083 0
M  V30 3735 O 355.744 1.52171 -1.00748 0
M  V30 3736 C 355.795 -0.92592 -3.49441 0
M  V30 3737 O 355.516 -2.30116 -3.72798 0
M  V30 3738 C 357.017 -0.623068 -4.38899 0
M  V30 3739 H 354.237 -0.243907 -0.6251 0
M  V30 3740 H 356.781 -1.30175 -1.57717 0
M  V30 3741 H 354.936 -0.325108 -3.86033 0
M  V30 3742 H 355.35 -2.38483 -4.67147 0
M  V30 3743 H 356.824 -0.863189 -5.45209 0
M  V30 3744 H 357.301 0.442754 -4.36963 0
M  V30 3745 H 357.907 -1.204 -4.07902 0
M  V30 3746 N 356.222 1.38976 -0.743202 0
M  V30 3747 C 357.132 2.3434 -0.110399 0
M  V30 3748 C 358.148 1.58741 0.712559 0
M  V30 3749 O 359.324 1.9099 0.639125 0
M  V30 3750 C 356.389 3.37812 0.780012 0
M  V30 3751 C 355.45 4.29263 -0.0561319 0
M  V30 3752 C 354.683 5.27793 0.791875 0
M  V30 3753 O 354.906 5.33043 2.03031 0
M  V30 3754 O 353.84 6.01512 0.216183 0
M  V30 3755 H 357.666 2.90129 -0.897714 0
M  V30 3756 H 355.251 1.40643 -0.503966 0
M  V30 3757 H 357.133 4.01194 1.28923 0
M  V30 3758 H 355.808 2.84395 1.546 0
M  V30 3759 H 354.715 3.69076 -0.611056 0
M  V30 3760 H 356.048 4.85907 -0.784531 0
M  V30 3761 N 357.7 0.491464 1.49741 0
M  V30 3762 C 358.663 -0.280906 2.27472 0
M  V30 3763 C 359.663 -0.902454 1.33088 0
M  V30 3764 O 360.853 -0.768465 1.56334 0
M  V30 3765 C 357.985 -1.40209 3.10732 0
M  V30 3766 H 359.178 0.401056 2.97206 0
M  V30 3767 H 356.731 0.246131 1.5435 0
M  V30 3768 H 357.466 -2.11849 2.45541 0
M  V30 3769 H 357.251 -0.961969 3.80117 0
M  V30 3770 H 358.741 -1.9464 3.69466 0
M  V30 3771 N 359.178 -1.55987 0.224894 0
M  V30 3772 C 360.425 -1.9839 -0.4059 0
M  V30 3773 C 360.753 -1.11261 -1.59535 0
M  V30 3774 O 360.008 -0.158314 -1.95059 0
M  V30 3775 C 360.307 -3.46394 -0.880106 0
M  V30 3776 C 359.973 -4.5046 0.19918 0
M  V30 3777 C 358.635 -4.7864 0.495661 0
M  V30 3778 C 360.987 -5.12855 0.928939 0
M  V30 3779 C 358.315 -5.66497 1.52636 0
M  V30 3780 C 360.667 -6.01828 1.949 0
M  V30 3781 C 359.331 -6.28351 2.25236 0
M  V30 3782 H 358.601 -0.725961 -0.148529 0
M  V30 3783 H 361.248 -1.88668 0.328113 0
M  V30 3784 H 359.553 -3.53337 -1.69294 0
M  V30 3785 H 361.25 -3.76577 -1.37808 0
M  V30 3786 H 357.84 -4.28579 -0.0420526 0
M  V30 3787 H 362.024 -4.9115 0.713129 0
M  V30 3788 H 357.28 -5.8531 1.76698 0
M  V30 3789 H 361.454 -6.49225 2.51951 0
M  V30 3790 H 359.081 -6.96226 3.05244 0
M  V30 3791 N 360.656 0.0484629 -1.57525 0
M  V30 3792 C 361.586 1.0549 -2.08313 0
M  V30 3793 C 362.567 1.38929 -0.981463 0
M  V30 3794 O 363.752 1.48151 -1.25558 0
M  V30 3795 C 360.882 2.36162 -2.54646 0
M  V30 3796 C 359.836 2.17016 -3.68901 0
M  V30 3797 C 359.162 3.53278 -4.01371 0
M  V30 3798 C 360.462 1.57219 -4.98076 0
M  V30 3799 H 362.156 0.632195 -2.92649 0
M  V30 3800 H 359.702 0.302654 -1.40784 0
M  V30 3801 H 361.655 3.06882 -2.88793 0
M  V30 3802 H 360.379 2.80456 -1.67368 0
M  V30 3803 H 359.038 1.48733 -3.35073 0
M  V30 3804 H 358.686 3.95185 -3.11188 0
M  V30 3805 H 358.386 3.41299 -4.78318 0
M  V30 3806 H 359.91 4.25391 -4.38035 0
M  V30 3807 H 361.324 2.17832 -5.30304 0
M  V30 3808 H 359.721 1.55871 -5.79503 0
M  V30 3809 H 360.791 0.535956 -4.81929 0
M  V30 3810 N 362.134 1.5431 0.320358 0
M  V30 3811 C 363.362 1.76636 1.07738 0
M  V30 3812 C 363.777 0.51649 1.81598 0
M  V30 3813 O 363.134 -0.512942 1.75143 0
M  V30 3814 C 363.185 2.96158 2.07299 0
M  V30 3815 O 362.906 4.16313 1.36438 0
M  V30 3816 C 364.407 3.3072 2.95193 0
M  V30 3817 H 361.627 0.589597 0.320339 0
M  V30 3818 H 364.171 2.01207 0.36551 0
M  V30 3819 H 362.326 2.73851 2.74016 0
M  V30 3820 H 362.74 4.83565 2.03138 0
M  V30 3821 H 364.214 4.17643 3.60941 0
M  V30 3822 H 364.691 2.48026 3.62463 0
M  V30 3823 H 365.297 3.55117 2.34034 0
M  V30 3824 N 363.613 -0.582584 1.46437 0
M  V30 3825 C 364.843 -1.36484 1.55099 0
M  V30 3826 C 365.251 -1.88233 0.191056 0
M  V30 3827 O 364.594 -1.6429 -0.821858 0
M  V30 3828 C 364.656 -2.588 2.49525 0
M  V30 3829 C 364.32 -2.28517 3.95764 0
M  V30 3830 C 365.317 -1.87346 4.84972 0
M  V30 3831 C 363.002 -2.40658 4.40896 0
M  V30 3832 C 364.996 -1.5871 6.17325 0
M  V30 3833 C 362.683 -2.11635 5.73284 0
M  V30 3834 C 363.681 -1.70725 6.61318 0
M  V30 3835 O 363.369 -1.42057 7.91249 0
M  V30 3836 H 363.101 -0.423297 0.527063 0
M  V30 3837 H 365.655 -0.715188 1.92547 0
M  V30 3838 H 363.885 -3.26571 2.07095 0
M  V30 3839 H 365.574 -3.20868 2.48593 0
M  V30 3840 H 366.34 -1.77481 4.5136 0
M  V30 3841 H 362.219 -2.71463 3.72598 0
M  V30 3842 H 365.763 -1.26704 6.85997 0
M  V30 3843 H 361.66 -2.21124 6.06444 0
M  V30 3844 H 362.428 -1.55901 8.03515 0
M  V30 3845 N 365.091 -1.34144 -0.827227 0
M  V30 3846 C 366.34 -1.25602 -1.5782 0
M  V30 3847 C 366.653 0.173445 -1.94829 0
M  V30 3848 O 367.859 0.380984 -2.68814 0
M  V30 3849 C 366.315 -2.20151 -2.84713 0
M  V30 3850 C 365.923 -3.68331 -2.55021 0
M  V30 3851 C 367.667 -2.20508 -3.62735 0
M  V30 3852 C 365.574 -4.54762 -3.78082 0
M  V30 3853 H 364.504 -0.466573 -0.592306 0
M  V30 3854 H 367.155 -1.59283 -0.911116 0
M  V30 3855 H 365.537 -1.79417 -3.53023 0
M  V30 3856 H 366.711 -4.17577 -1.94849 0
M  V30 3857 H 365.026 -3.7038 -1.90283 0
M  V30 3858 H 367.623 -2.82306 -4.54101 0
M  V30 3859 H 367.966 -1.20322 -3.98533 0
M  V30 3860 H 368.499 -2.59664 -3.01362 0
M  V30 3861 H 365.238 -5.55867 -3.47407 0
M  V30 3862 H 364.758 -4.10254 -4.37552 0
M  V30 3863 H 366.437 -4.69153 -4.45538 0
M  V30 3864 N 366.569 1.04691 -1.17803 0
M  V30 3865 C 367.479 2.16057 -0.914151 0
M  V30 3866 C 368.495 1.73589 0.119503 0
M  V30 3867 O 369.671 2.01308 -0.0609468 0
M  V30 3868 C 366.736 3.4394 -0.436603 0
M  V30 3869 C 365.797 4.00825 -1.53746 0
M  V30 3870 C 365.03 5.22604 -1.0826 0
M  V30 3871 O 365.253 5.70367 0.0612244 0
M  V30 3872 O 364.187 5.7186 -1.87775 0
M  V30 3873 H 368.013 2.41169 -1.84584 0
M  V30 3874 H 365.598 1.1453 -0.959334 0
M  V30 3875 H 367.48 4.21024 -0.178057 0
M  V30 3876 H 366.155 3.20316 0.466869 0
M  V30 3877 H 365.062 3.25158 -1.84995 0
M  V30 3878 H 366.395 4.28778 -2.41683 0
M  V30 3879 N 368.047 0.979072 1.23499 0
M  V30 3880 C 369.295 0.645941 1.91499 0
M  V30 3881 C 369.616 -0.822948 1.76784 0
M  V30 3882 O 368.886 -1.58854 1.14639 0
M  V30 3883 H 367.466 0.235919 0.708767 0
M  V30 3884 H 370.128 1.2426 1.50152 0
M  V30 3885 H 369.224 0.896411 2.9895 0
M  V30 3886 N 369.525 -1.3858 0.750561 0
M  V30 3887 C 370.771 -2.00481 0.305825 0
M  V30 3888 C 371.104 -1.5944 -1.10872 0
M  V30 3889 O 370.379 -0.83052 -1.75877 0
M  V30 3890 C 370.662 -3.5758 0.425287 0
M  V30 3891 C 370.515 -4.08594 1.88072 0
M  V30 3892 C 371.834 -4.39719 -0.183122 0
M  V30 3893 H 368.953 -0.728348 0.112598 0
M  V30 3894 H 371.595 -1.64566 0.949638 0
M  V30 3895 H 369.745 -3.88306 -0.122828 0
M  V30 3896 H 371.417 -3.88523 2.48691 0
M  V30 3897 H 369.66 -3.61574 2.39681 0
M  V30 3898 H 370.331 -5.177 1.91548 0
M  V30 3899 H 372.807 -4.15128 0.284303 0
M  V30 3900 H 371.683 -5.48856 -0.0692757 0
M  V30 3901 H 371.944 -4.23434 -1.27106 0
M  V30 3902 N 371.003 -0.499398 -1.49478 0
M  V30 3903 C 372.243 0.0440751 -2.04352 0
M  V30 3904 C 372.607 1.34423 -1.37093 0
M  V30 3905 O 373.808 1.97184 -1.82679 0
M  V30 3906 C 372.079 0.194918 -3.56868 0
M  V30 3907 S 373.638 0.69287 -4.33295 0
M  V30 3908 H 370.456 0.00253458 -0.710995 0
M  V30 3909 H 373.058 -0.673 -1.83551 0
M  V30 3910 H 371.762 -0.756672 -4.03364 0
M  V30 3911 H 371.293 0.93728 -3.82071 0
M  V30 3912 H 373.308 1.96226 -4.55752 0
M  V30 3913 N 372.481 1.55866 -0.233164 0
M  V30 3914 C 373.727 1.98897 0.395959 0
M  V30 3915 C 374.06 1.12091 1.58585 0
M  V30 3916 O 373.335 0.181182 1.93654 0
M  V30 3917 C 373.618 3.50658 0.819224 0
M  V30 3918 C 373.471 4.48233 -0.375109 0
M  V30 3919 C 374.79 4.07135 1.67121 0
M  V30 3920 H 371.909 0.723102 0.142451 0
M  V30 3921 H 374.551 1.87082 -0.331725 0
M  V30 3922 H 372.701 3.60857 1.43925 0
M  V30 3923 H 374.373 4.50031 -1.01341 0
M  V30 3924 H 372.616 4.21624 -1.02058 0
M  V30 3925 H 373.287 5.51988 -0.0358328 0
M  V30 3926 H 375.763 3.99952 1.14795 0
M  V30 3927 H 374.639 5.13615 1.93625 0
M  V30 3928 H 374.9 3.54736 2.63846 0
M  V30 3929 N 373.959 -0.0401083 1.57549 0
M  V30 3930 C 375.205 -0.734211 1.89043 0
M  V30 3931 C 375.538 -1.75591 0.829535 0
M  V30 3932 O 374.813 -1.93868 -0.156706 0
M  V30 3933 C 375.096 -1.41374 3.31188 0
M  V30 3934 C 374.949 -0.406299 4.47961 0
M  V30 3935 C 376.268 -2.35061 3.72068 0
M  V30 3936 H 373.387 -0.265447 0.687537 0
M  V30 3937 H 376.029 0.00294087 1.9 0
M  V30 3938 H 374.179 -2.04206 3.30503 0
M  V30 3939 H 375.851 0.219255 4.60779 0
M  V30 3940 H 374.094 0.275485 4.32924 0
M  V30 3941 H 374.765 -0.920022 5.44279 0
M  V30 3942 H 377.241 -1.82282 3.74049 0
M  V30 3943 H 376.117 -2.79593 4.72355 0
M  V30 3944 H 376.378 -3.21258 3.0372 0
M  V30 3945 N 375.437 -1.54477 -0.31217 0
M  V30 3946 C 376.683 -1.74417 -1.04644 0
M  V30 3947 C 377.038 -0.517641 -1.85306 0
M  V30 3948 O 376.331 0.489973 -1.85229 0
M  V30 3949 C 376.525 -2.967 -1.99258 0
M  V30 3950 C 376.354 -4.31128 -1.27901 0
M  V30 3951 C 375.124 -4.95087 -1.01079 0
M  V30 3952 C 377.322 -5.09662 -0.689119 0
M  V30 3953 N 375.304 -6.13322 -0.266323 0
M  V30 3954 C 376.675 -6.19952 -0.0768523 0
M  V30 3955 C 378.73 -4.94355 -0.593061 0
M  V30 3956 C 377.433 -7.16604 0.622165 0
M  V30 3957 C 379.459 -5.91328 0.0922792 0
M  V30 3958 C 378.821 -7.00978 0.693443 0
M  V30 3959 H 374.92 -0.69094 -0.366231 0
M  V30 3960 H 377.504 -1.91946 -0.326319 0
M  V30 3961 H 375.675 -2.80616 -2.68532 0
M  V30 3962 H 377.407 -3.05216 -2.65755 0
M  V30 3963 H 374.162 -4.55235 -1.30607 0
M  V30 3964 H 374.586 -6.76937 0.0920973 0
M  V30 3965 H 379.228 -4.09719 -1.04355 0
M  V30 3966 H 376.946 -8.0079 1.08445 0
M  V30 3967 H 380.532 -5.81562 0.166396 0
M  V30 3968 H 379.412 -7.74725 1.21533 0
M  V30 3969 N 376.915 0.57481 -1.46744 0
M  V30 3970 C 378.162 1.33272 -1.52462 0
M  V30 3971 C 378.49 1.93669 -0.179572 0
M  V30 3972 O 377.745 1.7743 0.825664 0
M  V30 3973 C 378.044 2.476 -2.57738 0
M  V30 3974 C 377.71 2.05146 -4.01529 0
M  V30 3975 C 376.372 1.93284 -4.40676 0
M  V30 3976 C 378.724 1.72506 -4.91824 0
M  V30 3977 C 376.052 1.47049 -5.67973 0
M  V30 3978 C 378.404 1.27748 -6.19567 0
M  V30 3979 C 377.068 1.14468 -6.57612 0
M  V30 3980 H 376.338 0.487678 -0.557899 0
M  V30 3981 H 378.985 0.646456 -1.80259 0
M  V30 3982 H 377.29 3.21708 -2.23632 0
M  V30 3983 H 378.987 3.05807 -2.5939 0
M  V30 3984 H 375.577 2.15316 -3.7059 0
M  V30 3985 H 379.761 1.80552 -4.62293 0
M  V30 3986 H 375.017 1.35417 -5.96215 0
M  V30 3987 H 379.191 1.01547 -6.88957 0
M  V30 3988 H 376.818 0.78419 -7.56145 0
M  V30 3989 N 378.394 1.34581 0.820102 0
M  V30 3990 C 379.622 1.3018 1.60813 0
M  V30 3991 C 380.037 -0.123551 1.88395 0
M  V30 3992 O 379.394 -1.07148 1.47735 0
M  V30 3993 C 379.445 2.09312 2.94739 0
M  V30 3994 O 379.166 3.46288 2.68358 0
M  V30 3995 C 380.667 2.1234 3.89136 0
M  V30 3996 H 377.887 0.447726 0.499782 0
M  V30 3997 H 380.431 1.77237 1.02017 0
M  V30 3998 H 378.586 1.65889 3.50085 0
M  V30 3999 H 379 3.87227 3.53774 0
M  V30 4000 H 380.474 2.72126 4.80262 0
M  V30 4001 H 380.951 1.11854 4.24718 0
M  V30 4002 H 381.557 2.55864 3.39726 0
M  V30 4003 N 379.872 -1.04064 1.18357 0
M  V30 4004 C 381.119 -1.77265 0.978947 0
M  V30 4005 C 381.447 -1.88189 -0.491428 0
M  V30 4006 O 380.702 -1.38653 -1.38108 0
M  V30 4007 C 381.001 -3.20634 1.57888 0
M  V30 4008 C 380.667 -3.29743 3.07539 0
M  V30 4009 C 379.329 -3.31937 3.48384 0
M  V30 4010 C 381.681 -3.29841 4.03552 0
M  V30 4011 C 379.009 -3.3187 4.83818 0
M  V30 4012 C 381.361 -3.31313 5.38901 0
M  V30 4013 C 380.025 -3.31799 5.79194 0
M  V30 4014 H 379.295 -0.648659 0.358222 0
M  V30 4015 H 381.942 -1.22225 1.47422 0
M  V30 4016 H 380.247 -3.78675 1.00561 0
M  V30 4017 H 381.944 -3.75917 1.39598 0
M  V30 4018 H 378.534 -3.28757 2.74986 0
M  V30 4019 H 382.718 -3.27337 3.73047 0
M  V30 4020 H 377.974 -3.30562 5.14333 0
M  V30 4021 H 382.148 -3.30338 6.13066 0
M  V30 4022 H 379.775 -3.315 6.84114 0
M  V30 4023 N 381.35 -0.985608 -1.22978 0
M  V30 4024 C 382.26 -0.538548 -2.28335 0
M  V30 4025 C 383.276 0.409163 -1.69121 0
M  V30 4026 O 384.452 0.277797 -1.99475 0
M  V30 4027 C 381.517 0.146867 -3.46389 0
M  V30 4028 C 380.578 -0.842896 -4.20944 0
M  V30 4029 C 379.811 -0.190095 -5.33361 0
M  V30 4030 O 380.034 1.01767 -5.61248 0
M  V30 4031 O 378.968 -0.891289 -5.95264 0
M  V30 4032 H 382.794 -1.41487 -2.68729 0
M  V30 4033 H 380.379 -0.753495 -1.29007 0
M  V30 4034 H 382.261 0.531125 -4.1804 0
M  V30 4035 H 380.936 0.997871 -3.07935 0
M  V30 4036 H 379.843 -1.27795 -3.51595 0
M  V30 4037 H 381.176 -1.66287 -4.6326 0
M  V30 4038 N 382.828 1.3818 -0.7579 0
M  V30 4039 C 384.075 2.00019 -0.315985 0
M  V30 4040 C 384.403 1.60163 1.10355 0
M  V30 4041 O 383.658 0.83264 1.77103 0
M  V30 4042 C 383.957 3.55252 -0.391218 0
M  V30 4043 C 383.623 4.14834 -1.76702 0
M  V30 4044 C 382.285 4.30821 -2.14353 0
M  V30 4045 C 384.637 4.47658 -2.66931 0
M  V30 4046 C 381.965 4.76928 -3.41696 0
M  V30 4047 C 384.317 4.95184 -3.93669 0
M  V30 4048 C 382.981 5.09377 -4.31383 0
M  V30 4049 H 382.251 0.731923 -0.115627 0
M  V30 4050 H 384.898 1.65161 -0.969223 0
M  V30 4051 H 383.203 3.90273 0.34558 0
M  V30 4052 H 384.9 4.00988 -0.030805 0
M  V30 4053 H 381.49 4.02808 -1.46435 0
M  V30 4054 H 385.674 4.34904 -2.39106 0
M  V30 4055 H 380.93 4.86103 -3.70829 0
M  V30 4056 H 385.104 5.19551 -4.63724 0
M  V30 4057 H 382.731 5.44865 -5.30119 0
M  V30 4058 N 384.306 0.507319 1.49211 0
M  V30 4059 C 385.236 -0.256939 2.32082 0
M  V30 4060 C 386.217 -0.956609 1.40652 0
M  V30 4061 O 387.402 -0.946788 1.69557 0
M  V30 4062 C 384.532 -1.31802 3.21318 0
M  V30 4063 C 383.486 -0.737855 4.21592 0
M  V30 4064 C 382.812 -1.89992 4.99807 0
M  V30 4065 C 384.112 0.275325 5.21574 0
M  V30 4066 H 385.806 0.434798 2.96226 0
M  V30 4067 H 383.352 0.210546 1.42452 0
M  V30 4068 H 385.305 -1.86045 3.78107 0
M  V30 4069 H 384.029 -2.03903 2.5513 0
M  V30 4070 H 382.688 -0.217126 3.65956 0
M  V30 4071 H 382.336 -2.60877 4.30061 0
M  V30 4072 H 382.036 -1.51777 5.6766 0
M  V30 4073 H 383.56 -2.44657 5.59442 0
M  V30 4074 H 384.974 -0.179193 5.7302 0
M  V30 4075 H 383.371 0.573649 5.97352 0
M  V30 4076 H 384.441 1.18903 4.70096 0
M  V30 4077 N 385.784 -1.5574 0.241426 0
M  V30 4078 C 386.717 -2.17168 -0.700935 0
M  V30 4079 C 387.695 -1.12206 -1.1768 0
M  V30 4080 O 388.879 -1.40565 -1.25593 0
M  V30 4081 C 386.006 -2.76796 -1.95196 0
M  V30 4082 C 385.052 -3.94764 -1.61442 0
M  V30 4083 S 385.885 -5.30613 -0.72182 0
M  V30 4084 C 387.041 -5.93691 -1.98197 0
M  V30 4085 H 387.274 -2.96761 -0.178882 0
M  V30 4086 H 384.807 -1.54378 0.0259299 0
M  V30 4087 H 386.765 -3.11787 -2.67019 0
M  V30 4088 H 385.426 -1.9716 -2.44514 0
M  V30 4089 H 384.619 -4.35057 -2.54443 0
M  V30 4090 H 384.221 -3.61022 -0.976672 0
M  V30 4091 H 386.513 -6.10874 -2.92983 0
M  V30 4092 H 387.456 -6.89258 -1.62262 0
M  V30 4093 H 387.864 -5.22709 -2.13156 0
M  V30 4094 N 387.262 0.0317525 -1.57568 0
M  V30 4095 C 388.678 0.38735 -1.54828 0
M  V30 4096 C 388.878 1.7677 -0.967187 0
M  V30 4097 O 387.934 2.45581 -0.587063 0
M  V30 4098 C 389.247 0.291667 -2.99282 0
M  V30 4099 C 390.795 0.368946 -3.10818 0
M  V30 4100 C 391.27 0.302741 -4.56998 0
M  V30 4101 N 392.761 0.361617 -4.61786 0
M  V30 4102 C 393.496 0.333238 -5.72431 0
M  V30 4103 N 392.992 0.257308 -6.92322 0
M  V30 4104 N 394.785 0.382769 -5.60795 0
M  V30 4105 H 386.936 -0.871609 -1.93692 0
M  V30 4106 H 389.199 -0.331161 -0.888277 0
M  V30 4107 H 388.905 -0.656794 -3.45513 0
M  V30 4108 H 388.779 1.08638 -3.61217 0
M  V30 4109 H 391.166 1.30784 -2.64536 0
M  V30 4110 H 391.247 -0.455066 -2.5172 0
M  V30 4111 H 390.891 -0.632473 -5.03947 0
M  V30 4112 H 390.821 1.14482 -5.14005 0
M  V30 4113 H 393.312 0.422923 -3.75526 0
M  V30 4114 H 393.625 0.24068 -7.72425 0
M  V30 4115 H 391.97 0.223396 -6.94641 0
M  V30 4116 H 395.161 0.44006 -4.66027 0
M  V30 4117 H 395.334 0.357184 -6.47015 0
M  V30 4118 N 388.74 1.54641 0.303973 0
M  V30 4119 C 389.986 1.74038 1.04109 0
M  V30 4120 C 390.319 0.523051 1.87024 0
M  V30 4121 O 389.594 -0.479874 1.88487 0
M  V30 4122 C 389.877 3.02761 1.94955 0
M  V30 4123 C 389.73 4.34787 1.1524 0
M  V30 4124 C 391.049 3.27336 2.94175 0
M  V30 4125 H 388.168 0.63323 0.377079 0
M  V30 4126 H 390.81 1.87354 0.316001 0
M  V30 4127 H 388.96 2.9154 2.56782 0
M  V30 4128 H 390.632 4.57922 0.557236 0
M  V30 4129 H 388.875 4.31407 0.455053 0
M  V30 4130 H 389.546 5.21116 1.8205 0
M  V30 4131 H 392.022 3.38148 2.42477 0
M  V30 4132 H 390.898 4.18726 3.54908 0
M  V30 4133 H 391.159 2.45491 3.67677 0
M  V30 4134 N 390.218 -0.567019 1.47046 0
M  V30 4135 C 391.467 -1.32091 1.5243 0
M  V30 4136 C 391.78 -1.94704 0.187021 0
M  V30 4137 O 392.986 -2.7124 0.118771 0
M  V30 4138 C 391.442 -2.39479 2.68659 0
M  V30 4139 C 391.05 -1.831 4.08874 0
M  V30 4140 C 392.794 -3.16111 2.83327 0
M  V30 4141 C 390.701 -2.8821 5.16419 0
M  V30 4142 H 389.631 -0.496629 0.56734 0
M  V30 4143 H 392.282 -0.603354 1.73297 0
M  V30 4144 H 390.664 -3.14105 2.41152 0
M  V30 4145 H 391.838 -1.14913 4.46242 0
M  V30 4146 H 390.153 -1.19085 3.99008 0
M  V30 4147 H 392.75 -3.94585 3.60842 0
M  V30 4148 H 393.093 -3.69686 1.91411 0
M  V30 4149 H 393.626 -2.48595 3.10556 0
M  V30 4150 H 390.365 -2.39504 6.10179 0
M  V30 4151 H 389.885 -3.54839 4.8358 0
M  V30 4152 H 391.564 -3.51881 5.42945 0
M  V30 4153 N 391.696 -1.35014 -0.812953 0
M  V30 4154 C 392.943 -1.27931 -1.56971 0
M  V30 4155 C 393.271 0.148034 -1.93936 0
M  V30 4156 O 392.526 1.11175 -1.61054 0
M  V30 4157 C 392.825 -2.12524 -2.87347 0
M  V30 4158 C 392.491 -3.61401 -2.6963 0
M  V30 4159 C 391.153 -4.01983 -2.64506 0
M  V30 4160 C 393.505 -4.55894 -2.52607 0
M  V30 4161 C 390.833 -5.35235 -2.40293 0
M  V30 4162 C 393.185 -5.89336 -2.29925 0
M  V30 4163 C 391.849 -6.2907 -2.23219 0
M  V30 4164 H 391.119 -0.468131 -0.574399 0
M  V30 4165 H 393.766 -1.66851 -0.939836 0
M  V30 4166 H 392.071 -1.66463 -3.54679 0
M  V30 4167 H 393.768 -2.04383 -3.45005 0
M  V30 4168 H 390.358 -3.29193 -2.74463 0
M  V30 4169 H 394.542 -4.25431 -2.55583 0
M  V30 4170 H 389.798 -5.65028 -2.33566 0
M  V30 4171 H 393.972 -6.62139 -2.15743 0
M  V30 4172 H 391.599 -7.32256 -2.04219 0
M  V30 4173 N 393.175 1.03435 -1.18907 0
M  V30 4174 C 394.415 1.78302 -0.999391 0
M  V30 4175 C 394.779 1.86353 0.462219 0
M  V30 4176 O 395.98 2.57489 0.771543 0
M  V30 4177 C 394.251 3.17362 -1.64365 0
M  V30 4178 S 395.81 4.08488 -1.6026 0
M  V30 4179 H 392.628 0.613861 -0.358742 0
M  V30 4180 H 395.23 1.23979 -1.51161 0
M  V30 4181 H 393.934 3.09116 -2.69955 0
M  V30 4182 H 393.465 3.76762 -1.13199 0
M  V30 4183 H 395.48 4.92274 -0.622932 0
M  V30 4184 N 394.653 0.992116 1.22453 0
M  V30 4185 C 396.064 0.702776 1.72968 0
M  V30 4186 C 396.415 -0.780399 1.80012 0
M  V30 4187 O 395.54 -1.61007 1.44589 0
M  V30 4188 C 396.135 1.26903 3.14135 0
M  V30 4189 C 394.694 1.02909 3.62059 0
M  V30 4190 C 393.841 1.38969 2.39964 0
M  V30 4191 H 396.792 1.16457 1.07812 0
M  V30 4192 H 396.813 0.647223 3.74955 0
M  V30 4193 H 396.325 2.34851 3.08977 0
M  V30 4194 H 394.426 -0.0337979 3.72585 0
M  V30 4195 H 394.539 1.69191 4.48231 0
M  V30 4196 H 392.903 0.808279 2.41535 0
M  V30 4197 H 393.686 2.4792 2.37467 0
M  V30 4198 N 396.131 -1.37776 0.765217 0
M  V30 4199 C 397.079 -2.32209 0.134798 0
M  V30 4200 C 398.073 -1.54607 -0.692315 0
M  V30 4201 O 399.279 -1.70052 -0.590109 0
M  V30 4202 H 395.654 -0.751591 0.0248005 0
M  V30 4203 H 397.625 -2.8297 0.947119 0
M  V30 4204 C 396.374 -3.39841 -0.735063 0
M  V30 4205 H 395.697 -3.99654 -0.107991 0
M  V30 4206 H 397.137 -4.08296 -1.14326 0
M  V30 4207 C 395.596 -2.79378 -1.88281 0
M  V30 4208 O 396.126 -2.69608 -2.97783 0
M  V30 4209 N 394.332 -2.37016 -1.68142 0
M  V30 4210 H 393.879 -2.45162 -0.790772 0
M  V30 4211 H 393.837 -1.96905 -2.45104 0
M  V30 4212 N 397.609 -0.515225 -1.4894 0
M  V30 4213 C 398.556 0.255567 -2.29381 0
M  V30 4214 C 399.526 0.947387 -1.36432 0
M  V30 4215 O 400.711 0.951288 -1.65394 0
M  V30 4216 C 397.851 1.30551 -3.19453 0
M  V30 4217 C 396.964 0.624029 -4.27469 0
M  V30 4218 C 396.099 1.65563 -5.0474 0
M  V30 4219 C 395.138 0.956802 -6.04576 0
M  V30 4220 N 394.275 1.93326 -6.74959 0
M  V30 4221 H 399.115 -0.436607 -2.94784 0
M  V30 4222 H 396.652 -0.227154 -1.45336 0
M  V30 4223 H 398.61 1.92639 -3.70062 0
M  V30 4224 H 397.24 1.96626 -2.56004 0
M  V30 4225 H 396.292 -0.110459 -3.8024 0
M  V30 4226 H 397.604 0.0746092 -4.98744 0
M  V30 4227 H 396.758 2.35119 -5.59289 0
M  V30 4228 H 395.497 2.23893 -4.3327 0
M  V30 4229 H 394.502 0.247097 -5.49244 0
M  V30 4230 H 395.727 0.379814 -6.78037 0
M  V30 4231 H 393.673 2.50591 -6.06251 0
M  V30 4232 H 393.59 1.43489 -7.42258 0
M  V30 4233 H 394.858 2.62126 -7.34105 0
M  V30 4234 N 399.087 1.5561 -0.249682 0
M  V30 4235 C 400.333 1.99306 0.374841 0
M  V30 4236 C 400.666 1.13767 1.57387 0
M  V30 4237 O 399.941 0.201711 1.93451 0
M  V30 4238 C 400.224 3.51507 0.781986 0
M  V30 4239 C 400.077 4.4781 -0.422629 0
M  V30 4240 C 401.396 4.08884 1.62793 0
M  V30 4241 H 398.515 0.724572 0.134773 0
M  V30 4242 H 401.157 1.86719 -0.351549 0
M  V30 4243 H 399.307 3.62363 1.4009 0
M  V30 4244 H 400.979 4.48931 -1.06108 0
M  V30 4245 H 399.222 4.20518 -1.06524 0
M  V30 4246 H 399.893 5.51919 -0.0943766 0
M  V30 4247 H 402.369 4.01147 1.10547 0
M  V30 4248 H 401.245 5.1564 1.88166 0
M  V30 4249 H 401.506 3.57515 2.60068 0
M  V30 4250 N 400.565 -0.0233959 1.57583 0
M  V30 4251 C 401.475 -1.03907 2.10334 0
M  V30 4252 C 402.491 -1.39257 1.04323 0
M  V30 4253 O 403.667 -1.48462 1.36091 0
M  V30 4254 C 400.732 -2.31938 2.57693 0
M  V30 4255 C 399.793 -2.03117 3.78209 0
M  V30 4256 C 399.026 -3.25043 4.233 0
M  V30 4257 O 399.249 -4.35916 3.67876 0
M  V30 4258 O 398.183 -3.10411 5.15683 0
M  V30 4259 H 402.009 -0.620748 2.97288 0
M  V30 4260 H 399.594 -0.240743 1.47448 0
M  V30 4261 H 401.476 -3.07196 2.88458 0
M  V30 4262 H 400.151 -2.73055 1.73847 0
M  V30 4263 H 399.058 -1.25408 3.52454 0
M  V30 4264 H 400.391 -1.66852 4.63056 0
M  V30 4265 N 402.043 -1.548 -0.295768 0
M  V30 4266 C 403.29 -1.74329 -1.03032 0
M  V30 4267 C 403.618 -0.531915 -1.87085 0
M  V30 4268 O 402.873 0.486052 -1.89568 0
M  V30 4269 C 403.172 -2.98797 -1.961 0
M  V30 4270 C 402.838 -4.32356 -1.2798 0
M  V30 4271 C 401.5 -4.68661 -1.09135 0
M  V30 4272 C 403.852 -5.15128 -0.793243 0
M  V30 4273 C 401.18 -5.85312 -0.403269 0
M  V30 4274 C 403.532 -6.32488 -0.118854 0
M  V30 4275 C 402.196 -6.6745 0.0815043 0
M  V30 4276 H 401.466 -0.637916 -0.37702 0
M  V30 4277 H 404.113 -1.8906 -0.304696 0
M  V30 4278 H 402.418 -2.78869 -2.75207 0
M  V30 4279 H 404.115 -3.11102 -2.53015 0
M  V30 4280 H 400.705 -4.03808 -1.43655 0
M  V30 4281 H 404.889 -4.87575 -0.92653 0
M  V30 4282 H 400.145 -6.1094 -0.237098 0
M  V30 4283 H 404.319 -6.95892 0.266035 0
M  V30 4284 H 401.946 -7.57695 0.616685 0
M  V30 4285 N 403.521 0.559213 -1.47345 0
M  V30 4286 C 404.77 1.31281 -1.53128 0
M  V30 4287 C 405.083 1.94602 -0.197344 0
M  V30 4288 O 406.289 2.71173 -0.133154 0
M  V30 4289 C 404.745 2.38051 -2.69925 0
M  V30 4290 C 404.353 1.8093 -4.0984 0
M  V30 4291 C 406.097 3.14604 -2.84999 0
M  V30 4292 C 404.004 2.85468 -5.1794 0
M  V30 4293 H 402.934 0.493614 -0.569966 0
M  V30 4294 H 405.585 0.594155 -1.73615 0
M  V30 4295 H 403.967 3.12822 -2.42814 0
M  V30 4296 H 405.141 1.12544 -4.46845 0
M  V30 4297 H 403.456 1.16967 -3.99634 0
M  V30 4298 H 406.053 3.92666 -3.62929 0
M  V30 4299 H 406.396 3.68665 -1.93369 0
M  V30 4300 H 406.929 2.46945 -3.1187 0
M  V30 4301 H 403.668 2.36264 -6.1144 0
M  V30 4302 H 403.188 3.52269 -4.85455 0
M  V30 4303 H 404.867 3.48996 -5.44803 0
M  V30 4304 N 404.999 1.35443 0.805782 0
M  V30 4305 C 405.946 1.28431 1.91766 0
M  V30 4306 C 406.916 0.156102 1.65365 0
M  V30 4307 O 408.101 0.339936 1.87747 0
M  V30 4308 C 405.241 1.06301 3.2832 0
M  V30 4309 C 404.354 2.2805 3.66902 0
M  V30 4310 C 403.489 1.99064 4.92491 0
M  V30 4311 C 402.528 3.16863 5.23703 0
M  V30 4312 N 401.665 2.87647 6.40471 0
M  V30 4313 H 406.505 2.23511 1.97096 0
M  V30 4314 H 404.042 1.11105 0.964054 0
M  V30 4315 H 406 0.915012 4.07042 0
M  V30 4316 H 404.63 0.148822 3.22457 0
M  V30 4317 H 403.682 2.53711 2.83434 0
M  V30 4318 H 404.994 3.1601 3.85927 0
M  V30 4319 H 404.148 1.81099 5.7904 0
M  V30 4320 H 402.887 1.0839 4.75503 0
M  V30 4321 H 401.892 3.35404 4.35642 0
M  V30 4322 H 403.117 4.08339 5.4262 0
M  V30 4323 H 401.063 1.99568 6.24907 0
M  V30 4324 H 400.98 3.69141 6.59751 0
M  V30 4325 H 402.248 2.73226 7.30047 0
M  V30 4326 N 406.477 -1.02803 1.19454 0
M  V30 4327 C 407.425 -2.13213 0.929673 0
M  V30 4328 C 408.419 -1.69011 -0.114806 0
M  V30 4329 O 409.625 -1.79967 0.0345147 0
M  V30 4330 H 406 -0.69662 0.28324 0
M  V30 4331 H 407.971 -2.32744 1.86743 0
M  V30 4332 C 406.72 -3.4429 0.485797 0
M  V30 4333 H 406.043 -3.7872 1.28105 0
M  V30 4334 H 407.483 -4.22638 0.339582 0
M  V30 4335 C 405.942 -3.27258 -0.800244 0
M  V30 4336 O 406.472 -3.55967 -1.86146 0
M  V30 4337 N 404.678 -2.80545 -0.75781 0
M  V30 4338 H 404.225 -2.57382 0.106039 0
M  V30 4339 H 404.183 -2.6953 -1.61867 0
M  V30 4340 N 407.956 -0.998596 -1.21925 0
M  V30 4341 C 409.181 -0.696015 -1.95372 0
M  V30 4342 C 409.606 0.733826 -1.73195 0
M  V30 4343 O 408.964 1.50242 -1.01474 0
M  V30 4344 C 409.012 -1.01466 -3.4603 0
M  V30 4345 O 408.116 -0.116415 -4.12236 0
M  V30 4346 H 407.457 -0.259938 -0.611006 0
M  V30 4347 H 409.987 -1.33711 -1.54863 0
M  V30 4348 H 409.997 -0.958855 -3.96573 0
M  V30 4349 H 408.672 -2.05653 -3.61497 0
M  V30 4350 H 407.249 -0.228193 -3.72201 0
M  V30 4351 N 409.434 1.37368 -0.772513 0
M  V30 4352 C 410.364 2.32856 -0.173304 0
M  V30 4353 C 411.345 1.55818 0.682262 0
M  V30 4354 O 412.53 1.84052 0.619566 0
M  V30 4355 C 409.66 3.40048 0.706007 0
M  V30 4356 C 408.614 4.27973 -0.0483144 0
M  V30 4357 C 407.94 5.26184 0.950491 0
M  V30 4358 C 409.24 5.07665 -1.22776 0
M  V30 4359 H 410.934 2.83217 -0.971002 0
M  V30 4360 H 408.48 1.3617 -0.468377 0
M  V30 4361 H 410.433 4.05827 1.13501 0
M  V30 4362 H 409.157 2.88214 1.53623 0
M  V30 4363 H 407.816 3.63726 -0.458107 0
M  V30 4364 H 407.464 4.7063 1.77529 0
M  V30 4365 H 407.164 5.85872 0.450314 0
M  V30 4366 H 408.688 5.94838 1.37842 0
M  V30 4367 H 410.102 5.66578 -0.875366 0
M  V30 4368 H 408.499 5.76681 -1.66007 0
M  V30 4369 H 409.569 4.40294 -2.03149 0
M  V30 4370 N 410.912 0.523116 1.48665 0
M  V30 4371 C 411.86 -0.256859 2.31177 0
M  V30 4372 C 412.854 -0.94199 1.40794 0
M  V30 4373 O 414.06 -0.867157 1.57735 0
M  V30 4374 H 410.435 -0.1017 0.745091 0
M  V30 4375 H 412.406 0.458739 2.94853 0
M  V30 4376 C 411.155 -1.29503 3.22683 0
M  V30 4377 H 410.478 -0.777248 3.92172 0
M  V30 4378 H 411.918 -1.81233 3.83315 0
M  V30 4379 C 410.377 -2.32501 2.43813 0
M  V30 4380 O 410.907 -3.3881 2.15803 0
M  V30 4381 N 409.113 -2.05538 2.05432 0
M  V30 4382 H 408.66 -1.19104 2.28412 0
M  V30 4383 H 408.618 -2.74676 1.52973 0
M  V30 4384 N 412.39 -1.55475 0.257931 0
M  V30 4385 C 413.639 -1.98383 -0.364275 0
M  V30 4386 C 413.952 -1.14952 -1.58258 0
M  V30 4387 O 415.158 -1.47924 -2.27664 0
M  V30 4388 C 413.614 -3.53037 -0.699479 0
M  V30 4389 C 413.222 -4.45223 0.498046 0
M  V30 4390 C 414.966 -4.04575 -1.28526 0
M  V30 4391 C 412.873 -5.91238 0.138383 0
M  V30 4392 H 411.803 -0.740911 -0.13988 0
M  V30 4393 H 414.454 -1.79936 0.359883 0
M  V30 4394 H 412.836 -3.6722 -1.48207 0
M  V30 4395 H 414.01 -4.42803 1.27522 0
M  V30 4396 H 412.325 -4.04226 0.999503 0
M  V30 4397 H 414.922 -5.11196 -1.56788 0
M  V30 4398 H 415.265 -3.5258 -2.21344 0
M  V30 4399 H 415.798 -3.93762 -0.565337 0
M  V30 4400 H 412.537 -6.47294 1.03398 0
M  V30 4401 H 412.057 -5.96768 -0.602374 0
M  V30 4402 H 413.736 -6.46413 -0.27553 0
M  V30 4403 N 413.868 0.0150385 -1.57593 0
M  V30 4404 C 415.117 0.702115 -1.89085 0
M  V30 4405 C 415.43 1.75764 -0.858277 0
M  V30 4406 O 416.636 2.49829 -1.0629 0
M  V30 4407 C 415.092 1.29992 -3.35604 0
M  V30 4408 C 414.7 0.280007 -4.47124 0
M  V30 4409 C 416.444 1.96606 -3.76227 0
M  V30 4410 C 414.351 0.886949 -5.84711 0
M  V30 4411 H 413.281 0.265997 -0.705522 0
M  V30 4412 H 415.932 -0.0430408 -1.8345 0
M  V30 4413 H 414.314 2.09525 -3.36029 0
M  V30 4414 H 415.488 -0.489631 -4.58191 0
M  V30 4415 H 413.803 -0.284835 -4.15425 0
M  V30 4416 H 416.4 2.42893 -4.76347 0
M  V30 4417 H 416.743 2.79024 -3.08952 0
M  V30 4418 H 417.276 1.23828 -3.78036 0
M  V30 4419 H 414.015 0.101876 -6.55421 0
M  V30 4420 H 413.535 1.6261 -5.77337 0
M  V30 4421 H 415.214 1.39011 -6.3189 0
M  V30 4422 N 415.346 1.54954 0.287554 0
M  V30 4423 C 416.623 1.65569 1.04146 0
M  V30 4424 C 417.003 0.512672 2.0478 0
M  V30 4425 O 416.351 -0.489038 2.23205 0
M  V30 4426 C 416.561 3.04163 1.71131 0
M  V30 4427 C 417.909 3.61429 2.22832 0
M  V30 4428 O 418.933 3.06702 1.81141 0
M  V30 4429 O 417.792 4.57281 2.9926 0
M  V30 4430 H 414.886 0.671881 0.482188 0
M  V30 4431 H 417.432 1.67297 0.28457 0
M  V30 4432 H 416.204 3.78796 0.981303 0
M  V30 4433 H 415.827 3.06271 2.53543 0
M  V30 4434 N 416.824 -0.551391 1.4764 0
M  V30 4435 C 418.071 -1.3083 1.54563 0
M  V30 4436 C 418.399 -1.93359 0.210361 0
M  V30 4437 O 417.654 -1.78721 -0.797332 0
M  V30 4438 C 417.953 -2.43469 2.61644 0
M  V30 4439 C 417.619 -1.98732 4.04742 0
M  V30 4440 C 416.281 -1.86248 4.43695 0
M  V30 4441 C 418.633 -1.64659 4.94507 0
M  V30 4442 C 415.961 -1.37995 5.70241 0
M  V30 4443 C 418.313 -1.17875 6.21521 0
M  V30 4444 C 416.977 -1.03992 6.5935 0
M  V30 4445 H 416.247 -0.478741 0.565587 0
M  V30 4446 H 418.894 -0.617697 1.81264 0
M  V30 4447 H 417.199 -3.18109 2.28722 0
M  V30 4448 H 418.896 -3.01642 2.64222 0
M  V30 4449 H 415.486 -2.09393 3.73968 0
M  V30 4450 H 419.67 -1.73174 4.65107 0
M  V30 4451 H 414.926 -1.25915 5.98294 0
M  V30 4452 H 419.1 -0.905739 6.90485 0
M  V30 4453 H 416.727 -0.663794 7.57296 0
M  V30 4454 N 418.302 -1.35869 -0.798587 0
M  V30 4455 C 419.548 -1.2978 -1.55836 0
M  V30 4456 C 419.881 0.125322 -1.93795 0
M  V30 4457 O 419.156 1.07658 -1.61987 0
M  V30 4458 C 419.439 -2.21188 -2.84162 0
M  V30 4459 C 419.292 -3.72155 -2.52628 0
M  V30 4460 C 420.611 -2.11545 -3.85923 0
M  V30 4461 H 417.73 -0.472769 -0.565383 0
M  V30 4462 H 420.372 -1.66341 -0.918192 0
M  V30 4463 H 418.522 -1.90139 -3.38791 0
M  V30 4464 H 420.194 -4.13682 -2.04121 0
M  V30 4465 H 418.437 -3.92042 -1.85704 0
M  V30 4466 H 419.108 -4.31511 -3.44242 0
M  V30 4467 H 421.584 -2.38855 -3.40716 0
M  V30 4468 H 420.46 -2.77688 -4.73477 0
M  V30 4469 H 420.721 -1.09987 -4.282 0
M  V30 4470 N 419.78 1.02168 -1.19998 0
M  V30 4471 C 420.743 2.08765 -0.94604 0
M  V30 4472 C 421.743 1.60618 0.0763846 0
M  V30 4473 O 422.933 1.73472 -0.159135 0
M  V30 4474 C 420.065 3.38262 -0.423255 0
M  V30 4475 H 421.258 2.32726 -1.89153 0
M  V30 4476 H 418.811 1.1889 -1.01464 0
M  V30 4477 H 419.546 3.19974 0.527938 0
M  V30 4478 H 419.331 3.74532 -1.16053 0
M  V30 4479 H 420.821 4.16759 -0.264911 0
M  V30 4480 N 421.258 1.00505 1.21394 0
M  V30 4481 C 422.507 0.683159 1.89778 0
M  V30 4482 C 422.82 -0.789471 1.7896 0
M  V30 4483 O 424.026 -1.22344 2.42372 0
M  V30 4484 C 422.482 1.17146 3.40301 0
M  V30 4485 C 422.09 2.67017 3.5973 0
M  V30 4486 C 423.834 0.924461 4.14311 0
M  V30 4487 C 421.741 3.09387 5.04017 0
M  V30 4488 H 420.671 0.25183 0.710702 0
M  V30 4489 H 423.322 1.21622 1.37406 0
M  V30 4490 H 421.704 0.566451 3.91928 0
M  V30 4491 H 422.878 3.32968 3.18542 0
M  V30 4492 H 421.193 2.89732 2.99073 0
M  V30 4493 H 423.79 1.21658 5.20676 0
M  V30 4494 H 424.133 -0.139286 4.16067 0
M  V30 4495 H 424.666 1.49226 3.6875 0
M  V30 4496 H 421.405 4.14989 5.07409 0
M  V30 4497 H 420.925 2.48149 5.46061 0
M  V30 4498 H 422.604 3.01371 5.72525 0
M  V30 4499 N 422.737 -1.36956 0.779787 0
M  V30 4500 C 423.667 -2.32761 0.185651 0
M  V30 4501 C 424.648 -1.56177 -0.673989 0
M  V30 4502 O 425.833 -1.84378 -0.609797 0
M  V30 4503 C 422.963 -3.40418 -0.687964 0
M  V30 4504 C 421.917 -4.27941 0.0710102 0
M  V30 4505 C 421.243 -5.26681 -0.922573 0
M  V30 4506 C 422.543 -5.07006 1.25467 0
M  V30 4507 H 424.237 -2.82698 0.986008 0
M  V30 4508 H 421.783 -1.3592 0.475592 0
M  V30 4509 H 423.736 -4.06423 -1.11348 0
M  V30 4510 H 422.46 -2.89025 -1.52093 0
M  V30 4511 H 421.119 -3.63478 0.47739 0
M  V30 4512 H 420.767 -4.71565 -1.7503 0
M  V30 4513 H 420.467 -5.86103 -0.419237 0
M  V30 4514 H 421.991 -5.9556 -1.34686 0
M  V30 4515 H 423.405 -5.66105 0.905401 0
M  V30 4516 H 421.802 -5.75793 1.69063 0
M  V30 4517 H 422.872 -4.3921 2.05481 0
M  V30 4518 N 424.215 -0.530993 -1.48385 0
M  V30 4519 C 425.626 -0.0907905 -1.86479 0
M  V30 4520 C 425.977 1.33213 -1.44044 0
M  V30 4521 O 425.102 1.99783 -0.831615 0
M  V30 4522 C 425.697 -0.157987 -3.38431 0
M  V30 4523 C 424.256 0.227026 -3.75715 0
M  V30 4524 C 423.403 -0.5173 -2.72432 0
M  V30 4525 H 426.354 -0.742186 -1.40276 0
M  V30 4526 H 426.375 0.630053 -3.75247 0
M  V30 4527 H 425.887 -1.19372 -3.69286 0
M  V30 4528 H 423.988 1.26486 -3.50474 0
M  V30 4529 H 424.101 -0.113288 -4.78966 0
M  V30 4530 H 422.465 0.0365527 -2.54674 0
M  V30 4531 H 423.248 -1.55368 -3.0613 0
M  V30 4532 N 425.693 1.55336 -0.266172 0
M  V30 4533 C 426.94 1.99397 0.353158 0
M  V30 4534 C 427.268 1.15451 1.56529 0
M  V30 4535 O 426.523 0.209974 1.9457 0
M  V30 4536 C 426.822 3.48606 0.787957 0
M  V30 4537 C 426.488 4.49773 -0.318541 0
M  V30 4538 C 425.15 4.77158 -0.62239 0
M  V30 4539 C 427.502 5.10212 -1.06459 0
M  V30 4540 C 424.83 5.62251 -1.67602 0
M  V30 4541 C 427.182 5.96449 -2.10788 0
M  V30 4542 C 425.846 6.22158 -2.41817 0
M  V30 4543 H 425.116 0.729644 0.12923 0
M  V30 4544 H 427.763 1.87732 -0.37802 0
M  V30 4545 H 426.068 3.57701 1.59866 0
M  V30 4546 H 427.765 3.80098 1.27775 0
M  V30 4547 H 424.355 4.2854 -0.0715925 0
M  V30 4548 H 428.539 4.89086 -0.843098 0
M  V30 4549 H 423.795 5.80419 -1.92155 0
M  V30 4550 H 427.969 6.42317 -2.69076 0
M  V30 4551 H 425.596 6.87888 -3.23596 0
M  V30 4552 N 427.171 -0.0066808 1.57599 0
M  V30 4553 C 428.401 -0.703066 1.94269 0
M  V30 4554 C 428.809 -1.68206 0.866222 0
M  V30 4555 O 428.152 -1.82966 -0.164087 0
M  V30 4556 C 428.214 -1.49616 3.26887 0
M  V30 4557 C 427.878 -0.679494 4.5192 0
M  V30 4558 C 428.875 0.0299508 5.19891 0
M  V30 4559 C 426.56 -0.627433 4.98366 0
M  V30 4560 C 428.554 0.780514 6.32603 0
M  V30 4561 C 426.241 0.126861 6.10968 0
M  V30 4562 C 427.239 0.829574 6.77943 0
M  V30 4563 O 426.927 1.57157 7.88389 0
M  V30 4564 H 426.659 -0.201217 0.645359 0
M  V30 4565 H 429.213 0.0385326 2.05364 0
M  V30 4566 H 427.443 -2.28209 3.12182 0
M  V30 4567 H 429.132 -2.07726 3.48719 0
M  V30 4568 H 429.898 -0.00115963 4.85 0
M  V30 4569 H 425.777 -1.16392 4.46065 0
M  V30 4570 H 429.321 1.32954 6.84813 0
M  V30 4571 H 425.218 0.159815 6.45302 0
M  V30 4572 H 425.986 1.48758 8.04868 0
M  V30 4573 N 428.649 -1.55105 -0.279332 0
M  V30 4574 C 429.579 -1.90557 -1.34945 0
M  V30 4575 C 430.56 -0.766738 -1.51839 0
M  V30 4576 O 431.745 -1.02434 -1.64988 0
M  V30 4577 C 428.875 -2.17193 -2.71006 0
M  V30 4578 C 427.829 -3.33021 -2.68851 0
M  V30 4579 C 427.155 -3.45123 -4.08405 0
M  V30 4580 C 428.455 -4.69578 -2.28678 0
M  V30 4581 H 430.149 -2.80188 -1.05522 0
M  V30 4582 H 427.695 -1.34811 -0.506173 0
M  V30 4583 H 429.648 -2.40581 -3.45975 0
M  V30 4584 H 428.372 -1.24355 -3.01999 0
M  V30 4585 H 427.031 -3.0959 -1.9634 0
M  V30 4586 H 426.679 -2.49762 -4.3661 0
M  V30 4587 H 426.379 -4.22995 -4.07859 0
M  V30 4588 H 427.903 -3.70796 -4.85121 0
M  V30 4589 H 429.317 -4.92553 -2.93368 0
M  V30 4590 H 427.714 -5.5032 -2.39306 0
M  V30 4591 H 428.784 -4.68828 -1.23807 0
M  V30 4592 N 430.127 0.543554 -1.4793 0
M  V30 4593 C 431.037 1.67657 -1.64098 0
M  V30 4594 C 432.053 1.65934 -0.523622 0
M  V30 4595 O 433.229 1.85133 -0.792943 0
M  V30 4596 C 430.294 3.04146 -1.66421 0
M  V30 4597 C 429.355 3.16831 -2.89684 0
M  V30 4598 C 428.588 4.46809 -2.91886 0
M  V30 4599 O 428.811 5.33095 -2.02895 0
M  V30 4600 O 427.745 4.63573 -3.83906 0
M  V30 4601 H 431.571 1.56957 -2.59997 0
M  V30 4602 H 429.156 0.715116 -1.31173 0
M  V30 4603 H 431.038 3.85346 -1.70548 0
M  V30 4604 H 429.713 3.152 -0.736923 0
M  V30 4605 H 428.62 2.34977 -2.91095 0
M  V30 4606 H 429.953 3.10687 -3.81752 0
M  V30 4607 N 431.605 1.3629 0.791371 0
M  V30 4608 C 432.851 1.30605 1.55146 0
M  V30 4609 C 433.184 -0.115042 1.93859 0
M  V30 4610 O 432.459 -1.06798 1.62556 0
M  V30 4611 C 432.742 2.22692 2.82985 0
M  V30 4612 C 432.595 3.73489 2.50651 0
M  V30 4613 C 433.914 2.13588 3.84796 0
M  V30 4614 H 431.033 0.475761 0.562868 0
M  V30 4615 H 433.675 1.66825 0.909358 0
M  V30 4616 H 431.825 1.91933 3.37778 0
M  V30 4617 H 433.497 4.14758 2.01924 0
M  V30 4618 H 431.74 3.93021 1.83622 0
M  V30 4619 H 432.411 4.3333 3.41949 0
M  V30 4620 H 434.887 2.40659 3.39445 0
M  V30 4621 H 433.763 2.80195 4.71998 0
M  V30 4622 H 434.024 1.12256 4.27611 0
M  V30 4623 N 433.083 -1.0153 1.20538 0
M  V30 4624 C 434.331 -1.74803 1.01432 0
M  V30 4625 C 434.652 -1.8963 -0.454456 0
M  V30 4626 O 433.922 -1.43975 -1.32846 0
M  V30 4627 H 432.502 -0.647598 0.372324 0
M  V30 4628 H 435.164 -1.22402 1.5167 0
M  V30 4629 H 434.26 -2.75114 1.47373 0
M  V30 4630 N 434.561 -1.01147 -1.20859 0
M  V30 4631 C 435.491 -0.597663 -2.25722 0
M  V30 4632 C 436.472 0.384744 -1.65692 0
M  V30 4633 O 437.657 0.271303 -1.92296 0
M  V30 4634 C 434.787 0.0700149 -3.47229 0
M  V30 4635 C 433.741 -0.832843 -4.19819 0
M  V30 4636 C 433.067 -0.0312202 -5.34691 0
M  V30 4637 C 434.367 -2.1385 -4.76514 0
M  V30 4638 H 436.061 -1.47423 -2.60589 0
M  V30 4639 H 433.607 -0.710301 -1.25263 0
M  V30 4640 H 435.56 0.37103 -4.19763 0
M  V30 4641 H 434.284 0.981259 -3.11511 0
M  V30 4642 H 432.943 -1.11778 -3.49144 0
M  V30 4643 H 432.591 0.881515 -4.95215 0
M  V30 4644 H 432.291 -0.632434 -5.84187 0
M  V30 4645 H 433.815 0.26346 -6.10031 0
M  V30 4646 H 435.229 -1.9002 -5.40893 0
M  V30 4647 H 433.626 -2.69012 -5.36426 0
M  V30 4648 H 434.696 -2.80495 -3.95538 0
M  V30 4649 N 436.039 1.36541 -0.78704 0
M  V30 4650 C 437.264 2.0409 -0.369053 0
M  V30 4651 C 437.689 1.58957 1.00569 0
M  V30 4652 O 437.047 0.756926 1.64743 0
M  V30 4653 C 437.095 3.57924 -0.438466 0
M  V30 4654 O 436.199 4.08642 0.555479 0
M  V30 4655 H 435.54 0.645142 -0.157122 0
M  V30 4656 H 438.07 1.74545 -1.06749 0
M  V30 4657 H 438.08 4.06887 -0.301218 0
M  V30 4658 H 436.755 3.90127 -1.44132 0
M  V30 4659 H 435.332 3.70958 0.380088 0
M  V30 4660 N 437.518 0.538854 1.48102 0
M  V30 4661 C 438.766 0.00798599 2.02098 0
M  V30 4662 C 439.087 -1.33922 1.41739 0
M  V30 4663 O 438.357 -1.86932 0.585934 0
M  V30 4664 H 436.937 -3.62179e-05 0.747 0
M  V30 4665 H 439.599 0.7047 1.81714 0
M  V30 4666 H 438.695 -0.0937672 3.11959 0
M  V30 4667 N 438.996 -1.55193 0.274407 0
M  V30 4668 C 439.926 -2.25471 -0.607032 0
M  V30 4669 C 440.907 -1.24461 -1.15946 0
M  V30 4670 O 442.092 -1.53179 -1.19373 0
M  V30 4671 C 439.222 -2.97526 -1.79153 0
M  V30 4672 C 438.176 -4.05459 -1.37067 0
M  V30 4673 C 437.502 -4.65084 -2.6382 0
M  V30 4674 C 438.802 -5.19691 -0.521389 0
M  V30 4675 H 440.496 -2.99393 -0.0209343 0
M  V30 4676 H 438.042 -1.43997 -0.00862866 0
M  V30 4677 H 439.995 -3.45402 -2.41404 0
M  V30 4678 H 438.719 -2.21138 -2.40344 0
M  V30 4679 H 437.378 -3.58393 -0.771355 0
M  V30 4680 H 437.026 -3.85365 -3.23268 0
M  V30 4681 H 436.726 -5.37961 -2.36372 0
M  V30 4682 H 438.25 -5.15708 -3.26921 0
M  V30 4683 H 439.664 -5.63623 -1.04889 0
M  V30 4684 H 438.061 -5.99126 -0.341825 0
M  V30 4685 H 439.131 -4.82713 0.46 0
M  V30 4686 N 440.474 -0.00167713 -1.576 0
M  V30 4687 C 441.699 0.69739 -1.95323 0
M  V30 4688 C 442.124 1.6642 -0.876706 0
M  V30 4689 O 441.482 1.80548 0.165007 0
M  V30 4690 C 441.53 1.40403 -3.32144 0
M  V30 4691 O 440.634 2.5185 -3.26566 0
M  V30 4692 H 439.975 0.185373 -0.637599 0
M  V30 4693 H 442.505 -0.0553665 -2.04525 0
M  V30 4694 H 442.515 1.76707 -3.67748 0
M  V30 4695 H 441.19 0.695167 -4.10049 0
M  V30 4696 H 439.767 2.17861 -3.0264 0
M  V30 4697 N 441.952 1.55251 0.271103 0
M  V30 4698 C 443.177 1.80306 1.02491 0
M  V30 4699 C 443.602 0.575457 1.79081 0
M  V30 4700 O 442.96 -0.474987 1.74967 0
M  V30 4701 C 443.008 3.02832 1.95768 0
M  V30 4702 O 442.112 2.78051 3.04568 0
M  V30 4703 H 441.453 0.595896 0.292923 0
M  V30 4704 H 443.983 2.02397 0.299436 0
M  V30 4705 H 443.993 3.31616 2.37686 0
M  V30 4706 H 442.668 3.9183 1.39434 0
M  V30 4707 H 441.245 2.60369 2.66951 0
M  V30 4708 N 443.43 -0.535701 1.48216 0
M  V30 4709 C 444.377 -1.64083 1.62312 0
M  V30 4710 C 445.347 -1.59448 0.465365 0
M  V30 4711 O 446.532 -1.77959 0.688135 0
M  V30 4712 C 443.672 -3.0236 1.66349 0
M  V30 4713 C 442.785 -3.17273 2.93193 0
M  V30 4714 C 441.92 -4.46075 2.88427 0
M  V30 4715 C 440.959 -4.54496 4.1 0
M  V30 4716 N 440.096 -5.7468 4.03345 0
M  V30 4717 H 444.936 -1.51374 2.5669 0
M  V30 4718 H 442.473 -0.737059 1.27302 0
M  V30 4719 H 444.431 -3.82461 1.66672 0
M  V30 4720 H 443.061 -3.13854 0.754672 0
M  V30 4721 H 442.113 -2.30462 3.02641 0
M  V30 4722 H 443.425 -3.19357 3.83162 0
M  V30 4723 H 442.579 -5.3446 2.87119 0
M  V30 4724 H 441.318 -4.46504 1.96177 0
M  V30 4725 H 440.323 -3.64519 4.11589 0
M  V30 4726 H 441.548 -4.5581 5.03402 0
M  V30 4727 H 439.494 -5.76017 3.13912 0
M  V30 4728 H 439.411 -5.78234 4.87013 0
M  V30 4729 H 440.679 -6.65367 4.06087 0
M  V30 4730 N 444.908 -1.36708 -0.784132 0
M  V30 4731 C 445.871 -1.31307 -1.87859 0
M  V30 4732 C 446.871 -0.219654 -1.59293 0
M  V30 4733 O 448.061 -0.47476 -1.67606 0
M  V30 4734 C 445.193 -1.03679 -3.24751 0
M  V30 4735 H 446.386 -2.28647 -1.94064 0
M  V30 4736 H 443.939 -1.21558 -0.98252 0
M  V30 4737 H 444.674 -0.0681936 -3.24228 0
M  V30 4738 H 444.459 -1.82811 -3.46876 0
M  V30 4739 H 445.949 -1.02518 -4.04821 0
M  V30 4740 N 446.386 1.0089 -1.21074 0
M  V30 4741 C 447.349 2.0775 -0.968129 0
M  V30 4742 C 448.349 1.6069 0.0593445 0
M  V30 4743 O 449.539 1.73293 -0.177525 0
M  V30 4744 C 446.671 3.37794 -0.459108 0
M  V30 4745 H 447.864 2.30707 -1.9161 0
M  V30 4746 H 445.417 1.17807 -1.02719 0
M  V30 4747 H 446.152 3.20516 0.49397 0
M  V30 4748 H 445.937 3.7328 -1.20019 0
M  V30 4749 H 447.427 4.16454 -0.309099 0
M  V30 4750 N 447.864 1.01787 1.20321 0
M  V30 4751 C 448.811 0.589197 2.23153 0
M  V30 4752 C 449.781 -0.391367 1.61423 0
M  V30 4753 O 450.966 -0.290518 1.88575 0
M  V30 4754 C 448.106 -0.0650747 3.45039 0
M  V30 4755 C 447.219 0.960207 4.21194 0
M  V30 4756 C 446.354 0.276854 5.30478 0
M  V30 4757 C 445.393 1.2888 5.98378 0
M  V30 4758 N 444.53 0.632031 6.99249 0
M  V30 4759 H 449.37 1.47071 2.59179 0
M  V30 4760 H 446.907 0.736192 1.27352 0
M  V30 4761 H 448.865 -0.461552 4.14639 0
M  V30 4762 H 447.495 -0.910233 3.09701 0
M  V30 4763 H 446.547 1.47484 3.50646 0
M  V30 4764 H 447.859 1.72977 4.67847 0
M  V30 4765 H 447.013 -0.175056 6.06447 0
M  V30 4766 H 445.752 -0.525004 4.84866 0
M  V30 4767 H 444.757 1.75109 5.21169 0
M  V30 4768 H 445.982 2.09196 6.46076 0
M  V30 4769 H 443.928 -0.149935 6.55829 0
M  V30 4770 H 443.845 1.33964 7.44036 0
M  V30 4771 H 445.113 0.203755 7.79234 0
M  V30 4772 N 449.342 -1.36122 0.79427 0
M  V30 4773 C 450.619 -1.93398 0.292685 0
M  V30 4774 C 450.999 -1.72567 -1.21589 0
M  V30 4775 O 450.347 -1.08745 -2.00965 0
M  V30 4776 C 450.557 -3.42099 0.690614 0
M  V30 4777 C 451.905 -4.19231 0.673105 0
M  V30 4778 O 452.929 -3.50559 0.631389 0
M  V30 4779 O 451.788 -5.41732 0.720362 0
M  V30 4780 H 448.882 -0.823712 0.0736693 0
M  V30 4781 H 451.428 -1.45273 0.87714 0
M  V30 4782 H 450.2 -3.50938 1.73085 0
M  V30 4783 H 449.823 -3.97519 0.0803036 0
M  V30 4784 N 450.82 -0.546701 -1.47814 0
M  V30 4785 C 452.066 -0.0187684 -2.02791 0
M  V30 4786 C 452.399 1.32338 -1.42128 0
M  V30 4787 O 451.674 1.85867 -0.573023 0
M  V30 4788 C 451.957 0.0854985 -3.59998 0
M  V30 4789 C 451.81 -1.283 -4.31114 0
M  V30 4790 C 453.129 0.80412 -4.32691 0
M  V30 4791 H 450.248 -0.0082946 -0.736953 0
M  V30 4792 H 452.89 -0.706962 -1.76358 0
M  V30 4793 H 451.04 0.671609 -3.82651 0
M  V30 4794 H 452.712 -1.91151 -4.19832 0
M  V30 4795 H 450.955 -1.86049 -3.91878 0
M  V30 4796 H 451.626 -1.16287 -5.39612 0
M  V30 4797 H 454.102 0.306576 -4.14969 0
M  V30 4798 H 452.978 0.846011 -5.42341 0
M  V30 4799 H 453.239 1.85802 -4.01161 0
M  V30 4800 N 452.299 1.55045 -0.282633 0
M  V30 4801 C 453.229 2.2579 0.595066 0
M  V30 4802 C 454.21 1.25074 1.15284 0
M  V30 4803 O 455.395 1.5381 1.18559 0
M  V30 4804 C 452.525 2.98472 1.77572 0
M  V30 4805 C 451.479 4.0618 1.34914 0
M  V30 4806 C 450.805 4.66477 2.6135 0
M  V30 4807 C 452.105 5.1996 0.493821 0
M  V30 4808 H 453.799 2.994 0.00505653 0
M  V30 4809 H 451.345 1.44 0.000992001 0
M  V30 4810 H 453.298 3.46677 2.39568 0
M  V30 4811 H 452.022 2.2241 2.39168 0
M  V30 4812 H 450.681 3.58797 0.752338 0
M  V30 4813 H 450.329 3.87074 3.2122 0
M  V30 4814 H 450.029 5.39207 2.33516 0
M  V30 4815 H 451.553 5.17435 3.24181 0
M  V30 4816 H 452.967 5.64172 1.01898 0
M  V30 4817 H 451.364 5.99299 0.310047 0
M  V30 4818 H 452.434 4.82462 -0.485593 0
M  V30 4819 N 453.777 0.010035 1.57597 0
M  V30 4820 C 455.025 -0.671371 1.90623 0
M  V30 4821 C 455.346 -1.73753 0.885151 0
M  V30 4822 O 454.616 -1.95752 -0.0760611 0
M  V30 4823 H 453.196 -0.250968 0.703579 0
M  V30 4824 H 455.858 0.0533325 1.94827 0
M  V30 4825 H 454.954 -1.13626 2.90681 0
M  V30 4826 N 455.255 -1.55392 -0.262866 0
M  V30 4827 C 456.502 -1.76476 -0.993109 0
M  V30 4828 C 456.83 -0.571479 -1.85915 0
M  V30 4829 O 456.085 0.445733 -1.90556 0
M  V30 4830 C 456.384 -3.02889 -1.89718 0
M  V30 4831 C 456.05 -4.34974 -1.18781 0
M  V30 4832 C 454.712 -4.7087 -0.991699 0
M  V30 4833 C 457.064 -5.16695 -0.683798 0
M  V30 4834 C 454.392 -5.86036 -0.279024 0
M  V30 4835 C 456.744 -6.32598 0.0153327 0
M  V30 4836 C 455.408 -6.67127 0.223062 0
M  V30 4837 H 454.678 -0.64577 -0.363404 0
M  V30 4838 H 457.325 -1.89664 -0.264525 0
M  V30 4839 H 455.63 -2.84644 -2.6923 0
M  V30 4840 H 457.327 -3.16399 -2.46359 0
M  V30 4841 H 453.917 -4.06765 -1.35058 0
M  V30 4842 H 458.101 -4.8943 -0.8229 0
M  V30 4843 H 453.357 -6.11306 -0.107456 0
M  V30 4844 H 457.531 -6.95171 0.413584 0
M  V30 4845 H 455.158 -7.56216 0.777265 0
M  V30 4846 N 456.733 0.527833 -1.48498 0
M  V30 4847 C 457.663 1.64136 -1.66077 0
M  V30 4848 C 458.644 1.62286 -0.509625 0
M  V30 4849 O 459.829 1.79449 -0.742413 0
M  V30 4850 C 456.959 3.02717 -1.70234 0
M  V30 4851 C 455.913 3.19426 -2.8487 0
M  V30 4852 C 455.239 4.5909 -2.74118 0
M  V30 4853 C 456.539 3.01993 -4.26142 0
M  V30 4854 H 458.233 1.4968 -2.593 0
M  V30 4855 H 455.779 0.718654 -1.24785 0
M  V30 4856 H 457.732 3.80491 -1.8112 0
M  V30 4857 H 456.456 3.18201 -0.735911 0
M  V30 4858 H 455.115 2.4407 -2.73542 0
M  V30 4859 H 454.763 4.71413 -1.7544 0
M  V30 4860 H 454.463 4.71214 -3.51042 0
M  V30 4861 H 455.987 5.3896 -2.86974 0
M  V30 4862 H 457.401 3.69558 -4.38292 0
M  V30 4863 H 455.798 3.2561 -5.04082 0
M  V30 4864 H 456.868 1.98396 -4.42456 0
M  V30 4865 N 458.211 1.37122 0.776871 0
M  V30 4866 C 459.627 1.1781 1.07671 0
M  V30 4867 C 459.827 0.0107454 2.01497 0
M  V30 4868 O 458.883 -0.650756 2.4397 0
M  V30 4869 C 460.196 2.49451 1.67913 0
M  V30 4870 C 461.744 2.55927 1.80195 0
M  V30 4871 C 462.219 3.87686 2.43851 0
M  V30 4872 N 463.71 3.891 2.51307 0
M  V30 4873 C 464.445 4.87797 3.014 0
M  V30 4874 N 463.941 5.96888 3.51705 0
M  V30 4875 N 465.734 4.75205 3.00227 0
M  V30 4876 H 457.885 2.11843 0.153778 0
M  V30 4877 H 460.148 0.938927 0.130844 0
M  V30 4878 H 459.854 3.35207 1.06439 0
M  V30 4879 H 459.728 2.66169 2.67271 0
M  V30 4880 H 462.115 1.70582 2.40803 0
M  V30 4881 H 462.196 2.43097 0.796069 0
M  V30 4882 H 461.84 4.73444 1.83884 0
M  V30 4883 H 461.77 3.97817 3.45035 0
M  V30 4884 H 464.261 3.10293 2.157 0
M  V30 4885 H 464.574 6.68155 3.88316 0
M  V30 4886 H 462.919 6.0054 3.49824 0
M  V30 4887 H 466.11 3.89103 2.60224 0
M  V30 4888 H 466.283 5.52279 3.38957 0
M  V30 4889 N 459.689 -1.00246 1.21608 0
M  V30 4890 C 460.935 -1.74319 1.03638 0
M  V30 4891 C 461.268 -1.89408 -0.428749 0
M  V30 4892 O 460.543 -1.43026 -1.3181 0
M  V30 4893 C 460.826 -3.15431 1.73711 0
M  V30 4894 C 460.679 -3.08049 3.27759 0
M  V30 4895 C 461.998 -4.14407 1.48173 0
M  V30 4896 H 459.117 -0.632741 0.377899 0
M  V30 4897 H 461.759 -1.16853 1.49818 0
M  V30 4898 H 459.909 -3.64493 1.34452 0
M  V30 4899 H 461.581 -2.66681 3.76403 0
M  V30 4900 H 459.824 -2.45088 3.57931 0
M  V30 4901 H 460.495 -4.07862 3.71958 0
M  V30 4902 H 462.971 -3.74061 1.82258 0
M  V30 4903 H 461.847 -5.11279 1.99713 0
M  V30 4904 H 462.108 -4.40174 0.412273 0
M  V30 4905 N 461.167 -1.02423 -1.1978 0
M  V30 4906 C 462.413 -0.719051 -1.89625 0
M  V30 4907 C 462.746 0.750083 -1.7913 0
M  V30 4908 O 462.021 1.54574 -1.18056 0
M  V30 4909 C 462.304 -1.16499 -3.40735 0
M  V30 4910 C 462.157 -2.695 -3.60125 0
M  V30 4911 C 463.476 -0.742166 -4.33797 0
M  V30 4912 H 460.595 -0.26269 -0.688595 0
M  V30 4913 H 463.237 -1.27333 -1.41018 0
M  V30 4914 H 461.387 -0.69341 -3.82262 0
M  V30 4915 H 463.059 -3.24569 -3.278 0
M  V30 4916 H 461.302 -3.10113 -3.03336 0
M  V30 4917 H 461.973 -2.95757 -4.66081 0
M  V30 4918 H 464.449 -1.1477 -3.99959 0
M  V30 4919 H 463.325 -1.08213 -5.38127 0
M  V30 4920 H 463.586 0.355747 -4.40666 0
M  V30 4921 N 462.645 1.35699 -0.801477 0
M  V30 4922 C 464.061 1.52065 -0.484596 0
M  V30 4923 C 464.261 1.75215 0.995084 0
M  V30 4924 O 463.317 1.79061 1.78026 0
M  V30 4925 C 464.63 2.69908 -1.32552 0
M  V30 4926 C 466.178 2.83784 -1.32044 0
M  V30 4927 C 466.653 4.04646 -2.14536 0
M  V30 4928 N 468.144 4.11814 -2.12046 0
M  V30 4929 C 468.879 5.04437 -2.72636 0
M  V30 4930 N 468.375 6.02426 -3.42133 0
M  V30 4931 N 470.168 4.97144 -2.62305 0
M  V30 4932 H 462.319 1.18928 -1.75983 0
M  V30 4933 H 464.582 0.581455 -0.748741 0
M  V30 4934 H 464.288 2.59363 -2.37537 0
M  V30 4935 H 464.162 3.64376 -0.975181 0
M  V30 4936 H 466.549 2.93783 -0.27846 0
M  V30 4937 H 466.63 1.90188 -1.71062 0
M  V30 4938 H 466.274 3.95407 -3.18772 0
M  V30 4939 H 466.204 4.97413 -1.72882 0
M  V30 4940 H 468.695 3.41664 -1.61476 0
M  V30 4941 H 469.008 6.69688 -3.85666 0
M  V30 4942 H 467.353 6.02615 -3.46237 0
M  V30 4943 H 470.544 4.19546 -2.07603 0
M  V30 4944 H 470.717 5.69138 -3.09815 0
M  V30 4945 N 464.123 0.554532 1.47522 0
M  V30 4946 C 465.37 0.029479 2.02479 0
M  V30 4947 C 465.698 -1.31929 1.42916 0
M  V30 4948 O 464.953 -1.87112 0.573385 0
M  V30 4949 C 465.252 -0.115927 3.57212 0
M  V30 4950 C 464.918 1.16161 4.3568 0
M  V30 4951 C 463.58 1.51168 4.56839 0
M  V30 4952 C 465.932 2.0083 4.80954 0
M  V30 4953 C 463.26 2.70696 5.2052 0
M  V30 4954 C 465.612 3.19559 5.45953 0
M  V30 4955 C 464.276 3.54882 5.65345 0
M  V30 4956 H 463.546 0.0107871 0.740921 0
M  V30 4957 H 466.193 0.725506 1.77225 0
M  V30 4958 H 464.498 -0.894902 3.81443 0
M  V30 4959 H 466.195 -0.53749 3.97381 0
M  V30 4960 H 462.785 0.879026 4.19489 0
M  V30 4961 H 466.969 1.75093 4.64388 0
M  V30 4962 H 462.225 2.98236 5.33728 0
M  V30 4963 H 466.399 3.85456 5.79997 0
M  V30 4964 H 464.026 4.47596 6.1446 0
M  V30 4965 N 465.601 -1.54893 0.290851 0
M  V30 4966 C 466.847 -2.0023 -0.321867 0
M  V30 4967 C 467.18 -1.179 -1.54316 0
M  V30 4968 O 466.455 -0.25293 -1.92848 0
M  V30 4969 C 466.738 -3.53456 -0.688515 0
M  V30 4970 C 466.591 -4.46532 0.541209 0
M  V30 4971 C 467.91 -4.13057 -1.51895 0
M  V30 4972 H 465.029 -0.727891 -0.115515 0
M  V30 4973 H 467.671 -1.85722 0.400931 0
M  V30 4974 H 465.821 -3.6595 -1.30433 0
M  V30 4975 H 467.493 -4.4596 1.17973 0
M  V30 4976 H 465.736 -4.17545 1.17636 0
M  V30 4977 H 466.407 -5.51475 0.240675 0
M  V30 4978 H 468.883 -4.03937 -0.99872 0
M  V30 4979 H 467.759 -5.20448 -1.74429 0
M  V30 4980 H 468.02 -3.64284 -2.50498 0
M  V30 4981 N 467.08 -0.0183926 -1.57589 0
M  V30 4982 C 468.496 0.337897 -1.55982 0
M  V30 4983 C 468.696 1.73604 -1.02294 0
M  V30 4984 O 467.752 2.43589 -0.664895 0
M  V30 4985 C 469.065 0.196305 -3.00059 0
M  V30 4986 C 470.613 0.269875 -3.11834 0
M  V30 4987 C 471.088 0.157197 -4.5773 0
M  V30 4988 N 472.579 0.214521 -4.62703 0
M  V30 4989 C 473.314 0.150955 -5.73201 0
M  V30 4990 N 472.81 0.0369212 -6.9279 0
M  V30 4991 N 474.603 0.204162 -5.61729 0
M  V30 4992 H 466.754 -0.93279 -1.90821 0
M  V30 4993 H 469.017 -0.359253 -0.877292 0
M  V30 4994 H 468.723 -0.766383 -3.43248 0
M  V30 4995 H 468.597 0.970908 -3.6449 0
M  V30 4996 H 470.984 1.22302 -2.68563 0
M  V30 4997 H 471.065 -0.534918 -2.50144 0
M  V30 4998 H 470.709 -0.792479 -5.01679 0
M  V30 4999 H 470.639 0.980717 -5.17387 0
M  V30 5000 H 473.13 0.303238 -3.76681 0
M  V30 5001 H 473.443 -0.00518321 -7.728 0
M  V30 5002 H 471.788 0.0022886 -6.95 0
M  V30 5003 H 474.979 0.291575 -4.67191 0
M  V30 5004 H 475.152 0.15116 -6.47824 0
M  V30 5005 N 468.558 1.5553 0.254621 0
M  V30 5006 C 469.807 1.76202 0.981612 0
M  V30 5007 C 470.12 0.580883 1.86776 0
M  V30 5008 O 471.326 0.670448 2.63092 0
M  V30 5009 C 469.782 3.11921 1.79537 0
M  V30 5010 C 469.39 4.37659 0.956991 0
M  V30 5011 C 471.134 3.41936 2.51555 0
M  V30 5012 C 469.041 5.64411 1.76619 0
M  V30 5013 H 467.971 0.656841 0.370237 0
M  V30 5014 H 470.622 1.81969 0.236556 0
M  V30 5015 H 469.004 3.00241 2.58208 0
M  V30 5016 H 470.178 4.60307 0.21315 0
M  V30 5017 H 468.493 4.14922 0.350497 0
M  V30 5018 H 471.09 4.33849 3.12536 0
M  V30 5019 H 471.433 2.62905 3.22779 0
M  V30 5020 H 471.966 3.54797 1.799 0
M  V30 5021 H 468.705 6.46241 1.09783 0
M  V30 5022 H 468.225 5.45877 2.48551 0
M  V30 5023 H 469.904 6.03386 2.33527 0
M  V30 5024 N 470.036 -0.519951 1.48776 0
M  V30 5025 C 470.966 -1.63253 1.66945 0
M  V30 5026 C 471.947 -1.62014 0.518224 0
M  V30 5027 O 473.132 -1.79053 0.751919 0
M  V30 5028 C 470.262 -3.0181 1.71836 0
M  V30 5029 C 469.216 -3.17911 2.8656 0
M  V30 5030 C 468.542 -4.5763 2.76548 0
M  V30 5031 C 469.842 -2.99729 4.27738 0
M  V30 5032 H 471.536 -1.48302 2.6009 0
M  V30 5033 H 469.082 -0.712026 1.25165 0
M  V30 5034 H 471.035 -3.79525 1.83135 0
M  V30 5035 H 469.759 -3.17806 0.752775 0
M  V30 5036 H 468.418 -2.42616 2.74833 0
M  V30 5037 H 468.066 -4.70476 1.77937 0
M  V30 5038 H 467.766 -4.69346 3.53536 0
M  V30 5039 H 469.29 -5.37431 2.89828 0
M  V30 5040 H 470.704 -3.67228 4.40246 0
M  V30 5041 H 469.101 -3.22932 5.05801 0
M  V30 5042 H 470.171 -1.96047 4.43502 0
M  V30 5043 N 471.514 -1.37532 -0.769588 0
M  V30 5044 C 472.93 -1.18379 -1.07045 0
M  V30 5045 C 473.13 -0.0214312 -2.01489 0
M  V30 5046 O 472.186 0.637809 -2.44312 0
M  V30 5047 C 473.499 -2.50338 -1.66588 0
M  V30 5048 C 475.047 -2.56879 -1.78835 0
M  V30 5049 C 475.522 -3.88974 -2.41792 0
M  V30 5050 N 477.013 -3.90428 -2.4924 0
M  V30 5051 C 477.748 -4.89388 -2.98809 0
M  V30 5052 N 477.244 -5.98745 -3.48535 0
M  V30 5053 N 479.037 -4.76791 -2.97703 0
M  V30 5054 H 471.188 -2.11921 -0.142541 0
M  V30 5055 H 473.451 -0.939608 -0.125863 0
M  V30 5056 H 473.157 -3.35767 -1.0466 0
M  V30 5057 H 473.031 -2.67583 -2.65856 0
M  V30 5058 H 475.418 -1.71856 -2.39895 0
M  V30 5059 H 475.499 -2.43516 -0.783166 0
M  V30 5060 H 475.143 -4.74412 -1.81371 0
M  V30 5061 H 475.073 -3.99641 -3.4292 0
M  V30 5062 H 477.564 -3.11433 -2.14052 0
M  V30 5063 H 477.877 -6.70205 -3.84767 0
M  V30 5064 H 476.222 -6.02387 -3.46634 0
M  V30 5065 H 479.413 -3.90478 -2.58157 0
M  V30 5066 H 479.586 -5.54069 -3.36024 0
M  V30 5067 N 472.992 0.995999 -1.22138 0
M  V30 5068 C 474.241 1.72928 -1.03821 0
M  V30 5069 C 474.554 1.90872 0.427444 0
M  V30 5070 O 475.76 2.61496 0.730212 0
M  V30 5071 C 474.216 3.11124 -1.80913 0
M  V30 5072 C 473.824 3.01122 -3.31707 0
M  V30 5073 C 475.568 3.8852 -1.71035 0
M  V30 5074 C 473.475 4.34453 -4.01253 0
M  V30 5075 H 472.405 0.648376 -0.384869 0
M  V30 5076 H 475.056 1.11213 -1.45959 0
M  V30 5077 H 473.438 3.73503 -1.31573 0
M  V30 5078 H 474.612 2.47926 -3.88419 0
M  V30 5079 H 472.927 2.3721 -3.42228 0
M  V30 5080 H 475.524 4.872 -2.20318 0
M  V30 5081 H 475.867 4.1087 -0.670196 0
M  V30 5082 H 476.4 3.32812 -2.17902 0
M  V30 5083 H 473.139 4.17303 -5.05508 0
M  V30 5084 H 472.659 4.87574 -3.49331 0
M  V30 5085 H 474.338 5.03215 -4.06674 0
M  V30 5086 N 474.47 1.03057 1.19235 0
M  V30 5087 C 475.717 0.728019 1.88961 0
M  V30 5088 C 476.045 -0.743515 1.79728 0
M  V30 5089 O 475.3 -1.55729 1.1852 0
M  V30 5090 C 475.599 1.1268 3.39172 0
M  V30 5091 C 475.265 2.5969 3.68608 0
M  V30 5092 C 473.927 2.99854 3.76352 0
M  V30 5093 C 476.279 3.54793 3.81801 0
M  V30 5094 C 473.607 4.34031 3.94758 0
M  V30 5095 C 475.959 4.88675 4.0172 0
M  V30 5096 C 474.623 5.28526 4.07697 0
M  V30 5097 H 473.893 0.266401 0.691456 0
M  V30 5098 H 476.54 1.29373 1.41191 0
M  V30 5099 H 474.845 0.479722 3.88852 0
M  V30 5100 H 476.542 0.870203 3.91444 0
M  V30 5101 H 473.132 2.27575 3.63191 0
M  V30 5102 H 477.316 3.24914 3.7516 0
M  V30 5103 H 472.572 4.6444 3.97625 0
M  V30 5104 H 476.746 5.6228 4.1087 0
M  V30 5105 H 474.373 6.32506 4.21712 0
M  V30 5106 N 475.948 -1.35272 0.808662 0
M  V30 5107 C 476.895 -2.29764 0.218482 0
M  V30 5108 C 477.865 -1.52911 -0.648652 0
M  V30 5109 O 479.05 -1.81341 -0.593297 0
M  V30 5110 C 476.19 -3.39388 -0.625282 0
M  V30 5111 C 475.303 -4.31202 0.262516 0
M  V30 5112 C 474.438 -5.27919 -0.589451 0
M  V30 5113 C 473.477 -6.11371 0.298617 0
M  V30 5114 N 472.614 -7.0022 -0.513443 0
M  V30 5115 H 477.454 -2.79645 1.02968 0
M  V30 5116 H 474.991 -1.37629 0.519303 0
M  V30 5117 H 476.949 -4.01615 -1.12966 0
M  V30 5118 H 475.579 -2.90777 -1.40173 0
M  V30 5119 H 474.631 -3.69962 0.885013 0
M  V30 5120 H 475.943 -4.89748 0.945971 0
M  V30 5121 H 475.097 -5.95529 -1.15888 0
M  V30 5122 H 473.836 -4.69875 -1.30647 0
M  V30 5123 H 472.841 -5.42707 0.880301 0
M  V30 5124 H 474.066 -6.71494 1.01352 0
M  V30 5125 H 472.012 -6.44662 -1.21439 0
M  V30 5126 H 471.929 -7.55917 0.111922 0
M  V30 5127 H 473.197 -7.72175 -1.06608 0
M  V30 5128 N 477.426 -0.562348 -1.47226 0
M  V30 5129 C 478.356 0.170627 -2.32876 0
M  V30 5130 C 479.337 0.903748 -1.44106 0
M  V30 5131 O 480.522 0.883206 -1.72954 0
M  V30 5132 C 477.652 1.19786 -3.25989 0
M  V30 5133 C 476.606 0.580875 -4.2404 0
M  V30 5134 C 475.932 1.71311 -5.06514 0
M  V30 5135 C 477.232 -0.468714 -5.20193 0
M  V30 5136 H 478.926 -0.544441 -2.94408 0
M  V30 5137 H 476.472 -0.263271 -1.41573 0
M  V30 5138 H 478.425 1.71884 -3.84752 0
M  V30 5139 H 477.149 1.94294 -2.62521 0
M  V30 5140 H 475.808 0.0811538 -3.6651 0
M  V30 5141 H 475.456 2.44736 -4.39447 0
M  V30 5142 H 475.156 1.30604 -5.72902 0
M  V30 5143 H 476.68 2.23725 -5.68137 0
M  V30 5144 H 478.094 -0.0336028 -5.7329 0
M  V30 5145 H 476.491 -0.794957 -5.94811 0
M  V30 5146 H 477.561 -1.36269 -4.65359 0
M  V30 5147 N 478.904 1.54736 -0.299062 0
M  V30 5148 C 480.132 2.04512 0.313447 0
M  V30 5149 C 480.547 1.17643 1.47667 0
M  V30 5150 O 479.904 0.20164 1.81383 0
M  V30 5151 C 479.955 3.53171 0.771542 0
M  V30 5152 O 479.676 4.36736 -0.345379 0
M  V30 5153 C 481.177 4.18936 1.4494 0
M  V30 5154 H 478.397 0.667507 0.0683784 0
M  V30 5155 H 480.941 1.99752 -0.438129 0
M  V30 5156 H 479.096 3.58298 1.47314 0
M  V30 5157 H 479.51 5.24499 0.0109219 0
M  V30 5158 H 480.984 5.24482 1.72111 0
M  V30 5159 H 481.461 3.68554 2.38883 0
M  V30 5160 H 482.067 4.17879 0.791028 0
M  V30 5161 N 480.382 0.0267497 1.57577 0
M  V30 5162 C 481.798 -0.32962 1.56159 0
M  V30 5163 C 481.998 -1.73059 1.03213 0
M  V30 5164 O 481.054 -2.43233 0.677804 0
M  V30 5165 C 482.367 -0.18039 3.00158 0
M  V30 5166 C 483.915 -0.253334 3.11973 0
M  V30 5167 C 484.39 -0.132921 4.57807 0
M  V30 5168 N 485.881 -0.189979 4.6281 0
M  V30 5169 C 486.616 -0.120554 5.73273 0
M  V30 5170 N 486.112 -0.000180315 6.928 0
M  V30 5171 N 487.905 -0.174369 5.61829 0
M  V30 5172 H 480.056 0.942896 1.90324 0
M  V30 5173 H 482.319 0.3639 0.875375 0
M  V30 5174 H 482.025 0.784576 3.42837 0
M  V30 5175 H 481.899 -0.951565 3.65 0
M  V30 5176 H 484.286 -1.20876 2.69208 0
M  V30 5177 H 484.367 0.548177 2.49857 0
M  V30 5178 H 484.011 0.819073 5.01252 0
M  V30 5179 H 483.941 -0.953264 5.179 0
M  V30 5180 H 486.432 -0.283257 3.76837 0
M  V30 5181 H 486.745 0.0461666 7.72786 0
M  V30 5182 H 485.09 0.034569 6.94991 0
M  V30 5183 H 488.281 -0.266794 4.67339 0
M  V30 5184 H 488.454 -0.116802 6.47895 0
M  V30 5185 N 481.861 -1.55662 -0.24637 0
M  V30 5186 C 482.811 -1.86753 -1.30795 0
M  V30 5187 C 483.795 -0.728445 -1.43466 0
M  V30 5188 O 484.987 -0.99038 -1.46699 0
M  V30 5189 C 482.116 -2.16618 -2.66329 0
M  V30 5190 C 481.202 -3.36855 -2.57661 0
M  V30 5191 N 481.593 -4.56111 -2.18624 0
M  V30 5192 C 479.891 -3.39976 -2.88673 0
M  V30 5193 C 480.592 -5.38247 -2.20601 0
M  V30 5194 N 479.568 -4.77322 -2.60124 0
M  V30 5195 H 483.37 -2.76486 -0.996642 0
M  V30 5196 H 480.884 -1.55896 -0.454994 0
M  V30 5197 H 482.881 -2.37057 -3.42942 0
M  V30 5198 H 481.541 -1.28185 -2.98327 0
M  V30 5199 H 482.552 -4.81726 -1.9016 0
M  V30 5200 H 479.229 -2.61815 -3.25206 0
M  V30 5201 H 480.619 -6.43657 -1.92756 0
M  V30 5202 N 483.339 0.512053 -1.4905 0
M  V30 5203 C 484.586 1.26686 -1.57978 0
M  V30 5204 C 484.914 1.92733 -0.261553 0
M  V30 5205 O 484.169 1.80772 0.749667 0
M  V30 5206 C 484.468 2.36446 -2.68008 0
M  V30 5207 C 484.134 1.87932 -4.09869 0
M  V30 5208 C 482.796 1.74419 -4.48477 0
M  V30 5209 C 485.148 1.5149 -4.98698 0
M  V30 5210 C 482.476 1.22827 -5.73699 0
M  V30 5211 C 484.828 1.01355 -6.24428 0
M  V30 5212 C 483.492 0.864735 -6.61875 0
M  V30 5213 H 482.762 0.463577 -0.578081 0
M  V30 5214 H 485.409 0.569421 -1.82838 0
M  V30 5215 H 483.714 3.11933 -2.37076 0
M  V30 5216 H 485.411 2.9453 -2.72127 0
M  V30 5217 H 482.001 1.99405 -3.79389 0
M  V30 5218 H 486.185 1.60782 -4.69535 0
M  V30 5219 H 481.441 1.10008 -6.01422 0
M  V30 5220 H 485.615 0.722351 -6.92644 0
M  V30 5221 H 483.242 0.462777 -7.5879 0
M  V30 5222 N 484.817 1.37938 0.762283 0
M  V30 5223 C 486.063 1.33866 1.52341 0
M  V30 5224 C 486.396 -0.0738961 1.94059 0
M  V30 5225 O 485.671 -1.03326 1.64785 0
M  V30 5226 C 485.954 2.28644 2.78197 0
M  V30 5227 C 485.807 3.78722 2.42672 0
M  V30 5228 C 487.126 2.21702 3.80179 0
M  V30 5229 H 484.245 0.487593 0.55265 0
M  V30 5230 H 486.887 1.68717 0.873767 0
M  V30 5231 H 485.037 1.99055 3.33631 0
M  V30 5232 H 486.709 4.18948 1.93081 0
M  V30 5233 H 484.952 3.96827 1.75244 0
M  V30 5234 H 485.623 4.40486 3.3268 0
M  V30 5235 H 488.099 2.47805 3.34263 0
M  V30 5236 H 486.975 2.90143 4.65949 0
M  V30 5237 H 487.236 1.21301 4.25133 0
M  V30 5238 N 486.295 -0.989507 1.22664 0
M  V30 5239 C 487.543 -1.72612 1.05117 0
M  V30 5240 C 487.864 -1.90552 -0.414131 0
M  V30 5241 O 487.134 -1.4676 -1.29762 0
M  V30 5242 H 485.714 -0.639555 0.385977 0
M  V30 5243 H 488.376 -1.19158 1.54232 0
M  V30 5244 H 487.472 -2.71926 1.53175 0
M  V30 5245 N 487.773 -1.03688 -1.18687 0
M  V30 5246 C 488.703 -0.645407 -2.24403 0
M  V30 5247 C 489.684 0.349511 -1.66471 0
M  V30 5248 O 490.869 0.230453 -1.92828 0
M  V30 5249 C 487.999 -0.00365337 -3.473 0
M  V30 5250 C 486.953 -0.921705 -4.17958 0
M  V30 5251 C 486.279 -0.144629 -5.34504 0
M  V30 5252 C 487.579 -2.23909 -4.71871 0
M  V30 5253 H 489.273 -1.52917 -2.57404 0
M  V30 5254 H 486.819 -0.736711 -1.23728 0
M  V30 5255 H 488.772 0.281908 -4.20456 0
M  V30 5256 H 487.496 0.914963 -3.13522 0
M  V30 5257 H 486.155 -1.19159 -3.46694 0
M  V30 5258 H 485.803 0.776274 -4.96974 0
M  V30 5259 H 485.503 -0.756206 -5.82714 0
M  V30 5260 H 487.027 0.134004 -6.10453 0
M  V30 5261 H 488.441 -2.0145 -5.36741 0
M  V30 5262 H 486.838 -2.8033 -5.30599 0
M  V30 5263 H 487.908 -2.88822 -3.895 0
M  V30 5264 N 489.251 1.34841 -0.815825 0
M  V30 5265 C 490.667 1.51543 -0.500697 0
M  V30 5266 C 490.867 1.76261 0.976444 0
M  V30 5267 O 489.923 1.8094 1.76117 0
M  V30 5268 C 491.236 2.68487 -1.35407 0
M  V30 5269 C 492.784 2.82368 -1.35046 0
M  V30 5270 C 493.259 4.02347 -2.18816 0
M  V30 5271 N 494.75 4.09542 -2.16402 0
M  V30 5272 C 495.485 5.01517 -2.77971 0
M  V30 5273 N 494.981 5.98763 -3.48503 0
M  V30 5274 N 496.774 4.94334 -2.67563 0
M  V30 5275 H 488.925 1.17055 -1.77234 0
M  V30 5276 H 491.188 0.573481 -0.754866 0
M  V30 5277 H 490.894 2.56829 -2.40274 0
M  V30 5278 H 490.768 3.63321 -1.01377 0
M  V30 5279 H 493.155 2.93471 -0.309604 0
M  V30 5280 H 493.236 1.88363 -1.73069 0
M  V30 5281 H 492.88 3.92004 -3.22948 0
M  V30 5282 H 492.81 4.95551 -1.78148 0
M  V30 5283 H 495.301 3.39932 -1.65091 0
M  V30 5284 H 495.614 6.6556 -3.92747 0
M  V30 5285 H 493.959 5.98909 -3.52609 0
M  V30 5286 H 497.15 4.1732 -2.12041 0
M  V30 5287 H 497.323 5.6582 -3.15834 0
M  V30 5288 N 490.729 0.570148 1.46925 0
M  V30 5289 C 491.975 0.0510284 2.02736 0
M  V30 5290 C 492.308 -1.3006 1.44215 0
M  V30 5291 O 491.583 -1.84932 0.602521 0
M  V30 5292 C 491.866 -0.028215 3.60089 0
M  V30 5293 C 491.719 1.35142 4.29018 0
M  V30 5294 C 493.038 -0.735181 4.33916 0
M  V30 5295 H 490.157 0.0200178 0.736728 0
M  V30 5296 H 492.799 0.73493 1.75211 0
M  V30 5297 H 490.949 -0.610648 3.83671 0
M  V30 5298 H 492.621 1.97806 4.16738 0
M  V30 5299 H 490.864 1.9226 3.88868 0
M  V30 5300 H 491.535 1.24857 5.37694 0
M  V30 5301 H 494.011 -0.240519 4.15404 0
M  V30 5302 H 492.887 -0.759622 5.43618 0
M  V30 5303 H 493.148 -1.79397 4.04066 0
M  V30 5304 N 492.207 -1.54576 0.307264 0
M  V30 5305 C 493.137 -2.26708 -0.55907 0
M  V30 5306 C 494.118 -1.26893 -1.1328 0
M  V30 5307 O 495.303 -1.55677 -1.16097 0
M  V30 5308 C 492.433 -3.01259 -1.72801 0
M  V30 5309 C 491.387 -4.08275 -1.28435 0
M  V30 5310 C 490.713 -4.70575 -2.53895 0
M  V30 5311 C 492.013 -5.2068 -0.411038 0
M  V30 5312 H 493.707 -2.9937 0.042576 0
M  V30 5313 H 491.253 -1.43983 0.0219173 0
M  V30 5314 H 493.206 -3.50444 -2.34023 0
M  V30 5315 H 491.93 -2.26187 -2.356 0
M  V30 5316 H 490.589 -3.59949 -0.695161 0
M  V30 5317 H 490.237 -3.92136 -3.15021 0
M  V30 5318 H 489.937 -5.42854 -2.24908 0
M  V30 5319 H 491.461 -5.22527 -3.15908 0
M  V30 5320 H 492.875 -5.65721 -0.929097 0
M  V30 5321 H 491.272 -5.99716 -0.214664 0
M  V30 5322 H 492.342 -4.81629 0.562287 0
M  V30 5323 N 493.685 -0.035106 -1.57561 0
M  V30 5324 C 494.933 0.64096 -1.91667 0
M  V30 5325 C 495.254 1.72323 -0.912681 0
M  V30 5326 O 494.524 1.95849 0.0449089 0
M  V30 5327 H 493.104 0.239743 -0.707483 0
M  V30 5328 H 495.766 -0.084321 -1.94718 0
M  V30 5329 H 494.862 1.08987 -2.92452 0
M  V30 5330 N 495.163 1.55791 0.238111 0
M  V30 5331 C 496.113 1.87444 1.29803 0
M  V30 5332 C 497.097 0.736043 1.43078 0
M  V30 5333 O 498.289 0.998146 1.46171 0
M  V30 5334 C 495.418 2.18028 2.65177 0
M  V30 5335 C 494.504 3.38217 2.55871 0
M  V30 5336 N 494.895 4.57264 2.16202 0
M  V30 5337 C 493.193 3.41502 2.86866 0
M  V30 5338 C 493.894 5.3941 2.17744 0
M  V30 5339 N 492.87 4.78695 2.57589 0
M  V30 5340 H 496.672 2.7701 0.981965 0
M  V30 5341 H 494.186 1.56135 0.44672 0
M  V30 5342 H 496.183 2.38873 3.4168 0
M  V30 5343 H 494.843 1.29765 2.97643 0
M  V30 5344 H 495.854 4.82727 1.87602 0
M  V30 5345 H 492.531 2.63536 3.23813 0
M  V30 5346 H 493.921 6.44671 1.89339 0
M  V30 5347 N 496.642 -0.504142 1.49319 0
M  V30 5348 C 497.87 -1.28256 1.62351 0
M  V30 5349 C 498.285 -1.86502 0.293682 0
M  V30 5350 O 497.642 -1.67678 -0.720449 0
M  V30 5351 C 497.693 -2.41507 2.68992 0
M  V30 5352 O 497.414 -1.85656 3.96817 0
M  V30 5353 C 498.915 -3.32929 2.927 0
M  V30 5354 H 496.135 -0.389115 0.546654 0
M  V30 5355 H 498.679 -0.605531 1.95329 0
M  V30 5356 H 496.834 -3.05046 2.38801 0
M  V30 5357 H 497.248 -2.59981 4.55533 0
M  V30 5358 H 498.722 -4.0868 3.71058 0
M  V30 5359 H 499.199 -3.89733 2.02496 0
M  V30 5360 H 499.805 -2.75158 3.24296 0
M  V30 5361 N 498.12 -1.38341 -0.754957 0
M  V30 5362 C 499.05 -1.38176 -1.88227 0
M  V30 5363 C 500.031 -0.247873 -1.68284 0
M  V30 5364 O 501.216 -0.45075 -1.88896 0
M  V30 5365 C 498.346 -1.20471 -3.25736 0
M  V30 5366 C 497.3 -2.3105 -3.60278 0
M  V30 5367 C 496.626 -1.98452 -4.96509 0
M  V30 5368 C 497.926 -3.73305 -3.65295 0
M  V30 5369 H 499.62 -2.32512 -1.88622 0
M  V30 5370 H 497.166 -1.1192 -0.906082 0
M  V30 5371 H 499.119 -1.18982 -4.04254 0
M  V30 5372 H 497.843 -0.225965 -3.25817 0
M  V30 5373 H 496.502 -2.31723 -2.84078 0
M  V30 5374 H 496.15 -0.990641 -4.93148 0
M  V30 5375 H 495.85 -2.7251 -5.20588 0
M  V30 5376 H 497.374 -1.98578 -5.77407 0
M  V30 5377 H 498.788 -3.7467 -4.3393 0
M  V30 5378 H 497.185 -4.46557 -4.00883 0
M  V30 5379 H 498.255 -4.05719 -2.65556 0
M  V30 5380 N 499.598 0.982988 -1.23187 0
M  V30 5381 C 501.014 1.2487 -0.993967 0
M  V30 5382 C 501.214 1.99155 0.306498 0
M  V30 5383 O 500.27 2.30688 1.0266 0
M  V30 5384 C 501.583 2.05078 -2.19917 0
M  V30 5385 C 503.131 2.18227 -2.2438 0
M  V30 5386 C 503.606 3.01825 -3.44479 0
M  V30 5387 N 505.097 3.09411 -3.44702 0
M  V30 5388 C 505.832 3.74412 -4.34285 0
M  V30 5389 N 505.328 4.41259 -5.341 0
M  V30 5390 N 507.121 3.71273 -4.22035 0
M  V30 5391 H 499.272 0.485253 -2.06783 0
M  V30 5392 H 501.535 0.276979 -0.906635 0
M  V30 5393 H 501.241 1.57867 -3.14279 0
M  V30 5394 H 501.115 3.05829 -2.2079 0
M  V30 5395 H 503.502 2.64648 -1.30559 0
M  V30 5396 H 503.583 1.16873 -2.2754 0
M  V30 5397 H 503.227 2.56102 -4.38605 0
M  V30 5398 H 503.157 4.03342 -3.38559 0
M  V30 5399 H 505.648 2.61845 -2.7248 0
M  V30 5400 H 505.961 4.88629 -5.98717 0
M  V30 5401 H 504.306 4.39975 -5.38002 0
M  V30 5402 H 507.497 3.18217 -3.43301 0
M  V30 5403 H 507.67 4.21649 -4.92053 0
M  V30 5404 N 501.076 1.04316 1.18135 0
M  V30 5405 C 502.039 0.640794 2.2006 0
M  V30 5406 C 503.039 -0.303124 1.57917 0
M  V30 5407 O 504.229 -0.0881855 1.73977 0
M  V30 5408 C 501.361 -0.060148 3.40847 0
M  V30 5409 H 502.554 1.54281 2.57172 0
M  V30 5410 H 500.107 0.836004 1.32063 0
M  V30 5411 H 500.842 -0.975845 3.0927 0
M  V30 5412 H 500.627 0.618319 3.87194 0
M  V30 5413 H 502.117 -0.328082 4.16309 0
M  V30 5414 N 502.554 -1.34406 0.822964 0
M  V30 5415 C 503.779 -2.0304 0.423034 0
M  V30 5416 C 504.204 -1.61568 -0.963196 0
M  V30 5417 O 503.562 -0.800339 -1.62678 0
M  V30 5418 C 503.61 -3.56636 0.53321 0
M  V30 5419 O 502.714 -4.09971 -0.446939 0
M  V30 5420 H 502.055 -0.64075 0.174171 0
M  V30 5421 H 504.585 -1.71653 1.11339 0
M  V30 5422 H 504.595 -4.05945 0.408991 0
M  V30 5423 H 503.27 -3.86168 1.54425 0
M  V30 5424 H 501.847 -3.71835 -0.281601 0
M  V30 5425 N 504.032 -0.577932 -1.46621 0
M  V30 5426 C 505.26 -0.0671642 -2.06791 0
M  V30 5427 C 505.675 1.23571 -1.42743 0
M  V30 5428 O 505.032 1.74602 -0.531062 0
M  V30 5429 C 505.083 0.110357 -3.61332 0
M  V30 5430 O 504.804 -1.14095 -4.22982 0
M  V30 5431 C 506.305 0.656025 -4.38419 0
M  V30 5432 H 503.525 -0.0552732 -0.66872 0
M  V30 5433 H 506.069 -0.797242 -1.8832 0
M  V30 5434 H 504.224 0.790637 -3.79246 0
M  V30 5435 H 504.638 -0.951742 -5.15793 0
M  V30 5436 H 506.112 0.729438 -5.47159 0
M  V30 5437 H 506.589 1.67195 -4.06131 0
M  V30 5438 H 507.195 0.0107692 -4.25299 0
M  V30 5439 N 505.51 1.54411 -0.315457 0
M  V30 5440 C 506.458 2.25514 0.569771 0
M  V30 5441 C 507.452 1.2663 1.12522 0
M  V30 5442 O 508.658 1.44434 1.07419 0
M  V30 5443 H 505.033 0.724257 0.202376 0
M  V30 5444 H 507.004 2.98354 -0.0522895 0
M  V30 5445 C 505.753 3.02004 1.72305 0
M  V30 5446 H 505.076 3.77906 1.30488 0
M  V30 5447 H 506.516 3.55014 2.31821 0
M  V30 5448 C 504.975 2.09822 2.63583 0
M  V30 5449 O 505.505 1.67574 3.65078 0
M  V30 5450 N 503.711 1.75478 2.31637 0
M  V30 5451 H 503.258 2.10032 1.49145 0
M  V30 5452 H 503.216 1.14079 2.92973 0
M  V30 5453 N 506.988 0.0434614 1.5754 0
M  V30 5454 C 507.898 -0.94893 2.14552 0
M  V30 5455 C 508.914 -1.34707 1.10136 0
M  V30 5456 O 510.09 -1.42557 1.42266 0
M  V30 5457 C 507.155 -2.208 2.67298 0
M  V30 5458 C 506.216 -1.86893 3.86484 0
M  V30 5459 C 505.449 -3.06797 4.36705 0
M  V30 5460 O 505.672 -4.19921 3.86034 0
M  V30 5461 O 504.606 -2.8826 5.28384 0
M  V30 5462 H 508.432 -0.494099 2.99654 0
M  V30 5463 H 506.017 -0.177989 1.48336 0
M  V30 5464 H 507.899 -2.94686 3.01228 0
M  V30 5465 H 506.574 -2.65436 1.85272 0
M  V30 5466 H 505.481 -1.10347 3.57455 0
M  V30 5467 H 506.814 -1.47062 4.69716 0
M  V30 5468 N 508.466 -1.55915 -0.229846 0
M  V30 5469 C 509.713 -1.78542 -0.955452 0
M  V30 5470 C 510.041 -0.610785 -1.84661 0
M  V30 5471 O 509.296 0.405213 -1.91459 0
M  V30 5472 C 509.595 -3.06845 -1.8325 0
M  V30 5473 C 509.261 -4.37395 -1.09528 0
M  V30 5474 C 507.923 -4.72868 -0.891598 0
M  V30 5475 C 510.275 -5.18029 -0.574046 0
M  V30 5476 C 507.603 -5.86496 -0.154655 0
M  V30 5477 C 509.955 -6.32423 0.149513 0
M  V30 5478 C 508.619 -6.66504 0.364519 0
M  V30 5479 H 507.889 -0.653333 -0.349625 0
M  V30 5480 H 510.536 -1.90183 -0.224235 0
M  V30 5481 H 508.841 -2.90291 -2.63132 0
M  V30 5482 H 510.538 -3.21553 -2.39592 0
M  V30 5483 H 507.128 -4.09538 -1.26399 0
M  V30 5484 H 511.312 -4.91066 -0.718899 0
M  V30 5485 H 506.568 -6.11396 0.0222356 0
M  V30 5486 H 510.742 -6.94137 0.560947 0
M  V30 5487 H 508.369 -7.54397 0.937495 0
M  V30 5488 N 509.944 0.496216 -1.49584 0
M  V30 5489 C 510.874 1.60576 -1.69521 0
M  V30 5490 C 511.855 1.61169 -0.543933 0
M  V30 5491 O 513.04 1.77834 -0.78031 0
M  V30 5492 C 510.17 2.99038 -1.76616 0
M  V30 5493 C 509.124 3.13312 -2.91581 0
M  V30 5494 C 508.45 4.53172 -2.83794 0
M  V30 5495 C 509.75 2.92886 -4.32452 0
M  V30 5496 H 511.444 1.44146 -2.62416 0
M  V30 5497 H 508.99 0.692024 -1.26282 0
M  V30 5498 H 510.943 3.76564 -1.8915 0
M  V30 5499 H 509.667 3.16568 -0.80324 0
M  V30 5500 H 508.326 2.38213 -2.78658 0
M  V30 5501 H 507.974 4.67585 -1.854 0
M  V30 5502 H 507.674 4.63662 -3.60958 0
M  V30 5503 H 509.198 5.32752 -2.98342 0
M  V30 5504 H 510.612 3.60178 -4.46032 0
M  V30 5505 H 509.009 3.14844 -5.10875 0
M  V30 5506 H 510.079 1.88966 -4.46565 0
M  V30 5507 N 511.423 1.38739 0.74761 0
M  V30 5508 C 512.353 1.39173 1.87492 0
M  V30 5509 C 513.334 0.256794 1.6815 0
M  V30 5510 O 514.519 0.460762 1.88655 0
M  V30 5511 C 511.649 1.22197 3.25093 0
M  V30 5512 C 510.603 2.32957 3.59047 0
M  V30 5513 C 509.929 2.01082 4.95449 0
M  V30 5514 C 511.229 3.75237 3.6331 0
M  V30 5515 H 512.923 2.3351 1.87386 0
M  V30 5516 H 510.469 1.12399 0.900134 0
M  V30 5517 H 512.422 1.21124 4.03617 0
M  V30 5518 H 511.146 0.243241 3.25693 0
M  V30 5519 H 509.805 2.33226 2.82845 0
M  V30 5520 H 509.453 1.01678 4.92616 0
M  V30 5521 H 509.153 2.75267 5.19136 0
M  V30 5522 H 510.677 2.01638 5.76346 0
M  V30 5523 H 512.091 3.76966 4.31937 0
M  V30 5524 H 510.488 4.48677 3.98509 0
M  V30 5525 H 511.558 4.07122 2.634 0
M  V30 5526 N 512.901 -0.976442 1.23707 0
M  V30 5527 C 513.831 -2.08749 1.04624 0
M  V30 5528 C 514.812 -1.70057 -0.0380956 0
M  V30 5529 O 515.997 -1.93782 0.127308 0
M  V30 5530 C 513.127 -3.41335 0.640902 0
M  V30 5531 C 512.081 -3.93947 1.67302 0
M  V30 5532 C 511.407 -5.22774 1.12301 0
M  V30 5533 C 512.707 -4.22769 3.06697 0
M  V30 5534 H 514.401 -2.24972 1.97555 0
M  V30 5535 H 511.947 -1.08108 0.951247 0
M  V30 5536 H 513.9 -4.18489 0.494434 0
M  V30 5537 H 512.624 -3.24988 -0.324099 0
M  V30 5538 H 511.283 -3.18941 1.80755 0
M  V30 5539 H 510.931 -5.0278 0.148877 0
M  V30 5540 H 510.631 -5.58942 1.81267 0
M  V30 5541 H 512.155 -6.02546 0.988479 0
M  V30 5542 H 513.569 -4.90659 2.96524 0
M  V30 5543 H 511.966 -4.70147 3.72937 0
M  V30 5544 H 513.036 -3.29885 3.55392 0
M  V30 5545 N 514.379 -1.04941 -1.1758 0
M  V30 5546 C 515.628 -0.753124 -1.87112 0
M  V30 5547 C 515.941 0.722507 -1.81767 0
M  V30 5548 O 517.147 1.13265 -2.46746 0
M  V30 5549 C 515.603 -1.29695 -3.35719 0
M  V30 5550 C 515.211 -2.80184 -3.49572 0
M  V30 5551 C 516.955 -1.07759 -4.10595 0
M  V30 5552 C 514.862 -3.2788 -4.92187 0
M  V30 5553 H 513.792 -0.278034 -0.700866 0
M  V30 5554 H 516.443 -1.26637 -1.32798 0
M  V30 5555 H 514.825 -0.711522 -3.89555 0
M  V30 5556 H 515.999 -3.44561 -3.05965 0
M  V30 5557 H 514.314 -3.00632 -2.88113 0
M  V30 5558 H 516.911 -1.40899 -5.15802 0
M  V30 5559 H 517.254 -0.0152302 -4.16297 0
M  V30 5560 H 517.787 -1.62809 -3.62957 0
M  V30 5561 H 514.526 -4.33535 -4.91658 0
M  V30 5562 H 514.046 -2.68245 -5.36475 0
M  V30 5563 H 515.725 -3.22412 -5.60945 0
M  V30 5564 N 515.857 1.33968 -0.830081 0
M  V30 5565 C 517.106 1.97323 -0.417928 0
M  V30 5566 C 517.419 1.6652 1.02618 0
M  V30 5567 O 518.625 2.2342 1.54259 0
M  V30 5568 C 517.081 3.53099 -0.696359 0
M  V30 5569 C 516.689 3.92788 -2.15457 0
M  V30 5570 C 518.433 4.23049 -0.350724 0
M  V30 5571 C 516.34 5.41506 -2.37751 0
M  V30 5572 H 515.27 0.738409 -0.152541 0
M  V30 5573 H 517.921 1.52711 -1.01744 0
M  V30 5574 H 516.303 3.95991 -0.0265904 0
M  V30 5575 H 517.477 3.6098 -2.86408 0
M  V30 5576 H 515.792 3.35795 -2.46232 0
M  V30 5577 H 518.389 5.32403 -0.495036 0
M  V30 5578 H 518.732 4.10279 0.705476 0
M  V30 5579 H 519.265 3.85657 -0.975362 0
M  V30 5580 H 516.004 5.5927 -3.41903 0
M  V30 5581 H 515.524 5.74804 -1.7135 0
M  V30 5582 H 517.203 6.0828 -2.20465 0
M  V30 5583 N 517.335 0.585699 1.46312 0
M  V30 5584 C 518.582 0.0724211 2.0237 0
M  V30 5585 C 518.91 -1.28868 1.45683 0
M  V30 5586 O 518.165 -1.85853 0.612945 0
M  V30 5587 C 518.464 -0.0401312 3.57377 0
M  V30 5588 C 518.13 1.25376 4.33119 0
M  V30 5589 C 516.792 1.60824 4.5353 0
M  V30 5590 C 519.144 2.10987 4.76586 0
M  V30 5591 C 516.472 2.81676 5.14661 0
M  V30 5592 C 518.824 3.31068 5.39052 0
M  V30 5593 C 517.488 3.66794 5.5769 0
M  V30 5594 H 516.758 0.0265007 0.740526 0
M  V30 5595 H 519.405 0.762935 1.75646 0
M  V30 5596 H 517.71 -0.813791 3.83255 0
M  V30 5597 H 519.407 -0.453078 3.98432 0
M  V30 5598 H 515.997 0.967808 4.1753 0
M  V30 5599 H 520.181 1.84904 4.60569 0
M  V30 5600 H 515.437 3.0949 5.27282 0
M  V30 5601 H 519.611 3.97672 5.71691 0
M  V30 5602 H 517.238 4.60529 6.04828 0
M  V30 5603 N 518.813 -1.54241 0.323641 0
M  V30 5604 C 519.743 -2.27289 -0.534993 0
M  V30 5605 C 520.724 -1.28087 -1.11927 0
M  V30 5606 O 521.909 -1.56899 -1.14439 0
M  V30 5607 C 519.039 -3.03075 -1.69596 0
M  V30 5608 C 517.993 -4.09614 -1.24098 0
M  V30 5609 C 517.319 -4.73242 -2.4889 0
M  V30 5610 C 518.619 -5.21087 -0.355789 0
M  V30 5611 H 520.313 -2.99308 0.0743257 0
M  V30 5612 H 517.859 -1.43952 0.0371874 0
M  V30 5613 H 519.812 -3.52907 -2.30293 0
M  V30 5614 H 518.536 -2.28673 -2.33187 0
M  V30 5615 H 517.195 -3.60666 -0.656945 0
M  V30 5616 H 516.843 -3.95455 -3.10845 0
M  V30 5617 H 516.543 -5.45209 -2.19138 0
M  V30 5618 H 518.067 -5.25848 -3.10348 0
M  V30 5619 H 519.481 -5.66675 -0.869042 0
M  V30 5620 H 517.878 -5.9991 -0.151045 0
M  V30 5621 H 518.948 -4.81005 0.613339 0
M  V30 5622 N 520.291 -0.0518155 -1.57515 0
M  V30 5623 C 521.254 0.907547 -2.10467 0
M  V30 5624 C 522.254 1.23947 -1.02439 0
M  V30 5625 O 523.444 1.17604 -1.2851 0
M  V30 5626 C 520.576 2.21723 -2.58944 0
M  V30 5627 H 521.769 0.44851 -2.96527 0
M  V30 5628 H 519.322 0.196598 -1.55059 0
M  V30 5629 H 520.057 2.72206 -1.76279 0
M  V30 5630 H 519.842 1.98935 -3.37886 0
M  V30 5631 H 521.332 2.90441 -3.00056 0
M  V30 5632 N 521.769 1.56035 0.221574 0
M  V30 5633 C 522.699 1.95434 1.2778 0
M  V30 5634 C 523.68 0.822564 1.48889 0
M  V30 5635 O 524.865 1.08486 1.61072 0
M  V30 5636 C 521.995 2.27102 2.62759 0
M  V30 5637 C 520.949 3.4277 2.56306 0
M  V30 5638 C 520.275 3.60043 3.95314 0
M  V30 5639 C 521.575 4.77742 2.11093 0
M  V30 5640 H 523.269 2.83912 0.950504 0
M  V30 5641 H 520.815 1.36596 0.455791 0
M  V30 5642 H 522.768 2.53256 3.36807 0
M  V30 5643 H 521.492 1.35478 2.97176 0
M  V30 5644 H 520.151 3.16664 1.84715 0
M  V30 5645 H 519.799 2.65794 4.27039 0
M  V30 5646 H 519.499 4.37841 3.91879 0
M  V30 5647 H 521.023 3.88545 4.71025 0
M  V30 5648 H 522.437 5.03102 2.74885 0
M  V30 5649 H 520.834 5.58823 2.18716 0
M  V30 5650 H 521.904 4.731 1.06321 0
M  V30 5651 N 523.247 -0.488276 1.49845 0
M  V30 5652 C 524.495 -1.23911 1.59657 0
M  V30 5653 C 524.816 -1.92816 0.291005 0
M  V30 5654 O 524.086 -1.83328 -0.690485 0
M  V30 5655 H 522.666 -0.460357 0.588286 0
M  V30 5656 H 525.328 -0.564794 1.86537 0
M  V30 5657 H 524.424 -1.99625 2.39909 0
M  V30 5658 N 524.725 -1.39134 -0.740242 0
M  V30 5659 C 525.971 -1.36273 -1.50192 0
M  V30 5660 C 526.304 0.0430136 -1.94152 0
M  V30 5661 O 525.579 1.00691 -1.66408 0
M  V30 5662 C 525.862 -2.33041 -2.74525 0
M  V30 5663 C 525.715 -3.82535 -2.36617 0
M  V30 5664 C 527.034 -2.27723 -3.76604 0
M  V30 5665 H 524.153 -0.496323 -0.544823 0
M  V30 5666 H 526.795 -1.70085 -0.846815 0
M  V30 5667 H 524.945 -2.04337 -3.30422 0
M  V30 5668 H 526.617 -4.21967 -1.86391 0
M  V30 5669 H 524.86 -3.99565 -1.68909 0
M  V30 5670 H 525.531 -4.45723 -3.2563 0
M  V30 5671 H 528.007 -2.53091 -3.30279 0
M  V30 5672 H 526.883 -2.97519 -4.61274 0
M  V30 5673 H 527.144 -1.28049 -4.2315 0
M  V30 5674 N 526.204 0.969867 -1.24223 0
M  V30 5675 C 527.134 2.08191 -1.05729 0
M  V30 5676 C 528.115 1.70075 0.0290765 0
M  V30 5677 O 529.3 1.93712 -0.137583 0
M  V30 5678 C 526.43 3.40991 -0.658995 0
M  V30 5679 C 525.384 3.93054 -1.69389 0
M  V30 5680 C 524.71 5.22171 -1.15072 0
M  V30 5681 C 526.01 4.21137 -3.08935 0
M  V30 5682 H 527.704 2.23921 -1.98746 0
M  V30 5683 H 525.25 1.07602 -0.956967 0
M  V30 5684 H 527.203 4.18221 -0.51662 0
M  V30 5685 H 525.927 3.25155 0.30686 0
M  V30 5686 H 524.586 3.17977 -1.82444 0
M  V30 5687 H 524.234 5.02694 -0.175539 0
M  V30 5688 H 523.934 5.57973 -1.84229 0
M  V30 5689 H 525.458 6.02013 -1.02042 0
M  V30 5690 H 526.872 4.8908 -2.99121 0
M  V30 5691 H 525.269 4.68163 -3.75425 0
M  V30 5692 H 526.339 3.27996 -3.57137 0
M  V30 5693 N 527.682 1.05563 1.17022 0
M  V30 5694 C 528.931 0.763036 1.8671 0
M  V30 5695 C 529.244 -0.712857 1.82147 0
M  V30 5696 O 530.45 -1.11955 2.47343 0
M  V30 5697 C 528.906 1.31474 3.35026 0
M  V30 5698 C 528.514 2.82034 3.48081 0
M  V30 5699 C 530.258 1.09935 4.10018 0
M  V30 5700 C 528.165 3.30486 4.90442 0
M  V30 5701 H 527.095 0.281747 0.699382 0
M  V30 5702 H 529.746 1.2734 1.32124 0
M  V30 5703 H 528.128 0.732171 3.89173 0
M  V30 5704 H 529.302 3.46178 3.04133 0
M  V30 5705 H 527.617 3.02156 2.86515 0
M  V30 5706 H 530.214 1.43632 5.15048 0
M  V30 5707 H 530.557 0.0373072 4.16283 0
M  V30 5708 H 531.09 1.64732 3.62089 0
M  V30 5709 H 527.829 4.36137 4.89352 0
M  V30 5710 H 527.349 2.71086 5.35044 0
M  V30 5711 H 529.028 3.25382 5.59227 0
M  V30 5712 N 529.16 -1.33526 0.837174 0
M  V30 5713 C 530.407 -1.97837 0.432064 0
M  V30 5714 C 530.735 -1.66324 -1.00829 0
M  V30 5715 O 529.99 -0.93448 -1.71948 0
M  V30 5716 C 530.289 -3.52367 0.597675 0
M  V30 5717 C 529.955 -4.03826 2.00587 0
M  V30 5718 C 528.617 -4.1759 2.39106 0
M  V30 5719 C 530.969 -4.31333 2.92576 0
M  V30 5720 C 528.297 -4.56195 3.68921 0
M  V30 5721 C 530.649 -4.7139 4.2187 0
M  V30 5722 C 529.313 -4.8336 4.60347 0
M  V30 5723 H 528.583 -0.723937 0.158104 0
M  V30 5724 H 531.23 -1.5923 1.06387 0
M  V30 5725 H 529.535 -3.91624 -0.117452 0
M  V30 5726 H 531.232 -4.00126 0.26454 0
M  V30 5727 H 527.822 -3.93586 1.69671 0
M  V30 5728 H 532.006 -4.20224 2.64056 0
M  V30 5729 H 527.262 -4.63655 3.9854 0
M  V30 5730 H 531.436 -4.91631 4.93226 0
M  V30 5731 H 529.063 -5.1303 5.60985 0
M  V30 5732 N 530.638 -0.59345 -1.46 0
M  V30 5733 C 531.601 0.123538 -2.28867 0
M  V30 5734 C 532.601 0.808628 -1.38989 0
M  V30 5735 O 533.791 0.658945 -1.61256 0
M  V30 5736 C 530.923 1.1847 -3.19653 0
M  V30 5737 H 532.116 -0.604843 -2.93737 0
M  V30 5738 H 529.669 -0.351875 -1.52288 0
M  V30 5739 H 530.404 1.94431 -2.59552 0
M  V30 5740 H 530.189 0.69783 -3.8584 0
M  V30 5741 H 531.679 1.68726 -3.81997 0
M  V30 5742 N 532.116 1.54067 -0.331816 0
M  V30 5743 C 533.344 2.05131 0.269996 0
M  V30 5744 C 533.759 1.20749 1.45138 0
M  V30 5745 O 533.116 0.240069 1.80914 0
M  V30 5746 C 533.167 3.54728 0.696456 0
M  V30 5747 O 532.888 4.35906 -0.43794 0
M  V30 5748 C 534.389 4.21916 1.36021 0
M  V30 5749 H 531.609 0.668807 0.0542042 0
M  V30 5750 H 534.153 1.98777 -0.4804 0
M  V30 5751 H 532.308 3.61342 1.39681 0
M  V30 5752 H 532.722 5.24404 -0.100334 0
M  V30 5753 H 534.196 5.28015 1.60947 0
M  V30 5754 H 534.673 3.73538 2.31011 0
M  V30 5755 H 535.279 4.19463 0.702212 0
M  V30 5756 N 533.594 0.0601682 1.57485 0
M  V30 5757 C 534.527 -0.94676 2.07634 0
M  V30 5758 C 535.505 -1.29837 0.978826 0
M  V30 5759 O 536.689 -1.40969 1.2514 0
M  V30 5760 C 533.816 -2.25822 2.52433 0
M  V30 5761 C 532.862 -2.05901 3.73507 0
M  V30 5762 S 533.695 -1.32907 5.18745 0
M  V30 5763 C 534.851 -2.65356 5.66866 0
M  V30 5764 H 535.084 -0.520003 2.92717 0
M  V30 5765 H 532.617 -0.152319 1.53647 0
M  V30 5766 H 534.575 -3.01201 2.78905 0
M  V30 5767 H 533.236 -2.65624 1.67639 0
M  V30 5768 H 532.429 -3.02929 4.02803 0
M  V30 5769 H 532.031 -1.38659 3.47347 0
M  V30 5770 H 534.323 -3.61492 5.73001 0
M  V30 5771 H 535.266 -2.40685 6.6594 0
M  V30 5772 H 535.674 -2.72028 4.94632 0
M  V30 5773 N 535.072 -1.5615 -0.213296 0
M  V30 5774 C 536.321 -1.78743 -0.93455 0
M  V30 5775 C 536.634 -0.630199 -1.8517 0
M  V30 5776 O 537.84 -0.739966 -2.61222 0
M  V30 5777 C 536.296 -3.16571 -1.71203 0
M  V30 5778 C 535.904 -4.40043 -0.840617 0
M  V30 5779 C 537.648 -3.48485 -2.42401 0
M  V30 5780 C 535.555 -5.68895 -1.61592 0
M  V30 5781 H 534.485 -0.666426 -0.352692 0
M  V30 5782 H 537.136 -1.82532 -0.188227 0
M  V30 5783 H 535.518 -3.06981 -2.50157 0
M  V30 5784 H 536.692 -4.6071 -0.0910326 0
M  V30 5785 H 535.007 -4.15706 -0.240365 0
M  V30 5786 H 537.604 -4.41983 -3.00924 0
M  V30 5787 H 537.947 -2.71371 -3.15695 0
M  V30 5788 H 538.48 -3.59442 -1.7043 0
M  V30 5789 H 535.219 -6.48925 -0.926106 0
M  V30 5790 H 534.739 -5.52275 -2.33991 0
M  V30 5791 H 536.418 -6.09365 -2.17447 0
M  V30 5792 N 536.55 0.480323 -1.50102 0
M  V30 5793 C 537.78 1.25475 -1.64133 0
M  V30 5794 C 538.188 1.8647 -0.320272 0
M  V30 5795 O 537.531 1.69561 0.70673 0
M  V30 5796 C 537.593 2.40996 -2.6676 0
M  V30 5797 C 537.257 2.00711 -4.10565 0
M  V30 5798 C 538.254 1.53492 -4.96725 0
M  V30 5799 C 535.939 2.09714 -4.56427 0
M  V30 5800 C 537.933 1.15806 -6.26792 0
M  V30 5801 C 535.62 1.7164 -5.86501 0
M  V30 5802 C 536.618 1.24763 -6.71508 0
M  V30 5803 O 536.306 0.872122 -7.99155 0
M  V30 5804 H 536.038 0.385983 -0.554971 0
M  V30 5805 H 538.592 0.580848 -1.97016 0
M  V30 5806 H 536.822 3.11528 -2.291 0
M  V30 5807 H 538.511 3.02981 -2.70106 0
M  V30 5808 H 539.277 1.45966 -4.62514 0
M  V30 5809 H 535.156 2.4515 -3.90413 0
M  V30 5810 H 538.7 0.791465 -6.93096 0
M  V30 5811 H 534.597 1.78822 -6.20236 0
M  V30 5812 H 535.365 1.00178 -8.12346 0
M  V30 5813 N 538.028 1.39524 0.732853 0
M  V30 5814 C 539.258 1.3994 1.51988 0
M  V30 5815 C 539.666 -0.00727973 1.89199 0
M  V30 5816 O 539.009 -0.989521 1.54771 0
M  V30 5817 C 539.071 2.21026 2.83527 0
M  V30 5818 C 538.735 3.69633 2.68738 0
M  V30 5819 C 539.732 4.62665 2.37143 0
M  V30 5820 C 537.417 4.13244 2.85542 0
M  V30 5821 C 539.411 5.97291 2.22536 0
M  V30 5822 C 537.098 5.47945 2.70554 0
M  V30 5823 C 538.096 6.39783 2.39097 0
M  V30 5824 O 537.784 7.72002 2.24204 0
M  V30 5825 H 537.516 0.479795 0.476206 0
M  V30 5826 H 540.07 1.8399 0.913054 0
M  V30 5827 H 538.3 1.71728 3.46477 0
M  V30 5828 H 539.989 2.13594 3.45156 0
M  V30 5829 H 540.755 4.30272 2.2381 0
M  V30 5830 H 536.634 3.42094 3.09019 0
M  V30 5831 H 540.178 6.68939 1.97905 0
M  V30 5832 H 536.075 5.79928 2.83466 0
M  V30 5833 H 536.843 7.8275 2.39258 0
M  V30 5834 N 539.506 -0.963266 1.24736 0
M  V30 5835 C 540.469 -2.04013 1.04457 0
M  V30 5836 C 541.469 -1.608 0.000335555 0
M  V30 5837 O 542.659 -1.72515 0.241719 0
M  V30 5838 C 539.791 -3.35858 0.584162 0
M  V30 5839 H 540.984 -2.23436 2.00041 0
M  V30 5840 H 538.537 -1.13914 1.07021 0
M  V30 5841 H 539.272 -3.22128 -0.374673 0
M  V30 5842 H 539.057 -3.68568 1.3379 0
M  V30 5843 H 540.547 -4.1502 0.463451 0
M  V30 5844 N 540.985 -1.06182 -1.16461 0
M  V30 5845 C 541.895 -0.682671 -2.24448 0
M  V30 5846 C 542.911 0.30078 -1.71381 0
M  V30 5847 O 544.087 0.150376 -2.00838 0
M  V30 5848 C 541.152 -0.0737202 -3.46622 0
M  V30 5849 C 540.213 -1.10889 -4.14731 0
M  V30 5850 C 539.446 -0.528908 -5.31073 0
M  V30 5851 O 539.669 0.65868 -5.66584 0
M  V30 5852 O 538.603 -1.26805 -5.88391 0
M  V30 5853 H 542.429 -1.58291 -2.59187 0
M  V30 5854 H 540.014 -0.834013 -1.23954 0
M  V30 5855 H 541.896 0.264192 -4.20571 0
M  V30 5856 H 540.571 0.800015 -3.13658 0
M  V30 5857 H 539.478 -1.49896 -3.42756 0
M  V30 5858 H 540.811 -1.95412 -4.51747 0
M  V30 5859 N 542.463 1.3308 -0.844243 0
M  V30 5860 C 543.879 1.50447 -0.532729 0
M  V30 5861 C 544.079 1.78292 0.938837 0
M  V30 5862 O 543.135 1.84635 1.72239 0
M  V30 5863 C 544.448 2.65555 -1.41072 0
M  V30 5864 C 545.996 2.7944 -1.41005 0
M  V30 5865 C 546.471 3.97616 -2.27301 0
M  V30 5866 N 547.962 4.0486 -2.2504 0
M  V30 5867 C 548.697 4.95508 -2.88547 0
M  V30 5868 N 548.193 5.91236 -3.61126 0
M  V30 5869 N 549.986 4.88548 -2.77989 0
M  V30 5870 H 542.137 1.13269 -1.79677 0
M  V30 5871 H 544.4 0.55734 -0.766861 0
M  V30 5872 H 544.106 2.51675 -2.45668 0
M  V30 5873 H 543.98 3.61089 -1.09061 0
M  V30 5874 H 546.367 2.92749 -0.371784 0
M  V30 5875 H 546.448 1.8465 -1.77026 0
M  V30 5876 H 546.092 3.85066 -3.3119 0
M  V30 5877 H 546.022 4.91661 -1.88619 0
M  V30 5878 H 548.513 3.36353 -1.72264 0
M  V30 5879 H 548.826 6.57079 -4.06776 0
M  V30 5880 H 547.171 5.91295 -3.65234 0
M  V30 5881 H 550.362 4.12729 -2.20846 0
M  V30 5882 H 550.535 5.58994 -3.27765 0
M  V30 5883 N 543.941 0.601185 1.45683 0
M  V30 5884 C 545.19 0.0914953 2.01492 0
M  V30 5885 C 545.503 -1.28331 1.47616 0
M  V30 5886 O 546.709 -1.88537 1.95362 0
M  V30 5887 C 545.165 0.11291 3.59723 0
M  V30 5888 C 544.773 1.48717 4.22596 0
M  V30 5889 C 546.517 -0.341871 4.23121 0
M  V30 5890 C 544.424 1.46531 5.7296 0
M  V30 5891 H 543.354 0.0304365 0.753385 0
M  V30 5892 H 546.005 0.755568 1.67223 0
M  V30 5893 H 544.387 -0.617692 3.91153 0
M  V30 5894 H 545.561 2.23897 4.02749 0
M  V30 5895 H 543.876 1.88351 3.71366 0
M  V30 5896 H 546.473 -0.377304 5.33367 0
M  V30 5897 H 546.816 -1.36325 3.93346 0
M  V30 5898 H 547.349 0.335256 3.96385 0
M  V30 5899 H 544.088 2.46408 6.07423 0
M  V30 5900 H 543.608 0.755997 5.95017 0
M  V30 5901 H 545.287 1.18618 6.36034 0
M  V30 5902 N 545.419 -1.53889 0.339982 0
M  V30 5903 C 546.667 -2.00458 -0.257112 0
M  V30 5904 C 546.988 -1.22953 -1.51353 0
M  V30 5905 O 546.258 -0.335734 -1.93002 0
M  V30 5906 H 544.838 -0.740544 -0.0979965 0
M  V30 5907 H 547.5 -1.89386 0.460317 0
M  V30 5908 H 546.596 -3.08035 -0.502057 0
M  V30 5909 N 546.897 -0.0685191 -1.57451 0
M  V30 5910 C 547.86 0.885173 -2.11417 0
M  V30 5911 C 548.86 1.22853 -1.03748 0
M  V30 5912 O 550.05 1.16235 -1.2975 0
M  V30 5913 C 547.182 2.18964 -2.61281 0
M  V30 5914 H 548.375 0.417034 -2.96986 0
M  V30 5915 H 545.928 0.18014 -1.55258 0
M  V30 5916 H 546.663 2.70321 -1.79156 0
M  V30 5917 H 546.448 1.9534 -3.39977 0
M  V30 5918 H 547.938 2.87242 -3.0312 0
M  V30 5919 N 548.375 1.56261 0.205012 0
M  V30 5920 C 549.307 1.90266 1.27795 0
M  V30 5921 C 550.32 0.792397 1.42214 0
M  V30 5922 O 551.509 1.07077 1.42817 0
M  V30 5923 C 548.609 2.11074 2.65143 0
M  V30 5924 C 547.782 3.42176 2.7246 0
M  V30 5925 C 546.841 3.52216 3.90936 0
M  V30 5926 O 545.867 4.25119 3.78501 0
M  V30 5927 N 547.069 2.84573 5.05963 0
M  V30 5928 H 549.834 2.82896 0.989434 0
M  V30 5929 H 547.395 1.57008 0.394981 0
M  V30 5930 H 549.387 2.15089 3.4281 0
M  V30 5931 H 547.957 1.2499 2.86524 0
M  V30 5932 H 547.177 3.50116 1.81142 0
M  V30 5933 H 548.465 4.28509 2.74331 0
M  V30 5934 H 547.863 2.25152 5.18963 0
M  V30 5935 H 546.42 2.94228 5.81613 0
M  V30 5936 N 549.853 -0.472356 1.50355 0
M  V30 5937 C 551.264 -1.05326 1.54154 0
M  V30 5938 C 551.615 -1.93155 0.344303 0
M  V30 5939 O 550.74 -2.09479 -0.542928 0
M  V30 5940 C 551.335 -1.91691 2.79356 0
M  V30 5941 C 549.894 -2.44892 2.8584 0
M  V30 5942 C 549.041 -1.23205 2.48426 0
M  V30 5943 H 551.992 -0.255027 1.56637 0
M  V30 5944 H 552.013 -2.76742 2.6114 0
M  V30 5945 H 551.525 -1.27741 3.66475 0
M  V30 5946 H 549.626 -3.12399 2.0307 0
M  V30 5947 H 549.739 -2.80086 3.88701 0
M  V30 5948 H 548.103 -1.56643 2.00836 0
M  V30 5949 H 548.886 -0.609194 3.37852 0
M  V30 5950 N 551.331 -1.39911 -0.725443 0
M  V30 5951 C 552.279 -1.39552 -1.86086 0
M  V30 5952 C 553.273 -0.277334 -1.67114 0
M  V30 5953 O 554.479 -0.447865 -1.74339 0
M  V30 5954 H 550.854 -0.435993 -0.612711 0
M  V30 5955 H 552.825 -2.35305 -1.83505 0
M  V30 5956 C 551.574 -1.26529 -3.2386 0
M  V30 5957 H 550.897 -2.11845 -3.3906 0
M  V30 5958 H 552.337 -1.30336 -4.03471 0
M  V30 5959 C 550.796 0.0254168 -3.3689 0
M  V30 5960 O 551.326 0.992048 -3.89257 0
M  V30 5961 N 549.532 0.0916528 -2.90455 0
M  V30 5962 H 549.079 -0.695675 -2.48028 0
M  V30 5963 H 549.037 0.954745 -2.99553 0
M  V30 5964 N 552.809 0.956637 -1.25245 0
M  V30 5965 C 554.086 1.67716 -1.00651 0
M  V30 5966 C 554.466 2.0585 0.467866 0
M  V30 5967 O 553.814 1.77029 1.44475 0
M  V30 5968 C 554.024 2.90093 -1.94028 0
M  V30 5969 C 555.372 3.6209 -2.21756 0
M  V30 5970 O 556.396 3.00171 -1.9177 0
M  V30 5971 O 555.255 4.7358 -2.72735 0
M  V30 5972 H 552.349 0.733731 -0.381533 0
M  V30 5973 H 554.895 1.00974 -1.3639 0
M  V30 5974 H 553.667 2.58689 -2.93591 0
M  V30 5975 H 553.29 3.64566 -1.58674 0
M  V30 5976 N 554.287 1.06798 1.15896 0
M  V30 5977 C 555.698 0.811355 1.68149 0
M  V30 5978 C 556.049 -0.664339 1.8461 0
M  V30 5979 O 555.174 -1.51485 1.54535 0
M  V30 5980 C 555.769 1.46624 3.05429 0
M  V30 5981 C 554.328 1.25726 3.54781 0
M  V30 5982 C 553.475 1.53949 2.3064 0
M  V30 5983 H 556.426 1.23078 1.00187 0
M  V30 5984 H 556.447 0.88437 3.7008 0
M  V30 5985 H 555.959 2.54025 2.93416 0
M  V30 5986 H 554.06 0.20322 3.72045 0
M  V30 5987 H 554.173 1.97354 4.36564 0
M  V30 5988 H 552.537 0.96025 2.35905 0
M  V30 5989 H 553.32 2.6252 2.2122 0
M  V30 5990 N 555.766 -1.3263 0.851289 0
M  V30 5991 C 556.991 -2.02097 0.466006 0
M  V30 5992 C 557.416 -1.63574 -0.928709 0
M  V30 5993 O 556.774 -0.834665 -1.60944 0
M  V30 5994 C 556.822 -3.55425 0.608737 0
M  V30 5995 O 555.926 -4.10827 -0.359878 0
M  V30 5996 H 555.267 -0.636911 0.187724 0
M  V30 5997 H 557.797 -1.69253 1.14955 0
M  V30 5998 H 557.807 -4.04986 0.495006 0
M  V30 5999 H 556.482 -3.82806 1.62581 0
M  V30 6000 H 555.059 -3.72349 -0.202666 0
M  V30 6001 N 557.244 -0.608902 -1.45362 0
M  V30 6002 C 558.207 0.0992563 -2.28985 0
M  V30 6003 C 559.207 0.793841 -1.39838 0
M  V30 6004 O 560.397 0.641804 -1.61946 0
M  V30 6005 C 557.529 1.15073 -3.20891 0
M  V30 6006 H 558.722 -0.635964 -2.93079 0
M  V30 6007 H 556.275 -0.368007 -1.51906 0
M  V30 6008 H 557.01 1.91667 -2.616 0
M  V30 6009 H 556.795 0.656867 -3.86559 0
M  V30 6010 H 558.285 1.64665 -3.83765 0
M  V30 6011 N 558.722 1.53707 -0.348139 0
M  V30 6012 C 559.947 2.05877 0.250883 0
M  V30 6013 C 560.372 1.22115 1.43072 0
M  V30 6014 O 559.73 0.235986 1.79758 0
M  V30 6015 C 559.778 3.54886 0.639416 0
M  V30 6016 O 558.882 3.73948 1.73888 0
M  V30 6017 H 558.223 0.662754 0.040653 0
M  V30 6018 H 560.753 1.98303 -0.503685 0
M  V30 6019 H 560.763 3.97601 0.915295 0
M  V30 6020 H 559.438 4.153 -0.223386 0
M  V30 6021 H 558.015 3.43134 1.45991 0
M  V30 6022 N 560.2 0.0768682 1.57412 0
M  V30 6023 C 561.11 -0.903207 2.16516 0
M  V30 6024 C 562.126 -1.32341 1.12968 0
M  V30 6025 O 563.302 -1.39507 1.45258 0
M  V30 6026 C 560.367 -2.1508 2.71922 0
M  V30 6027 C 559.428 -1.78653 3.90361 0
M  V30 6028 C 558.661 -2.97465 4.43114 0
M  V30 6029 O 558.884 -4.11638 3.94854 0
M  V30 6030 O 557.818 -2.76987 5.3438 0
M  V30 6031 H 561.644 -0.430427 3.00634 0
M  V30 6032 H 559.229 -0.146485 1.4868 0
M  V30 6033 H 561.111 -2.8823 3.07411 0
M  V30 6034 H 559.786 -2.61446 1.9086 0
M  V30 6035 H 558.693 -1.0274 3.59716 0
M  V30 6036 H 560.026 -1.37066 4.7273 0
M  V30 6037 N 561.678 -1.56367 -0.196722 0
M  V30 6038 C 562.628 -1.9082 -1.24787 0
M  V30 6039 C 563.612 -0.773719 -1.41076 0
M  V30 6040 O 564.804 -1.03655 -1.43474 0
M  V30 6041 C 561.933 -2.24982 -2.59303 0
M  V30 6042 C 561.019 -3.44882 -2.46814 0
M  V30 6043 N 561.41 -4.62835 -2.04003 0
M  V30 6044 C 559.708 -3.48988 -2.77711 0
M  V30 6045 C 560.409 -5.44993 -2.03366 0
M  V30 6046 N 559.385 -4.85356 -2.44807 0
M  V30 6047 H 563.187 -2.79516 -0.908175 0
M  V30 6048 H 560.701 -1.57265 -0.405166 0
M  V30 6049 H 562.698 -2.47848 -3.35227 0
M  V30 6050 H 561.358 -1.37611 -2.94098 0
M  V30 6051 H 562.369 -4.87532 -1.74738 0
M  V30 6052 H 559.046 -2.72029 -3.16712 0
M  V30 6053 H 560.436 -6.49464 -1.72181 0
M  V30 6054 N 563.156 0.464375 -1.50603 0
M  V30 6055 C 564.384 1.23907 -1.65695 0
M  V30 6056 C 564.799 1.85658 -0.343027 0
M  V30 6057 O 564.156 1.69529 0.675739 0
M  V30 6058 C 564.207 2.3429 -2.75301 0
M  V30 6059 O 563.928 1.7507 -4.01599 0
M  V30 6060 C 565.429 3.25051 -3.01424 0
M  V30 6061 H 562.649 0.374485 -0.556778 0
M  V30 6062 H 565.193 0.55353 -1.96866 0
M  V30 6063 H 563.348 2.98607 -2.46804 0
M  V30 6064 H 563.762 2.47812 -4.62266 0
M  V30 6065 H 565.236 3.98699 -3.81763 0
M  V30 6066 H 565.713 3.84227 -2.12758 0
M  V30 6067 H 566.319 2.66463 -3.31477 0
M  V30 6068 N 564.634 1.40294 0.718013 0
M  V30 6069 C 565.584 1.36847 1.82365 0
M  V30 6070 C 566.568 0.246424 1.59002 0
M  V30 6071 O 567.76 0.485336 1.70216 0
M  V30 6072 C 564.889 1.23105 3.20469 0
M  V30 6073 C 563.975 2.4008 3.49603 0
M  V30 6074 N 564.366 3.65562 3.49568 0
M  V30 6075 C 562.664 2.33407 3.80049 0
M  V30 6076 C 563.365 4.43015 3.76978 0
M  V30 6077 N 562.341 3.72823 3.95606 0
M  V30 6078 H 566.143 2.31811 1.80668 0
M  V30 6079 H 563.657 1.34031 0.91703 0
M  V30 6080 H 565.654 1.18718 3.9964 0
M  V30 6081 H 564.314 0.291056 3.23393 0
M  V30 6082 H 565.325 3.98756 3.30476 0
M  V30 6083 H 562.002 1.47762 3.90478 0
M  V30 6084 H 563.392 5.51859 3.83276 0
M  V30 6085 N 566.112 -0.949982 1.2575 0
M  V30 6086 C 567.359 -1.69515 1.10774 0
M  V30 6087 C 567.687 -1.91316 -0.350479 0
M  V30 6088 O 566.942 -1.48515 -1.27443 0
M  V30 6089 C 567.241 -3.08039 1.81237 0
M  V30 6090 C 566.907 -3.06023 3.31151 0
M  V30 6091 C 565.569 -3.0518 3.72047 0
M  V30 6092 C 567.921 -2.98998 4.26907 0
M  V30 6093 C 565.249 -2.95067 5.07102 0
M  V30 6094 C 567.601 -2.90426 5.61992 0
M  V30 6095 C 566.265 -2.87922 6.0221 0
M  V30 6096 H 565.535 -0.6203 0.405351 0
M  V30 6097 H 568.182 -1.10953 1.56082 0
M  V30 6098 H 566.487 -3.70172 1.28373 0
M  V30 6099 H 568.184 -3.64526 1.67098 0
M  V30 6100 H 564.774 -3.07453 2.98614 0
M  V30 6101 H 568.958 -2.98764 3.963 0
M  V30 6102 H 564.214 -2.915 5.37436 0
M  V30 6103 H 568.388 -2.83952 6.35881 0
M  V30 6104 H 566.015 -2.79841 7.06819 0
M  V30 6105 N 567.59 -1.07411 -1.15328 0
M  V30 6106 C 568.537 -0.694995 -2.20087 0
M  V30 6107 C 569.507 0.313904 -1.63107 0
M  V30 6108 O 570.692 0.200216 -1.89747 0
M  V30 6109 C 567.832 -0.0996218 -3.44956 0
M  V30 6110 C 566.945 -1.16007 -4.16133 0
M  V30 6111 C 566.08 -0.529636 -5.28553 0
M  V30 6112 C 565.119 -1.57283 -5.91548 0
M  V30 6113 N 564.256 -0.964932 -6.95438 0
M  V30 6114 H 569.096 -1.5927 -2.51867 0
M  V30 6115 H 566.633 -0.796115 -1.23695 0
M  V30 6116 H 568.591 0.263197 -4.16369 0
M  V30 6117 H 567.221 0.761435 -3.13691 0
M  V30 6118 H 566.273 -1.64045 -3.4321 0
M  V30 6119 H 567.585 -1.95101 -4.59061 0
M  V30 6120 H 566.739 -0.114487 -6.06592 0
M  V30 6121 H 565.478 0.29307 -4.86819 0
M  V30 6122 H 564.483 -1.99775 -5.12221 0
M  V30 6123 H 565.708 -2.39783 -6.35359 0
M  V30 6124 H 563.654 -0.16314 -6.55797 0
M  V30 6125 H 563.571 -1.69311 -7.36797 0
M  V30 6126 H 564.839 -0.575305 -7.77374 0
M  V30 6127 N 569.068 1.32177 -0.85831 0
M  V30 6128 C 570.016 2.30729 -0.294442 0
M  V30 6129 C 571.01 1.59009 0.584165 0
M  V30 6130 O 572.216 1.73713 0.471562 0
M  V30 6131 H 568.591 0.748097 -0.0765171 0
M  V30 6132 H 570.562 2.75774 -1.1398 0
M  V30 6133 C 569.311 3.44098 0.499208 0
M  V30 6134 H 568.634 3.99449 -0.167579 0
M  V30 6135 H 570.074 4.15202 0.859273 0
M  V30 6136 C 568.533 2.91684 1.68588 0
M  V30 6137 O 569.063 2.89481 2.78503 0
M  V30 6138 N 567.269 2.48036 1.51415 0
M  V30 6139 H 566.816 2.50027 0.620006 0
M  V30 6140 H 566.774 2.13322 2.30957 0
M  V30 6141 N 570.547 0.616602 1.45037 0
M  V30 6142 C 571.796 0.112861 2.01384 0
M  V30 6143 C 572.109 -1.26758 1.48969 0
M  V30 6144 O 573.315 -1.86454 1.9735 0
M  V30 6145 C 571.771 0.151057 3.59583 0
M  V30 6146 C 571.379 1.53191 4.20995 0
M  V30 6147 C 573.123 -0.296974 4.2346 0
M  V30 6148 C 571.03 1.526 5.71373 0
M  V30 6149 H 569.96 0.0384254 0.75302 0
M  V30 6150 H 572.611 0.773262 1.66412 0
M  V30 6151 H 570.993 -0.57617 3.91786 0
M  V30 6152 H 572.167 2.28156 4.00352 0
M  V30 6153 H 570.482 1.92279 3.69348 0
M  V30 6154 H 573.079 -0.320712 5.33737 0
M  V30 6155 H 573.422 -1.32145 3.9477 0
M  V30 6156 H 573.955 0.377279 3.96007 0
M  V30 6157 H 570.694 2.52837 6.04776 0
M  V30 6158 H 570.214 0.819064 5.94181 0
M  V30 6159 H 571.893 1.25357 6.3474 0
M  V30 6160 N 572.025 -1.5352 0.356285 0
M  V30 6161 C 573.436 -1.86282 -0.12492 0
M  V30 6162 C 573.787 -1.27717 -1.48939 0
M  V30 6163 O 572.912 -0.595614 -2.08042 0
M  V30 6164 C 573.507 -3.37995 -0.23345 0
M  V30 6165 C 572.066 -3.70588 -0.658899 0
M  V30 6166 C 571.213 -2.76581 0.199596 0
M  V30 6167 H 574.164 -1.47901 0.575423 0
M  V30 6168 H 574.185 -3.65475 -1.0587 0
M  V30 6169 H 573.697 -3.8059 0.759776 0
M  V30 6170 H 571.798 -3.33544 -1.66069 0
M  V30 6171 H 571.911 -4.77076 -0.439957 0
M  V30 6172 H 570.275 -2.52552 -0.330076 0
M  V30 6173 H 571.058 -3.22008 1.19019 0
M  V30 6174 N 573.503 -0.0852151 -1.57369 0
M  V30 6175 C 574.752 0.580443 -1.93168 0
M  V30 6176 C 575.065 1.6995 -0.968319 0
M  V30 6177 O 576.271 2.42564 -1.21963 0
M  V30 6178 C 574.727 1.08386 -3.43192 0
M  V30 6179 C 574.335 -0.00491388 -4.48 0
M  V30 6180 C 576.079 1.72281 -3.87968 0
M  V30 6181 C 573.986 0.513299 -5.89168 0
M  V30 6182 H 572.916 0.22059 -0.72101 0
M  V30 6183 H 575.567 -0.159621 -1.82804 0
M  V30 6184 H 573.949 1.8773 -3.48674 0
M  V30 6185 H 575.123 -0.780032 -4.5415 0
M  V30 6186 H 573.438 -0.548453 -4.12772 0
M  V30 6187 H 576.035 2.12108 -4.9083 0
M  V30 6188 H 576.378 2.58811 -3.26071 0
M  V30 6189 H 576.911 0.995359 -3.85146 0
M  V30 6190 H 573.65 -0.315153 -6.54742 0
M  V30 6191 H 573.17 1.25564 -5.8651 0
M  V30 6192 H 574.849 0.985433 -6.39451 0
M  V30 6193 N 574.981 1.5647 0.188427 0
M  V30 6194 C 576.229 1.80655 0.905986 0
M  V30 6195 C 576.55 0.659391 1.83513 0
M  V30 6196 O 575.82 -0.321868 1.93238 0
M  V30 6197 H 574.4 0.666391 0.337538 0
M  V30 6198 H 577.062 1.93949 0.192339 0
M  V30 6199 H 576.158 2.74066 1.49313 0
M  V30 6200 N 576.459 -0.456382 1.50847 0
M  V30 6201 C 577.706 -1.20736 1.62571 0
M  V30 6202 C 578.034 -1.9163 0.332904 0
M  V30 6203 O 577.289 -1.8343 -0.682058 0
M  V30 6204 C 577.588 -2.26336 2.76599 0
M  V30 6205 C 577.254 -1.7259 4.16562 0
M  V30 6206 C 575.916 -1.57654 4.54641 0
M  V30 6207 C 578.268 -1.32877 5.03977 0
M  V30 6208 C 575.596 -1.0145 5.77862 0
M  V30 6209 C 577.948 -0.7811 6.27759 0
M  V30 6210 C 576.612 -0.618488 6.64628 0
M  V30 6211 H 575.882 -0.441803 0.594888 0
M  V30 6212 H 578.529 -0.501169 1.84826 0
M  V30 6213 H 576.834 -3.0292 2.48489 0
M  V30 6214 H 578.531 -2.84227 2.82871 0
M  V30 6215 H 575.121 -1.85187 3.86528 0
M  V30 6216 H 579.305 -1.43245 4.75179 0
M  V30 6217 H 574.561 -0.876109 6.0509 0
M  V30 6218 H 578.735 -0.464783 6.94847 0
M  V30 6219 H 576.362 -0.180838 7.59985 0
M  V30 6220 N 577.937 -1.40673 -0.710563 0
M  V30 6221 C 579.183 -1.4043 -1.47142 0
M  V30 6222 C 579.538 -0.00781557 -1.92398 0
M  V30 6223 O 578.831 0.963535 -1.6561 0
M  V30 6224 C 579.025 -2.33253 -2.70791 0
M  V30 6225 C 578.854 -3.81789 -2.37629 0
M  V30 6226 C 577.624 -4.5057 -2.28724 0
M  V30 6227 C 579.822 -4.73152 -2.01572 0
M  V30 6228 N 577.804 -5.84312 -1.88289 0
M  V30 6229 C 579.175 -5.95728 -1.71778 0
M  V30 6230 C 581.23 -4.6094 -1.88252 0
M  V30 6231 C 579.933 -7.07454 -1.30003 0
M  V30 6232 C 581.959 -5.72613 -1.47881 0
M  V30 6233 C 581.321 -6.94278 -1.18987 0
M  V30 6234 H 577.42 -0.569115 -0.536314 0
M  V30 6235 H 580.004 -1.76425 -0.823547 0
M  V30 6236 H 578.175 -1.99378 -3.33321 0
M  V30 6237 H 579.907 -2.23833 -3.37166 0
M  V30 6238 H 576.662 -4.04315 -2.46629 0
M  V30 6239 H 577.086 -6.55153 -1.70596 0
M  V30 6240 H 581.728 -3.67389 -2.09249 0
M  V30 6241 H 579.446 -8.00884 -1.07749 0
M  V30 6242 H 583.032 -5.65161 -1.38145 0
M  V30 6243 H 581.912 -7.79222 -0.88219 0
M  V30 6244 N 579.415 0.9433 -1.26252 0
M  V30 6245 C 580.661 1.69226 -1.12846 0
M  V30 6246 C 581.016 1.8963 0.325282 0
M  V30 6247 O 580.309 1.46435 1.23561 0
M  V30 6248 C 580.503 3.07073 -1.82868 0
M  V30 6249 C 580.332 3.00118 -3.34902 0
M  V30 6250 C 579.102 3.03251 -4.04186 0
M  V30 6251 C 581.3 2.80418 -4.31127 0
M  V30 6252 N 579.282 2.86573 -5.42908 0
M  V30 6253 C 580.653 2.72287 -5.5701 0
M  V30 6254 C 582.708 2.65185 -4.21404 0
M  V30 6255 C 581.411 2.50479 -6.74279 0
M  V30 6256 C 583.437 2.4475 -5.38378 0
M  V30 6257 C 582.799 2.37349 -6.63208 0
M  V30 6258 H 578.898 0.626716 -0.467708 0
M  V30 6259 H 581.482 1.11645 -1.5951 0
M  V30 6260 H 579.653 3.62797 -1.38682 0
M  V30 6261 H 581.385 3.70816 -1.62103 0
M  V30 6262 H 578.14 3.12882 -3.55531 0
M  V30 6263 H 578.564 2.81408 -6.15742 0
M  V30 6264 H 583.206 2.69675 -3.25631 0
M  V30 6265 H 580.924 2.4473 -7.70151 0
M  V30 6266 H 584.51 2.33872 -5.32724 0
M  V30 6267 H 583.39 2.21746 -7.52196 0
M  V30 6268 N 580.893 1.08022 1.14757 0
M  V30 6269 C 581.856 0.71048 2.1791 0
M  V30 6270 C 582.856 -0.252731 1.58801 0
M  V30 6271 O 584.046 -0.0327915 1.74169 0
M  V30 6272 C 581.178 0.0483203 3.40866 0
M  V30 6273 H 582.371 1.62384 2.52134 0
M  V30 6274 H 579.924 0.877595 1.29337 0
M  V30 6275 H 580.659 -0.876959 3.12218 0
M  V30 6276 H 580.444 0.741189 3.85031 0
M  V30 6277 H 581.934 -0.195471 4.17142 0
M  V30 6278 N 582.371 -1.3172 0.865308 0
M  V30 6279 C 583.617 -1.97168 0.474633 0
M  V30 6280 C 583.95 -1.68263 -0.969604 0
M  V30 6281 O 583.225 -0.976588 -1.68205 0
M  V30 6282 C 583.508 -3.52689 0.726808 0
M  V30 6283 C 583.361 -3.91185 2.22024 0
M  V30 6284 C 584.68 -4.39689 0.190201 0
M  V30 6285 H 581.799 -0.716185 0.17392 0
M  V30 6286 H 584.441 -1.55925 1.08569 0
M  V30 6287 H 582.591 -3.8795 0.206705 0
M  V30 6288 H 584.263 -3.66049 2.80724 0
M  V30 6289 H 582.506 -3.3996 2.69462 0
M  V30 6290 H 583.177 -4.99604 2.34735 0
M  V30 6291 H 585.653 -4.11225 0.635103 0
M  V30 6292 H 584.529 -5.47469 0.396132 0
M  V30 6293 H 584.79 -4.32683 -0.907625 0
M  V30 6294 N 583.85 -0.624285 -1.44708 0
M  V30 6295 C 585.096 -0.126237 -2.02407 0
M  V30 6296 C 585.428 1.24618 -1.48943 0
M  V30 6297 O 584.704 1.82569 -0.670742 0
M  V30 6298 C 584.986 -0.105449 -3.59946 0
M  V30 6299 C 584.84 -1.50972 -4.23707 0
M  V30 6300 C 586.159 0.573629 -4.36346 0
M  V30 6301 H 583.278 -0.0473472 -0.735478 0
M  V30 6302 H 585.92 -0.799452 -1.72362 0
M  V30 6303 H 584.07 0.46783 -3.85673 0
M  V30 6304 H 585.742 -2.13136 -4.0911 0
M  V30 6305 H 583.985 -2.0656 -3.81465 0
M  V30 6306 H 584.656 -1.44727 -5.32689 0
M  V30 6307 H 587.132 0.0861787 -4.16011 0
M  V30 6308 H 586.008 0.557338 -5.46063 0
M  V30 6309 H 586.269 1.64276 -4.10446 0
M  V30 6310 N 585.328 1.53329 -0.364422 0
M  V30 6311 C 586.556 2.05657 0.226424 0
M  V30 6312 C 586.971 1.23801 1.42544 0
M  V30 6313 O 586.328 0.27839 1.80364 0
M  V30 6314 C 586.379 3.56125 0.621056 0
M  V30 6315 O 586.1 4.34879 -0.530304 0
M  V30 6316 C 587.601 4.24706 1.27041 0
M  V30 6317 H 584.821 0.669806 0.0400056 0
M  V30 6318 H 587.365 1.97714 -0.522456 0
M  V30 6319 H 585.52 3.64223 1.31985 0
M  V30 6320 H 585.934 5.24073 -0.211546 0
M  V30 6321 H 587.408 5.3131 1.49711 0
M  V30 6322 H 587.885 3.78354 2.23036 0
M  V30 6323 H 588.491 4.20858 0.613079 0
M  V30 6324 N 586.806 0.0935595 1.57322 0
M  V30 6325 C 587.739 -0.902505 2.09595 0
M  V30 6326 C 588.717 -1.27732 1.00615 0
M  V30 6327 O 589.901 -1.38283 1.28102 0
M  V30 6328 C 587.028 -2.20416 2.57166 0
M  V30 6329 C 586.074 -1.97932 3.7779 0
M  V30 6330 S 586.907 -1.21873 5.21447 0
M  V30 6331 C 588.063 -2.53273 5.72367 0
M  V30 6332 H 588.296 -0.457797 2.93754 0
M  V30 6333 H 585.829 -0.119694 1.53935 0
M  V30 6334 H 587.787 -2.95217 2.85232 0
M  V30 6335 H 586.448 -2.62008 1.73235 0
M  V30 6336 H 585.641 -2.94316 4.09138 0
M  V30 6337 H 585.243 -1.3126 3.5021 0
M  V30 6338 H 587.535 -3.49256 5.8054 0
M  V30 6339 H 588.478 -2.26505 6.70896 0
M  V30 6340 H 588.886 -2.61475 5.00291 0
M  V30 6341 N 588.284 -1.56567 -0.180126 0
M  V30 6342 C 589.512 -1.85618 -0.913972 0
M  V30 6343 C 589.927 -0.677892 -1.7621 0
M  V30 6344 O 589.284 0.353171 -1.7905 0
M  V30 6345 C 589.335 -3.13619 -1.79793 0
M  V30 6346 O 589.056 -4.26906 -0.98402 0
M  V30 6347 C 590.557 -3.55954 -2.64219 0
M  V30 6348 H 587.777 -0.616043 -0.265954 0
M  V30 6349 H 590.321 -2.03681 -0.182872 0
M  V30 6350 H 588.476 -2.97409 -2.48247 0
M  V30 6351 H 588.89 -4.9989 -1.58776 0
M  V30 6352 H 590.364 -4.48444 -3.21873 0
M  V30 6353 H 590.841 -2.79653 -3.38661 0
M  V30 6354 H 591.447 -3.74746 -2.01111 0
M  V30 6355 N 589.762 0.448376 -1.51087 0
M  V30 6356 C 590.99 1.22143 -1.66999 0
M  V30 6357 C 591.405 1.85283 -0.362699 0
M  V30 6358 O 590.762 1.70236 0.65772 0
M  V30 6359 C 590.813 2.31357 -2.7777 0
M  V30 6360 O 590.534 1.70801 -4.03434 0
M  V30 6361 C 592.035 3.21836 -3.04855 0
M  V30 6362 H 589.255 0.368558 -0.560719 0
M  V30 6363 H 591.799 0.532618 -1.97442 0
M  V30 6364 H 589.954 2.95973 -2.49958 0
M  V30 6365 H 590.368 2.42895 -4.64868 0
M  V30 6366 H 591.842 3.94627 -3.85971 0
M  V30 6367 H 592.319 3.81949 -2.16821 0
M  V30 6368 H 592.925 2.62933 -3.34285 0
M  V30 6369 N 591.24 1.41047 0.703093 0
M  V30 6370 C 592.17 1.45067 1.82969 0
M  V30 6371 C 593.151 0.31016 1.67248 0
M  V30 6372 O 594.336 0.520548 1.87093 0
M  V30 6373 C 591.466 1.32478 3.2104 0
M  V30 6374 C 590.42 2.44262 3.51454 0
M  V30 6375 C 589.746 2.16742 4.88801 0
M  V30 6376 C 591.046 3.86606 3.51189 0
M  V30 6377 H 592.74 2.39353 1.79863 0
M  V30 6378 H 590.286 1.15206 0.863919 0
M  V30 6379 H 592.239 1.33904 3.99559 0
M  V30 6380 H 590.963 0.346735 3.24754 0
M  V30 6381 H 589.622 2.42107 2.75282 0
M  V30 6382 H 589.27 1.17299 4.89132 0
M  V30 6383 H 588.97 2.91643 5.10116 0
M  V30 6384 H 590.494 2.19872 5.69639 0
M  V30 6385 H 591.908 3.90517 4.19725 0
M  V30 6386 H 590.305 4.61128 3.84033 0
M  V30 6387 H 591.375 4.15296 2.50315 0
M  V30 6388 N 592.718 -0.936591 1.26751 0
M  V30 6389 C 593.966 -1.67998 1.12343 0
M  V30 6390 C 594.287 -1.92137 -0.332938 0
M  V30 6391 O 593.557 -1.52132 -1.23421 0
M  V30 6392 H 592.137 -0.622609 0.412756 0
M  V30 6393 H 594.799 -1.12509 1.59147 0
M  V30 6394 H 593.895 -2.65185 1.64571 0
M  V30 6395 N 594.196 -1.08629 -1.14182 0
M  V30 6396 C 595.426 -0.837673 -1.88856 0
M  V30 6397 C 595.834 0.614024 -1.78959 0
M  V30 6398 O 595.177 1.43384 -1.14833 0
M  V30 6399 C 595.239 -1.18355 -3.39459 0
M  V30 6400 C 594.903 -2.63848 -3.73139 0
M  V30 6401 C 595.9 -3.62099 -3.73069 0
M  V30 6402 C 593.585 -2.99761 -4.03049 0
M  V30 6403 C 595.579 -4.94292 -4.02435 0
M  V30 6404 C 593.266 -4.32147 -4.32078 0
M  V30 6405 C 594.264 -5.29223 -4.31755 0
M  V30 6406 O 593.952 -6.59229 -4.60079 0
M  V30 6407 H 593.684 -0.301609 -0.604986 0
M  V30 6408 H 596.238 -1.44961 -1.45518 0
M  V30 6409 H 594.468 -0.514628 -3.8326 0
M  V30 6410 H 596.157 -0.915391 -3.95443 0
M  V30 6411 H 596.923 -3.35698 -3.50046 0
M  V30 6412 H 592.802 -2.2484 -4.02453 0
M  V30 6413 H 596.346 -5.70055 -4.02098 0
M  V30 6414 H 592.243 -4.58296 -4.54571 0
M  V30 6415 H 593.011 -6.64578 -4.77785 0
M  V30 6416 N 595.674 1.31259 -0.872281 0
M  V30 6417 C 596.922 1.96233 -0.483409 0
M  V30 6418 C 597.243 1.69276 0.968012 0
M  V30 6419 O 596.513 1.00943 1.67891 0
M  V30 6420 H 595.093 0.726025 -0.175774 0
M  V30 6421 H 597.755 1.60024 -1.11258 0
M  V30 6422 H 596.851 3.05403 -0.643075 0
M  V30 6423 N 597.152 0.631951 1.44375 0
M  V30 6424 C 598.429 0.067646 1.95483 0
M  V30 6425 C 598.809 -1.40683 1.57389 0
M  V30 6426 O 598.157 -2.12167 0.848375 0
M  V30 6427 C 598.367 0.291392 3.47781 0
M  V30 6428 C 599.715 0.185028 4.24197 0
M  V30 6429 O 600.739 0.222803 3.55503 0
M  V30 6430 O 599.598 0.0906642 5.46425 0
M  V30 6431 H 596.692 -0.0218379 0.826712 0
M  V30 6432 H 599.238 0.703711 1.54421 0
M  V30 6433 H 598.01 1.31449 3.68561 0
M  V30 6434 H 597.633 -0.378772 3.95792 0
M  V30 6435 N 598.631 -1.53133 0.372548 0
M  V30 6436 C 599.564 -2.22328 -0.514361 0
M  V30 6437 C 600.542 -1.21776 -1.07747 0
M  V30 6438 O 601.726 -1.50704 -1.13228 0
M  V30 6439 C 598.853 -2.92343 -1.71035 0
M  V30 6440 C 597.899 -4.07026 -1.27405 0
M  V30 6441 S 598.732 -5.34821 -0.269526 0
M  V30 6442 C 599.888 -6.08352 -1.47168 0
M  V30 6443 H 600.121 -2.9721 0.0732683 0
M  V30 6444 H 597.654 -1.53603 0.156673 0
M  V30 6445 H 599.612 -3.33296 -2.39634 0
M  V30 6446 H 598.273 -2.17173 -2.26925 0
M  V30 6447 H 597.466 -4.55056 -2.16656 0
M  V30 6448 H 597.068 -3.68001 -0.66719 0
M  V30 6449 H 599.36 -6.33507 -2.40157 0
M  V30 6450 H 600.303 -7.0053 -1.03263 0
M  V30 6451 H 600.711 -5.38893 -1.6809 0
M  V30 6452 N 600.109 -0.101901 -1.5727 0
M  V30 6453 C 601.339 0.567568 -1.98651 0
M  V30 6454 C 601.747 1.61839 -0.980037 0
M  V30 6455 O 601.09 1.83661 0.0376564 0
M  V30 6456 C 601.152 1.26742 -3.36417 0
M  V30 6457 C 600.816 0.366561 -4.55528 0
M  V30 6458 C 601.813 -0.388022 -5.1845 0
M  V30 6459 C 599.498 0.282629 -5.01504 0
M  V30 6460 C 601.492 -1.21445 -6.25724 0
M  V30 6461 C 599.179 -0.547443 -6.08643 0
M  V30 6462 C 600.177 -1.29462 -6.70618 0
M  V30 6463 O 599.865 -2.11095 -7.7569 0
M  V30 6464 H 599.597 0.156282 -0.657687 0
M  V30 6465 H 602.151 -0.179912 -2.04611 0
M  V30 6466 H 600.381 2.06162 -3.27161 0
M  V30 6467 H 602.07 1.8321 -3.622 0
M  V30 6468 H 602.836 -0.332949 -4.83856 0
M  V30 6469 H 598.715 0.853868 -4.53023 0
M  V30 6470 H 602.259 -1.79814 -6.74027 0
M  V30 6471 H 598.156 -0.603971 -6.42668 0
M  V30 6472 H 598.924 -2.03851 -7.92709 0
M  V30 6473 N 601.587 1.56661 0.17182 0
M  V30 6474 C 602.998 1.71652 0.734329 0
M  V30 6475 C 603.349 0.712335 1.82812 0
M  V30 6476 O 602.474 -0.126401 2.16031 0
M  V30 6477 C 603.069 3.11226 1.3388 0
M  V30 6478 C 601.628 3.27904 1.84813 0
M  V30 6479 C 600.775 2.67603 0.726917 0
M  V30 6480 H 603.726 1.5861 -0.0535665 0
M  V30 6481 H 603.747 3.09849 2.20849 0
M  V30 6482 H 603.259 3.8429 0.54249 0
M  V30 6483 H 601.36 2.59796 2.6709 0
M  V30 6484 H 601.473 4.35637 1.99392 0
M  V30 6485 H 599.837 2.274 1.14723 0
M  V30 6486 H 600.62 3.43252 -0.0575334 0
M  V30 6487 N 603.065 -0.440357 1.51323 0
M  V30 6488 C 603.997 -1.55254 1.68609 0
M  V30 6489 C 605.01 -1.52614 0.566812 0
M  V30 6490 O 606.199 -1.57445 0.841032 0
M  V30 6491 C 603.299 -2.94169 1.68279 0
M  V30 6492 C 602.472 -3.21346 2.96742 0
M  V30 6493 C 601.531 -4.3997 2.8864 0
M  V30 6494 O 600.557 -4.38771 3.62586 0
M  V30 6495 N 601.759 -5.43367 2.04285 0
M  V30 6496 H 604.524 -1.40831 2.6455 0
M  V30 6497 H 602.085 -0.629251 1.49171 0
M  V30 6498 H 604.077 -3.71543 1.60431 0
M  V30 6499 H 602.647 -3.02205 0.799441 0
M  V30 6500 H 601.867 -2.32299 3.18482 0
M  V30 6501 H 603.155 -3.3633 3.81785 0
M  V30 6502 H 602.553 -5.47176 1.43578 0
M  V30 6503 H 601.11 -6.19605 2.02318 0
M  V30 6504 N 604.543 -1.41418 -0.695603 0
M  V30 6505 C 605.771 -1.4413 -1.48439 0
M  V30 6506 C 606.186 -0.0465698 -1.88743 0
M  V30 6507 O 605.543 0.934117 -1.56782 0
M  V30 6508 C 605.594 -2.34998 -2.74696 0
M  V30 6509 O 605.315 -3.69043 -2.36091 0
M  V30 6510 C 606.816 -2.46513 -3.68438 0
M  V30 6511 H 604.036 -0.490905 -0.457442 0
M  V30 6512 H 606.58 -1.85702 -0.856454 0
M  V30 6513 H 604.735 -1.96735 -3.33728 0
M  V30 6514 H 605.149 -4.17505 -3.17474 0
M  V30 6515 H 606.623 -3.1426 -4.53811 0
M  V30 6516 H 607.1 -1.49638 -4.12922 0
M  V30 6517 H 607.706 -2.85412 -3.1531 0
M  V30 6518 N 606.021 0.929856 -1.27246 0
M  V30 6519 C 607.267 1.6802 -1.14634 0
M  V30 6520 C 607.622 1.89965 0.305151 0
M  V30 6521 O 606.915 1.47737 1.22001 0
M  V30 6522 C 607.109 3.05116 -1.86115 0
M  V30 6523 C 606.938 2.96549 -3.38066 0
M  V30 6524 C 605.708 2.98947 -4.0738 0
M  V30 6525 C 607.906 2.7583 -4.34077 0
M  V30 6526 N 605.888 2.80799 -5.45917 0
M  V30 6527 C 607.259 2.66364 -5.59866 0
M  V30 6528 C 609.314 2.60701 -4.24193 0
M  V30 6529 C 608.017 2.43313 -6.76898 0
M  V30 6530 C 610.043 2.39026 -5.40944 0
M  V30 6531 C 609.405 2.30302 -6.65688 0
M  V30 6532 H 605.504 0.62172 -0.474329 0
M  V30 6533 H 608.088 1.09947 -1.60685 0
M  V30 6534 H 606.259 3.61306 -1.42522 0
M  V30 6535 H 607.991 3.69076 -1.66027 0
M  V30 6536 H 604.746 3.09093 -3.58829 0
M  V30 6537 H 605.17 2.74861 -6.18692 0
M  V30 6538 H 609.812 2.66206 -3.28473 0
M  V30 6539 H 607.53 2.36548 -7.72704 0
M  V30 6540 H 611.116 2.28208 -5.35175 0
M  V30 6541 H 609.996 2.13756 -7.54505 0
M  V30 6542 N 607.499 1.09233 1.13605 0
M  V30 6543 C 608.724 0.849067 1.89224 0
M  V30 6544 C 609.149 -0.593875 1.78479 0
M  V30 6545 O 608.507 -1.41703 1.13092 0
M  V30 6546 C 608.555 1.28642 3.36873 0
M  V30 6547 O 607.659 0.44363 4.10007 0
M  V30 6548 H 607 0.30767 0.588417 0
M  V30 6549 H 609.53 1.45595 1.43748 0
M  V30 6550 H 609.54 1.27096 3.87699 0
M  V30 6551 H 608.215 2.33729 3.44011 0
M  V30 6552 H 606.792 0.523241 3.69211 0
M  V30 6553 N 608.977 -1.30795 0.87923 0
M  V30 6554 C 610.225 -1.95974 0.493809 0
M  V30 6555 C 610.546 -1.69787 -0.959021 0
M  V30 6556 O 609.816 -1.01832 -1.67353 0
M  V30 6557 H 608.396 -0.725083 0.179622 0
M  V30 6558 H 611.058 -1.59432 1.12105 0
M  V30 6559 H 610.154 -3.05058 0.659263 0
M  V30 6560 N 610.455 -0.639598 -1.44038 0
M  V30 6561 C 611.388 0.109736 -2.27936 0
M  V30 6562 C 612.366 0.843095 -1.39035 0
M  V30 6563 O 613.55 0.845456 -1.68476 0
M  V30 6564 C 610.677 1.16173 -3.18153 0
M  V30 6565 C 609.723 0.527954 -4.2322 0
M  V30 6566 S 610.556 -0.688318 -5.31058 0
M  V30 6567 C 611.712 0.363481 -6.24844 0
M  V30 6568 H 611.945 -0.601986 -2.91142 0
M  V30 6569 H 609.478 -0.42802 -1.48349 0
M  V30 6570 H 611.436 1.76372 -3.7068 0
M  V30 6571 H 610.097 1.84569 -2.54151 0
M  V30 6572 H 609.29 1.32054 -4.86393 0
M  V30 6573 H 608.892 0.000396444 -3.74 0
M  V30 6574 H 611.184 1.23362 -6.66174 0
M  V30 6575 H 612.127 -0.23288 -7.07717 0
M  V30 6576 H 612.535 0.693179 -5.60228 0
M  V30 6577 N 611.933 1.52934 -0.380664 0
M  V30 6578 C 612.863 2.29118 0.450268 0
M  V30 6579 C 613.844 1.32153 1.07096 0
M  V30 6580 O 615.029 1.61038 1.08537 0
M  V30 6581 C 612.159 3.09161 1.58231 0
M  V30 6582 C 611.113 4.13938 1.0881 0
M  V30 6583 C 610.439 4.82153 2.31155 0
M  V30 6584 C 611.739 5.22048 0.162146 0
M  V30 6585 H 613.433 2.98826 -0.185361 0
M  V30 6586 H 610.979 1.43715 -0.0905886 0
M  V30 6587 H 612.932 3.61211 2.17036 0
M  V30 6588 H 611.656 2.3717 2.2454 0
M  V30 6589 H 610.315 3.62855 0.522633 0
M  V30 6590 H 609.963 4.06719 2.95953 0
M  V30 6591 H 609.663 5.52966 1.98752 0
M  V30 6592 H 611.187 5.37004 2.90618 0
M  V30 6593 H 612.601 5.6951 0.658126 0
M  V30 6594 H 610.998 6.00057 -0.0717122 0
M  V30 6595 H 612.068 4.78398 -0.791438 0
M  V30 6596 N 613.412 0.11024 1.57214 0
M  V30 6597 C 614.658 -0.550684 1.9518 0
M  V30 6598 C 614.991 -1.66885 0.993122 0
M  V30 6599 O 614.266 -1.94479 0.0287907 0
M  V30 6600 C 614.549 -1.09163 3.43155 0
M  V30 6601 C 614.402 0.0225198 4.49794 0
M  V30 6602 C 615.721 -1.98527 3.92778 0
M  V30 6603 H 612.84 -0.198706 0.709708 0
M  V30 6604 H 615.482 0.184024 1.89107 0
M  V30 6605 H 613.632 -1.71775 3.48462 0
M  V30 6606 H 615.304 0.657443 4.56591 0
M  V30 6607 H 613.547 0.686868 4.28328 0
M  V30 6608 H 614.218 -0.39706 5.5057 0
M  V30 6609 H 616.694 -1.458 3.8972 0
M  V30 6610 H 615.57 -2.33298 4.96853 0
M  V30 6611 H 615.831 -2.90846 3.32958 0
M  V30 6612 N 614.89 -1.56749 -0.16351 0
M  V30 6613 C 616.138 -1.82074 -0.87713 0
M  V30 6614 C 616.459 -0.688503 -1.82441 0
M  V30 6615 O 615.729 0.291085 -1.93725 0
M  V30 6616 H 614.309 -0.671677 -0.326893 0
M  V30 6617 H 616.971 -1.9423 -0.161459 0
M  V30 6618 H 616.067 -2.76407 -1.44934 0
M  V30 6619 N 616.368 0.432326 -1.51554 0
M  V30 6620 C 617.331 1.50765 -1.72634 0
M  V30 6621 C 618.331 1.49334 -0.596314 0
M  V30 6622 O 619.521 1.51268 -0.863925 0
M  V30 6623 C 616.653 2.90284 -1.7874 0
M  V30 6624 H 617.846 1.33377 -2.68609 0
M  V30 6625 H 615.399 0.661329 -1.4162 0
M  V30 6626 H 616.134 3.13071 -0.845977 0
M  V30 6627 H 615.919 2.92727 -2.6087 0
M  V30 6628 H 617.409 3.68282 -1.96871 0
M  V30 6629 N 617.846 1.41785 0.688094 0
M  V30 6630 C 618.776 1.47 1.8142 0
M  V30 6631 C 619.757 0.327881 1.6691 0
M  V30 6632 O 620.942 0.540362 1.86531 0
M  V30 6633 C 618.072 1.35876 3.19617 0
M  V30 6634 C 617.026 2.47976 3.48844 0
M  V30 6635 C 616.352 2.21915 4.86475 0
M  V30 6636 C 617.652 3.90309 3.47068 0
M  V30 6637 H 619.346 2.41247 1.77314 0
M  V30 6638 H 616.892 1.16116 0.851651 0
M  V30 6639 H 618.845 1.38134 3.98117 0
M  V30 6640 H 617.569 0.38116 3.24368 0
M  V30 6641 H 616.228 2.45013 2.72698 0
M  V30 6642 H 615.876 1.2248 4.8786 0
M  V30 6643 H 615.576 2.97037 5.06994 0
M  V30 6644 H 617.1 2.25901 5.67275 0
M  V30 6645 H 618.514 3.94947 4.1556 0
M  V30 6646 H 616.911 4.65175 3.7912 0
M  V30 6647 H 617.981 4.17927 2.45896 0
M  V30 6648 N 619.324 -0.923095 1.27737 0
M  V30 6649 C 620.564 -1.6858 1.15586 0
M  V30 6650 C 620.928 -1.89758 -0.292562 0
M  V30 6651 O 622.129 -2.6339 -0.536583 0
M  V30 6652 C 620.4 -3.01275 1.92271 0
M  V30 6653 S 621.959 -3.924 1.96387 0
M  V30 6654 H 618.777 -0.579069 0.412554 0
M  V30 6655 H 621.379 -1.09866 1.61709 0
M  V30 6656 H 620.083 -2.83556 2.96689 0
M  V30 6657 H 619.614 -3.6504 1.46661 0
M  V30 6658 H 621.629 -4.84667 1.06361 0
M  V30 6659 N 620.802 -1.09834 -1.13024 0
M  V30 6660 C 621.765 -0.745058 -2.16752 0
M  V30 6661 C 622.765 0.227435 -1.59183 0
M  V30 6662 O 623.955 0.0050786 -1.74199 0
M  V30 6663 C 621.087 -0.102543 -3.40746 0
M  V30 6664 H 622.28 -1.66375 -2.49518 0
M  V30 6665 H 619.833 -0.898061 -1.27924 0
M  V30 6666 H 620.568 0.827177 -3.13573 0
M  V30 6667 H 620.353 -0.80235 -3.83803 0
M  V30 6668 H 621.843 0.129082 -4.174 0
M  V30 6669 N 622.28 1.30327 -0.886154 0
M  V30 6670 C 623.21 2.30549 -0.370028 0
M  V30 6671 C 624.191 1.61039 0.547751 0
M  V30 6672 O 625.376 1.8864 0.461353 0
M  V30 6673 C 622.506 3.44808 0.415275 0
M  V30 6674 C 621.46 4.26024 -0.41085 0
M  V30 6675 C 620.786 5.32347 0.501128 0
M  V30 6676 C 622.086 4.95433 -1.65359 0
M  V30 6677 H 623.78 2.73969 -1.20754 0
M  V30 6678 H 621.326 1.3171 -0.582097 0
M  V30 6679 H 623.279 4.13986 0.78699 0
M  V30 6680 H 622.003 3.00197 1.28644 0
M  V30 6681 H 620.662 3.58535 -0.764719 0
M  V30 6682 H 620.31 4.83982 1.37004 0
M  V30 6683 H 620.01 5.87581 -0.0478356 0
M  V30 6684 H 621.534 6.0438 0.869333 0
M  V30 6685 H 622.948 5.5712 -1.35239 0
M  V30 6686 H 621.345 5.60537 -2.14284 0
M  V30 6687 H 622.415 4.21493 -2.39733 0
M  V30 6688 N 623.758 0.647228 1.43697 0
M  V30 6689 C 624.721 -0.0385101 2.29168 0
M  V30 6690 C 625.721 -0.756487 1.41894 0
M  V30 6691 O 626.911 -0.598641 1.63591 0
M  V30 6692 C 624.043 -1.06524 3.23829 0
M  V30 6693 H 625.236 0.713445 2.9129 0
M  V30 6694 H 622.789 0.408153 1.50877 0
M  V30 6695 H 623.524 -1.84664 2.66589 0
M  V30 6696 H 623.309 -0.554147 3.88164 0
M  V30 6697 H 624.799 -1.54432 3.87996 0
M  V30 6698 N 625.236 -1.5273 0.388769 0
M  V30 6699 C 626.484 -2.01174 -0.193208 0
M  V30 6700 C 626.805 -1.27705 -1.47365 0
M  V30 6701 O 626.075 -0.396966 -1.91836 0
M  V30 6702 H 624.655 -0.743287 -0.0743871 0
M  V30 6703 H 627.317 -1.87826 0.520336 0
M  V30 6704 H 626.413 -3.09477 -0.403803 0
M  V30 6705 N 626.714 -0.118576 -1.57153 0
M  V30 6706 C 627.96 0.540326 -1.95469 0
M  V30 6707 C 628.293 1.66356 -1.00196 0
M  V30 6708 O 627.568 1.94461 -0.039104 0
M  V30 6709 C 627.851 1.07342 -3.43729 0
M  V30 6710 C 627.704 -0.0463732 -4.49776 0
M  V30 6711 C 629.023 1.96442 -3.93826 0
M  V30 6712 H 626.142 0.19494 -0.710751 0
M  V30 6713 H 628.784 -0.19405 -1.89006 0
M  V30 6714 H 626.934 1.69925 -3.49368 0
M  V30 6715 H 628.606 -0.681648 -4.56236 0
M  V30 6716 H 626.849 -0.709574 -4.27957 0
M  V30 6717 H 627.52 0.367856 -5.50773 0
M  V30 6718 H 629.996 1.43731 -3.90488 0
M  V30 6719 H 628.872 2.3066 -4.98084 0
M  V30 6720 H 629.133 2.89077 -3.34495 0
M  V30 6721 N 628.193 1.56834 0.155195 0
M  V30 6722 C 629.123 2.00678 1.19376 0
M  V30 6723 C 630.104 0.884973 1.45266 0
M  V30 6724 O 631.289 1.1522 1.56326 0
M  V30 6725 C 628.419 2.38042 2.5289 0
M  V30 6726 C 627.373 3.53332 2.41538 0
M  V30 6727 C 626.699 3.76485 3.79688 0
M  V30 6728 C 627.999 4.86265 1.9064 0
M  V30 6729 H 629.693 2.87688 0.829232 0
M  V30 6730 H 627.239 1.38407 0.397445 0
M  V30 6731 H 629.192 2.67314 3.25763 0
M  V30 6732 H 627.916 1.4796 2.91162 0
M  V30 6733 H 626.575 3.24213 1.71117 0
M  V30 6734 H 626.223 2.83667 4.15382 0
M  V30 6735 H 625.923 4.54068 3.72956 0
M  V30 6736 H 627.447 4.08174 4.54122 0
M  V30 6737 H 628.861 5.14308 2.53299 0
M  V30 6738 H 627.258 5.67597 1.94818 0
M  V30 6739 H 628.328 4.77184 0.861596 0
M  V30 6740 N 629.671 -0.424282 1.51781 0
M  V30 6741 C 630.899 -1.1947 1.68921 0
M  V30 6742 C 631.314 -1.84683 0.39213 0
M  V30 6743 O 630.671 -1.71261 -0.630554 0
M  V30 6744 C 630.722 -2.26909 2.81416 0
M  V30 6745 O 630.443 -1.64361 4.061 0
M  V30 6746 C 631.944 -3.16945 3.09937 0
M  V30 6747 H 629.164 -0.359591 0.566511 0
M  V30 6748 H 631.708 -0.501139 1.98265 0
M  V30 6749 H 629.863 -2.91959 2.54635 0
M  V30 6750 H 630.277 -2.35468 4.68674 0
M  V30 6751 H 631.751 -3.88437 3.922 0
M  V30 6752 H 632.228 -3.78451 2.22871 0
M  V30 6753 H 632.834 -2.57581 3.38426 0
M  V30 6754 N 631.149 -1.42148 -0.680565 0
M  V30 6755 C 632.398 -1.41604 -1.43636 0
M  V30 6756 C 632.711 -0.0337887 -1.95571 0
M  V30 6757 O 633.917 0.0942588 -2.71336 0
M  V30 6758 C 632.373 -2.49056 -2.59806 0
M  V30 6759 C 631.981 -3.9326 -2.14594 0
M  V30 6760 C 633.725 -2.5767 -3.37352 0
M  V30 6761 C 631.632 -4.92232 -3.27813 0
M  V30 6762 H 630.562 -0.526656 -0.539583 0
M  V30 6763 H 633.213 -1.68033 -0.737369 0
M  V30 6764 H 631.595 -2.15782 -3.32045 0
M  V30 6765 H 632.769 -4.35858 -1.49546 0
M  V30 6766 H 631.084 -3.88443 -1.50002 0
M  V30 6767 H 633.681 -3.28794 -4.21662 0
M  V30 6768 H 634.024 -1.61837 -3.83555 0
M  V30 6769 H 634.557 -2.90109 -2.72179 0
M  V30 6770 H 631.296 -5.89522 -2.86607 0
M  V30 6771 H 630.816 -4.5427 -3.91661 0
M  V30 6772 H 632.495 -5.13684 -3.93367 0
M  V30 6773 N 632.627 0.916307 -1.28225 0
M  V30 6774 C 633.59 1.99996 -1.11957 0
M  V30 6775 C 634.59 1.60688 -0.0600152 0
M  V30 6776 O 635.78 1.71499 -0.30558 0
M  V30 6777 C 632.912 3.33458 -0.708411 0
M  V30 6778 H 634.105 2.15858 -2.08196 0
M  V30 6779 H 631.658 1.09863 -1.11175 0
M  V30 6780 H 632.393 3.23297 0.254859 0
M  V30 6781 H 632.178 3.63349 -1.47377 0
M  V30 6782 H 633.668 4.13014 -0.617164 0
M  V30 6783 N 634.105 1.10431 1.1244 0
M  V30 6784 C 635.038 0.696987 2.17296 0
M  V30 6785 C 636.016 -0.301673 1.59777 0
M  V30 6786 O 637.2 -0.200583 1.8743 0
M  V30 6787 C 634.327 0.0284094 3.38688 0
M  V30 6788 C 633.373 0.990536 4.14838 0
M  V30 6789 S 634.206 2.50785 4.73146 0
M  V30 6790 C 635.362 1.85198 5.97873 0
M  V30 6791 H 635.595 1.58523 2.51511 0
M  V30 6792 H 633.128 0.921312 1.239 0
M  V30 6793 H 635.086 -0.351009 4.08997 0
M  V30 6794 H 633.747 -0.836629 3.02753 0
M  V30 6795 H 632.94 0.469991 5.01804 0
M  V30 6796 H 632.542 1.31186 3.50237 0
M  V30 6797 H 634.834 1.18217 6.67106 0
M  V30 6798 H 635.777 2.7012 6.54554 0
M  V30 6799 H 636.185 1.31653 5.48933 0
M  V30 6800 N 635.583 -1.29855 0.893053 0
M  V30 6801 C 636.994 -1.77946 0.564998 0
M  V30 6802 C 637.345 -1.73339 -0.919134 0
M  V30 6803 O 636.47 -1.3152 -1.71847 0
M  V30 6804 C 637.065 -3.23118 1.01883 0
M  V30 6805 C 635.624 -3.69013 0.742051 0
M  V30 6806 C 634.771 -2.50121 1.19727 0
M  V30 6807 H 637.722 -1.16611 1.07646 0
M  V30 6808 H 637.743 -3.78875 0.351249 0
M  V30 6809 H 637.255 -3.26439 2.09903 0
M  V30 6810 H 635.356 -3.71173 -0.325816 0
M  V30 6811 H 635.469 -4.60117 1.33527 0
M  V30 6812 H 633.833 -2.47128 0.616418 0
M  V30 6813 H 634.616 -2.56174 2.28538 0
M  V30 6814 N 637.061 -0.65484 -1.43351 0
M  V30 6815 C 638.307 -0.169142 -2.02093 0
M  V30 6816 C 638.64 1.21431 -1.51553 0
M  V30 6817 O 637.915 1.81105 -0.709317 0
M  V30 6818 C 638.198 -0.181775 -3.59641 0
M  V30 6819 C 638.051 -1.59926 -4.20409 0
M  V30 6820 C 639.37 0.480945 -4.37464 0
M  V30 6821 H 636.489 -0.0629371 -0.734308 0
M  V30 6822 H 639.131 -0.835833 -1.70628 0
M  V30 6823 H 637.281 0.385918 -3.86578 0
M  V30 6824 H 638.953 -2.21766 -4.04497 0
M  V30 6825 H 637.196 -2.14605 -3.76998 0
M  V30 6826 H 637.867 -1.55994 -5.295 0
M  V30 6827 H 640.343 -0.00208273 -4.161 0
M  V30 6828 H 639.219 0.441384 -5.47122 0
M  V30 6829 H 639.48 1.55533 -4.13838 0
M  V30 6830 N 638.539 1.52521 -0.396863 0
M  V30 6831 C 639.95 1.86547 0.0754868 0
M  V30 6832 C 640.301 1.31621 1.45501 0
M  V30 6833 O 639.426 0.650563 2.0639 0
M  V30 6834 C 640.021 3.38495 0.143754 0
M  V30 6835 C 638.58 3.72205 0.560413 0
M  V30 6836 C 637.727 2.75954 -0.272856 0
M  V30 6837 H 640.678 1.46323 -0.614434 0
M  V30 6838 H 640.699 3.68153 0.961425 0
M  V30 6839 H 640.211 3.78442 -0.860415 0
M  V30 6840 H 638.312 3.3783 1.57167 0
M  V30 6841 H 638.425 4.78074 0.313314 0
M  V30 6842 H 636.789 2.53339 0.263 0
M  V30 6843 H 637.572 3.1874 -1.27515 0
M  V30 6844 N 640.017 0.126909 1.57088 0
M  V30 6845 C 641.263 -0.529952 1.95753 0
M  V30 6846 C 641.596 -1.65823 1.01077 0
M  V30 6847 O 640.871 -1.94437 0.0494162 0
M  V30 6848 C 641.154 -1.05517 3.44294 0
M  V30 6849 C 641.007 0.0702253 4.49745 0
M  V30 6850 C 642.326 -1.9435 3.94862 0
M  V30 6851 H 639.445 -0.191168 0.711775 0
M  V30 6852 H 642.087 0.204071 1.88901 0
M  V30 6853 H 640.237 -1.68069 3.50264 0
M  V30 6854 H 641.909 0.705834 4.55868 0
M  V30 6855 H 640.152 0.732259 4.27575 0
M  V30 6856 H 640.823 -0.338642 5.5096 0
M  V30 6857 H 643.299 -1.41658 3.91244 0
M  V30 6858 H 642.175 -2.28015 4.993 0
M  V30 6859 H 642.436 -2.87299 3.36024 0
M  V30 6860 N 641.495 -1.56914 -0.146875 0
M  V30 6861 C 642.744 -1.82546 -0.857898 0
M  V30 6862 C 643.057 -0.708169 -1.8233 0
M  V30 6863 O 644.263 -0.850093 -2.57848 0
M  V30 6864 C 642.719 -3.23548 -1.57623 0
M  V30 6865 C 642.327 -4.43212 -0.653224 0
M  V30 6866 C 644.071 -3.58453 -2.27402 0
M  V30 6867 C 641.978 -5.75237 -1.37318 0
M  V30 6868 H 640.908 -0.680786 -0.32411 0
M  V30 6869 H 643.559 -1.83166 -0.110639 0
M  V30 6870 H 641.941 -3.17315 -2.36912 0
M  V30 6871 H 643.115 -4.60682 0.104452 0
M  V30 6872 H 641.43 -4.16351 -0.0638336 0
M  V30 6873 H 644.027 -4.54349 -2.81907 0
M  V30 6874 H 644.37 -2.84516 -3.03901 0
M  V30 6875 H 644.903 -3.66347 -1.55032 0
M  V30 6876 H 641.642 -6.52269 -0.650041 0
M  V30 6877 H 641.162 -5.61703 -2.10357 0
M  V30 6878 H 642.841 -6.18039 -1.91406 0
M  V30 6879 N 642.974 0.416227 -1.52004 0
M  V30 6880 C 644.22 1.16555 -1.6596 0
M  V30 6881 C 644.553 1.90347 -0.384906 0
M  V30 6882 O 643.828 1.84474 0.616405 0
M  V30 6883 C 644.111 2.1657 -2.87696 0
M  V30 6884 C 643.964 1.46722 -4.25197 0
M  V30 6885 C 645.283 3.17321 -3.04951 0
M  V30 6886 H 642.402 0.422369 -0.603965 0
M  V30 6887 H 645.044 0.452141 -1.84542 0
M  V30 6888 H 643.194 2.77411 -2.71985 0
M  V30 6889 H 644.866 0.89056 -4.52622 0
M  V30 6890 H 643.109 0.769263 -4.26925 0
M  V30 6891 H 643.78 2.19665 -5.0641 0
M  V30 6892 H 646.256 2.66552 -3.19514 0
M  V30 6893 H 645.132 3.84573 -3.91656 0
M  V30 6894 H 645.393 3.84643 -2.17951 0
M  V30 6895 N 644.452 1.42507 0.673017 0
M  V30 6896 C 645.4 1.46362 1.80779 0
M  V30 6897 C 646.394 0.339166 1.6597 0
M  V30 6898 O 647.6 0.512262 1.72557 0
M  V30 6899 H 643.975 0.458433 0.596107 0
M  V30 6900 H 645.946 2.41953 1.74646 0
M  V30 6901 C 644.695 1.38462 3.18941 0
M  V30 6902 H 644.018 2.24283 3.30964 0
M  V30 6903 H 645.458 1.45221 3.98355 0
M  V30 6904 C 643.917 0.0996354 3.36753 0
M  V30 6905 O 644.447 -0.846894 3.92671 0
M  V30 6906 N 642.653 0.016211 2.90595 0
M  V30 6907 H 642.2 0.78725 2.45276 0
M  V30 6908 H 642.158 -0.84291 3.0289 0
M  V30 6909 N 645.93 -0.909495 1.28709 0
M  V30 6910 C 646.878 -2.03381 1.12866 0
M  V30 6911 C 647.872 -1.69335 0.0468074 0
M  V30 6912 O 649.078 -1.78819 0.205891 0
M  V30 6913 H 645.453 -0.666452 0.348348 0
M  V30 6914 H 647.424 -2.13885 2.08077 0
M  V30 6915 C 646.173 -3.38092 0.811742 0
M  V30 6916 H 645.496 -3.64786 1.63619 0
M  V30 6917 H 646.936 -4.17477 0.740869 0
M  V30 6918 C 645.395 -3.33395 -0.484679 0
M  V30 6919 O 645.925 -3.72089 -1.5137 0
M  V30 6920 N 644.131 -2.86491 -0.486961 0
M  V30 6921 H 643.678 -2.55199 0.350877 0
M  V30 6922 H 643.636 -2.83731 -1.3544 0
M  V30 6923 N 647.408 -1.11026 -1.11852 0
M  V30 6924 C 648.655 -0.85646 -1.83497 0
M  V30 6925 C 648.983 0.617938 -1.84423 0
M  V30 6926 O 648.238 1.47194 -1.28966 0
M  V30 6927 C 648.537 -1.35777 -3.30604 0
M  V30 6928 C 648.203 -2.84465 -3.49843 0
M  V30 6929 C 646.865 -3.25068 -3.54802 0
M  V30 6930 C 649.217 -3.80251 -3.56453 0
M  V30 6931 C 646.545 -4.60194 -3.63921 0
M  V30 6932 C 648.897 -5.15188 -3.67102 0
M  V30 6933 C 647.561 -5.55356 -3.70319 0
M  V30 6934 H 646.831 -0.313401 -0.671462 0
M  V30 6935 H 649.478 -1.38792 -1.31943 0
M  V30 6936 H 647.783 -0.746455 -3.84624 0
M  V30 6937 H 649.48 -1.13779 -3.8452 0
M  V30 6938 H 646.07 -2.52054 -3.46651 0
M  V30 6939 H 650.254 -3.49986 -3.51886 0
M  V30 6940 H 645.51 -4.90728 -3.64686 0
M  V30 6941 H 649.684 -5.89248 -3.71159 0
M  V30 6942 H 647.311 -6.60054 -3.77138 0
M  V30 6943 N 648.886 1.2938 -0.899927 0
M  V30 6944 C 650.134 1.95164 -0.524924 0
M  V30 6945 C 650.455 1.71292 0.931888 0
M  V30 6946 O 649.725 1.04481 1.65712 0
M  V30 6947 H 648.305 0.722133 -0.191135 0
M  V30 6948 H 650.967 1.57628 -1.14627 0
M  V30 6949 H 650.063 3.0397 -0.707711 0
M  V30 6950 N 650.364 0.662433 1.43002 0
M  V30 6951 C 651.297 -0.073459 2.28082 0
M  V30 6952 C 652.275 -0.820869 1.40358 0
M  V30 6953 O 653.459 -0.818545 1.698 0
M  V30 6954 C 650.586 -1.11097 3.19961 0
M  V30 6955 C 649.632 -0.460557 4.24006 0
M  V30 6956 S 650.465 0.772717 5.29896 0
M  V30 6957 C 651.621 -0.264028 6.25343 0
M  V30 6958 H 651.854 0.648227 2.90147 0
M  V30 6959 H 649.387 0.451566 1.47649 0
M  V30 6960 H 651.345 -1.70452 3.73439 0
M  V30 6961 H 650.006 -1.80503 2.57056 0
M  V30 6962 H 649.199 -1.24299 4.88432 0
M  V30 6963 H 648.801 0.0591038 3.73953 0
M  V30 6964 H 651.093 -1.12748 6.68052 0
M  V30 6965 H 652.036 0.345443 7.07257 0
M  V30 6966 H 652.444 -0.603964 5.6126 0
M  V30 6967 N 651.842 -1.52309 0.404946 0
M  V30 6968 C 653.072 -2.05886 -0.171569 0
M  V30 6969 C 653.48 -1.27527 -1.39762 0
M  V30 6970 O 652.823 -0.319215 -1.80905 0
M  V30 6971 C 652.885 -3.54609 -0.590983 0
M  V30 6972 C 652.549 -4.53989 0.523757 0
M  V30 6973 C 653.546 -5.01084 1.38604 0
M  V30 6974 C 651.231 -4.97465 0.695255 0
M  V30 6975 C 653.225 -5.90295 2.4048 0
M  V30 6976 C 650.912 -5.86473 1.71733 0
M  V30 6977 C 651.91 -6.32782 2.57051 0
M  V30 6978 O 651.598 -7.20029 3.57509 0
M  V30 6979 H 651.33 -0.675508 -0.0257763 0
M  V30 6980 H 653.884 -1.97238 0.573278 0
M  V30 6981 H 652.114 -3.60929 -1.38805 0
M  V30 6982 H 653.803 -3.90853 -1.09494 0
M  V30 6983 H 654.569 -4.68214 1.26492 0
M  V30 6984 H 650.448 -4.60982 0.0408447 0
M  V30 6985 H 653.992 -6.26363 3.07108 0
M  V30 6986 H 649.889 -6.18756 1.83877 0
M  V30 6987 H 650.657 -7.3813 3.53703 0
M  V30 6988 N 653.32 -0.135238 -1.57019 0
M  V30 6989 C 654.55 0.525303 -1.9981 0
M  V30 6990 C 654.958 1.59724 -1.01415 0
M  V30 6991 O 654.301 1.837 -0.00130938 0
M  V30 6992 C 654.363 1.19578 -3.3903 0
M  V30 6993 C 654.027 0.269855 -4.56203 0
M  V30 6994 C 655.024 -0.497905 -5.1751 0
M  V30 6995 C 652.709 0.176188 -5.01991 0
M  V30 6996 C 654.703 -1.3469 -6.23007 0
M  V30 6997 C 652.39 -0.676422 -6.07345 0
M  V30 6998 C 653.388 -1.43658 -6.67721 0
M  V30 6999 O 653.076 -2.27501 -7.71037 0
M  V30 7000 H 652.808 0.142296 -0.660854 0
M  V30 7001 H 655.362 -0.223272 -2.04183 0
M  V30 7002 H 653.592 1.99176 -3.3146 0
M  V30 7003 H 655.281 1.75486 -3.66005 0
M  V30 7004 H 656.047 -0.435507 -4.83041 0
M  V30 7005 H 651.926 0.757583 -4.54733 0
M  V30 7006 H 655.47 -1.9407 -6.70062 0
M  V30 7007 H 651.367 -0.740154 -6.41243 0
M  V30 7008 H 652.135 -2.20619 -7.88206 0
M  V30 7009 N 654.798 1.5699 0.138552 0
M  V30 7010 C 656.023 1.88344 0.86841 0
M  V30 7011 C 656.448 0.725159 1.7356 0
M  V30 7012 O 655.806 -0.324992 1.78363 0
M  V30 7013 C 655.854 3.18334 1.69398 0
M  V30 7014 O 654.958 3.02863 2.79907 0
M  V30 7015 H 654.299 0.618577 0.241367 0
M  V30 7016 H 656.829 2.04207 0.126826 0
M  V30 7017 H 656.839 3.50567 2.08726 0
M  V30 7018 H 655.514 4.02238 1.05725 0
M  V30 7019 H 654.091 2.82056 2.43924 0
M  V30 7020 N 656.276 -0.40816 1.52223 0
M  V30 7021 C 657.206 -1.5042 1.78595 0
M  V30 7022 C 658.187 -1.57723 0.636974 0
M  V30 7023 O 659.372 -1.72982 0.882664 0
M  V30 7024 C 656.502 -2.88232 1.93751 0
M  V30 7025 C 655.456 -2.95779 3.09352 0
M  V30 7026 C 654.782 -4.35855 3.09732 0
M  V30 7027 C 656.082 -2.67175 4.48793 0
M  V30 7028 H 657.776 -1.28601 2.70374 0
M  V30 7029 H 655.322 -0.617221 1.30101 0
M  V30 7030 H 657.275 -3.64895 2.10783 0
M  V30 7031 H 655.999 -3.11347 0.986443 0
M  V30 7032 H 654.658 -2.21561 2.92072 0
M  V30 7033 H 654.306 -4.55981 2.12346 0
M  V30 7034 H 654.006 -4.41829 3.87377 0
M  V30 7035 H 655.53 -5.14451 3.28895 0
M  V30 7036 H 656.944 -3.3356 4.66273 0
M  V30 7037 H 655.341 -2.84523 5.28362 0
M  V30 7038 H 656.411 -1.62609 4.56822 0
M  V30 7039 N 657.755 -1.42862 -0.66545 0
M  V30 7040 C 658.718 -1.46756 -1.76055 0
M  V30 7041 C 659.718 -0.353866 -1.56858 0
M  V30 7042 O 660.908 -0.615099 -1.62979 0
M  V30 7043 C 658.04 -1.30829 -3.14796 0
M  V30 7044 H 659.233 -2.44271 -1.73987 0
M  V30 7045 H 656.786 -1.29447 -0.875965 0
M  V30 7046 H 657.521 -0.342733 -3.22484 0
M  V30 7047 H 657.306 -2.11551 -3.30134 0
M  V30 7048 H 658.796 -1.36458 -3.94676 0
M  V30 7049 N 659.233 0.902656 -1.29189 0
M  V30 7050 C 660.166 2.00816 -1.0839 0
M  V30 7051 C 661.144 1.626 0.00335266 0
M  V30 7052 O 662.328 1.87928 -0.146765 0
M  V30 7053 C 659.455 3.32415 -0.649435 0
M  V30 7054 C 658.501 3.89617 -1.73496 0
M  V30 7055 S 659.334 4.19091 -3.33351 0
M  V30 7056 C 660.49 5.53736 -2.91766 0
M  V30 7057 H 660.723 2.18151 -2.01984 0
M  V30 7058 H 658.256 1.0489 -1.13303 0
M  V30 7059 H 660.214 4.08492 -0.405479 0
M  V30 7060 H 658.875 3.12964 0.266857 0
M  V30 7061 H 658.068 4.84658 -1.38284 0
M  V30 7062 H 657.67 3.20217 -1.93229 0
M  V30 7063 H 659.962 6.34085 -2.38627 0
M  V30 7064 H 660.905 5.93871 -3.85647 0
M  V30 7065 H 661.313 5.15453 -2.30149 0
M  V30 7066 N 660.711 1.11618 1.11262 0
M  V30 7067 C 661.674 0.779447 2.15539 0
M  V30 7068 C 662.674 -0.202081 1.59525 0
M  V30 7069 O 663.864 0.0226356 1.74185 0
M  V30 7070 C 660.996 0.15674 3.40539 0
M  V30 7071 H 662.189 1.70324 2.4684 0
M  V30 7072 H 659.742 0.918298 1.26479 0
M  V30 7073 H 660.477 -0.777186 3.1485 0
M  V30 7074 H 660.262 0.863308 3.82478 0
M  V30 7075 H 661.752 -0.062661 4.17553 0
M  V30 7076 N 662.189 -1.289 0.906776 0
M  V30 7077 C 663.136 -2.2751 0.388313 0
M  V30 7078 C 664.106 -1.57301 -0.533439 0
M  V30 7079 O 665.291 -1.85243 -0.457148 0
M  V30 7080 C 662.431 -3.43091 -0.37181 0
M  V30 7081 C 661.544 -4.28066 0.581647 0
M  V30 7082 C 660.679 -5.30837 -0.19623 0
M  V30 7083 C 659.718 -6.07472 0.751294 0
M  V30 7084 N 658.855 -7.021 0.00737727 0
M  V30 7085 H 663.695 -2.71237 1.23428 0
M  V30 7086 H 661.232 -1.33397 0.619962 0
M  V30 7087 H 663.19 -4.08888 -0.828641 0
M  V30 7088 H 661.82 -3.00374 -1.18218 0
M  V30 7089 H 660.872 -3.62378 1.157 0
M  V30 7090 H 662.184 -4.81382 1.30665 0
M  V30 7091 H 661.338 -6.02485 -0.71394 0
M  V30 7092 H 660.077 -4.78272 -0.954324 0
M  V30 7093 H 659.082 -5.34682 1.28044 0
M  V30 7094 H 660.307 -6.62126 1.50883 0
M  V30 7095 H 658.253 -6.51894 -0.732854 0
M  V30 7096 H 658.17 -7.53004 0.672334 0
M  V30 7097 H 659.438 -7.77956 -0.490365 0
M  V30 7098 N 663.667 -0.670007 -1.42649 0
M  V30 7099 C 664.599 0.0501746 -2.29145 0
M  V30 7100 C 665.612 0.770331 -1.43422 0
M  V30 7101 O 666.801 0.625288 -1.6719 0
M  V30 7102 C 663.901 1.09463 -3.20735 0
M  V30 7103 C 663.074 0.44926 -4.35087 0
M  V30 7104 C 662.133 1.39285 -5.07431 0
M  V30 7105 O 661.159 0.894997 -5.6212 0
M  V30 7106 N 662.361 2.72631 -5.12496 0
M  V30 7107 H 665.126 -0.692312 -2.91594 0
M  V30 7108 H 662.687 -0.514056 -1.53522 0
M  V30 7109 H 664.679 1.72705 -3.65999 0
M  V30 7110 H 663.249 1.73891 -2.59771 0
M  V30 7111 H 662.469 -0.362573 -3.92529 0
M  V30 7112 H 663.757 -0.000544776 -5.088 0
M  V30 7113 H 663.155 3.15623 -4.69467 0
M  V30 7114 H 661.712 3.31132 -5.61422 0
M  V30 7115 N 665.145 1.52092 -0.413018 0
M  V30 7116 C 666.092 2.27119 0.410558 0
M  V30 7117 C 667.062 1.29692 1.03774 0
M  V30 7118 O 668.247 1.58561 1.06128 0
M  V30 7119 C 665.387 3.09863 1.51918 0
M  V30 7120 C 664.5 4.22252 0.912528 0
M  V30 7121 C 663.635 4.92348 1.99417 0
M  V30 7122 C 662.674 5.96694 1.36466 0
M  V30 7123 N 661.811 6.60292 2.38661 0
M  V30 7124 H 666.651 2.97067 -0.235661 0
M  V30 7125 H 664.188 1.46542 -0.128055 0
M  V30 7126 H 666.146 3.56144 2.17295 0
M  V30 7127 H 664.776 2.42078 2.13537 0
M  V30 7128 H 663.828 3.80113 0.147697 0
M  V30 7129 H 665.14 4.9709 0.412717 0
M  V30 7130 H 664.294 5.42054 2.72512 0
M  V30 7131 H 663.033 4.17087 2.52764 0
M  V30 7132 H 662.038 5.46304 0.61906 0
M  V30 7133 H 663.263 6.73899 0.838827 0
M  V30 7134 H 661.209 5.87858 2.91134 0
M  V30 7135 H 661.126 7.30816 1.93503 0
M  V30 7136 H 662.394 7.14635 3.11314 0
M  V30 7137 N 666.623 0.143563 1.56945 0
M  V30 7138 C 667.553 -0.7936 2.196 0
M  V30 7139 C 668.534 -1.25955 1.14321 0
M  V30 7140 O 669.719 -1.31773 1.42651 0
M  V30 7141 C 666.849 -2.03424 2.81489 0
M  V30 7142 C 665.803 -1.70519 3.92565 0
M  V30 7143 C 665.129 -3.01817 4.41373 0
M  V30 7144 C 666.429 -0.95449 5.13504 0
M  V30 7145 H 668.123 -0.271423 2.98167 0
M  V30 7146 H 665.669 -0.12911 1.4342 0
M  V30 7147 H 667.622 -2.69463 3.23987 0
M  V30 7148 H 666.346 -2.58008 2.00248 0
M  V30 7149 H 665.005 -1.06859 3.5068 0
M  V30 7150 H 664.653 -3.54386 3.56959 0
M  V30 7151 H 664.353 -2.80565 5.16292 0
M  V30 7152 H 665.877 -3.68934 4.86539 0
M  V30 7153 H 667.291 -1.5169 5.52868 0
M  V30 7154 H 665.688 -0.842035 5.94163 0
M  V30 7155 H 666.758 0.0544033 4.84869 0
M  V30 7156 N 668.101 -1.57061 -0.130224 0
M  V30 7157 C 669.512 -1.73539 -0.68856 0
M  V30 7158 C 669.863 -0.760554 -1.80859 0
M  V30 7159 O 668.988 0.0690796 -2.1629 0
M  V30 7160 C 669.583 -3.14666 -1.25581 0
M  V30 7161 C 668.142 -3.32689 -1.76055 0
M  V30 7162 C 667.289 -2.69436 -0.655712 0
M  V30 7163 H 670.24 -1.58412 0.0956002 0
M  V30 7164 H 670.261 -3.15595 -2.12556 0
M  V30 7165 H 669.773 -3.85593 -0.440412 0
M  V30 7166 H 667.874 -2.66786 -2.60108 0
M  V30 7167 H 667.987 -4.4077 -1.87772 0
M  V30 7168 H 666.351 -2.30362 -1.08654 0
M  V30 7169 H 667.134 -3.42979 0.14852 0
M  V30 7170 N 669.579 0.400081 -1.52437 0
M  V30 7171 C 670.526 1.48803 -1.76426 0
M  V30 7172 C 671.496 1.5461 -0.607032 0
M  V30 7173 O 672.681 1.71041 -0.845563 0
M  V30 7174 C 669.821 2.86156 -1.92896 0
M  V30 7175 C 668.934 2.89587 -3.20567 0
M  V30 7176 C 668.069 4.18296 -3.27417 0
M  V30 7177 C 667.108 4.15736 -4.49255 0
M  V30 7178 N 666.245 5.36032 -4.53447 0
M  V30 7179 H 671.085 1.27649 -2.69276 0
M  V30 7180 H 668.622 0.619451 -1.33421 0
M  V30 7181 H 670.58 3.65901 -2.00429 0
M  V30 7182 H 669.21 3.05785 -1.03418 0
M  V30 7183 H 668.262 2.02278 -3.22161 0
M  V30 7184 H 669.574 2.83562 -4.10358 0
M  V30 7185 H 668.728 5.06439 -3.34072 0
M  V30 7186 H 667.467 4.27028 -2.35581 0
M  V30 7187 H 666.472 3.25982 -4.42737 0
M  V30 7188 H 667.697 4.08636 -5.42396 0
M  V30 7189 H 665.643 5.45415 -3.64498 0
M  V30 7190 H 665.56 5.32038 -5.37096 0
M  V30 7191 H 666.828 6.26104 -4.64343 0
M  V30 7192 N 671.057 1.43213 0.657864 0
M  V30 7193 C 672.004 1.48011 1.77092 0
M  V30 7194 C 672.974 0.330291 1.62783 0
M  V30 7195 O 674.159 0.536787 1.83094 0
M  V30 7196 C 671.299 1.40461 3.15222 0
M  V30 7197 C 670.412 2.65612 3.40697 0
M  V30 7198 C 669.547 2.50083 4.68649 0
M  V30 7199 C 668.586 3.70525 4.87214 0
M  V30 7200 N 667.723 3.53835 6.0642 0
M  V30 7201 H 672.563 2.43121 1.72326 0
M  V30 7202 H 670.1 1.20687 0.841013 0
M  V30 7203 H 672.058 1.34079 3.95068 0
M  V30 7204 H 670.688 0.489359 3.19069 0
M  V30 7205 H 669.74 2.82292 2.54982 0
M  V30 7206 H 671.052 3.5509 3.50303 0
M  V30 7207 H 670.206 2.41383 5.56614 0
M  V30 7208 H 668.945 1.58121 4.61356 0
M  V30 7209 H 667.95 3.79639 3.97686 0
M  V30 7210 H 669.175 4.63489 4.96341 0
M  V30 7211 H 667.121 2.64604 6.00267 0
M  V30 7212 H 667.038 4.36912 6.16963 0
M  V30 7213 H 668.306 3.48978 6.97019 0
M  V30 7214 N 672.536 -0.895792 1.29666 0
M  V30 7215 C 673.483 -2.00035 1.15129 0
M  V30 7216 C 674.453 -1.66043 0.0435819 0
M  V30 7217 O 675.638 -1.89621 0.211811 0
M  V30 7218 C 672.778 -3.34774 0.83787 0
M  V30 7219 C 671.891 -3.81525 2.0264 0
M  V30 7220 C 671.026 -5.04858 1.65201 0
M  V30 7221 C 670.065 -5.43988 2.80612 0
M  V30 7222 N 669.202 -6.58507 2.43544 0
M  V30 7223 H 674.042 -2.11802 2.09628 0
M  V30 7224 H 671.579 -1.03719 1.04311 0
M  V30 7225 H 673.537 -4.12311 0.636824 0
M  V30 7226 H 672.167 -3.22724 -0.0702314 0
M  V30 7227 H 671.219 -2.9999 2.33903 0
M  V30 7228 H 672.531 -4.06472 2.89106 0
M  V30 7229 H 671.685 -5.8999 1.41408 0
M  V30 7230 H 670.424 -4.81759 0.758893 0
M  V30 7231 H 669.429 -4.57388 3.05083 0
M  V30 7232 H 670.654 -5.69066 3.70595 0
M  V30 7233 H 668.6 -6.37004 1.56724 0
M  V30 7234 H 668.517 -6.83269 3.23542 0
M  V30 7235 H 669.785 -7.46897 2.2308 0
M  V30 7236 N 674.014 -1.12206 -1.10668 0
M  V30 7237 C 674.961 -0.787716 -2.16942 0
M  V30 7238 C 675.931 0.244442 -1.64291 0
M  V30 7239 O 677.116 0.119558 -1.90425 0
M  V30 7240 C 674.256 -0.24584 -3.44223 0
M  V30 7241 C 673.369 -1.33552 -4.10838 0
M  V30 7242 C 672.504 -0.753337 -5.25831 0
M  V30 7243 C 671.543 -1.82231 -5.84344 0
M  V30 7244 N 670.68 -1.25902 -6.90719 0
M  V30 7245 H 675.52 -1.69809 -2.44885 0
M  V30 7246 H 673.057 -0.847862 -1.20207 0
M  V30 7247 H 675.015 0.0863639 -4.17111 0
M  V30 7248 H 673.645 0.627702 -3.16638 0
M  V30 7249 H 672.697 -1.78454 -3.35944 0
M  V30 7250 H 674.009 -2.14396 -4.50373 0
M  V30 7251 H 673.163 -0.37166 -6.05561 0
M  V30 7252 H 671.902 0.0863297 -4.87624 0
M  V30 7253 H 670.907 -2.2132 -5.03287 0
M  V30 7254 H 672.132 -2.66515 -6.24617 0
M  V30 7255 H 670.078 -0.44114 -6.54515 0
M  V30 7256 H 669.995 -2.00408 -7.28953 0
M  V30 7257 H 671.263 -0.904498 -7.74235 0
M  V30 7258 N 675.492 1.28418 -0.913599 0
M  V30 7259 C 676.439 2.27301 -0.400373 0
M  V30 7260 C 677.409 1.57582 0.52509 0
M  V30 7261 O 678.594 1.85482 0.447318 0
M  V30 7262 C 675.734 3.43284 0.35361 0
M  V30 7263 C 674.847 4.27752 -0.604341 0
M  V30 7264 C 673.982 5.30934 0.168075 0
M  V30 7265 C 673.021 6.07065 -0.783499 0
M  V30 7266 N 672.158 7.02086 -0.0446112 0
M  V30 7267 H 676.998 2.70579 -1.24865 0
M  V30 7268 H 674.535 1.33067 -0.627028 0
M  V30 7269 H 676.493 4.09322 0.806945 0
M  V30 7270 H 675.123 3.00997 1.16623 0
M  V30 7271 H 674.175 3.61759 -1.17621 0
M  V30 7272 H 675.487 4.80682 -1.33216 0
M  V30 7273 H 674.641 6.02855 0.681979 0
M  V30 7274 H 673.38 4.78771 0.928947 0
M  V30 7275 H 672.385 5.33995 -1.30878 0
M  V30 7276 H 673.61 6.61317 -1.54392 0
M  V30 7277 H 671.556 6.52273 0.698272 0
M  V30 7278 H 671.473 7.52637 -0.712258 0
M  V30 7279 H 672.741 7.78205 0.449102 0
M  V30 7280 N 676.97 0.677563 1.42291 0
M  V30 7281 C 677.92 -0.0218641 2.2799 0
M  V30 7282 C 678.904 -0.770816 1.41235 0
M  V30 7283 O 680.096 -0.649273 1.64662 0
M  V30 7284 C 677.225 -0.970449 3.29298 0
M  V30 7285 C 676.311 -0.218695 4.23536 0
M  V30 7286 N 676.702 0.777908 4.99782 0
M  V30 7287 C 675 -0.456748 4.43655 0
M  V30 7288 C 675.701 1.22632 5.68627 0
M  V30 7289 N 674.677 0.55573 5.40752 0
M  V30 7290 H 678.479 0.742516 2.84366 0
M  V30 7291 H 675.993 0.506862 1.54288 0
M  V30 7292 H 677.99 -1.48652 3.89497 0
M  V30 7293 H 676.65 -1.73463 2.74483 0
M  V30 7294 H 677.661 1.15754 5.04798 0
M  V30 7295 H 674.338 -1.20021 3.99877 0
M  V30 7296 H 675.728 2.05231 6.39789 0
M  V30 7297 N 678.448 -1.51871 0.421078 0
M  V30 7298 C 679.697 -2.01125 -0.152206 0
M  V30 7299 C 680.01 -1.3106 -1.45199 0
M  V30 7300 O 681.216 -1.71195 -2.10724 0
M  V30 7301 C 679.672 -3.58458 -0.3218 0
M  V30 7302 C 679.28 -4.37448 0.96659 0
M  V30 7303 C 681.024 -4.15908 -0.84973 0
M  V30 7304 C 678.931 -5.86451 0.763529 0
M  V30 7305 H 677.861 -0.751556 -0.0606565 0
M  V30 7306 H 680.512 -1.75115 0.548354 0
M  V30 7307 H 678.894 -3.80847 -1.08498 0
M  V30 7308 H 680.068 -4.26814 1.73684 0
M  V30 7309 H 678.383 -3.91373 1.42183 0
M  V30 7310 H 680.98 -5.24922 -1.01788 0
M  V30 7311 H 681.323 -3.74031 -1.82774 0
M  V30 7312 H 681.856 -3.97535 -0.145297 0
M  V30 7313 H 678.595 -6.3271 1.71344 0
M  V30 7314 H 678.115 -5.99791 0.0327889 0
M  V30 7315 H 679.794 -6.45697 0.410354 0
M  V30 7316 N 679.926 -0.151884 -1.56866 0
M  V30 7317 C 681.337 0.368128 -1.83035 0
M  V30 7318 C 681.688 1.64402 -1.07082 0
M  V30 7319 O 680.813 2.14056 -0.317647 0
M  V30 7320 C 681.408 0.674676 -3.32014 0
M  V30 7321 C 679.967 1.13919 -3.58747 0
M  V30 7322 C 679.114 0.164833 -2.7681 0
M  V30 7323 H 682.065 -0.376499 -1.54169 0
M  V30 7324 H 682.086 1.52883 -3.48435 0
M  V30 7325 H 681.598 -0.254113 -3.87267 0
M  V30 7326 H 679.699 2.08375 -3.08886 0
M  V30 7327 H 679.812 1.06179 -4.67186 0
M  V30 7328 H 678.176 0.658419 -2.46043 0
M  V30 7329 H 678.959 -0.757633 -3.34836 0
M  V30 7330 N 681.404 1.57128 0.121893 0
M  V30 7331 C 682.82 1.52357 0.47534 0
M  V30 7332 C 683.02 0.864417 1.82017 0
M  V30 7333 O 682.076 0.445529 2.48538 0
M  V30 7334 C 683.389 2.97122 0.4625 0
M  V30 7335 C 684.937 3.08196 0.546255 0
M  V30 7336 C 685.412 4.54516 0.563833 0
M  V30 7337 N 686.903 4.58959 0.625353 0
M  V30 7338 C 687.638 5.69585 0.660354 0
M  V30 7339 N 687.134 6.89714 0.653175 0
M  V30 7340 N 688.927 5.57685 0.703143 0
M  V30 7341 H 681.078 1.98364 -0.75931 0
M  V30 7342 H 683.341 0.905777 -0.279772 0
M  V30 7343 H 683.047 3.48706 -0.457943 0
M  V30 7344 H 682.921 3.54406 1.29136 0
M  V30 7345 H 685.308 2.56617 1.45712 0
M  V30 7346 H 685.389 2.53912 -0.310234 0
M  V30 7347 H 685.033 5.06741 -0.342974 0
M  V30 7348 H 684.963 5.06609 1.43716 0
M  V30 7349 H 687.454 3.72489 0.637182 0
M  V30 7350 H 687.767 7.69781 0.682425 0
M  V30 7351 H 686.112 6.92223 0.620646 0
M  V30 7352 H 689.303 4.62744 0.706095 0
M  V30 7353 H 689.476 6.43909 0.726952 0
M  V30 7354 N 682.882 -0.391992 1.52647 0
M  V30 7355 C 684.293 -0.970064 1.5952 0
M  V30 7356 C 684.644 -1.91059 0.446207 0
M  V30 7357 O 683.769 -2.12062 -0.431125 0
M  V30 7358 C 684.364 -1.76614 2.89125 0
M  V30 7359 C 682.923 -2.29396 2.9842 0
M  V30 7360 C 682.07 -1.09864 2.54608 0
M  V30 7361 H 685.021 -0.171638 1.57769 0
M  V30 7362 H 685.042 -2.62511 2.75442 0
M  V30 7363 H 684.554 -1.08135 3.72731 0
M  V30 7364 H 682.655 -3.01196 2.19344 0
M  V30 7365 H 682.768 -2.59088 4.03002 0
M  V30 7366 H 681.132 -1.45777 2.08857 0
M  V30 7367 H 681.915 -0.429249 3.40606 0
M  V30 7368 N 684.36 -1.4356 -0.65026 0
M  V30 7369 C 685.771 -1.40324 -1.2315 0
M  V30 7370 C 686.122 -0.108812 -1.95898 0
M  V30 7371 O 685.247 0.79163 -2.01401 0
M  V30 7372 C 685.842 -2.54195 -2.23987 0
M  V30 7373 C 684.401 -2.54215 -2.77582 0
M  V30 7374 C 683.548 -2.31752 -1.5227 0
M  V30 7375 H 686.499 -1.52418 -0.442095 0
M  V30 7376 H 686.52 -2.25854 -3.0622 0
M  V30 7377 H 686.032 -3.48392 -1.71011 0
M  V30 7378 H 684.133 -1.63907 -3.34612 0
M  V30 7379 H 684.246 -3.52081 -3.24925 0
M  V30 7380 H 682.61 -1.80476 -1.79723 0
M  V30 7381 H 683.393 -3.28037 -1.01225 0
M  V30 7382 N 685.838 0.888903 -1.30139 0
M  V30 7383 C 686.77 1.99972 -1.11999 0
M  V30 7384 C 687.783 1.62673 -0.0643619 0
M  V30 7385 O 688.972 1.75788 -0.309983 0
M  V30 7386 C 686.072 3.31904 -0.685059 0
M  V30 7387 C 685.245 3.97665 -1.82158 0
M  V30 7388 C 684.304 5.07894 -1.37585 0
M  V30 7389 O 683.33 5.2974 -2.08241 0
M  V30 7390 N 684.532 5.7995 -0.252697 0
M  V30 7391 H 687.297 2.16085 -2.07671 0
M  V30 7392 H 684.858 1.06175 -1.22223 0
M  V30 7393 H 686.85 4.03005 -0.369964 0
M  V30 7394 H 685.42 3.12084 0.179507 0
M  V30 7395 H 684.64 3.19787 -2.305 0
M  V30 7396 H 685.928 4.3834 -2.58332 0
M  V30 7397 H 685.326 5.647 0.336141 0
M  V30 7398 H 683.883 6.518 0.00296813 0
M  V30 7399 N 687.317 1.12792 1.10072 0
M  V30 7400 C 688.247 0.821688 2.18565 0
M  V30 7401 C 689.228 -0.21612 1.68721 0
M  V30 7402 O 690.413 -0.0764932 1.94049 0
M  V30 7403 C 687.543 0.279624 3.46172 0
M  V30 7404 C 686.497 1.25092 4.09312 0
M  V30 7405 C 685.823 0.568916 5.31665 0
M  V30 7406 C 687.123 2.60699 4.52585 0
M  V30 7407 H 688.817 1.72888 2.44438 0
M  V30 7408 H 686.363 0.832702 1.17482 0
M  V30 7409 H 688.316 0.053099 4.21367 0
M  V30 7410 H 687.04 -0.662929 3.19801 0
M  V30 7411 H 685.699 1.46332 3.36129 0
M  V30 7412 H 685.347 -0.378898 5.01571 0
M  V30 7413 H 685.047 1.21687 5.74862 0
M  V30 7414 H 686.571 0.351517 6.09587 0
M  V30 7415 H 687.985 2.43465 5.19035 0
M  V30 7416 H 686.382 3.21608 5.06644 0
M  V30 7417 H 687.452 3.1886 3.65317 0
M  V30 7418 N 688.795 -1.27931 0.920396 0
M  V30 7419 C 690.043 -1.94304 0.555906 0
M  V30 7420 C 690.364 -1.72753 -0.904519 0
M  V30 7421 O 689.634 -1.07104 -1.64029 0
M  V30 7422 H 688.214 -0.719001 0.202599 0
M  V30 7423 H 690.876 -1.55785 1.1712 0
M  V30 7424 H 689.972 -3.02806 0.755981 0
M  V30 7425 N 690.273 -0.685099 -1.4193 0
M  V30 7426 C 691.498 -0.218842 -2.06242 0
M  V30 7427 C 691.923 1.11923 -1.51178 0
M  V30 7428 O 691.281 1.69837 -0.634446 0
M  V30 7429 C 691.329 -0.175592 -3.60172 0
M  V30 7430 O 690.433 0.852776 -4.03487 0
M  V30 7431 H 689.774 -0.109531 -0.654904 0
M  V30 7432 H 692.304 -0.937013 -1.81882 0
M  V30 7433 H 692.314 -0.00291151 -4.08 0
M  V30 7434 H 690.989 -1.15222 -3.99621 0
M  V30 7435 H 689.566 0.650301 -3.67186 0
M  V30 7436 N 691.751 1.51645 -0.429126 0
M  V30 7437 C 693.162 1.86665 0.0359003 0
M  V30 7438 C 693.513 1.34677 1.42676 0
M  V30 7439 O 692.638 0.694195 2.04963 0
M  V30 7440 C 693.233 3.38724 0.0719221 0
M  V30 7441 C 691.792 3.7331 0.481336 0
M  V30 7442 C 690.939 2.75313 -0.331329 0
M  V30 7443 H 693.89 1.44987 -0.645333 0
M  V30 7444 H 693.911 3.7011 0.883118 0
M  V30 7445 H 693.423 3.76532 -0.940495 0
M  V30 7446 H 691.524 3.41088 1.49966 0
M  V30 7447 H 691.637 4.78631 0.211837 0
M  V30 7448 H 690.001 2.53839 0.209204 0
M  V30 7449 H 690.784 3.15963 -1.34247 0
M  V30 7450 N 693.229 0.160201 1.56784 0
M  V30 7451 C 694.177 -0.791402 2.18723 0
M  V30 7452 C 695.171 -1.24567 1.14801 0
M  V30 7453 O 696.377 -1.21262 1.33025 0
M  V30 7454 H 692.752 -0.273458 0.700517 0
M  V30 7455 H 694.723 -0.244931 2.97393 0
M  V30 7456 C 693.472 -2.01509 2.83354 0
M  V30 7457 H 692.795 -1.67454 3.63041 0
M  V30 7458 H 694.235 -2.66006 3.30177 0
M  V30 7459 C 692.694 -2.83159 1.82545 0
M  V30 7460 O 693.224 -3.79944 1.30405 0
M  V30 7461 N 691.43 -2.47953 1.51552 0
M  V30 7462 H 690.977 -1.69309 1.94144 0
M  V30 7463 H 690.935 -3.02873 0.843519 0
M  V30 7464 N 694.707 -1.5719 -0.113559 0
M  V30 7465 C 695.937 -1.89053 -0.833212 0
M  V30 7466 C 696.345 -0.750139 -1.73694 0
M  V30 7467 O 695.688 0.287808 -1.81431 0
M  V30 7468 C 695.75 -3.15986 -1.71443 0
M  V30 7469 C 695.414 -4.46271 -0.984449 0
M  V30 7470 C 696.411 -5.18897 -0.322741 0
M  V30 7471 C 694.096 -4.92963 -0.964011 0
M  V30 7472 C 696.09 -6.3644 0.349646 0
M  V30 7473 C 693.777 -6.10422 -0.287828 0
M  V30 7474 C 694.775 -6.82009 0.36784 0
M  V30 7475 O 694.463 -7.97233 1.03322 0
M  V30 7476 H 694.195 -0.630225 -0.244526 0
M  V30 7477 H 696.749 -2.05152 -0.100847 0
M  V30 7478 H 694.979 -2.95984 -2.48858 0
M  V30 7479 H 696.668 -3.33826 -2.309 0
M  V30 7480 H 697.434 -4.83875 -0.330114 0
M  V30 7481 H 693.313 -4.37143 -1.46379 0
M  V30 7482 H 696.857 -6.92254 0.861996 0
M  V30 7483 H 692.754 -6.449 -0.278237 0
M  V30 7484 H 693.522 -8.13105 0.938247 0
M  V30 7485 N 696.185 0.383891 -1.52853 0
M  V30 7486 C 697.425 1.13731 -1.69837 0
M  V30 7487 C 697.789 1.87086 -0.431611 0
M  V30 7488 O 698.99 2.64518 -0.477886 0
M  V30 7489 C 697.261 2.08551 -2.90243 0
M  V30 7490 S 698.82 2.9166 -3.27841 0
M  V30 7491 H 695.638 0.384911 -0.5978 0
M  V30 7492 H 698.24 0.42103 -1.90913 0
M  V30 7493 H 696.944 1.53392 -3.80656 0
M  V30 7494 H 696.475 2.8468 -2.71516 0
M  V30 7495 H 698.49 4.10723 -2.78426 0
M  V30 7496 N 697.663 1.43903 0.642637 0
M  V30 7497 C 698.61 1.49881 1.75512 0
M  V30 7498 C 699.58 0.347538 1.62423 0
M  V30 7499 O 700.765 0.556177 1.82514 0
M  V30 7500 C 697.905 1.43797 3.13714 0
M  V30 7501 C 697.018 2.6921 3.37861 0
M  V30 7502 C 696.153 2.5504 4.6597 0
M  V30 7503 C 695.192 3.75671 4.83257 0
M  V30 7504 N 694.329 3.60247 6.02633 0
M  V30 7505 H 699.169 2.44935 1.69737 0
M  V30 7506 H 696.706 1.21572 0.828165 0
M  V30 7507 H 698.664 1.38262 3.93624 0
M  V30 7508 H 697.294 0.523173 3.18532 0
M  V30 7509 H 696.346 2.8498 2.51973 0
M  V30 7510 H 697.658 3.58786 3.46517 0
M  V30 7511 H 696.812 2.47273 5.54023 0
M  V30 7512 H 695.551 1.63006 4.59653 0
M  V30 7513 H 694.556 3.83836 3.93637 0
M  V30 7514 H 695.781 4.68728 4.91397 0
M  V30 7515 H 693.727 2.70955 5.97427 0
M  V30 7516 H 693.644 4.43431 6.12295 0
M  V30 7517 H 694.912 3.56351 6.93278 0
M  V30 7518 N 699.141 -0.881989 1.30609 0
M  V30 7519 C 700.366 -1.67236 1.22665 0
M  V30 7520 C 700.791 -1.8696 -0.206777 0
M  V30 7521 O 700.149 -1.4027 -1.14865 0
M  V30 7522 C 700.197 -3.02446 1.96363 0
M  V30 7523 O 699.301 -3.91614 1.29276 0
M  V30 7524 H 698.642 -0.510902 0.424117 0
M  V30 7525 H 701.172 -1.10055 1.72479 0
M  V30 7526 H 701.182 -3.52468 2.055 0
M  V30 7527 H 699.857 -2.8741 3.00613 0
M  V30 7528 H 698.434 -3.50055 1.28514 0
M  V30 7529 N 700.619 -1.13374 -1.09472 0
M  V30 7530 C 701.865 -0.896516 -1.81908 0
M  V30 7531 C 702.198 0.575933 -1.85463 0
M  V30 7532 O 701.473 1.42618 -1.32251 0
M  V30 7533 C 701.756 -1.48445 -3.28079 0
M  V30 7534 C 701.609 -3.02598 -3.32798 0
M  V30 7535 C 702.928 -1.15226 -4.24748 0
M  V30 7536 H 700.047 -0.327127 -0.660422 0
M  V30 7537 H 702.689 -1.40195 -1.2824 0
M  V30 7538 H 700.839 -1.0546 -3.73912 0
M  V30 7539 H 702.511 -3.54335 -2.95372 0
M  V30 7540 H 700.754 -3.37613 -2.72397 0
M  V30 7541 H 701.425 -3.38835 -4.3577 0
M  V30 7542 H 703.901 -1.52369 -3.87199 0
M  V30 7543 H 702.777 -1.59012 -5.25363 0
M  V30 7544 H 703.038 -0.0658891 -4.42051 0
M  V30 7545 N 702.098 1.27442 -0.927168 0
M  V30 7546 C 703.344 1.94679 -0.568164 0
M  V30 7547 C 703.677 1.72697 0.888219 0
M  V30 7548 O 702.952 1.05573 1.63354 0
M  V30 7549 C 703.235 3.4882 -0.894253 0
M  V30 7550 C 703.088 3.80146 -2.40435 0
M  V30 7551 C 704.407 4.38281 -0.399766 0
M  V30 7552 H 701.526 0.707071 -0.207892 0
M  V30 7553 H 704.168 1.50568 -1.15885 0
M  V30 7554 H 702.318 3.86522 -0.391566 0
M  V30 7555 H 703.99 3.52238 -2.97869 0
M  V30 7556 H 702.233 3.26716 -2.85375 0
M  V30 7557 H 702.904 4.87835 -2.58304 0
M  V30 7558 H 705.38 4.07726 -0.83058 0
M  V30 7559 H 704.256 5.44955 -0.656885 0
M  V30 7560 H 704.517 4.36521 0.700153 0
M  V30 7561 N 703.576 0.692616 1.41565 0
M  V30 7562 C 704.524 0.0139952 2.32596 0
M  V30 7563 C 705.518 -0.771691 1.50802 0
M  V30 7564 O 706.724 -0.677646 1.66757 0
M  V30 7565 H 703.099 -0.0142745 0.751865 0
M  V30 7566 H 705.07 0.798851 2.87508 0
M  V30 7567 C 703.819 -0.910602 3.35564 0
M  V30 7568 H 703.142 -0.315446 3.98554 0
M  V30 7569 H 704.582 -1.3538 4.01806 0
M  V30 7570 C 703.041 -2.02539 2.6922 0
M  V30 7571 O 703.571 -3.11386 2.53775 0
M  V30 7572 N 701.777 -1.80227 2.27962 0
M  V30 7573 H 701.324 -0.917054 2.40724 0
M  V30 7574 H 701.282 -2.55001 1.83907 0
M  V30 7575 N 705.054 -1.51416 0.437162 0
M  V30 7576 C 706.279 -2.0699 -0.130424 0
M  V30 7577 C 706.704 -1.30249 -1.35709 0
M  V30 7578 O 706.062 -0.340388 -1.78076 0
M  V30 7579 C 706.11 -3.5801 -0.43142 0
M  V30 7580 O 705.214 -3.8345 -1.5179 0
M  V30 7581 H 704.555 -0.663997 -0.00194339 0
M  V30 7582 H 707.085 -1.95029 0.618445 0
M  V30 7583 H 707.095 -4.02261 -0.681926 0
M  V30 7584 H 705.77 -4.13291 0.465137 0
M  V30 7585 H 704.347 -3.51062 -1.25737 0
M  V30 7586 N 706.532 -0.168513 -1.56696 0
M  V30 7587 C 707.943 0.348694 -1.83415 0
M  V30 7588 C 708.294 1.63257 -1.0882 0
M  V30 7589 O 707.419 2.13707 -0.340333 0
M  V30 7590 C 708.014 0.639423 -3.32711 0
M  V30 7591 C 706.573 1.10108 -3.59935 0
M  V30 7592 C 705.72 0.135464 -2.76969 0
M  V30 7593 H 708.671 -0.392829 -1.53761 0
M  V30 7594 H 708.692 1.49179 -3.50037 0
M  V30 7595 H 708.204 -0.295173 -3.86976 0
M  V30 7596 H 706.305 2.05088 -3.11079 0
M  V30 7597 H 706.418 1.01218 -4.68286 0
M  V30 7598 H 704.782 0.632286 -2.46727 0
M  V30 7599 H 705.565 -0.793104 -3.34013 0
M  V30 7600 N 708.01 1.57248 0.105221 0
M  V30 7601 C 708.96 1.9777 1.1345 0
M  V30 7602 C 709.944 0.854654 1.36325 0
M  V30 7603 O 711.136 1.11844 1.37186 0
M  V30 7604 C 708.265 2.39717 2.45745 0
M  V30 7605 C 707.351 3.58686 2.26286 0
M  V30 7606 N 707.742 4.73942 1.76671 0
M  V30 7607 C 706.04 3.64586 2.56891 0
M  V30 7608 C 706.741 5.55923 1.71245 0
M  V30 7609 N 705.717 4.98803 2.16093 0
M  V30 7610 H 709.519 2.84336 0.743664 0
M  V30 7611 H 707.033 1.59359 0.312787 0
M  V30 7612 H 709.03 2.66971 3.20206 0
M  V30 7613 H 707.69 1.54523 2.85574 0
M  V30 7614 H 708.701 4.9689 1.46016 0
M  V30 7615 H 705.378 2.90031 3.00314 0
M  V30 7616 H 706.768 6.58398 1.34022 0
M  V30 7617 N 709.488 -0.375779 1.53054 0
M  V30 7618 C 710.438 -1.45965 1.75152 0
M  V30 7619 C 711.422 -1.49059 0.605823 0
M  V30 7620 O 712.614 -1.54472 0.864133 0
M  V30 7621 C 709.743 -2.83524 1.93569 0
M  V30 7622 C 708.829 -2.84949 3.1411 0
M  V30 7623 N 709.22 -2.56029 4.36214 0
M  V30 7624 C 707.518 -3.16113 3.14625 0
M  V30 7625 C 708.219 -2.64873 5.17897 0
M  V30 7626 N 707.195 -2.99159 4.53878 0
M  V30 7627 H 710.997 -1.22454 2.67175 0
M  V30 7628 H 708.511 -0.583867 1.51541 0
M  V30 7629 H 710.508 -3.61578 2.07525 0
M  V30 7630 H 709.168 -3.08008 1.02768 0
M  V30 7631 H 710.179 -2.29808 4.64121 0
M  V30 7632 H 706.856 -3.45977 2.3368 0
M  V30 7633 H 708.246 -2.45947 6.25268 0
M  V30 7634 N 710.966 -1.44241 -0.634997 0
M  V30 7635 C 712.191 -1.50516 -1.42687 0
M  V30 7636 C 712.616 -0.129864 -1.87651 0
M  V30 7637 O 711.974 0.880164 -1.58502 0
M  V30 7638 C 712.022 -2.4714 -2.62591 0
M  V30 7639 O 711.126 -1.97025 -3.62291 0
M  V30 7640 H 710.467 -0.50841 -0.427101 0
M  V30 7641 H 712.997 -1.89337 -0.775408 0
M  V30 7642 H 713.007 -2.65048 -3.10183 0
M  V30 7643 H 711.682 -3.47039 -2.29209 0
M  V30 7644 H 710.259 -1.88866 -3.21534 0
M  V30 7645 N 712.444 0.87505 -1.31075 0
M  V30 7646 C 713.672 1.66058 -1.23419 0
M  V30 7647 C 714.087 1.87723 0.201347 0
M  V30 7648 O 713.444 1.43178 1.13165 0
M  V30 7649 C 713.495 3.03142 -1.96945 0
M  V30 7650 O 713.216 2.82448 -3.34895 0
M  V30 7651 C 714.717 3.97583 -1.96067 0
M  V30 7652 H 711.937 0.517868 -0.426677 0
M  V30 7653 H 714.481 1.09258 -1.72867 0
M  V30 7654 H 712.636 3.56645 -1.51271 0
M  V30 7655 H 713.05 3.69483 -3.72267 0
M  V30 7656 H 714.524 4.91104 -2.52034 0
M  V30 7657 H 715.001 4.2898 -0.941961 0
M  V30 7658 H 715.607 3.50015 -2.41597 0
M  V30 7659 N 713.922 1.13953 1.08869 0
M  V30 7660 C 714.854 0.779906 2.15523 0
M  V30 7661 C 715.867 -0.20102 1.61554 0
M  V30 7662 O 717.056 0.0200049 1.78489 0
M  V30 7663 C 714.156 0.136226 3.38626 0
M  V30 7664 C 713.329 1.15069 4.21993 0
M  V30 7665 C 712.388 0.531645 5.23507 0
M  V30 7666 O 711.414 1.19327 5.56552 0
M  V30 7667 N 712.616 -0.693734 5.7634 0
M  V30 7668 H 715.381 1.69769 2.46979 0
M  V30 7669 H 712.942 1.03331 1.24637 0
M  V30 7670 H 714.934 -0.290295 4.03658 0
M  V30 7671 H 713.504 -0.684603 3.05011 0
M  V30 7672 H 712.724 1.75431 3.53012 0
M  V30 7673 H 714.012 1.83614 4.74514 0
M  V30 7674 H 713.41 -1.24994 5.51718 0
M  V30 7675 H 711.967 -1.06283 6.43076 0
M  V30 7676 N 715.4 -1.26948 0.933913 0
M  V30 7677 C 716.625 -1.98724 0.593589 0
M  V30 7678 C 717.05 -1.6915 -0.822801 0
M  V30 7679 O 716.408 -0.93533 -1.5531 0
M  V30 7680 C 716.456 -3.50834 0.833542 0
M  V30 7681 O 715.56 -4.12284 -0.0978788 0
M  V30 7682 H 714.901 -0.623683 0.227849 0
M  V30 7683 H 717.431 -1.61599 1.25486 0
M  V30 7684 H 717.441 -4.01018 0.75156 0
M  V30 7685 H 716.116 -3.71691 1.86597 0
M  V30 7686 H 714.693 -3.72884 0.0345443 0
M  V30 7687 N 716.879 -0.700114 -1.41195 0
M  V30 7688 C 718.156 -0.160836 -1.94938 0
M  V30 7689 C 718.536 1.33014 -1.63922 0
M  V30 7690 O 717.884 2.07878 -0.948636 0
M  V30 7691 C 718.094 -0.456991 -3.45995 0
M  V30 7692 C 719.442 -0.387207 -4.22831 0
M  V30 7693 O 720.466 -0.392164 -3.54035 0
M  V30 7694 O 719.325 -0.351267 -5.4537 0
M  V30 7695 H 716.419 -0.0176304 -0.826812 0
M  V30 7696 H 718.965 -0.776586 -1.50888 0
M  V30 7697 H 717.737 -1.48884 -3.61869 0
M  V30 7698 H 717.36 0.189503 -3.97148 0
M  V30 7699 N 718.357 1.51182 -0.445186 0
M  V30 7700 C 719.585 2.06568 0.117091 0
M  V30 7701 C 720 1.31182 1.35781 0
M  V30 7702 O 719.357 0.373605 1.78635 0
M  V30 7703 C 719.408 3.58917 0.431408 0
M  V30 7704 O 719.129 4.31456 -0.760078 0
M  V30 7705 C 720.63 4.30843 1.0435 0
M  V30 7706 H 717.85 0.670985 0.00444436 0
M  V30 7707 H 720.394 1.94666 -0.626525 0
M  V30 7708 H 718.549 3.70708 1.12493 0
M  V30 7709 H 718.963 5.22215 -0.489048 0
M  V30 7710 H 720.437 5.38499 1.21337 0
M  V30 7711 H 720.914 3.89644 2.02667 0
M  V30 7712 H 721.52 4.23516 0.38913 0
M  V30 7713 N 719.835 0.176821 1.56605 0
M  V30 7714 C 721.075 -0.469104 1.98944 0
M  V30 7715 C 721.439 -1.60048 1.06059 0
M  V30 7716 O 722.64 -2.30934 1.3756 0
M  V30 7717 C 720.911 -0.934571 3.44965 0
M  V30 7718 S 722.47 -1.58091 4.09332 0
M  V30 7719 H 719.288 -0.150695 0.694847 0
M  V30 7720 H 721.89 0.27558 1.93548 0
M  V30 7721 H 720.594 -0.100814 4.10276 0
M  V30 7722 H 720.125 -1.71316 3.54139 0
M  V30 7723 H 722.14 -2.86922 4.04834 0
M  V30 7724 N 721.313 -1.57302 -0.09688 0
M  V30 7725 C 722.724 -1.7496 -0.651595 0
M  V30 7726 C 723.075 -0.798746 -1.79205 0
M  V30 7727 O 722.2 0.0231858 -2.16388 0
M  V30 7728 C 722.795 -3.17259 -1.18878 0
M  V30 7729 C 721.354 -3.36348 -1.68958 0
M  V30 7730 C 720.501 -2.70766 -0.598413 0
M  V30 7731 H 723.452 -1.58173 0.12918 0
M  V30 7732 H 723.473 -3.20033 -2.05814 0
M  V30 7733 H 722.985 -3.8644 -0.358523 0
M  V30 7734 H 721.086 -2.72243 -2.5439 0
M  V30 7735 H 721.199 -4.44654 -1.7838 0
M  V30 7736 H 719.563 -2.32615 -1.03743 0
M  V30 7737 H 720.346 -3.42586 0.221238 0
M  V30 7738 N 722.791 0.367657 -1.53252 0
M  V30 7739 C 723.721 1.45632 -1.8252 0
M  V30 7740 C 724.702 1.55979 -0.678568 0
M  V30 7741 O 725.887 1.70581 -0.928217 0
M  V30 7742 C 723.017 2.82994 -2.01325 0
M  V30 7743 C 721.971 2.87473 -3.17086 0
M  V30 7744 C 721.297 4.2749 -3.21179 0
M  V30 7745 C 722.597 2.55182 -4.55719 0
M  V30 7746 H 724.291 1.21387 -2.73689 0
M  V30 7747 H 721.837 0.58251 -1.31692 0
M  V30 7748 H 723.79 3.59179 -2.20383 0
M  V30 7749 H 722.514 3.08622 -1.06864 0
M  V30 7750 H 721.173 2.13739 -2.97844 0
M  V30 7751 H 720.821 4.5019 -2.24361 0
M  V30 7752 H 720.521 4.31403 -3.98955 0
M  V30 7753 H 722.045 5.0555 -3.42419 0
M  V30 7754 H 723.459 3.21081 -4.74953 0
M  V30 7755 H 721.856 2.70414 -5.3572 0
M  V30 7756 H 722.926 1.5044 -4.60973 0
M  V30 7757 N 724.269 1.44576 0.627338 0
M  V30 7758 C 725.232 1.51372 1.72102 0
M  V30 7759 C 726.232 0.395329 1.55865 0
M  V30 7760 O 727.422 0.658094 1.61291 0
M  V30 7761 C 724.554 1.39129 3.11217 0
M  V30 7762 H 725.747 2.48798 1.6745 0
M  V30 7763 H 723.3 1.31724 0.841336 0
M  V30 7764 H 724.035 0.428114 3.21462 0
M  V30 7765 H 723.82 2.20229 3.24409 0
M  V30 7766 H 725.31 1.46874 3.90919 0
M  V30 7767 N 725.747 -0.868086 1.31537 0
M  V30 7768 C 726.679 -1.98165 1.15166 0
M  V30 7769 C 727.692 -1.6255 0.0902335 0
M  V30 7770 O 728.881 -1.75272 0.33791 0
M  V30 7771 C 725.981 -3.30772 0.737776 0
M  V30 7772 C 725.154 -3.94716 1.88462 0
M  V30 7773 C 724.213 -5.05641 1.45648 0
M  V30 7774 O 723.239 -5.2636 2.16642 0
M  V30 7775 N 724.441 -5.79474 0.34493 0
M  V30 7776 H 727.206 -2.12754 2.11083 0
M  V30 7777 H 724.767 -1.04217 1.23897 0
M  V30 7778 H 726.759 -4.02366 0.434032 0
M  V30 7779 H 725.329 -3.1233 -0.129834 0
M  V30 7780 H 724.549 -3.16079 2.35558 0
M  V30 7781 H 725.837 -4.34175 2.65273 0
M  V30 7782 H 725.235 -5.65164 -0.246259 0
M  V30 7783 H 723.792 -6.51722 0.100728 0
M  V30 7784 N 727.225 -1.14528 -1.08264 0
M  V30 7785 C 728.135 -0.84728 -2.18765 0
M  V30 7786 C 729.151 0.172826 -1.7314 0
M  V30 7787 O 730.327 0.000985336 -2.014 0
M  V30 7788 C 727.392 -0.330633 -3.4512 0
M  V30 7789 C 726.453 -1.41348 -4.05363 0
M  V30 7790 C 725.686 -0.921387 -5.25686 0
M  V30 7791 O 725.909 0.236587 -5.69909 0
M  V30 7792 O 724.843 -1.70101 -5.77364 0
M  V30 7793 H 728.669 -1.7708 -2.46731 0
M  V30 7794 H 726.254 -0.923661 -1.17426 0
M  V30 7795 H 728.136 -0.0485053 -4.21372 0
M  V30 7796 H 726.811 0.565147 -3.18728 0
M  V30 7797 H 725.718 -1.74908 -3.30693 0
M  V30 7798 H 727.051 -2.28383 -4.36007 0
M  V30 7799 N 728.703 1.26451 -0.940633 0
M  V30 7800 C 729.613 2.30128 -0.455881 0
M  V30 7801 C 730.629 1.67536 0.469867 0
M  V30 7802 O 731.805 1.98344 0.349529 0
M  V30 7803 C 728.87 3.45634 0.271648 0
M  V30 7804 C 727.931 4.23709 -0.690594 0
M  V30 7805 C 727.164 5.337 0.00231047 0
M  V30 7806 O 727.387 5.57215 1.21935 0
M  V30 7807 O 726.321 5.98091 -0.676111 0
M  V30 7808 H 730.147 2.73655 -1.31707 0
M  V30 7809 H 727.732 1.3164 -0.706497 0
M  V30 7810 H 729.614 4.15853 0.681486 0
M  V30 7811 H 728.289 3.04138 1.10824 0
M  V30 7812 H 727.196 3.55974 -1.15037 0
M  V30 7813 H 728.529 4.68953 -1.49478 0
M  V30 7814 N 730.181 0.707592 1.40822 0
M  V30 7815 C 731.43 0.240705 2.00259 0
M  V30 7816 C 731.743 -1.17027 1.56729 0
M  V30 7817 O 732.949 -1.73526 2.08809 0
M  V30 7818 C 731.405 0.379432 3.57894 0
M  V30 7819 C 731.013 1.79654 4.104 0
M  V30 7820 C 732.757 -0.0270684 4.24491 0
M  V30 7821 C 730.664 1.88628 5.60512 0
M  V30 7822 H 729.594 0.0862369 0.749052 0
M  V30 7823 H 732.245 0.877528 1.61157 0
M  V30 7824 H 730.627 -0.325842 3.94657 0
M  V30 7825 H 731.801 2.53155 3.85032 0
M  V30 7826 H 730.116 2.15379 3.56372 0
M  V30 7827 H 732.713 0.0193743 5.34696 0
M  V30 7828 H 733.056 -1.06772 4.02375 0
M  V30 7829 H 733.589 0.628361 3.92806 0
M  V30 7830 H 730.328 2.90787 5.87472 0
M  V30 7831 H 729.848 1.19528 5.8777 0
M  V30 7832 H 731.527 1.6547 6.25483 0
M  V30 7833 N 731.66 -1.50943 0.453197 0
M  V30 7834 C 732.59 -2.31005 -0.34044 0
M  V30 7835 C 733.571 -1.37112 -1.00669 0
M  V30 7836 O 734.756 -1.66033 -1.0073 0
M  V30 7837 C 731.886 -3.16358 -1.433 0
M  V30 7838 C 730.84 -4.18658 -0.889363 0
M  V30 7839 C 730.166 -4.92633 -2.07887 0
M  V30 7840 C 731.466 -5.22227 0.0871142 0
M  V30 7841 H 733.16 -2.97601 0.327723 0
M  V30 7842 H 730.706 -1.43119 0.159054 0
M  V30 7843 H 732.659 -3.71155 -1.99555 0
M  V30 7844 H 731.383 -2.47613 -2.12968 0
M  V30 7845 H 730.042 -3.64936 -0.348915 0
M  V30 7846 H 729.69 -4.20376 -2.76211 0
M  V30 7847 H 729.39 -5.61819 -1.72143 0
M  V30 7848 H 730.914 -5.50258 -2.64666 0
M  V30 7849 H 732.328 -5.72001 -0.385656 0
M  V30 7850 H 730.725 -5.99032 0.357926 0
M  V30 7851 H 731.795 -4.74077 1.01879 0
M  V30 7852 N 733.138 -0.185124 -1.56509 0
M  V30 7853 C 734.048 0.751908 -2.22224 0
M  V30 7854 C 735.064 1.24244 -1.21817 0
M  V30 7855 O 736.24 1.29169 -1.54523 0
M  V30 7856 C 733.305 1.95837 -2.86092 0
M  V30 7857 C 732.366 1.51337 -4.01741 0
M  V30 7858 C 731.599 2.66233 -4.62554 0
M  V30 7859 O 731.822 3.8346 -4.22273 0
M  V30 7860 O 730.756 2.39517 -5.52191 0
M  V30 7861 H 734.582 0.222304 -3.02885 0
M  V30 7862 H 732.167 0.0437141 -1.49336 0
M  V30 7863 H 734.049 2.66368 -3.26536 0
M  V30 7864 H 732.724 2.47677 -2.08417 0
M  V30 7865 H 731.631 0.777155 -3.65939 0
M  V30 7866 H 732.964 1.04175 -4.81049 0
M  V30 7867 N 734.616 1.57351 0.0885366 0
M  V30 7868 C 735.865 1.85604 0.789556 0
M  V30 7869 C 736.178 0.775352 1.79576 0
M  V30 7870 O 737.384 0.945206 2.54515 0
M  V30 7871 C 735.84 3.29175 1.45506 0
M  V30 7872 C 735.448 4.45331 0.488278 0
M  V30 7873 C 737.192 3.66646 2.13942 0
M  V30 7874 C 735.099 5.79937 1.15874 0
M  V30 7875 H 734.029 0.692346 0.298619 0
M  V30 7876 H 736.68 1.83451 0.0425821 0
M  V30 7877 H 735.062 3.25889 2.24972 0
M  V30 7878 H 736.236 4.59977 -0.275359 0
M  V30 7879 H 734.551 4.16301 -0.0907363 0
M  V30 7880 H 737.148 4.64498 2.6485 0
M  V30 7881 H 737.491 2.956 2.93132 0
M  V30 7882 H 738.024 3.71848 1.41328 0
M  V30 7883 H 734.763 6.54232 0.407508 0
M  V30 7884 H 734.283 5.69123 1.89364 0
M  V30 7885 H 735.962 6.24718 1.68336 0
M  V30 7886 N 736.094 -0.359525 1.53444 0
M  V30 7887 C 737.042 -1.46104 1.80987 0
M  V30 7888 C 738.036 -1.55181 0.679351 0
M  V30 7889 O 739.242 -1.57995 0.862405 0
M  V30 7890 H 735.617 -0.486835 0.573145 0
M  V30 7891 H 737.588 -1.2008 2.73173 0
M  V30 7892 C 736.337 -2.82855 2.02208 0
M  V30 7893 H 735.66 -2.76631 2.88644 0
M  V30 7894 H 737.1 -3.59091 2.25455 0
M  V30 7895 C 735.559 -3.27192 0.802931 0
M  V30 7896 O 736.089 -4.017 -0.00544286 0
M  V30 7897 N 734.295 -2.83807 0.624657 0
M  V30 7898 H 733.842 -2.23339 1.28364 0
M  V30 7899 H 733.8 -3.13828 -0.189641 0
M  V30 7900 N 737.572 -1.44907 -0.619662 0
M  V30 7901 C 738.988 -1.29046 -0.939107 0
M  V30 7902 C 739.188 -0.23462 -2.00129 0
M  V30 7903 O 738.244 0.37558 -2.49691 0
M  V30 7904 C 739.557 -2.66567 -1.39149 0
M  V30 7905 C 741.105 -2.74368 -1.50635 0
M  V30 7906 C 741.58 -4.12386 -1.99253 0
M  V30 7907 N 743.071 -4.1462 -2.06506 0
M  V30 7908 C 743.806 -5.18272 -2.4532 0
M  V30 7909 N 743.302 -6.32278 -2.83189 0
M  V30 7910 N 745.095 -5.05628 -2.45554 0
M  V30 7911 H 737.246 -2.12239 0.0826135 0
M  V30 7912 H 739.509 -0.947652 -0.0256829 0
M  V30 7913 H 739.215 -3.4496 -0.685254 0
M  V30 7914 H 739.089 -2.94224 -2.36034 0
M  V30 7915 H 741.476 -1.96287 -2.20353 0
M  V30 7916 H 741.557 -2.50439 -0.520963 0
M  V30 7917 H 741.201 -4.90947 -1.30127 0
M  V30 7918 H 741.131 -4.33699 -2.98684 0
M  V30 7919 H 743.622 -3.32343 -1.79878 0
M  V30 7920 H 743.935 -7.07172 -3.11652 0
M  V30 7921 H 742.28 -6.35699 -2.80913 0
M  V30 7922 H 745.471 -4.15613 -2.15367 0
M  V30 7923 H 745.644 -5.86529 -2.75478 0
M  V30 7924 N 739.05 0.861098 -1.31996 0
M  V30 7925 C 740.013 1.95068 -1.20338 0
M  V30 7926 C 741.013 1.60289 -0.128114 0
M  V30 7927 O 742.203 1.70048 -0.378044 0
M  V30 7928 C 739.335 3.30153 -0.849205 0
M  V30 7929 H 740.528 2.06833 -2.17164 0
M  V30 7930 H 738.081 1.05049 -1.15734 0
M  V30 7931 H 738.816 3.24087 0.117508 0
M  V30 7932 H 738.601 3.56771 -1.62655 0
M  V30 7933 H 740.091 4.10025 -0.791782 0
M  V30 7934 N 740.528 1.15101 1.07655 0
M  V30 7935 C 741.776 0.922149 1.79836 0
M  V30 7936 C 742.097 -0.552346 1.87014 0
M  V30 7937 O 741.367 -1.40145 1.3688 0
M  V30 7938 H 739.947 0.338182 0.666064 0
M  V30 7939 H 742.609 1.45107 1.30115 0
M  V30 7940 H 741.705 1.32883 2.82398 0
M  V30 7941 N 742.006 -1.2595 0.947325 0
M  V30 7942 C 743.422 -1.45737 0.650597 0
M  V30 7943 C 743.622 -1.85189 -0.794188 0
M  V30 7944 O 742.678 -1.97738 -1.57022 0
M  V30 7945 C 743.991 -2.53505 1.61728 0
M  V30 7946 C 745.539 -2.67351 1.62765 0
M  V30 7947 C 746.014 -3.78296 2.58179 0
M  V30 7948 N 747.505 -3.85696 2.56501 0
M  V30 7949 C 748.24 -4.71012 3.2701 0
M  V30 7950 N 747.736 -5.60669 4.06966 0
M  V30 7951 N 749.529 -4.64912 3.15932 0
M  V30 7952 H 741.68 -0.986327 1.8811 0
M  V30 7953 H 743.943 -0.494639 0.808725 0
M  V30 7954 H 743.649 -2.31357 2.6489 0
M  V30 7955 H 743.523 -3.51281 1.3741 0
M  V30 7956 H 745.91 -2.88869 0.603241 0
M  V30 7957 H 745.991 -1.69998 1.91139 0
M  V30 7958 H 745.635 -3.5753 3.60742 0
M  V30 7959 H 745.565 -4.75117 2.27093 0
M  V30 7960 H 748.056 -3.21601 1.98447 0
M  V30 7961 H 748.369 -6.22677 4.57704 0
M  V30 7962 H 746.714 -5.60402 4.11066 0
M  V30 7963 H 749.905 -3.93874 2.52945 0
M  V30 7964 H 750.078 -5.3118 3.71149 0
M  V30 7965 N 743.484 -0.715051 -1.40445 0
M  V30 7966 C 744.431 -0.0621393 -2.30716 0
M  V30 7967 C 745.401 0.750871 -1.48159 0
M  V30 7968 O 746.586 0.714928 -1.76899 0
M  V30 7969 C 743.726 0.854036 -3.34365 0
M  V30 7970 C 742.839 0.0305565 -4.31989 0
M  V30 7971 C 741.974 0.946162 -5.22706 0
M  V30 7972 C 741.013 0.116741 -6.11989 0
M  V30 7973 N 740.15 0.987194 -6.95125 0
M  V30 7974 H 744.99 -0.83764 -2.85985 0
M  V30 7975 H 742.527 -0.424759 -1.40834 0
M  V30 7976 H 744.485 1.39946 -3.93028 0
M  V30 7977 H 743.115 1.59572 -2.806 0
M  V30 7978 H 742.167 -0.632044 -3.75112 0
M  V30 7979 H 743.479 -0.611615 -4.95036 0
M  V30 7980 H 742.633 1.56014 -5.86297 0
M  V30 7981 H 741.372 1.62216 -4.59932 0
M  V30 7982 H 740.377 -0.510176 -5.47428 0
M  V30 7983 H 741.602 -0.555742 -6.76822 0
M  V30 7984 H 739.548 1.64885 -6.3494 0
M  V30 7985 H 739.465 0.401046 -7.54936 0
M  V30 7986 H 740.733 1.58737 -7.63166 0
M  V30 7987 N 744.962 1.50701 -0.461195 0
M  V30 7988 C 746.373 1.867 -0.00370227 0
M  V30 7989 C 746.724 1.37673 1.39787 0
M  V30 7990 O 745.849 0.737515 2.03445 0
M  V30 7991 C 746.444 3.388 5.75786e-05 0
M  V30 7992 C 745.003 3.74247 0.402044 0
M  V30 7993 C 744.15 2.74549 -0.389652 0
M  V30 7994 H 747.101 1.43585 -0.675942 0
M  V30 7995 H 747.122 3.719 0.804414 0
M  V30 7996 H 746.634 3.74452 -1.02015 0
M  V30 7997 H 744.735 3.44192 1.42697 0
M  V30 7998 H 744.848 4.78973 0.110265 0
M  V30 7999 H 743.212 2.54226 0.155314 0
M  V30 8000 H 743.995 3.13044 -1.40919 0
M  V30 8001 N 746.441 0.193421 1.56409 0
M  V30 8002 C 747.371 -0.723334 2.22014 0
M  V30 8003 C 748.352 -1.22254 1.1827 0
M  V30 8004 O 749.537 -1.27168 1.46771 0
M  V30 8005 C 746.667 -1.94366 2.87818 0
M  V30 8006 C 745.621 -1.57943 3.97791 0
M  V30 8007 C 744.947 -2.87623 4.50752 0
M  V30 8008 C 746.247 -0.790639 5.16281 0
M  V30 8009 H 747.941 -0.176426 2.9888 0
M  V30 8010 H 745.487 -0.0834166 1.43758 0
M  V30 8011 H 747.44 -2.5902 3.32396 0
M  V30 8012 H 746.164 -2.51507 2.08355 0
M  V30 8013 H 744.823 -0.956482 3.53903 0
M  V30 8014 H 744.471 -3.4285 3.68053 0
M  V30 8015 H 744.171 -2.63998 5.24956 0
M  V30 8016 H 745.695 -3.53268 4.9803 0
M  V30 8017 H 747.109 -1.34024 5.57414 0
M  V30 8018 H 745.506 -0.65258 5.96541 0
M  V30 8019 H 746.576 0.208633 4.84451 0
M  V30 8020 N 747.919 -1.57396 -0.0801906 0
M  V30 8021 C 749.335 -1.53564 -0.434778 0
M  V30 8022 C 749.535 -0.912372 -1.79661 0
M  V30 8023 O 748.591 -0.511268 -2.4727 0
M  V30 8024 C 749.904 -2.98244 -0.383561 0
M  V30 8025 C 751.452 -3.09536 -0.46435 0
M  V30 8026 C 751.927 -4.55851 -0.443128 0
M  V30 8027 N 753.418 -4.60456 -0.503448 0
M  V30 8028 C 754.153 -5.71135 -0.509106 0
M  V30 8029 N 753.649 -6.91203 -0.47008 0
M  V30 8030 N 755.442 -5.59353 -0.555035 0
M  V30 8031 H 747.593 -1.96281 0.811635 0
M  V30 8032 H 749.856 -0.898041 0.303689 0
M  V30 8033 H 749.562 -3.47369 0.550236 0
M  V30 8034 H 749.436 -3.57705 -1.19694 0
M  V30 8035 H 751.823 -2.6039 -1.38857 0
M  V30 8036 H 751.904 -2.53 0.377445 0
M  V30 8037 H 751.548 -5.05653 0.477207 0
M  V30 8038 H 751.478 -5.10242 -1.30234 0
M  V30 8039 H 753.969 -3.74048 -0.538199 0
M  V30 8040 H 754.282 -7.7132 -0.478091 0
M  V30 8041 H 752.627 -6.93625 -0.436897 0
M  V30 8042 H 755.818 -4.64453 -0.583158 0
M  V30 8043 H 755.991 -6.4561 -0.555976 0
M  V30 8044 N 749.397 0.351382 -1.53633 0
M  V30 8045 C 750.645 1.09034 -1.70165 0
M  V30 8046 C 750.966 1.89413 -0.463422 0
M  V30 8047 O 750.236 1.888 0.522624 0
M  V30 8048 H 748.816 0.405522 -0.627344 0
M  V30 8049 H 751.478 0.394554 -1.90865 0
M  V30 8050 H 750.574 1.77215 -2.56907 0
M  V30 8051 N 750.875 1.45233 0.611969 0
M  V30 8052 C 751.808 1.48056 1.73651 0
M  V30 8053 C 752.786 0.337373 1.59061 0
M  V30 8054 O 753.97 0.537222 1.80683 0
M  V30 8055 C 751.097 1.33144 3.11433 0
M  V30 8056 C 750.143 2.51272 3.44623 0
M  V30 8057 S 750.976 4.13754 3.39953 0
M  V30 8058 C 752.132 4.013 4.80322 0
M  V30 8059 H 752.365 2.43205 1.70993 0
M  V30 8060 H 749.898 1.32763 0.788246 0
M  V30 8061 H 751.856 1.25228 3.90932 0
M  V30 8062 H 750.517 0.394734 3.1161 0
M  V30 8063 H 749.71 2.36753 4.44932 0
M  V30 8064 H 749.312 2.56027 2.72629 0
M  V30 8065 H 751.604 3.66174 5.7002 0
M  V30 8066 H 752.547 5.01506 4.99897 0
M  V30 8067 H 752.955 3.3303 4.55797 0
M  V30 8068 N 752.353 -0.854086 1.3245 0
M  V30 8069 C 753.578 -1.64597 1.26185 0
M  V30 8070 C 754.003 -1.87357 -0.167074 0
M  V30 8071 O 753.361 -1.42675 -1.11864 0
M  V30 8072 C 753.409 -2.98213 2.02734 0
M  V30 8073 O 752.513 -3.88784 1.37554 0
M  V30 8074 H 751.854 -0.50179 0.434859 0
M  V30 8075 H 754.384 -1.06372 1.74775 0
M  V30 8076 H 754.394 -3.4803 2.1293 0
M  V30 8077 H 753.069 -2.80969 3.06642 0
M  V30 8078 H 751.646 -3.4725 1.3591 0
M  V30 8079 N 753.831 -1.1567 -1.07043 0
M  V30 8080 C 755.08 -0.928039 -1.79082 0
M  V30 8081 C 755.393 0.545968 -1.87826 0
M  V30 8082 O 756.599 0.892308 -2.56418 0
M  V30 8083 C 755.055 -1.61103 -3.21829 0
M  V30 8084 C 754.663 -3.12228 -3.21275 0
M  V30 8085 C 756.407 -1.46404 -3.98455 0
M  V30 8086 C 754.314 -3.733 -4.58695 0
M  V30 8087 H 753.244 -0.34357 -0.671175 0
M  V30 8088 H 755.895 -1.38718 -1.20123 0
M  V30 8089 H 754.277 -1.07958 -3.81 0
M  V30 8090 H 755.451 -3.72155 -2.71731 0
M  V30 8091 H 753.766 -3.26725 -2.58147 0
M  V30 8092 H 756.363 -1.8942 -5.00024 0
M  V30 8093 H 756.706 -0.41195 -4.14257 0
M  V30 8094 H 757.239 -1.96663 -3.45787 0
M  V30 8095 H 753.978 -4.78423 -4.48098 0
M  V30 8096 H 753.498 -3.18157 -5.08465 0
M  V30 8097 H 755.177 -3.7441 -5.27661 0
M  V30 8098 O 755.348 1.19707 -1.08409 0
M  V30 8099 H 756.039 1.77498 -0.775504 0
M  V30 END ATOM
M  V30 BEGIN BOND
M  V30 END BOND
M  V30 END CTAB
M  END
$$$$
