drugbank_target|P53609 Geranylgeranyl transferase type-1 subunit beta (DB07227; DB07841; DB08180)
 OpenBabel12092119483D

  0  0  0     0  0            999 V3000
M  V30 BEGIN CTAB
M  V30 COUNTS 5869 5932 0 0 0
M  V30 BEGIN ATOM
M  V30 1 H -0.908 1.98254 -0.117106 0
M  V30 2 N 0 1.576 0 0
M  V30 3 C 0.933 2.03868 1.02534 0
M  V30 4 C 1.911 0.928543 1.3348 0
M  V30 5 O 3.095 1.19667 1.45644 0
M  V30 6 C 0.222 2.43627 2.35294 0
M  V30 7 C -0.732 3.65373 2.2001 0
M  V30 8 S 0.101 5.13292 1.52614 0
M  V30 9 C 1.257 5.56322 2.86805 0
M  V30 10 H 1.49 2.90518 0.631377 0
M  V30 11 H -0.977 1.52953 0.210867 0
M  V30 12 H 0.981 2.67203 3.11629 0
M  V30 13 H -0.358 1.57376 2.7183 0
M  V30 14 H -1.165 3.90944 3.18086 0
M  V30 15 H -1.563 3.418 1.51819 0
M  V30 16 H 0.729 5.58782 3.83104 0
M  V30 17 H 1.672 6.56266 2.65933 0
M  V30 18 H 2.08 4.83886 2.90714 0
M  V30 19 N 1.4781 -0.272755 1.55222 0
M  V30 20 C 2.4411 -1.32041 1.87344 0
M  V30 21 C 3.4411 -1.42342 0.74803 0
M  V30 22 O 4.6311 -1.41488 1.0162 0
M  V30 23 C 1.7631 -2.70173 2.07893 0
M  V30 24 H 2.9561 -1.04789 2.80997 0
M  V30 25 H 0.5091 -0.51083 1.47717 0
M  V30 26 H 1.2441 -3.02605 1.16622 0
M  V30 27 H 1.0291 -2.64082 2.89833 0
M  V30 28 H 2.5191 -3.45869 2.34017 0
M  V30 29 N 2.9562 -1.48159 -0.537278 0
M  V30 30 C 3.9192 -1.61665 -1.62472 0
M  V30 31 C 4.9192 -0.490395 -1.5314 0
M  V30 32 O 6.1092 -0.755998 -1.5694 0
M  V30 33 C 3.2412 -1.57997 -3.02076 0
M  V30 34 H 4.4342 -2.58621 -1.51839 0
M  V30 35 H 1.9872 -1.36647 -0.758771 0
M  V30 36 H 2.7222 -0.624913 -3.18222 0
M  V30 37 H 2.5072 -2.39755 -3.10258 0
M  V30 38 H 3.9972 -1.70627 -3.81151 0
M  V30 39 N 4.4343 0.785586 -1.36625 0
M  V30 40 C 5.6623 1.57448 -1.3423 0
M  V30 41 C 6.0773 1.88649 0.0755653 0
M  V30 42 O 5.4343 1.50414 1.03354 0
M  V30 43 C 5.4853 2.89316 -2.16745 0
M  V30 44 O 5.2063 2.59459 -3.53005 0
M  V30 45 C 6.7073 3.83606 -2.22174 0
M  V30 46 H 3.9273 0.488226 -0.4603 0
M  V30 47 H 6.4713 0.974733 -1.79775 0
M  V30 48 H 4.6263 3.4575 -1.74745 0
M  V30 49 H 5.0403 3.43804 -3.96105 0
M  V30 50 H 6.5143 4.73181 -2.8426 0
M  V30 51 H 6.9913 4.21734 -1.22627 0
M  V30 52 H 7.5973 3.33104 -2.64427 0
M  V30 53 N 5.9124 1.20967 1.01018 0
M  V30 54 C 6.8224 0.980157 2.13143 0
M  V30 55 C 7.8384 -0.0660665 1.73875 0
M  V30 56 O 9.0144 0.122821 2.01025 0
M  V30 57 C 6.0794 0.54216 3.42435 0
M  V30 58 C 5.1404 1.65999 3.95908 0
M  V30 59 C 4.3734 1.2428 5.19028 0
M  V30 60 O 4.5964 0.114196 5.70286 0
M  V30 61 O 3.5304 2.05271 5.65816 0
M  V30 62 H 7.3564 1.91913 2.35379 0
M  V30 63 H 4.9414 0.994099 1.11526 0
M  V30 64 H 6.8234 0.30744 4.20277 0
M  V30 65 H 5.4984 -0.36815 3.216 0
M  V30 66 H 4.4054 1.94906 3.19316 0
M  V30 67 H 5.7384 2.54753 4.21143 0
M  V30 68 N 7.3905 -1.2043 1.01659 0
M  V30 69 C 8.6675 -1.8548 0.621004 0
M  V30 70 C 9.0475 -1.9091 -0.900919 0
M  V30 71 O 8.3955 -1.41694 -1.79263 0
M  V30 72 C 8.6055 -3.25119 1.2688 0
M  V30 73 C 9.9535 -4.01403 1.38423 0
M  V30 74 O 10.9775 -3.34473 1.22501 0
M  V30 75 O 9.8365 -5.21265 1.64151 0
M  V30 76 H 6.9305 -0.798761 0.214266 0
M  V30 77 H 9.4765 -1.28019 1.11396 0
M  V30 78 H 8.2485 -3.15932 2.30873 0
M  V30 79 H 7.8715 -3.90212 0.762917 0
M  V30 80 N 8.8686 -0.792821 -1.36206 0
M  V30 81 C 9.7786 -0.194808 -2.3379 0
M  V30 82 C 10.7946 0.654869 -1.61206 0
M  V30 83 O 11.9706 0.569856 -1.9317 0
M  V30 84 C 9.0356 0.657721 -3.40404 0
M  V30 85 C 8.0966 -0.210849 -4.28782 0
M  V30 86 C 7.3296 0.601086 -5.30304 0
M  V30 87 O 7.5526 1.83682 -5.40016 0
M  V30 88 O 6.4866 -0.000808277 -6.019 0
M  V30 89 H 10.3126 -1.00172 -2.86704 0
M  V30 90 H 7.8976 -0.554341 -1.38735 0
M  V30 91 H 9.7796 1.14375 -4.05581 0
M  V30 92 H 8.4546 1.44247 -2.89784 0
M  V30 93 H 7.3616 -0.743714 -3.66633 0
M  V30 94 H 8.6946 -0.959195 -4.82763 0
M  V30 95 N 10.3467 1.47872 -0.545128 0
M  V30 96 C 11.7627 1.5829 -0.204032 0
M  V30 97 C 11.9627 1.54529 1.29317 0
M  V30 98 O 11.0187 1.44232 2.07252 0
M  V30 99 C 12.3317 2.89304 -0.819987 0
M  V30 100 C 13.8797 3.02864 -0.790105 0
M  V30 101 C 14.3547 4.3656 -1.38491 0
M  V30 102 N 15.8457 4.43165 -1.34755 0
M  V30 103 C 16.5807 5.45153 -1.77753 0
M  V30 104 N 16.0767 6.54016 -2.2855 0
M  V30 105 N 17.8697 5.36125 -1.68897 0
M  V30 106 H 10.0207 1.4856 -1.51802 0
M  V30 107 H 12.2837 0.706305 -0.632327 0
M  V30 108 H 11.9897 2.97757 -1.87173 0
M  V30 109 H 11.8637 3.75957 -0.305915 0
M  V30 110 H 14.2507 2.94014 0.252913 0
M  V30 111 H 14.3317 2.17782 -1.34181 0
M  V30 112 H 13.9757 4.46164 -2.42693 0
M  V30 113 H 13.9057 5.20353 -0.808754 0
M  V30 114 H 16.3967 3.65083 -0.975855 0
M  V30 115 H 16.7097 7.27994 -2.59314 0
M  V30 116 H 15.0547 6.54938 -2.32553 0
M  V30 117 H 18.2457 4.49975 -1.28998 0
M  V30 118 H 18.4187 6.15472 -2.02726 0
M  V30 119 N 11.8248 0.280983 1.55075 0
M  V30 120 C 12.7548 -0.597469 2.25727 0
M  V30 121 C 13.7358 -1.15417 1.24952 0
M  V30 122 O 14.9208 -1.18722 1.53684 0
M  V30 123 C 12.0508 -1.7789 2.98283 0
M  V30 124 C 11.0048 -1.35347 4.06036 0
M  V30 125 C 10.3308 -2.61846 4.66198 0
M  V30 126 C 11.6308 -0.499354 5.19907 0
M  V30 127 H 13.3248 -0.00824265 2.99399 0
M  V30 128 H 10.8708 -0.0025244 1.44 0
M  V30 129 H 12.8238 -2.39937 3.46422 0
M  V30 130 H 11.5478 -2.39405 2.22155 0
M  V30 131 H 10.2068 -0.756156 3.58717 0
M  V30 132 H 9.8548 -3.21632 3.86732 0
M  V30 133 H 9.5548 -2.3409 5.38958 0
M  V30 134 H 11.0788 -3.24732 5.1709 0
M  V30 135 H 12.4928 -1.02498 5.64063 0
M  V30 136 H 10.8898 -0.316424 5.99265 0
M  V30 137 H 11.9598 0.480459 4.82514 0
M  V30 138 N 13.3029 -1.57598 0.00835791 0
M  V30 139 C 14.2659 -2.07884 -0.965242 0
M  V30 140 C 15.2659 -0.989825 -1.26725 0
M  V30 141 O 16.4559 -1.25218 -1.21104 0
M  V30 142 C 13.5879 -2.52731 -2.28779 0
M  V30 143 H 14.7809 -2.95178 -0.530112 0
M  V30 144 H 12.3339 -1.54458 -0.239283 0
M  V30 145 H 13.0689 -1.68705 -2.76964 0
M  V30 146 H 12.8539 -3.32272 -2.08177 0
M  V30 147 H 14.3439 -2.91933 -2.98605 0
M  V30 148 N 14.781 0.264519 -1.55364 0
M  V30 149 C 16.029 0.993021 -1.76021 0
M  V30 150 C 16.35 1.86511 -0.569099 0
M  V30 151 O 15.62 1.91438 0.415735 0
M  V30 152 H 14.2 0.369639 -0.649135 0
M  V30 153 H 16.862 0.286707 -1.9278 0
M  V30 154 H 15.958 1.62502 -2.66457 0
M  V30 155 N 16.2591 1.48442 0.529413 0
M  V30 156 C 17.4841 1.60406 1.31471 0
M  V30 157 C 17.9091 0.264738 1.86228 0
M  V30 158 O 17.2671 -0.763668 1.64432 0
M  V30 159 C 17.3151 2.65419 2.44101 0
M  V30 160 O 16.4191 2.22618 3.47153 0
M  V30 161 H 15.7601 0.537863 0.389357 0
M  V30 162 H 18.2901 1.94432 0.636965 0
M  V30 163 H 18.3001 2.86709 2.90279 0
M  V30 164 H 16.9751 3.62652 2.03608 0
M  V30 165 H 15.5521 2.11543 3.0709 0
M  V30 166 N 17.7372 -0.778329 1.37039 0
M  V30 167 C 18.9852 -1.53361 1.31623 0
M  V30 168 C 19.3062 -1.94739 -0.100831 0
M  V30 169 O 18.5762 -1.65797 -1.04347 0
M  V30 170 H 17.1562 -0.568794 0.484234 0
M  V30 171 H 19.8182 -0.926742 1.71457 0
M  V30 172 H 18.9142 -2.43606 1.95096 0
M  V30 173 N 19.2153 -1.21501 -1.00376 0
M  V30 174 C 20.1253 -0.991447 -2.12621 0
M  V30 175 C 21.1413 0.0568446 -1.73907 0
M  V30 176 O 22.3173 -0.13348 -2.00957 0
M  V30 177 C 19.3823 -0.560312 -3.42142 0
M  V30 178 C 18.4433 -1.68096 -3.95022 0
M  V30 179 C 17.6763 -1.2703 -5.18362 0
M  V30 180 O 17.8993 -0.144438 -5.70217 0
M  V30 181 O 16.8333 -2.08269 -5.64719 0
M  V30 182 H 20.6593 -1.93158 -2.34358 0
M  V30 183 H 18.2443 -0.999999 -1.10997 0
M  V30 184 H 20.1263 -0.329724 -4.20108 0
M  V30 185 H 18.8013 0.351089 -3.2179 0
M  V30 186 H 17.7083 -1.96597 -3.18278 0
M  V30 187 H 19.0413 -2.56983 -4.19786 0
M  V30 188 N 20.6934 1.19889 -1.02296 0
M  V30 189 C 21.9414 1.89046 -0.714558 0
M  V30 190 C 22.2624 1.79636 0.758681 0
M  V30 191 O 21.5324 1.20292 1.54618 0
M  V30 192 H 20.1124 0.699802 -0.261317 0
M  V30 193 H 22.7744 1.45574 -1.29592 0
M  V30 194 H 21.8704 2.95524 -1.0036 0
M  V30 195 N 22.1715 0.800033 1.35784 0
M  V30 196 C 23.0815 0.207204 2.33683 0
M  V30 197 C 24.0975 -0.64631 1.61551 0
M  V30 198 O 25.2735 -0.559604 1.93469 0
M  V30 199 C 22.3385 -0.639659 3.40748 0
M  V30 200 C 21.3995 0.233585 4.28664 0
M  V30 201 C 20.6325 -0.572954 5.30616 0
M  V30 202 O 20.8555 -1.80816 5.40982 0
M  V30 203 O 19.7895 0.0327285 6.01891 0
M  V30 204 H 23.6155 1.01692 2.86169 0
M  V30 205 H 21.2005 0.561691 1.38439 0
M  V30 206 H 23.0825 -1.12223 4.06182 0
M  V30 207 H 21.7575 -1.42708 2.90544 0
M  V30 208 H 20.6645 0.763147 3.66233 0
M  V30 209 H 21.9975 0.984784 4.82248 0
M  V30 210 N 23.6496 -1.47581 0.552962 0
M  V30 211 C 25.0656 -1.5818 0.212424 0
M  V30 212 C 25.2656 -1.55213 -1.28496 0
M  V30 213 O 24.3216 -1.45329 -2.06484 0
M  V30 214 C 25.6346 -2.88865 0.835318 0
M  V30 215 C 27.1826 -3.0244 0.806156 0
M  V30 216 C 27.6576 -4.35819 1.40804 0
M  V30 217 N 29.1486 -4.42444 1.37103 0
M  V30 218 C 29.8836 -5.44202 1.80641 0
M  V30 219 N 29.3796 -6.52795 2.32015 0
M  V30 220 N 31.1726 -5.35222 1.71738 0
M  V30 221 H 23.3236 -1.47753 1.52587 0
M  V30 222 H 25.5866 -0.702941 0.636064 0
M  V30 223 H 25.2926 -2.9676 1.88749 0
M  V30 224 H 25.1666 -3.7579 0.325848 0
M  V30 225 H 27.5536 -2.94144 -0.237317 0
M  V30 226 H 27.6346 -2.17068 1.35334 0
M  V30 227 H 27.2786 -4.44871 2.45056 0
M  V30 228 H 27.2086 -5.19916 0.836338 0
M  V30 229 H 29.6996 -3.6456 0.995202 0
M  V30 230 H 30.0126 -7.26609 2.63171 0
M  V30 231 H 28.3576 -6.53696 2.36023 0
M  V30 232 H 31.5486 -4.49284 1.31382 0
M  V30 233 H 31.7216 -6.14389 2.05987 0
M  V30 234 N 25.1277 -0.289203 -1.54924 0
M  V30 235 C 26.0577 0.58549 -2.2604 0
M  V30 236 C 27.0387 1.14753 -1.25562 0
M  V30 237 O 28.2237 1.17906 -1.54311 0
M  V30 238 C 25.3537 1.76305 -2.99222 0
M  V30 239 C 24.3077 1.33191 -4.06748 0
M  V30 240 C 23.6337 2.5937 -4.6758 0
M  V30 241 C 24.9337 0.471775 -5.20165 0
M  V30 242 H 26.6277 -0.00763532 -2.99399 0
M  V30 243 H 24.1737 -0.00511229 -1.43999 0
M  V30 244 H 26.1267 2.38097 -3.47689 0
M  V30 245 H 24.8507 2.38223 -2.23422 0
M  V30 246 H 23.5097 0.737121 -3.59113 0
M  V30 247 H 23.1577 3.19576 -3.88433 0
M  V30 248 H 22.8577 2.31228 -5.40192 0
M  V30 249 H 24.3817 3.21985 -5.18804 0
M  V30 250 H 25.7957 0.995056 -5.64599 0
M  V30 251 H 24.1927 0.284639 -5.99425 0
M  V30 252 H 25.2627 -0.506041 -4.82252 0
M  V30 253 N 26.6058 1.57591 -0.0167156 0
M  V30 254 C 27.8828 1.82547 0.702564 0
M  V30 255 C 28.2628 0.898018 1.91047 0
M  V30 256 O 27.6108 -0.0493456 2.28447 0
M  V30 257 C 27.8208 3.31459 1.09251 0
M  V30 258 C 29.1688 3.97622 1.48937 0
M  V30 259 O 30.1928 3.35881 1.18584 0
M  V30 260 O 29.0518 5.06415 2.05442 0
M  V30 261 H 26.1458 0.752268 0.343544 0
M  V30 262 H 28.6918 1.69644 -0.0434495 0
M  V30 263 H 27.4638 3.9061 0.23227 0
M  V30 264 H 27.0868 3.49422 1.89709 0
M  V30 265 N 28.0839 -0.256276 1.55502 0
M  V30 266 C 29.3309 -0.985619 1.76895 0
M  V30 267 C 29.6589 -1.85671 0.579355 0
M  V30 268 O 28.9139 -1.90744 -0.437651 0
M  V30 269 C 29.2129 -1.88432 3.03691 0
M  V30 270 C 28.8789 -1.16936 4.35473 0
M  V30 271 C 27.5409 -0.97173 4.71286 0
M  V30 272 C 29.8929 -0.661889 5.1698 0
M  V30 273 C 27.2209 -0.254179 5.86149 0
M  V30 274 C 29.5729 0.042149 6.32586 0
M  V30 275 C 28.2369 0.25134 6.67027 0
M  V30 276 H 27.5069 -0.360663 0.647304 0
M  V30 277 H 30.1539 -0.256483 1.89775 0
M  V30 278 H 28.4589 -2.68021 2.85783 0
M  V30 279 H 30.1559 -2.45015 3.1744 0
M  V30 280 H 26.7459 -1.33332 4.07333 0
M  V30 281 H 30.9299 -0.802145 4.89775 0
M  V30 282 H 26.1859 -0.0815408 6.11346 0
M  V30 283 H 30.3599 0.443049 6.94989 0
M  V30 284 H 27.9869 0.809314 7.5588 0
M  V30 285 N 29.562 -1.4872 -0.521534 0
M  V30 286 C 30.492 -1.66771 -1.63431 0
M  V30 287 C 31.473 -0.516499 -1.62069 0
M  V30 288 O 32.658 -0.750013 -1.79132 0
M  V30 289 C 29.788 -1.71515 -3.01993 0
M  V30 290 C 28.742 -2.86222 -3.18216 0
M  V30 291 C 28.068 -2.76061 -4.57924 0
M  V30 292 C 29.368 -4.27419 -3.00184 0
M  V30 293 H 31.062 -2.59932 -1.48579 0
M  V30 294 H 28.608 -1.25089 -0.713358 0
M  V30 295 H 30.561 -1.82731 -3.7972 0
M  V30 296 H 29.285 -0.749393 -3.17886 0
M  V30 297 H 27.944 -2.74575 -2.42908 0
M  V30 298 H 27.592 -1.77437 -4.70665 0
M  V30 299 H 27.292 -3.53037 -4.69722 0
M  V30 300 H 28.816 -2.89256 -5.37739 0
M  V30 301 H 30.23 -4.39855 -3.67697 0
M  V30 302 H 28.627 -5.05458 -3.2347 0
M  V30 303 H 29.697 -4.43293 -1.96518 0
M  V30 304 N 31.0401 0.771051 -1.3745 0
M  V30 305 C 32.4561 1.07171 -1.18265 0
M  V30 306 C 32.6561 2.01491 -0.019287 0
M  V30 307 O 31.7121 2.44244 0.640408 0
M  V30 308 C 33.0251 1.66854 -2.50161 0
M  V30 309 C 34.5731 1.79109 -2.56689 0
M  V30 310 C 35.0481 2.42205 -3.88717 0
M  V30 311 N 36.5391 2.49655 -3.90162 0
M  V30 312 C 37.2741 2.9933 -4.8907 0
M  V30 313 N 36.7701 3.49172 -5.98374 0
M  V30 314 N 38.5631 2.9821 -4.76474 0
M  V30 315 H 30.7141 0.144796 -2.11906 0
M  V30 316 H 32.9771 0.126863 -0.939473 0
M  V30 317 H 32.6831 1.05017 -3.35655 0
M  V30 318 H 32.5571 2.6614 -2.673 0
M  V30 319 H 34.9441 2.40077 -1.71601 0
M  V30 320 H 35.0251 0.785757 -2.43433 0
M  V30 321 H 34.6691 1.81875 -4.74219 0
M  V30 322 H 34.5991 3.43345 -3.99276 0
M  V30 323 H 37.0901 2.14383 -3.11205 0
M  V30 324 H 37.4031 3.8548 -6.69795 0
M  V30 325 H 35.7481 3.47275 -6.02018 0
M  V30 326 H 38.9391 2.58572 -3.90203 0
M  V30 327 H 39.1121 3.36613 -5.53711 0
M  V30 328 N 32.5182 1.22032 0.997298 0
M  V30 329 C 33.7952 0.950823 1.70935 0
M  V30 330 C 34.1752 -0.535292 2.042 0
M  V30 331 O 33.5232 -1.50217 1.72183 0
M  V30 332 C 33.7332 1.84386 2.96315 0
M  V30 333 C 35.0812 2.09732 3.69185 0
M  V30 334 O 36.1052 1.81798 3.06314 0
M  V30 335 O 34.9642 2.57018 4.82291 0
M  V30 336 H 32.0582 0.357204 0.745878 0
M  V30 337 H 34.6042 1.32997 1.05404 0
M  V30 338 H 33.3762 2.84928 2.68201 0
M  V30 339 H 32.9992 1.46602 3.69586 0
M  V30 340 N 33.9963 -1.19345 1.0293 0
M  V30 341 C 35.4123 -1.41069 0.746446 0
M  V30 342 C 35.6123 -1.90078 -0.668776 0
M  V30 343 O 34.6683 -2.0778 -1.4347 0
M  V30 344 C 35.9813 -2.42141 1.78292 0
M  V30 345 C 37.5293 -2.55887 1.80252 0
M  V30 346 C 38.0043 -3.60214 2.8286 0
M  V30 347 N 39.4953 -3.67711 2.81679 0
M  V30 348 C 40.2303 -4.48128 3.57727 0
M  V30 349 N 39.7263 -5.32248 4.43491 0
M  V30 350 N 41.5193 -4.42782 3.46267 0
M  V30 351 H 33.6703 -0.858536 1.94275 0
M  V30 352 H 35.9333 -0.439541 0.839945 0
M  V30 353 H 35.6393 -2.13155 2.79746 0
M  V30 354 H 35.5133 -3.41323 1.60557 0
M  V30 355 H 37.9003 -2.84196 0.794757 0
M  V30 356 H 37.9813 -1.56858 2.02062 0
M  V30 357 H 37.6253 -3.32647 3.83807 0
M  V30 358 H 37.5553 -4.58895 2.58307 0
M  V30 359 H 40.0463 -3.07634 2.19476 0
M  V30 360 H 40.3593 -5.90729 4.98256 0
M  V30 361 H 38.7043 -5.31707 4.47564 0
M  V30 362 H 41.8953 -3.76107 2.78677 0
M  V30 363 H 42.0683 -5.05215 4.05785 0
M  V30 364 N 35.4744 -0.807222 -1.35358 0
M  V30 365 C 36.4244 -0.190706 -2.27201 0
M  V30 366 C 37.4084 0.635838 -1.47804 0
M  V30 367 O 38.6004 0.492991 -1.69996 0
M  V30 368 C 35.7294 0.659337 -3.36909 0
M  V30 369 C 34.8154 -0.176971 -4.23731 0
M  V30 370 N 35.2064 -1.24029 -4.90357 0
M  V30 371 C 33.5044 0.0412953 -4.45981 0
M  V30 372 C 34.2054 -1.75092 -5.54723 0
M  V30 373 N 33.1814 -1.05727 -5.33219 0
M  V30 374 H 36.9834 -1.0043 -2.76208 0
M  V30 375 H 34.4974 -0.648445 -1.48892 0
M  V30 376 H 36.4944 1.11706 -4.01656 0
M  V30 377 H 35.1544 1.47127 -2.89454 0
M  V30 378 H 36.1654 -1.62295 -4.91814 0
M  V30 379 H 32.8424 0.82232 -4.09322 0
M  V30 380 H 34.2324 -2.63963 -6.17878 0
M  V30 381 N 36.9525 1.47285 -0.560781 0
M  V30 382 C 38.1985 2.02764 -0.0381184 0
M  V30 383 C 38.5315 1.43384 1.30976 0
M  V30 384 O 37.8065 0.590733 1.85312 0
M  V30 385 C 38.0895 3.60064 0.0511427 0
M  V30 386 C 37.9425 4.2987 -1.32408 0
M  V30 387 C 39.2615 4.33439 0.762795 0
M  V30 388 H 36.3805 0.736841 -0.0153264 0
M  V30 389 H 39.0225 1.75675 -0.723759 0
M  V30 390 H 37.1725 3.83274 0.635065 0
M  V30 391 H 38.8445 4.17989 -1.95148 0
M  V30 392 H 37.0875 3.90085 -1.8978 0
M  V30 393 H 37.7585 5.38478 -1.21431 0
M  V30 394 H 40.2345 4.15243 0.266965 0
M  V30 395 H 39.1105 5.43124 0.794221 0
M  V30 396 H 39.3715 4.02915 1.81966 0
M  V30 397 N 38.4306 0.297415 1.54768 0
M  V30 398 C 39.8466 -0.0560823 1.59501 0
M  V30 399 C 40.0466 -1.52725 1.31444 0
M  V30 400 O 39.1026 -2.27947 1.08611 0
M  V30 401 C 40.4156 0.338631 2.98787 0
M  V30 402 C 41.9636 0.287097 3.11681 0
M  V30 403 C 42.4386 0.656579 4.53269 0
M  V30 404 N 43.9296 0.608977 4.59179 0
M  V30 405 C 44.6646 0.867385 5.66802 0
M  V30 406 N 44.1606 1.19157 6.82476 0
M  V30 407 N 45.9536 0.794687 5.56454 0
M  V30 408 H 38.1046 1.25624 1.71267 0
M  V30 409 H 40.3676 0.509057 0.799728 0
M  V30 410 H 40.0736 1.36263 3.2423 0
M  V30 411 H 39.9476 -0.309508 3.75928 0
M  V30 412 H 42.3346 -0.727649 2.85988 0
M  V30 413 H 42.4156 0.969809 2.36703 0
M  V30 414 H 42.0596 1.66912 4.7969 0
M  V30 415 H 41.9896 -0.0481649 5.26578 0
M  V30 416 H 44.4806 0.369198 3.76092 0
M  V30 417 H 44.7936 1.37482 7.60473 0
M  V30 418 H 43.1386 1.22958 6.84037 0
M  V30 419 H 46.3296 0.541098 4.64962 0
M  V30 420 H 46.5026 0.999445 6.40246 0
M  V30 421 N 39.9087 -1.5758 0.0250728 0
M  V30 422 C 41.1557 -1.91633 -0.654444 0
M  V30 423 C 41.4837 -0.901103 -1.72367 0
M  V30 424 O 40.7387 0.0905647 -1.9549 0
M  V30 425 C 41.0377 -3.32421 -1.31268 0
M  V30 426 C 40.7037 -4.49344 -0.374223 0
M  V30 427 C 39.3657 -4.8106 -0.115911 0
M  V30 428 C 41.7177 -5.20498 0.270432 0
M  V30 429 C 39.0457 -5.8129 0.79493 0
M  V30 430 C 41.3977 -6.21699 1.1693 0
M  V30 431 C 40.0617 -6.51859 1.43655 0
M  V30 432 H 39.3317 -0.701236 -0.239478 0
M  V30 433 H 41.9787 -1.91307 0.0859734 0
M  V30 434 H 40.2837 -3.28989 -2.12775 0
M  V30 435 H 41.9807 -3.56038 -1.84494 0
M  V30 436 H 38.5707 -4.24579 -0.58573 0
M  V30 437 H 42.7547 -4.96229 0.0839194 0
M  V30 438 H 38.0107 -6.03005 1.00973 0
M  V30 439 H 42.1847 -6.75955 1.67504 0
M  V30 440 H 39.8117 -7.2934 2.144 0
M  V30 441 N 41.3868 0.248026 -1.55636 0
M  V30 442 C 42.6338 0.976224 -1.77415 0
M  V30 443 C 42.9618 1.85361 -0.589193 0
M  V30 444 O 42.2168 1.90973 0.427529 0
M  V30 445 C 42.5158 1.86819 -3.04686 0
M  V30 446 C 42.1818 1.14625 -4.36087 0
M  V30 447 C 40.8438 0.946723 -4.71795 0
M  V30 448 C 43.1958 0.634463 -5.17324 0
M  V30 449 C 40.5238 0.223091 -5.86276 0
M  V30 450 C 42.8758 -0.0756959 -6.32555 0
M  V30 451 C 41.5398 -0.286711 -6.66884 0
M  V30 452 H 40.8098 0.357226 -0.649208 0
M  V30 453 H 43.4568 0.246415 -1.89908 0
M  V30 454 H 41.7618 2.66502 -2.872 0
M  V30 455 H 43.4588 2.43329 -3.18735 0
M  V30 456 H 40.0488 1.3117 -4.08035 0
M  V30 457 H 44.2328 0.77616 -4.90193 0
M  V30 458 H 39.4888 0.0491185 -6.1138 0
M  V30 459 H 43.6628 -0.479899 -6.94745 0
M  V30 460 H 41.2898 -0.849389 -7.5544 0
M  V30 461 N 42.8649 1.48995 0.513639 0
M  V30 462 C 43.7969 1.60836 1.63293 0
M  V30 463 C 44.8099 0.491701 1.55197 0
M  V30 464 O 45.9989 0.763238 1.6136 0
M  V30 465 C 43.0989 1.53731 3.02027 0
M  V30 466 C 42.2719 2.80715 3.35437 0
M  V30 467 C 41.3309 2.66837 4.53525 0
M  V30 468 O 40.3569 3.40753 4.55934 0
M  V30 469 N 41.5589 1.77539 5.52684 0
M  V30 470 H 44.3239 2.57366 1.53566 0
M  V30 471 H 41.8849 1.45925 0.701259 0
M  V30 472 H 43.8769 1.42118 3.78926 0
M  V30 473 H 42.4469 0.651092 3.05744 0
M  V30 474 H 41.6669 3.06772 2.47557 0
M  V30 475 H 42.9549 3.64927 3.54551 0
M  V30 476 H 42.3529 1.16719 5.53528 0
M  V30 477 H 40.9099 1.71856 6.28736 0
M  V30 478 N 44.343 -0.763751 1.37857 0
M  V30 479 C 45.759 -1.06542 1.18832 0
M  V30 480 C 45.959 -2.01478 0.0299722 0
M  V30 481 O 45.015 -2.4458 -0.627447 0
M  V30 482 C 46.328 -1.65525 2.51042 0
M  V30 483 C 47.876 -1.77745 2.57635 0
M  V30 484 C 48.351 -2.4014 3.89996 0
M  V30 485 N 49.842 -2.47582 3.91481 0
M  V30 486 C 50.577 -2.96732 4.9065 0
M  V30 487 N 50.073 -3.45993 6.00217 0
M  V30 488 N 51.866 -2.95679 4.78048 0
M  V30 489 H 44.017 -0.133556 2.1198 0
M  V30 490 H 46.28 -0.121879 0.940133 0
M  V30 491 H 45.986 -1.03236 3.36207 0
M  V30 492 H 45.86 -2.64719 2.68707 0
M  V30 493 H 48.247 -2.39164 1.72872 0
M  V30 494 H 48.328 -0.772836 2.43846 0
M  V30 495 H 47.972 -1.79358 4.75177 0
M  V30 496 H 47.902 -3.41223 4.01092 0
M  V30 497 H 50.393 -2.1273 3.12337 0
M  V30 498 H 50.706 -3.81922 6.7183 0
M  V30 499 H 49.051 -3.44077 6.03851 0
M  V30 500 H 52.242 -2.56499 3.91568 0
M  V30 501 H 52.415 -3.33672 5.55488 0
M  V30 502 N 45.8211 -1.22559 -0.990812 0
M  V30 503 C 47.0611 -1.06302 -1.74583 0
M  V30 504 C 47.4251 0.394737 -1.87898 0
M  V30 505 O 48.6261 0.678214 -2.60103 0
M  V30 506 C 46.8971 -1.75699 -3.11231 0
M  V30 507 S 48.4561 -1.74882 -4.02445 0
M  V30 508 H 45.2741 -0.380639 -0.600529 0
M  V30 509 H 47.8761 -1.55532 -1.18449 0
M  V30 510 H 46.5801 -2.80923 -2.99183 0
M  V30 511 H 46.1111 -1.26708 -3.72436 0
M  V30 512 H 48.1261 -0.799997 -4.89709 0
M  V30 513 N 47.2992 1.18797 -1.03562 0
M  V30 514 C 48.2292 2.24472 -0.643019 0
M  V30 515 C 49.2102 1.66433 0.351283 0
M  V30 516 O 50.3952 1.92803 0.232505 0
M  V30 517 C 47.5252 3.473 4.24935e-05 0
M  V30 518 C 46.4792 4.18055 -0.917257 0
M  V30 519 C 45.8052 5.34519 -0.138941 0
M  V30 520 C 47.1052 4.72109 -2.23407 0
M  V30 521 H 48.7992 2.57566 -1.52643 0
M  V30 522 H 46.3452 1.23806 -0.735394 0
M  V30 523 H 48.2982 4.20426 0.286383 0
M  V30 524 H 47.0222 3.13424 0.918299 0
M  V30 525 H 45.6812 3.46821 -1.1879 0
M  V30 526 H 45.3292 4.96891 0.781562 0
M  V30 527 H 45.0292 5.82794 -0.750005 0
M  V30 528 H 46.5532 6.10438 0.1405 0
M  V30 529 H 47.9672 5.36955 -2.00879 0
M  V30 530 H 46.3642 5.30897 -2.79765 0
M  V30 531 H 47.4342 3.89807 -2.88407 0
M  V30 532 N 48.7773 0.814389 1.34928 0
M  V30 533 C 49.7093 0.187834 2.28429 0
M  V30 534 C 50.7223 -0.617374 1.5064 0
M  V30 535 O 51.9113 -0.448454 1.72775 0
M  V30 536 C 49.0113 -0.755962 3.30361 0
M  V30 537 C 48.1843 0.00456686 4.374 0
M  V30 538 C 47.2433 -0.858876 5.19143 0
M  V30 539 O 46.2693 -0.306968 5.68372 0
M  V30 540 N 47.4713 -2.17988 5.38016 0
M  V30 541 H 50.2363 0.991105 2.82838 0
M  V30 542 H 47.7973 0.670561 1.4736 0
M  V30 543 H 49.7893 -1.338 3.81942 0
M  V30 544 H 48.3593 -1.46001 2.7641 0
M  V30 545 H 47.5793 0.767865 3.86649 0
M  V30 546 H 48.8673 0.528422 5.06049 0
M  V30 547 H 48.2653 -2.65212 4.99679 0
M  V30 548 H 46.8223 -2.71098 5.92747 0
M  V30 549 N 50.2554 -1.46986 0.568584 0
M  V30 550 C 51.5014 -2.02741 0.0488709 0
M  V30 551 C 51.8344 -1.44077 -1.30214 0
M  V30 552 O 51.1094 -0.600552 -1.84996 0
M  V30 553 C 51.3924 -3.60086 -0.032047 0
M  V30 554 C 51.2454 -4.29162 1.34686 0
M  V30 555 C 52.5644 -4.33838 -0.739798 0
M  V30 556 H 49.6834 -0.736749 0.0192338 0
M  V30 557 H 52.3254 -1.75289 0.733065 0
M  V30 558 H 50.4754 -3.83606 -0.61473 0
M  V30 559 H 52.1474 -4.16948 1.97362 0
M  V30 560 H 50.3904 -3.89073 1.91846 0
M  V30 561 H 51.0614 -5.37826 1.24285 0
M  V30 562 H 53.5374 -4.15378 -0.244939 0
M  V30 563 H 52.4134 -5.43537 -0.765406 0
M  V30 564 H 52.6744 -4.03875 -1.79827 0
M  V30 565 N 51.7335 -0.305618 -1.54608 0
M  V30 566 C 52.6635 0.561482 -2.26649 0
M  V30 567 C 53.6445 1.13415 -1.26772 0
M  V30 568 O 54.8295 1.16262 -1.55553 0
M  V30 569 C 51.9595 1.73122 -3.01075 0
M  V30 570 C 50.9135 1.2887 -4.08138 0
M  V30 571 C 50.2395 2.54396 -4.70305 0
M  V30 572 C 51.5395 0.416578 -5.20636 0
M  V30 573 H 53.2335 -0.0393902 -2.99374 0
M  V30 574 H 50.7795 -0.020385 -1.43986 0
M  V30 575 H 52.7325 2.34396 -3.50195 0
M  V30 576 H 51.4565 2.3584 -2.25936 0
M  V30 577 H 50.1155 0.698991 -3.59875 0
M  V30 578 H 49.7635 3.15439 -3.918 0
M  V30 579 H 49.4635 2.25486 -5.42614 0
M  V30 580 H 50.9875 3.16464 -5.2219 0
M  V30 581 H 52.4015 0.935116 -5.65622 0
M  V30 582 H 50.7985 0.221046 -5.99693 0
M  V30 583 H 51.8685 -0.557162 -4.81688 0
M  V30 584 N 53.2116 1.57565 -0.0334293 0
M  V30 585 C 54.6226 1.79746 0.504798 0
M  V30 586 C 54.9736 0.944091 1.71992 0
M  V30 587 O 54.0986 0.155694 2.15839 0
M  V30 588 C 54.6936 3.25997 0.922567 0
M  V30 589 C 53.2526 3.49159 1.40588 0
M  V30 590 C 52.3996 2.74785 0.372633 0
M  V30 591 H 55.3506 1.56565 -0.259436 0
M  V30 592 H 55.3716 3.35945 1.78666 0
M  V30 593 H 54.8836 3.88081 0.0379825 0
M  V30 594 H 52.9846 2.92332 2.31025 0
M  V30 595 H 53.0976 4.57873 1.41028 0
M  V30 596 H 51.4616 2.40391 0.841672 0
M  V30 597 H 52.2446 3.39587 -0.503559 0
M  V30 598 N 54.6897 -0.239769 1.55765 0
M  V30 599 C 55.5997 -1.31831 1.94056 0
M  V30 600 C 56.6157 -1.52275 0.841925 0
M  V30 601 O 57.7917 -1.65759 1.14394 0
M  V30 602 C 54.8567 -2.65156 2.23368 0
M  V30 603 C 53.9177 -2.53173 3.46701 0
M  V30 604 C 53.1507 -3.8014 3.74606 0
M  V30 605 O 53.3737 -4.82343 3.04469 0
M  V30 606 O 52.3077 -3.78344 4.68123 0
M  V30 607 H 56.1337 -1.02347 2.85935 0
M  V30 608 H 53.7187 -0.441123 1.42739 0
M  V30 609 H 55.6007 -3.43929 2.43497 0
M  V30 610 H 54.2757 -2.94358 1.34666 0
M  V30 611 H 53.1827 -1.72662 3.31871 0
M  V30 612 H 54.5157 -2.28915 4.35728 0
M  V30 613 N 56.1678 -1.49265 -0.50573 0
M  V30 614 C 57.5838 -1.35923 -0.836486 0
M  V30 615 C 57.7838 -0.388704 -1.97715 0
M  V30 616 O 56.8398 0.181336 -2.51848 0
M  V30 617 C 58.1528 -2.76531 -1.18115 0
M  V30 618 C 59.7008 -2.85197 -1.28964 0
M  V30 619 C 60.1758 -4.26561 -1.66761 0
M  V30 620 N 61.6668 -4.2935 -1.73819 0
M  V30 621 C 62.4018 -5.35693 -2.045 0
M  V30 622 N 61.8978 -6.52287 -2.33438 0
M  V30 623 N 63.6908 -5.23105 -2.05711 0
M  V30 624 H 55.8418 -2.10965 0.246519 0
M  V30 625 H 58.1048 -0.9468 0.0476887 0
M  V30 626 H 57.8108 -3.49226 -0.416398 0
M  V30 627 H 57.6848 -3.11599 -2.1257 0
M  V30 628 H 60.0718 -2.12742 -2.04511 0
M  V30 629 H 60.1528 -2.53718 -0.325704 0
M  V30 630 H 59.7968 -4.99541 -0.917656 0
M  V30 631 H 59.7268 -4.55502 -2.64246 0
M  V30 632 H 62.2178 -3.4526 -1.53635 0
M  V30 633 H 62.5308 -7.29158 -2.56024 0
M  V30 634 H 60.8758 -6.55521 -2.30905 0
M  V30 635 H 64.0668 -4.31026 -1.82577 0
M  V30 636 H 64.2398 -6.06078 -2.29289 0
M  V30 637 N 57.6459 0.756429 -1.3826 0
M  V30 638 C 58.8759 1.54341 -1.3734 0
M  V30 639 C 59.2839 1.89159 0.0393917 0
M  V30 640 O 58.6269 1.5307 1.01565 0
M  V30 641 C 58.6889 2.87238 -2.16182 0
M  V30 642 C 58.3529 2.74973 -3.65019 0
M  V30 643 C 59.3499 2.44962 -4.58574 0
M  V30 644 C 57.0349 2.92515 -4.08338 0
M  V30 645 C 59.0289 2.32642 -5.93428 0
M  V30 646 C 56.7159 2.79815 -5.43274 0
M  V30 647 C 57.7139 2.49921 -6.35632 0
M  V30 648 O 57.4019 2.37275 -7.68086 0
M  V30 649 H 57.1339 0.484281 -0.471643 0
M  V30 650 H 59.6879 0.944152 -1.82414 0
M  V30 651 H 57.9179 3.49342 -1.65822 0
M  V30 652 H 59.6069 3.48731 -2.07705 0
M  V30 653 H 60.3729 2.31081 -4.26412 0
M  V30 654 H 56.2519 3.14781 -3.368 0
M  V30 655 H 59.7959 2.0923 -6.65484 0
M  V30 656 H 55.6929 2.93269 -5.75034 0
M  V30 657 H 56.4609 2.52509 -7.78577 0
M  V30 658 N 59.124 1.23083 0.984299 0
M  V30 659 C 60.349 1.088 1.76571 0
M  V30 660 C 60.774 -0.356657 1.84688 0
M  V30 661 O 60.132 -1.25788 1.30565 0
M  V30 662 C 60.18 1.71371 3.17277 0
M  V30 663 O 59.284 0.973213 4.00752 0
M  V30 664 H 58.625 0.381599 0.543395 0
M  V30 665 H 61.155 1.63057 1.23587 0
M  V30 666 H 61.165 1.76449 3.67872 0
M  V30 667 H 59.84 2.76493 3.10684 0
M  V30 668 H 58.417 0.999078 3.59267 0
M  V30 669 N 60.6021 -1.18246 1.0419 0
M  V30 670 C 61.8271 -1.92736 0.765996 0
M  V30 671 C 62.2521 -1.75728 -0.67091 0
M  V30 672 O 61.6101 -1.06825 -1.46486 0
M  V30 673 C 61.6581 -3.42148 1.13875 0
M  V30 674 O 60.7621 -4.11548 0.264954 0
M  V30 675 H 60.1031 -0.601238 0.281797 0
M  V30 676 H 62.6331 -1.49942 1.39207 0
M  V30 677 H 62.6431 -3.92858 1.1012 0
M  V30 678 H 61.3181 -3.53848 2.18551 0
M  V30 679 H 59.8951 -3.71137 0.362226 0
M  V30 680 N 62.0802 -0.821533 -1.34494 0
M  V30 681 C 63.0102 -0.257138 -2.3208 0
M  V30 682 C 63.9912 0.625645 -1.58176 0
M  V30 683 O 65.1762 0.552811 -1.86166 0
M  V30 684 C 62.3062 0.582958 -3.42372 0
M  V30 685 C 61.2602 -0.202571 -4.2752 0
M  V30 686 C 60.5862 0.760179 -5.29269 0
M  V30 687 C 61.8862 -1.40998 -5.02908 0
M  V30 688 H 63.5802 -1.07247 -2.79532 0
M  V30 689 H 61.1262 -0.517163 -1.34393 0
M  V30 690 H 63.0792 0.987972 -4.09655 0
M  V30 691 H 61.8032 1.43133 -2.93565 0
M  V30 692 H 60.4622 -0.588936 -3.61838 0
M  V30 693 H 60.1102 1.60447 -4.76724 0
M  V30 694 H 59.8102 0.238809 -5.87115 0
M  V30 695 H 61.3342 1.16308 -5.9942 0
M  V30 696 H 62.7482 -1.07905 -5.63054 0
M  V30 697 H 61.1452 -1.86689 -5.70322 0
M  V30 698 H 62.2152 -2.1889 -4.32684 0
M  V30 699 N 63.5583 1.46682 -0.576371 0
M  V30 700 C 64.4683 2.34032 0.163141 0
M  V30 701 C 65.4843 1.49367 0.892501 0
M  V30 702 O 66.6603 1.82252 0.857106 0
M  V30 703 C 63.7253 3.26435 1.16795 0
M  V30 704 C 62.7863 4.26998 0.443944 0
M  V30 705 C 62.0193 5.14986 1.40088 0
M  V30 706 O 62.2423 5.05785 2.637 0
M  V30 707 O 61.1763 5.94906 0.914917 0
M  V30 708 H 65.0023 2.98607 -0.55388 0
M  V30 709 H 62.5873 1.45554 -0.336821 0
M  V30 710 H 64.4693 3.83459 1.74748 0
M  V30 711 H 63.1443 2.64465 1.86655 0
M  V30 712 H 62.0513 3.7368 -0.177271 0
M  V30 713 H 63.3843 4.91736 -0.213566 0
M  V30 714 N 65.0364 0.313813 1.54444 0
M  V30 715 C 66.2644 -0.293918 2.04802 0
M  V30 716 C 66.6794 -1.46537 1.19047 0
M  V30 717 O 66.0364 -1.81182 0.218939 0
M  V30 718 C 66.0874 -0.737806 3.53891 0
M  V30 719 O 65.8084 0.387038 4.36387 0
M  V30 720 C 67.3094 -1.40936 4.203 0
M  V30 721 H 64.5294 -0.0620057 0.668129 0
M  V30 722 H 67.0734 0.457169 1.99324 0
M  V30 723 H 65.2284 -1.43889 3.59687 0
M  V30 724 H 65.6424 0.0391274 5.24485 0
M  V30 725 H 67.1164 -1.67099 5.26101 0
M  V30 726 H 67.5934 -2.35355 3.70816 0
M  V30 727 H 68.1994 -0.751117 4.18615 0
M  V30 728 N 66.5145 -1.57545 0.0417849 0
M  V30 729 C 67.7395 -1.97035 -0.647455 0
M  V30 730 C 68.1645 -0.918775 -1.64135 0
M  V30 731 O 67.5225 0.119006 -1.80909 0
M  V30 732 C 67.5705 -3.35609 -1.31905 0
M  V30 733 O 66.6745 -3.3287 -2.43457 0
M  V30 734 H 66.0155 -0.64211 -0.169086 0
M  V30 735 H 68.5455 -2.04318 0.107399 0
M  V30 736 H 68.5555 -3.72126 -1.67291 0
M  V30 737 H 67.2305 -4.11685 -0.590586 0
M  V30 738 H 65.8075 -3.08087 -2.10088 0
M  V30 739 N 67.9926 0.231505 -1.5589 0
M  V30 740 C 69.4086 0.580748 -1.48659 0
M  V30 741 C 69.6086 1.87617 -0.73498 0
M  V30 742 O 68.6646 2.51046 -0.270586 0
M  V30 743 C 69.9776 0.669202 -2.93159 0
M  V30 744 C 71.5256 0.760499 -3.03621 0
M  V30 745 C 72.0006 0.880383 -4.49459 0
M  V30 746 N 73.4916 0.944861 -4.53461 0
M  V30 747 C 74.2266 1.05716 -5.63571 0
M  V30 748 N 73.7226 1.13403 -6.83456 0
M  V30 749 N 75.5156 1.09152 -5.514 0
M  V30 750 H 67.6666 -0.618695 -2.03189 0
M  V30 751 H 69.9296 -0.215728 -0.923128 0
M  V30 752 H 69.6356 -0.212904 -3.51055 0
M  V30 753 H 69.5096 1.5361 -3.44505 0
M  V30 754 H 71.8966 1.63305 -2.45796 0
M  V30 755 H 71.9776 -0.131864 -2.5546 0
M  V30 756 H 71.6216 0.0123284 -5.07899 0
M  V30 757 H 71.5516 1.78802 -4.95316 0
M  V30 758 H 74.0426 0.896176 -3.6712 0
M  V30 759 H 74.3556 1.21921 -7.63122 0
M  V30 760 H 72.7006 1.10333 -6.86186 0
M  V30 761 H 75.8916 1.02805 -4.56671 0
M  V30 762 H 76.0646 1.17558 -6.37247 0
M  V30 763 N 69.4707 1.49531 0.497807 0
M  V30 764 C 70.4007 1.6935 1.60757 0
M  V30 765 C 71.3817 0.542218 1.61227 0
M  V30 766 O 72.5667 0.778417 1.77917 0
M  V30 767 C 69.6967 1.76298 2.99226 0
M  V30 768 C 68.6507 2.91248 3.13622 0
M  V30 769 C 67.9767 2.83312 4.53474 0
M  V30 770 C 69.2767 4.3214 2.93346 0
M  V30 771 H 70.9707 2.62263 1.44425 0
M  V30 772 H 68.5167 1.26208 0.693367 0
M  V30 773 H 70.4697 1.88749 3.76765 0
M  V30 774 H 69.1937 0.799871 3.16654 0
M  V30 775 H 67.8527 2.78404 2.38509 0
M  V30 776 H 67.5007 1.84902 4.67782 0
M  V30 777 H 67.2007 3.60465 4.64046 0
M  V30 778 H 68.7247 2.97775 5.33069 0
M  V30 779 H 70.1387 4.45649 3.60652 0
M  V30 780 H 68.5357 5.1054 3.15387 0
M  V30 781 H 69.6057 4.46363 1.89441 0
M  V30 782 N 70.9488 -0.749086 1.3866 0
M  V30 783 C 72.1768 -1.53834 1.38358 0
M  V30 784 C 72.5918 -1.88783 -0.0255219 0
M  V30 785 O 71.9488 -1.53101 -0.993292 0
M  V30 786 C 71.9998 -2.83468 2.2434 0
M  V30 787 O 71.7208 -2.50008 3.5976 0
M  V30 788 C 73.2218 -3.7758 2.32267 0
M  V30 789 H 70.4418 -0.47585 0.473083 0
M  V30 790 H 72.9858 -0.926726 1.82297 0
M  V30 791 H 71.1408 -3.40995 1.83851 0
M  V30 792 H 71.5548 -3.33182 4.05081 0
M  V30 793 H 73.0288 -4.65478 2.96706 0
M  V30 794 H 73.5058 -4.18334 1.33765 0
M  V30 795 H 74.1118 -3.25976 2.73166 0
M  V30 796 N 72.4269 -1.23603 -0.977757 0
M  V30 797 C 73.6759 -1.06377 -1.71368 0
M  V30 798 C 73.9889 0.399062 -1.91486 0
M  V30 799 O 75.1949 0.691312 -2.62551 0
M  V30 800 C 73.6509 -1.85512 -3.08404 0
M  V30 801 C 73.2589 -3.36141 -2.96164 0
M  V30 802 C 75.0029 -1.76783 -3.85938 0
M  V30 803 C 72.9099 -4.07659 -4.28449 0
M  V30 804 H 71.8399 -0.394452 -0.642591 0
M  V30 805 H 74.4909 -1.47594 -1.09034 0
M  V30 806 H 72.8729 -1.37103 -3.71509 0
M  V30 807 H 74.0469 -3.92056 -2.42133 0
M  V30 808 H 72.3619 -3.45712 -2.32104 0
M  V30 809 H 74.9589 -2.27526 -4.83876 0
M  V30 810 H 75.3019 -0.731116 -4.0983 0
M  V30 811 H 75.8349 -2.22818 -3.2954 0
M  V30 812 H 72.5739 -5.11648 -4.09752 0
M  V30 813 H 72.0939 -3.5653 -4.82334 0
M  V30 814 H 73.7729 -4.141 -4.97122 0
M  V30 815 N 73.905 1.17692 -1.04816 0
M  V30 816 C 74.868 2.19787 -0.650117 0
M  V30 817 C 75.868 1.58044 0.296427 0
M  V30 818 O 77.058 1.74012 0.0808097 0
M  V30 819 C 74.19 3.40869 0.0456987 0
M  V30 820 H 75.383 2.56516 -1.5537 0
M  V30 821 H 72.936 1.31708 -0.841594 0
M  V30 822 H 73.671 3.09681 0.962726 0
M  V30 823 H 73.456 3.86928 -0.634727 0
M  V30 824 H 74.946 4.16445 0.310432 0
M  V30 825 N 75.3831 0.828654 1.34056 0
M  V30 826 C 76.6301 0.419458 1.98108 0
M  V30 827 C 76.9581 -1.01886 1.65679 0
M  V30 828 O 76.2131 -1.72539 0.923512 0
M  V30 829 C 76.5121 0.575226 3.52741 0
M  V30 830 C 76.1781 1.98012 4.05095 0
M  V30 831 C 74.8401 2.36442 4.19104 0
M  V30 832 C 77.1921 2.89824 4.33188 0
M  V30 833 C 74.5201 3.66009 4.58535 0
M  V30 834 C 76.8721 4.1886 4.74066 0
M  V30 835 C 75.5361 4.5726 4.86281 0
M  V30 836 H 74.8061 0.153491 0.724929 0
M  V30 837 H 77.4531 1.05371 1.59904 0
M  V30 838 H 75.7581 -0.142385 3.91541 0
M  V30 839 H 77.4551 0.239057 4.00287 0
M  V30 840 H 74.0451 1.67162 3.94658 0
M  V30 841 H 78.2291 2.61375 4.21897 0
M  V30 842 H 73.4851 3.95579 4.66184 0
M  V30 843 H 77.6591 4.90086 4.94761 0
M  V30 844 H 75.2861 5.57707 5.16592 0
M  V30 845 N 76.8612 -1.46375 0.584142 0
M  V30 846 C 78.1082 -2.02378 0.0702675 0
M  V30 847 C 78.4362 -1.45545 -1.29023 0
M  V30 848 O 77.6912 -0.610967 -1.85918 0
M  V30 849 C 77.9902 -3.57373 -0.0439342 0
M  V30 850 C 77.6562 -4.33252 1.24915 0
M  V30 851 C 76.3182 -4.53701 1.60341 0
M  V30 852 C 78.6702 -4.7681 2.1048 0
M  V30 853 C 75.9982 -5.1496 2.81128 0
M  V30 854 C 78.3502 -5.39404 3.30494 0
M  V30 855 C 77.0142 -5.5808 3.66201 0
M  V30 856 H 76.2842 -0.740554 0.0257127 0
M  V30 857 H 78.9312 -1.75727 0.761065 0
M  V30 858 H 77.2362 -3.83169 -0.817869 0
M  V30 859 H 78.9332 -3.98384 -0.457318 0
M  V30 860 H 75.5232 -4.17633 0.963364 0
M  V30 861 H 79.7072 -4.60766 1.84414 0
M  V30 862 H 74.9632 -5.27611 3.08928 0
M  V30 863 H 79.1372 -5.72114 3.97063 0
M  V30 864 H 76.7642 -6.05318 4.59885 0
M  V30 865 N 78.3393 -0.321999 -1.54275 0
M  V30 866 C 79.3023 0.531975 -2.22941 0
M  V30 867 C 80.3023 1.04478 -1.22234 0
M  V30 868 O 81.4923 0.937452 -1.46825 0
M  V30 869 C 78.6243 1.73874 -2.93224 0
M  V30 870 H 79.8173 -0.0682612 -2.99822 0
M  V30 871 H 77.3703 -0.0730644 -1.56129 0
M  V30 872 H 78.1053 2.37825 -2.20476 0
M  V30 873 H 77.8903 1.37847 -3.6707 0
M  V30 874 H 79.3803 2.34496 -3.45545 0
M  V30 875 N 79.8174 1.5752 -0.0501392 0
M  V30 876 C 80.7474 2.14502 0.922566 0
M  V30 877 C 81.7284 1.06642 1.3252 0
M  V30 878 O 82.9134 1.34577 1.4001 0
M  V30 879 C 80.0434 2.68916 2.19776 0
M  V30 880 C 78.9974 3.8175 1.93523 0
M  V30 881 C 78.3234 4.22677 3.27487 0
M  V30 882 C 79.6234 5.06932 1.25765 0
M  V30 883 H 81.3174 2.9603 0.447952 0
M  V30 884 H 78.8634 1.42401 0.214024 0
M  V30 885 H 80.8164 3.07419 2.88222 0
M  V30 886 H 79.5404 1.84578 2.69441 0
M  V30 887 H 78.1994 3.43718 1.27489 0
M  V30 888 H 77.8474 3.35291 3.74952 0
M  V30 889 H 77.5474 4.98725 3.1072 0
M  V30 890 H 79.0714 4.63779 3.97166 0
M  V30 891 H 80.4854 5.42888 1.84244 0
M  V30 892 H 78.8824 5.88116 1.19328 0
M  V30 893 H 79.9524 4.84337 0.233536 0
M  V30 894 N 81.2955 -0.223234 1.56011 0
M  V30 895 C 82.5205 -0.968978 1.83373 0
M  V30 896 C 82.9455 -1.77227 0.630254 0
M  V30 897 O 82.3035 -1.76345 -0.420959 0
M  V30 898 C 82.3515 -1.86363 3.08709 0
M  V30 899 O 81.4555 -2.95873 2.87285 0
M  V30 900 H 80.7965 -0.274461 0.604622 0
M  V30 901 H 83.3265 -0.237056 2.03222 0
M  V30 902 H 83.3365 -2.27376 3.38768 0
M  V30 903 H 82.0115 -1.27319 3.95933 0
M  V30 904 H 80.5885 -2.58818 2.68454 0
M  V30 905 N 82.7736 -1.49793 -0.48987 0
M  V30 906 C 84.0216 -1.59525 -1.24081 0
M  V30 907 C 84.3426 -0.288953 -1.92847 0
M  V30 908 O 83.6126 0.692436 -1.83254 0
M  V30 909 H 82.1926 -0.587796 -0.460983 0
M  V30 910 H 84.8546 -1.86477 -0.566778 0
M  V30 911 H 83.9506 -2.39696 -1.99881 0
M  V30 912 N 84.2517 0.741722 -1.39055 0
M  V30 913 C 85.1817 1.869 -1.39966 0
M  V30 914 C 86.1627 1.6804 -0.26392 0
M  V30 915 O 87.3477 1.88458 -0.468755 0
M  V30 916 C 84.4777 3.24572 -1.23574 0
M  V30 917 C 83.4317 3.58056 -2.34477 0
M  V30 918 C 82.7577 4.94593 -2.0318 0
M  V30 919 C 84.0577 3.61716 -3.76774 0
M  V30 920 H 85.7517 1.86395 -2.34302 0
M  V30 921 H 83.2977 0.895361 -1.1278 0
M  V30 922 H 85.2507 4.031 -1.22834 0
M  V30 923 H 83.9747 3.25587 -0.257045 0
M  V30 924 H 82.6337 2.81854 -2.34423 0
M  V30 925 H 82.2817 4.92181 -1.03765 0
M  V30 926 H 81.9817 5.17964 -2.77465 0
M  V30 927 H 83.5057 5.75486 -2.04079 0
M  V30 928 H 84.9197 4.30335 -3.78794 0
M  V30 929 H 83.3167 3.96603 -4.50362 0
M  V30 930 H 84.3867 2.61672 -4.08235 0
M  V30 931 N 85.7298 1.2412 0.971189 0
M  V30 932 C 87.0068 0.986867 1.6888 0
M  V30 933 C 87.3868 -0.491857 2.0529 0
M  V30 934 O 86.7348 -1.46531 1.75331 0
M  V30 935 C 86.9448 1.9063 2.92338 0
M  V30 936 C 88.2928 2.17515 3.64654 0
M  V30 937 O 89.3168 1.88254 3.02388 0
M  V30 938 O 88.1758 2.6719 4.7673 0
M  V30 939 H 85.2698 0.372944 0.738134 0
M  V30 940 H 87.8158 1.35203 1.02559 0
M  V30 941 H 86.5878 2.90552 2.62097 0
M  V30 942 H 86.2108 1.54408 3.66393 0
M  V30 943 N 87.2079 -1.17134 1.05439 0
M  V30 944 C 88.1409 -2.2012 0.601855 0
M  V30 945 C 89.1189 -1.58314 -0.370854 0
M  V30 946 O 90.3029 -1.8638 -0.281882 0
M  V30 947 C 87.4299 -3.38491 -0.118868 0
M  V30 948 C 86.4759 -4.18752 0.809242 0
M  V30 949 S 87.3089 -4.83602 2.29977 0
M  V30 950 C 88.4649 -6.0536 1.59029 0
M  V30 951 H 88.6979 -2.58165 1.47438 0
M  V30 952 H 86.2309 -1.27788 0.866573 0
M  V30 953 H 88.1889 -4.07084 -0.528495 0
M  V30 954 H 86.8499 -2.98829 -0.967465 0
M  V30 955 H 86.0429 -5.03373 0.251379 0
M  V30 956 H 85.6449 -3.5561 1.15835 0
M  V30 957 H 87.9369 -6.71615 0.891017 0
M  V30 958 H 88.8799 -6.65679 2.41407 0
M  V30 959 H 89.2879 -5.54138 1.07663 0
M  V30 960 N 88.686 -0.835752 -1.33615 0
M  V30 961 C 89.616 -0.281739 -2.31794 0
M  V30 962 C 90.597 0.608833 -1.58831 0
M  V30 963 O 91.782 0.533035 -1.86741 0
M  V30 964 C 88.912 0.546612 -3.42971 0
M  V30 965 C 87.866 -0.247904 -4.27281 0
M  V30 966 C 87.192 0.704001 -5.30045 0
M  V30 967 C 88.492 -1.46324 -5.01385 0
M  V30 968 H 90.186 -1.10206 -2.78379 0
M  V30 969 H 87.732 -0.531388 -1.33837 0
M  V30 970 H 89.685 0.944467 -4.1068 0
M  V30 971 H 88.409 1.40011 -2.95067 0
M  V30 972 H 87.068 -0.627281 -3.61194 0
M  V30 973 H 86.716 1.55381 -4.78399 0
M  V30 974 H 86.416 0.176524 -5.87335 0
M  V30 975 H 87.94 1.09944 -6.0062 0
M  V30 976 H 89.354 -1.13871 -5.61877 0
M  V30 977 H 87.751 -1.92728 -5.6831 0
M  V30 978 H 88.821 -2.23467 -4.30338 0
M  V30 979 N 90.1641 1.46063 -0.591896 0
M  V30 980 C 91.4411 1.95595 -0.0137119 0
M  V30 981 C 91.8211 1.5345 1.4497 0
M  V30 982 O 91.1691 0.789543 2.14426 0
M  V30 983 C 91.3791 3.48453 -0.195373 0
M  V30 984 C 92.7271 4.24546 -0.0679765 0
M  V30 985 O 93.7511 3.55982 -0.124681 0
M  V30 986 O 92.6101 5.46467 0.0600579 0
M  V30 987 H 89.7041 0.825795 0.0446279 0
M  V30 988 H 92.2501 1.56303 -0.660859 0
M  V30 989 H 91.0221 3.72045 -1.21235 0
M  V30 990 H 90.6451 3.94597 0.487775 0
M  V30 991 N 91.6422 0.330177 1.54103 0
M  V30 992 C 92.8672 -0.274893 2.0557 0
M  V30 993 C 93.2922 -1.44487 1.20437 0
M  V30 994 O 92.6502 -1.80021 0.214991 0
M  V30 995 C 92.6982 -0.68079 3.54115 0
M  V30 996 O 91.8022 -1.7824 3.71893 0
M  V30 997 H 91.1432 -0.0483849 0.662235 0
M  V30 998 H 93.6732 0.480508 1.98878 0
M  V30 999 H 93.6832 -0.961635 3.96505 0
M  V30 1000 H 92.3582 0.174903 4.15532 0
M  V30 1001 H 90.9352 -1.49985 3.41407 0
M  V30 1002 N 93.1203 -1.57491 0.0584922 0
M  V30 1003 C 94.0503 -2.14988 -0.911178 0
M  V30 1004 C 95.0313 -1.07343 -1.31952 0
M  V30 1005 O 96.2163 -1.35318 -1.39294 0
M  V30 1006 C 93.3463 -2.70078 -2.18347 0
M  V30 1007 C 92.3003 -3.82771 -1.91495 0
M  V30 1008 C 91.6263 -4.24408 -3.25241 0
M  V30 1009 C 92.9263 -5.07592 -1.23075 0
M  V30 1010 H 94.6203 -2.96263 -0.432246 0
M  V30 1011 H 92.1663 -1.42512 -0.206469 0
M  V30 1012 H 94.1193 -3.08943 -2.86587 0
M  V30 1013 H 92.8433 -1.86005 -2.68458 0
M  V30 1014 H 91.5023 -3.44389 -1.25664 0
M  V30 1015 H 91.1503 -3.37275 -3.73168 0
M  V30 1016 H 90.8503 -5.00366 -3.08071 0
M  V30 1017 H 92.3743 -4.65879 -3.94701 0
M  V30 1018 H 93.7883 -5.43857 -1.81362 0
M  V30 1019 H 92.1853 -5.88741 -1.16207 0
M  V30 1020 H 93.2553 -4.84454 -0.207847 0
M  V30 1021 N 94.5984 0.214957 -1.56127 0
M  V30 1022 C 95.8754 0.963093 -1.70247 0
M  V30 1023 C 96.2554 2.02166 -0.60764 0
M  V30 1024 O 95.6034 2.25244 0.384385 0
M  V30 1025 C 95.8134 1.56756 -3.11815 0
M  V30 1026 C 97.1614 2.0573 -3.7143 0
M  V30 1027 O 98.1854 1.66637 -3.14818 0
M  V30 1028 O 97.0444 2.77603 -4.70743 0
M  V30 1029 H 94.1384 0.450321 -0.693643 0
M  V30 1030 H 96.6844 0.206219 -1.68442 0
M  V30 1031 H 95.4564 0.803533 -3.82961 0
M  V30 1032 H 95.0794 2.3898 -3.17765 0
M  V30 1033 N 96.0765 1.50051 0.48192 0
M  V30 1034 C 97.3225 1.60736 1.2366 0
M  V30 1035 C 97.6555 0.301786 1.91841 0
M  V30 1036 O 96.9305 -0.696025 1.8162 0
M  V30 1037 C 97.2135 2.78009 2.28874 0
M  V30 1038 C 97.0665 4.18416 1.65069 0
M  V30 1039 C 98.3855 2.90867 3.30279 0
M  V30 1040 H 95.5045 0.585031 0.448228 0
M  V30 1041 H 98.1465 1.82402 0.531946 0
M  V30 1042 H 96.2965 2.59667 2.88973 0
M  V30 1043 H 97.9685 4.48322 1.0865 0
M  V30 1044 H 96.2115 4.23177 0.954148 0
M  V30 1045 H 96.8825 4.96381 2.41474 0
M  V30 1046 H 99.3585 3.07623 2.80191 0
M  V30 1047 H 98.2345 3.74566 4.01238 0
M  V30 1048 H 98.4955 2.01021 3.93755 0
M  V30 1049 N 97.5546 -0.734337 1.39446 0
M  V30 1050 C 98.8006 -1.49613 1.36908 0
M  V30 1051 C 99.1336 -1.94169 -0.0347829 0
M  V30 1052 O 98.4086 -1.66833 -0.999847 0
M  V30 1053 C 98.6916 -2.73534 2.34203 0
M  V30 1054 C 98.5446 -2.34993 3.83534 0
M  V30 1055 C 99.8636 -3.75635 2.29317 0
M  V30 1056 H 96.9826 -0.542714 0.498629 0
M  V30 1057 H 99.6246 -0.839597 1.70443 0
M  V30 1058 H 97.7746 -3.29553 2.05736 0
M  V30 1059 H 99.4466 -1.84601 4.22753 0
M  V30 1060 H 97.6896 -1.67213 4.00278 0
M  V30 1061 H 98.3606 -3.23738 4.47099 0
M  V30 1062 H 100.837 -3.29203 2.54489 0
M  V30 1063 H 99.7126 -4.60008 2.99472 0
M  V30 1064 H 99.9736 -4.22603 1.29842 0
M  V30 1065 N 99.0327 -1.24633 -0.964593 0
M  V30 1066 C 99.9807 -1.03917 -2.08096 0
M  V30 1067 C 100.975 0.0268581 -1.69379 0
M  V30 1068 O 102.181 -0.127952 -1.79545 0
M  V30 1069 H 98.5557 -0.319044 -0.680966 0
M  V30 1070 H 100.527 -1.98581 -2.22729 0
M  V30 1071 C 99.2757 -0.663983 -3.41301 0
M  V30 1072 H 98.5987 -1.47605 -3.71555 0
M  V30 1073 H 100.039 -0.558663 -4.20303 0
M  V30 1074 C 98.4977 0.629169 -3.30973 0
M  V30 1075 O 99.0277 1.67404 -3.65156 0
M  V30 1076 N 97.2337 0.611057 -2.84103 0
M  V30 1077 H 96.7807 -0.239593 -2.56483 0
M  V30 1078 H 96.7387 1.47647 -2.77575 0
M  V30 1079 N 100.511 1.16574 -1.06058 0
M  V30 1080 C 101.458 2.20883 -0.669263 0
M  V30 1081 C 102.428 1.62729 0.332918 0
M  V30 1082 O 103.613 1.895 0.222346 0
M  V30 1083 C 100.753 3.45049 -0.0593572 0
M  V30 1084 C 99.8658 4.17458 -1.11143 0
M  V30 1085 C 99.0008 5.29135 -0.467916 0
M  V30 1086 C 98.0398 5.93343 -1.50369 0
M  V30 1087 N 97.1768 6.96516 -0.883706 0
M  V30 1088 H 102.017 2.53709 -1.5632 0
M  V30 1089 H 99.5538 1.24616 -0.781625 0
M  V30 1090 H 101.512 4.16033 0.311771 0
M  V30 1091 H 100.142 3.12781 0.797992 0
M  V30 1092 H 99.1938 3.45101 -1.60029 0
M  V30 1093 H 100.506 4.61307 -1.89731 0
M  V30 1094 H 99.6598 6.06684 -0.0436871 0
M  V30 1095 H 98.3988 4.86443 0.349864 0
M  V30 1096 H 97.4038 5.14517 -1.93784 0
M  V30 1097 H 98.6288 6.38114 -2.32352 0
M  V30 1098 H 96.5748 6.55943 -0.086595 0
M  V30 1099 H 96.4918 7.38723 -1.607 0
M  V30 1100 H 97.7598 7.77993 -0.484543 0
M  V30 1101 N 101.989 0.842826 1.3317 0
M  V30 1102 C 103.266 0.362216 1.92217 0
M  V30 1103 C 103.646 -1.15289 1.76838 0
M  V30 1104 O 102.994 -1.96914 1.15919 0
M  V30 1105 C 103.204 0.813495 3.39387 0
M  V30 1106 C 104.552 0.823804 4.16532 0
M  V30 1107 O 105.576 0.757358 3.48055 0
M  V30 1108 O 104.435 0.915193 5.38782 0
M  V30 1109 H 101.529 0.103317 0.820521 0
M  V30 1110 H 104.075 0.928942 1.42017 0
M  V30 1111 H 102.847 1.85624 3.4447 0
M  V30 1112 H 102.47 0.223561 3.96971 0
M  V30 1113 N 103.467 -1.45747 0.599634 0
M  V30 1114 C 104.744 -1.95585 0.0240846 0
M  V30 1115 C 105.124 -1.54217 -1.44154 0
M  V30 1116 O 104.472 -0.800903 -2.14004 0
M  V30 1117 C 104.682 -3.48344 0.21385 0
M  V30 1118 C 106.03 -4.24504 0.0904902 0
M  V30 1119 O 107.054 -3.55911 0.143558 0
M  V30 1120 O 105.913 -5.46491 -0.0310766 0
M  V30 1121 H 103.007 -0.82602 -0.0402478 0
M  V30 1122 H 105.553 -1.55951 0.669139 0
M  V30 1123 H 104.325 -3.71397 1.23206 0
M  V30 1124 H 103.948 -3.9485 -0.466842 0
M  V30 1125 N 104.945 -0.338344 -1.53925 0
M  V30 1126 C 106.194 0.260732 -2.00008 0
M  V30 1127 C 106.507 1.52073 -1.23017 0
M  V30 1128 O 107.713 2.19672 -1.5955 0
M  V30 1129 C 106.169 0.51515 -3.56194 0
M  V30 1130 C 105.777 -0.728645 -4.42035 0
M  V30 1131 C 107.521 1.07337 -4.10706 0
M  V30 1132 C 105.428 -0.445315 -5.89721 0
M  V30 1133 H 104.358 0.101205 -0.747177 0
M  V30 1134 H 107.009 -0.452866 -1.77824 0
M  V30 1135 H 105.391 1.28932 -3.74423 0
M  V30 1136 H 106.565 -1.50352 -4.35581 0
M  V30 1137 H 104.88 -1.20813 -3.98489 0
M  V30 1138 H 107.477 1.30022 -5.18651 0
M  V30 1139 H 107.82 2.0273 -3.63602 0
M  V30 1140 H 108.353 0.360034 -3.96167 0
M  V30 1141 H 105.092 -1.36883 -6.41049 0
M  V30 1142 H 104.612 0.291569 -5.99091 0
M  V30 1143 H 106.291 -0.0606218 -6.46972 0
M  V30 1144 N 106.423 1.57458 -0.0668435 0
M  V30 1145 C 107.672 1.92477 0.602947 0
M  V30 1146 C 107.985 0.948419 1.71068 0
M  V30 1147 O 109.191 1.19124 2.43971 0
M  V30 1148 C 107.647 3.41903 1.12383 0
M  V30 1149 C 107.255 4.47975 0.04737 0
M  V30 1150 C 108.999 3.85931 1.76797 0
M  V30 1151 C 106.906 5.88529 0.582022 0
M  V30 1152 H 105.836 0.718387 0.22899 0
M  V30 1153 H 108.487 1.82978 -0.138276 0
M  V30 1154 H 106.869 3.46459 1.91787 0
M  V30 1155 H 108.043 4.55029 -0.726978 0
M  V30 1156 H 106.358 4.13384 -0.500243 0
M  V30 1157 H 108.955 4.88322 2.17821 0
M  V30 1158 H 109.298 3.23029 2.62599 0
M  V30 1159 H 109.831 3.83958 1.04024 0
M  V30 1160 H 106.57 6.55065 -0.238721 0
M  V30 1161 H 106.09 5.85004 1.324 0
M  V30 1162 H 107.769 6.38258 1.05999 0
M  V30 1163 N 107.901 -0.206675 1.56239 0
M  V30 1164 C 108.811 -1.27686 1.96808 0
M  V30 1165 C 109.827 -1.50455 0.874035 0
M  V30 1166 O 111.003 -1.63295 1.17884 0
M  V30 1167 C 108.068 -2.60358 2.28942 0
M  V30 1168 C 107.129 -2.45762 3.51994 0
M  V30 1169 C 106.362 -3.72108 3.82585 0
M  V30 1170 O 106.585 -4.75776 3.14631 0
M  V30 1171 O 105.519 -3.6833 4.76043 0
M  V30 1172 H 109.345 -0.962593 2.88041 0
M  V30 1173 H 106.93 -0.410746 1.43643 0
M  V30 1174 H 108.812 -3.38687 2.50737 0
M  V30 1175 H 107.487 -2.91435 1.4088 0
M  V30 1176 H 106.394 -1.65584 3.35459 0
M  V30 1177 H 107.727 -2.19621 4.40486 0
M  V30 1178 N 109.379 -1.50304 -0.473955 0
M  V30 1179 C 110.625 -1.62358 -1.22521 0
M  V30 1180 C 110.98 -0.318555 -1.89745 0
M  V30 1181 O 110.273 0.683315 -1.79001 0
M  V30 1182 C 110.467 -2.73938 -2.29549 0
M  V30 1183 C 110.296 -4.15165 -1.72825 0
M  V30 1184 C 109.066 -4.81604 -1.52924 0
M  V30 1185 C 111.264 -4.99503 -1.22481 0
M  V30 1186 N 109.246 -6.07056 -0.91413 0
M  V30 1187 C 110.617 -6.15655 -0.732743 0
M  V30 1188 C 112.672 -4.85299 -1.11308 0
M  V30 1189 C 111.375 -7.19164 -0.139976 0
M  V30 1190 C 113.401 -5.88982 -0.534258 0
M  V30 1191 C 112.763 -7.0438 -0.0525562 0
M  V30 1192 H 108.862 -0.648286 -0.437321 0
M  V30 1193 H 111.446 -1.87413 -0.527692 0
M  V30 1194 H 109.617 -2.50611 -2.9673 0
M  V30 1195 H 111.349 -2.75366 -2.96573 0
M  V30 1196 H 108.104 -4.3885 -1.78067 0
M  V30 1197 H 108.528 -6.74108 -0.625071 0
M  V30 1198 H 113.17 -3.96369 -1.47144 0
M  V30 1199 H 110.888 -8.07771 0.230591 0
M  V30 1200 H 114.474 -5.80055 -0.450219 0
M  V30 1201 H 113.354 -7.83238 0.388324 0
M  V30 1202 N 110.857 0.726932 -1.39834 0
M  V30 1203 C 112.106 1.48214 -1.36805 0
M  V30 1204 C 112.419 1.95576 0.0305291 0
M  V30 1205 O 113.625 2.7088 0.183417 0
M  V30 1206 C 112.081 2.67854 -2.40379 0
M  V30 1207 C 111.689 2.27408 -3.85992 0
M  V30 1208 C 113.433 3.45641 -2.46439 0
M  V30 1209 C 111.34 3.43819 -4.81189 0
M  V30 1210 H 110.27 0.556606 -0.508631 0
M  V30 1211 H 112.921 0.792216 -1.65518 0
M  V30 1212 H 111.303 3.3896 -2.04749 0
M  V30 1213 H 112.477 1.63795 -4.30706 0
M  V30 1214 H 110.792 1.62692 -3.83302 0
M  V30 1215 H 113.389 4.32244 -3.14753 0
M  V30 1216 H 113.732 3.88669 -1.49139 0
M  V30 1217 H 114.265 2.8157 -2.81004 0
M  V30 1218 H 111.004 3.05834 -5.79781 0
M  V30 1219 H 110.524 4.06385 -4.41148 0
M  V30 1220 H 112.203 4.10043 -5.00474 0
M  V30 1221 N 112.336 1.25143 0.95797 0
M  V30 1222 C 113.566 1.12261 1.73439 0
M  V30 1223 C 113.974 -0.326715 1.86358 0
M  V30 1224 O 113.317 -1.2367 1.35836 0
M  V30 1225 C 113.379 1.69966 3.16784 0
M  V30 1226 C 113.043 3.18936 3.27305 0
M  V30 1227 C 114.04 4.15968 3.11877 0
M  V30 1228 C 111.725 3.59083 3.51234 0
M  V30 1229 C 113.719 5.51126 3.20217 0
M  V30 1230 C 111.406 4.9438 3.5921 0
M  V30 1231 C 112.404 5.90211 3.43716 0
M  V30 1232 O 112.092 7.23046 3.51368 0
M  V30 1233 H 111.824 0.392476 0.550399 0
M  V30 1234 H 114.378 1.65927 1.21068 0
M  V30 1235 H 112.608 1.10744 3.70503 0
M  V30 1236 H 114.297 1.52232 3.76272 0
M  V30 1237 H 115.063 3.86292 2.93264 0
M  V30 1238 H 110.942 2.84989 3.62356 0
M  V30 1239 H 114.486 6.25905 3.0804 0
M  V30 1240 H 110.383 5.23723 3.77339 0
M  V30 1241 H 111.151 7.31097 3.6802 0
M  V30 1242 N 113.814 -1.1601 1.06675 0
M  V30 1243 C 115.039 -1.91068 0.806706 0
M  V30 1244 C 115.464 -1.77112 -0.633485 0
M  V30 1245 O 114.822 -1.09908 -1.44187 0
M  V30 1246 C 114.87 -3.39655 1.21106 0
M  V30 1247 O 113.974 -4.10893 0.352189 0
M  V30 1248 H 113.315 -0.595125 0.294486 0
M  V30 1249 H 115.845 -1.46955 1.42356 0
M  V30 1250 H 115.855 -3.90434 1.18428 0
M  V30 1251 H 114.53 -3.49132 2.26008 0
M  V30 1252 H 113.107 -3.70285 0.440868 0
M  V30 1253 N 115.292 -0.849877 -1.32721 0
M  V30 1254 C 116.222 -0.306308 -2.31482 0
M  V30 1255 C 117.203 0.591952 -1.59468 0
M  V30 1256 O 118.388 0.513199 -1.87296 0
M  V30 1257 C 115.518 0.510204 -3.43532 0
M  V30 1258 C 114.472 -0.293209 -4.26994 0
M  V30 1259 C 113.798 0.647743 -5.30762 0
M  V30 1260 C 115.098 -1.51634 -4.99804 0
M  V30 1261 H 116.792 -1.13153 -2.77195 0
M  V30 1262 H 114.338 -0.545553 -1.33266 0
M  V30 1263 H 116.291 0.900856 -4.11658 0
M  V30 1264 H 115.015 1.36874 -2.96535 0
M  V30 1265 H 113.674 -0.665555 -3.60508 0
M  V30 1266 H 113.322 1.50299 -4.8002 0
M  V30 1267 H 113.022 0.11422 -5.87489 0
M  V30 1268 H 114.546 1.03567 -6.01753 0
M  V30 1269 H 115.96 -1.19824 -5.60638 0
M  V30 1270 H 114.357 -1.98745 -5.66234 0
M  V30 1271 H 115.427 -2.28018 -4.27943 0
M  V30 1272 N 116.77 1.45427 -0.607355 0
M  V30 1273 C 117.702 2.2871 0.149752 0
M  V30 1274 C 118.715 1.39937 0.831958 0
M  V30 1275 O 119.904 1.64313 0.697385 0
M  V30 1276 C 117.004 3.15673 1.23304 0
M  V30 1277 C 116.177 4.32722 0.637996 0
M  V30 1278 C 115.236 5.00895 1.61215 0
M  V30 1279 O 114.262 5.57697 1.13854 0
M  V30 1280 N 115.464 5.00159 2.94655 0
M  V30 1281 H 118.229 2.94328 -0.564882 0
M  V30 1282 H 115.79 1.55612 -0.446823 0
M  V30 1283 H 117.782 3.58144 1.88454 0
M  V30 1284 H 116.352 2.51965 1.8502 0
M  V30 1285 H 115.572 3.93734 -0.191572 0
M  V30 1286 H 116.86 5.08321 0.220665 0
M  V30 1287 H 116.258 4.553 3.35735 0
M  V30 1288 H 114.815 5.46495 3.55228 0
M  V30 1289 N 118.248 0.346503 1.53744 0
M  V30 1290 C 119.494 -0.249473 2.0126 0
M  V30 1291 C 119.827 -1.49965 1.23386 0
M  V30 1292 O 119.102 -1.91811 0.32229 0
M  V30 1293 C 119.385 -0.560643 3.55709 0
M  V30 1294 C 119.238 0.701836 4.44291 0
M  V30 1295 C 120.557 -1.36905 4.18264 0
M  V30 1296 H 117.676 -0.0891987 0.731582 0
M  V30 1297 H 120.318 0.467624 1.84156 0
M  V30 1298 H 118.468 -1.17156 3.70414 0
M  V30 1299 H 120.14 1.33974 4.41417 0
M  V30 1300 H 118.383 1.32612 4.13033 0
M  V30 1301 H 119.054 0.43933 5.50249 0
M  V30 1302 H 121.53 -0.852448 4.07275 0
M  V30 1303 H 120.406 -1.55553 5.26398 0
M  V30 1304 H 120.667 -2.37203 3.73078 0
M  V30 1305 N 119.726 -1.57421 0.075193 0
M  V30 1306 C 120.656 -2.15942 -0.888324 0
M  V30 1307 C 121.637 -1.08737 -1.30806 0
M  V30 1308 O 122.822 -1.36787 -1.37851 0
M  V30 1309 C 119.952 -2.72379 -2.1547 0
M  V30 1310 C 118.906 -3.8478 -1.87425 0
M  V30 1311 C 118.232 -4.27834 -3.20721 0
M  V30 1312 C 119.532 -5.08869 -1.17684 0
M  V30 1313 H 121.226 -2.96705 -0.400799 0
M  V30 1314 H 118.772 -1.42723 -0.191342 0
M  V30 1315 H 120.725 -3.11965 -2.83295 0
M  V30 1316 H 119.449 -1.88841 -2.6647 0
M  V30 1317 H 118.108 -3.45703 -1.22004 0
M  V30 1318 H 117.756 -3.41214 -3.6957 0
M  V30 1319 H 117.456 -5.03605 -3.02746 0
M  V30 1320 H 118.98 -4.70039 -3.89738 0
M  V30 1321 H 120.394 -5.4575 -1.75584 0
M  V30 1322 H 118.791 -5.8994 -1.09956 0
M  V30 1323 H 119.861 -4.84648 -0.156453 0
M  V30 1324 N 121.204 0.198386 -1.56346 0
M  V30 1325 C 122.615 0.763358 -1.70381 0
M  V30 1326 C 122.966 1.83995 -0.681203 0
M  V30 1327 O 122.091 2.15785 0.16305 0
M  V30 1328 C 122.686 1.39143 -3.08909 0
M  V30 1329 C 121.245 1.90352 -3.2472 0
M  V30 1330 C 120.392 0.772233 -2.6633 0
M  V30 1331 H 123.343 -0.0266377 -1.58678 0
M  V30 1332 H 123.364 2.26076 -3.06055 0
M  V30 1333 H 122.876 0.607638 -3.83314 0
M  V30 1334 H 120.977 2.71461 -2.55225 0
M  V30 1335 H 121.09 2.06757 -4.3219 0
M  V30 1336 H 119.454 1.18566 -2.2542 0
M  V30 1337 H 120.237 0.00073556 -3.433 0
M  V30 1338 N 122.682 1.50554 0.465978 0
M  V30 1339 C 123.91 1.65563 1.24083 0
M  V30 1340 C 124.325 0.341051 1.85694 0
M  V30 1341 O 123.682 -0.677543 1.69457 0
M  V30 1342 C 123.733 2.75051 2.34583 0
M  V30 1343 O 123.454 4.01413 1.75497 0
M  V30 1344 C 124.955 3.01078 3.25372 0
M  V30 1345 H 122.175 0.55638 0.375077 0
M  V30 1346 H 124.719 1.96807 0.555624 0
M  V30 1347 H 122.874 2.46486 2.9887 0
M  V30 1348 H 123.288 4.62002 2.48303 0
M  V30 1349 H 124.762 3.81339 3.99105 0
M  V30 1350 H 125.239 2.12349 3.84453 0
M  V30 1351 H 125.845 3.31194 2.66816 0
M  V30 1352 N 124.16 -0.719506 1.40217 0
M  V30 1353 C 125.07 -1.86378 1.42479 0
M  V30 1354 C 126.086 -1.71073 0.317834 0
M  V30 1355 O 127.262 -1.93406 0.561794 0
M  V30 1356 C 124.327 -3.22136 1.28178 0
M  V30 1357 C 123.388 -3.49723 2.48982 0
M  V30 1358 C 122.621 -4.79004 2.35353 0
M  V30 1359 O 122.844 -5.53821 1.36524 0
M  V30 1360 O 121.778 -5.06839 3.2465 0
M  V30 1361 H 125.604 -1.87425 2.38968 0
M  V30 1362 H 123.189 -0.869405 1.21498 0
M  V30 1363 H 125.071 -4.03234 1.22395 0
M  V30 1364 H 123.746 -3.21825 0.347934 0
M  V30 1365 H 122.653 -2.6865 2.60342 0
M  V30 1366 H 123.986 -3.54828 3.41113 0
M  V30 1367 N 125.638 -1.25649 -0.95132 0
M  V30 1368 C 126.915 -1.01361 -1.67288 0
M  V30 1369 C 127.295 0.459135 -2.06046 0
M  V30 1370 O 126.643 1.43723 -1.7764 0
M  V30 1371 C 126.853 -1.95256 -2.89268 0
M  V30 1372 C 128.201 -2.23289 -3.61147 0
M  V30 1373 O 129.225 -1.93041 -2.99355 0
M  V30 1374 O 128.084 -2.74741 -4.72419 0
M  V30 1375 H 125.178 -0.38464 -0.732107 0
M  V30 1376 H 127.724 -1.36817 -1.00395 0
M  V30 1377 H 126.496 -2.94685 -2.57442 0
M  V30 1378 H 126.119 -1.60218 -3.6389 0
M  V30 1379 N 127.117 1.15442 -1.07289 0
M  V30 1380 C 128.533 1.38201 -0.798288 0
M  V30 1381 C 128.733 1.92429 0.597769 0
M  V30 1382 O 127.789 2.12962 1.3566 0
M  V30 1383 C 129.102 2.35357 -1.87156 0
M  V30 1384 C 130.65 2.49021 -1.89624 0
M  V30 1385 C 131.125 3.49468 -2.96034 0
M  V30 1386 N 132.616 3.57003 -2.95132 0
M  V30 1387 C 133.351 4.34543 -3.74112 0
M  V30 1388 N 132.847 5.15421 -4.6294 0
M  V30 1389 N 134.64 4.29625 -3.62462 0
M  V30 1390 H 126.791 0.78584 -1.97328 0
M  V30 1391 H 129.054 0.408065 -0.855679 0
M  V30 1392 H 128.76 2.02626 -2.87464 0
M  V30 1393 H 128.634 3.35129 -1.73114 0
M  V30 1394 H 131.021 2.81051 -0.899687 0
M  V30 1395 H 131.102 1.4925 -2.07745 0
M  V30 1396 H 130.746 3.18173 -3.95889 0
M  V30 1397 H 130.676 4.48992 -2.75161 0
M  V30 1398 H 133.167 2.99276 -2.30743 0
M  V30 1399 H 133.48 5.7183 -5.19837 0
M  V30 1400 H 131.825 5.14729 -4.66989 0
M  V30 1401 H 135.016 3.65505 -2.92444 0
M  V30 1402 H 135.189 4.89807 -4.24256 0
M  V30 1403 N 128.595 0.856903 1.32268 0
M  V30 1404 C 129.82 0.474569 2.01897 0
M  V30 1405 C 130.245 -0.921766 1.63967 0
M  V30 1406 O 129.603 -1.60589 0.84148 0
M  V30 1407 C 129.651 0.623799 3.55164 0
M  V30 1408 O 128.755 -0.342459 4.10976 0
M  V30 1409 H 128.096 0.190422 0.63611 0
M  V30 1410 H 130.626 1.15672 1.68764 0
M  V30 1411 H 130.636 0.512169 4.04773 0
M  V30 1412 H 129.311 1.64202 3.82113 0
M  V30 1413 H 127.888 -0.18688 3.72431 0
M  V30 1414 N 130.073 -1.45103 0.615059 0
M  V30 1415 C 131.021 -2.32331 -0.111791 0
M  V30 1416 C 132.015 -1.46409 -0.852102 0
M  V30 1417 O 133.221 -1.62849 -0.766821 0
M  V30 1418 H 129.596 -0.749993 -0.0549072 0
M  V30 1419 H 131.567 -2.91407 0.642225 0
M  V30 1420 C 130.316 -3.3015 -1.09071 0
M  V30 1421 H 129.639 -3.96265 -0.530485 0
M  V30 1422 H 131.079 -3.93898 -1.56908 0
M  V30 1423 C 129.538 -2.57875 -2.168 0
M  V30 1424 O 130.068 -2.36567 -3.24652 0
M  V30 1425 N 128.274 -2.17884 -1.92289 0
M  V30 1426 H 127.821 -2.35413 -1.04587 0
M  V30 1427 H 127.779 -1.6985 -2.64572 0
M  V30 1428 N 131.551 -0.354651 -1.53558 0
M  V30 1429 C 132.481 0.489091 -2.2832 0
M  V30 1430 C 133.462 1.09324 -1.30316 0
M  V30 1431 O 134.647 1.11255 -1.59173 0
M  V30 1432 C 131.777 1.63456 -3.0643 0
M  V30 1433 C 130.731 1.1582 -4.12031 0
M  V30 1434 C 130.057 2.39305 -4.7816 0
M  V30 1435 C 131.357 0.250731 -5.21698 0
M  V30 1436 H 133.051 -0.134614 -2.99097 0
M  V30 1437 H 130.597 -0.0661826 -1.43848 0
M  V30 1438 H 132.55 2.23136 -3.57475 0
M  V30 1439 H 131.274 2.28533 -2.33325 0
M  V30 1440 H 129.933 0.584146 -3.61916 0
M  V30 1441 H 129.581 3.02814 -4.01637 0
M  V30 1442 H 129.281 2.08109 -5.49513 0
M  V30 1443 H 130.805 2.99691 -5.31994 0
M  V30 1444 H 132.219 0.754695 -5.68311 0
M  V30 1445 H 130.616 0.0301468 -6.00092 0
M  V30 1446 H 131.686 -0.710125 -4.79672 0
M  V30 1447 N 133.029 1.57378 -0.0835403 0
M  V30 1448 C 133.977 2.14602 0.89714 0
M  V30 1449 C 134.971 1.08589 1.30018 0
M  V30 1450 O 136.177 1.26952 1.27606 0
M  V30 1451 H 132.552 0.686346 0.3073 0
M  V30 1452 H 134.523 2.95845 0.38969 0
M  V30 1453 C 133.272 2.73188 2.15089 0
M  V30 1454 H 132.595 3.54442 1.84962 0
M  V30 1455 H 134.035 3.1681 2.81793 0
M  V30 1456 C 132.494 1.68517 2.91725 0
M  V30 1457 O 133.024 1.11718 3.85852 0
M  V30 1458 N 131.23 1.39277 2.55049 0
M  V30 1459 H 130.777 1.85655 1.78577 0
M  V30 1460 H 130.735 0.694791 3.06627 0
M  V30 1461 N 134.507 -0.190092 1.56449 0
M  V30 1462 C 135.923 -0.54113 1.50146 0
M  V30 1463 C 136.123 -1.85603 0.784465 0
M  V30 1464 O 135.179 -2.5024 0.337051 0
M  V30 1465 C 136.492 -0.591241 2.9483 0
M  V30 1466 C 138.04 -0.679732 3.0553 0
M  V30 1467 C 138.515 -0.760908 4.51635 0
M  V30 1468 N 140.006 -0.824302 4.55806 0
M  V30 1469 C 140.741 -0.907365 5.66175 0
M  V30 1470 N 140.237 -0.952422 6.86222 0
M  V30 1471 N 142.03 -0.94494 5.541 0
M  V30 1472 H 134.181 0.67235 2.01478 0
M  V30 1473 H 136.444 0.240127 0.917084 0
M  V30 1474 H 136.15 0.305905 3.50367 0
M  V30 1475 H 136.024 -1.44422 3.48457 0
M  V30 1476 H 138.411 -1.56731 2.50039 0
M  V30 1477 H 138.492 0.199549 2.5502 0
M  V30 1478 H 138.136 0.122336 5.07753 0
M  V30 1479 H 138.066 -1.65606 4.99882 0
M  V30 1480 H 140.557 -0.798526 3.69367 0
M  V30 1481 H 140.87 -1.01645 7.66086 0
M  V30 1482 H 139.215 -0.921014 6.8887 0
M  V30 1483 H 142.406 -0.906612 4.59236 0
M  V30 1484 H 142.579 -1.00622 6.4014 0
M  V30 1485 N 135.985 -1.50799 -0.457987 0
M  V30 1486 C 137.225 -1.64088 -1.21879 0
M  V30 1487 C 137.589 -0.339848 -1.88968 0
M  V30 1488 O 138.79 -0.348301 -2.66534 0
M  V30 1489 C 137.061 -2.79726 -2.2246 0
M  V30 1490 S 138.62 -3.13225 -3.07303 0
M  V30 1491 H 135.438 -0.578314 -0.41361 0
M  V30 1492 H 138.04 -1.88632 -0.513645 0
M  V30 1493 H 136.744 -3.72722 -1.71775 0
M  V30 1494 H 136.275 -2.57308 -2.97584 0
M  V30 1495 H 138.29 -2.58062 -4.23814 0
M  V30 1496 N 137.463 0.71206 -1.40597 0
M  V30 1497 C 138.711 1.46907 -1.38791 0
M  V30 1498 C 139.032 1.94998 0.00780391 0
M  V30 1499 O 138.302 1.70587 0.963174 0
M  V30 1500 H 136.882 0.545043 -0.51082 0
M  V30 1501 H 139.544 0.843882 -1.75683 0
M  V30 1502 H 138.64 2.34021 -2.06496 0
M  V30 1503 N 138.941 1.26152 0.944643 0
M  V30 1504 C 140.188 1.11492 1.69044 0
M  V30 1505 C 140.516 -0.342366 1.91463 0
M  V30 1506 O 139.771 -1.26812 1.49054 0
M  V30 1507 C 140.07 1.82541 3.07268 0
M  V30 1508 C 139.736 3.32445 3.04616 0
M  V30 1509 C 138.398 3.73337 3.036 0
M  V30 1510 C 140.75 4.28171 2.97185 0
M  V30 1511 C 138.078 5.08348 2.92915 0
M  V30 1512 C 140.43 5.63218 2.88041 0
M  V30 1513 C 139.094 6.03426 2.85366 0
M  V30 1514 H 138.364 0.407977 0.618576 0
M  V30 1515 H 141.011 1.56551 1.10291 0
M  V30 1516 H 139.316 1.29941 3.69625 0
M  V30 1517 H 141.013 1.68642 3.63815 0
M  V30 1518 H 137.603 2.99915 3.06185 0
M  V30 1519 H 141.787 3.97563 2.97081 0
M  V30 1520 H 137.043 5.38667 2.89219 0
M  V30 1521 H 141.217 6.37078 2.81254 0
M  V30 1522 H 138.844 7.07999 2.76842 0
M  V30 1523 N 140.419 -1.14872 1.07899 0
M  V30 1524 C 141.835 -1.37776 0.805606 0
M  V30 1525 C 142.035 -1.92743 -0.587555 0
M  V30 1526 O 141.091 -2.13678 -1.34528 0
M  V30 1527 C 142.404 -2.34361 1.88402 0
M  V30 1528 C 143.952 -2.48012 1.90942 0
M  V30 1529 C 144.427 -3.47893 2.97883 0
M  V30 1530 N 145.918 -3.55433 2.97021 0
M  V30 1531 C 146.653 -4.32553 3.76412 0
M  V30 1532 N 146.149 -5.12959 4.65666 0
M  V30 1533 N 147.942 -4.27697 3.64735 0
M  V30 1534 H 140.093 -0.775365 1.97742 0
M  V30 1535 H 142.356 -0.403521 0.857831 0
M  V30 1536 H 142.062 -2.01098 2.88535 0
M  V30 1537 H 141.936 -3.34206 1.74889 0
M  V30 1538 H 144.323 -2.8057 0.914579 0
M  V30 1539 H 144.404 -1.48147 2.08534 0
M  V30 1540 H 144.048 -3.16069 3.97571 0
M  V30 1541 H 143.978 -4.47527 2.77538 0
M  V30 1542 H 146.469 -2.98048 2.32326 0
M  V30 1543 H 146.782 -5.69065 5.22862 0
M  V30 1544 H 145.127 -5.12245 4.69712 0
M  V30 1545 H 148.318 -3.63949 2.94378 0
M  V30 1546 H 148.491 -4.8755 4.26848 0
M  V30 1547 N 141.898 -0.863906 -1.31812 0
M  V30 1548 C 143.146 -0.470904 -1.96537 0
M  V30 1549 C 143.467 0.978771 -1.68657 0
M  V30 1550 O 142.737 1.6853 -0.998717 0
M  V30 1551 H 141.317 -0.171148 -0.72713 0
M  V30 1552 H 143.979 -1.10236 -1.60729 0
M  V30 1553 H 143.075 -0.623616 -3.05806 0
M  V30 1554 N 143.376 1.44774 -0.622745 0
M  V30 1555 C 144.601 2.06999 -0.128968 0
M  V30 1556 C 145.026 1.4617 1.1839 0
M  V30 1557 O 144.384 0.560007 1.72434 0
M  V30 1558 C 144.432 3.60595 -0.0188351 0
M  V30 1559 O 143.536 3.99398 1.02739 0
M  V30 1560 H 142.877 0.659047 -0.0809544 0
M  V30 1561 H 145.407 1.85784 -0.85705 0
M  V30 1562 H 145.417 4.07627 0.174476 0
M  V30 1563 H 144.092 4.04252 -0.977384 0
M  V30 1564 H 142.669 3.64011 0.809326 0
M  V30 1565 N 144.854 0.36279 1.53368 0
M  V30 1566 C 146.079 -0.231226 2.06107 0
M  V30 1567 C 146.504 -1.419 1.23474 0
M  V30 1568 O 145.862 -1.79524 0.253128 0
M  V30 1569 C 145.91 -0.605523 3.5548 0
M  V30 1570 O 145.014 -1.70312 3.7559 0
M  V30 1571 H 144.355 -0.034327 0.663112 0
M  V30 1572 H 146.885 0.522584 1.97814 0
M  V30 1573 H 146.895 -0.877314 3.98456 0
M  V30 1574 H 145.57 0.263004 4.15068 0
M  V30 1575 H 144.147 -1.4271 3.44512 0
M  V30 1576 N 146.332 -1.57332 0.0918853 0
M  V30 1577 C 147.562 -1.98286 -0.580205 0
M  V30 1578 C 147.97 -0.969713 -1.6246 0
M  V30 1579 O 147.313 0.0493501 -1.83634 0
M  V30 1580 C 147.375 -3.35603 -1.28882 0
M  V30 1581 C 147.039 -4.55285 -0.395559 0
M  V30 1582 C 148.036 -5.18687 0.355002 0
M  V30 1583 C 145.721 -5.01314 -0.314556 0
M  V30 1584 C 147.715 -6.26484 1.17458 0
M  V30 1585 C 145.402 -6.08979 0.508677 0
M  V30 1586 C 146.4 -6.71429 1.2519 0
M  V30 1587 O 146.088 -7.77018 2.06151 0
M  V30 1588 H 145.82 -0.656678 -0.160466 0
M  V30 1589 H 148.374 -2.04721 0.16688 0
M  V30 1590 H 146.604 -3.25842 -2.08241 0
M  V30 1591 H 148.293 -3.61026 -1.85512 0
M  V30 1592 H 149.059 -4.84058 0.302134 0
M  V30 1593 H 144.938 -4.5247 -0.882697 0
M  V30 1594 H 148.482 -6.75159 1.75518 0
M  V30 1595 H 144.379 -6.4304 0.563037 0
M  V30 1596 H 145.147 -7.93991 1.98799 0
M  V30 1597 N 147.81 0.181792 -1.56548 0
M  V30 1598 C 148.74 1.22765 -1.98623 0
M  V30 1599 C 149.721 1.46747 -0.860189 0
M  V30 1600 O 150.906 1.58259 -1.12551 0
M  V30 1601 C 148.036 2.56894 -2.33715 0
M  V30 1602 C 146.99 2.475 -3.49182 0
M  V30 1603 C 146.316 3.86023 -3.69986 0
M  V30 1604 C 147.616 1.98866 -4.82959 0
M  V30 1605 H 149.31 0.877942 -2.86239 0
M  V30 1606 H 146.856 0.42088 -1.37712 0
M  V30 1607 H 148.809 3.30253 -2.61746 0
M  V30 1608 H 147.533 2.93632 -1.42997 0
M  V30 1609 H 146.192 1.76596 -3.21262 0
M  V30 1610 H 145.84 4.20136 -2.76576 0
M  V30 1611 H 145.54 3.80609 -4.47672 0
M  V30 1612 H 147.064 4.60984 -4.00407 0
M  V30 1613 H 148.478 2.61992 -5.09934 0
M  V30 1614 H 146.875 2.04424 -5.64208 0
M  V30 1615 H 147.945 0.942465 -4.75653 0
M  V30 1616 N 149.288 1.51039 0.449983 0
M  V30 1617 C 150.536 1.62759 1.19808 0
M  V30 1618 C 150.857 0.339981 1.92013 0
M  V30 1619 O 150.127 -0.643606 1.85026 0
M  V30 1620 H 148.707 0.599811 0.445237 0
M  V30 1621 H 151.369 1.87914 0.517138 0
M  V30 1622 H 150.465 2.44911 1.93455 0
M  V30 1623 N 150.766 -0.704594 1.40972 0
M  V30 1624 C 152.015 -1.46018 1.39146 0
M  V30 1625 C 152.328 -1.956 0.000589254 0
M  V30 1626 O 153.534 -2.71137 -0.1403 0
M  V30 1627 C 151.99 -2.63996 2.4461 0
M  V30 1628 C 151.598 -2.21238 3.89561 0
M  V30 1629 C 153.342 -3.41677 2.51907 0
M  V30 1630 C 151.249 -3.3612 4.86598 0
M  V30 1631 H 150.179 -0.548444 0.517422 0
M  V30 1632 H 152.83 -0.765784 1.66757 0
M  V30 1633 H 151.212 -3.3566 2.10115 0
M  V30 1634 H 152.386 -1.56923 4.33257 0
M  V30 1635 H 150.701 -1.56574 3.85841 0
M  V30 1636 H 153.298 -4.27182 3.2159 0
M  V30 1637 H 153.641 -3.86247 1.55303 0
M  V30 1638 H 154.174 -2.77064 2.85448 0
M  V30 1639 H 150.913 -2.96572 5.84573 0
M  V30 1640 H 150.433 -3.99315 4.47557 0
M  V30 1641 H 152.112 -4.02029 5.06934 0
M  V30 1642 N 152.244 -1.26651 -0.937939 0
M  V30 1643 C 153.655 -1.1125 -1.49934 0
M  V30 1644 C 154.006 0.306077 -1.93798 0
M  V30 1645 O 153.131 1.19792 -1.80219 0
M  V30 1646 C 153.726 -2.01339 -2.72485 0
M  V30 1647 C 152.285 -1.90074 -3.24883 0
M  V30 1648 C 151.432 -1.94498 -1.97651 0
M  V30 1649 H 154.383 -1.39693 -0.753091 0
M  V30 1650 H 154.404 -1.56319 -3.46907 0
M  V30 1651 H 153.916 -3.04577 -2.40529 0
M  V30 1652 H 152.017 -0.897827 -3.61621 0
M  V30 1653 H 152.13 -2.75778 -3.9177 0
M  V30 1654 H 150.494 -1.38591 -2.13693 0
M  V30 1655 H 151.277 -2.99372 -1.68022 0
M  V30 1656 N 153.722 1.14298 -1.08507 0
M  V30 1657 C 154.969 1.85359 -0.815373 0
M  V30 1658 C 155.297 1.83001 0.658865 0
M  V30 1659 O 154.552 1.25655 1.50031 0
M  V30 1660 C 154.851 3.33547 -1.28379 0
M  V30 1661 C 154.517 3.56093 -2.76602 0
M  V30 1662 C 153.179 3.61955 -3.17084 0
M  V30 1663 C 155.531 3.64834 -3.72217 0
M  V30 1664 C 152.859 3.74082 -4.51973 0
M  V30 1665 C 155.211 3.78487 -5.06883 0
M  V30 1666 C 153.875 3.82598 -5.46969 0
M  V30 1667 H 153.145 0.678276 -0.298366 0
M  V30 1668 H 155.792 1.35002 -1.35819 0
M  V30 1669 H 154.097 3.86191 -0.660593 0
M  V30 1670 H 155.794 3.86959 -1.05186 0
M  V30 1671 H 152.384 3.52179 -2.4427 0
M  V30 1672 H 156.568 3.59595 -3.42061 0
M  V30 1673 H 151.824 3.75527 -4.82483 0
M  V30 1674 H 155.998 3.84193 -5.80834 0
M  V30 1675 H 153.625 3.91747 -6.51489 0
M  V30 1676 N 155.201 0.870884 1.31352 0
M  V30 1677 C 156.149 0.316445 2.30437 0
M  V30 1678 C 157.143 -0.568965 1.59559 0
M  V30 1679 O 158.349 -0.454964 1.74155 0
M  V30 1680 H 154.724 0.0836521 0.747333 0
M  V30 1681 H 156.695 1.16606 2.74673 0
M  V30 1682 C 155.444 -0.46635 3.44558 0
M  V30 1683 H 154.767 0.205687 3.99271 0
M  V30 1684 H 156.207 -0.819614 4.16003 0
M  V30 1685 C 154.666 -1.65797 2.9328 0
M  V30 1686 O 155.196 -2.75728 2.92125 0
M  V30 1687 N 153.402 -1.49041 2.4947 0
M  V30 1688 H 152.949 -0.59612 2.50608 0
M  V30 1689 H 152.907 -2.28911 2.15516 0
M  V30 1690 N 156.679 -1.44442 0.630414 0
M  V30 1691 C 158.09 -1.85434 0.217063 0
M  V30 1692 C 158.441 -1.52748 -1.23136 0
M  V30 1693 O 157.566 -0.965205 -1.93682 0
M  V30 1694 C 158.161 -3.36581 0.387168 0
M  V30 1695 C 156.72 -3.76389 0.0283297 0
M  V30 1696 C 155.867 -2.68296 0.700889 0
M  V30 1697 H 158.818 -1.34919 0.83562 0
M  V30 1698 H 158.839 -3.78657 -0.374086 0
M  V30 1699 H 158.351 -3.60339 1.44144 0
M  V30 1700 H 156.452 -3.58246 -1.02423 0
M  V30 1701 H 156.565 -4.77095 0.437892 0
M  V30 1702 H 154.929 -2.54335 0.136267 0
M  V30 1703 H 155.712 -2.94887 1.75774 0
M  V30 1704 N 158.157 -0.370918 -1.53173 0
M  V30 1705 C 159.382 0.220293 -2.06227 0
M  V30 1706 C 159.807 1.41243 -1.24225 0
M  V30 1707 O 159.165 1.79387 -0.262645 0
M  V30 1708 C 159.213 0.586663 -3.55796 0
M  V30 1709 O 158.317 1.68317 -3.76488 0
M  V30 1710 H 157.658 0.0308099 -0.663285 0
M  V30 1711 H 160.188 -0.533068 -1.97534 0
M  V30 1712 H 160.198 0.85617 -3.98916 0
M  V30 1713 H 158.873 -0.285013 -4.14922 0
M  V30 1714 H 157.45 1.40881 -3.45264 0
M  V30 1715 N 159.635 1.57281 -0.100228 0
M  V30 1716 C 160.582 2.14305 0.856858 0
M  V30 1717 C 161.552 1.06296 1.27634 0
M  V30 1718 O 162.737 1.34109 1.35718 0
M  V30 1719 C 159.877 2.73184 2.10866 0
M  V30 1720 C 158.99 3.95442 1.73925 0
M  V30 1721 C 158.125 4.42468 2.93931 0
M  V30 1722 C 157.164 5.57303 2.5314 0
M  V30 1723 N 156.301 5.99158 3.65997 0
M  V30 1724 H 161.141 2.95772 0.363726 0
M  V30 1725 H 158.678 1.46139 0.167858 0
M  V30 1726 H 160.636 3.05442 2.84185 0
M  V30 1727 H 159.266 1.94437 2.57671 0
M  V30 1728 H 158.318 3.69464 0.905554 0
M  V30 1729 H 159.63 4.78769 1.39935 0
M  V30 1730 H 158.784 4.76537 3.75496 0
M  V30 1731 H 157.523 3.58052 3.31134 0
M  V30 1732 H 156.528 5.22857 1.70003 0
M  V30 1733 H 157.753 6.43471 2.17075 0
M  V30 1734 H 155.699 5.17687 4.02909 0
M  V30 1735 H 155.616 6.77295 3.35869 0
M  V30 1736 H 156.884 6.3786 4.48057 0
M  V30 1737 N 161.113 -0.173488 1.56642 0
M  V30 1738 C 162.076 -1.19859 1.95362 0
M  V30 1739 C 163.076 -1.37296 0.83704 0
M  V30 1740 O 164.266 -1.34739 1.10413 0
M  V30 1741 C 161.398 -2.56405 2.24654 0
M  V30 1742 H 162.591 -0.867062 2.87092 0
M  V30 1743 H 160.144 -0.415853 1.50666 0
M  V30 1744 H 160.879 -2.94576 1.35631 0
M  V30 1745 H 160.664 -2.45115 3.06041 0
M  V30 1746 H 162.154 -3.30287 2.5554 0
M  V30 1747 N 162.591 -1.51276 -0.441967 0
M  V30 1748 C 164.002 -1.56244 -1.02199 0
M  V30 1749 C 164.353 -0.383149 -1.92422 0
M  V30 1750 O 163.478 0.500613 -2.1053 0
M  V30 1751 C 164.073 -2.83162 -1.86024 0
M  V30 1752 C 162.632 -2.90716 -2.39084 0
M  V30 1753 C 161.779 -2.50858 -1.18175 0
M  V30 1754 H 164.73 -1.5712 -0.223416 0
M  V30 1755 H 164.751 -2.66663 -2.71425 0
M  V30 1756 H 164.263 -3.68974 -1.20331 0
M  V30 1757 H 162.364 -2.09323 -3.08244 0
M  V30 1758 H 162.477 -3.94266 -2.72198 0
M  V30 1759 H 160.841 -2.03951 -1.52565 0
M  V30 1760 H 161.624 -3.3901 -0.541001 0
M  V30 1761 N 164.069 0.697108 -1.41344 0
M  V30 1762 C 165.317 1.45426 -1.40341 0
M  V30 1763 C 165.638 1.94996 -0.0128787 0
M  V30 1764 O 164.908 1.71599 0.945027 0
M  V30 1765 H 163.488 0.539594 -0.516573 0
M  V30 1766 H 166.15 0.825201 -1.76569 0
M  V30 1767 H 165.246 2.31817 -2.08967 0
M  V30 1768 N 165.547 1.27147 0.931209 0
M  V30 1769 C 166.775 1.16082 1.71267 0
M  V30 1770 C 167.19 -0.282772 1.8667 0
M  V30 1771 O 166.547 -1.19283 1.38122 0
M  V30 1772 C 166.598 1.8358 3.11417 0
M  V30 1773 O 166.319 3.22299 2.96741 0
M  V30 1774 C 167.82 1.78597 4.05732 0
M  V30 1775 H 165.04 0.403758 0.535929 0
M  V30 1776 H 167.584 1.67953 1.16671 0
M  V30 1777 H 165.739 1.35623 3.62885 0
M  V30 1778 H 166.153 3.55851 3.85319 0
M  V30 1779 H 167.627 2.30444 5.01597 0
M  V30 1780 H 168.104 0.754564 4.3267 0
M  V30 1781 H 168.71 2.26152 3.60188 0
M  V30 1782 N 167.025 -1.13721 1.09112 0
M  V30 1783 C 167.988 -2.17222 0.731241 0
M  V30 1784 C 168.988 -1.59035 -0.237566 0
M  V30 1785 O 170.178 -1.74192 -0.0161704 0
M  V30 1786 C 167.31 -3.40804 0.0808443 0
M  V30 1787 H 168.503 -2.50573 1.64783 0
M  V30 1788 H 166.056 -1.28493 0.889897 0
M  V30 1789 H 166.791 -3.1304 -0.847127 0
M  V30 1790 H 166.576 -3.84306 0.777896 0
M  V30 1791 H 168.066 -4.1731 -0.155657 0
M  V30 1792 N 168.503 -0.877838 -1.30888 0
M  V30 1793 C 169.453 -0.310872 -2.25871 0
M  V30 1794 C 170.437 0.556596 -1.50966 0
M  V30 1795 O 171.629 0.402187 -1.7237 0
M  V30 1796 C 168.758 0.479821 -3.3993 0
M  V30 1797 C 167.844 -0.401333 -4.22197 0
M  V30 1798 N 168.235 -1.49848 -4.83093 0
M  V30 1799 C 166.533 -0.195167 -4.45573 0
M  V30 1800 C 167.234 -2.0425 -5.44662 0
M  V30 1801 N 166.21 -1.33843 -5.26865 0
M  V30 1802 H 170.012 -1.1493 -2.70496 0
M  V30 1803 H 167.526 -0.726458 -1.45246 0
M  V30 1804 H 169.523 0.902582 -4.07012 0
M  V30 1805 H 168.183 1.31577 -2.96846 0
M  V30 1806 H 169.194 -1.88137 -4.82519 0
M  V30 1807 H 165.871 0.604192 -4.13105 0
M  V30 1808 H 167.261 -2.96345 -6.03017 0
M  V30 1809 N 169.982 1.44106 -0.638065 0
M  V30 1810 C 171.393 1.85316 -0.226894 0
M  V30 1811 C 171.744 1.53399 1.22324 0
M  V30 1812 O 170.869 0.975463 1.93167 0
M  V30 1813 C 171.464 3.3637 -0.405013 0
M  V30 1814 C 170.023 3.76369 -0.0482902 0
M  V30 1815 C 169.17 2.67921 -0.715108 0
M  V30 1816 H 172.121 1.34474 -0.842764 0
M  V30 1817 H 172.142 3.7885 0.354 0
M  V30 1818 H 171.654 3.59569 -1.46053 0
M  V30 1819 H 169.755 3.58784 1.00522 0
M  V30 1820 H 169.868 4.76856 -0.463187 0
M  V30 1821 H 168.232 2.54259 -0.149753 0
M  V30 1822 H 169.015 2.93951 -1.77335 0
M  V30 1823 N 171.46 0.379036 1.52974 0
M  V30 1824 C 172.69 -0.20649 2.05566 0
M  V30 1825 C 173.098 -1.41906 1.25137 0
M  V30 1826 O 172.441 -1.81421 0.288464 0
M  V30 1827 C 172.503 -0.651086 3.53555 0
M  V30 1828 C 172.167 0.446626 4.54812 0
M  V30 1829 C 173.164 1.30079 5.03364 0
M  V30 1830 C 170.849 0.610719 4.98573 0
M  V30 1831 C 172.843 2.30426 5.94292 0
M  V30 1832 C 170.53 1.61754 5.89304 0
M  V30 1833 C 171.528 2.46274 6.37054 0
M  V30 1834 O 171.216 3.45237 7.25994 0
M  V30 1835 H 170.948 -0.0372381 0.674974 0
M  V30 1836 H 173.502 0.539718 1.98182 0
M  V30 1837 H 171.732 -1.44911 3.58522 0
M  V30 1838 H 173.421 -1.16112 3.88938 0
M  V30 1839 H 174.187 1.18527 4.70294 0
M  V30 1840 H 170.066 -0.0374044 4.60985 0
M  V30 1841 H 173.61 2.96432 6.31485 0
M  V30 1842 H 169.507 1.73348 6.21788 0
M  V30 1843 H 170.275 3.41124 7.44027 0
M  V30 1844 N 172.938 -1.57226 0.108567 0
M  V30 1845 C 174.215 -1.86333 -0.594939 0
M  V30 1846 C 174.595 -1.00788 -1.85486 0
M  V30 1847 O 173.943 -0.0839293 -2.28346 0
M  V30 1848 C 174.153 -3.37265 -0.897405 0
M  V30 1849 C 175.501 -4.05629 -1.25501 0
M  V30 1850 O 176.525 -3.42224 -0.987998 0
M  V30 1851 O 175.384 -5.17531 -1.75567 0
M  V30 1852 H 172.478 -0.771018 -0.2991 0
M  V30 1853 H 175.024 -1.69102 0.142283 0
M  V30 1854 H 173.796 -3.913 -0.00413806 0
M  V30 1855 H 173.419 -3.59889 -1.69014 0
M  V30 1856 N 174.416 0.165178 -1.56732 0
M  V30 1857 C 175.641 0.900253 -1.86843 0
M  V30 1858 C 176.066 1.74766 -0.695596 0
M  V30 1859 O 175.424 1.77786 0.35522 0
M  V30 1860 C 175.472 1.74777 -3.15413 0
M  V30 1861 O 174.576 2.85007 -2.98068 0
M  V30 1862 H 173.917 0.251832 -0.614391 0
M  V30 1863 H 176.447 0.161468 -2.03962 0
M  V30 1864 H 176.457 2.14646 -3.46974 0
M  V30 1865 H 175.132 1.12537 -4.00385 0
M  V30 1866 H 173.709 2.48676 -2.77875 0
M  V30 1867 N 175.894 1.51508 0.433938 0
M  V30 1868 C 177.142 1.6402 1.18075 0
M  V30 1869 C 177.463 0.360328 1.91642 0
M  V30 1870 O 176.733 -0.623945 1.85698 0
M  V30 1871 H 175.313 0.6045 0.43885 0
M  V30 1872 H 177.975 1.88452 0.497178 0
M  V30 1873 H 177.071 2.46949 1.90847 0
M  V30 1874 N 177.372 -0.689602 1.41712 0
M  V30 1875 C 178.322 -1.79571 1.40493 0
M  V30 1876 C 179.306 -1.58473 0.278409 0
M  V30 1877 O 180.498 -1.69204 0.519532 0
M  V30 1878 C 177.627 -3.17923 1.29536 0
M  V30 1879 C 176.713 -3.44695 2.47075 0
M  V30 1880 N 177.104 -3.42132 3.72531 0
M  V30 1881 C 175.402 -3.75269 2.41017 0
M  V30 1882 C 176.103 -3.67976 4.50521 0
M  V30 1883 N 175.079 -3.88014 3.80718 0
M  V30 1884 H 178.881 -1.75961 2.35404 0
M  V30 1885 H 176.395 -0.889839 1.35851 0
M  V30 1886 H 178.392 -3.97167 1.26745 0
M  V30 1887 H 177.052 -3.22741 0.356153 0
M  V30 1888 H 178.063 -3.22375 4.05333 0
M  V30 1889 H 174.74 -3.87421 1.55599 0
M  V30 1890 H 176.13 -3.7208 5.59469 0
M  V30 1891 N 178.85 -1.27639 -0.924453 0
M  V30 1892 C 180.099 -1.13549 -1.66702 0
M  V30 1893 C 180.412 0.317487 -1.93006 0
M  V30 1894 O 181.618 0.579333 -2.65247 0
M  V30 1895 C 180.074 -1.98426 -3.00259 0
M  V30 1896 C 179.682 -3.484 -2.81641 0
M  V30 1897 C 181.426 -1.92993 -3.78092 0
M  V30 1898 C 179.333 -4.25464 -4.10773 0
M  V30 1899 H 178.263 -0.421351 -0.625283 0
M  V30 1900 H 180.914 -1.52085 -1.02676 0
M  V30 1901 H 179.296 -1.52736 -3.6536 0
M  V30 1902 H 180.47 -4.01973 -2.25287 0
M  V30 1903 H 178.785 -3.55245 -2.17232 0
M  V30 1904 H 181.382 -2.47844 -4.7379 0
M  V30 1905 H 181.725 -0.904281 -4.0636 0
M  V30 1906 H 182.258 -2.36595 -3.19793 0
M  V30 1907 H 178.997 -5.28566 -3.87683 0
M  V30 1908 H 178.517 -3.76667 -4.66779 0
M  V30 1909 H 180.196 -4.34812 -4.79111 0
M  V30 1910 N 180.328 1.1314 -1.09713 0
M  V30 1911 C 181.291 2.16831 -0.742751 0
M  V30 1912 C 182.291 1.59159 0.229129 0
M  V30 1913 O 183.481 1.74199 0.00693237 0
M  V30 1914 C 180.613 3.40756 -0.0989168 0
M  V30 1915 H 181.806 2.49695 -1.66109 0
M  V30 1916 H 179.359 1.2802 -0.896699 0
M  V30 1917 H 180.094 3.13485 0.830514 0
M  V30 1918 H 179.879 3.83888 -0.798265 0
M  V30 1919 H 181.369 4.17386 0.133524 0
M  V30 1920 N 181.806 0.884767 1.30421 0
M  V30 1921 C 182.739 0.295999 2.26272 0
M  V30 1922 C 183.717 -0.58332 1.51777 0
M  V30 1923 O 184.901 -0.53346 1.80794 0
M  V30 1924 C 182.028 -0.57944 3.33707 0
M  V30 1925 C 181.074 0.230525 4.25877 0
M  V30 1926 S 181.907 1.61867 5.1045 0
M  V30 1927 C 183.063 0.749756 6.21393 0
M  V30 1928 H 183.296 1.10848 2.75862 0
M  V30 1929 H 180.829 0.684178 1.38414 0
M  V30 1930 H 182.787 -1.07879 3.96071 0
M  V30 1931 H 181.448 -1.36601 2.82841 0
M  V30 1932 H 180.641 -0.437542 5.02097 0
M  V30 1933 H 180.243 0.662493 3.68086 0
M  V30 1934 H 182.535 -0.0333547 6.77492 0
M  V30 1935 H 183.478 1.48356 6.92384 0
M  V30 1936 H 183.886 0.310751 5.63644 0
M  V30 1937 N 183.284 -1.43765 0.645699 0
M  V30 1938 C 184.512 -2.06253 0.163556 0
M  V30 1939 C 184.927 -1.48352 -1.16778 0
M  V30 1940 O 184.284 -0.611932 -1.71935 0
M  V30 1941 C 184.335 -3.61453 0.0583186 0
M  V30 1942 O 184.056 -4.172 1.33702 0
M  V30 1943 C 185.557 -4.41002 -0.450795 0
M  V30 1944 H 182.777 -0.665413 0.0864077 0
M  V30 1945 H 185.321 -1.84396 0.884222 0
M  V30 1946 H 183.476 -3.82522 -0.612865 0
M  V30 1947 H 183.89 -5.10791 1.19131 0
M  V30 1948 H 185.364 -5.49966 -0.473403 0
M  V30 1949 H 185.841 -4.13488 -1.48068 0
M  V30 1950 H 186.447 -4.24886 0.187637 0
M  V30 1951 N 184.763 -0.387143 -1.52771 0
M  V30 1952 C 185.993 0.195585 -2.05672 0
M  V30 1953 C 186.401 1.41241 -1.25887 0
M  V30 1954 O 185.744 1.81265 -0.298081 0
M  V30 1955 C 185.806 0.632327 -3.53895 0
M  V30 1956 C 185.47 -0.470739 -4.54569 0
M  V30 1957 C 186.467 -1.32746 -5.02667 0
M  V30 1958 C 184.152 -0.637151 -4.98243 0
M  V30 1959 C 186.146 -2.33574 -5.93061 0
M  V30 1960 C 183.833 -1.64877 -5.88438 0
M  V30 1961 C 184.831 -2.49649 -6.35739 0
M  V30 1962 O 184.519 -3.49082 -7.24153 0
M  V30 1963 H 184.251 0.033658 -0.675162 0
M  V30 1964 H 186.805 -0.550221 -1.97893 0
M  V30 1965 H 185.035 1.43008 -3.59285 0
M  V30 1966 H 186.724 1.14048 -3.89548 0
M  V30 1967 H 187.49 -1.21019 -4.69659 0
M  V30 1968 H 183.369 0.0129567 -4.60998 0
M  V30 1969 H 186.913 -2.99777 -6.29904 0
M  V30 1970 H 182.81 -1.76643 -6.2086 0
M  V30 1971 H 183.578 -3.45065 -7.42208 0
M  V30 1972 N 186.241 1.57166 -0.116904 0
M  V30 1973 C 187.469 1.99473 0.549383 0
M  V30 1974 C 187.884 0.996541 1.60357 0
M  V30 1975 O 187.241 -0.0108731 1.82497 0
M  V30 1976 C 187.292 3.41788 1.17741 0
M  V30 1977 O 187.013 4.37788 0.165362 0
M  V30 1978 C 188.514 3.99216 1.92722 0
M  V30 1979 H 185.734 0.655009 0.145616 0
M  V30 1980 H 188.278 2.03494 -0.202625 0
M  V30 1981 H 186.433 3.38713 1.88021 0
M  V30 1982 H 186.847 5.20806 0.621403 0
M  V30 1983 H 188.321 5.00882 2.31995 0
M  V30 1984 H 188.798 3.3824 2.80161 0
M  V30 1985 H 189.404 4.0583 1.27209 0
M  V30 1986 N 187.719 -0.156864 1.56817 0
M  V30 1987 C 188.967 -0.869404 1.82444 0
M  V30 1988 C 189.288 -1.82147 0.69623 0
M  V30 1989 O 188.558 -1.93847 -0.28287 0
M  V30 1990 H 187.138 -0.324043 0.673056 0
M  V30 1991 H 189.8 -0.153224 1.94297 0
M  V30 1992 H 188.896 -1.43761 2.77019 0
M  V30 1993 N 189.197 -1.51736 -0.425897 0
M  V30 1994 C 190.127 -1.76827 -1.52494 0
M  V30 1995 C 191.108 -0.618524 -1.58456 0
M  V30 1996 O 192.293 -0.862416 -1.74 0
M  V30 1997 C 189.423 -1.90374 -2.90474 0
M  V30 1998 C 188.377 -3.0588 -2.99369 0
M  V30 1999 C 187.703 -3.04625 -4.3944 0
M  V30 2000 C 189.003 -4.45644 -2.72394 0
M  V30 2001 H 190.697 -2.68855 -1.31748 0
M  V30 2002 H 188.243 -1.29372 -0.632362 0
M  V30 2003 H 190.196 -2.0651 -3.6733 0
M  V30 2004 H 188.92 -0.95004 -3.12477 0
M  V30 2005 H 187.579 -2.89467 -2.24954 0
M  V30 2006 H 187.227 -2.0701 -4.58428 0
M  V30 2007 H 186.927 -3.82195 -4.46319 0
M  V30 2008 H 188.451 -3.22869 -5.18255 0
M  V30 2009 H 189.865 -4.62348 -3.38979 0
M  V30 2010 H 188.262 -5.25006 -2.9067 0
M  V30 2011 H 189.332 -4.54893 -1.67929 0
M  V30 2012 N 190.675 0.682077 -1.42076 0
M  V30 2013 C 191.9 1.47558 -1.45744 0
M  V30 2014 C 192.325 1.87977 -0.0680981 0
M  V30 2015 O 191.683 1.55522 0.9318 0
M  V30 2016 C 191.731 2.70575 -2.38373 0
M  V30 2017 O 190.835 3.68573 -1.85007 0
M  V30 2018 H 190.176 0.443585 -0.494093 0
M  V30 2019 H 192.706 0.837238 -1.86686 0
M  V30 2020 H 192.716 3.18729 -2.54707 0
M  V30 2021 H 191.391 2.40495 -3.39315 0
M  V30 2022 H 189.968 3.2757 -1.78192 0
M  V30 2023 N 192.153 1.28127 0.917671 0
M  V30 2024 C 193.393 1.163 1.68088 0
M  V30 2025 C 193.757 -0.284515 1.8988 0
M  V30 2026 O 194.958 -0.525413 2.63615 0
M  V30 2027 C 193.229 1.93546 3.00457 0
M  V30 2028 S 194.788 1.98048 3.91564 0
M  V30 2029 H 191.606 0.415005 0.577315 0
M  V30 2030 H 194.208 1.62173 1.09179 0
M  V30 2031 H 192.912 2.97888 2.82295 0
M  V30 2032 H 192.443 1.48207 3.64415 0
M  V30 2033 H 194.458 1.08415 4.84211 0
M  V30 2034 N 193.631 -1.12557 1.10312 0
M  V30 2035 C 194.561 -2.20341 0.772798 0
M  V30 2036 C 195.542 -1.68198 -0.25365 0
M  V30 2037 O 196.727 -1.93831 -0.119699 0
M  V30 2038 C 193.857 -3.46709 0.202443 0
M  V30 2039 C 192.811 -4.11996 1.15943 0
M  V30 2040 C 192.137 -5.328 0.450345 0
M  V30 2041 C 193.437 -4.5828 2.50552 0
M  V30 2042 H 195.131 -2.48229 1.674 0
M  V30 2043 H 192.677 -1.19308 0.806326 0
M  V30 2044 H 194.63 -4.2138 -0.0407752 0
M  V30 2045 H 193.354 -3.18245 -0.734001 0
M  V30 2046 H 192.013 -3.39305 1.38808 0
M  V30 2047 H 191.661 -5.00602 -0.490531 0
M  V30 2048 H 191.361 -5.7743 1.08851 0
M  V30 2049 H 192.885 -6.10219 0.215642 0
M  V30 2050 H 194.299 -5.2433 2.31843 0
M  V30 2051 H 192.696 -5.13683 3.10242 0
M  V30 2052 H 193.766 -3.72329 3.10643 0
M  V30 2053 N 195.109 -0.891671 -1.2995 0
M  V30 2054 C 196.355 -0.514261 -1.96171 0
M  V30 2055 C 196.688 0.935506 -1.70182 0
M  V30 2056 O 195.963 1.66204 -1.01028 0
M  V30 2057 C 196.246 -0.797719 -3.51153 0
M  V30 2058 C 196.099 -2.2986 -3.86632 0
M  V30 2059 C 197.418 -0.278749 -4.39216 0
M  V30 2060 H 194.537 -0.188314 -0.712535 0
M  V30 2061 H 197.179 -1.11689 -1.53706 0
M  V30 2062 H 195.329 -0.284826 -3.87455 0
M  V30 2063 H 197.001 -2.88042 -3.60319 0
M  V30 2064 H 195.244 -2.76257 -3.34462 0
M  V30 2065 H 195.915 -2.44753 -4.94773 0
M  V30 2066 H 198.391 -0.717825 -4.09862 0
M  V30 2067 H 197.267 -0.506353 -5.46559 0
M  V30 2068 H 197.528 0.820266 -4.34424 0
M  V30 2069 N 196.587 1.43421 -0.653314 0
M  V30 2070 C 197.836 2.01032 -0.164076 0
M  V30 2071 C 198.149 1.52147 1.22926 0
M  V30 2072 O 199.355 2.02031 1.81371 0
M  V30 2073 C 197.811 3.59082 -0.24252 0
M  V30 2074 C 197.419 4.1696 -1.63855 0
M  V30 2075 C 199.163 4.24079 0.18911 0
M  V30 2076 C 197.07 5.67304 -1.67092 0
M  V30 2077 H 196 0.751798 -0.0575769 0
M  V30 2078 H 198.651 1.6439 -0.815362 0
M  V30 2079 H 197.033 3.93125 0.476276 0
M  V30 2080 H 198.207 3.94416 -2.38271 0
M  V30 2081 H 196.522 3.64335 -2.01616 0
M  V30 2082 H 199.119 5.34381 0.184775 0
M  V30 2083 H 199.462 3.98005 1.22056 0
M  V30 2084 H 199.995 3.94918 -0.477938 0
M  V30 2085 H 196.734 5.98145 -2.68146 0
M  V30 2086 H 196.254 5.91904 -0.970014 0
M  V30 2087 H 197.933 6.31344 -1.4147 0
M  V30 2088 N 198.065 0.39524 1.52563 0
M  V30 2089 C 198.995 -0.428384 2.29537 0
M  V30 2090 C 199.976 -1.05831 1.33169 0
M  V30 2091 O 201.161 -1.06995 1.62067 0
M  V30 2092 C 198.291 -1.55274 3.10656 0
M  V30 2093 C 197.245 -1.04855 4.14957 0
M  V30 2094 C 196.571 -2.26543 4.84337 0
M  V30 2095 C 197.871 -0.112324 5.22179 0
M  V30 2096 H 199.565 0.213867 2.98635 0
M  V30 2097 H 197.111 0.104298 1.43622 0
M  V30 2098 H 199.064 -2.1358 3.63265 0
M  V30 2099 H 197.788 -2.22266 2.39302 0
M  V30 2100 H 196.447 -0.487985 3.63338 0
M  V30 2101 H 196.095 -2.92059 4.09525 0
M  V30 2102 H 195.795 -1.93466 5.54837 0
M  V30 2103 H 197.319 -2.85481 5.39753 0
M  V30 2104 H 198.733 -0.603752 5.70112 0
M  V30 2105 H 197.13 0.128968 5.99961 0
M  V30 2106 H 198.2 0.837052 4.77621 0
M  V30 2107 N 199.544 -1.57102 0.125237 0
M  V30 2108 C 200.792 -1.95021 -0.530198 0
M  V30 2109 C 201.113 -1.00982 -1.66816 0
M  V30 2110 O 200.383 -0.0672693 -1.95784 0
M  V30 2111 H 198.963 -0.720046 -0.198853 0
M  V30 2112 H 201.625 -1.93916 0.19564 0
M  V30 2113 H 200.721 -2.98211 -0.920681 0
M  V30 2114 N 201.022 0.148545 -1.56898 0
M  V30 2115 C 202.299 0.890019 -1.74178 0
M  V30 2116 C 202.679 1.99407 -0.692839 0
M  V30 2117 O 202.027 2.26671 0.288505 0
M  V30 2118 C 202.237 1.43389 -3.18183 0
M  V30 2119 C 203.585 1.89791 -3.79822 0
M  V30 2120 O 204.609 1.53134 -3.21603 0
M  V30 2121 O 203.468 2.57387 -4.82093 0
M  V30 2122 H 200.562 0.420496 -0.712118 0
M  V30 2123 H 203.108 0.134591 -1.69165 0
M  V30 2124 H 201.88 0.640383 -3.86024 0
M  V30 2125 H 201.503 2.25287 -3.27615 0
M  V30 2126 N 202.5 1.5196 0.417844 0
M  V30 2127 C 203.777 1.56146 1.17803 0
M  V30 2128 C 204.157 0.337275 2.08388 0
M  V30 2129 O 203.505 -0.676447 2.18258 0
M  V30 2130 C 203.715 2.88566 1.96293 0
M  V30 2131 C 205.063 3.41244 2.52662 0
M  V30 2132 O 206.087 2.90247 2.06483 0
M  V30 2133 O 204.946 4.30273 3.36938 0
M  V30 2134 H 202.04 0.628598 0.537395 0
M  V30 2135 H 204.586 1.64283 0.425331 0
M  V30 2136 H 203.358 3.69116 1.2988 0
M  V30 2137 H 202.981 2.83681 2.78587 0
M  V30 2138 N 203.978 -0.674533 1.42435 0
M  V30 2139 C 204.908 -1.80009 1.48724 0
M  V30 2140 C 205.889 -1.6659 0.343793 0
M  V30 2141 O 207.074 -1.86007 0.558137 0
M  V30 2142 C 204.204 -3.18306 1.38919 0
M  V30 2143 C 203.158 -3.46461 2.51294 0
M  V30 2144 C 202.484 -4.84335 2.26547 0
M  V30 2145 C 203.784 -3.43328 3.93603 0
M  V30 2146 H 205.478 -1.75004 2.42928 0
M  V30 2147 H 203.024 -0.840533 1.16923 0
M  V30 2148 H 204.977 -3.9678 1.41927 0
M  V30 2149 H 203.701 -3.2399 0.412094 0
M  V30 2150 H 202.36 -2.70348 2.47604 0
M  V30 2151 H 202.008 -4.86669 1.2713 0
M  V30 2152 H 201.708 -5.04136 3.01861 0
M  V30 2153 H 203.232 -5.65094 2.31304 0
M  V30 2154 H 204.646 -4.11772 3.98894 0
M  V30 2155 H 203.043 -3.74664 4.68771 0
M  V30 2156 H 204.113 -2.41897 4.20255 0
M  V30 2157 N 205.456 -1.28612 -0.910864 0
M  V30 2158 C 206.681 -1.1891 -1.69927 0
M  V30 2159 C 207.106 0.248372 -1.86453 0
M  V30 2160 O 206.464 1.17961 -1.37676 0
M  V30 2161 C 206.512 -1.89578 -3.06745 0
M  V30 2162 O 205.616 -1.20521 -3.94396 0
M  V30 2163 H 204.957 -0.412632 -0.520222 0
M  V30 2164 H 207.487 -1.69985 -1.1387 0
M  V30 2165 H 207.497 -1.97597 -3.56958 0
M  V30 2166 H 206.172 -2.94136 -2.94035 0
M  V30 2167 H 204.749 -1.20684 -3.52831 0
M  V30 2168 N 206.934 1.1197 -1.10907 0
M  V30 2169 C 208.35 1.35591 -0.841852 0
M  V30 2170 C 208.55 1.94233 0.536246 0
M  V30 2171 O 207.606 2.1717 1.28816 0
M  V30 2172 C 208.919 2.29284 -1.94549 0
M  V30 2173 C 210.467 2.42862 -1.97451 0
M  V30 2174 C 210.942 3.39873 -3.07002 0
M  V30 2175 N 212.433 3.47433 -3.06341 0
M  V30 2176 C 213.168 4.22421 -3.87748 0
M  V30 2177 N 212.664 5.00432 -4.79103 0
M  V30 2178 N 214.457 4.17876 -3.75946 0
M  V30 2179 H 206.608 0.722664 -1.99728 0
M  V30 2180 H 208.871 0.380635 -0.868229 0
M  V30 2181 H 208.577 1.93378 -2.93765 0
M  V30 2182 H 208.451 3.29452 -1.83688 0
M  V30 2183 H 210.838 2.78046 -0.988645 0
M  V30 2184 H 210.919 1.42566 -2.12388 0
M  V30 2185 H 210.563 3.05417 -4.05811 0
M  V30 2186 H 210.493 4.40011 -2.89306 0
M  V30 2187 H 212.984 2.91784 -2.40147 0
M  V30 2188 H 213.297 5.55002 -5.37766 0
M  V30 2189 H 211.642 4.99612 -4.83128 0
M  V30 2190 H 214.833 3.56016 -3.03924 0
M  V30 2191 H 215.006 4.76061 -4.39624 0
M  V30 2192 N 208.412 0.89855 1.29475 0
M  V30 2193 C 209.658 0.524658 1.95896 0
M  V30 2194 C 209.991 -0.926468 1.70676 0
M  V30 2195 O 209.266 -1.65665 1.01908 0
M  V30 2196 C 209.549 0.81633 3.50725 0
M  V30 2197 C 209.402 2.31907 3.85408 0
M  V30 2198 C 210.721 0.302038 4.39062 0
M  V30 2199 H 207.84 0.19209 0.711527 0
M  V30 2200 H 210.482 1.12502 1.53112 0
M  V30 2201 H 208.632 0.305369 3.87298 0
M  V30 2202 H 210.304 2.89949 3.58786 0
M  V30 2203 H 208.547 2.78027 3.32992 0
M  V30 2204 H 209.218 2.47373 4.93468 0
M  V30 2205 H 211.694 0.739551 4.09475 0
M  V30 2206 H 210.57 0.535331 5.46283 0
M  V30 2207 H 210.831 -0.797216 4.34853 0
M  V30 2208 N 209.89 -1.43072 0.660911 0
M  V30 2209 C 210.838 -2.32569 -0.0378199 0
M  V30 2210 C 211.832 -1.49046 -0.805092 0
M  V30 2211 O 213.038 -1.65206 -0.714624 0
M  V30 2212 H 209.413 -0.75136 -0.031019 0
M  V30 2213 H 211.384 -2.89216 0.734609 0
M  V30 2214 C 210.133 -3.33453 -0.985124 0
M  V30 2215 H 209.456 -3.97752 -0.404147 0
M  V30 2216 H 210.896 -3.98691 -1.44297 0
M  V30 2217 C 209.355 -2.64642 -2.08486 0
M  V30 2218 O 209.885 -2.46776 -3.16961 0
M  V30 2219 N 208.091 -2.23891 -1.8526 0
M  V30 2220 H 207.638 -2.38621 -0.970449 0
M  V30 2221 H 207.596 -1.78181 -2.59034 0
M  V30 2222 N 211.368 -0.403325 -1.52352 0
M  V30 2223 C 212.315 0.425011 -2.26853 0
M  V30 2224 C 213.285 1.04598 -1.29029 0
M  V30 2225 O 214.47 1.07135 -1.57882 0
M  V30 2226 C 211.61 1.53888 -3.08889 0
M  V30 2227 C 210.723 0.939396 -4.21663 0
M  V30 2228 C 209.858 2.02547 -4.91068 0
M  V30 2229 C 208.897 1.40263 -5.95813 0
M  V30 2230 N 208.034 2.4286 -6.58759 0
M  V30 2231 H 212.874 -0.21674 -2.97211 0
M  V30 2232 H 210.411 -0.118722 -1.4662 0
M  V30 2233 H 212.369 2.19558 -3.54753 0
M  V30 2234 H 210.999 2.15074 -2.40714 0
M  V30 2235 H 210.051 0.171898 -3.80011 0
M  V30 2236 H 211.363 0.44436 -4.96817 0
M  V30 2237 H 210.517 2.75958 -5.40308 0
M  V30 2238 H 209.256 2.55415 -4.15469 0
M  V30 2239 H 208.261 0.653833 -5.45898 0
M  V30 2240 H 209.486 0.881719 -6.73352 0
M  V30 2241 H 207.432 2.94871 -5.85992 0
M  V30 2242 H 207.349 1.98152 -7.2957 0
M  V30 2243 H 208.617 3.15858 -7.12639 0
M  V30 2244 N 212.846 1.57033 -0.133567 0
M  V30 2245 C 213.756 2.19632 0.824564 0
M  V30 2246 C 214.772 1.17666 1.28182 0
M  V30 2247 O 215.948 1.50193 1.3418 0
M  V30 2248 C 213.013 2.79499 2.05137 0
M  V30 2249 C 212.074 3.96548 1.64464 0
M  V30 2250 C 211.307 4.5355 2.81297 0
M  V30 2251 O 211.53 4.09438 3.97136 0
M  V30 2252 O 210.464 5.44018 2.57542 0
M  V30 2253 H 214.29 3.01991 0.321766 0
M  V30 2254 H 211.875 1.49112 0.0927889 0
M  V30 2255 H 213.757 3.17602 2.7696 0
M  V30 2256 H 212.432 2.00162 2.54395 0
M  V30 2257 H 211.339 3.63186 0.897048 0
M  V30 2258 H 212.672 4.77364 1.19934 0
M  V30 2259 N 214.325 -0.140222 1.56975 0
M  V30 2260 C 215.288 -1.15689 1.97861 0
M  V30 2261 C 216.288 -1.3549 0.865974 0
M  V30 2262 O 217.478 -1.32367 1.13246 0
M  V30 2263 C 214.61 -2.51582 2.30042 0
M  V30 2264 H 215.803 -0.805971 2.88867 0
M  V30 2265 H 213.356 -0.383801 1.51515 0
M  V30 2266 H 214.091 -2.91632 1.41849 0
M  V30 2267 H 213.876 -2.38569 3.11171 0
M  V30 2268 H 215.366 -3.24792 2.62488 0
M  V30 2269 N 215.803 -1.52179 -0.40978 0
M  V30 2270 C 217.043 -1.67882 -1.16597 0
M  V30 2271 C 217.407 -0.399795 -1.87791 0
M  V30 2272 O 218.608 -0.43292 -2.65291 0
M  V30 2273 C 216.879 -2.86662 -2.13448 0
M  V30 2274 S 218.438 -3.22843 -2.97183 0
M  V30 2275 H 215.256 -0.59118 -0.395002 0
M  V30 2276 H 217.858 -1.9017 -0.453373 0
M  V30 2277 H 216.562 -3.77998 -1.59831 0
M  V30 2278 H 216.093 -2.66645 -2.89247 0
M  V30 2279 H 218.108 -2.71415 -4.15389 0
M  V30 2280 N 217.281 0.66697 -1.42791 0
M  V30 2281 C 218.211 1.79218 -1.49677 0
M  V30 2282 C 219.192 1.66405 -0.352623 0
M  V30 2283 O 220.377 1.85708 -0.567993 0
M  V30 2284 C 217.507 3.17565 -1.40605 0
M  V30 2285 C 216.461 3.45124 -2.53127 0
M  V30 2286 C 215.787 4.83127 -2.29112 0
M  V30 2287 C 217.087 3.41236 -3.95418 0
M  V30 2288 H 218.781 1.73713 -2.43853 0
M  V30 2289 H 216.327 0.83432 -1.17367 0
M  V30 2290 H 218.28 3.96022 -1.44029 0
M  V30 2291 H 217.004 3.23767 -0.429271 0
M  V30 2292 H 215.663 2.69031 -2.49034 0
M  V30 2293 H 215.311 4.85988 -1.29709 0
M  V30 2294 H 215.011 5.02528 -3.04531 0
M  V30 2295 H 216.535 5.63859 -2.34297 0
M  V30 2296 H 217.949 4.09651 -4.01073 0
M  V30 2297 H 216.346 3.72173 -4.70752 0
M  V30 2298 H 217.416 2.39665 -4.21532 0
M  V30 2299 N 218.759 1.29093 0.90403 0
M  V30 2300 C 219.722 1.1386 1.98919 0
M  V30 2301 C 220.722 0.0753457 1.60623 0
M  V30 2302 O 221.912 0.321931 1.71199 0
M  V30 2303 C 219.044 0.740198 3.32767 0
M  V30 2304 H 220.237 2.10246 2.13861 0
M  V30 2305 H 217.79 1.12218 1.08797 0
M  V30 2306 H 218.525 -0.223997 3.23525 0
M  V30 2307 H 218.31 1.50838 3.61926 0
M  V30 2308 H 219.8 0.656546 4.12407 0
M  V30 2309 N 220.237 -1.11381 1.11499 0
M  V30 2310 C 221.485 -1.8277 0.862524 0
M  V30 2311 C 221.806 -1.85097 -0.613534 0
M  V30 2312 O 221.076 -1.32198 -1.4457 0
M  V30 2313 H 219.656 -0.676823 0.316101 0
M  V30 2314 H 222.318 -1.34816 1.4075 0
M  V30 2315 H 221.414 -2.86614 1.23527 0
M  V30 2316 N 221.715 -0.905404 -1.28997 0
M  V30 2317 C 222.645 -0.404212 -2.29975 0
M  V30 2318 C 223.626 0.523784 -1.61835 0
M  V30 2319 O 224.811 0.433298 -1.89304 0
M  V30 2320 C 221.941 0.364042 -3.45387 0
M  V30 2321 C 220.895 -0.474048 -4.25367 0
M  V30 2322 C 220.221 0.422045 -5.33032 0
M  V30 2323 C 221.521 -1.72696 -4.92923 0
M  V30 2324 H 223.215 -1.24807 -2.72146 0
M  V30 2325 H 220.761 -0.601585 -1.30832 0
M  V30 2326 H 222.714 0.725447 -4.15109 0
M  V30 2327 H 221.438 1.24174 -3.02074 0
M  V30 2328 H 220.097 -0.81786 -3.57361 0
M  V30 2329 H 219.745 1.29804 -4.85963 0
M  V30 2330 H 219.445 -0.135057 -5.87445 0
M  V30 2331 H 220.969 0.779517 -6.05604 0
M  V30 2332 H 222.383 -1.43495 -5.55051 0
M  V30 2333 H 220.78 -2.22582 -5.57295 0
M  V30 2334 H 221.85 -2.45964 -4.17887 0
M  V30 2335 N 223.193 1.4272 -0.668489 0
M  V30 2336 C 224.609 1.55992 -0.33745 0
M  V30 2337 C 224.809 1.64933 1.15756 0
M  V30 2338 O 223.865 1.61278 1.94282 0
M  V30 2339 C 225.178 2.81314 -1.06222 0
M  V30 2340 C 226.726 2.95078 -1.04394 0
M  V30 2341 C 227.201 4.23252 -1.74991 0
M  V30 2342 N 228.692 4.3015 -1.71829 0
M  V30 2343 C 229.427 5.28127 -2.23315 0
M  V30 2344 N 228.923 6.32293 -2.83156 0
M  V30 2345 N 230.716 5.19882 -2.13726 0
M  V30 2346 H 222.867 1.3516 -1.63846 0
M  V30 2347 H 225.13 0.650174 -0.689912 0
M  V30 2348 H 224.836 2.80823 -2.11734 0
M  V30 2349 H 224.71 3.72012 -0.62344 0
M  V30 2350 H 227.097 2.951 0.0028244 0
M  V30 2351 H 227.178 2.05627 -1.52155 0
M  V30 2352 H 226.822 4.2399 -2.79633 0
M  V30 2353 H 226.752 5.11626 -1.24685 0
M  V30 2354 H 229.243 3.55499 -1.28175 0
M  V30 2355 H 229.556 7.03398 -3.20079 0
M  V30 2356 H 227.901 6.32873 -2.87223 0
M  V30 2357 H 231.092 4.37423 -1.66669 0
M  V30 2358 H 231.265 5.96077 -2.54158 0
M  V30 2359 N 224.671 0.411399 1.52136 0
M  V30 2360 C 225.634 -0.401089 2.25663 0
M  V30 2361 C 226.634 -0.971732 1.28117 0
M  V30 2362 O 227.824 -0.850254 1.52041 0
M  V30 2363 C 224.956 -1.56483 3.02863 0
M  V30 2364 H 226.149 0.24295 2.98914 0
M  V30 2365 H 223.702 0.163968 1.55438 0
M  V30 2366 H 224.437 -2.24567 2.33967 0
M  V30 2367 H 224.222 -1.16211 3.74483 0
M  V30 2368 H 225.712 -2.13951 3.58629 0
M  V30 2369 N 226.149 -1.5696 0.141893 0
M  V30 2370 C 227.079 -2.19516 -0.795936 0
M  V30 2371 C 228.06 -1.14187 -1.26077 0
M  V30 2372 O 229.245 -1.42511 -1.31925 0
M  V30 2373 C 226.375 -2.81272 -2.03723 0
M  V30 2374 C 225.329 -3.92384 -1.70936 0
M  V30 2375 C 224.655 -4.41052 -3.02287 0
M  V30 2376 C 225.955 -5.13403 -0.959954 0
M  V30 2377 H 227.649 -2.98138 -0.274596 0
M  V30 2378 H 225.195 -1.43406 -0.130636 0
M  V30 2379 H 227.148 -3.237 -2.69808 0
M  V30 2380 H 225.872 -1.99973 -2.58221 0
M  V30 2381 H 224.531 -3.50566 -1.07232 0
M  V30 2382 H 224.179 -3.56582 -3.54765 0
M  V30 2383 H 223.879 -5.15993 -2.81114 0
M  V30 2384 H 225.403 -4.86146 -3.69451 0
M  V30 2385 H 226.817 -5.52706 -1.52279 0
M  V30 2386 H 225.214 -5.94073 -0.848357 0
M  V30 2387 H 226.284 -4.84875 0.0492434 0
M  V30 2388 N 227.627 0.131896 -1.57047 0
M  V30 2389 C 228.559 1.1878 -1.9602 0
M  V30 2390 C 229.572 1.38363 -0.857875 0
M  V30 2391 O 230.761 1.37666 -1.13623 0
M  V30 2392 C 227.861 2.55008 -2.23213 0
M  V30 2393 C 227.034 2.56201 -3.54513 0
M  V30 2394 C 226.093 3.7408 -3.70069 0
M  V30 2395 O 225.119 3.58258 -4.42312 0
M  V30 2396 N 226.321 4.92137 -3.07866 0
M  V30 2397 H 229.086 0.85639 -2.87204 0
M  V30 2398 H 226.647 0.321309 -1.5868 0
M  V30 2399 H 228.639 3.32404 -2.30846 0
M  V30 2400 H 227.209 2.80382 -1.3822 0
M  V30 2401 H 226.429 1.64613 -3.58185 0
M  V30 2402 H 227.717 2.54043 -4.4084 0
M  V30 2403 H 227.115 5.07895 -2.49116 0
M  V30 2404 H 225.672 5.67254 -3.21039 0
M  V30 2405 N 229.106 1.52395 0.401703 0
M  V30 2406 C 230.036 1.79231 1.49661 0
M  V30 2407 C 231.017 0.643654 1.57452 0
M  V30 2408 O 232.202 0.889989 1.72606 0
M  V30 2409 C 229.332 1.94971 2.87409 0
M  V30 2410 C 228.286 3.10604 2.94465 0
M  V30 2411 C 227.612 3.11577 4.34538 0
M  V30 2412 C 228.912 4.49921 2.6527 0
M  V30 2413 H 230.606 2.70917 1.27454 0
M  V30 2414 H 228.152 1.30362 0.6117 0
M  V30 2415 H 230.105 2.12328 3.63999 0
M  V30 2416 H 228.829 0.999632 3.10926 0
M  V30 2417 H 227.488 2.93009 2.20321 0
M  V30 2418 H 227.136 2.14277 4.55076 0
M  V30 2419 H 226.836 3.89247 4.40183 0
M  V30 2420 H 228.36 3.31073 5.13053 0
M  V30 2421 H 229.774 4.67683 3.31581 0
M  V30 2422 H 228.171 5.29564 2.82281 0
M  V30 2423 H 229.241 4.57507 1.60671 0
M  V30 2424 N 230.584 -0.659388 1.43143 0
M  V30 2425 C 231.494 -1.80167 1.50256 0
M  V30 2426 C 232.51 -1.69571 0.390106 0
M  V30 2427 O 233.686 -1.90849 0.643319 0
M  V30 2428 C 230.751 -3.16409 1.41725 0
M  V30 2429 C 229.812 -3.38848 2.63591 0
M  V30 2430 C 229.045 -4.68591 2.55458 0
M  V30 2431 O 229.268 -5.47532 1.59891 0
M  V30 2432 O 228.202 -4.92614 3.45854 0
M  V30 2433 H 232.028 -1.77121 2.46702 0
M  V30 2434 H 229.613 -0.817092 1.25076 0
M  V30 2435 H 231.495 -3.9768 1.39387 0
M  V30 2436 H 230.17 -3.20059 0.484118 0
M  V30 2437 H 229.077 -2.57366 2.71502 0
M  V30 2438 H 230.41 -3.4004 3.55856 0
M  V30 2439 N 232.062 -1.29571 -0.897171 0
M  V30 2440 C 233.339 -1.08365 -1.62839 0
M  V30 2441 C 233.719 0.371331 -2.07808 0
M  V30 2442 O 233.067 1.3606 -1.83576 0
M  V30 2443 C 233.277 -2.0735 -2.80726 0
M  V30 2444 C 234.625 -2.38406 -3.51351 0
M  V30 2445 O 235.649 -2.05564 -2.90898 0
M  V30 2446 O 234.508 -2.9453 -4.60341 0
M  V30 2447 H 231.602 -0.415345 -0.715134 0
M  V30 2448 H 234.148 -1.40952 -0.945018 0
M  V30 2449 H 232.92 -3.05339 -2.44711 0
M  V30 2450 H 232.543 -1.75507 -3.56767 0
M  V30 2451 N 233.54 1.10788 -1.12088 0
M  V30 2452 C 234.788 1.8231 -0.872205 0
M  V30 2453 C 235.109 1.85419 0.603709 0
M  V30 2454 O 234.379 1.32963 1.43867 0
M  V30 2455 H 232.959 0.675137 -0.319686 0
M  V30 2456 H 235.621 1.34068 -1.41463 0
M  V30 2457 H 234.717 2.85955 -1.25045 0
M  V30 2458 N 235.018 0.912232 1.28515 0
M  V30 2459 C 236.243 0.559774 1.99703 0
M  V30 2460 C 236.668 -0.851393 1.67729 0
M  V30 2461 O 236.026 -1.56875 0.908834 0
M  V30 2462 C 236.074 0.773874 3.52198 0
M  V30 2463 O 235.178 -0.167842 4.12058 0
M  V30 2464 H 234.519 0.21723 0.627461 0
M  V30 2465 H 237.049 1.22725 1.63706 0
M  V30 2466 H 237.059 0.683386 4.02236 0
M  V30 2467 H 235.734 1.80261 3.74805 0
M  V30 2468 H 234.311 -0.0287509 3.72889 0
M  V30 2469 N 236.496 -1.42363 0.676048 0
M  V30 2470 C 237.743 -2.01522 0.19883 0
M  V30 2471 C 238.071 -1.53456 -1.19505 0
M  V30 2472 O 237.326 -0.727967 -1.81657 0
M  V30 2473 C 237.625 -3.56929 0.183431 0
M  V30 2474 C 237.291 -4.24431 1.52215 0
M  V30 2475 C 235.953 -4.42585 1.8887 0
M  V30 2476 C 238.305 -4.62459 2.40377 0
M  V30 2477 C 235.633 -4.96039 3.13309 0
M  V30 2478 C 237.985 -5.17294 3.64129 0
M  V30 2479 C 236.649 -5.33661 4.00951 0
M  V30 2480 H 235.919 -0.737419 0.0727571 0
M  V30 2481 H 238.566 -1.70531 0.871281 0
M  V30 2482 H 236.871 -3.87594 -0.572532 0
M  V30 2483 H 238.568 -4.00486 -0.203035 0
M  V30 2484 H 235.158 -4.10661 1.22701 0
M  V30 2485 H 239.342 -4.48105 2.13343 0
M  V30 2486 H 234.598 -5.06896 3.41857 0
M  V30 2487 H 238.772 -5.45704 4.32644 0
M  V30 2488 H 236.399 -5.74845 4.9745 0
M  V30 2489 N 237.974 -0.419461 -1.51915 0
M  V30 2490 C 239.214 0.152336 -2.03832 0
M  V30 2491 C 239.578 1.41501 -1.29775 0
M  V30 2492 O 240.779 2.06591 -1.7197 0
M  V30 2493 C 239.05 0.383812 -3.55333 0
M  V30 2494 S 240.609 0.921577 -4.29013 0
M  V30 2495 H 237.427 0.0402193 -0.709862 0
M  V30 2496 H 240.029 -0.574758 -1.8686 0
M  V30 2497 H 238.733 -0.541794 -4.06808 0
M  V30 2498 H 238.264 1.13849 -3.76566 0
M  V30 2499 H 240.279 2.20108 -4.4471 0
M  V30 2500 N 239.452 1.56882 -0.150215 0
M  V30 2501 C 240.415 2.1573 0.774157 0
M  V30 2502 C 241.415 1.0999 1.17298 0
M  V30 2503 O 242.605 1.35613 1.09338 0
M  V30 2504 C 239.737 2.72302 2.05096 0
M  V30 2505 H 240.93 2.98752 0.262201 0
M  V30 2506 H 238.483 1.55985 0.099248 0
M  V30 2507 H 239.218 1.92956 2.6065 0
M  V30 2508 H 239.003 3.49665 1.77416 0
M  V30 2509 H 240.493 3.17632 2.71109 0
M  V30 2510 N 240.93 -0.123565 1.57115 0
M  V30 2511 C 242.176 -0.833386 1.84885 0
M  V30 2512 C 242.509 -1.79742 0.735292 0
M  V30 2513 O 241.784 -1.92764 -0.25925 0
M  V30 2514 C 242.067 -1.5873 3.23228 0
M  V30 2515 C 241.92 -0.643183 4.45178 0
M  V30 2516 C 243.239 -2.54453 3.59085 0
M  V30 2517 H 240.358 -0.301518 0.6725 0
M  V30 2518 H 243 -0.097778 1.89748 0
M  V30 2519 H 241.15 -2.21438 3.19214 0
M  V30 2520 H 242.822 -0.0253015 4.61293 0
M  V30 2521 H 241.065 0.0456139 4.33776 0
M  V30 2522 H 241.736 -1.20724 5.38637 0
M  V30 2523 H 244.212 -2.01853 3.63861 0
M  V30 2524 H 243.088 -3.04238 4.5687 0
M  V30 2525 H 243.349 -3.36906 2.86264 0
M  V30 2526 N 242.408 -1.52605 -0.393616 0
M  V30 2527 C 243.819 -1.59417 -0.971761 0
M  V30 2528 C 244.17 -0.444173 -1.91106 0
M  V30 2529 O 243.295 0.433382 -2.12016 0
M  V30 2530 C 243.89 -2.88936 -1.76921 0
M  V30 2531 C 242.449 -2.98175 -2.29714 0
M  V30 2532 C 241.596 -2.54491 -1.10135 0
M  V30 2533 H 244.547 -1.57751 -0.173317 0
M  V30 2534 H 244.568 -2.75163 -2.62804 0
M  V30 2535 H 244.08 -3.72616 -1.08532 0
M  V30 2536 H 242.181 -2.19024 -3.01429 0
M  V30 2537 H 242.294 -4.02726 -2.59517 0
M  V30 2538 H 240.658 -2.08702 -1.45999 0
M  V30 2539 H 241.441 -3.4056 -0.432874 0
M  V30 2540 N 243.887 0.651787 -1.4349 0
M  V30 2541 C 244.797 1.79368 -1.5121 0
M  V30 2542 C 245.813 1.69361 -0.399093 0
M  V30 2543 O 246.989 1.90505 -0.653431 0
M  V30 2544 C 244.054 3.15653 -1.43401 0
M  V30 2545 C 243.115 3.37446 -2.65384 0
M  V30 2546 C 242.348 4.67229 -2.57939 0
M  V30 2547 O 242.571 5.46676 -1.62792 0
M  V30 2548 O 241.505 4.90773 -3.48462 0
M  V30 2549 H 245.331 1.7581 -2.47638 0
M  V30 2550 H 242.916 0.810447 -1.25507 0
M  V30 2551 H 244.798 3.96935 -1.41494 0
M  V30 2552 H 243.473 3.19798 -0.501085 0
M  V30 2553 H 242.38 2.55923 -2.72863 0
M  V30 2554 H 243.713 3.38148 -3.57654 0
M  V30 2555 N 245.365 1.30045 0.890287 0
M  V30 2556 C 246.613 1.18327 1.63839 0
M  V30 2557 C 246.934 -0.263455 1.93212 0
M  V30 2558 O 246.204 -1.17856 1.56482 0
M  V30 2559 H 244.784 0.434933 0.607324 0
M  V30 2560 H 247.446 1.631 1.06698 0
M  V30 2561 H 246.542 1.74024 2.59079 0
M  V30 2562 N 246.843 -1.10192 1.12674 0
M  V30 2563 C 248.068 -1.86523 0.906853 0
M  V30 2564 C 248.493 -1.80221 -0.538711 0
M  V30 2565 O 247.851 -1.17396 -1.38158 0
M  V30 2566 C 247.899 -3.32758 1.3894 0
M  V30 2567 O 247.003 -4.08449 0.5695 0
M  V30 2568 H 246.344 -0.578678 0.325619 0
M  V30 2569 H 248.874 -1.39203 1.49946 0
M  V30 2570 H 248.884 -3.83608 1.38958 0
M  V30 2571 H 247.559 -3.36661 2.44197 0
M  V30 2572 H 246.136 -3.67427 0.636528 0
M  V30 2573 N 248.321 -0.919034 -1.28029 0
M  V30 2574 C 249.231 -0.416756 -2.30869 0
M  V30 2575 C 250.247 0.498235 -1.66714 0
M  V30 2576 O 251.423 0.383144 -1.97722 0
M  V30 2577 C 248.488 0.330274 -3.45123 0
M  V30 2578 C 247.549 -0.618578 -4.2482 0
M  V30 2579 C 246.782 0.0928959 -5.33619 0
M  V30 2580 O 247.005 1.31375 -5.55065 0
M  V30 2581 O 245.939 -0.574499 -5.99152 0
M  V30 2582 H 249.765 -1.27043 -2.75851 0
M  V30 2583 H 247.35 -0.684052 -1.3282 0
M  V30 2584 H 249.232 0.751972 -4.14636 0
M  V30 2585 H 247.907 1.1597 -3.02213 0
M  V30 2586 H 246.814 -1.08978 -3.57875 0
M  V30 2587 H 248.147 -1.41497 -4.71423 0
M  V30 2588 N 249.799 1.42003 -0.683588 0
M  V30 2589 C 250.747 2.326 0.000815408 0
M  V30 2590 C 251.741 1.50308 0.781278 0
M  V30 2591 O 252.947 1.66322 0.688251 0
M  V30 2592 H 249.322 0.751758 0.0190616 0
M  V30 2593 H 251.293 2.88011 -0.780528 0
M  V30 2594 C 250.042 3.34978 0.93195 0
M  V30 2595 H 249.365 3.98345 0.340817 0
M  V30 2596 H 250.805 4.00936 1.37936 0
M  V30 2597 C 249.264 2.67925 2.04249 0
M  V30 2598 O 249.794 2.51788 3.12995 0
M  V30 2599 N 248 2.2681 1.81675 0
M  V30 2600 H 247.547 2.40135 0.932363 0
M  V30 2601 H 247.505 1.8228 2.56167 0
M  V30 2602 N 251.277 0.427512 1.51691 0
M  V30 2603 C 252.554 -0.201684 1.94557 0
M  V30 2604 C 252.934 -1.60981 1.36559 0
M  V30 2605 O 252.282 -2.21814 0.548702 0
M  V30 2606 C 252.492 -0.189394 3.48486 0
M  V30 2607 C 253.84 -0.39978 4.22714 0
M  V30 2608 O 254.864 -0.267945 3.55191 0
M  V30 2609 O 253.723 -0.661249 5.42485 0
M  V30 2610 H 250.817 -0.135261 0.815864 0
M  V30 2611 H 253.363 0.484782 1.62628 0
M  V30 2612 H 252.135 0.795431 3.8313 0
M  V30 2613 H 251.758 -0.919187 3.86829 0
M  V30 2614 N 252.755 -1.56801 0.158532 0
M  V30 2615 C 253.688 -2.13148 -0.815065 0
M  V30 2616 C 254.666 -1.0581 -1.23462 0
M  V30 2617 O 255.85 -1.3371 -1.32868 0
M  V30 2618 C 252.977 -2.6606 -2.09594 0
M  V30 2619 C 252.023 -3.85651 -1.82141 0
M  V30 2620 S 252.856 -5.26041 -1.00207 0
M  V30 2621 C 254.012 -5.8235 -2.29389 0
M  V30 2622 H 254.245 -2.95396 -0.335937 0
M  V30 2623 H 251.778 -1.54299 -0.0559391 0
M  V30 2624 H 253.736 -2.97195 -2.8317 0
M  V30 2625 H 252.397 -1.83921 -2.54621 0
M  V30 2626 H 251.59 -4.20958 -2.77147 0
M  V30 2627 H 251.192 -3.55338 -1.16667 0
M  V30 2628 H 253.484 -5.94485 -3.24952 0
M  V30 2629 H 254.427 -6.79688 -1.9857 0
M  V30 2630 H 254.835 -5.10675 -2.40564 0
M  V30 2631 N 254.233 0.115231 -1.57178 0
M  V30 2632 C 255.649 0.468877 -1.52557 0
M  V30 2633 C 255.849 1.81649 -0.872125 0
M  V30 2634 O 254.905 2.48347 -0.45606 0
M  V30 2635 C 256.218 0.4499 -2.97315 0
M  V30 2636 C 257.766 0.533185 -3.08425 0
M  V30 2637 C 258.241 0.54456 -4.54751 0
M  V30 2638 N 259.732 0.605892 -4.5922 0
M  V30 2639 C 260.467 0.636203 -5.6986 0
M  V30 2640 N 259.963 0.623931 -6.89985 0
M  V30 2641 N 261.756 0.679496 -5.57978 0
M  V30 2642 H 253.907 -0.767712 -1.9804 0
M  V30 2643 H 256.17 -0.283609 -0.904583 0
M  V30 2644 H 255.876 -0.472721 -3.48509 0
M  V30 2645 H 255.75 1.27632 -3.5495 0
M  V30 2646 H 258.137 1.44623 -2.57232 0
M  V30 2647 H 258.218 -0.320995 -2.53778 0
M  V30 2648 H 257.862 -0.364452 -5.06591 0
M  V30 2649 H 257.792 1.41568 -5.07214 0
M  V30 2650 H 260.283 0.621386 -3.72756 0
M  V30 2651 H 260.596 0.649787 -7.70063 0
M  V30 2652 H 258.941 0.591296 -6.9248 0
M  V30 2653 H 262.132 0.686472 -4.63039 0
M  V30 2654 H 262.305 0.69965 -6.44212 0
M  V30 2655 N 255.711 1.52812 0.385517 0
M  V30 2656 C 256.958 1.68026 1.1302 0
M  V30 2657 C 257.286 0.421934 1.89868 0
M  V30 2658 O 256.541 -0.595749 1.86412 0
M  V30 2659 C 256.84 2.86856 2.13187 0
M  V30 2660 C 256.506 4.24159 1.5297 0
M  V30 2661 C 255.168 4.61501 1.36274 0
M  V30 2662 C 257.52 5.09627 1.09223 0
M  V30 2663 C 254.848 5.81966 0.743837 0
M  V30 2664 C 257.2 6.30719 0.487411 0
M  V30 2665 C 255.864 6.6679 0.307777 0
M  V30 2666 H 255.134 0.614849 0.413571 0
M  V30 2667 H 257.781 1.86962 0.414405 0
M  V30 2668 H 256.086 2.6235 2.90998 0
M  V30 2669 H 257.783 2.95821 2.70722 0
M  V30 2670 H 254.373 3.94746 1.66954 0
M  V30 2671 H 258.557 4.81343 1.20922 0
M  V30 2672 H 253.813 6.08519 0.592891 0
M  V30 2673 H 257.987 6.96259 0.140143 0
M  V30 2674 H 255.614 7.60001 -0.173879 0
M  V30 2675 N 257.189 -0.644168 1.43834 0
M  V30 2676 C 258.435 -1.40603 1.46146 0
M  V30 2677 C 258.768 -1.93997 0.0887717 0
M  V30 2678 O 258.043 -1.72854 -0.891724 0
M  V30 2679 C 258.326 -2.58086 2.51124 0
M  V30 2680 C 258.179 -2.10126 3.97702 0
M  V30 2681 C 259.498 -3.60291 2.52742 0
M  V30 2682 H 256.617 -0.509905 0.532134 0
M  V30 2683 H 259.259 -0.729502 1.75437 0
M  V30 2684 H 257.409 -3.15801 2.26278 0
M  V30 2685 H 259.081 -1.57342 4.33637 0
M  V30 2686 H 257.324 -1.41419 4.10101 0
M  V30 2687 H 257.995 -2.94649 4.66783 0
M  V30 2688 H 260.471 -3.12352 2.7491 0
M  V30 2689 H 259.347 -4.40032 3.28121 0
M  V30 2690 H 259.608 -4.1349 1.56455 0
M  V30 2691 N 258.668 -1.30515 -0.883378 0
M  V30 2692 C 259.898 -1.22182 -1.66599 0
M  V30 2693 C 260.306 0.217507 -1.87946 0
M  V30 2694 O 259.649 1.1554 -1.42815 0
M  V30 2695 C 259.711 -1.88146 -3.06335 0
M  V30 2696 C 259.375 -3.37476 -3.08154 0
M  V30 2697 C 260.372 -4.33443 -2.87094 0
M  V30 2698 C 258.057 -3.7895 -3.29701 0
M  V30 2699 C 260.051 -5.68858 -2.8754 0
M  V30 2700 C 257.738 -5.14482 -3.29776 0
M  V30 2701 C 258.736 -6.09246 -3.0872 0
M  V30 2702 O 258.424 -7.42302 -3.08615 0
M  V30 2703 H 258.156 -0.423898 -0.52658 0
M  V30 2704 H 260.71 -1.72703 -1.11188 0
M  V30 2705 H 258.94 -1.32157 -3.63416 0
M  V30 2706 H 260.629 -1.7391 -3.66756 0
M  V30 2707 H 261.395 -4.02733 -2.70243 0
M  V30 2708 H 257.274 -3.05631 -3.45124 0
M  V30 2709 H 260.818 -6.428 -2.71024 0
M  V30 2710 H 256.715 -5.44832 -3.46163 0
M  V30 2711 H 257.483 -7.5131 -3.24769 0
M  V30 2712 N 260.146 1.09593 -1.13257 0
M  V30 2713 C 261.386 1.83349 -0.903472 0
M  V30 2714 C 261.75 1.83641 0.560351 0
M  V30 2715 O 262.951 2.53037 0.906947 0
M  V30 2716 C 261.222 3.25629 -1.47311 0
M  V30 2717 S 262.781 4.16408 -1.38382 0
M  V30 2718 H 259.599 0.632014 -0.325699 0
M  V30 2719 H 262.201 1.31817 -1.44376 0
M  V30 2720 H 260.905 3.22991 -2.53189 0
M  V30 2721 H 260.436 3.82233 -0.930689 0
M  V30 2722 H 262.451 4.94884 -0.361113 0
M  V30 2723 N 261.624 0.925811 1.2754 0
M  V30 2724 C 262.587 0.428129 2.25166 0
M  V30 2725 C 263.587 -0.452261 1.54309 0
M  V30 2726 O 264.777 -0.253608 1.72344 0
M  V30 2727 C 261.909 -0.384749 3.38722 0
M  V30 2728 H 263.102 1.29066 2.70706 0
M  V30 2729 H 260.655 0.706323 1.3943 0
M  V30 2730 H 261.39 -1.26618 2.98561 0
M  V30 2731 H 261.175 0.246454 3.91325 0
M  V30 2732 H 262.665 -0.723389 4.11287 0
M  V30 2733 N 263.102 -1.41638 0.69111 0
M  V30 2734 C 264.327 -2.06148 0.227583 0
M  V30 2735 C 264.752 -1.51652 -1.11281 0
M  V30 2736 O 264.11 -0.64164 -1.69566 0
M  V30 2737 C 264.158 -3.60095 0.190858 0
M  V30 2738 O 263.262 -4.03845 -0.835664 0
M  V30 2739 H 262.603 -0.654434 0.112306 0
M  V30 2740 H 265.133 -1.81484 0.944714 0
M  V30 2741 H 265.143 -4.07995 0.020207 0
M  V30 2742 H 263.818 -3.99129 1.16915 0
M  V30 2743 H 262.395 -3.67458 -0.63473 0
M  V30 2744 N 264.58 -0.43555 -1.51462 0
M  V30 2745 C 265.82 0.130708 -2.03982 0
M  V30 2746 C 266.184 1.40117 -1.31268 0
M  V30 2747 O 267.385 2.04755 -1.74152 0
M  V30 2748 C 265.656 0.346102 -3.5572 0
M  V30 2749 S 267.215 0.876022 -4.29967 0
M  V30 2750 H 264.033 0.0326881 -0.710248 0
M  V30 2751 H 266.635 -0.594544 -1.8624 0
M  V30 2752 H 265.339 -0.584911 -4.0621 0
M  V30 2753 H 264.87 1.09849 -3.77752 0
M  V30 2754 H 266.885 2.15379 -4.47019 0
M  V30 2755 N 266.058 1.56714 -0.166846 0
M  V30 2756 C 267.307 1.95922 0.479318 0
M  V30 2757 C 267.62 1.05529 1.6469 0
M  V30 2758 O 268.826 1.34399 2.35901 0
M  V30 2759 C 267.282 3.48359 0.90412 0
M  V30 2760 C 266.89 4.47369 -0.237621 0
M  V30 2761 C 268.634 3.96394 1.51896 0
M  V30 2762 C 266.541 5.91039 0.206561 0
M  V30 2763 H 265.471 0.731495 0.18284 0
M  V30 2764 H 268.122 1.81728 -0.254363 0
M  V30 2765 H 266.504 3.57955 1.69365 0
M  V30 2766 H 267.678 4.49485 -1.01489 0
M  V30 2767 H 265.993 4.09366 -0.762128 0
M  V30 2768 H 268.59 5.01186 1.86325 0
M  V30 2769 H 268.933 3.39075 2.41524 0
M  V30 2770 H 269.466 3.89796 0.79395 0
M  V30 2771 H 266.205 6.52221 -0.654834 0
M  V30 2772 H 265.725 5.9224 0.949282 0
M  V30 2773 H 267.404 6.43707 0.651939 0
M  V30 2774 N 267.536 -0.106894 1.57237 0
M  V30 2775 C 268.776 -0.818277 1.87306 0
M  V30 2776 C 269.14 -1.76474 0.756371 0
M  V30 2777 O 270.341 -2.5186 0.939155 0
M  V30 2778 C 268.612 -1.53806 3.22612 0
M  V30 2779 S 270.171 -2.28935 3.74345 0
M  V30 2780 H 266.989 -0.272862 0.656557 0
M  V30 2781 H 269.591 -0.075988 1.95352 0
M  V30 2782 H 268.295 -0.834951 4.01817 0
M  V30 2783 H 267.826 -2.32049 3.17674 0
M  V30 2784 H 269.841 -3.54871 3.46815 0
M  V30 2785 N 269.014 -1.53014 -0.377408 0
M  V30 2786 C 270.244 -1.72265 -1.14054 0
M  V30 2787 C 270.652 -0.44601 -1.83868 0
M  V30 2788 O 269.995 0.590095 -1.73964 0
M  V30 2789 C 270.057 -2.82492 -2.22348 0
M  V30 2790 C 269.721 -4.23233 -1.72402 0
M  V30 2791 C 270.718 -5.05992 -1.19448 0
M  V30 2792 C 268.403 -4.696 -1.78273 0
M  V30 2793 C 270.397 -6.33203 -0.730268 0
M  V30 2794 C 268.084 -5.96792 -1.31464 0
M  V30 2795 C 269.082 -6.78424 -0.789297 0
M  V30 2796 O 268.77 -8.0323 -0.328077 0
M  V30 2797 H 268.502 -0.579873 -0.347453 0
M  V30 2798 H 271.056 -2.00502 -0.445882 0
M  V30 2799 H 269.286 -2.49702 -2.95272 0
M  V30 2800 H 270.975 -2.90034 -2.83963 0
M  V30 2801 H 271.741 -4.71349 -1.14259 0
M  V30 2802 H 267.62 -4.06142 -2.18106 0
M  V30 2803 H 271.164 -6.96868 -0.319542 0
M  V30 2804 H 267.061 -6.30937 -1.36342 0
M  V30 2805 H 267.829 -8.1727 -0.448493 0
M  V30 2806 N 270.492 0.636531 -1.44174 0
M  V30 2807 C 271.425 1.76139 -1.45087 0
M  V30 2808 C 272.403 1.59611 -0.310326 0
M  V30 2809 O 273.587 1.81568 -0.506477 0
M  V30 2810 C 270.714 3.13648 -1.27839 0
M  V30 2811 C 269.76 3.48838 -2.45386 0
M  V30 2812 S 270.593 3.46927 -4.07924 0
M  V30 2813 C 271.749 4.87064 -3.9309 0
M  V30 2814 H 271.982 1.75096 -2.40268 0
M  V30 2815 H 269.515 0.810666 -1.31406 0
M  V30 2816 H 271.473 3.93002 -1.18575 0
M  V30 2817 H 270.134 3.12235 -0.341787 0
M  V30 2818 H 269.327 4.48886 -2.29167 0
M  V30 2819 H 268.929 2.76935 -2.51362 0
M  V30 2820 H 271.221 5.76153 -3.56446 0
M  V30 2821 H 272.164 5.08337 -4.92949 0
M  V30 2822 H 272.572 4.61384 -3.25246 0
M  V30 2823 N 271.97 1.30982 0.876444 0
M  V30 2824 C 272.9 1.20668 1.99903 0
M  V30 2825 C 273.881 0.095354 1.69833 0
M  V30 2826 O 275.066 0.27885 1.92188 0
M  V30 2827 C 272.196 0.90655 3.3526 0
M  V30 2828 C 271.15 1.97675 3.79617 0
M  V30 2829 C 270.476 1.52943 5.1236 0
M  V30 2830 C 271.776 3.389 3.97422 0
M  V30 2831 H 273.47 2.14586 2.0879 0
M  V30 2832 H 271.016 1.03308 1.00317 0
M  V30 2833 H 272.969 0.821025 4.13324 0
M  V30 2834 H 271.693 -0.0682969 3.26529 0
M  V30 2835 H 270.352 2.05205 3.03787 0
M  V30 2836 H 270 0.54262 5.00065 0
M  V30 2837 H 269.7 2.24532 5.43009 0
M  V30 2838 H 271.224 1.45786 5.92941 0
M  V30 2839 H 272.638 3.34081 4.659 0
M  V30 2840 H 271.035 4.0865 4.3946 0
M  V30 2841 H 272.105 3.80163 3.01006 0
M  V30 2842 N 273.449 -1.08991 1.13837 0
M  V30 2843 C 274.397 -2.17841 0.815347 0
M  V30 2844 C 275.391 -1.68164 -0.204233 0
M  V30 2845 O 276.597 -1.79897 -0.0609304 0
M  V30 2846 H 272.972 -0.710654 0.245915 0
M  V30 2847 H 274.943 -2.42315 1.74143 0
M  V30 2848 C 273.692 -3.46381 0.302614 0
M  V30 2849 H 273.015 -3.84979 1.0785 0
M  V30 2850 H 274.455 -4.23844 0.115074 0
M  V30 2851 C 272.914 -3.22556 -0.972591 0
M  V30 2852 O 273.444 -3.45599 -2.04754 0
M  V30 2853 N 271.65 -2.76134 -0.905455 0
M  V30 2854 H 271.197 -2.57582 -0.0305421 0
M  V30 2855 H 271.155 -2.60571 -1.75926 0
M  V30 2856 N 274.927 -0.932562 -1.27047 0
M  V30 2857 C 275.875 -0.42603 -2.28665 0
M  V30 2858 C 276.869 0.49219 -1.62092 0
M  V30 2859 O 278.075 0.371355 -1.76128 0
M  V30 2860 H 274.45 -0.119213 -0.742491 0
M  V30 2861 H 276.421 -1.29579 -2.68797 0
M  V30 2862 C 275.17 0.301426 -3.46391 0
M  V30 2863 H 274.493 -0.39595 -3.97834 0
M  V30 2864 H 275.933 0.6202 -4.1944 0
M  V30 2865 C 274.392 1.51616 -3.00856 0
M  V30 2866 O 274.922 2.61476 -3.04948 0
M  V30 2867 N 273.128 1.36969 -2.56296 0
M  V30 2868 H 272.675 0.475873 -2.53166 0
M  V30 2869 H 272.633 2.18368 -2.26192 0
M  V30 2870 N 276.405 1.4127 -0.698611 0
M  V30 2871 C 277.651 2.01979 -0.239972 0
M  V30 2872 C 278.006 1.54353 1.14861 0
M  V30 2873 O 277.299 0.746218 1.76471 0
M  V30 2874 C 277.493 3.56592 -0.240192 0
M  V30 2875 C 277.322 4.19226 -1.62726 0
M  V30 2876 C 276.092 4.53389 -2.23084 0
M  V30 2877 C 278.29 4.45228 -2.57443 0
M  V30 2878 N 276.272 5.01327 -3.54323 0
M  V30 2879 C 277.643 4.94973 -3.73365 0
M  V30 2880 C 279.698 4.27243 -2.55671 0
M  V30 2881 C 278.401 5.28624 -4.878 0
M  V30 2882 C 280.427 4.61985 -3.69221 0
M  V30 2883 C 279.789 5.11904 -4.83873 0
M  V30 2884 H 275.888 0.770561 -0.133269 0
M  V30 2885 H 278.472 1.71767 -0.916748 0
M  V30 2886 H 276.643 3.86271 0.406082 0
M  V30 2887 H 278.375 4.04025 0.23356 0
M  V30 2888 H 275.13 4.39946 -1.75341 0
M  V30 2889 H 275.554 5.29697 -4.21604 0
M  V30 2890 H 280.196 3.87884 -1.68243 0
M  V30 2891 H 277.914 5.66905 -5.75885 0
M  V30 2892 H 281.5 4.49725 -3.69105 0
M  V30 2893 H 280.38 5.38282 -5.70282 0
M  V30 2894 N 277.883 0.443576 1.51229 0
M  V30 2895 C 279.108 -0.121648 2.07043 0
M  V30 2896 C 279.533 -1.35156 1.30823 0
M  V30 2897 O 278.891 -1.7793 0.347934 0
M  V30 2898 C 278.939 -0.41624 3.5819 0
M  V30 2899 O 278.043 -1.50163 3.8409 0
M  V30 2900 H 277.384 0.000871367 0.663999 0
M  V30 2901 H 279.914 0.626706 1.94765 0
M  V30 2902 H 279.924 -0.664867 4.02546 0
M  V30 2903 H 278.599 0.482653 4.1309 0
M  V30 2904 H 277.176 -1.24248 3.51592 0
M  V30 2905 N 279.361 -1.56624 0.175154 0
M  V30 2906 C 280.609 -1.96609 -0.467885 0
M  V30 2907 C 280.93 -1.06238 -1.63519 0
M  V30 2908 O 280.2 -0.129523 -1.95471 0
M  V30 2909 H 278.78 -0.726008 -0.175845 0
M  V30 2910 H 281.442 -1.93195 0.257234 0
M  V30 2911 H 280.538 -3.00989 -0.825342 0
M  V30 2912 N 280.839 0.0985539 -1.57292 0
M  V30 2913 C 281.772 1.15082 -1.97057 0
M  V30 2914 C 282.75 1.39025 -0.843255 0
M  V30 2915 O 283.934 1.52842 -1.10325 0
M  V30 2916 C 281.061 2.50069 -2.28437 0
M  V30 2917 C 280.107 2.42428 -3.509 0
M  V30 2918 S 280.94 1.84414 -5.02744 0
M  V30 2919 C 282.096 3.21032 -5.37298 0
M  V30 2920 H 282.329 0.811815 -2.86002 0
M  V30 2921 H 279.862 0.306102 -1.51335 0
M  V30 2922 H 281.82 3.27729 -2.47192 0
M  V30 2923 H 280.481 2.8114 -1.40069 0
M  V30 2924 H 279.674 3.41911 -3.70288 0
M  V30 2925 H 279.276 1.72896 -3.31637 0
M  V30 2926 H 281.568 4.17297 -5.33731 0
M  V30 2927 H 282.511 3.06452 -6.38352 0
M  V30 2928 H 282.919 3.20404 -4.64759 0
M  V30 2929 N 282.317 1.53212 0.369288 0
M  V30 2930 C 283.594 1.59815 1.12776 0
M  V30 2931 C 283.974 0.403402 2.0721 0
M  V30 2932 O 283.322 -0.606667 2.20299 0
M  V30 2933 C 283.532 2.94664 1.87013 0
M  V30 2934 C 284.88 3.49109 2.41677 0
M  V30 2935 O 285.904 2.96669 1.97144 0
M  V30 2936 O 284.763 4.40775 3.23079 0
M  V30 2937 H 281.857 0.645376 0.517125 0
M  V30 2938 H 284.403 1.65553 0.37285 0
M  V30 2939 H 283.175 3.73061 1.18071 0
M  V30 2940 H 282.798 2.92401 2.69421 0
M  V30 2941 N 283.795 -0.628877 1.44509 0
M  V30 2942 C 284.728 -1.75367 1.46019 0
M  V30 2943 C 285.706 -1.59444 0.318787 0
M  V30 2944 O 286.89 -1.81297 0.516099 0
M  V30 2945 C 284.017 -3.12965 1.29501 0
M  V30 2946 C 283.063 -3.47532 2.47233 0
M  V30 2947 S 283.896 -3.44758 4.09758 0
M  V30 2948 C 285.052 -4.84973 3.95667 0
M  V30 2949 H 285.285 -1.7382 2.41193 0
M  V30 2950 H 282.818 -0.803686 1.31834 0
M  V30 2951 H 284.776 -3.92367 1.20658 0
M  V30 2952 H 283.437 -3.12049 0.358341 0
M  V30 2953 H 282.63 -4.47664 2.31544 0
M  V30 2954 H 282.232 -2.75598 2.52828 0
M  V30 2955 H 284.524 -5.74255 3.59496 0
M  V30 2956 H 285.467 -5.05716 4.95638 0
M  V30 2957 H 285.875 -4.59653 3.27688 0
M  V30 2958 N 285.273 -1.31445 -0.869486 0
M  V30 2959 C 286.22 -1.19135 -1.97675 0
M  V30 2960 C 287.19 -0.0770266 -1.65921 0
M  V30 2961 O 288.375 -0.249972 -1.89155 0
M  V30 2962 C 285.515 -0.905149 -3.33018 0
M  V30 2963 C 284.628 -2.10285 -3.77365 0
M  V30 2964 C 283.763 -1.75339 -5.01427 0
M  V30 2965 C 282.802 -2.91515 -5.38224 0
M  V30 2966 N 281.939 -2.56762 -6.53466 0
M  V30 2967 H 286.779 -2.13853 -2.07535 0
M  V30 2968 H 284.316 -1.06379 -1.01597 0
M  V30 2969 H 286.274 -0.719765 -4.10944 0
M  V30 2970 H 284.904 0.00519624 -3.228 0
M  V30 2971 H 283.956 -2.39899 -2.95216 0
M  V30 2972 H 285.268 -2.97237 -4.00564 0
M  V30 2973 H 284.422 -1.53266 -5.87022 0
M  V30 2974 H 283.161 -0.855801 -4.80133 0
M  V30 2975 H 282.166 -3.14237 -4.51149 0
M  V30 2976 H 283.391 -3.81985 -5.61484 0
M  V30 2977 H 281.337 -1.69526 -6.33717 0
M  V30 2978 H 281.254 -3.37243 -6.76612 0
M  V30 2979 H 282.522 -2.38083 -7.42251 0
M  V30 2980 N 286.751 1.08385 -1.14413 0
M  V30 2981 C 287.698 2.15311 -0.831265 0
M  V30 2982 C 288.668 1.64751 0.211292 0
M  V30 2983 O 289.853 1.90627 0.0811674 0
M  V30 2984 C 286.993 3.43658 -0.315143 0
M  V30 2985 C 286.106 4.08064 -1.41802 0
M  V30 2986 C 285.241 5.24207 -0.859126 0
M  V30 2987 C 284.28 5.80554 -1.93967 0
M  V30 2988 N 283.417 6.88042 -1.39793 0
M  V30 2989 H 288.257 2.41415 -1.74708 0
M  V30 2990 H 285.794 1.18474 -0.871909 0
M  V30 2991 H 287.752 4.172 0.00230884 0
M  V30 2992 H 286.382 3.17839 0.56378 0
M  V30 2993 H 285.434 3.3228 -1.85187 0
M  V30 2994 H 286.746 4.45962 -2.23427 0
M  V30 2995 H 285.9 6.04689 -0.49359 0
M  V30 2996 H 284.639 4.87699 -0.011932 0
M  V30 2997 H 283.644 4.98725 -2.31415 0
M  V30 2998 H 284.869 6.19121 -2.79046 0
M  V30 2999 H 282.815 6.53493 -0.572919 0
M  V30 3000 H 282.732 7.24767 -2.15054 0
M  V30 3001 H 284 7.72255 -1.0603 0
M  V30 3002 N 288.23 0.939286 1.26551 0
M  V30 3003 C 289.193 0.451987 2.24699 0
M  V30 3004 C 290.193 -0.435869 1.5478 0
M  V30 3005 O 291.383 -0.235314 1.72603 0
M  V30 3006 C 288.515 -0.348801 3.39111 0
M  V30 3007 H 289.708 1.3193 2.69322 0
M  V30 3008 H 287.261 0.721072 1.38673 0
M  V30 3009 H 287.996 -1.23444 2.99887 0
M  V30 3010 H 287.781 0.287945 3.91041 0
M  V30 3011 H 289.271 -0.679726 4.12031 0
M  V30 3012 N 289.708 -1.40897 0.706093 0
M  V30 3013 C 290.957 -2.00284 0.238574 0
M  V30 3014 C 291.27 -1.56604 -1.17194 0
M  V30 3015 O 292.476 -2.08624 -1.73748 0
M  V30 3016 C 290.932 -3.57934 0.375623 0
M  V30 3017 C 290.54 -4.10591 1.79217 0
M  V30 3018 C 292.284 -4.24488 -0.0315857 0
M  V30 3019 C 290.191 -5.60712 1.88032 0
M  V30 3020 H 289.121 -0.749144 0.0854398 0
M  V30 3021 H 291.772 -1.61251 0.875813 0
M  V30 3022 H 290.154 -3.94622 -0.330042 0
M  V30 3023 H 291.328 -3.85301 2.52745 0
M  V30 3024 H 289.643 -3.56601 2.15 0
M  V30 3025 H 292.24 -5.34698 0.0136842 0
M  V30 3026 H 292.583 -4.02261 -1.072 0
M  V30 3027 H 293.116 -3.92873 0.624181 0
M  V30 3028 H 289.855 -5.87781 2.90161 0
M  V30 3029 H 289.375 -5.87896 1.18903 0
M  V30 3030 H 291.054 -6.25658 1.64805 0
M  V30 3031 N 291.186 -0.45159 -1.50991 0
M  V30 3032 C 292.414 0.108334 -2.06616 0
M  V30 3033 C 292.829 1.35224 -1.31757 0
M  V30 3034 O 292.186 1.78475 -0.381174 0
M  V30 3035 C 292.237 0.41619 -3.59096 0
M  V30 3036 O 291.958 -0.778361 -4.3113 0
M  V30 3037 C 293.459 1.02523 -4.31282 0
M  V30 3038 H 290.679 0.00159995 -0.670998 0
M  V30 3039 H 293.223 -0.634771 -1.94399 0
M  V30 3040 H 291.378 1.10921 -3.71181 0
M  V30 3041 H 291.792 -0.511181 -5.22003 0
M  V30 3042 H 293.266 1.19053 -5.39009 0
M  V30 3043 H 293.743 2.01013 -3.905 0
M  V30 3044 H 294.349 0.371173 -4.23677 0
M  V30 3045 N 292.664 1.56529 -0.183458 0
M  V30 3046 C 293.894 2.01331 0.463612 0
M  V30 3047 C 294.302 1.06278 1.5653 0
M  V30 3048 O 293.645 0.0577976 1.83609 0
M  V30 3049 C 293.707 3.42547 1.09096 0
M  V30 3050 C 293.371 4.56817 0.129442 0
M  V30 3051 C 294.368 5.15734 -0.656807 0
M  V30 3052 C 292.053 5.02295 0.02174 0
M  V30 3053 C 294.047 6.1857 -1.53784 0
M  V30 3054 C 291.734 6.04978 -0.862864 0
M  V30 3055 C 292.732 6.62988 -1.64123 0
M  V30 3056 O 292.42 7.63677 -2.51103 0
M  V30 3057 H 292.152 0.664917 0.121907 0
M  V30 3058 H 294.706 2.034 -0.285954 0
M  V30 3059 H 292.936 3.37428 1.88889 0
M  V30 3060 H 294.625 3.71228 1.64148 0
M  V30 3061 H 295.391 4.81473 -0.583839 0
M  V30 3062 H 291.27 4.56847 0.617392 0
M  V30 3063 H 294.814 6.63777 -2.14583 0
M  V30 3064 H 290.711 6.38663 -0.93699 0
M  V30 3065 H 291.479 7.81049 -2.44753 0
M  V30 3066 N 294.142 -0.090211 1.57342 0
M  V30 3067 C 295.391 -0.791531 1.8552 0
M  V30 3068 C 295.704 -1.79659 0.773441 0
M  V30 3069 O 296.91 -2.54616 0.942497 0
M  V30 3070 C 295.366 -1.45856 3.2902 0
M  V30 3071 C 294.974 -0.493017 4.45279 0
M  V30 3072 C 296.718 -2.14332 3.66418 0
M  V30 3073 C 294.625 -1.16491 5.79814 0
M  V30 3074 H 293.555 -0.299356 0.692027 0
M  V30 3075 H 296.206 -0.0445343 1.83446 0
M  V30 3076 H 294.588 -2.25318 3.2565 0
M  V30 3077 H 295.762 0.270464 4.60006 0
M  V30 3078 H 294.077 0.0863061 4.16311 0
M  V30 3079 H 296.674 -2.65344 4.64216 0
M  V30 3080 H 297.017 -2.93447 2.95287 0
M  V30 3081 H 297.55 -1.41724 3.71698 0
M  V30 3082 H 294.289 -0.41447 6.54188 0
M  V30 3083 H 293.809 -1.8997 5.68921 0
M  V30 3084 H 295.488 -1.69001 6.24538 0
M  V30 3085 N 295.62 -1.53406 -0.361157 0
M  V30 3086 C 297.036 -1.43277 -0.703124 0
M  V30 3087 C 297.236 -0.575384 -1.9311 0
M  V30 3088 O 296.292 -0.0595362 -2.5243 0
M  V30 3089 C 297.605 -2.8653 -0.9122 0
M  V30 3090 C 299.153 -2.96191 -1.01193 0
M  V30 3091 C 299.628 -4.40514 -1.25345 0
M  V30 3092 N 301.119 -4.43962 -1.32105 0
M  V30 3093 C 301.854 -5.52746 -1.5251 0
M  V30 3094 N 301.35 -6.71567 -1.70203 0
M  V30 3095 N 303.143 -5.40331 -1.54916 0
M  V30 3096 H 295.294 -2.07654 0.446475 0
M  V30 3097 H 297.557 -0.937944 0.137715 0
M  V30 3098 H 297.263 -3.51605 -0.0816414 0
M  V30 3099 H 297.137 -3.30441 -1.81903 0
M  V30 3100 H 299.524 -2.31266 -1.83303 0
M  V30 3101 H 299.605 -2.55667 -0.0823929 0
M  V30 3102 H 299.249 -5.06014 -0.437346 0
M  V30 3103 H 299.179 -4.78614 -2.19627 0
M  V30 3104 H 301.67 -3.58332 -1.20028 0
M  V30 3105 H 301.983 -7.50241 -1.85359 0
M  V30 3106 H 300.328 -6.74545 -1.67373 0
M  V30 3107 H 303.519 -4.46465 -1.40663 0
M  V30 3108 H 303.692 -6.25173 -1.70477 0
M  V30 3109 N 297.098 0.621204 -1.44841 0
M  V30 3110 C 298.514 0.94048 -1.28946 0
M  V30 3111 C 298.714 2.00154 -0.23249 0
M  V30 3112 O 297.77 2.49651 0.378237 0
M  V30 3113 C 299.083 1.39433 -2.66419 0
M  V30 3114 C 300.631 1.50927 -2.74208 0
M  V30 3115 C 301.106 1.99692 -4.12174 0
M  V30 3116 N 302.597 2.06947 -4.144 0
M  V30 3117 C 303.332 2.45871 -5.1801 0
M  V30 3118 N 302.828 2.83862 -6.31977 0
M  V30 3119 N 304.621 2.46092 -5.05366 0
M  V30 3120 H 296.772 -0.0803548 -2.12248 0
M  V30 3121 H 299.035 0.0266913 -0.947624 0
M  V30 3122 H 298.741 0.688925 -3.44887 0
M  V30 3123 H 298.615 2.36347 -2.93973 0
M  V30 3124 H 301.002 2.20561 -1.96053 0
M  V30 3125 H 301.083 0.523627 -2.50383 0
M  V30 3126 H 300.727 1.30649 -4.90809 0
M  V30 3127 H 300.657 2.99146 -4.33381 0
M  V30 3128 H 303.148 1.80232 -3.32152 0
M  V30 3129 H 303.461 3.12405 -7.0684 0
M  V30 3130 H 301.806 2.8159 -6.35399 0
M  V30 3131 H 304.997 2.1581 -4.15384 0
M  V30 3132 H 305.17 2.76102 -5.86235 0
M  V30 3133 N 298.576 1.31904 0.862503 0
M  V30 3134 C 299.801 1.25135 1.65397 0
M  V30 3135 C 300.226 -0.179 1.87246 0
M  V30 3136 O 299.584 -1.1277 1.4196 0
M  V30 3137 C 299.632 2.00832 2.99498 0
M  V30 3138 O 298.736 1.35075 3.89652 0
M  V30 3139 H 298.077 0.431655 0.504549 0
M  V30 3140 H 300.607 1.74094 1.07483 0
M  V30 3141 H 300.617 2.10709 3.49379 0
M  V30 3142 H 299.292 3.04847 2.82916 0
M  V30 3143 H 297.869 1.33696 3.48109 0
M  V30 3144 N 300.054 -1.07777 1.14986 0
M  V30 3145 C 300.987 -2.14228 0.786243 0
M  V30 3146 C 301.965 -1.60888 -0.235347 0
M  V30 3147 O 303.149 -1.88099 -0.122909 0
M  V30 3148 C 300.276 -3.38281 0.168433 0
M  V30 3149 C 299.322 -4.10387 1.16123 0
M  V30 3150 S 300.155 -4.62371 2.70135 0
M  V30 3151 C 301.311 -5.89704 2.09762 0
M  V30 3152 H 301.544 -2.44741 1.68787 0
M  V30 3153 H 299.077 -1.19984 0.971756 0
M  V30 3154 H 301.035 -4.10098 -0.181588 0
M  V30 3155 H 299.696 -3.05953 -0.710725 0
M  V30 3156 H 298.889 -4.99431 0.677086 0
M  V30 3157 H 298.491 -3.44513 1.45556 0
M  V30 3158 H 300.783 -6.61648 1.45701 0
M  V30 3159 H 301.726 -6.42824 2.96955 0
M  V30 3160 H 302.134 -5.4302 1.54239 0
M  V30 3161 N 301.532 -0.945985 -1.26051 0
M  V30 3162 C 302.757 -0.612525 -1.98149 0
M  V30 3163 C 303.182 0.806623 -1.69927 0
M  V30 3164 O 302.54 1.54411 -0.950108 0
M  V30 3165 C 302.588 -0.866981 -3.50023 0
M  V30 3166 O 301.692 0.0585333 -4.12358 0
M  V30 3167 H 301.033 -0.23379 -0.621481 0
M  V30 3168 H 303.563 -1.27023 -1.60395 0
M  V30 3169 H 303.573 -0.789792 -4.00283 0
M  V30 3170 H 302.248 -1.90135 -3.69894 0
M  V30 3171 H 300.825 -0.0701241 -3.72834 0
M  V30 3172 N 303.011 1.40521 -0.713556 0
M  V30 3173 C 304.241 2.0494 -0.261395 0
M  V30 3174 C 304.649 1.53861 1.10107 0
M  V30 3175 O 303.992 0.689321 1.70276 0
M  V30 3176 C 304.054 3.59138 -0.161227 0
M  V30 3177 C 303.718 4.33096 -1.45865 0
M  V30 3178 C 304.715 4.61182 -2.40016 0
M  V30 3179 C 302.4 4.72043 -1.71701 0
M  V30 3180 C 304.394 5.27196 -3.58251 0
M  V30 3181 C 302.081 5.37789 -2.90218 0
M  V30 3182 C 303.079 5.65295 -3.83315 0
M  V30 3183 O 302.767 6.29683 -4.99754 0
M  V30 3184 H 302.499 0.666041 -0.115608 0
M  V30 3185 H 305.053 1.80954 -0.971849 0
M  V30 3186 H 303.283 3.81936 0.605153 0
M  V30 3187 H 304.972 4.05091 0.256105 0
M  V30 3188 H 305.738 4.31559 -2.21318 0
M  V30 3189 H 301.617 4.50003 -1.00092 0
M  V30 3190 H 305.161 5.48582 -4.30934 0
M  V30 3191 H 301.058 5.66831 -3.08825 0
M  V30 3192 H 301.826 6.4818 -4.99805 0
M  V30 3193 N 304.489 0.459591 1.5075 0
M  V30 3194 C 305.766 -0.160371 1.94941 0
M  V30 3195 C 306.146 -1.58048 1.39943 0
M  V30 3196 O 305.494 -2.206 0.595629 0
M  V30 3197 C 305.704 -0.115432 3.48809 0
M  V30 3198 C 307.052 -0.310026 4.23467 0
M  V30 3199 O 308.076 -0.192543 3.55679 0
M  V30 3200 O 306.935 -0.546031 5.43765 0
M  V30 3201 H 304.029 -0.117925 0.818549 0
M  V30 3202 H 306.575 0.519169 1.61563 0
M  V30 3203 H 305.347 0.87652 3.81357 0
M  V30 3204 H 304.97 -0.836928 3.88692 0
M  V30 3205 N 305.967 -1.56429 0.191757 0
M  V30 3206 C 306.915 -2.20273 -0.747174 0
M  V30 3207 C 307.909 -1.17288 -1.22229 0
M  V30 3208 O 309.115 -1.35441 -1.18557 0
M  V30 3209 H 305.49 -0.705885 -0.259289 0
M  V30 3210 H 307.461 -2.97826 -0.184963 0
M  V30 3211 C 306.21 -2.87356 -1.95759 0
M  V30 3212 H 305.533 -3.66341 -1.60106 0
M  V30 3213 H 306.973 -3.3547 -2.59299 0
M  V30 3214 C 305.432 -1.88213 -2.79423 0
M  V30 3215 O 305.962 -1.38033 -3.7724 0
M  V30 3216 N 304.168 -1.56516 -2.44849 0
M  V30 3217 H 303.715 -1.97516 -1.65364 0
M  V30 3218 H 303.673 -0.904369 -3.01112 0
M  V30 3219 N 307.445 0.0818655 -1.57387 0
M  V30 3220 C 308.693 0.781368 -1.86384 0
M  V30 3221 C 309.014 1.78618 -0.782342 0
M  V30 3222 O 308.284 1.94976 0.190061 0
M  V30 3223 H 306.864 0.291562 -0.687751 0
M  V30 3224 H 309.526 0.060348 -1.94807 0
M  V30 3225 H 308.622 1.3038 -2.83562 0
M  V30 3226 N 308.923 1.53595 0.353017 0
M  V30 3227 C 309.853 1.83902 1.43883 0
M  V30 3228 C 310.834 0.693421 1.55324 0
M  V30 3229 O 312.019 0.944452 1.69687 0
M  V30 3230 C 309.149 2.04016 2.8106 0
M  V30 3231 C 308.103 3.19814 2.84434 0
M  V30 3232 C 307.429 3.25244 4.24406 0
M  V30 3233 C 308.729 4.58133 2.50822 0
M  V30 3234 H 310.423 2.74835 1.1877 0
M  V30 3235 H 307.969 1.32242 0.569917 0
M  V30 3236 H 309.922 2.238 3.57059 0
M  V30 3237 H 308.646 1.09804 3.07588 0
M  V30 3238 H 307.305 2.9987 2.10887 0
M  V30 3239 H 306.953 2.28646 4.48029 0
M  V30 3240 H 306.653 4.03054 4.27576 0
M  V30 3241 H 308.177 3.47228 5.0226 0
M  V30 3242 H 309.591 4.77995 3.16534 0
M  V30 3243 H 307.988 5.38276 2.6529 0
M  V30 3244 H 309.058 4.62387 1.46034 0
M  V30 3245 N 310.401 -0.613514 1.45168 0
M  V30 3246 C 311.364 -1.7065 1.53007 0
M  V30 3247 C 312.364 -1.5548 0.410184 0
M  V30 3248 O 313.554 -1.60656 0.673455 0
M  V30 3249 C 310.686 -3.09875 1.42093 0
M  V30 3250 H 311.879 -1.65068 2.50385 0
M  V30 3251 H 309.432 -0.828728 1.32521 0
M  V30 3252 H 310.167 -3.21039 0.458769 0
M  V30 3253 H 309.952 -3.22293 2.23315 0
M  V30 3254 H 311.442 -3.895 1.50598 0
M  V30 3255 N 311.879 -1.3236 -0.855495 0
M  V30 3256 C 312.811 -1.17052 -1.97057 0
M  V30 3257 C 313.824 -0.10574 -1.62456 0
M  V30 3258 O 315.013 -0.354619 -1.74942 0
M  V30 3259 C 312.113 -0.769305 -3.30053 0
M  V30 3260 C 311.286 -1.9222 -3.929 0
M  V30 3261 C 310.345 -1.50466 -5.04228 0
M  V30 3262 O 309.371 -2.21655 -5.24269 0
M  V30 3263 N 310.573 -0.400209 -5.79119 0
M  V30 3264 H 313.338 -2.13103 -2.1073 0
M  V30 3265 H 310.899 -1.24885 -1.0303 0
M  V30 3266 H 312.891 -0.472407 -4.01933 0
M  V30 3267 H 311.461 0.100025 -3.1244 0
M  V30 3268 H 310.681 -2.38563 -3.13817 0
M  V30 3269 H 311.969 -2.69403 -4.31624 0
M  V30 3270 H 311.367 0.192319 -5.65373 0
M  V30 3271 H 309.924 -0.162912 -6.51596 0
M  V30 3272 N 313.357 1.07166 -1.15556 0
M  V30 3273 C 314.605 1.79443 -0.929764 0
M  V30 3274 C 314.926 1.87246 0.544414 0
M  V30 3275 O 314.196 1.37473 1.39564 0
M  V30 3276 H 312.776 0.664625 -0.341003 0
M  V30 3277 H 315.438 1.29499 -1.45657 0
M  V30 3278 H 314.534 2.81832 -1.34079 0
M  V30 3279 N 314.835 0.952656 1.25548 0
M  V30 3280 C 315.798 0.475794 2.24207 0
M  V30 3281 C 316.798 -0.419428 1.55234 0
M  V30 3282 O 317.988 -0.216994 1.72843 0
M  V30 3283 C 315.12 -0.312814 3.39462 0
M  V30 3284 H 316.313 1.34779 2.67908 0
M  V30 3285 H 313.866 0.735739 1.37901 0
M  V30 3286 H 314.601 -1.20257 3.01179 0
M  V30 3287 H 314.386 0.329404 3.90714 0
M  V30 3288 H 315.876 -0.635986 4.12729 0
M  V30 3289 N 316.313 -1.40141 0.720998 0
M  V30 3290 C 317.561 -2.0039 0.262323 0
M  V30 3291 C 317.882 -1.57469 -1.15015 0
M  V30 3292 O 317.152 -0.816582 -1.78069 0
M  V30 3293 H 315.732 -0.741063 0.093996 0
M  V30 3294 H 318.394 -1.71398 0.927835 0
M  V30 3295 H 317.49 -3.10658 0.299671 0
M  V30 3296 N 317.792 -0.46758 -1.50504 0
M  V30 3297 C 318.722 0.318381 -2.31319 0
M  V30 3298 C 319.703 0.993564 -1.38066 0
M  V30 3299 O 320.888 0.991411 -1.66987 0
M  V30 3300 C 318.018 1.40275 -3.17711 0
M  V30 3301 C 316.972 0.849373 -4.19487 0
M  V30 3302 C 316.298 2.03177 -4.94594 0
M  V30 3303 C 317.598 -0.136942 -5.2212 0
M  V30 3304 H 319.292 -0.356106 -2.97275 0
M  V30 3305 H 316.838 -0.172703 -1.42961 0
M  V30 3306 H 318.791 1.96004 -3.73042 0
M  V30 3307 H 317.515 2.10596 -2.49634 0
M  V30 3308 H 316.174 0.314076 -3.65252 0
M  V30 3309 H 315.822 2.72187 -4.22993 0
M  V30 3310 H 315.522 1.66774 -5.63436 0
M  V30 3311 H 317.046 2.59403 -5.52759 0
M  V30 3312 H 318.46 0.331056 -5.72343 0
M  V30 3313 H 316.857 -0.41507 -5.98663 0
M  V30 3314 H 317.927 -1.06398 -4.73083 0
M  V30 3315 N 319.27 1.56325 -0.20005 0
M  V30 3316 C 320.18 2.22931 0.730668 0
M  V30 3317 C 321.196 1.22997 1.23076 0
M  V30 3318 O 322.372 1.55748 1.27689 0
M  V30 3319 C 319.437 2.87948 1.93098 0
M  V30 3320 C 318.498 4.03166 1.47497 0
M  V30 3321 C 317.731 4.65073 2.61807 0
M  V30 3322 O 317.954 4.25913 3.79413 0
M  V30 3323 O 316.888 5.54452 2.34237 0
M  V30 3324 H 320.714 3.03084 0.193391 0
M  V30 3325 H 318.299 1.49371 0.0294621 0
M  V30 3326 H 320.181 3.29063 2.6324 0
M  V30 3327 H 318.856 2.10771 2.45677 0
M  V30 3328 H 317.763 3.66664 0.742201 0
M  V30 3329 H 319.096 4.82022 0.995796 0
M  V30 3330 N 320.748 -0.0735177 1.57428 0
M  V30 3331 C 321.973 -0.789787 1.91774 0
M  V30 3332 C 322.398 -1.70413 0.796306 0
M  V30 3333 O 321.756 -1.79555 -0.250961 0
M  V30 3334 C 321.804 -1.5609 3.25067 0
M  V30 3335 O 320.908 -2.67144 3.14178 0
M  V30 3336 H 320.249 -0.215582 0.628029 0
M  V30 3337 H 322.779 -0.0422781 2.04556 0
M  V30 3338 H 322.789 -1.94052 3.58898 0
M  V30 3339 H 321.464 -0.890015 4.06265 0
M  V30 3340 H 320.041 -2.32052 2.91901 0
M  V30 3341 N 322.226 -1.5378 -0.344866 0
M  V30 3342 C 323.176 -1.78057 -1.42407 0
M  V30 3343 C 324.16 -0.635732 -1.47808 0
M  V30 3344 O 325.352 -0.89508 -1.527 0
M  V30 3345 C 322.481 -1.99242 -2.79566 0
M  V30 3346 C 321.567 -3.19787 -2.78562 0
M  V30 3347 N 321.958 -4.41284 -2.47189 0
M  V30 3348 C 320.256 -3.2093 -3.0971 0
M  V30 3349 C 320.957 -5.23128 -2.54385 0
M  V30 3350 N 319.933 -4.59813 -2.89953 0
M  V30 3351 H 323.735 -2.69588 -1.17046 0
M  V30 3352 H 321.249 -1.52687 -0.553217 0
M  V30 3353 H 323.246 -2.14768 -3.57324 0
M  V30 3354 H 321.906 -1.08953 -3.05875 0
M  V30 3355 H 322.917 -4.68657 -2.20411 0
M  V30 3356 H 319.594 -2.40603 -3.41199 0
M  V30 3357 H 320.984 -6.30096 -2.333 0
M  V30 3358 N 323.704 0.605807 -1.45491 0
M  V30 3359 C 324.952 1.36207 -1.49305 0
M  V30 3360 C 325.273 1.94519 -0.136863 0
M  V30 3361 O 324.543 1.77261 0.833983 0
M  V30 3362 H 323.123 0.50565 -0.549843 0
M  V30 3363 H 325.785 0.711239 -1.81459 0
M  V30 3364 H 324.881 2.18058 -2.23287 0
M  V30 3365 N 325.182 1.32811 0.848464 0
M  V30 3366 C 326.43 1.23479 1.59991 0
M  V30 3367 C 326.751 -0.201853 1.93952 0
M  V30 3368 O 326.021 -1.12818 1.60153 0
M  V30 3369 H 324.601 0.454034 0.593179 0
M  V30 3370 H 327.263 1.66412 1.01455 0
M  V30 3371 H 326.359 1.82178 2.53412 0
M  V30 3372 N 326.66 -1.06551 1.16123 0
M  V30 3373 C 327.885 -1.83544 0.965735 0
M  V30 3374 C 328.31 -1.81843 -0.481102 0
M  V30 3375 O 327.668 -1.21732 -1.34354 0
M  V30 3376 C 327.716 -3.28169 1.49457 0
M  V30 3377 O 326.82 -4.0643 0.699157 0
M  V30 3378 H 326.161 -0.568026 0.343864 0
M  V30 3379 H 328.691 -1.34362 1.54299 0
M  V30 3380 H 328.701 -3.78992 1.51092 0
M  V30 3381 H 327.376 -3.28722 2.54784 0
M  V30 3382 H 325.953 -3.65216 0.7531 0
M  V30 3383 N 328.138 -0.959301 -1.25041 0
M  V30 3384 C 329.366 -0.633949 -1.96948 0
M  V30 3385 C 329.781 0.794916 -1.7125 0
M  V30 3386 O 329.138 1.53231 -0.991287 0
M  V30 3387 C 329.189 -0.888805 -3.50403 0
M  V30 3388 O 328.91 -2.26149 -3.75218 0
M  V30 3389 C 330.411 -0.576482 -4.39536 0
M  V30 3390 H 327.631 -0.237263 -0.627652 0
M  V30 3391 H 330.175 -1.28495 -1.59089 0
M  V30 3392 H 328.33 -0.284145 -3.86357 0
M  V30 3393 H 328.744 -2.33514 -4.6965 0
M  V30 3394 H 330.218 -0.805314 -5.46094 0
M  V30 3395 H 330.695 0.489075 -4.36468 0
M  V30 3396 H 331.301 -1.16067 -4.09156 0
M  V30 3397 N 329.616 1.39756 -0.72842 0
M  V30 3398 C 330.863 2.00645 -0.273487 0
M  V30 3399 C 331.191 1.57786 1.13727 0
M  V30 3400 O 330.446 0.794886 1.7883 0
M  V30 3401 C 330.745 3.56002 -0.315776 0
M  V30 3402 C 330.411 4.18489 -1.67863 0
M  V30 3403 C 329.073 4.3527 -2.05166 0
M  V30 3404 C 331.425 4.53219 -2.57375 0
M  V30 3405 C 328.753 4.84069 -3.31503 0
M  V30 3406 C 331.105 5.03423 -3.83077 0
M  V30 3407 C 329.769 5.18413 -4.20481 0
M  V30 3408 H 329.039 0.734211 -0.100076 0
M  V30 3409 H 331.686 1.6718 -0.933972 0
M  V30 3410 H 329.991 3.89452 0.428285 0
M  V30 3411 H 331.688 4.00963 0.0542575 0
M  V30 3412 H 328.278 4.05824 -1.37858 0
M  V30 3413 H 332.462 4.39878 -2.29827 0
M  V30 3414 H 327.718 4.93859 -3.60435 0
M  V30 3415 H 331.892 5.2927 -4.52599 0
M  V30 3416 H 329.519 5.55987 -5.18443 0
M  V30 3417 N 331.094 0.475555 1.50254 0
M  V30 3418 C 332.334 -0.0765802 2.04256 0
M  V30 3419 C 332.698 -1.36587 1.34937 0
M  V30 3420 O 333.899 -2.00066 1.79519 0
M  V30 3421 C 332.17 -0.251668 3.56513 0
M  V30 3422 S 333.729 -0.761716 4.32138 0
M  V30 3423 H 330.547 -0.0138456 0.710865 0
M  V30 3424 H 333.149 0.643714 1.84598 0
M  V30 3425 H 331.853 0.692404 4.04517 0
M  V30 3426 H 331.384 -0.997946 3.80532 0
M  V30 3427 H 333.399 -2.03451 4.52573 0
M  V30 3428 N 332.573 -1.56217 0.208337 0
M  V30 3429 C 333.821 -1.97558 -0.426076 0
M  V30 3430 C 334.142 -1.09683 -1.61229 0
M  V30 3431 O 333.412 -0.170956 -1.95153 0
M  V30 3432 H 331.992 -0.729575 -0.160405 0
M  V30 3433 H 334.654 -1.92606 0.298155 0
M  V30 3434 H 333.75 -3.02672 -0.761312 0
M  V30 3435 N 334.051 0.0651679 -1.57465 0
M  V30 3436 C 335.3 0.761916 -1.86756 0
M  V30 3437 C 335.613 1.78406 -0.801925 0
M  V30 3438 O 336.819 2.53084 -0.982885 0
M  V30 3439 C 335.275 1.40603 -3.31299 0
M  V30 3440 C 334.883 0.422115 -4.46007 0
M  V30 3441 C 336.627 2.08476 -3.69781 0
M  V30 3442 C 334.534 1.07252 -5.81593 0
M  V30 3443 H 333.464 0.288308 -0.696702 0
M  V30 3444 H 336.115 0.015344 -1.83494 0
M  V30 3445 H 334.497 2.20109 -3.29193 0
M  V30 3446 H 335.671 -0.343613 -4.59517 0
M  V30 3447 H 333.986 -0.152527 -4.16121 0
M  V30 3448 H 336.583 2.57925 -4.68379 0
M  V30 3449 H 336.926 2.88712 -2.99919 0
M  V30 3450 H 337.459 1.35792 -3.73905 0
M  V30 3451 H 334.198 0.310342 -6.54765 0
M  V30 3452 H 333.718 1.80895 -5.71872 0
M  V30 3453 H 335.397 1.59043 -6.27148 0
M  V30 3454 N 335.529 1.53961 0.336706 0
M  V30 3455 C 336.492 1.81724 1.39675 0
M  V30 3456 C 337.492 0.688532 1.45313 0
M  V30 3457 O 338.682 0.956829 1.45569 0
M  V30 3458 C 335.814 1.96543 2.78538 0
M  V30 3459 H 337.007 2.76424 1.16318 0
M  V30 3460 H 334.56 1.45478 0.571474 0
M  V30 3461 H 335.295 1.0401 3.07168 0
M  V30 3462 H 335.08 2.78665 2.75841 0
M  V30 3463 H 336.57 2.19516 3.5525 0
M  V30 3464 N 337.007 -0.598083 1.45811 0
M  V30 3465 C 338.232 -1.3881 1.54099 0
M  V30 3466 C 338.657 -1.8726 0.177578 0
M  V30 3467 O 338.015 -1.6069 -0.839541 0
M  V30 3468 C 338.063 -2.56217 2.53743 0
M  V30 3469 O 337.167 -3.5716 2.06182 0
M  V30 3470 H 336.508 -0.414024 0.519115 0
M  V30 3471 H 339.038 -0.726971 1.91249 0
M  V30 3472 H 339.048 -3.03337 2.72856 0
M  V30 3473 H 337.723 -2.20303 3.5276 0
M  V30 3474 H 336.3 -3.16624 1.96987 0
M  V30 3475 N 338.485 -1.33259 -0.841409 0
M  V30 3476 C 339.415 -1.25926 -1.96634 0
M  V30 3477 C 340.396 -0.140349 -1.6952 0
M  V30 3478 O 341.581 -0.329707 -1.91381 0
M  V30 3479 C 338.711 -0.99512 -3.32738 0
M  V30 3480 C 337.665 -2.0767 -3.74242 0
M  V30 3481 C 336.991 -1.66474 -5.08125 0
M  V30 3482 C 338.291 -3.49318 -3.88297 0
M  V30 3483 H 339.985 -2.20046 -2.03027 0
M  V30 3484 H 337.531 -1.05931 -0.975425 0
M  V30 3485 H 339.484 -0.930323 -4.11002 0
M  V30 3486 H 338.208 -0.0183004 -3.26595 0
M  V30 3487 H 336.867 -2.13187 -2.98239 0
M  V30 3488 H 336.515 -0.675012 -4.9845 0
M  V30 3489 H 336.215 -2.3885 -5.36865 0
M  V30 3490 H 337.739 -1.61455 -5.88867 0
M  V30 3491 H 339.153 -3.46316 -4.56879 0
M  V30 3492 H 337.55 -4.20158 -4.28471 0
M  V30 3493 H 338.62 -3.8801 -2.9082 0
M  V30 3494 N 339.963 1.05934 -1.16686 0
M  V30 3495 C 341.203 1.80382 -0.961345 0
M  V30 3496 C 341.567 1.85331 0.501643 0
M  V30 3497 O 342.768 2.55795 0.825986 0
M  V30 3498 C 341.039 3.20777 -1.57596 0
M  V30 3499 S 342.598 4.11795 -1.51559 0
M  V30 3500 H 339.416 0.621332 -0.345641 0
M  V30 3501 H 342.018 1.27157 -1.48497 0
M  V30 3502 H 340.722 3.14773 -2.63337 0
M  V30 3503 H 340.253 3.79078 -1.05182 0
M  V30 3504 H 342.268 4.93485 -0.518374 0
M  V30 3505 N 341.441 0.965919 1.2453 0
M  V30 3506 C 342.371 0.513476 2.27784 0
M  V30 3507 C 343.352 -0.445974 1.6415 0
M  V30 3508 O 344.537 -0.342485 1.91156 0
M  V30 3509 C 341.667 -0.198839 3.4673 0
M  V30 3510 C 340.621 0.676456 4.2262 0
M  V30 3511 C 339.947 -0.167248 5.34438 0
M  V30 3512 C 341.247 1.96017 4.84123 0
M  V30 3513 H 342.941 1.3765 2.65881 0
M  V30 3514 H 340.487 0.663321 1.27813 0
M  V30 3515 H 342.44 -0.526567 4.18097 0
M  V30 3516 H 341.164 -1.0962 3.07654 0
M  V30 3517 H 339.823 0.98743 3.53052 0
M  V30 3518 H 339.471 -1.0647 4.91603 0
M  V30 3519 H 339.171 0.415181 5.86131 0
M  V30 3520 H 340.695 -0.489688 6.08633 0
M  V30 3521 H 342.109 1.69814 5.47573 0
M  V30 3522 H 340.506 2.48918 5.4604 0
M  V30 3523 H 341.576 2.65622 4.05676 0
M  V30 3524 N 342.919 -1.39368 0.735821 0
M  V30 3525 C 343.852 -2.28155 0.0451175 0
M  V30 3526 C 344.83 -1.44433 -0.746852 0
M  V30 3527 O 346.014 -1.73823 -0.729237 0
M  V30 3528 C 343.141 -3.253 -0.943266 0
M  V30 3529 C 342.187 -4.25826 -0.239685 0
M  V30 3530 S 343.02 -5.25166 1.04693 0
M  V30 3531 C 344.176 -6.2587 0.0611639 0
M  V30 3532 H 344.409 -2.86388 0.79807 0
M  V30 3533 H 341.942 -1.45104 0.527653 0
M  V30 3534 H 343.9 -3.81789 -1.50824 0
M  V30 3535 H 342.561 -2.66085 -1.66906 0
M  V30 3536 H 341.754 -4.94229 -0.987596 0
M  V30 3537 H 341.356 -3.73141 0.253274 0
M  V30 3538 H 343.648 -6.73007 -0.778941 0
M  V30 3539 H 344.591 -7.04508 0.712362 0
M  V30 3540 H 344.999 -5.63639 -0.311602 0
M  V30 3541 N 344.397 -0.483516 -1.5 0
M  V30 3542 C 345.645 0.067027 -2.01989 0
M  V30 3543 C 345.966 1.3909 -1.36671 0
M  V30 3544 O 345.236 1.88978 -0.516152 0
M  V30 3545 H 343.816 0.0277606 -0.746484 0
M  V30 3546 H 346.478 -0.636773 -1.84204 0
M  V30 3547 H 345.574 0.209484 -3.11396 0
M  V30 3548 N 345.875 1.56104 -0.216619 0
M  V30 3549 C 346.822 2.2007 0.695531 0
M  V30 3550 C 347.792 1.15471 1.19397 0
M  V30 3551 O 348.977 1.43807 1.25396 0
M  V30 3552 C 346.117 2.88073 1.90021 0
M  V30 3553 C 345.23 4.07253 1.44113 0
M  V30 3554 C 344.365 4.63052 2.603 0
M  V30 3555 C 343.404 5.74545 2.11103 0
M  V30 3556 N 342.541 6.24656 3.20545 0
M  V30 3557 H 347.381 2.97655 0.143327 0
M  V30 3558 H 344.918 1.46982 0.0589934 0
M  V30 3559 H 346.876 3.25681 2.60745 0
M  V30 3560 H 345.506 2.13015 2.42538 0
M  V30 3561 H 344.558 3.75164 0.628999 0
M  V30 3562 H 345.87 4.8783 1.04036 0
M  V30 3563 H 345.024 5.03078 3.39113 0
M  V30 3564 H 343.763 3.81628 3.03663 0
M  V30 3565 H 342.768 5.34027 1.3075 0
M  V30 3566 H 343.993 6.57801 1.68746 0
M  V30 3567 H 341.939 5.46148 3.63399 0
M  V30 3568 H 341.856 7.00343 2.84704 0
M  V30 3569 H 343.124 6.69338 3.99508 0
M  V30 3570 N 347.353 -0.0568162 1.57498 0
M  V30 3571 C 348.283 -1.06593 2.0775 0
M  V30 3572 C 349.264 -1.39448 0.974082 0
M  V30 3573 O 350.449 -1.48815 1.24771 0
M  V30 3574 C 347.579 -2.37509 2.5339 0
M  V30 3575 C 346.533 -2.1897 3.67745 0
M  V30 3576 C 345.859 -3.55402 3.99492 0
M  V30 3577 C 347.159 -1.59859 4.97235 0
M  V30 3578 H 348.853 -0.647706 2.9231 0
M  V30 3579 H 346.399 -0.310116 1.40621 0
M  V30 3580 H 348.352 -3.08409 2.87162 0
M  V30 3581 H 347.076 -2.8134 1.65878 0
M  V30 3582 H 345.735 -1.50508 3.3428 0
M  V30 3583 H 345.383 -3.9683 3.09088 0
M  V30 3584 H 345.083 -3.43831 4.76502 0
M  V30 3585 H 346.607 -4.27708 4.35773 0
M  V30 3586 H 348.021 -2.20642 5.29141 0
M  V30 3587 H 346.418 -1.58942 5.78669 0
M  V30 3588 H 347.488 -0.561506 4.81638 0
M  V30 3589 N 348.832 -1.54138 -0.328536 0
M  V30 3590 C 349.742 -1.86192 -1.42723 0
M  V30 3591 C 350.758 -0.753382 -1.56844 0
M  V30 3592 O 351.934 -1.04718 -1.72035 0
M  V30 3593 C 348.999 -2.07824 -2.77507 0
M  V30 3594 C 348.06 -3.31641 -2.72603 0
M  V30 3595 C 347.293 -3.52232 -4.00959 0
M  V30 3596 O 347.516 -2.7636 -4.9898 0
M  V30 3597 O 346.45 -4.45699 -4.0452 0
M  V30 3598 H 350.276 -2.79608 -1.18547 0
M  V30 3599 H 347.861 -1.3998 -0.522104 0
M  V30 3600 H 349.743 -2.23411 -3.57303 0
M  V30 3601 H 348.418 -1.17596 -3.01584 0
M  V30 3602 H 347.325 -3.21444 -1.91376 0
M  V30 3603 H 348.658 -4.2191 -2.53481 0
M  V30 3604 N 350.31 0.590341 -1.46126 0
M  V30 3605 C 351.22 1.72793 -1.58681 0
M  V30 3606 C 352.236 1.67516 -0.470566 0
M  V30 3607 O 353.412 1.87562 -0.733642 0
M  V30 3608 C 350.477 3.09287 -1.5666 0
M  V30 3609 C 349.538 3.25886 -2.79458 0
M  V30 3610 C 348.771 4.55869 -2.77524 0
M  V30 3611 O 348.994 5.3928 -1.85832 0
M  V30 3612 O 347.928 4.75552 -3.68964 0
M  V30 3613 H 351.754 1.65149 -2.54872 0
M  V30 3614 H 349.339 0.756486 -1.28832 0
M  V30 3615 H 351.221 3.90577 -1.58202 0
M  V30 3616 H 349.896 3.17385 -0.636271 0
M  V30 3617 H 348.803 2.44119 -2.83472 0
M  V30 3618 H 350.136 3.22675 -3.71674 0
M  V30 3619 N 351.788 1.33704 0.83433 0
M  V30 3620 C 353.034 1.25603 1.59222 0
M  V30 3621 C 353.367 -0.176659 1.93395 0
M  V30 3622 O 352.642 -1.11915 1.59076 0
M  V30 3623 C 352.925 2.13576 2.89926 0
M  V30 3624 C 352.778 3.65326 2.62406 0
M  V30 3625 C 354.097 2.01238 3.91397 0
M  V30 3626 H 351.216 0.457613 0.577719 0
M  V30 3627 H 353.858 1.63848 0.961972 0
M  V30 3628 H 352.008 1.8109 3.43713 0
M  V30 3629 H 353.68 4.08124 2.15017 0
M  V30 3630 H 351.923 3.8698 1.96033 0
M  V30 3631 H 352.594 4.22232 3.55562 0
M  V30 3632 H 355.07 2.29738 3.46929 0
M  V30 3633 H 353.946 2.65036 4.80673 0
M  V30 3634 H 354.207 0.985951 4.30966 0
M  V30 3635 N 353.266 -1.05314 1.17247 0
M  V30 3636 C 354.513 -1.78293 0.960091 0
M  V30 3637 C 354.841 -1.87658 -0.51136 0
M  V30 3638 O 354.096 -1.3718 -1.39571 0
M  V30 3639 C 354.395 -3.2229 1.54479 0
M  V30 3640 C 354.061 -3.32987 3.04024 0
M  V30 3641 C 352.723 -3.35613 3.44844 0
M  V30 3642 C 355.075 -3.34102 4.00031 0
M  V30 3643 C 352.403 -3.36982 4.8027 0
M  V30 3644 C 354.755 -3.3701 5.35357 0
M  V30 3645 C 353.419 -3.37923 5.75642 0
M  V30 3646 H 352.689 -0.652422 0.351322 0
M  V30 3647 H 355.336 -1.23782 1.46117 0
M  V30 3648 H 353.641 -3.7972 0.965391 0
M  V30 3649 H 355.338 -3.77376 1.35603 0
M  V30 3650 H 351.928 -3.31655 2.71483 0
M  V30 3651 H 356.112 -3.31276 3.69554 0
M  V30 3652 H 351.368 -3.35999 5.10798 0
M  V30 3653 H 355.542 -3.36822 6.09528 0
M  V30 3654 H 353.169 -3.38738 6.80559 0
M  V30 3655 N 354.744 -0.972509 -1.24016 0
M  V30 3656 C 355.969 -0.654417 -1.96805 0
M  V30 3657 C 356.394 0.770398 -1.716 0
M  V30 3658 O 355.752 1.52361 -0.982647 0
M  V30 3659 C 355.8 -0.941031 -3.48105 0
M  V30 3660 O 354.904 -0.0289472 -4.1239 0
M  V30 3661 H 354.245 -0.24692 -0.616382 0
M  V30 3662 H 356.775 -1.30396 -1.57664 0
M  V30 3663 H 356.785 -0.87452 -3.98517 0
M  V30 3664 H 355.46 -1.97939 -3.65777 0
M  V30 3665 H 354.037 -0.149192 -3.72601 0
M  V30 3666 N 356.222 1.38976 -0.743202 0
M  V30 3667 C 357.132 2.3434 -0.110399 0
M  V30 3668 C 358.148 1.58741 0.712559 0
M  V30 3669 O 359.324 1.9099 0.639125 0
M  V30 3670 C 356.389 3.37812 0.780012 0
M  V30 3671 C 355.45 4.29263 -0.0561319 0
M  V30 3672 C 354.683 5.27793 0.791875 0
M  V30 3673 O 354.906 5.33043 2.03031 0
M  V30 3674 O 353.84 6.01512 0.216183 0
M  V30 3675 H 357.666 2.90129 -0.897714 0
M  V30 3676 H 355.251 1.40643 -0.503966 0
M  V30 3677 H 357.133 4.01194 1.28923 0
M  V30 3678 H 355.808 2.84395 1.546 0
M  V30 3679 H 354.715 3.69076 -0.611056 0
M  V30 3680 H 356.048 4.85907 -0.784531 0
M  V30 3681 N 357.7 0.491464 1.49741 0
M  V30 3682 C 358.647 -0.292027 2.28945 0
M  V30 3683 C 359.617 -0.968973 1.34908 0
M  V30 3684 O 360.802 -0.97748 1.6386 0
M  V30 3685 C 357.942 -1.35617 3.17336 0
M  V30 3686 C 357.055 -0.691957 4.26422 0
M  V30 3687 C 356.19 -1.73572 5.02042 0
M  V30 3688 C 355.229 -1.05286 6.02977 0
M  V30 3689 N 354.366 -2.0404 6.71798 0
M  V30 3690 H 359.206 0.389654 2.95442 0
M  V30 3691 H 356.743 0.204003 1.45679 0
M  V30 3692 H 358.701 -1.98502 3.66951 0
M  V30 3693 H 357.331 -2.00674 2.52844 0
M  V30 3694 H 356.383 0.0499523 3.80367 0
M  V30 3695 H 357.695 -0.153946 4.98562 0
M  V30 3696 H 356.849 -2.43987 5.55478 0
M  V30 3697 H 355.588 -2.30757 4.29654 0
M  V30 3698 H 354.593 -0.334446 5.48782 0
M  V30 3699 H 355.818 -0.487636 6.77347 0
M  V30 3700 H 353.764 -2.60205 6.02187 0
M  V30 3701 H 353.681 -1.55279 7.39881 0
M  V30 3702 H 354.949 -2.73772 7.29842 0
M  V30 3703 N 359.178 -1.55987 0.224894 0
M  V30 3704 C 360.088 -2.24066 -0.69511 0
M  V30 3705 C 361.104 -1.24939 -1.21104 0
M  V30 3706 O 362.28 -1.5776 -1.25195 0
M  V30 3707 C 359.345 -2.90983 -1.88493 0
M  V30 3708 C 358.406 -4.05462 -1.41064 0
M  V30 3709 C 357.639 -4.69179 -2.54375 0
M  V30 3710 O 357.862 -4.31895 -3.72589 0
M  V30 3711 O 356.796 -5.58108 -2.25386 0
M  V30 3712 H 360.622 -3.03353 -0.145149 0
M  V30 3713 H 358.207 -1.49399 -0.00569476 0
M  V30 3714 H 360.089 -3.33209 -2.57972 0
M  V30 3715 H 358.764 -2.14653 -2.42293 0
M  V30 3716 H 357.671 -3.67798 -0.683774 0
M  V30 3717 H 359.004 -4.83545 -0.918985 0
M  V30 3718 N 360.656 0.0484629 -1.57525 0
M  V30 3719 C 361.586 1.0549 -2.08313 0
M  V30 3720 C 362.567 1.38929 -0.981463 0
M  V30 3721 O 363.752 1.48151 -1.25558 0
M  V30 3722 C 360.882 2.36162 -2.54646 0
M  V30 3723 C 359.836 2.17016 -3.68901 0
M  V30 3724 C 359.162 3.53278 -4.01371 0
M  V30 3725 C 360.462 1.57219 -4.98076 0
M  V30 3726 H 362.156 0.632195 -2.92649 0
M  V30 3727 H 359.702 0.302654 -1.40784 0
M  V30 3728 H 361.655 3.06882 -2.88793 0
M  V30 3729 H 360.379 2.80456 -1.67368 0
M  V30 3730 H 359.038 1.48733 -3.35073 0
M  V30 3731 H 358.686 3.95185 -3.11188 0
M  V30 3732 H 358.386 3.41299 -4.78318 0
M  V30 3733 H 359.91 4.25391 -4.38035 0
M  V30 3734 H 361.324 2.17832 -5.30304 0
M  V30 3735 H 359.721 1.55871 -5.79503 0
M  V30 3736 H 360.791 0.535956 -4.81929 0
M  V30 3737 N 362.134 1.5431 0.320358 0
M  V30 3738 C 363.082 1.84647 1.4145 0
M  V30 3739 C 364.076 0.718624 1.53402 0
M  V30 3740 O 365.282 0.902335 1.5575 0
M  V30 3741 H 361.657 0.585349 0.472091 0
M  V30 3742 H 363.628 2.7614 1.13089 0
M  V30 3743 C 362.377 2.09341 2.77617 0
M  V30 3744 H 361.7 2.9559 2.69196 0
M  V30 3745 H 363.14 2.3452 3.53237 0
M  V30 3746 C 361.599 0.885939 3.25043 0
M  V30 3747 O 362.129 0.0967891 4.01583 0
M  V30 3748 N 360.335 0.696682 2.82125 0
M  V30 3749 H 359.882 1.34006 2.2 0
M  V30 3750 H 359.84 -0.109712 3.14209 0
M  V30 3751 N 363.613 -0.582584 1.46437 0
M  V30 3752 C 365.029 -0.905962 1.31394 0
M  V30 3753 C 365.229 -1.99468 0.285476 0
M  V30 3754 O 364.285 -2.50566 -0.311914 0
M  V30 3755 C 365.598 -1.3232 2.70022 0
M  V30 3756 C 367.146 -1.43604 2.78113 0
M  V30 3757 C 367.621 -1.88694 4.17323 0
M  V30 3758 N 369.112 -1.95887 4.19741 0
M  V30 3759 C 369.847 -2.32051 5.24347 0
M  V30 3760 N 369.343 -2.67006 6.39281 0
M  V30 3761 N 371.136 -2.32606 5.11713 0
M  V30 3762 H 363.287 0.1366 2.1196 0
M  V30 3763 H 365.55 -0.00155736 0.947999 0
M  V30 3764 H 365.256 -0.597242 3.46592 0
M  V30 3765 H 365.13 -2.28469 3.00136 0
M  V30 3766 H 367.517 -2.15286 2.01832 0
M  V30 3767 H 367.598 -0.457059 2.51684 0
M  V30 3768 H 367.242 -1.1759 4.941 0
M  V30 3769 H 367.172 -2.8755 4.4116 0
M  V30 3770 H 369.663 -1.71362 3.36814 0
M  V30 3771 H 369.976 -2.93554 7.14875 0
M  V30 3772 H 368.321 -2.64644 6.42642 0
M  V30 3773 H 371.512 -2.04721 4.2096 0
M  V30 3774 H 371.685 -2.60462 5.93349 0
M  V30 3775 N 365.091 -1.34144 -0.827227 0
M  V30 3776 C 366.34 -1.25602 -1.5782 0
M  V30 3777 C 366.653 0.173445 -1.94829 0
M  V30 3778 O 367.859 0.380984 -2.68814 0
M  V30 3779 C 366.315 -2.20151 -2.84713 0
M  V30 3780 C 365.923 -3.68331 -2.55021 0
M  V30 3781 C 367.667 -2.20508 -3.62735 0
M  V30 3782 C 365.574 -4.54762 -3.78082 0
M  V30 3783 H 364.504 -0.466573 -0.592306 0
M  V30 3784 H 367.155 -1.59283 -0.911116 0
M  V30 3785 H 365.537 -1.79417 -3.53023 0
M  V30 3786 H 366.711 -4.17577 -1.94849 0
M  V30 3787 H 365.026 -3.7038 -1.90283 0
M  V30 3788 H 367.623 -2.82306 -4.54101 0
M  V30 3789 H 367.966 -1.20322 -3.98533 0
M  V30 3790 H 368.499 -2.59664 -3.01362 0
M  V30 3791 H 365.238 -5.55867 -3.47407 0
M  V30 3792 H 364.758 -4.10254 -4.37552 0
M  V30 3793 H 366.437 -4.69153 -4.45538 0
M  V30 3794 N 366.569 1.04691 -1.17803 0
M  V30 3795 C 367.516 2.12557 -0.899343 0
M  V30 3796 C 368.486 1.65339 0.158771 0
M  V30 3797 O 369.671 1.90789 0.0204797 0
M  V30 3798 C 366.811 3.42481 -0.424315 0
M  V30 3799 C 365.924 4.03346 -1.54713 0
M  V30 3800 C 365.059 5.21208 -1.02546 0
M  V30 3801 C 364.098 5.74089 -2.12339 0
M  V30 3802 N 363.235 6.83247 -1.61612 0
M  V30 3803 H 368.075 2.35734 -1.823 0
M  V30 3804 H 365.612 1.1564 -0.909159 0
M  V30 3805 H 367.57 4.16996 -0.130421 0
M  V30 3806 H 366.2 3.19471 0.462377 0
M  V30 3807 H 365.252 3.2622 -1.95664 0
M  V30 3808 H 366.564 4.38628 -2.37501 0
M  V30 3809 H 365.718 6.02812 -0.685718 0
M  V30 3810 H 364.457 4.87414 -0.167084 0
M  V30 3811 H 363.462 4.91111 -2.47165 0
M  V30 3812 H 364.687 6.0993 -2.98601 0
M  V30 3813 H 362.633 6.5134 -0.780533 0
M  V30 3814 H 362.55 7.17559 -2.38003 0
M  V30 3815 H 363.818 7.68491 -1.30545 0
M  V30 3816 N 368.047 0.979072 1.23499 0
M  V30 3817 C 369.463 0.687475 1.44034 0
M  V30 3818 C 369.663 -0.746801 1.8715 0
M  V30 3819 O 368.719 -1.51939 2.0167 0
M  V30 3820 C 370.032 1.68127 2.49307 0
M  V30 3821 C 371.58 1.69516 2.63122 0
M  V30 3822 C 372.055 2.67723 3.71603 0
M  V30 3823 N 373.546 2.66233 3.79044 0
M  V30 3824 C 374.281 3.38891 4.62537 0
M  V30 3825 N 373.777 4.21103 5.50131 0
M  V30 3826 N 375.57 3.27661 4.56721 0
M  V30 3827 H 367.721 1.90559 0.938135 0
M  V30 3828 H 369.984 0.821051 0.473897 0
M  V30 3829 H 369.69 2.70693 2.2454 0
M  V30 3830 H 369.564 1.46306 3.4767 0
M  V30 3831 H 371.951 0.676561 2.8724 0
M  V30 3832 H 372.032 1.95404 1.65079 0
M  V30 3833 H 371.676 3.69724 3.48233 0
M  V30 3834 H 371.606 2.39111 4.69184 0
M  V30 3835 H 374.097 2.06568 3.16446 0
M  V30 3836 H 374.41 4.73403 6.10827 0
M  V30 3837 H 372.755 4.25195 5.49759 0
M  V30 3838 H 375.946 2.62887 3.87309 0
M  V30 3839 H 376.119 3.84547 5.21562 0
M  V30 3840 N 369.525 -1.3858 0.750561 0
M  V30 3841 C 370.771 -2.0095 0.31477 0
M  V30 3842 C 371.126 -1.58509 -1.09053 0
M  V30 3843 O 370.419 -0.8112 -1.7358 0
M  V30 3844 C 370.613 -3.55455 0.372373 0
M  V30 3845 C 370.442 -4.12898 1.78173 0
M  V30 3846 C 369.212 -4.44797 2.39757 0
M  V30 3847 C 371.41 -4.35366 2.7379 0
M  V30 3848 N 369.392 -4.87831 3.72685 0
M  V30 3849 C 370.763 -4.80775 3.91478 0
M  V30 3850 C 372.818 -4.1746 2.71351 0
M  V30 3851 C 371.521 -5.10155 5.07084 0
M  V30 3852 C 373.547 -4.47963 3.86113 0
M  V30 3853 C 372.909 -4.93593 5.02539 0
M  V30 3854 H 369.008 -0.765083 0.161776 0
M  V30 3855 H 371.592 -1.68246 0.979867 0
M  V30 3856 H 369.763 -3.87512 -0.26244 0
M  V30 3857 H 371.495 -4.04614 -0.0834479 0
M  V30 3858 H 368.25 -4.33135 1.91548 0
M  V30 3859 H 368.674 -5.13685 4.40972 0
M  V30 3860 H 373.316 -3.81372 1.82524 0
M  V30 3861 H 371.034 -5.45141 5.96529 0
M  V30 3862 H 374.62 -4.35717 3.85542 0
M  V30 3863 H 373.5 -5.16746 5.89867 0
M  V30 3864 N 371.003 -0.499398 -1.49478 0
M  V30 3865 C 372.243 0.0440751 -2.04352 0
M  V30 3866 C 372.607 1.34423 -1.37093 0
M  V30 3867 O 373.808 1.97184 -1.82679 0
M  V30 3868 C 372.079 0.194918 -3.56868 0
M  V30 3869 S 373.638 0.69287 -4.33295 0
M  V30 3870 H 370.456 0.00253458 -0.710995 0
M  V30 3871 H 373.058 -0.673 -1.83551 0
M  V30 3872 H 371.762 -0.756672 -4.03364 0
M  V30 3873 H 371.293 0.93728 -3.82071 0
M  V30 3874 H 373.308 1.96226 -4.55752 0
M  V30 3875 N 372.481 1.55866 -0.233164 0
M  V30 3876 C 373.73 1.97779 0.39579 0
M  V30 3877 C 374.043 1.12419 1.60066 0
M  V30 3878 O 375.249 1.44283 2.29988 0
M  V30 3879 C 373.705 3.5188 0.755556 0
M  V30 3880 C 373.313 4.45959 -0.427152 0
M  V30 3881 C 375.057 4.02479 1.34946 0
M  V30 3882 C 372.964 5.91383 -0.0443043 0
M  V30 3883 H 371.894 0.738592 0.15165 0
M  V30 3884 H 374.545 1.80486 -0.331212 0
M  V30 3885 H 372.927 3.64816 1.5403 0
M  V30 3886 H 374.101 4.44776 -1.20462 0
M  V30 3887 H 372.416 4.05765 -0.935068 0
M  V30 3888 H 375.013 5.08637 1.649 0
M  V30 3889 H 375.356 3.49014 2.26925 0
M  V30 3890 H 375.889 3.92813 0.62791 0
M  V30 3891 H 372.628 6.48857 -0.930874 0
M  V30 3892 H 372.148 5.95734 0.697238 0
M  V30 3893 H 373.827 6.45893 0.378334 0
M  V30 3894 N 373.959 -0.0401083 1.57549 0
M  V30 3895 C 374.892 -1.07689 2.01192 0
M  V30 3896 C 375.87 -1.358 0.894273 0
M  V30 3897 O 377.054 -1.48642 1.15921 0
M  V30 3898 C 374.181 -2.41418 2.3756 0
M  V30 3899 C 373.227 -2.29237 3.59656 0
M  V30 3900 S 374.06 -1.65628 5.09242 0
M  V30 3901 C 375.216 -3.0087 5.48843 0
M  V30 3902 H 375.449 -0.705108 2.88817 0
M  V30 3903 H 372.982 -0.249724 1.52367 0
M  V30 3904 H 374.94 -3.18329 2.59186 0
M  V30 3905 H 373.601 -2.75747 1.50407 0
M  V30 3906 H 372.794 -3.27932 3.82722 0
M  V30 3907 H 372.396 -1.60469 3.37825 0
M  V30 3908 H 374.688 -3.97201 5.48851 0
M  V30 3909 H 375.631 -2.82549 6.49286 0
M  V30 3910 H 376.039 -3.02934 4.76331 0
M  V30 3911 N 375.437 -1.54477 -0.31217 0
M  V30 3912 C 376.853 -1.45442 -0.657185 0
M  V30 3913 C 377.053 -0.63653 -1.91182 0
M  V30 3914 O 376.109 -0.139815 -2.52113 0
M  V30 3915 C 377.422 -2.89287 -0.82058 0
M  V30 3916 C 378.97 -2.9926 -0.917188 0
M  V30 3917 C 379.445 -4.44279 -1.11267 0
M  V30 3918 N 380.936 -4.4794 -1.17914 0
M  V30 3919 C 381.671 -5.57318 -1.34848 0
M  V30 3920 N 381.167 -6.76642 -1.48752 0
M  V30 3921 N 382.96 -5.44986 -1.37647 0
M  V30 3922 H 375.111 -2.06129 0.512313 0
M  V30 3923 H 377.374 -0.933088 0.167485 0
M  V30 3924 H 377.08 -3.51687 0.0302604 0
M  V30 3925 H 376.954 -3.36061 -1.71298 0
M  V30 3926 H 379.341 -2.36981 -1.75852 0
M  V30 3927 H 379.422 -2.558 -0.00101257 0
M  V30 3928 H 379.066 -5.07149 -0.27614 0
M  V30 3929 H 378.996 -4.85359 -2.04289 0
M  V30 3930 H 381.487 -3.61969 -1.08567 0
M  V30 3931 H 381.8 -7.55758 -1.61397 0
M  V30 3932 H 380.145 -6.79529 -1.45828 0
M  V30 3933 H 383.336 -4.50715 -1.26388 0
M  V30 3934 H 383.509 -6.3028 -1.50501 0
M  V30 3935 N 376.915 0.57481 -1.46744 0
M  V30 3936 C 377.847 1.69804 -1.53946 0
M  V30 3937 C 378.86 1.57098 -0.427106 0
M  V30 3938 O 380.049 1.64378 -0.695863 0
M  V30 3939 C 377.149 3.08125 -1.4111 0
M  V30 3940 C 376.322 3.46757 -2.66605 0
M  V30 3941 C 375.381 4.6417 -2.47855 0
M  V30 3942 O 374.407 4.69634 -3.21609 0
M  V30 3943 N 375.609 5.59553 -1.54534 0
M  V30 3944 H 378.374 1.64077 -2.50796 0
M  V30 3945 H 375.935 0.761 -1.429 0
M  V30 3946 H 377.927 3.84478 -1.26328 0
M  V30 3947 H 376.497 3.08175 -0.524109 0
M  V30 3948 H 375.717 2.6003 -2.96274 0
M  V30 3949 H 377.005 3.69337 -3.49954 0
M  V30 3950 H 376.403 5.57881 -0.937304 0
M  V30 3951 H 374.96 6.35304 -1.45711 0
M  V30 3952 N 378.394 1.34581 0.820102 0
M  V30 3953 C 379.326 1.22236 1.93884 0
M  V30 3954 C 380.339 0.148776 1.62119 0
M  V30 3955 O 381.528 0.400877 1.7394 0
M  V30 3956 C 378.628 0.856542 3.27897 0
M  V30 3957 C 377.801 2.02569 3.87666 0
M  V30 3958 C 376.86 1.63782 5.00062 0
M  V30 3959 O 375.886 2.35477 5.18208 0
M  V30 3960 N 377.088 0.553611 5.77854 0
M  V30 3961 H 379.853 2.18615 2.05006 0
M  V30 3962 H 377.414 1.27573 0.99683 0
M  V30 3963 H 379.406 0.578806 4.0054 0
M  V30 3964 H 377.976 -0.0171518 3.12595 0
M  V30 3965 H 377.196 2.468 3.07382 0
M  V30 3966 H 378.484 2.80752 4.24329 0
M  V30 3967 H 377.882 -0.0423528 5.65684 0
M  V30 3968 H 376.439 0.335614 6.50935 0
M  V30 3969 N 379.872 -1.04064 1.18357 0
M  V30 3970 C 380.82 -2.14187 0.907007 0
M  V30 3971 C 381.814 -1.68879 -0.132725 0
M  V30 3972 O 383.02 -1.79993 0.0154248 0
M  V30 3973 H 379.395 -0.699585 0.275835 0
M  V30 3974 H 381.366 -2.34711 1.84264 0
M  V30 3975 C 380.115 -3.44785 0.449254 0
M  V30 3976 H 379.438 -3.80058 1.24081 0
M  V30 3977 H 380.878 -4.22974 0.294737 0
M  V30 3978 C 379.337 -3.26391 -0.834909 0
M  V30 3979 O 379.867 -3.53973 -1.89911 0
M  V30 3980 N 378.073 -2.79726 -0.787523 0
M  V30 3981 H 377.62 -2.5748 0.0787347 0
M  V30 3982 H 377.578 -2.67798 -1.64716 0
M  V30 3983 N 381.35 -0.985608 -1.22978 0
M  V30 3984 C 382.598 -0.656087 -1.91154 0
M  V30 3985 C 382.919 0.813561 -1.77218 0
M  V30 3986 O 382.189 1.58244 -1.1548 0
M  V30 3987 H 380.769 -0.239674 -0.707506 0
M  V30 3988 H 383.431 -1.25054 -1.49491 0
M  V30 3989 H 382.527 -0.912253 -2.9847 0
M  V30 3990 N 382.828 1.3818 -0.7579 0
M  V30 3991 C 384.058 2.04004 -0.326463 0
M  V30 3992 C 384.466 1.57286 1.05156 0
M  V30 3993 O 383.809 0.743144 1.67997 0
M  V30 3994 C 383.871 3.58444 -0.275402 0
M  V30 3995 C 383.535 4.28237 -1.59569 0
M  V30 3996 C 384.532 4.53312 -2.54566 0
M  V30 3997 C 382.217 4.66341 -1.86631 0
M  V30 3998 C 384.211 5.15531 -3.74842 0
M  V30 3999 C 381.898 5.28283 -3.0718 0
M  V30 4000 C 382.896 5.52814 -4.01106 0
M  V30 4001 O 382.584 6.13465 -5.19534 0
M  V30 4002 H 382.316 0.662026 -0.136739 0
M  V30 4003 H 384.87 1.7777 -1.02893 0
M  V30 4004 H 383.1 3.83667 0.483337 0
M  V30 4005 H 384.789 4.05701 0.127099 0
M  V30 4006 H 385.555 4.24299 -2.34936 0
M  V30 4007 H 381.434 4.46591 -1.14358 0
M  V30 4008 H 384.978 5.34594 -4.48168 0
M  V30 4009 H 380.875 5.56719 -3.26702 0
M  V30 4010 H 381.643 6.31951 -5.20173 0
M  V30 4011 N 384.306 0.507319 1.49211 0
M  V30 4012 C 385.256 -0.287112 2.26185 0
M  V30 4013 C 386.24 -0.929983 1.31302 0
M  V30 4014 O 387.432 -0.836538 1.55984 0
M  V30 4015 C 384.561 -1.34718 3.15763 0
M  V30 4016 C 383.647 -0.710235 4.18111 0
M  V30 4017 N 384.038 0.190836 5.0544 0
M  V30 4018 C 382.336 -0.97009 4.35322 0
M  V30 4019 C 383.037 0.55606 5.79036 0
M  V30 4020 N 382.013 -0.0775232 5.43545 0
M  V30 4021 H 385.815 0.406445 2.91076 0
M  V30 4022 H 383.329 0.323814 1.59139 0
M  V30 4023 H 385.326 -1.92982 3.69545 0
M  V30 4024 H 383.986 -2.04235 2.52424 0
M  V30 4025 H 384.997 0.562047 5.14841 0
M  V30 4026 H 381.674 -1.65753 3.83187 0
M  V30 4027 H 383.064 1.2936 6.5933 0
M  V30 4028 N 385.784 -1.5574 0.241426 0
M  V30 4029 C 387.032 -1.98417 -0.384075 0
M  V30 4030 C 387.353 -1.13078 -1.58866 0
M  V30 4031 O 386.623 -0.212312 -1.94746 0
M  V30 4032 H 385.203 -0.732813 -0.144894 0
M  V30 4033 H 387.865 -1.9193 0.338943 0
M  V30 4034 H 386.961 -3.04219 -0.696939 0
M  V30 4035 N 387.262 0.0317525 -1.57568 0
M  V30 4036 C 388.678 0.38735 -1.54828 0
M  V30 4037 C 388.878 1.7677 -0.967187 0
M  V30 4038 O 387.934 2.45581 -0.587063 0
M  V30 4039 C 389.247 0.291667 -2.99282 0
M  V30 4040 C 390.795 0.368946 -3.10818 0
M  V30 4041 C 391.27 0.302741 -4.56998 0
M  V30 4042 N 392.761 0.361617 -4.61786 0
M  V30 4043 C 393.496 0.333238 -5.72431 0
M  V30 4044 N 392.992 0.257308 -6.92322 0
M  V30 4045 N 394.785 0.382769 -5.60795 0
M  V30 4046 H 386.936 -0.871609 -1.93692 0
M  V30 4047 H 389.199 -0.331161 -0.888277 0
M  V30 4048 H 388.905 -0.656794 -3.45513 0
M  V30 4049 H 388.779 1.08638 -3.61217 0
M  V30 4050 H 391.166 1.30784 -2.64536 0
M  V30 4051 H 391.247 -0.455066 -2.5172 0
M  V30 4052 H 390.891 -0.632473 -5.03947 0
M  V30 4053 H 390.821 1.14482 -5.14005 0
M  V30 4054 H 393.312 0.422923 -3.75526 0
M  V30 4055 H 393.625 0.24068 -7.72425 0
M  V30 4056 H 391.97 0.223396 -6.94641 0
M  V30 4057 H 395.161 0.44006 -4.66027 0
M  V30 4058 H 395.334 0.357184 -6.47015 0
M  V30 4059 N 388.74 1.54641 0.303973 0
M  V30 4060 C 390.151 1.64811 0.877163 0
M  V30 4061 C 390.502 0.554838 1.88191 0
M  V30 4062 O 389.627 -0.309033 2.14182 0
M  V30 4063 C 390.222 2.9876 1.59775 0
M  V30 4064 C 388.781 3.11061 2.11938 0
M  V30 4065 C 387.928 2.60479 0.951097 0
M  V30 4066 H 390.879 1.58493 0.0810486 0
M  V30 4067 H 390.9 2.90017 2.46314 0
M  V30 4068 H 390.412 3.7831 0.866226 0
M  V30 4069 H 388.513 2.36225 2.88146 0
M  V30 4070 H 388.626 4.17171 2.35595 0
M  V30 4071 H 386.99 2.16859 1.33583 0
M  V30 4072 H 387.773 3.42504 0.233581 0
M  V30 4073 N 390.218 -0.567019 1.47046 0
M  V30 4074 C 391.166 -1.69593 1.59188 0
M  V30 4075 C 392.16 -1.63046 0.459609 0
M  V30 4076 O 393.366 -1.6835 0.637058 0
M  V30 4077 H 389.741 -0.560993 0.500791 0
M  V30 4078 H 391.712 -1.56488 2.54075 0
M  V30 4079 C 390.461 -3.07964 1.61411 0
M  V30 4080 H 389.784 -3.13679 2.47881 0
M  V30 4081 H 391.224 -3.86671 1.73958 0
M  V30 4082 C 389.683 -3.35123 0.34559 0
M  V30 4083 O 390.213 -3.97812 -0.557521 0
M  V30 4084 N 388.419 -2.89699 0.22864 0
M  V30 4085 H 387.966 -2.38863 0.964479 0
M  V30 4086 H 387.924 -3.08242 -0.619192 0
M  V30 4087 N 391.696 -1.35014 -0.812953 0
M  V30 4088 C 392.643 -1.27412 -1.92444 0
M  V30 4089 C 393.613 -0.14733 -1.65445 0
M  V30 4090 O 394.798 -0.329974 -1.87925 0
M  V30 4091 C 391.938 -1.04558 -3.28879 0
M  V30 4092 C 391.051 -2.26101 -3.68106 0
M  V30 4093 C 390.186 -1.96449 -4.9354 0
M  V30 4094 C 389.225 -3.14081 -5.25376 0
M  V30 4095 N 388.362 -2.84246 -6.41988 0
M  V30 4096 H 393.202 -2.22463 -1.98278 0
M  V30 4097 H 390.739 -1.10593 -0.969933 0
M  V30 4098 H 392.697 -0.893413 -4.07522 0
M  V30 4099 H 391.327 -0.131719 -3.22531 0
M  V30 4100 H 390.379 -2.52204 -2.84775 0
M  V30 4101 H 391.691 -3.13959 -3.87597 0
M  V30 4102 H 390.845 -1.78026 -5.79993 0
M  V30 4103 H 389.584 -1.05867 -4.76071 0
M  V30 4104 H 388.589 -3.33089 -4.37415 0
M  V30 4105 H 389.814 -4.05455 -5.44778 0
M  V30 4106 H 387.76 -1.96252 -6.25956 0
M  V30 4107 H 387.677 -3.65637 -6.61699 0
M  V30 4108 H 388.945 -2.6935 -7.31485 0
M  V30 4109 N 393.175 1.03435 -1.18907 0
M  V30 4110 C 394.586 1.58195 -0.991523 0
M  V30 4111 C 394.937 1.90801 0.457081 0
M  V30 4112 O 394.062 1.70272 1.33553 0
M  V30 4113 C 394.657 2.87432 -1.79355 0
M  V30 4114 C 393.216 3.38785 -1.64017 0
M  V30 4115 C 392.363 2.12292 -1.78402 0
M  V30 4116 H 395.314 0.860299 -1.33359 0
M  V30 4117 H 395.335 3.58096 -1.28638 0
M  V30 4118 H 394.847 2.63669 -2.84781 0
M  V30 4119 H 392.948 3.67547 -0.611536 0
M  V30 4120 H 393.061 4.12186 -2.44212 0
M  V30 4121 H 391.425 2.23901 -1.2141 0
M  V30 4122 H 392.208 1.90977 -2.85277 0
M  V30 4123 N 394.653 0.992116 1.22453 0
M  V30 4124 C 395.899 0.668523 1.91464 0
M  V30 4125 C 396.232 -0.797313 1.77078 0
M  V30 4126 O 395.507 -1.5765 1.13916 0
M  V30 4127 C 395.79 1.07424 3.43703 0
M  V30 4128 C 395.643 2.59857 3.67143 0
M  V30 4129 C 396.962 0.626891 4.35612 0
M  V30 4130 H 394.081 0.244341 0.695318 0
M  V30 4131 H 396.723 1.2355 1.44345 0
M  V30 4132 H 394.873 0.591816 3.83966 0
M  V30 4133 H 396.545 3.15764 3.3629 0
M  V30 4134 H 394.788 3.01961 3.11451 0
M  V30 4135 H 395.459 2.83296 4.73759 0
M  V30 4136 H 397.935 1.04125 4.02861 0
M  V30 4137 H 396.811 0.939076 5.40807 0
M  V30 4138 H 397.072 -0.472457 4.39568 0
M  V30 4139 N 396.131 -1.37776 0.765217 0
M  V30 4140 C 397.408 -1.93975 0.251596 0
M  V30 4141 C 397.788 -1.69949 -1.25222 0
M  V30 4142 O 397.136 -1.04457 -2.03226 0
M  V30 4143 C 397.346 -3.43487 0.617895 0
M  V30 4144 C 398.694 -4.20564 0.584029 0
M  V30 4145 O 399.718 -3.5182 0.556888 0
M  V30 4146 O 398.577 -5.43138 0.605291 0
M  V30 4147 H 395.671 -0.82509 0.0561806 0
M  V30 4148 H 398.217 -1.47101 0.846128 0
M  V30 4149 H 396.989 -3.5453 1.65602 0
M  V30 4150 H 396.612 -3.976 -0.00403411 0
M  V30 4151 N 397.609 -0.515225 -1.4894 0
M  V30 4152 C 398.837 0.0206034 -2.0689 0
M  V30 4153 C 399.252 1.29514 -1.37374 0
M  V30 4154 O 398.609 1.76698 -0.456529 0
M  V30 4155 C 398.66 0.26351 -3.60538 0
M  V30 4156 O 398.381 -0.960517 -4.27441 0
M  V30 4157 C 399.882 0.841383 -4.35242 0
M  V30 4158 H 397.102 -0.0268608 -0.670462 0
M  V30 4159 H 399.646 -0.716651 -1.91532 0
M  V30 4160 H 397.801 0.950777 -3.75552 0
M  V30 4161 H 398.215 -0.73212 -5.19365 0
M  V30 4162 H 399.689 0.96085 -5.43573 0
M  V30 4163 H 400.166 1.8427 -3.98674 0
M  V30 4164 H 400.772 0.191143 -4.2487 0
M  V30 4165 N 399.087 1.5561 -0.249682 0
M  V30 4166 C 400.327 2.00916 0.37579 0
M  V30 4167 C 400.691 1.13409 1.54927 0
M  V30 4168 O 401.892 1.48183 2.24266 0
M  V30 4169 C 400.163 3.48949 0.772633 0
M  V30 4170 S 401.722 4.16261 1.38824 0
M  V30 4171 H 398.54 0.70112 0.118117 0
M  V30 4172 H 401.142 1.92052 -0.365567 0
M  V30 4173 H 399.846 4.103 -0.090683 0
M  V30 4174 H 399.377 3.61745 1.5461 0
M  V30 4175 H 401.392 4.17778 2.67724 0
M  V30 4176 N 400.565 -0.0233959 1.57583 0
M  V30 4177 C 401.795 -0.723631 1.93513 0
M  V30 4178 C 402.203 -1.69115 0.848333 0
M  V30 4179 O 401.546 -1.82781 -0.183484 0
M  V30 4180 C 401.608 -1.53075 3.25282 0
M  V30 4181 C 401.272 -0.727388 4.51174 0
M  V30 4182 C 402.269 -0.0251924 5.19894 0
M  V30 4183 C 399.954 -0.680256 4.97672 0
M  V30 4184 C 401.948 0.713374 6.33395 0
M  V30 4185 C 399.635 0.0620523 6.11068 0
M  V30 4186 C 400.633 0.757622 6.78785 0
M  V30 4187 O 400.321 1.48787 7.90011 0
M  V30 4188 H 400.053 -0.208051 0.643188 0
M  V30 4189 H 402.607 0.0167489 2.05393 0
M  V30 4190 H 400.837 -2.31508 3.09744 0
M  V30 4191 H 402.526 -2.11413 3.46496 0
M  V30 4192 H 403.292 -0.0526003 4.84971 0
M  V30 4193 H 399.171 -1.21116 4.44805 0
M  V30 4194 H 402.715 1.25683 6.86185 0
M  V30 4195 H 398.612 0.0913634 6.45435 0
M  V30 4196 H 399.38 1.40213 8.06401 0
M  V30 4197 N 402.043 -1.548 -0.295768 0
M  V30 4198 C 403.268 -1.78653 -1.05346 0
M  V30 4199 C 403.693 -0.546894 -1.79974 0
M  V30 4200 O 403.051 0.502763 -1.7419 0
M  V30 4201 C 403.099 -2.99679 -2.00561 0
M  V30 4202 O 402.203 -2.7317 -3.08953 0
M  V30 4203 H 401.544 -0.59116 -0.302367 0
M  V30 4204 H 404.074 -2.01895 -0.331598 0
M  V30 4205 H 404.084 -3.27793 -2.42932 0
M  V30 4206 H 402.759 -3.89562 -1.4565 0
M  V30 4207 H 401.336 -2.56089 -2.71059 0
M  V30 4208 N 403.521 0.559213 -1.47345 0
M  V30 4209 C 404.768 1.31648 -1.53867 0
M  V30 4210 C 405.096 1.93468 -0.200104 0
M  V30 4211 O 404.351 1.78295 0.806799 0
M  V30 4212 C 404.65 2.44853 -2.6035 0
M  V30 4213 C 404.316 2.00876 -4.03683 0
M  V30 4214 C 402.978 1.88599 -4.42701 0
M  V30 4215 C 405.33 1.67279 -4.93626 0
M  V30 4216 C 402.658 1.41017 -5.69501 0
M  V30 4217 C 405.01 1.21169 -6.20887 0
M  V30 4218 C 403.674 1.07487 -6.58789 0
M  V30 4219 H 402.944 0.481734 -0.56304 0
M  V30 4220 H 405.591 0.627301 -1.80934 0
M  V30 4221 H 403.896 3.19318 -2.27032 0
M  V30 4222 H 405.593 3.03039 -2.62619 0
M  V30 4223 H 402.183 2.11374 -3.72853 0
M  V30 4224 H 406.367 1.75638 -4.64182 0
M  V30 4225 H 401.623 1.29086 -5.97618 0
M  V30 4226 H 405.797 0.942345 -6.89995 0
M  V30 4227 H 403.424 0.703946 -7.56934 0
M  V30 4228 N 404.999 1.35443 0.805782 0
M  V30 4229 C 406.245 1.2996 1.56467 0
M  V30 4230 C 406.6 -0.124742 1.91995 0
M  V30 4231 O 405.893 -1.07533 1.58579 0
M  V30 4232 C 406.087 2.14045 2.86216 0
M  V30 4233 C 405.916 3.64512 2.63365 0
M  V30 4234 C 404.686 4.33744 2.59219 0
M  V30 4235 C 406.884 4.58142 2.33688 0
M  V30 4236 N 404.866 5.69953 2.28094 0
M  V30 4237 C 406.237 5.8248 2.12408 0
M  V30 4238 C 408.292 4.46877 2.19558 0
M  V30 4239 C 406.995 6.96818 1.78429 0
M  V30 4240 C 409.021 5.61065 1.86976 0
M  V30 4241 C 408.383 6.84431 1.66532 0
M  V30 4242 H 404.482 0.530817 0.574245 0
M  V30 4243 H 407.066 1.70333 0.943126 0
M  V30 4244 H 405.237 1.75942 3.46264 0
M  V30 4245 H 406.969 2.00075 3.51784 0
M  V30 4246 H 403.724 3.86365 2.73896 0
M  V30 4247 H 404.148 6.41845 2.15323 0
M  V30 4248 H 408.79 3.52102 2.34061 0
M  V30 4249 H 406.508 7.91559 1.62664 0
M  V30 4250 H 410.094 5.54302 1.7675 0
M  V30 4251 H 408.974 7.71294 1.41688 0
M  V30 4252 N 406.477 -1.02803 1.19454 0
M  V30 4253 C 407.723 -1.76478 0.999171 0
M  V30 4254 C 408.056 -1.88456 -0.468828 0
M  V30 4255 O 407.331 -1.40198 -1.34814 0
M  V30 4256 C 407.614 -3.19044 1.66981 0
M  V30 4257 C 407.467 -3.14932 3.21151 0
M  V30 4258 C 408.786 -4.17456 1.39349 0
M  V30 4259 H 405.905 -0.640614 0.364393 0
M  V30 4260 H 408.547 -1.20005 1.47305 0
M  V30 4261 H 406.697 -3.67263 1.2669 0
M  V30 4262 H 408.369 -2.74605 3.70661 0
M  V30 4263 H 406.612 -2.52625 3.52652 0
M  V30 4264 H 407.283 -4.1566 3.63223 0
M  V30 4265 H 409.759 -3.77842 1.74283 0
M  V30 4266 H 408.635 -5.154 1.88823 0
M  V30 4267 H 408.896 -4.40949 0.318813 0
M  V30 4268 N 407.956 -0.998596 -1.21925 0
M  V30 4269 C 409.204 -0.676325 -1.90448 0
M  V30 4270 C 409.525 0.794719 -1.78071 0
M  V30 4271 O 408.795 1.5701 -1.17152 0
M  V30 4272 H 407.375 -0.247165 -0.704925 0
M  V30 4273 H 410.037 -1.26633 -1.48156 0
M  V30 4274 H 409.133 -0.943858 -2.97486 0
M  V30 4275 N 409.434 1.37368 -0.772513 0
M  V30 4276 C 410.397 2.28601 -0.165541 0
M  V30 4277 C 411.397 1.48062 0.627238 0
M  V30 4278 O 412.587 1.68268 0.450715 0
M  V30 4279 C 409.719 3.32023 0.772897 0
M  V30 4280 H 410.912 2.83787 -0.969787 0
M  V30 4281 H 408.465 1.46647 -0.540775 0
M  V30 4282 H 409.2 2.81962 1.60212 0
M  V30 4283 H 408.985 3.91555 0.206585 0
M  V30 4284 H 410.475 4.00197 1.19298 0
M  V30 4285 N 410.912 0.523116 1.48665 0
M  V30 4286 C 412.14 -0.0096312 2.06898 0
M  V30 4287 C 412.555 -1.28784 1.38059 0
M  V30 4288 O 411.912 -1.76453 0.465893 0
M  V30 4289 C 411.963 -0.244386 3.60673 0
M  V30 4290 O 411.684 0.983172 4.26925 0
M  V30 4291 C 413.185 -0.818289 4.35682 0
M  V30 4292 H 410.405 0.0304161 0.67031 0
M  V30 4293 H 412.949 0.726799 1.91149 0
M  V30 4294 H 411.104 -0.930847 3.76051 0
M  V30 4295 H 411.518 0.759653 5.1897 0
M  V30 4296 H 412.992 -0.93201 5.44075 0
M  V30 4297 H 413.469 -1.82153 3.99646 0
M  V30 4298 H 414.075 -0.168609 4.24966 0
M  V30 4299 N 412.39 -1.55475 0.257931 0
M  V30 4300 C 413.32 -2.24815 -0.630912 0
M  V30 4301 C 414.301 -1.23224 -1.17259 0
M  V30 4302 O 415.486 -1.51904 -1.20991 0
M  V30 4303 C 412.616 -2.95609 -1.82298 0
M  V30 4304 C 411.57 -4.03982 -1.41359 0
M  V30 4305 C 410.896 -4.6226 -2.68738 0
M  V30 4306 C 412.196 -5.19109 -0.57648 0
M  V30 4307 H 413.89 -2.99354 -0.0526878 0
M  V30 4308 H 411.436 -1.4398 -0.023901 0
M  V30 4309 H 413.389 -3.42822 -2.45054 0
M  V30 4310 H 412.113 -2.18577 -2.42676 0
M  V30 4311 H 410.772 -3.57555 -0.809324 0
M  V30 4312 H 410.42 -3.81915 -3.27338 0
M  V30 4313 H 410.12 -5.35424 -2.42065 0
M  V30 4314 H 411.644 -5.12212 -3.32372 0
M  V30 4315 H 413.058 -5.62479 -1.10861 0
M  V30 4316 H 411.455 -5.98729 -0.405351 0
M  V30 4317 H 412.525 -4.83174 0.408776 0
M  V30 4318 N 413.868 0.0150385 -1.57593 0
M  V30 4319 C 414.815 1.01126 -2.07466 0
M  V30 4320 C 415.785 1.35064 -0.966794 0
M  V30 4321 O 416.97 1.4516 -1.23827 0
M  V30 4322 C 414.11 2.30276 -2.57035 0
M  V30 4323 C 413.223 2.02373 -3.81666 0
M  V30 4324 C 412.358 3.25496 -4.19793 0
M  V30 4325 C 411.397 2.93211 -5.37303 0
M  V30 4326 N 410.534 4.08826 -5.70794 0
M  V30 4327 H 415.374 0.57901 -2.92321 0
M  V30 4328 H 412.911 0.27426 -1.44521 0
M  V30 4329 H 414.869 3.05757 -2.83846 0
M  V30 4330 H 413.499 2.71197 -1.75077 0
M  V30 4331 H 412.551 1.17327 -3.61854 0
M  V30 4332 H 413.863 1.74567 -4.67256 0
M  V30 4333 H 413.017 4.09333 -4.47807 0
M  V30 4334 H 411.756 3.56428 -3.32882 0
M  V30 4335 H 410.761 2.07777 -5.09027 0
M  V30 4336 H 411.986 2.63542 -6.25877 0
M  V30 4337 H 409.932 4.39682 -4.86842 0
M  V30 4338 H 409.849 3.84491 -6.50924 0
M  V30 4339 H 411.117 4.93496 -6.03392 0
M  V30 4340 N 415.346 1.54954 0.287554 0
M  V30 4341 C 416.276 1.89839 1.35954 0
M  V30 4342 C 417.257 0.758675 1.52244 0
M  V30 4343 O 418.442 1.01557 1.65529 0
M  V30 4344 C 415.572 2.15753 2.72154 0
M  V30 4345 C 414.526 3.3159 2.70614 0
M  V30 4346 C 413.852 3.42952 4.10229 0
M  V30 4347 C 415.152 4.68359 2.31165 0
M  V30 4348 H 416.846 2.79625 1.07007 0
M  V30 4349 H 414.392 1.3454 0.513316 0
M  V30 4350 H 416.345 2.38743 3.47246 0
M  V30 4351 H 415.069 1.22752 3.02654 0
M  V30 4352 H 413.728 3.08545 1.97979 0
M  V30 4353 H 413.376 2.47443 4.37928 0
M  V30 4354 H 413.076 4.20826 4.10097 0
M  V30 4355 H 414.6 3.68218 4.87081 0
M  V30 4356 H 416.014 4.9099 2.95976 0
M  V30 4357 H 414.411 5.49044 2.42221 0
M  V30 4358 H 415.481 4.68165 1.26291 0
M  V30 4359 N 416.824 -0.551391 1.4764 0
M  V30 4360 C 417.754 -1.66757 1.63445 0
M  V30 4361 C 418.735 -1.63077 0.483742 0
M  V30 4362 O 419.92 -1.80607 0.71377 0
M  V30 4363 C 417.05 -3.05387 1.65396 0
M  V30 4364 C 416.004 -3.23918 2.79752 0
M  V30 4365 C 415.33 -4.63393 2.66779 0
M  V30 4366 C 416.63 -3.08735 4.21284 0
M  V30 4367 H 418.324 -1.53786 2.56886 0
M  V30 4368 H 415.87 -0.738415 1.23626 0
M  V30 4369 H 417.823 -3.83325 1.75043 0
M  V30 4370 H 416.547 -3.19332 0.685195 0
M  V30 4371 H 415.206 -2.48391 2.69625 0
M  V30 4372 H 414.854 -4.74144 1.67918 0
M  V30 4373 H 414.554 -4.7674 3.43501 0
M  V30 4374 H 416.078 -5.43458 2.78364 0
M  V30 4375 H 417.492 -3.76484 4.32357 0
M  V30 4376 H 415.889 -3.33588 4.98838 0
M  V30 4377 H 416.959 -2.0541 4.39243 0
M  V30 4378 N 418.302 -1.35869 -0.798587 0
M  V30 4379 C 419.249 -1.29446 -1.91082 0
M  V30 4380 C 420.219 -0.16487 -1.6528 0
M  V30 4381 O 421.404 -0.349888 -1.87564 0
M  V30 4382 C 418.544 -1.0804 -3.27752 0
M  V30 4383 C 417.657 -2.29993 -3.65687 0
M  V30 4384 C 416.792 -2.01673 -4.91428 0
M  V30 4385 C 415.831 -3.19636 -5.22015 0
M  V30 4386 N 414.968 -2.91039 -6.38937 0
M  V30 4387 H 419.808 -2.24553 -1.95907 0
M  V30 4388 H 417.345 -1.11615 -0.958148 0
M  V30 4389 H 419.303 -0.936586 -4.06551 0
M  V30 4390 H 417.933 -0.16592 -3.22373 0
M  V30 4391 H 416.985 -2.55211 -2.82085 0
M  V30 4392 H 418.297 -3.18052 -3.84245 0
M  V30 4393 H 417.451 -1.84168 -5.78072 0
M  V30 4394 H 416.19 -1.10911 -4.74921 0
M  V30 4395 H 415.195 -3.37709 -4.33858 0
M  V30 4396 H 416.42 -4.11211 -5.40447 0
M  V30 4397 H 414.366 -2.0288 -6.2384 0
M  V30 4398 H 414.283 -3.72635 -6.57784 0
M  V30 4399 H 415.551 -2.77093 -7.28587 0
M  V30 4400 N 419.78 1.02168 -1.19998 0
M  V30 4401 C 421.029 1.75091 -1.0013 0
M  V30 4402 C 421.342 1.89923 0.467835 0
M  V30 4403 O 422.548 2.59888 0.785515 0
M  V30 4404 C 421.004 3.14892 -1.74273 0
M  V30 4405 C 420.612 3.0809 -3.25245 0
M  V30 4406 C 422.356 3.9206 -1.62755 0
M  V30 4407 C 420.263 4.42867 -3.91948 0
M  V30 4408 H 419.193 0.656394 -0.37103 0
M  V30 4409 H 421.844 1.14284 -1.43567 0
M  V30 4410 H 420.226 3.7621 -1.2362 0
M  V30 4411 H 421.4 2.5611 -3.83072 0
M  V30 4412 H 419.715 2.44416 -3.3712 0
M  V30 4413 H 422.312 4.91764 -2.09934 0
M  V30 4414 H 422.655 4.12199 -0.582894 0
M  V30 4415 H 423.188 3.37359 -2.10793 0
M  V30 4416 H 419.927 4.27931 -4.96543 0
M  V30 4417 H 419.447 4.94874 -3.3891 0
M  V30 4418 H 421.126 5.11728 -3.95909 0
M  V30 4419 N 421.258 1.00505 1.21394 0
M  V30 4420 C 422.505 0.687774 1.90462 0
M  V30 4421 C 422.833 -0.78147 1.7811 0
M  V30 4422 O 422.088 -1.58208 1.1519 0
M  V30 4423 C 422.387 1.0546 3.41486 0
M  V30 4424 C 422.053 2.51812 3.74034 0
M  V30 4425 C 420.715 2.91804 3.82628 0
M  V30 4426 C 423.067 3.46614 3.8924 0
M  V30 4427 C 420.395 4.2556 4.03876 0
M  V30 4428 C 422.747 4.80044 4.11995 0
M  V30 4429 C 421.411 5.19759 4.18816 0
M  V30 4430 H 420.681 0.251674 0.696951 0
M  V30 4431 H 423.328 1.26349 1.43903 0
M  V30 4432 H 421.633 0.397133 3.89782 0
M  V30 4433 H 423.33 0.786976 3.93202 0
M  V30 4434 H 419.92 2.1982 3.67936 0
M  V30 4435 H 424.104 3.16883 3.81967 0
M  V30 4436 H 419.36 4.55901 4.07387 0
M  V30 4437 H 423.534 5.53439 4.22704 0
M  V30 4438 H 421.161 6.23418 4.35033 0
M  V30 4439 N 422.737 -1.36956 0.779787 0
M  V30 4440 C 423.669 -2.28833 0.129639 0
M  V30 4441 C 424.682 -1.4902 -0.655511 0
M  V30 4442 O 425.871 -1.71578 -0.492279 0
M  V30 4443 C 422.971 -3.2833 -0.839792 0
M  V30 4444 C 422.144 -4.3727 -0.10675 0
M  V30 4445 C 421.203 -5.16789 -0.990717 0
M  V30 4446 O 420.229 -5.67406 -0.451516 0
M  V30 4447 N 421.431 -5.32294 -2.3161 0
M  V30 4448 H 424.196 -2.85268 0.918803 0
M  V30 4449 H 421.757 -1.49019 0.632841 0
M  V30 4450 H 423.749 -3.78413 -1.43477 0
M  V30 4451 H 422.319 -2.72605 -1.52988 0
M  V30 4452 H 421.539 -3.88478 0.669216 0
M  V30 4453 H 422.827 -5.07229 0.399464 0
M  V30 4454 H 422.225 -4.92768 -2.77843 0
M  V30 4455 H 420.782 -5.85656 -2.86095 0
M  V30 4456 N 424.215 -0.530993 -1.48385 0
M  V30 4457 C 425.445 -0.00133928 -2.066 0
M  V30 4458 C 425.853 1.28599 -1.38777 0
M  V30 4459 O 425.196 1.77599 -0.469495 0
M  V30 4460 C 425.258 0.292137 -3.58311 0
M  V30 4461 C 424.922 -0.901864 -4.48013 0
M  V30 4462 C 425.919 -1.80053 -4.87726 0
M  V30 4463 C 423.604 -1.10915 -4.89901 0
M  V30 4464 C 425.598 -2.89038 -5.68098 0
M  V30 4465 C 423.285 -2.20213 -5.70043 0
M  V30 4466 C 424.283 -3.09107 -6.0905 0
M  V30 4467 O 423.971 -4.16514 -6.87583 0
M  V30 4468 H 423.703 -0.0308475 -0.675296 0
M  V30 4469 H 426.257 -0.736335 -1.91748 0
M  V30 4470 H 424.487 1.08112 -3.7128 0
M  V30 4471 H 426.176 0.763994 -3.98645 0
M  V30 4472 H 426.942 -1.65234 -4.55986 0
M  V30 4473 H 422.821 -0.426498 -4.59023 0
M  V30 4474 H 426.365 -3.58451 -5.98464 0
M  V30 4475 H 422.262 -2.35016 -6.01197 0
M  V30 4476 H 423.03 -4.14237 -7.05939 0
M  V30 4477 N 425.693 1.55336 -0.266172 0
M  V30 4478 C 426.921 2.03801 0.356756 0
M  V30 4479 C 427.336 1.14485 1.50129 0
M  V30 4480 O 426.693 0.163121 1.8177 0
M  V30 4481 C 426.744 3.51455 0.846281 0
M  V30 4482 O 426.465 4.37371 -0.252663 0
M  V30 4483 C 427.966 4.15767 1.53794 0
M  V30 4484 H 425.186 0.665906 0.0825218 0
M  V30 4485 H 427.73 2.00636 -0.39566 0
M  V30 4486 H 425.885 3.55092 1.54881 0
M  V30 4487 H 426.299 5.24358 0.122173 0
M  V30 4488 H 427.773 5.20714 1.83198 0
M  V30 4489 H 428.25 3.63404 2.46646 0
M  V30 4490 H 428.856 4.16107 0.879488 0
M  V30 4491 N 427.171 -0.0066808 1.57599 0
M  V30 4492 C 428.119 -1.01851 2.09115 0
M  V30 4493 C 429.113 -1.36021 1.00969 0
M  V30 4494 O 430.319 -1.34663 1.19439 0
M  V30 4495 H 426.694 -0.346083 0.667631 0
M  V30 4496 H 428.665 -0.558394 2.93129 0
M  V30 4497 C 427.414 -2.30374 2.60429 0
M  V30 4498 H 426.737 -2.04947 3.43273 0
M  V30 4499 H 428.177 -2.99466 3.00161 0
M  V30 4500 C 426.636 -3.00893 1.51542 0
M  V30 4501 O 427.166 -3.91614 0.894484 0
M  V30 4502 N 425.372 -2.62603 1.2445 0
M  V30 4503 H 424.919 -1.88911 1.75129 0
M  V30 4504 H 424.877 -3.10101 0.518137 0
M  V30 4505 N 428.649 -1.55105 -0.279332 0
M  V30 4506 C 429.896 -1.75412 -1.01177 0
M  V30 4507 C 430.224 -0.551728 -1.86511 0
M  V30 4508 O 429.479 0.465919 -1.90073 0
M  V30 4509 C 429.778 -3.0086 -1.92919 0
M  V30 4510 C 429.444 -4.33689 -1.23387 0
M  V30 4511 C 428.106 -4.69792 -1.04159 0
M  V30 4512 C 430.458 -5.15941 -0.738562 0
M  V30 4513 C 427.786 -5.85707 -0.341166 0
M  V30 4514 C 430.138 -6.32579 -0.0517636 0
M  V30 4515 C 428.802 -6.67326 0.152292 0
M  V30 4516 H 428.072 -0.641879 -0.370233 0
M  V30 4517 H 430.719 -1.89373 -0.284627 0
M  V30 4518 H 429.024 -2.81773 -2.72234 0
M  V30 4519 H 430.721 -3.13768 -2.49701 0
M  V30 4520 H 427.311 -4.05309 -1.39364 0
M  V30 4521 H 431.495 -4.8853 -0.874764 0
M  V30 4522 H 426.751 -6.11157 -0.172287 0
M  V30 4523 H 430.925 -6.9557 0.339828 0
M  V30 4524 H 428.552 -7.56998 0.697014 0
M  V30 4525 N 430.127 0.543554 -1.4793 0
M  V30 4526 C 431.037 1.67657 -1.64098 0
M  V30 4527 C 432.053 1.65934 -0.523622 0
M  V30 4528 O 433.229 1.85133 -0.792943 0
M  V30 4529 C 430.294 3.04146 -1.66421 0
M  V30 4530 C 429.355 3.16831 -2.89684 0
M  V30 4531 C 428.588 4.46809 -2.91886 0
M  V30 4532 O 428.811 5.33095 -2.02895 0
M  V30 4533 O 427.745 4.63573 -3.83906 0
M  V30 4534 H 431.571 1.56957 -2.59997 0
M  V30 4535 H 429.156 0.715116 -1.31173 0
M  V30 4536 H 431.038 3.85346 -1.70548 0
M  V30 4537 H 429.713 3.152 -0.736923 0
M  V30 4538 H 428.62 2.34977 -2.91095 0
M  V30 4539 H 429.953 3.10687 -3.81752 0
M  V30 4540 N 431.605 1.3629 0.791371 0
M  V30 4541 C 432.552 1.30458 1.90393 0
M  V30 4542 C 433.522 0.173632 1.6519 0
M  V30 4543 O 434.707 0.35983 1.87376 0
M  V30 4544 C 431.847 1.09777 3.27174 0
M  V30 4545 C 430.96 2.31929 3.64462 0
M  V30 4546 C 430.095 2.04276 4.90352 0
M  V30 4547 C 429.134 3.224 5.20312 0
M  V30 4548 N 428.271 2.94424 6.37385 0
M  V30 4549 H 433.111 2.25589 1.94714 0
M  V30 4550 H 430.648 1.12122 0.952216 0
M  V30 4551 H 432.606 0.958133 4.06049 0
M  V30 4552 H 431.236 0.183014 3.22281 0
M  V30 4553 H 430.288 2.56703 2.80727 0
M  V30 4554 H 431.6 3.20085 3.82553 0
M  V30 4555 H 430.754 1.87231 5.77087 0
M  V30 4556 H 429.493 1.13428 4.74326 0
M  V30 4557 H 428.498 3.40005 4.32061 0
M  V30 4558 H 429.723 4.14071 5.38258 0
M  V30 4559 H 427.669 2.06185 6.22755 0
M  V30 4560 H 427.586 3.76118 6.55798 0
M  V30 4561 H 428.854 2.80953 7.27108 0
M  V30 4562 N 433.083 -1.0153 1.20538 0
M  V30 4563 C 434.031 -2.12215 0.952235 0
M  V30 4564 C 435.025 -1.69123 -0.0968735 0
M  V30 4565 O 436.231 -1.7992 0.0536006 0
M  V30 4566 H 432.606 -0.693576 0.290613 0
M  V30 4567 H 434.577 -2.3075 1.89201 0
M  V30 4568 C 433.326 -3.43755 0.522287 0
M  V30 4569 H 432.649 -3.7734 1.32115 0
M  V30 4570 H 434.089 -4.22254 0.384389 0
M  V30 4571 C 432.548 -3.28088 -0.765489 0
M  V30 4572 O 433.078 -3.57921 -1.8236 0
M  V30 4573 N 431.284 -2.81333 -0.728011 0
M  V30 4574 H 430.831 -2.57255 0.133332 0
M  V30 4575 H 430.789 -2.71232 -1.58999 0
M  V30 4576 N 434.561 -1.01147 -1.20859 0
M  V30 4577 C 435.977 -0.725422 -1.42161 0
M  V30 4578 C 436.177 0.696919 -1.89064 0
M  V30 4579 O 435.233 1.46539 -2.05627 0
M  V30 4580 C 436.546 -1.74678 -2.44761 0
M  V30 4581 C 438.094 -1.76433 -2.58535 0
M  V30 4582 C 438.569 -2.77481 -3.64374 0
M  V30 4583 N 440.06 -2.76189 -3.71852 0
M  V30 4584 C 440.795 -3.51035 -4.53389 0
M  V30 4585 N 440.291 -4.35541 -5.38773 0
M  V30 4586 N 442.084 -3.39655 -4.47873 0
M  V30 4587 H 434.235 -1.92979 -0.887282 0
M  V30 4588 H 436.498 -0.833327 -0.451962 0
M  V30 4589 H 436.204 -2.76551 -2.17285 0
M  V30 4590 H 436.078 -1.55472 -3.43669 0
M  V30 4591 H 438.465 -0.75248 -2.85345 0
M  V30 4592 H 438.546 -1.99712 -1.5984 0
M  V30 4593 H 438.19 -3.78827 -3.38308 0
M  V30 4594 H 438.12 -2.51466 -4.6268 0
M  V30 4595 H 440.611 -2.14885 -3.10858 0
M  V30 4596 H 440.924 -4.89432 -5.98061 0
M  V30 4597 H 439.269 -4.39621 -5.38292 0
M  V30 4598 H 442.46 -2.73063 -3.80203 0
M  V30 4599 H 442.633 -3.9824 -5.11184 0
M  V30 4600 N 436.039 1.36541 -0.78704 0
M  V30 4601 C 436.987 2.31965 -0.171724 0
M  V30 4602 C 437.981 1.55689 0.667631 0
M  V30 4603 O 439.187 1.70969 0.562981 0
M  V30 4604 H 435.562 0.751101 -0.0367545 0
M  V30 4605 H 437.533 2.81428 -0.992017 0
M  V30 4606 C 436.282 3.40968 0.680904 0
M  V30 4607 H 435.605 3.99775 0.0443961 0
M  V30 4608 H 437.045 4.10063 1.07815 0
M  V30 4609 C 435.504 2.82338 1.83813 0
M  V30 4610 O 436.034 2.74311 2.93456 0
M  V30 4611 N 434.24 2.39661 1.6435 0
M  V30 4612 H 433.787 2.46389 0.751668 0
M  V30 4613 H 433.745 2.00779 2.4194 0
M  V30 4614 N 437.518 0.538854 1.48102 0
M  V30 4615 C 438.748 0.0122958 2.06596 0
M  V30 4616 C 439.156 -1.27861 1.39457 0
M  V30 4617 O 438.499 -1.77348 0.478907 0
M  V30 4618 C 438.561 -0.273131 3.58461 0
M  V30 4619 C 438.225 0.92561 4.47528 0
M  V30 4620 C 439.222 1.82637 4.86765 0
M  V30 4621 C 436.907 1.13511 4.89306 0
M  V30 4622 C 438.901 2.92047 5.66558 0
M  V30 4623 C 436.588 2.23233 5.68868 0
M  V30 4624 C 437.586 3.12333 6.07402 0
M  V30 4625 O 437.274 4.20155 6.85365 0
M  V30 4626 H 437.006 0.0344283 0.675123 0
M  V30 4627 H 439.56 0.746494 1.91355 0
M  V30 4628 H 437.79 -1.06141 3.71848 0
M  V30 4629 H 439.479 -0.742842 3.99045 0
M  V30 4630 H 440.245 1.67649 4.55103 0
M  V30 4631 H 436.124 0.450835 4.5879 0
M  V30 4632 H 439.668 3.6162 5.96554 0
M  V30 4633 H 435.565 2.38201 5.99942 0
M  V30 4634 H 436.333 4.17975 7.03732 0
M  V30 4635 N 438.996 -1.55193 0.274407 0
M  V30 4636 C 440.245 -1.98758 -0.343213 0
M  V30 4637 C 440.558 -1.16624 -1.5703 0
M  V30 4638 O 441.764 -1.5033 -2.26082 0
M  V30 4639 C 440.22 -3.53759 -0.661996 0
M  V30 4640 C 439.828 -4.4467 0.54524 0
M  V30 4641 C 441.572 -4.05916 -1.24228 0
M  V30 4642 C 439.479 -5.91058 0.201084 0
M  V30 4643 H 438.409 -0.742353 -0.132014 0
M  V30 4644 H 441.06 -1.79545 0.378948 0
M  V30 4645 H 439.442 -3.68772 -1.44304 0
M  V30 4646 H 440.616 -4.41426 1.32212 0
M  V30 4647 H 438.931 -4.03143 1.04232 0
M  V30 4648 H 441.528 -5.12831 -1.51357 0
M  V30 4649 H 441.871 -3.54908 -2.17592 0
M  V30 4650 H 442.404 -3.9434 -0.523542 0
M  V30 4651 H 439.143 -6.46161 1.10258 0
M  V30 4652 H 438.663 -5.97373 -0.539045 0
M  V30 4653 H 440.342 -6.46669 -0.206954 0
M  V30 4654 N 440.474 -0.00167713 -1.576 0
M  V30 4655 C 441.404 0.988091 -2.11563 0
M  V30 4656 C 442.385 1.35736 -1.02517 0
M  V30 4657 O 443.57 1.44082 -1.30208 0
M  V30 4658 C 440.7 2.27941 -2.62031 0
M  V30 4659 C 439.654 2.0517 -3.75619 0
M  V30 4660 C 438.98 3.4033 -4.12407 0
M  V30 4661 C 440.28 1.41294 -5.02825 0
M  V30 4662 H 441.974 0.538771 -2.94513 0
M  V30 4663 H 439.52 0.257712 -1.41675 0
M  V30 4664 H 441.473 2.97539 -2.9841 0
M  V30 4665 H 440.197 2.74989 -1.76205 0
M  V30 4666 H 438.856 1.37998 -3.39635 0
M  V30 4667 H 438.504 3.85085 -3.23603 0
M  V30 4668 H 438.204 3.25909 -4.88935 0
M  V30 4669 H 439.728 4.1124 -4.51347 0
M  V30 4670 H 441.142 2.00851 -5.36965 0
M  V30 4671 H 439.539 1.37356 -5.84169 0
M  V30 4672 H 440.609 0.382362 -4.8339 0
M  V30 4673 N 441.952 1.55251 0.271103 0
M  V30 4674 C 443.177 1.80306 1.02491 0
M  V30 4675 C 443.602 0.575457 1.79081 0
M  V30 4676 O 442.96 -0.474987 1.74967 0
M  V30 4677 C 443.008 3.02832 1.95768 0
M  V30 4678 O 442.112 2.78051 3.04568 0
M  V30 4679 H 441.453 0.595896 0.292923 0
M  V30 4680 H 443.983 2.02397 0.299436 0
M  V30 4681 H 443.993 3.31616 2.37686 0
M  V30 4682 H 442.668 3.9183 1.39434 0
M  V30 4683 H 441.245 2.60369 2.66951 0
M  V30 4684 N 443.43 -0.535701 1.48216 0
M  V30 4685 C 444.658 -1.31671 1.59594 0
M  V30 4686 C 445.073 -1.87083 0.254056 0
M  V30 4687 O 444.43 -1.66112 -0.755854 0
M  V30 4688 C 444.481 -2.47158 2.63809 0
M  V30 4689 O 444.202 -1.94032 3.92789 0
M  V30 4690 C 445.703 -3.39062 2.85573 0
M  V30 4691 H 442.923 -0.400623 0.538277 0
M  V30 4692 H 445.467 -0.646827 1.94001 0
M  V30 4693 H 443.622 -3.10043 2.32276 0
M  V30 4694 H 444.036 -2.69585 4.49916 0
M  V30 4695 H 445.51 -4.16459 3.62306 0
M  V30 4696 H 445.987 -3.93941 1.94184 0
M  V30 4697 H 446.593 -2.81975 3.18387 0
M  V30 4698 N 444.908 -1.36708 -0.784132 0
M  V30 4699 C 445.84 -1.27333 -1.90575 0
M  V30 4700 C 446.853 -0.191706 -1.61667 0
M  V30 4701 O 448.042 -0.446854 -1.72816 0
M  V30 4702 C 445.142 -0.943177 -3.25511 0
M  V30 4703 C 444.315 -2.12776 -3.82158 0
M  V30 4704 C 443.374 -1.76983 -4.95544 0
M  V30 4705 O 442.4 -2.49134 -5.11782 0
M  V30 4706 N 443.602 -0.706624 -5.76183 0
M  V30 4707 H 446.367 -2.23974 -1.99138 0
M  V30 4708 H 443.928 -1.30171 -0.962656 0
M  V30 4709 H 445.92 -0.684799 -3.98864 0
M  V30 4710 H 444.49 -0.0657333 -3.12531 0
M  V30 4711 H 443.71 -2.54863 -3.0073 0
M  V30 4712 H 444.998 -2.91904 -4.16737 0
M  V30 4713 H 444.396 -0.107643 -5.65598 0
M  V30 4714 H 442.953 -0.50808 -6.49817 0
M  V30 4715 N 446.386 1.0089 -1.21074 0
M  V30 4716 C 447.663 1.71834 -0.934469 0
M  V30 4717 C 448.043 2.0368 0.554753 0
M  V30 4718 O 447.391 1.70742 1.51854 0
M  V30 4719 C 447.601 2.98061 -1.8155 0
M  V30 4720 C 448.949 3.7117 -2.06199 0
M  V30 4721 O 449.973 3.08034 -1.78867 0
M  V30 4722 O 448.832 4.84721 -2.52404 0
M  V30 4723 H 445.926 0.749253 -0.35007 0
M  V30 4724 H 448.472 1.06668 -1.31985 0
M  V30 4725 H 447.244 2.70908 -2.82355 0
M  V30 4726 H 446.867 3.70968 -1.43068 0
M  V30 4727 N 447.864 1.01787 1.20321 0
M  V30 4728 C 449.28 0.732951 1.41774 0
M  V30 4729 C 449.48 -0.686883 1.89431 0
M  V30 4730 O 448.536 -1.45446 2.06402 0
M  V30 4731 C 449.849 1.75973 2.43832 0
M  V30 4732 C 451.397 1.77802 2.57596 0
M  V30 4733 C 451.872 2.7941 3.62897 0
M  V30 4734 N 453.363 2.78157 3.70382 0
M  V30 4735 C 454.098 3.53434 4.51521 0
M  V30 4736 N 453.594 4.38392 5.36455 0
M  V30 4737 N 455.387 3.42026 4.46066 0
M  V30 4738 H 447.538 1.93447 0.877035 0
M  V30 4739 H 449.801 0.835712 0.447536 0
M  V30 4740 H 449.507 2.77699 2.15815 0
M  V30 4741 H 449.381 1.57292 3.4284 0
M  V30 4742 H 451.768 0.767602 2.84942 0
M  V30 4743 H 451.849 2.00557 1.58779 0
M  V30 4744 H 451.493 3.80616 3.36295 0
M  V30 4745 H 451.423 2.53916 4.61339 0
M  V30 4746 H 453.914 2.16531 3.09714 0
M  V30 4747 H 454.227 4.92596 5.95457 0
M  V30 4748 H 452.572 4.4247 5.35953 0
M  V30 4749 H 455.763 2.75075 3.78749 0
M  V30 4750 H 455.936 4.00946 5.09064 0
M  V30 4751 N 449.342 -1.36122 0.79427 0
M  V30 4752 C 450.272 -2.32551 0.210328 0
M  V30 4753 C 451.253 -1.56884 -0.657386 0
M  V30 4754 O 452.438 -1.85014 -0.590207 0
M  V30 4755 C 449.568 -3.41128 -0.651819 0
M  V30 4756 C 448.522 -4.27842 0.116395 0
M  V30 4757 C 447.848 -5.2763 -0.86666 0
M  V30 4758 C 449.148 -5.05647 1.30837 0
M  V30 4759 H 450.842 -2.81636 1.01594 0
M  V30 4760 H 448.388 -1.35407 0.489981 0
M  V30 4761 H 450.341 -4.07581 -1.07031 0
M  V30 4762 H 449.065 -2.90622 -1.49019 0
M  V30 4763 H 447.724 -3.62952 0.515915 0
M  V30 4764 H 447.372 -4.73395 -1.70019 0
M  V30 4765 H 447.072 -5.86514 -0.35705 0
M  V30 4766 H 448.596 -5.96955 -1.28361 0
M  V30 4767 H 450.01 -5.65113 0.965393 0
M  V30 4768 H 448.407 -5.73967 1.75161 0
M  V30 4769 H 449.477 -4.37006 2.10128 0
M  V30 4770 N 450.82 -0.546701 -1.47814 0
M  V30 4771 C 452.066 -0.0187684 -2.02791 0
M  V30 4772 C 452.399 1.32338 -1.42128 0
M  V30 4773 O 451.674 1.85867 -0.573023 0
M  V30 4774 C 451.957 0.0854985 -3.59998 0
M  V30 4775 C 451.81 -1.283 -4.31114 0
M  V30 4776 C 453.129 0.80412 -4.32691 0
M  V30 4777 H 450.248 -0.0082946 -0.736953 0
M  V30 4778 H 452.89 -0.706962 -1.76358 0
M  V30 4779 H 451.04 0.671609 -3.82651 0
M  V30 4780 H 452.712 -1.91151 -4.19832 0
M  V30 4781 H 450.955 -1.86049 -3.91878 0
M  V30 4782 H 451.626 -1.16287 -5.39612 0
M  V30 4783 H 454.102 0.306576 -4.14969 0
M  V30 4784 H 452.978 0.846011 -5.42341 0
M  V30 4785 H 453.239 1.85802 -4.01161 0
M  V30 4786 N 452.299 1.55045 -0.282633 0
M  V30 4787 C 453.547 1.99365 0.331334 0
M  V30 4788 C 453.868 1.1725 1.55812 0
M  V30 4789 O 453.138 0.263871 1.94115 0
M  V30 4790 H 451.718 0.736397 0.125414 0
M  V30 4791 H 454.38 1.90964 -0.389711 0
M  V30 4792 H 453.476 3.0596 0.616036 0
M  V30 4793 N 453.777 0.010035 1.57597 0
M  V30 4794 C 455.025 -0.671371 1.90623 0
M  V30 4795 C 455.346 -1.73753 0.885151 0
M  V30 4796 O 454.616 -1.95752 -0.0760611 0
M  V30 4797 H 453.196 -0.250968 0.703579 0
M  V30 4798 H 455.858 0.0533325 1.94827 0
M  V30 4799 H 454.954 -1.13626 2.90681 0
M  V30 4800 N 455.255 -1.55392 -0.262866 0
M  V30 4801 C 456.502 -1.76476 -0.993109 0
M  V30 4802 C 456.83 -0.571479 -1.85915 0
M  V30 4803 O 456.085 0.445733 -1.90556 0
M  V30 4804 C 456.384 -3.02889 -1.89718 0
M  V30 4805 C 456.05 -4.34974 -1.18781 0
M  V30 4806 C 454.712 -4.7087 -0.991699 0
M  V30 4807 C 457.064 -5.16695 -0.683798 0
M  V30 4808 C 454.392 -5.86036 -0.279024 0
M  V30 4809 C 456.744 -6.32598 0.0153327 0
M  V30 4810 C 455.408 -6.67127 0.223062 0
M  V30 4811 H 454.678 -0.64577 -0.363404 0
M  V30 4812 H 457.325 -1.89664 -0.264525 0
M  V30 4813 H 455.63 -2.84644 -2.6923 0
M  V30 4814 H 457.327 -3.16399 -2.46359 0
M  V30 4815 H 453.917 -4.06765 -1.35058 0
M  V30 4816 H 458.101 -4.8943 -0.8229 0
M  V30 4817 H 453.357 -6.11306 -0.107456 0
M  V30 4818 H 457.531 -6.95171 0.413584 0
M  V30 4819 H 455.158 -7.56216 0.777265 0
M  V30 4820 N 456.733 0.527833 -1.48498 0
M  V30 4821 C 457.696 1.61439 -1.62696 0
M  V30 4822 C 458.696 1.52824 -0.500136 0
M  V30 4823 O 459.886 1.56456 -0.765976 0
M  V30 4824 C 457.018 3.01063 -1.59918 0
M  V30 4825 H 458.211 1.50189 -2.59583 0
M  V30 4826 H 455.764 0.750055 -1.37127 0
M  V30 4827 H 456.499 3.17818 -0.645163 0
M  V30 4828 H 456.284 3.08725 -2.41726 0
M  V30 4829 H 457.774 3.80057 -1.73051 0
M  V30 4830 N 458.211 1.37122 0.776871 0
M  V30 4831 C 459.158 1.3247 1.88998 0
M  V30 4832 C 460.128 0.191143 1.64997 0
M  V30 4833 O 461.313 0.379683 1.86984 0
M  V30 4834 C 458.453 1.13241 3.25992 0
M  V30 4835 C 457.566 2.35782 3.61982 0
M  V30 4836 C 456.701 2.09465 4.88158 0
M  V30 4837 C 455.74 3.279 5.16864 0
M  V30 4838 N 454.877 3.01167 6.34226 0
M  V30 4839 H 459.717 2.27642 1.9231 0
M  V30 4840 H 457.254 1.13125 0.94027 0
M  V30 4841 H 459.212 1.00115 4.0501 0
M  V30 4842 H 457.842 0.217186 3.22069 0
M  V30 4843 H 456.894 2.59666 2.77989 0
M  V30 4844 H 458.206 3.24125 3.79137 0
M  V30 4845 H 457.36 1.93341 5.75069 0
M  V30 4846 H 456.099 1.18452 4.73097 0
M  V30 4847 H 455.104 3.44569 4.2843 0
M  V30 4848 H 456.329 4.19757 5.33836 0
M  V30 4849 H 454.275 2.12779 6.20533 0
M  V30 4850 H 454.192 3.83052 6.51772 0
M  V30 4851 H 455.46 2.88649 7.24087 0
M  V30 4852 N 459.689 -1.00246 1.21608 0
M  V30 4853 C 460.935 -1.74417 1.04643 0
M  V30 4854 C 461.29 -1.87862 -0.415387 0
M  V30 4855 O 460.583 -1.40373 -1.30407 0
M  V30 4856 C 460.777 -3.15448 1.68009 0
M  V30 4857 C 460.606 -3.15755 3.20201 0
M  V30 4858 C 459.376 -3.2219 3.89258 0
M  V30 4859 C 461.574 -3.00668 4.17257 0
M  V30 4860 N 459.556 -3.1215 5.28617 0
M  V30 4861 C 460.927 -2.98553 5.43384 0
M  V30 4862 C 462.982 -2.84989 4.08272 0
M  V30 4863 C 461.685 -2.82364 6.61561 0
M  V30 4864 C 463.711 -2.70158 5.26088 0
M  V30 4865 C 463.073 -2.68721 6.51128 0
M  V30 4866 H 459.172 -0.648317 0.437274 0
M  V30 4867 H 461.756 -1.19129 1.54001 0
M  V30 4868 H 459.927 -3.69001 1.21215 0
M  V30 4869 H 461.659 -3.78128 1.44226 0
M  V30 4870 H 458.414 -3.29488 3.40198 0
M  V30 4871 H 458.838 -3.10465 6.01615 0
M  V30 4872 H 463.48 -2.84904 3.12393 0
M  V30 4873 H 461.198 -2.81196 7.57598 0
M  V30 4874 H 464.784 -2.59022 5.20959 0
M  V30 4875 H 463.664 -2.57382 7.40759 0
M  V30 4876 N 461.167 -1.02423 -1.1978 0
M  V30 4877 C 462.578 -0.748389 -1.71044 0
M  V30 4878 C 462.929 0.732398 -1.82017 0
M  V30 4879 O 462.054 1.57116 -1.48807 0
M  V30 4880 C 462.649 -1.35187 -3.1066 0
M  V30 4881 C 461.208 -1.12472 -3.59203 0
M  V30 4882 C 460.355 -1.45283 -2.36195 0
M  V30 4883 H 463.306 -1.19275 -1.04686 0
M  V30 4884 H 463.327 -0.746408 -3.73107 0
M  V30 4885 H 462.839 -2.4296 -3.02642 0
M  V30 4886 H 460.94 -0.0649983 -3.72543 0
M  V30 4887 H 461.053 -1.81016 -4.43588 0
M  V30 4888 H 459.417 -0.872034 -2.39307 0
M  V30 4889 H 460.2 -2.54129 -2.30811 0
M  V30 4890 N 462.645 1.35699 -0.801477 0
M  V30 4891 C 463.922 1.9324 -0.302937 0
M  V30 4892 C 464.302 1.73209 1.20672 0
M  V30 4893 O 463.65 1.09809 2.00385 0
M  V30 4894 C 463.86 3.41728 -0.708747 0
M  V30 4895 C 465.208 4.18868 -0.695328 0
M  V30 4896 O 466.232 3.5022 -0.649971 0
M  V30 4897 O 465.091 5.41342 -0.749081 0
M  V30 4898 H 462.185 0.82331 -0.0780367 0
M  V30 4899 H 464.731 1.44806 -0.884832 0
M  V30 4900 H 463.503 3.50015 -1.74944 0
M  V30 4901 H 463.126 3.97471 -0.101384 0
M  V30 4902 N 464.123 0.554532 1.47522 0
M  V30 4903 C 465.348 0.0322661 2.07375 0
M  V30 4904 C 465.773 -1.25079 1.40488 0
M  V30 4905 O 465.131 -1.74859 0.47896 0
M  V30 4906 C 465.179 -0.149397 3.6029 0
M  V30 4907 O 464.283 -1.21259 3.9417 0
M  V30 4908 H 463.624 0.0501228 0.662106 0
M  V30 4909 H 466.154 0.769452 1.8958 0
M  V30 4910 H 466.164 -0.364437 4.06369 0
M  V30 4911 H 464.839 0.787743 4.08372 0
M  V30 4912 H 463.416 -0.97825 3.5984 0
M  V30 4913 N 465.601 -1.54893 0.290851 0
M  V30 4914 C 466.551 -2.19838 -0.604599 0
M  V30 4915 C 467.535 -1.16805 -1.10659 0
M  V30 4916 O 468.727 -1.42562 -1.04905 0
M  V30 4917 C 465.856 -2.93497 -1.78086 0
M  V30 4918 C 464.942 -4.03835 -1.29531 0
M  V30 4919 N 465.333 -5.03047 -0.527024 0
M  V30 4920 C 463.631 -4.17192 -1.57693 0
M  V30 4921 C 464.332 -5.81074 -0.269728 0
M  V30 4922 N 463.308 -5.36966 -0.846651 0
M  V30 4923 H 467.11 -2.93898 -0.00995032 0
M  V30 4924 H 464.624 -1.62121 0.0951353 0
M  V30 4925 H 466.621 -3.38484 -2.43381 0
M  V30 4926 H 465.281 -2.2095 -2.37931 0
M  V30 4927 H 466.292 -5.17611 -0.172872 0
M  V30 4928 H 462.969 -3.55845 -2.18359 0
M  V30 4929 H 464.359 -6.71005 0.346643 0
M  V30 4930 N 467.08 -0.0183926 -1.57589 0
M  V30 4931 C 468.491 0.521927 -1.79256 0
M  V30 4932 C 468.842 1.72885 -0.927636 0
M  V30 4933 O 467.967 2.15978 -0.135091 0
M  V30 4934 C 468.562 0.953632 -3.25102 0
M  V30 4935 C 467.121 1.43913 -3.47801 0
M  V30 4936 C 466.268 0.398837 -2.74417 0
M  V30 4937 H 469.219 -0.244485 -1.56805 0
M  V30 4938 H 469.24 1.81863 -3.34224 0
M  V30 4939 H 468.752 0.0750123 -3.88028 0
M  V30 4940 H 466.853 2.33804 -2.90115 0
M  V30 4941 H 466.966 1.45391 -4.56507 0
M  V30 4942 H 465.33 0.864572 -2.39577 0
M  V30 4943 H 466.113 -0.471132 -3.40052 0
M  V30 4944 N 468.558 1.5553 0.254621 0
M  V30 4945 C 469.835 1.6774 1.00611 0
M  V30 4946 C 470.215 0.555993 2.03647 0
M  V30 4947 O 469.563 -0.441583 2.24193 0
M  V30 4948 C 469.773 3.07725 1.6464 0
M  V30 4949 C 471.121 3.66074 2.15116 0
M  V30 4950 O 472.145 3.10476 1.74595 0
M  V30 4951 O 471.004 4.63526 2.89493 0
M  V30 4952 H 468.098 0.681958 0.467828 0
M  V30 4953 H 470.644 1.67863 0.24902 0
M  V30 4954 H 469.416 3.80792 0.900734 0
M  V30 4955 H 469.039 3.1158 2.46989 0
M  V30 4956 N 470.036 -0.519951 1.48776 0
M  V30 4957 C 470.999 -1.60574 1.6355 0
M  V30 4958 C 471.999 -1.52557 0.508234 0
M  V30 4959 O 473.189 -1.56047 0.774262 0
M  V30 4960 C 470.321 -3.00211 1.61512 0
M  V30 4961 H 471.514 -1.4881 2.60376 0
M  V30 4962 H 469.067 -0.742772 1.37523 0
M  V30 4963 H 469.802 -3.17471 0.662009 0
M  V30 4964 H 469.587 -3.07439 2.43359 0
M  V30 4965 H 471.077 -3.79134 1.75064 0
M  V30 4966 N 471.514 -1.37532 -0.769588 0
M  V30 4967 C 472.444 -1.36172 -1.89682 0
M  V30 4968 C 473.425 -0.23001 -1.68538 0
M  V30 4969 O 474.61 -0.43069 -1.89364 0
M  V30 4970 C 471.74 -1.1701 -3.26995 0
M  V30 4971 C 470.694 -2.27216 -3.62708 0
M  V30 4972 C 470.02 -1.93174 -4.98586 0
M  V30 4973 C 471.32 -3.6941 -3.69234 0
M  V30 4974 H 473.014 -2.30499 -1.91078 0
M  V30 4975 H 470.56 -1.10953 -0.917902 0
M  V30 4976 H 472.513 -1.14688 -4.05493 0
M  V30 4977 H 471.237 -0.191395 -3.26039 0
M  V30 4978 H 469.896 -2.28697 -2.86519 0
M  V30 4979 H 469.544 -0.938281 -4.94171 0
M  V30 4980 H 469.244 -2.66973 -5.23449 0
M  V30 4981 H 470.768 -1.92443 -5.79481 0
M  V30 4982 H 472.182 -3.70047 -4.37879 0
M  V30 4983 H 470.579 -4.4228 -4.05597 0
M  V30 4984 H 471.649 -4.0288 -2.69844 0
M  V30 4985 N 472.992 0.995999 -1.22138 0
M  V30 4986 C 473.942 2.06988 -0.956042 0
M  V30 4987 C 474.926 1.60636 0.0921576 0
M  V30 4988 O 476.118 1.76607 -0.117958 0
M  V30 4989 C 473.247 3.39148 -0.532335 0
M  V30 4990 C 472.333 3.92142 -1.61509 0
M  V30 4991 N 472.724 4.18397 -2.84214 0
M  V30 4992 C 471.022 4.20514 -1.48606 0
M  V30 4993 C 471.723 4.61425 -3.54206 0
M  V30 4994 N 470.699 4.64934 -2.81669 0
M  V30 4995 H 474.501 2.25223 -1.88816 0
M  V30 4996 H 472.015 1.17748 -1.11845 0
M  V30 4997 H 474.012 4.15642 -0.323574 0
M  V30 4998 H 472.672 3.22314 0.392921 0
M  V30 4999 H 473.683 4.06682 -3.20671 0
M  V30 5000 H 470.36 4.12769 -0.626762 0
M  V30 5001 H 471.75 4.90387 -4.59315 0
M  V30 5002 N 474.47 1.03057 1.19235 0
M  V30 5003 C 475.433 0.617418 2.20727 0
M  V30 5004 C 476.433 -0.319856 1.57587 0
M  V30 5005 O 477.623 -0.106633 1.73873 0
M  V30 5006 C 474.755 -0.096296 3.40764 0
M  V30 5007 H 475.948 1.51544 2.58794 0
M  V30 5008 H 473.501 0.821949 1.32942 0
M  V30 5009 H 474.236 -1.00859 3.08217 0
M  V30 5010 H 474.021 0.577217 3.87828 0
M  V30 5011 H 475.511 -0.372219 4.15938 0
M  V30 5012 N 475.948 -1.35272 0.808662 0
M  V30 5013 C 477.178 -2.02652 0.401953 0
M  V30 5014 C 477.586 -1.6108 -0.992462 0
M  V30 5015 O 476.929 -0.804984 -1.65123 0
M  V30 5016 C 476.991 -3.57174 0.408246 0
M  V30 5017 C 476.655 -4.22019 1.75353 0
M  V30 5018 C 477.652 -4.43552 2.71215 0
M  V30 5019 C 475.337 -4.59093 2.03811 0
M  V30 5020 C 477.331 -5.01264 3.93717 0
M  V30 5021 C 475.018 -5.16519 3.26576 0
M  V30 5022 C 476.016 -5.37546 4.21347 0
M  V30 5023 O 475.704 -5.93761 5.41944 0
M  V30 5024 H 475.436 -0.656495 0.161216 0
M  V30 5025 H 477.99 -1.73829 1.0942 0
M  V30 5026 H 476.22 -3.85197 -0.340608 0
M  V30 5027 H 477.909 -4.05893 0.0235623 0
M  V30 5028 H 478.675 -4.15288 2.50522 0
M  V30 5029 H 474.554 -4.42039 1.30854 0
M  V30 5030 H 478.098 -5.17592 4.67701 0
M  V30 5031 H 473.995 -5.4421 3.47139 0
M  V30 5032 H 474.763 -6.1221 5.43269 0
M  V30 5033 N 477.426 -0.562348 -1.47226 0
M  V30 5034 C 478.673 -0.0402165 -2.0246 0
M  V30 5035 C 479.001 1.31169 -1.43614 0
M  V30 5036 O 478.256 1.86805 -0.5833 0
M  V30 5037 C 478.555 0.0969817 -3.57268 0
M  V30 5038 C 478.221 -1.1847 -4.35058 0
M  V30 5039 C 476.883 -1.53588 -4.56031 0
M  V30 5040 C 479.235 -2.03378 -4.79882 0
M  V30 5041 C 476.563 -2.73452 -5.19077 0
M  V30 5042 C 478.915 -3.2245 -5.44251 0
M  V30 5043 C 477.579 -3.57876 -5.63455 0
M  V30 5044 H 476.849 -0.0147163 -0.740854 0
M  V30 5045 H 479.496 -0.734895 -1.76838 0
M  V30 5046 H 477.801 0.87466 -3.81912 0
M  V30 5047 H 479.498 0.516408 -3.97661 0
M  V30 5048 H 476.088 -0.90126 -4.19017 0
M  V30 5049 H 480.272 -1.77553 -4.63453 0
M  V30 5050 H 475.528 -3.01062 -5.32139 0
M  V30 5051 H 479.702 -3.88526 -5.77945 0
M  V30 5052 H 477.329 -4.50849 -6.12078 0
M  V30 5053 N 478.904 1.54736 -0.299062 0
M  V30 5054 C 480.152 1.99706 0.31017 0
M  V30 5055 C 480.473 1.18896 1.54559 0
M  V30 5056 O 479.743 0.284445 1.93824 0
M  V30 5057 H 478.323 0.737686 0.117596 0
M  V30 5058 H 480.985 1.9054 -0.409943 0
M  V30 5059 H 480.081 3.06596 0.58355 0
M  V30 5060 N 480.382 0.0267497 1.57577 0
M  V30 5061 C 481.631 -0.651736 1.9088 0
M  V30 5062 C 481.944 -1.73427 0.904576 0
M  V30 5063 O 483.15 -2.46923 1.12877 0
M  V30 5064 C 481.606 -1.21048 3.38933 0
M  V30 5065 C 481.214 -0.161362 4.47709 0
M  V30 5066 C 482.958 -1.86562 3.81307 0
M  V30 5067 C 480.865 -0.731611 5.86857 0
M  V30 5068 H 479.795 -0.247198 0.712326 0
M  V30 5069 H 482.446 0.0916641 1.83271 0
M  V30 5070 H 480.828 -2.00542 3.41466 0
M  V30 5071 H 482.002 0.61094 4.56732 0
M  V30 5072 H 480.317 0.394877 4.14523 0
M  V30 5073 H 482.914 -2.30178 4.8262 0
M  V30 5074 H 483.257 -2.70735 3.16241 0
M  V30 5075 H 483.79 -1.13762 3.81186 0
M  V30 5076 H 480.529 0.0719329 6.55461 0
M  V30 5077 H 480.049 -1.47245 5.81445 0
M  V30 5078 H 481.728 -1.22208 6.35354 0
M  V30 5079 N 481.861 -1.55662 -0.24637 0
M  V30 5080 C 483.101 -1.79283 -0.981685 0
M  V30 5081 C 483.465 -0.596356 -1.82504 0
M  V30 5082 O 484.666 -0.711342 -2.59217 0
M  V30 5083 C 482.937 -3.07648 -1.819 0
M  V30 5084 S 484.496 -3.52491 -2.61334 0
M  V30 5085 H 481.314 -0.629676 -0.330196 0
M  V30 5086 H 483.916 -1.93901 -0.249498 0
M  V30 5087 H 482.62 -3.92794 -1.18915 0
M  V30 5088 H 482.151 -2.95768 -2.59393 0
M  V30 5089 H 484.166 -3.13866 -3.84321 0
M  V30 5090 N 483.339 0.512053 -1.4905 0
M  V30 5091 C 484.587 1.26436 -1.57665 0
M  V30 5092 C 484.908 1.93255 -0.260293 0
M  V30 5093 O 484.178 1.82206 0.719564 0
M  V30 5094 H 482.758 0.469658 -0.580888 0
M  V30 5095 H 485.42 0.594398 -1.85615 0
M  V30 5096 H 484.516 2.03417 -2.36702 0
M  V30 5097 N 484.817 1.37938 0.762283 0
M  V30 5098 C 485.747 1.37176 1.88958 0
M  V30 5099 C 486.728 0.238945 1.68413 0
M  V30 5100 O 487.913 0.440726 1.89133 0
M  V30 5101 C 485.043 1.18742 3.2637 0
M  V30 5102 C 483.997 2.29136 3.61498 0
M  V30 5103 C 483.323 1.95816 4.97554 0
M  V30 5104 C 484.623 3.71363 3.6727 0
M  V30 5105 H 486.317 2.31509 1.89853 0
M  V30 5106 H 483.863 1.11438 0.912005 0
M  V30 5107 H 485.816 1.16837 4.04879 0
M  V30 5108 H 484.54 0.208683 3.25933 0
M  V30 5109 H 483.199 2.30213 2.85303 0
M  V30 5110 H 482.847 0.964475 4.93667 0
M  V30 5111 H 482.547 2.69745 5.22026 0
M  V30 5112 H 484.071 1.95513 5.78452 0
M  V30 5113 H 485.485 3.72364 4.35911 0
M  V30 5114 H 483.882 4.44425 4.03245 0
M  V30 5115 H 484.952 4.04305 2.67704 0
M  V30 5116 N 486.295 -0.989507 1.22664 0
M  V30 5117 C 487.52 -1.77031 1.08051 0
M  V30 5118 C 487.945 -1.84535 -0.364483 0
M  V30 5119 O 487.303 -1.3003 -1.2634 0
M  V30 5120 C 487.351 -3.18 1.70024 0
M  V30 5121 O 486.455 -4.01161 0.956216 0
M  V30 5122 H 485.796 -0.545008 0.379292 0
M  V30 5123 H 488.326 -1.24277 1.62531 0
M  V30 5124 H 488.336 -3.68616 1.74888 0
M  V30 5125 H 487.011 -3.11853 2.75174 0
M  V30 5126 H 485.588 -3.59687 0.98384 0
M  V30 5127 N 487.773 -1.03688 -1.18687 0
M  V30 5128 C 488.703 -0.645407 -2.24403 0
M  V30 5129 C 489.684 0.349511 -1.66471 0
M  V30 5130 O 490.869 0.230453 -1.92828 0
M  V30 5131 C 487.999 -0.00365337 -3.473 0
M  V30 5132 C 486.953 -0.921705 -4.17958 0
M  V30 5133 C 486.279 -0.144629 -5.34504 0
M  V30 5134 C 487.579 -2.23909 -4.71871 0
M  V30 5135 H 489.273 -1.52917 -2.57404 0
M  V30 5136 H 486.819 -0.736711 -1.23728 0
M  V30 5137 H 488.772 0.281908 -4.20456 0
M  V30 5138 H 487.496 0.914963 -3.13522 0
M  V30 5139 H 486.155 -1.19159 -3.46694 0
M  V30 5140 H 485.803 0.776274 -4.96974 0
M  V30 5141 H 485.503 -0.756206 -5.82714 0
M  V30 5142 H 487.027 0.134004 -6.10453 0
M  V30 5143 H 488.441 -2.0145 -5.36741 0
M  V30 5144 H 486.838 -2.8033 -5.30599 0
M  V30 5145 H 487.908 -2.88822 -3.895 0
M  V30 5146 N 489.251 1.34841 -0.815825 0
M  V30 5147 C 490.184 2.27504 -0.178062 0
M  V30 5148 C 491.162 1.48542 0.661373 0
M  V30 5149 O 492.346 1.77779 0.626653 0
M  V30 5150 C 489.473 3.30246 0.752002 0
M  V30 5151 C 488.519 4.26499 -0.00899172 0
M  V30 5152 S 489.352 5.18169 -1.35134 0
M  V30 5153 C 490.508 6.24449 -0.42596 0
M  V30 5154 H 490.741 2.81248 -0.963684 0
M  V30 5155 H 488.274 1.41781 -0.611355 0
M  V30 5156 H 490.232 3.89933 1.28308 0
M  V30 5157 H 488.893 2.75363 1.51109 0
M  V30 5158 H 488.086 4.99146 0.697766 0
M  V30 5159 H 487.688 3.7103 -0.470396 0
M  V30 5160 H 489.98 6.76404 0.385234 0
M  V30 5161 H 490.923 6.99156 -1.1219 0
M  V30 5162 H 491.331 5.64497 -0.0175461 0
M  V30 5163 N 490.729 0.570148 1.46925 0
M  V30 5164 C 491.639 -0.173061 2.33961 0
M  V30 5165 C 492.655 -0.898825 1.48987 0
M  V30 5166 O 493.831 -0.864825 1.81887 0
M  V30 5167 C 490.896 -1.18177 3.25937 0
M  V30 5168 C 489.957 -0.462041 4.26806 0
M  V30 5169 C 489.19 -1.4227 5.14388 0
M  V30 5170 O 489.413 -2.65842 5.04662 0
M  V30 5171 O 488.347 -0.940127 5.94513 0
M  V30 5172 H 492.173 0.541216 2.98839 0
M  V30 5173 H 489.758 0.330647 1.45695 0
M  V30 5174 H 491.64 -1.76372 3.82715 0
M  V30 5175 H 490.315 -1.87774 2.63671 0
M  V30 5176 H 489.222 0.161429 3.73752 0
M  V30 5177 H 490.555 0.192719 4.91823 0
M  V30 5178 N 492.207 -1.54576 0.307264 0
M  V30 5179 C 493.117 -2.27435 -0.57536 0
M  V30 5180 C 494.133 -1.31183 -1.14311 0
M  V30 5181 O 495.309 -1.64175 -1.16656 0
M  V30 5182 C 492.374 -3.00566 -1.72803 0
M  V30 5183 C 491.435 -4.12369 -1.19373 0
M  V30 5184 C 490.668 -4.82003 -2.29147 0
M  V30 5185 O 490.891 -4.51038 -3.49171 0
M  V30 5186 O 489.825 -5.69271 -1.95485 0
M  V30 5187 H 493.651 -3.03696 0.0158558 0
M  V30 5188 H 491.236 -1.49219 0.0735064 0
M  V30 5189 H 493.118 -3.46416 -2.39946 0
M  V30 5190 H 491.793 -2.27195 -2.30574 0
M  V30 5191 H 490.7 -3.70905 -0.487851 0
M  V30 5192 H 492.033 -4.87736 -0.661376 0
M  V30 5193 N 493.685 -0.035106 -1.57561 0
M  V30 5194 C 494.91 0.655802 -1.96759 0
M  V30 5195 C 495.335 1.64523 -0.911809 0
M  V30 5196 O 494.693 1.80857 0.126673 0
M  V30 5197 C 494.741 1.33326 -3.35047 0
M  V30 5198 O 493.845 2.44866 -3.31835 0
M  V30 5199 H 493.186 0.171807 -0.641388 0
M  V30 5200 H 495.716 -0.0987369 -2.04362 0
M  V30 5201 H 495.726 1.68867 -3.71413 0
M  V30 5202 H 494.401 0.608033 -4.11431 0
M  V30 5203 H 492.978 2.11392 -3.07193 0
M  V30 5204 N 495.163 1.55791 0.238111 0
M  V30 5205 C 496.411 1.77681 0.963001 0
M  V30 5206 C 496.732 0.600674 1.85518 0
M  V30 5207 O 496.002 -0.383182 1.92116 0
M  V30 5208 H 494.582 0.655315 0.358568 0
M  V30 5209 H 497.244 1.93239 0.253945 0
M  V30 5210 H 496.34 2.69177 1.57956 0
M  V30 5211 N 496.642 -0.504142 1.49319 0
M  V30 5212 C 497.891 -1.25507 1.57895 0
M  V30 5213 C 498.204 -1.93735 0.269433 0
M  V30 5214 O 499.41 -2.70492 0.233706 0
M  V30 5215 C 497.866 -2.27869 2.78574 0
M  V30 5216 C 497.474 -1.65594 4.16272 0
M  V30 5217 C 499.218 -3.0381 2.96479 0
M  V30 5218 C 497.125 -2.66048 5.28178 0
M  V30 5219 H 496.055 -0.47212 0.587894 0
M  V30 5220 H 498.706 -0.52931 1.757 0
M  V30 5221 H 497.088 -3.03594 2.54257 0
M  V30 5222 H 498.262 -0.958826 4.50714 0
M  V30 5223 H 496.577 -1.02055 4.037 0
M  V30 5224 H 499.174 -3.78925 3.77253 0
M  V30 5225 H 499.517 -3.61235 2.06918 0
M  V30 5226 H 500.05 -2.352 3.20821 0
M  V30 5227 H 496.789 -2.13408 6.19788 0
M  V30 5228 H 496.309 -3.34009 4.98195 0
M  V30 5229 H 497.988 -3.28536 5.57381 0
M  V30 5230 N 498.12 -1.38341 -0.754957 0
M  V30 5231 C 499.36 -1.35888 -1.52689 0
M  V30 5232 C 499.724 0.0513682 -1.91931 0
M  V30 5233 O 500.925 0.200761 -2.68049 0
M  V30 5234 C 499.196 -2.28666 -2.74676 0
M  V30 5235 S 500.755 -2.4422 -3.64558 0
M  V30 5236 H 497.573 -0.482165 -0.522531 0
M  V30 5237 H 500.175 -1.74253 -0.886358 0
M  V30 5238 H 498.879 -3.30023 -2.43953 0
M  V30 5239 H 498.41 -1.91445 -3.43675 0
M  V30 5240 H 500.425 -1.66525 -4.67423 0
M  V30 5241 N 499.598 0.982988 -1.23187 0
M  V30 5242 C 500.545 2.07491 -1.01075 0
M  V30 5243 C 501.515 1.65949 0.070905 0
M  V30 5244 O 502.7 1.90629 -0.0806822 0
M  V30 5245 C 499.84 3.39751 -0.605261 0
M  V30 5246 C 498.953 3.94578 -1.75876 0
M  V30 5247 C 498.088 5.15039 -1.3003 0
M  V30 5248 C 497.127 5.62027 -2.42472 0
M  V30 5249 N 496.264 6.73719 -1.97602 0
M  V30 5250 H 501.104 2.25739 -1.9454 0
M  V30 5251 H 498.641 1.10659 -0.969179 0
M  V30 5252 H 500.599 4.15719 -0.351279 0
M  V30 5253 H 499.229 3.21473 0.292382 0
M  V30 5254 H 498.281 3.1539 -2.12681 0
M  V30 5255 H 499.593 4.25422 -2.60418 0
M  V30 5256 H 498.747 5.9833 -1.00429 0
M  V30 5257 H 497.486 4.85843 -0.425216 0
M  V30 5258 H 496.491 4.77318 -2.7285 0
M  V30 5259 H 497.716 5.93244 -3.30512 0
M  V30 5260 H 495.662 6.46287 -1.1247 0
M  V30 5261 H 495.579 7.03934 -2.75705 0
M  V30 5262 H 496.847 7.6049 -1.71098 0
M  V30 5263 N 501.076 1.04316 1.18135 0
M  V30 5264 C 502.322 0.749128 1.88457 0
M  V30 5265 C 502.655 -0.72149 1.803 0
M  V30 5266 O 501.93 -1.52676 1.205 0
M  V30 5267 C 502.213 1.21905 3.38838 0
M  V30 5268 C 502.066 2.75195 3.55792 0
M  V30 5269 C 503.385 0.811085 4.32561 0
M  V30 5270 H 500.504 0.273611 0.684329 0
M  V30 5271 H 503.146 1.29561 1.38975 0
M  V30 5272 H 501.296 0.754137 3.8111 0
M  V30 5273 H 502.968 3.29743 3.22595 0
M  V30 5274 H 501.211 3.14899 2.98364 0
M  V30 5275 H 501.882 3.03135 4.61317 0
M  V30 5276 H 504.358 1.21118 3.98082 0
M  V30 5277 H 503.234 1.16761 5.36338 0
M  V30 5278 H 503.495 -0.285596 4.41177 0
M  V30 5279 N 502.554 -1.34406 0.822964 0
M  V30 5280 C 503.504 -2.26963 0.217208 0
M  V30 5281 C 504.488 -1.48536 -0.618545 0
M  V30 5282 O 505.68 -1.7056 -0.473118 0
M  V30 5283 C 502.809 -3.37655 -0.619973 0
M  V30 5284 C 501.895 -4.23495 0.226411 0
M  V30 5285 N 502.286 -4.88876 1.29744 0
M  V30 5286 C 500.584 -4.45999 0.0107554 0
M  V30 5287 C 501.285 -5.52642 1.81553 0
M  V30 5288 N 500.261 -5.31949 1.11942 0
M  V30 5289 H 504.063 -2.75017 1.03647 0
M  V30 5290 H 501.577 -1.48126 0.665777 0
M  V30 5291 H 503.574 -4.02932 -1.07011 0
M  V30 5292 H 502.234 -2.91151 -1.43739 0
M  V30 5293 H 503.245 -4.89886 1.68024 0
M  V30 5294 H 499.922 -4.10253 -0.774495 0
M  V30 5295 H 501.312 -6.14755 2.71156 0
M  V30 5296 N 504.032 -0.577932 -1.46621 0
M  V30 5297 C 505.443 -0.150071 -1.86096 0
M  V30 5298 C 505.794 1.28563 -1.48209 0
M  V30 5299 O 504.919 1.97036 -0.894754 0
M  V30 5300 C 505.514 -0.265576 -3.37758 0
M  V30 5301 C 504.073 0.10738 -3.76247 0
M  V30 5302 C 503.22 -0.603711 -2.70649 0
M  V30 5303 H 506.171 -0.786438 -1.37844 0
M  V30 5304 H 506.192 0.510352 -3.77062 0
M  V30 5305 H 505.704 -1.3106 -3.65301 0
M  V30 5306 H 503.805 1.15272 -3.54321 0
M  V30 5307 H 503.918 -0.26561 -4.78363 0
M  V30 5308 H 502.282 -0.0444884 -2.54661 0
M  V30 5309 H 503.065 -1.65029 -3.01032 0
M  V30 5310 N 505.51 1.54411 -0.315457 0
M  V30 5311 C 506.473 2.22713 0.54142 0
M  V30 5312 C 507.473 1.2179 1.04995 0
M  V30 5313 O 508.663 1.46426 0.943667 0
M  V30 5314 C 505.795 2.92485 1.75116 0
M  V30 5315 H 506.988 2.99849 -0.0555508 0
M  V30 5316 H 504.541 1.56159 -0.0664453 0
M  V30 5317 H 505.276 2.19466 2.38758 0
M  V30 5318 H 505.061 3.66483 1.39401 0
M  V30 5319 H 506.551 3.44548 2.35959 0
M  V30 5320 N 506.988 0.0434614 1.5754 0
M  V30 5321 C 507.918 -0.931651 2.14109 0
M  V30 5322 C 508.899 -1.32971 1.06079 0
M  V30 5323 O 510.084 -1.40579 1.33982 0
M  V30 5324 C 507.214 -2.20914 2.67982 0
M  V30 5325 C 506.168 -1.95139 3.80926 0
M  V30 5326 C 505.494 -3.29276 4.21285 0
M  V30 5327 C 506.794 -1.27913 5.06395 0
M  V30 5328 H 508.488 -0.460497 2.95837 0
M  V30 5329 H 506.034 -0.220058 1.42309 0
M  V30 5330 H 507.987 -2.89522 3.06194 0
M  V30 5331 H 506.711 -2.70221 1.83434 0
M  V30 5332 H 505.37 -1.28945 3.43175 0
M  V30 5333 H 505.018 -3.76369 3.33699 0
M  V30 5334 H 504.718 -3.12831 4.97404 0
M  V30 5335 H 506.242 -3.99129 4.62091 0
M  V30 5336 H 507.656 -1.86544 5.42102 0
M  V30 5337 H 506.053 -1.2182 5.87605 0
M  V30 5338 H 507.123 -0.254066 4.84234 0
M  V30 5339 N 508.466 -1.55915 -0.229846 0
M  V30 5340 C 509.414 -1.9258 -1.30444 0
M  V30 5341 C 510.408 -0.806839 -1.48951 0
M  V30 5342 O 511.614 -0.991606 -1.50224 0
M  V30 5343 H 507.989 -0.611878 -0.437161 0
M  V30 5344 H 509.96 -2.82264 -0.96797 0
M  V30 5345 C 508.709 -2.25171 -2.6494 0
M  V30 5346 H 508.032 -3.10782 -2.51504 0
M  V30 5347 H 509.472 -2.54716 -3.38963 0
M  V30 5348 C 507.931 -1.07394 -3.19324 0
M  V30 5349 O 508.461 -0.330759 -4.00336 0
M  V30 5350 N 506.667 -0.859984 -2.77584 0
M  V30 5351 H 506.214 -1.46605 -2.11813 0
M  V30 5352 H 506.172 -0.0736671 -3.14314 0
M  V30 5353 N 509.944 0.496216 -1.49584 0
M  V30 5354 C 511.19 1.25189 -1.59548 0
M  V30 5355 C 511.523 1.9212 -0.283466 0
M  V30 5356 O 510.798 1.80947 0.713324 0
M  V30 5357 C 511.081 2.31516 -2.75812 0
M  V30 5358 C 510.934 1.69054 -4.16822 0
M  V30 5359 C 512.253 3.3304 -2.87702 0
M  V30 5360 H 509.372 0.45379 -0.580727 0
M  V30 5361 H 512.014 0.549327 -1.81886 0
M  V30 5362 H 510.164 2.91438 -2.56897 0
M  V30 5363 H 511.836 1.12923 -4.47265 0
M  V30 5364 H 510.079 0.994485 -4.22247 0
M  V30 5365 H 510.75 2.462 -4.94054 0
M  V30 5366 H 513.226 2.83114 -3.04936 0
M  V30 5367 H 512.102 4.04794 -3.7072 0
M  V30 5368 H 512.363 3.95655 -1.97255 0
M  V30 5369 N 511.423 1.38739 0.74761 0
M  V30 5370 C 512.648 1.38702 1.54197 0
M  V30 5371 C 513.073 -0.019664 1.8809 0
M  V30 5372 O 512.431 -1.00333 1.51006 0
M  V30 5373 C 512.479 2.25492 2.814 0
M  V30 5374 O 511.583 1.67613 3.76802 0
M  V30 5375 H 510.924 0.472863 0.466151 0
M  V30 5376 H 513.454 1.82577 0.923413 0
M  V30 5377 H 513.464 2.39561 3.30264 0
M  V30 5378 H 512.139 3.27727 2.56062 0
M  V30 5379 H 510.716 1.62718 3.35526 0
M  V30 5380 N 512.901 -0.976442 1.23707 0
M  V30 5381 C 514.129 -1.75341 1.09833 0
M  V30 5382 C 514.544 -1.8553 -0.349885 0
M  V30 5383 O 513.901 -1.33732 -1.24185 0
M  V30 5384 C 513.952 -3.17833 1.72233 0
M  V30 5385 O 513.673 -3.08167 3.11391 0
M  V30 5386 C 515.174 -4.11906 1.63853 0
M  V30 5387 H 512.394 -0.550137 0.384175 0
M  V30 5388 H 514.938 -1.2265 1.63638 0
M  V30 5389 H 513.093 -3.67538 1.22452 0
M  V30 5390 H 513.507 -3.97897 3.41729 0
M  V30 5391 H 514.981 -5.09579 2.12211 0
M  V30 5392 H 515.458 -4.35109 0.598092 0
M  V30 5393 H 516.064 -3.68107 2.13019 0
M  V30 5394 N 514.379 -1.04941 -1.1758 0
M  V30 5395 C 515.795 -0.770282 -1.39781 0
M  V30 5396 C 515.995 0.636417 -1.91186 0
M  V30 5397 O 515.051 1.39923 -2.10185 0
M  V30 5398 C 516.364 -1.82376 -2.3908 0
M  V30 5399 C 517.912 -1.84569 -2.52791 0
M  V30 5400 C 518.387 -2.88933 -3.55361 0
M  V30 5401 N 519.878 -2.8788 -3.62877 0
M  V30 5402 C 520.613 -3.65282 -4.41992 0
M  V30 5403 N 520.109 -4.52461 -5.24643 0
M  V30 5404 N 521.902 -3.53732 -4.36841 0
M  V30 5405 H 514.053 -1.95705 -0.825438 0
M  V30 5406 H 516.316 -0.847284 -0.425222 0
M  V30 5407 H 516.022 -2.83323 -2.08376 0
M  V30 5408 H 515.896 -1.66327 -3.38549 0
M  V30 5409 H 518.283 -0.842879 -2.82807 0
M  V30 5410 H 518.364 -2.04696 -1.53406 0
M  V30 5411 H 518.008 -3.89398 -3.26085 0
M  V30 5412 H 517.938 -2.66059 -4.54445 0
M  V30 5413 H 520.429 -2.24666 -3.03864 0
M  V30 5414 H 520.742 -5.08211 -5.82187 0
M  V30 5415 H 519.087 -4.56524 -5.24033 0
M  V30 5416 H 522.278 -2.85021 -3.71323 0
M  V30 5417 H 522.451 -4.14302 -4.98255 0
M  V30 5418 N 515.857 1.33968 -0.830081 0
M  V30 5419 C 517.085 2.0228 -0.434773 0
M  V30 5420 C 517.5 1.62487 0.961419 0
M  V30 5421 O 516.857 0.833849 1.62337 0
M  V30 5422 C 516.908 3.5751 -0.535625 0
M  V30 5423 O 516.629 3.95864 -1.87679 0
M  V30 5424 C 518.13 4.43091 -0.136137 0
M  V30 5425 H 515.35 0.648151 -0.173613 0
M  V30 5426 H 517.894 1.71089 -1.12022 0
M  V30 5427 H 516.049 3.87266 0.101817 0
M  V30 5428 H 516.463 4.9056 -1.85609 0
M  V30 5429 H 517.937 5.51398 -0.257772 0
M  V30 5430 H 518.414 4.29433 0.921076 0
M  V30 5431 H 519.02 4.18677 -0.747662 0
M  V30 5432 N 517.335 0.585699 1.46312 0
M  V30 5433 C 518.56 0.0762461 2.0726 0
M  V30 5434 C 518.985 -1.22071 1.43109 0
M  V30 5435 O 518.343 -1.73804 0.515942 0
M  V30 5436 C 518.391 -0.0729404 3.60526 0
M  V30 5437 O 517.495 -1.1287 3.96654 0
M  V30 5438 H 516.836 0.0641558 0.660893 0
M  V30 5439 H 519.366 0.809492 1.87905 0
M  V30 5440 H 519.376 -0.278158 4.07051 0
M  V30 5441 H 518.051 0.874188 4.06609 0
M  V30 5442 H 516.628 -0.901703 3.61834 0
M  V30 5443 N 518.813 -1.54241 0.323641 0
M  V30 5444 C 519.723 -2.28033 -0.551205 0
M  V30 5445 C 520.739 -1.32388 -1.12913 0
M  V30 5446 O 521.915 -1.65403 -1.14908 0
M  V30 5447 C 518.98 -3.02382 -1.69606 0
M  V30 5448 C 518.041 -4.13612 -1.14993 0
M  V30 5449 C 517.274 -4.84407 -2.24022 0
M  V30 5450 O 517.497 -4.54716 -3.44368 0
M  V30 5451 O 516.431 -5.71312 -1.89436 0
M  V30 5452 H 520.257 -3.03662 0.048066 0
M  V30 5453 H 517.842 -1.49133 0.0893289 0
M  V30 5454 H 519.724 -3.48941 -2.36259 0
M  V30 5455 H 518.399 -2.29628 -2.28151 0
M  V30 5456 H 517.306 -3.71402 -0.448484 0
M  V30 5457 H 518.639 -4.8841 -0.609608 0
M  V30 5458 N 520.291 -0.0518155 -1.57515 0
M  V30 5459 C 521.707 0.304735 -1.56664 0
M  V30 5460 C 521.907 1.71395 -1.05953 0
M  V30 5461 O 520.963 2.42123 -0.716414 0
M  V30 5462 C 522.276 0.132614 -3.00407 0
M  V30 5463 C 523.824 0.20367 -3.12337 0
M  V30 5464 C 524.299 0.0600706 -4.57961 0
M  V30 5465 N 525.79 0.116326 -4.63054 0
M  V30 5466 C 526.525 0.0293363 -5.73392 0
M  V30 5467 N 526.021 -0.110038 -6.92713 0
M  V30 5468 N 527.814 0.0849651 -5.62036 0
M  V30 5469 H 519.965 -0.973056 -1.888 0
M  V30 5470 H 522.228 -0.377781 -0.869474 0
M  V30 5471 H 521.934 -0.839019 -3.41546 0
M  V30 5472 H 521.808 0.893376 -3.66468 0
M  V30 5473 H 524.195 1.16578 -2.71097 0
M  V30 5474 H 524.276 -0.587857 -2.48954 0
M  V30 5475 H 523.92 -0.898715 -4.99886 0
M  V30 5476 H 523.85 0.87075 -5.19351 0
M  V30 5477 H 526.341 0.22327 -3.7724 0
M  V30 5478 H 526.654 -0.169104 -7.72615 0
M  V30 5479 H 524.999 -0.145132 -6.94848 0
M  V30 5480 H 528.19 0.192411 -4.67704 0
M  V30 5481 H 528.363 0.0137131 -6.47999 0
M  V30 5482 N 521.769 1.56035 0.221574 0
M  V30 5483 C 522.699 1.95434 1.2778 0
M  V30 5484 C 523.68 0.822564 1.48889 0
M  V30 5485 O 524.865 1.08486 1.61072 0
M  V30 5486 C 521.995 2.27102 2.62759 0
M  V30 5487 C 520.949 3.4277 2.56306 0
M  V30 5488 C 520.275 3.60043 3.95314 0
M  V30 5489 C 521.575 4.77742 2.11093 0
M  V30 5490 H 523.269 2.83912 0.950504 0
M  V30 5491 H 520.815 1.36596 0.455791 0
M  V30 5492 H 522.768 2.53256 3.36807 0
M  V30 5493 H 521.492 1.35478 2.97176 0
M  V30 5494 H 520.151 3.16664 1.84715 0
M  V30 5495 H 519.799 2.65794 4.27039 0
M  V30 5496 H 519.499 4.37841 3.91879 0
M  V30 5497 H 521.023 3.88545 4.71025 0
M  V30 5498 H 522.437 5.03102 2.74885 0
M  V30 5499 H 520.834 5.58823 2.18716 0
M  V30 5500 H 521.904 4.731 1.06321 0
M  V30 5501 N 523.247 -0.488276 1.49845 0
M  V30 5502 C 524.177 -1.59675 1.70371 0
M  V30 5503 C 525.158 -1.60878 0.552473 0
M  V30 5504 O 526.343 -1.77417 0.78973 0
M  V30 5505 C 523.473 -2.98098 1.782 0
M  V30 5506 C 522.427 -3.11761 2.93239 0
M  V30 5507 C 521.753 -4.51661 2.86193 0
M  V30 5508 C 523.053 -2.90589 4.33999 0
M  V30 5509 H 524.747 -1.42752 2.63177 0
M  V30 5510 H 522.293 -0.685317 1.26647 0
M  V30 5511 H 524.246 -3.75555 1.91144 0
M  V30 5512 H 522.97 -3.16138 0.820018 0
M  V30 5513 H 521.629 -2.36732 2.79917 0
M  V30 5514 H 521.277 -4.66595 1.87877 0
M  V30 5515 H 520.977 -4.61742 3.63412 0
M  V30 5516 H 522.501 -5.31162 3.01163 0
M  V30 5517 H 523.915 -3.57807 4.47936 0
M  V30 5518 H 522.312 -3.1213 5.12538 0
M  V30 5519 H 523.382 -1.86595 4.4756 0
M  V30 5520 N 524.725 -1.39134 -0.740242 0
M  V30 5521 C 526.002 -1.26584 -1.49117 0
M  V30 5522 C 526.382 0.126902 -2.10718 0
M  V30 5523 O 525.73 1.13765 -1.98166 0
M  V30 5524 C 525.94 -2.38619 -2.54681 0
M  V30 5525 C 527.288 -2.77685 -3.21211 0
M  V30 5526 O 528.312 -2.38029 -2.64991 0
M  V30 5527 O 527.171 -3.46115 -4.22926 0
M  V30 5528 H 524.265 -0.495769 -0.661923 0
M  V30 5529 H 526.811 -1.50995 -0.774514 0
M  V30 5530 H 525.583 -3.3175 -2.07504 0
M  V30 5531 H 525.206 -2.15845 -3.33911 0
M  V30 5532 N 526.204 0.969867 -1.24223 0
M  V30 5533 C 527.134 2.08191 -1.05729 0
M  V30 5534 C 528.115 1.70075 0.0290765 0
M  V30 5535 O 529.3 1.93712 -0.137583 0
M  V30 5536 C 526.43 3.40991 -0.658995 0
M  V30 5537 C 525.384 3.93054 -1.69389 0
M  V30 5538 C 524.71 5.22171 -1.15072 0
M  V30 5539 C 526.01 4.21137 -3.08935 0
M  V30 5540 H 527.704 2.23921 -1.98746 0
M  V30 5541 H 525.25 1.07602 -0.956967 0
M  V30 5542 H 527.203 4.18221 -0.51662 0
M  V30 5543 H 525.927 3.25155 0.30686 0
M  V30 5544 H 524.586 3.17977 -1.82444 0
M  V30 5545 H 524.234 5.02694 -0.175539 0
M  V30 5546 H 523.934 5.57973 -1.84229 0
M  V30 5547 H 525.458 6.02013 -1.02042 0
M  V30 5548 H 526.872 4.8908 -2.99121 0
M  V30 5549 H 525.269 4.68163 -3.75425 0
M  V30 5550 H 526.339 3.27996 -3.57137 0
M  V30 5551 N 527.682 1.05563 1.17022 0
M  V30 5552 C 528.632 0.630007 2.19123 0
M  V30 5553 C 529.616 -0.335472 1.57364 0
M  V30 5554 O 530.808 -0.1521 1.76345 0
M  V30 5555 C 527.937 0.0101676 3.43298 0
M  V30 5556 C 527.023 0.999698 4.12149 0
M  V30 5557 N 527.414 2.17251 4.56766 0
M  V30 5558 C 525.712 0.829 4.38228 0
M  V30 5559 C 526.413 2.79883 5.09942 0
M  V30 5560 N 525.389 2.07656 5.02374 0
M  V30 5561 H 529.191 1.52353 2.51328 0
M  V30 5562 H 526.705 0.926288 1.33393 0
M  V30 5563 H 528.702 -0.312541 4.15727 0
M  V30 5564 H 527.362 -0.878707 3.12584 0
M  V30 5565 H 528.373 2.55067 4.50734 0
M  V30 5566 H 525.05 -0.00850974 4.17499 0
M  V30 5567 H 526.44 3.79362 5.54558 0
M  V30 5568 N 529.16 -1.33526 0.837174 0
M  V30 5569 C 530.092 -2.28077 0.226579 0
M  V30 5570 C 531.105 -1.51666 -0.591717 0
M  V30 5571 O 532.294 -1.73511 -0.419064 0
M  V30 5572 C 529.394 -3.31597 -0.69978 0
M  V30 5573 C 528.567 -4.37329 0.0788067 0
M  V30 5574 C 527.626 -5.20526 -0.770637 0
M  V30 5575 O 526.652 -5.68811 -0.210453 0
M  V30 5576 N 527.854 -5.41639 -2.08825 0
M  V30 5577 H 530.619 -2.81115 1.03897 0
M  V30 5578 H 528.18 -1.46201 0.695476 0
M  V30 5579 H 530.172 -3.84158 -1.27298 0
M  V30 5580 H 528.742 -2.78848 -1.41288 0
M  V30 5581 H 527.962 -3.8529 0.833381 0
M  V30 5582 H 529.25 -5.05079 0.614238 0
M  V30 5583 H 528.648 -5.04108 -2.56693 0
M  V30 5584 H 527.205 -5.97263 -2.60998 0
M  V30 5585 N 530.638 -0.59345 -1.46 0
M  V30 5586 C 531.863 -0.0872365 -2.07216 0
M  V30 5587 C 532.288 1.2131 -1.43755 0
M  V30 5588 O 531.646 1.73528 -0.525152 0
M  V30 5589 C 531.694 0.0538197 -3.6056 0
M  V30 5590 O 530.798 1.10765 -3.97247 0
M  V30 5591 H 530.139 -0.0676598 -0.660544 0
M  V30 5592 H 532.669 -0.819445 -1.87473 0
M  V30 5593 H 532.679 0.256567 -4.07193 0
M  V30 5594 H 531.354 -0.895739 -4.0614 0
M  V30 5595 H 529.931 0.882501 -3.62307 0
M  V30 5596 N 532.116 1.54067 -0.331816 0
M  V30 5597 C 533.362 2.01713 0.261395 0
M  V30 5598 C 533.717 1.21566 1.49129 0
M  V30 5599 O 533.01 0.291867 1.89364 0
M  V30 5600 C 533.204 3.51634 0.639392 0
M  V30 5601 C 533.033 4.46295 -0.552321 0
M  V30 5602 C 531.803 4.94185 -1.05399 0
M  V30 5603 C 534.001 4.94677 -1.40711 0
M  V30 5604 N 531.983 5.7277 -2.20925 0
M  V30 5605 C 533.354 5.71267 -2.40943 0
M  V30 5606 C 535.409 4.76805 -1.43392 0
M  V30 5607 C 534.112 6.31889 -3.4367 0
M  V30 5608 C 536.138 5.38268 -2.44994 0
M  V30 5609 C 535.5 6.14716 -3.43952 0
M  V30 5610 H 531.599 0.77975 0.0592729 0
M  V30 5611 H 534.183 1.88974 -0.468726 0
M  V30 5612 H 532.354 3.64603 1.33863 0
M  V30 5613 H 534.086 3.86038 1.21478 0
M  V30 5614 H 530.841 4.69472 -0.623952 0
M  V30 5615 H 531.265 6.16737 -2.79222 0
M  V30 5616 H 535.907 4.17255 -0.682489 0
M  V30 5617 H 533.625 6.90554 -4.19715 0
M  V30 5618 H 537.211 5.26352 -2.4788 0
M  V30 5619 H 536.091 6.6143 -4.21283 0
M  V30 5620 N 533.594 0.0601682 1.57485 0
M  V30 5621 C 534.541 -0.91112 2.12055 0
M  V30 5622 C 535.511 -1.30298 1.03013 0
M  V30 5623 O 536.696 -1.39087 1.30612 0
M  V30 5624 C 533.836 -2.1775 2.67729 0
M  V30 5625 C 532.949 -1.83933 3.90887 0
M  V30 5626 C 532.084 -3.05096 4.34845 0
M  V30 5627 C 531.123 -2.67241 5.5068 0
M  V30 5628 N 530.26 -3.81127 5.8965 0
M  V30 5629 H 535.1 -0.43888 2.9475 0
M  V30 5630 H 532.637 -0.204995 1.45665 0
M  V30 5631 H 534.595 -2.91866 2.98111 0
M  V30 5632 H 533.225 -2.62535 1.87816 0
M  V30 5633 H 532.277 -0.999287 3.6704 0
M  V30 5634 H 533.589 -1.52074 4.75052 0
M  V30 5635 H 532.743 -3.87502 4.66827 0
M  V30 5636 H 531.482 -3.40139 3.49509 0
M  V30 5637 H 530.487 -1.83254 5.18361 0
M  V30 5638 H 531.712 -2.3338 6.37738 0
M  V30 5639 H 529.658 -4.15954 5.07266 0
M  V30 5640 H 529.575 -3.52997 6.68528 0
M  V30 5641 H 530.843 -4.64145 6.2625 0
M  V30 5642 N 535.072 -1.5615 -0.213296 0
M  V30 5643 C 536.3 -1.83638 -0.953139 0
M  V30 5644 C 536.715 -0.640362 -1.77609 0
M  V30 5645 O 536.072 0.391071 -1.78261 0
M  V30 5646 C 536.123 -3.09735 -1.86405 0
M  V30 5647 O 535.844 -4.24723 -1.07435 0
M  V30 5648 C 537.345 -3.5027 -2.71709 0
M  V30 5649 H 534.565 -0.610263 -0.278962 0
M  V30 5650 H 537.109 -2.03247 -0.226035 0
M  V30 5651 H 535.264 -2.92077 -2.545 0
M  V30 5652 H 535.678 -4.9641 -1.69343 0
M  V30 5653 H 537.152 -4.41515 -3.31313 0
M  V30 5654 H 537.629 -2.72406 -3.44516 0
M  V30 5655 H 538.235 -3.70396 -2.09015 0
M  V30 5656 N 536.55 0.480323 -1.50102 0
M  V30 5657 C 537.497 1.57946 -1.6829 0
M  V30 5658 C 538.467 1.57611 -0.524223 0
M  V30 5659 O 539.652 1.75282 -0.753709 0
M  V30 5660 C 536.792 2.95978 -1.77457 0
M  V30 5661 C 535.905 3.06173 -3.04766 0
M  V30 5662 C 535.04 4.35063 -3.04784 0
M  V30 5663 C 534.079 4.38966 -4.26586 0
M  V30 5664 N 533.216 5.59314 -4.24396 0
M  V30 5665 H 538.056 1.41743 -2.62131 0
M  V30 5666 H 535.593 0.689304 -1.2995 0
M  V30 5667 H 537.551 3.76011 -1.80752 0
M  V30 5668 H 536.181 3.10837 -0.870637 0
M  V30 5669 H 535.233 2.19071 -3.10986 0
M  V30 5670 H 536.545 3.04916 -3.9475 0
M  V30 5671 H 535.699 5.23436 -3.06757 0
M  V30 5672 H 534.438 4.38915 -2.12614 0
M  V30 5673 H 533.443 3.48992 -4.24835 0
M  V30 5674 H 534.668 4.36813 -5.19972 0
M  V30 5675 H 532.614 5.63969 -3.35074 0
M  V30 5676 H 532.531 5.5976 -5.08138 0
M  V30 5677 H 533.799 6.49837 -4.30502 0
M  V30 5678 N 538.028 1.39524 0.732853 0
M  V30 5679 C 539.305 1.27373 1.48444 0
M  V30 5680 C 539.685 -0.115725 2.10783 0
M  V30 5681 O 539.033 -1.12713 1.98766 0
M  V30 5682 C 539.243 2.39966 2.53412 0
M  V30 5683 C 540.591 2.79384 3.19733 0
M  V30 5684 O 541.615 2.39431 2.63725 0
M  V30 5685 O 540.474 3.48353 4.21085 0
M  V30 5686 H 537.568 0.499272 0.659285 0
M  V30 5687 H 540.114 1.51403 0.766496 0
M  V30 5688 H 538.886 3.32845 2.05742 0
M  V30 5689 H 538.509 2.17612 3.32762 0
M  V30 5690 N 539.506 -0.963266 1.24736 0
M  V30 5691 C 540.731 -1.74699 1.11781 0
M  V30 5692 C 541.156 -1.85267 -0.325258 0
M  V30 5693 O 540.514 -1.32681 -1.23553 0
M  V30 5694 C 540.562 -3.14322 1.76731 0
M  V30 5695 O 539.666 -3.99043 1.04109 0
M  V30 5696 H 539.007 -0.53684 0.390767 0
M  V30 5697 H 541.537 -1.20801 1.65131 0
M  V30 5698 H 541.547 -3.64824 1.82668 0
M  V30 5699 H 540.222 -3.05946 2.81726 0
M  V30 5700 H 538.799 -3.5752 1.05991 0
M  V30 5701 N 540.985 -1.06182 -1.16461 0
M  V30 5702 C 541.932 -0.671613 -2.20812 0
M  V30 5703 C 542.902 0.331186 -1.62765 0
M  V30 5704 O 544.087 0.22033 -1.89524 0
M  V30 5705 C 541.227 -0.063029 -3.45042 0
M  V30 5706 C 540.34 -1.11587 -4.1734 0
M  V30 5707 C 539.475 -0.473546 -5.29085 0
M  V30 5708 C 538.514 -1.51 -5.93182 0
M  V30 5709 N 537.651 -0.891118 -6.96422 0
M  V30 5710 H 542.491 -1.56589 -2.53542 0
M  V30 5711 H 540.028 -0.782951 -1.24532 0
M  V30 5712 H 541.986 0.307344 -4.16066 0
M  V30 5713 H 540.616 0.794663 -3.12866 0
M  V30 5714 H 539.668 -1.60396 -3.44931 0
M  V30 5715 H 540.98 -1.90221 -4.61104 0
M  V30 5716 H 540.134 -0.0501432 -6.06679 0
M  V30 5717 H 538.873 0.344687 -4.8648 0
M  V30 5718 H 537.878 -1.94331 -5.14311 0
M  V30 5719 H 539.103 -2.33031 -6.37866 0
M  V30 5720 H 537.049 -0.0935753 -6.55933 0
M  V30 5721 H 536.966 -1.61486 -7.38551 0
M  V30 5722 H 538.234 -0.492822 -7.77941 0
M  V30 5723 N 542.463 1.3308 -0.844243 0
M  V30 5724 C 543.395 2.27954 -0.238671 0
M  V30 5725 C 544.408 1.51978 0.583665 0
M  V30 5726 O 545.597 1.73731 0.409857 0
M  V30 5727 C 542.697 3.31963 0.682185 0
M  V30 5728 C 541.87 4.37281 -0.101998 0
M  V30 5729 C 540.929 5.20928 0.743022 0
M  V30 5730 O 539.955 5.68914 0.180285 0
M  V30 5731 N 541.157 5.42738 2.0595 0
M  V30 5732 H 543.922 2.8056 -1.05386 0
M  V30 5733 H 541.483 1.4583 -0.70322 0
M  V30 5734 H 543.475 3.84828 1.25259 0
M  V30 5735 H 542.045 2.79594 1.39808 0
M  V30 5736 H 541.265 3.84843 -0.853802 0
M  V30 5737 H 542.553 5.04746 -0.641015 0
M  V30 5738 H 541.951 5.05463 2.54016 0
M  V30 5739 H 540.508 5.98639 2.57827 0
M  V30 5740 N 543.941 0.601185 1.45683 0
M  V30 5741 C 545.181 0.0968037 2.04171 0
M  V30 5742 C 545.545 -1.2466 1.46027 0
M  V30 5743 O 546.746 -1.84132 1.95829 0
M  V30 5744 C 545.017 0.051384 3.57363 0
M  V30 5745 S 546.576 -0.392737 4.37039 0
M  V30 5746 H 543.394 0.0464504 0.709481 0
M  V30 5747 H 545.996 0.797846 1.78479 0
M  V30 5748 H 544.7 1.03274 3.97193 0
M  V30 5749 H 544.231 -0.671853 3.87621 0
M  V30 5750 H 546.246 -1.64364 4.68187 0
M  V30 5751 N 545.419 -1.53889 0.339982 0
M  V30 5752 C 546.644 -2.05741 -0.261798 0
M  V30 5753 C 547.069 -1.21354 -1.43718 0
M  V30 5754 O 546.427 -0.22645 -1.7988 0
M  V30 5755 C 546.475 -3.54542 -0.658228 0
M  V30 5756 O 545.579 -3.7302 -1.75869 0
M  V30 5757 H 544.92 -0.662529 -0.0441672 0
M  V30 5758 H 547.45 -1.98568 0.493161 0
M  V30 5759 H 547.46 -3.9711 -0.936368 0
M  V30 5760 H 546.135 -4.15412 0.201358 0
M  V30 5761 H 544.712 -3.42355 -1.47809 0
M  V30 5762 N 546.897 -0.0685191 -1.57451 0
M  V30 5763 C 547.807 0.914677 -2.16034 0
M  V30 5764 C 548.823 1.32938 -1.12265 0
M  V30 5765 O 549.999 1.40275 -1.44516 0
M  V30 5766 C 547.064 2.16519 -2.70777 0
M  V30 5767 C 546.125 1.80721 -3.89408 0
M  V30 5768 C 545.358 2.9981 -4.41531 0
M  V30 5769 O 545.581 4.13727 -3.92666 0
M  V30 5770 O 544.515 2.79817 -5.32903 0
M  V30 5771 H 548.341 0.446364 -3.00402 0
M  V30 5772 H 545.926 0.154367 -1.486 0
M  V30 5773 H 547.808 2.89856 -3.05878 0
M  V30 5774 H 546.483 2.62454 -1.89471 0
M  V30 5775 H 545.39 1.04646 -3.59166 0
M  V30 5776 H 546.723 1.39571 -4.71997 0
M  V30 5777 N 548.375 1.56261 0.205012 0
M  V30 5778 C 549.323 1.94631 1.27364 0
M  V30 5779 C 550.317 0.830434 1.47649 0
M  V30 5780 O 551.523 1.01538 1.48627 0
M  V30 5781 H 547.898 0.618755 0.427371 0
M  V30 5782 H 549.869 2.83768 0.922941 0
M  V30 5783 C 548.618 2.29358 2.61324 0
M  V30 5784 H 547.941 3.14744 2.46528 0
M  V30 5785 H 549.381 2.60076 3.34868 0
M  V30 5786 C 547.84 1.12461 3.17575 0
M  V30 5787 O 548.37 0.394407 3.99759 0
M  V30 5788 N 546.576 0.904036 2.7618 0
M  V30 5789 H 546.123 1.49956 2.09454 0
M  V30 5790 H 546.081 0.123662 3.14157 0
M  V30 5791 N 549.853 -0.472356 1.50355 0
M  V30 5792 C 551.099 -1.22634 1.6152 0
M  V30 5793 C 551.432 -1.91645 0.313995 0
M  V30 5794 O 550.707 -1.82059 -0.684446 0
M  V30 5795 C 550.99 -2.27099 2.7946 0
M  V30 5796 C 550.843 -1.62402 4.19459 0
M  V30 5797 C 552.162 -3.28421 2.92964 0
M  V30 5798 H 549.281 -0.444494 0.587873 0
M  V30 5799 H 551.923 -0.520321 1.82737 0
M  V30 5800 H 550.073 -2.87314 2.61501 0
M  V30 5801 H 551.745 -1.05793 4.49005 0
M  V30 5802 H 549.988 -0.927184 4.23776 0
M  V30 5803 H 550.659 -2.38309 4.97909 0
M  V30 5804 H 553.135 -2.78227 3.09401 0
M  V30 5805 H 552.011 -3.98845 3.77113 0
M  V30 5806 H 552.272 -3.92467 2.03525 0
M  V30 5807 N 551.331 -1.39911 -0.725443 0
M  V30 5808 C 552.281 -1.35878 -1.83088 0
M  V30 5809 C 553.265 -0.237989 -1.5913 0
M  V30 5810 O 554.457 -0.476302 -1.70471 0
M  V30 5811 C 551.586 -1.21403 -3.21117 0
M  V30 5812 C 550.672 -2.38223 -3.50871 0
M  V30 5813 N 551.063 -3.63703 -3.51502 0
M  V30 5814 C 549.361 -2.31388 -3.81281 0
M  V30 5815 C 550.062 -4.4101 -3.79322 0
M  V30 5816 N 549.038 -3.7072 -3.97577 0
M  V30 5817 H 552.84 -2.3085 -1.81895 0
M  V30 5818 H 550.354 -1.33543 -0.924125 0
M  V30 5819 H 552.351 -1.16597 -4.00263 0
M  V30 5820 H 551.011 -0.273902 -3.23543 0
M  V30 5821 H 552.022 -3.96998 -3.32586 0
M  V30 5822 H 548.699 -1.45689 -3.91256 0
M  V30 5823 H 550.089 -5.49819 -3.86198 0
M  V30 5824 N 552.809 0.956637 -1.25245 0
M  V30 5825 C 554.058 1.69537 -1.0927 0
M  V30 5826 C 554.371 1.92136 0.366503 0
M  V30 5827 O 555.577 2.63687 0.64665 0
M  V30 5828 C 554.033 3.05211 -1.9072 0
M  V30 5829 C 553.641 2.90416 -3.41119 0
M  V30 5830 C 555.385 3.82882 -1.83308 0
M  V30 5831 C 553.292 4.21468 -4.14872 0
M  V30 5832 H 552.222 0.635804 -0.405302 0
M  V30 5833 H 554.873 1.06513 -1.49423 0
M  V30 5834 H 553.255 3.69128 -1.43389 0
M  V30 5835 H 554.429 2.35444 -3.9611 0
M  V30 5836 H 552.744 2.26203 -3.49602 0
M  V30 5837 H 555.341 4.79944 -2.35706 0
M  V30 5838 H 555.684 4.0853 -0.800572 0
M  V30 5839 H 556.217 3.25711 -2.28379 0
M  V30 5840 H 552.956 4.01009 -5.18529 0
M  V30 5841 H 552.476 4.76213 -3.64665 0
M  V30 5842 H 554.155 4.90022 -4.22478 0
M  V30 5843 N 554.287 1.06798 1.15896 0
M  V30 5844 C 555.512 0.808739 1.90982 0
M  V30 5845 C 555.937 -0.6316 1.77179 0
M  V30 5846 O 555.295 -1.4407 1.10061 0
M  V30 5847 C 555.343 1.21468 3.39526 0
M  V30 5848 O 554.447 0.356562 4.10856 0
M  V30 5849 H 553.788 0.29512 0.594811 0
M  V30 5850 H 556.318 1.42513 1.46804 0
M  V30 5851 H 556.328 1.18844 3.90308 0
M  V30 5852 H 555.003 2.26379 3.48891 0
M  V30 5853 H 553.58 0.444808 3.70238 0
M  V30 5854 N 555.766 -1.3263 0.851289 0
M  V30 5855 C 556.994 -2.01563 0.466899 0
M  V30 5856 C 557.409 -1.63996 -0.935447 0
M  V30 5857 O 556.766 -0.85957 -1.6099 0
M  V30 5858 C 556.817 -3.56613 0.592433 0
M  V30 5859 O 556.538 -3.92828 1.93954 0
M  V30 5860 C 558.039 -4.42818 0.206612 0
M  V30 5861 H 555.259 -0.645307 0.183902 0
M  V30 5862 H 557.803 -1.69285 1.1473 0
M  V30 5863 H 555.958 -3.87379 -0.0401936 0
M  V30 5864 H 556.372 -4.87545 1.9339 0
M  V30 5865 H 557.846 -5.50918 0.345462 0
M  V30 5866 H 558.323 -4.30844 -0.85264 0
M  V30 5867 H 558.929 -4.17434 0.814176 0
M  V30 5868 O 557.283 -0.749239 -1.43069 0
M  V30 5869 H 557.974 -0.305579 -1.91274 0
M  V30 END ATOM
M  V30 BEGIN BOND
M  V30 END BOND
M  V30 END CTAB
M  END
$$$$
