drugbank_target|Q81R22 Dihydrofolate reductase (DB08234)
 OpenBabel12092120503D

  0  0  0     0  0            999 V3000
M  V30 BEGIN CTAB
M  V30 COUNTS 2654 2691 0 0 0
M  V30 BEGIN ATOM
M  V30 1 H -0.908 1.98254 -0.117106 0
M  V30 2 N 0 1.576 0 0
M  V30 3 C 0.933 2.03868 1.02534 0
M  V30 4 C 1.911 0.928543 1.3348 0
M  V30 5 O 3.095 1.19667 1.45644 0
M  V30 6 C 0.222 2.43627 2.35294 0
M  V30 7 C -0.732 3.65373 2.2001 0
M  V30 8 S 0.101 5.13292 1.52614 0
M  V30 9 C 1.257 5.56322 2.86805 0
M  V30 10 H 1.49 2.90518 0.631377 0
M  V30 11 H -0.977 1.52953 0.210867 0
M  V30 12 H 0.981 2.67203 3.11629 0
M  V30 13 H -0.358 1.57376 2.7183 0
M  V30 14 H -1.165 3.90944 3.18086 0
M  V30 15 H -1.563 3.418 1.51819 0
M  V30 16 H 0.729 5.58782 3.83104 0
M  V30 17 H 1.672 6.56266 2.65933 0
M  V30 18 H 2.08 4.83886 2.90714 0
M  V30 19 N 1.4781 -0.272755 1.55222 0
M  V30 20 C 2.7271 -1.00211 1.75045 0
M  V30 21 C 3.0401 -1.87441 0.559046 0
M  V30 22 O 4.2461 -2.63856 0.639698 0
M  V30 23 C 2.7021 -1.83165 3.09804 0
M  V30 24 C 2.3101 -1.008 4.36513 0
M  V30 25 C 4.0541 -2.55529 3.38977 0
M  V30 26 C 1.9611 -1.83194 5.62311 0
M  V30 27 H 0.8911 -0.377878 0.652476 0
M  V30 28 H 3.5421 -0.257776 1.8168 0
M  V30 29 H 1.9241 -2.61694 2.97207 0
M  V30 30 H 3.0981 -0.266855 4.60027 0
M  V30 31 H 1.4131 -0.398897 4.14485 0
M  V30 32 H 4.0101 -3.17578 4.30172 0
M  V30 33 H 4.3531 -3.25825 2.59121 0
M  V30 34 H 4.8861 -1.84029 3.52673 0
M  V30 35 H 1.6251 -1.17318 6.44916 0
M  V30 36 H 1.1451 -2.54905 5.4294 0
M  V30 37 H 2.8241 -2.40552 6.00619 0
M  V30 38 N 2.9562 -1.48159 -0.537278 0
M  V30 39 C 4.2022 -1.56035 -1.29541 0
M  V30 40 C 4.5352 -0.230377 -1.92829 0
M  V30 41 O 3.8102 0.762952 -1.78911 0
M  V30 42 C 4.0932 -2.69323 -2.39034 0
M  V30 43 C 3.9462 -4.12002 -1.80485 0
M  V30 44 C 5.2652 -2.78408 -3.40847 0
M  V30 45 H 2.3842 -0.567992 -0.469632 0
M  V30 46 H 5.0262 -1.80302 -0.599277 0
M  V30 47 H 3.1762 -2.48763 -2.98412 0
M  V30 48 H 4.8482 -4.43981 -1.25215 0
M  V30 49 H 3.0912 -4.19344 -1.11055 0
M  V30 50 H 3.7622 -4.87077 -2.59731 0
M  V30 51 H 6.2382 -2.97012 -2.91416 0
M  V30 52 H 5.1142 -3.59416 -4.14863 0
M  V30 53 H 5.3752 -1.86269 -4.00944 0
M  V30 54 N 4.4343 0.785586 -1.36625 0
M  V30 55 C 5.6593 1.57963 -1.34397 0
M  V30 56 C 6.0843 1.87964 0.071526 0
M  V30 57 O 5.4423 1.48182 1.0446 0
M  V30 58 C 5.4903 2.87511 -2.17646 0
M  V30 59 O 4.5943 3.81281 -1.57158 0
M  V30 60 H 3.9353 0.479014 -0.459828 0
M  V30 61 H 6.4653 0.973411 -1.79961 0
M  V30 62 H 6.4753 3.36745 -2.30362 0
M  V30 63 H 5.1503 2.65002 -3.20541 0
M  V30 64 H 3.7273 3.39885 -1.53403 0
M  V30 65 N 5.9124 1.20967 1.01018 0
M  V30 66 C 7.1594 1.02374 1.74716 0
M  V30 67 C 7.4874 -0.443375 1.89379 0
M  V30 68 O 6.7424 -1.34535 1.42123 0
M  V30 69 C 7.0414 1.65997 3.16512 0
M  V30 70 C 6.7074 3.15831 3.2181 0
M  V30 71 C 5.3694 3.56719 3.22963 0
M  V30 72 C 7.7214 4.11816 3.19464 0
M  V30 73 C 5.0494 4.92107 3.19449 0
M  V30 74 C 7.4014 5.47158 3.17491 0
M  V30 75 C 6.0654 5.87451 3.16951 0
M  V30 76 H 5.3354 0.374614 0.639332 0
M  V30 77 H 7.9824 1.50485 1.18434 0
M  V30 78 H 6.2874 1.10166 3.75993 0
M  V30 79 H 7.9844 1.49119 3.72242 0
M  V30 80 H 4.5744 2.83263 3.21652 0
M  V30 81 H 8.7584 3.81257 3.17737 0
M  V30 82 H 4.0144 5.22579 3.17366 0
M  V30 83 H 8.1884 6.21274 3.14629 0
M  V30 84 H 5.8154 6.92329 3.13983 0
M  V30 85 N 7.3905 -1.2043 1.01659 0
M  V30 86 C 8.3235 -2.21924 0.531521 0
M  V30 87 C 9.3015 -1.57054 -0.421032 0
M  V30 88 O 10.4855 -1.85389 -0.341035 0
M  V30 89 C 7.6125 -3.37942 -0.226496 0
M  V30 90 C 6.6585 -4.21115 0.67561 0
M  V30 91 S 7.4915 -4.90674 2.14475 0
M  V30 92 C 8.6475 -6.10113 1.3969 0
M  V30 93 H 8.8805 -2.62725 1.3915 0
M  V30 94 H 6.4135 -1.30481 0.825479 0
M  V30 95 H 8.3715 -4.05196 -0.657738 0
M  V30 96 H 7.0325 -2.956 -1.06205 0
M  V30 97 H 6.2255 -5.03918 0.091108 0
M  V30 98 H 5.8275 -3.59115 1.04463 0
M  V30 99 H 8.1195 -6.7411 0.676897 0
M  V30 100 H 9.0625 -6.73022 2.20107 0
M  V30 101 H 9.4705 -5.57283 0.899786 0
M  V30 102 N 8.8686 -0.792821 -1.36206 0
M  V30 103 C 10.1146 -0.36733 -1.99446 0
M  V30 104 C 10.4476 1.05917 -1.62774 0
M  V30 105 O 9.7226 1.7324 -0.88421 0
M  V30 106 C 10.0056 -0.535044 -3.56103 0
M  V30 107 C 9.8586 -2.00548 -4.02617 0
M  V30 108 C 11.1776 0.0478191 -4.40074 0
M  V30 109 H 8.2966 -0.134941 -0.724541 0
M  V30 110 H 10.9386 -0.999794 -1.61568 0
M  V30 111 H 9.0886 0.00336329 -3.885 0
M  V30 112 H 10.7606 -2.60521 -3.80692 0
M  V30 113 H 9.0036 -2.50686 -3.54032 0
M  V30 114 H 9.6746 -2.07377 -5.11565 0
M  V30 115 H 12.1506 -0.411822 -4.14057 0
M  V30 116 H 11.0266 -0.0995336 -5.4881 0
M  V30 117 H 11.2876 1.14025 -4.27142 0
M  V30 118 N 10.3467 1.47872 -0.545128 0
M  V30 119 C 11.3097 2.28337 0.198717 0
M  V30 120 C 12.3097 1.36255 0.853888 0
M  V30 121 O 13.4997 1.59003 0.711606 0
M  V30 122 C 10.6317 3.15585 1.28915 0
M  V30 123 H 11.8247 2.95567 -0.507941 0
M  V30 124 H 9.3777 1.53362 -0.301616 0
M  V30 125 H 10.1127 2.53019 2.02859 0
M  V30 126 H 9.8977 3.83337 0.824309 0
M  V30 127 H 11.3877 3.76243 1.81194 0
M  V30 128 N 11.8248 0.280983 1.55075 0
M  V30 129 C 12.7578 -0.645439 2.18882 0
M  V30 130 C 13.7358 -1.14786 1.15165 0
M  V30 131 O 14.9198 -1.21975 1.43716 0
M  V30 132 C 12.0468 -1.88088 2.81674 0
M  V30 133 C 11.0928 -1.51343 3.98745 0
M  V30 134 S 11.9258 -0.586548 5.32278 0
M  V30 135 C 13.0818 -1.83024 5.98543 0
M  V30 136 H 13.3148 -0.1033 2.9712 0
M  V30 137 H 10.8478 0.0652099 1.54262 0
M  V30 138 H 12.8058 -2.58997 3.18482 0
M  V30 139 H 11.4668 -2.39417 2.03318 0
M  V30 140 H 10.6598 -2.43289 4.41392 0
M  V30 141 H 10.2618 -0.884477 3.63391 0
M  V30 142 H 12.5538 -2.77342 6.18133 0
M  V30 143 H 13.4968 -1.44668 6.93164 0
M  V30 144 H 13.9048 -1.99785 5.27964 0
M  V30 145 N 13.3029 -1.57598 0.00835791 0
M  V30 146 C 14.5799 -1.82172 -0.712235 0
M  V30 147 C 14.9599 -0.887873 -1.9152 0
M  V30 148 O 14.3079 0.06146 -2.28417 0
M  V30 149 C 14.5179 -3.30875 -1.11008 0
M  V30 150 C 15.8659 -3.96826 -1.51044 0
M  V30 151 O 16.8899 -3.35248 -1.20364 0
M  V30 152 O 15.7489 -5.05318 -2.08125 0
M  V30 153 H 12.8429 -0.750435 -0.347529 0
M  V30 154 H 15.3889 -1.69665 0.0344523 0
M  V30 155 H 14.1609 -3.90481 -0.252982 0
M  V30 156 H 13.7839 -3.48412 -1.9156 0
M  V30 157 N 14.781 0.264519 -1.55364 0
M  V30 158 C 15.691 1.34902 -1.91934 0
M  V30 159 C 16.707 1.53595 -0.817593 0
M  V30 160 O 17.883 1.67558 -1.11742 0
M  V30 161 C 14.948 2.68676 -2.19121 0
M  V30 162 C 14.009 2.58657 -3.4263 0
M  V30 163 C 13.242 3.86051 -3.68511 0
M  V30 164 O 13.465 4.87126 -2.96757 0
M  V30 165 O 12.399 3.85744 -4.62045 0
M  V30 166 H 16.225 1.06883 -2.8427 0
M  V30 167 H 13.81 0.463775 -1.42019 0
M  V30 168 H 15.692 3.47759 -2.37995 0
M  V30 169 H 14.367 2.96463 -1.29966 0
M  V30 170 H 13.274 1.7792 -3.29082 0
M  V30 171 H 14.607 2.35818 -4.32031 0
M  V30 172 N 16.2591 1.48442 0.529413 0
M  V30 173 C 17.2071 1.63452 1.65487 0
M  V30 174 C 18.2011 0.500955 1.61823 0
M  V30 175 O 19.4071 0.679695 1.66674 0
M  V30 176 H 15.7821 0.514905 0.548066 0
M  V30 177 H 17.7531 2.57975 1.49971 0
M  V30 178 C 16.5021 1.69196 3.03756 0
M  V30 179 H 15.8251 2.55784 3.07269 0
M  V30 180 H 17.2651 1.83743 3.82119 0
M  V30 181 C 15.7241 0.430765 3.34135 0
M  V30 182 O 16.2541 -0.4561 3.99102 0
M  V30 183 N 14.4601 0.302293 2.89023 0
M  V30 184 H 14.0071 1.02496 2.36331 0
M  V30 185 H 13.9651 -0.540546 3.09718 0
M  V30 186 N 17.7372 -0.778329 1.37039 0
M  V30 187 C 19.1532 -1.07796 1.17695 0
M  V30 188 C 19.3532 -2.01498 0.00860115 0
M  V30 189 O 18.4092 -2.43901 -0.653352 0
M  V30 190 C 19.7222 -1.68178 2.49272 0
M  V30 191 C 21.2702 -1.80467 2.55735 0
M  V30 192 C 21.7452 -2.44263 3.87427 0
M  V30 193 N 23.2362 -2.51721 3.88833 0
M  V30 194 C 23.9712 -3.01919 4.87476 0
M  V30 195 N 23.4672 -3.5234 5.96513 0
M  V30 196 N 25.2602 -3.00733 4.74885 0
M  V30 197 H 17.4112 -0.156032 2.11826 0
M  V30 198 H 19.6742 -0.131844 0.938787 0
M  V30 199 H 19.3802 -1.06796 3.35093 0
M  V30 200 H 19.2542 -2.67554 2.65885 0
M  V30 201 H 21.6412 -2.40984 1.70325 0
M  V30 202 H 21.7222 -0.798656 2.43013 0
M  V30 203 H 21.3662 -1.84388 4.73248 0
M  V30 204 H 21.2962 -3.45458 3.9745 0
M  V30 205 H 23.7872 -2.1603 3.10063 0
M  V30 206 H 24.1002 -3.89027 6.67741 0
M  V30 207 H 22.4452 -3.50462 6.00168 0
M  V30 208 H 25.6362 -2.60638 3.88826 0
M  V30 209 H 25.8092 -3.39545 5.51918 0
M  V30 210 N 19.2153 -1.21501 -1.00376 0
M  V30 211 C 20.4613 -1.03452 -1.74429 0
M  V30 212 C 20.7943 0.430764 -1.89362 0
M  V30 213 O 20.0693 1.31962 -1.42886 0
M  V30 214 C 20.3523 -1.73375 -3.15615 0
M  V30 215 C 20.2053 -3.27431 -3.08397 0
M  V30 216 C 21.5243 -1.47732 -4.14564 0
M  V30 217 H 18.6433 -0.377226 -0.633143 0
M  V30 218 H 21.2853 -1.49693 -1.17013 0
M  V30 219 H 19.4353 -1.34064 -3.64636 0
M  V30 220 H 21.1073 -3.76119 -2.67081 0
M  V30 221 H 19.3503 -3.5767 -2.45468 0
M  V30 222 H 20.0213 -3.71524 -4.08258 0
M  V30 223 H 22.4973 -1.8186 -3.74254 0
M  V30 224 H 21.3733 -1.99169 -5.11491 0
M  V30 225 H 21.6343 -0.407589 -4.40217 0
M  V30 226 N 20.6934 1.19889 -1.02296 0
M  V30 227 C 21.9424 1.88743 -0.711257 0
M  V30 228 C 22.2554 1.80112 0.762817 0
M  V30 229 O 23.4614 2.44161 1.18733 0
M  V30 230 C 21.9174 3.38525 -1.22185 0
M  V30 231 C 21.5254 3.55727 -2.72328 0
M  V30 232 C 23.2694 4.12893 -0.985864 0
M  V30 233 C 21.1764 4.99369 -3.16835 0
M  V30 234 H 20.1064 0.706885 -0.262353 0
M  V30 235 H 22.7574 1.35586 -1.23648 0
M  V30 236 H 21.1394 3.91044 -0.624571 0
M  V30 237 H 22.3134 3.13564 -3.3766 0
M  V30 238 H 20.6284 2.94739 -2.9414 0
M  V30 239 H 23.2254 5.18813 -1.29374 0
M  V30 240 H 23.5684 4.16228 0.0775055 0
M  V30 241 H 24.1014 3.66494 -1.54684 0
M  V30 242 H 20.8404 5.01193 -4.22476 0
M  V30 243 H 20.3604 5.42317 -2.56228 0
M  V30 244 H 22.0394 5.67988 -3.09837 0
M  V30 245 N 22.1715 0.800033 1.35784 0
M  V30 246 C 23.4195 0.376597 1.9856 0
M  V30 247 C 23.7405 -1.05812 1.63795 0
M  V30 248 O 23.0105 -1.73103 0.917171 0
M  V30 249 H 21.5905 0.136261 0.734467 0
M  V30 250 H 24.2525 1.02442 1.65806 0
M  V30 251 H 23.3485 0.477002 3.08433 0
M  V30 252 N 23.6496 -1.47581 0.552962 0
M  V30 253 C 24.5966 -2.29957 -0.197108 0
M  V30 254 C 25.5666 -1.38799 -0.912359 0
M  V30 255 O 26.7516 -1.67761 -0.908888 0
M  V30 256 C 23.8916 -3.22672 -1.22379 0
M  V30 257 C 23.0046 -4.28919 -0.515038 0
M  V30 258 C 22.1396 -5.0879 -1.52664 0
M  V30 259 C 21.1786 -6.06815 -0.802631 0
M  V30 260 N 20.3156 -6.7966 -1.76086 0
M  V30 261 H 25.1556 -2.93578 0.511486 0
M  V30 262 H 22.6926 -1.4471 0.264067 0
M  V30 263 H 24.6506 -3.74845 -1.83159 0
M  V30 264 H 23.2806 -2.60925 -1.90047 0
M  V30 265 H 22.3326 -3.79835 0.207192 0
M  V30 266 H 23.6446 -4.98773 0.0523425 0
M  V30 267 H 22.7986 -5.65091 -2.20809 0
M  V30 268 H 21.5376 -4.38828 -2.12794 0
M  V30 269 H 20.5426 -5.49695 -0.107238 0
M  V30 270 H 21.7676 -6.78784 -0.207135 0
M  V30 271 H 19.7136 -6.12432 -2.35081 0
M  V30 272 H 19.6306 -7.45669 -1.24552 0
M  V30 273 H 20.8986 -7.40538 -2.43359 0
M  V30 274 N 25.1277 -0.289203 -1.54924 0
M  V30 275 C 26.4047 0.376032 -1.91951 0
M  V30 276 C 26.7847 1.72622 -1.21511 0
M  V30 277 O 26.1327 2.25853 -0.346767 0
M  V30 278 C 26.3427 0.502378 -3.45365 0
M  V30 279 C 27.6907 0.778741 -4.17398 0
M  V30 280 O 28.7147 0.586647 -3.51336 0
M  V30 281 O 27.5737 1.14698 -5.34328 0
M  V30 282 H 24.6677 0.208167 -0.800372 0
M  V30 283 H 27.2137 -0.336394 -1.66332 0
M  V30 284 H 25.9857 -0.447255 -3.88736 0
M  V30 285 H 25.6087 1.26373 -3.76982 0
M  V30 286 N 26.6058 1.57591 -0.0167156 0
M  V30 287 C 27.5538 2.10604 0.987353 0
M  V30 288 C 28.5478 1.02977 1.34507 0
M  V30 289 O 29.7538 1.21425 1.32875 0
M  V30 290 H 26.1288 0.672695 0.336134 0
M  V30 291 H 28.0998 2.93925 0.514817 0
M  V30 292 C 26.8488 2.6382 2.26483 0
M  V30 293 H 26.1718 3.46278 1.99829 0
M  V30 294 H 27.6118 3.04573 2.94977 0
M  V30 295 C 26.0708 1.55992 2.9861 0
M  V30 296 O 26.6008 0.952521 3.90243 0
M  V30 297 N 24.8068 1.28335 2.60727 0
M  V30 298 H 24.3538 1.77914 1.86291 0
M  V30 299 H 24.3118 0.564115 3.09298 0
M  V30 300 N 28.0839 -0.256276 1.55502 0
M  V30 301 C 29.0319 -1.33694 1.90338 0
M  V30 302 C 30.0259 -1.50299 0.781441 0
M  V30 303 O 31.2319 -1.51885 0.965966 0
M  V30 304 H 27.6069 -0.447483 0.60437 0
M  V30 305 H 29.5779 -1.01574 2.8058 0
M  V30 306 C 28.3269 -2.68724 2.20642 0
M  V30 307 H 27.6499 -2.56743 3.06469 0
M  V30 308 H 29.0899 -3.43237 2.48926 0
M  V30 309 C 27.5489 -3.21101 1.01959 0
M  V30 310 O 28.0789 -4.0084 0.262762 0
M  V30 311 N 26.2849 -2.79003 0.812746 0
M  V30 312 H 25.8319 -2.14271 1.42989 0
M  V30 313 H 25.7899 -3.14393 0.0203076 0
M  V30 314 N 29.562 -1.4872 -0.521534 0
M  V30 315 C 30.492 -1.66771 -1.63431 0
M  V30 316 C 31.473 -0.516499 -1.62069 0
M  V30 317 O 32.658 -0.750013 -1.79132 0
M  V30 318 C 29.788 -1.71515 -3.01993 0
M  V30 319 C 28.742 -2.86222 -3.18216 0
M  V30 320 C 28.068 -2.76061 -4.57924 0
M  V30 321 C 29.368 -4.27419 -3.00184 0
M  V30 322 H 31.062 -2.59932 -1.48579 0
M  V30 323 H 28.608 -1.25089 -0.713358 0
M  V30 324 H 30.561 -1.82731 -3.7972 0
M  V30 325 H 29.285 -0.749393 -3.17886 0
M  V30 326 H 27.944 -2.74575 -2.42908 0
M  V30 327 H 27.592 -1.77437 -4.70665 0
M  V30 328 H 27.292 -3.53037 -4.69722 0
M  V30 329 H 28.816 -2.89256 -5.37739 0
M  V30 330 H 30.23 -4.39855 -3.67697 0
M  V30 331 H 28.627 -5.05458 -3.2347 0
M  V30 332 H 29.697 -4.43293 -1.96518 0
M  V30 333 N 31.0401 0.771051 -1.3745 0
M  V30 334 C 32.4511 1.34737 -1.29239 0
M  V30 335 C 32.8021 1.96109 0.0596908 0
M  V30 336 O 31.9271 1.93865 0.961534 0
M  V30 337 C 32.5221 2.44973 -2.34037 0
M  V30 338 C 31.0811 2.98372 -2.29458 0
M  V30 339 C 30.2281 1.71595 -2.17831 0
M  V30 340 H 33.1791 0.571256 -1.48062 0
M  V30 341 H 33.2001 3.24471 -1.98744 0
M  V30 342 H 32.7121 2.00276 -3.32432 0
M  V30 343 H 30.8131 3.47443 -1.34589 0
M  V30 344 H 30.9261 3.53939 -3.229 0
M  V30 345 H 29.2901 1.94547 -1.64388 0
M  V30 346 H 30.0731 1.29001 -3.18141 0
M  V30 347 N 32.5182 1.22032 0.997298 0
M  V30 348 C 33.7642 1.05382 1.73972 0
M  V30 349 C 34.1192 -0.407419 1.88037 0
M  V30 350 O 33.4122 -1.29811 1.40924 0
M  V30 351 C 33.6062 1.69345 3.14733 0
M  V30 352 C 33.4352 3.21537 3.14395 0
M  V30 353 C 32.2052 3.9062 3.20537 0
M  V30 354 C 34.4032 4.18527 2.98897 0
M  V30 355 N 32.3852 5.29935 3.09906 0
M  V30 356 C 33.7562 5.44645 2.96247 0
M  V30 357 C 35.8112 4.09476 2.83255 0
M  V30 358 C 34.5142 6.62752 2.79557 0
M  V30 359 C 36.5402 5.27228 2.67926 0
M  V30 360 C 35.9022 6.52262 2.65959 0
M  V30 361 H 32.0012 0.440018 0.646458 0
M  V30 362 H 34.5852 1.54505 1.18475 0
M  V30 363 H 32.7562 1.22778 3.68484 0
M  V30 364 H 34.4882 1.45828 3.77513 0
M  V30 365 H 31.2432 3.41592 3.28043 0
M  V30 366 H 31.6672 6.02926 3.07912 0
M  V30 367 H 36.3092 3.13598 2.83577 0
M  V30 368 H 34.0272 7.58783 2.77982 0
M  V30 369 H 37.6132 5.22053 2.56812 0
M  V30 370 H 36.4932 7.41844 2.54239 0
M  V30 371 N 33.9963 -1.19345 1.0293 0
M  V30 372 C 35.4123 -1.41069 0.746446 0
M  V30 373 C 35.6123 -1.90078 -0.668776 0
M  V30 374 O 34.6683 -2.0778 -1.4347 0
M  V30 375 C 35.9813 -2.42141 1.78292 0
M  V30 376 C 37.5293 -2.55887 1.80252 0
M  V30 377 C 38.0043 -3.60214 2.8286 0
M  V30 378 N 39.4953 -3.67711 2.81679 0
M  V30 379 C 40.2303 -4.48128 3.57727 0
M  V30 380 N 39.7263 -5.32248 4.43491 0
M  V30 381 N 41.5193 -4.42782 3.46267 0
M  V30 382 H 33.6703 -0.858536 1.94275 0
M  V30 383 H 35.9333 -0.439541 0.839945 0
M  V30 384 H 35.6393 -2.13155 2.79746 0
M  V30 385 H 35.5133 -3.41323 1.60557 0
M  V30 386 H 37.9003 -2.84196 0.794757 0
M  V30 387 H 37.9813 -1.56858 2.02062 0
M  V30 388 H 37.6253 -3.32647 3.83807 0
M  V30 389 H 37.5553 -4.58895 2.58307 0
M  V30 390 H 40.0463 -3.07634 2.19476 0
M  V30 391 H 40.3593 -5.90729 4.98256 0
M  V30 392 H 38.7043 -5.31707 4.47564 0
M  V30 393 H 41.8953 -3.76107 2.78677 0
M  V30 394 H 42.0683 -5.05215 4.05785 0
M  V30 395 N 35.4744 -0.807222 -1.35358 0
M  V30 396 C 36.4044 -0.232509 -2.3234 0
M  V30 397 C 37.3854 0.642386 -1.57504 0
M  V30 398 O 38.5704 0.572526 -1.85569 0
M  V30 399 C 35.7004 0.619238 -3.41735 0
M  V30 400 C 34.6544 -0.157215 -4.27711 0
M  V30 401 C 33.9804 0.816273 -5.28433 0
M  V30 402 C 35.2804 -1.35656 -5.04376 0
M  V30 403 H 36.9744 -1.04276 -2.80654 0
M  V30 404 H 34.5204 -0.50288 -1.34934 0
M  V30 405 H 36.4734 1.03137 -4.08584 0
M  V30 406 H 35.1974 1.46239 -2.92031 0
M  V30 407 H 33.8564 -0.550525 -3.62443 0
M  V30 408 H 33.5044 1.65494 -4.74996 0
M  V30 409 H 33.2044 0.301067 -5.86828 0
M  V30 410 H 34.7284 1.22659 -5.98153 0
M  V30 411 H 36.1424 -1.01927 -5.64166 0
M  V30 412 H 34.5394 -1.8063 -5.7227 0
M  V30 413 H 35.6094 -2.14288 -4.34981 0
M  V30 414 N 36.9525 1.47285 -0.560781 0
M  V30 415 C 38.3635 1.86258 -0.128343 0
M  V30 416 C 38.7145 1.46699 1.30284 0
M  V30 417 O 37.8395 0.871698 1.98067 0
M  V30 418 C 38.4345 3.38044 -0.22614 0
M  V30 419 C 36.9935 3.76096 0.151283 0
M  V30 420 C 36.1405 2.71335 -0.572084 0
M  V30 421 H 39.0915 1.38752 -0.770297 0
M  V30 422 H 39.1125 3.76441 0.554322 0
M  V30 423 H 38.6245 3.66806 -1.26788 0
M  V30 424 H 36.7255 3.52951 1.19399 0
M  V30 425 H 36.8385 4.78641 -0.209765 0
M  V30 426 H 35.2025 2.54696 -0.0147653 0
M  V30 427 H 35.9855 3.02938 -1.61504 0
M  V30 428 N 38.4306 0.297415 1.54768 0
M  V30 429 C 39.6556 -0.318435 2.04941 0
M  V30 430 C 40.0806 -1.4701 1.17345 0
M  V30 431 O 39.4386 -1.80436 0.176758 0
M  V30 432 C 39.4866 -0.755749 3.52592 0
M  V30 433 O 38.5906 -1.86088 3.68028 0
M  V30 434 H 37.9316 -0.062421 0.661059 0
M  V30 435 H 40.4616 0.438215 1.99852 0
M  V30 436 H 40.4716 -1.04552 3.94376 0
M  V30 437 H 39.1466 0.0867233 4.1581 0
M  V30 438 H 37.7236 -1.57193 3.38149 0
M  V30 439 N 39.9087 -1.5758 0.0250728 0
M  V30 440 C 40.8187 -2.1343 -0.973905 0
M  V30 441 C 41.8347 -1.08556 -1.35984 0
M  V30 442 O 43.0107 -1.40592 -1.44207 0
M  V30 443 C 40.0757 -2.64703 -2.23904 0
M  V30 444 C 39.1367 -3.84276 -1.91391 0
M  V30 445 C 38.3697 -4.33095 -3.11873 0
M  V30 446 O 38.5927 -3.81107 -4.24398 0
M  V30 447 O 37.5267 -5.24984 -2.94406 0
M  V30 448 H 41.3527 -2.99057 -0.529036 0
M  V30 449 H 38.9377 -1.48118 -0.195288 0
M  V30 450 H 40.8197 -2.97769 -2.98181 0
M  V30 451 H 39.4947 -1.82161 -2.6758 0
M  V30 452 H 38.4017 -3.56143 -1.14511 0
M  V30 453 H 39.7347 -4.67968 -1.52534 0
M  V30 454 N 41.3868 0.248026 -1.55636 0
M  V30 455 C 42.3168 1.31079 -1.93237 0
M  V30 456 C 43.2978 1.50264 -0.797174 0
M  V30 457 O 44.4828 1.62891 -1.05737 0
M  V30 458 C 41.6128 2.66575 -2.22609 0
M  V30 459 C 40.5668 2.62087 -3.3837 0
M  V30 460 C 39.8928 4.01369 -3.53281 0
M  V30 461 C 41.1928 2.19171 -4.7409 0
M  V30 462 H 42.8868 0.998556 -2.82257 0
M  V30 463 H 40.4328 0.47891 -1.35803 0
M  V30 464 H 42.3858 3.41057 -2.47503 0
M  V30 465 H 41.1098 2.99432 -1.30414 0
M  V30 466 H 39.7688 1.90063 -3.13483 0
M  V30 467 H 39.4168 4.31489 -2.58508 0
M  V30 468 H 39.1168 3.99254 -4.31127 0
M  V30 469 H 40.6408 4.77552 -3.80495 0
M  V30 470 H 42.0548 2.83384 -4.98363 0
M  V30 471 H 40.4518 2.2817 -5.5503 0
M  V30 472 H 41.5218 1.14336 -4.71227 0
M  V30 473 N 42.8649 1.48995 0.513639 0
M  V30 474 C 43.7969 1.60836 1.63293 0
M  V30 475 C 44.8099 0.491701 1.55197 0
M  V30 476 O 45.9989 0.763238 1.6136 0
M  V30 477 C 43.0989 1.53731 3.02027 0
M  V30 478 C 42.2719 2.80715 3.35437 0
M  V30 479 C 41.3309 2.66837 4.53525 0
M  V30 480 O 40.3569 3.40753 4.55934 0
M  V30 481 N 41.5589 1.77539 5.52684 0
M  V30 482 H 44.3239 2.57366 1.53566 0
M  V30 483 H 41.8849 1.45925 0.701259 0
M  V30 484 H 43.8769 1.42118 3.78926 0
M  V30 485 H 42.4469 0.651092 3.05744 0
M  V30 486 H 41.6669 3.06772 2.47557 0
M  V30 487 H 42.9549 3.64927 3.54551 0
M  V30 488 H 42.3529 1.16719 5.53528 0
M  V30 489 H 40.9099 1.71856 6.28736 0
M  V30 490 N 44.343 -0.763751 1.37857 0
M  V30 491 C 45.573 -1.55067 1.3652 0
M  V30 492 C 45.981 -1.89135 -0.0494227 0
M  V30 493 O 45.324 -1.52529 -1.02375 0
M  V30 494 C 45.386 -2.8838 2.14656 0
M  V30 495 C 45.05 -2.76905 3.63555 0
M  V30 496 C 46.047 -2.4739 4.57268 0
M  V30 497 C 43.732 -2.94676 4.06781 0
M  V30 498 C 45.726 -2.35786 5.92186 0
M  V30 499 C 43.413 -2.82692 5.41782 0
M  V30 500 C 44.411 -2.53289 6.34298 0
M  V30 501 O 44.099 -2.41345 7.66817 0
M  V30 502 H 43.831 -0.486776 0.469069 0
M  V30 503 H 46.385 -0.953812 1.81911 0
M  V30 504 H 44.615 -3.50217 1.63967 0
M  V30 505 H 46.304 -3.49828 2.05852 0
M  V30 506 H 47.07 -2.33339 4.2518 0
M  V30 507 H 42.949 -3.16563 3.35126 0
M  V30 508 H 46.493 -2.12757 6.64365 0
M  V30 509 H 42.39 -2.96314 5.7347 0
M  V30 510 H 43.158 -2.56634 7.77226 0
M  V30 511 N 45.8211 -1.22559 -0.990812 0
M  V30 512 C 47.0671 -1.05297 -1.73322 0
M  V30 513 C 47.4001 0.410655 -1.89808 0
M  V30 514 O 46.6751 1.30439 -1.44277 0
M  V30 515 C 46.9581 -1.76713 -3.13759 0
M  V30 516 C 46.8111 -3.30684 -3.04907 0
M  V30 517 C 48.1301 -1.52121 -4.12974 0
M  V30 518 H 45.2491 -0.38392 -0.629106 0
M  V30 519 H 47.8911 -1.50926 -1.15418 0
M  V30 520 H 46.0411 -1.37924 -3.63193 0
M  V30 521 H 47.7131 -3.7893 -2.63077 0
M  V30 522 H 45.9561 -3.60253 -2.41661 0
M  V30 523 H 46.6271 -3.75833 -4.04294 0
M  V30 524 H 49.1031 -1.85819 -3.72304 0
M  V30 525 H 47.9791 -2.04582 -5.0935 0
M  V30 526 H 48.2401 -0.454257 -4.3976 0
M  V30 527 N 47.2992 1.18797 -1.03562 0
M  V30 528 C 48.2462 2.22253 -0.622259 0
M  V30 529 C 49.2162 1.61987 0.36736 0
M  V30 530 O 50.4012 1.88986 0.262492 0
M  V30 531 C 47.5412 3.45097 0.0138462 0
M  V30 532 C 46.6542 4.19722 -1.02263 0
M  V30 533 C 45.7892 5.30009 -0.355573 0
M  V30 534 C 44.8282 5.96399 -1.37749 0
M  V30 535 N 43.9652 6.98234 -0.735766 0
M  V30 536 H 48.8052 2.56968 -1.50903 0
M  V30 537 H 46.3422 1.26245 -0.755017 0
M  V30 538 H 48.3002 4.15279 0.399948 0
M  V30 539 H 46.9302 3.11018 0.864158 0
M  V30 540 H 45.9822 3.48418 -1.52673 0
M  V30 541 H 47.2942 4.65227 -1.79903 0
M  V30 542 H 46.4482 6.0664 0.0850095 0
M  V30 543 H 45.1872 4.85592 0.452967 0
M  V30 544 H 44.1922 5.18512 -1.82826 0
M  V30 545 H 45.4172 6.42899 -2.18764 0
M  V30 546 H 43.3632 6.55979 0.0525597 0
M  V30 547 H 43.2802 7.41965 -1.44995 0
M  V30 548 H 44.5482 7.78845 -0.31941 0
M  V30 549 N 48.7773 0.814389 1.34928 0
M  V30 550 C 49.7243 0.22822 2.29669 0
M  V30 551 C 50.6943 -0.642164 1.53184 0
M  V30 552 O 51.8793 -0.585605 1.81591 0
M  V30 553 C 49.0193 -0.61089 3.3965 0
M  V30 554 C 48.1323 0.280792 4.31086 0
M  V30 555 C 47.2673 -0.567067 5.28165 0
M  V30 556 C 46.3063 0.324531 6.11239 0
M  V30 557 N 45.4433 -0.483756 7.00431 0
M  V30 558 H 50.2833 1.04153 2.79206 0
M  V30 559 H 47.8203 0.525133 1.37407 0
M  V30 560 H 49.7783 -1.11263 4.0209 0
M  V30 561 H 48.4083 -1.38939 2.91369 0
M  V30 562 H 47.4603 0.900688 3.69583 0
M  V30 563 H 48.7723 0.966723 4.89342 0
M  V30 564 H 47.9263 -1.13363 5.96015 0
M  V30 565 H 46.6653 -1.28654 4.70425 0
M  V30 566 H 45.6703 0.903298 5.42329 0
M  V30 567 H 46.8953 1.04198 6.71059 0
M  V30 568 H 44.8413 -1.18706 6.45171 0
M  V30 569 H 44.7583 0.143965 7.55863 0
M  V30 570 H 46.0263 -1.03334 7.7262 0
M  V30 571 N 50.2554 -1.46986 0.568584 0
M  V30 572 C 51.4834 -2.0683 0.0539956 0
M  V30 573 C 51.8984 -1.41953 -1.24478 0
M  V30 574 O 51.2554 -0.519933 -1.74937 0
M  V30 575 C 51.3064 -3.61254 -0.133362 0
M  V30 576 O 51.0274 -4.237 1.11399 0
M  V30 577 C 52.5284 -4.37992 -0.683927 0
M  V30 578 H 49.7484 -0.669058 0.0510141 0
M  V30 579 H 52.2924 -1.88824 0.785234 0
M  V30 580 H 50.4474 -3.78735 -0.81477 0
M  V30 581 H 50.8614 -5.16388 0.91888 0
M  V30 582 H 52.3354 -5.46684 -0.764263 0
M  V30 583 H 52.8124 -4.05058 -1.69778 0
M  V30 584 H 53.4184 -4.25283 -0.0378494 0
M  V30 585 N 51.7335 -0.305618 -1.54608 0
M  V30 586 C 52.9615 0.304775 -2.04643 0
M  V30 587 C 53.3765 1.47167 -1.18268 0
M  V30 588 O 52.7335 1.81296 -0.209328 0
M  V30 589 C 52.7845 0.756564 -3.53495 0
M  V30 590 O 52.5055 -0.36389 -4.36586 0
M  V30 591 C 54.0065 1.43163 -4.19546 0
M  V30 592 H 51.2265 0.0655481 -0.667791 0
M  V30 593 H 53.7705 -0.446592 -1.99564 0
M  V30 594 H 51.9255 1.45794 -3.58919 0
M  V30 595 H 52.3395 -0.0113121 -5.24499 0
M  V30 596 H 53.8135 1.69886 -5.25207 0
M  V30 597 H 54.2905 2.37318 -3.69563 0
M  V30 598 H 54.8965 0.773307 -4.18211 0
M  V30 599 N 53.2116 1.57565 -0.0334293 0
M  V30 600 C 54.1446 2.05997 0.981866 0
M  V30 601 C 55.1226 0.956647 1.3148 0
M  V30 602 O 56.3066 1.22729 1.43073 0
M  V30 603 C 53.4336 2.48564 2.30074 0
M  V30 604 C 52.4796 3.69958 2.12211 0
M  V30 605 S 53.3126 5.16414 1.41692 0
M  V30 606 C 54.4686 5.6228 2.7494 0
M  V30 607 H 54.7016 2.91792 0.569612 0
M  V30 608 H 52.2346 1.53366 0.178376 0
M  V30 609 H 54.1926 2.73753 3.05892 0
M  V30 610 H 52.8536 1.63106 2.68431 0
M  V30 611 H 52.0466 3.97603 3.09722 0
M  V30 612 H 51.6486 3.44943 1.44535 0
M  V30 613 H 53.9406 5.66783 3.71165 0
M  V30 614 H 54.8836 6.61759 2.51953 0
M  V30 615 H 55.2916 4.89944 2.80384 0
M  V30 616 N 54.6897 -0.239769 1.55765 0
M  V30 617 C 55.9377 -0.964892 1.77579 0
M  V30 618 C 56.2587 -1.85582 0.598699 0
M  V30 619 O 55.5287 -1.92075 -0.385226 0
M  V30 620 H 54.1087 -0.359265 0.654933 0
M  V30 621 H 56.7707 -0.256001 1.93211 0
M  V30 622 H 55.8667 -1.58243 2.69009 0
M  V30 623 N 56.1678 -1.49265 -0.50573 0
M  V30 624 C 57.1178 -1.6198 -1.60457 0
M  V30 625 C 58.1018 -0.47568 -1.53708 0
M  V30 626 O 59.2938 -0.728392 -1.61318 0
M  V30 627 C 56.4228 -1.68526 -2.99089 0
M  V30 628 C 55.5088 -2.885 -3.10852 0
M  V30 629 N 55.8998 -4.12635 -2.92517 0
M  V30 630 C 54.1978 -2.86338 -3.41945 0
M  V30 631 C 54.8988 -4.93258 -3.08337 0
M  V30 632 N 53.8748 -4.26533 -3.37003 0
M  V30 633 H 57.6768 -2.55681 -1.44928 0
M  V30 634 H 55.1908 -1.45972 -0.711752 0
M  V30 635 H 57.1878 -1.75732 -3.78053 0
M  V30 636 H 55.8478 -0.759584 -3.1569 0
M  V30 637 H 56.8588 -4.42689 -2.68787 0
M  V30 638 H 53.5358 -2.03129 -3.64753 0
M  V30 639 H 54.9258 -6.01856 -2.98695 0
M  V30 640 N 57.6459 0.756429 -1.3826 0
M  V30 641 C 59.0569 1.33359 -1.30661 0
M  V30 642 C 59.4079 1.96161 0.0388875 0
M  V30 643 O 58.5329 1.94874 0.940918 0
M  V30 644 C 59.1279 2.42477 -2.36622 0
M  V30 645 C 57.6869 2.95922 -2.3261 0
M  V30 646 C 56.8339 1.69275 -2.19639 0
M  V30 647 H 59.7849 0.55552 -1.4866 0
M  V30 648 H 59.8059 3.22345 -2.02174 0
M  V30 649 H 59.3179 1.96739 -3.34538 0
M  V30 650 H 57.4189 3.45996 -1.38267 0
M  V30 651 H 57.5319 3.50494 -3.26636 0
M  V30 652 H 55.8959 1.92793 -1.66442 0
M  V30 653 H 56.6789 1.25619 -3.19491 0
M  V30 654 N 59.124 1.23083 0.984299 0
M  V30 655 C 60.054 1.03292 2.09411 0
M  V30 656 C 61.035 -0.048923 1.7003 0
M  V30 657 O 62.22 0.114967 1.93859 0
M  V30 658 C 59.35 0.619155 3.41736 0
M  V30 659 C 58.304 1.64791 3.95004 0
M  V30 660 C 57.63 1.0897 5.23478 0
M  V30 661 C 58.93 3.03999 4.24714 0
M  V30 662 H 60.624 1.96119 2.26225 0
M  V30 663 H 58.17 0.944344 1.08711 0
M  V30 664 H 60.123 0.467777 4.18796 0
M  V30 665 H 58.847 -0.344786 3.24775 0
M  V30 666 H 57.506 1.78721 3.20085 0
M  V30 667 H 57.154 0.11686 5.02864 0
M  V30 668 H 56.854 1.77704 5.60085 0
M  V30 669 H 58.378 0.950093 6.03163 0
M  V30 670 H 59.792 2.93393 4.92538 0
M  V30 671 H 58.189 3.69936 4.72512 0
M  V30 672 H 59.259 3.53285 3.32142 0
M  V30 673 N 60.6021 -1.18246 1.0419 0
M  V30 674 C 61.8511 -1.87588 0.741194 0
M  V30 675 C 62.1641 -1.81303 -0.734066 0
M  V30 676 O 63.3701 -2.46019 -1.14834 0
M  V30 677 C 61.8261 -3.36538 1.27555 0
M  V30 678 C 61.4341 -3.51349 2.77953 0
M  V30 679 C 63.1781 -4.11273 1.05143 0
M  V30 680 C 61.0851 -4.94265 3.2474 0
M  V30 681 H 60.0151 -0.702622 0.273565 0
M  V30 682 H 62.6661 -1.33601 1.25789 0
M  V30 683 H 61.0481 -3.9 0.686703 0
M  V30 684 H 62.2221 -3.08153 3.42605 0
M  V30 685 H 60.5371 -2.90022 2.98791 0
M  V30 686 H 63.1341 -5.16689 1.37611 0
M  V30 687 H 63.4771 -4.16298 -0.0112774 0
M  V30 688 H 64.0101 -3.63987 1.60495 0
M  V30 689 H 60.7491 -4.94408 4.30396 0
M  V30 690 H 60.2691 -5.38172 2.64823 0
M  V30 691 H 61.9481 -5.62987 3.18834 0
M  V30 692 N 62.0802 -0.821533 -1.34494 0
M  V30 693 C 63.0132 -0.187704 -2.27427 0
M  V30 694 C 63.9912 0.65507 -1.48821 0
M  V30 695 O 65.1752 0.619111 -1.78043 0
M  V30 696 C 62.3022 0.737996 -3.30562 0
M  V30 697 C 61.3482 -0.0270713 -4.26491 0
M  V30 698 S 62.1812 -1.37329 -5.17592 0
M  V30 699 C 63.3372 -0.452427 -6.24263 0
M  V30 700 H 63.5702 -0.975598 -2.80837 0
M  V30 701 H 61.1032 -0.61736 -1.4152 0
M  V30 702 H 63.0612 1.26654 -3.90473 0
M  V30 703 H 61.7222 1.4994 -2.76001 0
M  V30 704 H 60.9152 0.6766 -4.99438 0
M  V30 705 H 60.5172 -0.48612 -3.70827 0
M  V30 706 H 62.8092 0.356557 -6.76561 0
M  V30 707 H 63.7522 -1.15153 -6.98674 0
M  V30 708 H 64.1602 -0.0414755 -5.64485 0
M  V30 709 N 63.5583 1.46682 -0.576371 0
M  V30 710 C 64.8063 2.02013 -0.0594163 0
M  V30 711 C 65.1273 1.45101 1.30271 0
M  V30 712 O 64.3973 0.633317 1.8538 0
M  V30 713 H 62.9773 0.746759 -0.0189745 0
M  V30 714 H 65.6393 1.79862 -0.750717 0
M  V30 715 H 64.7353 3.12097 0.014345 0
M  V30 716 N 65.0364 0.313813 1.54444 0
M  V30 717 C 66.4524 -0.0391619 1.59552 0
M  V30 718 C 66.6524 -1.51322 1.33056 0
M  V30 719 O 65.7084 -2.26782 1.11022 0
M  V30 720 C 67.0214 0.370302 2.98411 0
M  V30 721 C 68.5694 0.320139 3.11358 0
M  V30 722 C 69.0444 0.704617 4.52547 0
M  V30 723 N 70.5354 0.657645 4.58508 0
M  V30 724 C 71.2704 0.927453 5.6585 0
M  V30 725 N 70.7664 1.26389 6.81174 0
M  V30 726 N 72.5594 0.853662 5.5558 0
M  V30 727 H 64.7104 1.27433 1.69925 0
M  V30 728 H 66.9734 0.517511 0.794284 0
M  V30 729 H 66.6794 1.39694 3.22767 0
M  V30 730 H 66.5534 -0.269619 3.76235 0
M  V30 731 H 68.9404 -0.697275 2.86744 0
M  V30 732 H 69.0214 0.99486 2.35661 0
M  V30 733 H 68.6654 1.7199 4.77893 0
M  V30 734 H 68.5954 0.00768843 5.26599 0
M  V30 735 H 71.0864 0.409067 3.75679 0
M  V30 736 H 71.3994 1.4554 7.58972 0
M  V30 737 H 69.7444 1.30206 6.82694 0
M  V30 738 H 72.9354 0.590383 4.64362 0
M  V30 739 H 73.1084 1.0673 6.3915 0
M  V30 740 N 66.5145 -1.57545 0.0417849 0
M  V30 741 C 67.4615 -2.10977 -0.935805 0
M  V30 742 C 68.4315 -1.01486 -1.31491 0
M  V30 743 O 69.6165 -1.2898 -1.40602 0
M  V30 744 C 66.7565 -2.65169 -2.2086 0
M  V30 745 C 65.8695 -3.88714 -1.88482 0
M  V30 746 C 65.0045 -4.31254 -3.1015 0
M  V30 747 C 64.0435 -5.47524 -2.7365 0
M  V30 748 N 63.1805 -5.85162 -3.87982 0
M  V30 749 H 68.0205 -2.94218 -0.473249 0
M  V30 750 H 65.5575 -1.45415 -0.221981 0
M  V30 751 H 67.5155 -2.94685 -2.95325 0
M  V30 752 H 66.1455 -1.8474 -2.64709 0
M  V30 753 H 65.1975 -3.65849 -1.04205 0
M  V30 754 H 66.5095 -4.73245 -1.57608 0
M  V30 755 H 65.6635 -4.62273 -3.92923 0
M  V30 756 H 64.4025 -3.45516 -3.44195 0
M  V30 757 H 63.4075 -5.16187 -1.89291 0
M  V30 758 H 64.6325 -6.34971 -2.40807 0
M  V30 759 H 62.5785 -5.02377 -4.21846 0
M  V30 760 H 62.4955 -6.64362 -3.60775 0
M  V30 761 H 63.7635 -6.20791 -4.71422 0
M  V30 762 N 67.9926 0.231505 -1.5589 0
M  V30 763 C 68.9406 1.30649 -1.92441 0
M  V30 764 C 69.9346 1.49037 -0.805254 0
M  V30 765 O 71.1406 1.50329 -0.990007 0
M  V30 766 H 67.5156 0.437812 -0.611412 0
M  V30 767 H 69.4866 0.970973 -2.82161 0
M  V30 768 C 68.2356 2.65179 -2.24889 0
M  V30 769 H 67.5586 2.51835 -3.10514 0
M  V30 770 H 68.9986 3.39234 -2.54355 0
M  V30 771 C 67.4576 3.19439 -1.07054 0
M  V30 772 O 67.9876 4.00371 -0.326499 0
M  V30 773 N 66.1936 2.77675 -0.85703 0
M  V30 774 H 65.7406 2.11969 -1.46379 0
M  V30 775 H 65.6986 3.14321 -0.0703223 0
M  V30 776 N 69.4707 1.49531 0.497807 0
M  V30 777 C 70.7007 1.62657 1.27382 0
M  V30 778 C 71.1087 0.298488 1.86831 0
M  V30 779 O 70.4517 -0.72647 1.68725 0
M  V30 780 C 70.5137 2.6393 2.44093 0
M  V30 781 C 70.1777 4.08195 2.05489 0
M  V30 782 C 71.1747 4.949 1.59279 0
M  V30 783 C 68.8597 4.53948 2.15026 0
M  V30 784 C 70.8537 6.25397 1.23113 0
M  V30 785 C 68.5407 5.84458 1.78473 0
M  V30 786 C 69.5387 6.70006 1.32591 0
M  V30 787 O 69.2267 7.98083 0.965327 0
M  V30 788 H 68.9587 0.550429 0.392434 0
M  V30 789 H 71.5127 1.96325 0.603801 0
M  V30 790 H 69.7427 2.25449 3.14181 0
M  V30 791 H 71.4317 2.66552 3.06113 0
M  V30 792 H 72.1977 4.60779 1.51354 0
M  V30 793 H 68.0767 3.87525 2.4969 0
M  V30 794 H 71.6207 6.92125 0.872299 0
M  V30 795 H 67.5177 6.18107 1.86048 0
M  V30 796 H 68.2857 8.11122 1.09652 0
M  V30 797 N 70.9488 -0.749086 1.3866 0
M  V30 798 C 71.8588 -1.89358 1.38494 0
M  V30 799 C 72.8748 -1.71708 0.281476 0
M  V30 800 O 74.0508 -1.94554 0.520643 0
M  V30 801 C 71.1158 -3.24782 1.21316 0
M  V30 802 C 70.1768 -3.54926 2.41508 0
M  V30 803 C 69.4098 -4.83888 2.2514 0
M  V30 804 O 69.6328 -5.56592 1.24746 0
M  V30 805 O 68.5668 -5.13612 3.13826 0
M  V30 806 H 72.3928 -1.92452 2.34938 0
M  V30 807 H 69.9778 -0.894981 1.19626 0
M  V30 808 H 71.8598 -4.05739 1.13814 0
M  V30 809 H 70.5348 -3.2249 0.279592 0
M  V30 810 H 69.4418 -2.74112 2.54585 0
M  V30 811 H 70.7748 -3.61983 3.3351 0
M  V30 812 N 72.4269 -1.23603 -0.977757 0
M  V30 813 C 73.3899 -1.02069 -2.05218 0
M  V30 814 C 74.3899 0.0184305 -1.60789 0
M  V30 815 O 75.5799 -0.221569 -1.72785 0
M  V30 816 C 72.7119 -0.544926 -3.36517 0
M  V30 817 H 73.9049 -1.9742 -2.25755 0
M  V30 818 H 71.4579 -1.05684 -1.15155 0
M  V30 819 H 72.1929 0.412241 -3.21669 0
M  V30 820 H 71.9779 -1.2948 -3.70105 0
M  V30 821 H 73.4679 -0.414985 -4.15533 0
M  V30 822 N 73.905 1.17692 -1.04816 0
M  V30 823 C 75.154 1.87192 -0.751132 0
M  V30 824 C 75.467 1.8169 0.724441 0
M  V30 825 O 76.673 2.46625 1.13527 0
M  V30 826 C 75.129 3.35857 -1.29338 0
M  V30 827 C 74.737 3.4987 -2.79812 0
M  V30 828 C 76.481 4.10709 -1.07322 0
M  V30 829 C 74.388 4.92536 -3.27356 0
M  V30 830 H 73.318 0.701162 -0.277288 0
M  V30 831 H 75.969 1.32932 -1.26496 0
M  V30 832 H 74.351 3.89631 -0.707376 0
M  V30 833 H 75.525 3.06332 -3.44235 0
M  V30 834 H 73.84 2.88433 -3.00325 0
M  V30 835 H 76.437 5.15952 -1.4035 0
M  V30 836 H 76.78 4.16299 -0.0108001 0
M  V30 837 H 77.313 3.6313 -1.62423 0
M  V30 838 H 74.052 4.92119 -4.33012 0
M  V30 839 H 73.572 5.3676 -2.67673 0
M  V30 840 H 75.251 5.61288 -3.21815 0
M  V30 841 N 75.3831 0.828654 1.34056 0
M  V30 842 C 76.6311 0.41863 1.97717 0
M  V30 843 C 76.9521 -1.02314 1.66002 0
M  V30 844 O 76.2221 -1.71119 0.953683 0
M  V30 845 H 74.8021 0.151809 0.731412 0
M  V30 846 H 77.4641 1.05936 1.63596 0
M  V30 847 H 76.5601 0.542318 3.07352 0
M  V30 848 N 76.8612 -1.46375 0.584142 0
M  V30 849 C 78.2772 -1.57694 0.245929 0
M  V30 850 C 78.4772 -1.57903 -1.25175 0
M  V30 851 O 77.5332 -1.49676 -2.03355 0
M  V30 852 C 78.8462 -2.87028 0.896402 0
M  V30 853 C 80.3942 -3.00662 0.870127 0
M  V30 854 C 80.8692 -4.32734 1.50017 0
M  V30 855 N 82.3602 -4.39436 1.46458 0
M  V30 856 C 83.0952 -5.40248 1.92144 0
M  V30 857 N 82.5912 -6.47726 2.4581 0
M  V30 858 N 84.3842 -5.31459 1.83052 0
M  V30 859 H 76.5352 -1.44483 1.55687 0
M  V30 860 H 78.7982 -0.689291 0.650831 0
M  V30 861 H 78.5042 -2.9269 1.95002 0
M  V30 862 H 78.3782 -3.75014 0.405486 0
M  V30 863 H 80.7652 -2.94581 -0.174871 0
M  V30 864 H 80.8462 -2.14148 1.39908 0
M  V30 865 H 80.4902 -4.39573 2.54437 0
M  V30 866 H 80.4202 -5.18025 0.946432 0
M  V30 867 H 82.9112 -3.62367 1.07231 0
M  V30 868 H 83.2242 -7.20863 2.78525 0
M  V30 869 H 81.5692 -6.48542 2.49836 0
M  V30 870 H 84.7602 -4.46396 1.40883 0
M  V30 871 H 84.9332 -6.09881 2.18973 0
M  V30 872 N 78.3393 -0.321999 -1.54275 0
M  V30 873 C 79.7503 0.166384 -1.85957 0
M  V30 874 C 80.1013 1.51747 -1.24367 0
M  V30 875 O 79.2263 2.09317 -0.549124 0
M  V30 876 C 79.8213 0.308681 -3.37391 0
M  V30 877 C 78.3803 0.741286 -3.69028 0
M  V30 878 C 77.5273 -0.137937 -2.76957 0
M  V30 879 H 80.4783 -0.542335 -1.49146 0
M  V30 880 H 80.4993 1.13984 -3.63026 0
M  V30 881 H 80.0113 -0.674809 -3.82188 0
M  V30 882 H 78.1123 1.73458 -3.29762 0
M  V30 883 H 78.2253 0.546118 -4.75977 0
M  V30 884 H 76.5893 0.386251 -2.51754 0
M  V30 885 H 77.3723 -1.11816 -3.2458 0
M  V30 886 N 79.8174 1.5752 -0.0501392 0
M  V30 887 C 80.7474 2.14502 0.922566 0
M  V30 888 C 81.7284 1.06642 1.3252 0
M  V30 889 O 82.9134 1.34577 1.4001 0
M  V30 890 C 80.0434 2.68916 2.19776 0
M  V30 891 C 78.9974 3.8175 1.93523 0
M  V30 892 C 78.3234 4.22677 3.27487 0
M  V30 893 C 79.6234 5.06932 1.25765 0
M  V30 894 H 81.3174 2.9603 0.447952 0
M  V30 895 H 78.8634 1.42401 0.214024 0
M  V30 896 H 80.8164 3.07419 2.88222 0
M  V30 897 H 79.5404 1.84578 2.69441 0
M  V30 898 H 78.1994 3.43718 1.27489 0
M  V30 899 H 77.8474 3.35291 3.74952 0
M  V30 900 H 77.5474 4.98725 3.1072 0
M  V30 901 H 79.0714 4.63779 3.97166 0
M  V30 902 H 80.4854 5.42888 1.84244 0
M  V30 903 H 78.8824 5.88116 1.19328 0
M  V30 904 H 79.9524 4.84337 0.233536 0
M  V30 905 N 81.2955 -0.223234 1.56011 0
M  V30 906 C 82.7065 -0.790368 1.69145 0
M  V30 907 C 83.0575 -1.85055 0.651845 0
M  V30 908 O 82.1825 -2.15498 -0.197359 0
M  V30 909 C 82.7775 -1.4404 3.06656 0
M  V30 910 C 81.3365 -1.95494 3.2165 0
M  V30 911 C 80.4835 -0.814506 2.65068 0
M  V30 912 H 83.4345 0.00139011 1.587 0
M  V30 913 H 83.4555 -2.30916 3.0242 0
M  V30 914 H 82.9675 -0.668543 3.82298 0
M  V30 915 H 81.0685 -2.75487 2.50874 0
M  V30 916 H 81.1815 -2.13607 4.28846 0
M  V30 917 H 79.5455 -1.22137 2.23505 0
M  V30 918 H 80.3285 -0.0553515 3.43255 0
M  V30 919 N 82.7736 -1.49793 -0.48987 0
M  V30 920 C 84.0216 -1.59525 -1.24081 0
M  V30 921 C 84.3426 -0.288953 -1.92847 0
M  V30 922 O 83.6126 0.692436 -1.83254 0
M  V30 923 H 82.1926 -0.587796 -0.460983 0
M  V30 924 H 84.8546 -1.86477 -0.566778 0
M  V30 925 H 83.9506 -2.39696 -1.99881 0
M  V30 926 N 84.2517 0.741722 -1.39055 0
M  V30 927 C 85.6677 1.04638 -1.20512 0
M  V30 928 C 85.8677 2.01405 -0.0620218 0
M  V30 929 O 84.9237 2.45547 0.588457 0
M  V30 930 C 86.2367 1.6151 -2.53643 0
M  V30 931 C 87.7847 1.73623 -2.6043 0
M  V30 932 C 88.2597 2.33906 -3.93767 0
M  V30 933 N 89.7507 2.41323 -3.9537 0
M  V30 934 C 90.4857 2.88888 -4.95309 0
M  V30 935 N 89.9817 3.36401 -6.05645 0
M  V30 936 N 91.7747 2.88037 -4.82692 0
M  V30 937 H 83.9257 0.0998155 -2.12165 0
M  V30 938 H 86.1887 0.106907 -0.941953 0
M  V30 939 H 85.8947 0.978739 -3.37807 0
M  V30 940 H 85.7687 2.60411 -2.72885 0
M  V30 941 H 88.1557 2.36384 -1.76655 0
M  V30 942 H 88.2367 0.733945 -2.45045 0
M  V30 943 H 87.8807 1.71776 -4.7797 0
M  V30 944 H 87.8107 3.34799 -4.06469 0
M  V30 945 H 90.3017 2.07734 -3.15682 0
M  V30 946 H 90.6147 3.71186 -6.77821 0
M  V30 947 H 88.9597 3.34427 -6.09248 0
M  V30 948 H 92.1507 2.50237 -3.95599 0
M  V30 949 H 92.3237 3.24792 -5.60726 0
M  V30 950 N 85.7298 1.2412 0.971189 0
M  V30 951 C 87.1458 1.00584 1.23916 0
M  V30 952 C 87.3458 -0.287481 1.99439 0
M  V30 953 O 86.4018 -1.00454 2.31658 0
M  V30 954 C 87.7148 2.21864 2.0297 0
M  V30 955 C 89.2628 2.26452 2.16076 0
M  V30 956 C 89.7378 3.47343 2.98524 0
M  V30 957 N 91.2288 3.47639 3.06107 0
M  V30 958 C 91.9638 4.37837 3.70251 0
M  V30 959 N 91.4598 5.38286 4.36142 0
M  V30 960 N 93.2528 4.25558 3.67228 0
M  V30 961 H 85.4038 2.07236 0.465499 0
M  V30 962 H 87.6668 0.909236 0.268315 0
M  V30 963 H 87.3728 3.15771 1.54861 0
M  V30 964 H 87.2468 2.23698 3.03709 0
M  V30 965 H 89.6338 1.33078 2.6339 0
M  V30 966 H 89.7148 2.28645 1.14696 0
M  V30 967 H 89.3588 4.41029 2.51905 0
M  V30 968 H 89.2888 3.42393 4.00093 0
M  V30 969 H 91.7798 2.74966 2.59233 0
M  V30 970 H 92.0928 6.03352 4.82894 0
M  V30 971 H 90.4378 5.42176 4.34822 0
M  V30 972 H 93.6288 3.46322 3.14927 0
M  V30 973 H 93.8018 4.96054 4.16935 0
M  V30 974 N 87.2079 -1.17134 1.05439 0
M  V30 975 C 88.1559 -2.23289 0.651511 0
M  V30 976 C 89.1499 -1.66186 -0.328411 0
M  V30 977 O 90.3559 -1.78949 -0.194206 0
M  V30 978 H 86.7309 -0.726938 0.192523 0
M  V30 979 H 88.7019 -2.54565 1.55689 0
M  V30 980 C 87.4509 -3.47671 0.0448436 0
M  V30 981 H 86.7739 -3.91918 0.78996 0
M  V30 982 H 88.2139 -4.2353 -0.19964 0
M  V30 983 C 86.6729 -3.14453 -1.20918 0
M  V30 984 O 87.2029 -3.29459 -2.29825 0
M  V30 985 N 85.4089 -2.68657 -1.10779 0
M  V30 986 H 84.9559 -2.56646 -0.221526 0
M  V30 987 H 84.9139 -2.46804 -1.9477 0
M  V30 988 N 88.686 -0.835752 -1.33615 0
M  V30 989 C 89.935 -0.426289 -1.97144 0
M  V30 990 C 90.248 1.01912 -1.66953 0
M  V30 991 O 91.454 1.53311 -2.24072 0
M  V30 992 C 89.91 -0.711321 -3.52801 0
M  V30 993 C 89.518 -2.1712 -3.91871 0
M  V30 994 C 91.262 -0.368654 -4.22896 0
M  V30 995 C 89.169 -2.40044 -5.40493 0
M  V30 996 H 88.099 -0.15567 -0.737755 0
M  V30 997 H 90.75 -1.0239 -1.52278 0
M  V30 998 H 89.132 -0.0433766 -3.95976 0
M  V30 999 H 90.306 -2.87936 -3.59763 0
M  V30 1000 H 88.621 -2.47654 -3.34749 0
M  V30 1001 H 91.218 -0.517601 -5.32189 0
M  V30 1002 H 91.561 0.688078 -4.10574 0
M  V30 1003 H 92.094 -0.991702 -3.8524 0
M  V30 1004 H 88.833 -3.44271 -5.57815 0
M  V30 1005 H 88.353 -1.73785 -5.74072 0
M  V30 1006 H 90.032 -2.23042 -6.0734 0
M  V30 1007 N 90.1641 1.46063 -0.591896 0
M  V30 1008 C 91.4131 2.01547 -0.0786637 0
M  V30 1009 C 91.7261 1.46796 1.29268 0
M  V30 1010 O 92.9321 1.94157 1.89777 0
M  V30 1011 C 91.3881 3.59787 -0.0900024 0
M  V30 1012 C 90.9961 4.23534 -1.46023 0
M  V30 1013 C 92.7401 4.22895 0.368806 0
M  V30 1014 C 90.6471 5.73881 -1.4288 0
M  V30 1015 H 89.5771 0.753564 -0.0256388 0
M  V30 1016 H 92.2281 1.677 -0.744905 0
M  V30 1017 H 90.6101 3.90752 0.642586 0
M  V30 1018 H 91.7841 4.04167 -2.21328 0
M  V30 1019 H 90.0991 3.72558 -1.85982 0
M  V30 1020 H 92.6961 5.33116 0.411258 0
M  V30 1021 H 93.0391 3.9247 1.38827 0
M  V30 1022 H 93.5721 3.9659 -0.31001 0
M  V30 1023 H 90.3111 6.0898 -2.42536 0
M  V30 1024 H 89.8311 5.95486 -0.718095 0
M  V30 1025 H 91.5101 6.36776 -1.14565 0
M  V30 1026 N 91.6422 0.330177 1.54103 0
M  V30 1027 C 92.8882 -0.270806 2.00984 0
M  V30 1028 C 93.2212 -1.51265 1.21789 0
M  V30 1029 O 92.4962 -1.92142 0.301927 0
M  V30 1030 C 92.7792 -0.598339 3.55094 0
M  V30 1031 C 92.6322 0.654674 4.4501 0
M  V30 1032 C 93.9512 -1.41334 4.16789 0
M  V30 1033 H 91.0702 -0.0969531 0.730595 0
M  V30 1034 H 93.7122 0.448066 1.84641 0
M  V30 1035 H 91.8622 -1.21078 3.69151 0
M  V30 1036 H 93.5342 1.29285 4.42813 0
M  V30 1037 H 91.7772 1.28224 4.14416 0
M  V30 1038 H 92.4482 0.380944 5.50684 0
M  V30 1039 H 94.9242 -0.895597 4.06347 0
M  V30 1040 H 93.8002 -1.61127 5.24718 0
M  V30 1041 H 94.0612 -2.41146 3.70541 0
M  V30 1042 N 93.1203 -1.57491 0.0584922 0
M  V30 1043 C 94.3483 -1.97296 -0.623037 0
M  V30 1044 C 94.7633 -0.936338 -1.63946 0
M  V30 1045 O 94.1203 0.0785981 -1.82331 0
M  V30 1046 C 94.1713 -3.37183 -1.30345 0
M  V30 1047 O 93.8923 -4.36872 -0.32773 0
M  V30 1048 C 95.3933 -3.91788 -2.07406 0
M  V30 1049 H 92.6133 -0.649153 -0.169826 0
M  V30 1050 H 95.1573 -2.04106 0.12696 0
M  V30 1051 H 93.3123 -3.31502 -2.00463 0
M  V30 1052 H 93.7263 -5.18141 -0.814269 0
M  V30 1053 H 95.2003 -4.91926 -2.50425 0
M  V30 1054 H 95.6773 -3.27609 -2.92521 0
M  V30 1055 H 96.2833 -4.00829 -1.42184 0
M  V30 1056 N 94.5984 0.214957 -1.56127 0
M  V30 1057 C 96.0144 0.564948 -1.49267 0
M  V30 1058 C 96.2144 1.86827 -0.754838 0
M  V30 1059 O 95.2704 2.50745 -0.297198 0
M  V30 1060 C 96.5834 0.638071 -2.93852 0
M  V30 1061 C 98.1314 0.728253 -3.0441 0
M  V30 1062 C 98.6064 0.832663 -4.50367 0
M  V30 1063 N 100.097 0.896712 -4.54437 0
M  V30 1064 C 100.832 0.997324 -5.6466 0
M  V30 1065 N 100.328 1.06147 -6.8462 0
M  V30 1066 N 102.121 1.03297 -5.52527 0
M  V30 1067 H 94.2724 -0.640211 -2.02522 0
M  V30 1068 H 96.5354 -0.225507 -0.920788 0
M  V30 1069 H 96.2414 -0.250126 -3.50809 0
M  V30 1070 H 96.1154 1.49947 -3.46115 0
M  V30 1071 H 98.5024 1.60689 -2.47514 0
M  V30 1072 H 98.5834 -0.158952 -2.55306 0
M  V30 1073 H 98.2274 -0.0415417 -5.07883 0
M  V30 1074 H 98.1574 1.73538 -4.97184 0
M  V30 1075 H 100.648 0.857188 -3.6805 0
M  V30 1076 H 100.961 1.1382 -7.64372 0
M  V30 1077 H 99.3064 1.03049 -6.87318 0
M  V30 1078 H 102.497 0.979558 -4.57736 0
M  V30 1079 H 102.67 1.10793 -6.38458 0
M  V30 1080 N 96.0765 1.50051 0.48192 0
M  V30 1081 C 97.0245 1.68635 1.60203 0
M  V30 1082 C 98.0185 0.552184 1.60148 0
M  V30 1083 O 99.2245 0.732377 1.64427 0
M  V30 1084 H 95.5995 0.532081 0.531407 0
M  V30 1085 H 97.5705 2.62616 1.41688 0
M  V30 1086 C 96.3195 1.78775 2.9822 0
M  V30 1087 H 95.6425 2.6543 2.98976 0
M  V30 1088 H 97.0825 1.95806 3.7608 0
M  V30 1089 C 95.5415 0.536849 3.32595 0
M  V30 1090 O 96.0715 -0.328897 4.00351 0
M  V30 1091 N 94.2775 0.394091 2.87915 0
M  V30 1092 H 93.8245 1.09962 2.32951 0
M  V30 1093 H 93.7825 -0.441737 3.11281 0
M  V30 1094 N 97.5546 -0.734337 1.39446 0
M  V30 1095 C 98.4646 -1.87879 1.40495 0
M  V30 1096 C 99.4806 -1.714 0.299672 0
M  V30 1097 O 100.657 -1.93991 0.541249 0
M  V30 1098 C 97.7216 -3.23477 1.24754 0
M  V30 1099 C 96.7826 -3.52344 2.45259 0
M  V30 1100 C 96.0156 -4.81473 2.30259 0
M  V30 1101 O 96.2386 -5.55237 1.30643 0
M  V30 1102 O 95.1726 -5.10254 3.19256 0
M  V30 1103 H 98.9986 -1.89949 2.36966 0
M  V30 1104 H 96.5836 -0.882243 1.20569 0
M  V30 1105 H 98.4656 -4.04509 1.18111 0
M  V30 1106 H 97.1406 -3.22176 0.313781 0
M  V30 1107 H 96.0476 -2.71396 2.57478 0
M  V30 1108 H 97.3806 -3.58426 3.37331 0
M  V30 1109 N 99.0327 -1.24633 -0.964593 0
M  V30 1110 C 100.281 -1.08573 -1.70459 0
M  V30 1111 C 100.602 0.375655 -1.91347 0
M  V30 1112 O 99.8717 1.26779 -1.49345 0
M  V30 1113 H 98.4517 -0.398784 -0.631649 0
M  V30 1114 H 101.114 -1.56601 -1.16026 0
M  V30 1115 H 100.21 -1.58623 -2.68785 0
M  V30 1116 N 100.511 1.16574 -1.06058 0
M  V30 1117 C 101.741 1.90675 -0.795397 0
M  V30 1118 C 102.149 1.77547 0.653735 0
M  V30 1119 O 101.492 1.11611 1.45907 0
M  V30 1120 C 101.554 3.42011 -1.10764 0
M  V30 1121 C 101.218 3.78924 -2.55471 0
M  V30 1122 C 102.215 3.81042 -3.53699 0
M  V30 1123 C 99.8998 4.09626 -2.90708 0
M  V30 1124 C 101.894 4.13346 -4.85205 0
M  V30 1125 C 99.5808 4.41597 -4.22416 0
M  V30 1126 C 100.579 4.43436 -5.19474 0
M  V30 1127 O 100.267 4.74649 -6.48817 0
M  V30 1128 H 99.9988 0.611554 -0.288058 0
M  V30 1129 H 102.553 1.48711 -1.41683 0
M  V30 1130 H 100.783 3.84312 -0.429128 0
M  V30 1131 H 102.472 3.97384 -0.827077 0
M  V30 1132 H 103.238 3.57437 -3.27817 0
M  V30 1133 H 99.1168 4.07361 -2.15819 0
M  V30 1134 H 102.661 4.14696 -5.60957 0
M  V30 1135 H 98.5578 4.64667 -4.48056 0
M  V30 1136 H 99.3258 4.9247 -6.5377 0
M  V30 1137 N 101.989 0.842826 1.3317 0
M  V30 1138 C 102.939 0.250877 2.26616 0
M  V30 1139 C 103.923 -0.596427 1.49437 0
M  V30 1140 O 105.115 -0.447747 1.71243 0
M  V30 1141 C 102.244 -0.569779 3.38539 0
M  V30 1142 C 101.33 0.289254 4.23112 0
M  V30 1143 N 101.721 1.36987 4.86897 0
M  V30 1144 C 100.019 0.0769631 4.45934 0
M  V30 1145 C 100.72 1.89737 5.49886 0
M  V30 1146 N 99.6959 1.19827 5.30229 0
M  V30 1147 H 103.498 1.07718 2.73448 0
M  V30 1148 H 101.012 0.687693 1.47121 0
M  V30 1149 H 103.009 -1.01018 4.04476 0
M  V30 1150 H 101.669 -1.39401 2.93253 0
M  V30 1151 H 102.68 1.75277 4.87338 0
M  V30 1152 H 99.3569 -0.713507 4.11358 0
M  V30 1153 H 100.747 2.80253 6.10662 0
M  V30 1154 N 103.467 -1.45747 0.599634 0
M  V30 1155 C 104.713 -2.02592 0.0918643 0
M  V30 1156 C 105.046 -1.46806 -1.27128 0
M  V30 1157 O 104.321 -0.639658 -1.83681 0
M  V30 1158 C 104.604 -3.60073 0.0443398 0
M  V30 1159 C 104.457 -4.26208 1.43759 0
M  V30 1160 C 105.776 -4.35309 -0.647608 0
M  V30 1161 H 102.895 -0.736175 0.034857 0
M  V30 1162 H 105.537 -1.73694 0.770081 0
M  V30 1163 H 103.687 -3.84823 -0.533224 0
M  V30 1164 H 105.359 -4.12668 2.06162 0
M  V30 1165 H 103.602 -3.84916 2.00056 0
M  V30 1166 H 104.273 -5.35069 1.35665 0
M  V30 1167 H 106.749 -4.15805 -0.156776 0
M  V30 1168 H 105.625 -5.45038 -0.649942 0
M  V30 1169 H 105.886 -4.07598 -1.71219 0
M  V30 1170 N 104.945 -0.338344 -1.53925 0
M  V30 1171 C 105.855 0.529421 -2.28548 0
M  V30 1172 C 106.871 1.11645 -1.3346 0
M  V30 1173 O 108.047 1.13325 -1.66492 0
M  V30 1174 C 105.112 1.66713 -3.03987 0
M  V30 1175 C 104.173 1.11041 -4.14691 0
M  V30 1176 C 103.406 2.19389 -4.86522 0
M  V30 1177 O 103.629 3.40013 -4.57982 0
M  V30 1178 O 102.563 1.83976 -5.73094 0
M  V30 1179 H 106.389 -0.0770399 -3.03602 0
M  V30 1180 H 103.974 -0.103555 -1.49041 0
M  V30 1181 H 105.856 2.32918 -3.5118 0
M  V30 1182 H 104.531 2.25949 -2.31794 0
M  V30 1183 H 103.438 0.413024 -3.71813 0
M  V30 1184 H 104.771 0.562975 -4.8897 0
M  V30 1185 N 106.423 1.57458 -0.0668435 0
M  V30 1186 C 107.671 1.92919 0.602214 0
M  V30 1187 C 107.992 0.947215 1.70449 0
M  V30 1188 O 107.262 -0.00544117 1.95899 0
M  V30 1189 H 105.842 0.71217 0.22544 0
M  V30 1190 H 108.504 1.94508 -0.123535 0
M  V30 1191 H 107.6 2.94589 1.03073 0
M  V30 1192 N 107.901 -0.206675 1.56239 0
M  V30 1193 C 109.141 -0.93574 1.81723 0
M  V30 1194 C 109.505 -1.80927 0.642609 0
M  V30 1195 O 110.706 -2.57323 0.777081 0
M  V30 1196 C 108.977 -1.74012 3.12177 0
M  V30 1197 S 110.536 -2.52279 3.59028 0
M  V30 1198 H 107.354 -0.314065 0.637875 0
M  V30 1199 H 109.956 -0.200071 1.94474 0
M  V30 1200 H 108.66 -1.0888 3.95693 0
M  V30 1201 H 108.191 -2.51782 3.02274 0
M  V30 1202 H 110.206 -3.76209 3.23545 0
M  V30 1203 N 109.379 -1.50304 -0.473955 0
M  V30 1204 C 110.289 -1.7174 -1.5982 0
M  V30 1205 C 111.305 -0.600457 -1.63311 0
M  V30 1206 O 112.481 -0.878441 -1.81233 0
M  V30 1207 C 109.546 -1.80427 -2.96052 0
M  V30 1208 C 108.607 -3.04148 -3.02972 0
M  V30 1209 C 107.84 -3.12411 -4.32706 0
M  V30 1210 O 108.063 -2.27542 -5.23049 0
M  V30 1211 O 106.997 -4.05113 -4.45159 0
M  V30 1212 H 110.823 -2.67035 -1.44657 0
M  V30 1213 H 108.408 -1.34366 -0.653148 0
M  V30 1214 H 110.29 -1.88338 -3.7697 0
M  V30 1215 H 108.965 -0.883156 -3.11419 0
M  V30 1216 H 107.872 -3.0174 -2.21142 0
M  V30 1217 H 109.205 -3.95829 -2.92541 0
M  V30 1218 N 110.857 0.726932 -1.39834 0
M  V30 1219 C 112.103 1.48884 -1.377 0
M  V30 1220 C 112.436 1.94185 0.0244852 0
M  V30 1221 O 111.711 1.67361 0.990986 0
M  V30 1222 C 111.994 2.72288 -2.3565 0
M  V30 1223 C 111.847 2.32956 -3.84775 0
M  V30 1224 C 113.166 3.74414 -2.31306 0
M  V30 1225 H 110.285 0.540062 -0.5015 0
M  V30 1226 H 112.927 0.830547 -1.70886 0
M  V30 1227 H 111.077 3.28457 -2.07481 0
M  V30 1228 H 112.749 1.82356 -4.23726 0
M  V30 1229 H 110.992 1.65088 -4.01159 0
M  V30 1230 H 111.663 3.21362 -4.4881 0
M  V30 1231 H 114.139 3.27849 -2.56231 0
M  V30 1232 H 113.015 4.58414 -3.01907 0
M  V30 1233 H 113.276 4.21909 -1.32081 0
M  V30 1234 N 112.336 1.25143 0.95797 0
M  V30 1235 C 113.299 1.05321 2.03569 0
M  V30 1236 C 114.299 0.007152 1.60798 0
M  V30 1237 O 115.489 0.24903 1.72411 0
M  V30 1238 C 112.621 0.598394 3.35607 0
M  V30 1239 H 113.814 2.00986 2.22586 0
M  V30 1240 H 111.367 1.07502 1.13459 0
M  V30 1241 H 112.102 -0.361014 3.22284 0
M  V30 1242 H 111.887 1.35351 3.67998 0
M  V30 1243 H 113.377 0.48104 4.1482 0
M  V30 1244 N 113.814 -1.1601 1.06675 0
M  V30 1245 C 114.764 -2.18512 0.650888 0
M  V30 1246 C 115.748 -1.57677 -0.320441 0
M  V30 1247 O 116.94 -1.76482 -0.135266 0
M  V30 1248 C 114.069 -3.43273 0.0429255 0
M  V30 1249 C 113.155 -4.11176 1.03898 0
M  V30 1250 N 113.546 -4.54672 2.216 0
M  V30 1251 C 111.844 -4.37417 0.870779 0
M  V30 1252 C 112.545 -5.07248 2.84736 0
M  V30 1253 N 111.521 -5.0037 2.12441 0
M  V30 1254 H 115.323 -2.49863 1.54745 0
M  V30 1255 H 112.837 -1.32503 0.938975 0
M  V30 1256 H 114.834 -4.16006 -0.272857 0
M  V30 1257 H 113.494 -3.13408 -0.84884 0
M  V30 1258 H 114.505 -4.4828 2.59356 0
M  V30 1259 H 111.182 -4.17488 0.0313293 0
M  V30 1260 H 112.572 -5.50912 3.84636 0
M  V30 1261 N 115.292 -0.849877 -1.32721 0
M  V30 1262 C 116.517 -0.463856 -2.02146 0
M  V30 1263 C 116.942 0.930449 -1.63476 0
M  V30 1264 O 116.3 1.61033 -0.832952 0
M  V30 1265 C 116.348 -0.604955 -3.55489 0
M  V30 1266 O 115.452 0.36425 -4.10788 0
M  V30 1267 H 114.793 -0.187046 -0.637111 0
M  V30 1268 H 117.323 -1.14775 -1.69375 0
M  V30 1269 H 117.333 -0.490696 -4.05038 0
M  V30 1270 H 116.008 -1.62174 -3.82978 0
M  V30 1271 H 114.585 0.206628 -3.72327 0
M  V30 1272 N 116.77 1.45427 -0.607355 0
M  V30 1273 C 118.016 2.0254 -0.102607 0
M  V30 1274 C 118.349 1.47478 1.26348 0
M  V30 1275 O 117.624 0.64939 1.83339 0
M  V30 1276 C 117.907 3.60044 -0.0634347 0
M  V30 1277 C 117.76 4.2544 -1.46017 0
M  V30 1278 C 119.079 4.35646 0.624514 0
M  V30 1279 H 116.198 0.73598 -0.0387607 0
M  V30 1280 H 118.84 1.73284 -0.779282 0
M  V30 1281 H 116.99 3.85101 0.512808 0
M  V30 1282 H 118.662 4.11569 -2.08347 0
M  V30 1283 H 116.905 3.83849 -2.02094 0
M  V30 1284 H 117.576 5.34342 -1.385 0
M  V30 1285 H 120.052 4.15882 0.134723 0
M  V30 1286 H 118.928 5.45376 0.621028 0
M  V30 1287 H 119.189 4.08501 1.69055 0
M  V30 1288 N 118.248 0.346503 1.53744 0
M  V30 1289 C 119.158 -0.517293 2.28826 0
M  V30 1290 C 120.174 -1.10935 1.3405 0
M  V30 1291 O 121.35 -1.1244 1.6709 0
M  V30 1292 C 118.415 -1.65098 3.04866 0
M  V30 1293 C 117.476 -1.0884 4.15274 0
M  V30 1294 C 116.709 -2.16806 4.87679 0
M  V30 1295 O 116.932 -3.3758 4.59778 0
M  V30 1296 O 115.866 -1.80934 5.74061 0
M  V30 1297 H 119.692 0.0931396 3.03557 0
M  V30 1298 H 117.277 0.111458 1.48984 0
M  V30 1299 H 119.159 -2.31053 3.5241 0
M  V30 1300 H 117.834 -2.24717 2.32989 0
M  V30 1301 H 116.741 -0.3933 3.72027 0
M  V30 1302 H 118.074 -0.537036 4.89261 0
M  V30 1303 N 119.726 -1.57421 0.075193 0
M  V30 1304 C 120.636 -2.1642 -0.905511 0
M  V30 1305 C 121.652 -1.12828 -1.32461 0
M  V30 1306 O 122.828 -1.45109 -1.39661 0
M  V30 1307 C 119.893 -2.71693 -2.15369 0
M  V30 1308 C 118.954 -3.90171 -1.79068 0
M  V30 1309 C 118.187 -4.42798 -2.97936 0
M  V30 1310 O 118.41 -3.94416 -4.12058 0
M  V30 1311 O 117.344 -5.34085 -2.77555 0
M  V30 1312 H 121.17 -3.00588 -0.433626 0
M  V30 1313 H 118.755 -1.48664 -0.148067 0
M  V30 1314 H 120.637 -3.07104 -2.88557 0
M  V30 1315 H 119.312 -1.90582 -2.61649 0
M  V30 1316 H 118.219 -3.59606 -1.03122 0
M  V30 1317 H 119.552 -4.72584 -1.37569 0
M  V30 1318 N 121.204 0.198386 -1.56346 0
M  V30 1319 C 122.45 0.920648 -1.80698 0
M  V30 1320 C 122.783 1.83045 -0.648697 0
M  V30 1321 O 122.058 1.91308 0.350925 0
M  V30 1322 C 122.341 1.73971 -3.15287 0
M  V30 1323 C 122.194 0.85485 -4.41602 0
M  V30 1324 C 123.513 2.71296 -3.46535 0
M  V30 1325 H 120.632 0.333261 -0.657348 0
M  V30 1326 H 123.274 0.188198 -1.89066 0
M  V30 1327 H 121.424 2.36416 -3.08285 0
M  V30 1328 H 123.096 0.245362 -4.60647 0
M  V30 1329 H 121.339 0.161398 -4.335 0
M  V30 1330 H 122.01 1.46286 -5.32264 0
M  V30 1331 H 124.486 2.18983 -3.53816 0
M  V30 1332 H 123.362 3.2569 -4.41834 0
M  V30 1333 H 123.623 3.5018 -2.69864 0
M  V30 1334 N 122.682 1.50554 0.465978 0
M  V30 1335 C 123.929 1.61798 1.21768 0
M  V30 1336 C 124.257 0.320696 1.91838 0
M  V30 1337 O 123.512 -0.693724 1.82992 0
M  V30 1338 C 123.811 2.75152 2.28093 0
M  V30 1339 C 123.477 4.15454 1.75239 0
M  V30 1340 C 122.139 4.53628 1.60546 0
M  V30 1341 C 124.491 5.03121 1.36083 0
M  V30 1342 C 121.819 5.77204 1.05128 0
M  V30 1343 C 124.171 6.27249 0.821056 0
M  V30 1344 C 122.835 6.64221 0.660795 0
M  V30 1345 H 122.105 0.592063 0.445582 0
M  V30 1346 H 124.752 1.84503 0.512927 0
M  V30 1347 H 123.057 2.46556 3.04496 0
M  V30 1348 H 124.754 2.81055 2.86023 0
M  V30 1349 H 121.344 3.85341 1.87644 0
M  V30 1350 H 125.528 4.74257 1.46267 0
M  V30 1351 H 120.784 6.0452 0.91462 0
M  V30 1352 H 124.958 6.94537 0.509018 0
M  V30 1353 H 122.585 7.59854 0.229226 0
M  V30 1354 N 124.16 -0.719506 1.40217 0
M  V30 1355 C 125.07 -1.86378 1.42479 0
M  V30 1356 C 126.086 -1.71073 0.317834 0
M  V30 1357 O 127.262 -1.93406 0.561794 0
M  V30 1358 C 124.327 -3.22136 1.28178 0
M  V30 1359 C 123.388 -3.49723 2.48982 0
M  V30 1360 C 122.621 -4.79004 2.35353 0
M  V30 1361 O 122.844 -5.53821 1.36524 0
M  V30 1362 O 121.778 -5.06839 3.2465 0
M  V30 1363 H 125.604 -1.87425 2.38968 0
M  V30 1364 H 123.189 -0.869405 1.21498 0
M  V30 1365 H 125.071 -4.03234 1.22395 0
M  V30 1366 H 123.746 -3.21825 0.347934 0
M  V30 1367 H 122.653 -2.6865 2.60342 0
M  V30 1368 H 123.986 -3.54828 3.41113 0
M  V30 1369 N 125.638 -1.25649 -0.95132 0
M  V30 1370 C 126.568 -1.08808 -2.06599 0
M  V30 1371 C 127.549 0.00382547 -1.701 0
M  V30 1372 O 128.734 -0.166325 -1.93486 0
M  V30 1373 C 125.864 -0.709542 -3.39975 0
M  V30 1374 C 124.818 -1.75206 -3.90496 0
M  V30 1375 C 124.144 -1.22811 -5.20405 0
M  V30 1376 C 125.444 -3.15153 -4.16504 0
M  V30 1377 H 127.138 -2.02048 -2.20946 0
M  V30 1378 H 124.684 -0.972835 -1.06169 0
M  V30 1379 H 126.637 -0.578649 -4.17408 0
M  V30 1380 H 125.361 0.258556 -3.25575 0
M  V30 1381 H 124.02 -1.87145 -3.15234 0
M  V30 1382 H 123.668 -0.250145 -5.02378 0
M  V30 1383 H 123.368 -1.92492 -5.55176 0
M  V30 1384 H 124.892 -1.10968 -6.00432 0
M  V30 1385 H 126.306 -3.06349 -4.84586 0
M  V30 1386 H 124.703 -3.82333 -4.62538 0
M  V30 1387 H 125.773 -3.61966 -3.22658 0
M  V30 1388 N 127.117 1.15442 -1.07289 0
M  V30 1389 C 128.357 1.8788 -0.805012 0
M  V30 1390 C 128.721 1.80413 0.656907 0
M  V30 1391 O 129.922 2.47874 1.0398 0
M  V30 1392 C 128.193 3.3298 -1.29843 0
M  V30 1393 S 129.752 4.23158 -1.16114 0
M  V30 1394 H 126.57 0.64839 -0.291739 0
M  V30 1395 H 129.172 1.39285 -1.37186 0
M  V30 1396 H 127.876 3.35958 -2.35712 0
M  V30 1397 H 127.407 3.86629 -0.726767 0
M  V30 1398 H 129.422 4.96103 -0.0982778 0
M  V30 1399 N 128.595 0.856903 1.32268 0
M  V30 1400 C 129.542 0.301172 2.28827 0
M  V30 1401 C 130.512 -0.593104 1.5515 0
M  V30 1402 O 131.697 -0.527537 1.83362 0
M  V30 1403 C 128.837 -0.502523 3.41422 0
M  V30 1404 C 127.95 0.417797 4.29975 0
M  V30 1405 C 127.085 -0.398749 5.29701 0
M  V30 1406 C 126.124 0.518827 6.09897 0
M  V30 1407 N 125.261 -0.260674 7.01616 0
M  V30 1408 H 130.101 1.12983 2.75751 0
M  V30 1409 H 127.638 0.568582 1.35667 0
M  V30 1410 H 129.596 -0.984141 4.05426 0
M  V30 1411 H 128.226 -1.29599 2.95642 0
M  V30 1412 H 127.278 1.01781 3.66531 0
M  V30 1413 H 128.59 1.12191 4.86019 0
M  V30 1414 H 127.744 -0.943435 5.9932 0
M  V30 1415 H 126.483 -1.13622 4.7428 0
M  V30 1416 H 125.488 1.07538 5.39181 0
M  V30 1417 H 126.713 1.25495 6.67404 0
M  V30 1418 H 124.659 -0.981198 6.4862 0
M  V30 1419 H 124.576 0.384364 7.55022 0
M  V30 1420 H 125.844 -0.787014 7.75517 0
M  V30 1421 N 130.073 -1.45103 0.615059 0
M  V30 1422 C 131.021 -2.32331 -0.111791 0
M  V30 1423 C 132.015 -1.46409 -0.852102 0
M  V30 1424 O 133.221 -1.62849 -0.766821 0
M  V30 1425 H 129.596 -0.749993 -0.0549072 0
M  V30 1426 H 131.567 -2.91407 0.642225 0
M  V30 1427 C 130.316 -3.3015 -1.09071 0
M  V30 1428 H 129.639 -3.96265 -0.530485 0
M  V30 1429 H 131.079 -3.93898 -1.56908 0
M  V30 1430 C 129.538 -2.57875 -2.168 0
M  V30 1431 O 130.068 -2.36567 -3.24652 0
M  V30 1432 N 128.274 -2.17884 -1.92289 0
M  V30 1433 H 127.821 -2.35413 -1.04587 0
M  V30 1434 H 127.779 -1.6985 -2.64572 0
M  V30 1435 N 131.551 -0.354651 -1.53558 0
M  V30 1436 C 132.461 0.50515 -2.29097 0
M  V30 1437 C 133.477 1.10223 -1.34636 0
M  V30 1438 O 134.653 1.11553 -1.67684 0
M  V30 1439 C 131.718 1.63479 -3.05738 0
M  V30 1440 C 130.779 1.06636 -4.15845 0
M  V30 1441 C 130.012 2.14217 -4.88822 0
M  V30 1442 O 130.235 3.35137 -4.61562 0
M  V30 1443 O 129.169 1.77887 -5.75013 0
M  V30 1444 H 132.995 -0.109237 -3.03503 0
M  V30 1445 H 130.58 -0.119357 -1.48922 0
M  V30 1446 H 132.462 2.2918 -3.5363 0
M  V30 1447 H 131.137 2.23478 -2.34178 0
M  V30 1448 H 130.044 0.373565 -3.7223 0
M  V30 1449 H 131.377 0.511081 -4.89539 0
M  V30 1450 N 133.029 1.57378 -0.0835403 0
M  V30 1451 C 133.939 2.16897 0.894021 0
M  V30 1452 C 134.955 1.13528 1.31861 0
M  V30 1453 O 136.131 1.45848 1.3889 0
M  V30 1454 C 133.196 2.72831 2.13925 0
M  V30 1455 C 132.257 3.91115 1.76997 0
M  V30 1456 C 131.49 4.44371 2.95584 0
M  V30 1457 O 131.713 3.96596 4.09961 0
M  V30 1458 O 130.647 5.35549 2.74719 0
M  V30 1459 H 134.473 3.00814 0.417679 0
M  V30 1460 H 132.058 1.48741 0.140181 0
M  V30 1461 H 133.94 3.0863 2.86924 0
M  V30 1462 H 132.615 1.91967 2.60635 0
M  V30 1463 H 131.522 3.60148 1.01214 0
M  V30 1464 H 132.855 4.73307 1.3506 0
M  V30 1465 N 134.507 -0.190092 1.56449 0
M  V30 1466 C 135.417 -1.25591 1.98152 0
M  V30 1467 C 136.433 -1.49519 0.889944 0
M  V30 1468 O 137.609 -1.62036 1.19609 0
M  V30 1469 C 134.674 -2.57916 2.3169 0
M  V30 1470 C 133.735 -2.42015 3.5458 0
M  V30 1471 C 132.968 -3.6803 3.8651 0
M  V30 1472 O 133.191 -4.72413 3.1966 0
M  V30 1473 O 132.125 -3.6326 4.79923 0
M  V30 1474 H 135.951 -0.931988 2.89046 0
M  V30 1475 H 133.536 -0.395488 1.4407 0
M  V30 1476 H 135.418 -3.36008 2.54316 0
M  V30 1477 H 134.093 -2.89925 1.43963 0
M  V30 1478 H 133 -1.62017 3.37196 0
M  V30 1479 H 134.333 -2.14937 4.4279 0
M  V30 1480 N 135.985 -1.50799 -0.457987 0
M  V30 1481 C 137.234 -1.6168 -1.20593 0
M  V30 1482 C 137.547 -0.32888 -1.92815 0
M  V30 1483 O 138.753 -0.316773 -2.69646 0
M  V30 1484 C 137.209 -2.8545 -2.19195 0
M  V30 1485 C 136.817 -4.21168 -1.52715 0
M  V30 1486 C 138.561 -3.05681 -2.94549 0
M  V30 1487 C 136.468 -5.3611 -2.4968 0
M  V30 1488 H 135.398 -0.602134 -0.453818 0
M  V30 1489 H 138.049 -1.77245 -0.475031 0
M  V30 1490 H 136.431 -2.63472 -2.95632 0
M  V30 1491 H 137.605 -4.53449 -0.819775 0
M  V30 1492 H 135.92 -4.06648 -0.895922 0
M  V30 1493 H 138.517 -3.88727 -3.67145 0
M  V30 1494 H 138.86 -2.17929 -3.54701 0
M  V30 1495 H 139.393 -3.27901 -2.25223 0
M  V30 1496 H 136.132 -6.26057 -1.94249 0
M  V30 1497 H 135.652 -5.0823 -3.18532 0
M  V30 1498 H 137.331 -5.6722 -3.11241 0
M  V30 1499 N 137.463 0.71206 -1.40597 0
M  V30 1500 C 138.71 1.47197 -1.39065 0
M  V30 1501 C 139.038 1.94499 0.00583891 0
M  V30 1502 O 138.293 1.68752 0.99102 0
M  V30 1503 C 138.592 2.71039 -2.32965 0
M  V30 1504 C 138.258 2.42484 -3.80148 0
M  V30 1505 C 136.92 2.34406 -4.20247 0
M  V30 1506 C 139.272 2.18598 -4.73143 0
M  V30 1507 C 136.6 2.00516 -5.51371 0
M  V30 1508 C 138.952 1.8622 -6.0457 0
M  V30 1509 C 137.616 1.76626 -6.43708 0
M  V30 1510 H 136.886 0.538634 -0.508876 0
M  V30 1511 H 139.533 0.815325 -1.73276 0
M  V30 1512 H 137.838 3.41558 -1.91951 0
M  V30 1513 H 139.535 3.29138 -2.29061 0
M  V30 1514 H 136.125 2.49659 -3.4838 0
M  V30 1515 H 140.309 2.23793 -4.42979 0
M  V30 1516 H 135.565 1.91628 -5.80593 0
M  V30 1517 H 139.739 1.66752 -6.76141 0
M  V30 1518 H 137.366 1.50133 -7.45228 0
M  V30 1519 N 138.941 1.26152 0.944643 0
M  V30 1520 C 140.19 1.10883 1.68487 0
M  V30 1521 C 140.503 -0.348153 1.92477 0
M  V30 1522 O 141.709 -0.621459 2.64292 0
M  V30 1523 C 140.165 1.93624 3.03377 0
M  V30 1524 C 139.773 3.43875 2.87148 0
M  V30 1525 C 141.517 1.86954 3.81115 0
M  V30 1526 C 139.424 4.18875 4.1749 0
M  V30 1527 H 138.354 0.41135 0.631907 0
M  V30 1528 H 141.005 1.50433 1.05082 0
M  V30 1529 H 139.387 1.46904 3.67743 0
M  V30 1530 H 140.561 3.98338 2.31653 0
M  V30 1531 H 138.876 3.51744 2.22856 0
M  V30 1532 H 141.473 2.40275 4.77673 0
M  V30 1533 H 141.816 0.839518 4.07747 0
M  V30 1534 H 142.349 2.31477 3.23517 0
M  V30 1535 H 139.088 5.22332 3.96043 0
M  V30 1536 H 138.608 3.69193 4.72712 0
M  V30 1537 H 140.287 4.27134 4.85968 0
M  V30 1538 N 140.419 -1.14872 1.07899 0
M  V30 1539 C 141.666 -1.85789 0.805532 0
M  V30 1540 C 141.994 -1.82649 -0.668561 0
M  V30 1541 O 141.249 -1.24858 -1.50695 0
M  V30 1542 C 141.548 -3.34223 1.26609 0
M  V30 1543 C 141.214 -3.57555 2.74709 0
M  V30 1544 C 139.876 -3.63631 3.1516 0
M  V30 1545 C 142.228 -3.66803 3.70277 0
M  V30 1546 C 139.556 -3.76473 4.49983 0
M  V30 1547 C 141.908 -3.8117 5.04869 0
M  V30 1548 C 140.572 -3.85494 5.44932 0
M  V30 1549 H 139.842 -0.679849 0.294765 0
M  V30 1550 H 142.489 -1.3572 1.35101 0
M  V30 1551 H 140.794 -3.86536 0.640103 0
M  V30 1552 H 142.491 -3.87511 1.03132 0
M  V30 1553 H 139.081 -3.5347 2.42398 0
M  V30 1554 H 143.265 -3.61404 3.40149 0
M  V30 1555 H 138.521 -3.7808 4.80484 0
M  V30 1556 H 142.695 -3.87268 5.78789 0
M  V30 1557 H 140.322 -3.95197 6.49403 0
M  V30 1558 N 141.898 -0.863906 -1.31812 0
M  V30 1559 C 143.146 -0.470904 -1.96537 0
M  V30 1560 C 143.467 0.978771 -1.68657 0
M  V30 1561 O 142.737 1.6853 -0.998717 0
M  V30 1562 H 141.317 -0.171148 -0.72713 0
M  V30 1563 H 143.979 -1.10236 -1.60729 0
M  V30 1564 H 143.075 -0.623616 -3.05806 0
M  V30 1565 N 143.376 1.44774 -0.622745 0
M  V30 1566 C 144.624 2.01721 -0.123655 0
M  V30 1567 C 144.945 1.49172 1.25589 0
M  V30 1568 O 144.215 0.691974 1.83272 0
M  V30 1569 H 142.795 0.745777 -0.0427225 0
M  V30 1570 H 145.457 1.77382 -0.807559 0
M  V30 1571 H 144.553 3.11984 -0.0849534 0
M  V30 1572 N 144.854 0.36279 1.53368 0
M  V30 1573 C 145.817 -0.472679 2.24273 0
M  V30 1574 C 146.817 -1.012 1.24961 0
M  V30 1575 O 148.007 -0.898194 1.49259 0
M  V30 1576 C 145.139 -1.66039 2.97731 0
M  V30 1577 H 146.332 0.14773 2.99536 0
M  V30 1578 H 143.885 0.114434 1.55881 0
M  V30 1579 H 144.62 -2.31896 2.26704 0
M  V30 1580 H 144.405 -1.28066 3.70596 0
M  V30 1581 H 145.895 -2.25252 3.51641 0
M  V30 1582 N 146.332 -1.57332 0.0918853 0
M  V30 1583 C 147.264 -2.10869 -0.898168 0
M  V30 1584 C 148.277 -1.04521 -1.24817 0
M  V30 1585 O 149.466 -1.31977 -1.20184 0
M  V30 1586 C 146.566 -2.57083 -2.2082 0
M  V30 1587 C 145.739 -3.87229 -2.03402 0
M  V30 1588 C 144.798 -4.19324 -3.17889 0
M  V30 1589 O 143.824 -4.88598 -2.91994 0
M  V30 1590 N 145.026 -3.74471 -4.43567 0
M  V30 1591 H 147.791 -2.96439 -0.440943 0
M  V30 1592 H 145.352 -1.61631 -0.0933064 0
M  V30 1593 H 147.344 -2.75602 -2.96354 0
M  V30 1594 H 145.914 -1.76541 -2.57977 0
M  V30 1595 H 145.134 -3.7789 -1.12218 0
M  V30 1596 H 146.422 -4.72379 -1.89038 0
M  V30 1597 H 145.82 -3.18546 -4.67488 0
M  V30 1598 H 144.377 -3.98151 -5.16061 0
M  V30 1599 N 147.81 0.181792 -1.56548 0
M  V30 1600 C 149.059 0.898348 -1.8059 0
M  V30 1601 C 149.372 1.83862 -0.667379 0
M  V30 1602 O 150.578 2.59678 -0.792446 0
M  V30 1603 C 149.034 1.64791 -3.19956 0
M  V30 1604 C 148.642 0.751789 -4.41647 0
M  V30 1605 C 150.386 2.35331 -3.53298 0
M  V30 1606 C 148.293 1.50098 -5.72035 0
M  V30 1607 H 147.223 0.339194 -0.673397 0
M  V30 1608 H 149.874 0.151413 -1.82874 0
M  V30 1609 H 148.256 2.43921 -3.11959 0
M  V30 1610 H 149.43 -0.0018076 -4.608 0
M  V30 1611 H 147.745 0.156562 -4.16106 0
M  V30 1612 H 150.342 2.91958 -4.47956 0
M  V30 1613 H 150.685 3.10164 -2.77676 0
M  V30 1614 H 151.218 1.63154 -3.62803 0
M  V30 1615 H 147.957 0.795175 -6.50659 0
M  V30 1616 H 147.477 2.22817 -5.56878 0
M  V30 1617 H 149.156 2.05125 -6.13622 0
M  V30 1618 N 149.288 1.51039 0.449983 0
M  V30 1619 C 150.518 1.66627 1.22143 0
M  V30 1620 C 150.926 0.357776 1.85786 0
M  V30 1621 O 150.269 -0.672424 1.70951 0
M  V30 1622 C 150.331 2.71562 2.35573 0
M  V30 1623 C 149.995 4.14526 1.92399 0
M  V30 1624 C 150.992 4.99717 1.43453 0
M  V30 1625 C 148.677 4.60559 2.00475 0
M  V30 1626 C 150.671 6.28998 1.03155 0
M  V30 1627 C 148.358 5.8984 1.59788 0
M  V30 1628 C 149.356 6.73886 1.11208 0
M  V30 1629 O 149.044 8.0075 0.710935 0
M  V30 1630 H 148.776 0.562635 0.374724 0
M  V30 1631 H 151.33 1.98146 0.541036 0
M  V30 1632 H 149.56 2.3533 3.06849 0
M  V30 1633 H 151.249 2.76156 2.97478 0
M  V30 1634 H 152.015 4.65361 1.36618 0
M  V30 1635 H 147.894 3.95273 2.37235 0
M  V30 1636 H 151.438 6.9455 0.651663 0
M  V30 1637 H 147.335 6.23713 1.66289 0
M  V30 1638 H 148.103 8.142 0.837913 0
M  V30 1639 N 150.766 -0.704594 1.40972 0
M  V30 1640 C 152.043 -1.45847 1.30338 0
M  V30 1641 C 152.423 -2.10973 -0.0732344 0
M  V30 1642 O 151.771 -2.00997 -1.08685 0
M  V30 1643 C 151.981 -2.48525 2.45023 0
M  V30 1644 C 153.329 -3.1404 2.8577 0
M  V30 1645 O 154.353 -2.58848 2.44696 0
M  V30 1646 O 153.212 -4.13981 3.56766 0
M  V30 1647 H 150.306 -0.649092 0.512454 0
M  V30 1648 H 152.852 -0.735836 1.52917 0
M  V30 1649 H 151.624 -1.98994 3.36923 0
M  V30 1650 H 151.247 -3.2831 2.24272 0
M  V30 1651 N 152.244 -1.26651 -0.937939 0
M  V30 1652 C 153.174 -1.10993 -2.05433 0
M  V30 1653 C 154.155 -0.0142161 -1.70094 0
M  V30 1654 O 155.34 -0.186837 -1.93299 0
M  V30 1655 C 152.47 -0.745561 -3.39203 0
M  V30 1656 C 151.424 -1.79337 -3.88616 0
M  V30 1657 C 150.75 -1.28324 -5.19073 0
M  V30 1658 C 152.05 -3.19553 -4.13138 0
M  V30 1659 H 153.744 -2.0438 -2.1879 0
M  V30 1660 H 151.29 -0.984041 -1.05131 0
M  V30 1661 H 153.243 -0.622888 -4.16771 0
M  V30 1662 H 151.967 0.22401 -3.25831 0
M  V30 1663 H 150.626 -1.90477 -3.13231 0
M  V30 1664 H 150.274 -0.303414 -5.02084 0
M  V30 1665 H 149.974 -1.98369 -5.53103 0
M  V30 1666 H 151.498 -1.1733 -5.99221 0
M  V30 1667 H 152.912 -3.11471 -4.81309 0
M  V30 1668 H 151.309 -3.87218 -4.58457 0
M  V30 1669 H 152.379 -3.65368 -3.18801 0
M  V30 1670 N 153.722 1.14298 -1.08507 0
M  V30 1671 C 154.969 1.85359 -0.815373 0
M  V30 1672 C 155.297 1.83001 0.658865 0
M  V30 1673 O 154.552 1.25655 1.50031 0
M  V30 1674 C 154.851 3.33547 -1.28379 0
M  V30 1675 C 154.517 3.56093 -2.76602 0
M  V30 1676 C 153.179 3.61955 -3.17084 0
M  V30 1677 C 155.531 3.64834 -3.72217 0
M  V30 1678 C 152.859 3.74082 -4.51973 0
M  V30 1679 C 155.211 3.78487 -5.06883 0
M  V30 1680 C 153.875 3.82598 -5.46969 0
M  V30 1681 H 153.145 0.678276 -0.298366 0
M  V30 1682 H 155.792 1.35002 -1.35819 0
M  V30 1683 H 154.097 3.86191 -0.660593 0
M  V30 1684 H 155.794 3.86959 -1.05186 0
M  V30 1685 H 152.384 3.52179 -2.4427 0
M  V30 1686 H 156.568 3.59595 -3.42061 0
M  V30 1687 H 151.824 3.75527 -4.82483 0
M  V30 1688 H 155.998 3.84193 -5.80834 0
M  V30 1689 H 153.625 3.91747 -6.51489 0
M  V30 1690 N 155.201 0.870884 1.31352 0
M  V30 1691 C 156.131 0.343096 2.30966 0
M  V30 1692 C 157.112 -0.566507 1.60389 0
M  V30 1693 O 158.297 -0.483336 1.88089 0
M  V30 1694 C 155.427 -0.455487 3.443 0
M  V30 1695 C 154.381 0.361103 4.26474 0
M  V30 1696 C 153.707 -0.563221 5.31725 0
M  V30 1697 C 155.007 1.59566 4.97329 0
M  V30 1698 H 156.701 1.17548 2.75359 0
M  V30 1699 H 154.247 0.566686 1.32381 0
M  V30 1700 H 156.2 -0.83525 4.13039 0
M  V30 1701 H 154.924 -1.32139 2.98675 0
M  V30 1702 H 153.583 0.722825 3.59403 0
M  V30 1703 H 153.231 -1.42643 4.82351 0
M  V30 1704 H 152.931 -0.0207409 5.87596 0
M  V30 1705 H 154.455 -0.939808 6.03324 0
M  V30 1706 H 155.869 1.28728 5.58661 0
M  V30 1707 H 154.266 2.07728 5.63 0
M  V30 1708 H 155.336 2.34798 4.24262 0
M  V30 1709 N 156.679 -1.44442 0.630414 0
M  V30 1710 C 158.09 -1.85434 0.217063 0
M  V30 1711 C 158.441 -1.52748 -1.23136 0
M  V30 1712 O 157.566 -0.965205 -1.93682 0
M  V30 1713 C 158.161 -3.36581 0.387168 0
M  V30 1714 C 156.72 -3.76389 0.0283297 0
M  V30 1715 C 155.867 -2.68296 0.700889 0
M  V30 1716 H 158.818 -1.34919 0.83562 0
M  V30 1717 H 158.839 -3.78657 -0.374086 0
M  V30 1718 H 158.351 -3.60339 1.44144 0
M  V30 1719 H 156.452 -3.58246 -1.02423 0
M  V30 1720 H 156.565 -4.77095 0.437892 0
M  V30 1721 H 154.929 -2.54335 0.136267 0
M  V30 1722 H 155.712 -2.94887 1.75774 0
M  V30 1723 N 158.157 -0.370918 -1.53173 0
M  V30 1724 C 159.387 0.217389 -2.05453 0
M  V30 1725 C 159.795 1.42568 -1.24382 0
M  V30 1726 O 159.138 1.81571 -0.278839 0
M  V30 1727 C 159.2 0.669827 -3.53205 0
M  V30 1728 C 158.864 -0.4225 -4.55043 0
M  V30 1729 C 159.861 -1.27407 -5.04047 0
M  V30 1730 C 157.546 -0.58427 -4.9889 0
M  V30 1731 C 159.54 -2.27271 -5.95505 0
M  V30 1732 C 157.227 -1.58627 -5.90153 0
M  V30 1733 C 158.225 -2.42892 -6.38351 0
M  V30 1734 O 157.913 -3.41382 -7.27814 0
M  V30 1735 H 157.645 0.0408171 -0.674767 0
M  V30 1736 H 160.199 -0.5292 -1.98466 0
M  V30 1737 H 158.429 1.4681 -3.57748 0
M  V30 1738 H 160.118 1.18173 -3.88317 0
M  V30 1739 H 160.884 -1.16031 -4.70916 0
M  V30 1740 H 156.763 0.061851 -4.60959 0
M  V30 1741 H 160.307 -2.93079 -6.33049 0
M  V30 1742 H 156.204 -1.70048 -6.22699 0
M  V30 1743 H 156.972 -3.37173 -7.45826 0
M  V30 1744 N 159.635 1.57281 -0.100228 0
M  V30 1745 C 160.881 1.94826 0.563101 0
M  V30 1746 C 161.214 0.982475 1.67514 0
M  V30 1747 O 160.489 0.0164069 1.94493 0
M  V30 1748 C 160.772 3.42453 1.11346 0
M  V30 1749 C 160.625 4.498 0.00612081 0
M  V30 1750 C 161.944 3.91506 2.01024 0
M  V30 1751 H 159.063 0.708428 0.203221 0
M  V30 1752 H 161.705 1.8922 -0.171979 0
M  V30 1753 H 159.855 3.47361 1.7399 0
M  V30 1754 H 161.527 4.57 -0.628357 0
M  V30 1755 H 159.77 4.28756 -0.659581 0
M  V30 1756 H 160.441 5.50306 0.432109 0
M  V30 1757 H 162.917 3.88784 1.48278 0
M  V30 1758 H 161.793 4.95358 2.36457 0
M  V30 1759 H 162.054 3.31099 2.92961 0
M  V30 1760 N 161.113 -0.173488 1.56642 0
M  V30 1761 C 162.39 -0.917617 1.7274 0
M  V30 1762 C 162.77 -2.00484 0.661027 0
M  V30 1763 O 162.118 -2.26184 -0.32453 0
M  V30 1764 C 162.328 -1.48433 3.15862 0
M  V30 1765 C 163.676 -1.95809 3.76754 0
M  V30 1766 O 164.7 -1.58231 3.19126 0
M  V30 1767 O 163.559 -2.65024 4.77938 0
M  V30 1768 H 160.653 -0.431772 0.705338 0
M  V30 1769 H 163.199 -0.161487 1.6893 0
M  V30 1770 H 161.971 -0.701715 3.84957 0
M  V30 1771 H 161.594 -2.30471 3.23989 0
M  V30 1772 N 162.591 -1.51276 -0.441967 0
M  V30 1773 C 163.538 -1.72256 -1.53612 0
M  V30 1774 C 164.508 -0.564164 -1.56225 0
M  V30 1775 O 165.693 -0.798074 -1.73307 0
M  V30 1776 C 162.833 -1.84932 -2.91366 0
M  V30 1777 C 161.946 -3.12459 -2.98317 0
M  V30 1778 C 161.081 -3.15758 -4.27166 0
M  V30 1779 C 160.12 -4.37619 -4.27967 0
M  V30 1780 N 159.257 -4.38493 -5.48333 0
M  V30 1781 H 164.097 -2.65654 -1.35026 0
M  V30 1782 H 161.634 -1.31662 -0.656009 0
M  V30 1783 H 163.592 -1.90263 -3.7129 0
M  V30 1784 H 162.222 -0.949461 -3.08521 0
M  V30 1785 H 161.274 -3.1646 -2.11086 0
M  V30 1786 H 162.586 -4.02382 -2.94771 0
M  V30 1787 H 161.74 -3.19979 -5.15459 0
M  V30 1788 H 160.479 -2.23715 -4.33362 0
M  V30 1789 H 159.484 -4.33579 -3.38067 0
M  V30 1790 H 160.709 -5.30921 -4.23438 0
M  V30 1791 H 158.655 -3.49318 -5.55259 0
M  V30 1792 H 158.572 -5.22219 -5.46647 0
M  V30 1793 H 159.84 -4.469 -6.38671 0
M  V30 1794 N 164.069 0.697108 -1.41344 0
M  V30 1795 C 164.999 1.82353 -1.45841 0
M  V30 1796 C 165.98 1.67115 -0.317247 0
M  V30 1797 O 167.165 1.86871 -0.528474 0
M  V30 1798 C 164.295 3.20476 -1.33838 0
M  V30 1799 C 163.249 3.50415 -2.4575 0
M  V30 1800 C 162.575 4.87878 -2.18813 0
M  V30 1801 C 163.875 3.49546 -3.88091 0
M  V30 1802 H 165.569 1.78846 -2.40113 0
M  V30 1803 H 163.115 0.859028 -1.15571 0
M  V30 1804 H 165.068 3.98988 -1.35596 0
M  V30 1805 H 163.792 3.24604 -0.360498 0
M  V30 1806 H 162.451 2.74253 -2.43271 0
M  V30 1807 H 162.099 4.8863 -1.19371 0
M  V30 1808 H 161.799 5.08875 -2.93803 0
M  V30 1809 H 163.323 5.68702 -2.22284 0
M  V30 1810 H 164.737 4.18066 -3.92293 0
M  V30 1811 H 163.134 3.82075 -4.62751 0
M  V30 1812 H 164.204 2.48552 -4.16353 0
M  V30 1813 N 165.547 1.27147 0.931209 0
M  V30 1814 C 166.777 1.15914 1.71019 0
M  V30 1815 C 167.185 -0.287112 1.87009 0
M  V30 1816 O 166.528 -1.20761 1.38429 0
M  V30 1817 C 166.59 1.76647 3.13107 0
M  V30 1818 C 166.254 3.25807 3.20467 0
M  V30 1819 C 167.251 4.22489 3.02983 0
M  V30 1820 C 164.936 3.66452 3.43538 0
M  V30 1821 C 166.93 5.57794 3.08454 0
M  V30 1822 C 164.617 5.01888 3.48643 0
M  V30 1823 C 165.615 5.97369 3.31119 0
M  V30 1824 O 165.303 7.30337 3.35952 0
M  V30 1825 H 165.035 0.404062 0.54195 0
M  V30 1826 H 167.589 1.68457 1.17521 0
M  V30 1827 H 165.819 1.18578 3.68071 0
M  V30 1828 H 167.508 1.60179 3.72958 0
M  V30 1829 H 168.274 3.92425 2.85004 0
M  V30 1830 H 164.153 2.92611 3.5623 0
M  V30 1831 H 167.697 6.32298 2.94694 0
M  V30 1832 H 163.594 5.31609 3.66145 0
M  V30 1833 H 164.362 7.38739 3.5243 0
M  V30 1834 N 167.025 -1.13721 1.09112 0
M  V30 1835 C 168.274 -1.84275 0.82009 0
M  V30 1836 C 168.587 -1.84253 -0.656509 0
M  V30 1837 O 169.793 -2.50668 -1.04296 0
M  V30 1838 C 168.249 -3.30825 1.41714 0
M  V30 1839 C 167.857 -3.39244 2.92605 0
M  V30 1840 C 169.601 -4.06443 1.22492 0
M  V30 1841 C 167.508 -4.80047 3.45411 0
M  V30 1842 H 166.438 -0.690387 0.30312 0
M  V30 1843 H 169.089 -1.28146 1.31343 0
M  V30 1844 H 167.471 -3.86737 0.851498 0
M  V30 1845 H 168.645 -2.93344 3.55367 0
M  V30 1846 H 166.96 -2.77088 3.10823 0
M  V30 1847 H 169.557 -5.10387 1.59402 0
M  V30 1848 H 169.9 -4.15972 0.165299 0
M  V30 1849 H 170.433 -3.56852 1.75788 0
M  V30 1850 H 167.172 -4.75709 4.50978 0
M  V30 1851 H 166.692 -5.26455 2.87411 0
M  V30 1852 H 168.371 -5.48957 3.42425 0
M  V30 1853 N 168.503 -0.877838 -1.30888 0
M  V30 1854 C 169.731 -0.507414 -2.00581 0
M  V30 1855 C 170.146 0.902216 -1.65848 0
M  V30 1856 O 169.503 1.59225 -0.891831 0
M  V30 1857 C 169.554 -0.664162 -3.55347 0
M  V30 1858 O 169.275 -2.01829 -3.8884 0
M  V30 1859 C 170.776 -0.295787 -4.42312 0
M  V30 1860 H 167.996 -0.196866 -0.641471 0
M  V30 1861 H 170.54 -1.18117 -1.66939 0
M  V30 1862 H 168.695 -0.0378619 -3.87381 0
M  V30 1863 H 169.109 -2.03174 -4.8355 0
M  V30 1864 H 170.583 -0.456388 -5.5011 0
M  V30 1865 H 171.06 0.765663 -4.32475 0
M  V30 1866 H 171.666 -0.898113 -4.15709 0
M  V30 1867 N 169.982 1.44106 -0.638065 0
M  V30 1868 C 170.929 2.30715 0.062701 0
M  V30 1869 C 171.899 1.43882 0.829883 0
M  V30 1870 O 173.084 1.72775 0.809532 0
M  V30 1871 C 170.224 3.29258 1.03358 0
M  V30 1872 C 169.337 4.31192 0.26409 0
M  V30 1873 C 168.472 5.16825 1.22741 0
M  V30 1874 C 167.511 6.10462 0.447475 0
M  V30 1875 N 166.648 6.8877 1.36161 0
M  V30 1876 H 171.488 2.90096 -0.681781 0
M  V30 1877 H 169.025 1.42925 -0.347988 0
M  V30 1878 H 170.983 3.84886 1.60992 0
M  V30 1879 H 169.613 2.71562 1.74511 0
M  V30 1880 H 168.665 3.77981 -0.428295 0
M  V30 1881 H 169.977 4.97619 -0.343052 0
M  V30 1882 H 169.131 5.77004 1.87487 0
M  V30 1883 H 167.87 4.50488 1.86847 0
M  V30 1884 H 166.875 5.49386 -0.213433 0
M  V30 1885 H 168.1 6.78837 -0.188968 0
M  V30 1886 H 166.046 6.25096 1.98975 0
M  V30 1887 H 165.963 7.51663 0.808656 0
M  V30 1888 H 167.231 7.53467 1.99769 0
M  V30 1889 N 171.46 0.379036 1.52974 0
M  V30 1890 C 172.709 -0.207612 2.00629 0
M  V30 1891 C 173.022 -1.48758 1.27006 0
M  V30 1892 O 174.228 -2.15365 1.65318 0
M  V30 1893 C 172.684 -0.42053 3.57435 0
M  V30 1894 C 172.292 0.845587 4.39948 0
M  V30 1895 C 174.036 -0.964102 4.13407 0
M  V30 1896 C 171.943 0.601513 5.88333 0
M  V30 1897 H 170.873 -0.0813591 0.749598 0
M  V30 1898 H 173.524 0.499853 1.76561 0
M  V30 1899 H 171.906 -1.18959 3.7771 0
M  V30 1900 H 173.08 1.61848 4.31442 0
M  V30 1901 H 171.395 1.31336 3.95145 0
M  V30 1902 H 173.992 -1.16225 5.21916 0
M  V30 1903 H 174.335 -1.93019 3.68849 0
M  V30 1904 H 174.868 -0.25487 3.96983 0
M  V30 1905 H 171.607 1.53831 6.37194 0
M  V30 1906 H 171.127 -0.132628 5.99653 0
M  V30 1907 H 172.806 0.232134 6.46583 0
M  V30 1908 N 172.938 -1.57226 0.108567 0
M  V30 1909 C 173.888 -2.11305 -0.856396 0
M  V30 1910 C 174.872 -1.03129 -1.23504 0
M  V30 1911 O 176.064 -1.29381 -1.20787 0
M  V30 1912 C 173.193 -2.70771 -2.11041 0
M  V30 1913 C 172.279 -3.86011 -1.7566 0
M  V30 1914 N 172.67 -4.93492 -1.10902 0
M  V30 1915 C 170.968 -3.95999 -2.05185 0
M  V30 1916 C 171.669 -5.73984 -0.944308 0
M  V30 1917 N 170.645 -5.2346 -1.46596 0
M  V30 1918 H 174.447 -2.91784 -0.352002 0
M  V30 1919 H 171.961 -1.62126 -0.0942324 0
M  V30 1920 H 173.958 -3.07851 -2.81128 0
M  V30 1921 H 172.618 -1.91751 -2.62034 0
M  V30 1922 H 173.629 -5.1208 -0.774235 0
M  V30 1923 H 170.306 -3.28007 -2.58298 0
M  V30 1924 H 171.696 -6.70479 -0.436813 0
M  V30 1925 N 174.416 0.165178 -1.56732 0
M  V30 1926 C 175.366 1.20917 -1.93295 0
M  V30 1927 C 176.35 1.39488 -0.801985 0
M  V30 1928 O 177.542 1.41356 -1.06525 0
M  V30 1929 C 174.671 2.54718 -2.3016 0
M  V30 1930 C 173.757 2.39815 -3.49785 0
M  V30 1931 N 174.148 1.94637 -4.66851 0
M  V30 1932 C 172.446 2.70623 -3.54513 0
M  V30 1933 C 173.147 1.92344 -5.4898 0
M  V30 1934 N 172.123 2.34978 -4.9019 0
M  V30 1935 H 175.925 0.851675 -2.81289 0
M  V30 1936 H 173.439 0.373399 -1.58049 0
M  V30 1937 H 175.436 3.30165 -2.54552 0
M  V30 1938 H 174.096 2.91265 -1.43508 0
M  V30 1939 H 175.107 1.6488 -4.90953 0
M  V30 1940 H 171.784 3.11167 -2.78354 0
M  V30 1941 H 173.174 1.5906 -6.52801 0
M  V30 1942 N 175.894 1.51508 0.433938 0
M  V30 1943 C 176.857 1.72473 1.50949 0
M  V30 1944 C 177.857 0.594725 1.49398 0
M  V30 1945 O 179.047 0.862315 1.5136 0
M  V30 1946 C 176.179 1.78431 2.90474 0
M  V30 1947 H 177.372 2.68467 1.33662 0
M  V30 1948 H 174.925 1.41549 0.662836 0
M  V30 1949 H 175.66 0.842645 3.13161 0
M  V30 1950 H 175.445 2.60558 2.93005 0
M  V30 1951 H 176.935 1.96479 3.68491 0
M  V30 1952 N 177.372 -0.689602 1.41712 0
M  V30 1953 C 178.619 -1.44966 1.4139 0
M  V30 1954 C 178.947 -1.94484 0.025105 0
M  V30 1955 O 178.202 -1.70307 -0.964048 0
M  V30 1956 C 178.501 -2.67298 2.37247 0
M  V30 1957 C 178.167 -2.36405 3.83958 0
M  V30 1958 C 176.829 -2.27691 4.23923 0
M  V30 1959 C 179.181 -2.11043 4.76561 0
M  V30 1960 C 176.509 -1.91719 5.54492 0
M  V30 1961 C 178.861 -1.76578 6.07456 0
M  V30 1962 C 177.525 -1.66363 6.46436 0
M  V30 1963 H 176.795 -0.53047 0.517381 0
M  V30 1964 H 179.442 -0.787655 1.74552 0
M  V30 1965 H 177.747 -3.38461 1.9736 0
M  V30 1966 H 179.444 -3.25452 2.34269 0
M  V30 1967 H 176.034 -2.44085 3.52308 0
M  V30 1968 H 180.218 -2.16717 4.46483 0
M  V30 1969 H 175.474 -1.82367 5.83568 0
M  V30 1970 H 179.648 -1.55974 6.78708 0
M  V30 1971 H 177.275 -1.38258 7.47522 0
M  V30 1972 N 178.85 -1.27639 -0.924453 0
M  V30 1973 C 179.76 -1.12466 -2.05885 0
M  V30 1974 C 180.776 -0.053869 -1.73917 0
M  V30 1975 O 181.952 -0.261012 -1.99702 0
M  V30 1976 C 179.017 -0.776768 -3.37886 0
M  V30 1977 C 178.078 -1.92878 -3.83532 0
M  V30 1978 C 177.311 -1.59739 -5.09234 0
M  V30 1979 O 177.534 -0.506782 -5.68144 0
M  V30 1980 O 176.468 -2.43761 -5.50331 0
M  V30 1981 H 180.294 -2.07671 -2.21599 0
M  V30 1982 H 177.879 -1.06857 -1.04413 0
M  V30 1983 H 179.761 -0.596229 -4.17161 0
M  V30 1984 H 178.436 0.145732 -3.23372 0
M  V30 1985 H 177.343 -2.1644 -3.0513 0
M  V30 1986 H 178.676 -2.8316 -4.02593 0
M  V30 1987 N 180.328 1.1314 -1.09713 0
M  V30 1988 C 181.576 1.84119 -0.833338 0
M  V30 1989 C 181.897 1.84097 0.642904 0
M  V30 1990 O 181.167 1.29881 1.46655 0
M  V30 1991 H 179.747 0.681766 -0.305293 0
M  V30 1992 H 182.409 1.37038 -1.38588 0
M  V30 1993 H 181.505 2.88543 -1.18951 0
M  V30 1994 N 181.806 0.884767 1.30421 0
M  V30 1995 C 183.083 0.423185 1.90967 0
M  V30 1996 C 183.463 -1.09605 1.80416 0
M  V30 1997 O 182.811 -1.93126 1.22125 0
M  V30 1998 C 183.021 0.921056 3.36627 0
M  V30 1999 C 184.369 0.955903 4.137 0
M  V30 2000 O 185.393 0.867706 3.4547 0
M  V30 2001 O 184.252 1.08614 5.35598 0
M  V30 2002 H 181.346 0.129369 0.816819 0
M  V30 2003 H 183.892 0.973653 1.3899 0
M  V30 2004 H 182.664 1.96489 3.3839 0
M  V30 2005 H 182.287 0.349741 3.96059 0
M  V30 2006 N 183.284 -1.43765 0.645699 0
M  V30 2007 C 184.512 -2.06253 0.163556 0
M  V30 2008 C 184.927 -1.48352 -1.16778 0
M  V30 2009 O 184.284 -0.611932 -1.71935 0
M  V30 2010 C 184.335 -3.61453 0.0583186 0
M  V30 2011 O 184.056 -4.172 1.33702 0
M  V30 2012 C 185.557 -4.41002 -0.450795 0
M  V30 2013 H 182.777 -0.665413 0.0864077 0
M  V30 2014 H 185.321 -1.84396 0.884222 0
M  V30 2015 H 183.476 -3.82522 -0.612865 0
M  V30 2016 H 183.89 -5.10791 1.19131 0
M  V30 2017 H 185.364 -5.49966 -0.473403 0
M  V30 2018 H 185.841 -4.13488 -1.48068 0
M  V30 2019 H 186.447 -4.24886 0.187637 0
M  V30 2020 N 184.763 -0.387143 -1.52771 0
M  V30 2021 C 186.01 0.195735 -2.01552 0
M  V30 2022 C 186.338 1.46995 -1.27369 0
M  V30 2023 O 185.593 1.92325 -0.361879 0
M  V30 2024 C 185.892 0.512209 -3.53711 0
M  V30 2025 C 185.558 -0.670202 -4.45891 0
M  V30 2026 C 184.22 -0.994586 -4.70809 0
M  V30 2027 C 186.572 -1.46134 -5.00294 0
M  V30 2028 C 183.9 -2.11169 -5.4738 0
M  V30 2029 C 186.252 -2.56903 -5.78086 0
M  V30 2030 C 184.916 -2.89852 -6.01284 0
M  V30 2031 H 184.186 0.0716246 -0.73753 0
M  V30 2032 H 186.833 -0.524046 -1.8419 0
M  V30 2033 H 185.138 1.31329 -3.69134 0
M  V30 2034 H 186.835 0.975804 -3.88946 0
M  V30 2035 H 183.425 -0.407366 -4.2666 0
M  V30 2036 H 187.609 -1.22397 -4.80971 0
M  V30 2037 H 182.865 -2.3707 -5.63567 0
M  V30 2038 H 187.039 -3.18608 -6.19243 0
M  V30 2039 H 184.666 -3.76533 -6.60399 0
M  V30 2040 N 186.241 1.57166 -0.116904 0
M  V30 2041 C 187.488 1.95123 0.541603 0
M  V30 2042 C 187.816 1.00006 1.6682 0
M  V30 2043 O 187.071 0.0235658 1.95686 0
M  V30 2044 C 187.37 3.39508 1.11664 0
M  V30 2045 C 187.036 4.50762 0.111606 0
M  V30 2046 C 185.698 4.80918 -0.164758 0
M  V30 2047 C 188.05 5.18036 -0.573438 0
M  V30 2048 C 185.378 5.75666 -1.13249 0
M  V30 2049 C 187.73 6.13824 -1.52978 0
M  V30 2050 C 186.394 6.42374 -1.81415 0
M  V30 2051 H 185.664 0.714005 0.198187 0
M  V30 2052 H 188.311 1.9048 -0.197365 0
M  V30 2053 H 186.616 3.40835 1.93232 0
M  V30 2054 H 188.313 3.66189 1.63422 0
M  V30 2055 H 184.903 4.27272 0.337192 0
M  V30 2056 H 189.087 4.94896 -0.373092 0
M  V30 2057 H 184.343 5.96092 -1.35958 0
M  V30 2058 H 188.517 6.65039 -2.06629 0
M  V30 2059 H 186.144 7.15599 -2.56557 0
M  V30 2060 N 187.719 -0.156864 1.56817 0
M  V30 2061 C 189.13 -0.717916 1.72345 0
M  V30 2062 C 189.481 -1.82124 0.729747 0
M  V30 2063 O 188.606 -2.16141 -0.105781 0
M  V30 2064 C 189.201 -1.30904 3.12489 0
M  V30 2065 C 187.76 -1.81676 3.29653 0
M  V30 2066 C 186.907 -0.701349 2.68284 0
M  V30 2067 H 189.858 0.0686989 1.58551 0
M  V30 2068 H 189.879 -2.17882 3.11942 0
M  V30 2069 H 189.391 -0.505796 3.8479 0
M  V30 2070 H 187.492 -2.64598 2.62333 0
M  V30 2071 H 187.605 -1.95226 4.3752 0
M  V30 2072 H 185.969 -1.12548 2.28484 0
M  V30 2073 H 186.752 0.0902846 3.43181 0
M  V30 2074 N 189.197 -1.51736 -0.425897 0
M  V30 2075 C 190.107 -1.76738 -1.54275 0
M  V30 2076 C 191.123 -0.65211 -1.61318 0
M  V30 2077 O 192.299 -0.935654 -1.78346 0
M  V30 2078 C 189.364 -1.89755 -2.90162 0
M  V30 2079 C 188.425 -3.13633 -2.93143 0
M  V30 2080 C 187.658 -3.2602 -4.22548 0
M  V30 2081 O 187.881 -2.44067 -5.15546 0
M  V30 2082 O 186.815 -4.19071 -4.32046 0
M  V30 2083 H 190.641 -2.71502 -1.36089 0
M  V30 2084 H 188.226 -1.36376 -0.610069 0
M  V30 2085 H 190.108 -2.00236 -3.70788 0
M  V30 2086 H 188.783 -0.981785 -3.08452 0
M  V30 2087 H 187.69 -3.08622 -2.11431 0
M  V30 2088 H 189.023 -4.04936 -2.798 0
M  V30 2089 N 190.675 0.682077 -1.42076 0
M  V30 2090 C 191.608 1.80666 -1.3941 0
M  V30 2091 C 192.586 1.60518 -0.25939 0
M  V30 2092 O 193.77 1.83088 -0.448456 0
M  V30 2093 C 190.897 3.17556 -1.17796 0
M  V30 2094 C 189.943 3.56468 -2.34164 0
M  V30 2095 S 190.776 3.59729 -3.96681 0
M  V30 2096 C 191.932 4.99323 -3.77395 0
M  V30 2097 H 192.165 1.82652 -2.34575 0
M  V30 2098 H 189.698 0.852062 -1.2876 0
M  V30 2099 H 191.656 3.96575 -1.06012 0
M  V30 2100 H 190.317 3.13164 -0.242279 0
M  V30 2101 H 189.51 4.5595 -2.1477 0
M  V30 2102 H 189.112 2.84792 -2.42425 0
M  V30 2103 H 191.404 5.87202 -3.37935 0
M  V30 2104 H 192.347 5.23763 -4.76527 0
M  V30 2105 H 192.755 4.71498 -3.10403 0
M  V30 2106 N 192.153 1.28127 0.917671 0
M  V30 2107 C 193.43 1.05761 1.64542 0
M  V30 2108 C 193.81 -0.404344 2.07191 0
M  V30 2109 O 193.158 -1.38963 1.81388 0
M  V30 2110 C 193.368 2.02857 2.83989 0
M  V30 2111 C 194.716 2.32786 3.551 0
M  V30 2112 O 195.74 2.0091 2.94132 0
M  V30 2113 O 194.599 2.87169 4.64969 0
M  V30 2114 H 191.693 0.403916 0.721652 0
M  V30 2115 H 194.239 1.39431 0.967322 0
M  V30 2116 H 193.011 3.01407 2.49538 0
M  V30 2117 H 192.634 1.69809 3.59514 0
M  V30 2118 N 193.631 -1.12557 1.10312 0
M  V30 2119 C 194.564 -2.1737 0.694674 0
M  V30 2120 C 195.542 -1.59745 -0.303373 0
M  V30 2121 O 196.726 -1.87408 -0.202578 0
M  V30 2122 C 193.853 -3.38691 0.0248052 0
M  V30 2123 C 192.899 -4.14943 0.986121 0
M  V30 2124 S 193.732 -4.73413 2.50281 0
M  V30 2125 C 194.888 -5.9807 1.84562 0
M  V30 2126 H 195.121 -2.5168 1.58255 0
M  V30 2127 H 192.654 -1.23998 0.919992 0
M  V30 2128 H 194.612 -4.08959 -0.355361 0
M  V30 2129 H 193.273 -3.02664 -0.839851 0
M  V30 2130 H 192.466 -5.01854 0.464651 0
M  V30 2131 H 192.068 -3.50377 1.30813 0
M  V30 2132 H 194.36 -6.67232 1.17507 0
M  V30 2133 H 195.303 -6.54841 2.69423 0
M  V30 2134 H 195.711 -5.49073 1.31069 0
M  V30 2135 N 195.109 -0.891671 -1.2995 0
M  V30 2136 C 196.337 -0.52866 -2.00032 0
M  V30 2137 C 196.752 0.884574 -1.66795 0
M  V30 2138 O 196.109 1.5827 -0.908669 0
M  V30 2139 C 196.16 -0.701814 -3.54622 0
M  V30 2140 O 195.881 -2.05942 -3.86678 0
M  V30 2141 C 197.382 -0.342683 -4.41973 0
M  V30 2142 H 194.602 -0.203659 -0.639347 0
M  V30 2143 H 197.146 -1.19881 -1.65677 0
M  V30 2144 H 195.301 -0.0789468 -3.8732 0
M  V30 2145 H 195.715 -2.08291 -4.81368 0
M  V30 2146 H 197.189 -0.514709 -5.49595 0
M  V30 2147 H 197.666 0.71975 -4.33262 0
M  V30 2148 H 198.272 -0.942154 -4.14733 0
M  V30 2149 N 196.587 1.43421 -0.653314 0
M  V30 2150 C 197.535 2.32546 0.0501531 0
M  V30 2151 C 198.529 1.48617 0.812985 0
M  V30 2152 O 199.735 1.64825 0.723375 0
M  V30 2153 H 196.11 0.751185 0.0350032 0
M  V30 2154 H 198.081 2.89602 -0.719261 0
M  V30 2155 C 196.83 3.32925 1.00279 0
M  V30 2156 H 196.153 3.97532 0.425236 0
M  V30 2157 H 197.593 3.9792 1.46409 0
M  V30 2158 C 196.052 2.63532 2.09886 0
M  V30 2159 O 196.582 2.45092 3.18265 0
M  V30 2160 N 194.788 2.22905 1.86445 0
M  V30 2161 H 194.335 2.38103 0.98309 0
M  V30 2162 H 194.293 1.76805 2.59976 0
M  V30 2163 N 198.065 0.39524 1.52563 0
M  V30 2164 C 199.311 -0.177763 2.02622 0
M  V30 2165 C 199.666 -1.43974 1.27629 0
M  V30 2166 O 198.959 -1.87995 0.36992 0
M  V30 2167 C 199.153 -0.493444 3.53977 0
M  V30 2168 C 198.982 0.736392 4.4363 0
M  V30 2169 C 197.752 1.25744 4.89404 0
M  V30 2170 C 199.95 1.61046 4.88435 0
M  V30 2171 N 197.932 2.44421 5.63145 0
M  V30 2172 C 199.303 2.64359 5.60816 0
M  V30 2173 C 201.358 1.62985 4.70468 0
M  V30 2174 C 200.061 3.69505 6.17137 0
M  V30 2175 C 202.087 2.67042 5.27677 0
M  V30 2176 C 201.449 3.69077 5.99968 0
M  V30 2177 H 197.548 -0.0269794 0.781534 0
M  V30 2178 H 200.132 0.546466 1.86874 0
M  V30 2179 H 198.303 -1.18672 3.69826 0
M  V30 2180 H 200.035 -1.05412 3.90731 0
M  V30 2181 H 196.79 0.817546 4.6649 0
M  V30 2182 H 197.214 3.04485 6.04663 0
M  V30 2183 H 201.856 0.854442 4.14076 0
M  V30 2184 H 199.574 4.4791 6.72608 0
M  V30 2185 H 203.16 2.69433 5.15652 0
M  V30 2186 H 202.04 4.48273 6.43444 0
M  V30 2187 N 199.544 -1.57102 0.125237 0
M  V30 2188 C 200.491 -2.15641 -0.822655 0
M  V30 2189 C 201.461 -1.08313 -1.25927 0
M  V30 2190 O 202.646 -1.36251 -1.33567 0
M  V30 2191 C 199.786 -2.76504 -2.06494 0
M  V30 2192 C 198.899 -3.98158 -1.67612 0
M  V30 2193 C 198.034 -4.47088 -2.86854 0
M  V30 2194 C 197.073 -5.6126 -2.44242 0
M  V30 2195 N 196.21 -6.04905 -3.56419 0
M  V30 2196 H 201.05 -2.96313 -0.316625 0
M  V30 2197 H 198.587 -1.46388 -0.144588 0
M  V30 2198 H 200.545 -3.09925 -2.79289 0
M  V30 2199 H 199.175 -1.98512 -2.54545 0
M  V30 2200 H 198.227 -3.70858 -0.846661 0
M  V30 2201 H 199.539 -4.80934 -1.32301 0
M  V30 2202 H 198.693 -4.82451 -3.67867 0
M  V30 2203 H 197.432 -3.63275 -3.25396 0
M  V30 2204 H 196.437 -5.25495 -1.61663 0
M  V30 2205 H 197.662 -6.46843 -2.0681 0
M  V30 2206 H 195.608 -5.24032 -3.94623 0
M  V30 2207 H 195.525 -6.82552 -3.25051 0
M  V30 2208 H 196.793 -6.44907 -4.37853 0
M  V30 2209 N 201.022 0.148545 -1.56898 0
M  V30 2210 C 201.932 1.20293 -2.01412 0
M  V30 2211 C 202.948 1.47107 -0.929273 0
M  V30 2212 O 204.124 1.58807 -1.23863 0
M  V30 2213 C 201.189 2.51682 -2.38447 0
M  V30 2214 C 200.25 2.32529 -3.60872 0
M  V30 2215 C 199.483 3.57653 -3.96132 0
M  V30 2216 O 199.706 4.63771 -3.32073 0
M  V30 2217 O 198.64 3.50408 -4.89385 0
M  V30 2218 H 202.466 0.855025 -2.91416 0
M  V30 2219 H 200.051 0.357151 -1.45068 0
M  V30 2220 H 201.933 3.29147 -2.63135 0
M  V30 2221 H 200.608 2.86006 -1.51599 0
M  V30 2222 H 199.515 1.53019 -3.41373 0
M  V30 2223 H 200.848 2.03121 -4.48333 0
M  V30 2224 N 202.5 1.5196 0.417844 0
M  V30 2225 C 203.746 1.65836 1.16732 0
M  V30 2226 C 204.079 0.382881 1.90388 0
M  V30 2227 O 203.354 -0.618368 1.84408 0
M  V30 2228 C 203.637 2.87466 2.16876 0
M  V30 2229 C 203.49 4.25041 1.47174 0
M  V30 2230 C 204.809 3.04613 3.17646 0
M  V30 2231 H 201.928 0.603515 0.423011 0
M  V30 2232 H 204.57 1.84494 0.454105 0
M  V30 2233 H 202.72 2.71689 2.777 0
M  V30 2234 H 204.392 4.52527 0.895376 0
M  V30 2235 H 202.635 4.26843 0.773806 0
M  V30 2236 H 203.306 5.06176 2.20204 0
M  V30 2237 H 205.782 3.1923 2.66892 0
M  V30 2238 H 204.658 3.91247 3.8499 0
M  V30 2239 H 204.919 2.17541 3.84874 0
M  V30 2240 N 203.978 -0.674533 1.42435 0
M  V30 2241 C 205.225 -1.43459 1.42919 0
M  V30 2242 C 205.553 -1.94446 0.0457312 0
M  V30 2243 O 204.808 -1.7132 -0.94593 0
M  V30 2244 C 205.107 -2.64767 2.40069 0
M  V30 2245 C 204.773 -2.3232 3.86443 0
M  V30 2246 C 203.435 -2.23182 4.26314 0
M  V30 2247 C 205.787 -2.05977 4.78773 0
M  V30 2248 C 203.115 -1.85827 5.56494 0
M  V30 2249 C 205.467 -1.70125 6.09295 0
M  V30 2250 C 204.131 -1.59498 6.48164 0
M  V30 2251 H 203.401 -0.524952 0.522978 0
M  V30 2252 H 206.048 -0.769097 1.75377 0
M  V30 2253 H 204.353 -3.36349 2.00939 0
M  V30 2254 H 206.05 -3.22949 2.37707 0
M  V30 2255 H 202.64 -2.40334 3.54877 0
M  V30 2256 H 206.824 -2.11969 4.48757 0
M  V30 2257 H 202.08 -1.76168 5.8547 0
M  V30 2258 H 206.254 -1.48767 6.80324 0
M  V30 2259 H 203.881 -1.30322 7.48946 0
M  V30 2260 N 205.456 -1.28612 -0.910864 0
M  V30 2261 C 206.702 -1.16106 -1.66274 0
M  V30 2262 C 207.035 0.289113 -1.92036 0
M  V30 2263 O 206.31 1.21 -1.52281 0
M  V30 2264 C 206.593 -1.96309 -3.01885 0
M  V30 2265 C 206.446 -3.49405 -2.8326 0
M  V30 2266 C 207.765 -1.78076 -4.02463 0
M  V30 2267 H 204.884 -0.423152 -0.603417 0
M  V30 2268 H 207.526 -1.57961 -1.05586 0
M  V30 2269 H 205.676 -1.60742 -3.53687 0
M  V30 2270 H 207.348 -3.94894 -2.38446 0
M  V30 2271 H 205.591 -3.74893 -2.18261 0
M  V30 2272 H 206.262 -4.00784 -3.79574 0
M  V30 2273 H 208.738 -2.0912 -3.59733 0
M  V30 2274 H 207.614 -2.36561 -4.95308 0
M  V30 2275 H 207.875 -0.733008 -4.35981 0
M  V30 2276 N 206.934 1.1197 -1.10907 0
M  V30 2277 C 207.844 2.21433 -0.774896 0
M  V30 2278 C 208.86 1.72478 0.229657 0
M  V30 2279 O 210.036 2.01288 0.0672008 0
M  V30 2280 C 207.101 3.4602 -0.216986 0
M  V30 2281 C 206.162 4.09791 -1.27944 0
M  V30 2282 C 205.395 5.28431 -0.748055 0
M  V30 2283 O 205.618 5.68823 0.423833 0
M  V30 2284 O 204.552 5.82644 -1.51027 0
M  V30 2285 H 208.378 2.5242 -1.68873 0
M  V30 2286 H 205.963 1.20399 -0.884555 0
M  V30 2287 H 207.845 4.21304 0.090059 0
M  V30 2288 H 206.52 3.16698 0.669633 0
M  V30 2289 H 205.427 3.36265 -1.63941 0
M  V30 2290 H 206.76 4.4328 -2.13925 0
M  V30 2291 N 208.412 0.89855 1.29475 0
M  V30 2292 C 209.359 0.373819 2.27753 0
M  V30 2293 C 210.329 -0.543444 1.56958 0
M  V30 2294 O 211.514 -0.468934 1.84948 0
M  V30 2295 C 208.654 -0.393648 3.42848 0
M  V30 2296 C 207.767 0.554379 4.28428 0
M  V30 2297 C 206.902 -0.230026 5.30702 0
M  V30 2298 C 205.941 0.712599 6.07938 0
M  V30 2299 N 205.078 -0.0373283 7.0209 0
M  V30 2300 H 209.918 1.21699 2.72017 0
M  V30 2301 H 207.455 0.611456 1.33789 0
M  V30 2302 H 209.413 -0.85466 4.08352 0
M  V30 2303 H 208.043 -1.20128 2.99615 0
M  V30 2304 H 207.095 1.13391 3.63107 0
M  V30 2305 H 208.407 1.27597 4.82204 0
M  V30 2306 H 207.561 -0.752288 6.02018 0
M  V30 2307 H 206.3 -0.984758 4.77654 0
M  V30 2308 H 205.305 1.24637 5.35486 0
M  V30 2309 H 206.53 1.46664 6.63074 0
M  V30 2310 H 204.476 -0.774348 6.51414 0
M  V30 2311 H 204.393 0.624374 7.53417 0
M  V30 2312 H 205.661 -0.539891 7.77628 0
M  V30 2313 N 209.89 -1.43072 0.660911 0
M  V30 2314 C 211.138 -2.01323 0.177094 0
M  V30 2315 C 211.459 -1.5245 -1.2159 0
M  V30 2316 O 210.729 -0.740322 -1.81373 0
M  V30 2317 H 209.309 -0.744382 0.0624804 0
M  V30 2318 H 211.971 -1.75179 0.854305 0
M  V30 2319 H 211.067 -3.11649 0.167641 0
M  V30 2320 N 211.368 -0.403325 -1.52352 0
M  V30 2321 C 212.298 0.416205 -2.29761 0
M  V30 2322 C 213.279 1.05123 -1.33728 0
M  V30 2323 O 214.464 1.06134 -1.62632 0
M  V30 2324 C 211.594 1.53624 -3.11475 0
M  V30 2325 C 210.548 1.02653 -4.15507 0
M  V30 2326 C 209.874 2.23971 -4.85532 0
M  V30 2327 C 211.174 0.08463 -5.22231 0
M  V30 2328 H 212.868 -0.229701 -2.98518 0
M  V30 2329 H 210.414 -0.111913 -1.43564 0
M  V30 2330 H 212.367 2.1165 -3.64393 0
M  V30 2331 H 211.091 2.20994 -2.40477 0
M  V30 2332 H 209.75 0.46871 -3.63591 0
M  V30 2333 H 209.398 2.89883 -4.11068 0
M  V30 2334 H 209.098 1.90521 -5.55856 0
M  V30 2335 H 210.622 2.82614 -5.41259 0
M  V30 2336 H 212.036 0.573509 -5.70424 0
M  V30 2337 H 210.433 -0.160783 -5.99885 0
M  V30 2338 H 211.503 -0.86237 -4.7717 0
M  V30 2339 N 212.846 1.57033 -0.133567 0
M  V30 2340 C 214.074 2.00044 0.528195 0
M  V30 2341 C 214.489 1.01349 1.59291 0
M  V30 2342 O 213.846 0.00848369 1.82498 0
M  V30 2343 C 213.897 3.43018 1.1411 0
M  V30 2344 O 213.618 4.37939 0.11892 0
M  V30 2345 C 215.119 4.01237 1.88477 0
M  V30 2346 H 212.339 0.656517 0.138661 0
M  V30 2347 H 214.883 2.03267 -0.224196 0
M  V30 2348 H 213.038 3.40688 1.84418 0
M  V30 2349 H 213.452 5.21436 0.56613 0
M  V30 2350 H 214.926 5.03314 2.26669 0
M  V30 2351 H 215.403 3.41193 2.76558 0
M  V30 2352 H 216.009 4.07156 1.22898 0
M  V30 2353 N 214.325 -0.140222 1.56975 0
M  V30 2354 C 215.602 -0.880769 1.74648 0
M  V30 2355 C 215.982 -1.99036 0.703404 0
M  V30 2356 O 215.33 -2.26821 -0.27648 0
M  V30 2357 C 215.54 -1.417 3.18939 0
M  V30 2358 C 216.888 -1.87774 3.80823 0
M  V30 2359 O 217.912 -1.51427 3.2241 0
M  V30 2360 O 216.771 -2.54827 4.83452 0
M  V30 2361 H 213.865 -0.416713 0.714338 0
M  V30 2362 H 216.411 -0.125618 1.69234 0
M  V30 2363 H 215.183 -0.619902 3.86359 0
M  V30 2364 H 214.806 -2.23546 3.28805 0
M  V30 2365 N 215.803 -1.52179 -0.40978 0
M  V30 2366 C 216.713 -1.78364 -1.52392 0
M  V30 2367 C 217.729 -0.669183 -1.60617 0
M  V30 2368 O 218.905 -0.954518 -1.77344 0
M  V30 2369 C 215.97 -1.92822 -2.88133 0
M  V30 2370 C 215.031 -3.16725 -2.898 0
M  V30 2371 C 214.264 -3.30483 -4.19067 0
M  V30 2372 O 214.487 -2.49522 -5.12928 0
M  V30 2373 O 213.421 -4.2363 -4.27576 0
M  V30 2374 H 217.247 -2.72931 -1.33201 0
M  V30 2375 H 214.832 -1.37016 -0.59557 0
M  V30 2376 H 216.714 -2.04157 -3.68643 0
M  V30 2377 H 215.389 -1.01444 -3.07393 0
M  V30 2378 H 214.296 -3.10848 -2.08146 0
M  V30 2379 H 215.629 -4.07881 -2.75489 0
M  V30 2380 N 217.281 0.66697 -1.42791 0
M  V30 2381 C 218.228 1.7803 -1.4688 0
M  V30 2382 C 219.198 1.6299 -0.319919 0
M  V30 2383 O 220.383 1.83432 -0.525118 0
M  V30 2384 C 217.523 3.1611 -1.38451 0
M  V30 2385 C 216.636 3.42381 -2.63437 0
M  V30 2386 C 215.771 4.70232 -2.47094 0
M  V30 2387 C 214.81 4.89564 -3.67415 0
M  V30 2388 N 213.947 6.08661 -3.49966 0
M  V30 2389 H 218.787 1.7387 -2.42019 0
M  V30 2390 H 216.324 0.84868 -1.20149 0
M  V30 2391 H 218.282 3.95914 -1.31561 0
M  V30 2392 H 216.912 3.19374 -0.469033 0
M  V30 2393 H 215.964 2.56774 -2.80662 0
M  V30 2394 H 217.276 3.52557 -3.52853 0
M  V30 2395 H 216.43 5.5814 -2.37834 0
M  V30 2396 H 215.169 4.62353 -1.5518 0
M  V30 2397 H 214.174 4.00096 -3.77099 0
M  V30 2398 H 215.399 4.99282 -4.6032 0
M  V30 2399 H 213.345 6.0194 -2.60776 0
M  V30 2400 H 213.262 6.19733 -4.32975 0
M  V30 2401 H 214.53 6.99226 -3.44532 0
M  V30 2402 N 218.759 1.29093 0.90403 0
M  V30 2403 C 219.707 1.13727 2.02901 0
M  V30 2404 C 220.701 0.0539853 1.69314 0
M  V30 2405 O 221.907 0.213469 1.7873 0
M  V30 2406 H 218.282 0.35117 0.664969 0
M  V30 2407 H 220.253 2.08982 2.13001 0
M  V30 2408 C 219.002 0.826066 3.37745 0
M  V30 2409 H 218.325 1.65164 3.64089 0
M  V30 2410 H 219.765 0.758559 4.17159 0
M  V30 2411 C 218.224 -0.470541 3.33598 0
M  V30 2412 O 218.754 -1.49792 3.72727 0
M  V30 2413 N 216.96 -0.474812 2.86695 0
M  V30 2414 H 216.507 0.361692 2.55048 0
M  V30 2415 H 216.465 -1.34236 2.84303 0
M  V30 2416 N 220.237 -1.11381 1.11499 0
M  V30 2417 C 221.648 -1.6465 0.880191 0
M  V30 2418 C 221.999 -1.87199 -0.587434 0
M  V30 2419 O 221.124 -1.60667 -1.44966 0
M  V30 2420 C 221.719 -2.99105 1.59128 0
M  V30 2421 C 220.278 -3.49279 1.40289 0
M  V30 2422 C 219.425 -2.24077 1.63354 0
M  V30 2423 H 222.376 -0.950123 1.27116 0
M  V30 2424 H 222.397 -3.66107 1.03664 0
M  V30 2425 H 221.909 -2.82661 2.65941 0
M  V30 2426 H 220.01 -3.70887 0.356888 0
M  V30 2427 H 220.123 -4.2803 2.15238 0
M  V30 2428 H 218.487 -2.31733 1.05698 0
M  V30 2429 H 219.27 -2.10175 2.71443 0
M  V30 2430 N 221.715 -0.905404 -1.28997 0
M  V30 2431 C 222.945 -0.549049 -1.99171 0
M  V30 2432 C 223.353 0.87203 -1.67906 0
M  V30 2433 O 222.696 1.58796 -0.923561 0
M  V30 2434 C 222.758 -0.668306 -3.53234 0
M  V30 2435 C 222.422 -2.0574 -4.08069 0
M  V30 2436 C 223.419 -3.0292 -4.22534 0
M  V30 2437 C 221.104 -2.36833 -4.42962 0
M  V30 2438 C 223.098 -4.29314 -4.71135 0
M  V30 2439 C 220.785 -3.63467 -4.91258 0
M  V30 2440 C 221.783 -4.59522 -5.053 0
M  V30 2441 O 221.471 -5.83907 -5.52546 0
M  V30 2442 H 221.203 -0.208784 -0.64295 0
M  V30 2443 H 223.757 -1.21836 -1.65363 0
M  V30 2444 H 221.987 0.0580547 -3.86656 0
M  V30 2445 H 223.676 -0.320273 -4.04634 0
M  V30 2446 H 224.442 -2.80216 -3.95859 0
M  V30 2447 H 220.321 -1.62824 -4.31288 0
M  V30 2448 H 223.865 -5.04293 -4.8201 0
M  V30 2449 H 219.762 -3.86 -5.17372 0
M  V30 2450 H 220.53 -5.86578 -5.70849 0
M  V30 2451 N 223.193 1.4272 -0.668489 0
M  V30 2452 C 224.421 2.05966 -0.196348 0
M  V30 2453 C 224.836 1.50191 1.14403 0
M  V30 2454 O 224.193 0.639208 1.7094 0
M  V30 2455 C 224.244 3.61314 -0.115815 0
M  V30 2456 O 223.965 4.1502 -1.40322 0
M  V30 2457 C 225.466 4.41663 0.380579 0
M  V30 2458 H 222.686 0.663954 -0.0969829 0
M  V30 2459 H 225.23 1.82966 -0.913446 0
M  V30 2460 H 223.385 3.83448 0.551931 0
M  V30 2461 H 223.799 5.08832 -1.27243 0
M  V30 2462 H 225.273 5.5065 0.385848 0
M  V30 2463 H 225.75 4.15792 1.41471 0
M  V30 2464 H 226.356 4.24534 -0.255209 0
M  V30 2465 N 224.671 0.411399 1.52136 0
M  V30 2466 C 225.901 -0.16284 2.05957 0
M  V30 2467 C 226.309 -1.3922 1.28119 0
M  V30 2468 O 225.652 -1.80768 0.326881 0
M  V30 2469 C 225.714 -0.575946 3.54856 0
M  V30 2470 C 225.378 0.542998 4.53763 0
M  V30 2471 C 226.375 1.40726 5.00492 0
M  V30 2472 C 224.06 0.716337 4.97166 0
M  V30 2473 C 226.054 2.4298 5.8927 0
M  V30 2474 C 223.741 1.74218 5.8574 0
M  V30 2475 C 224.739 2.59731 6.31687 0
M  V30 2476 O 224.427 3.60558 7.18507 0
M  V30 2477 H 224.159 -0.0229125 0.675612 0
M  V30 2478 H 226.713 0.581634 1.96993 0
M  V30 2479 H 224.943 -1.37274 3.61515 0
M  V30 2480 H 226.632 -1.07836 3.91313 0
M  V30 2481 H 227.398 1.28476 4.67674 0
M  V30 2482 H 223.277 0.0603857 4.6096 0
M  V30 2483 H 226.821 3.0976 6.25055 0
M  V30 2484 H 222.718 1.86498 6.17971 0
M  V30 2485 H 223.486 3.56829 7.36624 0
M  V30 2486 N 226.149 -1.5696 0.141893 0
M  V30 2487 C 227.379 -2.00031 -0.516828 0
M  V30 2488 C 227.787 -1.02091 -1.59293 0
M  V30 2489 O 227.13 -0.00909657 -1.83698 0
M  V30 2490 C 227.192 -3.39534 -1.1814 0
M  V30 2491 C 226.856 -4.56313 -0.250513 0
M  V30 2492 C 227.853 -5.17295 0.519839 0
M  V30 2493 C 225.538 -5.02061 -0.154907 0
M  V30 2494 C 227.532 -6.2243 1.3733 0
M  V30 2495 C 225.219 -6.07053 0.702161 0
M  V30 2496 C 226.217 -6.67106 1.46487 0
M  V30 2497 O 225.905 -7.70066 2.30767 0
M  V30 2498 H 225.637 -0.661451 -0.139493 0
M  V30 2499 H 228.191 -2.04086 0.231926 0
M  V30 2500 H 226.421 -3.32302 -1.97769 0
M  V30 2501 H 228.11 -3.66745 -1.73933 0
M  V30 2502 H 228.876 -4.82852 0.45598 0
M  V30 2503 H 224.755 -4.5505 -0.7383 0
M  V30 2504 H 228.299 -6.69233 1.96909 0
M  V30 2505 H 224.196 -6.40923 0.76733 0
M  V30 2506 H 224.964 -7.87264 2.23959 0
M  V30 2507 N 227.627 0.131896 -1.57047 0
M  V30 2508 C 228.857 0.855219 -1.88068 0
M  V30 2509 C 229.265 1.74557 -0.729817 0
M  V30 2510 O 228.608 1.81083 0.308962 0
M  V30 2511 C 228.67 1.75119 -3.13964 0
M  V30 2512 C 228.334 1.03646 -4.45091 0
M  V30 2513 C 229.331 0.383276 -5.18485 0
M  V30 2514 C 227.016 1.02148 -4.91804 0
M  V30 2515 C 229.01 -0.275347 -6.36805 0
M  V30 2516 C 226.697 0.359047 -6.10044 0
M  V30 2517 C 227.695 -0.288222 -6.82392 0
M  V30 2518 O 227.383 -0.94011 -7.98384 0
M  V30 2519 H 227.115 0.251864 -0.627328 0
M  V30 2520 H 229.669 0.124782 -2.05021 0
M  V30 2521 H 227.899 2.52295 -2.9306 0
M  V30 2522 H 229.588 2.3478 -3.31109 0
M  V30 2523 H 230.354 0.386562 -4.83457 0
M  V30 2524 H 226.233 1.5147 -4.35405 0
M  V30 2525 H 229.777 -0.781148 -6.93213 0
M  V30 2526 H 225.674 0.35348 -6.44531 0
M  V30 2527 H 226.442 -0.84329 -8.14144 0
M  V30 2528 N 229.106 1.52395 0.401703 0
M  V30 2529 C 230.056 1.72649 1.48917 0
M  V30 2530 C 231.04 0.580436 1.50066 0
M  V30 2531 O 232.232 0.83779 1.55917 0
M  V30 2532 C 229.361 1.88729 2.86769 0
M  V30 2533 C 228.447 3.09228 2.90239 0
M  V30 2534 N 228.838 4.31805 2.63396 0
M  V30 2535 C 227.136 3.09214 3.21408 0
M  V30 2536 C 227.837 5.13326 2.73625 0
M  V30 2537 N 226.813 4.48735 3.06819 0
M  V30 2538 H 230.615 2.65058 1.26971 0
M  V30 2539 H 228.129 1.50528 0.609504 0
M  V30 2540 H 230.126 2.01358 3.65049 0
M  V30 2541 H 228.786 0.975252 3.09708 0
M  V30 2542 H 229.797 4.60154 2.37653 0
M  V30 2543 H 226.474 2.27774 3.49893 0
M  V30 2544 H 227.864 6.21003 2.56524 0
M  V30 2545 N 230.584 -0.659388 1.43143 0
M  V30 2546 C 231.83 -1.42145 1.44647 0
M  V30 2547 C 232.163 -1.9408 0.0681907 0
M  V30 2548 O 231.438 -1.71899 -0.910007 0
M  V30 2549 C 231.721 -2.60735 2.48373 0
M  V30 2550 C 231.574 -2.14332 3.95451 0
M  V30 2551 C 232.893 -3.62951 2.48906 0
M  V30 2552 H 230.012 -0.51552 0.526696 0
M  V30 2553 H 232.654 -0.748069 1.74654 0
M  V30 2554 H 230.804 -3.18184 2.22916 0
M  V30 2555 H 232.476 -1.61932 4.31944 0
M  V30 2556 H 230.719 -1.4576 4.08578 0
M  V30 2557 H 231.39 -2.99583 4.63631 0
M  V30 2558 H 233.866 -3.1525 2.71582 0
M  V30 2559 H 232.742 -4.43487 3.23435 0
M  V30 2560 H 233.003 -4.15126 1.52061 0
M  V30 2561 N 232.062 -1.29571 -0.897171 0
M  V30 2562 C 233.292 -1.20408 -1.67886 0
M  V30 2563 C 233.7 0.237429 -1.87704 0
M  V30 2564 O 233.043 1.17048 -1.41582 0
M  V30 2565 C 233.105 -1.84887 -3.08314 0
M  V30 2566 C 232.769 -3.34189 -3.11716 0
M  V30 2567 C 233.766 -4.30374 -2.91675 0
M  V30 2568 C 231.451 -3.75431 -3.33701 0
M  V30 2569 C 233.445 -5.65776 -2.93557 0
M  V30 2570 C 231.132 -5.10955 -3.35214 0
M  V30 2571 C 232.13 -6.05938 -3.15164 0
M  V30 2572 O 231.818 -7.38987 -3.1647 0
M  V30 2573 H 231.55 -0.418289 -0.531046 0
M  V30 2574 H 234.104 -1.71514 -1.13014 0
M  V30 2575 H 232.334 -1.28295 -3.64798 0
M  V30 2576 H 234.023 -1.70011 -3.6858 0
M  V30 2577 H 234.789 -3.99844 -2.74499 0
M  V30 2578 H 230.668 -3.01953 -3.48347 0
M  V30 2579 H 234.212 -6.39889 -2.77826 0
M  V30 2580 H 230.109 -5.4113 -3.51922 0
M  V30 2581 H 230.877 -7.47823 -3.3272 0
M  V30 2582 N 233.54 1.10788 -1.12088 0
M  V30 2583 C 234.45 2.20599 -0.798338 0
M  V30 2584 C 235.466 1.72712 0.21135 0
M  V30 2585 O 236.642 2.01348 0.0458477 0
M  V30 2586 C 233.707 3.45771 -0.253674 0
M  V30 2587 C 232.768 4.08411 -1.32283 0
M  V30 2588 C 232.001 5.27608 -0.80406 0
M  V30 2589 O 232.224 5.69241 0.363478 0
M  V30 2590 O 231.158 5.8101 -1.57198 0
M  V30 2591 H 234.984 2.50614 -1.7154 0
M  V30 2592 H 232.569 1.19454 -0.897275 0
M  V30 2593 H 234.451 4.21376 0.0453691 0
M  V30 2594 H 233.126 3.1739 0.636005 0
M  V30 2595 H 232.033 3.34507 -1.67499 0
M  V30 2596 H 233.366 4.40986 -2.18614 0
M  V30 2597 N 235.018 0.912232 1.28515 0
M  V30 2598 C 235.965 0.397954 2.27343 0
M  V30 2599 C 236.935 -0.526766 1.57526 0
M  V30 2600 O 238.12 -0.449292 1.85435 0
M  V30 2601 C 235.26 -0.357263 3.43246 0
M  V30 2602 C 234.373 0.599788 4.27816 0
M  V30 2603 C 233.508 -0.173725 5.30916 0
M  V30 2604 C 232.547 0.777039 6.07148 0
M  V30 2605 N 231.684 0.0371398 7.0209 0
M  V30 2606 H 236.524 1.24577 2.70711 0
M  V30 2607 H 234.061 0.625612 1.33133 0
M  V30 2608 H 236.019 -0.8113 4.09236 0
M  V30 2609 H 234.649 -1.16943 3.00872 0
M  V30 2610 H 233.701 1.17235 3.61884 0
M  V30 2611 H 235.013 1.32704 4.80823 0
M  V30 2612 H 234.167 -0.688394 6.02782 0
M  V30 2613 H 232.906 -0.934041 4.78672 0
M  V30 2614 H 231.911 1.3031 5.34134 0
M  V30 2615 H 233.136 1.53689 6.61481 0
M  V30 2616 H 231.082 -0.705213 6.52198 0
M  V30 2617 H 230.999 0.704249 7.52713 0
M  V30 2618 H 232.267 -0.457383 7.78157 0
M  V30 2619 N 236.496 -1.42363 0.676048 0
M  V30 2620 C 237.428 -2.29164 -0.0404605 0
M  V30 2621 C 238.441 -1.43747 -0.764245 0
M  V30 2622 O 239.63 -1.67453 -0.618195 0
M  V30 2623 C 236.73 -3.21196 -1.08103 0
M  V30 2624 C 235.903 -4.35273 -0.430812 0
M  V30 2625 C 234.962 -5.08017 -1.37133 0
M  V30 2626 O 233.988 -5.62494 -0.87116 0
M  V30 2627 N 235.19 -5.13647 -2.70456 0
M  V30 2628 H 237.955 -2.91298 0.704667 0
M  V30 2629 H 235.516 -1.53303 0.520559 0
M  V30 2630 H 237.508 -3.66728 -1.71152 0
M  V30 2631 H 236.078 -2.60505 -1.72788 0
M  V30 2632 H 235.298 -3.92372 0.379209 0
M  V30 2633 H 236.586 -5.08795 0.0221132 0
M  V30 2634 H 235.984 -4.708 -3.1363 0
M  V30 2635 H 234.541 -5.62821 -3.28749 0
M  V30 2636 N 237.974 -0.419461 -1.51915 0
M  V30 2637 C 238.906 0.43646 -2.25006 0
M  V30 2638 C 239.919 1.00149 -1.28351 0
M  V30 2639 O 241.108 0.898674 -1.54227 0
M  V30 2640 C 238.208 1.6206 -2.9764 0
M  V30 2641 C 237.381 1.17763 -4.21249 0
M  V30 2642 C 236.44 2.22985 -4.76617 0
M  V30 2643 O 235.466 1.83151 -5.38929 0
M  V30 2644 N 236.668 3.55271 -4.59089 0
M  V30 2645 H 239.433 -0.18989 -2.99098 0
M  V30 2646 H 236.994 -0.247386 -1.59999 0
M  V30 2647 H 238.986 2.32038 -3.31573 0
M  V30 2648 H 237.556 2.15266 -2.2667 0
M  V30 2649 H 236.776 0.305582 -3.93014 0
M  V30 2650 H 238.064 0.858781 -5.015 0
M  V30 2651 H 237.462 3.90377 -4.09417 0
M  V30 2652 H 236.019 4.21195 -4.97432 0
M  V30 2653 O 239.491 1.58856 -0.291037 0
M  V30 2654 H 240.182 1.91728 0.275667 0
M  V30 END ATOM
M  V30 BEGIN BOND
M  V30 END BOND
M  V30 END CTAB
M  END
$$$$
