drugbank_target|P21731 Thromboxane A2 receptor (DB01207; DB06739; DB09285)
 OpenBabel12092119393D

  0  0  0     0  0            999 V3000
M  V30 BEGIN CTAB
M  V30 COUNTS 5352 5416 0 0 0
M  V30 BEGIN ATOM
M  V30 1 H -0.908 1.98254 -0.117106 0
M  V30 2 N 0 1.576 0 0
M  V30 3 C 0.933 2.03868 1.02534 0
M  V30 4 C 1.911 0.928543 1.3348 0
M  V30 5 O 3.095 1.19667 1.45644 0
M  V30 6 C 0.222 2.43627 2.35294 0
M  V30 7 C -0.732 3.65373 2.2001 0
M  V30 8 S 0.101 5.13292 1.52614 0
M  V30 9 C 1.257 5.56322 2.86805 0
M  V30 10 H 1.49 2.90518 0.631377 0
M  V30 11 H -0.977 1.52953 0.210867 0
M  V30 12 H 0.981 2.67203 3.11629 0
M  V30 13 H -0.358 1.57376 2.7183 0
M  V30 14 H -1.165 3.90944 3.18086 0
M  V30 15 H -1.563 3.418 1.51819 0
M  V30 16 H 0.729 5.58782 3.83104 0
M  V30 17 H 1.672 6.56266 2.65933 0
M  V30 18 H 2.08 4.83886 2.90714 0
M  V30 19 N 1.4781 -0.272755 1.55222 0
M  V30 20 C 2.7241 -1.00172 1.77023 0
M  V30 21 C 3.0791 -1.83928 0.564633 0
M  V30 22 O 2.3721 -1.86416 -0.442674 0
M  V30 23 C 2.5661 -1.91642 3.01675 0
M  V30 24 C 2.3951 -1.16888 4.34243 0
M  V30 25 C 1.1651 -0.884464 4.97499 0
M  V30 26 C 3.3631 -0.55919 5.11251 0
M  V30 27 N 1.3451 -0.11015 6.13801 0
M  V30 28 C 2.7161 0.0809469 6.19947 0
M  V30 29 C 4.7711 -0.467058 4.95705 0
M  V30 30 C 3.4741 0.804335 7.14789 0
M  V30 31 C 5.5001 0.242739 5.90902 0
M  V30 32 C 4.8621 0.871613 6.98987 0
M  V30 33 H 0.9611 -0.348529 0.700037 0
M  V30 34 H 3.5451 -0.277365 1.92714 0
M  V30 35 H 1.7161 -2.61303 2.87359 0
M  V30 36 H 3.4481 -2.57901 3.1188 0
M  V30 37 H 0.2031 -1.18979 4.58411 0
M  V30 38 H 0.6271 0.264344 6.76484 0
M  V30 39 H 5.2691 -0.93894 4.12242 0
M  V30 40 H 2.9871 1.2879 7.97771 0
M  V30 41 H 6.5731 0.314347 5.8095 0
M  V30 42 H 5.4531 1.4121 7.71381 0
M  V30 43 N 2.9562 -1.48159 -0.537278 0
M  V30 44 C 4.3672 -1.49429 -1.11928 0
M  V30 45 C 4.7182 -0.26 -1.9447 0
M  V30 46 O 3.8432 0.633489 -2.0692 0
M  V30 47 C 4.4382 -2.70758 -2.03656 0
M  V30 48 C 2.9972 -2.74923 -2.57088 0
M  V30 49 C 2.1442 -2.42835 -1.3389 0
M  V30 50 H 5.0952 -1.55381 -0.322886 0
M  V30 51 H 5.1162 -2.48861 -2.87834 0
M  V30 52 H 4.6282 -3.60575 -1.43553 0
M  V30 53 H 2.7292 -1.89296 -3.20933 0
M  V30 54 H 2.8422 -3.76157 -2.9672 0
M  V30 55 H 1.2062 -1.93836 -1.65226 0
M  V30 56 H 1.9892 -3.34884 -0.755504 0
M  V30 57 N 4.4343 0.785586 -1.36625 0
M  V30 58 C 5.3823 1.91978 -1.31329 0
M  V30 59 C 6.3763 1.68162 -0.204416 0
M  V30 60 O 7.5823 1.76122 -0.371645 0
M  V30 61 H 3.9573 0.631087 -0.408942 0
M  V30 62 H 5.9283 1.93562 -2.27104 0
M  V30 63 C 4.6773 3.29055 -1.12329 0
M  V30 64 H 4.0003 3.4795 -1.96903 0
M  V30 65 H 5.4403 4.08756 -1.12671 0
M  V30 66 C 3.8993 3.36461 0.171861 0
M  V30 67 O 4.4293 3.84576 1.16035 0
M  V30 68 N 2.6353 2.89782 0.217846 0
M  V30 69 H 2.1823 2.50819 -0.587183 0
M  V30 70 H 2.1403 2.95119 1.08408 0
M  V30 71 N 5.9124 1.20967 1.01018 0
M  V30 72 C 7.1604 1.02172 1.74371 0
M  V30 73 C 7.4814 -0.446414 1.89821 0
M  V30 74 O 6.7514 -1.32234 1.44537 0
M  V30 75 H 5.3314 0.375066 0.646014 0
M  V30 76 H 7.9934 1.52187 1.21758 0
M  V30 77 H 7.0894 1.48538 2.74487 0
M  V30 78 N 7.3905 -1.2043 1.01659 0
M  V30 79 C 8.6155 -1.94318 0.724942 0
M  V30 80 C 9.0405 -1.74266 -0.708034 0
M  V30 81 O 8.3985 -1.03694 -1.48719 0
M  V30 82 C 8.4465 -3.44486 1.06591 0
M  V30 83 O 7.5505 -4.12017 0.177599 0
M  V30 84 H 6.8915 -0.60708 0.26898 0
M  V30 85 H 9.4215 -1.52861 1.35995 0
M  V30 86 H 9.4315 -3.95106 1.01762 0
M  V30 87 H 8.1065 -3.58404 2.10997 0
M  V30 88 H 6.6835 -3.71821 0.283421 0
M  V30 89 N 8.8686 -0.792821 -1.36206 0
M  V30 90 C 10.0936 -0.377701 -2.03932 0
M  V30 91 C 10.5186 0.998947 -1.59382 0
M  V30 92 O 9.8766 1.64421 -0.763903 0
M  V30 93 C 9.9246 -0.453635 -3.57735 0
M  V30 94 O 9.0286 0.538151 -4.08874 0
M  V30 95 H 8.3696 -0.159855 -0.644471 0
M  V30 96 H 10.8996 -1.07488 -1.7409 0
M  V30 97 H 10.9096 -0.318464 -4.06755 0
M  V30 98 H 9.5846 -1.45784 -3.89512 0
M  V30 99 H 8.1616 0.364359 -3.71116 0
M  V30 100 N 10.3467 1.47872 -0.545128 0
M  V30 101 C 11.2767 2.32661 0.197793 0
M  V30 102 C 12.2577 1.43041 0.920504 0
M  V30 103 O 13.4427 1.71912 0.90333 0
M  V30 104 C 10.5727 3.24569 1.23582 0
M  V30 105 C 9.5267 4.23333 0.630323 0
M  V30 106 C 8.8527 5.0448 1.77211 0
M  V30 107 C 10.1527 5.20704 -0.407974 0
M  V30 108 H 11.8467 2.95024 -0.510045 0
M  V30 109 H 9.3927 1.4187 -0.246731 0
M  V30 110 H 11.3457 3.8272 1.76362 0
M  V30 111 H 10.0697 2.60236 1.97344 0
M  V30 112 H 8.7287 3.6639 0.123922 0
M  V30 113 H 8.3767 4.36561 2.49847 0
M  V30 114 H 8.0767 5.71339 1.37281 0
M  V30 115 H 9.6007 5.65487 2.3034 0
M  V30 116 H 11.0147 5.7329 0.033305 0
M  V30 117 H 9.4117 5.95699 -0.725486 0
M  V30 118 H 10.4817 4.66917 -1.30828 0
M  V30 119 N 11.8248 0.280983 1.55075 0
M  V30 120 C 13.0728 -0.333455 1.9933 0
M  V30 121 C 13.3938 -1.55937 1.17085 0
M  V30 122 O 12.6638 -1.94143 0.261805 0
M  V30 123 H 11.2438 -0.126197 0.736263 0
M  V30 124 H 13.9058 0.387678 1.91005 0
M  V30 125 H 13.0018 -0.619292 3.05894 0
M  V30 126 N 13.3029 -1.57598 0.00835791 0
M  V30 127 C 14.7139 -1.7892 -0.53333 0
M  V30 128 C 15.0649 -0.916609 -1.73473 0
M  V30 129 O 14.1899 -0.121336 -2.1606 0
M  V30 130 C 14.7849 -3.24488 -0.974313 0
M  V30 131 C 13.3439 -3.46878 -1.46125 0
M  V30 132 C 12.4909 -2.74157 -0.416302 0
M  V30 133 H 15.4419 -1.56958 0.234495 0
M  V30 134 H 15.4629 -3.3306 -1.83988 0
M  V30 135 H 14.9749 -3.87972 -0.099718 0
M  V30 136 H 13.0759 -2.8862 -2.35646 0
M  V30 137 H 13.1889 -4.55572 -1.48295 0
M  V30 138 H 11.5529 -2.39022 -0.87981 0
M  V30 139 H 12.3359 -3.40345 0.44947 0
M  V30 140 N 14.781 0.264519 -1.55364 0
M  V30 141 C 16.021 1.00254 -1.78125 0
M  V30 142 C 16.385 1.83187 -0.575017 0
M  V30 143 O 17.586 2.60029 -0.681042 0
M  V30 144 C 15.857 1.85478 -3.05504 0
M  V30 145 S 17.416 2.6543 -3.49417 0
M  V30 146 H 14.234 0.337522 -0.625779 0
M  V30 147 H 16.836 0.272111 -1.93597 0
M  V30 148 H 15.54 1.23491 -3.9138 0
M  V30 149 H 15.071 2.62827 -2.92721 0
M  V30 150 H 17.086 3.87958 -3.09359 0
M  V30 151 N 16.2591 1.48442 0.529413 0
M  V30 152 C 17.5061 1.56488 1.28521 0
M  V30 153 C 17.8341 0.239042 1.93025 0
M  V30 154 O 17.0891 -0.770713 1.79885 0
M  V30 155 C 17.3881 2.6523 2.39558 0
M  V30 156 C 17.0541 4.07648 1.92702 0
M  V30 157 C 15.7161 4.46411 1.79641 0
M  V30 158 C 18.0681 4.96896 1.573 0
M  V30 159 C 15.3961 5.72226 1.29514 0
M  V30 160 C 17.7481 6.23202 1.08636 0
M  V30 161 C 16.4121 6.60821 0.941919 0
M  V30 162 H 15.6821 0.572631 0.470292 0
M  V30 163 H 18.3291 1.82161 0.59072 0
M  V30 164 H 16.6341 2.33419 3.14679 0
M  V30 165 H 18.3311 2.68671 2.97686 0
M  V30 166 H 14.9211 3.77036 2.03819 0
M  V30 167 H 19.1051 4.67626 1.66251 0
M  V30 168 H 14.3611 6.00097 1.17019 0
M  V30 169 H 18.5351 6.91753 0.803136 0
M  V30 170 H 16.1621 7.58198 0.5513 0
M  V30 171 N 17.7372 -0.778329 1.37039 0
M  V30 172 C 19.1532 -1.07796 1.17695 0
M  V30 173 C 19.3532 -2.01498 0.00860115 0
M  V30 174 O 18.4092 -2.43901 -0.653352 0
M  V30 175 C 19.7222 -1.68178 2.49272 0
M  V30 176 C 21.2702 -1.80467 2.55735 0
M  V30 177 C 21.7452 -2.44263 3.87427 0
M  V30 178 N 23.2362 -2.51721 3.88833 0
M  V30 179 C 23.9712 -3.01919 4.87476 0
M  V30 180 N 23.4672 -3.5234 5.96513 0
M  V30 181 N 25.2602 -3.00733 4.74885 0
M  V30 182 H 17.4112 -0.156032 2.11826 0
M  V30 183 H 19.6742 -0.131844 0.938787 0
M  V30 184 H 19.3802 -1.06796 3.35093 0
M  V30 185 H 19.2542 -2.67554 2.65885 0
M  V30 186 H 21.6412 -2.40984 1.70325 0
M  V30 187 H 21.7222 -0.798656 2.43013 0
M  V30 188 H 21.3662 -1.84388 4.73248 0
M  V30 189 H 21.2962 -3.45458 3.9745 0
M  V30 190 H 23.7872 -2.1603 3.10063 0
M  V30 191 H 24.1002 -3.89027 6.67741 0
M  V30 192 H 22.4452 -3.50462 6.00168 0
M  V30 193 H 25.6362 -2.60638 3.88826 0
M  V30 194 H 25.8092 -3.39545 5.51918 0
M  V30 195 N 19.2153 -1.21501 -1.00376 0
M  V30 196 C 20.6263 -1.03146 -1.55621 0
M  V30 197 C 20.9773 0.408375 -1.91903 0
M  V30 198 O 20.1023 1.29177 -1.73616 0
M  V30 199 C 20.6973 -1.86612 -2.82775 0
M  V30 200 C 19.2563 -1.72586 -3.34501 0
M  V30 201 C 18.4033 -1.83747 -2.07683 0
M  V30 202 H 21.3543 -1.35505 -0.826081 0
M  V30 203 H 21.3753 -1.3771 -3.54706 0
M  V30 204 H 20.8873 -2.91399 -2.56336 0
M  V30 205 H 18.9883 -0.704877 -3.65872 0
M  V30 206 H 19.1013 -2.54623 -4.05837 0
M  V30 207 H 17.4653 -1.27069 -2.20739 0
M  V30 208 H 18.2483 -2.90044 -1.83655 0
M  V30 209 N 20.6934 1.19889 -1.02296 0
M  V30 210 C 21.9214 1.9339 -0.735399 0
M  V30 211 C 22.3364 1.75148 0.704887 0
M  V30 212 O 21.6934 1.06954 1.47875 0
M  V30 213 C 21.7444 3.45313 -1.06962 0
M  V30 214 O 21.4654 3.62964 -2.45334 0
M  V30 215 C 22.9664 4.35948 -0.804021 0
M  V30 216 H 20.1864 0.61448 -0.269546 0
M  V30 217 H 22.7304 1.522 -1.36585 0
M  V30 218 H 20.8854 3.84359 -0.484455 0
M  V30 219 H 21.2994 4.56886 -2.57595 0
M  V30 220 H 22.7734 5.41174 -1.0879 0
M  V30 221 H 23.2504 4.3842 0.261691 0
M  V30 222 H 23.8564 4.02574 -1.37164 0
M  V30 223 N 22.1715 0.800033 1.35784 0
M  V30 224 C 23.1195 0.193851 2.31791 0
M  V30 225 C 24.1135 -0.652744 1.56319 0
M  V30 226 O 25.3195 -0.546641 1.71499 0
M  V30 227 H 21.6945 0.04392 0.750716 0
M  V30 228 H 23.6655 1.01883 2.80468 0
M  V30 229 C 22.4145 -0.648338 3.41602 0
M  V30 230 H 21.7375 -0.00624665 3.998 0
M  V30 231 H 23.1775 -1.03898 4.11073 0
M  V30 232 C 21.6365 -1.8111 2.84079 0
M  V30 233 O 22.1665 -2.90825 2.77099 0
M  V30 234 N 20.3725 -1.62056 2.41218 0
M  V30 235 H 19.9195 -0.728123 2.47095 0
M  V30 236 H 19.8775 -2.40013 2.03079 0
M  V30 237 N 23.6496 -1.47581 0.552962 0
M  V30 238 C 24.8986 -2.01684 0.0251995 0
M  V30 239 C 25.2116 -1.43317 -1.33115 0
M  V30 240 O 26.4176 -1.89057 -1.94858 0
M  V30 241 C 24.8736 -3.599 -0.00542052 0
M  V30 242 C 24.4816 -4.27257 1.34742 0
M  V30 243 C 26.2256 -4.21768 -0.4808 0
M  V30 244 C 24.1326 -5.77467 1.27614 0
M  V30 245 H 23.0626 -0.753979 0.00565033 0
M  V30 246 H 25.7136 -1.69616 0.70018 0
M  V30 247 H 24.0956 -3.88911 -0.745961 0
M  V30 248 H 25.2696 -4.09893 2.10534 0
M  V30 249 H 23.5846 -3.77358 1.76039 0
M  V30 250 H 26.1816 -5.31838 -0.55246 0
M  V30 251 H 26.5246 -3.88651 -1.49184 0
M  V30 252 H 27.0576 -3.97273 0.204752 0
M  V30 253 H 23.7966 -6.15196 2.26304 0
M  V30 254 H 23.3166 -5.9718 0.55996 0
M  V30 255 H 24.9956 -6.3959 0.976421 0
M  V30 256 N 25.1277 -0.289203 -1.54924 0
M  V30 257 C 26.3557 0.326463 -2.04308 0
M  V30 258 C 26.7707 1.48413 -1.16701 0
M  V30 259 O 26.1277 1.81507 -0.190087 0
M  V30 260 C 26.1787 0.794014 -3.52672 0
M  V30 261 O 25.8997 -0.317564 -4.36948 0
M  V30 262 C 27.4007 1.47605 -4.18004 0
M  V30 263 H 24.6207 0.0726272 -0.667058 0
M  V30 264 H 27.1647 -0.425401 -2.00026 0
M  V30 265 H 25.3197 1.49593 -3.57352 0
M  V30 266 H 25.7337 0.0443186 -5.24481 0
M  V30 267 H 27.2077 1.75447 -5.23376 0
M  V30 268 H 27.6847 2.41224 -3.67025 0
M  V30 269 H 28.2907 0.81762 -4.17367 0
M  V30 270 N 26.6058 1.57591 -0.0167156 0
M  V30 271 C 27.5358 2.12496 0.967858 0
M  V30 272 C 28.5168 1.03807 1.34752 0
M  V30 273 O 29.7018 1.31577 1.42833 0
M  V30 274 C 26.8318 2.64194 2.25431 0
M  V30 275 C 25.7858 3.77559 2.01576 0
M  V30 276 C 25.1118 4.15636 3.36379 0
M  V30 277 C 26.4118 5.04151 1.36489 0
M  V30 278 H 28.1058 2.95013 0.510643 0
M  V30 279 H 25.6518 1.41915 0.244181 0
M  V30 280 H 27.6048 3.01236 2.94678 0
M  V30 281 H 26.3288 1.78821 2.73296 0
M  V30 282 H 24.9878 3.40937 1.34751 0
M  V30 283 H 24.6358 3.27263 3.81979 0
M  V30 284 H 24.3358 4.92022 3.21229 0
M  V30 285 H 25.8598 4.5525 4.06915 0
M  V30 286 H 27.2738 5.38857 1.95718 0
M  V30 287 H 25.6708 5.85453 1.31776 0
M  V30 288 H 26.7408 4.83733 0.336219 0
M  V30 289 N 28.0839 -0.256276 1.55502 0
M  V30 290 C 28.9939 -1.33882 1.92647 0
M  V30 291 C 30.0099 -1.53159 0.825727 0
M  V30 292 O 31.1859 -1.66963 1.12629 0
M  V30 293 C 28.2509 -2.6751 2.20543 0
M  V30 294 C 27.3119 -2.56836 3.43997 0
M  V30 295 C 26.5449 -3.84092 3.70553 0
M  V30 296 O 26.7679 -4.85545 2.99336 0
M  V30 297 O 25.7019 -3.83288 4.64084 0
M  V30 298 H 29.5279 -1.05374 2.84833 0
M  V30 299 H 27.1129 -0.456237 1.42263 0
M  V30 300 H 28.9949 -3.46492 2.39835 0
M  V30 301 H 27.6699 -2.9577 1.31536 0
M  V30 302 H 26.5769 -1.76172 3.30021 0
M  V30 303 H 27.9099 -2.33523 4.33275 0
M  V30 304 N 29.562 -1.4872 -0.521534 0
M  V30 305 C 30.472 -1.66569 -1.65203 0
M  V30 306 C 31.488 -0.548197 -1.65139 0
M  V30 307 O 32.664 -0.820339 -1.83936 0
M  V30 308 C 29.729 -1.70917 -3.01642 0
M  V30 309 C 28.79 -2.94356 -3.12495 0
M  V30 310 C 28.023 -2.98487 -4.42426 0
M  V30 311 O 28.246 -2.10786 -5.30024 0
M  V30 312 O 27.18 -3.90746 -4.57822 0
M  V30 313 H 31.006 -2.62298 -1.5308 0
M  V30 314 H 28.591 -1.3222 -0.695565 0
M  V30 315 H 30.473 -1.7625 -3.82771 0
M  V30 316 H 29.148 -0.783633 -3.14071 0
M  V30 317 H 28.055 -2.94552 -2.3063 0
M  V30 318 H 29.388 -3.86322 -3.04986 0
M  V30 319 N 31.0401 0.771051 -1.3745 0
M  V30 320 C 32.4561 1.07171 -1.18265 0
M  V30 321 C 32.6561 2.01491 -0.019287 0
M  V30 322 O 31.7121 2.44244 0.640408 0
M  V30 323 C 33.0251 1.66854 -2.50161 0
M  V30 324 C 34.5731 1.79109 -2.56689 0
M  V30 325 C 35.0481 2.42205 -3.88717 0
M  V30 326 N 36.5391 2.49655 -3.90162 0
M  V30 327 C 37.2741 2.9933 -4.8907 0
M  V30 328 N 36.7701 3.49172 -5.98374 0
M  V30 329 N 38.5631 2.9821 -4.76474 0
M  V30 330 H 30.7141 0.144796 -2.11906 0
M  V30 331 H 32.9771 0.126863 -0.939473 0
M  V30 332 H 32.6831 1.05017 -3.35655 0
M  V30 333 H 32.5571 2.6614 -2.673 0
M  V30 334 H 34.9441 2.40077 -1.71601 0
M  V30 335 H 35.0251 0.785757 -2.43433 0
M  V30 336 H 34.6691 1.81875 -4.74219 0
M  V30 337 H 34.5991 3.43345 -3.99276 0
M  V30 338 H 37.0901 2.14383 -3.11205 0
M  V30 339 H 37.4031 3.8548 -6.69795 0
M  V30 340 H 35.7481 3.47275 -6.02018 0
M  V30 341 H 38.9391 2.58572 -3.90203 0
M  V30 342 H 39.1121 3.36613 -5.53711 0
M  V30 343 N 32.5182 1.22032 0.997298 0
M  V30 344 C 33.9342 0.979326 1.26021 0
M  V30 345 C 34.1342 -0.32972 1.98784 0
M  V30 346 O 33.1902 -1.05345 2.29475 0
M  V30 347 C 34.5032 2.17509 2.07631 0
M  V30 348 C 36.0512 2.21817 2.2083 0
M  V30 349 C 36.5262 3.40933 3.05825 0
M  V30 350 N 38.0172 3.41067 3.13412 0
M  V30 351 C 38.7522 4.29885 3.79455 0
M  V30 352 N 38.2482 5.28914 4.47462 0
M  V30 353 N 40.0412 4.17673 3.76173 0
M  V30 354 H 32.1922 2.06202 0.509352 0
M  V30 355 H 34.4552 0.90334 0.287541 0
M  V30 356 H 34.1612 3.12415 1.61524 0
M  V30 357 H 34.0352 2.17206 3.08385 0
M  V30 358 H 36.4222 1.27462 2.66153 0
M  V30 359 H 36.5032 2.2616 1.1952 0
M  V30 360 H 36.1472 4.35586 2.61203 0
M  V30 361 H 36.0772 3.33829 4.07266 0
M  V30 362 H 38.5682 2.69406 2.65007 0
M  V30 363 H 38.8812 5.92973 4.95583 0
M  V30 364 H 37.2262 5.32831 4.46224 0
M  V30 365 H 40.4172 3.39564 3.22202 0
M  V30 366 H 40.5902 4.87098 4.27363 0
M  V30 367 N 33.9963 -1.19345 1.0293 0
M  V30 368 C 34.9263 -2.2481 0.631105 0
M  V30 369 C 35.9073 -1.66245 -0.360104 0
M  V30 370 O 37.0923 -1.92677 -0.242726 0
M  V30 371 C 34.2223 -3.47295 -0.0184607 0
M  V30 372 C 33.1763 -4.18536 0.895073 0
M  V30 373 C 32.5023 -5.34586 0.110592 0
M  V30 374 C 33.8023 -4.73287 2.209 0
M  V30 375 H 35.4963 -2.58372 1.51275 0
M  V30 376 H 33.0423 -1.24194 0.728818 0
M  V30 377 H 34.9953 -4.20268 -0.308675 0
M  V30 378 H 33.7193 -3.12933 -0.934907 0
M  V30 379 H 32.3783 -3.47446 1.16949 0
M  V30 380 H 32.0263 -4.96469 -0.807902 0
M  V30 381 H 31.7263 -5.83183 0.719087 0
M  V30 382 H 33.2503 -6.10355 -0.172871 0
M  V30 383 H 34.6643 -5.38013 1.98028 0
M  V30 384 H 33.0613 -5.32373 2.76946 0
M  V30 385 H 34.1313 -3.91331 2.86336 0
M  V30 386 N 35.4744 -0.807222 -1.35358 0
M  V30 387 C 36.7234 -0.384376 -1.98004 0
M  V30 388 C 37.0364 1.0543 -1.64754 0
M  V30 389 O 38.2424 1.58029 -2.20769 0
M  V30 390 C 36.6984 -0.636326 -3.5423 0
M  V30 391 C 36.3064 -2.08759 -3.96388 0
M  V30 392 C 38.0504 -0.278869 -4.23583 0
M  V30 393 C 35.9574 -2.28525 -5.45463 0
M  V30 394 H 34.8874 -0.139986 -0.740891 0
M  V30 395 H 37.5384 -0.991369 -1.54415 0
M  V30 396 H 35.9204 0.0406256 -3.95979 0
M  V30 397 H 37.0944 -2.8024 -3.6579 0
M  V30 398 H 35.4094 -2.40497 -3.39926 0
M  V30 399 H 38.0064 -0.404599 -5.33167 0
M  V30 400 H 38.3494 0.775012 -4.09022 0
M  V30 401 H 38.8824 -0.909764 -3.87257 0
M  V30 402 H 35.6214 -3.32361 -5.64992 0
M  V30 403 H 35.1414 -1.61569 -5.77629 0
M  V30 404 H 36.8204 -2.10109 -6.11934 0
M  V30 405 N 36.9525 1.47285 -0.560781 0
M  V30 406 C 37.9155 2.28535 0.174488 0
M  V30 407 C 38.9155 1.37153 0.839388 0
M  V30 408 O 40.1055 1.59748 0.694702 0
M  V30 409 C 37.2375 3.16934 1.25561 0
M  V30 410 H 38.4305 2.95012 -0.539262 0
M  V30 411 H 35.9835 1.53034 -0.317865 0
M  V30 412 H 36.7185 2.55157 2.00164 0
M  V30 413 H 36.5035 3.8419 0.783604 0
M  V30 414 H 37.9935 3.78143 1.77193 0
M  V30 415 N 38.4306 0.297415 1.54768 0
M  V30 416 C 39.6556 -0.318435 2.04941 0
M  V30 417 C 40.0806 -1.4701 1.17345 0
M  V30 418 O 39.4386 -1.80436 0.176758 0
M  V30 419 C 39.4866 -0.755749 3.52592 0
M  V30 420 O 38.5906 -1.86088 3.68028 0
M  V30 421 H 37.9316 -0.062421 0.661059 0
M  V30 422 H 40.4616 0.438215 1.99852 0
M  V30 423 H 40.4716 -1.04552 3.94376 0
M  V30 424 H 39.1466 0.0867233 4.1581 0
M  V30 425 H 37.7236 -1.57193 3.38149 0
M  V30 426 N 39.9087 -1.5758 0.0250728 0
M  V30 427 C 41.3197 -1.79476 -0.514323 0
M  V30 428 C 41.6707 -0.934956 -1.72491 0
M  V30 429 O 40.7957 -0.144245 -2.15919 0
M  V30 430 C 41.3907 -3.25503 -0.939842 0
M  V30 431 C 39.9497 -3.48408 -1.42438 0
M  V30 432 C 39.0967 -2.74583 -0.387201 0
M  V30 433 H 42.0477 -1.567 0.25113 0
M  V30 434 H 42.0687 -3.34992 -1.80445 0
M  V30 435 H 41.5807 -3.88056 -0.0585628 0
M  V30 436 H 39.6817 -2.91103 -2.32572 0
M  V30 437 H 39.7947 -4.57119 -1.43455 0
M  V30 438 H 38.1587 -2.39942 -0.854409 0
M  V30 439 H 38.9417 -3.39849 0.485543 0
M  V30 440 N 41.3868 0.248026 -1.55636 0
M  V30 441 C 42.6328 0.973427 -1.78594 0
M  V30 442 C 42.9878 1.83007 -0.593823 0
M  V30 443 O 42.2808 1.87097 0.412961 0
M  V30 444 C 42.4748 1.86819 -3.04686 0
M  V30 445 C 42.3038 1.09965 -4.36048 0
M  V30 446 C 41.0738 0.805204 -4.98843 0
M  V30 447 C 43.2718 0.477783 -5.12076 0
M  V30 448 N 41.2538 0.0124859 -6.13899 0
M  V30 449 C 42.6248 -0.179565 -6.1974 0
M  V30 450 C 44.6798 0.388136 -4.96385 0
M  V30 451 C 43.3828 -0.91795 -7.13419 0
M  V30 452 C 45.4088 -0.336716 -5.90441 0
M  V30 453 C 44.7708 -0.982705 -6.97511 0
M  V30 454 H 40.8698 0.337348 -0.705493 0
M  V30 455 H 43.4538 0.24667 -1.93131 0
M  V30 456 H 41.6248 2.56698 -2.9148 0
M  V30 457 H 43.3568 2.52907 -3.15944 0
M  V30 458 H 40.1118 1.11671 -4.60246 0
M  V30 459 H 40.5358 -0.371933 -6.75978 0
M  V30 460 H 45.1778 0.873237 -4.13684 0
M  V30 461 H 42.8958 -1.41466 -7.95621 0
M  V30 462 H 46.4818 -0.406731 -5.80377 0
M  V30 463 H 45.3618 -1.53464 -7.69037 0
M  V30 464 N 42.8649 1.48995 0.513639 0
M  V30 465 C 44.1119 1.57843 1.26854 0
M  V30 466 C 44.4399 0.259501 1.92761 0
M  V30 467 O 43.6949 -0.75159 1.80692 0
M  V30 468 C 43.9939 2.67756 2.36731 0
M  V30 469 C 43.6599 4.09669 1.88368 0
M  V30 470 C 42.3219 4.48291 1.74896 0
M  V30 471 C 44.6739 4.98537 1.52021 0
M  V30 472 C 42.0019 5.73568 1.23438 0
M  V30 473 C 44.3539 6.24319 1.0202 0
M  V30 474 C 43.0179 6.61783 0.871778 0
M  V30 475 H 42.2879 0.577587 0.464192 0
M  V30 476 H 44.9349 1.82778 0.571366 0
M  V30 477 H 43.2399 2.36743 3.12185 0
M  V30 478 H 44.9369 2.71813 2.9482 0
M  V30 479 H 41.5269 3.79176 1.99808 0
M  V30 480 H 45.7109 4.69363 1.61281 0
M  V30 481 H 40.9669 6.01304 1.10648 0
M  V30 482 H 45.1409 6.92566 0.729722 0
M  V30 483 H 42.7679 7.5874 0.470852 0
M  V30 484 N 44.343 -0.763751 1.37857 0
M  V30 485 C 45.306 -1.85889 1.34081 0
M  V30 486 C 46.306 -1.58949 0.243277 0
M  V30 487 O 47.496 -1.66882 0.499589 0
M  V30 488 C 44.628 -3.23176 1.08489 0
M  V30 489 H 45.821 -1.90648 2.31502 0
M  V30 490 H 43.374 -0.964367 1.23003 0
M  V30 491 H 44.109 -3.24091 0.116318 0
M  V30 492 H 43.894 -3.44124 1.8794 0
M  V30 493 H 45.384 -4.03254 1.08517 0
M  V30 494 N 45.8211 -1.22559 -0.990812 0
M  V30 495 C 46.7841 -0.998863 -2.0629 0
M  V30 496 C 47.7841 0.0354834 -1.60761 0
M  V30 497 O 48.9741 -0.203231 -1.7301 0
M  V30 498 C 46.1061 -0.509203 -3.37076 0
M  V30 499 H 47.2991 -1.95014 -2.27837 0
M  V30 500 H 44.8521 -1.04456 -1.16269 0
M  V30 501 H 45.5871 0.446335 -3.21214 0
M  V30 502 H 45.3721 -1.25547 -3.71457 0
M  V30 503 H 46.8621 -0.370888 -4.1595 0
M  V30 504 N 47.2992 1.18797 -1.03562 0
M  V30 505 C 48.5242 1.9314 -0.755764 0
M  V30 506 C 48.9492 1.7537 0.68022 0
M  V30 507 O 48.3072 1.06046 1.47051 0
M  V30 508 C 48.3552 3.42747 -1.12058 0
M  V30 509 O 47.4592 4.11683 -0.243124 0
M  V30 510 H 46.8002 0.602724 -0.278604 0
M  V30 511 H 49.3302 1.50678 -1.3841 0
M  V30 512 H 49.3402 3.93437 -1.08035 0
M  V30 513 H 48.0152 3.55002 -2.16672 0
M  V30 514 H 46.5922 3.71323 -0.342539 0
M  V30 515 N 48.7773 0.814389 1.34928 0
M  V30 516 C 50.0243 0.398423 1.98542 0
M  V30 517 C 50.3523 -1.03638 1.64589 0
M  V30 518 O 49.6073 -1.73509 0.90516 0
M  V30 519 C 49.9063 0.537781 3.53331 0
M  V30 520 C 49.5723 1.93704 4.07172 0
M  V30 521 C 48.2343 2.31984 4.21589 0
M  V30 522 C 50.5863 2.85213 4.36237 0
M  V30 523 C 47.9143 3.61125 4.62391 0
M  V30 524 C 50.2663 4.13809 4.78482 0
M  V30 525 C 48.9303 4.52077 4.91104 0
M  V30 526 H 48.2003 0.145793 0.726516 0
M  V30 527 H 50.8473 1.03669 1.61012 0
M  V30 528 H 49.1523 -0.183906 3.91368 0
M  V30 529 H 50.8493 0.196588 4.00518 0
M  V30 530 H 47.4393 1.62966 3.96409 0
M  V30 531 H 51.6233 2.56885 4.24645 0
M  V30 532 H 46.8793 3.90612 4.70353 0
M  V30 533 H 51.0533 4.84811 4.99932 0
M  V30 534 H 48.6803 5.52196 5.22478 0
M  V30 535 N 50.2554 -1.46986 0.568584 0
M  V30 536 C 51.4954 -2.04336 0.0512999 0
M  V30 537 C 51.8594 -1.43214 -1.27881 0
M  V30 538 O 53.0604 -1.91679 -1.88448 0
M  V30 539 C 51.3314 -3.57389 -0.0282328 0
M  V30 540 S 52.8904 -4.36056 -0.489991 0
M  V30 541 H 49.7084 -0.71034 0.0306349 0
M  V30 542 H 52.3104 -1.80212 0.757891 0
M  V30 543 H 51.0144 -3.99395 0.944011 0
M  V30 544 H 50.5454 -3.86028 -0.75803 0
M  V30 545 H 52.5604 -4.6441 -1.74752 0
M  V30 546 N 51.7335 -0.305618 -1.54608 0
M  V30 547 C 52.9795 0.302746 -2.00528 0
M  V30 548 C 53.3125 1.53184 -1.19367 0
M  V30 549 O 52.5875 1.92598 -0.271321 0
M  V30 550 C 52.8705 0.654756 -3.54097 0
M  V30 551 C 52.7235 -0.583793 -4.45995 0
M  V30 552 C 54.0425 1.47947 -4.14487 0
M  V30 553 H 51.1615 0.108564 -0.72896 0
M  V30 554 H 53.8035 -0.418634 -1.85331 0
M  V30 555 H 51.9535 1.26935 -3.67178 0
M  V30 556 H 53.6255 -1.22224 -4.44814 0
M  V30 557 H 51.8685 -1.21615 -4.16404 0
M  V30 558 H 52.5395 -0.293287 -5.5122 0
M  V30 559 H 55.0155 0.96013 -4.04871 0
M  V30 560 H 53.8915 1.69454 -5.22088 0
M  V30 561 H 54.1525 2.47011 -3.66658 0
M  V30 562 N 53.2116 1.57565 -0.0334293 0
M  V30 563 C 54.4576 1.92262 0.645226 0
M  V30 564 C 54.7906 0.910543 1.71531 0
M  V30 565 O 54.0656 -0.066099 1.94388 0
M  V30 566 C 54.3486 3.37422 1.2577 0
M  V30 567 C 54.2016 4.49369 0.196891 0
M  V30 568 C 55.5206 3.82628 2.17449 0
M  V30 569 H 52.6396 0.699171 0.233085 0
M  V30 570 H 55.2816 1.89779 -0.0915694 0
M  V30 571 H 53.4316 3.39669 1.88566 0
M  V30 572 H 55.1036 4.59254 -0.433962 0
M  V30 573 H 53.3466 4.31168 -0.477137 0
M  V30 574 H 54.0176 5.47978 0.665124 0
M  V30 575 H 56.4936 3.82145 1.64634 0
M  V30 576 H 55.3696 4.84883 2.57254 0
M  V30 577 H 55.6306 3.18376 3.0674 0
M  V30 578 N 54.6897 -0.239769 1.55765 0
M  V30 579 C 55.9377 -0.964892 1.77579 0
M  V30 580 C 56.2587 -1.85582 0.598699 0
M  V30 581 O 55.5287 -1.92075 -0.385226 0
M  V30 582 H 54.1087 -0.359265 0.654933 0
M  V30 583 H 56.7707 -0.256001 1.93211 0
M  V30 584 H 55.8667 -1.58243 2.69009 0
M  V30 585 N 56.1678 -1.49265 -0.50573 0
M  V30 586 C 57.0978 -1.68495 -1.61653 0
M  V30 587 C 58.0788 -0.53366 -1.61512 0
M  V30 588 O 59.2638 -0.76897 -1.78327 0
M  V30 589 C 56.3938 -1.74709 -3.00157 0
M  V30 590 C 55.3478 -2.89581 -3.15162 0
M  V30 591 C 54.6738 -2.80903 -4.5497 0
M  V30 592 C 55.9738 -4.30578 -2.95634 0
M  V30 593 H 57.6678 -2.61493 -1.45814 0
M  V30 594 H 55.2138 -1.25838 -0.70005 0
M  V30 595 H 57.1668 -1.86748 -3.77761 0
M  V30 596 H 55.8908 -0.783067 -3.17074 0
M  V30 597 H 54.5498 -2.77136 -2.39982 0
M  V30 598 H 54.1978 -1.82419 -4.68756 0
M  V30 599 H 53.8978 -3.57999 -4.65951 0
M  V30 600 H 55.4218 -2.94944 -5.34641 0
M  V30 601 H 56.8358 -4.4373 -3.63011 0
M  V30 602 H 55.2328 -5.0886 -3.18091 0
M  V30 603 H 56.3028 -4.45352 -1.91806 0
M  V30 604 N 57.6459 0.756429 -1.3826 0
M  V30 605 C 58.6089 1.85176 -1.35065 0
M  V30 606 C 59.6089 1.58818 -0.251703 0
M  V30 607 O 60.7989 1.66615 -0.508433 0
M  V30 608 C 57.9309 3.22596 -1.10201 0
M  V30 609 H 59.1239 1.89417 -2.3251 0
M  V30 610 H 56.6769 0.95783 -1.23512 0
M  V30 611 H 57.4119 3.24025 -0.133504 0
M  V30 612 H 57.1969 3.43122 -1.89762 0
M  V30 613 H 58.6869 4.02673 -1.10654 0
M  V30 614 N 59.124 1.23083 0.984299 0
M  V30 615 C 60.349 1.088 1.76571 0
M  V30 616 C 60.774 -0.356657 1.84688 0
M  V30 617 O 60.132 -1.25788 1.30565 0
M  V30 618 C 60.18 1.71371 3.17277 0
M  V30 619 O 59.284 0.973213 4.00752 0
M  V30 620 H 58.625 0.381599 0.543395 0
M  V30 621 H 61.155 1.63057 1.23587 0
M  V30 622 H 61.165 1.76449 3.67872 0
M  V30 623 H 59.84 2.76493 3.10684 0
M  V30 624 H 58.417 0.999078 3.59267 0
M  V30 625 N 60.6021 -1.18246 1.0419 0
M  V30 626 C 61.5501 -2.23968 0.627792 0
M  V30 627 C 62.5441 -1.65828 -0.346019 0
M  V30 628 O 63.7501 -1.78733 -0.213175 0
M  V30 629 H 60.1251 -0.728939 0.184802 0
M  V30 630 H 62.0961 -2.56202 1.52981 0
M  V30 631 C 60.8451 -3.47699 0.00796591 0
M  V30 632 H 60.1681 -3.92734 0.748347 0
M  V30 633 H 61.6081 -4.23294 -0.24455 0
M  V30 634 C 60.0671 -3.13153 -1.24246 0
M  V30 635 O 60.5971 -3.27003 -2.33307 0
M  V30 636 N 58.8031 -2.67467 -1.13622 0
M  V30 637 H 58.3501 -2.56396 -0.248734 0
M  V30 638 H 58.3081 -2.44724 -1.97377 0
M  V30 639 N 62.0802 -0.821533 -1.34494 0
M  V30 640 C 63.0102 -0.257138 -2.3208 0
M  V30 641 C 63.9912 0.625645 -1.58176 0
M  V30 642 O 65.1762 0.552811 -1.86166 0
M  V30 643 C 62.3062 0.582958 -3.42372 0
M  V30 644 C 61.2602 -0.202571 -4.2752 0
M  V30 645 C 60.5862 0.760179 -5.29269 0
M  V30 646 C 61.8862 -1.40998 -5.02908 0
M  V30 647 H 63.5802 -1.07247 -2.79532 0
M  V30 648 H 61.1262 -0.517163 -1.34393 0
M  V30 649 H 63.0792 0.987972 -4.09655 0
M  V30 650 H 61.8032 1.43133 -2.93565 0
M  V30 651 H 60.4622 -0.588936 -3.61838 0
M  V30 652 H 60.1102 1.60447 -4.76724 0
M  V30 653 H 59.8102 0.238809 -5.87115 0
M  V30 654 H 61.3342 1.16308 -5.9942 0
M  V30 655 H 62.7482 -1.07905 -5.63054 0
M  V30 656 H 61.1452 -1.86689 -5.70322 0
M  V30 657 H 62.2152 -2.1889 -4.32684 0
M  V30 658 N 63.5583 1.46682 -0.576371 0
M  V30 659 C 64.4883 2.33028 0.148397 0
M  V30 660 C 65.4693 1.44961 0.889956 0
M  V30 661 O 66.6543 1.73789 0.866662 0
M  V30 662 C 63.7843 3.27117 1.1667 0
M  V30 663 C 62.7383 4.24575 0.540386 0
M  V30 664 C 62.0643 5.08126 1.6647 0
M  V30 665 C 63.3643 5.19722 -0.518331 0
M  V30 666 H 65.0583 2.93875 -0.572509 0
M  V30 667 H 62.6043 1.41315 -0.276768 0
M  V30 668 H 64.5573 3.86374 1.68204 0
M  V30 669 H 63.2813 2.64364 1.9178 0
M  V30 670 H 61.9403 3.66571 0.0461769 0
M  V30 671 H 61.5883 4.41762 2.40531 0
M  V30 672 H 61.2883 5.74122 1.25131 0
M  V30 673 H 62.8123 5.70246 2.18293 0
M  V30 674 H 64.2263 5.73232 -0.0883058 0
M  V30 675 H 62.6233 5.94026 -0.851679 0
M  V30 676 H 63.6933 4.64037 -1.40703 0
M  V30 677 N 65.0364 0.313813 1.54444 0
M  V30 678 C 65.9994 -0.54379 2.22656 0
M  V30 679 C 66.9994 -1.05124 1.21678 0
M  V30 680 O 68.1894 -0.945225 1.46325 0
M  V30 681 C 65.3214 -1.75427 2.92298 0
M  V30 682 H 66.5144 0.0523599 2.99854 0
M  V30 683 H 64.0674 0.0647834 1.56166 0
M  V30 684 H 64.8024 -2.38991 2.19211 0
M  V30 685 H 64.5874 -1.39791 3.66334 0
M  V30 686 H 66.0774 -2.36325 3.44297 0
M  V30 687 N 66.5145 -1.57545 0.0417849 0
M  V30 688 C 67.4445 -2.14009 -0.933929 0
M  V30 689 C 68.4255 -1.05938 -1.33083 0
M  V30 690 O 69.6105 -1.33833 -1.40721 0
M  V30 691 C 66.7405 -2.67747 -2.21199 0
M  V30 692 C 65.6945 -3.80718 -1.95544 0
M  V30 693 C 65.0205 -4.20935 -3.29724 0
M  V30 694 C 66.3205 -5.06258 -1.28452 0
M  V30 695 H 68.0145 -2.95788 -0.463645 0
M  V30 696 H 65.5605 -1.42285 -0.221573 0
M  V30 697 H 67.5135 -3.05886 -2.89848 0
M  V30 698 H 66.2375 -1.83147 -2.70416 0
M  V30 699 H 64.8965 -3.43037 -1.2931 0
M  V30 700 H 64.5445 -3.33298 -3.76724 0
M  V30 701 H 64.2445 -4.9707 -3.13361 0
M  V30 702 H 65.7685 -4.61666 -3.9962 0
M  V30 703 H 67.1825 -5.41903 -1.8712 0
M  V30 704 H 65.5795 -5.87475 -1.22445 0
M  V30 705 H 66.6495 -4.84207 -0.259219 0
M  V30 706 N 67.9926 0.231505 -1.5589 0
M  V30 707 C 69.2176 0.978689 -1.82856 0
M  V30 708 C 69.6426 1.77559 -0.620846 0
M  V30 709 O 69.0006 1.76119 0.430305 0
M  V30 710 C 69.0486 1.87997 -3.07716 0
M  V30 711 O 68.1526 2.97393 -2.85712 0
M  V30 712 H 67.4936 0.277663 -0.603158 0
M  V30 713 H 70.0236 0.24783 -2.03093 0
M  V30 714 H 70.0336 2.2917 -3.37558 0
M  V30 715 H 68.7086 1.29417 -3.95252 0
M  V30 716 H 67.2856 2.60238 -2.67078 0
M  V30 717 N 69.4707 1.49531 0.497807 0
M  V30 718 C 70.7167 1.59415 1.25358 0
M  V30 719 C 71.0497 0.281422 1.9215 0
M  V30 720 O 70.3247 -0.715249 1.80871 0
M  V30 721 C 70.6077 2.75566 2.3181 0
M  V30 722 C 70.4607 4.16642 1.69498 0
M  V30 723 C 71.7797 2.87347 3.33346 0
M  V30 724 H 68.8987 0.580244 0.454408 0
M  V30 725 H 71.5407 1.81827 0.551262 0
M  V30 726 H 69.6907 2.56587 2.91711 0
M  V30 727 H 71.3627 4.47145 1.13399 0
M  V30 728 H 69.6057 4.22141 0.998978 0
M  V30 729 H 70.2767 4.93792 2.46725 0
M  V30 730 H 72.7527 3.04634 2.83438 0
M  V30 731 H 71.6287 3.70289 4.05188 0
M  V30 732 H 71.8897 1.96834 3.95865 0
M  V30 733 N 70.9488 -0.749086 1.3866 0
M  V30 734 C 71.8788 -1.8764 1.38973 0
M  V30 735 C 72.8598 -1.68178 0.255004 0
M  V30 736 O 74.0448 -1.88704 0.458754 0
M  V30 737 C 71.1748 -3.25222 1.21851 0
M  V30 738 C 70.1288 -3.59295 2.32575 0
M  V30 739 C 69.4548 -4.95663 2.00555 0
M  V30 740 C 70.7548 -3.63709 3.7485 0
M  V30 741 H 72.4488 -1.87635 2.3331 0
M  V30 742 H 69.9948 -0.901329 1.12303 0
M  V30 743 H 71.9478 -4.03746 1.20695 0
M  V30 744 H 70.6718 -3.25719 0.239775 0
M  V30 745 H 69.3308 -2.83093 2.32925 0
M  V30 746 H 68.9788 -4.92724 1.01154 0
M  V30 747 H 68.6788 -5.19429 2.74714 0
M  V30 748 H 70.2028 -5.7656 2.01024 0
M  V30 749 H 71.6168 -4.32338 3.76506 0
M  V30 750 H 70.0138 -3.98986 4.48252 0
M  V30 751 H 71.0838 -2.63834 4.06841 0
M  V30 752 N 72.4269 -1.23603 -0.977757 0
M  V30 753 C 73.3899 -1.02069 -2.05218 0
M  V30 754 C 74.3899 0.0184305 -1.60789 0
M  V30 755 O 75.5799 -0.221569 -1.72785 0
M  V30 756 C 72.7119 -0.544926 -3.36517 0
M  V30 757 H 73.9049 -1.9742 -2.25755 0
M  V30 758 H 71.4579 -1.05684 -1.15155 0
M  V30 759 H 72.1929 0.412241 -3.21669 0
M  V30 760 H 71.9779 -1.2948 -3.70105 0
M  V30 761 H 73.4679 -0.414985 -4.15533 0
M  V30 762 N 73.905 1.17692 -1.04816 0
M  V30 763 C 75.153 1.87488 -0.754497 0
M  V30 764 C 75.474 1.81205 0.720407 0
M  V30 765 O 74.744 1.23544 1.52032 0
M  V30 766 H 73.324 0.694101 -0.276102 0
M  V30 767 H 75.986 1.42793 -1.32651 0
M  V30 768 H 75.082 2.93328 -1.06606 0
M  V30 769 N 75.3831 0.828654 1.34056 0
M  V30 770 C 76.3461 0.259927 2.27721 0
M  V30 771 C 77.3461 -0.565478 1.50529 0
M  V30 772 O 78.5361 -0.38075 1.69988 0
M  V30 773 C 75.6681 -0.634944 3.34935 0
M  V30 774 H 76.8611 1.0863 2.79534 0
M  V30 775 H 74.4141 0.600951 1.44285 0
M  V30 776 H 75.1491 -1.48416 2.88346 0
M  V30 777 H 74.9341 -0.0444999 3.92075 0
M  V30 778 H 76.4241 -1.02648 4.04788 0
M  V30 779 N 76.8612 -1.46375 0.584142 0
M  V30 780 C 78.2772 -1.57694 0.245929 0
M  V30 781 C 78.4772 -1.57903 -1.25175 0
M  V30 782 O 77.5332 -1.49676 -2.03355 0
M  V30 783 C 78.8462 -2.87028 0.896402 0
M  V30 784 C 80.3942 -3.00662 0.870127 0
M  V30 785 C 80.8692 -4.32734 1.50017 0
M  V30 786 N 82.3602 -4.39436 1.46458 0
M  V30 787 C 83.0952 -5.40248 1.92144 0
M  V30 788 N 82.5912 -6.47726 2.4581 0
M  V30 789 N 84.3842 -5.31459 1.83052 0
M  V30 790 H 76.5352 -1.44483 1.55687 0
M  V30 791 H 78.7982 -0.689291 0.650831 0
M  V30 792 H 78.5042 -2.9269 1.95002 0
M  V30 793 H 78.3782 -3.75014 0.405486 0
M  V30 794 H 80.7652 -2.94581 -0.174871 0
M  V30 795 H 80.8462 -2.14148 1.39908 0
M  V30 796 H 80.4902 -4.39573 2.54437 0
M  V30 797 H 80.4202 -5.18025 0.946432 0
M  V30 798 H 82.9112 -3.62367 1.07231 0
M  V30 799 H 83.2242 -7.20863 2.78525 0
M  V30 800 H 81.5692 -6.48542 2.49836 0
M  V30 801 H 84.7602 -4.46396 1.40883 0
M  V30 802 H 84.9332 -6.09881 2.18973 0
M  V30 803 N 78.3393 -0.321999 -1.54275 0
M  V30 804 C 79.2713 0.578671 -2.21775 0
M  V30 805 C 80.2843 1.08109 -1.21722 0
M  V30 806 O 81.4733 0.994938 -1.482 0
M  V30 807 C 78.5733 1.80661 -2.86731 0
M  V30 808 C 77.7463 1.44314 -4.12907 0
M  V30 809 C 76.8053 2.52845 -4.61472 0
M  V30 810 O 75.8313 2.17054 -5.2619 0
M  V30 811 N 77.0333 3.83748 -4.35566 0
M  V30 812 H 79.7983 0.000709447 -2.997 0
M  V30 813 H 77.3593 -0.145132 -1.61248 0
M  V30 814 H 79.3513 2.52655 -3.16145 0
M  V30 815 H 77.9213 2.29245 -2.12521 0
M  V30 816 H 77.1413 0.554906 -3.90275 0
M  V30 817 H 78.4293 1.17598 -4.95023 0
M  V30 818 H 77.8273 4.15625 -3.83761 0
M  V30 819 H 76.3843 4.51977 -4.69638 0
M  V30 820 N 79.8174 1.5752 -0.0501392 0
M  V30 821 C 81.0654 1.9227 0.622642 0
M  V30 822 C 81.3864 0.929083 1.71444 0
M  V30 823 O 80.6564 -0.0262186 1.95882 0
M  V30 824 H 79.2364 0.709739 0.232981 0
M  V30 825 H 81.8984 1.94628 -0.102898 0
M  V30 826 H 80.9944 2.93479 1.06191 0
M  V30 827 N 81.2955 -0.223234 1.56011 0
M  V30 828 C 82.5435 -0.946003 1.78592 0
M  V30 829 C 82.8645 -1.84936 0.618349 0
M  V30 830 O 82.1345 -1.92473 -0.364833 0
M  V30 831 H 80.7145 -0.352298 0.658707 0
M  V30 832 H 83.3765 -0.235494 1.93472 0
M  V30 833 H 82.4725 -1.55381 2.70672 0
M  V30 834 N 82.7736 -1.49793 -0.48987 0
M  V30 835 C 83.9986 -1.63836 -1.27172 0
M  V30 836 C 84.4236 -0.31402 -1.8546 0
M  V30 837 O 83.7816 0.719803 -1.66399 0
M  V30 838 C 83.8296 -2.71797 -2.36978 0
M  V30 839 O 82.9336 -2.31744 -3.41128 0
M  V30 840 H 82.2746 -0.547997 -0.37496 0
M  V30 841 H 84.8046 -1.96053 -0.585191 0
M  V30 842 H 84.8146 -2.94305 -2.82575 0
M  V30 843 H 83.4896 -3.67923 -1.93921 0
M  V30 844 H 82.0666 -2.1961 -3.01373 0
M  V30 845 N 84.2517 0.741722 -1.39055 0
M  V30 846 C 85.2017 1.84661 -1.33732 0
M  V30 847 C 86.1857 1.59397 -0.219401 0
M  V30 848 O 87.3777 1.71015 -0.456375 0
M  V30 849 C 84.5067 3.22512 -1.17647 0
M  V30 850 C 83.5927 3.53628 -2.34112 0
M  V30 851 N 83.9837 3.55723 -3.59576 0
M  V30 852 C 82.2817 3.83956 -2.26923 0
M  V30 853 C 82.9827 3.84443 -4.36553 0
M  V30 854 N 81.9587 4.01877 -3.66055 0
M  V30 855 H 85.7607 1.84576 -2.28711 0
M  V30 856 H 83.2747 0.939647 -1.32455 0
M  V30 857 H 85.2717 4.01597 -1.11917 0
M  V30 858 H 83.9317 3.2384 -0.236124 0
M  V30 859 H 84.9427 3.37196 -3.93089 0
M  V30 860 H 81.6197 3.92929 -1.41113 0
M  V30 861 H 83.0097 3.92588 -5.45274 0
M  V30 862 N 85.7298 1.2412 0.971189 0
M  V30 863 C 86.9578 1.10575 1.74874 0
M  V30 864 C 87.3728 -0.342017 1.85676 0
M  V30 865 O 86.7298 -1.23617 1.34258 0
M  V30 866 C 86.7808 1.73579 3.171 0
M  V30 867 O 86.5018 3.12695 3.06844 0
M  V30 868 C 88.0028 1.65598 4.11208 0
M  V30 869 H 85.2228 0.386504 0.548503 0
M  V30 870 H 87.7668 1.64156 1.21955 0
M  V30 871 H 85.9218 1.24009 3.67016 0
M  V30 872 H 86.3358 3.43412 3.96445 0
M  V30 873 H 87.8098 2.1437 5.08674 0
M  V30 874 H 88.2868 0.616532 4.34851 0
M  V30 875 H 88.8928 2.14578 3.67201 0
M  V30 876 N 87.2079 -1.17134 1.05439 0
M  V30 877 C 88.6239 -1.39454 0.776201 0
M  V30 878 C 88.8239 -1.91454 -0.628307 0
M  V30 879 O 87.8799 -2.10777 -1.39031 0
M  V30 880 C 89.1929 -2.38305 1.83388 0
M  V30 881 C 90.7409 -2.52006 1.85639 0
M  V30 882 C 91.2159 -3.54133 2.90437 0
M  V30 883 N 92.7069 -3.61653 2.89415 0
M  V30 884 C 93.4419 -4.4044 3.67152 0
M  V30 885 N 92.9379 -5.22721 4.54681 0
M  V30 886 N 94.7309 -4.35337 3.55581 0
M  V30 887 H 86.8819 -0.817134 1.96053 0
M  V30 888 H 89.1449 -0.421626 0.849079 0
M  V30 889 H 88.8509 -2.07173 2.84204 0
M  V30 890 H 88.7249 -3.37841 1.67761 0
M  V30 891 H 91.1119 -2.82447 0.85486 0
M  V30 892 H 91.1929 -1.52537 2.05344 0
M  V30 893 H 90.8369 -3.24431 3.90777 0
M  V30 894 H 90.7669 -4.53313 2.67983 0
M  V30 895 H 93.2579 -3.02909 2.25952 0
M  V30 896 H 93.5709 -5.80027 5.10674 0
M  V30 897 H 91.9159 -5.22093 4.58741 0
M  V30 898 H 95.1069 -3.70112 2.86592 0
M  V30 899 H 95.2799 -4.96494 4.1641 0
M  V30 900 N 88.686 -0.835752 -1.33615 0
M  V30 901 C 89.911 -0.442389 -2.02627 0
M  V30 902 C 90.336 0.947735 -1.62479 0
M  V30 903 O 89.694 1.61907 -0.815826 0
M  V30 904 C 89.742 -0.567216 -3.56111 0
M  V30 905 O 88.846 0.407799 -4.10379 0
M  V30 906 H 88.187 -0.180278 -0.639059 0
M  V30 907 H 90.717 -1.12972 -1.70583 0
M  V30 908 H 90.727 -0.447708 -4.05536 0
M  V30 909 H 89.402 -1.58103 -3.84677 0
M  V30 910 H 87.979 0.246107 -3.72087 0
M  V30 911 N 90.1641 1.46063 -0.591896 0
M  V30 912 C 91.3891 2.07226 -0.0850314 0
M  V30 913 C 91.8141 1.43625 1.21463 0
M  V30 914 O 91.1721 0.523305 1.73583 0
M  V30 915 C 91.2201 3.60554 0.0576567 0
M  V30 916 O 90.3241 3.97128 1.11188 0
M  V30 917 H 89.6651 0.660615 -0.0669568 0
M  V30 918 H 92.1951 1.8756 -0.81745 0
M  V30 919 H 92.2051 4.07165 0.2609 0
M  V30 920 H 90.8801 4.06235 -0.891416 0
M  V30 921 H 89.4571 3.62213 0.886356 0
M  V30 922 N 91.6422 0.330177 1.54103 0
M  V30 923 C 92.8892 -0.270405 2.00686 0
M  V30 924 C 93.2172 -1.51621 1.21825 0
M  V30 925 O 92.4722 -1.93536 0.29025 0
M  V30 926 C 92.7712 -0.643134 3.51566 0
M  V30 927 C 92.4372 0.504251 4.48072 0
M  V30 928 C 91.0992 0.819163 4.74176 0
M  V30 929 C 93.4512 1.27465 5.05373 0
M  V30 930 C 90.7792 1.90708 5.5484 0
M  V30 931 C 93.1312 2.35271 5.87223 0
M  V30 932 C 91.7952 2.67336 6.11627 0
M  V30 933 H 91.0652 -0.0989482 0.734364 0
M  V30 934 H 93.7122 0.455324 1.86008 0
M  V30 935 H 92.0172 -1.44938 3.64006 0
M  V30 936 H 93.7142 -1.11949 3.85056 0
M  V30 937 H 90.3042 0.248733 4.27878 0
M  V30 938 H 94.4882 1.04462 4.85182 0
M  V30 939 H 89.7442 2.15991 5.71977 0
M  V30 940 H 93.9182 2.95405 6.30641 0
M  V30 941 H 91.5452 3.51763 6.73919 0
M  V30 942 N 93.1203 -1.57491 0.0584922 0
M  V30 943 C 94.0503 -2.14988 -0.911178 0
M  V30 944 C 95.0313 -1.07343 -1.31952 0
M  V30 945 O 96.2163 -1.35318 -1.39294 0
M  V30 946 C 93.3463 -2.70078 -2.18347 0
M  V30 947 C 92.3003 -3.82771 -1.91495 0
M  V30 948 C 91.6263 -4.24408 -3.25241 0
M  V30 949 C 92.9263 -5.07592 -1.23075 0
M  V30 950 H 94.6203 -2.96263 -0.432246 0
M  V30 951 H 92.1663 -1.42512 -0.206469 0
M  V30 952 H 94.1193 -3.08943 -2.86587 0
M  V30 953 H 92.8433 -1.86005 -2.68458 0
M  V30 954 H 91.5023 -3.44389 -1.25664 0
M  V30 955 H 91.1503 -3.37275 -3.73168 0
M  V30 956 H 90.8503 -5.00366 -3.08071 0
M  V30 957 H 92.3743 -4.65879 -3.94701 0
M  V30 958 H 93.7883 -5.43857 -1.81362 0
M  V30 959 H 92.1853 -5.88741 -1.16207 0
M  V30 960 H 93.2553 -4.84454 -0.207847 0
M  V30 961 N 94.5984 0.214957 -1.56127 0
M  V30 962 C 95.8264 0.955092 -1.83536 0
M  V30 963 C 96.2414 1.77677 -0.638472 0
M  V30 964 O 95.5984 1.78219 0.392968 0
M  V30 965 C 95.6494 1.86734 -3.09536 0
M  V30 966 O 95.3704 1.07887 -4.24608 0
M  V30 967 C 96.8714 2.72082 -3.4998 0
M  V30 968 H 94.0914 0.279611 -0.609966 0
M  V30 969 H 96.6354 0.228197 -2.03223 0
M  V30 970 H 94.7904 2.5481 -2.91806 0
M  V30 971 H 95.2044 1.69872 -4.9623 0
M  V30 972 H 96.6784 3.31782 -4.41163 0
M  V30 973 H 97.1554 3.44806 -2.7204 0
M  V30 974 H 97.7614 2.09409 -3.70173 0
M  V30 975 N 96.0765 1.50051 0.48192 0
M  V30 976 C 97.3235 1.60498 1.23477 0
M  V30 977 C 97.6515 0.300331 1.92167 0
M  V30 978 O 96.9065 -0.713094 1.82246 0
M  V30 979 C 97.2055 2.72717 2.30998 0
M  V30 980 C 96.8715 4.13572 1.79636 0
M  V30 981 C 95.5335 4.519 1.65348 0
M  V30 982 C 97.8855 5.01649 1.41412 0
M  V30 983 C 95.2135 5.76057 1.11244 0
M  V30 984 C 97.5655 6.26343 0.887538 0
M  V30 985 C 96.2295 6.63483 0.731207 0
M  V30 986 H 95.4995 0.587303 0.451836 0
M  V30 987 H 98.1465 1.83948 0.532468 0
M  V30 988 H 96.4515 2.43312 3.07094 0
M  V30 989 H 98.1485 2.78006 2.88988 0
M  V30 990 H 94.7385 3.83329 1.91721 0
M  V30 991 H 98.9225 4.72679 1.51289 0
M  V30 992 H 94.1785 6.03516 0.978686 0
M  V30 993 H 98.3525 6.93958 0.582654 0
M  V30 994 H 95.9795 7.59568 0.309806 0
M  V30 995 N 97.5546 -0.734337 1.39446 0
M  V30 996 C 98.4846 -1.86155 1.40955 0
M  V30 997 C 99.4656 -1.67898 0.272827 0
M  V30 998 O 100.651 -1.88207 0.478743 0
M  V30 999 C 97.7806 -3.23912 1.25294 0
M  V30 1000 C 96.7346 -3.56808 2.36373 0
M  V30 1001 C 96.0606 -4.93508 2.058 0
M  V30 1002 C 97.3606 -3.59713 3.78687 0
M  V30 1003 H 99.0546 -1.8515 2.35287 0
M  V30 1004 H 96.6006 -0.889367 1.13253 0
M  V30 1005 H 98.5536 -4.02443 1.2497 0
M  V30 1006 H 97.2776 -3.25446 0.274308 0
M  V30 1007 H 95.9366 -2.80606 2.35914 0
M  V30 1008 H 95.5846 -4.91623 1.06374 0
M  V30 1009 H 95.2846 -5.16486 2.80208 0
M  V30 1010 H 96.8086 -5.74396 2.07128 0
M  V30 1011 H 98.2226 -4.2832 3.81071 0
M  V30 1012 H 96.6196 -3.94209 4.52459 0
M  V30 1013 H 97.6896 -2.59504 4.09617 0
M  V30 1014 N 99.0327 -1.24633 -0.964593 0
M  V30 1015 C 100.273 -1.09981 -1.72289 0
M  V30 1016 C 100.637 0.354792 -1.88693 0
M  V30 1017 O 101.838 0.62289 -2.61483 0
M  V30 1018 C 100.109 -1.82262 -3.07434 0
M  V30 1019 S 101.668 -1.83379 -3.98645 0
M  V30 1020 H 98.4857 -0.393292 -0.59232 0
M  V30 1021 H 101.088 -1.58009 -1.15123 0
M  V30 1022 H 99.7917 -2.87206 -2.93157 0
M  V30 1023 H 99.3227 -1.3458 -3.69664 0
M  V30 1024 H 101.338 -0.903691 -4.87901 0
M  V30 1025 N 100.511 1.16574 -1.06058 0
M  V30 1026 C 101.759 1.86677 -0.77434 0
M  V30 1027 C 102.08 1.81959 0.701147 0
M  V30 1028 O 101.35 1.2515 1.50713 0
M  V30 1029 H 99.9298 0.691134 -0.283449 0
M  V30 1030 H 102.592 1.41378 -1.34158 0
M  V30 1031 H 101.688 2.92181 -1.09711 0
M  V30 1032 N 101.989 0.842826 1.3317 0
M  V30 1033 C 102.919 0.294028 2.31641 0
M  V30 1034 C 103.9 -0.600401 1.59151 0
M  V30 1035 O 105.085 -0.523124 1.87022 0
M  V30 1036 C 102.215 -0.528416 3.43257 0
M  V30 1037 C 101.169 0.27056 4.27144 0
M  V30 1038 C 100.495 -0.675881 5.30411 0
M  V30 1039 C 101.795 1.48981 5.00602 0
M  V30 1040 H 103.489 1.11681 2.77791 0
M  V30 1041 H 101.035 0.538478 1.33553 0
M  V30 1042 H 102.988 -0.922674 4.11175 0
M  V30 1043 H 101.712 -1.38445 2.95805 0
M  V30 1044 H 100.371 0.646427 3.60856 0
M  V30 1045 H 100.019 -1.52842 4.79216 0
M  V30 1046 H 99.7189 -0.145374 5.8742 0
M  V30 1047 H 101.243 -1.06757 6.01195 0
M  V30 1048 H 102.657 1.16849 5.61266 0
M  V30 1049 H 101.054 1.95739 5.6728 0
M  V30 1050 H 102.124 2.25746 4.29147 0
M  V30 1051 N 103.467 -1.45747 0.599634 0
M  V30 1052 C 104.713 -2.02592 0.0918643 0
M  V30 1053 C 105.046 -1.46806 -1.27128 0
M  V30 1054 O 104.321 -0.639658 -1.83681 0
M  V30 1055 C 104.604 -3.60073 0.0443398 0
M  V30 1056 C 104.457 -4.26208 1.43759 0
M  V30 1057 C 105.776 -4.35309 -0.647608 0
M  V30 1058 H 102.895 -0.736175 0.034857 0
M  V30 1059 H 105.537 -1.73694 0.770081 0
M  V30 1060 H 103.687 -3.84823 -0.533224 0
M  V30 1061 H 105.359 -4.12668 2.06162 0
M  V30 1062 H 103.602 -3.84916 2.00056 0
M  V30 1063 H 104.273 -5.35069 1.35665 0
M  V30 1064 H 106.749 -4.15805 -0.156776 0
M  V30 1065 H 105.625 -5.45038 -0.649942 0
M  V30 1066 H 105.886 -4.07598 -1.71219 0
M  V30 1067 N 104.945 -0.338344 -1.53925 0
M  V30 1068 C 105.875 0.51328 -2.27789 0
M  V30 1069 C 106.856 1.107 -1.29149 0
M  V30 1070 O 108.041 1.12937 -1.57984 0
M  V30 1071 C 105.171 1.66697 -3.04679 0
M  V30 1072 C 104.125 1.20183 -4.1078 0
M  V30 1073 C 103.451 2.44363 -4.75595 0
M  V30 1074 C 104.751 0.30605 -5.21403 0
M  V30 1075 H 106.445 -0.102883 -2.99223 0
M  V30 1076 H 103.991 -0.0509219 -1.4391 0
M  V30 1077 H 105.944 2.26915 -3.55088 0
M  V30 1078 H 104.668 2.30995 -2.30887 0
M  V30 1079 H 103.327 0.622499 -3.61276 0
M  V30 1080 H 102.975 3.07057 -3.98403 0
M  V30 1081 H 102.675 2.13925 -5.47275 0
M  V30 1082 H 104.199 3.05317 -5.28786 0
M  V30 1083 H 105.613 0.814929 -5.67478 0
M  V30 1084 H 104.01 0.0937929 -6.00027 0
M  V30 1085 H 105.08 -0.65921 -4.80398 0
M  V30 1086 N 106.423 1.57458 -0.0668435 0
M  V30 1087 C 107.651 1.97624 0.612565 0
M  V30 1088 C 108.066 0.94502 1.63447 0
M  V30 1089 O 107.423 -0.0689276 1.8237 0
M  V30 1090 C 107.474 3.37869 1.28555 0
M  V30 1091 O 107.195 4.3704 0.304557 0
M  V30 1092 C 108.696 3.92882 2.05325 0
M  V30 1093 H 105.916 0.650045 0.166381 0
M  V30 1094 H 108.46 2.04035 -0.137782 0
M  V30 1095 H 106.615 3.3256 1.98702 0
M  V30 1096 H 107.029 5.18565 0.786779 0
M  V30 1097 H 108.503 4.93247 2.47812 0
M  V30 1098 H 108.98 3.29156 2.9078 0
M  V30 1099 H 109.586 4.01577 1.40056 0
M  V30 1100 N 107.901 -0.206675 1.56239 0
M  V30 1101 C 109.178 -0.954051 1.70755 0
M  V30 1102 C 109.558 -2.01841 0.618353 0
M  V30 1103 O 108.906 -2.25444 -0.372434 0
M  V30 1104 C 109.116 -1.551 3.12642 0
M  V30 1105 C 110.464 -2.03757 3.72516 0
M  V30 1106 O 111.488 -1.64965 3.15698 0
M  V30 1107 O 110.347 -2.75103 4.72208 0
M  V30 1108 H 107.441 -0.446636 0.696021 0
M  V30 1109 H 109.987 -0.197283 1.68549 0
M  V30 1110 H 108.759 -0.783212 3.83382 0
M  V30 1111 H 108.382 -2.37291 3.19028 0
M  V30 1112 N 109.379 -1.50304 -0.473955 0
M  V30 1113 C 110.626 -1.6115 -1.22625 0
M  V30 1114 C 110.954 -0.310517 -1.92005 0
M  V30 1115 O 110.209 0.703419 -1.82621 0
M  V30 1116 C 110.508 -2.73938 -2.29549 0
M  V30 1117 C 110.174 -4.14519 -1.7744 0
M  V30 1118 C 108.836 -4.5277 -1.62949 0
M  V30 1119 C 111.188 -5.02392 -1.3875 0
M  V30 1120 C 108.516 -5.76639 -1.08187 0
M  V30 1121 C 110.868 -6.26805 -0.854309 0
M  V30 1122 C 109.532 -6.63861 -0.696011 0
M  V30 1123 H 108.802 -0.589691 -0.448715 0
M  V30 1124 H 111.449 -1.84228 -0.522705 0
M  V30 1125 H 109.754 -2.44937 -3.05799 0
M  V30 1126 H 111.451 -2.79534 -2.87509 0
M  V30 1127 H 108.041 -3.8434 -1.89685 0
M  V30 1128 H 112.225 -4.73474 -1.4878 0
M  V30 1129 H 107.481 -6.04027 -0.946666 0
M  V30 1130 H 111.655 -6.94258 -0.545843 0
M  V30 1131 H 109.282 -7.59722 -0.26952 0
M  V30 1132 N 110.857 0.726932 -1.39834 0
M  V30 1133 C 111.787 1.85405 -1.41941 0
M  V30 1134 C 112.768 1.67751 -0.281728 0
M  V30 1135 O 113.953 1.8795 -0.488717 0
M  V30 1136 C 111.083 3.23243 -1.2701 0
M  V30 1137 C 110.037 3.55549 -2.38262 0
M  V30 1138 C 109.363 4.9241 -2.08415 0
M  V30 1139 C 110.663 3.577 -3.80589 0
M  V30 1140 H 112.357 1.83899 -2.36266 0
M  V30 1141 H 109.903 0.883349 -1.13723 0
M  V30 1142 H 111.856 4.01775 -1.27103 0
M  V30 1143 H 110.58 3.25296 -0.291564 0
M  V30 1144 H 109.239 2.79351 -2.37399 0
M  V30 1145 H 108.887 4.91052 -1.0898 0
M  V30 1146 H 108.587 5.14992 -2.82943 0
M  V30 1147 H 110.111 5.73289 -2.10171 0
M  V30 1148 H 111.525 4.26293 -3.83337 0
M  V30 1149 H 109.922 3.91804 -4.54543 0
M  V30 1150 H 110.992 2.57328 -4.10987 0
M  V30 1151 N 112.336 1.25143 0.95797 0
M  V30 1152 C 113.584 1.09476 1.69881 0
M  V30 1153 C 113.905 -0.365502 1.91544 0
M  V30 1154 O 113.175 -1.25985 1.50015 0
M  V30 1155 H 111.755 0.402128 0.629525 0
M  V30 1156 H 114.417 1.57214 1.15194 0
M  V30 1157 H 113.513 1.60046 2.6794 0
M  V30 1158 N 113.814 -1.1601 1.06675 0
M  V30 1159 C 114.744 -2.22688 0.702307 0
M  V30 1160 C 115.725 -1.67306 -0.307032 0
M  V30 1161 O 116.91 -1.93352 -0.181305 0
M  V30 1162 C 114.04 -3.47178 0.092038 0
M  V30 1163 C 112.994 -4.15477 1.02777 0
M  V30 1164 C 112.32 -5.33963 0.28061 0
M  V30 1165 C 113.62 -4.66019 2.35846 0
M  V30 1166 H 115.314 -2.53429 1.59419 0
M  V30 1167 H 112.86 -1.21813 0.767961 0
M  V30 1168 H 114.813 -4.21037 -0.174814 0
M  V30 1169 H 113.537 -3.15749 -0.834877 0
M  V30 1170 H 112.196 -3.43549 1.27944 0
M  V30 1171 H 111.844 -4.98788 -0.649545 0
M  V30 1172 H 111.544 -5.806 0.904258 0
M  V30 1173 H 113.068 -6.10596 0.021396 0
M  V30 1174 H 114.482 -5.3144 2.15045 0
M  V30 1175 H 112.879 -5.23293 2.93743 0
M  V30 1176 H 113.949 -3.82023 2.98641 0
M  V30 1177 N 115.292 -0.849877 -1.32721 0
M  V30 1178 C 116.222 -0.306308 -2.31482 0
M  V30 1179 C 117.203 0.591952 -1.59468 0
M  V30 1180 O 118.388 0.513199 -1.87296 0
M  V30 1181 C 115.518 0.510204 -3.43532 0
M  V30 1182 C 114.472 -0.293209 -4.26994 0
M  V30 1183 C 113.798 0.647743 -5.30762 0
M  V30 1184 C 115.098 -1.51634 -4.99804 0
M  V30 1185 H 116.792 -1.13153 -2.77195 0
M  V30 1186 H 114.338 -0.545553 -1.33266 0
M  V30 1187 H 116.291 0.900856 -4.11658 0
M  V30 1188 H 115.015 1.36874 -2.96535 0
M  V30 1189 H 113.674 -0.665555 -3.60508 0
M  V30 1190 H 113.322 1.50299 -4.8002 0
M  V30 1191 H 113.022 0.11422 -5.87489 0
M  V30 1192 H 114.546 1.03567 -6.01753 0
M  V30 1193 H 115.96 -1.19824 -5.60638 0
M  V30 1194 H 114.357 -1.98745 -5.66234 0
M  V30 1195 H 115.427 -2.28018 -4.27943 0
M  V30 1196 N 116.77 1.45427 -0.607355 0
M  V30 1197 C 118.016 2.0254 -0.102607 0
M  V30 1198 C 118.349 1.47478 1.26348 0
M  V30 1199 O 117.624 0.64939 1.83339 0
M  V30 1200 C 117.907 3.60044 -0.0634347 0
M  V30 1201 C 117.76 4.2544 -1.46017 0
M  V30 1202 C 119.079 4.35646 0.624514 0
M  V30 1203 H 116.198 0.73598 -0.0387607 0
M  V30 1204 H 118.84 1.73284 -0.779282 0
M  V30 1205 H 116.99 3.85101 0.512808 0
M  V30 1206 H 118.662 4.11569 -2.08347 0
M  V30 1207 H 116.905 3.83849 -2.02094 0
M  V30 1208 H 117.576 5.34342 -1.385 0
M  V30 1209 H 120.052 4.15882 0.134723 0
M  V30 1210 H 118.928 5.45376 0.621028 0
M  V30 1211 H 119.189 4.08501 1.69055 0
M  V30 1212 N 118.248 0.346503 1.53744 0
M  V30 1213 C 119.476 -0.25041 2.05379 0
M  V30 1214 C 119.891 -1.43979 1.22129 0
M  V30 1215 O 119.248 -1.80677 0.257321 0
M  V30 1216 C 119.299 -0.662575 3.55376 0
M  V30 1217 O 119.02 0.479515 4.35468 0
M  V30 1218 C 120.521 -1.31989 4.23195 0
M  V30 1219 H 117.741 -0.0478198 0.669294 0
M  V30 1220 H 120.285 0.499346 1.9831 0
M  V30 1221 H 118.44 -1.36227 3.62658 0
M  V30 1222 H 118.854 0.15037 5.24284 0
M  V30 1223 H 120.328 -1.55902 5.29527 0
M  V30 1224 H 120.805 -2.27436 3.75725 0
M  V30 1225 H 121.411 -0.662154 4.20114 0
M  V30 1226 N 119.726 -1.57421 0.075193 0
M  V30 1227 C 120.974 -1.93236 -0.591974 0
M  V30 1228 C 121.295 -0.956241 -1.69944 0
M  V30 1229 O 120.565 -0.00494792 -1.95899 0
M  V30 1230 H 119.145 -0.713355 -0.22166 0
M  V30 1231 H 121.807 -1.9444 0.133848 0
M  V30 1232 H 120.903 -2.95131 -1.01509 0
M  V30 1233 N 121.204 0.198386 -1.56346 0
M  V30 1234 C 122.432 0.935572 -1.84539 0
M  V30 1235 C 122.847 1.76989 -0.657281 0
M  V30 1236 O 122.204 1.78626 0.374043 0
M  V30 1237 C 122.255 1.8344 -3.11499 0
M  V30 1238 O 121.976 1.03377 -4.25728 0
M  V30 1239 C 123.477 2.68355 -3.52846 0
M  V30 1240 H 120.697 0.273126 -0.612897 0
M  V30 1241 H 123.241 0.20663 -2.03453 0
M  V30 1242 H 121.396 2.51701 -2.94492 0
M  V30 1243 H 121.81 1.64599 -4.98003 0
M  V30 1244 H 123.284 3.27085 -4.44657 0
M  V30 1245 H 123.761 3.41901 -2.75681 0
M  V30 1246 H 124.367 2.05471 -3.72373 0
M  V30 1247 N 122.682 1.50554 0.465978 0
M  V30 1248 C 123.931 1.61038 1.21448 0
M  V30 1249 C 124.244 0.31865 1.92987 0
M  V30 1250 O 125.45 0.302469 2.6981 0
M  V30 1251 C 123.906 2.84283 2.20706 0
M  V30 1252 C 123.514 4.20352 1.54946 0
M  V30 1253 C 125.258 3.04115 2.96166 0
M  V30 1254 C 123.165 5.34778 2.5252 0
M  V30 1255 H 122.095 0.599718 0.457005 0
M  V30 1256 H 124.746 1.7699 0.484424 0
M  V30 1257 H 123.128 2.61901 2.97025 0
M  V30 1258 H 124.302 4.53008 0.843811 0
M  V30 1259 H 122.617 4.06167 0.917475 0
M  V30 1260 H 125.214 3.86774 3.69202 0
M  V30 1261 H 125.557 2.16045 3.55852 0
M  V30 1262 H 126.09 3.26702 2.26959 0
M  V30 1263 H 122.829 6.25018 1.97566 0
M  V30 1264 H 122.349 5.06534 3.21222 0
M  V30 1265 H 124.028 5.65561 3.14245 0
M  V30 1266 N 124.16 -0.719506 1.40217 0
M  V30 1267 C 125.406 -1.48152 1.38488 0
M  V30 1268 C 125.739 -1.94195 -0.0141867 0
M  V30 1269 O 125.014 -1.67884 -0.982096 0
M  V30 1270 C 125.297 -2.71035 2.37091 0
M  V30 1271 C 125.15 -2.30912 3.86005 0
M  V30 1272 C 126.469 -3.73182 2.33288 0
M  V30 1273 H 123.588 -0.537395 0.504357 0
M  V30 1274 H 126.23 -0.821472 1.71324 0
M  V30 1275 H 124.38 -3.27352 2.0922 0
M  V30 1276 H 126.052 -1.80107 4.24687 0
M  V30 1277 H 124.295 -1.62958 4.02029 0
M  V30 1278 H 124.966 -3.18978 4.50508 0
M  V30 1279 H 127.442 -3.26485 2.57966 0
M  V30 1280 H 126.318 -4.56806 3.04334 0
M  V30 1281 H 126.579 -4.21202 1.34317 0
M  V30 1282 N 125.638 -1.25649 -0.95132 0
M  V30 1283 C 126.884 -1.10757 -1.69884 0
M  V30 1284 C 127.217 0.350061 -1.91019 0
M  V30 1285 O 126.492 1.25783 -1.48354 0
M  V30 1286 C 126.775 -1.86606 -3.07978 0
M  V30 1287 C 126.628 -3.40217 -2.94232 0
M  V30 1288 C 127.947 -1.65182 -4.07925 0
M  V30 1289 H 125.066 -0.40374 -0.616574 0
M  V30 1290 H 127.708 -1.54521 -1.10558 0
M  V30 1291 H 125.858 -1.49409 -3.58621 0
M  V30 1292 H 127.53 -3.87108 -2.50889 0
M  V30 1293 H 125.773 -3.67759 -2.30078 0
M  V30 1294 H 126.444 -3.88505 -3.92133 0
M  V30 1295 H 128.92 -1.9757 -3.66204 0
M  V30 1296 H 127.796 -2.20683 -5.02583 0
M  V30 1297 H 128.057 -0.593933 -4.38092 0
M  V30 1298 N 127.117 1.15442 -1.07289 0
M  V30 1299 C 128.342 1.90638 -0.816828 0
M  V30 1300 C 128.767 1.77445 0.624083 0
M  V30 1301 O 128.125 1.10671 1.43602 0
M  V30 1302 C 128.173 3.39008 -1.22906 0
M  V30 1303 O 127.277 4.10701 -0.373975 0
M  V30 1304 H 126.618 0.593555 -0.297638 0
M  V30 1305 H 129.148 1.46198 -1.43134 0
M  V30 1306 H 129.158 3.89801 -1.20497 0
M  V30 1307 H 127.833 3.47929 -2.27856 0
M  V30 1308 H 126.41 3.70046 -0.460499 0
M  V30 1309 N 128.595 0.856903 1.32268 0
M  V30 1310 C 129.527 0.260412 2.27716 0
M  V30 1311 C 130.54 -0.569137 1.52528 0
M  V30 1312 O 131.729 -0.39326 1.74114 0
M  V30 1313 C 128.829 -0.650477 3.32599 0
M  V30 1314 C 128.002 0.14372 4.37164 0
M  V30 1315 C 127.061 -0.69328 5.21613 0
M  V30 1316 O 126.087 -0.12599 5.69061 0
M  V30 1317 N 127.289 -2.00761 5.44679 0
M  V30 1318 H 130.054 1.08059 2.79541 0
M  V30 1319 H 127.615 0.717103 1.45152 0
M  V30 1320 H 129.607 -1.21581 3.86005 0
M  V30 1321 H 128.177 -1.37133 2.80915 0
M  V30 1322 H 127.397 0.890486 3.8401 0
M  V30 1323 H 128.685 0.68915 5.04111 0
M  V30 1324 H 128.083 -2.49181 5.07863 0
M  V30 1325 H 126.64 -2.52103 6.01072 0
M  V30 1326 N 130.073 -1.45103 0.615059 0
M  V30 1327 C 131.023 -2.27679 -0.120966 0
M  V30 1328 C 132.007 -1.3775 -0.831491 0
M  V30 1329 O 133.199 -1.61683 -0.720249 0
M  V30 1330 C 130.328 -3.24767 -1.1127 0
M  V30 1331 C 129.414 -4.22184 -0.402627 0
M  V30 1332 N 129.805 -5.02692 0.559884 0
M  V30 1333 C 128.103 -4.4125 -0.649202 0
M  V30 1334 C 128.804 -5.73421 0.977942 0
M  V30 1335 N 127.78 -5.42657 0.320104 0
M  V30 1336 H 131.582 -2.87325 0.618181 0
M  V30 1337 H 129.096 -1.56345 0.439304 0
M  V30 1338 H 131.093 -3.82666 -1.65446 0
M  V30 1339 H 129.753 -2.66682 -1.85232 0
M  V30 1340 H 130.764 -5.09354 0.936976 0
M  V30 1341 H 127.441 -3.9428 -1.37293 0
M  V30 1342 H 128.831 -6.48107 1.77222 0
M  V30 1343 N 131.551 -0.354651 -1.53558 0
M  V30 1344 C 132.514 0.484566 -2.24019 0
M  V30 1345 C 133.514 1.01861 -1.24422 0
M  V30 1346 O 134.704 0.906097 -1.4878 0
M  V30 1347 C 131.836 1.67615 -2.96847 0
M  V30 1348 H 133.029 -0.131843 -2.9961 0
M  V30 1349 H 130.582 -0.106165 -1.55939 0
M  V30 1350 H 131.317 2.33095 -2.25471 0
M  V30 1351 H 131.102 1.30029 -3.69912 0
M  V30 1352 H 132.592 2.27114 -3.50441 0
M  V30 1353 N 133.029 1.57378 -0.0835403 0
M  V30 1354 C 133.992 2.12252 0.864959 0
M  V30 1355 C 134.992 1.04916 1.21858 0
M  V30 1356 O 136.182 1.30853 1.14991 0
M  V30 1357 C 133.314 2.63358 2.16461 0
M  V30 1358 H 134.507 2.97371 0.388676 0
M  V30 1359 H 132.06 1.55423 0.165317 0
M  V30 1360 H 132.795 1.81727 2.686 0
M  V30 1361 H 132.58 3.41826 1.92087 0
M  V30 1362 H 134.07 3.05847 2.84337 0
M  V30 1363 N 134.507 -0.190092 1.56449 0
M  V30 1364 C 135.437 -1.23816 1.97969 0
M  V30 1365 C 136.418 -1.47201 0.852395 0
M  V30 1366 O 137.603 -1.58854 1.1171 0
M  V30 1367 C 134.733 -2.5813 2.3235 0
M  V30 1368 C 133.687 -2.49348 3.47864 0
M  V30 1369 C 133.013 -3.8798 3.67934 0
M  V30 1370 C 134.313 -2.01424 4.81898 0
M  V30 1371 H 136.007 -0.89311 2.85769 0
M  V30 1372 H 133.553 -0.428177 1.37487 0
M  V30 1373 H 135.506 -3.31637 2.59991 0
M  V30 1374 H 134.23 -2.94386 1.41438 0
M  V30 1375 H 132.889 -1.78297 3.20321 0
M  V30 1376 H 132.537 -4.21597 2.74344 0
M  V30 1377 H 132.237 -3.82978 4.45648 0
M  V30 1378 H 133.761 -4.63101 3.97957 0
M  V30 1379 H 135.175 -2.64693 5.08538 0
M  V30 1380 H 133.572 -2.07413 5.63116 0
M  V30 1381 H 134.642 -0.967677 4.75146 0
M  V30 1382 N 135.985 -1.50799 -0.457987 0
M  V30 1383 C 137.232 -1.62442 -1.20908 0
M  V30 1384 C 137.56 -0.330865 -1.91665 0
M  V30 1385 O 136.815 0.68401 -1.83357 0
M  V30 1386 C 137.114 -2.76358 -2.2663 0
M  V30 1387 C 136.78 -4.16378 -1.73033 0
M  V30 1388 C 135.442 -4.54473 -1.58138 0
M  V30 1389 C 137.794 -5.03836 -1.33413 0
M  V30 1390 C 135.122 -5.77754 -1.02065 0
M  V30 1391 C 137.474 -6.27676 -0.78778 0
M  V30 1392 C 136.138 -6.64562 -0.625561 0
M  V30 1393 H 135.408 -0.594417 -0.442435 0
M  V30 1394 H 138.055 -1.84772 -0.503136 0
M  V30 1395 H 136.36 -2.48167 -3.03184 0
M  V30 1396 H 138.057 -2.82568 -2.84528 0
M  V30 1397 H 134.647 -3.86331 -1.85598 0
M  V30 1398 H 138.831 -4.75026 -1.4375 0
M  V30 1399 H 134.087 -6.04997 -0.882547 0
M  V30 1400 H 138.261 -6.94797 -0.472177 0
M  V30 1401 H 135.888 -7.59965 -0.188926 0
M  V30 1402 N 137.463 0.71206 -1.40597 0
M  V30 1403 C 138.373 1.8562 -1.43466 0
M  V30 1404 C 139.389 1.70902 -0.326902 0
M  V30 1405 O 140.565 1.93105 -0.572043 0
M  V30 1406 C 137.63 3.21451 -1.29884 0
M  V30 1407 C 136.691 3.48398 -2.50833 0
M  V30 1408 C 135.924 4.77749 -2.3789 0
M  V30 1409 O 136.147 5.53089 -1.39459 0
M  V30 1410 O 135.081 5.05111 -3.27333 0
M  V30 1411 H 138.907 1.86155 -2.39958 0
M  V30 1412 H 136.492 0.86295 -1.21957 0
M  V30 1413 H 138.374 4.02579 -1.24531 0
M  V30 1414 H 137.049 3.21636 -0.364997 0
M  V30 1415 H 135.956 2.67265 -2.61763 0
M  V30 1416 H 137.289 3.53014 -3.4299 0
M  V30 1417 N 138.941 1.26152 0.944643 0
M  V30 1418 C 140.187 1.12665 1.69346 0
M  V30 1419 C 140.542 -0.3273 1.89596 0
M  V30 1420 O 139.835 -1.23717 1.46303 0
M  V30 1421 C 140.029 1.82541 3.07268 0
M  V30 1422 C 139.858 3.34582 3.00475 0
M  V30 1423 C 138.628 4.03863 3.03681 0
M  V30 1424 C 140.826 4.30828 2.80877 0
M  V30 1425 N 138.808 5.42603 2.87151 0
M  V30 1426 C 140.179 5.5672 2.7288 0
M  V30 1427 C 142.234 4.21122 2.65633 0
M  V30 1428 C 140.937 6.74013 2.51196 0
M  V30 1429 C 142.963 5.38118 2.45323 0
M  V30 1430 C 142.325 6.62955 2.38055 0
M  V30 1431 H 138.424 0.467041 0.627214 0
M  V30 1432 H 141.008 1.59391 1.11815 0
M  V30 1433 H 139.179 1.38296 3.62945 0
M  V30 1434 H 140.911 1.61708 3.70989 0
M  V30 1435 H 137.666 3.55198 3.1326 0
M  V30 1436 H 138.09 6.15443 2.82063 0
M  V30 1437 H 142.732 3.25344 2.70021 0
M  V30 1438 H 140.45 7.6989 2.4555 0
M  V30 1439 H 144.036 5.32475 2.34439 0
M  V30 1440 H 142.916 7.51959 2.22546 0
M  V30 1441 N 140.419 -1.14872 1.07899 0
M  V30 1442 C 141.369 -2.17809 0.674027 0
M  V30 1443 C 142.353 -1.58008 -0.303699 0
M  V30 1444 O 143.545 -1.76616 -0.11654 0
M  V30 1445 C 140.674 -3.43208 0.0793318 0
M  V30 1446 C 139.76 -4.10051 1.08253 0
M  V30 1447 N 140.151 -4.52296 2.2641 0
M  V30 1448 C 138.449 -4.36469 0.917124 0
M  V30 1449 C 139.15 -5.04199 2.901 0
M  V30 1450 N 138.126 -4.98088 2.17736 0
M  V30 1451 H 141.928 -2.48207 1.57386 0
M  V30 1452 H 139.442 -1.315 0.952976 0
M  V30 1453 H 141.439 -4.16272 -0.228719 0
M  V30 1454 H 140.099 -3.14291 -0.815551 0
M  V30 1455 H 141.11 -4.45504 2.64096 0
M  V30 1456 H 137.787 -4.17432 0.0756078 0
M  V30 1457 H 139.177 -5.46802 3.90458 0
M  V30 1458 N 141.898 -0.863906 -1.31812 0
M  V30 1459 C 142.861 -0.320212 -2.26952 0
M  V30 1460 C 143.861 0.525369 -1.51975 0
M  V30 1461 O 145.051 0.335547 -1.70938 0
M  V30 1462 C 142.183 0.545919 -3.365 0
M  V30 1463 H 143.376 -1.16004 -2.76556 0
M  V30 1464 H 140.929 -0.638995 -1.42641 0
M  V30 1465 H 141.664 1.40718 -2.92179 0
M  V30 1466 H 141.449 -0.0594674 -3.92055 0
M  V30 1467 H 142.939 0.918796 -4.07367 0
M  V30 1468 N 143.376 1.44774 -0.622745 0
M  V30 1469 C 144.622 2.0242 -0.124083 0
M  V30 1470 C 144.955 1.4881 1.24777 0
M  V30 1471 O 144.23 0.668799 1.8264 0
M  V30 1472 C 144.513 3.59957 -0.101619 0
M  V30 1473 C 144.366 4.23867 -1.50521 0
M  V30 1474 C 145.685 4.36284 0.578272 0
M  V30 1475 H 142.804 0.735528 -0.0465645 0
M  V30 1476 H 145.446 1.72447 -0.797617 0
M  V30 1477 H 143.596 3.85623 0.471934 0
M  V30 1478 H 145.268 4.09336 -2.12701 0
M  V30 1479 H 143.511 3.81684 -2.06154 0
M  V30 1480 H 144.182 5.32843 -1.4416 0
M  V30 1481 H 146.658 4.16001 0.0906057 0
M  V30 1482 H 145.534 5.46004 0.563149 0
M  V30 1483 H 145.795 4.10271 1.64713 0
M  V30 1484 N 144.854 0.36279 1.53368 0
M  V30 1485 C 146.131 -0.284021 1.93527 0
M  V30 1486 C 146.511 -1.66628 1.29608 0
M  V30 1487 O 145.859 -2.23942 0.45413 0
M  V30 1488 C 146.069 -0.337028 3.47369 0
M  V30 1489 C 147.417 -0.578708 4.20638 0
M  V30 1490 O 148.441 -0.418352 3.53735 0
M  V30 1491 O 147.3 -0.89074 5.39192 0
M  V30 1492 H 144.394 -0.169743 0.809393 0
M  V30 1493 H 146.94 0.41537 1.64538 0
M  V30 1494 H 145.712 0.632217 3.86159 0
M  V30 1495 H 145.335 -1.08243 3.82582 0
M  V30 1496 N 146.332 -1.57332 0.0918853 0
M  V30 1497 C 147.743 -1.81496 -0.437739 0
M  V30 1498 C 148.094 -1.00727 -1.6837 0
M  V30 1499 O 147.219 -0.235694 -2.15113 0
M  V30 1500 C 147.814 -3.29197 -0.800939 0
M  V30 1501 C 146.373 -3.54136 -1.27532 0
M  V30 1502 C 145.52 -2.75979 -0.270392 0
M  V30 1503 H 148.471 -1.55494 0.317366 0
M  V30 1504 H 148.492 -3.42344 -1.66074 0
M  V30 1505 H 148.004 -3.87955 0.106078 0
M  V30 1506 H 146.105 -3.00705 -2.20016 0
M  V30 1507 H 146.218 -4.62792 -1.23938 0
M  V30 1508 H 144.582 -2.43349 -0.751872 0
M  V30 1509 H 145.365 -3.37484 0.629248 0
M  V30 1510 N 147.81 0.181792 -1.56548 0
M  V30 1511 C 149.058 0.89832 -1.81038 0
M  V30 1512 C 149.379 1.83232 -0.667164 0
M  V30 1513 O 148.649 1.93372 0.313673 0
M  V30 1514 H 147.229 0.33471 -0.667816 0
M  V30 1515 H 149.891 0.184116 -1.94028 0
M  V30 1516 H 148.987 1.4815 -2.74696 0
M  V30 1517 N 149.288 1.51039 0.449983 0
M  V30 1518 C 150.528 1.64732 1.21007 0
M  V30 1519 C 150.892 0.349865 1.88785 0
M  V30 1520 O 152.093 0.362431 2.66345 0
M  V30 1521 C 150.364 2.80902 2.20973 0
M  V30 1522 S 151.923 3.14851 3.05638 0
M  V30 1523 H 148.741 0.5805 0.410538 0
M  V30 1524 H 151.343 1.88901 0.503634 0
M  V30 1525 H 150.047 3.73627 1.69796 0
M  V30 1526 H 149.578 2.58882 2.96215 0
M  V30 1527 H 151.593 2.60306 4.22439 0
M  V30 1528 N 150.766 -0.704594 1.40972 0
M  V30 1529 C 152.182 -1.01406 1.23244 0
M  V30 1530 C 152.382 -2.01169 0.115399 0
M  V30 1531 O 151.438 -2.47021 -0.523147 0
M  V30 1532 C 152.751 -1.54728 2.57836 0
M  V30 1533 C 154.299 -1.66658 2.64942 0
M  V30 1534 C 154.774 -2.23383 3.9983 0
M  V30 1535 N 156.265 -2.30756 4.01629 0
M  V30 1536 C 157 -2.75655 5.02794 0
M  V30 1537 N 156.496 -3.20225 6.14352 0
M  V30 1538 N 158.289 -2.75138 4.90159 0
M  V30 1539 H 150.44 -0.0435285 2.12355 0
M  V30 1540 H 152.703 -0.0818951 0.944456 0
M  V30 1541 H 152.409 -0.888832 3.40283 0
M  V30 1542 H 152.283 -2.53084 2.79693 0
M  V30 1543 H 154.67 -2.31617 1.8286 0
M  V30 1544 H 154.751 -0.668717 2.46904 0
M  V30 1545 H 154.395 -1.59043 4.82357 0
M  V30 1546 H 154.325 -3.23904 4.15203 0
M  V30 1547 H 156.816 -1.99291 3.21079 0
M  V30 1548 H 157.129 -3.53084 6.87424 0
M  V30 1549 H 155.474 -3.18156 6.17901 0
M  V30 1550 H 158.665 -2.39661 4.02095 0
M  V30 1551 H 158.838 -3.09812 5.6914 0
M  V30 1552 N 152.244 -1.26651 -0.937939 0
M  V30 1553 C 153.174 -1.10993 -2.05433 0
M  V30 1554 C 154.155 -0.0142161 -1.70094 0
M  V30 1555 O 155.34 -0.186837 -1.93299 0
M  V30 1556 C 152.47 -0.745561 -3.39203 0
M  V30 1557 C 151.424 -1.79337 -3.88616 0
M  V30 1558 C 150.75 -1.28324 -5.19073 0
M  V30 1559 C 152.05 -3.19553 -4.13138 0
M  V30 1560 H 153.744 -2.0438 -2.1879 0
M  V30 1561 H 151.29 -0.984041 -1.05131 0
M  V30 1562 H 153.243 -0.622888 -4.16771 0
M  V30 1563 H 151.967 0.22401 -3.25831 0
M  V30 1564 H 150.626 -1.90477 -3.13231 0
M  V30 1565 H 150.274 -0.303414 -5.02084 0
M  V30 1566 H 149.974 -1.98369 -5.53103 0
M  V30 1567 H 151.498 -1.1733 -5.99221 0
M  V30 1568 H 152.912 -3.11471 -4.81309 0
M  V30 1569 H 151.309 -3.87218 -4.58457 0
M  V30 1570 H 152.379 -3.65368 -3.18801 0
M  V30 1571 N 153.722 1.14298 -1.08507 0
M  V30 1572 C 154.962 1.87016 -0.824894 0
M  V30 1573 C 155.326 1.81099 0.637735 0
M  V30 1574 O 156.527 2.48963 1.01345 0
M  V30 1575 C 154.798 3.31584 -1.33368 0
M  V30 1576 S 156.357 4.21903 -1.20596 0
M  V30 1577 H 153.175 0.645259 -0.2986 0
M  V30 1578 H 155.777 1.37822 -1.38656 0
M  V30 1579 H 154.481 3.33439 -2.39262 0
M  V30 1580 H 154.012 3.85836 -0.767734 0
M  V30 1581 H 156.027 4.95971 -0.150891 0
M  V30 1582 N 155.201 0.870884 1.31352 0
M  V30 1583 C 156.617 0.562932 1.49343 0
M  V30 1584 C 156.817 -0.902725 1.80148 0
M  V30 1585 O 155.873 -1.68484 1.88067 0
M  V30 1586 C 157.186 1.46393 2.62659 0
M  V30 1587 C 158.734 1.46607 2.76542 0
M  V30 1588 C 159.209 2.35266 3.92955 0
M  V30 1589 N 160.7 2.33151 4.00243 0
M  V30 1590 C 161.435 2.98471 4.89594 0
M  V30 1591 N 160.931 3.72964 5.8384 0
M  V30 1592 N 162.724 2.87775 4.82848 0
M  V30 1593 H 154.875 1.81923 1.09626 0
M  V30 1594 H 157.138 0.777934 0.541777 0
M  V30 1595 H 156.844 2.50689 2.46674 0
M  V30 1596 H 156.718 1.16314 3.58819 0
M  V30 1597 H 159.105 0.43069 2.9194 0
M  V30 1598 H 159.186 1.8071 1.81046 0
M  V30 1599 H 158.83 3.38881 3.78315 0
M  V30 1600 H 158.76 1.98487 4.87761 0
M  V30 1601 H 161.251 1.79006 3.32814 0
M  V30 1602 H 161.564 4.19932 6.4875 0
M  V30 1603 H 159.909 3.77073 5.83816 0
M  V30 1604 H 163.1 2.29116 4.08195 0
M  V30 1605 H 163.273 3.38961 5.52277 0
M  V30 1606 N 156.679 -1.44442 0.630414 0
M  V30 1607 C 157.926 -2.02052 0.134617 0
M  V30 1608 C 158.254 -1.49576 -1.24327 0
M  V30 1609 O 157.509 -0.669806 -1.83881 0
M  V30 1610 C 157.808 -3.57332 0.0697835 0
M  V30 1611 C 157.474 -4.29058 1.38635 0
M  V30 1612 C 156.136 -4.4837 1.74694 0
M  V30 1613 C 158.488 -4.69872 2.25543 0
M  V30 1614 C 155.816 -5.05756 2.97369 0
M  V30 1615 C 158.168 -5.28616 3.47487 0
M  V30 1616 C 156.832 -5.46147 3.8377 0
M  V30 1617 H 156.102 -0.739361 0.0492598 0
M  V30 1618 H 158.749 -1.73217 0.816586 0
M  V30 1619 H 157.054 -3.85577 -0.695553 0
M  V30 1620 H 158.751 -3.99637 -0.330344 0
M  V30 1621 H 155.341 -4.14357 1.09574 0
M  V30 1622 H 159.525 -4.54666 1.98979 0
M  V30 1623 H 154.781 -5.17515 3.25558 0
M  V30 1624 H 158.955 -5.59192 4.15063 0
M  V30 1625 H 156.582 -5.9038 4.7891 0
M  V30 1626 N 158.157 -0.370918 -1.53173 0
M  V30 1627 C 159.09 0.516727 -2.22273 0
M  V30 1628 C 160.068 1.07877 -1.21661 0
M  V30 1629 O 161.252 1.13389 -1.50583 0
M  V30 1630 C 158.379 1.71346 -2.92161 0
M  V30 1631 C 157.425 1.27838 -4.0689 0
M  V30 1632 S 158.258 0.275217 -5.34792 0
M  V30 1633 C 159.414 1.47816 -6.08195 0
M  V30 1634 H 159.647 -0.0701054 -2.97217 0
M  V30 1635 H 157.18 -0.155038 -1.5362 0
M  V30 1636 H 159.138 2.39988 -3.3304 0
M  V30 1637 H 157.799 2.27156 -2.16931 0
M  V30 1638 H 156.992 2.17141 -4.54825 0
M  V30 1639 H 156.594 0.671105 -3.6793 0
M  V30 1640 H 158.886 2.40831 -6.33251 0
M  V30 1641 H 159.829 1.04008 -7.0042 0
M  V30 1642 H 160.237 1.68663 -5.38714 0
M  V30 1643 N 159.635 1.57281 -0.100228 0
M  V30 1644 C 160.883 1.94153 0.561157 0
M  V30 1645 C 161.204 0.983157 1.68401 0
M  V30 1646 O 160.474 0.0361132 1.95867 0
M  V30 1647 H 159.054 0.716791 0.210283 0
M  V30 1648 H 161.716 1.94202 -0.164765 0
M  V30 1649 H 160.812 2.96709 0.968008 0
M  V30 1650 N 161.113 -0.173488 1.56642 0
M  V30 1651 C 162.359 -0.891784 1.8214 0
M  V30 1652 C 162.692 -1.8199 0.677736 0
M  V30 1653 O 161.967 -1.91842 -0.320446 0
M  V30 1654 C 162.25 -1.68933 3.18015 0
M  V30 1655 C 162.103 -0.784487 4.42906 0
M  V30 1656 C 163.422 -2.65748 3.50808 0
M  V30 1657 H 160.541 -0.322761 0.662567 0
M  V30 1658 H 163.183 -0.158095 1.89341 0
M  V30 1659 H 161.333 -2.31482 3.12007 0
M  V30 1660 H 163.005 -0.172046 4.60979 0
M  V30 1661 H 161.248 -0.0924117 4.33702 0
M  V30 1662 H 161.919 -1.37799 5.34524 0
M  V30 1663 H 164.395 -2.13327 3.57255 0
M  V30 1664 H 163.271 -3.18619 4.4696 0
M  V30 1665 H 163.532 -3.45842 2.75401 0
M  V30 1666 N 162.591 -1.51276 -0.441967 0
M  V30 1667 C 163.837 -1.63958 -1.19355 0
M  V30 1668 C 164.17 -0.352543 -1.90973 0
M  V30 1669 O 163.445 0.647627 -1.83401 0
M  V30 1670 C 163.728 -2.83979 -2.21422 0
M  V30 1671 C 163.581 -4.22646 -1.53918 0
M  V30 1672 C 164.9 -2.99521 -3.22451 0
M  V30 1673 H 162.019 -0.596709 -0.432559 0
M  V30 1674 H 164.661 -1.83748 -0.483398 0
M  V30 1675 H 162.811 -2.67237 -2.81987 0
M  V30 1676 H 164.483 -4.51045 -0.967256 0
M  V30 1677 H 162.726 -4.25558 -0.841615 0
M  V30 1678 H 163.397 -5.02609 -2.28229 0
M  V30 1679 H 165.873 -3.14944 -2.71937 0
M  V30 1680 H 164.749 -3.85072 -3.91166 0
M  V30 1681 H 165.01 -2.11391 -3.88287 0
M  V30 1682 N 164.069 0.697108 -1.41344 0
M  V30 1683 C 165.002 1.82134 -1.37486 0
M  V30 1684 C 165.98 1.60784 -0.242351 0
M  V30 1685 O 167.164 1.83553 -0.429012 0
M  V30 1686 C 164.291 3.18788 -1.14421 0
M  V30 1687 C 163.337 3.58932 -2.3037 0
M  V30 1688 S 164.17 3.63916 -3.92843 0
M  V30 1689 C 165.326 5.03298 -3.72078 0
M  V30 1690 H 165.559 1.85129 -2.32625 0
M  V30 1691 H 163.092 0.865671 -1.2785 0
M  V30 1692 H 165.05 3.97677 -1.018 0
M  V30 1693 H 163.711 3.13404 -0.20905 0
M  V30 1694 H 162.904 4.58202 -2.09922 0
M  V30 1695 H 162.506 2.87347 -2.39391 0
M  V30 1696 H 164.798 5.90753 -3.31688 0
M  V30 1697 H 165.741 5.28788 -4.70945 0
M  V30 1698 H 166.149 4.74764 -3.05384 0
M  V30 1699 N 165.547 1.27147 0.931209 0
M  V30 1700 C 166.796 1.12664 1.67302 0
M  V30 1701 C 167.109 -0.327718 1.92835 0
M  V30 1702 O 168.315 -0.593392 2.64936 0
M  V30 1703 C 166.771 1.9683 3.01307 0
M  V30 1704 C 166.379 3.46901 2.83485 0
M  V30 1705 C 168.123 1.90985 3.79111 0
M  V30 1706 C 166.03 4.23279 4.13024 0
M  V30 1707 H 164.96 0.41803 0.627509 0
M  V30 1708 H 167.611 1.51539 1.03481 0
M  V30 1709 H 165.993 1.50797 3.66164 0
M  V30 1710 H 167.167 4.00773 2.27415 0
M  V30 1711 H 165.482 3.54088 2.19113 0
M  V30 1712 H 168.079 2.45328 4.75098 0
M  V30 1713 H 168.422 0.882718 4.06834 0
M  V30 1714 H 168.955 2.34895 3.21044 0
M  V30 1715 H 165.694 5.26503 3.90481 0
M  V30 1716 H 165.214 3.74186 4.6877 0
M  V30 1717 H 166.893 4.32265 4.81411 0
M  V30 1718 N 167.025 -1.13721 1.09112 0
M  V30 1719 C 168.272 -1.84924 0.825192 0
M  V30 1720 C 168.6 -1.83347 -0.649151 0
M  V30 1721 O 167.855 -1.26449 -1.49362 0
M  V30 1722 C 168.154 -3.32861 1.30146 0
M  V30 1723 C 167.82 -3.54621 2.78486 0
M  V30 1724 C 166.482 -3.60268 3.18999 0
M  V30 1725 C 168.834 -3.62855 3.74146 0
M  V30 1726 C 166.162 -3.71679 4.53951 0
M  V30 1727 C 168.514 -3.75793 5.08883 0
M  V30 1728 C 167.178 -3.79692 5.4899 0
M  V30 1729 H 166.448 -0.676684 0.301959 0
M  V30 1730 H 169.095 -1.3428 1.36533 0
M  V30 1731 H 167.4 -3.85835 0.681064 0
M  V30 1732 H 169.097 -3.86395 1.07236 0
M  V30 1733 H 165.687 -3.50879 2.46134 0
M  V30 1734 H 169.871 -3.57775 3.43963 0
M  V30 1735 H 165.127 -3.72963 4.84467 0
M  V30 1736 H 169.301 -3.81107 5.82864 0
M  V30 1737 H 166.928 -3.88287 6.53558 0
M  V30 1738 N 168.503 -0.877838 -1.30888 0
M  V30 1739 C 169.75 -0.492696 -1.96415 0
M  V30 1740 C 170.078 0.956671 -1.69346 0
M  V30 1741 O 169.333 1.68993 -0.986913 0
M  V30 1742 C 169.632 -0.705748 -3.50363 0
M  V30 1743 C 169.298 -2.1291 -3.97467 0
M  V30 1744 C 167.96 -2.51834 -4.1004 0
M  V30 1745 C 170.312 -3.05702 -4.22132 0
M  V30 1746 C 167.64 -3.82775 -4.44635 0
M  V30 1747 C 169.992 -4.36166 -4.58194 0
M  V30 1748 C 168.656 -4.74993 -4.68975 0
M  V30 1749 H 167.926 -0.18029 -0.718733 0
M  V30 1750 H 170.573 -1.11233 -1.55883 0
M  V30 1751 H 168.878 -0.00303058 -3.918 0
M  V30 1752 H 170.575 -0.387456 -3.99124 0
M  V30 1753 H 167.165 -1.81694 -3.88182 0
M  V30 1754 H 171.349 -2.76853 -4.11906 0
M  V30 1755 H 166.605 -4.12609 -4.51181 0
M  V30 1756 H 170.779 -5.08111 -4.76231 0
M  V30 1757 H 168.406 -5.76495 -4.95537 0
M  V30 1758 N 169.982 1.44106 -0.638065 0
M  V30 1759 C 171.23 2.01579 -0.145043 0
M  V30 1760 C 171.551 1.50496 1.24 0
M  V30 1761 O 170.821 0.711374 1.82527 0
M  V30 1762 H 169.401 0.745282 -0.05063 0
M  V30 1763 H 172.063 1.76516 -0.826327 0
M  V30 1764 H 171.159 3.11877 -0.118039 0
M  V30 1765 N 171.46 0.379036 1.52974 0
M  V30 1766 C 172.39 -0.452706 2.29069 0
M  V30 1767 C 173.371 -1.07237 1.32039 0
M  V30 1768 O 174.556 -1.08708 1.60923 0
M  V30 1769 C 171.686 -1.5856 3.08992 0
M  V30 1770 C 170.64 -1.0925 4.13822 0
M  V30 1771 C 169.966 -2.31668 4.81907 0
M  V30 1772 C 171.266 -0.167702 5.22031 0
M  V30 1773 H 172.96 0.182181 2.98845 0
M  V30 1774 H 170.506 0.0890592 1.43724 0
M  V30 1775 H 172.459 -2.1742 3.6098 0
M  V30 1776 H 171.183 -2.24792 2.36931 0
M  V30 1777 H 169.842 -0.526494 3.628 0
M  V30 1778 H 169.49 -2.96386 4.06404 0
M  V30 1779 H 169.19 -1.9934 5.52754 0
M  V30 1780 H 170.714 -2.91189 5.36695 0
M  V30 1781 H 172.128 -0.664186 5.6944 0
M  V30 1782 H 170.525 0.0653265 6.00064 0
M  V30 1783 H 171.595 0.786347 4.78482 0
M  V30 1784 N 172.938 -1.57226 0.108567 0
M  V30 1785 C 174.163 -1.99604 -0.563303 0
M  V30 1786 C 174.588 -0.987563 -1.6009 0
M  V30 1787 O 173.946 0.0421687 -1.81251 0
M  V30 1788 C 173.994 -3.40902 -1.17552 0
M  V30 1789 O 173.098 -3.42896 -2.2912 0
M  V30 1790 H 172.439 -0.648704 -0.1417 0
M  V30 1791 H 174.969 -2.03679 0.193961 0
M  V30 1792 H 174.979 -3.78886 -1.51357 0
M  V30 1793 H 173.654 -4.1382 -0.415445 0
M  V30 1794 H 172.231 -3.1672 -1.96832 0
M  V30 1795 N 174.416 0.165178 -1.56732 0
M  V30 1796 C 175.827 0.727046 -1.71962 0
M  V30 1797 C 176.178 1.82508 -0.720078 0
M  V30 1798 O 175.303 2.16082 0.117242 0
M  V30 1799 C 175.898 1.32559 -3.11791 0
M  V30 1800 C 174.457 1.83422 -3.28684 0
M  V30 1801 C 173.604 0.715567 -2.67908 0
M  V30 1802 H 176.555 -0.0602896 -1.58585 0
M  V30 1803 H 176.576 2.19533 -3.10782 0
M  V30 1804 H 176.088 0.526195 -3.84516 0
M  V30 1805 H 174.189 2.65986 -2.60926 0
M  V30 1806 H 174.302 1.97543 -4.36478 0
M  V30 1807 H 172.666 1.13758 -2.27884 0
M  V30 1808 H 173.449 -0.0720836 -3.43224 0
M  V30 1809 N 175.894 1.51508 0.433938 0
M  V30 1810 C 176.824 1.76016 1.53429 0
M  V30 1811 C 177.805 0.610112 1.58782 0
M  V30 1812 O 178.99 0.853177 1.74455 0
M  V30 1813 C 176.12 1.88831 2.9148 0
M  V30 1814 C 175.074 3.04288 3.00987 0
M  V30 1815 C 174.4 3.0229 4.4105 0
M  V30 1816 C 175.7 4.44193 2.74754 0
M  V30 1817 H 177.394 2.68152 1.33171 0
M  V30 1818 H 174.94 1.29035 0.639214 0
M  V30 1819 H 176.893 2.04559 3.6842 0
M  V30 1820 H 175.617 0.933455 3.12976 0
M  V30 1821 H 174.276 2.8827 2.26486 0
M  V30 1822 H 173.924 2.04576 4.59519 0
M  V30 1823 H 173.624 3.79822 4.4834 0
M  V30 1824 H 175.148 3.20116 5.1996 0
M  V30 1825 H 176.562 4.60544 3.41426 0
M  V30 1826 H 174.959 5.23457 2.9345 0
M  V30 1827 H 176.029 4.53996 1.70339 0
M  V30 1828 N 177.372 -0.689602 1.41712 0
M  V30 1829 C 178.302 -1.81577 1.46806 0
M  V30 1830 C 179.283 -1.66945 0.326105 0
M  V30 1831 O 180.468 -1.86588 0.538377 0
M  V30 1832 C 177.598 -3.19762 1.35535 0
M  V30 1833 C 176.552 -3.49107 2.47605 0
M  V30 1834 C 175.878 -4.86711 2.21397 0
M  V30 1835 C 177.178 -3.47483 3.89939 0
M  V30 1836 H 178.872 -1.7757 2.41058 0
M  V30 1837 H 176.418 -0.852887 1.16025 0
M  V30 1838 H 178.371 -3.98263 1.3771 0
M  V30 1839 H 177.095 -3.24409 0.377708 0
M  V30 1840 H 175.754 -2.72959 2.44722 0
M  V30 1841 H 175.402 -4.8799 1.21961 0
M  V30 1842 H 175.102 -5.0731 2.96497 0
M  V30 1843 H 176.626 -5.67515 2.25297 0
M  V30 1844 H 178.04 -4.1598 3.94505 0
M  V30 1845 H 176.437 -3.79615 4.64771 0
M  V30 1846 H 177.507 -2.46341 4.17665 0
M  V30 1847 N 178.85 -1.27639 -0.924453 0
M  V30 1848 C 179.78 -1.13166 -2.04244 0
M  V30 1849 C 180.761 -0.032256 -1.70069 0
M  V30 1850 O 181.946 -0.207328 -1.9309 0
M  V30 1851 C 179.076 -0.781496 -3.38393 0
M  V30 1852 C 178.03 -1.83449 -3.86692 0
M  V30 1853 C 177.356 -1.33822 -5.17683 0
M  V30 1854 C 178.656 -3.23917 -4.09726 0
M  V30 1855 H 180.35 -2.06689 -2.1661 0
M  V30 1856 H 177.896 -0.995136 -1.04082 0
M  V30 1857 H 179.849 -0.667057 -4.16087 0
M  V30 1858 H 178.573 0.189439 -3.2605 0
M  V30 1859 H 177.232 -1.93789 -3.11193 0
M  V30 1860 H 176.88 -0.35665 -5.01734 0
M  V30 1861 H 176.58 -2.04224 -5.50968 0
M  V30 1862 H 178.104 -1.23679 -5.97943 0
M  V30 1863 H 179.518 -3.16559 -4.77978 0
M  V30 1864 H 177.915 -3.92059 -4.54324 0
M  V30 1865 H 178.985 -3.68729 -3.14908 0
M  V30 1866 N 180.328 1.1314 -1.09713 0
M  V30 1867 C 181.576 1.84119 -0.833338 0
M  V30 1868 C 181.897 1.84097 0.642904 0
M  V30 1869 O 181.167 1.29881 1.46655 0
M  V30 1870 H 179.747 0.681766 -0.305293 0
M  V30 1871 H 182.409 1.37038 -1.38588 0
M  V30 1872 H 181.505 2.88543 -1.18951 0
M  V30 1873 N 181.806 0.884767 1.30421 0
M  V30 1874 C 182.769 0.356277 2.26414 0
M  V30 1875 C 183.769 -0.501124 1.52792 0
M  V30 1876 O 184.959 -0.30831 1.7145 0
M  V30 1877 C 182.091 -0.492316 3.37326 0
M  V30 1878 H 183.284 1.20389 2.74675 0
M  V30 1879 H 180.837 0.661607 1.41607 0
M  V30 1880 H 181.572 -1.36052 2.94381 0
M  V30 1881 H 181.357 0.121832 3.91911 0
M  V30 1882 H 182.847 -0.853871 4.08777 0
M  V30 1883 N 183.284 -1.43765 0.645699 0
M  V30 1884 C 184.247 -2.29163 -0.0409488 0
M  V30 1885 C 185.247 -1.41813 -0.757996 0
M  V30 1886 O 186.437 -1.63527 -0.600382 0
M  V30 1887 C 183.569 -3.23716 -1.06869 0
M  V30 1888 H 184.762 -2.91366 0.710345 0
M  V30 1889 H 182.315 -1.5092 0.406547 0
M  V30 1890 H 183.05 -2.66393 -1.84947 0
M  V30 1891 H 182.835 -3.88105 -0.558277 0
M  V30 1892 H 184.325 -3.87831 -1.54845 0
M  V30 1893 N 184.763 -0.387143 -1.52771 0
M  V30 1894 C 185.696 0.493123 -2.22808 0
M  V30 1895 C 186.674 1.0658 -1.22798 0
M  V30 1896 O 187.858 1.11785 -1.51777 0
M  V30 1897 C 184.985 1.68238 -2.93962 0
M  V30 1898 C 184.031 1.23515 -4.08223 0
M  V30 1899 S 184.864 0.21848 -5.35054 0
M  V30 1900 C 186.02 1.41357 -6.09729 0
M  V30 1901 H 186.253 -0.101625 -2.97126 0
M  V30 1902 H 183.786 -0.171323 -1.53447 0
M  V30 1903 H 185.744 2.36443 -3.35567 0
M  V30 1904 H 184.405 2.24842 -2.19328 0
M  V30 1905 H 183.598 2.12304 -4.57103 0
M  V30 1906 H 183.2 0.632044 -3.68621 0
M  V30 1907 H 185.492 2.34101 -6.3577 0
M  V30 1908 H 186.435 0.965736 -7.01484 0
M  V30 1909 H 186.843 1.6294 -5.40473 0
M  V30 1910 N 186.241 1.57166 -0.116904 0
M  V30 1911 C 187.204 2.14039 0.819742 0
M  V30 1912 C 188.204 1.07477 1.19605 0
M  V30 1913 O 189.394 1.33263 1.1219 0
M  V30 1914 C 186.526 2.67891 2.10826 0
M  V30 1915 H 187.719 2.98128 0.325511 0
M  V30 1916 H 185.272 1.55739 0.132312 0
M  V30 1917 H 186.007 1.87384 2.64685 0
M  V30 1918 H 185.792 3.45823 1.84793 0
M  V30 1919 H 187.282 3.11809 2.77785 0
M  V30 1920 N 187.719 -0.156864 1.56817 0
M  V30 1921 C 188.944 -0.890331 1.87318 0
M  V30 1922 C 189.369 -1.74394 0.704855 0
M  V30 1923 O 188.727 -1.77972 -0.345786 0
M  V30 1924 C 188.775 -1.73102 3.16336 0
M  V30 1925 O 187.879 -2.83422 2.99576 0
M  V30 1926 H 187.22 -0.24857 0.615718 0
M  V30 1927 H 189.75 -0.150649 2.04045 0
M  V30 1928 H 189.76 -2.12803 3.48107 0
M  V30 1929 H 188.435 -1.10412 4.00976 0
M  V30 1930 H 187.012 -2.47199 2.7919 0
M  V30 1931 N 189.197 -1.51736 -0.425897 0
M  V30 1932 C 190.107 -1.76738 -1.54275 0
M  V30 1933 C 191.123 -0.65211 -1.61318 0
M  V30 1934 O 192.299 -0.935654 -1.78346 0
M  V30 1935 C 189.364 -1.89755 -2.90162 0
M  V30 1936 C 188.425 -3.13633 -2.93143 0
M  V30 1937 C 187.658 -3.2602 -4.22548 0
M  V30 1938 O 187.881 -2.44067 -5.15546 0
M  V30 1939 O 186.815 -4.19071 -4.32046 0
M  V30 1940 H 190.641 -2.71502 -1.36089 0
M  V30 1941 H 188.226 -1.36376 -0.610069 0
M  V30 1942 H 190.108 -2.00236 -3.70788 0
M  V30 1943 H 188.783 -0.981785 -3.08452 0
M  V30 1944 H 187.69 -3.08622 -2.11431 0
M  V30 1945 H 189.023 -4.04936 -2.798 0
M  V30 1946 N 190.675 0.682077 -1.42076 0
M  V30 1947 C 192.091 0.994324 -1.24841 0
M  V30 1948 C 192.291 2.0096 -0.147389 0
M  V30 1949 O 191.347 2.47822 0.483782 0
M  V30 1950 C 192.66 1.50607 -2.60265 0
M  V30 1951 C 194.208 1.62421 -2.6756 0
M  V30 1952 C 194.683 2.16994 -4.03333 0
M  V30 1953 N 196.174 2.24337 -4.0525 0
M  V30 1954 C 196.909 2.67621 -5.07116 0
M  V30 1955 N 196.405 3.1041 -6.19368 0
M  V30 1956 N 198.198 2.67305 -4.94474 0
M  V30 1957 H 190.349 0.00973908 -2.12398 0
M  V30 1958 H 192.612 0.0668593 -0.945639 0
M  V30 1959 H 192.318 0.834583 -3.41654 0
M  V30 1960 H 192.192 2.48602 -2.83684 0
M  V30 1961 H 194.579 2.28678 -1.86521 0
M  V30 1962 H 194.66 0.629352 -2.47937 0
M  V30 1963 H 194.304 1.51349 -4.84826 0
M  V30 1964 H 194.234 3.17258 -4.20304 0
M  V30 1965 H 196.725 1.94158 -3.24209 0
M  V30 1966 H 197.038 3.42103 -6.92954 0
M  V30 1967 H 195.383 3.08286 -6.22884 0
M  V30 1968 H 198.574 2.33233 -4.05857 0
M  V30 1969 H 198.747 3.00718 -5.73997 0
M  V30 1970 N 192.153 1.28127 0.917671 0
M  V30 1971 C 193.383 1.17722 1.6978 0
M  V30 1972 C 193.791 -0.267261 1.87303 0
M  V30 1973 O 193.134 -1.19286 1.39702 0
M  V30 1974 C 193.196 1.79958 3.11216 0
M  V30 1975 C 192.86 3.29187 3.16993 0
M  V30 1976 C 193.857 4.25679 2.98485 0
M  V30 1977 C 191.542 3.70075 3.39632 0
M  V30 1978 C 193.536 5.61035 3.02521 0
M  V30 1979 C 191.223 5.05557 3.433 0
M  V30 1980 C 192.221 6.00847 3.24764 0
M  V30 1981 O 191.909 7.33859 3.28187 0
M  V30 1982 H 191.641 0.409788 0.537634 0
M  V30 1983 H 194.195 1.69694 1.15728 0
M  V30 1984 H 192.425 1.22475 3.66793 0
M  V30 1985 H 194.114 1.64125 3.71238 0
M  V30 1986 H 194.88 3.95426 2.80826 0
M  V30 1987 H 190.759 2.96373 3.53106 0
M  V30 1988 H 194.303 6.35388 2.87971 0
M  V30 1989 H 190.2 5.35462 3.60486 0
M  V30 1990 H 190.968 7.42436 3.44575 0
M  V30 1991 N 193.631 -1.12557 1.10312 0
M  V30 1992 C 194.561 -2.20341 0.772798 0
M  V30 1993 C 195.542 -1.68198 -0.25365 0
M  V30 1994 O 196.727 -1.93831 -0.119699 0
M  V30 1995 C 193.857 -3.46709 0.202443 0
M  V30 1996 C 192.811 -4.11996 1.15943 0
M  V30 1997 C 192.137 -5.328 0.450345 0
M  V30 1998 C 193.437 -4.5828 2.50552 0
M  V30 1999 H 195.131 -2.48229 1.674 0
M  V30 2000 H 192.677 -1.19308 0.806326 0
M  V30 2001 H 194.63 -4.2138 -0.0407752 0
M  V30 2002 H 193.354 -3.18245 -0.734001 0
M  V30 2003 H 192.013 -3.39305 1.38808 0
M  V30 2004 H 191.661 -5.00602 -0.490531 0
M  V30 2005 H 191.361 -5.7743 1.08851 0
M  V30 2006 H 192.885 -6.10219 0.215642 0
M  V30 2007 H 194.299 -5.2433 2.31843 0
M  V30 2008 H 192.696 -5.13683 3.10242 0
M  V30 2009 H 193.766 -3.72329 3.10643 0
M  V30 2010 N 195.109 -0.891671 -1.2995 0
M  V30 2011 C 196.357 -0.512486 -1.95494 0
M  V30 2012 C 196.678 0.942776 -1.70695 0
M  V30 2013 O 195.948 1.66374 -1.03424 0
M  V30 2014 H 194.528 -0.186533 -0.723336 0
M  V30 2015 H 197.19 -1.13621 -1.58355 0
M  V30 2016 H 196.286 -0.688342 -3.04415 0
M  V30 2017 N 196.587 1.43421 -0.653314 0
M  V30 2018 C 197.836 2.01032 -0.164076 0
M  V30 2019 C 198.149 1.52147 1.22926 0
M  V30 2020 O 199.355 2.02031 1.81371 0
M  V30 2021 C 197.811 3.59082 -0.24252 0
M  V30 2022 C 197.419 4.1696 -1.63855 0
M  V30 2023 C 199.163 4.24079 0.18911 0
M  V30 2024 C 197.07 5.67304 -1.67092 0
M  V30 2025 H 196 0.751798 -0.0575769 0
M  V30 2026 H 198.651 1.6439 -0.815362 0
M  V30 2027 H 197.033 3.93125 0.476276 0
M  V30 2028 H 198.207 3.94416 -2.38271 0
M  V30 2029 H 196.522 3.64335 -2.01616 0
M  V30 2030 H 199.119 5.34381 0.184775 0
M  V30 2031 H 199.462 3.98005 1.22056 0
M  V30 2032 H 199.995 3.94918 -0.477938 0
M  V30 2033 H 196.734 5.98145 -2.68146 0
M  V30 2034 H 196.254 5.91904 -0.970014 0
M  V30 2035 H 197.933 6.31344 -1.4147 0
M  V30 2036 N 198.065 0.39524 1.52563 0
M  V30 2037 C 199.293 -0.184943 2.06072 0
M  V30 2038 C 199.708 -1.40021 1.26647 0
M  V30 2039 O 199.065 -1.79767 0.314672 0
M  V30 2040 C 199.116 -0.549179 3.57304 0
M  V30 2041 O 198.837 0.617813 4.33722 0
M  V30 2042 C 200.338 -1.18459 4.2718 0
M  V30 2043 H 197.558 -0.0265025 0.670476 0
M  V30 2044 H 200.102 0.562184 1.96621 0
M  V30 2045 H 198.257 -1.2462 3.66809 0
M  V30 2046 H 198.671 0.317091 5.23541 0
M  V30 2047 H 200.145 -1.38976 5.34219 0
M  V30 2048 H 200.622 -2.15368 3.82771 0
M  V30 2049 H 201.228 -0.528163 4.22008 0
M  V30 2050 N 199.544 -1.57102 0.125237 0
M  V30 2051 C 200.96 -1.57915 -0.231322 0
M  V30 2052 C 201.16 -1.13833 -1.66266 0
M  V30 2053 O 200.216 -0.828581 -2.38518 0
M  V30 2054 C 201.529 -3.00699 0.00766489 0
M  V30 2055 C 203.077 -3.12947 -0.0577483 0
M  V30 2056 C 203.552 -4.57742 0.153626 0
M  V30 2057 N 205.043 -4.63092 0.0998073 0
M  V30 2058 C 205.778 -5.72905 0.238174 0
M  V30 2059 N 205.274 -6.91445 0.433057 0
M  V30 2060 N 207.067 -5.6182 0.177308 0
M  V30 2061 H 199.218 -1.84055 1.06007 0
M  V30 2062 H 201.481 -0.850905 0.417929 0
M  V30 2063 H 201.187 -3.3726 0.997431 0
M  V30 2064 H 201.061 -3.70236 -0.721452 0
M  V30 2065 H 203.448 -2.7624 -1.03804 0
M  V30 2066 H 203.529 -2.4594 0.70335 0
M  V30 2067 H 203.173 -4.95149 1.13092 0
M  V30 2068 H 203.103 -5.22848 -0.627534 0
M  V30 2069 H 205.594 -3.77871 -0.047051 0
M  V30 2070 H 205.907 -7.70985 0.529332 0
M  V30 2071 H 204.252 -6.93415 0.469109 0
M  V30 2072 H 207.443 -4.68093 0.0259748 0
M  V30 2073 H 207.616 -6.47357 0.288582 0
M  V30 2074 N 201.022 0.148545 -1.56898 0
M  V30 2075 C 202.433 0.708766 -1.72723 0
M  V30 2076 C 202.784 1.81734 -0.739395 0
M  V30 2077 O 201.909 2.16194 0.0943169 0
M  V30 2078 C 202.504 1.29245 -3.13179 0
M  V30 2079 C 201.063 1.79925 -3.30611 0
M  V30 2080 C 200.21 0.687111 -2.68652 0
M  V30 2081 H 203.161 -0.0771063 -1.58513 0
M  V30 2082 H 203.182 2.16224 -3.13093 0
M  V30 2083 H 202.694 0.485382 -3.85053 0
M  V30 2084 H 200.795 2.63203 -2.63732 0
M  V30 2085 H 200.908 1.92903 -4.38549 0
M  V30 2086 H 199.272 1.11335 -2.29078 0
M  V30 2087 H 200.055 -0.108483 -3.43129 0
M  V30 2088 N 202.5 1.5196 0.417844 0
M  V30 2089 C 203.747 1.65591 1.16559 0
M  V30 2090 C 204.075 0.381565 1.90721 0
M  V30 2091 O 203.33 -0.635156 1.85106 0
M  V30 2092 C 203.629 2.82269 2.19223 0
M  V30 2093 C 203.295 4.20819 1.61933 0
M  V30 2094 C 201.957 4.58506 1.46033 0
M  V30 2095 C 204.309 5.07196 1.20008 0
M  V30 2096 C 201.637 5.80257 0.867113 0
M  V30 2097 C 203.989 6.29544 0.621086 0
M  V30 2098 C 202.653 6.65987 0.449144 0
M  V30 2099 H 201.923 0.605939 0.42652 0
M  V30 2100 H 204.57 1.86041 0.45397 0
M  V30 2101 H 202.875 2.56118 2.96498 0
M  V30 2102 H 204.572 2.90012 2.76936 0
M  V30 2103 H 201.162 3.91116 1.7529 0
M  V30 2104 H 205.346 4.7867 1.31105 0
M  V30 2105 H 200.602 6.07124 0.721833 0
M  V30 2106 H 204.776 6.95805 0.287798 0
M  V30 2107 H 202.403 7.60199 -0.012632 0
M  V30 2108 N 203.978 -0.674533 1.42435 0
M  V30 2109 C 205.203 -1.46784 1.46524 0
M  V30 2110 C 205.628 -1.87938 0.078066 0
M  V30 2111 O 204.986 -1.56014 -0.92354 0
M  V30 2112 C 205.034 -2.69307 2.39805 0
M  V30 2113 O 204.138 -3.67587 1.86959 0
M  V30 2114 H 203.479 -0.440959 0.496439 0
M  V30 2115 H 206.009 -0.827326 1.87127 0
M  V30 2116 H 206.019 -3.17374 2.56393 0
M  V30 2117 H 204.694 -2.38692 3.40586 0
M  V30 2118 H 203.271 -3.2662 1.79927 0
M  V30 2119 N 205.456 -1.28612 -0.910864 0
M  V30 2120 C 206.872 -1.06381 -1.18976 0
M  V30 2121 C 207.072 0.191998 -2.00583 0
M  V30 2122 O 206.128 0.892869 -2.36187 0
M  V30 2123 C 207.441 -2.31295 -1.92154 0
M  V30 2124 C 208.989 -2.36503 -2.05025 0
M  V30 2125 C 209.464 -3.61191 -2.81612 0
M  V30 2126 N 210.955 -3.61847 -2.89172 0
M  V30 2127 C 211.69 -4.55004 -3.4894 0
M  V30 2128 N 211.186 -5.58482 -4.09963 0
M  V30 2129 N 212.979 -4.42594 -3.46506 0
M  V30 2130 H 205.13 -2.09221 -0.366094 0
M  V30 2131 H 207.393 -0.921003 -0.224629 0
M  V30 2132 H 207.099 -3.228 -1.39618 0
M  V30 2133 H 206.973 -2.37934 -2.9269 0
M  V30 2134 H 209.36 -1.45494 -2.5674 0
M  V30 2135 H 209.441 -2.33857 -1.03657 0
M  V30 2136 H 209.085 -4.52545 -2.30576 0
M  V30 2137 H 209.015 -3.61092 -3.83302 0
M  V30 2138 H 211.506 -2.87022 -2.45819 0
M  V30 2139 H 211.819 -6.25704 -4.53557 0
M  V30 2140 H 210.164 -5.62305 -4.08459 0
M  V30 2141 H 213.355 -3.60953 -2.98045 0
M  V30 2142 H 213.528 -5.15381 -3.92793 0
M  V30 2143 N 206.934 1.1197 -1.10907 0
M  V30 2144 C 208.345 1.65114 -0.871446 0
M  V30 2145 C 208.696 1.86885 0.597353 0
M  V30 2146 O 207.821 1.59896 1.45816 0
M  V30 2147 C 208.416 2.99944 -1.5754 0
M  V30 2148 C 206.975 3.50018 -1.38435 0
M  V30 2149 C 206.122 2.24941 -1.62164 0
M  V30 2150 H 209.073 0.956851 -1.2661 0
M  V30 2151 H 209.094 3.66651 -1.01721 0
M  V30 2152 H 208.606 2.84067 -2.64438 0
M  V30 2153 H 206.707 3.71071 -0.337214 0
M  V30 2154 H 206.82 4.29165 -2.12965 0
M  V30 2155 H 205.184 2.3229 -1.04467 0
M  V30 2156 H 205.967 2.11612 -2.70324 0
M  V30 2157 N 208.412 0.89855 1.29475 0
M  V30 2158 C 209.375 0.380272 2.26023 0
M  V30 2159 C 210.375 -0.484891 1.53315 0
M  V30 2160 O 211.565 -0.290108 1.71767 0
M  V30 2161 C 208.697 -0.45651 3.3783 0
M  V30 2162 H 209.89 1.23295 2.73383 0
M  V30 2163 H 207.443 0.676589 1.40897 0
M  V30 2164 H 208.178 -1.32922 2.95808 0
M  V30 2165 H 207.963 0.163393 3.91759 0
M  V30 2166 H 209.453 -0.810466 4.0966 0
M  V30 2167 N 209.89 -1.43072 0.660911 0
M  V30 2168 C 211.136 -2.0202 0.177708 0
M  V30 2169 C 211.469 -1.52066 -1.20787 0
M  V30 2170 O 210.744 -0.716987 -1.80802 0
M  V30 2171 C 211.027 -3.59561 0.197019 0
M  V30 2172 C 210.88 -4.19727 1.61706 0
M  V30 2173 C 212.199 -4.37664 -0.462396 0
M  V30 2174 H 209.318 -0.734034 0.0660494 0
M  V30 2175 H 211.96 -1.70272 0.843058 0
M  V30 2176 H 210.11 -3.86739 -0.369527 0
M  V30 2177 H 211.782 -4.03553 2.23479 0
M  V30 2178 H 210.025 -3.76084 2.16201 0
M  V30 2179 H 210.696 -5.28834 1.58237 0
M  V30 2180 H 213.172 -4.16095 0.0197215 0
M  V30 2181 H 212.048 -5.47305 -0.418188 0
M  V30 2182 H 212.309 -4.14493 -1.53778 0
M  V30 2183 N 211.368 -0.403325 -1.52352 0
M  V30 2184 C 212.331 0.413051 -2.25447 0
M  V30 2185 C 213.331 0.978513 -1.276 0
M  V30 2186 O 214.521 0.858305 -1.51587 0
M  V30 2187 C 211.653 1.58087 -3.02029 0
M  V30 2188 H 212.846 -0.227094 -2.99039 0
M  V30 2189 H 210.399 -0.155722 -1.55522 0
M  V30 2190 H 211.134 2.25804 -2.32772 0
M  V30 2191 H 210.919 1.18195 -3.73861 0
M  V30 2192 H 212.409 2.1585 -3.57489 0
M  V30 2193 N 212.846 1.57033 -0.133567 0
M  V30 2194 C 214.071 2.00475 0.531477 0
M  V30 2195 C 214.496 1.01291 1.58499 0
M  V30 2196 O 213.854 -0.0133279 1.81295 0
M  V30 2197 C 213.902 3.42729 1.12113 0
M  V30 2198 O 213.006 3.46498 2.23636 0
M  V30 2199 H 212.347 0.650876 0.131362 0
M  V30 2200 H 214.877 2.03344 -0.22634 0
M  V30 2201 H 214.887 3.81246 1.4531 0
M  V30 2202 H 213.562 4.14428 0.349557 0
M  V30 2203 H 212.139 3.19811 1.91769 0
M  V30 2204 N 214.325 -0.140222 1.56975 0
M  V30 2205 C 215.257 -1.19818 1.95388 0
M  V30 2206 C 216.27 -1.38816 0.850525 0
M  V30 2207 O 217.459 -1.38267 1.12891 0
M  V30 2208 C 214.559 -2.56189 2.21857 0
M  V30 2209 C 213.732 -2.58077 3.5315 0
M  V30 2210 C 212.791 -3.76037 3.6808 0
M  V30 2211 O 211.817 -3.60598 4.40406 0
M  V30 2212 N 213.019 -4.93763 3.05251 0
M  V30 2213 H 215.784 -0.871609 2.86746 0
M  V30 2214 H 213.345 -0.32972 1.58507 0
M  V30 2215 H 215.337 -3.33623 2.2908 0
M  V30 2216 H 213.907 -2.81111 1.36731 0
M  V30 2217 H 213.127 -1.6651 3.57307 0
M  V30 2218 H 214.415 -2.56377 4.39486 0
M  V30 2219 H 213.813 -5.09209 2.46419 0
M  V30 2220 H 212.37 -5.68949 3.18026 0
M  V30 2221 N 215.803 -1.52179 -0.40978 0
M  V30 2222 C 217.219 -1.40968 -0.74835 0
M  V30 2223 C 217.419 -0.513657 -1.94843 0
M  V30 2224 O 216.475 0.0208026 -2.52491 0
M  V30 2225 C 217.788 -2.83483 -1.0029 0
M  V30 2226 C 219.336 -2.92821 -1.10565 0
M  V30 2227 C 219.811 -4.36303 -1.39296 0
M  V30 2228 N 221.302 -4.39535 -1.46162 0
M  V30 2229 C 222.037 -5.47614 -1.70018 0
M  V30 2230 N 221.533 -6.65812 -1.91483 0
M  V30 2231 N 223.326 -5.35129 -1.72027 0
M  V30 2232 H 215.477 -2.0897 0.380186 0
M  V30 2233 H 217.74 -0.94185 0.107805 0
M  V30 2234 H 217.446 -3.51168 -0.193461 0
M  V30 2235 H 217.32 -3.24487 -1.92323 0
M  V30 2236 H 219.707 -2.25318 -1.90568 0
M  V30 2237 H 219.788 -2.55276 -0.16369 0
M  V30 2238 H 219.432 -5.04366 -0.598109 0
M  V30 2239 H 219.362 -4.71385 -2.34743 0
M  V30 2240 H 221.853 -3.54332 -1.31367 0
M  V30 2241 H 222.166 -7.43964 -2.09134 0
M  V30 2242 H 220.511 -6.68879 -1.88749 0
M  V30 2243 H 223.702 -4.41764 -1.54796 0
M  V30 2244 H 223.875 -6.19433 -1.9028 0
M  V30 2245 N 217.281 0.66697 -1.42791 0
M  V30 2246 C 218.697 0.981027 -1.25889 0
M  V30 2247 C 218.897 2.00793 -0.168695 0
M  V30 2248 O 217.953 2.48321 0.45747 0
M  V30 2249 C 219.266 1.47838 -2.61848 0
M  V30 2250 C 220.814 1.59575 -2.69267 0
M  V30 2251 C 221.289 2.12704 -4.05612 0
M  V30 2252 N 222.78 2.20026 -4.07606 0
M  V30 2253 C 223.515 2.62227 -5.09926 0
M  V30 2254 N 223.011 3.03824 -6.22626 0
M  V30 2255 N 224.804 2.62045 -4.97281 0
M  V30 2256 H 216.955 -0.0127891 -2.12396 0
M  V30 2257 H 219.218 0.0568258 -0.946295 0
M  V30 2258 H 218.924 0.798299 -3.4252 0
M  V30 2259 H 218.798 2.45579 -2.86305 0
M  V30 2260 H 221.185 2.26687 -1.88936 0
M  V30 2261 H 221.266 0.60302 -2.48591 0
M  V30 2262 H 220.91 1.46198 -4.86404 0
M  V30 2263 H 220.84 3.12782 -4.23645 0
M  V30 2264 H 223.331 1.90708 -3.2625 0
M  V30 2265 H 223.644 3.34734 -6.96544 0
M  V30 2266 H 221.989 3.01662 -6.26119 0
M  V30 2267 H 225.18 2.28916 -4.08308 0
M  V30 2268 H 225.353 2.94613 -5.77154 0
M  V30 2269 N 218.759 1.29093 0.90403 0
M  V30 2270 C 219.722 1.1386 1.98919 0
M  V30 2271 C 220.722 0.0753457 1.60623 0
M  V30 2272 O 221.912 0.321931 1.71199 0
M  V30 2273 C 219.044 0.740198 3.32767 0
M  V30 2274 H 220.237 2.10246 2.13861 0
M  V30 2275 H 217.79 1.12218 1.08797 0
M  V30 2276 H 218.525 -0.223997 3.23525 0
M  V30 2277 H 218.31 1.50838 3.61926 0
M  V30 2278 H 219.8 0.656546 4.12407 0
M  V30 2279 N 220.237 -1.11381 1.11499 0
M  V30 2280 C 221.483 -1.83597 0.875423 0
M  V30 2281 C 221.838 -1.83048 -0.592555 0
M  V30 2282 O 221.131 -1.27304 -1.43193 0
M  V30 2283 C 221.325 -3.30026 1.37177 0
M  V30 2284 C 221.154 -3.44837 2.88647 0
M  V30 2285 C 219.924 -3.57825 3.56776 0
M  V30 2286 C 222.122 -3.3907 3.86699 0
M  V30 2287 N 220.104 -3.61113 4.96458 0
M  V30 2288 C 221.475 -3.48986 5.12454 0
M  V30 2289 C 223.53 -3.22605 3.7925 0
M  V30 2290 C 222.233 -3.44135 6.31636 0
M  V30 2291 C 224.259 -3.19072 4.97943 0
M  V30 2292 C 223.621 -3.29559 6.22551 0
M  V30 2293 H 219.72 -0.687044 0.37349 0
M  V30 2294 H 222.304 -1.33265 1.41946 0
M  V30 2295 H 220.475 -3.78874 0.854919 0
M  V30 2296 H 222.207 -3.90153 1.07529 0
M  V30 2297 H 218.962 -3.60414 3.07244 0
M  V30 2298 H 219.386 -3.66394 5.69284 0
M  V30 2299 H 224.028 -3.13382 2.83816 0
M  V30 2300 H 221.746 -3.52126 7.27347 0
M  V30 2301 H 225.332 -3.07498 4.93899 0
M  V30 2302 H 224.212 -3.26815 7.12855 0
M  V30 2303 N 221.715 -0.905404 -1.28997 0
M  V30 2304 C 222.678 -0.392253 -2.25819 0
M  V30 2305 C 223.678 0.476753 -1.5357 0
M  V30 2306 O 224.868 0.280994 -1.71919 0
M  V30 2307 C 222 0.438588 -3.38067 0
M  V30 2308 H 223.193 -1.24743 -2.72725 0
M  V30 2309 H 220.746 -0.684051 -1.40536 0
M  V30 2310 H 221.481 1.31352 -2.96508 0
M  V30 2311 H 221.266 -0.184167 -3.91667 0
M  V30 2312 H 222.756 0.78873 -4.10084 0
M  V30 2313 N 223.193 1.4272 -0.668489 0
M  V30 2314 C 224.421 2.05966 -0.196348 0
M  V30 2315 C 224.836 1.50191 1.14403 0
M  V30 2316 O 224.193 0.639208 1.7094 0
M  V30 2317 C 224.244 3.61314 -0.115815 0
M  V30 2318 O 223.965 4.1502 -1.40322 0
M  V30 2319 C 225.466 4.41663 0.380579 0
M  V30 2320 H 222.686 0.663954 -0.0969829 0
M  V30 2321 H 225.23 1.82966 -0.913446 0
M  V30 2322 H 223.385 3.83448 0.551931 0
M  V30 2323 H 223.799 5.08832 -1.27243 0
M  V30 2324 H 225.273 5.5065 0.385848 0
M  V30 2325 H 225.75 4.15792 1.41471 0
M  V30 2326 H 226.356 4.24534 -0.255209 0
M  V30 2327 N 224.671 0.411399 1.52136 0
M  V30 2328 C 225.917 -0.163888 2.02137 0
M  V30 2329 C 226.25 -1.44597 1.29636 0
M  V30 2330 O 225.525 -1.90272 0.403353 0
M  V30 2331 C 225.808 -0.40927 3.57767 0
M  V30 2332 C 225.661 0.889643 4.40914 0
M  V30 2333 C 226.98 -1.19042 4.23694 0
M  V30 2334 H 224.099 -0.0580896 0.734707 0
M  V30 2335 H 226.741 0.54531 1.82007 0
M  V30 2336 H 224.891 -1.0134 3.7505 0
M  V30 2337 H 226.563 1.52575 4.35337 0
M  V30 2338 H 224.806 1.50011 4.07037 0
M  V30 2339 H 225.477 0.672314 5.4789 0
M  V30 2340 H 227.953 -0.678942 4.10524 0
M  V30 2341 H 226.829 -1.33086 5.32522 0
M  V30 2342 H 227.09 -2.21166 3.82803 0
M  V30 2343 N 226.149 -1.5696 0.141893 0
M  V30 2344 C 227.397 -1.95573 -0.509484 0
M  V30 2345 C 227.718 -1.02746 -1.65736 0
M  V30 2346 O 226.988 -0.0880311 -1.95702 0
M  V30 2347 H 225.568 -0.722115 -0.191205 0
M  V30 2348 H 228.23 -1.93697 0.216196 0
M  V30 2349 H 227.326 -2.99171 -0.889 0
M  V30 2350 N 227.627 0.131896 -1.57047 0
M  V30 2351 C 228.557 1.16384 -2.02428 0
M  V30 2352 C 229.538 1.43936 -0.90644 0
M  V30 2353 O 230.723 1.54599 -1.17528 0
M  V30 2354 C 227.853 2.49328 -2.4177 0
M  V30 2355 C 226.807 2.36266 -3.56879 0
M  V30 2356 C 226.133 3.74057 -3.8208 0
M  V30 2357 C 227.433 1.834 -4.89042 0
M  V30 2358 H 229.127 0.786433 -2.88887 0
M  V30 2359 H 226.673 0.376855 -1.38981 0
M  V30 2360 H 228.626 3.21759 -2.7212 0
M  V30 2361 H 227.35 2.88934 -1.52266 0
M  V30 2362 H 226.009 1.66286 -3.26718 0
M  V30 2363 H 225.657 4.11125 -2.89803 0
M  V30 2364 H 225.357 3.66174 -4.59554 0
M  V30 2365 H 226.881 4.48012 -4.1487 0
M  V30 2366 H 228.295 2.45636 -5.18011 0
M  V30 2367 H 226.692 1.8637 -5.70426 0
M  V30 2368 H 227.762 0.790662 -4.7841 0
M  V30 2369 N 229.106 1.52395 0.401703 0
M  V30 2370 C 230.352 1.67065 1.14966 0
M  V30 2371 C 230.685 0.403052 1.89971 0
M  V30 2372 O 229.96 -0.598774 1.85054 0
M  V30 2373 C 230.243 2.8975 2.13815 0
M  V30 2374 C 230.096 4.26578 1.42658 0
M  V30 2375 C 231.415 3.07965 3.14397 0
M  V30 2376 H 228.534 0.607968 0.416587 0
M  V30 2377 H 231.176 1.84965 0.434511 0
M  V30 2378 H 229.326 2.74619 2.74803 0
M  V30 2379 H 230.998 4.53451 0.847329 0
M  V30 2380 H 229.241 4.27639 0.72849 0
M  V30 2381 H 229.912 5.08483 2.14823 0
M  V30 2382 H 232.388 3.22043 2.63491 0
M  V30 2383 H 231.264 3.95308 3.80819 0
M  V30 2384 H 231.525 2.21611 3.82545 0
M  V30 2385 N 230.584 -0.659388 1.43143 0
M  V30 2386 C 231.83 -1.41984 1.45644 0
M  V30 2387 C 232.185 -1.92245 0.0771718 0
M  V30 2388 O 231.478 -1.68976 -0.903205 0
M  V30 2389 C 231.672 -2.62206 2.42864 0
M  V30 2390 C 231.501 -2.23711 3.90107 0
M  V30 2391 C 230.271 -2.12332 4.58523 0
M  V30 2392 C 232.469 -1.84384 4.80112 0
M  V30 2393 N 230.451 -1.67102 5.9072 0
M  V30 2394 C 231.822 -1.5019 6.01534 0
M  V30 2395 C 233.877 -1.71512 4.67427 0
M  V30 2396 C 232.58 -1.04414 7.11681 0
M  V30 2397 C 234.606 -1.27142 5.77572 0
M  V30 2398 C 233.968 -0.938808 6.98116 0
M  V30 2399 H 230.067 -0.515448 0.588079 0
M  V30 2400 H 232.651 -0.759409 1.79279 0
M  V30 2401 H 230.822 -3.25917 2.11265 0
M  V30 2402 H 232.554 -3.28877 2.35843 0
M  V30 2403 H 229.309 -2.31893 4.12944 0
M  V30 2404 H 229.733 -1.46866 6.60878 0
M  V30 2405 H 234.375 -1.95868 3.74694 0
M  V30 2406 H 232.093 -0.788061 8.04248 0
M  V30 2407 H 235.679 -1.17681 5.69774 0
M  V30 2408 H 234.559 -0.6007 7.81896 0
M  V30 2409 N 232.062 -1.29571 -0.897171 0
M  V30 2410 C 233.025 -1.14913 -1.98312 0
M  V30 2411 C 234.025 -0.0838629 -1.60581 0
M  V30 2412 O 235.215 -0.331006 -1.71026 0
M  V30 2413 C 232.347 -0.757835 -3.3237 0
M  V30 2414 H 233.54 -2.11377 -2.12743 0
M  V30 2415 H 231.093 -1.12793 -1.08201 0
M  V30 2416 H 231.828 0.206837 -3.2364 0
M  V30 2417 H 231.613 -1.52755 -3.61121 0
M  V30 2418 H 233.103 -0.678408 -4.12053 0
M  V30 2419 N 233.54 1.10788 -1.12088 0
M  V30 2420 C 234.503 2.15207 -0.788577 0
M  V30 2421 C 235.503 1.59609 0.195317 0
M  V30 2422 O 236.693 1.74174 -0.0300193 0
M  V30 2423 C 233.825 3.4047 -0.171174 0
M  V30 2424 H 235.018 2.46116 -1.71368 0
M  V30 2425 H 232.571 1.26089 -0.923652 0
M  V30 2426 H 233.306 3.15176 0.763832 0
M  V30 2427 H 233.091 3.82109 -0.879514 0
M  V30 2428 H 234.581 4.17576 0.04496 0
M  V30 2429 N 235.018 0.912232 1.28515 0
M  V30 2430 C 235.981 0.404223 2.25607 0
M  V30 2431 C 236.981 -0.468602 1.53821 0
M  V30 2432 O 238.171 -0.271873 1.72065 0
M  V30 2433 C 235.303 -0.420653 3.38295 0
M  V30 2434 H 236.496 1.26188 2.7206 0
M  V30 2435 H 234.049 0.691495 1.40171 0
M  V30 2436 H 234.784 -1.29777 2.97201 0
M  V30 2437 H 234.569 0.204935 3.91564 0
M  V30 2438 H 236.059 -0.766971 4.10496 0
M  V30 2439 N 236.496 -1.42363 0.676048 0
M  V30 2440 C 237.426 -2.33497 0.0124832 0
M  V30 2441 C 238.407 -1.50748 -0.787981 0
M  V30 2442 O 239.592 -1.79346 -0.744884 0
M  V30 2443 C 236.722 -3.34377 -0.938582 0
M  V30 2444 C 235.676 -4.27289 -0.246622 0
M  V30 2445 C 235.002 -5.18386 -1.31071 0
M  V30 2446 C 236.302 -5.14916 0.875125 0
M  V30 2447 H 237.996 -2.89233 0.773593 0
M  V30 2448 H 235.542 -1.39073 0.37346 0
M  V30 2449 H 237.495 -3.97044 -1.41188 0
M  V30 2450 H 236.219 -2.76947 -1.73113 0
M  V30 2451 H 234.878 -3.66018 0.206456 0
M  V30 2452 H 234.526 -4.57282 -2.09528 0
M  V30 2453 H 234.226 -5.81378 -0.852839 0
M  V30 2454 H 235.75 -5.83929 -1.78492 0
M  V30 2455 H 237.164 -5.71262 0.482983 0
M  V30 2456 H 235.561 -5.86747 1.25887 0
M  V30 2457 H 236.631 -4.53242 1.72335 0
M  V30 2458 N 237.974 -0.419461 -1.51915 0
M  V30 2459 C 238.937 0.389116 -2.25873 0
M  V30 2460 C 239.937 0.964924 -1.28631 0
M  V30 2461 O 241.127 0.842179 -1.52489 0
M  V30 2462 C 238.259 1.54874 -3.03689 0
M  V30 2463 H 239.452 -0.258799 -2.98781 0
M  V30 2464 H 237.005 -0.172209 -1.55348 0
M  V30 2465 H 237.74 2.23323 -2.35154 0
M  V30 2466 H 237.525 1.14223 -3.75094 0
M  V30 2467 H 239.015 2.12046 -3.59759 0
M  V30 2468 N 239.452 1.56882 -0.150215 0
M  V30 2469 C 240.382 2.19935 0.784284 0
M  V30 2470 C 241.363 1.14854 1.25469 0
M  V30 2471 O 242.548 1.43209 1.31168 0
M  V30 2472 C 239.678 2.82349 2.02229 0
M  V30 2473 C 238.632 3.93285 1.68853 0
M  V30 2474 C 237.958 4.42649 2.99944 0
M  V30 2475 C 239.258 5.13904 0.932714 0
M  V30 2476 H 240.952 2.9828 0.258781 0
M  V30 2477 H 238.498 1.43473 0.123029 0
M  V30 2478 H 240.451 3.25126 2.68088 0
M  V30 2479 H 239.175 2.0134 2.57157 0
M  V30 2480 H 237.834 3.5113 1.05371 0
M  V30 2481 H 237.482 3.58458 3.52869 0
M  V30 2482 H 237.182 5.17476 2.78374 0
M  V30 2483 H 238.706 4.88099 3.66868 0
M  V30 2484 H 240.12 5.53506 1.49345 0
M  V30 2485 H 238.517 5.94515 0.81684 0
M  V30 2486 H 239.587 4.84842 -0.0749568 0
M  V30 2487 N 240.93 -0.123565 1.57115 0
M  V30 2488 C 242.178 -0.83051 1.84247 0
M  V30 2489 C 242.499 -1.80629 0.73471 0
M  V30 2490 O 241.769 -1.94403 -0.241688 0
M  V30 2491 H 240.349 -0.309694 0.679778 0
M  V30 2492 H 243.011 -0.111976 1.94578 0
M  V30 2493 H 242.107 -1.37852 2.80006 0
M  V30 2494 N 242.408 -1.52605 -0.393616 0
M  V30 2495 C 243.338 -1.80022 -1.48709 0
M  V30 2496 C 244.319 -0.651995 -1.57108 0
M  V30 2497 O 245.504 -0.89913 -1.72132 0
M  V30 2498 C 242.634 -1.96492 -2.86371 0
M  V30 2499 C 241.588 -3.12161 -2.92813 0
M  V30 2500 C 240.914 -3.13877 -4.3288 0
M  V30 2501 C 242.214 -4.51322 -2.6288 0
M  V30 2502 H 243.908 -2.71589 -1.26015 0
M  V30 2503 H 241.454 -1.30684 -0.604778 0
M  V30 2504 H 243.407 -2.14255 -3.62867 0
M  V30 2505 H 242.131 -1.01611 -3.10391 0
M  V30 2506 H 240.79 -2.94173 -2.18764 0
M  V30 2507 H 240.438 -2.16687 -4.53933 0
M  V30 2508 H 240.138 -3.91576 -4.38112 0
M  V30 2509 H 241.662 -3.33789 -5.1129 0
M  V30 2510 H 243.076 -4.69435 -3.29096 0
M  V30 2511 H 241.473 -5.31053 -2.79468 0
M  V30 2512 H 242.543 -4.58353 -1.58242 0
M  V30 2513 N 243.887 0.651787 -1.4349 0
M  V30 2514 C 244.817 1.77621 -1.51569 0
M  V30 2515 C 245.798 1.66022 -0.370253 0
M  V30 2516 O 246.983 1.85095 -0.587658 0
M  V30 2517 C 244.113 3.16056 -1.43966 0
M  V30 2518 C 243.067 3.4242 -2.56774 0
M  V30 2519 C 242.393 4.8067 -2.34223 0
M  V30 2520 C 243.693 3.37023 -3.99015 0
M  V30 2521 H 245.387 1.71117 -2.45681 0
M  V30 2522 H 242.933 0.821825 -1.18246 0
M  V30 2523 H 244.886 3.94472 -1.48221 0
M  V30 2524 H 243.61 3.23293 -0.463586 0
M  V30 2525 H 242.269 2.66375 -2.51873 0
M  V30 2526 H 241.917 4.84585 -1.34856 0
M  V30 2527 H 241.617 4.9927 -3.09844 0
M  V30 2528 H 243.141 5.61342 -2.40265 0
M  V30 2529 H 244.555 4.05374 -4.05395 0
M  V30 2530 H 242.952 3.67159 -4.74673 0
M  V30 2531 H 244.022 2.3518 -4.2405 0
M  V30 2532 N 245.365 1.30045 0.890287 0
M  V30 2533 C 246.776 1.16738 1.45702 0
M  V30 2534 C 247.127 -0.233939 1.948 0
M  V30 2535 O 246.252 -1.13021 1.84541 0
M  V30 2536 C 246.847 2.11313 2.64825 0
M  V30 2537 C 245.406 2.02001 3.17604 0
M  V30 2538 C 244.553 2.01699 1.90296 0
M  V30 2539 H 247.504 1.42392 0.700726 0
M  V30 2540 H 247.525 1.69086 3.40867 0
M  V30 2541 H 247.037 3.13294 2.2906 0
M  V30 2542 H 245.138 1.03142 3.5804 0
M  V30 2543 H 245.251 2.90128 3.81264 0
M  V30 2544 H 243.615 1.46427 2.08402 0
M  V30 2545 H 244.398 3.05402 1.56795 0
M  V30 2546 N 246.843 -1.10192 1.12674 0
M  V30 2547 C 247.773 -2.18652 0.819362 0
M  V30 2548 C 248.754 -1.68698 -0.217915 0
M  V30 2549 O 249.939 -1.94041 -0.0785581 0
M  V30 2550 C 247.069 -3.46202 0.27594 0
M  V30 2551 C 246.023 -4.09444 1.24656 0
M  V30 2552 C 245.349 -5.31725 0.563258 0
M  V30 2553 C 246.649 -4.52863 2.60217 0
M  V30 2554 H 248.343 -2.44622 1.72628 0
M  V30 2555 H 245.889 -1.17571 0.831451 0
M  V30 2556 H 247.842 -4.21372 0.0486149 0
M  V30 2557 H 246.566 -3.1973 -0.666331 0
M  V30 2558 H 245.225 -3.36284 1.45974 0
M  V30 2559 H 244.873 -5.0153 -0.384235 0
M  V30 2560 H 244.573 -5.74991 1.21075 0
M  V30 2561 H 246.097 -6.09624 0.34503 0
M  V30 2562 H 247.511 -5.19294 2.42913 0
M  V30 2563 H 245.908 -5.06986 3.21068 0
M  V30 2564 H 246.978 -3.65656 3.18471 0
M  V30 2565 N 248.321 -0.919034 -1.28029 0
M  V30 2566 C 249.251 -0.428581 -2.29533 0
M  V30 2567 C 250.232 0.50659 -1.62381 0
M  V30 2568 O 251.417 0.413195 -1.89753 0
M  V30 2569 C 248.547 0.327388 -3.45753 0
M  V30 2570 C 247.501 -0.519137 -4.2484 0
M  V30 2571 C 246.827 0.365486 -5.33449 0
M  V30 2572 C 248.127 -1.77914 -4.91064 0
M  V30 2573 H 249.821 -1.27687 -2.70807 0
M  V30 2574 H 247.367 -0.615428 -1.30186 0
M  V30 2575 H 249.32 0.681378 -4.15855 0
M  V30 2576 H 248.044 1.20963 -3.03374 0
M  V30 2577 H 246.703 -0.855717 -3.56473 0
M  V30 2578 H 246.351 1.24642 -4.87312 0
M  V30 2579 H 246.051 -0.197356 -5.87268 0
M  V30 2580 H 247.575 0.715241 -6.06396 0
M  V30 2581 H 248.989 -1.49374 -5.53498 0
M  V30 2582 H 247.386 -2.2848 -5.54903 0
M  V30 2583 H 248.456 -2.50382 -4.15255 0
M  V30 2584 N 249.799 1.42003 -0.683588 0
M  V30 2585 C 251.047 2.01015 -0.209101 0
M  V30 2586 C 251.368 1.54365 1.19149 0
M  V30 2587 O 250.638 0.769083 1.80172 0
M  V30 2588 H 249.218 0.743294 -0.074315 0
M  V30 2589 H 251.88 1.73798 -0.882066 0
M  V30 2590 H 250.976 3.11343 -0.2172 0
M  V30 2591 N 251.277 0.427512 1.51691 0
M  V30 2592 C 252.523 -0.142439 2.02299 0
M  V30 2593 C 252.856 -1.43214 1.31162 0
M  V30 2594 O 252.131 -1.89833 0.423511 0
M  V30 2595 C 252.414 -0.371301 3.58181 0
M  V30 2596 C 252.267 0.936358 4.39946 0
M  V30 2597 C 253.586 -1.14542 4.24933 0
M  V30 2598 H 250.705 -0.0502937 0.735282 0
M  V30 2599 H 253.347 0.564584 1.81418 0
M  V30 2600 H 251.497 -0.973559 3.76104 0
M  V30 2601 H 253.169 1.57184 4.33694 0
M  V30 2602 H 251.412 1.5432 4.05423 0
M  V30 2603 H 252.083 0.730388 5.47147 0
M  V30 2604 H 254.559 -0.635362 4.11221 0
M  V30 2605 H 253.435 -1.27431 5.33903 0
M  V30 2606 H 253.696 -2.17093 3.85127 0
M  V30 2607 N 252.755 -1.56801 0.158532 0
M  V30 2608 C 254.003 -1.96102 -0.488712 0
M  V30 2609 C 254.324 -1.04498 -1.64636 0
M  V30 2610 O 253.594 -0.108783 -1.95598 0
M  V30 2611 H 252.174 -0.724102 -0.183535 0
M  V30 2612 H 254.836 -1.93457 0.236728 0
M  V30 2613 H 253.932 -3.00097 -0.857219 0
M  V30 2614 N 254.233 0.115231 -1.57178 0
M  V30 2615 C 255.649 0.468877 -1.52557 0
M  V30 2616 C 255.849 1.81649 -0.872125 0
M  V30 2617 O 254.905 2.48347 -0.45606 0
M  V30 2618 C 256.218 0.4499 -2.97315 0
M  V30 2619 C 257.766 0.533185 -3.08425 0
M  V30 2620 C 258.241 0.54456 -4.54751 0
M  V30 2621 N 259.732 0.605892 -4.5922 0
M  V30 2622 C 260.467 0.636203 -5.6986 0
M  V30 2623 N 259.963 0.623931 -6.89985 0
M  V30 2624 N 261.756 0.679496 -5.57978 0
M  V30 2625 H 253.907 -0.767712 -1.9804 0
M  V30 2626 H 256.17 -0.283609 -0.904583 0
M  V30 2627 H 255.876 -0.472721 -3.48509 0
M  V30 2628 H 255.75 1.27632 -3.5495 0
M  V30 2629 H 258.137 1.44623 -2.57232 0
M  V30 2630 H 258.218 -0.320995 -2.53778 0
M  V30 2631 H 257.862 -0.364452 -5.06591 0
M  V30 2632 H 257.792 1.41568 -5.07214 0
M  V30 2633 H 260.283 0.621386 -3.72756 0
M  V30 2634 H 260.596 0.649787 -7.70063 0
M  V30 2635 H 258.941 0.591296 -6.9248 0
M  V30 2636 H 262.132 0.686472 -4.63039 0
M  V30 2637 H 262.305 0.69965 -6.44212 0
M  V30 2638 N 255.711 1.52812 0.385517 0
M  V30 2639 C 256.941 1.71658 1.14966 0
M  V30 2640 C 257.349 0.436253 1.84102 0
M  V30 2641 O 256.692 -0.599313 1.73649 0
M  V30 2642 C 256.754 2.81309 2.23843 0
M  V30 2643 C 256.418 4.22313 1.74644 0
M  V30 2644 C 257.415 5.05352 1.22129 0
M  V30 2645 C 255.1 4.68648 1.80761 0
M  V30 2646 C 257.094 6.32807 0.763838 0
M  V30 2647 C 254.781 5.96086 1.34627 0
M  V30 2648 C 255.779 6.77996 0.825264 0
M  V30 2649 O 255.467 8.03045 0.370669 0
M  V30 2650 H 255.199 0.578022 0.350523 0
M  V30 2651 H 257.753 2.00263 0.456509 0
M  V30 2652 H 255.983 2.48133 2.96592 0
M  V30 2653 H 257.672 2.88524 2.85497 0
M  V30 2654 H 258.438 4.70736 1.16758 0
M  V30 2655 H 254.317 4.04979 2.20256 0
M  V30 2656 H 257.861 6.96689 0.356494 0
M  V30 2657 H 253.758 6.30205 1.39686 0
M  V30 2658 H 254.526 8.17021 0.491829 0
M  V30 2659 N 257.189 -0.644168 1.43834 0
M  V30 2660 C 258.417 -1.43147 1.49387 0
M  V30 2661 C 258.832 -1.88452 0.114583 0
M  V30 2662 O 258.189 -1.60047 -0.876989 0
M  V30 2663 C 258.24 -2.66046 2.44748 0
M  V30 2664 O 257.961 -2.22633 3.77314 0
M  V30 2665 C 259.462 -3.59311 2.59635 0
M  V30 2666 H 256.682 -0.439447 0.507077 0
M  V30 2667 H 259.226 -0.78895 1.88669 0
M  V30 2668 H 257.381 -3.26418 2.08638 0
M  V30 2669 H 257.795 -3.02216 4.28679 0
M  V30 2670 H 259.269 -4.42187 3.30416 0
M  V30 2671 H 259.746 -4.07259 1.64427 0
M  V30 2672 H 260.352 -3.04816 2.96593 0
M  V30 2673 N 258.668 -1.30515 -0.883378 0
M  V30 2674 C 259.914 -1.19607 -1.63774 0
M  V30 2675 C 260.247 0.248314 -1.92606 0
M  V30 2676 O 259.522 1.17742 -1.54813 0
M  V30 2677 C 259.805 -2.02669 -2.97653 0
M  V30 2678 C 259.658 -3.55335 -2.75784 0
M  V30 2679 C 260.977 -1.86573 -3.98596 0
M  V30 2680 H 258.096 -0.435856 -0.594305 0
M  V30 2681 H 260.738 -1.60165 -1.02212 0
M  V30 2682 H 258.888 -1.68208 -3.50197 0
M  V30 2683 H 260.56 -3.99863 -2.30016 0
M  V30 2684 H 258.803 -3.79438 -2.1026 0
M  V30 2685 H 259.474 -4.08745 -3.70988 0
M  V30 2686 H 261.95 -2.16703 -3.55217 0
M  V30 2687 H 260.826 -2.47014 -4.90179 0
M  V30 2688 H 261.087 -0.825321 -4.34328 0
M  V30 2689 N 260.146 1.09593 -1.13257 0
M  V30 2690 C 261.078 2.16015 -0.766167 0
M  V30 2691 C 262.091 1.61423 0.211303 0
M  V30 2692 O 263.28 1.78498 -0.00863946 0
M  V30 2693 C 260.38 3.38706 -0.114662 0
M  V30 2694 C 259.553 4.22717 -1.12379 0
M  V30 2695 C 258.612 5.23835 -0.498301 0
M  V30 2696 O 257.638 5.573 -1.15781 0
M  V30 2697 N 258.84 5.75886 0.730417 0
M  V30 2698 H 261.605 2.48055 -1.68193 0
M  V30 2699 H 259.166 1.25292 -1.02535 0
M  V30 2700 H 261.158 4.03464 0.315991 0
M  V30 2701 H 259.728 3.04569 0.704011 0
M  V30 2702 H 258.948 3.54122 -1.73179 0
M  V30 2703 H 260.236 4.75673 -1.80589 0
M  V30 2704 H 259.634 5.50911 1.28504 0
M  V30 2705 H 258.191 6.42387 1.10376 0
M  V30 2706 N 261.624 0.925811 1.2754 0
M  V30 2707 C 262.854 0.580666 1.98272 0
M  V30 2708 C 263.262 -0.845207 1.69272 0
M  V30 2709 O 262.605 -1.57306 0.948707 0
M  V30 2710 C 262.667 0.724418 3.52126 0
M  V30 2711 C 262.331 2.12206 4.04744 0
M  V30 2712 C 263.328 3.09604 4.17662 0
M  V30 2713 C 261.013 2.4385 4.39138 0
M  V30 2714 C 263.007 4.36755 4.64246 0
M  V30 2715 C 260.694 3.71237 4.85414 0
M  V30 2716 C 261.692 4.67503 4.97926 0
M  V30 2717 O 261.38 5.92624 5.43187 0
M  V30 2718 H 261.112 0.218987 0.639547 0
M  V30 2719 H 263.666 1.24452 1.63404 0
M  V30 2720 H 261.896 0.0034663 3.867 0
M  V30 2721 H 263.585 0.384607 4.04074 0
M  V30 2722 H 264.351 2.86478 3.91351 0
M  V30 2723 H 260.23 1.69665 4.28643 0
M  V30 2724 H 263.774 5.11898 4.73927 0
M  V30 2725 H 259.671 3.94182 5.11166 0
M  V30 2726 H 260.439 5.95585 5.61445 0
M  V30 2727 N 263.102 -1.41638 0.69111 0
M  V30 2728 C 264.513 -1.84346 0.295517 0
M  V30 2729 C 264.864 -1.57833 -1.16547 0
M  V30 2730 O 263.989 -1.04648 -1.89414 0
M  V30 2731 C 264.584 -3.34636 0.529575 0
M  V30 2732 C 263.143 -3.7593 0.187944 0
M  V30 2733 C 262.29 -2.65082 0.814052 0
M  V30 2734 H 265.241 -1.31253 0.892092 0
M  V30 2735 H 265.262 -3.79903 -0.213148 0
M  V30 2736 H 264.774 -3.53901 1.59297 0
M  V30 2737 H 262.875 -3.62268 -0.871367 0
M  V30 2738 H 262.988 -4.74808 0.63985 0
M  V30 2739 H 261.352 -2.53528 0.244017 0
M  V30 2740 H 262.135 -2.87167 1.88123 0
M  V30 2741 N 264.58 -0.43555 -1.51462 0
M  V30 2742 C 265.828 0.131254 -2.01673 0
M  V30 2743 C 266.149 1.43368 -1.32177 0
M  V30 2744 O 265.419 1.90524 -0.455769 0
M  V30 2745 H 263.999 0.0514954 -0.745223 0
M  V30 2746 H 266.661 -0.577847 -1.86137 0
M  V30 2747 H 265.757 0.308446 -3.10572 0
M  V30 2748 N 266.058 1.56714 -0.166846 0
M  V30 2749 C 267.283 2.01557 0.488833 0
M  V30 2750 C 267.708 1.0463 1.56314 0
M  V30 2751 O 267.066 0.0251304 1.81283 0
M  V30 2752 C 267.114 3.4503 1.04818 0
M  V30 2753 O 266.218 3.51163 2.16236 0
M  V30 2754 H 265.559 0.653516 0.117526 0
M  V30 2755 H 268.089 2.02818 -0.269421 0
M  V30 2756 H 268.099 3.84243 1.37191 0
M  V30 2757 H 266.774 4.15077 0.261572 0
M  V30 2758 H 265.351 3.23807 1.84942 0
M  V30 2759 N 267.536 -0.106894 1.57237 0
M  V30 2760 C 268.782 -0.808678 1.86633 0
M  V30 2761 C 269.137 -1.76917 0.756178 0
M  V30 2762 O 268.43 -1.90055 -0.242834 0
M  V30 2763 C 268.624 -1.58628 3.20268 0
M  V30 2764 C 268.453 -0.702592 4.44178 0
M  V30 2765 C 267.223 -0.352808 5.04067 0
M  V30 2766 C 269.421 -0.0148031 5.14298 0
M  V30 2767 N 267.403 0.540279 6.11518 0
M  V30 2768 C 268.774 0.736809 6.15606 0
M  V30 2769 C 270.829 0.0603524 4.97863 0
M  V30 2770 C 269.532 1.55654 7.02257 0
M  V30 2771 C 271.558 0.866942 5.85011 0
M  V30 2772 C 270.92 1.60671 6.85831 0
M  V30 2773 H 267.019 -0.27246 0.733001 0
M  V30 2774 H 269.603 -0.0717858 1.94568 0
M  V30 2775 H 267.774 -2.29413 3.13408 0
M  V30 2776 H 269.506 -2.23434 3.3743 0
M  V30 2777 H 266.261 -0.697802 4.68431 0
M  V30 2778 H 266.685 0.979029 6.69884 0
M  V30 2779 H 271.327 -0.497236 4.19866 0
M  V30 2780 H 269.045 2.12524 7.79653 0
M  V30 2781 H 272.631 0.927612 5.74358 0
M  V30 2782 H 271.511 2.2208 7.52097 0
M  V30 2783 N 269.014 -1.53014 -0.377408 0
M  V30 2784 C 270.254 -1.70318 -1.1301 0
M  V30 2785 C 270.618 -0.439538 -1.86901 0
M  V30 2786 O 271.819 -0.489095 -2.64313 0
M  V30 2787 C 270.09 -2.91125 -2.07319 0
M  V30 2788 S 271.649 -3.29075 -2.90268 0
M  V30 2789 H 268.467 -0.599426 -0.382374 0
M  V30 2790 H 271.069 -1.91089 -0.412933 0
M  V30 2791 H 269.773 -3.81303 -1.51777 0
M  V30 2792 H 269.304 -2.7272 -2.83526 0
M  V30 2793 H 271.319 -2.80165 -4.09539 0
M  V30 2794 N 270.492 0.636531 -1.44174 0
M  V30 2795 C 271.739 1.39619 -1.46672 0
M  V30 2796 C 272.067 1.94257 -0.0972691 0
M  V30 2797 O 271.322 1.73768 0.900175 0
M  V30 2798 C 271.621 2.58309 -2.47005 0
M  V30 2799 C 271.287 2.21992 -3.92467 0
M  V30 2800 C 269.949 2.118 -4.32081 0
M  V30 2801 C 272.301 1.9321 -4.84065 0
M  V30 2802 C 269.629 1.71007 -5.61225 0
M  V30 2803 C 271.981 1.53911 -6.13591 0
M  V30 2804 C 270.645 1.42257 -6.52165 0
M  V30 2805 H 269.915 0.510902 -0.536712 0
M  V30 2806 H 272.562 0.722328 -1.77355 0
M  V30 2807 H 270.867 3.30903 -2.09786 0
M  V30 2808 H 272.564 3.16533 -2.46186 0
M  V30 2809 H 269.154 2.30841 -3.61124 0
M  V30 2810 H 273.338 1.99997 -4.54219 0
M  V30 2811 H 268.594 1.60583 -5.89935 0
M  V30 2812 H 272.768 1.30677 -6.8403 0
M  V30 2813 H 270.395 1.10419 -7.52138 0
M  V30 2814 N 271.97 1.30982 0.876444 0
M  V30 2815 C 272.9 1.20668 1.99903 0
M  V30 2816 C 273.881 0.095354 1.69833 0
M  V30 2817 O 275.066 0.27885 1.92188 0
M  V30 2818 C 272.196 0.90655 3.3526 0
M  V30 2819 C 271.15 1.97675 3.79617 0
M  V30 2820 C 270.476 1.52943 5.1236 0
M  V30 2821 C 271.776 3.389 3.97422 0
M  V30 2822 H 273.47 2.14586 2.0879 0
M  V30 2823 H 271.016 1.03308 1.00317 0
M  V30 2824 H 272.969 0.821025 4.13324 0
M  V30 2825 H 271.693 -0.0682969 3.26529 0
M  V30 2826 H 270.352 2.05205 3.03787 0
M  V30 2827 H 270 0.54262 5.00065 0
M  V30 2828 H 269.7 2.24532 5.43009 0
M  V30 2829 H 271.224 1.45786 5.92941 0
M  V30 2830 H 272.638 3.34081 4.659 0
M  V30 2831 H 271.035 4.0865 4.3946 0
M  V30 2832 H 272.105 3.80163 3.01006 0
M  V30 2833 N 273.449 -1.08991 1.13837 0
M  V30 2834 C 274.677 -1.85011 0.926202 0
M  V30 2835 C 275.092 -1.8135 -0.525127 0
M  V30 2836 O 274.449 -1.21287 -1.36366 0
M  V30 2837 C 274.5 -3.32802 1.41155 0
M  V30 2838 O 274.221 -3.36444 2.80601 0
M  V30 2839 C 275.722 -4.25649 1.23847 0
M  V30 2840 H 272.942 -0.584249 0.32999 0
M  V30 2841 H 275.486 -1.37688 1.51202 0
M  V30 2842 H 273.641 -3.77536 0.868631 0
M  V30 2843 H 274.055 -4.28657 3.02248 0
M  V30 2844 H 275.529 -5.27485 1.62675 0
M  V30 2845 H 276.006 -4.38828 0.18065 0
M  V30 2846 H 276.612 -3.86735 1.76964 0
M  V30 2847 N 274.927 -0.932562 -1.27047 0
M  V30 2848 C 275.857 -0.452902 -2.29066 0
M  V30 2849 C 276.838 0.489338 -1.62909 0
M  V30 2850 O 278.023 0.393046 -1.90181 0
M  V30 2851 C 275.153 0.290698 -3.46081 0
M  V30 2852 C 274.107 -0.564168 -4.24265 0
M  V30 2853 C 273.433 0.308886 -5.33807 0
M  V30 2854 C 274.733 -1.83112 -4.89149 0
M  V30 2855 H 276.427 -1.30552 -2.69437 0
M  V30 2856 H 273.973 -0.629201 -1.29526 0
M  V30 2857 H 275.926 0.637233 -4.16554 0
M  V30 2858 H 274.65 1.17738 -3.0464 0
M  V30 2859 H 273.309 -0.893477 -3.55545 0
M  V30 2860 H 272.957 1.19467 -4.88607 0
M  V30 2861 H 272.657 -0.259633 -5.87026 0
M  V30 2862 H 274.181 0.650884 -6.07121 0
M  V30 2863 H 275.595 -1.55236 -5.51883 0
M  V30 2864 H 273.992 -2.34353 -5.52448 0
M  V30 2865 H 275.062 -2.54772 -4.12576 0
M  V30 2866 N 276.405 1.4127 -0.698611 0
M  V30 2867 C 277.653 2.00782 -0.230409 0
M  V30 2868 C 277.974 1.5562 1.17505 0
M  V30 2869 O 277.244 0.78815 1.79346 0
M  V30 2870 H 275.824 0.742464 -0.0821944 0
M  V30 2871 H 278.486 1.72852 -0.90045 0
M  V30 2872 H 277.582 3.11095 -0.25021 0
M  V30 2873 N 277.883 0.443576 1.51229 0
M  V30 2874 C 278.846 -0.353132 2.26463 0
M  V30 2875 C 279.846 -0.944338 1.3015 0
M  V30 2876 O 281.036 -0.817813 1.5381 0
M  V30 2877 C 278.168 -1.50023 3.06114 0
M  V30 2878 H 279.361 0.3063 2.98332 0
M  V30 2879 H 276.914 0.196902 1.55055 0
M  V30 2880 H 277.649 -2.19553 2.38677 0
M  V30 2881 H 277.434 -1.08241 3.76864 0
M  V30 2882 H 278.924 -2.06296 3.63087 0
M  V30 2883 N 279.361 -1.56624 0.175154 0
M  V30 2884 C 280.271 -2.21741 -0.766042 0
M  V30 2885 C 281.287 -1.21023 -1.25018 0
M  V30 2886 O 282.463 -1.53697 -1.3015 0
M  V30 2887 C 279.528 -2.84839 -1.97655 0
M  V30 2888 C 278.589 -4.00769 -1.53892 0
M  V30 2889 C 277.822 -4.60849 -2.69173 0
M  V30 2890 O 278.045 -4.19823 -3.86141 0
M  V30 2891 O 276.979 -5.50655 -2.43028 0
M  V30 2892 H 280.805 -3.02738 -0.241585 0
M  V30 2893 H 278.39 -1.49305 -0.053222 0
M  V30 2894 H 280.272 -3.24834 -2.68442 0
M  V30 2895 H 278.947 -2.06836 -2.48999 0
M  V30 2896 H 277.854 -3.65436 -0.80044 0
M  V30 2897 H 279.187 -4.80376 -1.07236 0
M  V30 2898 N 280.839 0.0985539 -1.57292 0
M  V30 2899 C 282.064 0.820196 -1.90493 0
M  V30 2900 C 282.489 1.71658 -0.769094 0
M  V30 2901 O 281.847 1.79133 0.279495 0
M  V30 2902 C 281.895 1.61242 -3.22542 0
M  V30 2903 O 280.999 2.72108 -3.09888 0
M  V30 2904 H 280.34 0.225547 -0.62452 0
M  V30 2905 H 282.87 0.0748159 -2.04463 0
M  V30 2906 H 282.88 1.99737 -3.55766 0
M  V30 2907 H 281.555 0.954535 -4.04798 0
M  V30 2908 H 280.132 2.36667 -2.88172 0
M  V30 2909 N 282.317 1.53212 0.369288 0
M  V30 2910 C 283.565 1.68881 1.11012 0
M  V30 2911 C 283.886 0.441285 1.89941 0
M  V30 2912 O 283.156 -0.544623 1.88177 0
M  V30 2913 H 281.736 0.622569 0.412816 0
M  V30 2914 H 284.398 1.90391 0.416802 0
M  V30 2915 H 283.494 2.54822 1.80201 0
M  V30 2916 N 283.795 -0.628877 1.44509 0
M  V30 2917 C 285.072 -1.38733 1.37886 0
M  V30 2918 C 285.452 -2.11065 0.0387008 0
M  V30 2919 O 284.8 -2.06476 -0.97878 0
M  V30 2920 C 285.01 -2.35188 2.57852 0
M  V30 2921 C 286.358 -2.9845 3.02014 0
M  V30 2922 O 287.382 -2.45513 2.58073 0
M  V30 2923 O 286.241 -3.94487 3.78209 0
M  V30 2924 H 283.335 -0.621015 0.54614 0
M  V30 2925 H 285.881 -0.653744 1.56602 0
M  V30 2926 H 284.653 -1.80855 3.46998 0
M  V30 2927 H 284.276 -3.1596 2.4136 0
M  V30 2928 N 285.273 -1.31445 -0.869486 0
M  V30 2929 C 286.519 -1.21337 -1.62496 0
M  V30 2930 C 286.852 0.227872 -1.92858 0
M  V30 2931 O 286.127 1.16094 -1.56053 0
M  V30 2932 C 286.41 -2.05814 -2.95487 0
M  V30 2933 C 286.263 -3.5824 -2.72 0
M  V30 2934 C 287.582 -1.9079 -3.96594 0
M  V30 2935 H 284.701 -0.442135 -0.589649 0
M  V30 2936 H 287.343 -1.6124 -1.00507 0
M  V30 2937 H 285.493 -1.71913 -3.48394 0
M  V30 2938 H 287.165 -4.0228 -2.25762 0
M  V30 2939 H 285.408 -3.81647 -2.06224 0
M  V30 2940 H 286.079 -4.12657 -3.66631 0
M  V30 2941 H 288.555 -2.20459 -3.52898 0
M  V30 2942 H 287.431 -2.52199 -4.87531 0
M  V30 2943 H 287.692 -0.871341 -4.33428 0
M  V30 2944 N 286.751 1.08385 -1.14413 0
M  V30 2945 C 287.714 2.13486 -0.834048 0
M  V30 2946 C 288.714 1.59988 0.161418 0
M  V30 2947 O 289.904 1.74071 -0.0669575 0
M  V30 2948 C 287.036 3.4003 -0.243354 0
M  V30 2949 H 288.229 2.42425 -1.7655 0
M  V30 2950 H 285.782 1.24101 -0.950189 0
M  V30 2951 H 286.517 3.16726 0.696807 0
M  V30 2952 H 286.302 3.80157 -0.960367 0
M  V30 2953 H 287.792 4.17577 -0.0436242 0
M  V30 2954 N 288.23 0.939286 1.26551 0
M  V30 2955 C 289.477 0.585847 1.9384 0
M  V30 2956 C 289.805 -0.874784 1.73718 0
M  V30 2957 O 289.06 -1.64092 1.06642 0
M  V30 2958 C 289.359 0.872106 3.46596 0
M  V30 2959 C 289.025 2.31632 3.86856 0
M  V30 2960 C 287.687 2.71111 3.97558 0
M  V30 2961 C 290.039 3.25494 4.07066 0
M  V30 2962 C 287.367 4.03553 4.25866 0
M  V30 2963 C 289.719 4.57531 4.36862 0
M  V30 2964 C 288.383 4.96828 4.45778 0
M  V30 2965 H 287.653 0.214377 0.709312 0
M  V30 2966 H 290.3 1.18544 1.50398 0
M  V30 2967 H 288.605 0.18996 3.91339 0
M  V30 2968 H 290.302 0.577442 3.96821 0
M  V30 2969 H 286.892 2.00008 3.79071 0
M  V30 2970 H 291.076 2.9619 3.98227 0
M  V30 2971 H 286.332 4.33665 4.30981 0
M  V30 2972 H 290.506 5.30254 4.51446 0
M  V30 2973 H 288.133 5.99482 4.67468 0
M  V30 2974 N 289.708 -1.40897 0.706093 0
M  V30 2975 C 290.956 -2.00657 0.241054 0
M  V30 2976 C 291.277 -1.56241 -1.16678 0
M  V30 2977 O 290.547 -0.79765 -1.78926 0
M  V30 2978 H 289.127 -0.742018 0.0861308 0
M  V30 2979 H 291.789 -1.72372 0.909604 0
M  V30 2980 H 290.885 -3.10958 0.266705 0
M  V30 2981 N 291.186 -0.45159 -1.50991 0
M  V30 2982 C 292.116 0.342898 -2.30969 0
M  V30 2983 C 293.097 1.00815 -1.37005 0
M  V30 2984 O 294.282 1.00907 -1.65926 0
M  V30 2985 C 291.412 1.43637 -3.16205 0
M  V30 2986 C 290.366 0.893818 -4.18563 0
M  V30 2987 C 289.692 2.08411 -4.92411 0
M  V30 2988 C 290.992 -0.0815568 -5.22236 0
M  V30 2989 H 292.686 -0.324556 -2.97636 0
M  V30 2990 H 290.232 -0.157531 -1.43136 0
M  V30 2991 H 292.185 1.9995 -3.70942 0
M  V30 2992 H 290.909 2.13232 -2.47386 0
M  V30 2993 H 289.568 0.352798 -3.64898 0
M  V30 2994 H 289.216 2.76658 -4.20082 0
M  V30 2995 H 288.916 1.72741 -5.61636 0
M  V30 2996 H 290.44 2.65251 -5.49976 0
M  V30 2997 H 291.854 0.391742 -5.7196 0
M  V30 2998 H 290.251 -0.351551 -5.99069 0
M  V30 2999 H 291.321 -1.01374 -4.74185 0
M  V30 3000 N 292.664 1.56529 -0.183458 0
M  V30 3001 C 293.594 2.21549 0.737456 0
M  V30 3002 C 294.575 1.17489 1.23005 0
M  V30 3003 O 295.76 1.45959 1.281 0
M  V30 3004 C 292.89 2.86575 1.96194 0
M  V30 3005 C 291.844 3.96778 1.60473 0
M  V30 3006 C 291.17 4.48911 2.90487 0
M  V30 3007 C 292.47 5.15767 0.823497 0
M  V30 3008 H 294.164 2.98761 0.195453 0
M  V30 3009 H 291.71 1.43702 0.0925686 0
M  V30 3010 H 293.663 3.30739 2.61131 0
M  V30 3011 H 292.387 2.06749 2.52828 0
M  V30 3012 H 291.046 3.53286 0.978997 0
M  V30 3013 H 290.694 3.65862 3.45186 0
M  V30 3014 H 290.394 5.23265 2.67335 0
M  V30 3015 H 291.918 4.95771 3.56432 0
M  V30 3016 H 293.332 5.56549 1.37571 0
M  V30 3017 H 291.729 5.96114 0.690551 0
M  V30 3018 H 292.799 4.84574 -0.177782 0
M  V30 3019 N 294.142 -0.090211 1.57342 0
M  V30 3020 C 295.389 -0.792807 1.86335 0
M  V30 3021 C 295.717 -1.78494 0.772662 0
M  V30 3022 O 294.972 -1.94305 -0.233258 0
M  V30 3023 C 295.271 -1.55222 3.21933 0
M  V30 3024 C 294.937 -0.701765 4.45406 0
M  V30 3025 C 293.599 -0.467334 4.78925 0
M  V30 3026 C 295.951 -0.11086 5.21082 0
M  V30 3027 C 293.279 0.367785 5.85546 0
M  V30 3028 C 295.631 0.711609 6.28585 0
M  V30 3029 C 294.295 0.956086 6.60617 0
M  V30 3030 H 293.565 -0.290109 0.681849 0
M  V30 3031 H 296.212 -0.0541332 1.91423 0
M  V30 3032 H 294.517 -2.3626 3.12551 0
M  V30 3033 H 296.214 -2.10032 3.41595 0
M  V30 3034 H 292.804 -0.894598 4.1916 0
M  V30 3035 H 296.988 -0.279129 4.95514 0
M  V30 3036 H 292.244 0.566128 6.08773 0
M  V30 3037 H 296.418 1.17632 6.86393 0
M  V30 3038 H 294.045 1.60499 7.43064 0
M  V30 3039 N 295.62 -1.53406 -0.361157 0
M  V30 3040 C 296.845 -1.74024 -1.12829 0
M  V30 3041 C 297.27 -0.470069 -1.82132 0
M  V30 3042 O 296.628 0.57619 -1.719 0
M  V30 3043 C 296.676 -2.90903 -2.13091 0
M  V30 3044 O 295.78 -2.59821 -3.20261 0
M  V30 3045 H 295.121 -0.577804 -0.327168 0
M  V30 3046 H 297.651 -2.00307 -0.41693 0
M  V30 3047 H 297.661 -3.17194 -2.56616 0
M  V30 3048 H 296.336 -3.83034 -1.62042 0
M  V30 3049 H 294.913 -2.44362 -2.81677 0
M  V30 3050 N 297.098 0.621204 -1.44841 0
M  V30 3051 C 298.031 1.7459 -1.46947 0
M  V30 3052 C 299.009 1.59273 -0.327238 0
M  V30 3053 O 300.193 1.81021 -0.525706 0
M  V30 3054 C 297.32 3.12274 -1.31159 0
M  V30 3055 C 296.366 3.46216 -2.49072 0
M  V30 3056 S 297.199 3.4258 -4.11581 0
M  V30 3057 C 298.355 4.82867 -3.98233 0
M  V30 3058 H 298.588 1.72538 -2.42111 0
M  V30 3059 H 296.121 0.796683 -1.32259 0
M  V30 3060 H 298.079 3.91722 -1.22737 0
M  V30 3061 H 296.74 3.11855 -0.374885 0
M  V30 3062 H 295.933 4.4643 -2.33915 0
M  V30 3063 H 295.535 2.74253 -2.54286 0
M  V30 3064 H 297.827 5.7234 -3.62537 0
M  V30 3065 H 298.77 5.0308 -4.98313 0
M  V30 3066 H 299.178 4.57908 -3.30121 0
M  V30 3067 N 298.576 1.31904 0.862503 0
M  V30 3068 C 299.506 1.22782 1.98612 0
M  V30 3069 C 300.487 0.113362 1.69722 0
M  V30 3070 O 301.672 0.299218 1.91881 0
M  V30 3071 C 298.802 0.942058 3.34279 0
M  V30 3072 C 297.756 2.0169 3.77499 0
M  V30 3073 C 297.082 1.58369 5.10709 0
M  V30 3074 C 298.382 3.43096 3.93805 0
M  V30 3075 H 300.076 2.16788 2.06502 0
M  V30 3076 H 297.622 1.04366 0.992154 0
M  V30 3077 H 299.575 0.864818 4.1243 0
M  V30 3078 H 298.299 -0.0336603 3.26583 0
M  V30 3079 H 296.958 2.08416 3.01593 0
M  V30 3080 H 296.606 0.595628 4.99461 0
M  V30 3081 H 296.306 2.30279 5.40597 0
M  V30 3082 H 297.83 1.52067 5.91361 0
M  V30 3083 H 299.244 3.39003 4.62331 0
M  V30 3084 H 297.641 4.13288 4.35101 0
M  V30 3085 H 298.711 3.83334 2.96957 0
M  V30 3086 N 300.054 -1.07777 1.14986 0
M  V30 3087 C 301.302 -1.79934 0.920235 0
M  V30 3088 C 301.623 -1.86955 -0.554336 0
M  V30 3089 O 300.893 -1.36731 -1.40291 0
M  V30 3090 H 299.473 -0.666424 0.337473 0
M  V30 3091 H 302.135 -1.3027 1.44968 0
M  V30 3092 H 301.231 -2.82539 1.32583 0
M  V30 3093 N 301.532 -0.945985 -1.26051 0
M  V30 3094 C 302.78 -0.594941 -1.93145 0
M  V30 3095 C 303.101 0.86953 -1.7454 0
M  V30 3096 O 302.371 1.61838 -1.10387 0
M  V30 3097 H 300.951 -0.217044 -0.714773 0
M  V30 3098 H 303.613 -1.20235 -1.53393 0
M  V30 3099 H 302.709 -0.816835 -3.01221 0
M  V30 3100 N 303.011 1.40521 -0.713556 0
M  V30 3101 C 303.941 2.33381 -0.0743864 0
M  V30 3102 C 304.922 1.52784 0.747735 0
M  V30 3103 O 306.107 1.81258 0.697071 0
M  V30 3104 C 303.237 3.36748 0.849598 0
M  V30 3105 C 302.191 4.27793 0.133247 0
M  V30 3106 C 301.517 5.21679 1.17281 0
M  V30 3107 C 302.817 5.12415 -1.01134 0
M  V30 3108 H 304.511 2.87081 -0.850007 0
M  V30 3109 H 302.057 1.38034 -0.410201 0
M  V30 3110 H 304.01 4.00648 1.30612 0
M  V30 3111 H 302.734 2.81439 1.65709 0
M  V30 3112 H 301.393 3.65342 -0.303426 0
M  V30 3113 H 301.041 4.62677 1.9733 0
M  V30 3114 H 300.741 5.83435 0.698397 0
M  V30 3115 H 302.265 5.88456 1.62947 0
M  V30 3116 H 303.679 5.69781 -0.634274 0
M  V30 3117 H 302.076 5.83203 -1.41399 0
M  V30 3118 H 303.146 4.48514 -1.84292 0
M  V30 3119 N 304.489 0.459591 1.5075 0
M  V30 3120 C 305.714 -0.0996819 2.0716 0
M  V30 3121 C 306.139 -1.33761 1.32249 0
M  V30 3122 O 305.497 -1.77551 0.366786 0
M  V30 3123 C 305.545 -0.378226 3.58611 0
M  V30 3124 O 304.649 -1.46081 3.85661 0
M  V30 3125 H 303.99 0.00791392 0.663953 0
M  V30 3126 H 306.52 0.647329 1.9409 0
M  V30 3127 H 306.53 -0.622135 4.03229 0
M  V30 3128 H 305.205 0.526439 4.12555 0
M  V30 3129 H 303.782 -1.20511 3.5289 0
M  V30 3130 N 305.967 -1.56429 0.191757 0
M  V30 3131 C 307.213 -1.97777 -0.448554 0
M  V30 3132 C 307.546 -1.07847 -1.61501 0
M  V30 3133 O 306.821 -0.129774 -1.94067 0
M  V30 3134 C 307.104 -3.48362 -0.911906 0
M  V30 3135 C 306.957 -4.4907 0.256136 0
M  V30 3136 C 308.276 -4.02561 -1.77857 0
M  V30 3137 H 305.395 -0.719071 -0.161572 0
M  V30 3138 H 308.037 -1.87896 0.282007 0
M  V30 3139 H 306.187 -3.56914 -1.53442 0
M  V30 3140 H 307.859 -4.5256 0.893733 0
M  V30 3141 H 306.102 -4.24181 0.908436 0
M  V30 3142 H 306.773 -5.51889 -0.11053 0
M  V30 3143 H 309.249 -3.96767 -1.25359 0
M  V30 3144 H 308.125 -5.08301 -2.07174 0
M  V30 3145 H 308.386 -3.47616 -2.73158 0
M  V30 3146 N 307.445 0.0818655 -1.57387 0
M  V30 3147 C 308.693 0.781368 -1.86384 0
M  V30 3148 C 309.014 1.78618 -0.782342 0
M  V30 3149 O 308.284 1.94976 0.190061 0
M  V30 3150 H 306.864 0.291562 -0.687751 0
M  V30 3151 H 309.526 0.060348 -1.94807 0
M  V30 3152 H 308.622 1.3038 -2.83562 0
M  V30 3153 N 308.923 1.53595 0.353017 0
M  V30 3154 C 309.853 1.83902 1.43883 0
M  V30 3155 C 310.834 0.693421 1.55324 0
M  V30 3156 O 312.019 0.944452 1.69687 0
M  V30 3157 C 309.149 2.04016 2.8106 0
M  V30 3158 C 308.103 3.19814 2.84434 0
M  V30 3159 C 307.429 3.25244 4.24406 0
M  V30 3160 C 308.729 4.58133 2.50822 0
M  V30 3161 H 310.423 2.74835 1.1877 0
M  V30 3162 H 307.969 1.32242 0.569917 0
M  V30 3163 H 309.922 2.238 3.57059 0
M  V30 3164 H 308.646 1.09804 3.07588 0
M  V30 3165 H 307.305 2.9987 2.10887 0
M  V30 3166 H 306.953 2.28646 4.48029 0
M  V30 3167 H 306.653 4.03054 4.27576 0
M  V30 3168 H 308.177 3.47228 5.0226 0
M  V30 3169 H 309.591 4.77995 3.16534 0
M  V30 3170 H 307.988 5.38276 2.6529 0
M  V30 3171 H 309.058 4.62387 1.46034 0
M  V30 3172 N 310.401 -0.613514 1.45168 0
M  V30 3173 C 311.626 -1.40437 1.52618 0
M  V30 3174 C 312.051 -1.87438 0.157707 0
M  V30 3175 O 311.409 -1.59791 -0.856537 0
M  V30 3176 C 311.457 -2.58894 2.51011 0
M  V30 3177 O 310.561 -3.59326 2.02382 0
M  V30 3178 H 309.902 -0.419506 0.514695 0
M  V30 3179 H 312.432 -0.747215 1.90467 0
M  V30 3180 H 312.442 -3.06214 2.69624 0
M  V30 3181 H 311.117 -2.24032 3.50403 0
M  V30 3182 H 309.694 -3.18695 1.93618 0
M  V30 3183 N 311.879 -1.3236 -0.855495 0
M  V30 3184 C 313.126 -1.22872 -1.60962 0
M  V30 3185 C 313.454 0.209658 -1.93367 0
M  V30 3186 O 312.709 1.16243 -1.57436 0
M  V30 3187 C 313.008 -2.03275 -2.93963 0
M  V30 3188 C 312.674 -3.5264 -2.80991 0
M  V30 3189 C 311.336 -3.93364 -2.7716 0
M  V30 3190 C 313.688 -4.47626 -2.66983 0
M  V30 3191 C 311.016 -5.27319 -2.572 0
M  V30 3192 C 313.368 -5.81723 -2.48558 0
M  V30 3193 C 312.032 -6.2165 -2.4312 0
M  V30 3194 H 311.302 -0.44962 -0.589001 0
M  V30 3195 H 313.949 -1.63777 -0.992442 0
M  V30 3196 H 312.254 -1.55095 -3.59795 0
M  V30 3197 H 313.951 -1.93303 -3.51333 0
M  V30 3198 H 310.541 -3.20295 -2.84797 0
M  V30 3199 H 314.725 -4.17084 -2.68988 0
M  V30 3200 H 309.981 -5.57311 -2.51424 0
M  V30 3201 H 314.155 -6.5494 -2.36699 0
M  V30 3202 H 311.782 -7.25388 -2.27412 0
M  V30 3203 N 313.357 1.07166 -1.15556 0
M  V30 3204 C 314.287 2.16403 -0.877046 0
M  V30 3205 C 315.268 1.69217 0.173111 0
M  V30 3206 O 316.453 1.94181 0.027084 0
M  V30 3207 C 313.583 3.45349 -0.367632 0
M  V30 3208 C 312.537 4.05995 -1.35468 0
M  V30 3209 C 311.863 5.30045 -0.704038 0
M  V30 3210 C 313.163 4.45804 -2.72132 0
M  V30 3211 H 314.857 2.39959 -1.79053 0
M  V30 3212 H 312.403 1.15325 -0.862331 0
M  V30 3213 H 314.356 4.21095 -0.160317 0
M  V30 3214 H 313.08 3.21385 0.581326 0
M  V30 3215 H 311.739 3.32296 -1.54839 0
M  V30 3216 H 311.387 5.02373 0.251128 0
M  V30 3217 H 311.087 5.71579 -1.36277 0
M  V30 3218 H 312.611 6.08495 -0.50654 0
M  V30 3219 H 314.025 5.12671 -2.56595 0
M  V30 3220 H 312.422 4.98296 -3.34397 0
M  V30 3221 H 313.492 3.57083 -3.28054 0
M  V30 3222 N 314.835 0.952656 1.25548 0
M  V30 3223 C 315.765 0.489287 2.28316 0
M  V30 3224 C 316.746 -0.463359 1.63667 0
M  V30 3225 O 317.931 -0.36274 1.90782 0
M  V30 3226 C 315.061 -0.235603 3.465 0
M  V30 3227 C 314.015 0.631593 4.23314 0
M  V30 3228 C 313.341 -0.223923 5.34231 0
M  V30 3229 C 314.641 1.90871 4.86174 0
M  V30 3230 H 316.335 1.34822 2.67326 0
M  V30 3231 H 313.881 0.649728 1.28509 0
M  V30 3232 H 315.834 -0.570882 4.17515 0
M  V30 3233 H 314.558 -1.12877 3.06474 0
M  V30 3234 H 313.217 0.949929 3.54079 0
M  V30 3235 H 312.865 -1.11678 4.90446 0
M  V30 3236 H 312.565 0.35299 5.86539 0
M  V30 3237 H 314.089 -0.554214 6.0808 0
M  V30 3238 H 315.503 1.63997 5.49343 0
M  V30 3239 H 313.9 2.43112 5.4865 0
M  V30 3240 H 314.97 2.61304 4.08471 0
M  V30 3241 N 316.313 -1.40141 0.720998 0
M  V30 3242 C 317.261 -2.3252 0.0608547 0
M  V30 3243 C 318.255 -1.52326 -0.741152 0
M  V30 3244 O 319.461 -1.68089 -0.643911 0
M  V30 3245 H 315.836 -0.751999 0.000876664 0
M  V30 3246 H 317.807 -2.8584 0.856614 0
M  V30 3247 C 316.556 -3.37331 -0.842809 0
M  V30 3248 H 315.879 -3.99108 -0.235084 0
M  V30 3249 H 317.319 -4.04452 -1.27257 0
M  V30 3250 C 315.778 -2.73246 -1.97074 0
M  V30 3251 O 316.308 -2.59998 -3.06209 0
M  V30 3252 N 314.514 -2.31547 -1.75597 0
M  V30 3253 H 314.061 -2.42522 -0.868368 0
M  V30 3254 H 314.019 -1.89007 -2.51244 0
M  V30 3255 N 317.792 -0.46758 -1.50504 0
M  V30 3256 C 319.02 0.0864133 -2.06719 0
M  V30 3257 C 319.435 1.33819 -1.33184 0
M  V30 3258 O 318.792 1.78061 -0.400083 0
M  V30 3259 C 318.843 0.378079 -3.59517 0
M  V30 3260 O 318.564 -0.824044 -4.3028 0
M  V30 3261 C 320.065 0.979426 -4.32345 0
M  V30 3262 H 317.285 -0.00551697 -0.670977 0
M  V30 3263 H 319.829 -0.655354 -1.93715 0
M  V30 3264 H 317.984 1.06977 -3.72337 0
M  V30 3265 H 318.398 -0.566518 -5.21432 0
M  V30 3266 H 319.872 1.1333 -5.40241 0
M  V30 3267 H 320.349 1.9686 -3.9261 0
M  V30 3268 H 320.955 0.326216 -4.24047 0
M  V30 3269 N 319.27 1.56325 -0.20005 0
M  V30 3270 C 320.516 1.98012 0.438059 0
M  V30 3271 C 320.849 1.08702 1.60927 0
M  V30 3272 O 320.124 0.140064 1.93995 0
M  V30 3273 C 320.407 3.48841 0.893419 0
M  V30 3274 C 320.26 4.48928 -0.279947 0
M  V30 3275 C 321.579 4.03498 1.75719 0
M  V30 3276 H 318.698 0.719918 0.157757 0
M  V30 3277 H 321.34 1.87743 -0.291968 0
M  V30 3278 H 319.49 3.57723 1.51547 0
M  V30 3279 H 321.162 4.52079 -0.91772 0
M  V30 3280 H 319.405 4.23694 -0.930919 0
M  V30 3281 H 320.076 5.5194 0.0812601 0
M  V30 3282 H 322.552 3.97427 1.23253 0
M  V30 3283 H 321.428 5.09393 2.04476 0
M  V30 3284 H 321.689 3.4906 2.71311 0
M  V30 3285 N 320.748 -0.0735177 1.57428 0
M  V30 3286 C 321.973 -0.789787 1.91774 0
M  V30 3287 C 322.398 -1.70413 0.796306 0
M  V30 3288 O 321.756 -1.79555 -0.250961 0
M  V30 3289 C 321.804 -1.5609 3.25067 0
M  V30 3290 O 320.908 -2.67144 3.14178 0
M  V30 3291 H 320.249 -0.215582 0.628029 0
M  V30 3292 H 322.779 -0.0422781 2.04556 0
M  V30 3293 H 322.789 -1.94052 3.58898 0
M  V30 3294 H 321.464 -0.890015 4.06265 0
M  V30 3295 H 320.041 -2.32052 2.91901 0
M  V30 3296 N 322.226 -1.5378 -0.344866 0
M  V30 3297 C 323.472 -1.71216 -1.08687 0
M  V30 3298 C 323.805 -0.473281 -1.88345 0
M  V30 3299 O 323.08 0.52968 -1.87149 0
M  V30 3300 C 323.363 -2.97486 -2.02914 0
M  V30 3301 C 323.216 -4.31579 -1.26727 0
M  V30 3302 C 324.535 -3.19422 -3.0275 0
M  V30 3303 H 321.654 -0.62301 -0.393735 0
M  V30 3304 H 324.296 -1.8645 -0.365563 0
M  V30 3305 H 322.446 -2.84629 -2.64421 0
M  V30 3306 H 324.118 -4.56284 -0.67845 0
M  V30 3307 H 322.361 -4.30049 -0.569273 0
M  V30 3308 H 323.032 -5.16106 -1.95803 0
M  V30 3309 H 325.508 -3.316 -2.51357 0
M  V30 3310 H 324.384 -4.09169 -3.65885 0
M  V30 3311 H 324.645 -2.35656 -3.74057 0
M  V30 3312 N 323.704 0.605807 -1.45491 0
M  V30 3313 C 324.667 1.69836 -1.5391 0
M  V30 3314 C 325.667 1.55261 -0.418424 0
M  V30 3315 O 326.857 1.60296 -0.681965 0
M  V30 3316 C 323.989 3.09117 -1.43734 0
M  V30 3317 H 325.182 1.63738 -2.51257 0
M  V30 3318 H 322.735 0.821689 -1.32959 0
M  V30 3319 H 323.47 3.20791 -0.475788 0
M  V30 3320 H 323.255 3.21104 -2.25021 0
M  V30 3321 H 324.745 3.88696 -1.52661 0
M  V30 3322 N 325.182 1.32811 0.848464 0
M  V30 3323 C 326.41 1.26739 1.63538 0
M  V30 3324 C 326.825 -0.163484 1.88091 0
M  V30 3325 O 326.182 -1.10258 1.45429 0
M  V30 3326 C 326.233 2.03013 2.99112 0
M  V30 3327 O 325.954 3.40518 2.75643 0
M  V30 3328 C 327.455 2.04038 3.93552 0
M  V30 3329 H 324.675 0.437024 0.509167 0
M  V30 3330 H 327.219 1.75033 1.05753 0
M  V30 3331 H 325.374 1.58426 3.53525 0
M  V30 3332 H 325.788 3.79635 3.61908 0
M  V30 3333 H 327.262 2.61877 4.85926 0
M  V30 3334 H 327.739 1.0282 4.26995 0
M  V30 3335 H 328.345 2.486 3.45077 0
M  V30 3336 N 326.66 -1.06551 1.16123 0
M  V30 3337 C 327.59 -2.15935 0.88851 0
M  V30 3338 C 328.571 -1.69306 -0.164135 0
M  V30 3339 O 329.756 -1.94193 -0.0167857 0
M  V30 3340 C 326.886 -3.45149 0.385942 0
M  V30 3341 C 325.84 -4.05271 1.3762 0
M  V30 3342 C 325.166 -5.29664 0.732137 0
M  V30 3343 C 326.466 -4.44355 2.74493 0
M  V30 3344 H 328.16 -2.39006 1.80323 0
M  V30 3345 H 325.706 -1.14866 0.868435 0
M  V30 3346 H 327.659 -4.21004 0.182647 0
M  V30 3347 H 326.383 -3.21689 -0.564274 0
M  V30 3348 H 325.042 -3.3147 1.56599 0
M  V30 3349 H 324.69 -5.02499 -0.224483 0
M  V30 3350 H 324.39 -5.70848 1.39307 0
M  V30 3351 H 325.914 -6.08218 0.538802 0
M  V30 3352 H 327.328 -5.11303 2.59311 0
M  V30 3353 H 325.725 -4.96515 3.37035 0
M  V30 3354 H 326.795 -3.55339 3.29943 0
M  V30 3355 N 328.138 -0.959301 -1.25041 0
M  V30 3356 C 329.378 -0.624343 -1.94631 0
M  V30 3357 C 329.742 0.82403 -1.73418 0
M  V30 3358 O 330.943 1.26881 -2.3697 0
M  V30 3359 C 329.214 -0.978805 -3.43736 0
M  V30 3360 S 330.773 -0.757127 -4.32219 0
M  V30 3361 H 327.591 -0.229327 -0.673001 0
M  V30 3362 H 330.193 -1.23447 -1.51595 0
M  V30 3363 H 328.897 -2.02997 -3.56679 0
M  V30 3364 H 328.428 -0.359117 -3.91757 0
M  V30 3365 H 330.443 0.369759 -4.9482 0
M  V30 3366 N 329.616 1.39756 -0.72842 0
M  V30 3367 C 330.566 2.2792 -0.0603424 0
M  V30 3368 C 331.55 1.43922 0.719399 0
M  V30 3369 O 332.742 1.66895 0.589489 0
M  V30 3370 C 329.871 3.32582 0.851104 0
M  V30 3371 C 328.957 4.24049 0.0658641 0
M  V30 3372 N 329.348 4.96653 -0.957578 0
M  V30 3373 C 327.646 4.45013 0.296509 0
M  V30 3374 C 328.347 5.63836 -1.43052 0
M  V30 3375 N 327.323 5.38397 -0.750315 0
M  V30 3376 H 331.125 2.81504 -0.84455 0
M  V30 3377 H 328.639 1.5236 -0.562155 0
M  V30 3378 H 330.636 3.94603 1.34514 0
M  V30 3379 H 329.296 2.80558 1.63454 0
M  V30 3380 H 330.307 5.00297 -1.33877 0
M  V30 3381 H 326.984 4.03943 1.05527 0
M  V30 3382 H 328.374 6.31974 -2.28163 0
M  V30 3383 N 331.094 0.475555 1.50254 0
M  V30 3384 C 332.34 -0.0780073 2.0265 0
M  V30 3385 C 332.673 -1.38968 1.35652 0
M  V30 3386 O 331.948 -1.8839 0.483691 0
M  V30 3387 C 332.231 -0.257161 3.59181 0
M  V30 3388 C 332.084 1.07585 4.36744 0
M  V30 3389 C 333.403 -1.00965 4.28362 0
M  V30 3390 H 330.522 -0.0268758 0.73651 0
M  V30 3391 H 333.164 0.622015 1.7953 0
M  V30 3392 H 331.314 -0.853412 3.79011 0
M  V30 3393 H 332.986 1.70902 4.28474 0
M  V30 3394 H 331.229 1.6714 4.00308 0
M  V30 3395 H 331.9 0.904088 5.44546 0
M  V30 3396 H 334.376 -0.504214 4.13034 0
M  V30 3397 H 333.252 -1.10381 5.37687 0
M  V30 3398 H 333.513 -2.04731 3.91839 0
M  V30 3399 N 332.573 -1.56217 0.208337 0
M  V30 3400 C 333.803 -2.02043 -0.431523 0
M  V30 3401 C 334.211 -1.08755 -1.54819 0
M  V30 3402 O 333.554 -0.0870009 -1.83494 0
M  V30 3403 C 333.616 -3.44239 -1.03633 0
M  V30 3404 C 333.28 -4.56965 -0.0567502 0
M  V30 3405 C 334.277 -5.14624 0.738773 0
M  V30 3406 C 331.962 -5.02266 0.0581736 0
M  V30 3407 C 333.956 -6.16045 1.63605 0
M  V30 3408 C 331.643 -6.03528 0.959001 0
M  V30 3409 C 332.641 -6.60293 1.7465 0
M  V30 3410 O 332.329 -7.59586 2.6322 0
M  V30 3411 H 332.061 -0.666772 -0.111313 0
M  V30 3412 H 334.615 -2.02919 0.318277 0
M  V30 3413 H 332.845 -3.40391 -1.83497 0
M  V30 3414 H 334.534 -3.73793 -1.58221 0
M  V30 3415 H 335.3 -4.80483 0.660364 0
M  V30 3416 H 331.179 -4.57771 -0.544633 0
M  V30 3417 H 334.723 -6.60279 2.25116 0
M  V30 3418 H 330.62 -6.37092 1.03848 0
M  V30 3419 H 331.388 -7.77057 2.57148 0
M  V30 3420 N 334.051 0.0651679 -1.57465 0
M  V30 3421 C 335.001 1.0838 -2.00594 0
M  V30 3422 C 335.985 1.34106 -0.889071 0
M  V30 3423 O 337.177 1.34295 -1.15299 0
M  V30 3424 C 334.306 2.39565 -2.45894 0
M  V30 3425 C 333.392 2.17085 -3.64328 0
M  V30 3426 N 333.783 1.64553 -4.78285 0
M  V30 3427 C 332.081 2.4753 -3.71006 0
M  V30 3428 C 332.782 1.57042 -5.60101 0
M  V30 3429 N 331.758 2.03328 -5.04141 0
M  V30 3430 H 335.56 0.671062 -2.86136 0
M  V30 3431 H 333.074 0.27213 -1.60104 0
M  V30 3432 H 335.071 3.13308 -2.75034 0
M  V30 3433 H 333.731 2.81549 -1.61741 0
M  V30 3434 H 334.742 1.33323 -5.00445 0
M  V30 3435 H 331.419 2.92835 -2.9758 0
M  V30 3436 H 332.809 1.17223 -6.61595 0
M  V30 3437 N 335.529 1.53961 0.336706 0
M  V30 3438 C 336.777 1.71197 1.07405 0
M  V30 3439 C 337.098 0.481475 1.88962 0
M  V30 3440 O 336.368 -0.504585 1.8929 0
M  V30 3441 H 334.948 0.631185 0.399517 0
M  V30 3442 H 337.61 1.91232 0.376323 0
M  V30 3443 H 336.706 2.58587 1.74755 0
M  V30 3444 N 337.007 -0.598083 1.45811 0
M  V30 3445 C 337.939 -1.72231 1.51225 0
M  V30 3446 C 338.952 -1.57757 0.402059 0
M  V30 3447 O 340.141 -1.65464 0.669624 0
M  V30 3448 C 337.241 -3.10331 1.3619 0
M  V30 3449 C 336.414 -3.50955 2.61054 0
M  V30 3450 C 335.473 -4.68055 2.40439 0
M  V30 3451 O 334.499 -4.74691 3.14097 0
M  V30 3452 N 335.701 -5.61941 1.45612 0
M  V30 3453 H 338.466 -1.68046 2.48154 0
M  V30 3454 H 336.027 -0.783637 1.41671 0
M  V30 3455 H 338.019 -3.86439 1.20195 0
M  V30 3456 H 336.589 -3.0897 0.475015 0
M  V30 3457 H 335.809 -2.64711 2.92099 0
M  V30 3458 H 337.097 -3.74858 3.44034 0
M  V30 3459 H 336.495 -5.59301 0.848431 0
M  V30 3460 H 335.052 -6.37542 1.35585 0
M  V30 3461 N 338.485 -1.33259 -0.841409 0
M  V30 3462 C 339.395 -1.25332 -1.98316 0
M  V30 3463 C 340.411 -0.164364 -1.73222 0
M  V30 3464 O 341.587 -0.387486 -1.97637 0
M  V30 3465 C 338.652 -0.990078 -3.32262 0
M  V30 3466 C 337.713 -2.16879 -3.70489 0
M  V30 3467 C 336.946 -1.91801 -4.98044 0
M  V30 3468 O 337.169 -0.867075 -5.63771 0
M  V30 3469 O 336.103 -2.78267 -5.33714 0
M  V30 3470 H 339.929 -2.21344 -2.07944 0
M  V30 3471 H 337.514 -1.1328 -0.974058 0
M  V30 3472 H 339.396 -0.860321 -4.12524 0
M  V30 3473 H 338.071 -0.0602155 -3.23644 0
M  V30 3474 H 336.978 -2.35407 -2.90748 0
M  V30 3475 H 338.311 -3.0819 -3.8377 0
M  V30 3476 N 339.963 1.05934 -1.16686 0
M  V30 3477 C 340.926 2.11669 -0.879144 0
M  V30 3478 C 341.926 1.60294 0.127445 0
M  V30 3479 O 343.116 1.7389 -0.103865 0
M  V30 3480 C 340.248 3.39438 -0.315425 0
M  V30 3481 H 341.441 2.38626 -1.81653 0
M  V30 3482 H 338.994 1.22058 -0.976299 0
M  V30 3483 H 339.729 3.18132 0.629468 0
M  V30 3484 H 339.514 3.78034 -1.04079 0
M  V30 3485 H 341.004 4.17391 -0.132189 0
M  V30 3486 N 341.441 0.965919 1.2453 0
M  V30 3487 C 342.404 0.499547 2.2369 0
M  V30 3488 C 343.404 -0.40294 1.5567 0
M  V30 3489 O 344.594 -0.19865 1.73064 0
M  V30 3490 C 341.726 -0.276792 3.39774 0
M  V30 3491 H 342.919 1.37613 2.66463 0
M  V30 3492 H 340.472 0.750324 1.37112 0
M  V30 3493 H 341.207 -1.17055 3.02438 0
M  V30 3494 H 340.992 0.370826 3.90343 0
M  V30 3495 H 342.482 -0.592175 4.1338 0
M  V30 3496 N 342.919 -1.39368 0.735821 0
M  V30 3497 C 343.851 -2.2913 0.0567723 0
M  V30 3498 C 344.864 -1.46859 -0.702589 0
M  V30 3499 O 346.053 -1.69925 -0.546616 0
M  V30 3500 C 343.153 -3.25492 -0.943823 0
M  V30 3501 C 342.326 -4.36709 -0.24581 0
M  V30 3502 C 341.385 -5.13376 -1.15463 0
M  V30 3503 O 340.411 -5.65683 -0.631803 0
M  V30 3504 N 341.613 -5.24656 -2.48427 0
M  V30 3505 H 344.378 -2.88047 0.827582 0
M  V30 3506 H 341.939 -1.50957 0.585112 0
M  V30 3507 H 343.931 -3.73657 -1.55443 0
M  V30 3508 H 342.501 -2.676 -1.61583 0
M  V30 3509 H 341.721 -3.9041 0.545286 0
M  V30 3510 H 343.009 -5.08244 0.237891 0
M  V30 3511 H 342.407 -4.83679 -2.93379 0
M  V30 3512 H 340.964 -5.76258 -3.04582 0
M  V30 3513 N 344.397 -0.483516 -1.5 0
M  V30 3514 C 345.329 0.340634 -2.26655 0
M  V30 3515 C 346.342 0.946152 -1.32483 0
M  V30 3516 O 347.531 0.832453 -1.579 0
M  V30 3517 C 344.631 1.4929 -3.04246 0
M  V30 3518 C 343.804 0.997903 -4.25865 0
M  V30 3519 C 342.863 2.02569 -4.85646 0
M  V30 3520 O 341.889 1.60128 -5.46212 0
M  V30 3521 N 343.091 3.3548 -4.73744 0
M  V30 3522 H 345.856 -0.316577 -2.98023 0
M  V30 3523 H 343.417 -0.315024 -1.58806 0
M  V30 3524 H 345.409 2.17766 -3.41116 0
M  V30 3525 H 343.979 2.05458 -2.35597 0
M  V30 3526 H 343.199 0.138617 -3.93956 0
M  V30 3527 H 344.487 0.645305 -5.04691 0
M  V30 3528 H 343.885 3.72661 -4.25605 0
M  V30 3529 H 342.442 3.99718 -5.14848 0
M  V30 3530 N 345.875 1.56104 -0.216619 0
M  V30 3531 C 347.291 1.58995 0.13886 0
M  V30 3532 C 347.491 1.23333 1.59346 0
M  V30 3533 O 346.547 0.966234 2.33281 0
M  V30 3534 C 347.86 3.00143 -0.182968 0
M  V30 3535 C 349.408 3.12751 -0.124807 0
M  V30 3536 C 349.883 4.56068 -0.420241 0
M  V30 3537 N 351.374 4.61723 -0.369634 0
M  V30 3538 C 352.109 5.70542 -0.571789 0
M  V30 3539 N 351.605 6.87744 -0.835453 0
M  V30 3540 N 353.398 5.59831 -0.504563 0
M  V30 3541 H 345.549 1.77562 -1.16557 0
M  V30 3542 H 347.812 0.825091 -0.466828 0
M  V30 3543 H 347.518 3.30871 -1.19237 0
M  V30 3544 H 347.392 3.73813 0.504367 0
M  V30 3545 H 349.779 2.81822 0.875223 0
M  V30 3546 H 349.86 2.41421 -0.845544 0
M  V30 3547 H 349.504 4.87713 -1.41769 0
M  V30 3548 H 349.434 5.25617 0.321631 0
M  V30 3549 H 351.925 3.77502 -0.173338 0
M  V30 3550 H 352.238 7.66587 -0.977938 0
M  V30 3551 H 350.583 6.895 -0.872592 0
M  V30 3552 H 353.774 4.67145 -0.298842 0
M  V30 3553 H 353.947 6.44573 -0.665519 0
M  V30 3554 N 347.353 -0.0568162 1.57498 0
M  V30 3555 C 348.764 -0.606858 1.76562 0
M  V30 3556 C 349.115 -1.77114 0.844094 0
M  V30 3557 O 348.24 -2.16376 0.0318911 0
M  V30 3558 C 348.835 -1.10766 3.20182 0
M  V30 3559 C 347.394 -1.60344 3.40539 0
M  V30 3560 C 346.541 -0.529311 2.72201 0
M  V30 3561 H 349.492 0.169393 1.57793 0
M  V30 3562 H 349.513 -1.97602 3.25167 0
M  V30 3563 H 349.025 -0.26006 3.87228 0
M  V30 3564 H 347.126 -2.47379 2.78629 0
M  V30 3565 H 347.239 -1.67006 4.4905 0
M  V30 3566 H 345.603 -0.977893 2.35179 0
M  V30 3567 H 346.386 0.308352 3.41912 0
M  V30 3568 N 348.832 -1.54138 -0.328536 0
M  V30 3569 C 350.248 -1.44736 -0.672574 0
M  V30 3570 C 350.448 -0.616217 -1.91846 0
M  V30 3571 O 349.504 -0.113067 -2.52247 0
M  V30 3572 C 350.817 -2.884 -0.851217 0
M  V30 3573 C 352.365 -2.98271 -0.948877 0
M  V30 3574 C 352.84 -4.43074 -1.15973 0
M  V30 3575 N 354.331 -4.46665 -1.22658 0
M  V30 3576 C 355.066 -5.55857 -1.40751 0
M  V30 3577 N 354.562 -6.75026 -1.5592 0
M  V30 3578 N 356.355 -5.43495 -1.4342 0
M  V30 3579 H 348.506 -2.06661 0.490421 0
M  V30 3580 H 350.769 -0.934812 0.157579 0
M  V30 3581 H 350.475 -3.51699 -0.00704236 0
M  V30 3582 H 350.349 -3.34225 -1.74853 0
M  V30 3583 H 352.736 -2.35102 -1.78356 0
M  V30 3584 H 352.817 -2.55785 -0.0281435 0
M  V30 3585 H 352.461 -5.06827 -0.329915 0
M  V30 3586 H 352.391 -4.83165 -2.09426 0
M  V30 3587 H 354.882 -3.60797 -1.124 0
M  V30 3588 H 355.195 -7.54004 -1.69404 0
M  V30 3589 H 353.54 -6.77944 -1.53027 0
M  V30 3590 H 356.731 -4.49349 -1.31162 0
M  V30 3591 H 356.904 -6.28649 -1.57178 0
M  V30 3592 N 350.31 0.590341 -1.46126 0
M  V30 3593 C 351.587 1.35029 -1.41515 0
M  V30 3594 C 351.967 2.10888 -0.0946472 0
M  V30 3595 O 351.315 2.08998 0.923693 0
M  V30 3596 C 351.525 2.28269 -2.63997 0
M  V30 3597 C 352.873 2.90338 -3.09821 0
M  V30 3598 O 353.897 2.38585 -2.64492 0
M  V30 3599 O 352.756 3.84321 -3.88535 0
M  V30 3600 H 349.85 0.606317 -0.562413 0
M  V30 3601 H 352.396 0.611994 -1.58281 0
M  V30 3602 H 351.168 1.71591 -3.51671 0
M  V30 3603 H 350.791 3.0945 -2.49652 0
M  V30 3604 N 351.788 1.33704 0.83433 0
M  V30 3605 C 353.013 1.28615 1.62705 0
M  V30 3606 C 353.438 -0.139242 1.87584 0
M  V30 3607 O 352.796 -1.09734 1.4432 0
M  V30 3608 C 352.844 2.07139 2.95171 0
M  V30 3609 O 351.948 1.4331 3.86699 0
M  V30 3610 H 351.289 0.44226 0.49528 0
M  V30 3611 H 353.819 1.76335 1.03766 0
M  V30 3612 H 353.829 2.18073 3.44831 0
M  V30 3613 H 352.504 3.10779 2.76386 0
M  V30 3614 H 351.081 1.4105 3.45195 0
M  V30 3615 N 353.266 -1.05314 1.17247 0
M  V30 3616 C 354.176 -2.16538 0.90268 0
M  V30 3617 C 355.192 -1.73523 -0.128707 0
M  V30 3618 O 356.368 -2.01337 0.0502701 0
M  V30 3619 C 353.433 -3.44167 0.418356 0
M  V30 3620 C 352.494 -4.01635 1.51618 0
M  V30 3621 C 351.727 -5.23171 1.05487 0
M  V30 3622 O 351.95 -5.70327 -0.0914715 0
M  V30 3623 O 350.884 -5.72848 1.8474 0
M  V30 3624 H 354.71 -2.42145 1.83302 0
M  V30 3625 H 352.295 -1.15037 0.953246 0
M  V30 3626 H 354.177 -4.21112 0.155726 0
M  V30 3627 H 352.852 -3.20063 -0.48385 0
M  V30 3628 H 351.759 -3.26135 1.83268 0
M  V30 3629 H 353.092 -4.30053 2.39405 0
M  V30 3630 N 354.744 -0.972509 -1.24016 0
M  V30 3631 C 355.99 -0.637978 -1.92504 0
M  V30 3632 C 356.323 0.825383 -1.75787 0
M  V30 3633 O 355.598 1.59442 -1.11393 0
M  V30 3634 C 355.881 -1.01942 -3.45369 0
M  V30 3635 C 355.734 -2.53983 -3.71231 0
M  V30 3636 C 357.053 -0.55751 -4.36555 0
M  V30 3637 H 354.172 -0.233248 -0.699117 0
M  V30 3638 H 356.814 -1.21238 -1.46292 0
M  V30 3639 H 354.964 -0.530656 -3.84859 0
M  V30 3640 H 356.636 -3.10374 -3.41271 0
M  V30 3641 H 354.879 -2.96968 -3.16216 0
M  V30 3642 H 355.55 -2.75723 -4.78206 0
M  V30 3643 H 358.026 -0.977029 -4.04467 0
M  V30 3644 H 356.902 -0.85292 -5.42233 0
M  V30 3645 H 357.163 0.542328 -4.38761 0
M  V30 3646 N 356.222 1.38976 -0.743202 0
M  V30 3647 C 357.132 2.3434 -0.110399 0
M  V30 3648 C 358.148 1.58741 0.712559 0
M  V30 3649 O 359.324 1.9099 0.639125 0
M  V30 3650 C 356.389 3.37812 0.780012 0
M  V30 3651 C 355.45 4.29263 -0.0561319 0
M  V30 3652 C 354.683 5.27793 0.791875 0
M  V30 3653 O 354.906 5.33043 2.03031 0
M  V30 3654 O 353.84 6.01512 0.216183 0
M  V30 3655 H 357.666 2.90129 -0.897714 0
M  V30 3656 H 355.251 1.40643 -0.503966 0
M  V30 3657 H 357.133 4.01194 1.28923 0
M  V30 3658 H 355.808 2.84395 1.546 0
M  V30 3659 H 354.715 3.69076 -0.611056 0
M  V30 3660 H 356.048 4.85907 -0.784531 0
M  V30 3661 N 357.7 0.491464 1.49741 0
M  V30 3662 C 358.633 -0.338464 2.25676 0
M  V30 3663 C 359.611 -0.978676 1.29849 0
M  V30 3664 O 360.795 -1.01064 1.59117 0
M  V30 3665 C 357.922 -1.47588 3.04853 0
M  V30 3666 C 356.968 -0.951 4.15762 0
M  V30 3667 S 357.801 0.150626 5.35288 0
M  V30 3668 C 358.957 -0.990178 6.18018 0
M  V30 3669 H 359.19 0.306068 2.9572 0
M  V30 3670 H 356.723 0.276622 1.51902 0
M  V30 3671 H 358.681 -2.12764 3.51058 0
M  V30 3672 H 357.342 -2.09199 2.34296 0
M  V30 3673 H 356.535 -1.80311 4.70642 0
M  V30 3674 H 356.137 -0.376607 3.72099 0
M  V30 3675 H 358.429 -1.89748 6.50386 0
M  V30 3676 H 359.372 -0.480205 7.0647 0
M  V30 3677 H 359.78 -1.25321 5.50413 0
M  V30 3678 N 359.178 -1.55987 0.224894 0
M  V30 3679 C 360.111 -2.16413 -0.723929 0
M  V30 3680 C 361.089 -1.10952 -1.18863 0
M  V30 3681 O 362.273 -1.39225 -1.27077 0
M  V30 3682 C 359.4 -2.74711 -1.98121 0
M  V30 3683 C 358.446 -3.9303 -1.6562 0
M  V30 3684 S 359.279 -5.29817 -0.778058 0
M  V30 3685 C 360.435 -5.91555 -2.04483 0
M  V30 3686 H 360.668 -2.96555 -0.210347 0
M  V30 3687 H 358.201 -1.54397 0.00955457 0
M  V30 3688 H 360.159 -3.08938 -2.70311 0
M  V30 3689 H 358.82 -1.94555 -2.46591 0
M  V30 3690 H 358.013 -4.32334 -2.59043 0
M  V30 3691 H 357.615 -3.59966 -1.01491 0
M  V30 3692 H 359.907 -6.07732 -2.99446 0
M  V30 3693 H 360.85 -6.87498 -1.69563 0
M  V30 3694 H 361.258 -5.20419 -2.18688 0
M  V30 3695 N 360.656 0.0484629 -1.57525 0
M  V30 3696 C 361.619 1.03956 -2.04269 0
M  V30 3697 C 362.619 1.30211 -0.943496 0
M  V30 3698 O 363.809 1.25539 -1.20771 0
M  V30 3699 C 360.941 2.37742 -2.44319 0
M  V30 3700 H 362.134 0.636182 -2.93075 0
M  V30 3701 H 359.687 0.294811 -1.53494 0
M  V30 3702 H 360.422 2.82866 -1.5861 0
M  V30 3703 H 360.207 2.20021 -3.24551 0
M  V30 3704 H 361.697 3.08936 -2.80978 0
M  V30 3705 N 362.134 1.5431 0.320358 0
M  V30 3706 C 363.066 1.80262 1.41556 0
M  V30 3707 C 364.079 0.684723 1.477 0
M  V30 3708 O 365.268 0.961886 1.50366 0
M  V30 3709 C 362.368 1.90825 2.8007 0
M  V30 3710 C 361.541 3.21023 2.97091 0
M  V30 3711 C 360.6 3.22247 4.15985 0
M  V30 3712 O 359.626 3.95871 4.08992 0
M  V30 3713 N 360.828 2.46258 5.25678 0
M  V30 3714 H 363.593 2.74778 1.19655 0
M  V30 3715 H 361.154 1.53646 0.510358 0
M  V30 3716 H 363.146 1.89067 3.57821 0
M  V30 3717 H 361.716 1.03392 2.95006 0
M  V30 3718 H 360.936 3.35715 2.06614 0
M  V30 3719 H 362.224 4.0698 3.05361 0
M  V30 3720 H 361.622 1.86037 5.34235 0
M  V30 3721 H 360.179 2.50275 6.01835 0
M  V30 3722 N 363.613 -0.582584 1.46437 0
M  V30 3723 C 364.543 -1.70187 1.59871 0
M  V30 3724 C 365.524 -1.64066 0.449042 0
M  V30 3725 O 366.709 -1.82081 0.6753 0
M  V30 3726 C 363.839 -3.08827 1.58881 0
M  V30 3727 C 362.793 -3.29779 2.72819 0
M  V30 3728 C 362.119 -4.68947 2.5689 0
M  V30 3729 C 363.419 -3.17601 4.1464 0
M  V30 3730 H 365.113 -1.592 2.53566 0
M  V30 3731 H 362.659 -0.764472 1.22032 0
M  V30 3732 H 364.612 -3.86951 1.66873 0
M  V30 3733 H 363.336 -3.20713 0.617306 0
M  V30 3734 H 361.995 -2.54054 2.64296 0
M  V30 3735 H 361.643 -4.77599 1.57823 0
M  V30 3736 H 361.343 -4.83919 3.33312 0
M  V30 3737 H 362.867 -5.4924 2.66773 0
M  V30 3738 H 364.281 -3.8557 4.24274 0
M  V30 3739 H 362.678 -3.44094 4.9165 0
M  V30 3740 H 363.748 -2.14681 4.34788 0
M  V30 3741 N 365.091 -1.34144 -0.827227 0
M  V30 3742 C 366.021 -1.28005 -1.95287 0
M  V30 3743 C 367.002 -0.158321 -1.69362 0
M  V30 3744 O 368.187 -0.349987 -1.9102 0
M  V30 3745 C 365.317 -1.03036 -3.31664 0
M  V30 3746 C 364.271 -2.11628 -3.72019 0
M  V30 3747 C 363.597 -1.71854 -5.0633 0
M  V30 3748 C 364.897 -3.53417 -3.8457 0
M  V30 3749 H 366.591 -2.22187 -2.00682 0
M  V30 3750 H 364.137 -1.0696 -0.964135 0
M  V30 3751 H 366.09 -0.973863 -4.09993 0
M  V30 3752 H 364.814 -0.0529391 -3.26557 0
M  V30 3753 H 363.473 -2.16339 -2.95961 0
M  V30 3754 H 363.121 -0.727841 -4.97706 0
M  V30 3755 H 362.821 -2.44531 -5.34302 0
M  V30 3756 H 364.345 -1.67692 -5.87122 0
M  V30 3757 H 365.759 -3.51142 -4.5318 0
M  V30 3758 H 364.156 -4.24679 -4.2399 0
M  V30 3759 H 365.226 -3.91072 -2.86689 0
M  V30 3760 N 366.569 1.04691 -1.17803 0
M  V30 3761 C 367.817 1.7743 -0.967617 0
M  V30 3762 C 368.138 1.88359 0.504574 0
M  V30 3763 O 367.408 1.40402 1.36617 0
M  V30 3764 H 365.988 0.657242 -0.355024 0
M  V30 3765 H 368.65 1.2638 -1.48371 0
M  V30 3766 H 367.746 2.78924 -1.40027 0
M  V30 3767 N 368.047 0.979072 1.23499 0
M  V30 3768 C 369.296 0.642751 1.91185 0
M  V30 3769 C 369.609 -0.827253 1.77245 0
M  V30 3770 O 370.815 -1.27458 2.39722 0
M  V30 3771 C 369.271 1.09901 3.42709 0
M  V30 3772 C 368.879 2.59327 3.65313 0
M  V30 3773 C 370.623 0.836371 4.16179 0
M  V30 3774 C 368.53 2.98627 5.10467 0
M  V30 3775 H 367.46 0.236698 0.715884 0
M  V30 3776 H 370.111 1.1868 1.39955 0
M  V30 3777 H 368.493 0.48319 3.93041 0
M  V30 3778 H 369.667 3.26136 3.25533 0
M  V30 3779 H 367.982 2.83323 3.05151 0
M  V30 3780 H 370.579 1.10586 5.23139 0
M  V30 3781 H 370.922 -0.227509 4.15678 0
M  V30 3782 H 371.455 1.41371 3.71832 0
M  V30 3783 H 368.194 4.04133 5.16098 0
M  V30 3784 H 367.714 2.3651 5.51201 0
M  V30 3785 H 369.393 2.89159 5.78788 0
M  V30 3786 N 369.525 -1.3858 0.750561 0
M  V30 3787 C 370.458 -2.28095 0.0693139 0
M  V30 3788 C 371.436 -1.45217 -0.731491 0
M  V30 3789 O 372.62 -1.74587 -0.71076 0
M  V30 3790 C 369.747 -3.26282 -0.90871 0
M  V30 3791 C 368.793 -4.26056 -0.194507 0
M  V30 3792 S 369.626 -5.24026 1.10257 0
M  V30 3793 C 370.782 -6.2577 0.127542 0
M  V30 3794 H 371.015 -2.85526 0.8284 0
M  V30 3795 H 368.548 -1.44536 0.543014 0
M  V30 3796 H 370.506 -3.83367 -1.46766 0
M  V30 3797 H 369.167 -2.6784 -1.64075 0
M  V30 3798 H 368.36 -4.95249 -0.93512 0
M  V30 3799 H 367.962 -3.72852 0.292837 0
M  V30 3800 H 370.254 -6.73796 -0.707516 0
M  V30 3801 H 371.197 -7.03712 0.787044 0
M  V30 3802 H 371.605 -5.63938 -0.251803 0
M  V30 3803 N 371.003 -0.499398 -1.49478 0
M  V30 3804 C 372.249 0.0457576 -2.02748 0
M  V30 3805 C 372.582 1.36793 -1.37846 0
M  V30 3806 O 371.857 1.87596 -0.513601 0
M  V30 3807 C 372.14 0.199986 -3.59544 0
M  V30 3808 C 371.993 -1.1452 -4.34977 0
M  V30 3809 C 373.312 0.94137 -4.29914 0
M  V30 3810 H 370.431 0.0151552 -0.736844 0
M  V30 3811 H 373.073 -0.650498 -1.78518 0
M  V30 3812 H 371.223 0.793007 -3.8032 0
M  V30 3813 H 372.895 -1.77697 -4.25701 0
M  V30 3814 H 371.138 -1.73488 -3.97598 0
M  V30 3815 H 371.809 -0.990607 -5.43039 0
M  V30 3816 H 374.285 0.43844 -4.13784 0
M  V30 3817 H 373.161 1.01812 -5.39375 0
M  V30 3818 H 373.422 1.98471 -3.95046 0
M  V30 3819 N 372.481 1.55866 -0.233164 0
M  V30 3820 C 373.727 1.98897 0.395959 0
M  V30 3821 C 374.06 1.12091 1.58585 0
M  V30 3822 O 373.335 0.181182 1.93654 0
M  V30 3823 C 373.618 3.50658 0.819224 0
M  V30 3824 C 373.471 4.48233 -0.375109 0
M  V30 3825 C 374.79 4.07135 1.67121 0
M  V30 3826 H 371.909 0.723102 0.142451 0
M  V30 3827 H 374.551 1.87082 -0.331725 0
M  V30 3828 H 372.701 3.60857 1.43925 0
M  V30 3829 H 374.373 4.50031 -1.01341 0
M  V30 3830 H 372.616 4.21624 -1.02058 0
M  V30 3831 H 373.287 5.51988 -0.0358328 0
M  V30 3832 H 375.763 3.99952 1.14795 0
M  V30 3833 H 374.639 5.13615 1.93625 0
M  V30 3834 H 374.9 3.54736 2.63846 0
M  V30 3835 N 373.959 -0.0401083 1.57549 0
M  V30 3836 C 374.922 -1.02871 2.04817 0
M  V30 3837 C 375.922 -1.29708 0.950388 0
M  V30 3838 O 377.112 -1.24897 1.21435 0
M  V30 3839 C 374.244 -2.36443 2.45576 0
M  V30 3840 H 375.437 -0.620631 2.93408 0
M  V30 3841 H 372.99 -0.286667 1.53649 0
M  V30 3842 H 373.725 -2.82021 1.60108 0
M  V30 3843 H 373.51 -2.18296 3.25713 0
M  V30 3844 H 375 -3.07441 2.82612 0
M  V30 3845 N 375.437 -1.54477 -0.31217 0
M  V30 3846 C 376.662 -1.77526 -1.07235 0
M  V30 3847 C 377.087 -0.527775 -1.80544 0
M  V30 3848 O 376.445 0.52121 -1.73646 0
M  V30 3849 C 376.493 -2.97535 -2.03728 0
M  V30 3850 O 375.597 -2.69878 -3.11833 0
M  V30 3851 H 374.938 -0.58792 -0.30862 0
M  V30 3852 H 377.468 -2.01532 -0.352993 0
M  V30 3853 H 377.478 -3.25198 -2.46395 0
M  V30 3854 H 376.153 -3.87996 -1.49774 0
M  V30 3855 H 374.73 -2.53199 -2.7376 0
M  V30 3856 N 376.915 0.57481 -1.46744 0
M  V30 3857 C 378.161 1.3347 -1.52688 0
M  V30 3858 C 378.494 1.93353 -0.181229 0
M  V30 3859 O 377.769 1.76912 0.808237 0
M  V30 3860 C 378.052 2.45811 -2.63152 0
M  V30 3861 C 377.905 1.90912 -4.07275 0
M  V30 3862 C 379.224 3.47822 -2.69644 0
M  V30 3863 H 376.343 0.483935 -0.555856 0
M  V30 3864 H 378.985 0.644968 -1.78718 0
M  V30 3865 H 377.135 3.04646 -2.41088 0
M  V30 3866 H 378.807 1.36473 -4.4065 0
M  V30 3867 H 377.05 1.21691 -4.16382 0
M  V30 3868 H 377.721 2.72042 -4.80309 0
M  V30 3869 H 380.197 2.9888 -2.895 0
M  V30 3870 H 379.073 4.23876 -3.48742 0
M  V30 3871 H 379.334 4.05555 -1.76005 0
M  V30 3872 N 378.394 1.34581 0.820102 0
M  V30 3873 C 379.634 1.28448 1.58998 0
M  V30 3874 C 379.998 -0.142883 1.91468 0
M  V30 3875 O 381.199 -0.328422 2.66786 0
M  V30 3876 C 379.47 2.153 2.85273 0
M  V30 3877 S 381.029 2.26548 3.75794 0
M  V30 3878 H 377.847 0.456685 0.54494 0
M  V30 3879 H 380.449 1.69825 0.968487 0
M  V30 3880 H 379.153 3.18008 2.59421 0
M  V30 3881 H 378.684 1.7483 3.52417 0
M  V30 3882 H 380.699 1.44034 4.74835 0
M  V30 3883 N 379.872 -1.04064 1.18357 0
M  V30 3884 C 381.118 -1.77658 0.990412 0
M  V30 3885 C 381.473 -1.86446 -0.474944 0
M  V30 3886 O 380.766 -1.36153 -1.34807 0
M  V30 3887 C 380.96 -3.20634 1.57888 0
M  V30 3888 C 380.789 -3.25782 3.09994 0
M  V30 3889 C 379.559 -3.34411 3.7881 0
M  V30 3890 C 381.757 -3.13791 4.0748 0
M  V30 3891 N 379.739 -3.28809 5.18418 0
M  V30 3892 C 381.11 -3.15689 5.33611 0
M  V30 3893 C 383.165 -2.97833 3.98998 0
M  V30 3894 C 381.868 -3.03268 6.52243 0
M  V30 3895 C 383.894 -2.86759 5.17227 0
M  V30 3896 C 383.256 -2.893 6.4225 0
M  V30 3897 H 379.355 -0.661901 0.416427 0
M  V30 3898 H 381.939 -1.23968 1.50133 0
M  V30 3899 H 380.11 -3.7267 1.09414 0
M  V30 3900 H 381.842 -3.82525 1.32124 0
M  V30 3901 H 378.597 -3.40144 3.29543 0
M  V30 3902 H 379.021 -3.29448 5.91433 0
M  V30 3903 H 383.663 -2.94698 3.03171 0
M  V30 3904 H 381.381 -3.05156 7.48268 0
M  V30 3905 H 384.967 -2.75465 5.12455 0
M  V30 3906 H 383.847 -2.80818 7.32196 0
M  V30 3907 N 381.35 -0.985608 -1.22978 0
M  V30 3908 C 382.28 -0.549649 -2.26939 0
M  V30 3909 C 383.261 0.419803 -1.64838 0
M  V30 3910 O 384.446 0.31203 -1.91677 0
M  V30 3911 C 381.576 0.143652 -3.47003 0
M  V30 3912 C 380.53 -0.743606 -4.21491 0
M  V30 3913 C 379.856 0.0822027 -5.34637 0
M  V30 3914 C 381.156 -2.03694 -4.80943 0
M  V30 3915 H 382.85 -1.41862 -2.63658 0
M  V30 3916 H 380.396 -0.683571 -1.26741 0
M  V30 3917 H 382.349 0.459985 -4.18882 0
M  V30 3918 H 381.073 1.04711 -3.09359 0
M  V30 3919 H 379.732 -1.04347 -3.51436 0
M  V30 3920 H 379.38 0.986359 -4.93234 0
M  V30 3921 H 379.08 -0.508377 -5.85397 0
M  V30 3922 H 380.604 0.392797 -6.09335 0
M  V30 3923 H 382.018 -1.78504 -5.44802 0
M  V30 3924 H 380.415 -2.57573 -5.42011 0
M  V30 3925 H 381.485 -2.72042 -4.01399 0
M  V30 3926 N 382.828 1.3818 -0.7579 0
M  V30 3927 C 384.239 1.82726 -0.383134 0
M  V30 3928 C 384.59 1.63214 1.08884 0
M  V30 3929 O 383.715 1.13566 1.84205 0
M  V30 3930 C 384.31 3.31728 -0.688631 0
M  V30 3931 C 382.869 3.74606 -0.367091 0
M  V30 3932 C 382.016 2.60896 -0.939599 0
M  V30 3933 H 384.967 1.26847 -0.953699 0
M  V30 3934 H 384.988 3.80487 0.0316492 0
M  V30 3935 H 384.5 3.45898 -1.76001 0
M  V30 3936 H 382.601 3.66013 0.697532 0
M  V30 3937 H 382.714 4.71215 -0.865658 0
M  V30 3938 H 381.078 2.52075 -0.3647 0
M  V30 3939 H 381.861 2.77864 -2.0161 0
M  V30 3940 N 384.306 0.507319 1.49211 0
M  V30 3941 C 385.236 -0.256939 2.32082 0
M  V30 3942 C 386.217 -0.956609 1.40652 0
M  V30 3943 O 387.402 -0.946788 1.69557 0
M  V30 3944 C 384.532 -1.31802 3.21318 0
M  V30 3945 C 383.486 -0.737855 4.21592 0
M  V30 3946 C 382.812 -1.89992 4.99807 0
M  V30 3947 C 384.112 0.275325 5.21574 0
M  V30 3948 H 385.806 0.434798 2.96226 0
M  V30 3949 H 383.352 0.210546 1.42452 0
M  V30 3950 H 385.305 -1.86045 3.78107 0
M  V30 3951 H 384.029 -2.03903 2.5513 0
M  V30 3952 H 382.688 -0.217126 3.65956 0
M  V30 3953 H 382.336 -2.60877 4.30061 0
M  V30 3954 H 382.036 -1.51777 5.6766 0
M  V30 3955 H 383.56 -2.44657 5.59442 0
M  V30 3956 H 384.974 -0.179193 5.7302 0
M  V30 3957 H 383.371 0.573649 5.97352 0
M  V30 3958 H 384.441 1.18903 4.70096 0
M  V30 3959 N 385.784 -1.5574 0.241426 0
M  V30 3960 C 386.714 -2.24133 -0.654722 0
M  V30 3961 C 387.695 -1.21974 -1.1856 0
M  V30 3962 O 388.88 -1.50612 -1.22595 0
M  V30 3963 C 386.01 -2.93659 -1.85423 0
M  V30 3964 C 384.964 -4.0246 -1.45636 0
M  V30 3965 C 384.29 -4.59383 -2.73626 0
M  V30 3966 C 385.59 -5.18468 -0.631506 0
M  V30 3967 H 387.284 -2.99281 -0.0844353 0
M  V30 3968 H 384.83 -1.43947 -0.0391707 0
M  V30 3969 H 386.783 -3.40203 -2.48676 0
M  V30 3970 H 385.507 -2.15991 -2.44981 0
M  V30 3971 H 384.166 -3.56676 -0.847202 0
M  V30 3972 H 383.814 -3.78422 -3.3137 0
M  V30 3973 H 383.514 -5.32826 -2.4773 0
M  V30 3974 H 385.038 -5.08658 -3.37786 0
M  V30 3975 H 386.452 -5.61272 -1.1682 0
M  V30 3976 H 384.849 -5.98266 -0.468831 0
M  V30 3977 H 385.919 -4.8358 0.357506 0
M  V30 3978 N 387.262 0.0317525 -1.57568 0
M  V30 3979 C 388.508 0.724175 -1.8943 0
M  V30 3980 C 388.841 1.75149 -0.838836 0
M  V30 3981 O 388.116 1.93948 0.146422 0
M  V30 3982 C 388.399 1.39615 -3.31933 0
M  V30 3983 C 388.252 0.382537 -4.4817 0
M  V30 3984 C 389.571 2.33084 -3.73309 0
M  V30 3985 H 386.69 0.261797 -0.688935 0
M  V30 3986 H 389.332 -0.013017 -1.89996 0
M  V30 3987 H 387.482 2.02451 -3.31581 0
M  V30 3988 H 389.154 -0.243689 -4.60656 0
M  V30 3989 H 387.397 -0.29844 -4.32772 0
M  V30 3990 H 388.068 0.891145 -5.44759 0
M  V30 3991 H 390.544 1.80295 -3.7501 0
M  V30 3992 H 389.42 2.77084 -4.73831 0
M  V30 3993 H 389.681 3.19643 -3.05419 0
M  V30 3994 N 388.74 1.54641 0.303973 0
M  V30 3995 C 389.987 1.7378 1.03955 0
M  V30 3996 C 390.315 0.521986 1.87365 0
M  V30 3997 O 389.57 -0.496099 1.89308 0
M  V30 3998 C 389.869 2.97753 1.97681 0
M  V30 3999 C 389.535 4.31671 1.30271 0
M  V30 4000 C 388.197 4.68075 1.11619 0
M  V30 4001 C 390.549 5.147 0.82055 0
M  V30 4002 C 387.877 5.8509 0.434304 0
M  V30 4003 C 390.229 6.32416 0.152395 0
M  V30 4004 C 388.893 6.67484 -0.0461067 0
M  V30 4005 H 388.163 0.635908 0.380398 0
M  V30 4006 H 390.81 1.88896 0.314718 0
M  V30 4007 H 389.115 2.77406 2.76682 0
M  V30 4008 H 390.812 3.09756 2.54661 0
M  V30 4009 H 387.402 4.03041 1.45795 0
M  V30 4010 H 391.586 4.87077 0.952374 0
M  V30 4011 H 386.842 6.10806 0.269495 0
M  V30 4012 H 391.016 6.96023 -0.229126 0
M  V30 4013 H 388.643 7.58011 -0.576494 0
M  V30 4014 N 390.218 -0.567019 1.47046 0
M  V30 4015 C 391.467 -1.32091 1.5243 0
M  V30 4016 C 391.78 -1.94704 0.187021 0
M  V30 4017 O 392.986 -2.7124 0.118771 0
M  V30 4018 C 391.442 -2.39479 2.68659 0
M  V30 4019 C 391.05 -1.831 4.08874 0
M  V30 4020 C 392.794 -3.16111 2.83327 0
M  V30 4021 C 390.701 -2.8821 5.16419 0
M  V30 4022 H 389.631 -0.496629 0.56734 0
M  V30 4023 H 392.282 -0.603354 1.73297 0
M  V30 4024 H 390.664 -3.14105 2.41152 0
M  V30 4025 H 391.838 -1.14913 4.46242 0
M  V30 4026 H 390.153 -1.19085 3.99008 0
M  V30 4027 H 392.75 -3.94585 3.60842 0
M  V30 4028 H 393.093 -3.69686 1.91411 0
M  V30 4029 H 393.626 -2.48595 3.10556 0
M  V30 4030 H 390.365 -2.39504 6.10179 0
M  V30 4031 H 389.885 -3.54839 4.8358 0
M  V30 4032 H 391.564 -3.51881 5.42945 0
M  V30 4033 N 391.696 -1.35014 -0.812953 0
M  V30 4034 C 392.659 -1.27292 -1.90602 0
M  V30 4035 C 393.659 -0.185817 -1.59723 0
M  V30 4036 O 394.849 -0.439102 -1.68575 0
M  V30 4037 C 391.981 -0.967676 -3.26877 0
M  V30 4038 H 393.174 -2.24479 -1.9887 0
M  V30 4039 H 390.727 -1.19446 -1.00808 0
M  V30 4040 H 391.462 0.0005954 -3.243 0
M  V30 4041 H 391.247 -1.75412 -3.50675 0
M  V30 4042 H 392.737 -0.939085 -4.06904 0
M  V30 4043 N 393.175 1.03435 -1.18907 0
M  V30 4044 C 394.107 2.1165 -0.879595 0
M  V30 4045 C 395.12 1.62316 0.125439 0
M  V30 4046 O 396.309 1.78201 -0.103245 0
M  V30 4047 C 393.409 3.37622 -0.294042 0
M  V30 4048 C 392.582 4.16166 -1.34629 0
M  V30 4049 C 391.641 5.20457 -0.775274 0
M  V30 4050 O 390.667 5.50379 -1.4516 0
M  V30 4051 N 391.869 5.78949 0.424126 0
M  V30 4052 H 394.634 2.38791 -1.81105 0
M  V30 4053 H 392.195 1.19681 -1.09032 0
M  V30 4054 H 394.187 4.04572 0.101679 0
M  V30 4055 H 392.757 3.07873 0.541575 0
M  V30 4056 H 391.977 3.44444 -1.91707 0
M  V30 4057 H 393.265 4.65432 -2.05549 0
M  V30 4058 H 392.663 5.56948 0.991209 0
M  V30 4059 H 391.22 6.47334 0.761691 0
M  V30 4060 N 394.653 0.992116 1.22453 0
M  V30 4061 C 395.881 0.685944 1.95198 0
M  V30 4062 C 396.296 -0.749233 1.73297 0
M  V30 4063 O 395.653 -1.50549 1.03156 0
M  V30 4064 C 395.704 0.981395 3.47924 0
M  V30 4065 O 395.425 2.36018 3.6909 0
M  V30 4066 C 396.926 0.692815 4.37853 0
M  V30 4067 H 394.146 0.253821 0.621141 0
M  V30 4068 H 396.69 1.32668 1.55626 0
M  V30 4069 H 394.845 0.386481 3.85467 0
M  V30 4070 H 395.259 2.45884 4.63294 0
M  V30 4071 H 396.733 0.949818 5.43767 0
M  V30 4072 H 397.21 -0.373181 4.37612 0
M  V30 4073 H 397.816 1.26874 4.05935 0
M  V30 4074 N 396.131 -1.37776 0.765217 0
M  V30 4075 C 397.377 -2.00145 0.327072 0
M  V30 4076 C 397.71 -1.60607 -1.09175 0
M  V30 4077 O 396.985 -0.849127 -1.74986 0
M  V30 4078 C 397.268 -3.57109 0.46319 0
M  V30 4079 C 397.121 -4.06576 1.92395 0
M  V30 4080 C 398.44 -4.39888 -0.136473 0
M  V30 4081 H 395.559 -0.727113 0.120316 0
M  V30 4082 H 398.201 -1.63549 0.967039 0
M  V30 4083 H 396.351 -3.88414 -0.0816358 0
M  V30 4084 H 398.023 -3.85864 2.52798 0
M  V30 4085 H 396.266 -3.59011 2.43503 0
M  V30 4086 H 396.937 -5.15639 1.97028 0
M  V30 4087 H 399.413 -4.14803 0.328317 0
M  V30 4088 H 398.289 -5.48899 -0.0110582 0
M  V30 4089 H 398.55 -4.24758 -1.22608 0
M  V30 4090 N 397.609 -0.515225 -1.4894 0
M  V30 4091 C 398.539 0.244628 -2.32215 0
M  V30 4092 C 399.52 0.949136 -1.41157 0
M  V30 4093 O 400.705 0.937783 -1.70057 0
M  V30 4094 C 397.835 1.30096 -3.22013 0
M  V30 4095 C 396.789 0.715486 -4.21977 0
M  V30 4096 C 396.115 1.87339 -5.00808 0
M  V30 4097 C 397.415 -0.302982 -5.2142 0
M  V30 4098 H 399.109 -0.450501 -2.95991 0
M  V30 4099 H 396.655 -0.218098 -1.42339 0
M  V30 4100 H 398.608 1.84037 -3.79089 0
M  V30 4101 H 397.332 2.02547 -2.56207 0
M  V30 4102 H 395.991 0.197715 -3.66066 0
M  V30 4103 H 395.639 2.58592 -4.31438 0
M  V30 4104 H 395.339 1.48764 -5.68457 0
M  V30 4105 H 396.863 2.41686 -5.60732 0
M  V30 4106 H 398.277 0.148802 -5.73107 0
M  V30 4107 H 396.674 -0.60532 -5.97039 0
M  V30 4108 H 397.744 -1.21395 -4.69459 0
M  V30 4109 N 399.087 1.5561 -0.249682 0
M  V30 4110 C 400.503 1.59254 0.105103 0
M  V30 4111 C 400.703 1.26685 1.56694 0
M  V30 4112 O 399.759 1.0155 2.31179 0
M  V30 4113 C 401.072 2.99687 -0.246592 0
M  V30 4114 C 402.62 3.12416 -0.191118 0
M  V30 4115 C 403.095 4.55074 -0.516885 0
M  V30 4116 N 404.586 4.60835 -0.467489 0
M  V30 4117 C 405.321 5.69201 -0.69268 0
M  V30 4118 N 404.817 6.85817 -0.981146 0
M  V30 4119 N 406.61 5.58635 -0.623198 0
M  V30 4120 H 398.761 1.75049 -1.20298 0
M  V30 4121 H 401.024 0.815003 -0.484225 0
M  V30 4122 H 400.73 3.28267 -1.26228 0
M  V30 4123 H 400.604 3.74798 0.424962 0
M  V30 4124 H 402.991 2.83615 0.815247 0
M  V30 4125 H 403.072 2.39573 -0.896563 0
M  V30 4126 H 402.716 4.84596 -1.52082 0
M  V30 4127 H 402.646 5.26181 0.210068 0
M  V30 4128 H 405.137 3.7705 -0.253373 0
M  V30 4129 H 405.45 7.64341 -1.14032 0
M  V30 4130 H 403.795 6.87494 -1.01865 0
M  V30 4131 H 406.986 4.66406 -0.397863 0
M  V30 4132 H 407.159 6.43017 -0.802093 0
M  V30 4133 N 400.565 -0.0233959 1.57583 0
M  V30 4134 C 401.513 -1.04063 2.08023 0
M  V30 4135 C 402.507 -1.37084 0.995204 0
M  V30 4136 O 403.713 -1.35923 1.18004 0
M  V30 4137 H 400.088 -0.353144 0.663922 0
M  V30 4138 H 402.059 -0.589453 2.9252 0
M  V30 4139 C 400.808 -2.33123 2.57971 0
M  V30 4140 H 400.131 -2.08577 3.4108 0
M  V30 4141 H 401.571 -3.02632 2.96967 0
M  V30 4142 C 400.03 -3.02483 1.48342 0
M  V30 4143 O 400.56 -3.92541 0.852898 0
M  V30 4144 N 398.766 -2.63909 1.21658 0
M  V30 4145 H 398.313 -1.90758 1.73116 0
M  V30 4146 H 398.271 -3.10633 0.485218 0
M  V30 4147 N 402.043 -1.548 -0.295768 0
M  V30 4148 C 403.454 -1.65274 -0.868411 0
M  V30 4149 C 403.805 -0.56481 -1.87894 0
M  V30 4150 O 402.93 0.29767 -2.14343 0
M  V30 4151 C 403.525 -2.99603 -1.58188 0
M  V30 4152 C 402.084 -3.12181 -2.10286 0
M  V30 4153 C 401.231 -2.6098 -0.93727 0
M  V30 4154 H 404.182 -1.58534 -0.0726422 0
M  V30 4155 H 404.203 -2.91319 -2.44772 0
M  V30 4156 H 403.715 -3.78764 -0.846151 0
M  V30 4157 H 401.816 -2.3775 -2.8689 0
M  V30 4158 H 401.929 -4.18415 -2.33379 0
M  V30 4159 H 400.293 -2.17564 -1.32431 0
M  V30 4160 H 401.076 -3.42623 -0.215414 0
M  V30 4161 N 403.521 0.559213 -1.47345 0
M  V30 4162 C 404.932 1.14134 -1.47751 0
M  V30 4163 C 405.283 1.94834 -0.231103 0
M  V30 4164 O 404.408 2.05957 0.664137 0
M  V30 4165 C 405.003 2.07653 -2.67705 0
M  V30 4166 C 403.562 2.61141 -2.71076 0
M  V30 4167 C 402.709 1.3748 -2.40821 0
M  V30 4168 H 405.66 0.345917 -1.54884 0
M  V30 4169 H 405.681 2.91497 -2.44561 0
M  V30 4170 H 405.193 1.4889 -3.58404 0
M  V30 4171 H 403.294 3.23707 -1.84511 0
M  V30 4172 H 403.407 3.02272 -3.7171 0
M  V30 4173 H 401.771 1.68086 -1.91362 0
M  V30 4174 H 402.554 0.805135 -3.33725 0
M  V30 4175 N 404.999 1.35443 0.805782 0
M  V30 4176 C 405.962 1.28301 1.89925 0
M  V30 4177 C 406.962 0.194285 1.59622 0
M  V30 4178 O 408.152 0.448036 1.6834 0
M  V30 4179 C 405.284 0.984997 3.2636 0
M  V30 4180 H 406.477 2.2553 1.97677 0
M  V30 4181 H 404.03 1.19979 1.00173 0
M  V30 4182 H 404.765 0.016603 3.24296 0
M  V30 4183 H 404.55 1.77269 3.4974 0
M  V30 4184 H 406.04 0.960651 4.064 0
M  V30 4185 N 406.477 -1.02803 1.19454 0
M  V30 4186 C 407.41 -2.107 0.876396 0
M  V30 4187 C 408.388 -1.61741 -0.166897 0
M  V30 4188 O 409.572 -1.88451 -0.0430195 0
M  V30 4189 C 406.699 -3.37262 0.311758 0
M  V30 4190 C 405.745 -4.05093 1.33424 0
M  V30 4191 S 406.578 -4.50498 2.89503 0
M  V30 4192 C 407.734 -5.80277 2.34584 0
M  V30 4193 H 407.967 -2.37362 1.79016 0
M  V30 4194 H 405.5 -1.15755 1.02177 0
M  V30 4195 H 407.458 -4.10499 -0.00748752 0
M  V30 4196 H 406.119 -3.08693 -0.58032 0
M  V30 4197 H 405.312 -4.9611 0.888302 0
M  V30 4198 H 404.914 -3.3803 1.60037 0
M  V30 4199 H 407.206 -6.54873 1.73633 0
M  V30 4200 H 408.149 -6.29651 3.23952 0
M  V30 4201 H 408.557 -5.3599 1.77131 0
M  V30 4202 N 407.956 -0.998596 -1.21925 0
M  V30 4203 C 409.181 -0.696015 -1.95372 0
M  V30 4204 C 409.606 0.733826 -1.73195 0
M  V30 4205 O 408.964 1.50242 -1.01474 0
M  V30 4206 C 409.012 -1.01466 -3.4603 0
M  V30 4207 O 408.116 -0.116415 -4.12236 0
M  V30 4208 H 407.457 -0.259938 -0.611006 0
M  V30 4209 H 409.987 -1.33711 -1.54863 0
M  V30 4210 H 409.997 -0.958855 -3.96573 0
M  V30 4211 H 408.672 -2.05653 -3.61497 0
M  V30 4212 H 407.249 -0.228193 -3.72201 0
M  V30 4213 N 409.434 1.37368 -0.772513 0
M  V30 4214 C 410.845 1.8231 -0.402493 0
M  V30 4215 C 411.196 1.6436 1.07146 0
M  V30 4216 O 410.321 1.15514 1.82991 0
M  V30 4217 C 410.916 3.30979 -0.723776 0
M  V30 4218 C 409.475 3.74195 -0.406802 0
M  V30 4219 C 408.622 2.59885 -0.967218 0
M  V30 4220 H 411.573 1.25829 -0.967099 0
M  V30 4221 H 411.594 3.80499 -0.00870832 0
M  V30 4222 H 411.106 3.44011 -1.7966 0
M  V30 4223 H 409.207 3.66732 0.658673 0
M  V30 4224 H 409.32 4.7027 -0.915588 0
M  V30 4225 H 407.684 2.51674 -0.391416 0
M  V30 4226 H 408.467 2.7571 -2.04546 0
M  V30 4227 N 410.912 0.523116 1.48665 0
M  V30 4228 C 411.875 -0.232592 2.28017 0
M  V30 4229 C 412.875 -0.874021 1.34972 0
M  V30 4230 O 414.065 -0.735132 1.57929 0
M  V30 4231 C 411.197 -1.33586 3.13636 0
M  V30 4232 H 412.39 0.464008 2.96289 0
M  V30 4233 H 409.943 0.278816 1.53793 0
M  V30 4234 H 410.678 -2.06593 2.4998 0
M  V30 4235 H 410.463 -0.881125 3.82071 0
M  V30 4236 H 411.953 -1.86759 3.73511 0
M  V30 4237 N 412.39 -1.55475 0.257931 0
M  V30 4238 C 413.638 -1.98813 -0.363009 0
M  V30 4239 C 413.959 -1.14757 -1.57657 0
M  V30 4240 O 413.229 -0.232956 -1.9451 0
M  V30 4241 H 411.809 -0.734308 -0.137113 0
M  V30 4242 H 414.471 -1.9156 0.359281 0
M  V30 4243 H 413.567 -3.04941 -0.664634 0
M  V30 4244 N 413.868 0.0150385 -1.57593 0
M  V30 4245 C 414.8 1.03912 -2.04291 0
M  V30 4246 C 415.813 1.31618 -0.958146 0
M  V30 4247 O 417.002 1.28859 -1.23522 0
M  V30 4248 C 414.102 2.37749 -2.41514 0
M  V30 4249 C 413.275 2.29198 -3.72541 0
M  V30 4250 C 412.334 3.45598 -3.96797 0
M  V30 4251 O 411.36 3.24461 -4.67668 0
M  V30 4252 N 412.562 4.67945 -3.43523 0
M  V30 4253 H 415.327 0.64099 -2.92765 0
M  V30 4254 H 412.888 0.20272 -1.60626 0
M  V30 4255 H 414.88 3.14364 -2.54867 0
M  V30 4256 H 413.45 2.69357 -1.58637 0
M  V30 4257 H 412.67 1.3759 -3.69408 0
M  V30 4258 H 413.958 2.20642 -4.5847 0
M  V30 4259 H 413.356 4.88017 -2.86104 0
M  V30 4260 H 411.913 5.41878 -3.62232 0
M  V30 4261 N 415.346 1.54954 0.287554 0
M  V30 4262 C 416.276 1.89839 1.35954 0
M  V30 4263 C 417.257 0.758675 1.52244 0
M  V30 4264 O 418.442 1.01557 1.65529 0
M  V30 4265 C 415.572 2.15753 2.72154 0
M  V30 4266 C 414.526 3.3159 2.70614 0
M  V30 4267 C 413.852 3.42952 4.10229 0
M  V30 4268 C 415.152 4.68359 2.31165 0
M  V30 4269 H 416.846 2.79625 1.07007 0
M  V30 4270 H 414.392 1.3454 0.513316 0
M  V30 4271 H 416.345 2.38743 3.47246 0
M  V30 4272 H 415.069 1.22752 3.02654 0
M  V30 4273 H 413.728 3.08545 1.97979 0
M  V30 4274 H 413.376 2.47443 4.37928 0
M  V30 4275 H 413.076 4.20826 4.10097 0
M  V30 4276 H 414.6 3.68218 4.87081 0
M  V30 4277 H 416.014 4.9099 2.95976 0
M  V30 4278 H 414.411 5.49044 2.42221 0
M  V30 4279 H 415.481 4.68165 1.26291 0
M  V30 4280 N 416.824 -0.551391 1.4764 0
M  V30 4281 C 418.049 -1.33837 1.58437 0
M  V30 4282 C 418.474 -1.866 0.237063 0
M  V30 4283 O 417.832 -1.6328 -0.787994 0
M  V30 4284 C 417.88 -2.48014 2.61766 0
M  V30 4285 O 416.984 -3.50419 2.1744 0
M  V30 4286 H 416.325 -0.397299 0.532024 0
M  V30 4287 H 418.855 -0.665759 1.93465 0
M  V30 4288 H 418.865 -2.94503 2.82369 0
M  V30 4289 H 417.54 -2.08969 3.5959 0
M  V30 4290 H 416.117 -3.10196 2.06961 0
M  V30 4291 N 418.302 -1.35869 -0.798587 0
M  V30 4292 C 419.718 -1.16082 -1.09532 0
M  V30 4293 C 419.918 0.0213124 -2.01489 0
M  V30 4294 O 418.974 0.689488 -2.42904 0
M  V30 4295 C 420.287 -2.46748 -1.7186 0
M  V30 4296 C 421.835 -2.53028 -1.84244 0
M  V30 4297 C 422.31 -3.83758 -2.49988 0
M  V30 4298 N 423.801 -3.85053 -2.57465 0
M  V30 4299 C 424.536 -4.8294 -3.09122 0
M  V30 4300 N 424.032 -5.91217 -3.61157 0
M  V30 4301 N 425.825 -4.70369 -3.0775 0
M  V30 4302 H 417.976 -2.11571 -0.187461 0
M  V30 4303 H 420.239 -0.936726 -0.145765 0
M  V30 4304 H 419.945 -3.33471 -1.11759 0
M  V30 4305 H 419.819 -2.61883 -2.71472 0
M  V30 4306 H 422.206 -1.66729 -2.43486 0
M  V30 4307 H 422.287 -2.418 -0.834643 0
M  V30 4308 H 421.931 -4.70459 -1.91393 0
M  V30 4309 H 421.861 -3.92278 -3.5132 0
M  V30 4310 H 424.352 -3.06822 -2.20609 0
M  V30 4311 H 424.665 -6.61892 -3.98896 0
M  V30 4312 H 423.01 -5.94899 -3.59333 0
M  V30 4313 H 426.201 -3.84914 -2.66381 0
M  V30 4314 H 426.374 -5.46816 -3.47701 0
M  V30 4315 N 419.78 1.02168 -1.19998 0
M  V30 4316 C 421.008 1.79296 -1.03249 0
M  V30 4317 C 421.423 1.84103 0.418502 0
M  V30 4318 O 420.78 1.29031 1.29063 0
M  V30 4319 C 420.831 3.24007 -1.60319 0
M  V30 4320 O 420.552 3.19512 -2.99739 0
M  V30 4321 C 422.053 4.17704 -1.48453 0
M  V30 4322 H 419.273 0.564016 -0.363493 0
M  V30 4323 H 421.817 1.28639 -1.58973 0
M  V30 4324 H 419.972 3.7183 -1.08727 0
M  V30 4325 H 420.386 4.10306 -3.26725 0
M  V30 4326 H 421.86 5.17104 -1.93153 0
M  V30 4327 H 422.337 4.37029 -0.436193 0
M  V30 4328 H 422.943 3.7576 -1.99211 0
M  V30 4329 N 421.258 1.00505 1.21394 0
M  V30 4330 C 422.486 0.706609 1.9446 0
M  V30 4331 C 422.901 -0.73081 1.74082 0
M  V30 4332 O 422.258 -1.49446 1.04747 0
M  V30 4333 C 422.309 1.01824 3.46863 0
M  V30 4334 O 422.03 2.39919 3.66566 0
M  V30 4335 C 423.531 0.739216 4.37093 0
M  V30 4336 H 420.751 0.260394 0.618414 0
M  V30 4337 H 423.295 1.34311 1.54211 0
M  V30 4338 H 421.45 0.427343 3.85036 0
M  V30 4339 H 421.864 2.50784 4.6066 0
M  V30 4340 H 423.338 1.00744 5.42729 0
M  V30 4341 H 423.815 -0.326746 4.37983 0
M  V30 4342 H 424.421 1.31173 4.04566 0
M  V30 4343 N 422.737 -1.36956 0.779787 0
M  V30 4344 C 423.647 -2.33965 0.172491 0
M  V30 4345 C 424.663 -1.60574 -0.670222 0
M  V30 4346 O 425.839 -1.92617 -0.588263 0
M  V30 4347 C 422.904 -3.39761 -0.690173 0
M  V30 4348 C 421.965 -4.28964 0.169924 0
M  V30 4349 C 421.198 -5.29707 -0.651662 0
M  V30 4350 O 421.421 -5.38238 -1.88827 0
M  V30 4351 O 420.355 -6.01873 -0.0566264 0
M  V30 4352 H 424.181 -2.87647 0.974321 0
M  V30 4353 H 421.766 -1.39258 0.541078 0
M  V30 4354 H 423.648 -4.04471 -1.1824 0
M  V30 4355 H 422.323 -2.88394 -1.47006 0
M  V30 4356 H 421.23 -3.67326 0.708696 0
M  V30 4357 H 422.563 -4.83656 0.913085 0
M  V30 4358 N 424.215 -0.530993 -1.48385 0
M  V30 4359 C 425.162 0.231223 -2.29639 0
M  V30 4360 C 426.132 0.932864 -1.37429 0
M  V30 4361 O 427.317 0.933692 -1.66394 0
M  V30 4362 C 424.457 1.27155 -3.2082 0
M  V30 4363 C 423.57 0.578655 -4.28107 0
M  V30 4364 C 422.705 1.602 -5.06467 0
M  V30 4365 C 421.744 0.892625 -6.05556 0
M  V30 4366 N 420.881 1.86157 -6.76971 0
M  V30 4367 H 425.721 -0.467848 -2.94305 0
M  V30 4368 H 423.258 -0.242556 -1.45086 0
M  V30 4369 H 425.216 1.88703 -3.72085 0
M  V30 4370 H 423.846 1.939 -2.58075 0
M  V30 4371 H 422.898 -0.150782 -3.80101 0
M  V30 4372 H 424.21 0.0217065 -4.98795 0
M  V30 4373 H 423.364 2.29173 -5.61751 0
M  V30 4374 H 422.103 2.19285 -4.35621 0
M  V30 4375 H 421.108 0.188829 -5.49476 0
M  V30 4376 H 422.333 0.307878 -6.78402 0
M  V30 4377 H 420.279 2.44147 -6.08875 0
M  V30 4378 H 420.196 1.35608 -7.43738 0
M  V30 4379 H 421.464 2.54325 -7.36844 0
M  V30 4380 N 425.693 1.55336 -0.266172 0
M  V30 4381 C 426.603 2.2583 0.635458 0
M  V30 4382 C 427.619 1.28106 1.17749 0
M  V30 4383 O 428.795 1.61024 1.20968 0
M  V30 4384 C 425.86 2.95879 1.80712 0
M  V30 4385 C 424.921 4.09059 1.30265 0
M  V30 4386 C 424.154 4.75759 2.41846 0
M  V30 4387 O 424.377 4.41622 3.61007 0
M  V30 4388 O 423.311 5.63888 2.1051 0
M  V30 4389 H 427.137 3.03631 0.0646693 0
M  V30 4390 H 424.722 1.49361 -0.0339177 0
M  V30 4391 H 426.604 3.39932 2.49047 0
M  V30 4392 H 425.279 2.21002 2.36516 0
M  V30 4393 H 424.186 3.69482 0.586019 0
M  V30 4394 H 425.519 4.85811 0.790458 0
M  V30 4395 N 427.171 -0.0066808 1.57599 0
M  V30 4396 C 428.101 -0.999296 2.11036 0
M  V30 4397 C 429.082 -1.36278 1.01795 0
M  V30 4398 O 430.267 -1.4477 1.29442 0
M  V30 4399 C 427.397 -2.29328 2.60818 0
M  V30 4400 C 426.351 -2.07159 3.74525 0
M  V30 4401 C 425.677 -3.42512 4.10596 0
M  V30 4402 C 426.977 -1.43959 5.02069 0
M  V30 4403 H 428.671 -0.554382 2.94223 0
M  V30 4404 H 426.217 -0.265221 1.41536 0
M  V30 4405 H 428.17 -2.99117 2.96828 0
M  V30 4406 H 426.894 -2.7592 1.74745 0
M  V30 4407 H 425.553 -1.39797 3.38899 0
M  V30 4408 H 425.201 -3.86795 3.21556 0
M  V30 4409 H 424.901 -3.28498 4.87199 0
M  V30 4410 H 426.425 -4.13628 4.4916 0
M  V30 4411 H 427.839 -2.03696 5.35893 0
M  V30 4412 H 426.236 -1.40452 5.83432 0
M  V30 4413 H 427.306 -0.407992 4.83181 0
M  V30 4414 N 428.649 -1.55105 -0.279332 0
M  V30 4415 C 429.579 -1.90557 -1.34945 0
M  V30 4416 C 430.56 -0.766738 -1.51839 0
M  V30 4417 O 431.745 -1.02434 -1.64988 0
M  V30 4418 C 428.875 -2.17193 -2.71006 0
M  V30 4419 C 427.829 -3.33021 -2.68851 0
M  V30 4420 C 427.155 -3.45123 -4.08405 0
M  V30 4421 C 428.455 -4.69578 -2.28678 0
M  V30 4422 H 430.149 -2.80188 -1.05522 0
M  V30 4423 H 427.695 -1.34811 -0.506173 0
M  V30 4424 H 429.648 -2.40581 -3.45975 0
M  V30 4425 H 428.372 -1.24355 -3.01999 0
M  V30 4426 H 427.031 -3.0959 -1.9634 0
M  V30 4427 H 426.679 -2.49762 -4.3661 0
M  V30 4428 H 426.379 -4.22995 -4.07859 0
M  V30 4429 H 427.903 -3.70796 -4.85121 0
M  V30 4430 H 429.317 -4.92553 -2.93368 0
M  V30 4431 H 427.714 -5.5032 -2.39306 0
M  V30 4432 H 428.784 -4.68828 -1.23807 0
M  V30 4433 N 430.127 0.543554 -1.4793 0
M  V30 4434 C 431.376 1.29649 -1.54512 0
M  V30 4435 C 431.689 1.94382 -0.217973 0
M  V30 4436 O 432.895 2.71017 -0.161908 0
M  V30 4437 C 431.351 2.35175 -2.72435 0
M  V30 4438 C 430.959 1.76572 -4.11736 0
M  V30 4439 C 432.703 3.11564 -2.8832 0
M  V30 4440 C 430.61 2.79958 -5.20939 0
M  V30 4441 H 429.54 0.487541 -0.57517 0
M  V30 4442 H 432.191 0.575708 -1.74235 0
M  V30 4443 H 430.573 3.10229 -2.46118 0
M  V30 4444 H 431.747 1.07799 -4.48013 0
M  V30 4445 H 430.062 1.12722 -4.00852 0
M  V30 4446 H 432.659 3.88794 -3.67074 0
M  V30 4447 H 433.002 3.66594 -1.97268 0
M  V30 4448 H 433.535 2.43623 -3.14472 0
M  V30 4449 H 430.274 2.29766 -6.13912 0
M  V30 4450 H 429.794 3.47101 -4.89164 0
M  V30 4451 H 431.473 3.43198 -5.48474 0
M  V30 4452 N 431.605 1.3629 0.791371 0
M  V30 4453 C 432.835 1.33368 1.57786 0
M  V30 4454 C 433.243 -0.0875188 1.88997 0
M  V30 4455 O 432.586 -1.05427 1.50435 0
M  V30 4456 C 432.648 2.08802 2.92646 0
M  V30 4457 C 432.312 3.57903 2.84174 0
M  V30 4458 C 433.309 4.52191 2.56553 0
M  V30 4459 C 430.994 4.00762 3.02812 0
M  V30 4460 C 432.988 5.87315 2.47669 0
M  V30 4461 C 430.675 5.35977 2.93551 0
M  V30 4462 C 431.673 6.29066 2.66017 0
M  V30 4463 O 431.361 7.61798 2.56746 0
M  V30 4464 H 431.093 0.459166 0.496128 0
M  V30 4465 H 433.647 1.79952 0.990269 0
M  V30 4466 H 431.877 1.56878 3.53449 0
M  V30 4467 H 433.566 1.98762 3.53904 0
M  V30 4468 H 434.332 4.20393 2.41858 0
M  V30 4469 H 430.211 3.2868 3.2325 0
M  V30 4470 H 433.755 6.59943 2.26099 0
M  V30 4471 H 429.652 5.67384 3.07808 0
M  V30 4472 H 430.42 7.71898 2.72242 0
M  V30 4473 N 433.083 -1.0153 1.20538 0
M  V30 4474 C 434.013 -2.11972 0.979295 0
M  V30 4475 C 434.994 -1.6985 -0.0921787 0
M  V30 4476 O 436.179 -1.94089 0.0655932 0
M  V30 4477 C 433.309 -3.43201 0.531984 0
M  V30 4478 C 432.263 -3.9907 1.54685 0
M  V30 4479 C 431.589 -5.26082 0.956127 0
M  V30 4480 C 432.889 -4.32313 2.93092 0
M  V30 4481 H 434.583 -2.31143 1.90298 0
M  V30 4482 H 432.129 -1.11079 0.916372 0
M  V30 4483 H 434.082 -4.1985 0.361044 0
M  V30 4484 H 432.806 -3.23792 -0.427327 0
M  V30 4485 H 431.465 -3.2453 1.70517 0
M  V30 4486 H 431.113 -5.02999 -0.0111538 0
M  V30 4487 H 430.813 -5.64426 1.63393 0
M  V30 4488 H 432.337 -6.05386 0.796284 0
M  V30 4489 H 433.751 -4.99845 2.80763 0
M  V30 4490 H 432.148 -4.81774 3.57791 0
M  V30 4491 H 433.218 -3.41025 3.44717 0
M  V30 4492 N 434.561 -1.01147 -1.20859 0
M  V30 4493 C 435.977 -0.725422 -1.42161 0
M  V30 4494 C 436.177 0.696919 -1.89064 0
M  V30 4495 O 435.233 1.46539 -2.05627 0
M  V30 4496 C 436.546 -1.74678 -2.44761 0
M  V30 4497 C 438.094 -1.76433 -2.58535 0
M  V30 4498 C 438.569 -2.77481 -3.64374 0
M  V30 4499 N 440.06 -2.76189 -3.71852 0
M  V30 4500 C 440.795 -3.51035 -4.53389 0
M  V30 4501 N 440.291 -4.35541 -5.38773 0
M  V30 4502 N 442.084 -3.39655 -4.47873 0
M  V30 4503 H 434.235 -1.92979 -0.887282 0
M  V30 4504 H 436.498 -0.833327 -0.451962 0
M  V30 4505 H 436.204 -2.76551 -2.17285 0
M  V30 4506 H 436.078 -1.55472 -3.43669 0
M  V30 4507 H 438.465 -0.75248 -2.85345 0
M  V30 4508 H 438.546 -1.99712 -1.5984 0
M  V30 4509 H 438.19 -3.78827 -3.38308 0
M  V30 4510 H 438.12 -2.51466 -4.6268 0
M  V30 4511 H 440.611 -2.14885 -3.10858 0
M  V30 4512 H 440.924 -4.89432 -5.98061 0
M  V30 4513 H 439.269 -4.39621 -5.38292 0
M  V30 4514 H 442.46 -2.73063 -3.80203 0
M  V30 4515 H 442.633 -3.9824 -5.11184 0
M  V30 4516 N 436.039 1.36541 -0.78704 0
M  V30 4517 C 437.285 1.99599 -0.358872 0
M  V30 4518 C 437.618 1.62323 1.06606 0
M  V30 4519 O 436.893 0.876858 1.73613 0
M  V30 4520 C 437.176 3.56327 -0.519944 0
M  V30 4521 C 437.029 4.03464 -1.98839 0
M  V30 4522 C 438.348 4.4005 0.0664737 0
M  V30 4523 H 435.467 0.725107 -0.131869 0
M  V30 4524 H 438.109 1.6199 -0.992936 0
M  V30 4525 H 436.259 3.88495 0.0198321 0
M  V30 4526 H 437.931 3.81793 -2.58905 0
M  V30 4527 H 436.174 3.55092 -2.49183 0
M  V30 4528 H 436.845 5.12439 -2.05207 0
M  V30 4529 H 439.321 4.14228 -0.394267 0
M  V30 4530 H 438.197 5.48847 -0.0762682 0
M  V30 4531 H 438.458 4.26655 1.15835 0
M  V30 4532 N 437.518 0.538854 1.48102 0
M  V30 4533 C 438.481 -0.208395 2.28251 0
M  V30 4534 C 439.481 -0.859656 1.35892 0
M  V30 4535 O 440.671 -0.71834 1.58699 0
M  V30 4536 C 437.803 -1.30252 3.15035 0
M  V30 4537 H 438.996 0.495407 2.9578 0
M  V30 4538 H 436.549 0.295112 1.53489 0
M  V30 4539 H 437.284 -2.0393 2.52157 0
M  V30 4540 H 437.069 -0.840551 3.82985 0
M  V30 4541 H 438.559 -1.82787 3.75471 0
M  V30 4542 N 438.996 -1.55193 0.274407 0
M  V30 4543 C 440.224 -2.03987 -0.345943 0
M  V30 4544 C 440.639 -1.15279 -1.4952 0
M  V30 4545 O 439.996 -0.172759 -1.8168 0
M  V30 4546 C 440.047 -3.51898 -0.827631 0
M  V30 4547 O 439.768 -4.37231 0.275855 0
M  V30 4548 C 441.269 -4.16577 -1.51587 0
M  V30 4549 H 438.489 -0.666335 -0.0789892 0
M  V30 4550 H 441.033 -2.00423 0.406294 0
M  V30 4551 H 439.188 -3.55909 -1.52996 0
M  V30 4552 H 439.602 -5.24415 -0.0943638 0
M  V30 4553 H 441.076 -5.21678 -1.80433 0
M  V30 4554 H 441.553 -3.64707 -2.44716 0
M  V30 4555 H 442.159 -4.16568 -0.857409 0
M  V30 4556 N 440.474 -0.00167713 -1.576 0
M  V30 4557 C 441.72 0.67819 -1.91761 0
M  V30 4558 C 442.075 1.71288 -0.876256 0
M  V30 4559 O 441.368 1.91276 0.111333 0
M  V30 4560 C 441.562 1.36189 -3.30435 0
M  V30 4561 C 441.391 0.394938 -4.47962 0
M  V30 4562 C 440.161 0.00472875 -5.053 0
M  V30 4563 C 442.359 -0.339521 -5.13178 0
M  V30 4564 N 440.341 -0.960257 -6.06343 0
M  V30 4565 C 441.712 -1.15914 -6.09068 0
M  V30 4566 C 443.767 -0.403177 -4.96265 0
M  V30 4567 C 442.47 -2.03661 -6.89866 0
M  V30 4568 C 444.496 -1.26788 -5.77649 0
M  V30 4569 C 443.858 -2.07535 -6.73134 0
M  V30 4570 H 439.957 0.221317 -0.750028 0
M  V30 4571 H 442.541 -0.0624182 -1.946 0
M  V30 4572 H 440.712 2.07278 -3.28467 0
M  V30 4573 H 442.444 1.99658 -3.52021 0
M  V30 4574 H 439.199 0.373452 -4.72125 0
M  V30 4575 H 439.623 -1.43817 -6.61548 0
M  V30 4576 H 444.265 0.206818 -4.22294 0
M  V30 4577 H 441.983 -2.65727 -7.63161 0
M  V30 4578 H 445.569 -1.32107 -5.66603 0
M  V30 4579 H 444.449 -2.73363 -7.35012 0
M  V30 4580 N 441.952 1.55251 0.271103 0
M  V30 4581 C 442.9 1.89054 1.35504 0
M  V30 4582 C 443.894 0.767064 1.51038 0
M  V30 4583 O 445.1 0.951429 1.528 0
M  V30 4584 H 441.475 0.600072 0.45323 0
M  V30 4585 H 443.446 2.79598 1.04247 0
M  V30 4586 C 442.195 2.18068 2.70817 0
M  V30 4587 H 441.518 3.04005 2.59656 0
M  V30 4588 H 442.958 2.4564 3.45597 0
M  V30 4589 C 441.417 0.988901 3.2206 0
M  V30 4590 O 441.947 0.224501 4.01072 0
M  V30 4591 N 440.153 0.786085 2.79766 0
M  V30 4592 H 439.7 1.40937 2.15626 0
M  V30 4593 H 439.658 -0.00969349 3.14399 0
M  V30 4594 N 443.43 -0.535701 1.48216 0
M  V30 4595 C 444.362 -1.65662 1.58394 0
M  V30 4596 C 445.375 -1.5591 0.468607 0
M  V30 4597 O 446.564 -1.62475 0.7392 0
M  V30 4598 C 443.664 -3.04276 1.4923 0
M  V30 4599 C 442.837 -3.39567 2.75705 0
M  V30 4600 C 441.896 -4.57436 2.60075 0
M  V30 4601 O 440.922 -4.60942 3.33948 0
M  V30 4602 N 442.124 -5.55259 1.69315 0
M  V30 4603 H 444.889 -1.5737 2.55058 0
M  V30 4604 H 442.45 -0.722845 1.44867 0
M  V30 4605 H 444.442 -3.80994 1.36477 0
M  V30 4606 H 443.012 -3.06677 0.605632 0
M  V30 4607 H 442.232 -2.52083 3.03064 0
M  V30 4608 H 443.52 -3.59929 3.59623 0
M  V30 4609 H 442.918 -5.552 1.08489 0
M  V30 4610 H 441.475 -6.31218 1.62504 0
M  V30 4611 N 444.908 -1.36708 -0.784132 0
M  V30 4612 C 446.157 -1.30559 -1.53744 0
M  V30 4613 C 446.47 0.111374 -1.95283 0
M  V30 4614 O 447.676 0.29527 -2.6989 0
M  V30 4615 C 446.132 -2.29098 -2.77565 0
M  V30 4616 C 445.74 -3.76258 -2.43174 0
M  V30 4617 C 447.484 -2.31936 -3.55536 0
M  V30 4618 C 445.391 -4.6656 -3.63422 0
M  V30 4619 H 444.321 -0.48518 -0.577162 0
M  V30 4620 H 446.972 -1.62101 -0.859981 0
M  V30 4621 H 445.354 -1.90557 -3.47137 0
M  V30 4622 H 446.528 -4.23565 -1.81465 0
M  V30 4623 H 444.843 -3.76246 -1.78403 0
M  V30 4624 H 447.44 -2.9661 -4.44889 0
M  V30 4625 H 447.783 -1.3294 -3.94503 0
M  V30 4626 H 448.316 -2.6912 -2.92949 0
M  V30 4627 H 445.055 -5.66638 -3.29547 0
M  V30 4628 H 444.575 -4.23966 -4.24279 0
M  V30 4629 H 446.254 -4.8309 -4.30387 0
M  V30 4630 N 446.386 1.0089 -1.21074 0
M  V30 4631 C 447.316 2.1145 -0.990523 0
M  V30 4632 C 448.297 1.69897 0.0831699 0
M  V30 4633 O 449.482 1.94052 -0.0758853 0
M  V30 4634 C 446.612 3.42914 -0.550177 0
M  V30 4635 C 445.566 3.98244 -1.56799 0
M  V30 4636 C 444.892 5.25568 -0.984013 0
M  V30 4637 C 446.192 4.30752 -2.95381 0
M  V30 4638 H 447.886 2.3013 -1.91521 0
M  V30 4639 H 445.432 1.10592 -0.92225 0
M  V30 4640 H 447.385 4.19653 -0.383305 0
M  V30 4641 H 446.109 3.24014 0.41015 0
M  V30 4642 H 444.768 3.23621 -1.72236 0
M  V30 4643 H 444.416 5.02998 -0.0155216 0
M  V30 4644 H 444.116 5.63551 -1.66384 0
M  V30 4645 H 445.64 6.04955 -0.828378 0
M  V30 4646 H 447.054 4.98349 -2.8341 0
M  V30 4647 H 445.451 4.79869 -3.60341 0
M  V30 4648 H 446.521 3.39192 -3.46521 0
M  V30 4649 N 447.864 1.01787 1.20321 0
M  V30 4650 C 449.141 0.622978 1.85414 0
M  V30 4651 C 449.521 -0.898887 1.91006 0
M  V30 4652 O 448.869 -1.79112 1.41884 0
M  V30 4653 C 449.079 1.27226 3.24984 0
M  V30 4654 C 450.427 1.3885 4.01255 0
M  V30 4655 O 451.451 1.22857 3.34342 0
M  V30 4656 O 450.31 1.64705 5.2109 0
M  V30 4657 H 447.404 0.215116 0.798533 0
M  V30 4658 H 449.95 1.11533 1.27901 0
M  V30 4659 H 448.722 2.31209 3.15687 0
M  V30 4660 H 448.345 0.767069 3.90131 0
M  V30 4661 N 449.342 -1.36122 0.79427 0
M  V30 4662 C 450.753 -1.81646 0.431446 0
M  V30 4663 C 451.104 -1.66043 -1.04518 0
M  V30 4664 O 450.229 -1.1841 -1.8113 0
M  V30 4665 C 450.824 -3.29785 0.776341 0
M  V30 4666 C 449.383 -3.73501 0.466282 0
M  V30 4667 C 448.53 -2.58313 1.00844 0
M  V30 4668 H 451.481 -1.24274 0.986995 0
M  V30 4669 H 451.502 -3.80437 0.0692413 0
M  V30 4670 H 451.014 -3.4111 1.8511 0
M  V30 4671 H 449.115 -3.67733 -0.600245 0
M  V30 4672 H 449.228 -4.68754 0.990288 0
M  V30 4673 H 447.592 -2.5102 0.431406 0
M  V30 4674 H 448.375 -2.72421 2.08906 0
M  V30 4675 N 450.82 -0.546701 -1.47814 0
M  V30 4676 C 452.066 -0.0269594 -2.03382 0
M  V30 4677 C 452.421 1.30406 -1.41464 0
M  V30 4678 O 451.714 1.8332 -0.557151 0
M  V30 4679 C 451.908 0.134869 -3.57145 0
M  V30 4680 C 451.737 -1.17891 -4.33972 0
M  V30 4681 C 450.507 -1.74336 -4.74273 0
M  V30 4682 C 452.705 -2.09361 -4.69758 0
M  V30 4683 N 450.687 -2.99829 -5.35701 0
M  V30 4684 C 452.058 -3.19431 -5.31379 0
M  V30 4685 C 454.113 -2.09484 -4.51687 0
M  V30 4686 C 452.816 -4.2971 -5.76838 0
M  V30 4687 C 454.842 -3.18767 -4.98138 0
M  V30 4688 C 454.204 -4.27557 -5.59799 0
M  V30 4689 H 450.303 -0.0517733 -0.780284 0
M  V30 4690 H 452.887 -0.731673 -1.80429 0
M  V30 4691 H 451.058 0.80869 -3.79888 0
M  V30 4692 H 452.79 0.655726 -3.99352 0
M  V30 4693 H 449.545 -1.28265 -4.559 0
M  V30 4694 H 449.969 -3.63765 -5.70968 0
M  V30 4695 H 454.611 -1.26663 -4.03381 0
M  V30 4696 H 452.329 -5.13297 -6.24141 0
M  V30 4697 H 455.915 -3.19937 -4.85934 0
M  V30 4698 H 454.795 -5.10725 -5.95088 0
M  V30 4699 N 452.299 1.55045 -0.282633 0
M  V30 4700 C 453.545 2.00056 0.332481 0
M  V30 4701 C 453.878 1.1708 1.54939 0
M  V30 4702 O 453.153 0.2427 1.9298 0
M  V30 4703 C 453.436 3.53086 0.70725 0
M  V30 4704 C 453.289 4.46813 -0.517521 0
M  V30 4705 C 454.608 4.12245 1.54084 0
M  V30 4706 H 451.727 0.727268 0.119373 0
M  V30 4707 H 454.369 1.85932 -0.391076 0
M  V30 4708 H 452.519 3.65253 1.32372 0
M  V30 4709 H 454.191 4.46579 -1.15607 0
M  V30 4710 H 452.434 4.18163 -1.1542 0
M  V30 4711 H 453.105 5.51595 -0.211426 0
M  V30 4712 H 455.581 4.03401 1.02013 0
M  V30 4713 H 454.457 5.19515 1.77186 0
M  V30 4714 H 454.718 3.62951 2.52427 0
M  V30 4715 N 453.777 0.010035 1.57597 0
M  V30 4716 C 455.007 -0.682422 1.95004 0
M  V30 4717 C 455.415 -1.67278 0.884014 0
M  V30 4718 O 454.758 -1.83129 -0.144672 0
M  V30 4719 C 454.82 -1.46141 3.28456 0
M  V30 4720 C 454.484 -0.631523 4.52615 0
M  V30 4721 C 455.481 0.0850905 5.1983 0
M  V30 4722 C 453.166 -0.574539 4.99003 0
M  V30 4723 C 455.16 0.847566 6.3174 0
M  V30 4724 C 452.847 0.191655 6.10799 0
M  V30 4725 C 453.845 0.901432 6.77025 0
M  V30 4726 O 453.533 1.65511 7.86677 0
M  V30 4727 H 453.265 -0.194361 0.647456 0
M  V30 4728 H 455.819 0.060312 2.05311 0
M  V30 4729 H 454.049 -2.24885 3.14585 0
M  V30 4730 H 455.738 -2.04016 3.50902 0
M  V30 4731 H 456.504 0.0502812 4.84974 0
M  V30 4732 H 452.383 -1.11654 4.47274 0
M  V30 4733 H 455.927 1.4021 6.83364 0
M  V30 4734 H 451.824 0.228249 6.45096 0
M  V30 4735 H 452.592 1.57287 8.03245 0
M  V30 4736 N 455.255 -1.55392 -0.262866 0
M  V30 4737 C 456.504 -1.75679 -0.990943 0
M  V30 4738 C 456.817 -0.57097 -1.87081 0
M  V30 4739 O 458.023 -0.656486 -2.63444 0
M  V30 4740 C 456.479 -3.10964 -1.81188 0
M  V30 4741 C 456.087 -4.37146 -0.980188 0
M  V30 4742 C 457.831 -3.40597 -2.53365 0
M  V30 4743 C 455.738 -5.63466 -1.7961 0
M  V30 4744 H 454.668 -0.654868 -0.373716 0
M  V30 4745 H 457.319 -1.81841 -0.246203 0
M  V30 4746 H 455.701 -2.98867 -2.59797 0
M  V30 4747 H 456.875 -4.60187 -0.237558 0
M  V30 4748 H 455.19 -4.14731 -0.372497 0
M  V30 4749 H 457.787 -4.32186 -3.14833 0
M  V30 4750 H 458.13 -2.6119 -3.24169 0
M  V30 4751 H 458.663 -3.53838 -1.81779 0
M  V30 4752 H 455.402 -6.4565 -1.13209 0
M  V30 4753 H 454.922 -5.44552 -2.51443 0
M  V30 4754 H 456.601 -6.02139 -2.36723 0
M  V30 4755 N 456.733 0.527833 -1.48498 0
M  V30 4756 C 457.663 1.64136 -1.66077 0
M  V30 4757 C 458.644 1.62286 -0.509625 0
M  V30 4758 O 459.829 1.79449 -0.742413 0
M  V30 4759 C 456.959 3.02717 -1.70234 0
M  V30 4760 C 455.913 3.19426 -2.8487 0
M  V30 4761 C 455.239 4.5909 -2.74118 0
M  V30 4762 C 456.539 3.01993 -4.26142 0
M  V30 4763 H 458.233 1.4968 -2.593 0
M  V30 4764 H 455.779 0.718654 -1.24785 0
M  V30 4765 H 457.732 3.80491 -1.8112 0
M  V30 4766 H 456.456 3.18201 -0.735911 0
M  V30 4767 H 455.115 2.4407 -2.73542 0
M  V30 4768 H 454.763 4.71413 -1.7544 0
M  V30 4769 H 454.463 4.71214 -3.51042 0
M  V30 4770 H 455.987 5.3896 -2.86974 0
M  V30 4771 H 457.401 3.69558 -4.38292 0
M  V30 4772 H 455.798 3.2561 -5.04082 0
M  V30 4773 H 456.868 1.98396 -4.42456 0
M  V30 4774 N 458.211 1.37122 0.776871 0
M  V30 4775 C 459.458 1.32047 1.53524 0
M  V30 4776 C 459.786 -0.0965631 1.9426 0
M  V30 4777 O 459.041 -1.06866 1.63945 0
M  V30 4778 C 459.34 2.20068 2.81611 0
M  V30 4779 C 459.006 3.68423 2.59953 0
M  V30 4780 C 457.668 4.08854 2.53755 0
M  V30 4781 C 460.02 4.62431 2.40431 0
M  V30 4782 C 457.348 5.41417 2.26018 0
M  V30 4783 C 459.7 5.95225 2.14219 0
M  V30 4784 C 458.364 6.34767 2.06462 0
M  V30 4785 H 457.634 0.483196 0.561785 0
M  V30 4786 H 460.281 1.69284 0.895268 0
M  V30 4787 H 458.586 1.75809 3.50141 0
M  V30 4788 H 460.283 2.13458 3.39465 0
M  V30 4789 H 456.873 3.36354 2.65638 0
M  V30 4790 H 461.057 4.32057 2.44213 0
M  V30 4791 H 456.313 5.71022 2.18504 0
M  V30 4792 H 460.487 6.67626 1.98112 0
M  V30 4793 H 458.114 7.37413 1.84733 0
M  V30 4794 N 459.689 -1.00246 1.21608 0
M  V30 4795 C 461.105 -1.26435 0.973975 0
M  V30 4796 C 461.305 -1.98642 -0.338143 0
M  V30 4797 O 460.361 -2.29026 -1.06317 0
M  V30 4798 C 461.674 -2.08551 2.16626 0
M  V30 4799 C 463.222 -2.21769 2.20879 0
M  V30 4800 C 463.697 -3.07267 3.39633 0
M  V30 4801 N 465.188 -3.14855 3.39736 0
M  V30 4802 C 465.923 -3.81274 4.28273 0
M  V30 4803 N 465.419 -4.497 5.27012 0
M  V30 4804 N 467.212 -3.7794 4.16074 0
M  V30 4805 H 459.363 -0.518089 2.05984 0
M  V30 4806 H 461.626 -0.291368 0.902113 0
M  V30 4807 H 461.332 -1.62847 3.11727 0
M  V30 4808 H 461.206 -3.09303 2.15897 0
M  V30 4809 H 463.593 -2.66691 1.26332 0
M  V30 4810 H 463.674 -1.20478 2.25652 0
M  V30 4811 H 463.318 -2.63047 4.34475 0
M  V30 4812 H 463.248 -4.08678 3.321 0
M  V30 4813 H 465.739 -2.66147 2.6828 0
M  V30 4814 H 466.052 -4.98092 5.90867 0
M  V30 4815 H 464.397 -4.48479 5.30935 0
M  V30 4816 H 467.588 -3.23638 3.38195 0
M  V30 4817 H 467.761 -4.29424 4.85282 0
M  V30 4818 N 461.167 -1.02423 -1.1978 0
M  V30 4819 C 462.583 -0.740459 -1.41384 0
M  V30 4820 C 462.783 0.676827 -1.89793 0
M  V30 4821 O 461.839 1.4435 -2.0717 0
M  V30 4822 C 463.152 -1.77264 -2.42895 0
M  V30 4823 C 464.7 -1.79165 -2.56649 0
M  V30 4824 C 465.175 -2.8133 -3.6141 0
M  V30 4825 N 466.666 -2.80118 -3.68901 0
M  V30 4826 C 467.401 -3.55824 -4.49641 0
M  V30 4827 N 466.897 -4.41231 -5.34123 0
M  V30 4828 N 468.69 -3.44387 -4.44246 0
M  V30 4829 H 460.841 -1.9391 -0.866764 0
M  V30 4830 H 463.104 -0.838074 -0.443098 0
M  V30 4831 H 462.81 -2.7884 -2.14339 0
M  V30 4832 H 462.684 -1.59108 -3.42001 0
M  V30 4833 H 465.071 -0.782702 -2.84531 0
M  V30 4834 H 465.152 -2.01396 -1.57713 0
M  V30 4835 H 464.796 -3.82394 -3.34271 0
M  V30 4836 H 464.726 -2.56359 -4.59986 0
M  V30 4837 H 467.217 -2.1817 -3.08562 0
M  V30 4838 H 467.53 -4.95747 -5.92836 0
M  V30 4839 H 465.875 -4.45306 -5.33599 0
M  V30 4840 H 469.066 -2.7708 -3.77285 0
M  V30 4841 H 469.239 -4.0364 -5.06931 0
M  V30 4842 N 462.645 1.35699 -0.801477 0
M  V30 4843 C 463.608 2.28199 -0.213994 0
M  V30 4844 C 464.608 1.49359 0.595691 0
M  V30 4845 O 465.798 1.69186 0.414921 0
M  V30 4846 C 462.93 3.33587 0.702297 0
M  V30 4847 H 464.123 2.81666 -1.02976 0
M  V30 4848 H 461.676 1.45467 -0.571759 0
M  V30 4849 H 462.411 2.85297 1.54195 0
M  V30 4850 H 462.196 3.91906 0.123484 0
M  V30 4851 H 463.686 4.02638 1.10783 0
M  V30 4852 N 464.123 0.554532 1.47522 0
M  V30 4853 C 465.369 0.0295227 2.02779 0
M  V30 4854 C 465.702 -1.31582 1.42828 0
M  V30 4855 O 464.977 -1.85561 0.582872 0
M  V30 4856 C 465.26 -0.0664057 3.60039 0
M  V30 4857 C 465.113 1.30585 4.30427 0
M  V30 4858 C 466.432 -0.781162 4.33112 0
M  V30 4859 H 463.551 0.0122027 0.736899 0
M  V30 4860 H 466.193 0.716305 1.7598 0
M  V30 4861 H 464.343 -0.651307 3.83002 0
M  V30 4862 H 466.015 1.93374 4.18813 0
M  V30 4863 H 464.258 1.88125 3.90886 0
M  V30 4864 H 464.929 1.19147 5.38988 0
M  V30 4865 H 467.405 -0.284565 4.15126 0
M  V30 4866 H 466.281 -0.817237 5.42782 0
M  V30 4867 H 466.542 -1.83672 4.0214 0
M  V30 4868 N 465.601 -1.54893 0.290851 0
M  V30 4869 C 466.531 -2.26103 -0.583084 0
M  V30 4870 C 467.512 -1.25684 -1.14619 0
M  V30 4871 O 468.697 -1.54436 -1.17741 0
M  V30 4872 C 465.827 -2.99409 -1.75987 0
M  V30 4873 C 464.781 -4.0689 -1.32758 0
M  V30 4874 C 464.107 -4.67856 -2.58872 0
M  V30 4875 C 465.407 -5.20215 -0.46624 0
M  V30 4876 H 467.101 -2.99398 0.0108214 0
M  V30 4877 H 464.647 -1.43998 0.00664468 0
M  V30 4878 H 466.6 -3.47943 -2.37727 0
M  V30 4879 H 465.324 -2.23675 -2.37985 0
M  V30 4880 H 463.983 -3.59191 -0.733299 0
M  V30 4881 H 463.631 -3.88772 -3.19163 0
M  V30 4882 H 463.331 -5.40438 -2.30653 0
M  V30 4883 H 464.855 -5.19147 -3.21433 0
M  V30 4884 H 466.269 -5.64704 -0.989047 0
M  V30 4885 H 464.666 -5.99455 -0.27826 0
M  V30 4886 H 465.736 -4.82198 0.511173 0
M  V30 4887 N 467.08 -0.0183926 -1.57589 0
M  V30 4888 C 468.496 0.337897 -1.55982 0
M  V30 4889 C 468.696 1.73604 -1.02294 0
M  V30 4890 O 467.752 2.43589 -0.664895 0
M  V30 4891 C 469.065 0.196305 -3.00059 0
M  V30 4892 C 470.613 0.269875 -3.11834 0
M  V30 4893 C 471.088 0.157197 -4.5773 0
M  V30 4894 N 472.579 0.214521 -4.62703 0
M  V30 4895 C 473.314 0.150955 -5.73201 0
M  V30 4896 N 472.81 0.0369212 -6.9279 0
M  V30 4897 N 474.603 0.204162 -5.61729 0
M  V30 4898 H 466.754 -0.93279 -1.90821 0
M  V30 4899 H 469.017 -0.359253 -0.877292 0
M  V30 4900 H 468.723 -0.766383 -3.43248 0
M  V30 4901 H 468.597 0.970908 -3.6449 0
M  V30 4902 H 470.984 1.22302 -2.68563 0
M  V30 4903 H 471.065 -0.534918 -2.50144 0
M  V30 4904 H 470.709 -0.792479 -5.01679 0
M  V30 4905 H 470.639 0.980717 -5.17387 0
M  V30 4906 H 473.13 0.303238 -3.76681 0
M  V30 4907 H 473.443 -0.00518321 -7.728 0
M  V30 4908 H 471.788 0.0022886 -6.95 0
M  V30 4909 H 474.979 0.291575 -4.67191 0
M  V30 4910 H 475.152 0.15116 -6.47824 0
M  V30 4911 N 468.558 1.5553 0.254621 0
M  V30 4912 C 469.974 1.4778 0.602753 0
M  V30 4913 C 470.174 0.707047 1.88688 0
M  V30 4914 O 469.23 0.233288 2.5142 0
M  V30 4915 C 470.543 2.92133 0.712648 0
M  V30 4916 C 472.091 3.02458 0.805488 0
M  V30 4917 C 472.566 4.48102 0.947009 0
M  V30 4918 N 474.057 4.52008 1.01207 0
M  V30 4919 C 474.792 5.61939 1.1407 0
M  V30 4920 N 474.288 6.81697 1.23536 0
M  V30 4921 N 476.081 5.49719 1.17325 0
M  V30 4922 H 468.232 2.04085 -0.588463 0
M  V30 4923 H 470.495 0.926229 -0.202001 0
M  V30 4924 H 470.201 3.51332 -0.160766 0
M  V30 4925 H 470.075 3.42187 1.58707 0
M  V30 4926 H 472.462 2.43344 1.66936 0
M  V30 4927 H 472.543 2.55627 -0.0939266 0
M  V30 4928 H 472.187 5.07824 0.087725 0
M  V30 4929 H 472.117 4.92607 1.86135 0
M  V30 4930 H 474.608 3.65749 0.950577 0
M  V30 4931 H 474.921 7.61228 1.33236 0
M  V30 4932 H 473.266 6.84473 1.20508 0
M  V30 4933 H 476.457 4.55095 1.09573 0
M  V30 4934 H 476.63 6.35432 1.27005 0
M  V30 4935 N 470.036 -0.519951 1.48776 0
M  V30 4936 C 470.966 -1.63253 1.66945 0
M  V30 4937 C 471.947 -1.62014 0.518224 0
M  V30 4938 O 473.132 -1.79053 0.751919 0
M  V30 4939 C 470.262 -3.0181 1.71836 0
M  V30 4940 C 469.216 -3.17911 2.8656 0
M  V30 4941 C 468.542 -4.5763 2.76548 0
M  V30 4942 C 469.842 -2.99729 4.27738 0
M  V30 4943 H 471.536 -1.48302 2.6009 0
M  V30 4944 H 469.082 -0.712026 1.25165 0
M  V30 4945 H 471.035 -3.79525 1.83135 0
M  V30 4946 H 469.759 -3.17806 0.752775 0
M  V30 4947 H 468.418 -2.42616 2.74833 0
M  V30 4948 H 468.066 -4.70476 1.77937 0
M  V30 4949 H 467.766 -4.69346 3.53536 0
M  V30 4950 H 469.29 -5.37431 2.89828 0
M  V30 4951 H 470.704 -3.67228 4.40246 0
M  V30 4952 H 469.101 -3.22932 5.05801 0
M  V30 4953 H 470.171 -1.96047 4.43502 0
M  V30 4954 N 471.514 -1.37532 -0.769588 0
M  V30 4955 C 472.446 -1.29347 -1.89214 0
M  V30 4956 C 473.459 -0.208842 -1.61455 0
M  V30 4957 O 474.648 -0.465158 -1.72333 0
M  V30 4958 C 471.748 -0.977649 -3.24492 0
M  V30 4959 C 470.921 -2.16817 -3.7988 0
M  V30 4960 C 469.98 -1.82229 -4.93639 0
M  V30 4961 O 469.006 -2.54548 -5.09111 0
M  V30 4962 N 470.208 -0.767696 -5.75401 0
M  V30 4963 H 472.973 -2.26073 -1.96751 0
M  V30 4964 H 470.534 -1.31185 -0.948795 0
M  V30 4965 H 472.526 -0.727065 -3.98115 0
M  V30 4966 H 471.096 -0.0988777 -3.12444 0
M  V30 4967 H 470.316 -2.58038 -2.9801 0
M  V30 4968 H 471.604 -2.96308 -4.13617 0
M  V30 4969 H 471.002 -0.167626 -5.65452 0
M  V30 4970 H 469.559 -0.576973 -6.49241 0
M  V30 4971 N 472.992 0.995999 -1.22138 0
M  V30 4972 C 474.403 1.54961 -1.04135 0
M  V30 4973 C 474.754 1.92159 0.396147 0
M  V30 4974 O 473.879 1.74435 1.28069 0
M  V30 4975 C 474.474 2.81581 -1.88408 0
M  V30 4976 C 473.033 3.33396 -1.74712 0
M  V30 4977 C 472.18 2.06509 -1.85066 0
M  V30 4978 H 475.131 0.817436 -1.36028 0
M  V30 4979 H 475.152 3.53822 -1.39966 0
M  V30 4980 H 474.664 2.54476 -2.93025 0
M  V30 4981 H 472.765 3.65416 -0.728159 0
M  V30 4982 H 472.878 4.04208 -2.57202 0
M  V30 4983 H 471.242 2.19925 -1.28472 0
M  V30 4984 H 472.025 1.81804 -2.91208 0
M  V30 4985 N 474.47 1.03057 1.19235 0
M  V30 4986 C 475.886 0.747947 1.40989 0
M  V30 4987 C 476.086 -0.666752 1.90149 0
M  V30 4988 O 475.142 -1.43249 2.07933 0
M  V30 4989 C 476.455 1.7855 2.41951 0
M  V30 4990 C 478.003 1.80524 2.55695 0
M  V30 4991 C 478.478 2.83243 3.59913 0
M  V30 4992 N 479.969 2.8207 3.67411 0
M  V30 4993 C 480.704 3.58204 4.47747 0
M  V30 4994 N 480.2 4.44057 5.31775 0
M  V30 4995 N 481.993 3.46738 4.42413 0
M  V30 4996 H 474.144 1.94367 0.856468 0
M  V30 4997 H 476.407 0.840412 0.438647 0
M  V30 4998 H 476.113 2.79973 2.12857 0
M  V30 4999 H 475.987 1.6092 3.41152 0
M  V30 5000 H 478.374 0.79778 2.84112 0
M  V30 5001 H 478.455 2.02229 1.56643 0
M  V30 5002 H 478.099 3.84161 3.32239 0
M  V30 5003 H 478.029 2.58795 4.5862 0
M  V30 5004 H 480.52 2.19803 3.074 0
M  V30 5005 H 480.833 4.98884 5.90199 0
M  V30 5006 H 479.178 4.48129 5.3123 0
M  V30 5007 H 482.369 2.79077 3.75811 0
M  V30 5008 H 482.542 4.06322 5.04783 0
M  V30 5009 N 475.948 -1.35272 0.808662 0
M  V30 5010 C 476.878 -2.32315 0.234981 0
M  V30 5011 C 477.859 -1.57572 -0.64071 0
M  V30 5012 O 479.044 -1.8563 -0.570551 0
M  V30 5013 C 476.174 -3.41801 -0.615601 0
M  V30 5014 C 475.128 -4.27694 0.161767 0
M  V30 5015 C 474.454 -5.28519 -0.810649 0
M  V30 5016 C 475.754 -5.04231 1.36193 0
M  V30 5017 H 477.448 -2.80543 1.04575 0
M  V30 5018 H 474.994 -1.3488 0.504315 0
M  V30 5019 H 476.947 -4.08693 -1.02702 0
M  V30 5020 H 475.671 -2.92186 -1.45928 0
M  V30 5021 H 474.33 -3.62384 0.554382 0
M  V30 5022 H 473.978 -4.75171 -1.64988 0
M  V30 5023 H 473.678 -5.8686 -0.294822 0
M  V30 5024 H 475.202 -5.98283 -1.22023 0
M  V30 5025 H 476.616 -5.64058 1.02528 0
M  V30 5026 H 475.013 -5.72077 1.81239 0
M  V30 5027 H 476.083 -4.34753 2.14751 0
M  V30 5028 N 477.426 -0.562348 -1.47226 0
M  V30 5029 C 478.651 -0.0432632 -2.07355 0
M  V30 5030 C 479.076 1.24332 -1.41149 0
M  V30 5031 O 478.434 1.74603 -0.488226 0
M  V30 5032 C 478.482 0.130288 -3.60365 0
M  V30 5033 O 477.586 1.19166 -3.94808 0
M  V30 5034 H 476.927 -0.0536334 -0.66183 0
M  V30 5035 H 479.457 -0.779495 -1.89169 0
M  V30 5036 H 479.467 0.342881 -4.06557 0
M  V30 5037 H 478.142 -0.809389 -4.07948 0
M  V30 5038 H 476.719 0.959153 -3.60354 0
M  V30 5039 N 478.904 1.54736 -0.299062 0
M  V30 5040 C 480.132 2.04512 0.313447 0
M  V30 5041 C 480.547 1.17643 1.47667 0
M  V30 5042 O 479.904 0.20164 1.81383 0
M  V30 5043 C 479.955 3.53171 0.771542 0
M  V30 5044 O 479.676 4.36736 -0.345379 0
M  V30 5045 C 481.177 4.18936 1.4494 0
M  V30 5046 H 478.397 0.667507 0.0683784 0
M  V30 5047 H 480.941 1.99752 -0.438129 0
M  V30 5048 H 479.096 3.58298 1.47314 0
M  V30 5049 H 479.51 5.24499 0.0109219 0
M  V30 5050 H 480.984 5.24482 1.72111 0
M  V30 5051 H 481.461 3.68554 2.38883 0
M  V30 5052 H 482.067 4.17879 0.791028 0
M  V30 5053 N 480.382 0.0267497 1.57577 0
M  V30 5054 C 481.798 -0.32962 1.56159 0
M  V30 5055 C 481.998 -1.73059 1.03213 0
M  V30 5056 O 481.054 -2.43233 0.677804 0
M  V30 5057 C 482.367 -0.18039 3.00158 0
M  V30 5058 C 483.915 -0.253334 3.11973 0
M  V30 5059 C 484.39 -0.132921 4.57807 0
M  V30 5060 N 485.881 -0.189979 4.6281 0
M  V30 5061 C 486.616 -0.120554 5.73273 0
M  V30 5062 N 486.112 -0.000180315 6.928 0
M  V30 5063 N 487.905 -0.174369 5.61829 0
M  V30 5064 H 480.056 0.942896 1.90324 0
M  V30 5065 H 482.319 0.3639 0.875375 0
M  V30 5066 H 482.025 0.784576 3.42837 0
M  V30 5067 H 481.899 -0.951565 3.65 0
M  V30 5068 H 484.286 -1.20876 2.69208 0
M  V30 5069 H 484.367 0.548177 2.49857 0
M  V30 5070 H 484.011 0.819073 5.01252 0
M  V30 5071 H 483.941 -0.953264 5.179 0
M  V30 5072 H 486.432 -0.283257 3.76837 0
M  V30 5073 H 486.745 0.0461666 7.72786 0
M  V30 5074 H 485.09 0.034569 6.94991 0
M  V30 5075 H 488.281 -0.266794 4.67339 0
M  V30 5076 H 488.454 -0.116802 6.47895 0
M  V30 5077 N 481.861 -1.55662 -0.24637 0
M  V30 5078 C 483.272 -1.67953 -0.81539 0
M  V30 5079 C 483.623 -0.624302 -1.86002 0
M  V30 5080 O 482.748 0.229328 -2.15181 0
M  V30 5081 C 483.343 -3.04484 -1.48576 0
M  V30 5082 C 481.902 -3.18713 -2.00248 0
M  V30 5083 C 481.049 -2.6383 -0.853766 0
M  V30 5084 H 484 -1.58685 -0.0221692 0
M  V30 5085 H 484.021 -2.98959 -2.3538 0
M  V30 5086 H 483.533 -3.81264 -0.725222 0
M  V30 5087 H 481.634 -2.46757 -2.79181 0
M  V30 5088 H 481.747 -4.25628 -2.1995 0
M  V30 5089 H 480.111 -2.21667 -1.25442 0
M  V30 5090 H 480.894 -3.43135 -0.106302 0
M  V30 5091 N 483.339 0.512053 -1.4905 0
M  V30 5092 C 484.755 0.84224 -1.35567 0
M  V30 5093 C 484.955 1.97878 -0.380319 0
M  V30 5094 O 484.011 2.51769 0.19201 0
M  V30 5095 C 485.324 1.19286 -2.76028 0
M  V30 5096 C 486.872 1.30171 -2.84648 0
M  V30 5097 C 487.347 1.68568 -4.25851 0
M  V30 5098 N 488.838 1.75638 -4.28609 0
M  V30 5099 C 489.573 2.06769 -5.34821 0
M  V30 5100 N 489.069 2.36201 -6.51292 0
M  V30 5101 N 490.862 2.07927 -5.22229 0
M  V30 5102 H 483.013 -0.237574 -2.11067 0
M  V30 5103 H 485.276 -0.0436747 -0.946993 0
M  V30 5104 H 484.982 0.431199 -3.49047 0
M  V30 5105 H 484.856 2.13889 -3.10695 0
M  V30 5106 H 487.243 2.05411 -2.11873 0
M  V30 5107 H 487.324 0.336457 -2.53578 0
M  V30 5108 H 486.968 0.938824 -4.99148 0
M  V30 5109 H 486.898 2.66174 -4.54377 0
M  V30 5110 H 489.389 1.55097 -3.44606 0
M  V30 5111 H 489.702 2.59112 -7.28066 0
M  V30 5112 H 488.047 2.33681 -6.54536 0
M  V30 5113 H 491.238 1.84403 -4.30248 0
M  V30 5114 H 491.411 2.31856 -6.05101 0
M  V30 5115 N 484.817 1.37938 0.762283 0
M  V30 5116 C 486.042 1.37059 1.55659 0
M  V30 5117 C 486.467 -0.0396123 1.88058 0
M  V30 5118 O 485.825 -1.01929 1.49934 0
M  V30 5119 C 485.873 2.22494 2.83776 0
M  V30 5120 O 484.977 1.63607 3.78559 0
M  V30 5121 H 484.318 0.467892 0.47114 0
M  V30 5122 H 486.848 1.81587 0.942725 0
M  V30 5123 H 486.858 2.36045 3.32786 0
M  V30 5124 H 485.533 3.24993 2.59524 0
M  V30 5125 H 484.11 1.5915 3.37233 0
M  V30 5126 N 486.295 -0.989507 1.22664 0
M  V30 5127 C 487.225 -2.09847 1.02404 0
M  V30 5128 C 488.206 -1.70007 -0.0561303 0
M  V30 5129 O 489.391 -1.93906 0.106748 0
M  V30 5130 C 486.521 -3.41996 0.604663 0
M  V30 5131 C 485.475 -3.95699 1.63115 0
M  V30 5132 C 484.801 -5.23936 1.0675 0
M  V30 5133 C 486.101 -4.25999 3.02196 0
M  V30 5134 H 487.795 -2.27054 1.95158 0
M  V30 5135 H 485.341 -1.09111 0.939727 0
M  V30 5136 H 487.294 -4.1899 0.45002 0
M  V30 5137 H 486.018 -3.24626 -0.35855 0
M  V30 5138 H 484.677 -3.2084 1.77362 0
M  V30 5139 H 484.325 -5.02909 0.0955422 0
M  V30 5140 H 484.025 -5.60833 1.75328 0
M  V30 5141 H 485.549 -6.0356 0.924516 0
M  V30 5142 H 486.963 -4.93777 2.91303 0
M  V30 5143 H 485.36 -4.74076 3.67929 0
M  V30 5144 H 486.43 -3.33636 3.51873 0
M  V30 5145 N 487.773 -1.03688 -1.18687 0
M  V30 5146 C 488.998 -0.757819 -1.93059 0
M  V30 5147 C 489.423 0.678353 -1.75442 0
M  V30 5148 O 488.781 1.46938 -1.06203 0
M  V30 5149 C 488.829 -1.12423 -3.42627 0
M  V30 5150 O 487.933 -0.247505 -4.11657 0
M  V30 5151 H 487.274 -0.279245 -0.602427 0
M  V30 5152 H 489.804 -1.3857 -1.5053 0
M  V30 5153 H 489.814 -1.08454 -3.93322 0
M  V30 5154 H 488.489 -2.17049 -3.54771 0
M  V30 5155 H 487.066 -0.34649 -3.71287 0
M  V30 5156 N 489.251 1.34841 -0.815825 0
M  V30 5157 C 490.181 2.32187 -0.247298 0
M  V30 5158 C 491.162 1.5791 0.632344 0
M  V30 5159 O 492.347 1.8593 0.560698 0
M  V30 5160 C 489.477 3.42122 0.597466 0
M  V30 5161 C 488.431 4.27602 -0.184446 0
M  V30 5162 C 487.757 5.28942 0.782609 0
M  V30 5163 C 489.057 5.03502 -1.38865 0
M  V30 5164 H 490.751 2.79985 -1.06061 0
M  V30 5165 H 488.297 1.34611 -0.511461 0
M  V30 5166 H 490.25 4.09232 1.00533 0
M  V30 5167 H 488.974 2.92956 1.44376 0
M  V30 5168 H 487.633 3.62085 -0.573592 0
M  V30 5169 H 487.281 4.7604 1.62466 0
M  V30 5170 H 486.981 5.87008 0.263695 0
M  V30 5171 H 488.505 5.98922 1.18848 0
M  V30 5172 H 489.919 5.63506 -1.05518 0
M  V30 5173 H 488.316 5.71108 -1.8427 0
M  V30 5174 H 489.386 4.33608 -2.17054 0
M  V30 5175 N 490.729 0.570148 1.46925 0
M  V30 5176 C 491.661 -0.207909 2.28255 0
M  V30 5177 C 492.674 -0.867301 1.37774 0
M  V30 5178 O 493.863 -0.738976 1.62485 0
M  V30 5179 C 490.963 -1.31298 3.12433 0
M  V30 5180 C 490.136 -0.747915 4.30958 0
M  V30 5181 C 489.195 -1.7391 4.9663 0
M  V30 5182 O 488.221 -1.2801 5.54619 0
M  V30 5183 N 489.423 -3.07288 4.92498 0
M  V30 5184 H 492.188 0.489794 2.95671 0
M  V30 5185 H 489.749 0.407076 1.56699 0
M  V30 5186 H 491.741 -1.97507 3.53232 0
M  V30 5187 H 490.311 -1.91373 2.47175 0
M  V30 5188 H 489.531 0.0913066 3.94094 0
M  V30 5189 H 490.819 -0.349958 5.07595 0
M  V30 5190 H 490.217 -3.47213 4.46609 0
M  V30 5191 H 488.774 -3.69021 5.37277 0
M  V30 5192 N 492.207 -1.54576 0.307264 0
M  V30 5193 C 493.618 -1.8579 -0.184121 0
M  V30 5194 C 493.969 -1.22914 -1.52927 0
M  V30 5195 O 493.094 -0.529126 -2.09831 0
M  V30 5196 C 493.689 -3.37081 -0.340862 0
M  V30 5197 C 492.248 -3.68304 -0.776465 0
M  V30 5198 C 491.395 -2.77076 0.111503 0
M  V30 5199 H 494.346 -1.49656 0.528078 0
M  V30 5200 H 494.367 -3.61922 -1.17443 0
M  V30 5201 H 493.879 -3.82815 0.638309 0
M  V30 5202 H 491.98 -3.28092 -1.76596 0
M  V30 5203 H 492.093 -4.75434 -0.591512 0
M  V30 5204 H 490.457 -2.51374 -0.410256 0
M  V30 5205 H 491.24 -3.25632 1.08714 0
M  V30 5206 N 493.685 -0.035106 -1.57561 0
M  V30 5207 C 494.617 0.973604 -2.07494 0
M  V30 5208 C 495.63 1.28504 -0.999534 0
M  V30 5209 O 496.819 1.24864 -1.27559 0
M  V30 5210 C 493.919 2.29945 -2.48955 0
M  V30 5211 C 493.092 2.1723 -3.79644 0
M  V30 5212 C 492.151 3.328 -4.07592 0
M  V30 5213 O 491.177 3.09418 -4.77754 0
M  V30 5214 N 492.379 4.56779 -3.58236 0
M  V30 5215 H 495.144 0.547525 -2.94656 0
M  V30 5216 H 492.705 0.151515 -1.61189 0
M  V30 5217 H 494.697 3.06097 -2.64739 0
M  V30 5218 H 493.267 2.64173 -1.67126 0
M  V30 5219 H 492.487 1.25768 -3.73599 0
M  V30 5220 H 493.775 2.05945 -4.65257 0
M  V30 5221 H 493.173 4.78668 -3.01485 0
M  V30 5222 H 491.73 5.30079 -3.79288 0
M  V30 5223 N 495.163 1.55791 0.238111 0
M  V30 5224 C 496.093 1.94068 1.29846 0
M  V30 5225 C 497.074 0.806726 1.49753 0
M  V30 5226 O 498.259 1.06772 1.62214 0
M  V30 5227 C 495.389 2.24302 2.65153 0
M  V30 5228 C 494.343 3.40032 2.59927 0
M  V30 5229 C 493.669 3.55829 3.99111 0
M  V30 5230 C 494.969 4.75476 2.16148 0
M  V30 5231 H 496.663 2.82887 0.980563 0
M  V30 5232 H 494.209 1.36105 0.470253 0
M  V30 5233 H 496.162 2.4967 3.39475 0
M  V30 5234 H 494.886 1.32318 2.98596 0
M  V30 5235 H 493.545 3.14687 1.88063 0
M  V30 5236 H 493.193 2.6125 4.29834 0
M  V30 5237 H 492.893 4.3366 3.96501 0
M  V30 5238 H 494.417 3.83528 4.7512 0
M  V30 5239 H 495.831 5.00158 2.80205 0
M  V30 5240 H 494.228 5.56472 2.24631 0
M  V30 5241 H 495.298 4.71946 1.11333 0
M  V30 5242 N 496.642 -0.504142 1.49319 0
M  V30 5243 C 497.87 -1.28256 1.62351 0
M  V30 5244 C 498.285 -1.86502 0.293682 0
M  V30 5245 O 497.642 -1.67678 -0.720449 0
M  V30 5246 C 497.693 -2.41507 2.68992 0
M  V30 5247 O 497.414 -1.85656 3.96817 0
M  V30 5248 C 498.915 -3.32929 2.927 0
M  V30 5249 H 496.135 -0.389115 0.546654 0
M  V30 5250 H 498.679 -0.605531 1.95329 0
M  V30 5251 H 496.834 -3.05046 2.38801 0
M  V30 5252 H 497.248 -2.59981 4.55533 0
M  V30 5253 H 498.722 -4.0868 3.71058 0
M  V30 5254 H 499.199 -3.89733 2.02496 0
M  V30 5255 H 499.805 -2.75158 3.24296 0
M  V30 5256 N 498.12 -1.38341 -0.754957 0
M  V30 5257 C 499.052 -1.31347 -1.87831 0
M  V30 5258 C 500.065 -0.225955 -1.61224 0
M  V30 5259 O 501.254 -0.48341 -1.7183 0
M  V30 5260 C 498.354 -1.01201 -3.23437 0
M  V30 5261 C 497.527 -2.20834 -3.77559 0
M  V30 5262 C 496.586 -1.87454 -4.91678 0
M  V30 5263 O 495.612 -2.59934 -5.06382 0
M  V30 5264 N 496.814 -0.828682 -5.74555 0
M  V30 5265 H 499.579 -2.28147 -1.94342 0
M  V30 5266 H 497.14 -1.32184 -0.934828 0
M  V30 5267 H 499.132 -0.769249 -3.97322 0
M  V30 5268 H 497.702 -0.132011 -3.12321 0
M  V30 5269 H 496.922 -2.61184 -2.95256 0
M  V30 5270 H 498.21 -3.00678 -4.10451 0
M  V30 5271 H 497.608 -0.227591 -5.65242 0
M  V30 5272 H 496.165 -0.645802 -6.48593 0
M  V30 5273 N 499.598 0.982988 -1.23187 0
M  V30 5274 C 501.014 1.2487 -0.993967 0
M  V30 5275 C 501.214 1.99155 0.306498 0
M  V30 5276 O 500.27 2.30688 1.0266 0
M  V30 5277 C 501.583 2.05078 -2.19917 0
M  V30 5278 C 503.131 2.18227 -2.2438 0
M  V30 5279 C 503.606 3.01825 -3.44479 0
M  V30 5280 N 505.097 3.09411 -3.44702 0
M  V30 5281 C 505.832 3.74412 -4.34285 0
M  V30 5282 N 505.328 4.41259 -5.341 0
M  V30 5283 N 507.121 3.71273 -4.22035 0
M  V30 5284 H 499.272 0.485253 -2.06783 0
M  V30 5285 H 501.535 0.276979 -0.906635 0
M  V30 5286 H 501.241 1.57867 -3.14279 0
M  V30 5287 H 501.115 3.05829 -2.2079 0
M  V30 5288 H 503.502 2.64648 -1.30559 0
M  V30 5289 H 503.583 1.16873 -2.2754 0
M  V30 5290 H 503.227 2.56102 -4.38605 0
M  V30 5291 H 503.157 4.03342 -3.38559 0
M  V30 5292 H 505.648 2.61845 -2.7248 0
M  V30 5293 H 505.961 4.88629 -5.98717 0
M  V30 5294 H 504.306 4.39975 -5.38002 0
M  V30 5295 H 507.497 3.18217 -3.43301 0
M  V30 5296 H 507.67 4.21649 -4.92053 0
M  V30 5297 N 501.076 1.04316 1.18135 0
M  V30 5298 C 502.301 0.768047 1.92655 0
M  V30 5299 C 502.726 -0.66904 1.758 0
M  V30 5300 O 502.084 -1.46372 1.06981 0
M  V30 5301 C 502.132 1.14239 3.42026 0
M  V30 5302 O 501.236 0.269333 4.1152 0
M  V30 5303 H 500.577 0.282436 0.600937 0
M  V30 5304 H 503.107 1.39367 1.49793 0
M  V30 5305 H 503.117 1.10538 3.92741 0
M  V30 5306 H 501.792 2.18928 3.53615 0
M  V30 5307 H 500.369 0.366175 3.71098 0
M  V30 5308 N 502.554 -1.34406 0.822964 0
M  V30 5309 C 503.802 -1.97892 0.410245 0
M  V30 5310 C 504.123 -1.65567 -1.03017 0
M  V30 5311 O 503.393 -0.94642 -1.71522 0
M  V30 5312 H 501.973 -0.732049 0.148707 0
M  V30 5313 H 504.635 -1.64043 1.05242 0
M  V30 5314 H 503.731 -3.07579 0.529284 0
M  V30 5315 N 504.032 -0.577932 -1.46621 0
M  V30 5316 C 504.962 0.145917 -2.33044 0
M  V30 5317 C 505.943 0.888412 -1.45056 0
M  V30 5318 O 507.128 0.864812 -1.73881 0
M  V30 5319 C 504.258 1.16322 -3.27241 0
M  V30 5320 C 503.212 0.535868 -4.24632 0
M  V30 5321 C 502.538 1.65929 -5.08303 0
M  V30 5322 C 503.838 -0.523861 -5.19666 0
M  V30 5323 H 505.532 -0.575636 -2.93814 0
M  V30 5324 H 503.078 -0.278272 -1.41286 0
M  V30 5325 H 505.031 1.67793 -3.86553 0
M  V30 5326 H 503.755 1.91498 -2.64567 0
M  V30 5327 H 502.414 0.0422759 -3.66576 0
M  V30 5328 H 502.062 2.40061 -4.42018 0
M  V30 5329 H 501.762 1.2452 -5.74255 0
M  V30 5330 H 503.286 2.17686 -5.70478 0
M  V30 5331 H 504.7 -0.0944059 -5.73222 0
M  V30 5332 H 503.097 -0.858 -5.93935 0
M  V30 5333 H 504.167 -1.41197 -4.63887 0
M  V30 5334 N 505.51 1.54411 -0.315457 0
M  V30 5335 C 506.442 2.21527 0.588067 0
M  V30 5336 C 507.455 1.21263 1.08624 0
M  V30 5337 O 508.644 1.47777 1.00121 0
M  V30 5338 C 505.744 2.85963 1.81875 0
M  V30 5339 C 504.917 4.12291 1.46063 0
M  V30 5340 C 503.976 4.60396 2.54799 0
M  V30 5341 O 503.002 5.25265 2.19283 0
M  V30 5342 N 504.204 4.33935 3.85591 0
M  V30 5343 H 506.969 2.99697 0.013414 0
M  V30 5344 H 504.53 1.61308 -0.138295 0
M  V30 5345 H 506.522 3.15071 2.53993 0
M  V30 5346 H 505.092 2.11548 2.30144 0
M  V30 5347 H 504.312 3.90036 0.571445 0
M  V30 5348 H 505.6 4.9452 1.19695 0
M  V30 5349 H 504.998 3.81996 4.17248 0
M  V30 5350 H 503.555 4.67718 4.53964 0
M  V30 5351 O 507.027 0.182621 1.60464 0
M  V30 5352 H 507.718 -0.405074 1.89417 0
M  V30 END ATOM
M  V30 BEGIN BOND
M  V30 END BOND
M  V30 END CTAB
M  END
$$$$
