drugbank_target|Q4R2T2 Prenyltransferase (DB02521; DB02552; DB04702; DB07661)
 OpenBabel12092120453D

  0  0  0     0  0            999 V3000
M  V30 BEGIN CTAB
M  V30 COUNTS 4708 4764 0 0 0
M  V30 BEGIN ATOM
M  V30 1 H -0.908 1.98254 -0.117106 0
M  V30 2 N 0 1.576 0 0
M  V30 3 C 0.933 2.03868 1.02534 0
M  V30 4 C 1.911 0.928543 1.3348 0
M  V30 5 O 3.095 1.19667 1.45644 0
M  V30 6 C 0.222 2.43627 2.35294 0
M  V30 7 C -0.732 3.65373 2.2001 0
M  V30 8 S 0.101 5.13292 1.52614 0
M  V30 9 C 1.257 5.56322 2.86805 0
M  V30 10 H 1.49 2.90518 0.631377 0
M  V30 11 H -0.977 1.52953 0.210867 0
M  V30 12 H 0.981 2.67203 3.11629 0
M  V30 13 H -0.358 1.57376 2.7183 0
M  V30 14 H -1.165 3.90944 3.18086 0
M  V30 15 H -1.563 3.418 1.51819 0
M  V30 16 H 0.729 5.58782 3.83104 0
M  V30 17 H 1.672 6.56266 2.65933 0
M  V30 18 H 2.08 4.83886 2.90714 0
M  V30 19 N 1.4781 -0.272755 1.55222 0
M  V30 20 C 2.7031 -1.02683 1.80197 0
M  V30 21 C 3.1281 -1.79142 0.573551 0
M  V30 22 O 2.4861 -1.74917 -0.476849 0
M  V30 23 C 2.5341 -1.9609 3.02624 0
M  V30 24 O 1.6381 -3.04863 2.77727 0
M  V30 25 H 0.9791 -0.293557 0.595584 0
M  V30 26 H 3.5091 -0.30159 2.02365 0
M  V30 27 H 3.5191 -2.38039 3.31363 0
M  V30 28 H 2.1941 -1.39851 3.91682 0
M  V30 29 H 0.7711 -2.67228 2.60084 0
M  V30 30 N 2.9562 -1.48159 -0.537278 0
M  V30 31 C 3.8662 -1.64807 -1.6696 0
M  V30 32 C 4.8822 -0.530651 -1.65711 0
M  V30 33 O 6.0582 -0.800784 -1.84796 0
M  V30 34 C 3.1232 -1.67708 -3.03438 0
M  V30 35 C 2.1842 -2.91025 -3.156 0
M  V30 36 C 1.4172 -2.93778 -4.45567 0
M  V30 37 O 1.6402 -2.05153 -5.3223 0
M  V30 38 O 0.5742 -3.85868 -4.61941 0
M  V30 39 H 4.4002 -2.6066 -1.55853 0
M  V30 40 H 1.9852 -1.31475 -0.709549 0
M  V30 41 H 3.8672 -1.7218 -3.84619 0
M  V30 42 H 2.5422 -0.750278 -3.14885 0
M  V30 43 H 1.4492 -2.92089 -2.33741 0
M  V30 44 H 2.7822 -3.83065 -3.09066 0
M  V30 45 N 4.4343 0.785586 -1.36625 0
M  V30 46 C 5.3973 1.87999 -1.31107 0
M  V30 47 C 6.3973 1.59316 -0.217959 0
M  V30 48 O 7.5873 1.67656 -0.472977 0
M  V30 49 C 4.7193 3.24861 -1.03334 0
M  V30 50 H 5.9123 1.94307 -2.2844 0
M  V30 51 H 3.4653 0.983813 -1.21453 0
M  V30 52 H 4.2003 3.24235 -0.0647432 0
M  V30 53 H 3.9853 3.4707 -1.82441 0
M  V30 54 H 5.4753 4.04929 -1.02088 0
M  V30 55 N 5.9124 1.20967 1.01018 0
M  V30 56 C 6.8754 0.965918 2.07853 0
M  V30 57 C 7.8754 -0.0610545 1.60684 0
M  V30 58 O 9.0654 0.175681 1.73312 0
M  V30 59 C 6.1974 0.455513 3.37843 0
M  V30 60 H 7.3904 1.91365 2.3091 0
M  V30 61 H 4.9434 1.02594 1.17916 0
M  V30 62 H 5.6784 -0.497381 3.20463 0
M  V30 63 H 5.4634 1.19622 3.73407 0
M  V30 64 H 6.9534 0.304667 4.16487 0
M  V30 65 N 7.3905 -1.2043 1.01659 0
M  V30 66 C 8.6675 -1.8548 0.621004 0
M  V30 67 C 9.0475 -1.9091 -0.900919 0
M  V30 68 O 8.3955 -1.41694 -1.79263 0
M  V30 69 C 8.6055 -3.25119 1.2688 0
M  V30 70 C 9.9535 -4.01403 1.38423 0
M  V30 71 O 10.9775 -3.34473 1.22501 0
M  V30 72 O 9.8365 -5.21265 1.64151 0
M  V30 73 H 6.9305 -0.798761 0.214266 0
M  V30 74 H 9.4765 -1.28019 1.11396 0
M  V30 75 H 8.2485 -3.15932 2.30873 0
M  V30 76 H 7.8715 -3.90212 0.762917 0
M  V30 77 N 8.8686 -0.792821 -1.36206 0
M  V30 78 C 10.1146 -0.36733 -1.99446 0
M  V30 79 C 10.4476 1.05917 -1.62774 0
M  V30 80 O 9.7226 1.7324 -0.88421 0
M  V30 81 C 10.0056 -0.535044 -3.56103 0
M  V30 82 C 9.8586 -2.00548 -4.02617 0
M  V30 83 C 11.1776 0.0478191 -4.40074 0
M  V30 84 H 8.2966 -0.134941 -0.724541 0
M  V30 85 H 10.9386 -0.999794 -1.61568 0
M  V30 86 H 9.0886 0.00336329 -3.885 0
M  V30 87 H 10.7606 -2.60521 -3.80692 0
M  V30 88 H 9.0036 -2.50686 -3.54032 0
M  V30 89 H 9.6746 -2.07377 -5.11565 0
M  V30 90 H 12.1506 -0.411822 -4.14057 0
M  V30 91 H 11.0266 -0.0995336 -5.4881 0
M  V30 92 H 11.2876 1.14025 -4.27142 0
M  V30 93 N 10.3467 1.47872 -0.545128 0
M  V30 94 C 11.2567 2.33633 0.212746 0
M  V30 95 C 12.2727 1.4744 0.923983 0
M  V30 96 O 13.4487 1.80393 0.895572 0
M  V30 97 C 10.5137 3.23884 1.23693 0
M  V30 98 C 9.5747 4.25961 0.534417 0
M  V30 99 C 8.8077 5.11899 1.5098 0
M  V30 100 O 9.0307 5.00077 2.7437 0
M  V30 101 O 7.9647 5.92831 1.0409 0
M  V30 102 H 11.7907 2.99714 -0.490416 0
M  V30 103 H 9.3757 1.46235 -0.305871 0
M  V30 104 H 11.2577 3.79666 1.82843 0
M  V30 105 H 9.9327 2.60446 1.92222 0
M  V30 106 H 8.8397 3.73972 -0.0979679 0
M  V30 107 H 10.1727 4.92079 -0.109213 0
M  V30 108 N 11.8248 0.280983 1.55075 0
M  V30 109 C 13.2408 -0.0729964 1.59433 0
M  V30 110 C 13.4408 -1.5411 1.29817 0
M  V30 111 O 12.4968 -2.29086 1.06187 0
M  V30 112 C 13.8098 0.306921 2.9913 0
M  V30 113 C 15.3578 0.254023 3.11968 0
M  V30 114 C 15.8328 0.608467 4.5394 0
M  V30 115 N 17.3238 0.560241 4.59799 0
M  V30 116 C 18.0588 0.80722 5.6769 0
M  V30 117 N 17.5548 1.11912 6.83701 0
M  V30 118 N 19.3478 0.735623 5.57266 0
M  V30 119 H 11.4988 1.238 1.7259 0
M  V30 120 H 13.7618 0.500547 0.805082 0
M  V30 121 H 13.4678 1.32816 3.25657 0
M  V30 122 H 13.3418 -0.349363 3.75579 0
M  V30 123 H 15.7288 -0.75794 2.852 0
M  V30 124 H 15.8098 0.944649 2.37718 0
M  V30 125 H 15.4538 1.61814 4.81434 0
M  V30 126 H 15.3838 -0.104013 5.26497 0
M  V30 127 H 17.8748 0.329288 3.76463 0
M  V30 128 H 18.1878 1.29409 7.61888 0
M  V30 129 H 16.5328 1.15695 6.85303 0
M  V30 130 H 19.7238 0.491752 4.6551 0
M  V30 131 H 19.8968 0.931482 6.4127 0
M  V30 132 N 13.3029 -1.57598 0.00835791 0
M  V30 133 C 14.5489 -1.91211 -0.675732 0
M  V30 134 C 14.8819 -0.883139 -1.72958 0
M  V30 135 O 14.1569 0.097016 -1.94258 0
M  V30 136 C 14.4399 -3.35379 -1.31123 0
M  V30 137 C 14.2929 -4.48999 -0.268356 0
M  V30 138 C 15.6119 -3.7912 -2.23508 0
M  V30 139 H 12.7309 -0.695374 -0.244179 0
M  V30 140 H 15.3729 -1.89901 0.0613655 0
M  V30 141 H 13.5229 -3.36626 -1.93946 0
M  V30 142 H 15.1949 -4.59887 0.360844 0
M  V30 143 H 13.4379 -4.31873 0.408482 0
M  V30 144 H 14.1089 -5.46851 -0.752218 0
M  V30 145 H 16.5849 -3.79477 -1.70693 0
M  V30 146 H 15.4609 -4.80729 -2.64936 0
M  V30 147 H 15.7219 -3.13455 -3.11766 0
M  V30 148 N 14.781 0.264519 -1.55364 0
M  V30 149 C 16.011 1.01153 -1.80143 0
M  V30 150 C 16.419 1.80115 -0.579253 0
M  V30 151 O 15.762 1.77813 0.46132 0
M  V30 152 C 15.824 2.01098 -2.97993 0
M  V30 153 C 15.488 1.40995 -4.34706 0
M  V30 154 C 16.485 0.821316 -5.13372 0
M  V30 155 C 14.17 1.43461 -4.81378 0
M  V30 156 C 16.164 0.265339 -6.36847 0
M  V30 157 C 13.851 0.874771 -6.04807 0
M  V30 158 C 14.849 0.291146 -6.82379 0
M  V30 159 O 14.537 -0.260093 -8.03479 0
M  V30 160 H 14.269 0.304125 -0.603725 0
M  V30 161 H 16.823 0.298089 -2.03225 0
M  V30 162 H 15.053 2.76224 -2.70623 0
M  V30 163 H 16.742 2.61997 -3.1002 0
M  V30 164 H 17.508 0.794903 -4.78442 0
M  V30 165 H 13.387 1.87826 -4.21002 0
M  V30 166 H 16.931 -0.190837 -6.97339 0
M  V30 167 H 12.828 0.898452 -6.39217 0
M  V30 168 H 13.596 -0.150265 -8.18362 0
M  V30 169 N 16.2591 1.48442 0.529413 0
M  V30 170 C 17.2221 1.62524 1.61612 0
M  V30 171 C 18.2221 0.498509 1.52877 0
M  V30 172 O 19.4121 0.76431 1.56537 0
M  V30 173 C 16.5441 1.59597 3.01233 0
M  V30 174 H 17.7371 2.59423 1.50465 0
M  V30 175 H 15.2901 1.37047 0.751514 0
M  V30 176 H 16.0251 0.641781 3.17886 0
M  V30 177 H 15.8101 2.41397 3.08982 0
M  V30 178 H 17.3001 1.72646 3.80241 0
M  V30 179 N 17.7372 -0.778329 1.37039 0
M  V30 180 C 18.7002 -1.87301 1.32102 0
M  V30 181 C 19.7002 -1.59198 0.226405 0
M  V30 182 O 20.8902 -1.67403 0.481861 0
M  V30 183 C 18.0222 -3.24309 1.05055 0
M  V30 184 H 19.2152 -1.93093 2.29467 0
M  V30 185 H 16.7682 -0.977358 1.21973 0
M  V30 186 H 17.5032 -3.24196 0.0819373 0
M  V30 187 H 17.2882 -3.46098 1.84279 0
M  V30 188 H 18.7782 -4.04382 1.04234 0
M  V30 189 N 19.2153 -1.21501 -1.00376 0
M  V30 190 C 20.1483 -0.918669 -2.08892 0
M  V30 191 C 21.1263 0.134277 -1.62045 0
M  V30 192 O 22.3103 0.00504255 -1.88499 0
M  V30 193 C 19.4373 -0.379645 -3.36566 0
M  V30 194 C 18.4833 -1.41559 -4.02323 0
M  V30 195 S 19.3163 -2.98521 -4.44574 0
M  V30 196 C 20.4723 -2.46228 -5.75433 0
M  V30 197 H 20.7053 -1.83761 -2.33707 0
M  V30 198 H 18.2383 -1.04489 -1.13673 0
M  V30 199 H 20.1963 -0.0752195 -4.10431 0
M  V30 200 H 18.8573 0.518008 -3.09799 0
M  V30 201 H 18.0503 -0.988076 -4.9422 0
M  V30 202 H 17.6523 -1.66815 -3.34737 0
M  V30 203 H 19.9443 -1.86791 -6.51241 0
M  V30 204 H 20.8873 -3.36572 -6.22997 0
M  V30 205 H 21.2953 -1.87894 -5.32312 0
M  V30 206 N 20.6934 1.19889 -1.02296 0
M  V30 207 C 21.6034 2.26571 -0.608508 0
M  V30 208 C 22.6194 1.70299 0.356964 0
M  V30 209 O 23.7954 2.00235 0.216326 0
M  V30 210 C 20.8604 3.46677 0.0402814 0
M  V30 211 C 19.9214 4.18153 -0.97194 0
M  V30 212 C 19.1544 5.32525 -0.354016 0
M  V30 213 O 19.3774 5.64112 0.844604 0
M  V30 214 O 18.3114 5.92242 -1.07391 0
M  V30 215 H 22.1374 2.64251 -1.49684 0
M  V30 216 H 19.7224 1.26629 -0.792809 0
M  V30 217 H 21.6044 4.19475 0.402324 0
M  V30 218 H 20.2794 3.10858 0.902707 0
M  V30 219 H 19.1864 3.47499 -1.38546 0
M  V30 220 H 20.5194 4.57927 -1.80454 0
M  V30 221 N 22.1715 0.800033 1.35784 0
M  V30 222 C 23.0815 0.207204 2.33683 0
M  V30 223 C 24.0975 -0.64631 1.61551 0
M  V30 224 O 25.2735 -0.559604 1.93469 0
M  V30 225 C 22.3385 -0.639659 3.40748 0
M  V30 226 C 21.3995 0.233585 4.28664 0
M  V30 227 C 20.6325 -0.572954 5.30616 0
M  V30 228 O 20.8555 -1.80816 5.40982 0
M  V30 229 O 19.7895 0.0327285 6.01891 0
M  V30 230 H 23.6155 1.01692 2.86169 0
M  V30 231 H 21.2005 0.561691 1.38439 0
M  V30 232 H 23.0825 -1.12223 4.06182 0
M  V30 233 H 21.7575 -1.42708 2.90544 0
M  V30 234 H 20.6645 0.763147 3.66233 0
M  V30 235 H 21.9975 0.984784 4.82248 0
M  V30 236 N 23.6496 -1.47581 0.552962 0
M  V30 237 C 24.6126 -2.28439 -0.186605 0
M  V30 238 C 25.6126 -1.36706 -0.84665 0
M  V30 239 O 26.8026 -1.59378 -0.703164 0
M  V30 240 C 23.9346 -3.16264 -1.2724 0
M  V30 241 H 25.1276 -2.95294 0.523609 0
M  V30 242 H 22.6806 -1.532 0.309745 0
M  V30 243 H 23.4156 -2.54091 -2.01514 0
M  V30 244 H 23.2006 -3.83769 -0.803968 0
M  V30 245 H 24.6906 -3.77198 -1.79196 0
M  V30 246 N 25.1277 -0.289203 -1.54924 0
M  V30 247 C 26.0907 0.579144 -2.21762 0
M  V30 248 C 27.0907 1.07047 -1.1999 0
M  V30 249 O 28.2807 0.968384 -1.44803 0
M  V30 250 C 25.4127 1.80055 -2.8947 0
M  V30 251 H 26.6057 -0.00464908 -2.999 0
M  V30 252 H 24.1587 -0.0399306 -1.56249 0
M  V30 253 H 24.8937 2.42449 -2.15381 0
M  V30 254 H 24.6787 1.45602 -3.64064 0
M  V30 255 H 26.1687 2.41773 -3.40493 0
M  V30 256 N 26.6058 1.57591 -0.0167156 0
M  V30 257 C 27.8538 1.90906 0.663285 0
M  V30 258 C 28.1748 0.892509 1.73376 0
M  V30 259 O 27.4448 -0.0677623 1.95783 0
M  V30 260 H 26.0248 0.704637 0.247983 0
M  V30 261 H 28.6868 1.94803 -0.0615909 0
M  V30 262 H 27.7828 2.9116 1.12393 0
M  V30 263 N 28.0839 -0.256276 1.55502 0
M  V30 264 C 29.0139 -1.32102 1.92539 0
M  V30 265 C 29.9949 -1.50684 0.789194 0
M  V30 266 O 31.1799 -1.63449 1.04872 0
M  V30 267 C 28.3099 -2.67752 2.21192 0
M  V30 268 C 27.2639 -2.63878 3.36975 0
M  V30 269 C 26.5899 -4.03236 3.51147 0
M  V30 270 C 27.8899 -2.21682 4.72921 0
M  V30 271 H 29.5839 -1.01351 2.81724 0
M  V30 272 H 27.1299 -0.486105 1.35547 0
M  V30 273 H 29.0829 -3.42365 2.45691 0
M  V30 274 H 27.8069 -3.0012 1.28824 0
M  V30 275 H 26.4659 -1.91722 3.12471 0
M  V30 276 H 26.1139 -4.32854 2.56216 0
M  V30 277 H 25.8139 -4.01535 4.29003 0
M  V30 278 H 27.3379 -4.79563 3.77957 0
M  V30 279 H 28.7519 -2.86023 4.96854 0
M  V30 280 H 27.1489 -2.3111 5.53812 0
M  V30 281 H 28.2189 -1.16833 4.70615 0
M  V30 282 N 29.562 -1.4872 -0.521534 0
M  V30 283 C 30.492 -1.66771 -1.63431 0
M  V30 284 C 31.473 -0.516499 -1.62069 0
M  V30 285 O 32.658 -0.750013 -1.79132 0
M  V30 286 C 29.788 -1.71515 -3.01993 0
M  V30 287 C 28.742 -2.86222 -3.18216 0
M  V30 288 C 28.068 -2.76061 -4.57924 0
M  V30 289 C 29.368 -4.27419 -3.00184 0
M  V30 290 H 31.062 -2.59932 -1.48579 0
M  V30 291 H 28.608 -1.25089 -0.713358 0
M  V30 292 H 30.561 -1.82731 -3.7972 0
M  V30 293 H 29.285 -0.749393 -3.17886 0
M  V30 294 H 27.944 -2.74575 -2.42908 0
M  V30 295 H 27.592 -1.77437 -4.70665 0
M  V30 296 H 27.292 -3.53037 -4.69722 0
M  V30 297 H 28.816 -2.89256 -5.37739 0
M  V30 298 H 30.23 -4.39855 -3.67697 0
M  V30 299 H 28.627 -5.05458 -3.2347 0
M  V30 300 H 29.697 -4.43293 -1.96518 0
M  V30 301 N 31.0401 0.771051 -1.3745 0
M  V30 302 C 32.2881 1.52661 -1.32435 0
M  V30 303 C 32.6091 1.9479 0.0905024 0
M  V30 304 O 31.8791 1.66348 1.03466 0
M  V30 305 H 30.4591 0.566218 -0.487244 0
M  V30 306 H 33.1211 0.917636 -1.71946 0
M  V30 307 H 32.2171 2.42568 -1.96385 0
M  V30 308 N 32.5182 1.22032 0.997298 0
M  V30 309 C 33.7642 1.04376 1.73878 0
M  V30 310 C 34.0972 -0.420716 1.89588 0
M  V30 311 O 33.3722 -1.31202 1.43583 0
M  V30 312 C 33.6552 1.75047 3.14691 0
M  V30 313 C 33.5082 3.29062 3.06656 0
M  V30 314 C 34.8272 1.49928 4.13775 0
M  V30 315 H 31.9462 0.380578 0.631133 0
M  V30 316 H 34.5882 1.50312 1.16217 0
M  V30 317 H 32.7382 1.35996 3.63919 0
M  V30 318 H 34.4102 3.7753 2.65083 0
M  V30 319 H 32.6532 3.58967 2.43568 0
M  V30 320 H 33.3242 3.73683 4.06282 0
M  V30 321 H 35.8002 1.83842 3.73285 0
M  V30 322 H 34.6762 2.01878 5.10428 0
M  V30 323 H 34.9372 0.430929 4.39995 0
M  V30 324 N 33.9963 -1.19345 1.0293 0
M  V30 325 C 34.9593 -2.20793 0.615069 0
M  V30 326 C 35.9593 -1.57553 -0.321533 0
M  V30 327 O 37.1493 -1.73862 -0.108483 0
M  V30 328 C 34.2813 -3.40754 -0.0999222 0
M  V30 329 H 35.4743 -2.58955 1.51269 0
M  V30 330 H 33.0273 -1.3303 0.820534 0
M  V30 331 H 33.7623 -3.0811 -1.01187 0
M  V30 332 H 33.5473 -3.87889 0.57309 0
M  V30 333 H 35.0373 -4.15898 -0.376645 0
M  V30 334 N 35.4744 -0.807222 -1.35358 0
M  V30 335 C 36.7144 -0.393534 -2.00576 0
M  V30 336 C 37.0784 1.0203 -1.62647 0
M  V30 337 O 38.2794 1.53603 -2.20589 0
M  V30 338 C 36.5504 -0.572017 -3.52793 0
M  V30 339 S 38.1094 -0.248845 -4.38094 0
M  V30 340 H 34.9274 -0.149425 -0.695121 0
M  V30 341 H 37.5294 -1.04961 -1.64935 0
M  V30 342 H 36.2334 -1.60097 -3.77885 0
M  V30 343 H 35.7644 0.099359 -3.93275 0
M  V30 344 H 37.7794 0.943253 -4.87152 0
M  V30 345 N 36.9525 1.47285 -0.560781 0
M  V30 346 C 37.9155 2.28535 0.174488 0
M  V30 347 C 38.9155 1.37153 0.839388 0
M  V30 348 O 40.1055 1.59748 0.694702 0
M  V30 349 C 37.2375 3.16934 1.25561 0
M  V30 350 H 38.4305 2.95012 -0.539262 0
M  V30 351 H 35.9835 1.53034 -0.317865 0
M  V30 352 H 36.7185 2.55157 2.00164 0
M  V30 353 H 36.5035 3.8419 0.783604 0
M  V30 354 H 37.9935 3.78143 1.77193 0
M  V30 355 N 38.4306 0.297415 1.54768 0
M  V30 356 C 39.8466 -0.0560823 1.59501 0
M  V30 357 C 40.0466 -1.52725 1.31444 0
M  V30 358 O 39.1026 -2.27947 1.08611 0
M  V30 359 C 40.4156 0.338631 2.98787 0
M  V30 360 C 41.9636 0.287097 3.11681 0
M  V30 361 C 42.4386 0.656579 4.53269 0
M  V30 362 N 43.9296 0.608977 4.59179 0
M  V30 363 C 44.6646 0.867385 5.66802 0
M  V30 364 N 44.1606 1.19157 6.82476 0
M  V30 365 N 45.9536 0.794687 5.56454 0
M  V30 366 H 38.1046 1.25624 1.71267 0
M  V30 367 H 40.3676 0.509057 0.799728 0
M  V30 368 H 40.0736 1.36263 3.2423 0
M  V30 369 H 39.9476 -0.309508 3.75928 0
M  V30 370 H 42.3346 -0.727649 2.85988 0
M  V30 371 H 42.4156 0.969809 2.36703 0
M  V30 372 H 42.0596 1.66912 4.7969 0
M  V30 373 H 41.9896 -0.0481649 5.26578 0
M  V30 374 H 44.4806 0.369198 3.76092 0
M  V30 375 H 44.7936 1.37482 7.60473 0
M  V30 376 H 43.1386 1.22958 6.84037 0
M  V30 377 H 46.3296 0.541098 4.64962 0
M  V30 378 H 46.5026 0.999445 6.40246 0
M  V30 379 N 39.9087 -1.5758 0.0250728 0
M  V30 380 C 41.1857 -1.82917 -0.692873 0
M  V30 381 C 41.5657 -0.908137 -1.90568 0
M  V30 382 O 40.9137 0.0372298 -2.2847 0
M  V30 383 C 41.1237 -3.32034 -1.07492 0
M  V30 384 C 42.4717 -3.98406 -1.46826 0
M  V30 385 O 43.4957 -3.36505 -1.16801 0
M  V30 386 O 42.3547 -5.07497 -2.02754 0
M  V30 387 H 39.4487 -0.754079 -0.33955 0
M  V30 388 H 41.9947 -1.69619 0.0524456 0
M  V30 389 H 40.7667 -3.90728 -0.211552 0
M  V30 390 H 40.3897 -3.50424 -1.87854 0
M  V30 391 N 41.3868 0.248026 -1.55636 0
M  V30 392 C 42.3338 1.30707 -1.90222 0
M  V30 393 C 43.3038 1.47881 -0.756332 0
M  V30 394 O 44.4888 1.61883 -1.00988 0
M  V30 395 C 41.6288 2.65769 -2.20138 0
M  V30 396 C 40.7418 2.56612 -3.47526 0
M  V30 397 C 39.8768 3.8402 -3.67017 0
M  V30 398 C 38.9158 3.69476 -4.8801 0
M  V30 399 N 38.0528 4.88774 -5.04029 0
M  V30 400 H 42.8928 1.00512 -2.80538 0
M  V30 401 H 40.4298 0.485055 -1.38873 0
M  V30 402 H 42.3878 3.44386 -2.35487 0
M  V30 403 H 41.0178 2.94115 -1.33027 0
M  V30 404 H 40.0698 1.69571 -3.40514 0
M  V30 405 H 41.3818 2.41774 -4.36287 0
M  V30 406 H 40.5358 4.7108 -3.8232 0
M  V30 407 H 39.2748 4.01754 -2.76487 0
M  V30 408 H 38.2798 2.80799 -4.72686 0
M  V30 409 H 39.5048 3.53238 -5.8 0
M  V30 410 H 37.4508 5.0687 -4.16435 0
M  V30 411 H 37.3678 4.76562 -5.86877 0
M  V30 412 H 38.6358 5.77335 -5.23741 0
M  V30 413 N 42.8649 1.48995 0.513639 0
M  V30 414 C 44.1139 1.57093 1.2651 0
M  V30 415 C 44.4269 0.257091 1.93903 0
M  V30 416 O 45.6329 0.216478 2.70636 0
M  V30 417 C 44.0889 2.77118 2.29638 0
M  V30 418 C 43.6969 4.15209 1.68241 0
M  V30 419 C 45.4409 2.94538 3.05692 0
M  V30 420 C 43.3479 5.26474 2.69406 0
M  V30 421 H 42.2779 0.584876 0.475854 0
M  V30 422 H 44.9289 1.7536 0.540487 0
M  V30 423 H 43.3109 2.52319 3.05207 0
M  V30 424 H 44.4849 4.50094 0.987505 0
M  V30 425 H 42.7999 4.03042 1.04623 0
M  V30 426 H 45.3969 3.74832 3.8132 0
M  V30 427 H 45.7399 2.04614 3.62545 0
M  V30 428 H 46.2729 3.19316 2.37238 0
M  V30 429 H 43.0119 6.18417 2.17351 0
M  V30 430 H 42.5319 4.96058 3.37175 0
M  V30 431 H 44.2109 5.55277 3.32078 0
M  V30 432 N 44.343 -0.763751 1.37857 0
M  V30 433 C 45.573 -1.55067 1.3652 0
M  V30 434 C 45.981 -1.89135 -0.0494227 0
M  V30 435 O 45.324 -1.52529 -1.02375 0
M  V30 436 C 45.386 -2.8838 2.14656 0
M  V30 437 C 45.05 -2.76905 3.63555 0
M  V30 438 C 46.047 -2.4739 4.57268 0
M  V30 439 C 43.732 -2.94676 4.06781 0
M  V30 440 C 45.726 -2.35786 5.92186 0
M  V30 441 C 43.413 -2.82692 5.41782 0
M  V30 442 C 44.411 -2.53289 6.34298 0
M  V30 443 O 44.099 -2.41345 7.66817 0
M  V30 444 H 43.831 -0.486776 0.469069 0
M  V30 445 H 46.385 -0.953812 1.81911 0
M  V30 446 H 44.615 -3.50217 1.63967 0
M  V30 447 H 46.304 -3.49828 2.05852 0
M  V30 448 H 47.07 -2.33339 4.2518 0
M  V30 449 H 42.949 -3.16563 3.35126 0
M  V30 450 H 46.493 -2.12757 6.64365 0
M  V30 451 H 42.39 -2.96314 5.7347 0
M  V30 452 H 43.158 -2.56634 7.77226 0
M  V30 453 N 45.8211 -1.22559 -0.990812 0
M  V30 454 C 47.2321 -1.04791 -1.54518 0
M  V30 455 C 47.5831 0.387998 -1.92325 0
M  V30 456 O 46.7081 1.27328 -1.74976 0
M  V30 457 C 47.3031 -1.896 -2.80779 0
M  V30 458 C 45.8621 -1.76124 -3.32652 0
M  V30 459 C 45.0091 -1.8594 -2.05722 0
M  V30 460 H 47.9601 -1.36374 -0.811662 0
M  V30 461 H 47.9811 -1.41464 -3.53225 0
M  V30 462 H 47.4931 -2.94101 -2.53231 0
M  V30 463 H 45.5941 -0.743643 -3.65104 0
M  V30 464 H 45.7071 -2.58913 -4.03114 0
M  V30 465 H 44.0711 -1.29403 -2.19379 0
M  V30 466 H 44.8541 -2.91976 -1.80568 0
M  V30 467 N 47.2992 1.18797 -1.03562 0
M  V30 468 C 48.2292 2.24472 -0.643019 0
M  V30 469 C 49.2102 1.66433 0.351283 0
M  V30 470 O 50.3952 1.92803 0.232505 0
M  V30 471 C 47.5252 3.473 4.24935e-05 0
M  V30 472 C 46.4792 4.18055 -0.917257 0
M  V30 473 C 45.8052 5.34519 -0.138941 0
M  V30 474 C 47.1052 4.72109 -2.23407 0
M  V30 475 H 48.7992 2.57566 -1.52643 0
M  V30 476 H 46.3452 1.23806 -0.735394 0
M  V30 477 H 48.2982 4.20426 0.286383 0
M  V30 478 H 47.0222 3.13424 0.918299 0
M  V30 479 H 45.6812 3.46821 -1.1879 0
M  V30 480 H 45.3292 4.96891 0.781562 0
M  V30 481 H 45.0292 5.82794 -0.750005 0
M  V30 482 H 46.5532 6.10438 0.1405 0
M  V30 483 H 47.9672 5.36955 -2.00879 0
M  V30 484 H 46.3642 5.30897 -2.79765 0
M  V30 485 H 47.4342 3.89807 -2.88407 0
M  V30 486 N 48.7773 0.814389 1.34928 0
M  V30 487 C 49.7073 0.244827 2.32213 0
M  V30 488 C 50.6883 -0.634024 1.57842 0
M  V30 489 O 51.8733 -0.562676 1.8587 0
M  V30 490 C 49.0033 -0.601106 3.42058 0
M  V30 491 C 47.9573 0.179896 4.27622 0
M  V30 492 C 47.2833 -0.788237 5.28858 0
M  V30 493 C 48.5833 1.38329 5.03649 0
M  V30 494 H 50.2773 1.05763 2.80097 0
M  V30 495 H 47.8233 0.510029 1.34665 0
M  V30 496 H 49.7763 -1.00968 4.09125 0
M  V30 497 H 48.5003 -1.44688 2.92802 0
M  V30 498 H 47.1593 0.569739 3.62146 0
M  V30 499 H 46.8073 -1.62973 4.75866 0
M  V30 500 H 46.5073 -0.269942 5.8698 0
M  V30 501 H 48.0313 -1.19485 5.98795 0
M  V30 502 H 49.4453 1.04918 5.63618 0
M  V30 503 H 47.8423 1.83662 5.71304 0
M  V30 504 H 48.9123 2.16592 4.33839 0
M  V30 505 N 50.2554 -1.46986 0.568584 0
M  V30 506 C 51.4804 -2.07335 0.0520528 0
M  V30 507 C 51.9054 -1.41675 -1.23733 0
M  V30 508 O 51.2634 -0.495623 -1.74394 0
M  V30 509 C 51.3114 -3.60417 -0.11501 0
M  V30 510 O 50.4154 -3.95309 -1.17492 0
M  V30 511 H 49.7564 -0.661597 0.0564385 0
M  V30 512 H 52.2864 -1.88837 0.787507 0
M  V30 513 H 52.2964 -4.06698 -0.325644 0
M  V30 514 H 50.9714 -4.07601 0.826675 0
M  V30 515 H 49.5484 -3.60757 -0.943869 0
M  V30 516 N 51.7335 -0.305618 -1.54608 0
M  V30 517 C 52.9615 0.304775 -2.04643 0
M  V30 518 C 53.3765 1.47167 -1.18268 0
M  V30 519 O 52.7335 1.81296 -0.209328 0
M  V30 520 C 52.7845 0.756564 -3.53495 0
M  V30 521 O 52.5055 -0.36389 -4.36586 0
M  V30 522 C 54.0065 1.43163 -4.19546 0
M  V30 523 H 51.2265 0.0655481 -0.667791 0
M  V30 524 H 53.7705 -0.446592 -1.99564 0
M  V30 525 H 51.9255 1.45794 -3.58919 0
M  V30 526 H 52.3395 -0.0113121 -5.24499 0
M  V30 527 H 53.8135 1.69886 -5.25207 0
M  V30 528 H 54.2905 2.37318 -3.69563 0
M  V30 529 H 54.8965 0.773307 -4.18211 0
M  V30 530 N 53.2116 1.57565 -0.0334293 0
M  V30 531 C 54.4586 1.91978 0.644272 0
M  V30 532 C 54.7866 0.910231 1.71887 0
M  V30 533 O 54.0416 -0.0801961 1.95536 0
M  V30 534 C 54.3406 3.33112 1.29504 0
M  V30 535 C 54.0066 4.49537 0.350388 0
M  V30 536 C 52.6686 4.81115 0.0903974 0
M  V30 537 C 55.0206 5.20347 -0.298032 0
M  V30 538 C 52.3486 5.8086 -0.825746 0
M  V30 539 C 54.7006 6.2107 -1.20226 0
M  V30 540 C 53.3646 6.51088 -1.4711 0
M  V30 541 H 52.6346 0.702496 0.235756 0
M  V30 542 H 55.2816 1.91259 -0.0961176 0
M  V30 543 H 53.5866 3.30113 2.11028 0
M  V30 544 H 55.2836 3.57011 1.82603 0
M  V30 545 H 51.8736 4.24883 0.563205 0
M  V30 546 H 56.0576 4.96178 -0.110234 0
M  V30 547 H 51.3136 6.02461 -1.04169 0
M  V30 548 H 55.4876 6.75057 -1.71086 0
M  V30 549 H 53.1146 7.28193 -2.18264 0
M  V30 550 N 54.6897 -0.239769 1.55765 0
M  V30 551 C 55.6217 -1.32001 1.87372 0
M  V30 552 C 56.6347 -1.43944 0.760522 0
M  V30 553 O 57.8237 -1.45167 1.0387 0
M  V30 554 C 54.9237 -2.69779 2.05115 0
M  V30 555 C 54.0967 -2.80014 3.36022 0
M  V30 556 C 53.1557 -3.98684 3.4342 0
M  V30 557 O 52.1817 -3.87877 4.16582 0
M  V30 558 N 53.3837 -5.12176 2.73232 0
M  V30 559 H 56.1487 -1.0522 2.80622 0
M  V30 560 H 53.7097 -0.429857 1.56089 0
M  V30 561 H 55.7017 -3.47517 2.07399 0
M  V30 562 H 54.2717 -2.89237 1.18577 0
M  V30 563 H 53.4917 -1.88896 3.45994 0
M  V30 564 H 54.7797 -2.83808 4.22292 0
M  V30 565 H 54.1777 -5.2385 2.13536 0
M  V30 566 H 52.7347 -5.88022 2.81199 0
M  V30 567 N 56.1678 -1.49265 -0.50573 0
M  V30 568 C 57.4448 -1.49012 -1.26707 0
M  V30 569 C 57.8248 -0.215205 -2.1 0
M  V30 570 O 57.1728 0.802547 -2.13943 0
M  V30 571 C 57.3828 -2.7663 -2.12783 0
M  V30 572 C 58.7308 -3.25932 -2.72127 0
M  V30 573 O 59.7548 -2.77715 -2.23054 0
M  V30 574 O 58.6138 -4.09897 -3.61451 0
M  V30 575 H 55.7078 -0.596197 -0.57313 0
M  V30 576 H 58.2538 -1.61524 -0.52039 0
M  V30 577 H 57.0258 -3.60916 -1.5118 0
M  V30 578 H 56.6488 -2.66956 -2.94653 0
M  V30 579 N 57.6459 0.756429 -1.3826 0
M  V30 580 C 58.8739 1.54565 -1.3754 0
M  V30 581 C 59.2889 1.88767 0.0355331 0
M  V30 582 O 58.6459 1.52572 1.0014 0
M  V30 583 C 58.6969 2.84654 -2.22833 0
M  V30 584 O 58.4179 2.51912 -3.5843 0
M  V30 585 C 59.9189 3.78807 -2.30261 0
M  V30 586 H 57.1389 0.478353 -0.470553 0
M  V30 587 H 59.6829 0.936381 -1.81803 0
M  V30 588 H 57.8379 3.41965 -1.8204 0
M  V30 589 H 58.2519 3.35325 -4.03308 0
M  V30 590 H 59.7259 4.67045 -2.94233 0
M  V30 591 H 60.2029 4.19038 -1.31545 0
M  V30 592 H 60.8089 3.2742 -2.71433 0
M  V30 593 N 59.124 1.23083 0.984299 0
M  V30 594 C 60.054 1.03292 2.09411 0
M  V30 595 C 61.035 -0.048923 1.7003 0
M  V30 596 O 62.22 0.114967 1.93859 0
M  V30 597 C 59.35 0.619155 3.41736 0
M  V30 598 C 58.304 1.64791 3.95004 0
M  V30 599 C 57.63 1.0897 5.23478 0
M  V30 600 C 58.93 3.03999 4.24714 0
M  V30 601 H 60.624 1.96119 2.26225 0
M  V30 602 H 58.17 0.944344 1.08711 0
M  V30 603 H 60.123 0.467777 4.18796 0
M  V30 604 H 58.847 -0.344786 3.24775 0
M  V30 605 H 57.506 1.78721 3.20085 0
M  V30 606 H 57.154 0.11686 5.02864 0
M  V30 607 H 56.854 1.77704 5.60085 0
M  V30 608 H 58.378 0.950093 6.03163 0
M  V30 609 H 59.792 2.93393 4.92538 0
M  V30 610 H 58.189 3.69936 4.72512 0
M  V30 611 H 59.259 3.53285 3.32142 0
M  V30 612 N 60.6021 -1.18246 1.0419 0
M  V30 613 C 61.8481 -1.88536 0.747122 0
M  V30 614 C 62.1811 -1.80223 -0.723409 0
M  V30 615 O 61.4561 -1.20337 -1.52804 0
M  V30 616 C 61.7391 -3.38968 1.21544 0
M  V30 617 C 61.5921 -3.56084 2.74816 0
M  V30 618 C 62.9111 -4.32648 0.806482 0
M  V30 619 H 60.0301 -0.684619 0.272883 0
M  V30 620 H 62.6721 -1.39113 1.29413 0
M  V30 621 H 60.8221 -3.8119 0.750081 0
M  V30 622 H 62.4941 -3.22946 3.29399 0
M  V30 623 H 60.7371 -2.98699 3.14582 0
M  V30 624 H 61.4081 -4.61639 3.02644 0
M  V30 625 H 63.8841 -3.98211 1.20695 0
M  V30 626 H 62.7601 -5.36462 1.1619 0
M  V30 627 H 63.0211 -4.41146 -0.29029 0
M  V30 628 N 62.0802 -0.821533 -1.34494 0
M  V30 629 C 62.9902 -0.244355 -2.33324 0
M  V30 630 C 64.0062 0.620527 -1.62559 0
M  V30 631 O 65.1822 0.528754 -1.94335 0
M  V30 632 C 62.2472 0.585368 -3.41723 0
M  V30 633 C 61.3082 -0.301752 -4.28238 0
M  V30 634 C 60.5412 0.488466 -5.3146 0
M  V30 635 O 60.7642 1.72186 -5.4379 0
M  V30 636 O 59.6982 -0.12848 -6.01763 0
M  V30 637 H 63.5242 -1.06231 -2.84515 0
M  V30 638 H 61.1092 -0.583645 -1.37528 0
M  V30 639 H 62.9912 1.05747 -4.07916 0
M  V30 640 H 61.6662 1.38068 -2.92778 0
M  V30 641 H 60.5732 -0.821315 -3.64973 0
M  V30 642 H 61.9062 -1.06138 -4.8062 0
M  V30 643 N 63.5583 1.46682 -0.576371 0
M  V30 644 C 64.8063 2.02013 -0.0594163 0
M  V30 645 C 65.1273 1.45101 1.30271 0
M  V30 646 O 64.3973 0.633317 1.8538 0
M  V30 647 H 62.9773 0.746759 -0.0189745 0
M  V30 648 H 65.6393 1.79862 -0.750717 0
M  V30 649 H 64.7353 3.12097 0.014345 0
M  V30 650 N 65.0364 0.313813 1.54444 0
M  V30 651 C 66.2844 -0.291099 1.99993 0
M  V30 652 C 66.6054 -1.53418 1.20366 0
M  V30 653 O 65.8754 -1.93544 0.302927 0
M  V30 654 H 64.4554 -0.110552 0.738774 0
M  V30 655 H 67.1174 0.428106 1.9014 0
M  V30 656 H 66.2134 -0.554268 3.07139 0
M  V30 657 N 66.5145 -1.57545 0.0417849 0
M  V30 658 C 67.7395 -1.97035 -0.647455 0
M  V30 659 C 68.1645 -0.918775 -1.64135 0
M  V30 660 O 67.5225 0.119006 -1.80909 0
M  V30 661 C 67.5705 -3.35609 -1.31905 0
M  V30 662 O 66.6745 -3.3287 -2.43457 0
M  V30 663 H 66.0155 -0.64211 -0.169086 0
M  V30 664 H 68.5455 -2.04318 0.107399 0
M  V30 665 H 68.5555 -3.72126 -1.67291 0
M  V30 666 H 67.2305 -4.11685 -0.590586 0
M  V30 667 H 65.8075 -3.08087 -2.10088 0
M  V30 668 N 67.9926 0.231505 -1.5589 0
M  V30 669 C 69.2386 0.95877 -1.78705 0
M  V30 670 C 69.5716 1.8438 -0.609725 0
M  V30 671 O 68.8466 1.90521 0.391426 0
M  V30 672 C 69.1296 1.8062 -3.11526 0
M  V30 673 C 68.9826 0.948328 -4.39689 0
M  V30 674 C 70.3016 2.78585 -3.40703 0
M  V30 675 H 67.4206 0.347129 -0.650131 0
M  V30 676 H 70.0626 0.228259 -1.88624 0
M  V30 677 H 68.2126 2.42902 -3.03201 0
M  V30 678 H 69.8846 0.343016 -4.60023 0
M  V30 679 H 68.1276 0.253314 -4.3306 0
M  V30 680 H 68.7986 1.57543 -5.29041 0
M  V30 681 H 71.2746 2.26439 -3.49091 0
M  V30 682 H 70.1506 3.34988 -4.34826 0
M  V30 683 H 70.4116 3.55825 -2.62375 0
M  V30 684 N 69.4707 1.49531 0.497807 0
M  V30 685 C 70.7167 1.59415 1.25358 0
M  V30 686 C 71.0497 0.281422 1.9215 0
M  V30 687 O 70.3247 -0.715249 1.80871 0
M  V30 688 C 70.6077 2.75566 2.3181 0
M  V30 689 C 70.4607 4.16642 1.69498 0
M  V30 690 C 71.7797 2.87347 3.33346 0
M  V30 691 H 68.8987 0.580244 0.454408 0
M  V30 692 H 71.5407 1.81827 0.551262 0
M  V30 693 H 69.6907 2.56587 2.91711 0
M  V30 694 H 71.3627 4.47145 1.13399 0
M  V30 695 H 69.6057 4.22141 0.998978 0
M  V30 696 H 70.2767 4.93792 2.46725 0
M  V30 697 H 72.7527 3.04634 2.83438 0
M  V30 698 H 71.6287 3.70289 4.05188 0
M  V30 699 H 71.8897 1.96834 3.95865 0
M  V30 700 N 70.9488 -0.749086 1.3866 0
M  V30 701 C 72.1948 -1.51056 1.35314 0
M  V30 702 C 72.5278 -1.94121 -0.0553751 0
M  V30 703 O 71.8028 -1.65763 -1.01749 0
M  V30 704 C 72.0858 -2.76003 2.31288 0
M  V30 705 C 71.9388 -2.39047 3.8102 0
M  V30 706 C 73.2578 -3.78046 2.2532 0
M  V30 707 H 70.3768 -0.547972 0.492844 0
M  V30 708 H 73.0188 -0.857628 1.69543 0
M  V30 709 H 71.1688 -3.31716 2.02229 0
M  V30 710 H 72.8408 -1.89074 4.20771 0
M  V30 711 H 71.0838 -1.71449 3.98482 0
M  V30 712 H 71.7548 -3.28462 4.4364 0
M  V30 713 H 74.2308 -3.31884 2.50983 0
M  V30 714 H 73.1068 -4.63159 2.94576 0
M  V30 715 H 73.3678 -4.23957 1.25352 0
M  V30 716 N 72.4269 -1.23603 -0.977757 0
M  V30 717 C 73.6739 -1.06971 -1.71941 0
M  V30 718 C 74.0019 0.393009 -1.90488 0
M  V30 719 O 73.2569 1.30719 -1.4564 0
M  V30 720 C 73.5559 -1.7433 -3.11999 0
M  V30 721 C 73.2219 -3.24252 -3.13323 0
M  V30 722 C 71.8839 -3.65156 -3.13392 0
M  V30 723 C 74.2359 -4.20141 -3.08433 0
M  V30 724 C 71.5639 -5.00403 -3.0629 0
M  V30 725 C 73.9159 -5.55384 -3.02873 0
M  V30 726 C 72.5799 -5.95647 -3.01265 0
M  V30 727 H 71.8499 -0.391433 -0.629175 0
M  V30 728 H 74.4969 -1.53572 -1.14403 0
M  V30 729 H 72.8019 -1.20096 -3.7294 0
M  V30 730 H 74.4989 -1.58936 -3.68158 0
M  V30 731 H 71.0889 -2.91692 -3.14029 0
M  V30 732 H 75.2729 -3.89547 -3.07517 0
M  V30 733 H 70.5289 -5.3081 -3.03399 0
M  V30 734 H 74.7029 -6.29398 -2.98046 0
M  V30 735 H 72.3299 -7.0041 -2.95516 0
M  V30 736 N 73.905 1.17692 -1.04816 0
M  V30 737 C 75.13 1.92327 -0.776207 0
M  V30 738 C 75.555 1.76082 0.661581 0
M  V30 739 O 74.913 1.076 1.45917 0
M  V30 740 C 74.961 3.41539 -1.15687 0
M  V30 741 O 74.065 4.11402 -0.286775 0
M  V30 742 H 73.406 0.599735 -0.284981 0
M  V30 743 H 75.936 1.49201 -1.4 0
M  V30 744 H 75.946 3.92269 -1.12202 0
M  V30 745 H 74.621 3.52684 -2.20425 0
M  V30 746 H 73.198 3.70939 -0.381903 0
M  V30 747 N 75.3831 0.828654 1.34056 0
M  V30 748 C 76.3161 0.199763 2.27324 0
M  V30 749 C 77.2941 -0.647168 1.49166 0
M  V30 750 O 78.4781 -0.609661 1.78369 0
M  V30 751 C 75.6051 -0.720455 3.30949 0
M  V30 752 C 74.6511 0.0496888 4.26471 0
M  V30 753 S 75.4841 1.40072 5.16856 0
M  V30 754 C 76.6401 0.485527 6.24014 0
M  V30 755 H 76.8731 0.990478 2.80316 0
M  V30 756 H 74.4061 0.624857 1.41191 0
M  V30 757 H 76.3641 -1.24581 3.91139 0
M  V30 758 H 75.0251 -1.48474 2.76793 0
M  V30 759 H 74.2181 -0.650104 4.9979 0
M  V30 760 H 73.8201 0.505779 3.70564 0
M  V30 761 H 76.1121 -0.320672 6.76741 0
M  V30 762 H 77.0551 1.18856 6.98054 0
M  V30 763 H 77.4631 0.0714109 5.64455 0
M  V30 764 N 76.8612 -1.46375 0.584142 0
M  V30 765 C 77.8242 -2.28784 -0.138108 0
M  V30 766 C 78.8242 -1.38471 -0.817462 0
M  V30 767 O 80.0142 -1.60833 -0.669199 0
M  V30 768 C 77.1462 -3.18892 -1.20503 0
M  V30 769 H 78.3392 -2.94117 0.586127 0
M  V30 770 H 75.8922 -1.52509 0.342171 0
M  V30 771 H 76.6272 -2.58309 -1.96079 0
M  V30 772 H 76.4122 -3.85388 -0.722384 0
M  V30 773 H 77.9022 -3.80914 -1.71155 0
M  V30 774 N 78.3393 -0.321999 -1.54275 0
M  V30 775 C 79.5643 0.285791 -2.05422 0
M  V30 776 C 79.9893 1.45124 -1.19669 0
M  V30 777 O 79.3473 1.80132 -0.205441 0
M  V30 778 C 79.3953 0.69956 -3.53749 0
M  V30 779 O 78.4993 1.8021 -3.70942 0
M  V30 780 H 77.8403 0.0518962 -0.661969 0
M  V30 781 H 80.3703 -0.469954 -1.9913 0
M  V30 782 H 80.3803 0.982649 -3.9599 0
M  V30 783 H 79.0553 -0.152864 -4.15619 0
M  V30 784 H 77.6323 1.51794 -3.40607 0
M  V30 785 N 79.8174 1.5752 -0.0501392 0
M  V30 786 C 81.0654 1.9227 0.622642 0
M  V30 787 C 81.3864 0.929083 1.71444 0
M  V30 788 O 80.6564 -0.0262186 1.95882 0
M  V30 789 H 79.2364 0.709739 0.232981 0
M  V30 790 H 81.8984 1.94628 -0.102898 0
M  V30 791 H 80.9944 2.93479 1.06191 0
M  V30 792 N 81.2955 -0.223234 1.56011 0
M  V30 793 C 82.7115 -0.572856 1.48965 0
M  V30 794 C 82.9115 -1.87225 0.74492 0
M  V30 795 O 81.9675 -2.50899 0.283896 0
M  V30 796 C 83.2805 -0.653646 2.9351 0
M  V30 797 C 84.8285 -0.744386 3.0402 0
M  V30 798 C 85.3035 -0.856535 4.49919 0
M  V30 799 N 86.7945 -0.9208 4.53955 0
M  V30 800 C 87.5295 -1.02726 5.64123 0
M  V30 801 N 87.0255 -1.09777 6.84047 0
M  V30 802 N 88.8185 -1.06226 5.51971 0
M  V30 803 H 80.9695 0.629462 2.02858 0
M  V30 804 H 83.2325 0.220621 0.921971 0
M  V30 805 H 82.9385 0.231518 3.50937 0
M  V30 806 H 82.8125 -1.51781 3.45315 0
M  V30 807 H 85.1995 -1.61999 2.46658 0
M  V30 808 H 85.2805 0.14541 2.55386 0
M  V30 809 H 84.9245 0.0146069 5.07898 0
M  V30 810 H 84.8545 -1.76172 4.96257 0
M  V30 811 H 87.3455 -0.876694 3.6759 0
M  V30 812 H 87.6585 -1.17872 7.63758 0
M  V30 813 H 86.0035 -1.06693 6.86762 0
M  V30 814 H 89.1945 -1.00382 4.5721 0
M  V30 815 H 89.3675 -1.14177 6.37862 0
M  V30 816 N 82.7736 -1.49793 -0.48987 0
M  V30 817 C 83.7236 -1.63673 -1.5873 0
M  V30 818 C 84.7076 -0.491956 -1.53195 0
M  V30 819 O 85.8996 -0.745461 -1.60536 0
M  V30 820 C 83.0286 -1.71689 -2.97284 0
M  V30 821 C 82.1146 -2.91781 -3.07774 0
M  V30 822 N 82.5056 -4.15714 -2.88124 0
M  V30 823 C 80.8036 -2.89949 -3.38889 0
M  V30 824 C 81.5046 -4.965 -3.03088 0
M  V30 825 N 80.4806 -4.30083 -3.3246 0
M  V30 826 H 84.2826 -2.57204 -1.42208 0
M  V30 827 H 81.7966 -1.46719 -0.69623 0
M  V30 828 H 83.7936 -1.79732 -3.76168 0
M  V30 829 H 82.4536 -0.793024 -3.14867 0
M  V30 830 H 83.4646 -4.45515 -2.64077 0
M  V30 831 H 80.1416 -2.06987 -3.62578 0
M  V30 832 H 81.5316 -6.04991 -2.92294 0
M  V30 833 N 84.2517 0.741722 -1.39055 0
M  V30 834 C 85.4767 1.53607 -1.39354 0
M  V30 835 C 85.9017 1.88096 0.0116905 0
M  V30 836 O 85.2597 1.5143 0.996924 0
M  V30 837 C 85.3077 2.80441 -2.26682 0
M  V30 838 O 84.4117 3.76088 -1.69208 0
M  V30 839 H 83.7527 0.464142 -0.474835 0
M  V30 840 H 86.2827 0.915665 -1.82967 0
M  V30 841 H 86.2927 3.29246 -2.40959 0
M  V30 842 H 84.9677 2.5467 -3.2881 0
M  V30 843 H 83.5447 3.34833 -1.64138 0
M  V30 844 N 85.7298 1.2412 0.971189 0
M  V30 845 C 86.9578 1.10575 1.74874 0
M  V30 846 C 87.3728 -0.342017 1.85676 0
M  V30 847 O 86.7298 -1.23617 1.34258 0
M  V30 848 C 86.7808 1.73579 3.171 0
M  V30 849 O 86.5018 3.12695 3.06844 0
M  V30 850 C 88.0028 1.65598 4.11208 0
M  V30 851 H 85.2228 0.386504 0.548503 0
M  V30 852 H 87.7668 1.64156 1.21955 0
M  V30 853 H 85.9218 1.24009 3.67016 0
M  V30 854 H 86.3358 3.43412 3.96445 0
M  V30 855 H 87.8098 2.1437 5.08674 0
M  V30 856 H 88.2868 0.616532 4.34851 0
M  V30 857 H 88.8928 2.14578 3.67201 0
M  V30 858 N 87.2079 -1.17134 1.05439 0
M  V30 859 C 88.1179 -2.24878 0.668365 0
M  V30 860 C 89.1339 -1.71186 -0.311687 0
M  V30 861 O 90.3099 -2.00738 -0.163161 0
M  V30 862 C 87.3749 -3.46662 0.051648 0
M  V30 863 C 86.4359 -4.15429 1.08246 0
M  V30 864 C 85.6689 -5.31399 0.495082 0
M  V30 865 O 85.8919 -5.66153 -0.694743 0
M  V30 866 O 84.8259 -5.89187 1.23056 0
M  V30 867 H 88.6519 -2.60189 1.56637 0
M  V30 868 H 86.2369 -1.24482 0.826104 0
M  V30 869 H 88.1189 -4.20394 -0.290966 0
M  V30 870 H 86.7939 -3.13142 -0.819971 0
M  V30 871 H 85.7009 -3.43704 1.47711 0
M  V30 872 H 87.0339 -4.52982 1.92532 0
M  V30 873 N 88.686 -0.835752 -1.33615 0
M  V30 874 C 89.616 -0.281739 -2.31794 0
M  V30 875 C 90.597 0.608833 -1.58831 0
M  V30 876 O 91.782 0.533035 -1.86741 0
M  V30 877 C 88.912 0.546612 -3.42971 0
M  V30 878 C 87.866 -0.247904 -4.27281 0
M  V30 879 C 87.192 0.704001 -5.30045 0
M  V30 880 C 88.492 -1.46324 -5.01385 0
M  V30 881 H 90.186 -1.10206 -2.78379 0
M  V30 882 H 87.732 -0.531388 -1.33837 0
M  V30 883 H 89.685 0.944467 -4.1068 0
M  V30 884 H 88.409 1.40011 -2.95067 0
M  V30 885 H 87.068 -0.627281 -3.61194 0
M  V30 886 H 86.716 1.55381 -4.78399 0
M  V30 887 H 86.416 0.176524 -5.87335 0
M  V30 888 H 87.94 1.09944 -6.0062 0
M  V30 889 H 89.354 -1.13871 -5.61877 0
M  V30 890 H 87.751 -1.92728 -5.6831 0
M  V30 891 H 88.821 -2.23467 -4.30338 0
M  V30 892 N 90.1641 1.46063 -0.591896 0
M  V30 893 C 91.4411 1.95595 -0.0137119 0
M  V30 894 C 91.8211 1.5345 1.4497 0
M  V30 895 O 91.1691 0.789543 2.14426 0
M  V30 896 C 91.3791 3.48453 -0.195373 0
M  V30 897 C 92.7271 4.24546 -0.0679765 0
M  V30 898 O 93.7511 3.55982 -0.124681 0
M  V30 899 O 92.6101 5.46467 0.0600579 0
M  V30 900 H 89.7041 0.825795 0.0446279 0
M  V30 901 H 92.2501 1.56303 -0.660859 0
M  V30 902 H 91.0221 3.72045 -1.21235 0
M  V30 903 H 90.6451 3.94597 0.487775 0
M  V30 904 N 91.6422 0.330177 1.54103 0
M  V30 905 C 92.8892 -0.270405 2.00686 0
M  V30 906 C 93.2172 -1.51621 1.21825 0
M  V30 907 O 92.4722 -1.93536 0.29025 0
M  V30 908 C 92.7712 -0.643134 3.51566 0
M  V30 909 C 92.4372 0.504251 4.48072 0
M  V30 910 C 91.0992 0.819163 4.74176 0
M  V30 911 C 93.4512 1.27465 5.05373 0
M  V30 912 C 90.7792 1.90708 5.5484 0
M  V30 913 C 93.1312 2.35271 5.87223 0
M  V30 914 C 91.7952 2.67336 6.11627 0
M  V30 915 H 91.0652 -0.0989482 0.734364 0
M  V30 916 H 93.7122 0.455324 1.86008 0
M  V30 917 H 92.0172 -1.44938 3.64006 0
M  V30 918 H 93.7142 -1.11949 3.85056 0
M  V30 919 H 90.3042 0.248733 4.27878 0
M  V30 920 H 94.4882 1.04462 4.85182 0
M  V30 921 H 89.7442 2.15991 5.71977 0
M  V30 922 H 93.9182 2.95405 6.30641 0
M  V30 923 H 91.5452 3.51763 6.73919 0
M  V30 924 N 93.1203 -1.57491 0.0584922 0
M  V30 925 C 94.3453 -1.97711 -0.62652 0
M  V30 926 C 94.7703 -0.936132 -1.63151 0
M  V30 927 O 94.1283 0.099811 -1.81025 0
M  V30 928 C 94.1763 -3.36989 -1.28338 0
M  V30 929 O 93.2803 -3.35433 -2.39913 0
M  V30 930 H 92.6213 -0.643868 -0.162266 0
M  V30 931 H 95.1513 -2.04193 0.129064 0
M  V30 932 H 95.1613 -3.73879 -1.63335 0
M  V30 933 H 93.8363 -4.12289 -0.546889 0
M  V30 934 H 92.4133 -3.10298 -2.06809 0
M  V30 935 N 94.5984 0.214957 -1.56127 0
M  V30 936 C 95.8474 0.936451 -1.78643 0
M  V30 937 C 96.1604 1.85237 -0.628229 0
M  V30 938 O 97.3664 2.613 -0.737186 0
M  V30 939 C 95.8224 1.7154 -3.16389 0
M  V30 940 C 95.4304 0.845299 -4.39953 0
M  V30 941 C 97.1744 2.42772 -3.48227 0
M  V30 942 C 95.0814 1.62198 -5.68723 0
M  V30 943 H 94.0114 0.353401 -0.666051 0
M  V30 944 H 96.6624 0.190169 -1.82512 0
M  V30 945 H 95.0444 2.50484 -3.06715 0
M  V30 946 H 96.2184 0.0959353 -4.607 0
M  V30 947 H 94.5334 0.244789 -4.1568 0
M  V30 948 H 97.1304 3.01394 -4.41663 0
M  V30 949 H 97.4734 3.15984 -2.71035 0
M  V30 950 H 98.0064 1.70813 -3.5926 0
M  V30 951 H 94.7454 0.933011 -6.48826 0
M  V30 952 H 94.2654 2.34579 -5.52026 0
M  V30 953 H 95.9444 2.18095 -6.09133 0
M  V30 954 N 96.0765 1.50051 0.48192 0
M  V30 955 C 97.3015 1.64508 1.26301 0
M  V30 956 C 97.7265 0.323851 1.85291 0
M  V30 957 O 97.0845 -0.710969 1.66778 0
M  V30 958 C 97.1325 2.7305 2.35533 0
M  V30 959 O 96.2365 2.3355 3.39895 0
M  V30 960 H 95.5775 0.549978 0.372048 0
M  V30 961 H 98.1075 1.9636 0.574786 0
M  V30 962 H 98.1175 2.95799 2.8101 0
M  V30 963 H 96.7925 3.68946 1.91967 0
M  V30 964 H 95.3695 2.21205 3.00204 0
M  V30 965 N 97.5546 -0.734337 1.39446 0
M  V30 966 C 98.8006 -1.49613 1.36908 0
M  V30 967 C 99.1336 -1.94169 -0.0347829 0
M  V30 968 O 98.4086 -1.66833 -0.999847 0
M  V30 969 C 98.6916 -2.73534 2.34203 0
M  V30 970 C 98.5446 -2.34993 3.83534 0
M  V30 971 C 99.8636 -3.75635 2.29317 0
M  V30 972 H 96.9826 -0.542714 0.498629 0
M  V30 973 H 99.6246 -0.839597 1.70443 0
M  V30 974 H 97.7746 -3.29553 2.05736 0
M  V30 975 H 99.4466 -1.84601 4.22753 0
M  V30 976 H 97.6896 -1.67213 4.00278 0
M  V30 977 H 98.3606 -3.23738 4.47099 0
M  V30 978 H 100.837 -3.29203 2.54489 0
M  V30 979 H 99.7126 -4.60008 2.99472 0
M  V30 980 H 99.9736 -4.22603 1.29842 0
M  V30 981 N 99.0327 -1.24633 -0.964593 0
M  V30 982 C 100.444 -1.08045 -1.5226 0
M  V30 983 C 100.795 0.347116 -1.93105 0
M  V30 984 O 99.9197 1.23588 -1.77637 0
M  V30 985 C 100.515 -1.95514 -2.76695 0
M  V30 986 C 99.0737 -1.8314 -3.28841 0
M  V30 987 C 98.2207 -1.90262 -2.01732 0
M  V30 988 H 101.172 -1.38064 -0.782553 0
M  V30 989 H 101.193 -1.48925 -3.50145 0
M  V30 990 H 100.705 -2.99407 -2.46936 0
M  V30 991 H 98.8057 -0.82092 -3.63444 0
M  V30 992 H 98.9187 -2.67406 -3.97531 0
M  V30 993 H 97.2827 -1.34027 -2.16584 0
M  V30 994 H 98.0657 -2.9574 -1.74334 0
M  V30 995 N 100.511 1.16574 -1.06058 0
M  V30 996 C 101.739 1.90952 -0.796552 0
M  V30 997 C 102.154 1.77302 0.648808 0
M  V30 998 O 101.511 1.11605 1.44397 0
M  V30 999 C 101.562 3.41736 -1.17894 0
M  V30 1000 O 101.283 3.54975 -2.56758 0
M  V30 1001 C 102.784 4.33169 -0.942308 0
M  V30 1002 H 100.004 0.605594 -0.288959 0
M  V30 1003 H 102.548 1.47777 -1.41358 0
M  V30 1004 H 100.703 3.82623 -0.606491 0
M  V30 1005 H 101.117 4.4846 -2.72 0
M  V30 1006 H 102.591 5.37439 -1.25952 0
M  V30 1007 H 103.068 4.3903 0.122078 0
M  V30 1008 H 103.674 3.98007 -1.49902 0
M  V30 1009 N 101.989 0.842826 1.3317 0
M  V30 1010 C 103.214 0.453129 2.02389 0
M  V30 1011 C 103.639 -0.939105 1.6298 0
M  V30 1012 O 102.997 -1.61472 0.8244 0
M  V30 1013 C 103.045 0.586094 3.55805 0
M  V30 1014 O 102.149 -0.386029 4.10589 0
M  V30 1015 H 101.49 0.183664 0.638094 0
M  V30 1016 H 104.02 1.13875 1.69981 0
M  V30 1017 H 104.03 0.469209 4.05293 0
M  V30 1018 H 102.705 1.6014 3.83833 0
M  V30 1019 H 101.282 -0.226371 3.72212 0
M  V30 1020 N 103.467 -1.45747 0.599634 0
M  V30 1021 C 104.417 -2.27538 -0.145107 0
M  V30 1022 C 105.401 -1.3686 -0.846055 0
M  V30 1023 O 106.593 -1.6091 -0.737357 0
M  V30 1024 C 103.722 -3.23569 -1.14708 0
M  V30 1025 C 102.808 -4.21734 -0.447383 0
M  V30 1026 N 103.199 -5.03257 0.506535 0
M  V30 1027 C 101.497 -4.40536 -0.695966 0
M  V30 1028 C 102.198 -5.74426 0.917068 0
M  V30 1029 N 101.174 -5.42966 0.26253 0
M  V30 1030 H 104.976 -2.87965 0.587672 0
M  V30 1031 H 102.49 -1.56803 0.422697 0
M  V30 1032 H 104.487 -3.8089 -1.69495 0
M  V30 1033 H 103.147 -2.64702 -1.8805 0
M  V30 1034 H 104.158 -5.10319 0.882899 0
M  V30 1035 H 100.835 -3.92802 -1.41467 0
M  V30 1036 H 102.225 -6.4995 1.70338 0
M  V30 1037 N 104.945 -0.338344 -1.53925 0
M  V30 1038 C 106.193 0.259245 -2.0043 0
M  V30 1039 C 106.514 1.51484 -1.22791 0
M  V30 1040 O 105.784 1.93037 -0.33368 0
M  V30 1041 H 104.364 0.0987845 -0.740439 0
M  V30 1042 H 107.026 -0.458302 -1.89435 0
M  V30 1043 H 106.122 0.505334 -3.07982 0
M  V30 1044 N 106.423 1.57458 -0.0668435 0
M  V30 1045 C 107.7 1.8469 0.644132 0
M  V30 1046 C 108.08 0.958343 1.88093 0
M  V30 1047 O 107.428 0.0233579 2.28488 0
M  V30 1048 C 107.638 3.34767 0.986509 0
M  V30 1049 C 108.986 4.02159 1.36212 0
M  V30 1050 O 110.01 3.39484 1.07839 0
M  V30 1051 O 108.869 5.12694 1.89227 0
M  V30 1052 H 105.963 0.762816 0.319437 0
M  V30 1053 H 108.509 1.6942 -0.0973986 0
M  V30 1054 H 107.281 3.91151 0.107883 0
M  V30 1055 H 106.904 3.55281 1.78497 0
M  V30 1056 N 107.901 -0.206675 1.56239 0
M  V30 1057 C 109.312 -0.772383 1.69974 0
M  V30 1058 C 109.663 -1.84353 0.671436 0
M  V30 1059 O 108.788 -2.15695 -0.174491 0
M  V30 1060 C 109.383 -1.40779 3.08167 0
M  V30 1061 C 107.942 -1.92072 3.23706 0
M  V30 1062 C 107.089 -0.786347 2.65917 0
M  V30 1063 H 110.04 0.0182223 1.5869 0
M  V30 1064 H 110.061 -2.27696 3.04852 0
M  V30 1065 H 109.573 -0.627958 3.82986 0
M  V30 1066 H 107.674 -2.7281 2.53782 0
M  V30 1067 H 107.787 -2.09046 4.31087 0
M  V30 1068 H 106.151 -1.1976 2.24788 0
M  V30 1069 H 106.934 -0.0189416 3.43295 0
M  V30 1070 N 109.379 -1.50304 -0.473955 0
M  V30 1071 C 110.609 -1.64663 -1.24778 0
M  V30 1072 C 111.017 -0.328174 -1.86332 0
M  V30 1073 O 110.36 0.699536 -1.69859 0
M  V30 1074 C 110.422 -2.6778 -2.39863 0
M  V30 1075 C 110.086 -4.11413 -1.98969 0
M  V30 1076 C 111.083 -4.97372 -1.51385 0
M  V30 1077 C 108.768 -4.57312 -2.07777 0
M  V30 1078 C 110.762 -6.27277 -1.13148 0
M  V30 1079 C 108.449 -5.87223 -1.69152 0
M  V30 1080 C 109.447 -6.72031 -1.21915 0
M  V30 1081 O 109.135 -7.99518 -0.838237 0
M  V30 1082 H 108.867 -0.556602 -0.383627 0
M  V30 1083 H 111.421 -1.9726 -0.572491 0
M  V30 1084 H 109.651 -2.30419 -3.10554 0
M  V30 1085 H 111.34 -2.71388 -3.01833 0
M  V30 1086 H 112.106 -4.63128 -1.44004 0
M  V30 1087 H 107.985 -3.91449 -2.43493 0
M  V30 1088 H 111.529 -6.93425 -0.762077 0
M  V30 1089 H 107.426 -6.20989 -1.76191 0
M  V30 1090 H 108.194 -8.12764 -0.967339 0
M  V30 1091 N 110.857 0.726932 -1.39834 0
M  V30 1092 C 111.82 1.82269 -1.38962 0
M  V30 1093 C 112.82 1.58248 -0.285334 0
M  V30 1094 O 114.01 1.65499 -0.54366 0
M  V30 1095 C 111.142 3.20186 -1.17019 0
M  V30 1096 H 112.335 1.84443 -2.36476 0
M  V30 1097 H 109.888 0.931416 -1.25516 0
M  V30 1098 H 110.623 3.23669 -0.202204 0
M  V30 1099 H 110.408 3.3902 -1.96998 0
M  V30 1100 H 111.898 4.00235 -1.1917 0
M  V30 1101 N 112.336 1.25143 0.95797 0
M  V30 1102 C 113.564 1.12424 1.73691 0
M  V30 1103 C 113.979 -0.322304 1.86029 0
M  V30 1104 O 113.336 -1.22186 1.35561 0
M  V30 1105 C 113.387 1.76933 3.15241 0
M  V30 1106 O 113.108 3.15932 3.03511 0
M  V30 1107 C 114.609 1.6995 4.09429 0
M  V30 1108 H 111.829 0.3923 0.544373 0
M  V30 1109 H 114.373 1.6544 1.20207 0
M  V30 1110 H 112.528 1.27895 3.6568 0
M  V30 1111 H 112.942 3.47598 3.9278 0
M  V30 1112 H 114.416 2.19753 5.06372 0
M  V30 1113 H 114.893 0.662619 4.34173 0
M  V30 1114 H 115.499 2.18461 3.64904 0
M  V30 1115 N 113.814 -1.1601 1.06675 0
M  V30 1116 C 115.06 -1.86909 0.786945 0
M  V30 1117 C 115.393 -1.81717 -0.685018 0
M  V30 1118 O 114.668 -1.23551 -1.50218 0
M  V30 1119 C 114.951 -3.36313 1.28707 0
M  V30 1120 C 114.804 -3.50175 2.82308 0
M  V30 1121 C 116.123 -4.3084 0.898071 0
M  V30 1122 H 113.242 -0.678677 0.287343 0
M  V30 1123 H 115.884 -1.36336 1.32334 0
M  V30 1124 H 114.034 -3.79513 0.830768 0
M  V30 1125 H 115.706 -3.15886 3.36175 0
M  V30 1126 H 113.949 -2.91959 3.20847 0
M  V30 1127 H 114.62 -4.55116 3.12368 0
M  V30 1128 H 117.096 -3.95561 1.29114 0
M  V30 1129 H 115.972 -5.33876 1.27543 0
M  V30 1130 H 116.233 -4.41662 -0.196651 0
M  V30 1131 N 115.292 -0.849877 -1.32721 0
M  V30 1132 C 116.538 -0.451591 -1.97708 0
M  V30 1133 C 116.871 0.989175 -1.6712 0
M  V30 1134 O 116.146 1.69334 -0.956891 0
M  V30 1135 C 116.429 -0.685598 -3.53513 0
M  V30 1136 C 116.282 -2.17444 -3.93749 0
M  V30 1137 C 117.601 -0.138874 -4.39881 0
M  V30 1138 H 114.72 -0.16555 -0.718166 0
M  V30 1139 H 117.362 -1.06742 -1.57182 0
M  V30 1140 H 115.512 -0.161416 -3.88165 0
M  V30 1141 H 117.184 -2.76433 -3.693 0
M  V30 1142 H 115.427 -2.65476 -3.43081 0
M  V30 1143 H 116.098 -2.28888 -5.02309 0
M  V30 1144 H 118.574 -0.587068 -4.11938 0
M  V30 1145 H 117.45 -0.332213 -5.47894 0
M  V30 1146 H 117.711 0.95806 -4.31594 0
M  V30 1147 N 116.77 1.45427 -0.607355 0
M  V30 1148 C 117.68 2.34325 0.113463 0
M  V30 1149 C 118.696 1.51226 0.860617 0
M  V30 1150 O 119.872 1.84029 0.818255 0
M  V30 1151 C 116.937 3.28839 1.09844 0
M  V30 1152 C 115.998 4.27844 0.353271 0
M  V30 1153 C 115.231 5.17842 1.29133 0
M  V30 1154 O 115.454 5.11264 2.52913 0
M  V30 1155 O 114.388 5.96713 0.788523 0
M  V30 1156 H 118.214 2.97364 -0.617094 0
M  V30 1157 H 115.799 1.44807 -0.367619 0
M  V30 1158 H 117.681 3.8708 1.66575 0
M  V30 1159 H 116.356 2.68365 1.81003 0
M  V30 1160 H 115.263 3.7322 -0.256494 0
M  V30 1161 H 116.596 4.91173 -0.317822 0
M  V30 1162 N 118.248 0.346503 1.53744 0
M  V30 1163 C 119.195 -0.508914 2.25119 0
M  V30 1164 C 120.165 -1.09315 1.25058 0
M  V30 1165 O 121.35 -1.12921 1.53797 0
M  V30 1166 C 118.49 -1.65246 3.02965 0
M  V30 1167 C 117.603 -1.09525 4.17886 0
M  V30 1168 C 116.738 -2.20634 4.83212 0
M  V30 1169 C 115.777 -1.62279 5.90196 0
M  V30 1170 N 114.914 -2.67143 6.49291 0
M  V30 1171 H 119.754 0.106283 2.9781 0
M  V30 1172 H 117.291 0.0642227 1.4696 0
M  V30 1173 H 119.249 -2.32574 3.4636 0
M  V30 1174 H 117.879 -2.2386 2.32565 0
M  V30 1175 H 116.931 -0.312818 3.79112 0
M  V30 1176 H 118.243 -0.628444 4.94825 0
M  V30 1177 H 117.397 -2.95821 5.29693 0
M  V30 1178 H 116.136 -2.70659 4.05703 0
M  V30 1179 H 115.141 -0.855989 5.43096 0
M  V30 1180 H 116.366 -1.13102 6.69615 0
M  V30 1181 H 114.312 -3.16417 5.74645 0
M  V30 1182 H 114.229 -2.25093 7.21713 0
M  V30 1183 H 115.497 -3.4209 7.00425 0
M  V30 1184 N 119.726 -1.57421 0.075193 0
M  V30 1185 C 120.974 -1.93236 -0.591974 0
M  V30 1186 C 121.295 -0.956241 -1.69944 0
M  V30 1187 O 120.565 -0.00494792 -1.95899 0
M  V30 1188 H 119.145 -0.713355 -0.22166 0
M  V30 1189 H 121.807 -1.9444 0.133848 0
M  V30 1190 H 120.903 -2.95131 -1.01509 0
M  V30 1191 N 121.204 0.198386 -1.56346 0
M  V30 1192 C 122.134 1.24865 -1.9731 0
M  V30 1193 C 123.115 1.47651 -0.844576 0
M  V30 1194 O 124.3 1.59444 -1.10866 0
M  V30 1195 C 121.43 2.59358 -2.30977 0
M  V30 1196 C 120.384 2.5119 -3.46537 0
M  V30 1197 C 119.71 3.89926 -3.65871 0
M  V30 1198 C 121.01 2.03977 -4.80823 0
M  V30 1199 H 122.704 0.908252 -2.85291 0
M  V30 1200 H 120.25 0.435462 -1.37258 0
M  V30 1201 H 122.203 3.33011 -2.58228 0
M  V30 1202 H 120.927 2.95132 -1.39874 0
M  V30 1203 H 119.586 1.79993 -3.19371 0
M  V30 1204 H 119.234 4.23046 -2.72105 0
M  V30 1205 H 118.934 3.85336 -4.4361 0
M  V30 1206 H 120.458 4.65205 -3.95495 0
M  V30 1207 H 121.872 2.67386 -5.07127 0
M  V30 1208 H 120.269 2.10397 -5.62008 0
M  V30 1209 H 121.339 0.992861 -4.74626 0
M  V30 1210 N 122.682 1.50554 0.465978 0
M  V30 1211 C 123.929 1.61798 1.21768 0
M  V30 1212 C 124.257 0.320696 1.91838 0
M  V30 1213 O 123.512 -0.693724 1.82992 0
M  V30 1214 C 123.811 2.75152 2.28093 0
M  V30 1215 C 123.477 4.15454 1.75239 0
M  V30 1216 C 122.139 4.53628 1.60546 0
M  V30 1217 C 124.491 5.03121 1.36083 0
M  V30 1218 C 121.819 5.77204 1.05128 0
M  V30 1219 C 124.171 6.27249 0.821056 0
M  V30 1220 C 122.835 6.64221 0.660795 0
M  V30 1221 H 122.105 0.592063 0.445582 0
M  V30 1222 H 124.752 1.84503 0.512927 0
M  V30 1223 H 123.057 2.46556 3.04496 0
M  V30 1224 H 124.754 2.81055 2.86023 0
M  V30 1225 H 121.344 3.85341 1.87644 0
M  V30 1226 H 125.528 4.74257 1.46267 0
M  V30 1227 H 120.784 6.0452 0.91462 0
M  V30 1228 H 124.958 6.94537 0.509018 0
M  V30 1229 H 122.585 7.59854 0.229226 0
M  V30 1230 N 124.16 -0.719506 1.40217 0
M  V30 1231 C 125.571 -1.29848 1.34151 0
M  V30 1232 C 125.922 -1.96196 0.0131349 0
M  V30 1233 O 125.047 -1.973 -0.88892 0
M  V30 1234 C 125.642 -2.36118 2.42968 0
M  V30 1235 C 124.201 -2.8965 2.40374 0
M  V30 1236 C 123.348 -1.63393 2.24049 0
M  V30 1237 H 126.299 -0.51591 1.5008 0
M  V30 1238 H 126.32 -3.16871 2.10649 0
M  V30 1239 H 125.832 -1.878 3.39636 0
M  V30 1240 H 123.933 -3.42208 1.47392 0
M  V30 1241 H 124.046 -3.4171 3.35814 0
M  V30 1242 H 122.41 -1.88312 1.71495 0
M  V30 1243 H 123.193 -1.17104 3.2271 0
M  V30 1244 N 125.638 -1.25649 -0.95132 0
M  V30 1245 C 126.601 -1.06399 -2.03007 0
M  V30 1246 C 127.601 -0.0156794 -1.60792 0
M  V30 1247 O 128.791 -0.25817 -1.72276 0
M  V30 1248 C 125.923 -0.616184 -3.35285 0
M  V30 1249 H 127.116 -2.02164 -2.21517 0
M  V30 1250 H 124.669 -1.08103 -1.12887 0
M  V30 1251 H 125.404 0.343917 -3.22471 0
M  V30 1252 H 125.189 -1.37301 -3.67275 0
M  V30 1253 H 126.679 -0.503032 -4.14559 0
M  V30 1254 N 127.117 1.15442 -1.07289 0
M  V30 1255 C 128.345 1.90096 -0.81676 0
M  V30 1256 C 128.76 1.7798 0.629966 0
M  V30 1257 O 128.117 1.1313 1.43206 0
M  V30 1258 C 128.168 3.40466 -1.21512 0
M  V30 1259 O 127.889 3.52232 -2.60508 0
M  V30 1260 C 129.39 4.32145 -0.988198 0
M  V30 1261 H 126.61 0.602495 -0.295366 0
M  V30 1262 H 129.154 1.4627 -1.42918 0
M  V30 1263 H 127.309 3.81958 -0.647039 0
M  V30 1264 H 127.723 4.45549 -2.76742 0
M  V30 1265 H 129.197 5.36072 -1.31645 0
M  V30 1266 H 129.674 4.39135 0.0755063 0
M  V30 1267 H 130.28 3.96395 -1.54115 0
M  V30 1268 N 128.595 0.856903 1.32268 0
M  V30 1269 C 129.843 0.460474 1.96784 0
M  V30 1270 C 130.164 -0.987701 1.68135 0
M  V30 1271 O 129.434 -1.69058 0.989765 0
M  V30 1272 H 128.014 0.167289 0.728027 0
M  V30 1273 H 130.676 1.09383 1.61312 0
M  V30 1274 H 129.772 0.60739 3.06133 0
M  V30 1275 N 130.073 -1.45103 0.615059 0
M  V30 1276 C 131.023 -2.27679 -0.120966 0
M  V30 1277 C 132.007 -1.3775 -0.831491 0
M  V30 1278 O 133.199 -1.61683 -0.720249 0
M  V30 1279 C 130.328 -3.24767 -1.1127 0
M  V30 1280 C 129.414 -4.22184 -0.402627 0
M  V30 1281 N 129.805 -5.02692 0.559884 0
M  V30 1282 C 128.103 -4.4125 -0.649202 0
M  V30 1283 C 128.804 -5.73421 0.977942 0
M  V30 1284 N 127.78 -5.42657 0.320104 0
M  V30 1285 H 131.582 -2.87325 0.618181 0
M  V30 1286 H 129.096 -1.56345 0.439304 0
M  V30 1287 H 131.093 -3.82666 -1.65446 0
M  V30 1288 H 129.753 -2.66682 -1.85232 0
M  V30 1289 H 130.764 -5.09354 0.936976 0
M  V30 1290 H 127.441 -3.9428 -1.37293 0
M  V30 1291 H 128.831 -6.48107 1.77222 0
M  V30 1292 N 131.551 -0.354651 -1.53558 0
M  V30 1293 C 132.962 0.126902 -1.86268 0
M  V30 1294 C 133.313 1.49075 -1.27558 0
M  V30 1295 O 132.438 2.08105 -0.5934 0
M  V30 1296 C 133.033 0.237046 -3.3797 0
M  V30 1297 C 131.592 0.662842 -3.70518 0
M  V30 1298 C 130.739 -0.196652 -2.76602 0
M  V30 1299 H 133.69 -0.573849 -1.47962 0
M  V30 1300 H 133.711 1.06259 -3.65362 0
M  V30 1301 H 133.223 -0.755725 -3.80671 0
M  V30 1302 H 131.324 1.66424 -3.33367 0
M  V30 1303 H 131.437 0.445034 -4.77029 0
M  V30 1304 H 129.801 0.332763 -2.52517 0
M  V30 1305 H 130.584 -1.18676 -3.22135 0
M  V30 1306 N 133.029 1.57378 -0.0835403 0
M  V30 1307 C 134.275 1.94217 0.583733 0
M  V30 1308 C 134.608 0.964653 1.68547 0
M  V30 1309 O 133.883 -0.00422258 1.945 0
M  V30 1310 C 134.166 3.41253 1.14972 0
M  V30 1311 C 134.019 4.49768 0.0538277 0
M  V30 1312 C 135.338 3.89352 2.05166 0
M  V30 1313 H 132.457 0.706233 0.210724 0
M  V30 1314 H 135.099 1.89392 -0.1519 0
M  V30 1315 H 133.249 3.45496 1.77665 0
M  V30 1316 H 134.921 4.57641 -0.579851 0
M  V30 1317 H 133.164 4.29432 -0.614068 0
M  V30 1318 H 133.835 5.49817 0.490452 0
M  V30 1319 H 136.311 3.87189 1.52393 0
M  V30 1320 H 135.187 4.92822 2.41698 0
M  V30 1321 H 135.448 3.27973 2.96456 0
M  V30 1322 N 134.507 -0.190092 1.56449 0
M  V30 1323 C 135.784 -0.935886 1.71757 0
M  V30 1324 C 136.164 -2.01173 0.639726 0
M  V30 1325 O 135.512 -2.25827 -0.348502 0
M  V30 1326 C 135.722 -1.51775 3.1427 0
M  V30 1327 C 137.07 -1.99794 3.74656 0
M  V30 1328 O 138.094 -1.61607 3.1743 0
M  V30 1329 O 136.953 -2.70079 4.751 0
M  V30 1330 H 134.047 -0.439229 0.700719 0
M  V30 1331 H 136.593 -0.179395 1.68749 0
M  V30 1332 H 135.365 -0.742505 3.84191 0
M  V30 1333 H 134.988 -2.33894 3.21527 0
M  V30 1334 N 135.985 -1.50799 -0.457987 0
M  V30 1335 C 137.262 -1.52968 -1.21902 0
M  V30 1336 C 137.642 -0.281906 -2.09209 0
M  V30 1337 O 136.99 0.734076 -2.16388 0
M  V30 1338 C 137.2 -2.8326 -2.03875 0
M  V30 1339 C 138.548 -3.34425 -2.6162 0
M  V30 1340 O 139.572 -2.8467 -2.14106 0
M  V30 1341 O 138.431 -4.21188 -3.48228 0
M  V30 1342 H 135.525 -0.614129 -0.553873 0
M  V30 1343 H 138.071 -1.63098 -0.468739 0
M  V30 1344 H 136.843 -3.65543 -1.39621 0
M  V30 1345 H 136.466 -2.76195 -2.8601 0
M  V30 1346 N 137.463 0.71206 -1.40597 0
M  V30 1347 C 138.393 1.83889 -1.43899 0
M  V30 1348 C 139.374 1.67442 -0.299504 0
M  V30 1349 O 140.559 1.87421 -0.508624 0
M  V30 1350 C 137.689 3.21877 -1.30431 0
M  V30 1351 C 136.643 3.53002 -2.42019 0
M  V30 1352 C 135.969 4.90172 -2.13626 0
M  V30 1353 C 137.269 3.53643 -3.84362 0
M  V30 1354 H 138.963 1.81383 -2.38203 0
M  V30 1355 H 136.509 0.871237 -1.14654 0
M  V30 1356 H 138.462 4.00404 -1.31357 0
M  V30 1357 H 137.186 3.24968 -0.326049 0
M  V30 1358 H 135.845 2.76818 -2.40349 0
M  V30 1359 H 135.493 4.89869 -1.14182 0
M  V30 1360 H 135.193 5.11962 -2.88389 0
M  V30 1361 H 136.717 5.71028 -2.1624 0
M  V30 1362 H 138.131 4.22203 -3.87837 0
M  V30 1363 H 136.528 3.86961 -4.58673 0
M  V30 1364 H 137.598 2.52954 -4.13693 0
M  V30 1365 N 138.941 1.26152 0.944643 0
M  V30 1366 C 139.871 1.09902 2.06019 0
M  V30 1367 C 140.852 0.00519538 1.70099 0
M  V30 1368 O 142.037 0.176583 1.93396 0
M  V30 1369 C 139.167 0.727562 3.39594 0
M  V30 1370 C 138.121 1.77274 3.89561 0
M  V30 1371 C 137.447 1.25569 5.19747 0
M  V30 1372 C 138.747 3.17357 4.14827 0
M  V30 1373 H 140.441 2.03217 2.19871 0
M  V30 1374 H 137.987 0.978452 1.05652 0
M  V30 1375 H 139.94 0.600777 4.17095 0
M  V30 1376 H 138.664 -0.241287 3.25707 0
M  V30 1377 H 137.323 1.88814 3.14237 0
M  V30 1378 H 136.971 0.276783 5.02238 0
M  V30 1379 H 136.671 1.95433 5.54148 0
M  V30 1380 H 138.195 1.1415 5.99835 0
M  V30 1381 H 139.609 3.08914 4.82954 0
M  V30 1382 H 138.006 3.84781 4.60504 0
M  V30 1383 H 139.076 3.63673 3.20734 0
M  V30 1384 N 140.419 -1.14872 1.07899 0
M  V30 1385 C 141.382 -2.17986 0.708161 0
M  V30 1386 C 142.382 -1.58775 -0.25442 0
M  V30 1387 O 143.572 -1.74166 -0.034645 0
M  V30 1388 C 140.704 -3.40871 0.0446929 0
M  V30 1389 H 141.897 -2.52306 1.62116 0
M  V30 1390 H 139.45 -1.2943 0.876218 0
M  V30 1391 H 140.185 -3.12124 -0.880281 0
M  V30 1392 H 139.97 -3.8511 0.737091 0
M  V30 1393 H 141.46 -4.17121 -0.19991 0
M  V30 1394 N 141.898 -0.863906 -1.31812 0
M  V30 1395 C 143.175 -0.39275 -1.91616 0
M  V30 1396 C 143.555 1.12461 -1.7865 0
M  V30 1397 O 142.903 1.95045 -1.19037 0
M  V30 1398 C 143.113 -0.867385 -3.38049 0
M  V30 1399 C 144.461 -0.889966 -4.15168 0
M  V30 1400 O 145.485 -0.812635 -3.46806 0
M  V30 1401 O 144.344 -1.00079 -5.37258 0
M  V30 1402 H 141.438 -0.116358 -0.818773 0
M  V30 1403 H 143.984 -0.951418 -1.40521 0
M  V30 1404 H 142.756 -1.91081 -3.41473 0
M  V30 1405 H 142.379 -0.286687 -3.96565 0
M  V30 1406 N 143.376 1.44774 -0.622745 0
M  V30 1407 C 144.604 2.06487 -0.130722 0
M  V30 1408 C 145.019 1.46476 1.19123 0
M  V30 1409 O 144.376 0.584502 1.72887 0
M  V30 1410 C 144.427 3.615 -0.000807207 0
M  V30 1411 O 144.148 4.19274 -1.27048 0
M  V30 1412 C 145.649 4.40229 0.520898 0
M  V30 1413 H 142.869 0.666704 -0.0758106 0
M  V30 1414 H 145.413 1.85779 -0.854774 0
M  V30 1415 H 143.568 3.81498 0.673643 0
M  V30 1416 H 143.982 5.12622 -1.1099 0
M  V30 1417 H 145.456 5.49144 0.560838 0
M  V30 1418 H 145.933 4.1108 1.54627 0
M  V30 1419 H 146.539 4.25131 -0.120018 0
M  V30 1420 N 144.854 0.36279 1.53368 0
M  V30 1421 C 145.786 -0.519668 2.23231 0
M  V30 1422 C 146.799 -1.04844 1.24546 0
M  V30 1423 O 147.988 -0.955296 1.50786 0
M  V30 1424 C 145.088 -1.72995 2.9142 0
M  V30 1425 C 144.261 -1.33316 4.16588 0
M  V30 1426 C 143.32 -2.40521 4.68013 0
M  V30 1427 O 142.346 -2.03027 5.3176 0
M  V30 1428 N 143.548 -3.72065 4.45587 0
M  V30 1429 H 146.313 0.078751 2.99597 0
M  V30 1430 H 143.874 0.187833 1.60807 0
M  V30 1431 H 145.866 -2.44184 3.22733 0
M  V30 1432 H 144.436 -2.2353 2.18525 0
M  V30 1433 H 143.656 -0.451236 3.91609 0
M  V30 1434 H 144.944 -1.04432 4.97967 0
M  V30 1435 H 144.342 -4.05304 3.94646 0
M  V30 1436 H 142.899 -4.39366 4.81457 0
M  V30 1437 N 146.332 -1.57332 0.0918853 0
M  V30 1438 C 147.279 -2.13847 -0.868211 0
M  V30 1439 C 148.249 -1.05618 -1.28196 0
M  V30 1440 O 149.434 -1.33387 -1.36427 0
M  V30 1441 C 146.574 -2.72062 -2.12312 0
M  V30 1442 C 145.687 -3.94514 -1.7602 0
M  V30 1443 C 144.822 -4.40903 -2.96273 0
M  V30 1444 C 143.861 -5.55953 -2.56092 0
M  V30 1445 N 142.998 -5.97209 -3.69169 0
M  V30 1446 H 147.838 -2.95575 -0.379406 0
M  V30 1447 H 145.375 -1.46048 -0.175606 0
M  V30 1448 H 147.333 -3.03931 -2.858 0
M  V30 1449 H 145.963 -1.93068 -2.58698 0
M  V30 1450 H 145.015 -3.68979 -0.925135 0
M  V30 1451 H 146.327 -4.7802 -1.42472 0
M  V30 1452 H 145.481 -4.74539 -3.78018 0
M  V30 1453 H 144.22 -3.56291 -3.33029 0
M  V30 1454 H 143.225 -5.21948 -1.72773 0
M  V30 1455 H 144.45 -6.42311 -2.20484 0
M  V30 1456 H 142.396 -5.15543 -4.05649 0
M  V30 1457 H 142.313 -6.75504 -3.39456 0
M  V30 1458 H 143.581 -6.35475 -4.51434 0
M  V30 1459 N 147.81 0.181792 -1.56548 0
M  V30 1460 C 148.76 1.22961 -1.92002 0
M  V30 1461 C 149.744 1.40331 -0.787146 0
M  V30 1462 O 150.936 1.42478 -1.05019 0
M  V30 1463 C 148.065 2.57144 -2.27446 0
M  V30 1464 C 147.151 2.43512 -3.47222 0
M  V30 1465 N 147.542 1.99577 -4.64761 0
M  V30 1466 C 145.84 2.74368 -3.51622 0
M  V30 1467 C 146.541 1.98156 -5.46909 0
M  V30 1468 N 145.517 2.40164 -4.8767 0
M  V30 1469 H 149.319 0.881462 -2.8037 0
M  V30 1470 H 146.833 0.390141 -1.57644 0
M  V30 1471 H 148.83 3.32847 -2.51035 0
M  V30 1472 H 147.49 2.92771 -1.40411 0
M  V30 1473 H 148.501 1.70078 -4.89177 0
M  V30 1474 H 145.178 3.14102 -2.75038 0
M  V30 1475 H 146.568 1.65975 -6.51077 0
M  V30 1476 N 149.288 1.51039 0.449983 0
M  V30 1477 C 150.218 1.74379 1.55288 0
M  V30 1478 C 151.199 0.593236 1.5942 0
M  V30 1479 O 152.384 0.834625 1.7535 0
M  V30 1480 C 149.514 1.85728 2.93466 0
M  V30 1481 C 148.468 3.01078 3.04197 0
M  V30 1482 C 147.794 2.97595 4.44231 0
M  V30 1483 C 149.094 4.41254 2.7945 0
M  V30 1484 H 150.788 2.66725 1.36008 0
M  V30 1485 H 148.334 1.2835 0.652864 0
M  V30 1486 H 150.287 2.0064 3.70569 0
M  V30 1487 H 149.011 0.900207 3.13949 0
M  V30 1488 H 147.67 2.85851 2.29531 0
M  V30 1489 H 147.318 1.99691 4.61663 0
M  V30 1490 H 147.018 3.75046 4.52343 0
M  V30 1491 H 148.542 3.14583 5.23326 0
M  V30 1492 H 149.956 4.56897 3.46292 0
M  V30 1493 H 148.353 5.20315 2.98985 0
M  V30 1494 H 149.423 4.52164 1.75144 0
M  V30 1495 N 150.766 -0.704594 1.40972 0
M  V30 1496 C 152.177 -1.28418 1.3552 0
M  V30 1497 C 152.528 -1.96171 0.0339434 0
M  V30 1498 O 151.653 -1.98231 -0.867944 0
M  V30 1499 C 152.248 -2.33528 2.45459 0
M  V30 1500 C 150.807 -2.87085 2.43433 0
M  V30 1501 C 149.954 -1.61007 2.2577 0
M  V30 1502 H 152.905 -0.499963 1.50619 0
M  V30 1503 H 152.926 -3.14619 2.13998 0
M  V30 1504 H 152.438 -1.84187 3.41609 0
M  V30 1505 H 150.539 -3.40626 1.51013 0
M  V30 1506 H 150.652 -3.3813 3.39419 0
M  V30 1507 H 149.016 -1.86482 1.73483 0
M  V30 1508 H 149.799 -1.13675 3.23933 0
M  V30 1509 N 152.244 -1.26651 -0.937939 0
M  V30 1510 C 153.49 -1.12553 -1.687 0
M  V30 1511 C 153.823 0.329782 -1.91379 0
M  V30 1512 O 153.098 1.24202 -1.4968 0
M  V30 1513 C 153.381 -1.89862 -3.05981 0
M  V30 1514 C 153.234 -3.43318 -2.90607 0
M  V30 1515 C 154.553 -1.69499 -4.0615 0
M  V30 1516 H 151.672 -0.410257 -0.612257 0
M  V30 1517 H 154.314 -1.55685 -1.08913 0
M  V30 1518 H 152.464 -1.53204 -3.57017 0
M  V30 1519 H 154.136 -3.89747 -2.46769 0
M  V30 1520 H 152.379 -3.70179 -2.26164 0
M  V30 1521 H 153.05 -3.92642 -3.8799 0
M  V30 1522 H 155.526 -2.01442 -3.64088 0
M  V30 1523 H 154.402 -2.26002 -5.00214 0
M  V30 1524 H 154.663 -0.640365 -4.37438 0
M  V30 1525 N 153.722 1.14298 -1.08507 0
M  V30 1526 C 154.947 1.8976 -0.837001 0
M  V30 1527 C 155.372 1.78097 0.605228 0
M  V30 1528 O 154.73 1.12188 1.4242 0
M  V30 1529 C 154.778 3.37685 -1.26495 0
M  V30 1530 O 153.882 4.10281 -0.417514 0
M  V30 1531 H 153.223 0.590365 -0.303917 0
M  V30 1532 H 155.753 1.44672 -1.44676 0
M  V30 1533 H 155.763 3.88501 -1.24625 0
M  V30 1534 H 154.438 3.45492 -2.31534 0
M  V30 1535 H 153.015 3.69536 -0.499722 0
M  V30 1536 N 155.201 0.870884 1.31352 0
M  V30 1537 C 156.134 0.271983 2.26573 0
M  V30 1538 C 157.112 -0.599385 1.51149 0
M  V30 1539 O 158.296 -0.552605 1.80218 0
M  V30 1540 C 155.423 -0.614801 3.33073 0
M  V30 1541 C 154.469 0.185342 4.26097 0
M  V30 1542 S 155.302 1.56444 5.12138 0
M  V30 1543 C 156.458 0.683807 6.22153 0
M  V30 1544 H 156.691 1.07916 2.77023 0
M  V30 1545 H 154.224 0.669459 1.39132 0
M  V30 1546 H 156.182 -1.12074 3.94905 0
M  V30 1547 H 154.843 -1.39593 2.81376 0
M  V30 1548 H 154.036 -0.490771 5.01605 0
M  V30 1549 H 153.638 0.623415 3.68768 0
M  V30 1550 H 155.93 -0.10521 6.77418 0
M  V30 1551 H 156.873 1.41004 6.93919 0
M  V30 1552 H 157.281 0.250952 5.63942 0
M  V30 1553 N 156.679 -1.44442 0.630414 0
M  V30 1554 C 157.926 -2.02052 0.134617 0
M  V30 1555 C 158.254 -1.49576 -1.24327 0
M  V30 1556 O 157.509 -0.669806 -1.83881 0
M  V30 1557 C 157.808 -3.57332 0.0697835 0
M  V30 1558 C 157.474 -4.29058 1.38635 0
M  V30 1559 C 156.136 -4.4837 1.74694 0
M  V30 1560 C 158.488 -4.69872 2.25543 0
M  V30 1561 C 155.816 -5.05756 2.97369 0
M  V30 1562 C 158.168 -5.28616 3.47487 0
M  V30 1563 C 156.832 -5.46147 3.8377 0
M  V30 1564 H 156.102 -0.739361 0.0492598 0
M  V30 1565 H 158.749 -1.73217 0.816586 0
M  V30 1566 H 157.054 -3.85577 -0.695553 0
M  V30 1567 H 158.751 -3.99637 -0.330344 0
M  V30 1568 H 155.341 -4.14357 1.09574 0
M  V30 1569 H 159.525 -4.54666 1.98979 0
M  V30 1570 H 154.781 -5.17515 3.25558 0
M  V30 1571 H 158.955 -5.59192 4.15063 0
M  V30 1572 H 156.582 -5.9038 4.7891 0
M  V30 1573 N 158.157 -0.370918 -1.53173 0
M  V30 1574 C 159.12 0.460778 -2.24521 0
M  V30 1575 C 160.12 1.00536 -1.25496 0
M  V30 1576 O 161.31 0.890266 -1.49733 0
M  V30 1577 C 158.442 1.64457 -2.98608 0
M  V30 1578 H 159.635 -0.163613 -2.99453 0
M  V30 1579 H 157.188 -0.122699 -1.55818 0
M  V30 1580 H 157.923 2.30691 -2.2793 0
M  V30 1581 H 157.708 1.26099 -3.7127 0
M  V30 1582 H 159.198 2.23384 -3.5283 0
M  V30 1583 N 159.635 1.57281 -0.100228 0
M  V30 1584 C 160.884 1.93713 0.561984 0
M  V30 1585 C 161.197 0.984492 1.69018 0
M  V30 1586 O 162.403 1.24273 2.41389 0
M  V30 1587 C 160.859 3.4421 1.05106 0
M  V30 1588 C 160.467 4.47975 -0.0476628 0
M  V30 1589 C 162.211 3.89595 1.68571 0
M  V30 1590 C 160.118 5.89631 0.457055 0
M  V30 1591 H 159.048 0.723082 0.2137 0
M  V30 1592 H 161.699 1.82644 -0.177057 0
M  V30 1593 H 160.081 3.50449 1.84395 0
M  V30 1594 H 161.255 4.53385 -0.823333 0
M  V30 1595 H 159.57 4.1223 -0.587816 0
M  V30 1596 H 162.167 4.92832 2.07414 0
M  V30 1597 H 162.51 3.28526 2.55688 0
M  V30 1598 H 163.043 3.86078 0.958562 0
M  V30 1599 H 159.782 6.54411 -0.377616 0
M  V30 1600 H 159.302 5.87681 1.19962 0
M  V30 1601 H 160.981 6.40363 0.92437 0
M  V30 1602 N 161.113 -0.173488 1.56642 0
M  V30 1603 C 162.39 -0.917617 1.7274 0
M  V30 1604 C 162.77 -2.00484 0.661027 0
M  V30 1605 O 162.118 -2.26184 -0.32453 0
M  V30 1606 C 162.328 -1.48433 3.15862 0
M  V30 1607 C 163.676 -1.95809 3.76754 0
M  V30 1608 O 164.7 -1.58231 3.19126 0
M  V30 1609 O 163.559 -2.65024 4.77938 0
M  V30 1610 H 160.653 -0.431772 0.705338 0
M  V30 1611 H 163.199 -0.161487 1.6893 0
M  V30 1612 H 161.971 -0.701715 3.84957 0
M  V30 1613 H 161.594 -2.30471 3.23989 0
M  V30 1614 N 162.591 -1.51276 -0.441967 0
M  V30 1615 C 163.839 -1.63392 -1.18943 0
M  V30 1616 C 164.16 -0.350159 -1.9183 0
M  V30 1617 O 163.43 0.633784 -1.85364 0
M  V30 1618 H 162.01 -0.602164 -0.442049 0
M  V30 1619 H 164.672 -1.88186 -0.507165 0
M  V30 1620 H 163.768 -2.45934 -1.92154 0
M  V30 1621 N 164.069 0.697108 -1.41344 0
M  V30 1622 C 164.979 1.84088 -1.45427 0
M  V30 1623 C 165.995 1.70545 -0.34501 0
M  V30 1624 O 167.171 1.92488 -0.592492 0
M  V30 1625 C 164.236 3.20056 -1.33286 0
M  V30 1626 C 163.297 3.45718 -2.54514 0
M  V30 1627 C 162.53 4.75199 -2.42944 0
M  V30 1628 O 162.753 5.51579 -1.45318 0
M  V30 1629 O 161.687 5.0161 -3.32672 0
M  V30 1630 H 165.513 1.836 -2.41919 0
M  V30 1631 H 163.098 0.849966 -1.22866 0
M  V30 1632 H 164.98 4.01236 -1.28794 0
M  V30 1633 H 163.655 3.2123 -0.39909 0
M  V30 1634 H 162.562 2.64474 -2.64583 0
M  V30 1635 H 163.895 3.49356 -3.46715 0
M  V30 1636 N 165.547 1.27147 0.931209 0
M  V30 1637 C 166.793 1.13446 1.68101 0
M  V30 1638 C 167.126 -0.319628 1.91552 0
M  V30 1639 O 166.401 -1.23407 1.50336 0
M  V30 1640 C 166.684 1.91482 3.0497 0
M  V30 1641 C 166.537 3.44855 2.88782 0
M  V30 1642 C 167.856 1.71651 4.05246 0
M  V30 1643 H 164.975 0.413498 0.610072 0
M  V30 1644 H 167.617 1.56261 1.08086 0
M  V30 1645 H 165.767 1.55095 3.56199 0
M  V30 1646 H 167.439 3.9105 2.44698 0
M  V30 1647 H 165.682 3.71373 2.24198 0
M  V30 1648 H 166.353 3.94694 3.85902 0
M  V30 1649 H 168.829 2.0337 3.63015 0
M  V30 1650 H 167.705 2.28651 4.99009 0
M  V30 1651 H 167.966 0.663555 4.37092 0
M  V30 1652 N 167.025 -1.13721 1.09112 0
M  V30 1653 C 168.253 -1.88773 0.846899 0
M  V30 1654 C 168.668 -1.7896 -0.601572 0
M  V30 1655 O 168.025 -1.15394 -1.41388 0
M  V30 1656 C 168.076 -3.3849 1.26913 0
M  V30 1657 O 167.797 -3.48043 2.66079 0
M  V30 1658 C 169.298 -4.30518 1.05682 0
M  V30 1659 H 166.518 -0.59772 0.304914 0
M  V30 1660 H 169.062 -1.43977 1.45227 0
M  V30 1661 H 167.217 -3.80881 0.707723 0
M  V30 1662 H 167.631 -4.4109 2.83795 0
M  V30 1663 H 169.105 -5.3391 1.40156 0
M  V30 1664 H 169.582 -4.392 -0.00563416 0
M  V30 1665 H 170.188 -3.93893 1.60402 0
M  V30 1666 N 168.503 -0.877838 -1.30888 0
M  V30 1667 C 169.751 -0.491723 -1.96027 0
M  V30 1668 C 170.072 0.960827 -1.69685 0
M  V30 1669 O 169.342 1.67462 -1.01654 0
M  V30 1670 H 167.922 -0.17885 -0.725273 0
M  V30 1671 H 170.584 -1.11935 -1.59551 0
M  V30 1672 H 169.68 -0.656016 -3.05128 0
M  V30 1673 N 169.982 1.44106 -0.638065 0
M  V30 1674 C 171.23 2.01579 -0.145043 0
M  V30 1675 C 171.551 1.50496 1.24 0
M  V30 1676 O 170.821 0.711374 1.82527 0
M  V30 1677 H 169.401 0.745282 -0.05063 0
M  V30 1678 H 172.063 1.76516 -0.826327 0
M  V30 1679 H 171.159 3.11877 -0.118039 0
M  V30 1680 N 171.46 0.379036 1.52974 0
M  V30 1681 C 172.707 -0.206421 2.01445 0
M  V30 1682 C 173.035 -1.47668 1.26587 0
M  V30 1683 O 172.29 -1.92514 0.351675 0
M  V30 1684 C 172.589 -0.53096 3.53434 0
M  V30 1685 C 172.255 0.646546 4.46241 0
M  V30 1686 C 170.917 0.969604 4.7133 0
M  V30 1687 C 173.269 1.43479 5.01062 0
M  V30 1688 C 170.597 2.08263 5.48492 0
M  V30 1689 C 172.949 2.53834 5.7944 0
M  V30 1690 C 171.613 2.86659 6.02812 0
M  V30 1691 H 170.883 -0.0755349 0.73714 0
M  V30 1692 H 173.53 0.514271 1.84465 0
M  V30 1693 H 171.835 -1.33285 3.68432 0
M  V30 1694 H 173.532 -0.996417 3.88423 0
M  V30 1695 H 170.122 0.384734 4.2687 0
M  V30 1696 H 174.306 1.19844 4.81613 0
M  V30 1697 H 169.562 2.34078 5.64816 0
M  V30 1698 H 173.736 3.15319 6.20924 0
M  V30 1699 H 171.363 3.73026 6.62387 0
M  V30 1700 N 172.938 -1.57226 0.108567 0
M  V30 1701 C 173.885 -2.14756 -0.845481 0
M  V30 1702 C 174.855 -1.06971 -1.27068 0
M  V30 1703 O 176.04 -1.34827 -1.35005 0
M  V30 1704 C 173.18 -2.74298 -2.09415 0
M  V30 1705 C 172.293 -3.96358 -1.71826 0
M  V30 1706 C 171.428 -4.44021 -2.9158 0
M  V30 1707 C 170.467 -5.58637 -2.50181 0
M  V30 1708 N 169.604 -6.01091 -3.62814 0
M  V30 1709 H 174.444 -2.95961 -0.348035 0
M  V30 1710 H 171.981 -1.46226 -0.160106 0
M  V30 1711 H 173.939 -3.06945 -2.82561 0
M  V30 1712 H 172.569 -1.95801 -2.56636 0
M  V30 1713 H 171.621 -3.69939 -0.885947 0
M  V30 1714 H 172.933 -4.79504 -1.37394 0
M  V30 1715 H 172.087 -4.78522 -3.72963 0
M  V30 1716 H 170.826 -3.59803 -3.29231 0
M  V30 1717 H 169.831 -5.23751 -1.67228 0
M  V30 1718 H 171.056 -6.44613 -2.13659 0
M  V30 1719 H 169.002 -5.19817 -4.00158 0
M  V30 1720 H 168.919 -6.79066 -3.32273 0
M  V30 1721 H 170.187 -6.40227 -4.44668 0
M  V30 1722 N 174.416 0.165178 -1.56732 0
M  V30 1723 C 175.363 1.2044 -1.96883 0
M  V30 1724 C 176.333 1.43664 -0.833657 0
M  V30 1725 O 177.518 1.56302 -1.09427 0
M  V30 1726 C 174.658 2.53727 -2.33916 0
M  V30 1727 C 173.771 2.3783 -3.6064 0
M  V30 1728 C 172.906 3.64026 -3.86857 0
M  V30 1729 C 171.945 3.43088 -5.06909 0
M  V30 1730 N 171.082 4.61369 -5.29229 0
M  V30 1731 H 175.922 0.854996 -2.85471 0
M  V30 1732 H 173.459 0.41076 -1.41249 0
M  V30 1733 H 175.417 3.31419 -2.53411 0
M  V30 1734 H 174.047 2.8665 -1.48431 0
M  V30 1735 H 173.099 1.51282 -3.49024 0
M  V30 1736 H 174.411 2.18308 -4.4849 0
M  V30 1737 H 173.565 4.50152 -4.06753 0
M  V30 1738 H 172.304 3.86533 -2.97394 0
M  V30 1739 H 171.309 2.55349 -4.86906 0
M  V30 1740 H 172.534 3.21997 -5.97909 0
M  V30 1741 H 170.48 4.84084 -4.42718 0
M  V30 1742 H 170.397 4.44783 -6.11313 0
M  V30 1743 H 171.665 5.48761 -5.53608 0
M  V30 1744 N 175.894 1.51508 0.433938 0
M  V30 1745 C 177.122 1.68157 1.20543 0
M  V30 1746 C 177.537 0.380362 1.84929 0
M  V30 1747 O 176.894 -0.641446 1.70856 0
M  V30 1748 C 176.945 2.79965 2.28696 0
M  V30 1749 O 176.666 4.05045 1.66943 0
M  V30 1750 C 178.167 3.07912 3.18912 0
M  V30 1751 H 175.387 0.56421 0.363191 0
M  V30 1752 H 177.931 1.97941 0.513754 0
M  V30 1753 H 176.086 2.5277 2.93574 0
M  V30 1754 H 176.5 4.67165 2.38448 0
M  V30 1755 H 177.974 3.89719 3.90926 0
M  V30 1756 H 178.451 2.20456 3.79863 0
M  V30 1757 H 179.057 3.36779 2.59731 0
M  V30 1758 N 177.372 -0.689602 1.41712 0
M  V30 1759 C 178.602 -1.47613 1.44548 0
M  V30 1760 C 179.01 -1.89132 0.0509034 0
M  V30 1761 O 178.353 -1.57741 -0.94146 0
M  V30 1762 C 178.415 -2.76596 2.2964 0
M  V30 1763 C 178.079 -2.57245 3.77722 0
M  V30 1764 C 179.076 -2.22804 4.69739 0
M  V30 1765 C 176.761 -2.727 4.2183 0
M  V30 1766 C 178.755 -2.04064 6.03851 0
M  V30 1767 C 176.442 -2.53576 5.56006 0
M  V30 1768 C 177.44 -2.1931 6.46832 0
M  V30 1769 O 177.128 -2.00359 7.78532 0
M  V30 1770 H 176.86 -0.461227 0.494212 0
M  V30 1771 H 179.414 -0.856045 1.86711 0
M  V30 1772 H 177.644 -3.41033 1.82301 0
M  V30 1773 H 179.333 -3.38424 2.24107 0
M  V30 1774 H 180.099 -2.10473 4.36951 0
M  V30 1775 H 175.978 -2.98353 3.51435 0
M  V30 1776 H 179.522 -1.77241 6.74708 0
M  V30 1777 H 175.419 -2.65499 5.88371 0
M  V30 1778 H 176.187 -2.15075 7.89737 0
M  V30 1779 N 178.85 -1.27639 -0.924453 0
M  V30 1780 C 179.813 -1.10681 -2.00705 0
M  V30 1781 C 180.813 -0.0497823 -1.60723 0
M  V30 1782 O 182.003 -0.294654 -1.7169 0
M  V30 1783 C 179.135 -0.687164 -3.33902 0
M  V30 1784 H 180.328 -2.06817 -2.17179 0
M  V30 1785 H 177.881 -1.10473 -1.10569 0
M  V30 1786 H 178.616 0.275439 -3.23128 0
M  V30 1787 H 178.401 -1.45061 -3.6428 0
M  V30 1788 H 179.891 -0.590853 -4.13399 0
M  V30 1789 N 180.328 1.1314 -1.09713 0
M  V30 1790 C 181.575 1.84484 -0.834987 0
M  V30 1791 C 181.903 1.83689 0.639418 0
M  V30 1792 O 181.158 1.2724 1.4869 0
M  V30 1793 C 181.457 3.32167 -1.3191 0
M  V30 1794 C 181.123 3.53139 -2.80363 0
M  V30 1795 C 179.785 3.58571 -3.20905 0
M  V30 1796 C 182.137 3.60866 -3.76065 0
M  V30 1797 C 179.465 3.69267 -4.55916 0
M  V30 1798 C 181.817 3.73089 -5.10869 0
M  V30 1799 C 180.481 3.76775 -5.50996 0
M  V30 1800 H 179.751 0.675073 -0.305544 0
M  V30 1801 H 182.398 1.33554 -1.37243 0
M  V30 1802 H 180.703 3.85469 -0.701517 0
M  V30 1803 H 182.4 3.85821 -1.09284 0
M  V30 1804 H 178.99 3.49569 -2.47991 0
M  V30 1805 H 183.174 3.55946 -3.45855 0
M  V30 1806 H 178.43 3.70388 -4.86438 0
M  V30 1807 H 182.604 3.78011 -5.84877 0
M  V30 1808 H 180.231 3.84815 -6.55608 0
M  V30 1809 N 181.806 0.884767 1.30421 0
M  V30 1810 C 183.053 0.503105 1.96151 0
M  V30 1811 C 183.381 -0.947676 1.69851 0
M  V30 1812 O 182.636 -1.68467 0.995861 0
M  V30 1813 C 182.935 0.724318 3.49983 0
M  V30 1814 C 182.601 2.15015 3.96332 0
M  V30 1815 C 181.263 2.54005 4.08699 0
M  V30 1816 C 183.615 3.07936 4.20505 0
M  V30 1817 C 180.943 3.85128 4.42599 0
M  V30 1818 C 183.295 4.3859 4.55874 0
M  V30 1819 C 181.959 4.77474 4.66449 0
M  V30 1820 H 181.229 0.184099 0.717766 0
M  V30 1821 H 183.876 1.12058 1.55291 0
M  V30 1822 H 182.181 0.0238086 3.91793 0
M  V30 1823 H 183.878 0.408617 3.98913 0
M  V30 1824 H 180.468 1.8375 3.87213 0
M  V30 1825 H 184.652 2.79033 4.10431 0
M  V30 1826 H 179.908 4.14996 4.48986 0
M  V30 1827 H 184.082 5.10629 4.7353 0
M  V30 1828 H 181.709 5.79115 4.92473 0
M  V30 1829 N 183.284 -1.43765 0.645699 0
M  V30 1830 C 184.695 -1.85193 0.236719 0
M  V30 1831 C 185.046 -1.54045 -1.21509 0
M  V30 1832 O 184.171 -0.985694 -1.92647 0
M  V30 1833 C 184.766 -3.36151 0.422845 0
M  V30 1834 C 183.325 -3.76338 0.0682492 0
M  V30 1835 C 182.472 -2.67538 0.729306 0
M  V30 1836 H 185.423 -1.34025 0.849883 0
M  V30 1837 H 185.444 -3.79032 -0.333904 0
M  V30 1838 H 184.956 -3.5879 1.47958 0
M  V30 1839 H 183.057 -3.59312 -0.986179 0
M  V30 1840 H 183.17 -4.76603 0.488469 0
M  V30 1841 H 181.534 -2.54176 0.163235 0
M  V30 1842 H 182.317 -2.93006 1.78892 0
M  V30 1843 N 184.763 -0.387143 -1.52771 0
M  V30 1844 C 185.991 0.195869 -2.05971 0
M  V30 1845 C 186.406 1.40691 -1.25903 0
M  V30 1846 O 185.763 1.79931 -0.305134 0
M  V30 1847 C 185.814 0.56812 -3.57008 0
M  V30 1848 O 185.535 -0.594803 -4.34043 0
M  V30 1849 C 187.036 1.20723 -4.26545 0
M  V30 1850 H 184.256 0.0300578 -0.670326 0
M  V30 1851 H 186.8 -0.551749 -1.96916 0
M  V30 1852 H 184.955 1.26564 -3.66143 0
M  V30 1853 H 185.369 -0.289322 -5.23701 0
M  V30 1854 H 186.843 1.41807 -5.33474 0
M  V30 1855 H 187.32 2.17395 -3.81623 0
M  V30 1856 H 187.926 0.550535 -4.21722 0
M  V30 1857 N 186.241 1.57166 -0.116904 0
M  V30 1858 C 187.518 1.86645 0.585049 0
M  V30 1859 C 187.898 1.0177 1.84949 0
M  V30 1860 O 187.246 0.0960379 2.28298 0
M  V30 1861 C 187.456 3.37736 0.879507 0
M  V30 1862 C 188.804 4.06289 1.23348 0
M  V30 1863 O 189.828 3.42743 0.969836 0
M  V30 1864 O 188.687 5.18455 1.7282 0
M  V30 1865 H 185.781 0.772593 0.295007 0
M  V30 1866 H 188.327 1.69025 -0.151249 0
M  V30 1867 H 187.099 3.91296 -0.0166136 0
M  V30 1868 H 186.722 3.6078 1.67103 0
M  V30 1869 N 187.719 -0.156864 1.56817 0
M  V30 1870 C 188.667 -1.21319 1.98455 0
M  V30 1871 C 189.661 -1.45025 0.875444 0
M  V30 1872 O 190.867 -1.45435 1.0606 0
M  V30 1873 H 187.242 -0.408142 0.631605 0
M  V30 1874 H 189.213 -0.835244 2.86472 0
M  V30 1875 C 187.962 -2.54148 2.37285 0
M  V30 1876 H 187.285 -2.36733 3.22176 0
M  V30 1877 H 188.725 -3.26712 2.70251 0
M  V30 1878 C 187.184 -3.13967 1.22173 0
M  V30 1879 O 187.714 -3.98357 0.517149 0
M  V30 1880 N 185.92 -2.7327 0.988536 0
M  V30 1881 H 185.467 -2.04744 1.56326 0
M  V30 1882 H 185.425 -3.13628 0.220209 0
M  V30 1883 N 189.197 -1.51736 -0.425897 0
M  V30 1884 C 190.13 -1.68574 -1.53812 0
M  V30 1885 C 191.108 -0.53328 -1.53606 0
M  V30 1886 O 192.292 -0.758555 -1.72564 0
M  V30 1887 C 189.419 -1.70977 -2.92377 0
M  V30 1888 C 188.465 -2.92324 -3.10563 0
M  V30 1889 S 189.298 -4.52952 -2.85648 0
M  V30 1890 C 190.454 -4.58117 -4.26474 0
M  V30 1891 H 190.687 -2.62647 -1.39298 0
M  V30 1892 H 188.22 -1.41564 -0.616361 0
M  V30 1893 H 190.178 -1.73047 -3.72243 0
M  V30 1894 H 188.839 -0.78061 -3.04245 0
M  V30 1895 H 188.032 -2.90439 -4.11899 0
M  V30 1896 H 187.634 -2.88055 -2.38538 0
M  V30 1897 H 189.926 -4.34462 -5.19855 0
M  V30 1898 H 190.869 -5.59983 -4.33388 0
M  V30 1899 H 191.277 -3.8732 -4.10662 0
M  V30 1900 N 190.675 0.682077 -1.42076 0
M  V30 1901 C 192.086 1.26246 -1.37546 0
M  V30 1902 C 192.437 1.96092 -0.0651481 0
M  V30 1903 O 191.562 1.99587 0.836297 0
M  V30 1904 C 192.157 2.29594 -2.49143 0
M  V30 1905 C 190.716 2.83175 -2.47969 0
M  V30 1906 C 189.863 1.57395 -2.28303 0
M  V30 1907 H 192.814 0.475937 -1.51395 0
M  V30 1908 H 192.835 3.11175 -2.18976 0
M  V30 1909 H 192.347 1.78729 -3.44496 0
M  V30 1910 H 190.448 3.3818 -1.56413 0
M  V30 1911 H 190.561 3.32687 -3.44755 0
M  V30 1912 H 188.925 1.83699 -1.76428 0
M  V30 1913 H 189.708 1.08507 -3.25701 0
M  V30 1914 N 192.153 1.28127 0.917671 0
M  V30 1915 C 193.401 1.14825 1.66312 0
M  V30 1916 C 193.722 -0.304379 1.9261 0
M  V30 1917 O 192.992 -1.21149 1.53947 0
M  V30 1918 H 191.572 0.421953 0.616413 0
M  V30 1919 H 194.234 1.608 1.10134 0
M  V30 1920 H 193.33 1.68489 2.62712 0
M  V30 1921 N 193.631 -1.12557 1.10312 0
M  V30 1922 C 194.877 -1.84311 0.846011 0
M  V30 1923 C 195.21 -1.83805 -0.626859 0
M  V30 1924 O 194.485 -1.28268 -1.46211 0
M  V30 1925 C 194.768 -3.32048 1.39341 0
M  V30 1926 C 194.621 -3.41016 2.93305 0
M  V30 1927 C 195.94 -4.27764 1.03468 0
M  V30 1928 H 193.059 -0.669192 0.30879 0
M  V30 1929 H 195.701 -1.32057 1.36605 0
M  V30 1930 H 193.851 -3.76678 0.951087 0
M  V30 1931 H 195.523 -3.05031 3.46055 0
M  V30 1932 H 193.766 -2.81603 3.29973 0
M  V30 1933 H 194.437 -4.44948 3.26689 0
M  V30 1934 H 196.913 -3.91253 1.41633 0
M  V30 1935 H 195.789 -5.29549 1.44463 0
M  V30 1936 H 196.05 -4.42064 -0.0560404 0
M  V30 1937 N 195.109 -0.891671 -1.2995 0
M  V30 1938 C 196.072 -0.36828 -2.26222 0
M  V30 1939 C 197.072 0.493014 -1.53056 0
M  V30 1940 O 198.262 0.299213 -1.71611 0
M  V30 1941 C 195.394 0.47442 -3.37583 0
M  V30 1942 H 196.587 -1.21844 -2.74033 0
M  V30 1943 H 194.14 -0.669107 -1.41254 0
M  V30 1944 H 194.875 1.34489 -2.95099 0
M  V30 1945 H 194.66 -0.142615 -3.91841 0
M  V30 1946 H 196.15 0.83218 -4.09224 0
M  V30 1947 N 196.587 1.43421 -0.653314 0
M  V30 1948 C 197.497 2.34568 0.0388565 0
M  V30 1949 C 198.513 1.53888 0.81207 0
M  V30 1950 O 199.689 1.86539 0.759294 0
M  V30 1951 C 196.754 3.32167 0.993269 0
M  V30 1952 C 195.815 4.28751 0.216977 0
M  V30 1953 C 195.048 5.21688 1.12593 0
M  V30 1954 O 195.271 5.19052 2.36519 0
M  V30 1955 O 194.205 5.98919 0.598284 0
M  V30 1956 H 198.031 2.95251 -0.711386 0
M  V30 1957 H 195.616 1.43564 -0.413502 0
M  V30 1958 H 197.498 3.92183 1.54176 0
M  V30 1959 H 196.173 2.73987 1.72374 0
M  V30 1960 H 195.08 3.72215 -0.375101 0
M  V30 1961 H 196.413 4.89913 -0.473924 0
M  V30 1962 N 198.065 0.39524 1.52563 0
M  V30 1963 C 198.995 -0.428384 2.29537 0
M  V30 1964 C 199.976 -1.05831 1.33169 0
M  V30 1965 O 201.161 -1.06995 1.62067 0
M  V30 1966 C 198.291 -1.55274 3.10656 0
M  V30 1967 C 197.245 -1.04855 4.14957 0
M  V30 1968 C 196.571 -2.26543 4.84337 0
M  V30 1969 C 197.871 -0.112324 5.22179 0
M  V30 1970 H 199.565 0.213867 2.98635 0
M  V30 1971 H 197.111 0.104298 1.43622 0
M  V30 1972 H 199.064 -2.1358 3.63265 0
M  V30 1973 H 197.788 -2.22266 2.39302 0
M  V30 1974 H 196.447 -0.487985 3.63338 0
M  V30 1975 H 196.095 -2.92059 4.09525 0
M  V30 1976 H 195.795 -1.93466 5.54837 0
M  V30 1977 H 197.319 -2.85481 5.39753 0
M  V30 1978 H 198.733 -0.603752 5.70112 0
M  V30 1979 H 197.13 0.128968 5.99961 0
M  V30 1980 H 198.2 0.837052 4.77621 0
M  V30 1981 N 199.544 -1.57102 0.125237 0
M  V30 1982 C 200.769 -2.0019 -0.542101 0
M  V30 1983 C 201.194 -1.00449 -1.59034 0
M  V30 1984 O 200.552 0.0229423 -1.81285 0
M  V30 1985 C 200.6 -3.42129 -1.13929 0
M  V30 1986 O 199.704 -3.45307 -2.2547 0
M  V30 1987 H 199.045 -0.650171 -0.134812 0
M  V30 1988 H 201.575 -2.03461 0.215553 0
M  V30 1989 H 201.585 -3.80471 -1.4733 0
M  V30 1990 H 200.26 -4.14237 -0.371531 0
M  V30 1991 H 198.837 -3.1879 -1.93462 0
M  V30 1992 N 201.022 0.148545 -1.56898 0
M  V30 1993 C 201.985 1.16736 -1.97244 0
M  V30 1994 C 202.985 1.35947 -0.858777 0
M  V30 1995 O 204.175 1.32966 -1.12542 0
M  V30 1996 C 201.307 2.52798 -2.28705 0
M  V30 1997 H 202.5 0.821279 -2.88435 0
M  V30 1998 H 200.053 0.391831 -1.51309 0
M  V30 1999 H 200.788 2.92381 -1.403 0
M  V30 2000 H 200.573 2.40216 -3.09901 0
M  V30 2001 H 202.063 3.26179 -2.60762 0
M  V30 2002 N 202.5 1.5196 0.417844 0
M  V30 2003 C 203.749 1.6482 1.16264 0
M  V30 2004 C 204.062 0.379886 1.91876 0
M  V30 2005 O 205.268 0.388154 2.68711 0
M  V30 2006 C 203.724 2.91161 2.1155 0
M  V30 2007 C 203.332 4.25068 1.41495 0
M  V30 2008 C 205.076 3.13383 2.86341 0
M  V30 2009 C 202.983 5.42541 2.35379 0
M  V30 2010 H 201.913 0.613954 0.437694 0
M  V30 2011 H 204.564 1.78442 0.427871 0
M  V30 2012 H 202.946 2.71218 2.88543 0
M  V30 2013 H 204.12 4.55463 0.699263 0
M  V30 2014 H 202.435 4.0888 0.787792 0
M  V30 2015 H 205.032 3.98324 3.5671 0
M  V30 2016 H 205.375 2.27256 3.48798 0
M  V30 2017 H 205.908 3.33757 2.1645 0
M  V30 2018 H 202.647 6.30987 1.77582 0
M  V30 2019 H 202.167 5.16497 3.04945 0
M  V30 2020 H 203.846 5.75272 2.96093 0
M  V30 2021 N 203.978 -0.674533 1.42435 0
M  V30 2022 C 205.389 -1.25514 1.38214 0
M  V30 2023 C 205.74 -1.96055 0.0755464 0
M  V30 2024 O 204.865 -2.00028 -0.8257 0
M  V30 2025 C 205.46 -2.28269 2.50357 0
M  V30 2026 C 204.019 -2.81856 2.49467 0
M  V30 2027 C 203.166 -1.56182 2.29134 0
M  V30 2028 H 206.117 -0.467902 1.51646 0
M  V30 2029 H 206.138 -3.10009 2.20624 0
M  V30 2030 H 205.65 -1.769 3.45439 0
M  V30 2031 H 203.751 -3.37346 1.58204 0
M  V30 2032 H 203.864 -3.30854 3.46515 0
M  V30 2033 H 202.228 -1.82761 1.774 0
M  V30 2034 H 203.011 -1.06778 3.26272 0
M  V30 2035 N 205.456 -1.28612 -0.910864 0
M  V30 2036 C 206.681 -1.1891 -1.69927 0
M  V30 2037 C 207.106 0.248372 -1.86453 0
M  V30 2038 O 206.464 1.17961 -1.37676 0
M  V30 2039 C 206.512 -1.89578 -3.06745 0
M  V30 2040 O 205.616 -1.20521 -3.94396 0
M  V30 2041 H 204.957 -0.412632 -0.520222 0
M  V30 2042 H 207.487 -1.69985 -1.1387 0
M  V30 2043 H 207.497 -1.97597 -3.56958 0
M  V30 2044 H 206.172 -2.94136 -2.94035 0
M  V30 2045 H 204.749 -1.20684 -3.52831 0
M  V30 2046 N 206.934 1.1197 -1.10907 0
M  V30 2047 C 207.867 2.16998 -0.706192 0
M  V30 2048 C 208.845 1.59903 0.294897 0
M  V30 2049 O 210.029 1.87513 0.192636 0
M  V30 2050 C 207.156 3.38673 -0.0427664 0
M  V30 2051 C 206.202 4.14414 -1.00811 0
M  V30 2052 S 207.035 4.72079 -2.52789 0
M  V30 2053 C 208.191 5.97083 -1.87731 0
M  V30 2054 H 208.424 2.50837 -1.59587 0
M  V30 2055 H 205.957 1.23508 -0.926555 0
M  V30 2056 H 207.915 4.09142 0.333668 0
M  V30 2057 H 206.576 3.03105 0.823788 0
M  V30 2058 H 205.769 5.016 -0.491259 0
M  V30 2059 H 205.371 3.49678 -1.3267 0
M  V30 2060 H 207.663 6.66599 -1.21044 0
M  V30 2061 H 208.606 6.53403 -2.72892 0
M  V30 2062 H 209.014 5.4837 -1.33979 0
M  V30 2063 N 208.412 0.89855 1.29475 0
M  V30 2064 C 209.823 0.572537 1.77705 0
M  V30 2065 C 210.174 -0.911778 1.73727 0
M  V30 2066 O 209.299 -1.71288 1.32247 0
M  V30 2067 C 209.894 1.03252 3.22683 0
M  V30 2068 C 208.453 0.757687 3.68695 0
M  V30 2069 C 207.6 1.20787 2.49612 0
M  V30 2070 H 210.551 1.08139 1.16153 0
M  V30 2071 H 210.572 0.367307 3.78723 0
M  V30 2072 H 210.084 2.11285 3.25546 0
M  V30 2073 H 208.185 -0.310079 3.71308 0
M  V30 2074 H 208.298 1.35476 4.59547 0
M  V30 2075 H 206.662 0.626888 2.46865 0
M  V30 2076 H 207.445 2.29622 2.55203 0
M  V30 2077 N 209.89 -1.43072 0.660911 0
M  V30 2078 C 211.301 -1.84932 0.256348 0
M  V30 2079 C 211.652 -1.55325 -1.19868 0
M  V30 2080 O 210.777 -1.00607 -1.91591 0
M  V30 2081 C 211.372 -3.35684 0.458475 0
M  V30 2082 C 209.931 -3.76245 0.108161 0
M  V30 2083 C 209.078 -2.66749 0.757641 0
M  V30 2084 H 212.029 -1.33116 0.864051 0
M  V30 2085 H 212.05 -3.79365 -0.293683 0
M  V30 2086 H 211.562 -3.572 1.51755 0
M  V30 2087 H 209.663 -3.60338 -0.948014 0
M  V30 2088 H 209.776 -4.76058 0.538992 0
M  V30 2089 H 208.14 -2.53989 0.190185 0
M  V30 2090 H 208.923 -2.91092 1.81989 0
M  V30 2091 N 211.368 -0.403325 -1.52352 0
M  V30 2092 C 212.331 0.413051 -2.25447 0
M  V30 2093 C 213.331 0.978513 -1.276 0
M  V30 2094 O 214.521 0.858305 -1.51587 0
M  V30 2095 C 211.653 1.58087 -3.02029 0
M  V30 2096 H 212.846 -0.227094 -2.99039 0
M  V30 2097 H 210.399 -0.155722 -1.55522 0
M  V30 2098 H 211.134 2.25804 -2.32772 0
M  V30 2099 H 210.919 1.18195 -3.73861 0
M  V30 2100 H 212.409 2.1585 -3.57489 0
M  V30 2101 N 212.846 1.57033 -0.133567 0
M  V30 2102 C 214.092 1.95976 0.521649 0
M  V30 2103 C 214.425 1.01779 1.65393 0
M  V30 2104 O 213.7 0.0576581 1.94415 0
M  V30 2105 C 213.983 3.44738 1.04057 0
M  V30 2106 C 213.836 4.49711 -0.0892897 0
M  V30 2107 C 215.155 3.95682 1.92675 0
M  V30 2108 H 212.274 0.712579 0.188149 0
M  V30 2109 H 214.916 1.88813 -0.212076 0
M  V30 2110 H 213.066 3.50973 1.66583 0
M  V30 2111 H 214.738 4.55565 -0.725152 0
M  V30 2112 H 212.981 4.27261 -0.750378 0
M  V30 2113 H 213.652 5.51099 0.315284 0
M  V30 2114 H 216.128 3.91841 1.39998 0
M  V30 2115 H 215.004 5.00262 2.25897 0
M  V30 2116 H 215.265 3.37239 2.85872 0
M  V30 2117 N 214.325 -0.140222 1.56975 0
M  V30 2118 C 215.288 -1.15689 1.97861 0
M  V30 2119 C 216.288 -1.3549 0.865974 0
M  V30 2120 O 217.478 -1.32367 1.13246 0
M  V30 2121 C 214.61 -2.51582 2.30042 0
M  V30 2122 H 215.803 -0.805971 2.88867 0
M  V30 2123 H 213.356 -0.383801 1.51515 0
M  V30 2124 H 214.091 -2.91632 1.41849 0
M  V30 2125 H 213.876 -2.38569 3.11171 0
M  V30 2126 H 215.366 -3.24792 2.62488 0
M  V30 2127 N 215.803 -1.52179 -0.40978 0
M  V30 2128 C 216.713 -1.78364 -1.52392 0
M  V30 2129 C 217.729 -0.669183 -1.60617 0
M  V30 2130 O 218.905 -0.954518 -1.77344 0
M  V30 2131 C 215.97 -1.92822 -2.88133 0
M  V30 2132 C 215.031 -3.16725 -2.898 0
M  V30 2133 C 214.264 -3.30483 -4.19067 0
M  V30 2134 O 214.487 -2.49522 -5.12928 0
M  V30 2135 O 213.421 -4.2363 -4.27576 0
M  V30 2136 H 217.247 -2.72931 -1.33201 0
M  V30 2137 H 214.832 -1.37016 -0.59557 0
M  V30 2138 H 216.714 -2.04157 -3.68643 0
M  V30 2139 H 215.389 -1.01444 -3.07393 0
M  V30 2140 H 214.296 -3.10848 -2.08146 0
M  V30 2141 H 215.629 -4.07881 -2.75489 0
M  V30 2142 N 217.281 0.66697 -1.42791 0
M  V30 2143 C 218.229 1.80157 -1.47127 0
M  V30 2144 C 219.223 1.65825 -0.346199 0
M  V30 2145 O 220.429 1.72338 -0.519572 0
M  V30 2146 H 216.804 0.594158 -0.460956 0
M  V30 2147 H 218.775 1.73619 -2.42692 0
M  V30 2148 C 217.524 3.18351 -1.39813 0
M  V30 2149 H 216.847 3.3001 -2.25684 0
M  V30 2150 H 218.287 3.97736 -1.46908 0
M  V30 2151 C 216.746 3.36707 -0.11391 0
M  V30 2152 O 217.276 3.93027 0.830241 0
M  V30 2153 N 215.482 2.90586 -0.0285295 0
M  V30 2154 H 215.029 2.4494 -0.79764 0
M  V30 2155 H 214.987 3.03245 0.830063 0
M  V30 2156 N 218.759 1.29093 0.90403 0
M  V30 2157 C 219.722 1.1386 1.98919 0
M  V30 2158 C 220.722 0.0753457 1.60623 0
M  V30 2159 O 221.912 0.321931 1.71199 0
M  V30 2160 C 219.044 0.740198 3.32767 0
M  V30 2161 H 220.237 2.10246 2.13861 0
M  V30 2162 H 217.79 1.12218 1.08797 0
M  V30 2163 H 218.525 -0.223997 3.23525 0
M  V30 2164 H 218.31 1.50838 3.61926 0
M  V30 2165 H 219.8 0.656546 4.12407 0
M  V30 2166 N 220.237 -1.11381 1.11499 0
M  V30 2167 C 221.147 -2.21019 0.786628 0
M  V30 2168 C 222.163 -1.72597 -0.220507 0
M  V30 2169 O 223.339 -2.01321 -0.0565251 0
M  V30 2170 C 220.404 -3.459 0.235333 0
M  V30 2171 C 219.465 -4.09107 1.30115 0
M  V30 2172 C 218.698 -5.28027 0.776068 0
M  V30 2173 O 218.921 -5.6904 -0.393661 0
M  V30 2174 O 217.855 -5.81835 1.54114 0
M  V30 2175 H 221.681 -2.51521 1.70209 0
M  V30 2176 H 219.266 -1.19928 0.890928 0
M  V30 2177 H 221.148 -4.21346 -0.067715 0
M  V30 2178 H 219.823 -3.17049 -0.652828 0
M  V30 2179 H 218.73 -3.35391 1.65722 0
M  V30 2180 H 220.063 -4.42139 2.16273 0
M  V30 2181 N 221.715 -0.905404 -1.28997 0
M  V30 2182 C 222.645 -0.404212 -2.29975 0
M  V30 2183 C 223.626 0.523784 -1.61835 0
M  V30 2184 O 224.811 0.433298 -1.89304 0
M  V30 2185 C 221.941 0.364042 -3.45387 0
M  V30 2186 C 220.895 -0.474048 -4.25367 0
M  V30 2187 C 220.221 0.422045 -5.33032 0
M  V30 2188 C 221.521 -1.72696 -4.92923 0
M  V30 2189 H 223.215 -1.24807 -2.72146 0
M  V30 2190 H 220.761 -0.601585 -1.30832 0
M  V30 2191 H 222.714 0.725447 -4.15109 0
M  V30 2192 H 221.438 1.24174 -3.02074 0
M  V30 2193 H 220.097 -0.81786 -3.57361 0
M  V30 2194 H 219.745 1.29804 -4.85963 0
M  V30 2195 H 219.445 -0.135057 -5.87445 0
M  V30 2196 H 220.969 0.779517 -6.05604 0
M  V30 2197 H 222.383 -1.43495 -5.55051 0
M  V30 2198 H 220.78 -2.22582 -5.57295 0
M  V30 2199 H 221.85 -2.45964 -4.17887 0
M  V30 2200 N 223.193 1.4272 -0.668489 0
M  V30 2201 C 224.44 2.01624 -0.18814 0
M  V30 2202 C 224.768 1.5282 1.20317 0
M  V30 2203 O 224.023 0.718323 1.8204 0
M  V30 2204 C 224.322 3.57021 -0.164499 0
M  V30 2205 C 223.988 4.25232 -1.49962 0
M  V30 2206 C 222.65 4.4358 -1.8652 0
M  V30 2207 C 225.002 4.63727 -2.37921 0
M  V30 2208 C 222.33 4.97694 -3.10674 0
M  V30 2209 C 224.682 5.19218 -3.6138 0
M  V30 2210 C 223.346 5.3578 -3.98115 0
M  V30 2211 H 222.616 0.737795 -0.0688454 0
M  V30 2212 H 225.263 1.70991 -0.862225 0
M  V30 2213 H 223.568 3.87285 0.593079 0
M  V30 2214 H 225.265 4.00372 0.224271 0
M  V30 2215 H 221.855 4.11306 -1.20522 0
M  V30 2216 H 226.039 4.4923 -2.10964 0
M  V30 2217 H 221.295 5.08702 -3.39164 0
M  V30 2218 H 225.469 5.4799 -4.29743 0
M  V30 2219 H 223.096 5.77475 -4.94395 0
M  V30 2220 N 224.671 0.411399 1.52136 0
M  V30 2221 C 225.634 -0.401089 2.25663 0
M  V30 2222 C 226.634 -0.971732 1.28117 0
M  V30 2223 O 227.824 -0.850254 1.52041 0
M  V30 2224 C 224.956 -1.56483 3.02863 0
M  V30 2225 H 226.149 0.24295 2.98914 0
M  V30 2226 H 223.702 0.163968 1.55438 0
M  V30 2227 H 224.437 -2.24567 2.33967 0
M  V30 2228 H 224.222 -1.16211 3.74483 0
M  V30 2229 H 225.712 -2.13951 3.58629 0
M  V30 2230 N 226.149 -1.5696 0.141893 0
M  V30 2231 C 227.565 -1.58151 -0.21456 0
M  V30 2232 C 227.765 -1.1559 -1.65049 0
M  V30 2233 O 226.821 -0.853832 -2.37626 0
M  V30 2234 C 228.134 -3.00674 0.0395576 0
M  V30 2235 C 229.682 -3.1299 -0.0245529 0
M  V30 2236 C 230.157 -4.57554 0.202167 0
M  V30 2237 N 231.648 -4.62961 0.148919 0
M  V30 2238 C 232.383 -5.7262 0.298924 0
M  V30 2239 N 231.879 -6.90947 0.50637 0
M  V30 2240 N 233.672 -5.61601 0.236886 0
M  V30 2241 H 225.823 -1.8292 1.07953 0
M  V30 2242 H 228.086 -0.846425 0.42693 0
M  V30 2243 H 227.792 -3.36183 1.03315 0
M  V30 2244 H 227.666 -3.70981 -0.682143 0
M  V30 2245 H 230.053 -2.77326 -1.00869 0
M  V30 2246 H 230.134 -2.4518 0.729396 0
M  V30 2247 H 229.778 -4.93922 1.18338 0
M  V30 2248 H 229.708 -5.23484 -0.572044 0
M  V30 2249 H 232.199 -3.77899 -0.00697015 0
M  V30 2250 H 232.512 -7.7038 0.611076 0
M  V30 2251 H 230.857 -6.92878 0.542628 0
M  V30 2252 H 234.048 -4.68039 0.0756209 0
M  V30 2253 H 234.221 -6.47015 0.357227 0
M  V30 2254 N 227.627 0.131896 -1.57047 0
M  V30 2255 C 228.857 0.855219 -1.88068 0
M  V30 2256 C 229.265 1.74557 -0.729817 0
M  V30 2257 O 228.608 1.81083 0.308962 0
M  V30 2258 C 228.67 1.75119 -3.13964 0
M  V30 2259 C 228.334 1.03646 -4.45091 0
M  V30 2260 C 229.331 0.383276 -5.18485 0
M  V30 2261 C 227.016 1.02148 -4.91804 0
M  V30 2262 C 229.01 -0.275347 -6.36805 0
M  V30 2263 C 226.697 0.359047 -6.10044 0
M  V30 2264 C 227.695 -0.288222 -6.82392 0
M  V30 2265 O 227.383 -0.94011 -7.98384 0
M  V30 2266 H 227.115 0.251864 -0.627328 0
M  V30 2267 H 229.669 0.124782 -2.05021 0
M  V30 2268 H 227.899 2.52295 -2.9306 0
M  V30 2269 H 229.588 2.3478 -3.31109 0
M  V30 2270 H 230.354 0.386562 -4.83457 0
M  V30 2271 H 226.233 1.5147 -4.35405 0
M  V30 2272 H 229.777 -0.781148 -6.93213 0
M  V30 2273 H 225.674 0.35348 -6.44531 0
M  V30 2274 H 226.442 -0.84329 -8.14144 0
M  V30 2275 N 229.106 1.52395 0.401703 0
M  V30 2276 C 230.354 1.66488 1.14569 0
M  V30 2277 C 230.675 0.400897 1.90835 0
M  V30 2278 O 229.945 -0.584415 1.8698 0
M  V30 2279 H 228.525 0.613672 0.425929 0
M  V30 2280 H 231.187 1.89464 0.457093 0
M  V30 2281 H 230.283 2.50942 1.85566 0
M  V30 2282 N 230.584 -0.659388 1.43143 0
M  V30 2283 C 231.514 -1.78422 1.50625 0
M  V30 2284 C 232.495 -1.66216 0.361443 0
M  V30 2285 O 233.68 -1.85404 0.577834 0
M  V30 2286 C 230.81 -3.16815 1.42287 0
M  V30 2287 C 229.764 -3.43777 2.54954 0
M  V30 2288 C 229.09 -4.81905 2.31671 0
M  V30 2289 C 230.39 -3.39134 3.97222 0
M  V30 2290 H 232.084 -1.72417 2.44771 0
M  V30 2291 H 229.63 -0.828084 1.17808 0
M  V30 2292 H 231.583 -3.95253 1.46127 0
M  V30 2293 H 230.307 -3.23534 0.446435 0
M  V30 2294 H 228.966 -2.67707 2.50457 0
M  V30 2295 H 228.614 -4.85294 1.32284 0
M  V30 2296 H 228.314 -5.00906 3.07192 0
M  V30 2297 H 229.838 -5.62609 2.37284 0
M  V30 2298 H 231.252 -4.07518 4.03239 0
M  V30 2299 H 229.649 -3.69671 4.72719 0
M  V30 2300 H 230.719 -2.37426 4.22797 0
M  V30 2301 N 232.062 -1.29571 -0.897171 0
M  V30 2302 C 233.339 -1.08365 -1.62839 0
M  V30 2303 C 233.719 0.371331 -2.07808 0
M  V30 2304 O 233.067 1.3606 -1.83576 0
M  V30 2305 C 233.277 -2.0735 -2.80726 0
M  V30 2306 C 234.625 -2.38406 -3.51351 0
M  V30 2307 O 235.649 -2.05564 -2.90898 0
M  V30 2308 O 234.508 -2.9453 -4.60341 0
M  V30 2309 H 231.602 -0.415345 -0.715134 0
M  V30 2310 H 234.148 -1.40952 -0.945018 0
M  V30 2311 H 232.92 -3.05339 -2.44711 0
M  V30 2312 H 232.543 -1.75507 -3.56767 0
M  V30 2313 N 233.54 1.10788 -1.12088 0
M  V30 2314 C 234.487 2.17025 -0.785407 0
M  V30 2315 C 235.457 1.64265 0.246191 0
M  V30 2316 O 236.642 1.90412 0.121584 0
M  V30 2317 C 233.782 3.44249 -0.242177 0
M  V30 2318 C 232.895 4.1098 -1.33115 0
M  V30 2319 C 232.03 5.25911 -0.747741 0
M  V30 2320 C 231.069 5.84538 -1.81609 0
M  V30 2321 N 230.206 6.90853 -1.25167 0
M  V30 2322 H 235.046 2.45066 -1.69548 0
M  V30 2323 H 232.583 1.20297 -0.846582 0
M  V30 2324 H 234.541 4.17101 0.0908026 0
M  V30 2325 H 233.171 3.16571 0.631072 0
M  V30 2326 H 232.223 3.36133 -1.78097 0
M  V30 2327 H 233.535 4.50601 -2.13917 0
M  V30 2328 H 232.689 6.056 -0.365216 0
M  V30 2329 H 231.428 4.87614 0.0915188 0
M  V30 2330 H 230.433 5.03522 -2.20785 0
M  V30 2331 H 231.658 6.249 -2.6585 0
M  V30 2332 H 229.604 6.54562 -0.434174 0
M  V30 2333 H 229.521 7.29166 -1.99633 0
M  V30 2334 H 230.789 7.7433 -0.896259 0
M  V30 2335 N 235.018 0.912232 1.28515 0
M  V30 2336 C 236.264 0.545405 1.95328 0
M  V30 2337 C 236.597 -0.908313 1.71649 0
M  V30 2338 O 235.872 -1.64575 1.03659 0
M  V30 2339 C 236.155 0.853483 3.4984 0
M  V30 2340 C 236.008 2.35982 3.82926 0
M  V30 2341 C 237.327 0.348589 4.38717 0
M  V30 2342 H 234.446 0.199626 0.709449 0
M  V30 2343 H 237.088 1.1412 1.5191 0
M  V30 2344 H 235.238 0.34643 3.86952 0
M  V30 2345 H 236.91 2.93738 3.55691 0
M  V30 2346 H 235.153 2.81543 3.30024 0
M  V30 2347 H 235.824 2.52593 4.90816 0
M  V30 2348 H 238.3 0.78294 4.08668 0
M  V30 2349 H 237.176 0.593242 5.45685 0
M  V30 2350 H 237.437 -0.751049 4.35674 0
M  V30 2351 N 236.496 -1.42363 0.676048 0
M  V30 2352 C 237.428 -2.29164 -0.0404605 0
M  V30 2353 C 238.441 -1.43747 -0.764245 0
M  V30 2354 O 239.63 -1.67453 -0.618195 0
M  V30 2355 C 236.73 -3.21196 -1.08103 0
M  V30 2356 C 235.903 -4.35273 -0.430812 0
M  V30 2357 C 234.962 -5.08017 -1.37133 0
M  V30 2358 O 233.988 -5.62494 -0.87116 0
M  V30 2359 N 235.19 -5.13647 -2.70456 0
M  V30 2360 H 237.955 -2.91298 0.704667 0
M  V30 2361 H 235.516 -1.53303 0.520559 0
M  V30 2362 H 237.508 -3.66728 -1.71152 0
M  V30 2363 H 236.078 -2.60505 -1.72788 0
M  V30 2364 H 235.298 -3.92372 0.379209 0
M  V30 2365 H 236.586 -5.08795 0.0221132 0
M  V30 2366 H 235.984 -4.708 -3.1363 0
M  V30 2367 H 234.541 -5.62821 -3.28749 0
M  V30 2368 N 237.974 -0.419461 -1.51915 0
M  V30 2369 C 238.907 0.445751 -2.23804 0
M  V30 2370 C 239.885 1.03951 -1.25031 0
M  V30 2371 O 241.069 1.08541 -1.54114 0
M  V30 2372 C 238.196 1.61964 -2.97465 0
M  V30 2373 C 237.242 1.14828 -4.10751 0
M  V30 2374 S 238.075 0.104938 -5.35397 0
M  V30 2375 C 239.231 1.28391 -6.1259 0
M  V30 2376 H 239.464 -0.164627 -2.96844 0
M  V30 2377 H 236.997 -0.203833 -1.53049 0
M  V30 2378 H 238.955 2.29271 -3.40507 0
M  V30 2379 H 237.616 2.20139 -2.24048 0
M  V30 2380 H 236.809 2.02561 -4.61503 0
M  V30 2381 H 236.411 0.553712 -3.69878 0
M  V30 2382 H 238.703 2.20563 -6.40592 0
M  V30 2383 H 239.646 0.816724 -7.03374 0
M  V30 2384 H 240.054 1.51439 -5.43807 0
M  V30 2385 N 239.452 1.56882 -0.150215 0
M  V30 2386 C 240.68 2.00593 0.506948 0
M  V30 2387 C 241.095 1.03033 1.58208 0
M  V30 2388 O 240.452 0.0278396 1.82479 0
M  V30 2389 C 240.503 3.44209 1.10465 0
M  V30 2390 O 240.224 4.3804 0.0724636 0
M  V30 2391 C 241.725 4.03214 1.84211 0
M  V30 2392 H 238.945 0.65795 0.13169 0
M  V30 2393 H 241.489 2.03018 -0.245743 0
M  V30 2394 H 239.644 3.42625 1.80795 0
M  V30 2395 H 240.058 5.22007 0.510793 0
M  V30 2396 H 241.532 5.0569 2.21318 0
M  V30 2397 H 242.009 3.44107 2.72923 0
M  V30 2398 H 242.615 4.08437 1.18572 0
M  V30 2399 N 240.93 -0.123565 1.57115 0
M  V30 2400 C 242.155 -0.850398 1.89164 0
M  V30 2401 C 242.58 -1.7286 0.741688 0
M  V30 2402 O 241.938 -1.78665 -0.307958 0
M  V30 2403 C 241.986 -1.66353 3.19936 0
M  V30 2404 O 241.09 -2.77004 3.0552 0
M  V30 2405 H 240.431 -0.235454 0.620852 0
M  V30 2406 H 242.961 -0.107335 2.04318 0
M  V30 2407 H 242.971 -2.05372 3.52543 0
M  V30 2408 H 241.646 -1.01881 4.03228 0
M  V30 2409 H 240.223 -2.41221 2.84371 0
M  V30 2410 N 242.408 -1.52605 -0.393616 0
M  V30 2411 C 243.341 -1.71798 -1.50202 0
M  V30 2412 C 244.319 -0.565743 -1.52441 0
M  V30 2413 O 245.503 -0.794987 -1.70916 0
M  V30 2414 C 242.63 -1.7714 -2.88685 0
M  V30 2415 C 241.676 -2.98845 -3.04292 0
M  V30 2416 S 242.509 -4.58909 -2.75976 0
M  V30 2417 C 243.665 -4.6706 -4.1666 0
M  V30 2418 H 243.898 -2.65542 -1.33696 0
M  V30 2419 H 241.431 -1.42839 -0.586195 0
M  V30 2420 H 243.389 -1.80903 -3.68489 0
M  V30 2421 H 242.05 -0.844969 -3.02521 0
M  V30 2422 H 241.243 -2.99111 -4.05646 0
M  V30 2423 H 240.845 -2.9305 -2.32374 0
M  V30 2424 H 243.137 -4.45391 -5.10523 0
M  V30 2425 H 244.08 -5.6905 -4.21412 0
M  V30 2426 H 244.488 -3.95944 -4.02354 0
M  V30 2427 N 243.887 0.651787 -1.4349 0
M  V30 2428 C 245.164 1.40909 -1.35661 0
M  V30 2429 C 245.544 2.11099 -0.00511733 0
M  V30 2430 O 244.892 2.04892 1.0115 0
M  V30 2431 C 245.102 2.3926 -2.54078 0
M  V30 2432 C 246.45 3.03217 -2.97228 0
M  V30 2433 O 247.474 2.49588 -2.54135 0
M  V30 2434 O 246.333 4.00455 -3.71885 0
M  V30 2435 H 243.427 0.629625 -0.536191 0
M  V30 2436 H 245.973 0.678575 -1.55542 0
M  V30 2437 H 244.745 1.86352 -3.44076 0
M  V30 2438 H 244.368 3.1976 -2.36303 0
M  V30 2439 N 245.365 1.30045 0.890287 0
M  V30 2440 C 246.595 1.21296 1.67245 0
M  V30 2441 C 247.003 -0.227471 1.87828 0
M  V30 2442 O 246.346 -1.16296 1.422 0
M  V30 2443 C 246.408 1.86519 3.07329 0
M  V30 2444 C 246.072 3.35837 3.09939 0
M  V30 2445 C 247.069 4.31915 2.89389 0
M  V30 2446 C 244.754 3.77196 3.31706 0
M  V30 2447 C 246.748 5.67325 2.90552 0
M  V30 2448 C 244.435 5.12725 3.32499 0
M  V30 2449 C 245.433 6.076 3.11947 0
M  V30 2450 O 245.121 7.40655 3.12547 0
M  V30 2451 H 244.853 0.4211 0.528821 0
M  V30 2452 H 247.407 1.72111 1.12103 0
M  V30 2453 H 245.637 1.30228 3.64112 0
M  V30 2454 H 247.326 1.71963 3.67673 0
M  V30 2455 H 248.092 4.01294 2.72375 0
M  V30 2456 H 243.971 3.03796 3.4674 0
M  V30 2457 H 247.515 6.41354 2.74429 0
M  V30 2458 H 243.412 5.42988 3.49047 0
M  V30 2459 H 244.18 7.49577 3.28749 0
M  V30 2460 N 246.843 -1.10192 1.12674 0
M  V30 2461 C 247.79 -2.16606 0.796906 0
M  V30 2462 C 248.76 -1.64394 -0.237476 0
M  V30 2463 O 249.945 -1.90474 -0.111484 0
M  V30 2464 C 247.085 -3.44116 0.26043 0
M  V30 2465 C 246.198 -4.10268 1.35293 0
M  V30 2466 C 245.333 -5.25507 0.775621 0
M  V30 2467 C 244.372 -5.83567 1.84706 0
M  V30 2468 N 243.509 -6.90179 1.28829 0
M  V30 2469 H 248.349 -2.44163 1.70846 0
M  V30 2470 H 245.886 -1.19846 0.85295 0
M  V30 2471 H 247.844 -4.17143 -0.0686814 0
M  V30 2472 H 246.474 -3.16901 -0.614274 0
M  V30 2473 H 245.526 -3.35184 1.79877 0
M  V30 2474 H 246.838 -4.4946 2.16303 0
M  V30 2475 H 245.992 -6.05398 0.397327 0
M  V30 2476 H 244.731 -4.87656 -0.0656581 0
M  V30 2477 H 243.736 -5.02344 2.23452 0
M  V30 2478 H 244.961 -6.23482 2.69161 0
M  V30 2479 H 242.907 -6.54322 0.468881 0
M  V30 2480 H 242.824 -7.28097 2.03497 0
M  V30 2481 H 244.092 -7.73844 0.937311 0
M  V30 2482 N 248.321 -0.919034 -1.28029 0
M  V30 2483 C 249.268 -0.410005 -2.27129 0
M  V30 2484 C 250.238 0.518405 -1.57803 0
M  V30 2485 O 251.423 0.439451 -1.8567 0
M  V30 2486 C 248.563 0.339054 -3.4343 0
M  V30 2487 C 247.676 -0.622468 -4.27492 0
M  V30 2488 C 246.811 0.145567 -5.31001 0
M  V30 2489 C 245.85 -0.809226 -6.06727 0
M  V30 2490 N 244.987 -0.0743728 -7.02061 0
M  V30 2491 H 249.827 -1.26011 -2.70047 0
M  V30 2492 H 247.364 -0.632663 -1.328 0
M  V30 2493 H 249.322 0.789586 -4.0966 0
M  V30 2494 H 247.952 1.15346 -3.01488 0
M  V30 2495 H 247.004 -1.19153 -3.61257 0
M  V30 2496 H 248.316 -1.35252 -4.80113 0
M  V30 2497 H 247.47 0.656417 -6.03139 0
M  V30 2498 H 246.209 0.908643 -4.79161 0
M  V30 2499 H 245.214 -1.3314 -5.33436 0
M  V30 2500 H 246.439 -1.57194 -6.60656 0
M  V30 2501 H 244.385 0.670616 -6.52563 0
M  V30 2502 H 244.302 -0.744157 -7.52329 0
M  V30 2503 H 245.57 0.416109 -7.78389 0
M  V30 2504 N 249.799 1.42003 -0.683588 0
M  V30 2505 C 251.215 1.55625 -0.353976 0
M  V30 2506 C 251.415 1.66151 1.14 0
M  V30 2507 O 250.471 1.63329 1.92561 0
M  V30 2508 C 251.784 2.80171 -1.092 0
M  V30 2509 C 253.332 2.93954 -1.07518 0
M  V30 2510 C 253.807 4.21372 -1.79471 0
M  V30 2511 N 255.298 4.28303 -1.76381 0
M  V30 2512 C 256.033 5.25729 -2.28904 0
M  V30 2513 N 255.529 6.29254 -2.89846 0
M  V30 2514 N 257.322 5.17586 -2.19228 0
M  V30 2515 H 249.473 1.33415 -1.6527 0
M  V30 2516 H 251.736 0.64282 -0.696769 0
M  V30 2517 H 251.442 2.78561 -2.14701 0
M  V30 2518 H 251.316 3.7133 -0.662862 0
M  V30 2519 H 253.703 2.95086 -0.028475 0
M  V30 2520 H 253.784 2.04002 -1.54328 0
M  V30 2521 H 253.428 4.21001 -2.84114 0
M  V30 2522 H 253.358 5.10275 -1.30104 0
M  V30 2523 H 255.849 3.54119 -1.31939 0
M  V30 2524 H 256.162 6.99964 -3.27522 0
M  V30 2525 H 254.507 6.29791 -2.93919 0
M  V30 2526 H 257.698 4.35631 -1.71299 0
M  V30 2527 H 257.871 5.93348 -2.60466 0
M  V30 2528 N 251.277 0.427512 1.51691 0
M  V30 2529 C 252.209 -0.424521 2.25234 0
M  V30 2530 C 253.222 -0.994671 1.2888 0
M  V30 2531 O 254.411 -0.890483 1.54702 0
M  V30 2532 C 251.511 -1.60479 2.98496 0
M  V30 2533 C 250.684 -1.15527 4.21868 0
M  V30 2534 C 249.743 -2.20454 4.77793 0
M  V30 2535 O 248.769 -1.8029 5.39893 0
M  V30 2536 N 249.971 -3.52831 4.60967 0
M  V30 2537 H 252.736 0.205749 2.98993 0
M  V30 2538 H 250.297 0.255867 1.59865 0
M  V30 2539 H 252.289 -2.30276 3.32799 0
M  V30 2540 H 250.859 -2.14061 2.27809 0
M  V30 2541 H 250.079 -0.284736 3.9317 0
M  V30 2542 H 251.367 -0.832173 5.01949 0
M  V30 2543 H 250.765 -3.88201 4.11481 0
M  V30 2544 H 249.322 -4.18551 4.99658 0
M  V30 2545 N 252.755 -1.56801 0.158532 0
M  V30 2546 C 254.001 -1.96781 -0.490405 0
M  V30 2547 C 254.334 -1.04397 -1.63753 0
M  V30 2548 O 253.609 -0.0885805 -1.94298 0
M  V30 2549 C 253.892 -3.4635 -0.985594 0
M  V30 2550 C 253.745 -4.49512 0.160824 0
M  V30 2551 C 255.064 -3.98697 -1.86355 0
M  V30 2552 H 252.183 -0.715482 -0.176788 0
M  V30 2553 H 254.825 -1.88451 0.242088 0
M  V30 2554 H 252.975 -3.53579 -1.60978 0
M  V30 2555 H 254.647 -4.54353 0.797537 0
M  V30 2556 H 252.89 -4.26013 0.818256 0
M  V30 2557 H 253.561 -5.51531 -0.227569 0
M  V30 2558 H 256.037 -3.94019 -1.33746 0
M  V30 2559 H 254.913 -5.03792 -2.17909 0
M  V30 2560 H 255.174 -3.41744 -2.8047 0
M  V30 2561 N 254.233 0.115231 -1.57178 0
M  V30 2562 C 255.181 1.16014 -2.01602 0
M  V30 2563 C 256.175 1.42653 -0.913587 0
M  V30 2564 O 257.381 1.42571 -1.09879 0
M  V30 2565 H 253.756 0.391252 -0.642204 0
M  V30 2566 H 255.727 0.758998 -2.88586 0
M  V30 2567 C 254.476 2.47767 -2.4394 0
M  V30 2568 H 253.799 2.28108 -3.28339 0
M  V30 2569 H 255.239 3.19432 -2.78818 0
M  V30 2570 C 253.698 3.10617 -1.30455 0
M  V30 2571 O 254.228 3.96846 -0.622585 0
M  V30 2572 N 252.434 2.70553 -1.06064 0
M  V30 2573 H 251.981 2.00527 -1.61699 0
M  V30 2574 H 251.939 3.12934 -0.303284 0
M  V30 2575 N 255.711 1.52812 0.385517 0
M  V30 2576 C 256.641 1.80808 1.47752 0
M  V30 2577 C 257.622 0.660318 1.5676 0
M  V30 2578 O 258.807 0.908246 1.71652 0
M  V30 2579 C 255.937 1.98008 2.85324 0
M  V30 2580 C 254.891 3.13709 2.91154 0
M  V30 2581 C 254.217 3.16169 4.31209 0
M  V30 2582 C 255.517 4.52709 2.60483 0
M  V30 2583 H 257.211 2.72253 1.24573 0
M  V30 2584 H 254.757 1.31003 0.597839 0
M  V30 2585 H 256.71 2.16176 3.61726 0
M  V30 2586 H 255.434 1.03255 3.09848 0
M  V30 2587 H 254.093 2.95329 2.17201 0
M  V30 2588 H 253.741 2.19092 4.52778 0
M  V30 2589 H 253.441 3.93894 4.36029 0
M  V30 2590 H 254.965 3.36496 5.09512 0
M  V30 2591 H 256.379 4.71173 3.26602 0
M  V30 2592 H 254.776 5.32528 2.76648 0
M  V30 2593 H 255.846 4.59186 1.55809 0
M  V30 2594 N 257.189 -0.644168 1.43834 0
M  V30 2595 C 258.419 -1.42939 1.49171 0
M  V30 2596 C 258.827 -1.88874 0.111048 0
M  V30 2597 O 258.17 -1.60656 -0.8908 0
M  V30 2598 C 258.232 -2.69151 2.38324 0
M  V30 2599 C 257.896 -2.45097 3.85715 0
M  V30 2600 C 258.893 -2.07747 4.76589 0
M  V30 2601 C 256.578 -2.59141 4.30292 0
M  V30 2602 C 258.572 -1.8475 6.10038 0
M  V30 2603 C 256.259 -2.35759 5.63792 0
M  V30 2604 C 257.257 -1.9862 6.53482 0
M  V30 2605 O 256.945 -1.75489 7.84512 0
M  V30 2606 H 256.677 -0.445271 0.508635 0
M  V30 2607 H 259.231 -0.79621 1.8934 0
M  V30 2608 H 257.461 -3.3506 1.93058 0
M  V30 2609 H 259.15 -3.31123 2.3476 0
M  V30 2610 H 259.916 -1.96465 4.43426 0
M  V30 2611 H 255.795 -2.87022 3.60749 0
M  V30 2612 H 259.339 -1.55686 6.80006 0
M  V30 2613 H 255.236 -2.46646 5.9652 0
M  V30 2614 H 256.004 -1.89841 7.9618 0
M  V30 2615 N 258.668 -1.30515 -0.883378 0
M  V30 2616 C 259.915 -1.1943 -1.63532 0
M  V30 2617 C 260.243 0.250627 -1.92878 0
M  V30 2618 O 259.498 1.19556 -1.54935 0
M  V30 2619 C 259.797 -1.96994 -2.98209 0
M  V30 2620 C 259.463 -3.466 -2.88408 0
M  V30 2621 C 258.125 -3.87397 -2.85442 0
M  V30 2622 C 260.477 -4.41863 -2.76418 0
M  V30 2623 C 257.805 -5.21745 -2.68327 0
M  V30 2624 C 260.157 -5.7632 -2.60841 0
M  V30 2625 C 258.821 -6.16354 -2.56251 0
M  V30 2626 H 258.091 -0.437025 -0.598406 0
M  V30 2627 H 260.738 -1.61635 -1.02696 0
M  V30 2628 H 259.043 -1.47429 -3.63004 0
M  V30 2629 H 260.74 -1.85808 -3.55354 0
M  V30 2630 H 257.33 -3.14182 -2.91527 0
M  V30 2631 H 261.514 -4.11285 -2.77775 0
M  V30 2632 H 256.77 -5.51853 -2.63189 0
M  V30 2633 H 260.944 -6.49772 -2.50538 0
M  V30 2634 H 258.571 -7.20401 -2.42748 0
M  V30 2635 N 260.146 1.09593 -1.13257 0
M  V30 2636 C 261.371 1.8604 -0.916732 0
M  V30 2637 C 261.796 1.80504 0.529146 0
M  V30 2638 O 261.154 1.18127 1.37534 0
M  V30 2639 C 261.202 3.32017 -1.40703 0
M  V30 2640 O 260.306 4.08141 -0.591153 0
M  V30 2641 H 259.647 0.576943 -0.328683 0
M  V30 2642 H 262.177 1.38405 -1.50682 0
M  V30 2643 H 262.187 3.82865 -1.4099 0
M  V30 2644 H 260.862 3.35361 -2.45979 0
M  V30 2645 H 259.439 3.67084 -0.656005 0
M  V30 2646 N 261.624 0.925811 1.2754 0
M  V30 2647 C 262.534 0.428993 2.30644 0
M  V30 2648 C 263.55 -0.489387 1.66976 0
M  V30 2649 O 264.726 -0.372653 1.97922 0
M  V30 2650 C 261.791 -0.311967 3.45294 0
M  V30 2651 C 260.852 0.641098 4.24486 0
M  V30 2652 C 260.085 -0.0645955 5.33661 0
M  V30 2653 O 260.308 -1.28429 5.55754 0
M  V30 2654 O 259.242 0.606265 5.98839 0
M  V30 2655 H 263.068 1.28504 2.75173 0
M  V30 2656 H 260.653 0.691086 1.32455 0
M  V30 2657 H 262.535 -0.729972 4.15029 0
M  V30 2658 H 261.21 -1.14365 3.02824 0
M  V30 2659 H 260.117 1.10874 3.57292 0
M  V30 2660 H 261.45 1.43995 4.70666 0
M  V30 2661 N 263.102 -1.41638 0.69111 0
M  V30 2662 C 264.032 -2.3347 0.037248 0
M  V30 2663 C 265.013 -1.51575 -0.771947 0
M  V30 2664 O 266.198 -1.80126 -0.72582 0
M  V30 2665 C 263.328 -3.35354 -0.903064 0
M  V30 2666 C 262.282 -4.27526 -0.201288 0
M  V30 2667 C 261.608 -5.19747 -1.25565 0
M  V30 2668 C 262.908 -5.13959 0.929689 0
M  V30 2669 H 264.602 -2.88397 0.804227 0
M  V30 2670 H 262.148 -1.38669 0.388189 0
M  V30 2671 H 264.101 -3.98519 -1.36969 0
M  V30 2672 H 262.825 -2.78767 -1.70166 0
M  V30 2673 H 261.484 -3.65779 0.245265 0
M  V30 2674 H 261.132 -4.59479 -2.04666 0
M  V30 2675 H 260.832 -5.8225 -0.791128 0
M  V30 2676 H 262.356 -5.85789 -1.72288 0
M  V30 2677 H 263.77 -5.70718 0.543546 0
M  V30 2678 H 262.167 -5.85379 1.32103 0
M  V30 2679 H 263.237 -4.51389 1.77133 0
M  V30 2680 N 264.58 -0.43555 -1.51462 0
M  V30 2681 C 265.805 0.132627 -2.06976 0
M  V30 2682 C 266.23 1.35848 -1.30104 0
M  V30 2683 O 265.588 1.78112 -0.338493 0
M  V30 2684 C 265.636 0.43523 -3.57964 0
M  V30 2685 O 264.74 1.52198 -3.83288 0
M  V30 2686 H 264.081 0.00265 -0.663995 0
M  V30 2687 H 266.611 -0.616369 -1.95095 0
M  V30 2688 H 266.621 0.686206 -4.02188 0
M  V30 2689 H 265.296 -0.460739 -4.1334 0
M  V30 2690 H 263.873 1.2611 -3.50928 0
M  V30 2691 N 266.058 1.56714 -0.166846 0
M  V30 2692 C 267.021 2.16539 0.751232 0
M  V30 2693 C 268.021 1.11228 1.16125 0
M  V30 2694 O 269.211 1.36765 1.07894 0
M  V30 2695 C 266.343 2.74462 2.02196 0
M  V30 2696 H 267.536 2.99013 0.230499 0
M  V30 2697 H 265.089 1.56081 0.0826982 0
M  V30 2698 H 265.824 1.95709 2.58589 0
M  V30 2699 H 265.609 3.51527 1.73698 0
M  V30 2700 H 267.099 3.20489 2.67725 0
M  V30 2701 N 267.536 -0.106894 1.57237 0
M  V30 2702 C 268.468 -1.15646 1.97885 0
M  V30 2703 C 269.481 -1.36981 0.879779 0
M  V30 2704 O 270.67 -1.35841 1.15799 0
M  V30 2705 C 267.77 -2.51425 2.27241 0
M  V30 2706 C 266.943 -2.50529 3.58545 0
M  V30 2707 C 266.002 -3.68145 3.75973 0
M  V30 2708 O 265.028 -3.51176 4.47956 0
M  V30 2709 N 266.23 -4.87177 3.15656 0
M  V30 2710 H 268.995 -0.81059 2.8853 0
M  V30 2711 H 266.556 -0.296024 1.59171 0
M  V30 2712 H 268.548 -3.28689 2.36105 0
M  V30 2713 H 267.118 -2.78147 1.42663 0
M  V30 2714 H 266.338 -1.58894 3.60758 0
M  V30 2715 H 267.626 -2.46997 4.44826 0
M  V30 2716 H 267.024 -5.03868 2.57165 0
M  V30 2717 H 265.581 -5.62075 3.30023 0
M  V30 2718 N 269.014 -1.53014 -0.377408 0
M  V30 2719 C 270.242 -1.72515 -1.14219 0
M  V30 2720 C 270.657 -0.448735 -1.8339 0
M  V30 2721 O 270.014 0.577592 -1.73119 0
M  V30 2722 C 270.065 -2.8826 -2.18148 0
M  V30 2723 O 269.786 -4.10962 -1.51795 0
M  V30 2724 C 271.287 -3.19536 -3.07264 0
M  V30 2725 H 268.507 -0.577301 -0.342001 0
M  V30 2726 H 271.051 -1.99712 -0.439935 0
M  V30 2727 H 269.206 -2.63492 -2.83991 0
M  V30 2728 H 269.62 -4.75693 -2.20945 0
M  V30 2729 H 271.094 -4.03959 -3.76193 0
M  V30 2730 H 271.571 -2.34403 -3.71419 0
M  V30 2731 H 272.177 -3.46186 -2.47053 0
M  V30 2732 N 270.492 0.636531 -1.44174 0
M  V30 2733 C 271.422 1.76003 -1.53444 0
M  V30 2734 C 272.403 1.65619 -0.387841 0
M  V30 2735 O 273.588 1.84461 -0.607257 0
M  V30 2736 C 270.718 3.14511 -1.4731 0
M  V30 2737 C 269.672 3.39677 -2.60391 0
M  V30 2738 C 268.998 4.78159 -2.39308 0
M  V30 2739 C 270.298 3.32772 -4.02567 0
M  V30 2740 H 271.992 1.68501 -2.47483 0
M  V30 2741 H 269.538 0.809237 -1.19111 0
M  V30 2742 H 271.491 3.92878 -1.52397 0
M  V30 2743 H 270.215 3.22783 -0.49785 0
M  V30 2744 H 268.874 2.63688 -2.54684 0
M  V30 2745 H 268.522 4.83128 -1.39988 0
M  V30 2746 H 268.222 4.95956 -3.15122 0
M  V30 2747 H 269.746 5.58762 -2.46205 0
M  V30 2748 H 271.16 4.01051 -4.09672 0
M  V30 2749 H 269.557 3.62104 -4.7854 0
M  V30 2750 H 270.627 2.30669 -4.2652 0
M  V30 2751 N 271.97 1.30982 0.876444 0
M  V30 2752 C 272.88 1.2003 2.01569 0
M  V30 2753 C 273.896 0.11838 1.73597 0
M  V30 2754 O 275.072 0.33495 1.98595 0
M  V30 2755 C 272.137 0.901637 3.34771 0
M  V30 2756 C 271.198 2.06979 3.76109 0
M  V30 2757 C 270.431 1.78529 5.02954 0
M  V30 2758 O 270.654 0.717296 5.65872 0
M  V30 2759 O 269.588 2.64019 5.40905 0
M  V30 2760 H 273.414 2.15753 2.13739 0
M  V30 2761 H 270.999 1.10658 1.00375 0
M  V30 2762 H 272.881 0.750645 4.1466 0
M  V30 2763 H 271.556 -0.0256141 3.2369 0
M  V30 2764 H 270.463 2.27616 2.96887 0
M  V30 2765 H 271.796 2.97907 3.91807 0
M  V30 2766 N 273.449 -1.08991 1.13837 0
M  V30 2767 C 274.412 -2.13925 0.822715 0
M  V30 2768 C 275.412 -1.599 -0.1699 0
M  V30 2769 O 276.602 -1.74104 0.0577251 0
M  V30 2770 C 273.734 -3.40155 0.225318 0
M  V30 2771 H 274.927 -2.43358 1.75262 0
M  V30 2772 H 272.48 -1.24603 0.943594 0
M  V30 2773 H 273.215 -3.16352 -0.713594 0
M  V30 2774 H 273 -3.80661 0.940193 0
M  V30 2775 H 274.49 -4.17594 0.0214784 0
M  V30 2776 N 274.927 -0.932562 -1.27047 0
M  V30 2777 C 275.837 -0.441219 -2.30414 0
M  V30 2778 C 276.853 0.480525 -1.67233 0
M  V30 2779 O 278.029 0.362151 -1.98117 0
M  V30 2780 C 275.094 0.293651 -3.45454 0
M  V30 2781 C 274.155 -0.663601 -4.2414 0
M  V30 2782 C 273.388 0.0362932 -5.33688 0
M  V30 2783 O 273.611 1.2548 -5.56427 0
M  V30 2784 O 272.545 -0.638015 -5.98509 0
M  V30 2785 H 276.371 -1.29962 -2.74488 0
M  V30 2786 H 273.956 -0.6981 -1.32087 0
M  V30 2787 H 275.838 0.707951 -4.15411 0
M  V30 2788 H 274.513 1.12758 -3.03426 0
M  V30 2789 H 273.42 -1.12768 -3.56699 0
M  V30 2790 H 274.753 -1.46489 -4.69896 0
M  V30 2791 N 276.405 1.4127 -0.698611 0
M  V30 2792 C 277.63 2.06024 -0.238512 0
M  V30 2793 C 278.055 1.5224 1.10475 0
M  V30 2794 O 277.413 0.650623 1.69223 0
M  V30 2795 C 277.461 3.59988 -0.209952 0
M  V30 2796 O 276.565 4.04282 0.814235 0
M  V30 2797 H 275.906 0.653829 -0.115775 0
M  V30 2798 H 278.436 1.8098 -0.954326 0
M  V30 2799 H 278.446 4.07979 -0.0418436 0
M  V30 2800 H 277.121 3.98503 -1.1903 0
M  V30 2801 H 275.698 3.6779 0.615234 0
M  V30 2802 N 277.883 0.443576 1.51229 0
M  V30 2803 C 279.129 -0.120975 2.02439 0
M  V30 2804 C 279.462 -1.41815 1.32674 0
M  V30 2805 O 278.737 -1.89373 0.443622 0
M  V30 2806 C 279.02 -0.333291 3.58554 0
M  V30 2807 C 278.873 0.982968 4.38928 0
M  V30 2808 C 280.192 -1.10028 4.26124 0
M  V30 2809 H 277.311 -0.0424923 0.735774 0
M  V30 2810 H 279.953 0.583794 1.80809 0
M  V30 2811 H 278.103 -0.933614 3.77115 0
M  V30 2812 H 279.775 1.61775 4.32003 0
M  V30 2813 H 278.018 1.58611 4.03763 0
M  V30 2814 H 278.689 0.788379 5.46341 0
M  V30 2815 H 281.165 -0.591711 4.11871 0
M  V30 2816 H 280.041 -1.21761 5.35225 0
M  V30 2817 H 280.302 -2.12996 3.87408 0
M  V30 2818 N 279.361 -1.56624 0.175154 0
M  V30 2819 C 280.291 -2.21155 -0.749195 0
M  V30 2820 C 281.272 -1.16836 -1.23626 0
M  V30 2821 O 282.457 -1.45277 -1.28873 0
M  V30 2822 C 279.587 -2.8553 -1.97711 0
M  V30 2823 C 278.541 -3.95921 -1.62575 0
M  V30 2824 C 277.867 -4.47365 -2.92864 0
M  V30 2825 C 279.167 -5.15323 -0.850838 0
M  V30 2826 H 280.861 -2.98653 -0.211295 0
M  V30 2827 H 278.407 -1.43651 -0.100188 0
M  V30 2828 H 280.36 -3.2935 -2.62881 0
M  V30 2829 H 279.084 -2.05406 -2.53921 0
M  V30 2830 H 277.743 -3.52762 -0.997719 0
M  V30 2831 H 277.391 -3.64027 -3.47122 0
M  V30 2832 H 277.091 -5.21839 -2.70106 0
M  V30 2833 H 278.615 -4.93873 -3.59056 0
M  V30 2834 H 280.029 -5.55812 -1.40521 0
M  V30 2835 H 278.426 -5.95739 -0.722154 0
M  V30 2836 H 279.496 -4.84661 0.152082 0
M  V30 2837 N 280.839 0.0985539 -1.57292 0
M  V30 2838 C 281.802 1.10402 -2.00858 0
M  V30 2839 C 282.802 1.33146 -0.901593 0
M  V30 2840 O 283.992 1.29318 -1.16716 0
M  V30 2841 C 281.124 2.45394 -2.36632 0
M  V30 2842 H 282.317 0.729099 -2.90902 0
M  V30 2843 H 279.87 0.343495 -1.52479 0
M  V30 2844 H 280.605 2.87769 -1.49531 0
M  V30 2845 H 280.39 2.30235 -3.17387 0
M  V30 2846 H 281.88 3.17718 -2.71007 0
M  V30 2847 N 282.317 1.53212 0.369288 0
M  V30 2848 C 283.247 1.82365 1.45826 0
M  V30 2849 C 284.228 0.676907 1.56051 0
M  V30 2850 O 285.413 0.926401 1.70679 0
M  V30 2851 C 282.543 2.01023 2.83208 0
M  V30 2852 C 281.497 3.1678 2.8781 0
M  V30 2853 C 280.823 3.20724 4.27832 0
M  V30 2854 C 282.123 4.55447 2.55667 0
M  V30 2855 H 283.817 2.73559 1.21678 0
M  V30 2856 H 281.363 1.3163 0.583911 0
M  V30 2857 H 283.316 2.20001 3.59413 0
M  V30 2858 H 282.04 1.06536 3.08736 0
M  V30 2859 H 280.699 2.97616 2.14056 0
M  V30 2860 H 280.347 2.23882 4.50429 0
M  V30 2861 H 280.047 3.98496 4.31827 0
M  V30 2862 H 281.571 3.41881 5.05915 0
M  V30 2863 H 282.985 4.74611 3.21586 0
M  V30 2864 H 281.382 5.35432 2.70984 0
M  V30 2865 H 282.452 4.60812 1.5093 0
M  V30 2866 N 283.795 -0.628877 1.44509 0
M  V30 2867 C 285.041 -1.39045 1.47629 0
M  V30 2868 C 285.374 -1.93892 0.109343 0
M  V30 2869 O 284.649 -1.7379 -0.87334 0
M  V30 2870 C 284.932 -2.55408 2.53848 0
M  V30 2871 C 284.785 -2.05896 3.99909 0
M  V30 2872 C 286.104 -3.5759 2.56549 0
M  V30 2873 H 283.223 -0.504232 0.537512 0
M  V30 2874 H 285.865 -0.710854 1.76201 0
M  V30 2875 H 284.015 -3.13384 2.29615 0
M  V30 2876 H 285.687 -1.52734 4.35282 0
M  V30 2877 H 283.93 -1.37061 4.11578 0
M  V30 2878 H 284.601 -2.89681 4.69882 0
M  V30 2879 H 287.077 -3.09419 2.78207 0
M  V30 2880 H 285.953 -4.36527 3.32769 0
M  V30 2881 H 286.214 -4.11808 1.60832 0
M  V30 2882 N 285.273 -1.31445 -0.869486 0
M  V30 2883 C 286.689 -1.10113 -1.15531 0
M  V30 2884 C 286.889 0.128087 -2.01092 0
M  V30 2885 O 285.945 0.817276 -2.38908 0
M  V30 2886 C 287.258 -2.37291 -1.84698 0
M  V30 2887 C 288.806 -2.42906 -1.97397 0
M  V30 2888 C 289.281 -3.69967 -2.69979 0
M  V30 2889 N 290.772 -3.70864 -2.77514 0
M  V30 2890 C 291.507 -4.65875 -3.34287 0
M  V30 2891 N 291.003 -5.71242 -3.91988 0
M  V30 2892 N 292.796 -4.53394 -3.3225 0
M  V30 2893 H 284.947 -2.1028 -0.299347 0
M  V30 2894 H 287.21 -0.927683 -0.195214 0
M  V30 2895 H 286.916 -3.27078 -1.29278 0
M  V30 2896 H 286.79 -2.47125 -2.84972 0
M  V30 2897 H 289.177 -1.53588 -2.51982 0
M  V30 2898 H 289.258 -2.37036 -0.961643 0
M  V30 2899 H 288.902 -4.59652 -2.16062 0
M  V30 2900 H 288.832 -3.73103 -3.7162 0
M  V30 2901 H 291.323 -2.94697 -2.36563 0
M  V30 2902 H 291.636 -6.39817 -4.33421 0
M  V30 2903 H 289.981 -5.75015 -3.90362 0
M  V30 2904 H 293.172 -3.70252 -2.8641 0
M  V30 2905 H 293.345 -5.27617 -3.76197 0
M  V30 2906 N 286.751 1.08385 -1.14413 0
M  V30 2907 C 287.661 2.18856 -0.844951 0
M  V30 2908 C 288.677 1.73121 0.174668 0
M  V30 2909 O 289.853 2.014 0.00312857 0
M  V30 2910 C 286.918 3.45155 -0.32696 0
M  V30 2911 C 285.979 4.05513 -1.40916 0
M  V30 2912 C 285.212 5.25784 -0.915793 0
M  V30 2913 O 285.435 5.69884 0.242651 0
M  V30 2914 O 284.369 5.77545 -1.69487 0
M  V30 2915 H 288.195 2.46919 -1.76818 0
M  V30 2916 H 285.78 1.17524 -0.922411 0
M  V30 2917 H 287.662 4.21377 -0.0440211 0
M  V30 2918 H 286.337 3.18668 0.568539 0
M  V30 2919 H 285.244 3.30879 -1.74556 0
M  V30 2920 H 286.577 4.3625 -2.27919 0
M  V30 2921 N 288.23 0.939286 1.26551 0
M  V30 2922 C 289.16 0.465044 2.28822 0
M  V30 2923 C 290.141 -0.480692 1.63167 0
M  V30 2924 O 291.326 -0.382955 1.90387 0
M  V30 2925 C 288.456 -0.27234 3.46231 0
M  V30 2926 C 287.41 0.58666 4.2396 0
M  V30 2927 C 286.736 -0.280573 5.33963 0
M  V30 2928 C 288.036 1.85704 4.88171 0
M  V30 2929 H 289.73 1.31979 2.68741 0
M  V30 2930 H 287.276 0.636061 1.29191 0
M  V30 2931 H 289.229 -0.615133 4.16886 0
M  V30 2932 H 287.953 -1.16121 3.0526 0
M  V30 2933 H 286.612 0.91232 3.55067 0
M  V30 2934 H 286.26 -1.16874 4.89234 0
M  V30 2935 H 285.96 0.29076 5.8688 0
M  V30 2936 H 287.484 -0.618678 6.07458 0
M  V30 2937 H 288.898 1.58161 5.51052 0
M  V30 2938 H 287.295 2.37279 5.51197 0
M  V30 2939 H 288.365 2.56957 4.11219 0
M  V30 2940 N 289.708 -1.40897 0.706093 0
M  V30 2941 C 290.956 -2.00657 0.241054 0
M  V30 2942 C 291.277 -1.56241 -1.16678 0
M  V30 2943 O 290.547 -0.79765 -1.78926 0
M  V30 2944 H 289.127 -0.742018 0.0861308 0
M  V30 2945 H 291.789 -1.72372 0.909604 0
M  V30 2946 H 290.885 -3.10958 0.266705 0
M  V30 2947 N 291.186 -0.45159 -1.50991 0
M  V30 2948 C 292.116 0.342898 -2.30969 0
M  V30 2949 C 293.097 1.00815 -1.37005 0
M  V30 2950 O 294.282 1.00907 -1.65926 0
M  V30 2951 C 291.412 1.43637 -3.16205 0
M  V30 2952 C 290.366 0.893818 -4.18563 0
M  V30 2953 C 289.692 2.08411 -4.92411 0
M  V30 2954 C 290.992 -0.0815568 -5.22236 0
M  V30 2955 H 292.686 -0.324556 -2.97636 0
M  V30 2956 H 290.232 -0.157531 -1.43136 0
M  V30 2957 H 292.185 1.9995 -3.70942 0
M  V30 2958 H 290.909 2.13232 -2.47386 0
M  V30 2959 H 289.568 0.352798 -3.64898 0
M  V30 2960 H 289.216 2.76658 -4.20082 0
M  V30 2961 H 288.916 1.72741 -5.61636 0
M  V30 2962 H 290.44 2.65251 -5.49976 0
M  V30 2963 H 291.854 0.391742 -5.7196 0
M  V30 2964 H 290.251 -0.351551 -5.99069 0
M  V30 2965 H 291.321 -1.01374 -4.74185 0
M  V30 2966 N 292.664 1.56529 -0.183458 0
M  V30 2967 C 293.614 2.1515 0.754605 0
M  V30 2968 C 294.598 1.08904 1.18443 0
M  V30 2969 O 295.79 1.34997 1.14476 0
M  V30 2970 C 292.919 2.80531 1.97881 0
M  V30 2971 C 292.005 3.93952 1.57043 0
M  V30 2972 N 292.396 4.98221 0.87231 0
M  V30 2973 C 290.694 4.05338 1.86057 0
M  V30 2974 C 291.395 5.77836 0.669377 0
M  V30 2975 N 290.371 5.29858 1.21454 0
M  V30 2976 H 294.173 2.93132 0.212387 0
M  V30 2977 H 291.687 1.62391 0.0167725 0
M  V30 2978 H 293.684 3.20914 2.6612 0
M  V30 2979 H 292.344 2.04035 2.52586 0
M  V30 2980 H 293.355 5.15191 0.529033 0
M  V30 2981 H 290.032 3.39957 2.42354 0
M  V30 2982 H 291.422 6.71799 0.116422 0
M  V30 2983 N 294.142 -0.090211 1.57342 0
M  V30 2984 C 295.388 -0.793982 1.86611 0
M  V30 2985 C 295.721 -1.78142 0.773252 0
M  V30 2986 O 294.996 -1.93271 -0.218304 0
M  V30 2987 C 295.279 -1.51839 3.26523 0
M  V30 2988 C 295.132 -0.548609 4.46442 0
M  V30 2989 C 296.451 -2.46779 3.64401 0
M  V30 2990 H 293.57 -0.287186 0.678744 0
M  V30 2991 H 296.212 -0.0575076 1.89913 0
M  V30 2992 H 294.362 -2.14617 3.23839 0
M  V30 2993 H 296.034 0.0725513 4.61243 0
M  V30 2994 H 294.277 0.137614 4.33582 0
M  V30 2995 H 294.948 -1.09271 5.41076 0
M  V30 2996 H 297.424 -1.94089 3.68061 0
M  V30 2997 H 296.3 -2.94479 4.63221 0
M  V30 2998 H 296.561 -3.30758 2.93346 0
M  V30 2999 N 295.62 -1.53406 -0.361157 0
M  V30 3000 C 297.031 -1.61442 -0.937728 0
M  V30 3001 C 297.382 -0.48461 -1.90121 0
M  V30 3002 O 296.507 0.388312 -2.12888 0
M  V30 3003 C 297.102 -2.92624 -1.70753 0
M  V30 3004 C 295.661 -3.02981 -2.23337 0
M  V30 3005 C 294.808 -2.5677 -1.04712 0
M  V30 3006 H 297.759 -1.58083 -0.139816 0
M  V30 3007 H 297.78 -2.80675 -2.56908 0
M  V30 3008 H 297.292 -3.74834 -1.00604 0
M  V30 3009 H 295.393 -2.25368 -2.96715 0
M  V30 3010 H 295.506 -4.0814 -2.50916 0
M  V30 3011 H 293.87 -2.11752 -1.41539 0
M  V30 3012 H 294.653 -3.41402 -0.360539 0
M  V30 3013 N 297.098 0.621204 -1.44841 0
M  V30 3014 C 298.046 1.75385 -1.52784 0
M  V30 3015 C 299.04 1.64639 -0.398779 0
M  V30 3016 O 300.246 1.70598 -0.574137 0
M  V30 3017 H 296.621 0.579193 -0.479625 0
M  V30 3018 H 298.592 1.6581 -2.48092 0
M  V30 3019 C 297.341 3.13742 -1.4987 0
M  V30 3020 H 296.664 3.22663 -2.36069 0
M  V30 3021 H 298.104 3.92861 -1.59487 0
M  V30 3022 C 296.563 3.36175 -0.220973 0
M  V30 3023 O 297.093 3.95469 0.704782 0
M  V30 3024 N 295.299 2.90348 -0.120963 0
M  V30 3025 H 294.846 2.42278 -0.875162 0
M  V30 3026 H 294.804 3.05732 0.733168 0
M  V30 3027 N 298.576 1.31904 0.862503 0
M  V30 3028 C 299.486 1.22161 2.00285 0
M  V30 3029 C 300.502 0.136785 1.73462 0
M  V30 3030 O 301.678 0.355994 1.98229 0
M  V30 3031 C 298.743 0.937093 3.33796 0
M  V30 3032 C 297.804 2.10957 3.73893 0
M  V30 3033 C 297.037 1.83853 5.01033 0
M  V30 3034 O 297.26 0.777274 5.65079 0
M  V30 3035 O 296.194 2.69741 5.38074 0
M  V30 3036 H 300.02 2.18008 2.11439 0
M  V30 3037 H 297.605 1.11716 0.991957 0
M  V30 3038 H 299.487 0.794583 4.13841 0
M  V30 3039 H 298.162 0.00871894 3.23699 0
M  V30 3040 H 297.069 2.30752 2.94456 0
M  V30 3041 H 298.402 3.02046 3.88625 0
M  V30 3042 N 300.054 -1.07777 1.14986 0
M  V30 3043 C 300.984 -2.16865 0.865557 0
M  V30 3044 C 301.965 -1.69123 -0.182083 0
M  V30 3045 O 303.15 -1.94164 -0.0373815 0
M  V30 3046 C 300.28 -3.45539 0.349313 0
M  V30 3047 C 299.234 -4.06708 1.33313 0
M  V30 3048 C 298.56 -5.30411 0.675918 0
M  V30 3049 C 299.86 -4.47241 2.69764 0
M  V30 3050 H 301.554 -2.40905 1.77778 0
M  V30 3051 H 299.1 -1.15781 0.856203 0
M  V30 3052 H 301.053 -4.21174 0.137983 0
M  V30 3053 H 299.777 -3.21072 -0.598362 0
M  V30 3054 H 298.436 -3.33112 1.53075 0
M  V30 3055 H 298.084 -5.02232 -0.277767 0
M  V30 3056 H 297.784 -5.72293 1.33244 0
M  V30 3057 H 299.308 -6.08755 0.474262 0
M  V30 3058 H 300.722 -5.14025 2.53873 0
M  V30 3059 H 299.119 -5.00062 3.3175 0
M  V30 3060 H 300.189 -3.58818 3.26156 0
M  V30 3061 N 301.532 -0.945985 -1.26051 0
M  V30 3062 C 302.78 -0.594941 -1.93145 0
M  V30 3063 C 303.101 0.86953 -1.7454 0
M  V30 3064 O 302.371 1.61838 -1.10387 0
M  V30 3065 H 300.951 -0.217044 -0.714773 0
M  V30 3066 H 303.613 -1.20235 -1.53393 0
M  V30 3067 H 302.709 -0.816835 -3.01221 0
M  V30 3068 N 303.011 1.40521 -0.713556 0
M  V30 3069 C 303.941 2.33381 -0.0743864 0
M  V30 3070 C 304.922 1.52784 0.747735 0
M  V30 3071 O 306.107 1.81258 0.697071 0
M  V30 3072 C 303.237 3.36748 0.849598 0
M  V30 3073 C 302.191 4.27793 0.133247 0
M  V30 3074 C 301.517 5.21679 1.17281 0
M  V30 3075 C 302.817 5.12415 -1.01134 0
M  V30 3076 H 304.511 2.87081 -0.850007 0
M  V30 3077 H 302.057 1.38034 -0.410201 0
M  V30 3078 H 304.01 4.00648 1.30612 0
M  V30 3079 H 302.734 2.81439 1.65709 0
M  V30 3080 H 301.393 3.65342 -0.303426 0
M  V30 3081 H 301.041 4.62677 1.9733 0
M  V30 3082 H 300.741 5.83435 0.698397 0
M  V30 3083 H 302.265 5.88456 1.62947 0
M  V30 3084 H 303.679 5.69781 -0.634274 0
M  V30 3085 H 302.076 5.83203 -1.41399 0
M  V30 3086 H 303.146 4.48514 -1.84292 0
M  V30 3087 N 304.489 0.459591 1.5075 0
M  V30 3088 C 305.436 -0.340524 2.28274 0
M  V30 3089 C 306.406 -0.997371 1.32822 0
M  V30 3090 O 307.591 -1.01202 1.61749 0
M  V30 3091 C 304.731 -1.42317 3.14388 0
M  V30 3092 C 303.844 -0.782251 4.24859 0
M  V30 3093 C 302.979 -1.84182 4.98247 0
M  V30 3094 C 302.018 -1.18053 6.00608 0
M  V30 3095 N 301.155 -2.18244 6.67319 0
M  V30 3096 H 305.995 0.326899 2.96202 0
M  V30 3097 H 303.532 0.173057 1.46078 0
M  V30 3098 H 305.49 -2.06241 3.62658 0
M  V30 3099 H 304.12 -2.05992 2.4853 0
M  V30 3100 H 303.172 -0.0307404 3.80388 0
M  V30 3101 H 304.484 -0.259663 4.98124 0
M  V30 3102 H 303.638 -2.55714 5.50177 0
M  V30 3103 H 302.377 -2.39819 4.24662 0
M  V30 3104 H 301.382 -0.450776 5.47949 0
M  V30 3105 H 302.607 -0.631202 6.7616 0
M  V30 3106 H 300.553 -2.72919 5.96533 0
M  V30 3107 H 300.47 -1.70938 7.36421 0
M  V30 3108 H 301.738 -2.89191 7.23871 0
M  V30 3109 N 305.967 -1.56429 0.191757 0
M  V30 3110 C 307.214 -1.97485 -0.447891 0
M  V30 3111 C 307.542 -1.07852 -1.61859 0
M  V30 3112 O 306.797 -0.116903 -1.95351 0
M  V30 3113 C 307.096 -3.44449 -0.953384 0
M  V30 3114 C 306.762 -4.50781 0.103586 0
M  V30 3115 C 305.424 -4.79584 0.394023 0
M  V30 3116 C 307.776 -5.1471 0.819946 0
M  V30 3117 C 305.104 -5.69607 1.40585 0
M  V30 3118 C 307.456 -6.05827 1.8209 0
M  V30 3119 C 306.12 -6.32987 2.11857 0
M  V30 3120 H 305.39 -0.722648 -0.163895 0
M  V30 3121 H 308.037 -1.89322 0.28802 0
M  V30 3122 H 306.342 -3.49666 -1.76751 0
M  V30 3123 H 308.039 -3.73569 -1.45765 0
M  V30 3124 H 304.629 -4.28394 -0.132951 0
M  V30 3125 H 308.813 -4.92552 0.608789 0
M  V30 3126 H 304.069 -5.88926 1.64243 0
M  V30 3127 H 308.243 -6.54424 2.38123 0
M  V30 3128 H 305.87 -7.02544 2.90407 0
M  V30 3129 N 307.445 0.0818655 -1.57387 0
M  V30 3130 C 308.685 0.788375 -1.88584 0
M  V30 3131 C 309.049 1.75248 -0.784351 0
M  V30 3132 O 310.25 2.50334 -0.979105 0
M  V30 3133 C 308.521 1.48654 -3.25018 0
M  V30 3134 S 310.08 2.22951 -3.7794 0
M  V30 3135 H 306.898 0.262383 -0.660815 0
M  V30 3136 H 309.5 0.0448995 -1.95448 0
M  V30 3137 H 308.204 0.770919 -4.03094 0
M  V30 3138 H 307.735 2.26965 -3.21326 0
M  V30 3139 H 309.75 3.49309 -3.52417 0
M  V30 3140 N 308.923 1.53595 0.353017 0
M  V30 3141 C 309.87 1.80919 1.43308 0
M  V30 3142 C 310.84 0.654288 1.5267 0
M  V30 3143 O 312.025 0.897759 1.6836 0
M  V30 3144 C 309.165 2.01605 2.80089 0
M  V30 3145 C 308.278 3.29321 2.79593 0
M  V30 3146 C 307.413 3.40125 4.0803 0
M  V30 3147 C 306.452 4.61826 4.01725 0
M  V30 3148 N 305.589 4.69716 5.21834 0
M  V30 3149 H 310.429 2.73074 1.19308 0
M  V30 3150 H 307.966 1.35263 0.578131 0
M  V30 3151 H 309.924 2.11586 3.59565 0
M  V30 3152 H 308.554 1.12772 3.0246 0
M  V30 3153 H 307.606 3.28229 1.92276 0
M  V30 3154 H 308.918 4.18884 2.70809 0
M  V30 3155 H 308.072 3.49488 4.95927 0
M  V30 3156 H 306.811 2.48601 4.19582 0
M  V30 3157 H 305.816 4.52552 3.12213 0
M  V30 3158 H 307.041 5.54705 3.91764 0
M  V30 3159 H 304.987 3.81097 5.33948 0
M  V30 3160 H 304.904 5.53202 5.1527 0
M  V30 3161 H 306.172 4.83376 6.11529 0
M  V30 3162 N 310.401 -0.613514 1.45168 0
M  V30 3163 C 311.817 -0.933629 1.29443 0
M  V30 3164 C 312.017 -2.00028 0.243101 0
M  V30 3165 O 311.073 -2.49848 -0.364992 0
M  V30 3166 C 312.386 -1.38018 2.67155 0
M  V30 3167 C 313.934 -1.49471 2.75004 0
M  V30 3168 C 314.409 -1.97503 4.13227 0
M  V30 3169 N 315.9 -2.04746 4.15491 0
M  V30 3170 C 316.635 -2.43121 5.19307 0
M  V30 3171 N 316.131 -2.80506 6.33473 0
M  V30 3172 N 317.924 -2.43408 5.06664 0
M  V30 3173 H 310.075 0.0916097 2.12202 0
M  V30 3174 H 312.338 -0.0216655 0.947752 0
M  V30 3175 H 312.044 -0.670625 3.45247 0
M  V30 3176 H 311.918 -2.34784 2.95222 0
M  V30 3177 H 314.305 -2.19519 1.9722 0
M  V30 3178 H 314.386 -0.510342 2.50657 0
M  V30 3179 H 314.03 -1.28045 4.91495 0
M  V30 3180 H 313.96 -2.96843 4.34962 0
M  V30 3181 H 316.451 -1.78468 3.33103 0
M  V30 3182 H 316.764 -3.08652 7.08487 0
M  V30 3183 H 315.109 -2.78216 6.36884 0
M  V30 3184 H 318.3 -2.13604 4.16523 0
M  V30 3185 H 318.473 -2.72989 5.87691 0
M  V30 3186 N 311.879 -1.3236 -0.855495 0
M  V30 3187 C 313.104 -1.2601 -1.64731 0
M  V30 3188 C 313.529 0.169068 -1.87339 0
M  V30 3189 O 312.887 1.12016 -1.42556 0
M  V30 3190 C 312.935 -2.02417 -2.98429 0
M  V30 3191 O 312.039 -1.3714 -3.8893 0
M  V30 3192 H 311.38 -0.434325 -0.502253 0
M  V30 3193 H 313.91 -1.74661 -1.06558 0
M  V30 3194 H 313.92 -2.12559 -3.48257 0
M  V30 3195 H 312.595 -3.06343 -2.81295 0
M  V30 3196 H 311.172 -1.3554 -3.47395 0
M  V30 3197 N 313.357 1.07166 -1.15556 0
M  V30 3198 C 314.604 1.79798 -0.931604 0
M  V30 3199 C 314.932 1.8682 0.54115 0
M  V30 3200 O 314.187 1.34942 1.41736 0
M  V30 3201 C 314.486 3.24707 -1.49332 0
M  V30 3202 C 314.152 3.37781 -2.98688 0
M  V30 3203 C 312.814 3.41057 -3.39461 0
M  V30 3204 C 315.166 3.40424 -3.94665 0
M  V30 3205 C 312.494 3.4458 -4.74849 0
M  V30 3206 C 314.846 3.45485 -5.29927 0
M  V30 3207 C 313.51 3.47039 -5.70193 0
M  V30 3208 H 312.78 0.657928 -0.340898 0
M  V30 3209 H 315.427 1.26091 -1.44129 0
M  V30 3210 H 313.732 3.81208 -0.904859 0
M  V30 3211 H 315.429 3.79486 -1.29582 0
M  V30 3212 H 312.019 3.35932 -2.66172 0
M  V30 3213 H 316.203 3.37113 -3.64237 0
M  V30 3214 H 311.459 3.44083 -5.05388 0
M  V30 3215 H 315.633 3.46476 -6.04092 0
M  V30 3216 H 313.26 3.49522 -6.75084 0
M  V30 3217 N 314.835 0.952656 1.25548 0
M  V30 3218 C 316.06 0.623025 1.97821 0
M  V30 3219 C 316.485 -0.7976 1.70352 0
M  V30 3220 O 315.843 -1.53905 0.958283 0
M  V30 3221 C 315.891 0.885532 3.49558 0
M  V30 3222 O 314.995 -0.0366641 4.12384 0
M  V30 3223 H 314.336 0.237082 0.620232 0
M  V30 3224 H 316.866 1.27871 1.59719 0
M  V30 3225 H 316.876 0.811009 3.99858 0
M  V30 3226 H 315.551 1.92094 3.6888 0
M  V30 3227 H 314.128 0.0898954 3.72792 0
M  V30 3228 N 316.313 -1.40141 0.720998 0
M  V30 3229 C 317.559 -2.01084 0.263231 0
M  V30 3230 C 317.892 -1.57052 -1.14229 0
M  V30 3231 O 317.167 -0.793027 -1.77599 0
M  V30 3232 C 317.45 -3.58401 0.349344 0
M  V30 3233 C 317.303 -4.12491 1.79363 0
M  V30 3234 C 318.622 -4.39231 -0.276351 0
M  V30 3235 H 315.741 -0.730572 0.0971228 0
M  V30 3236 H 318.383 -1.66543 0.914518 0
M  V30 3237 H 316.533 -3.87958 -0.205165 0
M  V30 3238 H 318.205 -3.93711 2.40394 0
M  V30 3239 H 316.448 -3.66576 2.31958 0
M  V30 3240 H 317.119 -5.21646 1.80524 0
M  V30 3241 H 319.595 -4.15637 0.196184 0
M  V30 3242 H 318.471 -5.48586 -0.185681 0
M  V30 3243 H 318.732 -4.20643 -1.36059 0
M  V30 3244 N 317.792 -0.46758 -1.50504 0
M  V30 3245 C 319.022 0.086288 -2.0642 0
M  V30 3246 C 319.43 1.34369 -1.33197 0
M  V30 3247 O 318.773 1.79431 -0.393747 0
M  V30 3248 C 318.835 0.443846 -3.5675 0
M  V30 3249 C 318.499 -0.711035 -4.51435 0
M  V30 3250 C 319.496 -1.59205 -4.94924 0
M  V30 3251 C 317.181 -0.900363 -4.94165 0
M  V30 3252 C 319.175 -2.64683 -5.79846 0
M  V30 3253 C 316.862 -1.95837 -5.7887 0
M  V30 3254 C 317.86 -2.82997 -6.21612 0
M  V30 3255 O 317.548 -3.86977 -7.0463 0
M  V30 3256 H 317.28 -0.00217814 -0.675996 0
M  V30 3257 H 319.834 -0.654346 -1.94698 0
M  V30 3258 H 318.064 1.23762 -3.6636 0
M  V30 3259 H 319.753 0.932386 -3.95046 0
M  V30 3260 H 320.519 -1.45745 -4.62583 0
M  V30 3261 H 316.398 -0.231427 -4.60419 0
M  V30 3262 H 319.942 -3.32745 -6.13128 0
M  V30 3263 H 315.839 -2.09305 -6.10624 0
M  V30 3264 H 316.607 -3.83923 -7.22873 0
M  V30 3265 N 319.27 1.56325 -0.20005 0
M  V30 3266 C 320.681 1.8408 0.31167 0
M  V30 3267 C 321.032 1.12087 1.61031 0
M  V30 3268 O 320.157 0.38332 2.12978 0
M  V30 3269 C 320.752 3.33932 0.57226 0
M  V30 3270 C 319.311 3.6208 1.02834 0
M  V30 3271 C 318.458 2.77186 0.079634 0
M  V30 3272 H 321.409 1.52939 -0.423729 0
M  V30 3273 H 321.43 3.52971 1.42096 0
M  V30 3274 H 320.942 3.86303 -0.37308 0
M  V30 3275 H 319.043 3.15147 1.98778 0
M  V30 3276 H 319.156 4.7023 0.917624 0
M  V30 3277 H 317.52 2.47951 0.582448 0
M  V30 3278 H 318.303 3.32347 -0.860238 0
M  V30 3279 N 320.748 -0.0735177 1.57428 0
M  V30 3280 C 321.976 -0.785969 1.9139 0
M  V30 3281 C 322.391 -1.71207 0.795847 0
M  V30 3282 O 321.748 -1.81033 -0.230915 0
M  V30 3283 C 321.799 -1.58107 3.25091 0
M  V30 3284 O 321.52 -0.6922 4.32597 0
M  V30 3285 C 323.021 -2.39467 3.73055 0
M  V30 3286 H 320.241 -0.223558 0.632663 0
M  V30 3287 H 322.785 -0.044302 2.04452 0
M  V30 3288 H 320.94 -2.27503 3.13562 0
M  V30 3289 H 321.354 -1.24504 5.09508 0
M  V30 3290 H 322.828 -2.90716 4.69242 0
M  V30 3291 H 323.305 -3.18913 3.01979 0
M  V30 3292 H 323.911 -1.7523 3.87523 0
M  V30 3293 N 322.226 -1.5378 -0.344866 0
M  V30 3294 C 323.156 -1.84662 -1.42906 0
M  V30 3295 C 324.137 -0.701648 -1.54955 0
M  V30 3296 O 325.322 -0.953438 -1.69184 0
M  V30 3297 C 322.452 -2.05503 -2.79974 0
M  V30 3298 C 321.406 -3.21318 -2.82734 0
M  V30 3299 C 320.732 -3.2749 -4.22675 0
M  V30 3300 C 322.032 -4.59456 -2.48389 0
M  V30 3301 H 323.726 -2.75461 -1.17311 0
M  V30 3302 H 321.272 -1.32542 -0.562896 0
M  V30 3303 H 323.225 -2.25691 -3.55867 0
M  V30 3304 H 321.949 -1.11434 -3.07002 0
M  V30 3305 H 320.608 -3.00984 -2.09294 0
M  V30 3306 H 320.256 -2.31019 -4.4681 0
M  V30 3307 H 319.956 -4.05316 -4.25433 0
M  V30 3308 H 321.48 -3.49887 -5.00412 0
M  V30 3309 H 322.894 -4.79667 -3.13995 0
M  V30 3310 H 321.291 -5.39675 -2.62432 0
M  V30 3311 H 322.361 -4.63155 -1.4358 0
M  V30 3312 N 323.704 0.605807 -1.45491 0
M  V30 3313 C 324.652 1.73754 -1.54636 0
M  V30 3314 C 325.646 1.64207 -0.416219 0
M  V30 3315 O 326.852 1.69979 -0.592199 0
M  V30 3316 H 323.227 0.574073 -0.485741 0
M  V30 3317 H 325.198 1.63169 -2.49837 0
M  V30 3318 C 323.947 3.12135 -1.53189 0
M  V30 3319 H 323.27 3.20141 -2.39478 0
M  V30 3320 H 324.71 3.91147 -1.63645 0
M  V30 3321 C 323.169 3.35921 -0.256616 0
M  V30 3322 O 323.699 3.96194 0.662798 0
M  V30 3323 N 321.905 2.90204 -0.151751 0
M  V30 3324 H 321.452 2.41336 -0.90081 0
M  V30 3325 H 321.41 3.06492 0.700699 0
M  V30 3326 N 325.182 1.32811 0.848464 0
M  V30 3327 C 326.428 1.24917 1.60522 0
M  V30 3328 C 326.783 -0.185761 1.91501 0
M  V30 3329 O 326.076 -1.12524 1.55077 0
M  V30 3330 C 326.27 2.04831 2.92881 0
M  V30 3331 C 326.099 3.55949 2.74828 0
M  V30 3332 C 324.869 4.25277 2.72887 0
M  V30 3333 C 327.067 4.50476 2.48145 0
M  V30 3334 N 325.049 5.62408 2.46111 0
M  V30 3335 C 326.42 5.75427 2.30832 0
M  V30 3336 C 328.475 4.39665 2.33664 0
M  V30 3337 C 327.178 6.90789 2.00508 0
M  V30 3338 C 329.204 5.54833 2.04731 0
M  V30 3339 C 328.566 6.78787 1.88223 0
M  V30 3340 H 324.665 0.512279 0.590842 0
M  V30 3341 H 327.249 1.67246 0.996839 0
M  V30 3342 H 325.42 1.64837 3.51686 0
M  V30 3343 H 327.152 1.88782 3.57971 0
M  V30 3344 H 323.907 3.77456 2.86049 0
M  V30 3345 H 324.331 6.3467 2.35634 0
M  V30 3346 H 328.973 3.44477 2.45144 0
M  V30 3347 H 326.691 7.85984 1.87765 0
M  V30 3348 H 330.277 5.48398 1.94295 0
M  V30 3349 H 329.157 7.66396 1.66155 0
M  V30 3350 N 326.66 -1.06551 1.16123 0
M  V30 3351 C 327.57 -2.17484 0.879662 0
M  V30 3352 C 328.586 -1.73377 -0.147104 0
M  V30 3353 O 329.762 -2.01379 0.0289128 0
M  V30 3354 C 326.827 -3.44591 0.381829 0
M  V30 3355 C 325.888 -4.0322 1.4735 0
M  V30 3356 C 325.121 -5.24261 0.999324 0
M  V30 3357 O 325.344 -5.70198 -0.151957 0
M  V30 3358 O 324.278 -5.74775 1.78653 0
M  V30 3359 H 328.104 -2.44075 1.80724 0
M  V30 3360 H 325.689 -1.16042 0.940992 0
M  V30 3361 H 327.571 -4.21254 0.111053 0
M  V30 3362 H 326.246 -3.19532 -0.51777 0
M  V30 3363 H 325.153 -3.2806 1.79798 0
M  V30 3364 H 326.486 -4.32568 2.34831 0
M  V30 3365 N 328.138 -0.959301 -1.25041 0
M  V30 3366 C 329.366 -0.633949 -1.96948 0
M  V30 3367 C 329.781 0.794916 -1.7125 0
M  V30 3368 O 329.138 1.53231 -0.991287 0
M  V30 3369 C 329.189 -0.888805 -3.50403 0
M  V30 3370 O 328.91 -2.26149 -3.75218 0
M  V30 3371 C 330.411 -0.576482 -4.39536 0
M  V30 3372 H 327.631 -0.237263 -0.627652 0
M  V30 3373 H 330.175 -1.28495 -1.59089 0
M  V30 3374 H 328.33 -0.284145 -3.86357 0
M  V30 3375 H 328.744 -2.33514 -4.6965 0
M  V30 3376 H 330.218 -0.805314 -5.46094 0
M  V30 3377 H 330.695 0.489075 -4.36468 0
M  V30 3378 H 331.301 -1.16067 -4.09156 0
M  V30 3379 N 329.616 1.39756 -0.72842 0
M  V30 3380 C 330.864 2.00248 -0.272946 0
M  V30 3381 C 331.185 1.58077 1.14178 0
M  V30 3382 O 330.455 0.826014 1.77634 0
M  V30 3383 H 329.035 0.740554 -0.0979247 0
M  V30 3384 H 331.697 1.70903 -0.936912 0
M  V30 3385 H 330.793 3.10495 -0.316142 0
M  V30 3386 N 331.094 0.475555 1.50254 0
M  V30 3387 C 332.041 -0.316293 2.28622 0
M  V30 3388 C 333.011 -0.983227 1.33873 0
M  V30 3389 O 334.196 -0.994805 1.62814 0
M  V30 3390 C 331.336 -1.38975 3.1588 0
M  V30 3391 C 330.449 -0.737146 4.25664 0
M  V30 3392 C 329.584 -1.78887 5.00173 0
M  V30 3393 C 328.623 -1.11676 6.01826 0
M  V30 3394 N 327.76 -2.11154 6.69596 0
M  V30 3395 H 332.6 0.358297 2.95838 0
M  V30 3396 H 330.137 0.188541 1.45887 0
M  V30 3397 H 332.095 -2.02383 3.64825 0
M  V30 3398 H 330.725 -2.03344 2.50701 0
M  V30 3399 H 329.777 0.0096065 3.80399 0
M  V30 3400 H 331.089 -0.206816 4.98371 0
M  V30 3401 H 330.243 -2.49865 5.52859 0
M  V30 3402 H 328.982 -2.35302 4.27182 0
M  V30 3403 H 327.987 -0.392633 5.48396 0
M  V30 3404 H 329.212 -0.55945 6.76792 0
M  V30 3405 H 327.158 -2.66577 5.99394 0
M  V30 3406 H 327.075 -1.63118 7.38193 0
M  V30 3407 H 328.343 -2.81497 7.26897 0
M  V30 3408 N 332.573 -1.56217 0.208337 0
M  V30 3409 C 333.822 -1.97124 -0.427204 0
M  V30 3410 C 334.135 -1.09859 -1.61835 0
M  V30 3411 O 335.341 -1.40606 -2.32255 0
M  V30 3412 C 333.797 -3.50633 -0.811442 0
M  V30 3413 C 333.405 -4.46582 0.35615 0
M  V30 3414 C 335.149 -4.00282 -1.41332 0
M  V30 3415 C 333.056 -5.91379 -0.0497852 0
M  V30 3416 H 331.986 -0.736086 -0.163381 0
M  V30 3417 H 334.637 -1.8099 0.302456 0
M  V30 3418 H 333.019 -3.62319 -1.59815 0
M  V30 3419 H 334.193 -4.46636 1.1337 0
M  V30 3420 H 332.508 -4.07202 0.870396 0
M  V30 3421 H 335.105 -5.0595 -1.72972 0
M  V30 3422 H 335.448 -3.45359 -2.32449 0
M  V30 3423 H 335.981 -3.91764 -0.690323 0
M  V30 3424 H 332.72 -6.50255 0.827529 0
M  V30 3425 H 332.24 -5.94549 -0.791926 0
M  V30 3426 H 333.919 -6.45209 -0.481042 0
M  V30 3427 N 334.051 0.0651679 -1.57465 0
M  V30 3428 C 335.328 0.79644 -1.78651 0
M  V30 3429 C 335.708 1.95454 -0.797566 0
M  V30 3430 O 335.056 2.27882 0.167946 0
M  V30 3431 C 335.266 1.26322 -3.25337 0
M  V30 3432 C 336.614 1.6939 -3.89348 0
M  V30 3433 O 337.638 1.35872 -3.29268 0
M  V30 3434 O 336.497 2.31471 -4.95059 0
M  V30 3435 H 333.591 0.382157 -0.733407 0
M  V30 3436 H 336.137 0.0447311 -1.69641 0
M  V30 3437 H 334.909 0.434859 -3.88876 0
M  V30 3438 H 334.532 2.07604 -3.39096 0
M  V30 3439 N 335.529 1.53961 0.336706 0
M  V30 3440 C 336.945 1.44378 0.680241 0
M  V30 3441 C 337.145 0.606034 1.9217 0
M  V30 3442 O 336.201 0.099688 2.52303 0
M  V30 3443 C 337.514 2.87945 0.8665 0
M  V30 3444 C 339.062 2.97763 0.964682 0
M  V30 3445 C 339.537 4.42453 1.18321 0
M  V30 3446 N 341.028 4.46008 1.25025 0
M  V30 3447 C 341.763 5.55102 1.43697 0
M  V30 3448 N 341.259 6.7419 1.59498 0
M  V30 3449 N 343.052 5.42727 1.463 0
M  V30 3450 H 335.203 2.06918 -0.479455 0
M  V30 3451 H 337.466 0.935634 -0.152619 0
M  V30 3452 H 337.172 3.51691 0.0256937 0
M  V30 3453 H 337.046 3.33293 1.76623 0
M  V30 3454 H 339.433 2.34153 1.796 0
M  V30 3455 H 339.514 2.55766 0.041708 0
M  V30 3456 H 339.158 5.06645 0.356788 0
M  V30 3457 H 339.088 4.82048 2.11985 0
M  V30 3458 H 341.579 3.60196 1.14312 0
M  V30 3459 H 341.892 7.53095 1.734 0
M  V30 3460 H 340.237 6.77123 1.56621 0
M  V30 3461 H 343.428 4.48647 1.33543 0
M  V30 3462 H 343.601 6.27806 1.6051 0
M  V30 3463 N 337.007 -0.598083 1.45811 0
M  V30 3464 C 337.937 -1.71873 1.58057 0
M  V30 3465 C 338.918 -1.64533 0.431615 0
M  V30 3466 O 340.103 -1.82787 0.65595 0
M  V30 3467 C 337.233 -3.10495 1.55597 0
M  V30 3468 C 336.187 -3.32654 2.69305 0
M  V30 3469 C 335.513 -4.71646 2.51902 0
M  V30 3470 C 336.813 -3.21981 4.11248 0
M  V30 3471 H 338.507 -1.61881 2.51863 0
M  V30 3472 H 336.053 -0.777372 1.21214 0
M  V30 3473 H 338.006 -3.88699 1.6276 0
M  V30 3474 H 336.73 -3.2135 0.583255 0
M  V30 3475 H 335.389 -2.56843 2.61586 0
M  V30 3476 H 335.037 -4.79246 1.52748 0
M  V30 3477 H 334.737 -4.87426 3.2816 0
M  V30 3478 H 336.261 -5.52038 2.60933 0
M  V30 3479 H 337.675 -3.90049 4.20161 0
M  V30 3480 H 336.072 -3.49289 4.87972 0
M  V30 3481 H 337.142 -2.1928 4.32486 0
M  V30 3482 N 338.485 -1.33259 -0.841409 0
M  V30 3483 C 339.725 -1.25902 -1.61022 0
M  V30 3484 C 340.089 0.173325 -1.91216 0
M  V30 3485 O 341.29 0.370824 -2.6623 0
M  V30 3486 C 339.561 -2.10735 -2.88662 0
M  V30 3487 S 341.12 -2.20541 -3.79351 0
M  V30 3488 H 337.938 -0.447958 -0.552137 0
M  V30 3489 H 340.54 -1.68263 -0.995382 0
M  V30 3490 H 339.244 -3.1384 -2.64448 0
M  V30 3491 H 338.775 -1.69201 -3.55154 0
M  V30 3492 H 340.79 -1.36462 -4.77067 0
M  V30 3493 N 339.963 1.05934 -1.16686 0
M  V30 3494 C 341.21 1.788 -0.950622 0
M  V30 3495 C 341.538 1.87384 0.521305 0
M  V30 3496 O 340.793 1.36438 1.40297 0
M  V30 3497 C 341.092 3.23105 -1.52767 0
M  V30 3498 C 340.758 3.34594 -3.02254 0
M  V30 3499 C 339.42 3.37437 -3.43059 0
M  V30 3500 C 341.772 3.36219 -3.98254 0
M  V30 3501 C 339.1 3.39525 -4.78477 0
M  V30 3502 C 341.452 3.39845 -5.33562 0
M  V30 3503 C 340.116 3.40971 -5.73842 0
M  V30 3504 H 339.386 0.654275 -0.347857 0
M  V30 3505 H 342.033 1.24555 -1.45459 0
M  V30 3506 H 340.338 3.80227 -0.94524 0
M  V30 3507 H 342.035 3.7809 -1.336 0
M  V30 3508 H 338.625 3.3309 -2.6972 0
M  V30 3509 H 342.809 3.33231 -3.67792 0
M  V30 3510 H 338.065 3.38703 -5.09009 0
M  V30 3511 H 342.239 3.4005 -6.07733 0
M  V30 3512 H 339.866 3.42342 -6.78753 0
M  V30 3513 N 341.441 0.965919 1.2453 0
M  V30 3514 C 342.404 0.499547 2.2369 0
M  V30 3515 C 343.404 -0.40294 1.5567 0
M  V30 3516 O 344.594 -0.19865 1.73064 0
M  V30 3517 C 341.726 -0.276792 3.39774 0
M  V30 3518 H 342.919 1.37613 2.66463 0
M  V30 3519 H 340.472 0.750324 1.37112 0
M  V30 3520 H 341.207 -1.17055 3.02438 0
M  V30 3521 H 340.992 0.370826 3.90343 0
M  V30 3522 H 342.482 -0.592175 4.1338 0
M  V30 3523 N 342.919 -1.39368 0.735821 0
M  V30 3524 C 344.165 -2.00794 0.284544 0
M  V30 3525 C 344.498 -1.58255 -1.12557 0
M  V30 3526 O 343.773 -0.811819 -1.76748 0
M  V30 3527 C 344.056 -3.58011 0.387337 0
M  V30 3528 C 343.909 -4.10566 1.83728 0
M  V30 3529 C 345.228 -4.395 -0.22975 0
M  V30 3530 H 342.347 -0.729501 0.104866 0
M  V30 3531 H 344.989 -1.65564 0.93213 0
M  V30 3532 H 343.139 -3.88154 -0.164006 0
M  V30 3533 H 344.811 -3.91139 2.44556 0
M  V30 3534 H 343.054 -3.64095 2.35833 0
M  V30 3535 H 343.725 -5.19702 1.86047 0
M  V30 3536 H 346.201 -4.15406 0.240257 0
M  V30 3537 H 345.077 -5.48752 -0.127485 0
M  V30 3538 H 345.338 -4.22062 -1.3159 0
M  V30 3539 N 344.397 -0.483516 -1.5 0
M  V30 3540 C 345.646 0.0689102 -2.01582 0
M  V30 3541 C 345.959 1.39655 -1.36952 0
M  V30 3542 O 347.165 2.03465 -1.79762 0
M  V30 3543 C 345.621 0.173302 -3.59483 0
M  V30 3544 C 345.229 -1.14665 -4.33077 0
M  V30 3545 C 346.973 0.677024 -4.19066 0
M  V30 3546 C 344.88 -1.00537 -5.82792 0
M  V30 3547 H 343.81 0.0295277 -0.753422 0
M  V30 3548 H 346.461 -0.620295 -1.72698 0
M  V30 3549 H 344.843 0.926569 -3.85007 0
M  V30 3550 H 346.017 -1.91184 -4.19268 0
M  V30 3551 H 344.332 -1.58244 -3.85159 0
M  V30 3552 H 346.929 0.799952 -5.28682 0
M  V30 3553 H 347.272 1.67151 -3.81269 0
M  V30 3554 H 347.805 -0.0192083 -3.97795 0
M  V30 3555 H 344.544 -1.9736 -6.25083 0
M  V30 3556 H 344.064 -0.280776 -5.99142 0
M  V30 3557 H 345.743 -0.677 -6.43448 0
M  V30 3558 N 345.875 1.56104 -0.216619 0
M  V30 3559 C 347.1 2.0301 0.424462 0
M  V30 3560 C 347.525 1.0955 1.52907 0
M  V30 3561 O 346.883 0.0827914 1.81111 0
M  V30 3562 C 346.931 3.4819 0.937883 0
M  V30 3563 O 346.035 3.57865 2.04955 0
M  V30 3564 H 345.376 0.656925 0.0966755 0
M  V30 3565 H 347.906 2.01859 -0.33381 0
M  V30 3566 H 347.916 3.88413 1.24897 0
M  V30 3567 H 346.591 4.15699 0.129387 0
M  V30 3568 H 345.168 3.29527 1.74546 0
M  V30 3569 N 347.353 -0.0568162 1.57498 0
M  V30 3570 C 348.301 -1.08452 2.05769 0
M  V30 3571 C 349.295 -1.39164 0.965903 0
M  V30 3572 O 350.501 -1.38395 1.15095 0
M  V30 3573 H 346.876 -0.367148 0.656282 0
M  V30 3574 H 348.847 -0.651368 2.91204 0
M  V30 3575 C 347.596 -2.38543 2.52968 0
M  V30 3576 H 346.919 -2.15765 3.36579 0
M  V30 3577 H 348.359 -3.08863 2.90481 0
M  V30 3578 C 346.818 -3.05562 1.41893 0
M  V30 3579 O 347.348 -3.94262 0.769442 0
M  V30 3580 N 345.554 -2.6643 1.16032 0
M  V30 3581 H 345.101 -1.94387 1.6903 0
M  V30 3582 H 345.059 -3.11593 0.419219 0
M  V30 3583 N 348.832 -1.54138 -0.328536 0
M  V30 3584 C 350.109 -1.62749 -1.08499 0
M  V30 3585 C 350.489 -0.458198 -2.06067 0
M  V30 3586 O 349.837 0.548046 -2.2183 0
M  V30 3587 C 350.047 -2.99519 -1.79135 0
M  V30 3588 C 351.395 -3.55394 -2.32337 0
M  V30 3589 O 352.419 -3.01792 -1.89209 0
M  V30 3590 O 351.278 -4.49186 -3.11279 0
M  V30 3591 H 348.372 -0.65886 -0.499832 0
M  V30 3592 H 350.918 -1.66484 -0.328826 0
M  V30 3593 H 349.69 -3.76061 -1.08139 0
M  V30 3594 H 349.313 -2.99441 -2.61574 0
M  V30 3595 N 350.31 0.590341 -1.46126 0
M  V30 3596 C 351.721 1.17243 -1.45296 0
M  V30 3597 C 352.072 1.95281 -0.189723 0
M  V30 3598 O 351.197 2.04502 0.707674 0
M  V30 3599 C 351.792 2.13284 -2.6324 0
M  V30 3600 C 350.351 2.66832 -2.65476 0
M  V30 3601 C 349.498 1.42557 -2.3785 0
M  V30 3602 H 352.449 0.378692 -1.54116 0
M  V30 3603 H 352.47 2.96619 -2.38323 0
M  V30 3604 H 351.982 1.56459 -3.55165 0
M  V30 3605 H 350.083 3.27548 -1.77603 0
M  V30 3606 H 350.196 3.10088 -3.65215 0
M  V30 3607 H 348.56 1.72107 -1.87753 0
M  V30 3608 H 349.343 0.875741 -3.31942 0
M  V30 3609 N 351.788 1.33704 0.83433 0
M  V30 3610 C 353.016 1.28467 1.62185 0
M  V30 3611 C 353.431 -0.143526 1.88254 0
M  V30 3612 O 352.788 -1.08709 1.4659 0
M  V30 3613 C 352.839 2.06174 2.96942 0
M  V30 3614 O 352.56 3.43422 2.72016 0
M  V30 3615 C 354.061 2.08201 3.91366 0
M  V30 3616 H 351.281 0.4424 0.504503 0
M  V30 3617 H 353.825 1.76145 1.03891 0
M  V30 3618 H 351.98 1.62167 3.51825 0
M  V30 3619 H 352.394 3.83453 3.57861 0
M  V30 3620 H 353.868 2.67017 4.83121 0
M  V30 3621 H 354.345 1.07343 4.2588 0
M  V30 3622 H 354.951 2.52246 3.42421 0
M  V30 3623 N 353.266 -1.05314 1.17247 0
M  V30 3624 C 354.196 -2.1498 0.911362 0
M  V30 3625 C 355.177 -1.69471 -0.146169 0
M  V30 3626 O 356.362 -1.942 0.003812 0
M  V30 3627 C 353.492 -3.4472 0.422528 0
M  V30 3628 C 352.446 -4.03789 1.4191 0
M  V30 3629 C 351.772 -5.28858 0.788274 0
M  V30 3630 C 353.072 -4.41418 2.7919 0
M  V30 3631 H 354.766 -2.3708 1.82848 0
M  V30 3632 H 352.312 -1.13938 0.880569 0
M  V30 3633 H 354.265 -4.20787 0.227289 0
M  V30 3634 H 352.989 -3.22269 -0.530123 0
M  V30 3635 H 351.648 -3.2979 1.60106 0
M  V30 3636 H 351.296 -5.02709 -0.171173 0
M  V30 3637 H 350.996 -5.69338 1.45353 0
M  V30 3638 H 352.52 -6.07612 0.603282 0
M  V30 3639 H 353.934 -5.08524 2.64719 0
M  V30 3640 H 352.331 -4.92913 3.42282 0
M  V30 3641 H 353.401 -3.51819 3.33693 0
M  V30 3642 N 354.744 -0.972509 -1.24016 0
M  V30 3643 C 355.99 -0.637978 -1.92504 0
M  V30 3644 C 356.323 0.825383 -1.75787 0
M  V30 3645 O 355.598 1.59442 -1.11393 0
M  V30 3646 C 355.881 -1.01942 -3.45369 0
M  V30 3647 C 355.734 -2.53983 -3.71231 0
M  V30 3648 C 357.053 -0.55751 -4.36555 0
M  V30 3649 H 354.172 -0.233248 -0.699117 0
M  V30 3650 H 356.814 -1.21238 -1.46292 0
M  V30 3651 H 354.964 -0.530656 -3.84859 0
M  V30 3652 H 356.636 -3.10374 -3.41271 0
M  V30 3653 H 354.879 -2.96968 -3.16216 0
M  V30 3654 H 355.55 -2.75723 -4.78206 0
M  V30 3655 H 358.026 -0.977029 -4.04467 0
M  V30 3656 H 356.902 -0.85292 -5.42233 0
M  V30 3657 H 357.163 0.542328 -4.38761 0
M  V30 3658 N 356.222 1.38976 -0.743202 0
M  V30 3659 C 357.633 1.83123 -0.363732 0
M  V30 3660 C 357.984 1.6205 1.10609 0
M  V30 3661 O 357.109 1.11606 1.854 0
M  V30 3662 C 357.704 3.32439 -0.653408 0
M  V30 3663 C 356.263 3.74974 -0.327338 0
M  V30 3664 C 355.41 2.61878 -0.911875 0
M  V30 3665 H 358.361 1.27852 -0.940191 0
M  V30 3666 H 358.382 3.80432 0.0720031 0
M  V30 3667 H 357.894 3.47745 -1.72323 0
M  V30 3668 H 355.995 3.65252 0.736314 0
M  V30 3669 H 356.108 4.72106 -0.815631 0
M  V30 3670 H 354.472 2.52448 -0.337944 0
M  V30 3671 H 355.255 2.79987 -1.98651 0
M  V30 3672 N 357.7 0.491464 1.49741 0
M  V30 3673 C 358.925 -0.0557177 2.07325 0
M  V30 3674 C 359.35 -1.30925 1.35056 0
M  V30 3675 O 358.708 -1.76733 0.404365 0
M  V30 3676 C 358.756 -0.302074 3.59333 0
M  V30 3677 O 357.86 -1.37868 3.88672 0
M  V30 3678 H 357.201 0.0219956 0.663636 0
M  V30 3679 H 359.731 0.688352 1.92673 0
M  V30 3680 H 359.741 -0.536464 4.04458 0
M  V30 3681 H 358.416 0.61383 4.11345 0
M  V30 3682 H 356.993 -1.12999 3.55367 0
M  V30 3683 N 359.178 -1.55987 0.224894 0
M  V30 3684 C 360.403 -2.03232 -0.41369 0
M  V30 3685 C 360.828 -1.10359 -1.52323 0
M  V30 3686 O 360.186 -0.092395 -1.81064 0
M  V30 3687 C 360.234 -3.48682 -0.919405 0
M  V30 3688 O 359.338 -3.58947 -2.03054 0
M  V30 3689 H 358.679 -0.657428 -0.0931903 0
M  V30 3690 H 361.209 -2.01679 0.34451 0
M  V30 3691 H 361.219 -3.8907 -1.22835 0
M  V30 3692 H 359.894 -4.15761 -0.107339 0
M  V30 3693 H 358.471 -3.30448 -1.72796 0
M  V30 3694 N 360.656 0.0484629 -1.57525 0
M  V30 3695 C 361.933 0.777447 -1.79486 0
M  V30 3696 C 362.313 1.94597 -0.818251 0
M  V30 3697 O 361.661 2.28047 0.143767 0
M  V30 3698 C 361.871 1.22864 -3.26658 0
M  V30 3699 C 363.219 1.65251 -3.91123 0
M  V30 3700 O 364.243 1.32372 -3.3069 0
M  V30 3701 O 363.102 2.26207 -4.97486 0
M  V30 3702 H 360.196 0.374357 -0.737419 0
M  V30 3703 H 362.742 0.0267359 -1.69679 0
M  V30 3704 H 361.514 0.393589 -3.89316 0
M  V30 3705 H 361.137 2.03996 -3.41279 0
M  V30 3706 N 362.134 1.5431 0.320358 0
M  V30 3707 C 363.044 1.86946 1.41734 0
M  V30 3708 C 364.06 0.761689 1.56443 0
M  V30 3709 O 365.236 1.05629 1.71477 0
M  V30 3710 C 362.301 2.09293 2.76401 0
M  V30 3711 C 361.362 3.33082 2.70841 0
M  V30 3712 C 360.595 3.54353 3.99086 0
M  V30 3713 O 360.818 2.79002 4.97508 0
M  V30 3714 O 359.752 4.47838 4.0215 0
M  V30 3715 H 363.578 2.80232 1.17062 0
M  V30 3716 H 361.163 1.40255 0.514673 0
M  V30 3717 H 363.045 2.25303 3.56113 0
M  V30 3718 H 361.72 1.19194 3.00956 0
M  V30 3719 H 360.627 3.22454 1.89668 0
M  V30 3720 H 361.96 4.23249 2.5124 0
M  V30 3721 N 363.613 -0.582584 1.46437 0
M  V30 3722 C 364.861 -1.33814 1.51453 0
M  V30 3723 C 365.182 -1.94277 0.167792 0
M  V30 3724 O 364.452 -1.78566 -0.805677 0
M  V30 3725 H 363.032 -0.496838 0.557818 0
M  V30 3726 H 365.694 -0.682281 1.82568 0
M  V30 3727 H 364.79 -2.14479 2.26728 0
M  V30 3728 N 365.091 -1.34144 -0.827227 0
M  V30 3729 C 366.368 -1.16844 -1.56865 0
M  V30 3730 C 366.748 0.260654 -2.09485 0
M  V30 3731 O 366.096 1.26138 -1.9053 0
M  V30 3732 C 366.306 -2.21939 -2.6934 0
M  V30 3733 C 367.654 -2.56695 -3.3822 0
M  V30 3734 O 368.678 -2.20695 -2.79593 0
M  V30 3735 O 367.537 -3.18518 -4.44082 0
M  V30 3736 H 364.631 -0.452669 -0.692112 0
M  V30 3737 H 367.177 -1.45763 -0.868973 0
M  V30 3738 H 365.949 -3.17882 -2.28182 0
M  V30 3739 H 365.572 -1.94172 -3.46962 0
M  V30 3740 N 366.569 1.04691 -1.17803 0
M  V30 3741 C 367.818 1.77176 -0.963931 0
M  V30 3742 C 368.131 1.88888 0.508015 0
M  V30 3743 O 369.337 2.58164 0.840465 0
M  V30 3744 C 367.793 3.18518 -1.67555 0
M  V30 3745 C 367.401 3.14919 -3.18637 0
M  V30 3746 C 369.145 3.95424 -1.54402 0
M  V30 3747 C 367.052 4.51081 -3.82466 0
M  V30 3748 H 365.982 0.664116 -0.357023 0
M  V30 3749 H 368.633 1.17303 -1.4111 0
M  V30 3750 H 367.015 3.78748 -1.15613 0
M  V30 3751 H 368.189 2.64178 -3.77554 0
M  V30 3752 H 366.504 2.51512 -3.31859 0
M  V30 3753 H 369.101 4.96106 -1.99456 0
M  V30 3754 H 369.444 4.13343 -0.495329 0
M  V30 3755 H 369.977 3.41754 -2.0359 0
M  V30 3756 H 366.716 4.38368 -4.87354 0
M  V30 3757 H 366.236 5.01951 -3.28337 0
M  V30 3758 H 367.915 5.2001 -3.84965 0
M  V30 3759 N 368.047 0.979072 1.23499 0
M  V30 3760 C 368.957 0.526431 2.28617 0
M  V30 3761 C 369.973 -0.418126 1.68901 0
M  V30 3762 O 371.149 -0.288372 1.99325 0
M  V30 3763 C 368.214 -0.165235 3.46306 0
M  V30 3764 C 367.275 0.82056 4.21385 0
M  V30 3765 C 366.508 0.161807 5.33455 0
M  V30 3766 O 366.731 -1.04742 5.60701 0
M  V30 3767 O 365.665 0.859708 5.95729 0
M  V30 3768 H 369.491 1.4006 2.69475 0
M  V30 3769 H 367.076 0.746643 1.29405 0
M  V30 3770 H 368.958 -0.553287 4.17752 0
M  V30 3771 H 367.633 -1.01419 3.07402 0
M  V30 3772 H 366.54 1.25929 3.52268 0
M  V30 3773 H 367.873 1.63828 4.64135 0
M  V30 3774 N 369.525 -1.3858 0.750561 0
M  V30 3775 C 370.472 -2.30483 0.120835 0
M  V30 3776 C 371.442 -1.50022 -0.712923 0
M  V30 3777 O 372.627 -1.78662 -0.669676 0
M  V30 3778 C 369.767 -3.36431 -0.768666 0
M  V30 3779 C 368.88 -4.31927 0.0793922 0
M  V30 3780 C 368.015 -5.24944 -0.81283 0
M  V30 3781 C 367.054 -6.12088 0.0390447 0
M  V30 3782 N 366.191 -6.97412 -0.809969 0
M  V30 3783 H 371.031 -2.83761 0.91015 0
M  V30 3784 H 368.568 -1.39707 0.460463 0
M  V30 3785 H 370.526 -3.96462 -1.29898 0
M  V30 3786 H 369.156 -2.8457 -1.5238 0
M  V30 3787 H 368.208 -3.73382 0.727303 0
M  V30 3788 H 369.52 -4.93319 0.737401 0
M  V30 3789 H 368.674 -5.90078 -1.41042 0
M  V30 3790 H 367.413 -4.63911 -1.50458 0
M  V30 3791 H 366.418 -5.45952 0.649328 0
M  V30 3792 H 367.643 -6.75189 0.727809 0
M  V30 3793 H 365.589 -6.38931 -1.48672 0
M  V30 3794 H 365.506 -7.55712 -0.208789 0
M  V30 3795 H 366.774 -7.66959 -1.39263 0
M  V30 3796 N 371.003 -0.499398 -1.49478 0
M  V30 3797 C 372.25 0.0456899 -2.02448 0
M  V30 3798 C 372.578 1.37142 -1.37921 0
M  V30 3799 O 371.833 1.89111 -0.503544 0
M  V30 3800 C 372.132 0.248424 -3.56536 0
M  V30 3801 C 371.798 -0.999107 -4.39692 0
M  V30 3802 C 370.46 -1.34108 -4.62135 0
M  V30 3803 C 372.812 -1.82842 -4.88076 0
M  V30 3804 C 370.14 -2.51191 -5.30208 0
M  V30 3805 C 372.492 -2.99076 -5.57437 0
M  V30 3806 C 371.156 -3.33655 -5.78127 0
M  V30 3807 H 370.426 0.0167191 -0.740811 0
M  V30 3808 H 373.073 -0.65923 -1.79795 0
M  V30 3809 H 371.378 1.03586 -3.77859 0
M  V30 3810 H 373.075 0.684605 -3.95113 0
M  V30 3811 H 369.665 -0.722729 -4.22463 0
M  V30 3812 H 373.849 -1.57737 -4.70566 0
M  V30 3813 H 369.105 -2.78221 -5.44429 0
M  V30 3814 H 373.279 -3.63664 -5.93904 0
M  V30 3815 H 370.906 -4.24483 -6.30649 0
M  V30 3816 N 372.481 1.55866 -0.233164 0
M  V30 3817 C 373.431 2.17442 0.685774 0
M  V30 3818 C 374.415 1.12617 1.14918 0
M  V30 3819 O 375.607 1.3857 1.10124 0
M  V30 3820 C 372.736 2.86685 1.88856 0
M  V30 3821 C 371.822 3.98749 1.4443 0
M  V30 3822 N 372.213 5.00744 0.713364 0
M  V30 3823 C 370.511 4.11052 1.73068 0
M  V30 3824 C 371.212 5.79673 0.485205 0
M  V30 3825 N 370.188 5.33454 1.04536 0
M  V30 3826 H 373.99 2.93659 0.119022 0
M  V30 3827 H 371.504 1.62362 -0.0348995 0
M  V30 3828 H 373.501 3.29218 2.55776 0
M  V30 3829 H 372.161 2.11967 2.45967 0
M  V30 3830 H 373.172 5.16613 0.364861 0
M  V30 3831 H 369.849 3.47495 2.31416 0
M  V30 3832 H 371.239 6.71829 -0.097365 0
M  V30 3833 N 373.959 -0.0401083 1.57549 0
M  V30 3834 C 374.907 -1.06264 2.06908 0
M  V30 3835 C 375.901 -1.38132 0.980608 0
M  V30 3836 O 377.107 -1.37167 1.16556 0
M  V30 3837 H 373.482 -0.360166 0.660139 0
M  V30 3838 H 375.453 -0.620445 2.91878 0
M  V30 3839 C 374.202 -2.35846 2.55483 0
M  V30 3840 H 373.525 -2.12183 3.38849 0
M  V30 3841 H 374.965 -3.05765 2.93741 0
M  V30 3842 C 373.424 -3.0404 1.45126 0
M  V30 3843 O 373.954 -3.93424 0.811216 0
M  V30 3844 N 372.16 -2.65184 1.18852 0
M  V30 3845 H 371.707 -1.92584 1.71083 0
M  V30 3846 H 371.665 -3.1113 0.452244 0
M  V30 3847 N 375.437 -1.54477 -0.31217 0
M  V30 3848 C 376.667 -1.76948 -1.06645 0
M  V30 3849 C 377.075 -0.523593 -1.81811 0
M  V30 3850 O 376.418 0.51578 -1.76311 0
M  V30 3851 C 376.48 -2.91668 -2.10166 0
M  V30 3852 C 376.144 -4.30165 -1.54296 0
M  V30 3853 C 377.141 -5.10603 -0.978793 0
M  V30 3854 C 374.826 -4.76738 -1.58196 0
M  V30 3855 C 376.82 -6.3573 -0.461048 0
M  V30 3856 C 374.507 -6.01831 -1.06034 0
M  V30 3857 C 375.505 -6.81161 -0.500844 0
M  V30 3858 O 375.193 -8.03899 0.0128958 0
M  V30 3859 H 374.925 -0.594088 -0.322546 0
M  V30 3860 H 377.479 -2.02213 -0.360441 0
M  V30 3861 H 375.709 -2.62001 -2.84416 0
M  V30 3862 H 377.398 -3.01817 -2.71406 0
M  V30 3863 H 378.164 -4.75771 -0.941651 0
M  V30 3864 H 374.043 -4.15027 -2.00683 0
M  V30 3865 H 377.587 -6.97596 -0.0236894 0
M  V30 3866 H 373.484 -6.36152 -1.09459 0
M  V30 3867 H 374.252 -8.18437 -0.101457 0
M  V30 3868 N 376.915 0.57481 -1.46744 0
M  V30 3869 C 377.878 1.66533 -1.57478 0
M  V30 3870 C 378.878 1.54338 -0.451263 0
M  V30 3871 O 380.068 1.58814 -0.715813 0
M  V30 3872 C 377.2 3.05999 -1.50259 0
M  V30 3873 H 378.393 1.58372 -2.54673 0
M  V30 3874 H 375.946 0.793301 -1.34672 0
M  V30 3875 H 376.681 3.19709 -0.543725 0
M  V30 3876 H 376.466 3.16259 -2.31781 0
M  V30 3877 H 377.956 3.8537 -1.60872 0
M  V30 3878 N 378.394 1.34581 0.820102 0
M  V30 3879 C 379.622 1.3018 1.60813 0
M  V30 3880 C 380.037 -0.123551 1.88395 0
M  V30 3881 O 379.394 -1.07148 1.47735 0
M  V30 3882 C 379.445 2.09312 2.94739 0
M  V30 3883 O 379.166 3.46288 2.68358 0
M  V30 3884 C 380.667 2.1234 3.89136 0
M  V30 3885 H 377.887 0.447726 0.499782 0
M  V30 3886 H 380.431 1.77237 1.02017 0
M  V30 3887 H 378.586 1.65889 3.50085 0
M  V30 3888 H 379 3.87227 3.53774 0
M  V30 3889 H 380.474 2.72126 4.80262 0
M  V30 3890 H 380.951 1.11854 4.24718 0
M  V30 3891 H 381.557 2.55864 3.39726 0
M  V30 3892 N 379.872 -1.04064 1.18357 0
M  V30 3893 C 380.819 -2.12077 0.910603 0
M  V30 3894 C 381.789 -1.65421 -0.15 0
M  V30 3895 O 382.974 -1.90797 -0.0103614 0
M  V30 3896 C 380.114 -3.42252 0.442472 0
M  V30 3897 C 379.227 -4.0252 1.5685 0
M  V30 3898 C 378.362 -5.20657 1.05309 0
M  V30 3899 C 377.401 -5.72955 2.1538 0
M  V30 3900 N 376.538 -6.8238 1.65233 0
M  V30 3901 H 381.378 -2.34764 1.83548 0
M  V30 3902 H 378.915 -1.15157 0.915279 0
M  V30 3903 H 380.873 -4.16921 0.152534 0
M  V30 3904 H 379.503 -3.19712 -0.445428 0
M  V30 3905 H 378.555 -3.25178 1.97391 0
M  V30 3906 H 379.867 -4.37362 2.39824 0
M  V30 3907 H 379.021 -6.0244 0.717677 0
M  V30 3908 H 377.76 -4.87318 0.19293 0
M  V30 3909 H 376.765 -4.89793 2.49766 0
M  V30 3910 H 377.99 -6.08337 3.01832 0
M  V30 3911 H 375.936 -6.50917 0.815064 0
M  V30 3912 H 375.853 -7.16286 2.41805 0
M  V30 3913 H 377.121 -7.67788 1.34619 0
M  V30 3914 N 381.35 -0.985608 -1.22978 0
M  V30 3915 C 382.313 -0.535071 -2.22867 0
M  V30 3916 C 383.313 0.378123 -1.56291 0
M  V30 3917 O 384.503 0.171092 -1.73358 0
M  V30 3918 C 381.635 0.222702 -3.40172 0
M  V30 3919 H 382.828 -1.41835 -2.6424 0
M  V30 3920 H 380.381 -0.772042 -1.35901 0
M  V30 3921 H 381.116 1.12229 -3.04262 0
M  V30 3922 H 380.901 -0.43288 -3.89703 0
M  V30 3923 H 382.391 0.526335 -4.1427 0
M  V30 3924 N 382.828 1.3818 -0.7579 0
M  V30 3925 C 384.239 1.82726 -0.383134 0
M  V30 3926 C 384.59 1.63214 1.08884 0
M  V30 3927 O 383.715 1.13566 1.84205 0
M  V30 3928 C 384.31 3.31728 -0.688631 0
M  V30 3929 C 382.869 3.74606 -0.367091 0
M  V30 3930 C 382.016 2.60896 -0.939599 0
M  V30 3931 H 384.967 1.26847 -0.953699 0
M  V30 3932 H 384.988 3.80487 0.0316492 0
M  V30 3933 H 384.5 3.45898 -1.76001 0
M  V30 3934 H 382.601 3.66013 0.697532 0
M  V30 3935 H 382.714 4.71215 -0.865658 0
M  V30 3936 H 381.078 2.52075 -0.3647 0
M  V30 3937 H 381.861 2.77864 -2.0161 0
M  V30 3938 N 384.306 0.507319 1.49211 0
M  V30 3939 C 385.536 -0.0315292 2.06576 0
M  V30 3940 C 385.944 -1.30791 1.36713 0
M  V30 3941 O 385.287 -1.78324 0.441181 0
M  V30 3942 C 385.349 -0.349104 3.57801 0
M  V30 3943 C 385.013 0.830475 4.49391 0
M  V30 3944 C 386.01 1.72271 4.90529 0
M  V30 3945 C 383.695 1.03107 4.91604 0
M  V30 3946 C 385.689 2.79964 5.72625 0
M  V30 3947 C 383.376 2.11116 5.73475 0
M  V30 3948 C 384.374 2.99379 6.1389 0
M  V30 3949 O 384.062 4.05523 6.94123 0
M  V30 3950 H 383.794 0.0201002 0.675701 0
M  V30 3951 H 386.348 0.705737 1.92895 0
M  V30 3952 H 384.578 -1.14005 3.69513 0
M  V30 3953 H 386.267 -0.827319 3.97379 0
M  V30 3954 H 387.033 1.57958 4.58557 0
M  V30 3955 H 382.912 0.353417 4.59643 0
M  V30 3956 H 386.456 3.48884 6.04091 0
M  V30 3957 H 382.353 2.25421 6.0486 0
M  V30 3958 H 383.121 4.02953 7.1244 0
M  V30 3959 N 385.784 -1.5574 0.241426 0
M  V30 3960 C 386.747 -2.19877 -0.647063 0
M  V30 3961 C 387.747 -1.16642 -1.10686 0
M  V30 3962 O 388.937 -1.41757 -1.01245 0
M  V30 3963 C 386.069 -2.83797 -1.88871 0
M  V30 3964 H 387.262 -2.99772 -0.087574 0
M  V30 3965 H 384.815 -1.56298 -0.00813574 0
M  V30 3966 H 385.55 -2.07824 -2.48957 0
M  V30 3967 H 385.335 -3.59414 -1.56728 0
M  V30 3968 H 386.825 -3.32898 -2.52129 0
M  V30 3969 N 387.262 0.0317525 -1.57568 0
M  V30 3970 C 388.492 0.733884 -1.93126 0
M  V30 3971 C 388.9 1.69563 -0.839352 0
M  V30 3972 O 388.243 1.82681 0.193175 0
M  V30 3973 C 388.305 1.54798 -3.24465 0
M  V30 3974 C 387.969 0.751304 -4.50782 0
M  V30 3975 C 388.966 0.0527632 -5.19873 0
M  V30 3976 C 386.651 0.706639 -4.97305 0
M  V30 3977 C 388.645 -0.679774 -6.33765 0
M  V30 3978 C 386.332 -0.0296449 -6.11093 0
M  V30 3979 C 387.33 -0.721614 -6.79177 0
M  V30 3980 O 387.018 -1.44595 -7.90789 0
M  V30 3981 H 386.75 0.211459 -0.642076 0
M  V30 3982 H 389.304 -0.00585615 -2.05399 0
M  V30 3983 H 387.534 2.33147 -3.08512 0
M  V30 3984 H 389.223 2.13247 -3.4537 0
M  V30 3985 H 389.989 0.0783188 -4.84937 0
M  V30 3986 H 385.868 1.23474 -4.44157 0
M  V30 3987 H 389.412 -1.22042 -6.86842 0
M  V30 3988 H 385.309 -0.0571331 -6.45475 0
M  V30 3989 H 386.077 -1.35935 -8.07133 0
M  V30 3990 N 388.74 1.54641 0.303973 0
M  V30 3991 C 389.986 1.74038 1.04109 0
M  V30 3992 C 390.319 0.523051 1.87024 0
M  V30 3993 O 389.594 -0.479874 1.88487 0
M  V30 3994 C 389.877 3.02761 1.94955 0
M  V30 3995 C 389.73 4.34787 1.1524 0
M  V30 3996 C 391.049 3.27336 2.94175 0
M  V30 3997 H 388.168 0.63323 0.377079 0
M  V30 3998 H 390.81 1.87354 0.316001 0
M  V30 3999 H 388.96 2.9154 2.56782 0
M  V30 4000 H 390.632 4.57922 0.557236 0
M  V30 4001 H 388.875 4.31407 0.455053 0
M  V30 4002 H 389.546 5.21116 1.8205 0
M  V30 4003 H 392.022 3.38148 2.42477 0
M  V30 4004 H 390.898 4.18726 3.54908 0
M  V30 4005 H 391.159 2.45491 3.67677 0
M  V30 4006 N 390.218 -0.567019 1.47046 0
M  V30 4007 C 391.466 -1.322 1.52864 0
M  V30 4008 C 391.787 -1.94088 0.188388 0
M  V30 4009 O 391.057 -1.7941 -0.786693 0
M  V30 4010 H 389.637 -0.490894 0.563056 0
M  V30 4011 H 392.299 -0.662879 1.83281 0
M  V30 4012 H 391.395 -2.12062 2.2899 0
M  V30 4013 N 391.696 -1.35014 -0.812953 0
M  V30 4014 C 392.606 -1.2951 -1.95613 0
M  V30 4015 C 393.622 -0.20107 -1.72834 0
M  V30 4016 O 394.798 -0.42932 -1.96771 0
M  V30 4017 C 391.863 -1.06033 -3.30088 0
M  V30 4018 C 390.924 -2.24688 -3.65805 0
M  V30 4019 C 390.157 -2.02322 -4.93864 0
M  V30 4020 O 390.38 -0.986464 -5.61805 0
M  V30 4021 O 389.314 -2.89525 -5.27692 0
M  V30 4022 H 393.14 -2.25705 -2.03202 0
M  V30 4023 H 390.725 -1.15321 -0.949811 0
M  V30 4024 H 392.607 -0.94763 -4.10607 0
M  V30 4025 H 391.282 -0.128852 -3.23443 0
M  V30 4026 H 390.189 -2.41521 -2.85689 0
M  V30 4027 H 391.522 -3.16261 -3.77147 0
M  V30 4028 N 393.175 1.03435 -1.18907 0
M  V30 4029 C 394.122 2.11591 -0.921837 0
M  V30 4030 C 395.092 1.65499 0.141226 0
M  V30 4031 O 396.277 1.908 0.000242829 0
M  V30 4032 C 393.417 3.42012 -0.460616 0
M  V30 4033 C 392.53 4.01682 -1.58982 0
M  V30 4034 C 391.665 5.20091 -1.08069 0
M  V30 4035 C 390.704 5.71805 -2.18416 0
M  V30 4036 N 389.841 6.81494 -1.68849 0
M  V30 4037 H 394.681 2.33787 -1.8479 0
M  V30 4038 H 392.218 1.1467 -0.921373 0
M  V30 4039 H 394.176 4.16834 -0.174642 0
M  V30 4040 H 392.806 3.19944 0.428467 0
M  V30 4041 H 391.858 3.24127 -1.99113 0
M  V30 4042 H 393.17 4.36084 -2.4214 0
M  V30 4043 H 392.324 6.02051 -0.749615 0
M  V30 4044 H 391.063 4.87209 -0.218771 0
M  V30 4045 H 390.068 4.88461 -2.5236 0
M  V30 4046 H 391.293 6.06728 -3.05054 0
M  V30 4047 H 389.239 6.50475 -0.849572 0
M  V30 4048 H 389.156 7.14994 -2.45601 0
M  V30 4049 H 390.424 7.67063 -1.38689 0
M  V30 4050 N 394.653 0.992116 1.22453 0
M  V30 4051 C 396.069 0.702713 1.43297 0
M  V30 4052 C 396.269 -0.726909 1.87932 0
M  V30 4053 O 395.325 -1.49792 2.0327 0
M  V30 4054 C 396.638 1.70762 2.47509 0
M  V30 4055 C 398.186 1.72298 2.61309 0
M  V30 4056 C 398.661 2.71649 3.68742 0
M  V30 4057 N 400.152 2.70239 3.76199 0
M  V30 4058 C 400.887 3.43778 4.58917 0
M  V30 4059 N 400.383 4.26914 5.45633 0
M  V30 4060 N 402.176 3.32487 4.5322 0
M  V30 4061 H 394.327 1.91543 0.917871 0
M  V30 4062 H 396.59 0.826031 0.465162 0
M  V30 4063 H 396.296 2.73059 2.21657 0
M  V30 4064 H 396.17 1.49985 3.46099 0
M  V30 4065 H 398.557 0.706989 2.86506 0
M  V30 4066 H 398.638 1.97143 1.62997 0
M  V30 4067 H 398.282 3.73397 3.44292 0
M  V30 4068 H 398.212 2.44074 4.66622 0
M  V30 4069 H 400.703 2.09912 3.14237 0
M  V30 4070 H 401.016 4.79855 6.05771 0
M  V30 4071 H 399.361 4.31002 5.45218 0
M  V30 4072 H 402.552 2.6698 3.84499 0
M  V30 4073 H 402.725 3.90058 5.17454 0
M  V30 4074 N 396.131 -1.37776 0.765217 0
M  V30 4075 C 397.359 -2.04124 0.337767 0
M  V30 4076 C 397.774 -1.57715 -1.03785 0
M  V30 4077 O 397.131 -0.755447 -1.6613 0
M  V30 4078 C 397.182 -3.59658 0.364442 0
M  V30 4079 O 396.903 -4.04367 1.68579 0
M  V30 4080 C 398.404 -4.43236 -0.0754221 0
M  V30 4081 H 395.624 -0.655696 0.142491 0
M  V30 4082 H 398.168 -1.76238 1.03732 0
M  V30 4083 H 396.323 -3.86339 -0.286471 0
M  V30 4084 H 396.737 -4.98857 1.61993 0
M  V30 4085 H 398.211 -5.52 -0.00560067 0
M  V30 4086 H 398.688 -4.2455 -1.12491 0
M  V30 4087 H 399.294 -4.21767 0.547055 0
M  V30 4088 N 397.609 -0.515225 -1.4894 0
M  V30 4089 C 398.539 0.244628 -2.32215 0
M  V30 4090 C 399.52 0.949136 -1.41157 0
M  V30 4091 O 400.705 0.937783 -1.70057 0
M  V30 4092 C 397.835 1.30096 -3.22013 0
M  V30 4093 C 396.789 0.715486 -4.21977 0
M  V30 4094 C 396.115 1.87339 -5.00808 0
M  V30 4095 C 397.415 -0.302982 -5.2142 0
M  V30 4096 H 399.109 -0.450501 -2.95991 0
M  V30 4097 H 396.655 -0.218098 -1.42339 0
M  V30 4098 H 398.608 1.84037 -3.79089 0
M  V30 4099 H 397.332 2.02547 -2.56207 0
M  V30 4100 H 395.991 0.197715 -3.66066 0
M  V30 4101 H 395.639 2.58592 -4.31438 0
M  V30 4102 H 395.339 1.48764 -5.68457 0
M  V30 4103 H 396.863 2.41686 -5.60732 0
M  V30 4104 H 398.277 0.148802 -5.73107 0
M  V30 4105 H 396.674 -0.60532 -5.97039 0
M  V30 4106 H 397.744 -1.21395 -4.69459 0
M  V30 4107 N 399.087 1.5561 -0.249682 0
M  V30 4108 C 400.333 1.99306 0.374841 0
M  V30 4109 C 400.666 1.13767 1.57387 0
M  V30 4110 O 399.941 0.201711 1.93451 0
M  V30 4111 C 400.224 3.51507 0.781986 0
M  V30 4112 C 400.077 4.4781 -0.422629 0
M  V30 4113 C 401.396 4.08884 1.62793 0
M  V30 4114 H 398.515 0.724572 0.134773 0
M  V30 4115 H 401.157 1.86719 -0.351549 0
M  V30 4116 H 399.307 3.62363 1.4009 0
M  V30 4117 H 400.979 4.48931 -1.06108 0
M  V30 4118 H 399.222 4.20518 -1.06524 0
M  V30 4119 H 399.893 5.51919 -0.0943766 0
M  V30 4120 H 402.369 4.01147 1.10547 0
M  V30 4121 H 401.245 5.1564 1.88166 0
M  V30 4122 H 401.506 3.57515 2.60068 0
M  V30 4123 N 400.565 -0.0233959 1.57583 0
M  V30 4124 C 401.795 -0.723631 1.93513 0
M  V30 4125 C 402.203 -1.69115 0.848333 0
M  V30 4126 O 401.546 -1.82781 -0.183484 0
M  V30 4127 C 401.608 -1.53075 3.25282 0
M  V30 4128 C 401.272 -0.727388 4.51174 0
M  V30 4129 C 402.269 -0.0251924 5.19894 0
M  V30 4130 C 399.954 -0.680256 4.97672 0
M  V30 4131 C 401.948 0.713374 6.33395 0
M  V30 4132 C 399.635 0.0620523 6.11068 0
M  V30 4133 C 400.633 0.757622 6.78785 0
M  V30 4134 O 400.321 1.48787 7.90011 0
M  V30 4135 H 400.053 -0.208051 0.643188 0
M  V30 4136 H 402.607 0.0167489 2.05393 0
M  V30 4137 H 400.837 -2.31508 3.09744 0
M  V30 4138 H 402.526 -2.11413 3.46496 0
M  V30 4139 H 403.292 -0.0526003 4.84971 0
M  V30 4140 H 399.171 -1.21116 4.44805 0
M  V30 4141 H 402.715 1.25683 6.86185 0
M  V30 4142 H 398.612 0.0913634 6.45435 0
M  V30 4143 H 399.38 1.40213 8.06401 0
M  V30 4144 N 402.043 -1.548 -0.295768 0
M  V30 4145 C 403.291 -1.73985 -1.02828 0
M  V30 4146 C 403.612 -0.531406 -1.87619 0
M  V30 4147 O 402.882 0.454221 -1.90561 0
M  V30 4148 H 401.462 -0.641556 -0.382642 0
M  V30 4149 H 404.124 -1.92163 -0.325489 0
M  V30 4150 H 403.22 -2.63129 -1.67838 0
M  V30 4151 N 403.521 0.559213 -1.47345 0
M  V30 4152 C 404.451 1.67622 -1.62558 0
M  V30 4153 C 405.432 1.63331 -0.475087 0
M  V30 4154 O 406.617 1.80983 -0.704182 0
M  V30 4155 C 403.747 3.0626 -1.63774 0
M  V30 4156 C 402.701 3.25397 -2.7803 0
M  V30 4157 C 402.027 4.64801 -2.64318 0
M  V30 4158 C 403.327 3.10965 -4.19641 0
M  V30 4159 H 405.021 1.55146 -2.56067 0
M  V30 4160 H 402.567 0.744961 -1.23233 0
M  V30 4161 H 404.52 3.84247 -1.73008 0
M  V30 4162 H 403.244 3.1969 -0.66825 0
M  V30 4163 H 401.903 2.49817 -2.68304 0
M  V30 4164 H 401.551 4.75028 -1.65401 0
M  V30 4165 H 401.251 4.78555 -3.40968 0
M  V30 4166 H 402.775 5.44926 -2.75478 0
M  V30 4167 H 404.189 3.78772 -4.30354 0
M  V30 4168 H 402.586 3.36229 -4.97062 0
M  V30 4169 H 403.656 2.07736 -4.38148 0
M  V30 4170 N 404.999 1.35443 0.805782 0
M  V30 4171 C 406.227 1.31878 1.59423 0
M  V30 4172 C 406.642 -0.103562 1.88516 0
M  V30 4173 O 405.999 -1.05575 1.48863 0
M  V30 4174 C 406.05 2.12426 2.92502 0
M  V30 4175 O 405.771 3.49115 2.6467 0
M  V30 4176 C 407.272 2.16455 3.86862 0
M  V30 4177 H 404.492 0.453002 0.495005 0
M  V30 4178 H 407.036 1.78309 1.00131 0
M  V30 4179 H 405.191 1.69593 3.48306 0
M  V30 4180 H 405.605 3.90957 3.49647 0
M  V30 4181 H 407.079 2.77204 4.77349 0
M  V30 4182 H 407.556 1.16352 4.23508 0
M  V30 4183 H 408.162 2.59453 3.36993 0
M  V30 4184 N 406.477 -1.02803 1.19454 0
M  V30 4185 C 407.407 -2.12999 0.956758 0
M  V30 4186 C 408.388 -1.69743 -0.110188 0
M  V30 4187 O 409.573 -1.94148 0.0450038 0
M  V30 4188 C 406.703 -3.43746 0.495553 0
M  V30 4189 C 405.657 -4.00688 1.50443 0
M  V30 4190 C 404.983 -5.27067 0.900275 0
M  V30 4191 C 406.283 -4.35397 2.8849 0
M  V30 4192 H 407.977 -2.33148 1.87836 0
M  V30 4193 H 405.523 -1.12045 0.904539 0
M  V30 4194 H 407.476 -4.2021 0.316493 0
M  V30 4195 H 406.2 -3.23321 -0.461646 0
M  V30 4196 H 404.859 -3.2632 1.67065 0
M  V30 4197 H 404.507 -5.02959 -0.064503 0
M  V30 4198 H 404.207 -5.66127 1.57397 0
M  V30 4199 H 405.731 -6.06196 0.73203 0
M  V30 4200 H 407.145 -5.02795 2.75446 0
M  V30 4201 H 405.542 -4.85541 3.52661 0
M  V30 4202 H 406.612 -3.44662 3.41081 0
M  V30 4203 N 407.956 -0.998596 -1.21925 0
M  V30 4204 C 409.181 -0.696015 -1.95372 0
M  V30 4205 C 409.606 0.733826 -1.73195 0
M  V30 4206 O 408.964 1.50242 -1.01474 0
M  V30 4207 C 409.012 -1.01466 -3.4603 0
M  V30 4208 O 408.116 -0.116415 -4.12236 0
M  V30 4209 H 407.457 -0.259938 -0.611006 0
M  V30 4210 H 409.987 -1.33711 -1.54863 0
M  V30 4211 H 409.997 -0.958855 -3.96573 0
M  V30 4212 H 408.672 -2.05653 -3.61497 0
M  V30 4213 H 407.249 -0.228193 -3.72201 0
M  V30 4214 N 409.434 1.37368 -0.772513 0
M  V30 4215 C 410.845 1.8231 -0.402493 0
M  V30 4216 C 411.196 1.6436 1.07146 0
M  V30 4217 O 410.321 1.15514 1.82991 0
M  V30 4218 C 410.916 3.30979 -0.723776 0
M  V30 4219 C 409.475 3.74195 -0.406802 0
M  V30 4220 C 408.622 2.59885 -0.967218 0
M  V30 4221 H 411.573 1.25829 -0.967099 0
M  V30 4222 H 411.594 3.80499 -0.00870832 0
M  V30 4223 H 411.106 3.44011 -1.7966 0
M  V30 4224 H 409.207 3.66732 0.658673 0
M  V30 4225 H 409.32 4.7027 -0.915588 0
M  V30 4226 H 407.684 2.51674 -0.391416 0
M  V30 4227 H 408.467 2.7571 -2.04546 0
M  V30 4228 N 410.912 0.523116 1.48665 0
M  V30 4229 C 411.859 -0.243398 2.29513 0
M  V30 4230 C 412.829 -0.940139 1.36933 0
M  V30 4231 O 414.014 -0.942503 1.65896 0
M  V30 4232 C 411.154 -1.28855 3.20141 0
M  V30 4233 C 410.267 -0.60135 4.27794 0
M  V30 4234 C 409.402 -1.62884 5.05611 0
M  V30 4235 C 408.441 -0.924726 6.05075 0
M  V30 4236 N 407.578 -1.89744 6.75975 0
M  V30 4237 H 412.418 0.452234 2.94549 0
M  V30 4238 H 409.955 0.234858 1.45213 0
M  V30 4239 H 411.913 -1.90674 3.71079 0
M  V30 4240 H 410.543 -1.95266 2.57043 0
M  V30 4241 H 409.595 0.130623 3.80176 0
M  V30 4242 H 410.907 -0.0481585 4.98777 0
M  V30 4243 H 410.061 -2.32149 5.60528 0
M  V30 4244 H 408.8 -2.21592 4.34452 0
M  V30 4245 H 407.805 -0.217966 5.49368 0
M  V30 4246 H 409.03 -0.343851 6.78229 0
M  V30 4247 H 406.976 -2.47373 6.07571 0
M  V30 4248 H 406.893 -1.3955 7.43009 0
M  V30 4249 H 408.161 -2.58229 7.35485 0
M  V30 4250 N 412.39 -1.55475 0.257931 0
M  V30 4251 C 413.3 -2.2549 -0.647425 0
M  V30 4252 C 414.316 -1.2748 -1.18427 0
M  V30 4253 O 415.492 -1.6038 -1.2182 0
M  V30 4254 C 412.557 -2.94916 -1.82278 0
M  V30 4255 C 411.618 -4.08363 -1.32432 0
M  V30 4256 C 410.851 -4.74469 -2.44366 0
M  V30 4257 O 411.074 -4.39701 -3.63344 0
M  V30 4258 O 410.008 -5.62763 -2.13497 0
M  V30 4259 H 413.834 -3.03593 -0.0807707 0
M  V30 4260 H 411.419 -1.49377 0.0259962 0
M  V30 4261 H 413.301 -3.38606 -2.50846 0
M  V30 4262 H 411.976 -2.19744 -2.37685 0
M  V30 4263 H 410.883 -3.69166 -0.605605 0
M  V30 4264 H 412.216 -4.85385 -0.816211 0
M  V30 4265 N 413.868 0.0150385 -1.57593 0
M  V30 4266 C 414.778 1.02791 -2.10882 0
M  V30 4267 C 415.794 1.38702 -1.0506 0
M  V30 4268 O 416.97 1.47739 -1.36877 0
M  V30 4269 C 414.035 2.30568 -2.58919 0
M  V30 4270 C 413.096 2.01108 -3.79281 0
M  V30 4271 C 412.329 3.22794 -4.25018 0
M  V30 4272 O 412.552 4.33959 -3.70183 0
M  V30 4273 O 411.486 3.07672 -5.17322 0
M  V30 4274 H 415.312 0.604973 -2.97613 0
M  V30 4275 H 412.897 0.23292 -1.47573 0
M  V30 4276 H 414.779 3.05662 -2.90084 0
M  V30 4277 H 413.454 2.72129 -1.75293 0
M  V30 4278 H 412.361 1.23537 -3.53114 0
M  V30 4279 H 413.694 1.64394 -4.63935 0
M  V30 4280 N 415.346 1.54954 0.287554 0
M  V30 4281 C 416.576 1.78622 1.03816 0
M  V30 4282 C 416.984 0.552451 1.80955 0
M  V30 4283 O 416.327 -0.487665 1.77109 0
M  V30 4284 C 416.389 2.94975 2.055 0
M  V30 4285 C 416.053 4.32565 1.47433 0
M  V30 4286 C 417.05 5.12096 0.897436 0
M  V30 4287 C 414.735 4.79195 1.50591 0
M  V30 4288 C 416.729 6.36383 0.359851 0
M  V30 4289 C 414.416 6.03441 0.964459 0
M  V30 4290 C 415.414 6.81872 0.392413 0
M  V30 4291 O 415.102 8.03777 -0.140788 0
M  V30 4292 H 414.834 0.599144 0.313053 0
M  V30 4293 H 417.388 2.02761 0.328225 0
M  V30 4294 H 415.618 2.66493 2.80211 0
M  V30 4295 H 417.307 3.06097 2.6657 0
M  V30 4296 H 418.073 4.77209 0.865841 0
M  V30 4297 H 413.952 4.18167 1.94055 0
M  V30 4298 H 417.496 6.97545 -0.0872951 0
M  V30 4299 H 413.393 6.37813 0.993246 0
M  V30 4300 H 414.161 8.18495 -0.0287617 0
M  V30 4301 N 416.824 -0.551391 1.4764 0
M  V30 4302 C 418.054 -1.33163 1.57959 0
M  V30 4303 C 418.462 -1.87785 0.23094 0
M  V30 4304 O 417.805 -1.65996 -0.786825 0
M  V30 4305 C 417.867 -2.53449 2.54958 0
M  V30 4306 C 417.531 -2.20071 4.00522 0
M  V30 4307 C 418.528 -1.77017 4.88836 0
M  V30 4308 C 416.213 -2.31252 4.45901 0
M  V30 4309 C 418.207 -1.4558 6.20552 0
M  V30 4310 C 415.894 -1.99427 5.77644 0
M  V30 4311 C 416.892 -1.56659 6.64791 0
M  V30 4312 O 416.58 -1.25242 7.94084 0
M  V30 4313 H 416.312 -0.412022 0.535923 0
M  V30 4314 H 418.866 -0.674186 1.9402 0
M  V30 4315 H 417.096 -3.22104 2.13976 0
M  V30 4316 H 418.785 -3.15523 2.55343 0
M  V30 4317 H 419.551 -1.67867 4.55023 0
M  V30 4318 H 415.43 -2.63498 3.78272 0
M  V30 4319 H 418.974 -1.12125 6.8853 0
M  V30 4320 H 414.871 -2.08211 6.10998 0
M  V30 4321 H 415.639 -1.38822 8.06642 0
M  V30 4322 N 418.302 -1.35869 -0.798587 0
M  V30 4323 C 419.249 -1.29446 -1.91082 0
M  V30 4324 C 420.219 -0.16487 -1.6528 0
M  V30 4325 O 421.404 -0.349888 -1.87564 0
M  V30 4326 C 418.544 -1.0804 -3.27752 0
M  V30 4327 C 417.657 -2.29993 -3.65687 0
M  V30 4328 C 416.792 -2.01673 -4.91428 0
M  V30 4329 C 415.831 -3.19636 -5.22015 0
M  V30 4330 N 414.968 -2.91039 -6.38937 0
M  V30 4331 H 419.808 -2.24553 -1.95907 0
M  V30 4332 H 417.345 -1.11615 -0.958148 0
M  V30 4333 H 419.303 -0.936586 -4.06551 0
M  V30 4334 H 417.933 -0.16592 -3.22373 0
M  V30 4335 H 416.985 -2.55211 -2.82085 0
M  V30 4336 H 418.297 -3.18052 -3.84245 0
M  V30 4337 H 417.451 -1.84168 -5.78072 0
M  V30 4338 H 416.19 -1.10911 -4.74921 0
M  V30 4339 H 415.195 -3.37709 -4.33858 0
M  V30 4340 H 416.42 -4.11211 -5.40447 0
M  V30 4341 H 414.366 -2.0288 -6.2384 0
M  V30 4342 H 414.283 -3.72635 -6.57784 0
M  V30 4343 H 415.551 -2.77093 -7.28587 0
M  V30 4344 N 419.78 1.02168 -1.19998 0
M  V30 4345 C 420.71 2.12488 -0.96804 0
M  V30 4346 C 421.691 1.69799 0.101185 0
M  V30 4347 O 422.876 1.94121 -0.0552993 0
M  V30 4348 C 420.006 3.43479 -0.513776 0
M  V30 4349 C 418.96 3.99884 -1.52566 0
M  V30 4350 C 418.286 5.26582 -0.928214 0
M  V30 4351 C 419.586 4.33861 -2.90795 0
M  V30 4352 H 421.28 2.32149 -1.89069 0
M  V30 4353 H 418.826 1.11564 -0.910468 0
M  V30 4354 H 420.779 4.20036 -0.338774 0
M  V30 4355 H 419.503 3.23561 0.444493 0
M  V30 4356 H 418.162 3.25429 -1.68794 0
M  V30 4357 H 417.81 5.02986 0.0378289 0
M  V30 4358 H 417.51 5.65284 -1.60397 0
M  V30 4359 H 419.034 6.05799 -0.764167 0
M  V30 4360 H 420.448 5.01327 -2.78109 0
M  V30 4361 H 418.845 4.83664 -3.55231 0
M  V30 4362 H 419.915 3.42848 -3.42904 0
M  V30 4363 N 421.258 1.00505 1.21394 0
M  V30 4364 C 422.506 0.686415 1.90086 0
M  V30 4365 C 422.827 -0.785264 1.7849 0
M  V30 4366 O 422.097 -1.56387 1.17983 0
M  V30 4367 H 420.677 0.2509 0.703604 0
M  V30 4368 H 423.339 1.27417 1.47482 0
M  V30 4369 H 422.435 0.959621 2.96981 0
M  V30 4370 N 422.737 -1.36956 0.779787 0
M  V30 4371 C 423.7 -2.2851 0.177662 0
M  V30 4372 C 424.7 -1.48393 -0.619377 0
M  V30 4373 O 425.89 -1.68505 -0.441785 0
M  V30 4374 C 423.022 -3.32428 -0.755279 0
M  V30 4375 H 424.215 -2.83269 0.984823 0
M  V30 4376 H 421.768 -1.46358 0.548544 0
M  V30 4377 H 422.503 -2.82808 -1.58714 0
M  V30 4378 H 422.288 -3.91659 -0.185817 0
M  V30 4379 H 423.778 -4.00824 -1.17174 0
M  V30 4380 N 424.215 -0.530993 -1.48385 0
M  V30 4381 C 425.445 -0.00133928 -2.066 0
M  V30 4382 C 425.853 1.28599 -1.38777 0
M  V30 4383 O 425.196 1.77599 -0.469495 0
M  V30 4384 C 425.258 0.292137 -3.58311 0
M  V30 4385 C 424.922 -0.901864 -4.48013 0
M  V30 4386 C 425.919 -1.80053 -4.87726 0
M  V30 4387 C 423.604 -1.10915 -4.89901 0
M  V30 4388 C 425.598 -2.89038 -5.68098 0
M  V30 4389 C 423.285 -2.20213 -5.70043 0
M  V30 4390 C 424.283 -3.09107 -6.0905 0
M  V30 4391 O 423.971 -4.16514 -6.87583 0
M  V30 4392 H 423.703 -0.0308475 -0.675296 0
M  V30 4393 H 426.257 -0.736335 -1.91748 0
M  V30 4394 H 424.487 1.08112 -3.7128 0
M  V30 4395 H 426.176 0.763994 -3.98645 0
M  V30 4396 H 426.942 -1.65234 -4.55986 0
M  V30 4397 H 422.821 -0.426498 -4.59023 0
M  V30 4398 H 426.365 -3.58451 -5.98464 0
M  V30 4399 H 422.262 -2.35016 -6.01197 0
M  V30 4400 H 423.03 -4.14237 -7.05939 0
M  V30 4401 N 425.693 1.55336 -0.266172 0
M  V30 4402 C 426.923 2.03506 0.356239 0
M  V30 4403 C 427.331 1.14426 1.50676 0
M  V30 4404 O 426.674 0.155043 1.83045 0
M  V30 4405 C 426.736 3.47848 0.90785 0
M  V30 4406 C 426.4 4.56861 -0.112888 0
M  V30 4407 C 427.397 5.11528 -0.929264 0
M  V30 4408 C 425.082 5.01704 -0.244546 0
M  V30 4409 C 427.076 6.09549 -1.86357 0
M  V30 4410 C 424.763 5.99553 -1.18234 0
M  V30 4411 C 425.761 6.53356 -1.99036 0
M  V30 4412 O 425.449 7.49293 -2.91231 0
M  V30 4413 H 425.181 0.670444 0.08649 0
M  V30 4414 H 427.735 2.01598 -0.39337 0
M  V30 4415 H 425.965 3.46967 1.70737 0
M  V30 4416 H 427.654 3.79407 1.44239 0
M  V30 4417 H 428.42 4.77701 -0.838237 0
M  V30 4418 H 424.299 4.59477 0.374359 0
M  V30 4419 H 427.843 6.51469 -2.49467 0
M  V30 4420 H 423.74 6.32799 -1.27421 0
M  V30 4421 H 424.508 7.66978 -2.8581 0
M  V30 4422 N 427.171 -0.0066808 1.57599 0
M  V30 4423 C 428.121 -1.0086 2.04478 0
M  V30 4424 C 429.105 -1.30714 0.938231 0
M  V30 4425 O 430.297 -1.29924 1.20203 0
M  V30 4426 C 427.426 -2.30273 2.54615 0
M  V30 4427 C 426.512 -2.03413 3.72134 0
M  V30 4428 N 426.903 -1.46688 4.84062 0
M  V30 4429 C 425.201 -2.33589 3.79937 0
M  V30 4430 C 425.902 -1.36146 5.65543 0
M  V30 4431 N 424.878 -1.84477 5.1134 0
M  V30 4432 H 428.68 -0.564402 2.8843 0
M  V30 4433 H 426.194 -0.212521 1.61003 0
M  V30 4434 H 428.191 -3.02885 2.86472 0
M  V30 4435 H 426.851 -2.75352 1.72079 0
M  V30 4436 H 427.862 -1.14658 5.05049 0
M  V30 4437 H 424.539 -2.81589 3.08243 0
M  V30 4438 H 425.929 -0.925873 6.6549 0
M  V30 4439 N 428.649 -1.55105 -0.279332 0
M  V30 4440 C 429.898 -1.74618 -1.00952 0
M  V30 4441 C 430.211 -0.551096 -1.87676 0
M  V30 4442 O 431.417 -0.628507 -2.64125 0
M  V30 4443 C 429.873 -3.09025 -1.84476 0
M  V30 4444 C 429.481 -4.36081 -1.0265 0
M  V30 4445 C 431.225 -3.37891 -2.56963 0
M  V30 4446 C 429.132 -5.6153 -1.85576 0
M  V30 4447 H 428.062 -0.650868 -0.38064 0
M  V30 4448 H 430.713 -1.81569 -0.265475 0
M  V30 4449 H 429.095 -2.96095 -2.62952 0
M  V30 4450 H 430.269 -4.59909 -0.286354 0
M  V30 4451 H 428.584 -4.14312 -0.416464 0
M  V30 4452 H 431.181 -4.28822 -3.19399 0
M  V30 4453 H 431.524 -2.57737 -3.26921 0
M  V30 4454 H 432.057 -3.5189 -1.85522 0
M  V30 4455 H 428.796 -6.44413 -1.2005 0
M  V30 4456 H 428.316 -5.41854 -2.57204 0
M  V30 4457 H 429.995 -5.99594 -2.43096 0
M  V30 4458 N 430.127 0.543554 -1.4793 0
M  V30 4459 C 431.355 1.32516 -1.58894 0
M  V30 4460 C 431.77 1.87215 -0.244131 0
M  V30 4461 O 431.127 1.65709 0.764652 0
M  V30 4462 C 431.178 2.48554 -2.62494 0
M  V30 4463 O 430.899 1.96112 -3.91755 0
M  V30 4464 C 432.4 3.40572 -2.8377 0
M  V30 4465 H 429.62 0.403472 -0.536145 0
M  V30 4466 H 432.164 0.657106 -1.93655 0
M  V30 4467 H 430.319 3.1127 -2.30629 0
M  V30 4468 H 430.733 2.71967 -4.4848 0
M  V30 4469 H 432.207 4.18375 -3.60093 0
M  V30 4470 H 432.684 3.94965 -1.92092 0
M  V30 4471 H 433.29 2.8366 -3.16887 0
M  V30 4472 N 431.605 1.3629 0.791371 0
M  V30 4473 C 432.882 1.20962 1.53712 0
M  V30 4474 C 433.262 -0.205021 2.10102 0
M  V30 4475 O 432.61 -1.21042 1.93807 0
M  V30 4476 C 432.82 2.29002 2.63361 0
M  V30 4477 C 434.168 2.65572 3.31295 0
M  V30 4478 O 435.192 2.2803 2.73643 0
M  V30 4479 O 434.051 3.3018 4.35481 0
M  V30 4480 H 431.145 0.47086 0.679867 0
M  V30 4481 H 433.691 1.48016 0.830021 0
M  V30 4482 H 432.463 3.2382 2.19674 0
M  V30 4483 H 432.086 2.03303 3.41692 0
M  V30 4484 N 433.083 -1.0153 1.20538 0
M  V30 4485 C 434.329 -1.75408 1.01783 0
M  V30 4486 C 434.662 -1.88943 -0.448814 0
M  V30 4487 O 433.937 -1.4162 -1.33319 0
M  V30 4488 C 434.22 -3.17255 1.70356 0
M  V30 4489 C 434.073 -3.11508 3.24473 0
M  V30 4490 C 435.392 -4.15955 1.43769 0
M  V30 4491 H 432.511 -0.636713 0.371167 0
M  V30 4492 H 435.153 -1.18436 1.4857 0
M  V30 4493 H 433.303 -3.65898 1.30578 0
M  V30 4494 H 434.975 -2.70658 3.73553 0
M  V30 4495 H 433.218 -2.4887 3.55311 0
M  V30 4496 H 433.889 -4.11784 3.67611 0
M  V30 4497 H 436.365 -3.75973 1.7828 0
M  V30 4498 H 435.241 -5.13368 1.94279 0
M  V30 4499 H 435.502 -4.40586 0.365564 0
M  V30 4500 N 434.561 -1.01147 -1.20859 0
M  V30 4501 C 435.493 -0.535546 -2.22855 0
M  V30 4502 C 436.506 0.379323 -1.58319 0
M  V30 4503 O 437.695 0.178489 -1.77605 0
M  V30 4504 C 434.795 0.240962 -3.38042 0
M  V30 4505 C 433.968 -0.674562 -4.32167 0
M  V30 4506 C 433.027 0.053467 -5.26173 0
M  V30 4507 O 432.053 -0.567339 -5.66366 0
M  V30 4508 N 433.255 1.32997 -5.65059 0
M  V30 4509 H 436.02 -1.41268 -2.64317 0
M  V30 4510 H 433.581 -0.888386 -1.35349 0
M  V30 4511 H 435.573 0.737115 -3.97931 0
M  V30 4512 H 434.143 1.01935 -2.95513 0
M  V30 4513 H 433.363 -1.35111 -3.70322 0
M  V30 4514 H 434.651 -1.2974 -4.91981 0
M  V30 4515 H 434.049 1.85536 -5.34409 0
M  V30 4516 H 432.606 1.77095 -6.2728 0
M  V30 4517 N 436.039 1.36541 -0.78704 0
M  V30 4518 C 437.455 1.52571 -0.46844 0
M  V30 4519 C 437.655 1.7415 1.01361 0
M  V30 4520 O 436.711 1.77163 1.79915 0
M  V30 4521 C 438.024 2.71299 -1.29682 0
M  V30 4522 C 439.572 2.85169 -1.29027 0
M  V30 4523 C 440.047 4.06898 -2.10233 0
M  V30 4524 N 441.538 4.1404 -2.07666 0
M  V30 4525 C 442.273 5.07301 -2.67271 0
M  V30 4526 N 441.769 6.06021 -3.35724 0
M  V30 4527 N 443.562 4.99898 -2.57018 0
M  V30 4528 H 435.713 1.20788 -1.74711 0
M  V30 4529 H 437.976 0.589364 -0.742532 0
M  V30 4530 H 437.682 2.61868 -2.34773 0
M  V30 4531 H 437.556 3.6539 -0.936479 0
M  V30 4532 H 439.943 2.94062 -0.247284 0
M  V30 4533 H 440.024 1.91992 -1.69035 0
M  V30 4534 H 439.668 3.98766 -3.1456 0
M  V30 4535 H 439.598 4.99218 -1.67597 0
M  V30 4536 H 442.089 3.43357 -1.57843 0
M  V30 4537 H 442.402 6.73741 -3.78541 0
M  V30 4538 H 440.747 6.06253 -3.39826 0
M  V30 4539 H 443.938 4.21724 -2.03142 0
M  V30 4540 H 444.111 5.72392 -3.03761 0
M  V30 4541 N 437.518 0.538854 1.48102 0
M  V30 4542 C 438.766 0.00798599 2.02098 0
M  V30 4543 C 439.087 -1.33922 1.41739 0
M  V30 4544 O 438.357 -1.86932 0.585934 0
M  V30 4545 H 436.937 -3.62179e-05 0.747 0
M  V30 4546 H 439.599 0.7047 1.81714 0
M  V30 4547 H 438.695 -0.0937672 3.11959 0
M  V30 4548 N 438.996 -1.55193 0.274407 0
M  V30 4549 C 439.926 -2.25471 -0.607032 0
M  V30 4550 C 440.907 -1.24461 -1.15946 0
M  V30 4551 O 442.092 -1.53179 -1.19373 0
M  V30 4552 C 439.222 -2.97526 -1.79153 0
M  V30 4553 C 438.176 -4.05459 -1.37067 0
M  V30 4554 C 437.502 -4.65084 -2.6382 0
M  V30 4555 C 438.802 -5.19691 -0.521389 0
M  V30 4556 H 440.496 -2.99393 -0.0209343 0
M  V30 4557 H 438.042 -1.43997 -0.00862866 0
M  V30 4558 H 439.995 -3.45402 -2.41404 0
M  V30 4559 H 438.719 -2.21138 -2.40344 0
M  V30 4560 H 437.378 -3.58393 -0.771355 0
M  V30 4561 H 437.026 -3.85365 -3.23268 0
M  V30 4562 H 436.726 -5.37961 -2.36372 0
M  V30 4563 H 438.25 -5.15708 -3.26921 0
M  V30 4564 H 439.664 -5.63623 -1.04889 0
M  V30 4565 H 438.061 -5.99126 -0.341825 0
M  V30 4566 H 439.131 -4.82713 0.46 0
M  V30 4567 N 440.474 -0.00167713 -1.576 0
M  V30 4568 C 441.404 0.988091 -2.11563 0
M  V30 4569 C 442.385 1.35736 -1.02517 0
M  V30 4570 O 443.57 1.44082 -1.30208 0
M  V30 4571 C 440.7 2.27941 -2.62031 0
M  V30 4572 C 439.654 2.0517 -3.75619 0
M  V30 4573 C 438.98 3.4033 -4.12407 0
M  V30 4574 C 440.28 1.41294 -5.02825 0
M  V30 4575 H 441.974 0.538771 -2.94513 0
M  V30 4576 H 439.52 0.257712 -1.41675 0
M  V30 4577 H 441.473 2.97539 -2.9841 0
M  V30 4578 H 440.197 2.74989 -1.76205 0
M  V30 4579 H 438.856 1.37998 -3.39635 0
M  V30 4580 H 438.504 3.85085 -3.23603 0
M  V30 4581 H 438.204 3.25909 -4.88935 0
M  V30 4582 H 439.728 4.1124 -4.51347 0
M  V30 4583 H 441.142 2.00851 -5.36965 0
M  V30 4584 H 439.539 1.37356 -5.84169 0
M  V30 4585 H 440.609 0.382362 -4.8339 0
M  V30 4586 N 441.952 1.55251 0.271103 0
M  V30 4587 C 442.899 1.88261 1.33516 0
M  V30 4588 C 443.869 0.734296 1.48988 0
M  V30 4589 O 445.054 0.985741 1.63364 0
M  V30 4590 C 442.194 2.16168 2.69008 0
M  V30 4591 C 441.307 3.43678 2.61743 0
M  V30 4592 C 440.442 3.61276 3.89427 0
M  V30 4593 C 439.481 4.82472 3.7668 0
M  V30 4594 N 438.618 4.96717 4.96202 0
M  V30 4595 H 443.458 2.79015 1.04665 0
M  V30 4596 H 440.995 1.38137 0.505618 0
M  V30 4597 H 442.953 2.30349 3.47844 0
M  V30 4598 H 441.583 1.28646 2.96057 0
M  V30 4599 H 440.635 3.37959 1.74607 0
M  V30 4600 H 441.947 4.3265 2.48224 0
M  V30 4601 H 441.101 3.75284 4.76704 0
M  V30 4602 H 439.84 2.70492 4.05814 0
M  V30 4603 H 438.845 4.68465 2.87786 0
M  V30 4604 H 440.07 5.74692 3.61809 0
M  V30 4605 H 438.016 4.08865 5.12997 0
M  V30 4606 H 437.933 5.79738 4.85222 0
M  V30 4607 H 439.201 5.15113 5.85046 0
M  V30 4608 N 443.43 -0.535701 1.48216 0
M  V30 4609 C 444.393 -1.623 1.61838 0
M  V30 4610 C 445.393 -1.53087 0.492024 0
M  V30 4611 O 446.583 -1.5686 0.757668 0
M  V30 4612 C 443.715 -3.01907 1.58319 0
M  V30 4613 H 444.908 -1.51564 2.58783 0
M  V30 4614 H 442.461 -0.757317 1.36727 0
M  V30 4615 H 443.196 -3.18155 0.628299 0
M  V30 4616 H 442.981 -3.10003 2.40085 0
M  V30 4617 H 444.471 -3.80969 1.71033 0
M  V30 4618 N 444.908 -1.36708 -0.784132 0
M  V30 4619 C 446.155 -1.31231 -1.54222 0
M  V30 4620 C 446.483 0.106864 -1.94206 0
M  V30 4621 O 445.738 1.07734 -1.63376 0
M  V30 4622 C 446.037 -2.18571 -2.82774 0
M  V30 4623 C 445.703 -3.67039 -2.61903 0
M  V30 4624 C 444.365 -4.07503 -2.55919 0
M  V30 4625 C 446.717 -4.61149 -2.4288 0
M  V30 4626 C 444.045 -5.40211 -2.28886 0
M  V30 4627 C 446.397 -5.94081 -2.17373 0
M  V30 4628 C 445.061 -6.33664 -2.09825 0
M  V30 4629 H 444.331 -0.48021 -0.56434 0
M  V30 4630 H 446.978 -1.68807 -0.904233 0
M  V30 4631 H 445.283 -1.73949 -3.51068 0
M  V30 4632 H 446.98 -2.11655 -3.40592 0
M  V30 4633 H 443.57 -3.34941 -2.67418 0
M  V30 4634 H 447.754 -4.30756 -2.46501 0
M  V30 4635 H 443.01 -5.69855 -2.21529 0
M  V30 4636 H 447.184 -6.66566 -2.01649 0
M  V30 4637 H 444.811 -7.36423 -1.88641 0
M  V30 4638 N 446.386 1.0089 -1.21074 0
M  V30 4639 C 447.663 1.71834 -0.934469 0
M  V30 4640 C 448.043 2.0368 0.554753 0
M  V30 4641 O 447.391 1.70742 1.51854 0
M  V30 4642 C 447.601 2.98061 -1.8155 0
M  V30 4643 C 448.949 3.7117 -2.06199 0
M  V30 4644 O 449.973 3.08034 -1.78867 0
M  V30 4645 O 448.832 4.84721 -2.52404 0
M  V30 4646 H 445.926 0.749253 -0.35007 0
M  V30 4647 H 448.472 1.06668 -1.31985 0
M  V30 4648 H 447.244 2.70908 -2.82355 0
M  V30 4649 H 446.867 3.70968 -1.43068 0
M  V30 4650 N 447.864 1.01787 1.20321 0
M  V30 4651 C 449.089 0.727009 1.9424 0
M  V30 4652 C 449.514 -0.706179 1.74341 0
M  V30 4653 O 448.872 -1.48609 1.03852 0
M  V30 4654 C 448.92 1.06958 3.44372 0
M  V30 4655 O 448.024 0.181983 4.11998 0
M  V30 4656 H 447.365 0.269626 0.606793 0
M  V30 4657 H 449.895 1.36158 1.52716 0
M  V30 4658 H 449.905 1.02182 3.94997 0
M  V30 4659 H 448.58 2.11378 3.58179 0
M  V30 4660 H 447.157 0.287378 3.71791 0
M  V30 4661 N 449.342 -1.36122 0.79427 0
M  V30 4662 C 450.272 -2.32551 0.210328 0
M  V30 4663 C 451.253 -1.56884 -0.657386 0
M  V30 4664 O 452.438 -1.85014 -0.590207 0
M  V30 4665 C 449.568 -3.41128 -0.651819 0
M  V30 4666 C 448.522 -4.27842 0.116395 0
M  V30 4667 C 447.848 -5.2763 -0.86666 0
M  V30 4668 C 449.148 -5.05647 1.30837 0
M  V30 4669 H 450.842 -2.81636 1.01594 0
M  V30 4670 H 448.388 -1.35407 0.489981 0
M  V30 4671 H 450.341 -4.07581 -1.07031 0
M  V30 4672 H 449.065 -2.90622 -1.49019 0
M  V30 4673 H 447.724 -3.62952 0.515915 0
M  V30 4674 H 447.372 -4.73395 -1.70019 0
M  V30 4675 H 447.072 -5.86514 -0.35705 0
M  V30 4676 H 448.596 -5.96955 -1.28361 0
M  V30 4677 H 450.01 -5.65113 0.965393 0
M  V30 4678 H 448.407 -5.73967 1.75161 0
M  V30 4679 H 449.477 -4.37006 2.10128 0
M  V30 4680 N 450.82 -0.546701 -1.47814 0
M  V30 4681 C 451.73 0.21026 -2.33656 0
M  V30 4682 C 452.746 0.922413 -1.47538 0
M  V30 4683 O 453.922 0.893652 -1.80488 0
M  V30 4684 C 450.987 1.23348 -3.24016 0
M  V30 4685 C 450.048 0.529883 -4.26017 0
M  V30 4686 C 449.281 1.50435 -5.12059 0
M  V30 4687 O 449.504 2.73837 -5.00369 0
M  V30 4688 O 448.438 1.03459 -5.92942 0
M  V30 4689 H 452.264 -0.493605 -2.99662 0
M  V30 4690 H 449.849 -0.307427 -1.46203 0
M  V30 4691 H 451.731 1.82438 -3.79861 0
M  V30 4692 H 450.406 1.91945 -2.60651 0
M  V30 4693 H 449.313 -0.101948 -3.73961 0
M  V30 4694 H 450.646 -0.11445 -4.92067 0
M  V30 4695 N 452.299 1.55045 -0.282633 0
M  V30 4696 C 453.576 1.9179 0.384166 0
M  V30 4697 C 453.956 1.20778 1.73136 0
M  V30 4698 O 453.304 0.33719 2.25998 0
M  V30 4699 C 453.514 3.45149 0.517014 0
M  V30 4700 C 454.862 4.17064 0.796427 0
M  V30 4701 O 455.886 3.51084 0.601535 0
M  V30 4702 O 454.745 5.33837 1.16962 0
M  V30 4703 H 451.839 0.799483 0.211558 0
M  V30 4704 H 454.385 1.66474 -0.32934 0
M  V30 4705 H 453.157 3.88922 -0.430772 0
M  V30 4706 H 452.78 3.76443 1.2797 0
M  V30 4707 O 453.816 0.148543 1.60815 0
M  V30 4708 H 454.507 -0.445161 1.88515 0
M  V30 END ATOM
M  V30 BEGIN BOND
M  V30 END BOND
M  V30 END CTAB
M  END
$$$$
