drugbank_target|Q13564 NEDD8-activating enzyme E1 regulatory subunit (DB00171)
 OpenBabel12092119263D

  0  0  0     0  0            999 V3000
M  V30 BEGIN CTAB
M  V30 COUNTS 8438 8520 0 0 0
M  V30 BEGIN ATOM
M  V30 1 H -0.908 1.98254 -0.117106 0
M  V30 2 N 0 1.576 0 0
M  V30 3 C 0.933 2.03868 1.02534 0
M  V30 4 C 1.911 0.928543 1.3348 0
M  V30 5 O 3.095 1.19667 1.45644 0
M  V30 6 C 0.222 2.43627 2.35294 0
M  V30 7 C -0.732 3.65373 2.2001 0
M  V30 8 S 0.101 5.13292 1.52614 0
M  V30 9 C 1.257 5.56322 2.86805 0
M  V30 10 H 1.49 2.90518 0.631377 0
M  V30 11 H -0.977 1.52953 0.210867 0
M  V30 12 H 0.981 2.67203 3.11629 0
M  V30 13 H -0.358 1.57376 2.7183 0
M  V30 14 H -1.165 3.90944 3.18086 0
M  V30 15 H -1.563 3.418 1.51819 0
M  V30 16 H 0.729 5.58782 3.83104 0
M  V30 17 H 1.672 6.56266 2.65933 0
M  V30 18 H 2.08 4.83886 2.90714 0
M  V30 19 N 1.4781 -0.272755 1.55222 0
M  V30 20 C 2.4411 -1.32041 1.87344 0
M  V30 21 C 3.4411 -1.42342 0.74803 0
M  V30 22 O 4.6311 -1.41488 1.0162 0
M  V30 23 C 1.7631 -2.70173 2.07893 0
M  V30 24 H 2.9561 -1.04789 2.80997 0
M  V30 25 H 0.5091 -0.51083 1.47717 0
M  V30 26 H 1.2441 -3.02605 1.16622 0
M  V30 27 H 1.0291 -2.64082 2.89833 0
M  V30 28 H 2.5191 -3.45869 2.34017 0
M  V30 29 N 2.9562 -1.48159 -0.537278 0
M  V30 30 C 3.8882 -1.58218 -1.65831 0
M  V30 31 C 4.9012 -0.466948 -1.5596 0
M  V30 32 O 6.0902 -0.73747 -1.62553 0
M  V30 33 C 3.1902 -1.48906 -3.04434 0
M  V30 34 C 2.3632 -2.75343 -3.3986 0
M  V30 35 C 1.4222 -2.59588 -4.57712 0
M  V30 36 O 0.4482 -3.33457 -4.61297 0
M  V30 37 N 1.6502 -1.68724 -5.55439 0
M  V30 38 H 4.4152 -2.54891 -1.57641 0
M  V30 39 H 1.9762 -1.4479 -0.724386 0
M  V30 40 H 3.9682 -1.36072 -3.81139 0
M  V30 41 H 2.5382 -0.602368 -3.06741 0
M  V30 42 H 1.7582 -3.02795 -2.52406 0
M  V30 43 H 3.0462 -3.5924 -3.60311 0
M  V30 44 H 2.4442 -1.07898 -5.55315 0
M  V30 45 H 1.0012 -1.61832 -6.3139 0
M  V30 46 N 4.4343 0.785586 -1.36625 0
M  V30 47 C 5.3643 1.91259 -1.33949 0
M  V30 48 C 6.3453 1.68795 -0.210325 0
M  V30 49 O 7.5303 1.89854 -0.408561 0
M  V30 50 C 4.6603 3.28339 -1.13186 0
M  V30 51 C 3.6143 3.65335 -2.22967 0
M  V30 52 C 2.9403 5.00806 -1.87342 0
M  V30 53 C 4.2403 3.7352 -3.65075 0
M  V30 54 H 5.9343 1.93755 -2.28253 0
M  V30 55 H 3.4803 0.930788 -1.09874 0
M  V30 56 H 5.4333 4.06804 -1.09948 0
M  V30 57 H 4.1573 3.2624 -0.153332 0
M  V30 58 H 2.8163 2.89169 -2.25337 0
M  V30 59 H 2.4643 4.95233 -0.880545 0
M  V30 60 H 2.1643 5.26529 -2.60846 0
M  V30 61 H 3.6883 5.81687 -1.85667 0
M  V30 62 H 5.1023 4.42168 -3.64911 0
M  V30 63 H 3.4993 4.10731 -4.37516 0
M  V30 64 H 4.5693 2.74527 -3.99703 0
M  V30 65 N 5.9124 1.20967 1.01018 0
M  V30 66 C 7.1604 1.02172 1.74371 0
M  V30 67 C 7.4814 -0.446414 1.89821 0
M  V30 68 O 6.7514 -1.32234 1.44537 0
M  V30 69 H 5.3314 0.375066 0.646014 0
M  V30 70 H 7.9934 1.52187 1.21758 0
M  V30 71 H 7.0894 1.48538 2.74487 0
M  V30 72 N 7.3905 -1.2043 1.01659 0
M  V30 73 C 8.3375 -2.23215 0.586822 0
M  V30 74 C 9.3075 -1.61382 -0.393085 0
M  V30 75 O 10.4925 -1.88544 -0.292525 0
M  V30 76 C 7.6325 -3.45032 -0.0687464 0
M  V30 77 C 6.7455 -4.21296 0.955724 0
M  V30 78 C 5.8805 -5.30507 0.271208 0
M  V30 79 C 4.9195 -5.98515 1.28244 0
M  V30 80 N 4.0565 -6.99316 0.62459 0
M  V30 81 H 8.8965 -2.59336 1.46796 0
M  V30 82 H 6.4335 -1.27431 0.734836 0
M  V30 83 H 8.3915 -4.1459 -0.465965 0
M  V30 84 H 7.0215 -3.09604 -0.913529 0
M  V30 85 H 6.0735 -3.50803 1.4711 0
M  V30 86 H 7.3855 -4.6803 1.72479 0
M  V30 87 H 6.5395 -6.06428 -0.18151 0
M  V30 88 H 5.2785 -4.8481 -0.530163 0
M  V30 89 H 4.2835 -5.21355 1.74554 0
M  V30 90 H 5.5085 -6.46298 2.08509 0
M  V30 91 H 3.4545 -6.55812 -0.156914 0
M  V30 92 H 3.3715 -7.44178 1.33172 0
M  V30 93 H 4.6395 -7.79255 0.195462 0
M  V30 94 N 8.8686 -0.792821 -1.36206 0
M  V30 95 C 9.7986 -0.207853 -2.32573 0
M  V30 96 C 10.7796 0.659055 -1.56813 0
M  V30 97 O 11.9646 0.592176 -1.84951 0
M  V30 98 C 9.0946 0.655449 -3.41059 0
M  V30 99 C 8.0486 -0.111842 -4.27854 0
M  V30 100 C 7.3746 0.872274 -5.27537 0
M  V30 101 C 8.6746 -1.30299 -5.05786 0
M  V30 102 H 10.3686 -1.01294 -2.81744 0
M  V30 103 H 7.9146 -0.48854 -1.3546 0
M  V30 104 H 9.8676 1.07464 -4.07467 0
M  V30 105 H 8.5916 1.49328 -2.90463 0
M  V30 106 H 7.2506 -0.512053 -3.63006 0
M  V30 107 H 6.8986 1.70523 -4.73214 0
M  V30 108 H 6.5986 0.363291 -5.86476 0
M  V30 109 H 8.1226 1.28996 -5.96818 0
M  V30 110 H 9.5366 -0.959379 -5.65216 0
M  V30 111 H 7.9336 -1.7455 -5.74154 0
M  V30 112 H 9.0036 -2.09663 -4.37229 0
M  V30 113 N 10.3467 1.47872 -0.545128 0
M  V30 114 C 11.2767 2.32661 0.197793 0
M  V30 115 C 12.2577 1.43041 0.920504 0
M  V30 116 O 13.4427 1.71912 0.90333 0
M  V30 117 C 10.5727 3.24569 1.23582 0
M  V30 118 C 9.5267 4.23333 0.630323 0
M  V30 119 C 8.8527 5.0448 1.77211 0
M  V30 120 C 10.1527 5.20704 -0.407974 0
M  V30 121 H 11.8467 2.95024 -0.510045 0
M  V30 122 H 9.3927 1.4187 -0.246731 0
M  V30 123 H 11.3457 3.8272 1.76362 0
M  V30 124 H 10.0697 2.60236 1.97344 0
M  V30 125 H 8.7287 3.6639 0.123922 0
M  V30 126 H 8.3767 4.36561 2.49847 0
M  V30 127 H 8.0767 5.71339 1.37281 0
M  V30 128 H 9.6007 5.65487 2.3034 0
M  V30 129 H 11.0147 5.7329 0.033305 0
M  V30 130 H 9.4117 5.95699 -0.725486 0
M  V30 131 H 10.4817 4.66917 -1.30828 0
M  V30 132 N 11.8248 0.280983 1.55075 0
M  V30 133 C 12.7718 -0.603937 2.22758 0
M  V30 134 C 13.7418 -1.1452 1.20309 0
M  V30 135 O 14.9268 -1.19343 1.48869 0
M  V30 136 C 12.0668 -1.77947 2.95684 0
M  V30 137 C 11.1798 -1.2715 4.12864 0
M  V30 138 C 10.3148 -2.4093 4.7342 0
M  V30 139 C 9.3538 -1.87165 5.82783 0
M  V30 140 N 8.4908 -2.94441 6.37377 0
M  V30 141 H 13.3308 -0.020124 2.97993 0
M  V30 142 H 10.8678 0.00183425 1.471 0
M  V30 143 H 12.8258 -2.47055 3.36184 0
M  V30 144 H 11.4558 -2.33522 2.22861 0
M  V30 145 H 10.5078 -0.473331 3.77444 0
M  V30 146 H 11.8198 -0.837751 4.91715 0
M  V30 147 H 10.9738 -3.18021 5.1667 0
M  V30 148 H 9.7128 -2.87623 3.93859 0
M  V30 149 H 8.7178 -1.08556 5.38976 0
M  V30 150 H 9.9428 -1.41401 6.64216 0
M  V30 151 H 7.8888 -3.40505 5.60707 0
M  V30 152 H 7.8058 -2.55501 7.11516 0
M  V30 153 H 9.0738 -3.71489 6.85285 0
M  V30 154 N 13.3029 -1.57598 0.00835791 0
M  V30 155 C 14.2129 -2.12385 -0.996487 0
M  V30 156 C 15.2289 -1.07108 -1.37127 0
M  V30 157 O 16.4049 -1.39055 -1.4569 0
M  V30 158 C 13.4699 -2.62314 -2.26699 0
M  V30 159 C 12.5309 -3.82225 -1.95456 0
M  V30 160 C 11.7639 -4.29763 -3.16449 0
M  V30 161 O 11.9869 -3.76584 -4.28416 0
M  V30 162 O 10.9209 -5.21832 -2.99958 0
M  V30 163 H 14.7469 -2.98479 -0.560725 0
M  V30 164 H 12.3319 -1.47903 -0.210987 0
M  V30 165 H 14.2139 -2.94589 -3.01322 0
M  V30 166 H 12.8889 -1.79313 -2.69497 0
M  V30 167 H 11.7959 -3.54909 -1.18282 0
M  V30 168 H 13.1289 -4.66324 -1.57489 0
M  V30 169 N 14.781 0.264519 -1.55364 0
M  V30 170 C 15.713 1.34965 -1.85248 0
M  V30 171 C 16.726 1.45136 -0.737525 0
M  V30 172 O 17.915 1.46801 -1.01547 0
M  V30 173 C 15.015 2.73008 -2.00797 0
M  V30 174 C 14.188 2.85324 -3.31525 0
M  V30 175 C 13.247 4.04097 -3.37034 0
M  V30 176 O 12.273 3.94455 -4.10358 0
M  V30 177 N 13.475 5.16458 -2.65049 0
M  V30 178 H 16.24 1.09672 -2.78913 0
M  V30 179 H 13.801 0.454635 -1.55386 0
M  V30 180 H 15.793 3.50772 -2.01844 0
M  V30 181 H 14.363 2.91087 -1.1396 0
M  V30 182 H 13.583 1.94377 -3.42945 0
M  V30 183 H 14.871 2.9049 -4.17724 0
M  V30 184 H 14.269 5.27181 -2.05175 0
M  V30 185 H 12.826 5.92422 -2.71809 0
M  V30 186 N 16.2591 1.48442 0.529413 0
M  V30 187 C 17.2061 1.63007 1.63394 0
M  V30 188 C 18.1761 0.47212 1.59249 0
M  V30 189 O 19.3611 0.695673 1.77666 0
M  V30 190 C 16.5011 1.6763 3.01653 0
M  V30 191 C 15.6141 2.94535 3.16027 0
M  V30 192 C 14.7491 2.90316 4.44849 0
M  V30 193 C 13.7881 4.11923 4.52754 0
M  V30 194 N 12.9251 4.05777 5.72965 0
M  V30 195 H 17.7651 2.5733 1.50285 0
M  V30 196 H 15.3021 1.27613 0.731656 0
M  V30 197 H 17.2601 1.68292 3.81751 0
M  V30 198 H 15.8901 0.76797 3.13532 0
M  V30 199 H 14.9421 3.03615 2.29177 0
M  V30 200 H 16.2541 3.84512 3.17729 0
M  V30 201 H 15.4081 2.89382 5.33238 0
M  V30 202 H 14.1471 1.98068 4.45668 0
M  V30 203 H 13.1521 4.13131 3.62771 0
M  V30 204 H 14.3771 5.0533 4.53672 0
M  V30 205 H 12.3231 3.16351 5.74681 0
M  V30 206 H 12.2401 4.8946 5.76164 0
M  V30 207 H 13.5081 4.08904 6.6364 0
M  V30 208 N 17.7372 -0.778329 1.37039 0
M  V30 209 C 18.9672 -1.56507 1.34868 0
M  V30 210 C 19.3752 -1.89072 -0.0694802 0
M  V30 211 O 18.7182 -1.51434 -1.03987 0
M  V30 212 C 18.7802 -2.90641 2.11585 0
M  V30 213 C 18.4442 -2.80746 3.60598 0
M  V30 214 C 19.4412 -2.52226 4.54618 0
M  V30 215 C 17.1262 -2.98974 4.03633 0
M  V30 216 C 19.1202 -2.42054 5.89651 0
M  V30 217 C 16.8072 -2.88423 5.38754 0
M  V30 218 C 17.8052 -2.60002 6.31576 0
M  V30 219 O 17.4932 -2.49465 7.64214 0
M  V30 220 H 17.2252 -0.491723 0.463879 0
M  V30 221 H 19.7792 -0.973053 1.80889 0
M  V30 222 H 18.0092 -3.51936 1.60243 0
M  V30 223 H 19.6982 -3.51992 2.0213 0
M  V30 224 H 20.4642 -2.37835 4.22681 0
M  V30 225 H 16.3432 -3.20099 3.31749 0
M  V30 226 H 19.8872 -2.19791 6.62071 0
M  V30 227 H 15.7842 -3.0238 5.70295 0
M  V30 228 H 16.5522 -2.64864 7.74461 0
M  V30 229 N 19.2153 -1.21501 -1.00376 0
M  V30 230 C 20.4923 -0.941745 -1.71437 0
M  V30 231 C 20.8723 0.546114 -2.03914 0
M  V30 232 O 20.2203 1.51128 -1.71384 0
M  V30 233 C 20.4303 -1.82812 -2.97289 0
M  V30 234 C 21.7783 -2.07771 -3.70292 0
M  V30 235 O 22.8023 -1.80171 -3.07273 0
M  V30 236 O 21.6613 -2.54456 -4.83647 0
M  V30 237 H 18.7553 -0.353243 -0.747762 0
M  V30 238 H 21.3013 -1.32436 -1.06108 0
M  V30 239 H 20.0733 -2.83501 -2.69709 0
M  V30 240 H 19.6963 -1.4464 -3.70358 0
M  V30 241 N 20.6934 1.19889 -1.02296 0
M  V30 242 C 22.1094 1.41462 -0.738954 0
M  V30 243 C 22.3094 1.89721 0.678846 0
M  V30 244 O 21.3654 2.07016 1.4457 0
M  V30 245 C 22.6784 2.43083 -1.77005 0
M  V30 246 C 24.2264 2.5684 -1.78892 0
M  V30 247 C 24.7014 3.61709 -2.80945 0
M  V30 248 N 26.1924 3.69199 -2.79725 0
M  V30 249 C 26.9274 4.50019 -3.55345 0
M  V30 250 N 26.4234 5.34592 -4.40662 0
M  V30 251 N 28.2164 4.44612 -3.43914 0
M  V30 252 H 20.3674 0.868827 -1.93817 0
M  V30 253 H 22.6304 0.44399 -0.837602 0
M  V30 254 H 22.3364 2.14636 -2.78612 0
M  V30 255 H 22.2104 3.4217 -1.58744 0
M  V30 256 H 24.5974 2.84614 -0.779674 0
M  V30 257 H 24.6784 1.57927 -2.01228 0
M  V30 258 H 24.3224 3.34678 -3.82038 0
M  V30 259 H 24.2524 4.60259 -2.5587 0
M  V30 260 H 26.7434 3.08794 -2.17842 0
M  V30 261 H 27.0564 5.93363 -4.95116 0
M  V30 262 H 25.4014 5.34073 -4.44737 0
M  V30 263 H 28.5924 3.7758 -2.76679 0
M  V30 264 H 28.7654 5.0736 -4.031 0
M  V30 265 N 22.1715 0.800033 1.35784 0
M  V30 266 C 23.1035 0.163596 2.28615 0
M  V30 267 C 24.1165 -0.633317 1.49976 0
M  V30 268 O 25.3055 -0.466754 1.72289 0
M  V30 269 C 22.4055 -0.790958 3.29541 0
M  V30 270 C 21.5785 -0.0418255 4.3738 0
M  V30 271 C 20.6375 -0.91389 5.18203 0
M  V30 272 O 19.6635 -0.367234 5.68014 0
M  V30 273 N 20.8655 -2.23682 5.35674 0
M  V30 274 H 23.6305 0.96105 2.83873 0
M  V30 275 H 21.1915 0.654894 1.48063 0
M  V30 276 H 23.1835 -1.37844 3.80501 0
M  V30 277 H 21.7535 -1.48925 2.74846 0
M  V30 278 H 20.9735 0.726813 3.87442 0
M  V30 279 H 22.2615 0.474719 5.06581 0
M  V30 280 H 21.6595 -2.70497 4.96838 0
M  V30 281 H 20.2165 -2.77369 5.89839 0
M  V30 282 N 23.6496 -1.47581 0.552962 0
M  V30 283 C 24.5796 -2.32762 -0.185451 0
M  V30 284 C 25.5606 -1.43527 -0.912905 0
M  V30 285 O 26.7456 -1.72388 -0.894201 0
M  V30 286 C 23.8756 -3.25219 -1.21859 0
M  V30 287 C 22.8296 -4.23661 -0.607864 0
M  V30 288 C 22.1556 -5.05413 -1.74533 0
M  V30 289 C 23.4556 -5.20481 0.435582 0
M  V30 290 H 25.1496 -2.94749 0.525684 0
M  V30 291 H 22.6956 -1.41738 0.254251 0
M  V30 292 H 24.6486 -3.8365 -1.7433 0
M  V30 293 H 23.3726 -2.61279 -1.95961 0
M  V30 294 H 22.0316 -3.66451 -0.104489 0
M  V30 295 H 21.6796 -4.3788 -2.47529 0
M  V30 296 H 21.3796 -5.72059 -1.34249 0
M  V30 297 H 22.9036 -5.66701 -2.27338 0
M  V30 298 H 24.3176 -5.733 -0.00290157 0
M  V30 299 H 22.7146 -5.95305 0.757067 0
M  V30 300 H 23.7846 -4.66217 1.33303 0
M  V30 301 N 25.1277 -0.289203 -1.54924 0
M  V30 302 C 26.5437 0.0645403 -1.59469 0
M  V30 303 C 26.7437 1.53419 -1.30632 0
M  V30 304 O 25.7997 2.2852 -1.074 0
M  V30 305 C 27.1127 -0.32278 -2.98963 0
M  V30 306 C 28.6607 -0.270564 -3.11828 0
M  V30 307 C 29.1357 -0.632532 -4.53611 0
M  V30 308 N 30.6267 -0.584617 -4.59496 0
M  V30 309 C 31.3617 -0.837314 -5.67254 0
M  V30 310 N 30.8577 -1.15536 -6.83098 0
M  V30 311 N 32.6507 -0.765166 -5.56868 0
M  V30 312 H 24.8017 -1.24714 -1.71931 0
M  V30 313 H 27.0647 -0.504809 -0.802416 0
M  V30 314 H 26.7707 -1.34541 -3.24948 0
M  V30 315 H 26.6447 0.32944 -3.75759 0
M  V30 316 H 29.0317 0.742805 -2.85598 0
M  V30 317 H 29.1127 -0.957242 -2.37214 0
M  V30 318 H 28.7567 -1.64365 -4.80569 0
M  V30 319 H 28.6867 0.07609 -5.26545 0
M  V30 320 H 31.1777 -0.349248 -3.76283 0
M  V30 321 H 31.4907 -1.33447 -7.61191 0
M  V30 322 H 29.8357 -1.19328 -6.84679 0
M  V30 323 H 33.0267 -0.516432 -4.65243 0
M  V30 324 H 33.1997 -0.965477 -6.40767 0
M  V30 325 N 26.6058 1.57591 -0.0167156 0
M  V30 326 C 27.5358 2.12496 0.967858 0
M  V30 327 C 28.5168 1.03807 1.34752 0
M  V30 328 O 29.7018 1.31577 1.42833 0
M  V30 329 C 26.8318 2.64194 2.25431 0
M  V30 330 C 25.7858 3.77559 2.01576 0
M  V30 331 C 25.1118 4.15636 3.36379 0
M  V30 332 C 26.4118 5.04151 1.36489 0
M  V30 333 H 28.1058 2.95013 0.510643 0
M  V30 334 H 25.6518 1.41915 0.244181 0
M  V30 335 H 27.6048 3.01236 2.94678 0
M  V30 336 H 26.3288 1.78821 2.73296 0
M  V30 337 H 24.9878 3.40937 1.34751 0
M  V30 338 H 24.6358 3.27263 3.81979 0
M  V30 339 H 24.3358 4.92022 3.21229 0
M  V30 340 H 25.8598 4.5525 4.06915 0
M  V30 341 H 27.2738 5.38857 1.95718 0
M  V30 342 H 25.6708 5.85453 1.31776 0
M  V30 343 H 26.7408 4.83733 0.336219 0
M  V30 344 N 28.0839 -0.256276 1.55502 0
M  V30 345 C 29.3299 -0.982884 1.78076 0
M  V30 346 C 29.6849 -1.83319 0.584109 0
M  V30 347 O 28.9779 -1.86875 -0.422877 0
M  V30 348 C 29.1719 -1.88432 3.03691 0
M  V30 349 C 29.0009 -1.12276 4.35459 0
M  V30 350 C 27.7709 -0.831647 4.98409 0
M  V30 351 C 29.9689 -0.504933 5.11815 0
M  V30 352 N 27.9509 -0.0450423 6.13883 0
M  V30 353 C 29.3219 0.146696 6.19826 0
M  V30 354 C 31.3769 -0.414455 4.96172 0
M  V30 355 C 30.0799 0.880103 7.13895 0
M  V30 356 C 32.1059 0.305398 5.90611 0
M  V30 357 C 31.4679 0.945701 6.98023 0
M  V30 358 H 27.5669 -0.341084 0.703694 0
M  V30 359 H 30.1509 -0.256909 1.92998 0
M  V30 360 H 28.3219 -2.58241 2.90114 0
M  V30 361 H 30.0539 -2.54579 3.14598 0
M  V30 362 H 26.8089 -1.14111 4.59647 0
M  V30 363 H 27.2329 0.336079 6.76165 0
M  V30 364 H 31.8749 -0.895163 4.13215 0
M  V30 365 H 29.5929 1.37244 7.9636 0
M  V30 366 H 33.1789 0.375946 5.80584 0
M  V30 367 H 32.0589 1.49383 7.6984 0
M  V30 368 N 29.562 -1.4872 -0.521534 0
M  V30 369 C 30.81 -1.56857 -1.27437 0
M  V30 370 C 31.131 -0.247982 -1.93417 0
M  V30 371 O 30.401 0.731151 -1.81744 0
M  V30 372 H 28.981 -0.577885 -0.473347 0
M  V30 373 H 31.643 -1.85233 -0.606205 0
M  V30 374 H 30.739 -2.35402 -2.0492 0
M  V30 375 N 31.0401 0.771051 -1.3745 0
M  V30 376 C 32.3171 1.519 -1.23231 0
M  V30 377 C 32.6971 2.10383 0.173809 0
M  V30 378 O 32.0451 1.95583 1.18151 0
M  V30 379 C 32.2551 2.59933 -2.32886 0
M  V30 380 C 33.6031 3.27316 -2.70461 0
M  V30 381 O 34.6271 2.70228 -2.32068 0
M  V30 382 O 33.4861 4.30531 -3.36608 0
M  V30 383 H 30.5801 0.672803 -0.480901 0
M  V30 384 H 33.1261 0.807957 -1.49232 0
M  V30 385 H 31.8981 2.14842 -3.27045 0
M  V30 386 H 31.5211 3.38637 -2.08353 0
M  V30 387 N 32.5182 1.22032 0.997298 0
M  V30 388 C 33.4682 0.953838 2.07089 0
M  V30 389 C 34.4522 -0.0938669 1.60626 0
M  V30 390 O 35.6442 0.116078 1.76619 0
M  V30 391 C 32.7732 0.528726 3.39204 0
M  V30 392 C 31.8592 1.61092 3.92314 0
M  V30 393 N 32.2502 2.83768 4.18699 0
M  V30 394 C 30.5482 1.48158 4.20672 0
M  V30 395 C 31.2492 3.53715 4.61802 0
M  V30 396 N 30.2252 2.81174 4.65233 0
M  V30 397 H 34.0272 1.88577 2.25424 0
M  V30 398 H 31.5412 1.11719 1.17867 0
M  V30 399 H 33.5382 0.31915 4.15677 0
M  V30 400 H 32.1982 -0.39635 3.22272 0
M  V30 401 H 33.2092 3.20238 4.07023 0
M  V30 402 H 29.8862 0.622369 4.12835 0
M  V30 403 H 31.2762 4.58793 4.90875 0
M  V30 404 N 33.9963 -1.19345 1.0293 0
M  V30 405 C 35.2443 -1.88665 0.724574 0
M  V30 406 C 35.5653 -1.80036 -0.749144 0
M  V30 407 O 34.8353 -1.2111 -1.53978 0
M  V30 408 H 33.4153 -0.698406 0.265025 0
M  V30 409 H 36.0773 -1.44885 1.30362 0
M  V30 410 H 35.1733 -2.94987 1.01926 0
M  V30 411 N 35.4744 -0.807222 -1.35358 0
M  V30 412 C 36.4064 -0.175717 -2.28525 0
M  V30 413 C 37.4194 0.625354 -1.5031 0
M  V30 414 O 38.6084 0.457611 -1.72535 0
M  V30 415 C 35.7084 0.773471 -3.29956 0
M  V30 416 C 34.8814 0.0186296 -4.37396 0
M  V30 417 C 33.9404 0.886395 -5.18681 0
M  V30 418 O 32.9664 0.337106 -5.68201 0
M  V30 419 N 34.1684 2.20839 -5.36852 0
M  V30 420 H 36.9334 -0.976091 -2.83359 0
M  V30 421 H 34.4944 -0.662737 -1.47714 0
M  V30 422 H 36.4864 1.35824 -3.81227 0
M  V30 423 H 35.0564 1.47465 -2.75632 0
M  V30 424 H 34.2764 -0.747349 -3.87051 0
M  V30 425 H 35.5644 -0.501577 -5.06322 0
M  V30 426 H 34.9624 2.67858 -4.98265 0
M  V30 427 H 33.5194 2.74237 -5.91301 0
M  V30 428 N 36.9525 1.47285 -0.560781 0
M  V30 429 C 37.8625 2.33846 0.187954 0
M  V30 430 C 38.8785 1.48412 0.908293 0
M  V30 431 O 40.0545 1.81332 0.876388 0
M  V30 432 C 37.1195 3.25178 1.2025 0
M  V30 433 C 36.1805 4.26504 0.489208 0
M  V30 434 C 35.4135 5.13472 1.45542 0
M  V30 435 O 35.6365 5.02959 2.6905 0
M  V30 436 O 34.5705 5.93902 0.977963 0
M  V30 437 H 38.3965 2.99177 -0.522177 0
M  V30 438 H 35.9815 1.45903 -0.321364 0
M  V30 439 H 37.8635 3.81584 1.78805 0
M  V30 440 H 36.5385 2.6247 1.89449 0
M  V30 441 H 35.4455 3.73847 -0.137627 0
M  V30 442 H 36.7785 4.91935 -0.161399 0
M  V30 443 N 38.4306 0.297415 1.54768 0
M  V30 444 C 39.3936 -0.567375 2.22066 0
M  V30 445 C 40.3936 -1.06409 1.20556 0
M  V30 446 O 41.5836 -0.960691 1.45315 0
M  V30 447 C 38.7156 -1.78517 2.90421 0
M  V30 448 H 39.9086 0.0205534 2.99893 0
M  V30 449 H 37.4616 0.0482163 1.56226 0
M  V30 450 H 38.1966 -2.41303 2.16664 0
M  V30 451 H 37.9816 -1.43669 3.64831 0
M  V30 452 H 39.4716 -2.39964 3.41771 0
M  V30 453 N 39.9087 -1.5758 0.0250728 0
M  V30 454 C 40.8387 -2.13007 -0.956575 0
M  V30 455 C 41.8197 -1.0452 -1.342 0
M  V30 456 O 43.0047 -1.32332 -1.42133 0
M  V30 457 C 40.1347 -2.65386 -2.24026 0
M  V30 458 C 39.0887 -3.78623 -1.99571 0
M  V30 459 C 38.4147 -4.17414 -3.3417 0
M  V30 460 C 39.7147 -5.04867 -1.33814 0
M  V30 461 H 41.4087 -2.9528 -0.494991 0
M  V30 462 H 38.9547 -1.42042 -0.236651 0
M  V30 463 H 40.9077 -3.02794 -2.93076 0
M  V30 464 H 39.6317 -1.80268 -2.72343 0
M  V30 465 H 38.2907 -3.41646 -1.32941 0
M  V30 466 H 37.9387 -3.29284 -3.80238 0
M  V30 467 H 37.6387 -4.93719 -3.18615 0
M  V30 468 H 39.1627 -4.57402 -4.04495 0
M  V30 469 H 40.5767 -5.39888 -1.92857 0
M  V30 470 H 38.9737 -5.86144 -1.28669 0
M  V30 471 H 40.0437 -4.83904 -0.310561 0
M  V30 472 N 41.3868 0.248026 -1.55636 0
M  V30 473 C 42.2968 1.32859 -1.93354 0
M  V30 474 C 43.3128 1.52719 -0.833838 0
M  V30 475 O 44.4888 1.66363 -1.13513 0
M  V30 476 C 41.5538 2.66337 -2.21958 0
M  V30 477 C 40.6148 2.55008 -3.45354 0
M  V30 478 C 39.8478 3.82121 -3.72584 0
M  V30 479 O 40.0708 4.83951 -3.01907 0
M  V30 480 O 39.0048 3.80822 -4.6611 0
M  V30 481 H 42.8308 1.03862 -2.85388 0
M  V30 482 H 40.4158 0.448686 -1.42503 0
M  V30 483 H 42.2978 3.45216 -2.4167 0
M  V30 484 H 40.9728 2.95068 -1.33103 0
M  V30 485 H 39.8798 1.7442 -3.30951 0
M  V30 486 H 41.2128 2.31222 -4.34508 0
M  V30 487 N 42.8649 1.48995 0.513639 0
M  V30 488 C 44.0899 1.61792 1.29762 0
M  V30 489 C 44.5149 0.284475 1.85936 0
M  V30 490 O 43.8729 -0.746185 1.65232 0
M  V30 491 C 43.9209 2.67993 2.41272 0
M  V30 492 O 43.0249 2.26287 3.44772 0
M  V30 493 H 42.3659 0.541963 0.38363 0
M  V30 494 H 44.8959 1.95097 0.616307 0
M  V30 495 H 44.9059 2.89772 2.87221 0
M  V30 496 H 43.5809 3.64791 1.9975 0
M  V30 497 H 42.1579 2.14788 3.04829 0
M  V30 498 N 44.343 -0.763751 1.37857 0
M  V30 499 C 45.306 -1.85889 1.34081 0
M  V30 500 C 46.306 -1.58949 0.243277 0
M  V30 501 O 47.496 -1.66882 0.499589 0
M  V30 502 C 44.628 -3.23176 1.08489 0
M  V30 503 H 45.821 -1.90648 2.31502 0
M  V30 504 H 43.374 -0.964367 1.23003 0
M  V30 505 H 44.109 -3.24091 0.116318 0
M  V30 506 H 43.894 -3.44124 1.8794 0
M  V30 507 H 45.384 -4.03254 1.08517 0
M  V30 508 N 45.8211 -1.22559 -0.990812 0
M  V30 509 C 46.7711 -0.964807 -2.0658 0
M  V30 510 C 47.7551 0.0853472 -1.60673 0
M  V30 511 O 48.9471 -0.125443 -1.76555 0
M  V30 512 C 46.0761 -0.546707 -3.38919 0
M  V30 513 C 45.1621 -1.6317 -3.91454 0
M  V30 514 N 45.5531 -2.85985 -4.17189 0
M  V30 515 C 43.8511 -1.50387 -4.19881 0
M  V30 516 C 44.5521 -3.56159 -4.59919 0
M  V30 517 N 43.5281 -2.83637 -4.63736 0
M  V30 518 H 47.3301 -1.89769 -2.24421 0
M  V30 519 H 44.8441 -1.12343 -1.17273 0
M  V30 520 H 46.8411 -0.34119 -4.15502 0
M  V30 521 H 45.5011 0.379254 -3.22478 0
M  V30 522 H 46.5121 -3.22392 -4.05319 0
M  V30 523 H 43.1891 -0.644254 -4.12499 0
M  V30 524 H 44.5791 -4.6139 -4.88435 0
M  V30 525 N 47.2992 1.18797 -1.03562 0
M  V30 526 C 48.5452 1.8893 -0.737113 0
M  V30 527 C 48.8782 1.79837 0.732956 0
M  V30 528 O 48.1532 1.19525 1.5344 0
M  V30 529 C 48.4362 3.39607 -1.19745 0
M  V30 530 C 48.2892 3.57537 -2.72924 0
M  V30 531 C 49.6082 4.33069 -0.783526 0
M  V30 532 H 46.7272 0.686057 -0.269249 0
M  V30 533 H 49.3692 1.39797 -1.28673 0
M  V30 534 H 47.5192 3.81583 -0.729855 0
M  V30 535 H 49.1912 3.24688 -3.27682 0
M  V30 536 H 47.4342 3.00363 -3.12993 0
M  V30 537 H 48.1052 4.63238 -3.00191 0
M  V30 538 H 50.5812 3.98846 -1.18581 0
M  V30 539 H 49.4572 5.3707 -1.13343 0
M  V30 540 H 49.7182 4.40986 0.313681 0
M  V30 541 N 48.7773 0.814389 1.34928 0
M  V30 542 C 50.0173 0.404165 2.00364 0
M  V30 543 C 50.3813 -1.01166 1.63185 0
M  V30 544 O 51.5823 -1.52431 2.21401 0
M  V30 545 C 49.8533 0.590718 3.52484 0
M  V30 546 S 51.4123 0.272075 4.37956 0
M  V30 547 H 48.2303 0.15311 0.694319 0
M  V30 548 H 50.8323 1.05834 1.64376 0
M  V30 549 H 49.5363 1.62099 3.77031 0
M  V30 550 H 49.0673 -0.0785013 3.93322 0
M  V30 551 H 51.0823 -0.917405 4.87645 0
M  V30 552 N 50.2554 -1.46986 0.568584 0
M  V30 553 C 51.1854 -2.32946 -0.160753 0
M  V30 554 C 52.1664 -1.44487 -0.897631 0
M  V30 555 O 53.3514 -1.73327 -0.875867 0
M  V30 556 C 50.4814 -3.26494 -1.18403 0
M  V30 557 C 49.4354 -4.24282 -0.562895 0
M  V30 558 C 48.7614 -5.07236 -1.69163 0
M  V30 559 C 50.0614 -5.19989 0.490761 0
M  V30 560 H 51.7554 -2.94175 0.556916 0
M  V30 561 H 49.3014 -1.4146 0.26927 0
M  V30 562 H 51.2544 -3.85477 -1.70251 0
M  V30 563 H 49.9784 -2.63343 -1.93179 0
M  V30 564 H 48.6374 -3.66541 -0.0656164 0
M  V30 565 H 48.2854 -4.4048 -2.42871 0
M  V30 566 H 47.9854 -5.7345 -1.28174 0
M  V30 567 H 49.5094 -5.6908 -2.21314 0
M  V30 568 H 50.9234 -5.73271 0.0579047 0
M  V30 569 H 49.3204 -5.94469 0.820165 0
M  V30 570 H 50.3904 -4.64777 1.3824 0
M  V30 571 N 51.7335 -0.305618 -1.54608 0
M  V30 572 C 52.9825 0.303098 -1.9941 0
M  V30 573 C 53.2955 1.54648 -1.19764 0
M  V30 574 O 54.5015 2.23007 -1.54855 0
M  V30 575 C 52.9575 0.590588 -3.55021 0
M  V30 576 C 52.5655 -0.634719 -4.43481 0
M  V30 577 C 54.3095 1.16025 -4.08336 0
M  V30 578 C 52.2165 -0.320126 -5.90533 0
M  V30 579 H 51.1465 0.117031 -0.744862 0
M  V30 580 H 53.7975 -0.415045 -1.78745 0
M  V30 581 H 52.1795 1.36845 -3.71604 0
M  V30 582 H 53.3535 -1.41079 -4.38672 0
M  V30 583 H 51.6685 -1.12333 -4.00962 0
M  V30 584 H 54.2655 1.40994 -5.15776 0
M  V30 585 H 54.6085 2.10397 -3.5922 0
M  V30 586 H 55.1415 0.443985 -3.95315 0
M  V30 587 H 51.8805 -1.23254 -6.43808 0
M  V30 588 H 51.4005 0.418579 -5.98338 0
M  V30 589 H 53.0795 0.0766241 -6.46955 0
M  V30 590 N 53.2116 1.57565 -0.0334293 0
M  V30 591 C 54.1596 2.1164 0.96496 0
M  V30 592 C 55.1536 1.04398 1.33407 0
M  V30 593 O 56.3596 1.22828 1.3158 0
M  V30 594 H 52.7346 0.676222 0.32898 0
M  V30 595 H 54.7056 2.94455 0.483614 0
M  V30 596 C 53.4546 2.66207 2.23672 0
M  V30 597 H 52.7776 3.48378 1.96145 0
M  V30 598 H 54.2176 3.07685 2.9173 0
M  V30 599 C 52.6766 1.59151 2.96939 0
M  V30 600 O 53.2066 0.993858 3.89211 0
M  V30 601 N 51.4126 1.31093 2.59351 0
M  V30 602 H 50.9596 1.7988 1.84393 0
M  V30 603 H 50.9176 0.596889 3.08682 0
M  V30 604 N 54.6897 -0.239769 1.55765 0
M  V30 605 C 55.6527 -1.28038 1.90103 0
M  V30 606 C 56.6527 -1.40723 0.778055 0
M  V30 607 O 57.8427 -1.39301 1.04599 0
M  V30 608 C 54.9747 -2.65702 2.13577 0
M  V30 609 H 56.1677 -0.988048 2.83157 0
M  V30 610 H 53.7207 -0.479382 1.48767 0
M  V30 611 H 54.4557 -3.00063 1.23015 0
M  V30 612 H 54.2407 -2.57875 2.95369 0
M  V30 613 H 55.7307 -3.40828 2.41301 0
M  V30 614 N 56.1678 -1.49265 -0.50573 0
M  V30 615 C 57.3958 -1.62215 -1.28429 0
M  V30 616 C 57.8108 -0.291697 -1.86533 0
M  V30 617 O 57.1678 0.722233 -1.67601 0
M  V30 618 C 57.2188 -2.68735 -2.41793 0
M  V30 619 O 56.9398 -3.96619 -1.86078 0
M  V30 620 C 58.4408 -2.92346 -3.3324 0
M  V30 621 H 55.6608 -0.546239 -0.389697 0
M  V30 622 H 58.2048 -1.95265 -0.607609 0
M  V30 623 H 56.3598 -2.38476 -3.053 0
M  V30 624 H 56.7738 -4.55256 -2.60465 0
M  V30 625 H 58.2478 -3.70623 -4.09075 0
M  V30 626 H 58.7248 -2.02081 -3.89948 0
M  V30 627 H 59.3308 -3.24003 -2.75503 0
M  V30 628 N 57.6459 0.756429 -1.3826 0
M  V30 629 C 58.6089 1.85176 -1.35065 0
M  V30 630 C 59.6089 1.58818 -0.251703 0
M  V30 631 O 60.7989 1.66615 -0.508433 0
M  V30 632 C 57.9309 3.22596 -1.10201 0
M  V30 633 H 59.1239 1.89417 -2.3251 0
M  V30 634 H 56.6769 0.95783 -1.23512 0
M  V30 635 H 57.4119 3.24025 -0.133504 0
M  V30 636 H 57.1969 3.43122 -1.89762 0
M  V30 637 H 58.6869 4.02673 -1.10654 0
M  V30 638 N 59.124 1.23083 0.984299 0
M  V30 639 C 60.352 1.08714 1.76037 0
M  V30 640 C 60.767 -0.361691 1.85303 0
M  V30 641 O 60.124 -1.25034 1.32939 0
M  V30 642 C 60.175 1.70206 3.18923 0
M  V30 643 O 59.896 3.09423 3.10144 0
M  V30 644 C 61.397 1.61227 4.12941 0
M  V30 645 H 58.617 0.380664 0.552572 0
M  V30 646 H 61.161 1.62853 1.23689 0
M  V30 647 H 59.316 1.20109 3.6831 0
M  V30 648 H 59.73 3.39188 4.00065 0
M  V30 649 H 61.204 2.08962 5.10919 0
M  V30 650 H 61.681 0.570375 4.35481 0
M  V30 651 H 62.287 2.10671 3.69456 0
M  V30 652 N 60.6021 -1.18246 1.0419 0
M  V30 653 C 61.8501 -1.87886 0.744543 0
M  V30 654 C 62.1711 -1.8082 -0.730006 0
M  V30 655 O 61.4411 -1.22736 -1.52685 0
M  V30 656 H 60.0211 -0.695556 0.272417 0
M  V30 657 H 62.6831 -1.43494 1.31892 0
M  V30 658 H 61.7791 -2.9389 1.05049 0
M  V30 659 N 62.0802 -0.821533 -1.34494 0
M  V30 660 C 63.3082 -0.421884 -2.02553 0
M  V30 661 C 63.7232 0.971745 -1.61872 0
M  V30 662 O 63.0802 1.62864 -0.823496 0
M  V30 663 C 63.1312 -0.51285 -3.57844 0
M  V30 664 O 62.8522 -1.85155 -3.97051 0
M  V30 665 C 64.3532 -0.107921 -4.43169 0
M  V30 666 H 61.5732 -0.169482 -0.649243 0
M  V30 667 H 64.1172 -1.1093 -1.71798 0
M  V30 668 H 62.2722 0.126474 -3.87193 0
M  V30 669 H 62.6862 -1.82482 -4.91732 0
M  V30 670 H 64.1602 -0.222657 -5.51551 0
M  V30 671 H 64.6372 0.948401 -4.28838 0
M  V30 672 H 65.2432 -0.720989 -4.19144 0
M  V30 673 N 63.5583 1.46682 -0.576371 0
M  V30 674 C 64.4683 2.34032 0.163141 0
M  V30 675 C 65.4843 1.49367 0.892501 0
M  V30 676 O 66.6603 1.82252 0.857106 0
M  V30 677 C 63.7253 3.26435 1.16795 0
M  V30 678 C 62.7863 4.26998 0.443944 0
M  V30 679 C 62.0193 5.14986 1.40088 0
M  V30 680 O 62.2423 5.05785 2.637 0
M  V30 681 O 61.1763 5.94906 0.914917 0
M  V30 682 H 65.0023 2.98607 -0.55388 0
M  V30 683 H 62.5873 1.45554 -0.336821 0
M  V30 684 H 64.4693 3.83459 1.74748 0
M  V30 685 H 63.1443 2.64465 1.86655 0
M  V30 686 H 62.0513 3.7368 -0.177271 0
M  V30 687 H 63.3843 4.91736 -0.213566 0
M  V30 688 N 65.0364 0.313813 1.54444 0
M  V30 689 C 66.2854 -0.292519 1.99568 0
M  V30 690 C 66.5984 -1.54011 1.20582 0
M  V30 691 O 67.8044 -2.22183 1.56035 0
M  V30 692 C 66.2604 -0.571752 3.55329 0
M  V30 693 C 65.8684 0.658229 4.43138 0
M  V30 694 C 67.6124 -1.13857 4.08946 0
M  V30 695 C 65.5194 0.351439 5.90355 0
M  V30 696 H 64.4494 -0.113079 0.745472 0
M  V30 697 H 67.1004 0.424518 1.78522 0
M  V30 698 H 65.4824 -1.34872 3.72325 0
M  V30 699 H 66.6564 1.43403 4.37918 0
M  V30 700 H 64.9714 1.14458 4.0036 0
M  V30 701 H 67.5684 -1.38257 5.16516 0
M  V30 702 H 67.9114 -2.08489 3.6033 0
M  V30 703 H 68.4444 -0.423015 3.95544 0
M  V30 704 H 65.1834 1.26667 6.43145 0
M  V30 705 H 64.7034 -0.386842 5.98551 0
M  V30 706 H 66.3824 -0.0423134 6.46986 0
M  V30 707 N 66.5145 -1.57545 0.0417849 0
M  V30 708 C 67.4445 -2.14009 -0.933929 0
M  V30 709 C 68.4255 -1.05938 -1.33083 0
M  V30 710 O 69.6105 -1.33833 -1.40721 0
M  V30 711 C 66.7405 -2.67747 -2.21199 0
M  V30 712 C 65.6945 -3.80718 -1.95544 0
M  V30 713 C 65.0205 -4.20935 -3.29724 0
M  V30 714 C 66.3205 -5.06258 -1.28452 0
M  V30 715 H 68.0145 -2.95788 -0.463645 0
M  V30 716 H 65.5605 -1.42285 -0.221573 0
M  V30 717 H 67.5135 -3.05886 -2.89848 0
M  V30 718 H 66.2375 -1.83147 -2.70416 0
M  V30 719 H 64.8965 -3.43037 -1.2931 0
M  V30 720 H 64.5445 -3.33298 -3.76724 0
M  V30 721 H 64.2445 -4.9707 -3.13361 0
M  V30 722 H 65.7685 -4.61666 -3.9962 0
M  V30 723 H 67.1825 -5.41903 -1.8712 0
M  V30 724 H 65.5795 -5.87475 -1.22445 0
M  V30 725 H 66.6495 -4.84207 -0.259219 0
M  V30 726 N 67.9926 0.231505 -1.5589 0
M  V30 727 C 68.9396 1.28682 -1.91598 0
M  V30 728 C 69.9096 1.47071 -0.771974 0
M  V30 729 O 71.0946 1.60802 -1.027 0
M  V30 730 C 68.2346 2.6342 -2.22944 0
M  V30 731 C 67.3476 2.52912 -3.50228 0
M  V30 732 C 66.4826 3.80106 -3.7107 0
M  V30 733 C 65.5216 3.64279 -4.91902 0
M  V30 734 N 64.6586 4.834 -5.09184 0
M  V30 735 H 69.4986 0.975305 -2.81588 0
M  V30 736 H 67.0356 0.470299 -1.39379 0
M  V30 737 H 68.9936 3.41869 -2.39126 0
M  V30 738 H 67.6236 2.92687 -1.36139 0
M  V30 739 H 66.6756 1.6595 -3.42294 0
M  V30 740 H 67.9876 2.37133 -4.38827 0
M  V30 741 H 67.1416 4.66999 -3.87295 0
M  V30 742 H 65.8806 3.98799 -2.80733 0
M  V30 743 H 64.8856 2.7577 -4.75637 0
M  V30 744 H 66.1106 3.47067 -5.83714 0
M  V30 745 H 64.0566 5.02425 -4.21788 0
M  V30 746 H 63.9736 4.70311 -5.91898 0
M  V30 747 H 65.2416 5.71747 -5.29835 0
M  V30 748 N 69.4707 1.49531 0.497807 0
M  V30 749 C 70.4187 1.66926 1.61983 0
M  V30 750 C 71.4127 0.535167 1.60724 0
M  V30 751 O 72.6187 0.714896 1.65195 0
M  V30 752 H 68.9937 0.526415 0.537021 0
M  V30 753 H 70.9647 2.61098 1.44465 0
M  V30 754 C 69.7137 1.75602 3.00099 0
M  V30 755 H 69.0367 2.62244 3.01775 0
M  V30 756 H 70.4767 1.91807 3.78135 0
M  V30 757 C 68.9357 0.501543 3.33146 0
M  V30 758 O 69.4657 -0.371342 3.9998 0
M  V30 759 N 67.6717 0.363531 2.88317 0
M  V30 760 H 67.2187 1.07485 2.34104 0
M  V30 761 H 67.1767 -0.474728 3.10795 0
M  V30 762 N 70.9488 -0.749086 1.3866 0
M  V30 763 C 71.8788 -1.8764 1.38973 0
M  V30 764 C 72.8598 -1.68178 0.255004 0
M  V30 765 O 74.0448 -1.88704 0.458754 0
M  V30 766 C 71.1748 -3.25222 1.21851 0
M  V30 767 C 70.1288 -3.59295 2.32575 0
M  V30 768 C 69.4548 -4.95663 2.00555 0
M  V30 769 C 70.7548 -3.63709 3.7485 0
M  V30 770 H 72.4488 -1.87635 2.3331 0
M  V30 771 H 69.9948 -0.901329 1.12303 0
M  V30 772 H 71.9478 -4.03746 1.20695 0
M  V30 773 H 70.6718 -3.25719 0.239775 0
M  V30 774 H 69.3308 -2.83093 2.32925 0
M  V30 775 H 68.9788 -4.92724 1.01154 0
M  V30 776 H 68.6788 -5.19429 2.74714 0
M  V30 777 H 70.2028 -5.7656 2.01024 0
M  V30 778 H 71.6168 -4.32338 3.76506 0
M  V30 779 H 70.0138 -3.98986 4.48252 0
M  V30 780 H 71.0838 -2.63834 4.06841 0
M  V30 781 N 72.4269 -1.23603 -0.977757 0
M  V30 782 C 73.6729 -1.07129 -1.72195 0
M  V30 783 C 74.0059 0.390501 -1.90233 0
M  V30 784 O 73.2809 1.28902 -1.45653 0
M  V30 785 C 73.5639 -1.80031 -3.11867 0
M  V30 786 C 73.4169 -3.33899 -3.01383 0
M  V30 787 C 74.7359 -1.56492 -4.11337 0
M  V30 788 H 71.8549 -0.390571 -0.624999 0
M  V30 789 H 74.4969 -1.52142 -1.13811 0
M  V30 790 H 72.6469 -1.41768 -3.6171 0
M  V30 791 H 74.3189 -3.81699 -2.59043 0
M  V30 792 H 72.5619 -3.62796 -2.37827 0
M  V30 793 H 73.2329 -3.801 -4.00285 0
M  V30 794 H 75.7089 -1.89757 -3.70313 0
M  V30 795 H 74.5849 -2.09973 -5.07151 0
M  V30 796 H 74.8459 -0.500874 -4.39254 0
M  V30 797 N 73.905 1.17692 -1.04816 0
M  V30 798 C 74.835 2.23777 -0.666791 0
M  V30 799 C 75.816 1.66796 0.33361 0
M  V30 800 O 77.001 1.93039 0.212042 0
M  V30 801 C 74.131 3.47281 -0.0367933 0
M  V30 802 C 73.085 4.17059 -0.961546 0
M  V30 803 C 72.411 5.34342 -0.195626 0
M  V30 804 C 73.711 4.69713 -2.28402 0
M  V30 805 H 75.405 2.55933 -1.55367 0
M  V30 806 H 72.951 1.23019 -0.748484 0
M  V30 807 H 74.904 4.20706 0.241775 0
M  V30 808 H 73.628 3.14381 0.885004 0
M  V30 809 H 72.287 3.45541 -1.22462 0
M  V30 810 H 71.935 4.97692 0.728816 0
M  V30 811 H 71.635 5.81966 -0.811775 0
M  V30 812 H 73.159 6.10553 0.0757473 0
M  V30 813 H 74.573 5.34794 -2.06563 0
M  V30 814 H 72.97 5.279 -2.8538 0
M  V30 815 H 74.04 3.86726 -2.92525 0
M  V30 816 N 75.3831 0.828654 1.34056 0
M  V30 817 C 76.7941 0.477534 1.8049 0
M  V30 818 C 77.1451 -1.00258 1.6865 0
M  V30 819 O 76.2701 -1.78057 1.22982 0
M  V30 820 C 76.8651 0.860018 3.27703 0
M  V30 821 C 75.4241 0.561185 3.72193 0
M  V30 822 C 74.5711 1.07385 2.55663 0
M  V30 823 H 77.5221 1.0183 1.21722 0
M  V30 824 H 77.5431 0.166038 3.80138 0
M  V30 825 H 77.0551 1.93731 3.36288 0
M  V30 826 H 75.1561 -0.506465 3.69142 0
M  V30 827 H 75.2691 1.10926 4.66082 0
M  V30 828 H 73.6331 0.495149 2.49841 0
M  V30 829 H 74.4161 2.15771 2.67016 0
M  V30 830 N 76.8612 -1.46375 0.584142 0
M  V30 831 C 78.1092 -2.01978 0.0701287 0
M  V30 832 C 78.4302 -1.4579 -1.295 0
M  V30 833 O 77.7002 -0.64314 -1.85042 0
M  V30 834 H 76.2802 -0.746648 0.0229345 0
M  V30 835 H 78.9422 -1.79461 0.760245 0
M  V30 836 H 78.0382 -3.121 0.0022064 0
M  V30 837 N 78.3393 -0.321999 -1.54275 0
M  V30 838 C 79.5883 0.281931 -1.9972 0
M  V30 839 C 79.9013 1.53369 -1.21397 0
M  V30 840 O 81.1073 2.21352 -1.57211 0
M  V30 841 C 79.5633 0.5529 -3.55628 0
M  V30 842 C 79.1713 -0.681721 -4.42783 0
M  V30 843 C 80.9153 1.11687 -4.09544 0
M  V30 844 C 78.8223 -0.382742 -5.9016 0
M  V30 845 H 77.7523 0.109124 -0.746062 0
M  V30 846 H 80.4033 -0.43398 -1.78294 0
M  V30 847 H 78.7853 1.32896 -3.73035 0
M  V30 848 H 79.9593 -1.45723 -4.37151 0
M  V30 849 H 78.2743 -1.1658 -3.99748 0
M  V30 850 H 80.8713 1.35515 -5.17242 0
M  V30 851 H 81.2143 2.06575 -3.61431 0
M  V30 852 H 81.7473 0.402032 -3.95763 0
M  V30 853 H 78.4863 -1.30076 -6.42464 0
M  V30 854 H 78.0063 0.355094 -5.98748 0
M  V30 855 H 79.6853 0.00800157 -6.47 0
M  V30 856 N 79.8174 1.5752 -0.0501392 0
M  V30 857 C 81.0654 1.9227 0.622642 0
M  V30 858 C 81.3864 0.929083 1.71444 0
M  V30 859 O 80.6564 -0.0262186 1.95882 0
M  V30 860 H 79.2364 0.709739 0.232981 0
M  V30 861 H 81.8984 1.94628 -0.102898 0
M  V30 862 H 80.9944 2.93479 1.06191 0
M  V30 863 N 81.2955 -0.223234 1.56011 0
M  V30 864 C 82.5205 -0.968978 1.83373 0
M  V30 865 C 82.9455 -1.77227 0.630254 0
M  V30 866 O 82.3035 -1.76345 -0.420959 0
M  V30 867 C 82.3515 -1.86363 3.08709 0
M  V30 868 O 81.4555 -2.95873 2.87285 0
M  V30 869 H 80.7965 -0.274461 0.604622 0
M  V30 870 H 83.3265 -0.237056 2.03222 0
M  V30 871 H 83.3365 -2.27376 3.38768 0
M  V30 872 H 82.0115 -1.27319 3.95933 0
M  V30 873 H 80.5885 -2.58818 2.68454 0
M  V30 874 N 82.7736 -1.49793 -0.48987 0
M  V30 875 C 84.0206 -1.59841 -1.24327 0
M  V30 876 C 84.3486 -0.290135 -1.92324 0
M  V30 877 O 83.6036 0.722749 -1.81865 0
M  V30 878 C 83.9026 -2.71488 -2.32441 0
M  V30 879 C 83.5686 -4.12614 -1.81826 0
M  V30 880 C 82.2306 -4.51017 -1.67742 0
M  V30 881 C 84.5826 -5.00892 -1.4407 0
M  V30 882 C 81.9106 -5.75459 -1.14297 0
M  V30 883 C 84.2626 -6.25863 -0.920742 0
M  V30 884 C 82.9266 -6.63086 -0.766383 0
M  V30 885 H 82.1966 -0.584899 -0.454944 0
M  V30 886 H 84.8436 -1.83663 -0.542215 0
M  V30 887 H 83.1486 -2.4168 -3.0838 0
M  V30 888 H 84.8456 -2.76469 -2.90458 0
M  V30 889 H 81.4356 -3.82307 -1.93751 0
M  V30 890 H 85.6196 -4.7187 -1.53794 0
M  V30 891 H 80.8756 -6.02989 -1.01068 0
M  V30 892 H 85.0496 -6.9364 -0.619448 0
M  V30 893 H 82.6766 -7.59393 -0.350083 0
M  V30 894 N 84.2517 0.741722 -1.39055 0
M  V30 895 C 85.4797 1.53098 -1.39171 0
M  V30 896 C 85.8947 1.88794 0.0155099 0
M  V30 897 O 85.2517 1.53626 0.985159 0
M  V30 898 C 85.3027 2.82274 -2.2584 0
M  V30 899 O 85.0237 2.48097 -3.61081 0
M  V30 900 C 86.5247 3.76343 -2.34266 0
M  V30 901 H 83.7447 0.473335 -0.4756 0
M  V30 902 H 86.2887 0.917045 -1.82785 0
M  V30 903 H 84.4437 3.40015 -1.85656 0
M  V30 904 H 84.8577 3.31029 -4.06842 0
M  V30 905 H 86.3317 4.63898 -2.9917 0
M  V30 906 H 86.8087 4.17619 -1.35982 0
M  V30 907 H 87.4147 3.24523 -2.74891 0
M  V30 908 N 85.7298 1.2412 0.971189 0
M  V30 909 C 86.9788 1.07284 1.70801 0
M  V30 910 C 87.2918 -0.388902 1.91695 0
M  V30 911 O 88.4978 -0.677379 2.62914 0
M  V30 912 C 86.9538 1.87145 3.07416 0
M  V30 913 C 86.5618 3.37707 2.94377 0
M  V30 914 C 88.3058 1.78828 3.84995 0
M  V30 915 C 86.2128 4.09925 4.26281 0
M  V30 916 H 85.1428 0.397854 0.64049 0
M  V30 917 H 87.7938 1.4817 1.0825 0
M  V30 918 H 86.1758 1.39071 3.70777 0
M  V30 919 H 87.3498 3.93335 2.4005 0
M  V30 920 H 85.6648 3.46938 2.30267 0
M  V30 921 H 88.2618 2.30089 4.82662 0
M  V30 922 H 88.6048 0.75284 4.09436 0
M  V30 923 H 89.1378 2.24563 3.28354 0
M  V30 924 H 85.8768 5.13813 4.07033 0
M  V30 925 H 85.3968 3.59083 4.80437 0
M  V30 926 H 87.0758 4.1673 4.94919 0
M  V30 927 N 87.2079 -1.17134 1.05439 0
M  V30 928 C 88.4569 -1.86791 0.761049 0
M  V30 929 C 88.7699 -1.82072 -0.714795 0
M  V30 930 O 89.9759 -2.47223 -1.12218 0
M  V30 931 C 88.4319 -3.35166 1.31117 0
M  V30 932 C 88.0399 -3.48381 2.81664 0
M  V30 933 C 89.7839 -4.10134 1.09499 0
M  V30 934 C 87.6909 -4.90793 3.29964 0
M  V30 935 H 86.6209 -0.699681 0.281002 0
M  V30 936 H 89.2719 -1.3226 1.27199 0
M  V30 937 H 87.6539 -3.8925 0.72803 0
M  V30 938 H 88.8279 -3.04502 3.45855 0
M  V30 939 H 87.1429 -2.86836 3.01851 0
M  V30 940 H 89.7399 -5.152 1.43084 0
M  V30 941 H 90.0829 -4.16287 0.0328772 0
M  V30 942 H 90.6159 -3.62264 1.64346 0
M  V30 943 H 87.3549 -4.89816 4.35616 0
M  V30 944 H 86.8749 -5.35333 2.70516 0
M  V30 945 H 88.5539 -5.59573 3.24787 0
M  V30 946 N 88.686 -0.835752 -1.33615 0
M  V30 947 C 89.963 -0.352017 -1.92406 0
M  V30 948 C 90.343 1.16225 -1.76224 0
M  V30 949 O 89.691 1.97526 -1.14873 0
M  V30 950 C 89.901 -0.795485 -3.39813 0
M  V30 951 C 91.249 -0.801703 -4.16963 0
M  V30 952 O 92.273 -0.738889 -3.48452 0
M  V30 953 O 91.132 -0.886607 -5.3926 0
M  V30 954 H 88.226 -0.0989641 -0.821057 0
M  V30 955 H 90.772 -0.921397 -1.42507 0
M  V30 956 H 89.544 -1.83795 -3.45449 0
M  V30 957 H 89.167 -0.202505 -3.97084 0
M  V30 958 N 90.1641 1.46063 -0.591896 0
M  V30 959 C 91.4121 2.01938 -0.0808391 0
M  V30 960 C 91.7331 1.46475 1.28725 0
M  V30 961 O 91.0031 0.652944 1.84698 0
M  V30 962 H 89.5831 0.746516 -0.0268938 0
M  V30 963 H 92.2451 1.79055 -0.769752 0
M  V30 964 H 91.3411 3.12094 -0.0187578 0
M  V30 965 N 91.6422 0.330177 1.54103 0
M  V30 966 C 92.5902 -0.548226 2.26047 0
M  V30 967 C 93.5842 -1.11309 1.27698 0
M  V30 968 O 94.7902 -1.06036 1.45452 0
M  V30 969 H 91.1652 -0.195456 0.726155 0
M  V30 970 H 93.1362 0.0807567 2.98291 0
M  V30 971 C 91.8852 -1.69415 3.03634 0
M  V30 972 H 91.2082 -1.26876 3.79134 0
M  V30 973 H 92.6482 -2.28423 3.5721 0
M  V30 974 C 91.1072 -2.61569 2.12328 0
M  V30 975 O 91.6372 -3.63462 1.7105 0
M  V30 976 N 89.8432 -2.29952 1.77681 0
M  V30 977 H 89.3902 -1.47134 2.11446 0
M  V30 978 H 89.3482 -2.91871 1.16869 0
M  V30 979 N 93.1203 -1.57491 0.0584922 0
M  V30 980 C 94.0523 -2.08916 -0.942694 0
M  V30 981 C 95.0653 -1.0185 -1.27006 0
M  V30 982 O 96.2543 -1.29398 -1.22957 0
M  V30 983 C 93.3543 -2.52341 -2.26224 0
M  V30 984 C 92.5273 -3.82827 -2.1157 0
M  V30 985 C 91.5863 -4.12487 -3.26712 0
M  V30 986 O 90.6123 -4.82295 -3.02292 0
M  V30 987 N 91.8143 -3.64978 -4.5141 0
M  V30 988 H 94.5793 -2.95437 -0.503722 0
M  V30 989 H 92.1403 -1.61397 -0.12757 0
M  V30 990 H 94.1323 -2.69254 -3.02133 0
M  V30 991 H 92.7023 -1.7103 -2.61663 0
M  V30 992 H 91.9223 -3.75425 -1.20208 0
M  V30 993 H 93.2103 -4.68263 -1.99015 0
M  V30 994 H 92.6083 -3.08558 -4.7414 0
M  V30 995 H 91.1653 -3.87115 -5.2439 0
M  V30 996 N 94.5984 0.214957 -1.56127 0
M  V30 997 C 95.8444 0.939762 -1.79712 0
M  V30 998 C 96.1774 1.83723 -0.629247 0
M  V30 999 O 95.4524 1.90925 0.371197 0
M  V30 1000 C 95.7354 1.77306 -3.13424 0
M  V30 1001 C 95.5884 0.90164 -4.40671 0
M  V30 1002 C 96.9074 2.74956 -3.43638 0
M  V30 1003 H 94.0264 0.340214 -0.653776 0
M  V30 1004 H 96.6684 0.20824 -1.88855 0
M  V30 1005 H 94.8184 2.39673 -3.0576 0
M  V30 1006 H 96.4904 0.294206 -4.60361 0
M  V30 1007 H 94.7334 0.207368 -4.33304 0
M  V30 1008 H 95.4044 1.51923 -5.30682 0
M  V30 1009 H 97.8804 2.22724 -3.51473 0
M  V30 1010 H 96.7564 3.30358 -4.38355 0
M  V30 1011 H 97.0174 3.53023 -2.66134 0
M  V30 1012 N 96.0765 1.50051 0.48192 0
M  V30 1013 C 97.3015 1.64508 1.26301 0
M  V30 1014 C 97.7265 0.323851 1.85291 0
M  V30 1015 O 97.0845 -0.710969 1.66778 0
M  V30 1016 C 97.1325 2.7305 2.35533 0
M  V30 1017 O 96.2365 2.3355 3.39895 0
M  V30 1018 H 95.5775 0.549978 0.372048 0
M  V30 1019 H 98.1075 1.9636 0.574786 0
M  V30 1020 H 98.1175 2.95799 2.8101 0
M  V30 1021 H 96.7925 3.68946 1.91967 0
M  V30 1022 H 95.3695 2.21205 3.00204 0
M  V30 1023 N 97.5546 -0.734337 1.39446 0
M  V30 1024 C 98.8026 -1.49096 1.36436 0
M  V30 1025 C 99.1236 -1.94961 -0.0388255 0
M  V30 1026 O 98.3936 -1.69033 -0.990191 0
M  V30 1027 H 96.9736 -0.5531 0.502085 0
M  V30 1028 H 99.6356 -0.871725 1.74319 0
M  V30 1029 H 98.7316 -2.37276 2.02747 0
M  V30 1030 N 99.0327 -1.24633 -0.964593 0
M  V30 1031 C 99.9427 -1.05859 -2.09359 0
M  V30 1032 C 100.959 0.00148855 -1.74 0
M  V30 1033 O 102.135 -0.197346 -2.00431 0
M  V30 1034 C 99.1997 -0.668879 -3.40187 0
M  V30 1035 C 98.2607 -1.80578 -3.89474 0
M  V30 1036 C 97.4937 -1.43457 -5.14058 0
M  V30 1037 O 97.7167 -0.325775 -5.69469 0
M  V30 1038 O 96.6507 -2.2613 -5.57807 0
M  V30 1039 H 100.477 -2.00516 -2.28094 0
M  V30 1040 H 98.0617 -1.03481 -1.0776 0
M  V30 1041 H 99.9437 -0.463211 -4.18846 0
M  V30 1042 H 98.6187 0.248536 -3.22744 0
M  V30 1043 H 97.5257 -2.06623 -3.11862 0
M  V30 1044 H 98.8587 -2.70208 -4.11398 0
M  V30 1045 N 100.511 1.16574 -1.06058 0
M  V30 1046 C 101.788 1.83048 -0.689416 0
M  V30 1047 C 102.168 1.94122 0.829443 0
M  V30 1048 O 101.516 1.48249 1.7388 0
M  V30 1049 C 101.726 3.20186 -1.38859 0
M  V30 1050 C 103.074 3.95989 -1.53226 0
M  V30 1051 O 104.098 3.29696 -1.3483 0
M  V30 1052 O 102.957 5.14813 -1.83384 0
M  V30 1053 H 100.051 0.790258 -0.243764 0
M  V30 1054 H 102.597 1.23797 -1.16071 0
M  V30 1055 H 101.369 3.07146 -2.4244 0
M  V30 1056 H 100.992 3.87112 -0.907216 0
M  V30 1057 N 101.989 0.842826 1.3317 0
M  V30 1058 C 102.952 0.284065 2.27433 0
M  V30 1059 C 103.952 -0.54948 1.5112 0
M  V30 1060 O 105.142 -0.362699 1.70382 0
M  V30 1061 C 102.274 -0.599384 3.35589 0
M  V30 1062 H 103.467 1.11589 2.78366 0
M  V30 1063 H 101.02 0.616221 1.4364 0
M  V30 1064 H 101.755 -1.45349 2.89904 0
M  V30 1065 H 101.54 -0.00291266 3.921 0
M  V30 1066 H 103.03 -0.983488 4.05854 0
M  V30 1067 N 103.467 -1.45747 0.599634 0
M  V30 1068 C 104.715 -2.01893 0.0915472 0
M  V30 1069 C 105.036 -1.47155 -1.27946 0
M  V30 1070 O 104.306 -0.66273 -1.84349 0
M  V30 1071 H 102.886 -0.746363 0.0308524 0
M  V30 1072 H 105.548 -1.78645 0.779237 0
M  V30 1073 H 104.644 -3.1208 0.0353086 0
M  V30 1074 N 104.945 -0.338344 -1.53925 0
M  V30 1075 C 105.893 0.536231 -2.26335 0
M  V30 1076 C 106.887 1.1063 -1.28286 0
M  V30 1077 O 108.093 1.05264 -1.46012 0
M  V30 1078 H 104.468 0.191602 -0.727181 0
M  V30 1079 H 106.439 -0.0965747 -2.98244 0
M  V30 1080 C 105.188 1.67803 -3.04528 0
M  V30 1081 H 104.511 1.24864 -3.79801 0
M  V30 1082 H 105.951 2.26526 -3.58416 0
M  V30 1083 C 104.41 2.60439 -2.13712 0
M  V30 1084 O 104.94 3.6255 -1.72975 0
M  V30 1085 N 103.146 2.29006 -1.78898 0
M  V30 1086 H 102.693 1.46011 -2.12223 0
M  V30 1087 H 102.651 2.91248 -1.18416 0
M  V30 1088 N 106.423 1.57458 -0.0668435 0
M  V30 1089 C 107.371 2.13639 0.919851 0
M  V30 1090 C 108.365 1.07204 1.31163 0
M  V30 1091 O 109.571 1.25591 1.28945 0
M  V30 1092 H 105.946 0.683048 0.314562 0
M  V30 1093 H 107.917 2.95415 0.421047 0
M  V30 1094 C 106.666 2.70892 2.17975 0
M  V30 1095 H 105.989 3.5246 1.88711 0
M  V30 1096 H 107.429 3.13803 2.85138 0
M  V30 1097 C 105.888 1.65414 2.93496 0
M  V30 1098 O 106.418 1.07619 3.87015 0
M  V30 1099 N 104.624 1.36564 2.56512 0
M  V30 1100 H 104.171 1.83751 1.80536 0
M  V30 1101 H 104.129 0.66223 3.07347 0
M  V30 1102 N 107.901 -0.206675 1.56239 0
M  V30 1103 C 109.148 -0.928842 1.79941 0
M  V30 1104 C 109.476 -1.83734 0.638131 0
M  V30 1105 O 108.731 -1.92039 -0.376746 0
M  V30 1106 C 109.03 -1.78675 3.09532 0
M  V30 1107 C 108.696 -1.03022 4.38973 0
M  V30 1108 C 107.358 -0.821302 4.74139 0
M  V30 1109 C 109.71 -0.497081 5.18824 0
M  V30 1110 C 107.038 -0.0675719 5.86661 0
M  V30 1111 C 109.39 0.24338 6.32132 0
M  V30 1112 C 108.054 0.463422 6.65889 0
M  V30 1113 H 107.324 -0.339887 0.658451 0
M  V30 1114 H 109.971 -0.195977 1.90495 0
M  V30 1115 H 108.276 -2.58794 2.94165 0
M  V30 1116 H 109.973 -2.34792 3.25075 0
M  V30 1117 H 106.563 -1.20306 4.11369 0
M  V30 1118 H 110.747 -0.645921 4.92079 0
M  V30 1119 H 106.003 0.112995 6.11296 0
M  V30 1120 H 110.177 0.66393 6.93228 0
M  V30 1121 H 107.804 1.04938 7.52922 0
M  V30 1122 N 109.379 -1.50304 -0.473955 0
M  V30 1123 C 110.626 -1.6115 -1.22625 0
M  V30 1124 C 110.954 -0.310517 -1.92005 0
M  V30 1125 O 110.209 0.703419 -1.82621 0
M  V30 1126 C 110.508 -2.73938 -2.29549 0
M  V30 1127 C 110.174 -4.14519 -1.7744 0
M  V30 1128 C 108.836 -4.5277 -1.62949 0
M  V30 1129 C 111.188 -5.02392 -1.3875 0
M  V30 1130 C 108.516 -5.76639 -1.08187 0
M  V30 1131 C 110.868 -6.26805 -0.854309 0
M  V30 1132 C 109.532 -6.63861 -0.696011 0
M  V30 1133 H 108.802 -0.589691 -0.448715 0
M  V30 1134 H 111.449 -1.84228 -0.522705 0
M  V30 1135 H 109.754 -2.44937 -3.05799 0
M  V30 1136 H 111.451 -2.79534 -2.87509 0
M  V30 1137 H 108.041 -3.8434 -1.89685 0
M  V30 1138 H 112.225 -4.73474 -1.4878 0
M  V30 1139 H 107.481 -6.04027 -0.946666 0
M  V30 1140 H 111.655 -6.94258 -0.545843 0
M  V30 1141 H 109.282 -7.59722 -0.26952 0
M  V30 1142 N 110.857 0.726932 -1.39834 0
M  V30 1143 C 111.787 1.85405 -1.41941 0
M  V30 1144 C 112.768 1.67751 -0.281728 0
M  V30 1145 O 113.953 1.8795 -0.488717 0
M  V30 1146 C 111.083 3.23243 -1.2701 0
M  V30 1147 C 110.037 3.55549 -2.38262 0
M  V30 1148 C 109.363 4.9241 -2.08415 0
M  V30 1149 C 110.663 3.577 -3.80589 0
M  V30 1150 H 112.357 1.83899 -2.36266 0
M  V30 1151 H 109.903 0.883349 -1.13723 0
M  V30 1152 H 111.856 4.01775 -1.27103 0
M  V30 1153 H 110.58 3.25296 -0.291564 0
M  V30 1154 H 109.239 2.79351 -2.37399 0
M  V30 1155 H 108.887 4.91052 -1.0898 0
M  V30 1156 H 108.587 5.14992 -2.82943 0
M  V30 1157 H 110.111 5.73289 -2.10171 0
M  V30 1158 H 111.525 4.26293 -3.83337 0
M  V30 1159 H 109.922 3.91804 -4.54543 0
M  V30 1160 H 110.992 2.57328 -4.10987 0
M  V30 1161 N 112.336 1.25143 0.95797 0
M  V30 1162 C 113.268 1.01023 2.05735 0
M  V30 1163 C 114.281 -0.0236902 1.62783 0
M  V30 1164 O 115.47 0.21448 1.77207 0
M  V30 1165 C 112.57 0.504595 3.35122 0
M  V30 1166 C 111.743 1.6039 4.06932 0
M  V30 1167 C 110.802 1.09922 5.14591 0
M  V30 1168 O 109.828 1.79293 5.40225 0
M  V30 1169 N 111.03 -0.0612545 5.80468 0
M  V30 1170 H 113.795 1.95683 2.26998 0
M  V30 1171 H 111.356 1.16303 1.12629 0
M  V30 1172 H 113.348 0.151516 4.04416 0
M  V30 1173 H 111.918 -0.347989 3.10657 0
M  V30 1174 H 111.138 2.12872 3.31782 0
M  V30 1175 H 112.426 2.34252 4.51667 0
M  V30 1176 H 111.824 -0.640985 5.62057 0
M  V30 1177 H 110.381 -0.355395 6.5083 0
M  V30 1178 N 113.814 -1.1601 1.06675 0
M  V30 1179 C 115.23 -1.38622 0.790948 0
M  V30 1180 C 115.43 -1.92109 -0.607965 0
M  V30 1181 O 114.486 -2.12239 -1.36787 0
M  V30 1182 C 115.799 -2.36347 1.85905 0
M  V30 1183 C 117.347 -2.50023 1.88301 0
M  V30 1184 C 117.822 -3.51033 2.94176 0
M  V30 1185 N 119.313 -3.58563 2.93235 0
M  V30 1186 C 120.048 -4.36521 3.71803 0
M  V30 1187 N 119.544 -5.17869 4.602 0
M  V30 1188 N 121.337 -4.31541 3.60178 0
M  V30 1189 H 113.488 -0.796294 1.96908 0
M  V30 1190 H 115.751 -0.412597 0.853503 0
M  V30 1191 H 115.457 -2.04147 2.86386 0
M  V30 1192 H 115.331 -3.36042 1.71334 0
M  V30 1193 H 117.718 -2.81524 0.884769 0
M  V30 1194 H 117.799 -1.5035 2.06951 0
M  V30 1195 H 117.443 -3.20268 3.94196 0
M  V30 1196 H 117.373 -4.50445 2.72776 0
M  V30 1197 H 119.864 -3.00496 2.29152 0
M  V30 1198 H 120.177 -5.74578 5.16797 0
M  V30 1199 H 118.522 -5.17199 4.64253 0
M  V30 1200 H 121.713 -3.67051 2.90502 0
M  V30 1201 H 121.886 -4.9205 4.21653 0
M  V30 1202 N 115.292 -0.849877 -1.32721 0
M  V30 1203 C 116.517 -0.463856 -2.02146 0
M  V30 1204 C 116.942 0.930449 -1.63476 0
M  V30 1205 O 116.3 1.61033 -0.832952 0
M  V30 1206 C 116.348 -0.604955 -3.55489 0
M  V30 1207 O 115.452 0.36425 -4.10788 0
M  V30 1208 H 114.793 -0.187046 -0.637111 0
M  V30 1209 H 117.323 -1.14775 -1.69375 0
M  V30 1210 H 117.333 -0.490696 -4.05038 0
M  V30 1211 H 116.008 -1.62174 -3.82978 0
M  V30 1212 H 114.585 0.206628 -3.72327 0
M  V30 1213 N 116.77 1.45427 -0.607355 0
M  V30 1214 C 117.995 2.07124 -0.107006 0
M  V30 1215 C 118.42 1.44906 1.19933 0
M  V30 1216 O 117.778 0.541687 1.73019 0
M  V30 1217 C 117.826 3.60595 0.0194119 0
M  V30 1218 O 116.93 3.98285 1.0697 0
M  V30 1219 H 116.271 0.659868 -0.0739597 0
M  V30 1220 H 118.801 1.86683 -0.837297 0
M  V30 1221 H 118.811 4.07419 0.2177 0
M  V30 1222 H 117.486 4.05266 -0.934453 0
M  V30 1223 H 116.063 3.63133 0.847889 0
M  V30 1224 N 118.248 0.346503 1.53744 0
M  V30 1225 C 119.497 -0.250122 2.00143 0
M  V30 1226 C 119.81 -1.51418 1.23822 0
M  V30 1227 O 121.016 -2.18823 1.60713 0
M  V30 1228 C 119.472 -0.496252 3.56462 0
M  V30 1229 C 119.08 0.752077 4.41642 0
M  V30 1230 C 120.824 -1.05157 4.11269 0
M  V30 1231 C 118.731 0.476583 5.89477 0
M  V30 1232 H 117.661 -0.0972409 0.747703 0
M  V30 1233 H 120.312 0.46229 1.77581 0
M  V30 1234 H 118.694 -1.26944 3.75102 0
M  V30 1235 H 119.868 1.5266 4.34778 0
M  V30 1236 H 118.183 1.22925 3.97842 0
M  V30 1237 H 120.78 -1.27269 5.19333 0
M  V30 1238 H 121.123 -2.00799 3.64672 0
M  V30 1239 H 121.656 -0.339019 3.96353 0
M  V30 1240 H 118.395 1.4028 6.40314 0
M  V30 1241 H 117.915 -0.259794 5.99237 0
M  V30 1242 H 119.594 0.0949315 6.4693 0
M  V30 1243 N 119.726 -1.57421 0.075193 0
M  V30 1244 C 120.974 -1.93236 -0.591974 0
M  V30 1245 C 121.295 -0.956241 -1.69944 0
M  V30 1246 O 120.565 -0.00494792 -1.95899 0
M  V30 1247 H 119.145 -0.713355 -0.22166 0
M  V30 1248 H 121.807 -1.9444 0.133848 0
M  V30 1249 H 120.903 -2.95131 -1.01509 0
M  V30 1250 N 121.204 0.198386 -1.56346 0
M  V30 1251 C 122.151 1.24589 -1.94284 0
M  V30 1252 C 123.121 1.454 -0.802997 0
M  V30 1253 O 124.306 1.58588 -1.06087 0
M  V30 1254 C 121.446 2.58631 -2.28482 0
M  V30 1255 C 120.559 2.45426 -3.55514 0
M  V30 1256 C 119.694 3.7215 -3.79049 0
M  V30 1257 C 118.733 3.53763 -4.99518 0
M  V30 1258 N 117.87 4.72491 -5.19323 0
M  V30 1259 H 122.71 0.915356 -2.83593 0
M  V30 1260 H 120.247 0.440629 -1.40346 0
M  V30 1261 H 122.205 3.3672 -2.46324 0
M  V30 1262 H 120.835 2.89734 -1.42317 0
M  V30 1263 H 119.887 1.58652 -3.45737 0
M  V30 1264 H 121.199 2.27772 -4.43758 0
M  V30 1265 H 120.353 4.58679 -3.97113 0
M  V30 1266 H 119.092 3.92754 -2.89129 0
M  V30 1267 H 118.097 2.65619 -4.8138 0
M  V30 1268 H 119.322 3.34607 -5.90944 0
M  V30 1269 H 117.268 4.93365 -4.3235 0
M  V30 1270 H 117.185 4.5765 -6.01741 0
M  V30 1271 H 118.453 5.6038 -5.41843 0
M  V30 1272 N 122.682 1.50554 0.465978 0
M  V30 1273 C 123.63 1.70324 1.58406 0
M  V30 1274 C 124.624 0.569139 1.59553 0
M  V30 1275 O 125.83 0.749776 1.63641 0
M  V30 1276 H 122.205 0.537688 0.525734 0
M  V30 1277 H 124.176 2.64104 1.38894 0
M  V30 1278 C 122.925 1.81928 2.96307 0
M  V30 1279 H 122.248 2.68586 2.96144 0
M  V30 1280 H 123.688 1.99784 3.73982 0
M  V30 1281 C 122.147 0.572095 3.32007 0
M  V30 1282 O 122.677 -0.286416 4.00678 0
M  V30 1283 N 120.883 0.424606 2.87481 0
M  V30 1284 H 120.43 1.12427 2.31771 0
M  V30 1285 H 120.388 -0.408697 3.11732 0
M  V30 1286 N 124.16 -0.719506 1.40217 0
M  V30 1287 C 125.576 -1.02707 1.22161 0
M  V30 1288 C 125.776 -2.0128 0.0940557 0
M  V30 1289 O 124.832 -2.46452 -0.549318 0
M  V30 1290 C 126.145 -1.57454 2.56181 0
M  V30 1291 C 127.693 -1.69458 2.63159 0
M  V30 1292 C 128.168 -2.27611 3.97438 0
M  V30 1293 N 129.659 -2.35002 3.99159 0
M  V30 1294 C 130.394 -2.80972 4.99842 0
M  V30 1295 N 129.89 -3.26723 6.10921 0
M  V30 1296 N 131.683 -2.80321 4.87213 0
M  V30 1297 H 123.834 -0.0660492 2.12297 0
M  V30 1298 H 126.097 -0.0919077 0.943534 0
M  V30 1299 H 125.803 -0.924873 3.39321 0
M  V30 1300 H 125.677 -2.56036 2.76993 0
M  V30 1301 H 128.064 -2.33543 1.80393 0
M  V30 1302 H 128.145 -0.694867 2.46181 0
M  V30 1303 H 127.789 -1.6415 4.80643 0
M  V30 1304 H 127.719 -3.2829 4.11744 0
M  V30 1305 H 130.21 -2.02685 3.18947 0
M  V30 1306 H 130.523 -3.60355 6.8364 0
M  V30 1307 H 128.868 -3.24692 6.14492 0
M  V30 1308 H 132.059 -2.43912 3.9953 0
M  V30 1309 H 132.232 -3.15831 5.65822 0
M  V30 1310 N 125.638 -1.25649 -0.95132 0
M  V30 1311 C 126.601 -1.06399 -2.03007 0
M  V30 1312 C 127.601 -0.0156794 -1.60792 0
M  V30 1313 O 128.791 -0.25817 -1.72276 0
M  V30 1314 C 125.923 -0.616184 -3.35285 0
M  V30 1315 H 127.116 -2.02164 -2.21517 0
M  V30 1316 H 124.669 -1.08103 -1.12887 0
M  V30 1317 H 125.404 0.343917 -3.22471 0
M  V30 1318 H 125.189 -1.37301 -3.67275 0
M  V30 1319 H 126.679 -0.503032 -4.14559 0
M  V30 1320 N 127.117 1.15442 -1.07289 0
M  V30 1321 C 128.027 2.23786 -0.704057 0
M  V30 1322 C 129.043 1.7166 0.284413 0
M  V30 1323 O 130.219 2.00972 0.131205 0
M  V30 1324 C 127.284 3.46535 -0.106792 0
M  V30 1325 C 126.345 4.13654 -1.14842 0
M  V30 1326 C 125.578 5.30544 -0.57956 0
M  V30 1327 O 125.801 5.67187 0.604585 0
M  V30 1328 O 124.735 5.87154 -1.32414 0
M  V30 1329 H 128.561 2.57664 -1.60757 0
M  V30 1330 H 126.146 1.23152 -0.845803 0
M  V30 1331 H 128.028 4.20804 0.224048 0
M  V30 1332 H 126.703 3.14407 0.770049 0
M  V30 1333 H 125.61 3.4131 -1.5316 0
M  V30 1334 H 126.943 4.49861 -1.99714 0
M  V30 1335 N 128.595 0.856903 1.32268 0
M  V30 1336 C 129.558 0.308171 2.27119 0
M  V30 1337 C 130.558 -0.533421 1.51695 0
M  V30 1338 O 131.748 -0.344607 1.70757 0
M  V30 1339 C 128.88 -0.563757 3.36206 0
M  V30 1340 H 130.073 1.14535 2.77167 0
M  V30 1341 H 127.626 0.631421 1.42978 0
M  V30 1342 H 128.361 -1.42266 2.91429 0
M  V30 1343 H 128.146 0.0386749 3.92081 0
M  V30 1344 H 129.636 -0.940386 4.06874 0
M  V30 1345 N 130.073 -1.45103 0.615059 0
M  V30 1346 C 131.036 -2.29025 -0.0895485 0
M  V30 1347 C 132.036 -1.40174 -0.787906 0
M  V30 1348 O 133.226 -1.62217 -0.634933 0
M  V30 1349 C 130.358 -3.21376 -1.13711 0
M  V30 1350 H 131.551 -2.92807 0.648382 0
M  V30 1351 H 129.104 -1.51749 0.374444 0
M  V30 1352 H 129.839 -2.6241 -1.90556 0
M  V30 1353 H 129.624 -3.86834 -0.640475 0
M  V30 1354 H 131.114 -3.84459 -1.63036 0
M  V30 1355 N 131.551 -0.354651 -1.53558 0
M  V30 1356 C 132.484 0.540273 -2.21712 0
M  V30 1357 C 133.462 1.09161 -1.2051 0
M  V30 1358 O 134.646 1.14979 -1.49372 0
M  V30 1359 C 131.773 1.74435 -2.90328 0
M  V30 1360 C 130.819 1.32146 -4.05512 0
M  V30 1361 S 131.652 0.331924 -5.3447 0
M  V30 1362 C 132.808 1.54258 -6.06593 0
M  V30 1363 H 133.041 -0.0385776 -2.97275 0
M  V30 1364 H 130.574 -0.138736 -1.53775 0
M  V30 1365 H 132.532 2.43507 -3.30476 0
M  V30 1366 H 131.193 2.29444 -2.1451 0
M  V30 1367 H 130.386 2.21952 -4.52497 0
M  V30 1368 H 129.988 0.710091 -3.67197 0
M  V30 1369 H 132.28 2.47534 -6.30661 0
M  V30 1370 H 133.223 1.11431 -6.99277 0
M  V30 1371 H 133.631 1.74367 -5.36895 0
M  V30 1372 N 133.029 1.57378 -0.0835403 0
M  V30 1373 C 133.939 2.16897 0.894021 0
M  V30 1374 C 134.955 1.13528 1.31861 0
M  V30 1375 O 136.131 1.45848 1.3889 0
M  V30 1376 C 133.196 2.72831 2.13925 0
M  V30 1377 C 132.257 3.91115 1.76997 0
M  V30 1378 C 131.49 4.44371 2.95584 0
M  V30 1379 O 131.713 3.96596 4.09961 0
M  V30 1380 O 130.647 5.35549 2.74719 0
M  V30 1381 H 134.473 3.00814 0.417679 0
M  V30 1382 H 132.058 1.48741 0.140181 0
M  V30 1383 H 133.94 3.0863 2.86924 0
M  V30 1384 H 132.615 1.91967 2.60635 0
M  V30 1385 H 131.522 3.60148 1.01214 0
M  V30 1386 H 132.855 4.73307 1.3506 0
M  V30 1387 N 134.507 -0.190092 1.56449 0
M  V30 1388 C 135.754 -0.909705 1.80916 0
M  V30 1389 C 136.082 -1.83047 0.657583 0
M  V30 1390 O 135.337 -1.92428 -0.356356 0
M  V30 1391 C 135.636 -1.75382 3.1141 0
M  V30 1392 C 135.302 -0.983606 4.40041 0
M  V30 1393 C 133.964 -0.770967 4.74984 0
M  V30 1394 C 136.316 -0.442024 5.19322 0
M  V30 1395 C 133.644 -0.0053448 5.867 0
M  V30 1396 C 135.996 0.310412 6.31838 0
M  V30 1397 C 134.66 0.534023 6.6536 0
M  V30 1398 H 133.93 -0.332885 0.662019 0
M  V30 1399 H 136.577 -0.175762 1.90692 0
M  V30 1400 H 134.882 -2.55659 2.96893 0
M  V30 1401 H 136.579 -2.31331 3.27547 0
M  V30 1402 H 133.169 -1.15936 4.12622 0
M  V30 1403 H 137.353 -0.593693 4.92736 0
M  V30 1404 H 132.609 0.177825 6.11141 0
M  V30 1405 H 136.783 0.737419 6.92485 0
M  V30 1406 H 134.41 1.12918 7.51767 0
M  V30 1407 N 135.985 -1.50799 -0.457987 0
M  V30 1408 C 136.915 -1.73553 -1.5621 0
M  V30 1409 C 137.896 -0.584774 -1.59732 0
M  V30 1410 O 139.081 -0.825314 -1.7579 0
M  V30 1411 C 136.211 -1.84169 -2.94447 0
M  V30 1412 C 135.165 -2.99461 -3.0579 0
M  V30 1413 C 134.491 -2.95235 -4.45803 0
M  V30 1414 C 135.791 -4.39766 -2.81786 0
M  V30 1415 H 137.485 -2.66 -1.37421 0
M  V30 1416 H 135.031 -1.28002 -0.659662 0
M  V30 1417 H 136.984 -1.98672 -3.71628 0
M  V30 1418 H 135.708 -0.883545 -3.14422 0
M  V30 1419 H 134.367 -2.8463 -2.31044 0
M  V30 1420 H 134.015 -1.97239 -4.62715 0
M  V30 1421 H 133.715 -3.72642 -4.54326 0
M  V30 1422 H 135.239 -3.11803 -5.24987 0
M  V30 1423 H 136.653 -4.55054 -3.4871 0
M  V30 1424 H 135.05 -5.18722 -3.0174 0
M  V30 1425 H 136.12 -4.51229 -1.7754 0
M  V30 1426 N 137.463 0.71206 -1.40597 0
M  V30 1427 C 138.395 1.83704 -1.37061 0
M  V30 1428 C 139.408 1.60453 -0.275426 0
M  V30 1429 O 140.597 1.70262 -0.53602 0
M  V30 1430 C 137.697 3.20172 -1.11099 0
M  V30 1431 C 136.87 3.7059 -2.3234 0
M  V30 1432 C 135.929 4.85681 -2.02485 0
M  V30 1433 O 134.955 4.9815 -2.75382 0
M  V30 1434 N 136.157 5.71735 -1.00497 0
M  V30 1435 H 138.922 1.87235 -2.34016 0
M  V30 1436 H 136.483 0.893739 -1.34996 0
M  V30 1437 H 138.475 3.94768 -0.891064 0
M  V30 1438 H 137.045 3.11767 -0.227989 0
M  V30 1439 H 136.265 2.87085 -2.7014 0
M  V30 1440 H 137.553 4.01011 -3.13157 0
M  V30 1441 H 136.951 5.64275 -0.401298 0
M  V30 1442 H 135.508 6.463 -0.844942 0
M  V30 1443 N 138.941 1.26152 0.944643 0
M  V30 1444 C 139.851 1.09176 2.07648 0
M  V30 1445 C 140.867 0.0261935 1.7398 0
M  V30 1446 O 142.043 0.229208 2.00091 0
M  V30 1447 C 139.108 0.722915 3.39079 0
M  V30 1448 C 138.169 1.86752 3.86552 0
M  V30 1449 C 137.402 1.51617 5.11711 0
M  V30 1450 O 137.625 0.416331 5.68879 0
M  V30 1451 O 136.559 2.34975 5.54139 0
M  V30 1452 H 140.385 2.0412 2.24875 0
M  V30 1453 H 137.97 1.05182 1.061 0
M  V30 1454 H 139.852 0.529787 4.18056 0
M  V30 1455 H 138.527 -0.197159 3.23099 0
M  V30 1456 H 137.434 2.11558 3.08535 0
M  V30 1457 H 138.767 2.76719 4.07047 0
M  V30 1458 N 140.419 -1.14872 1.07899 0
M  V30 1459 C 141.349 -2.2193 0.725887 0
M  V30 1460 C 142.33 -1.67622 -0.28927 0
M  V30 1461 O 143.515 -1.93533 -0.160787 0
M  V30 1462 C 140.645 -3.47061 0.128856 0
M  V30 1463 C 139.599 -4.14363 1.07178 0
M  V30 1464 C 138.925 -5.33636 0.337229 0
M  V30 1465 C 140.225 -4.63492 2.40775 0
M  V30 1466 H 141.919 -2.51724 1.62097 0
M  V30 1467 H 139.465 -1.20991 0.780838 0
M  V30 1468 H 141.418 -4.21199 -0.130147 0
M  V30 1469 H 140.142 -3.16617 -0.80134 0
M  V30 1470 H 138.801 -3.42173 1.3158 0
M  V30 1471 H 138.449 -4.99449 -0.596606 0
M  V30 1472 H 138.149 -5.79609 0.965788 0
M  V30 1473 H 139.673 -6.10539 0.0861567 0
M  V30 1474 H 141.087 -5.2913 2.20669 0
M  V30 1475 H 139.484 -5.20148 2.99276 0
M  V30 1476 H 140.554 -3.78834 3.02676 0
M  V30 1477 N 141.898 -0.863906 -1.31812 0
M  V30 1478 C 142.846 -0.30422 -2.30602 0
M  V30 1479 C 143.84 0.577419 -1.59255 0
M  V30 1480 O 145.046 0.464194 -1.73912 0
M  V30 1481 H 141.421 -0.0796877 -0.747766 0
M  V30 1482 H 143.392 -1.15148 -2.75288 0
M  V30 1483 C 142.141 0.484617 -3.44306 0
M  V30 1484 H 141.464 -0.18451 -3.99374 0
M  V30 1485 H 142.904 0.841664 -4.15562 0
M  V30 1486 C 141.363 1.6735 -2.92396 0
M  V30 1487 O 141.893 2.77273 -2.90659 0
M  V30 1488 N 140.099 1.50362 -2.48676 0
M  V30 1489 H 139.646 0.609402 -2.50288 0
M  V30 1490 H 139.604 2.30051 -2.14299 0
M  V30 1491 N 143.376 1.44774 -0.622745 0
M  V30 1492 C 144.601 2.06999 -0.128968 0
M  V30 1493 C 145.026 1.4617 1.1839 0
M  V30 1494 O 144.384 0.560007 1.72434 0
M  V30 1495 C 144.432 3.60595 -0.0188351 0
M  V30 1496 O 143.536 3.99398 1.02739 0
M  V30 1497 H 142.877 0.659047 -0.0809544 0
M  V30 1498 H 145.407 1.85784 -0.85705 0
M  V30 1499 H 145.417 4.07627 0.174476 0
M  V30 1500 H 144.092 4.04252 -0.977384 0
M  V30 1501 H 142.669 3.64011 0.809326 0
M  V30 1502 N 144.854 0.36279 1.53368 0
M  V30 1503 C 146.131 -0.284021 1.93527 0
M  V30 1504 C 146.511 -1.66628 1.29608 0
M  V30 1505 O 145.859 -2.23942 0.45413 0
M  V30 1506 C 146.069 -0.337028 3.47369 0
M  V30 1507 C 147.417 -0.578708 4.20638 0
M  V30 1508 O 148.441 -0.418352 3.53735 0
M  V30 1509 O 147.3 -0.89074 5.39192 0
M  V30 1510 H 144.394 -0.169743 0.809393 0
M  V30 1511 H 146.94 0.41537 1.64538 0
M  V30 1512 H 145.712 0.632217 3.86159 0
M  V30 1513 H 145.335 -1.08243 3.82582 0
M  V30 1514 N 146.332 -1.57332 0.0918853 0
M  V30 1515 C 147.578 -1.94524 -0.573425 0
M  V30 1516 C 147.911 -0.973578 -1.68033 0
M  V30 1517 O 147.186 -0.00609226 -1.94499 0
M  V30 1518 C 147.469 -3.41858 -1.13161 0
M  V30 1519 C 147.322 -4.4979 -0.0299747 0
M  V30 1520 C 148.641 -3.90435 -2.03098 0
M  V30 1521 H 145.76 -0.70734 -0.206975 0
M  V30 1522 H 148.402 -1.89309 0.161942 0
M  V30 1523 H 146.552 -3.46433 -1.7583 0
M  V30 1524 H 148.224 -4.57327 0.604112 0
M  V30 1525 H 146.467 -4.291 0.636833 0
M  V30 1526 H 147.138 -5.50069 -0.461287 0
M  V30 1527 H 149.614 -3.87992 -1.50338 0
M  V30 1528 H 148.49 -4.94097 -2.39081 0
M  V30 1529 H 148.751 -3.29541 -2.94712 0
M  V30 1530 N 147.81 0.181792 -1.56548 0
M  V30 1531 C 149.035 0.920019 -1.85877 0
M  V30 1532 C 149.46 1.75494 -0.677021 0
M  V30 1533 O 148.818 1.77399 0.374056 0
M  V30 1534 C 148.866 1.78112 -3.13542 0
M  V30 1535 O 147.97 2.88152 -2.95029 0
M  V30 1536 H 147.311 0.258334 -0.611686 0
M  V30 1537 H 149.841 0.183092 -2.03779 0
M  V30 1538 H 149.851 2.18314 -3.44678 0
M  V30 1539 H 148.526 1.16777 -3.99169 0
M  V30 1540 H 147.103 2.51609 -2.75222 0
M  V30 1541 N 149.288 1.51039 0.449983 0
M  V30 1542 C 150.536 1.62759 1.19808 0
M  V30 1543 C 150.857 0.339981 1.92013 0
M  V30 1544 O 150.127 -0.643606 1.85026 0
M  V30 1545 H 148.707 0.599811 0.445237 0
M  V30 1546 H 151.369 1.87914 0.517138 0
M  V30 1547 H 150.465 2.44911 1.93455 0
M  V30 1548 N 150.766 -0.704594 1.40972 0
M  V30 1549 C 151.991 -1.49858 1.43378 0
M  V30 1550 C 152.416 -1.88061 0.038184 0
M  V30 1551 O 151.774 -1.5402 -0.956425 0
M  V30 1552 C 151.822 -2.74333 2.34038 0
M  V30 1553 O 150.926 -3.7147 1.7912 0
M  V30 1554 H 150.267 -0.45139 0.486974 0
M  V30 1555 H 152.797 -0.866832 1.8533 0
M  V30 1556 H 152.807 -3.22741 2.49604 0
M  V30 1557 H 151.482 -2.45863 3.35446 0
M  V30 1558 H 150.059 -3.30363 1.72958 0
M  V30 1559 N 152.244 -1.26651 -0.937939 0
M  V30 1560 C 153.491 -1.12387 -1.6845 0
M  V30 1561 C 153.819 0.332208 -1.91642 0
M  V30 1562 O 153.074 1.2602 -1.49725 0
M  V30 1563 C 153.373 -1.84168 -3.06295 0
M  V30 1564 C 153.039 -3.34056 -3.02849 0
M  V30 1565 C 151.701 -3.74942 -3.01616 0
M  V30 1566 C 154.053 -4.29741 -2.9491 0
M  V30 1567 C 151.381 -5.09894 -2.90215 0
M  V30 1568 C 153.733 -5.64738 -2.8505 0
M  V30 1569 C 152.397 -6.0493 -2.82162 0
M  V30 1570 H 151.667 -0.411252 -0.616403 0
M  V30 1571 H 154.314 -1.57134 -1.09459 0
M  V30 1572 H 152.619 -1.319 -3.6893 0
M  V30 1573 H 154.316 -1.70569 -3.62915 0
M  V30 1574 H 150.906 -3.01534 -3.0459 0
M  V30 1575 H 155.09 -3.99133 -2.94969 0
M  V30 1576 H 150.346 -5.40194 -2.86358 0
M  V30 1577 H 154.52 -6.38561 -2.77872 0
M  V30 1578 H 152.147 -7.09457 -2.73084 0
M  V30 1579 N 153.722 1.14298 -1.08507 0
M  V30 1580 C 154.968 1.85633 -0.816581 0
M  V30 1581 C 155.301 1.82784 0.656021 0
M  V30 1582 O 154.576 1.25926 1.48233 0
M  V30 1583 C 154.859 3.34223 -1.34041 0
M  V30 1584 C 154.712 3.45639 -2.87843 0
M  V30 1585 C 156.031 4.29356 -0.9665 0
M  V30 1586 H 153.15 0.67402 -0.298104 0
M  V30 1587 H 155.792 1.34214 -1.34487 0
M  V30 1588 H 153.942 3.78144 -0.89104 0
M  V30 1589 H 155.614 3.10498 -3.41158 0
M  V30 1590 H 153.857 2.86817 -3.25451 0
M  V30 1591 H 154.528 4.50089 -3.19569 0
M  V30 1592 H 157.004 3.93457 -1.35391 0
M  V30 1593 H 155.88 5.3178 -1.3602 0
M  V30 1594 H 156.141 4.41919 0.126362 0
M  V30 1595 N 155.201 0.870884 1.31352 0
M  V30 1596 C 156.111 0.330783 2.32256 0
M  V30 1597 C 157.127 -0.559767 1.6475 0
M  V30 1598 O 158.303 -0.456263 1.96164 0
M  V30 1599 C 155.368 -0.458137 3.4366 0
M  V30 1600 C 154.429 0.460482 4.26823 0
M  V30 1601 C 153.662 -0.290881 5.32907 0
M  V30 1602 O 153.885 -1.51885 5.49806 0
M  V30 1603 O 152.819 0.351732 6.00871 0
M  V30 1604 H 156.645 1.16718 2.80376 0
M  V30 1605 H 154.23 0.634285 1.35267 0
M  V30 1606 H 156.112 -0.905343 4.1156 0
M  V30 1607 H 154.787 -1.27106 2.97701 0
M  V30 1608 H 153.694 0.956207 3.61673 0
M  V30 1609 H 155.027 1.23903 4.7635 0
M  V30 1610 N 156.679 -1.44442 0.630414 0
M  V30 1611 C 157.589 -2.34476 -0.0761693 0
M  V30 1612 C 158.605 -1.52576 -0.836449 0
M  V30 1613 O 159.781 -1.85307 -0.788874 0
M  V30 1614 C 156.846 -3.30545 -1.04599 0
M  V30 1615 C 155.907 -4.28352 -0.28516 0
M  V30 1616 C 155.14 -5.19831 -1.20878 0
M  V30 1617 O 155.363 -5.15223 -2.44747 0
M  V30 1618 O 154.297 -5.97892 -0.693491 0
M  V30 1619 H 158.123 -2.96345 0.664324 0
M  V30 1620 H 155.708 -1.44203 0.39061 0
M  V30 1621 H 157.59 -3.89681 -1.60396 0
M  V30 1622 H 156.265 -2.7121 -1.76711 0
M  V30 1623 H 155.172 -3.72764 0.315837 0
M  V30 1624 H 156.505 -4.90605 0.395924 0
M  V30 1625 N 158.157 -0.370918 -1.53173 0
M  V30 1626 C 159.382 0.220293 -2.06227 0
M  V30 1627 C 159.807 1.41243 -1.24225 0
M  V30 1628 O 159.165 1.79387 -0.262645 0
M  V30 1629 C 159.213 0.586663 -3.55796 0
M  V30 1630 O 158.317 1.68317 -3.76488 0
M  V30 1631 H 157.658 0.0308099 -0.663285 0
M  V30 1632 H 160.188 -0.533068 -1.97534 0
M  V30 1633 H 160.198 0.85617 -3.98916 0
M  V30 1634 H 158.873 -0.285013 -4.14922 0
M  V30 1635 H 157.45 1.40881 -3.45264 0
M  V30 1636 N 159.635 1.57281 -0.100228 0
M  V30 1637 C 161.046 1.81725 0.428107 0
M  V30 1638 C 161.397 1.01619 1.67833 0
M  V30 1639 O 160.522 0.247098 2.14985 0
M  V30 1640 C 161.117 3.29617 0.78347 0
M  V30 1641 C 159.676 3.54808 1.25653 0
M  V30 1642 C 158.823 2.76118 0.255752 0
M  V30 1643 H 161.774 1.55324 -0.325608 0
M  V30 1644 H 161.795 3.4322 1.64256 0
M  V30 1645 H 161.307 3.87893 -0.12665 0
M  V30 1646 H 159.408 3.01868 2.18418 0
M  V30 1647 H 159.521 4.63443 1.21482 0
M  V30 1648 H 157.885 2.43745 0.738956 0
M  V30 1649 H 158.668 3.37145 -0.647136 0
M  V30 1650 N 161.113 -0.173488 1.56642 0
M  V30 1651 C 162.023 -1.23482 1.99473 0
M  V30 1652 C 163.039 -1.48567 0.905752 0
M  V30 1653 O 164.215 -1.60758 1.21321 0
M  V30 1654 C 161.28 -2.55444 2.34413 0
M  V30 1655 C 160.341 -2.38241 3.57127 0
M  V30 1656 C 159.574 -3.63909 3.90392 0
M  V30 1657 O 159.797 -4.68996 3.24653 0
M  V30 1658 O 158.731 -3.58149 4.83749 0
M  V30 1659 H 162.557 -0.901279 2.90018 0
M  V30 1660 H 160.142 -0.380185 1.44482 0
M  V30 1661 H 162.024 -3.33292 2.57865 0
M  V30 1662 H 160.699 -2.88382 1.4703 0
M  V30 1663 H 159.606 -1.58431 3.38896 0
M  V30 1664 H 160.939 -2.10228 4.45045 0
M  V30 1665 N 162.591 -1.51276 -0.441967 0
M  V30 1666 C 163.539 -1.72823 -1.55676 0
M  V30 1667 C 164.533 -0.59445 -1.58627 0
M  V30 1668 O 165.739 -0.775715 -1.62427 0
M  V30 1669 H 162.114 -0.545983 -0.517113 0
M  V30 1670 H 164.085 -2.6628 -1.34675 0
M  V30 1671 C 162.834 -1.86619 -2.93375 0
M  V30 1672 H 162.157 -2.73264 -2.91834 0
M  V30 1673 H 163.597 -2.05709 -3.70756 0
M  V30 1674 C 162.056 -0.624842 -3.31055 0
M  V30 1675 O 162.586 0.222636 -4.01083 0
M  V30 1676 N 160.792 -0.470288 -2.86769 0
M  V30 1677 H 160.339 -1.161 -2.29953 0
M  V30 1678 H 160.297 0.359051 -3.12343 0
M  V30 1679 N 164.069 0.697108 -1.41344 0
M  V30 1680 C 164.999 1.82353 -1.45841 0
M  V30 1681 C 165.98 1.67115 -0.317247 0
M  V30 1682 O 167.165 1.86871 -0.528474 0
M  V30 1683 C 164.295 3.20476 -1.33838 0
M  V30 1684 C 163.249 3.50415 -2.4575 0
M  V30 1685 C 162.575 4.87878 -2.18813 0
M  V30 1686 C 163.875 3.49546 -3.88091 0
M  V30 1687 H 165.569 1.78846 -2.40113 0
M  V30 1688 H 163.115 0.859028 -1.15571 0
M  V30 1689 H 165.068 3.98988 -1.35596 0
M  V30 1690 H 163.792 3.24604 -0.360498 0
M  V30 1691 H 162.451 2.74253 -2.43271 0
M  V30 1692 H 162.099 4.8863 -1.19371 0
M  V30 1693 H 161.799 5.08875 -2.93803 0
M  V30 1694 H 163.323 5.68702 -2.22284 0
M  V30 1695 H 164.737 4.18066 -3.92293 0
M  V30 1696 H 163.134 3.82075 -4.62751 0
M  V30 1697 H 164.204 2.48552 -4.16353 0
M  V30 1698 N 165.547 1.27147 0.931209 0
M  V30 1699 C 166.477 1.12081 2.04842 0
M  V30 1700 C 167.458 0.0232364 1.70084 0
M  V30 1701 O 168.643 0.197085 1.93197 0
M  V30 1702 C 165.773 0.76354 3.38803 0
M  V30 1703 C 164.727 1.81396 3.87659 0
M  V30 1704 C 164.053 1.31075 5.18385 0
M  V30 1705 C 165.353 3.21739 4.11438 0
M  V30 1706 H 167.047 2.05537 2.17703 0
M  V30 1707 H 164.593 0.989603 1.04608 0
M  V30 1708 H 166.546 0.644982 4.16435 0
M  V30 1709 H 165.27 -0.206727 3.25945 0
M  V30 1710 H 163.929 1.92136 3.12217 0
M  V30 1711 H 163.577 0.330037 5.01916 0
M  V30 1712 H 163.277 2.013 5.52044 0
M  V30 1713 H 164.801 1.20506 5.98591 0
M  V30 1714 H 166.215 3.14019 4.79651 0
M  V30 1715 H 164.612 3.89644 4.56397 0
M  V30 1716 H 165.682 3.67054 3.16859 0
M  V30 1717 N 167.025 -1.13721 1.09112 0
M  V30 1718 C 168.302 -1.81155 0.737706 0
M  V30 1719 C 168.682 -1.96253 -0.777683 0
M  V30 1720 O 168.03 -1.52807 -1.69889 0
M  V30 1721 C 168.24 -3.16392 1.47299 0
M  V30 1722 C 169.588 -3.91787 1.63671 0
M  V30 1723 O 170.612 -3.26005 1.43524 0
M  V30 1724 O 169.471 -5.0977 1.96969 0
M  V30 1725 H 166.565 -0.783518 0.26463 0
M  V30 1726 H 169.111 -1.20676 1.19312 0
M  V30 1727 H 167.883 -3.0061 2.50498 0
M  V30 1728 H 167.506 -3.8457 1.00953 0
M  V30 1729 N 168.503 -0.877838 -1.30888 0
M  V30 1730 C 169.451 -0.328662 -2.30266 0
M  V30 1731 C 170.445 0.560496 -1.59859 0
M  V30 1732 O 171.651 0.445722 -1.74394 0
M  V30 1733 H 168.026 -0.0876142 -0.746879 0
M  V30 1734 H 169.997 -1.18061 -2.74051 0
M  V30 1735 C 168.746 0.448071 -3.44801 0
M  V30 1736 H 168.069 -0.226859 -3.99156 0
M  V30 1737 H 169.509 0.797541 -4.16432 0
M  V30 1738 C 167.968 1.64239 -2.94155 0
M  V30 1739 O 168.498 2.74175 -2.93583 0
M  V30 1740 N 166.704 1.47716 -2.50256 0
M  V30 1741 H 166.251 0.582821 -2.5092 0
M  V30 1742 H 166.209 2.27765 -2.16727 0
M  V30 1743 N 169.982 1.44106 -0.638065 0
M  V30 1744 C 171.259 1.95453 -0.0759321 0
M  V30 1745 C 171.639 1.57984 1.40015 0
M  V30 1746 O 170.987 0.857361 2.11806 0
M  V30 1747 C 171.197 3.47655 -0.306132 0
M  V30 1748 C 172.545 4.24114 -0.203008 0
M  V30 1749 O 173.569 3.55405 -0.237871 0
M  V30 1750 O 172.428 5.46381 -0.113827 0
M  V30 1751 H 169.522 0.826797 0.0183332 0
M  V30 1752 H 172.068 1.54122 -0.710251 0
M  V30 1753 H 170.84 3.68 -1.3301 0
M  V30 1754 H 170.463 3.95949 0.361991 0
M  V30 1755 N 171.46 0.379036 1.52974 0
M  V30 1756 C 172.871 -0.0972525 1.86447 0
M  V30 1757 C 173.222 -1.47027 1.29914 0
M  V30 1758 O 172.347 -2.07135 0.626433 0
M  V30 1759 C 172.942 -0.183248 3.38304 0
M  V30 1760 C 171.501 -0.603812 3.71525 0
M  V30 1761 C 170.648 0.240632 2.76254 0
M  V30 1762 H 173.599 0.597316 1.4703 0
M  V30 1763 H 173.62 -1.00432 3.67006 0
M  V30 1764 H 173.132 0.816191 3.79421 0
M  V30 1765 H 171.233 -1.61099 3.35973 0
M  V30 1766 H 171.346 -0.369086 4.77676 0
M  V30 1767 H 169.71 -0.292548 2.53014 0
M  V30 1768 H 170.493 1.23786 3.20206 0
M  V30 1769 N 172.938 -1.57226 0.108567 0
M  V30 1770 C 174.163 -1.99604 -0.563303 0
M  V30 1771 C 174.588 -0.987563 -1.6009 0
M  V30 1772 O 173.946 0.0421687 -1.81251 0
M  V30 1773 C 173.994 -3.40902 -1.17552 0
M  V30 1774 O 173.098 -3.42896 -2.2912 0
M  V30 1775 H 172.439 -0.648704 -0.1417 0
M  V30 1776 H 174.969 -2.03679 0.193961 0
M  V30 1777 H 174.979 -3.78886 -1.51357 0
M  V30 1778 H 173.654 -4.1382 -0.415445 0
M  V30 1779 H 172.231 -3.1672 -1.96832 0
M  V30 1780 N 174.416 0.165178 -1.56732 0
M  V30 1781 C 175.663 0.880807 -1.8234 0
M  V30 1782 C 175.991 1.81977 -0.686621 0
M  V30 1783 O 175.246 1.92971 0.325697 0
M  V30 1784 C 175.545 1.70405 -3.1416 0
M  V30 1785 C 175.211 0.913475 -4.4155 0
M  V30 1786 C 173.873 0.695303 -4.7615 0
M  V30 1787 C 176.225 0.359349 -5.1996 0
M  V30 1788 C 173.553 -0.0879947 -5.86634 0
M  V30 1789 C 175.905 -0.410893 -6.31264 0
M  V30 1790 C 174.569 -0.639808 -6.64427 0
M  V30 1791 H 173.839 0.32231 -0.667231 0
M  V30 1792 H 176.486 0.145402 -1.90947 0
M  V30 1793 H 174.791 2.50903 -3.00923 0
M  V30 1794 H 176.488 2.26091 -3.31186 0
M  V30 1795 H 173.078 1.09357 -4.14414 0
M  V30 1796 H 177.262 0.515228 -4.93618 0
M  V30 1797 H 172.518 -0.27503 -6.10781 0
M  V30 1798 H 176.692 -0.847494 -6.91224 0
M  V30 1799 H 174.319 -1.24864 -7.49875 0
M  V30 1800 N 175.894 1.51508 0.433938 0
M  V30 1801 C 177.141 1.64345 1.18309 0
M  V30 1802 C 177.469 0.361315 1.91115 0
M  V30 1803 O 176.724 -0.654753 1.84422 0
M  V30 1804 C 177.023 2.79928 2.22205 0
M  V30 1805 C 176.689 4.19078 1.66387 0
M  V30 1806 C 175.351 4.56932 1.50887 0
M  V30 1807 C 177.703 5.05894 1.25381 0
M  V30 1808 C 175.031 5.79305 0.928608 0
M  V30 1809 C 177.383 6.2885 0.687823 0
M  V30 1810 C 176.047 6.65473 0.519755 0
M  V30 1811 H 175.317 0.601381 0.432923 0
M  V30 1812 H 177.964 1.85549 0.473676 0
M  V30 1813 H 176.269 2.52959 2.99197 0
M  V30 1814 H 177.966 2.87059 2.79997 0
M  V30 1815 H 174.556 3.89234 1.79428 0
M  V30 1816 H 178.74 4.77253 1.36175 0
M  V30 1817 H 173.996 6.06324 0.786186 0
M  V30 1818 H 178.17 6.95461 0.361581 0
M  V30 1819 H 175.797 7.6017 0.0679979 0
M  V30 1820 N 177.372 -0.689602 1.41712 0
M  V30 1821 C 178.612 -1.46184 1.42862 0
M  V30 1822 C 178.976 -1.91962 0.0382204 0
M  V30 1823 O 180.177 -2.68694 -0.0755019 0
M  V30 1824 C 178.448 -2.6371 2.4123 0
M  V30 1825 S 180.007 -3.52768 2.6096 0
M  V30 1826 H 176.825 -0.49947 0.506015 0
M  V30 1827 H 179.427 -0.804107 1.78198 0
M  V30 1828 H 178.131 -2.28293 3.41044 0
M  V30 1829 H 177.662 -3.3437 2.07269 0
M  V30 1830 H 179.677 -4.59146 1.88148 0
M  V30 1831 N 178.85 -1.27639 -0.924453 0
M  V30 1832 C 180.266 -1.05113 -1.20097 0
M  V30 1833 C 180.466 0.213262 -2.00368 0
M  V30 1834 O 179.522 0.91787 -2.35226 0
M  V30 1835 C 180.835 -2.29244 -1.94596 0
M  V30 1836 C 182.383 -2.34315 -2.07522 0
M  V30 1837 C 182.858 -3.58183 -2.85427 0
M  V30 1838 N 184.349 -3.5876 -2.92994 0
M  V30 1839 C 185.084 -4.51277 -3.53746 0
M  V30 1840 N 184.58 -5.54102 -4.15863 0
M  V30 1841 N 186.373 -4.38894 -3.51181 0
M  V30 1842 H 178.524 -2.08821 -0.388264 0
M  V30 1843 H 180.787 -0.918568 -0.234385 0
M  V30 1844 H 180.493 -3.21301 -1.43034 0
M  V30 1845 H 180.367 -2.34816 -2.95197 0
M  V30 1846 H 182.754 -1.42762 -2.58269 0
M  V30 1847 H 182.835 -2.32744 -1.06131 0
M  V30 1848 H 182.479 -4.50074 -2.35363 0
M  V30 1849 H 182.409 -3.57006 -3.8711 0
M  V30 1850 H 184.9 -2.84398 -2.4885 0
M  V30 1851 H 185.213 -6.20859 -4.60168 0
M  V30 1852 H 183.558 -5.57941 -4.144 0
M  V30 1853 H 186.749 -3.57772 -3.01856 0
M  V30 1854 H 186.922 -5.11186 -3.98237 0
M  V30 1855 N 180.328 1.1314 -1.09713 0
M  V30 1856 C 181.575 1.84484 -0.834987 0
M  V30 1857 C 181.903 1.83689 0.639418 0
M  V30 1858 O 181.158 1.2724 1.4869 0
M  V30 1859 C 181.457 3.32167 -1.3191 0
M  V30 1860 C 181.123 3.53139 -2.80363 0
M  V30 1861 C 179.785 3.58571 -3.20905 0
M  V30 1862 C 182.137 3.60866 -3.76065 0
M  V30 1863 C 179.465 3.69267 -4.55916 0
M  V30 1864 C 181.817 3.73089 -5.10869 0
M  V30 1865 C 180.481 3.76775 -5.50996 0
M  V30 1866 H 179.751 0.675073 -0.305544 0
M  V30 1867 H 182.398 1.33554 -1.37243 0
M  V30 1868 H 180.703 3.85469 -0.701517 0
M  V30 1869 H 182.4 3.85821 -1.09284 0
M  V30 1870 H 178.99 3.49569 -2.47991 0
M  V30 1871 H 183.174 3.55946 -3.45855 0
M  V30 1872 H 178.43 3.70388 -4.86438 0
M  V30 1873 H 182.604 3.78011 -5.84877 0
M  V30 1874 H 180.231 3.84815 -6.55608 0
M  V30 1875 N 181.806 0.884767 1.30421 0
M  V30 1876 C 183.034 0.518044 2.0031 0
M  V30 1877 C 183.449 -0.893408 1.66324 0
M  V30 1878 O 182.806 -1.5875 0.900262 0
M  V30 1879 C 182.857 0.682997 3.54989 0
M  V30 1880 O 182.578 2.03888 3.87764 0
M  V30 1881 C 184.079 0.31924 4.42149 0
M  V30 1882 H 181.299 0.200265 0.640418 0
M  V30 1883 H 183.843 1.19001 1.6631 0
M  V30 1884 H 181.998 0.0584052 3.87356 0
M  V30 1885 H 182.412 2.05735 4.82466 0
M  V30 1886 H 183.886 0.485555 5.4986 0
M  V30 1887 H 184.363 -0.742717 4.32875 0
M  V30 1888 H 184.969 0.920147 4.15227 0
M  V30 1889 N 183.284 -1.43765 0.645699 0
M  V30 1890 C 184.53 -2.02197 0.156271 0
M  V30 1891 C 184.863 -1.50776 -1.22393 0
M  V30 1892 O 184.138 -0.697771 -1.81553 0
M  V30 1893 C 184.421 -3.59749 0.158872 0
M  V30 1894 C 184.274 -4.21419 1.57245 0
M  V30 1895 C 185.593 -4.37149 -0.50879 0
M  V30 1896 H 182.712 -0.734694 0.0582602 0
M  V30 1897 H 185.354 -1.71157 0.824951 0
M  V30 1898 H 183.504 -3.86325 -0.410525 0
M  V30 1899 H 185.176 -4.059 2.19186 0
M  V30 1900 H 183.419 -3.78356 2.122 0
M  V30 1901 H 184.09 -5.30482 1.52619 0
M  V30 1902 H 186.566 -4.16093 -0.024412 0
M  V30 1903 H 185.442 -5.4683 -0.476213 0
M  V30 1904 H 185.703 -4.12839 -1.58165 0
M  V30 1905 N 184.763 -0.387143 -1.52771 0
M  V30 1906 C 186.009 0.196025 -2.0185 0
M  V30 1907 C 186.342 1.46641 -1.27319 0
M  V30 1908 O 185.617 1.90889 -0.373032 0
M  V30 1909 C 185.9 0.466136 -3.5707 0
M  V30 1910 C 185.753 -0.819385 -4.42274 0
M  V30 1911 C 187.072 1.25768 -4.21747 0
M  V30 1912 H 184.191 0.0697708 -0.73369 0
M  V30 1913 H 186.833 -0.516286 -1.82851 0
M  V30 1914 H 184.983 1.07293 -3.7339 0
M  V30 1915 H 186.655 -1.4563 -4.37709 0
M  V30 1916 H 184.898 -1.43517 -4.09372 0
M  V30 1917 H 185.569 -0.585065 -5.48891 0
M  V30 1918 H 188.045 0.744167 -4.09391 0
M  V30 1919 H 186.921 1.41541 -5.30337 0
M  V30 1920 H 187.182 2.27228 -3.79236 0
M  V30 1921 N 186.241 1.57166 -0.116904 0
M  V30 1922 C 187.487 1.95412 0.542405 0
M  V30 1923 C 187.82 1.00019 1.66463 0
M  V30 1924 O 187.095 0.0370346 1.94465 0
M  V30 1925 C 187.378 3.43615 1.07708 0
M  V30 1926 C 187.231 4.49781 -0.0415868 0
M  V30 1927 C 188.55 3.93616 1.96861 0
M  V30 1928 H 185.669 0.710543 0.195696 0
M  V30 1929 H 188.311 1.89027 -0.192038 0
M  V30 1930 H 186.461 3.49187 1.70296 0
M  V30 1931 H 188.133 4.56308 -0.676793 0
M  V30 1932 H 186.376 4.28033 -0.705019 0
M  V30 1933 H 187.047 5.50733 0.373717 0
M  V30 1934 H 189.523 3.90335 1.44146 0
M  V30 1935 H 188.399 4.97838 2.3119 0
M  V30 1936 H 188.66 3.34188 2.89432 0
M  V30 1937 N 187.719 -0.156864 1.56817 0
M  V30 1938 C 188.682 -1.17781 1.96622 0
M  V30 1939 C 189.682 -1.36401 0.851555 0
M  V30 1940 O 190.872 -1.33561 1.11836 0
M  V30 1941 C 188.004 -2.54008 2.27361 0
M  V30 1942 H 189.197 -0.836564 2.87996 0
M  V30 1943 H 186.75 -0.39985 1.51099 0
M  V30 1944 H 187.485 -2.9312 1.38748 0
M  V30 1945 H 187.27 -2.41856 3.08623 0
M  V30 1946 H 188.76 -3.27558 2.59029 0
M  V30 1947 N 189.197 -1.51736 -0.425897 0
M  V30 1948 C 190.425 -1.68794 -1.1965 0
M  V30 1949 C 190.84 -0.390164 -1.84725 0
M  V30 1950 O 190.197 0.632376 -1.71194 0
M  V30 1951 C 190.248 -2.81174 -2.27208 0
M  V30 1952 O 189.969 -4.05925 -1.64793 0
M  V30 1953 C 191.47 -3.09599 -3.17275 0
M  V30 1954 H 188.69 -0.566128 -0.360194 0
M  V30 1955 H 191.234 -1.98211 -0.503249 0
M  V30 1956 H 189.389 -2.54324 -2.9223 0
M  V30 1957 H 189.803 -4.68423 -2.35967 0
M  V30 1958 H 191.277 -3.91786 -3.88854 0
M  V30 1959 H 191.754 -2.22468 -3.78688 0
M  V30 1960 H 192.36 -3.38151 -2.57941 0
M  V30 1961 N 190.675 0.682077 -1.42076 0
M  V30 1962 C 191.607 1.80755 -1.40926 0
M  V30 1963 C 192.62 1.59833 -0.309398 0
M  V30 1964 O 193.809 1.69087 -0.572014 0
M  V30 1965 C 190.909 3.17744 -1.17865 0
M  V30 1966 C 190.082 3.65578 -2.40149 0
M  V30 1967 C 189.141 4.81277 -2.12742 0
M  V30 1968 O 188.167 4.92197 -2.85887 0
M  V30 1969 N 189.369 5.69474 -1.12602 0
M  V30 1970 H 192.134 1.82229 -2.37935 0
M  V30 1971 H 189.695 0.864903 -1.36861 0
M  V30 1972 H 191.687 3.9279 -0.9746 0
M  V30 1973 H 190.257 3.11214 -0.294068 0
M  V30 1974 H 189.477 2.81291 -2.76169 0
M  V30 1975 H 190.765 3.94278 -3.21593 0
M  V30 1976 H 190.163 5.63297 -0.520899 0
M  V30 1977 H 188.72 6.44363 -0.981842 0
M  V30 1978 N 192.153 1.28127 0.917671 0
M  V30 1979 C 193.083 1.14248 2.03641 0
M  V30 1980 C 194.064 0.0412748 1.7005 0
M  V30 1981 O 195.249 0.217566 1.92977 0
M  V30 1982 C 192.379 0.799431 3.37974 0
M  V30 1983 C 191.333 1.85497 3.85713 0
M  V30 1984 C 190.659 1.36565 5.16966 0
M  V30 1985 C 191.959 3.26085 4.08002 0
M  V30 1986 H 193.653 2.07835 2.15511 0
M  V30 1987 H 191.199 1.00064 1.03553 0
M  V30 1988 H 193.152 0.689114 4.15727 0
M  V30 1989 H 191.876 -0.172145 3.26146 0
M  V30 1990 H 190.535 1.95437 3.10161 0
M  V30 1991 H 190.183 0.383253 5.01538 0
M  V30 1992 H 189.883 2.07143 5.49878 0
M  V30 1993 H 191.407 1.26848 5.97279 0
M  V30 1994 H 192.821 3.19089 4.76293 0
M  V30 1995 H 191.218 3.94462 4.52238 0
M  V30 1996 H 192.288 3.70394 3.12948 0
M  V30 1997 N 193.631 -1.12557 1.10312 0
M  V30 1998 C 195.042 -1.65574 0.862678 0
M  V30 1999 C 195.393 -1.86566 -0.607256 0
M  V30 2000 O 194.518 -1.59121 -1.46662 0
M  V30 2001 C 195.113 -3.00776 1.55947 0
M  V30 2002 C 193.672 -3.50748 1.36576 0
M  V30 2003 C 192.819 -2.25797 1.60968 0
M  V30 2004 H 195.77 -0.963552 1.26101 0
M  V30 2005 H 195.791 -3.67185 0.997753 0
M  V30 2006 H 195.303 -2.85465 2.62928 0
M  V30 2007 H 193.404 -3.71245 0.317531 0
M  V30 2008 H 193.517 -4.30289 2.10686 0
M  V30 2009 H 191.881 -2.32841 1.03234 0
M  V30 2010 H 192.664 -2.13043 2.69198 0
M  V30 2011 N 195.109 -0.891671 -1.2995 0
M  V30 2012 C 196.019 -0.367691 -2.31701 0
M  V30 2013 C 197.035 0.533486 -1.6562 0
M  V30 2014 O 198.211 0.424997 -1.96865 0
M  V30 2015 C 195.276 0.403406 -3.44345 0
M  V30 2016 C 194.337 -0.528328 -4.26037 0
M  V30 2017 C 193.57 0.206063 -5.33302 0
M  V30 2018 O 193.793 1.43119 -5.52153 0
M  V30 2019 O 192.727 -0.447281 -6.00236 0
M  V30 2020 H 196.553 -1.21163 -2.78484 0
M  V30 2021 H 194.138 -0.655725 -1.34241 0
M  V30 2022 H 196.02 0.839753 -4.12948 0
M  V30 2023 H 194.695 1.22354 -2.99685 0
M  V30 2024 H 193.602 -1.01362 -3.60106 0
M  V30 2025 H 194.935 -1.31465 -4.74318 0
M  V30 2026 N 196.587 1.43421 -0.653314 0
M  V30 2027 C 197.812 2.06678 -0.172846 0
M  V30 2028 C 198.237 1.48648 1.15262 0
M  V30 2029 O 197.595 0.596457 1.71208 0
M  V30 2030 C 197.643 3.60474 -0.0953184 0
M  V30 2031 O 196.747 4.01487 0.942442 0
M  V30 2032 H 196.088 0.657181 -0.0949155 0
M  V30 2033 H 198.618 1.83925 -0.896265 0
M  V30 2034 H 198.628 4.07905 0.0879728 0
M  V30 2035 H 197.303 4.02088 -1.06291 0
M  V30 2036 H 195.88 3.65646 0.731932 0
M  V30 2037 N 198.065 0.39524 1.52563 0
M  V30 2038 C 199.293 -0.184943 2.06072 0
M  V30 2039 C 199.708 -1.40021 1.26647 0
M  V30 2040 O 199.065 -1.79767 0.314672 0
M  V30 2041 C 199.116 -0.549179 3.57304 0
M  V30 2042 O 198.837 0.617813 4.33722 0
M  V30 2043 C 200.338 -1.18459 4.2718 0
M  V30 2044 H 197.558 -0.0265025 0.670476 0
M  V30 2045 H 200.102 0.562184 1.96621 0
M  V30 2046 H 198.257 -1.2462 3.66809 0
M  V30 2047 H 198.671 0.317091 5.23541 0
M  V30 2048 H 200.145 -1.38976 5.34219 0
M  V30 2049 H 200.622 -2.15368 3.82771 0
M  V30 2050 H 201.228 -0.528163 4.22008 0
M  V30 2051 N 199.544 -1.57102 0.125237 0
M  V30 2052 C 200.769 -2.0019 -0.542101 0
M  V30 2053 C 201.194 -1.00449 -1.59034 0
M  V30 2054 O 200.552 0.0229423 -1.81285 0
M  V30 2055 C 200.6 -3.42129 -1.13929 0
M  V30 2056 O 199.704 -3.45307 -2.2547 0
M  V30 2057 H 199.045 -0.650171 -0.134812 0
M  V30 2058 H 201.575 -2.03461 0.215553 0
M  V30 2059 H 201.585 -3.80471 -1.4733 0
M  V30 2060 H 200.26 -4.14237 -0.371531 0
M  V30 2061 H 198.837 -3.1879 -1.93462 0
M  V30 2062 N 201.022 0.148545 -1.56898 0
M  V30 2063 C 201.952 1.18524 -2.01182 0
M  V30 2064 C 202.933 1.4489 -0.891123 0
M  V30 2065 O 204.118 1.55836 -1.15882 0
M  V30 2066 C 201.248 2.51879 -2.39112 0
M  V30 2067 C 200.202 2.40038 -3.54353 0
M  V30 2068 C 199.528 3.78089 -3.78091 0
M  V30 2069 C 200.828 1.88577 -4.87069 0
M  V30 2070 H 202.522 0.817029 -2.88036 0
M  V30 2071 H 200.068 0.391575 -1.38574 0
M  V30 2072 H 202.021 3.24627 -2.68692 0
M  V30 2073 H 200.745 2.90532 -1.49193 0
M  V30 2074 H 199.404 1.69742 -3.24936 0
M  V30 2075 H 199.052 4.14175 -2.85426 0
M  V30 2076 H 198.752 3.71028 -4.55645 0
M  V30 2077 H 200.276 4.52387 -4.10095 0
M  V30 2078 H 201.69 2.51117 -5.15377 0
M  V30 2079 H 200.087 1.9241 -5.68417 0
M  V30 2080 H 201.157 0.84136 -4.77545 0
M  V30 2081 N 202.5 1.5196 0.417844 0
M  V30 2082 C 203.916 1.40569 0.755816 0
M  V30 2083 C 204.116 0.503316 1.95113 0
M  V30 2084 O 203.172 -0.0341925 2.52477 0
M  V30 2085 C 204.485 2.82947 1.01791 0
M  V30 2086 C 206.033 2.92231 1.12116 0
M  V30 2087 C 206.508 4.35559 1.41608 0
M  V30 2088 N 207.999 4.38753 1.48491 0
M  V30 2089 C 208.734 5.46705 1.7292 0
M  V30 2090 N 208.23 6.64788 1.95011 0
M  V30 2091 N 210.023 5.34209 1.74863 0
M  V30 2092 H 202.174 2.09168 -0.369098 0
M  V30 2093 H 204.437 0.942409 -0.102809 0
M  V30 2094 H 204.143 3.5106 0.212081 0
M  V30 2095 H 204.017 3.23462 1.94042 0
M  V30 2096 H 206.404 2.24304 1.9176 0
M  V30 2097 H 206.485 2.55185 0.177225 0
M  V30 2098 H 206.129 5.04042 0.624848 0
M  V30 2099 H 206.059 4.70133 2.37239 0
M  V30 2100 H 208.55 3.5363 1.33244 0
M  V30 2101 H 208.863 7.42845 2.13076 0
M  V30 2102 H 207.208 6.67869 1.92293 0
M  V30 2103 H 210.399 4.40937 1.57137 0
M  V30 2104 H 210.572 6.18415 1.93563 0
M  V30 2105 N 203.978 -0.674533 1.42435 0
M  V30 2106 C 204.908 -1.80009 1.48724 0
M  V30 2107 C 205.889 -1.6659 0.343793 0
M  V30 2108 O 207.074 -1.86007 0.558137 0
M  V30 2109 C 204.204 -3.18306 1.38919 0
M  V30 2110 C 203.158 -3.46461 2.51294 0
M  V30 2111 C 202.484 -4.84335 2.26547 0
M  V30 2112 C 203.784 -3.43328 3.93603 0
M  V30 2113 H 205.478 -1.75004 2.42928 0
M  V30 2114 H 203.024 -0.840533 1.16923 0
M  V30 2115 H 204.977 -3.9678 1.41927 0
M  V30 2116 H 203.701 -3.2399 0.412094 0
M  V30 2117 H 202.36 -2.70348 2.47604 0
M  V30 2118 H 202.008 -4.86669 1.2713 0
M  V30 2119 H 201.708 -5.04136 3.01861 0
M  V30 2120 H 203.232 -5.65094 2.31304 0
M  V30 2121 H 204.646 -4.11772 3.98894 0
M  V30 2122 H 203.043 -3.74664 4.68771 0
M  V30 2123 H 204.113 -2.41897 4.20255 0
M  V30 2124 N 205.456 -1.28612 -0.910864 0
M  V30 2125 C 206.419 -1.12803 -1.9952 0
M  V30 2126 C 207.419 -0.0668264 -1.60661 0
M  V30 2127 O 208.609 -0.312847 -1.71368 0
M  V30 2128 C 205.741 -0.72254 -3.33155 0
M  V30 2129 H 206.934 -2.09109 -2.14973 0
M  V30 2130 H 204.487 -1.11639 -1.09391 0
M  V30 2131 H 205.222 0.241152 -3.23402 0
M  V30 2132 H 205.007 -1.48916 -3.62721 0
M  V30 2133 H 206.497 -0.634666 -4.12749 0
M  V30 2134 N 206.934 1.1197 -1.10907 0
M  V30 2135 C 208.211 1.79959 -0.766432 0
M  V30 2136 C 208.591 1.97466 0.746363 0
M  V30 2137 O 207.939 1.55491 1.67436 0
M  V30 2138 C 208.149 3.14009 -1.52314 0
M  V30 2139 C 209.497 3.89134 -1.69883 0
M  V30 2140 O 210.521 3.2368 -1.48692 0
M  V30 2141 O 209.38 5.06572 -2.05054 0
M  V30 2142 H 206.474 0.779208 -0.277062 0
M  V30 2143 H 209.02 1.18762 -1.21217 0
M  V30 2144 H 207.792 2.96587 -2.55249 0
M  V30 2145 H 207.415 3.82915 -1.07059 0
M  V30 2146 N 208.412 0.89855 1.29475 0
M  V30 2147 C 209.658 0.524658 1.95896 0
M  V30 2148 C 209.991 -0.926468 1.70676 0
M  V30 2149 O 209.266 -1.65665 1.01908 0
M  V30 2150 C 209.549 0.81633 3.50725 0
M  V30 2151 C 209.402 2.31907 3.85408 0
M  V30 2152 C 210.721 0.302038 4.39062 0
M  V30 2153 H 207.84 0.19209 0.711527 0
M  V30 2154 H 210.482 1.12502 1.53112 0
M  V30 2155 H 208.632 0.305369 3.87298 0
M  V30 2156 H 210.304 2.89949 3.58786 0
M  V30 2157 H 208.547 2.78027 3.32992 0
M  V30 2158 H 209.218 2.47373 4.93468 0
M  V30 2159 H 211.694 0.739551 4.09475 0
M  V30 2160 H 210.57 0.535331 5.46283 0
M  V30 2161 H 210.831 -0.797216 4.34853 0
M  V30 2162 N 209.89 -1.43072 0.660911 0
M  V30 2163 C 210.82 -2.33497 -0.0122829 0
M  V30 2164 C 211.801 -1.49903 -0.803925 0
M  V30 2165 O 212.986 -1.78546 -0.763864 0
M  V30 2166 C 210.116 -3.33363 -0.973994 0
M  V30 2167 C 209.07 -4.27003 -0.291928 0
M  V30 2168 C 208.396 -5.16967 -1.36562 0
M  V30 2169 C 209.696 -5.15816 0.820462 0
M  V30 2170 H 211.39 -2.90038 0.742873 0
M  V30 2171 H 208.936 -1.39461 0.358688 0
M  V30 2172 H 210.889 -3.95524 -1.45392 0
M  V30 2173 H 209.613 -2.75095 -1.7604 0
M  V30 2174 H 208.272 -3.66217 0.167623 0
M  V30 2175 H 207.92 -4.55034 -2.14366 0
M  V30 2176 H 207.62 -5.80441 -0.914454 0
M  V30 2177 H 209.144 -5.82003 -1.84675 0
M  V30 2178 H 210.558 -5.71742 0.422366 0
M  V30 2179 H 208.955 -5.8805 1.19656 0
M  V30 2180 H 210.025 -4.55045 1.67518 0
M  V30 2181 N 211.368 -0.403325 -1.52352 0
M  V30 2182 C 212.614 0.167015 -2.02713 0
M  V30 2183 C 212.969 1.43296 -1.28391 0
M  V30 2184 O 212.262 1.87796 -0.379885 0
M  V30 2185 C 212.456 0.474665 -3.54234 0
M  V30 2186 C 212.285 -0.759909 -4.43233 0
M  V30 2187 C 211.055 -1.28338 -4.88731 0
M  V30 2188 C 213.253 -1.63634 -4.87574 0
M  V30 2189 N 211.235 -2.47404 -5.6184 0
M  V30 2190 C 212.606 -2.67329 -5.59406 0
M  V30 2191 C 214.661 -1.65478 -4.69597 0
M  V30 2192 C 213.364 -3.72773 -6.15169 0
M  V30 2193 C 215.39 -2.69837 -5.26253 0
M  V30 2194 C 214.752 -3.72253 -5.98002 0
M  V30 2195 H 210.851 0.0228343 -0.781667 0
M  V30 2196 H 213.435 -0.556368 -1.86581 0
M  V30 2197 H 211.606 1.16709 -3.7045 0
M  V30 2198 H 213.338 1.03338 -3.91284 0
M  V30 2199 H 210.093 -0.842273 -4.6605 0
M  V30 2200 H 210.517 -3.07688 -6.0304 0
M  V30 2201 H 215.159 -0.876389 -4.13617 0
M  V30 2202 H 212.877 -4.51471 -6.70223 0
M  V30 2203 H 216.463 -2.72164 -5.14216 0
M  V30 2204 H 215.343 -4.51679 -6.41058 0
M  V30 2205 N 212.846 1.57033 -0.133567 0
M  V30 2206 C 213.794 2.17348 0.828412 0
M  V30 2207 C 214.788 1.12671 1.26498 0
M  V30 2208 O 215.994 1.30947 1.23502 0
M  V30 2209 H 212.369 0.695775 0.285309 0
M  V30 2210 H 214.34 2.96935 0.295372 0
M  V30 2211 C 213.089 2.79893 2.06289 0
M  V30 2212 H 212.412 3.60147 1.73592 0
M  V30 2213 H 213.852 3.25615 2.71572 0
M  V30 2214 C 212.311 1.77713 2.86216 0
M  V30 2215 O 212.841 1.23937 3.82103 0
M  V30 2216 N 211.047 1.47321 2.50489 0
M  V30 2217 H 210.594 1.91243 1.7258 0
M  V30 2218 H 210.552 0.79199 3.04261 0
M  V30 2219 N 214.325 -0.140222 1.56975 0
M  V30 2220 C 215.55 -0.870414 1.88251 0
M  V30 2221 C 215.975 -1.73637 0.723312 0
M  V30 2222 O 215.333 -1.78329 -0.32689 0
M  V30 2223 C 215.381 -1.69737 3.18154 0
M  V30 2224 O 214.485 -2.80229 3.02565 0
M  V30 2225 H 213.826 -0.242025 0.61832 0
M  V30 2226 H 216.356 -0.128999 2.04193 0
M  V30 2227 H 216.366 -2.09099 3.50345 0
M  V30 2228 H 215.041 -1.06152 4.02125 0
M  V30 2229 H 213.618 -2.44224 2.81796 0
M  V30 2230 N 215.803 -1.52179 -0.40978 0
M  V30 2231 C 216.735 -1.71703 -1.51825 0
M  V30 2232 C 217.748 -0.597445 -1.51441 0
M  V30 2233 O 218.937 -0.872582 -1.55719 0
M  V30 2234 C 216.037 -1.74171 -2.90719 0
M  V30 2235 C 215.21 -3.03156 -3.15302 0
M  V30 2236 C 214.269 -2.97445 -4.34065 0
M  V30 2237 O 213.295 -3.71352 -4.31377 0
M  V30 2238 N 214.497 -2.15191 -5.39141 0
M  V30 2239 H 217.262 -2.67334 -1.35472 0
M  V30 2240 H 214.823 -1.50409 -0.599069 0
M  V30 2241 H 216.815 -1.67884 -3.68235 0
M  V30 2242 H 215.385 -0.860166 -3.00533 0
M  V30 2243 H 214.605 -3.23097 -2.25836 0
M  V30 2244 H 215.893 -3.88484 -3.28569 0
M  V30 2245 H 215.291 -1.54573 -5.44173 0
M  V30 2246 H 213.848 -2.1476 -6.15403 0
M  V30 2247 N 217.281 0.66697 -1.42791 0
M  V30 2248 C 218.53 1.42278 -1.42968 0
M  V30 2249 C 218.843 1.9553 -0.0524489 0
M  V30 2250 O 220.049 2.71414 0.068363 0
M  V30 2251 C 218.505 2.57418 -2.51524 0
M  V30 2252 C 218.113 2.10832 -3.9529 0
M  V30 2253 C 219.857 3.34878 -2.60877 0
M  V30 2254 C 217.764 3.23101 -4.95338 0
M  V30 2255 H 216.694 0.534533 -0.531781 0
M  V30 2256 H 219.345 0.721302 -1.68729 0
M  V30 2257 H 217.727 3.29971 -2.18941 0
M  V30 2258 H 218.901 1.4538 -4.37266 0
M  V30 2259 H 217.216 1.46289 -3.89857 0
M  V30 2260 H 219.813 4.18505 -3.32802 0
M  V30 2261 H 220.156 3.81993 -1.6549 0
M  V30 2262 H 220.689 2.69398 -2.92693 0
M  V30 2263 H 217.428 2.80969 -5.9223 0
M  V30 2264 H 216.948 3.87309 -4.57987 0
M  V30 2265 H 218.627 3.88447 -5.17415 0
M  V30 2266 N 218.759 1.29093 0.90403 0
M  V30 2267 C 220.17 1.15186 1.46932 0
M  V30 2268 C 220.521 -0.254587 1.94541 0
M  V30 2269 O 219.646 -1.14972 1.83332 0
M  V30 2270 C 220.241 2.08492 2.67051 0
M  V30 2271 C 218.8 1.98621 3.19729 0
M  V30 2272 C 217.947 1.9967 1.92425 0
M  V30 2273 H 220.898 1.41641 0.715789 0
M  V30 2274 H 220.919 1.65461 3.42641 0
M  V30 2275 H 220.431 3.10847 2.3237 0
M  V30 2276 H 218.532 0.993389 3.59114 0
M  V30 2277 H 218.645 2.86068 3.8432 0
M  V30 2278 H 217.009 1.44208 2.09943 0
M  V30 2279 H 217.792 3.03721 1.60026 0
M  V30 2280 N 220.237 -1.11381 1.11499 0
M  V30 2281 C 221.167 -2.19509 0.796125 0
M  V30 2282 C 222.148 -1.68458 -0.235796 0
M  V30 2283 O 223.333 -1.93947 -0.0991344 0
M  V30 2284 C 220.463 -3.46475 0.239205 0
M  V30 2285 C 219.417 -4.10744 1.20307 0
M  V30 2286 C 218.743 -5.32293 0.50683 0
M  V30 2287 C 220.043 -4.55597 2.55399 0
M  V30 2288 H 221.737 -2.46439 1.70024 0
M  V30 2289 H 219.283 -1.18446 0.818935 0
M  V30 2290 H 221.236 -4.214 0.00392006 0
M  V30 2291 H 219.96 -3.19006 -0.700206 0
M  V30 2292 H 218.619 -3.37813 1.42399 0
M  V30 2293 H 218.267 -5.01095 -0.437408 0
M  V30 2294 H 217.967 -5.76243 1.1497 0
M  V30 2295 H 219.491 -6.09956 0.280351 0
M  V30 2296 H 220.905 -5.21841 2.37391 0
M  V30 2297 H 219.302 -5.10363 3.15673 0
M  V30 2298 H 220.372 -3.69013 3.14575 0
M  V30 2299 N 221.715 -0.905404 -1.28997 0
M  V30 2300 C 222.645 -0.404212 -2.29975 0
M  V30 2301 C 223.626 0.523784 -1.61835 0
M  V30 2302 O 224.811 0.433298 -1.89304 0
M  V30 2303 C 221.941 0.364042 -3.45387 0
M  V30 2304 C 220.895 -0.474048 -4.25367 0
M  V30 2305 C 220.221 0.422045 -5.33032 0
M  V30 2306 C 221.521 -1.72696 -4.92923 0
M  V30 2307 H 223.215 -1.24807 -2.72146 0
M  V30 2308 H 220.761 -0.601585 -1.30832 0
M  V30 2309 H 222.714 0.725447 -4.15109 0
M  V30 2310 H 221.438 1.24174 -3.02074 0
M  V30 2311 H 220.097 -0.81786 -3.57361 0
M  V30 2312 H 219.745 1.29804 -4.85963 0
M  V30 2313 H 219.445 -0.135057 -5.87445 0
M  V30 2314 H 220.969 0.779517 -6.05604 0
M  V30 2315 H 222.383 -1.43495 -5.55051 0
M  V30 2316 H 220.78 -2.22582 -5.57295 0
M  V30 2317 H 221.85 -2.45964 -4.17887 0
M  V30 2318 N 223.193 1.4272 -0.668489 0
M  V30 2319 C 224.442 2.00846 -0.185389 0
M  V30 2320 C 224.755 1.53442 1.21305 0
M  V30 2321 O 225.961 2.03944 1.79218 0
M  V30 2322 C 224.417 3.58805 -0.280591 0
M  V30 2323 C 224.025 4.15198 -1.68268 0
M  V30 2324 C 225.769 4.24255 0.14412 0
M  V30 2325 C 223.676 5.655 -1.73099 0
M  V30 2326 H 222.606 0.751145 -0.0655475 0
M  V30 2327 H 225.257 1.63516 -0.832752 0
M  V30 2328 H 223.639 3.93608 0.434553 0
M  V30 2329 H 224.813 3.91866 -2.42441 0
M  V30 2330 H 223.128 3.62176 -2.05469 0
M  V30 2331 H 225.725 5.34547 0.128086 0
M  V30 2332 H 226.068 3.99277 1.17827 0
M  V30 2333 H 226.601 3.94389 -0.519798 0
M  V30 2334 H 223.34 5.95268 -2.74475 0
M  V30 2335 H 222.86 5.90842 -1.03274 0
M  V30 2336 H 224.539 6.29808 -1.48158 0
M  V30 2337 N 224.671 0.411399 1.52136 0
M  V30 2338 C 225.911 -0.163143 2.03748 0
M  V30 2339 C 226.275 -1.42187 1.29022 0
M  V30 2340 O 227.476 -2.075 1.70872 0
M  V30 2341 C 225.747 -0.402651 3.55125 0
M  V30 2342 S 227.306 -0.944315 4.28519 0
M  V30 2343 H 224.124 -0.0439833 0.709638 0
M  V30 2344 H 226.726 0.56484 1.87163 0
M  V30 2345 H 225.43 0.520212 4.0709 0
M  V30 2346 H 224.961 -1.15844 3.75957 0
M  V30 2347 H 226.976 -2.22463 4.43536 0
M  V30 2348 N 226.149 -1.5696 0.141893 0
M  V30 2349 C 227.565 -1.58151 -0.21456 0
M  V30 2350 C 227.765 -1.1559 -1.65049 0
M  V30 2351 O 226.821 -0.853832 -2.37626 0
M  V30 2352 C 228.134 -3.00674 0.0395576 0
M  V30 2353 C 229.682 -3.1299 -0.0245529 0
M  V30 2354 C 230.157 -4.57554 0.202167 0
M  V30 2355 N 231.648 -4.62961 0.148919 0
M  V30 2356 C 232.383 -5.7262 0.298924 0
M  V30 2357 N 231.879 -6.90947 0.50637 0
M  V30 2358 N 233.672 -5.61601 0.236886 0
M  V30 2359 H 225.823 -1.8292 1.07953 0
M  V30 2360 H 228.086 -0.846425 0.42693 0
M  V30 2361 H 227.792 -3.36183 1.03315 0
M  V30 2362 H 227.666 -3.70981 -0.682143 0
M  V30 2363 H 230.053 -2.77326 -1.00869 0
M  V30 2364 H 230.134 -2.4518 0.729396 0
M  V30 2365 H 229.778 -4.93922 1.18338 0
M  V30 2366 H 229.708 -5.23484 -0.572044 0
M  V30 2367 H 232.199 -3.77899 -0.00697015 0
M  V30 2368 H 232.512 -7.7038 0.611076 0
M  V30 2369 H 230.857 -6.92878 0.542628 0
M  V30 2370 H 234.048 -4.68039 0.0756209 0
M  V30 2371 H 234.221 -6.47015 0.357227 0
M  V30 2372 N 227.627 0.131896 -1.57047 0
M  V30 2373 C 228.855 0.856461 -1.88341 0
M  V30 2374 C 229.27 1.74042 -0.731757 0
M  V30 2375 O 228.627 1.80051 0.297945 0
M  V30 2376 C 228.678 1.70064 -3.18999 0
M  V30 2377 O 228.399 0.852278 -4.2973 0
M  V30 2378 C 229.9 2.53148 -3.63911 0
M  V30 2379 H 227.12 0.246885 -0.62393 0
M  V30 2380 H 229.664 0.120152 -2.04147 0
M  V30 2381 H 227.819 2.38984 -3.04902 0
M  V30 2382 H 228.233 1.43329 -5.04537 0
M  V30 2383 H 229.707 3.07931 -4.58129 0
M  V30 2384 H 230.184 3.29901 -2.89935 0
M  V30 2385 H 230.79 1.89492 -3.80753 0
M  V30 2386 N 229.106 1.52395 0.401703 0
M  V30 2387 C 230.336 1.70429 1.1678 0
M  V30 2388 C 230.744 0.416702 1.84554 0
M  V30 2389 O 230.087 -0.617697 1.73003 0
M  V30 2390 C 230.149 2.78919 2.26814 0
M  V30 2391 C 229.813 4.20437 1.79113 0
M  V30 2392 C 230.81 5.04028 1.27482 0
M  V30 2393 C 228.495 4.66704 1.85722 0
M  V30 2394 C 230.489 6.31961 0.830913 0
M  V30 2395 C 228.176 5.94625 1.40942 0
M  V30 2396 C 229.174 6.77082 0.897128 0
M  V30 2397 O 228.862 8.02607 0.455822 0
M  V30 2398 H 228.594 0.574272 0.356634 0
M  V30 2399 H 231.148 1.99767 0.477724 0
M  V30 2400 H 229.378 2.44973 2.99207 0
M  V30 2401 H 231.067 2.8548 2.88541 0
M  V30 2402 H 231.833 4.69471 1.21744 0
M  V30 2403 H 227.712 4.0262 2.24539 0
M  V30 2404 H 231.256 6.96271 0.430368 0
M  V30 2405 H 227.153 6.28688 1.46362 0
M  V30 2406 H 227.921 8.16453 0.578457 0
M  V30 2407 N 230.584 -0.659388 1.43143 0
M  V30 2408 C 231.832 -1.41654 1.44147 0
M  V30 2409 C 232.153 -1.94893 0.0645739 0
M  V30 2410 O 231.423 -1.74044 -0.899198 0
M  V30 2411 H 230.003 -0.525708 0.530697 0
M  V30 2412 H 232.665 -0.778097 1.78694 0
M  V30 2413 H 231.761 -2.26195 2.1504 0
M  V30 2414 N 232.062 -1.29571 -0.897171 0
M  V30 2415 C 232.992 -1.17473 -2.01798 0
M  V30 2416 C 233.973 -0.068323 -1.69963 0
M  V30 2417 O 235.158 -0.248239 -1.92607 0
M  V30 2418 C 232.288 -0.853099 -3.36659 0
M  V30 2419 C 231.242 -1.9161 -3.82713 0
M  V30 2420 C 230.568 -1.44773 -5.14728 0
M  V30 2421 C 231.868 -3.32535 -4.02763 0
M  V30 2422 H 233.562 -2.11237 -2.12177 0
M  V30 2423 H 231.108 -1.01699 -1.01948 0
M  V30 2424 H 233.061 -0.755165 -4.14578 0
M  V30 2425 H 231.785 0.120236 -3.26379 0
M  V30 2426 H 230.444 -2.00346 -3.07013 0
M  V30 2427 H 230.092 -0.462995 -5.00865 0
M  V30 2428 H 229.792 -2.15865 -5.46513 0
M  V30 2429 H 231.316 -1.36334 -5.95185 0
M  V30 2430 H 232.73 -3.26626 -4.71156 0
M  V30 2431 H 231.127 -4.01607 -4.45905 0
M  V30 2432 H 232.197 -3.75326 -3.07016 0
M  V30 2433 N 233.54 1.10788 -1.12088 0
M  V30 2434 C 234.786 1.82942 -0.875226 0
M  V30 2435 C 235.119 1.84779 0.597538 0
M  V30 2436 O 234.394 1.30578 1.44152 0
M  V30 2437 C 234.677 3.29789 -1.44606 0
M  V30 2438 C 234.53 3.36307 -2.98693 0
M  V30 2439 C 235.849 4.26064 -1.10261 0
M  V30 2440 H 232.968 0.664195 -0.319397 0
M  V30 2441 H 235.61 1.29867 -1.38689 0
M  V30 2442 H 233.76 3.75118 -1.01089 0
M  V30 2443 H 235.432 2.99487 -3.50864 0
M  V30 2444 H 233.675 2.76318 -3.34411 0
M  V30 2445 H 234.346 4.39694 -3.33726 0
M  V30 2446 H 236.822 3.88951 -1.4784 0
M  V30 2447 H 235.698 5.27183 -1.52869 0
M  V30 2448 H 235.959 4.42098 -0.0142953 0
M  V30 2449 N 235.018 0.912232 1.28515 0
M  V30 2450 C 236.266 0.543523 1.94654 0
M  V30 2451 C 236.587 -0.9155 1.72173 0
M  V30 2452 O 235.857 -1.64708 1.06058 0
M  V30 2453 H 234.437 0.198017 0.720277 0
M  V30 2454 H 237.099 1.16126 1.56527 0
M  V30 2455 H 236.195 0.736684 3.03281 0
M  V30 2456 N 236.496 -1.42363 0.676048 0
M  V30 2457 C 237.726 -2.05561 0.206967 0
M  V30 2458 C 238.134 -1.50887 -1.14148 0
M  V30 2459 O 237.477 -0.643933 -1.72044 0
M  V30 2460 C 237.539 -3.5944 0.0659508 0
M  V30 2461 C 237.203 -4.36812 1.34331 0
M  V30 2462 C 238.2 -4.67383 2.27704 0
M  V30 2463 C 235.885 -4.76429 1.59125 0
M  V30 2464 C 237.879 -5.36509 3.44147 0
M  V30 2465 C 235.566 -5.45294 2.75857 0
M  V30 2466 C 236.564 -5.75259 3.68193 0
M  V30 2467 O 236.252 -6.42712 4.82883 0
M  V30 2468 H 235.984 -0.668872 0.0979084 0
M  V30 2469 H 238.538 -1.83467 0.923531 0
M  V30 2470 H 236.768 -3.80197 -0.706204 0
M  V30 2471 H 238.457 -4.0427 -0.363418 0
M  V30 2472 H 239.223 -4.37275 2.09799 0
M  V30 2473 H 235.102 -4.52498 0.881258 0
M  V30 2474 H 238.646 -5.59814 4.16238 0
M  V30 2475 H 234.543 -5.7482 2.93688 0
M  V30 2476 H 235.311 -6.61204 4.82444 0
M  V30 2477 N 237.974 -0.419461 -1.51915 0
M  V30 2478 C 238.907 0.445751 -2.23804 0
M  V30 2479 C 239.885 1.03951 -1.25031 0
M  V30 2480 O 241.069 1.08541 -1.54114 0
M  V30 2481 C 238.196 1.61964 -2.97465 0
M  V30 2482 C 237.242 1.14828 -4.10751 0
M  V30 2483 S 238.075 0.104938 -5.35397 0
M  V30 2484 C 239.231 1.28391 -6.1259 0
M  V30 2485 H 239.464 -0.164627 -2.96844 0
M  V30 2486 H 236.997 -0.203833 -1.53049 0
M  V30 2487 H 238.955 2.29271 -3.40507 0
M  V30 2488 H 237.616 2.20139 -2.24048 0
M  V30 2489 H 236.809 2.02561 -4.61503 0
M  V30 2490 H 236.411 0.553712 -3.69878 0
M  V30 2491 H 238.703 2.20563 -6.40592 0
M  V30 2492 H 239.646 0.816724 -7.03374 0
M  V30 2493 H 240.054 1.51439 -5.43807 0
M  V30 2494 N 239.452 1.56882 -0.150215 0
M  V30 2495 C 240.868 1.58263 0.20617 0
M  V30 2496 C 241.068 1.16464 1.64434 0
M  V30 2497 O 240.124 0.866422 2.3717 0
M  V30 2498 C 241.437 3.00649 -0.0555025 0
M  V30 2499 C 242.985 3.12999 0.00795388 0
M  V30 2500 C 243.46 4.5744 -0.226429 0
M  V30 2501 N 244.951 4.62875 -0.173469 0
M  V30 2502 C 245.686 5.72454 -0.329288 0
M  V30 2503 N 245.182 6.90669 -0.543005 0
M  V30 2504 N 246.975 5.61467 -0.266666 0
M  V30 2505 H 239.126 1.82345 -1.08922 0
M  V30 2506 H 241.389 0.844149 -0.431413 0
M  V30 2507 H 241.095 3.3563 -1.05096 0
M  V30 2508 H 240.969 3.71337 0.66246 0
M  V30 2509 H 243.356 2.77857 0.993966 0
M  V30 2510 H 243.437 2.4479 -0.742388 0
M  V30 2511 H 243.081 4.93287 -1.20956 0
M  V30 2512 H 243.011 5.2378 0.544274 0
M  V30 2513 H 245.502 3.77898 -0.0130709 0
M  V30 2514 H 245.815 7.70045 -0.651922 0
M  V30 2515 H 244.16 6.92581 -0.579366 0
M  V30 2516 H 247.351 4.67992 -0.100441 0
M  V30 2517 H 247.524 6.46816 -0.391535 0
M  V30 2518 N 240.93 -0.123565 1.57115 0
M  V30 2519 C 242.179 -0.830704 1.83799 0
M  V30 2520 C 242.492 -1.81259 0.735158 0
M  V30 2521 O 243.698 -2.56558 0.888278 0
M  V30 2522 C 242.154 -1.52802 3.25852 0
M  V30 2523 C 241.762 -0.587356 4.44133 0
M  V30 2524 C 243.506 -2.22056 3.61789 0
M  V30 2525 C 241.413 -1.28764 5.77212 0
M  V30 2526 H 240.343 -0.313967 0.685522 0
M  V30 2527 H 242.994 -0.0834359 1.8331 0
M  V30 2528 H 241.376 -2.32175 3.20797 0
M  V30 2529 H 242.55 0.172829 4.60476 0
M  V30 2530 H 240.865 -0.00201892 4.164 0
M  V30 2531 H 243.462 -2.75131 4.58483 0
M  V30 2532 H 243.805 -2.99644 2.88997 0
M  V30 2533 H 244.338 -1.49576 3.68608 0
M  V30 2534 H 241.077 -0.55314 6.53162 0
M  V30 2535 H 240.597 -2.01995 5.64764 0
M  V30 2536 H 242.276 -1.8221 6.20813 0
M  V30 2537 N 242.408 -1.52605 -0.393616 0
M  V30 2538 C 243.657 -1.66649 -1.13627 0
M  V30 2539 C 243.97 -0.410364 -1.91247 0
M  V30 2540 O 245.176 -0.430854 -2.68059 0
M  V30 2541 C 243.632 -2.9449 -2.06891 0
M  V30 2542 C 243.24 -4.27266 -1.34714 0
M  V30 2543 C 244.984 -3.17899 -2.81319 0
M  V30 2544 C 242.891 -5.46217 -2.26717 0
M  V30 2545 H 241.821 -0.62084 -0.427871 0
M  V30 2546 H 244.472 -1.791 -0.399428 0
M  V30 2547 H 242.854 -2.75774 -2.84191 0
M  V30 2548 H 244.028 -4.56518 -0.626714 0
M  V30 2549 H 242.343 -4.10081 -0.722643 0
M  V30 2550 H 244.94 -4.03949 -3.50328 0
M  V30 2551 H 245.283 -2.32777 -3.45139 0
M  V30 2552 H 245.816 -3.37159 -2.11113 0
M  V30 2553 H 242.555 -6.33733 -1.67521 0
M  V30 2554 H 242.075 -5.21283 -2.96689 0
M  V30 2555 H 243.754 -5.7991 -2.86903 0
M  V30 2556 N 243.887 0.651787 -1.4349 0
M  V30 2557 C 245.136 1.40754 -1.44469 0
M  V30 2558 C 245.449 1.95463 -0.0731845 0
M  V30 2559 O 246.655 2.71471 0.0395721 0
M  V30 2560 C 245.111 2.54735 -2.5424 0
M  V30 2561 C 244.719 2.06628 -3.97504 0
M  V30 2562 C 246.463 3.32092 -2.64414 0
M  V30 2563 C 244.37 3.17829 -4.98737 0
M  V30 2564 H 243.3 0.528862 -0.53742 0
M  V30 2565 H 245.951 0.703365 -1.69485 0
M  V30 2566 H 244.333 3.2763 -2.22428 0
M  V30 2567 H 245.507 1.40734 -4.38783 0
M  V30 2568 H 243.822 1.42146 -3.91387 0
M  V30 2569 H 246.419 4.14952 -3.37223 0
M  V30 2570 H 246.762 3.80217 -1.69532 0
M  V30 2571 H 247.295 2.66279 -2.95534 0
M  V30 2572 H 244.034 2.74671 -5.95177 0
M  V30 2573 H 243.554 3.82429 -4.62069 0
M  V30 2574 H 245.233 3.82937 -5.21505 0
M  V30 2575 N 245.365 1.30045 0.890287 0
M  V30 2576 C 246.312 1.15976 1.99545 0
M  V30 2577 C 247.282 0.0506202 1.66023 0
M  V30 2578 O 248.467 0.219847 1.89529 0
M  V30 2579 C 245.607 0.852054 3.34416 0
M  V30 2580 C 244.72 2.04255 3.80662 0
M  V30 2581 C 243.855 1.6734 5.04154 0
M  V30 2582 C 242.894 2.82916 5.42794 0
M  V30 2583 N 242.031 2.46333 6.57468 0
M  V30 2584 H 246.871 2.10524 2.10911 0
M  V30 2585 H 244.408 1.04749 1.03276 0
M  V30 2586 H 246.366 0.654296 4.12037 0
M  V30 2587 H 244.996 -0.0565502 3.2275 0
M  V30 2588 H 244.048 2.35172 2.98995 0
M  V30 2589 H 245.36 2.90826 4.05242 0
M  V30 2590 H 244.514 1.43908 5.89386 0
M  V30 2591 H 243.253 0.779308 4.81433 0
M  V30 2592 H 242.258 3.0702 4.56091 0
M  V30 2593 H 243.483 3.73004 5.6749 0
M  V30 2594 H 241.429 1.59423 6.36334 0
M  V30 2595 H 241.346 3.26436 6.81891 0
M  V30 2596 H 242.614 2.26244 7.45945 0
M  V30 2597 N 246.843 -1.10192 1.12674 0
M  V30 2598 C 247.753 -2.20172 0.810026 0
M  V30 2599 C 248.769 -1.72821 -0.202188 0
M  V30 2600 O 249.945 -2.01369 -0.0351691 0
M  V30 2601 C 247.01 -3.45631 0.272007 0
M  V30 2602 C 246.071 -4.07704 1.34447 0
M  V30 2603 C 245.304 -5.27175 0.832029 0
M  V30 2604 O 245.527 -5.69425 -0.333284 0
M  V30 2605 O 244.461 -5.80168 1.60277 0
M  V30 2606 H 248.287 -2.49701 1.72867 0
M  V30 2607 H 245.872 -1.18977 0.903597 0
M  V30 2608 H 247.754 -4.21394 -0.0230219 0
M  V30 2609 H 246.429 -3.17723 -0.619164 0
M  V30 2610 H 245.336 -3.33614 1.6927 0
M  V30 2611 H 246.669 -4.3982 2.2095 0
M  V30 2612 N 248.321 -0.919034 -1.28029 0
M  V30 2613 C 249.271 -0.382574 -2.24767 0
M  V30 2614 C 250.255 0.508286 -1.52661 0
M  V30 2615 O 251.447 0.347145 -1.73562 0
M  V30 2616 C 248.576 0.371432 -3.41285 0
M  V30 2617 C 247.662 -0.535449 -4.20706 0
M  V30 2618 N 248.053 -1.65141 -4.78082 0
M  V30 2619 C 246.351 -0.336824 -4.44726 0
M  V30 2620 C 247.052 -2.21475 -5.37888 0
M  V30 2621 N 246.028 -1.50537 -5.22341 0
M  V30 2622 H 249.83 -1.23477 -2.66703 0
M  V30 2623 H 247.344 -0.772299 -1.42861 0
M  V30 2624 H 249.341 0.772638 -4.09678 0
M  V30 2625 H 248.001 1.22066 -3.00882 0
M  V30 2626 H 249.012 -2.03392 -4.7629 0
M  V30 2627 H 245.689 0.47246 -4.14818 0
M  V30 2628 H 247.079 -3.15379 -5.93284 0
M  V30 2629 N 249.799 1.42003 -0.683588 0
M  V30 2630 C 251.21 1.84501 -0.285736 0
M  V30 2631 C 251.561 1.57213 1.17382 0
M  V30 2632 O 250.686 1.03642 1.89966 0
M  V30 2633 C 251.281 3.34912 -0.511821 0
M  V30 2634 C 249.84 3.76025 -0.168005 0
M  V30 2635 C 248.987 2.6551 -0.799983 0
M  V30 2636 H 251.938 1.31724 -0.885119 0
M  V30 2637 H 251.959 3.79784 0.233292 0
M  V30 2638 H 251.471 3.54741 -1.57418 0
M  V30 2639 H 249.572 3.61801 0.890567 0
M  V30 2640 H 249.685 4.75141 -0.614661 0
M  V30 2641 H 248.049 2.53654 -0.230568 0
M  V30 2642 H 248.832 2.8816 -1.86597 0
M  V30 2643 N 251.277 0.427512 1.51691 0
M  V30 2644 C 252.523 -0.142439 2.02299 0
M  V30 2645 C 252.856 -1.43214 1.31162 0
M  V30 2646 O 252.131 -1.89833 0.423511 0
M  V30 2647 C 252.414 -0.371301 3.58181 0
M  V30 2648 C 252.267 0.936358 4.39946 0
M  V30 2649 C 253.586 -1.14542 4.24933 0
M  V30 2650 H 250.705 -0.0502937 0.735282 0
M  V30 2651 H 253.347 0.564584 1.81418 0
M  V30 2652 H 251.497 -0.973559 3.76104 0
M  V30 2653 H 253.169 1.57184 4.33694 0
M  V30 2654 H 251.412 1.5432 4.05423 0
M  V30 2655 H 252.083 0.730388 5.47147 0
M  V30 2656 H 254.559 -0.635362 4.11221 0
M  V30 2657 H 253.435 -1.27431 5.33903 0
M  V30 2658 H 253.696 -2.17093 3.85127 0
M  V30 2659 N 252.755 -1.56801 0.158532 0
M  V30 2660 C 254.004 -1.95665 -0.489702 0
M  V30 2661 C 254.317 -1.04654 -1.65248 0
M  V30 2662 O 255.523 -1.33146 -2.3661 0
M  V30 2663 C 253.979 -3.47874 -0.922582 0
M  V30 2664 C 253.587 -4.47489 0.213893 0
M  V30 2665 C 255.331 -3.95583 -1.53996 0
M  V30 2666 C 253.238 -5.90921 -0.237903 0
M  V30 2667 H 252.168 -0.730516 -0.186716 0
M  V30 2668 H 254.819 -1.81861 0.244722 0
M  V30 2669 H 253.201 -3.57051 -1.71261 0
M  V30 2670 H 254.375 -4.50017 0.991036 0
M  V30 2671 H 252.69 -4.09764 0.740407 0
M  V30 2672 H 255.287 -5.0019 -1.8898 0
M  V30 2673 H 255.63 -3.37789 -2.43319 0
M  V30 2674 H 256.163 -3.8937 -0.814611 0
M  V30 2675 H 252.902 -6.52559 0.620236 0
M  V30 2676 H 252.422 -5.91729 -0.980676 0
M  V30 2677 H 254.101 -6.43352 -0.686067 0
M  V30 2678 N 254.233 0.115231 -1.57178 0
M  V30 2679 C 255.143 1.15994 -2.03918 0
M  V30 2680 C 256.159 1.45103 -0.960268 0
M  V30 2681 O 257.335 1.56144 -1.27204 0
M  V30 2682 C 254.4 2.46568 -2.43732 0
M  V30 2683 C 253.461 2.24822 -3.65723 0
M  V30 2684 C 252.694 3.4917 -4.03629 0
M  V30 2685 O 252.917 4.56623 -3.41835 0
M  V30 2686 O 251.851 3.39949 -4.96708 0
M  V30 2687 H 255.677 0.793019 -2.93164 0
M  V30 2688 H 253.262 0.3263 -1.45793 0
M  V30 2689 H 255.144 3.23492 -2.70057 0
M  V30 2690 H 253.819 2.82726 -1.57631 0
M  V30 2691 H 252.726 1.45744 -3.44542 0
M  V30 2692 H 254.059 1.93566 -4.52541 0
M  V30 2693 N 255.711 1.52812 0.385517 0
M  V30 2694 C 256.936 1.72207 1.15583 0
M  V30 2695 C 257.361 0.441034 1.82857 0
M  V30 2696 O 256.719 -0.603465 1.70962 0
M  V30 2697 C 256.767 2.87476 2.17692 0
M  V30 2698 O 255.871 2.54693 3.24354 0
M  V30 2699 H 255.212 0.572526 0.336319 0
M  V30 2700 H 257.742 1.99618 0.448744 0
M  V30 2701 H 257.752 3.13072 2.6163 0
M  V30 2702 H 256.427 3.80408 1.68115 0
M  V30 2703 H 255.004 2.3985 2.85529 0
M  V30 2704 N 257.189 -0.644168 1.43834 0
M  V30 2705 C 258.139 -1.7501 1.46135 0
M  V30 2706 C 259.123 -1.57507 0.328685 0
M  V30 2707 O 260.315 -1.67465 0.5731 0
M  V30 2708 C 257.444 -3.13641 1.39585 0
M  V30 2709 C 256.53 -3.3666 2.57916 0
M  V30 2710 N 256.921 -3.30107 3.83227 0
M  V30 2711 C 255.219 -3.67411 2.52834 0
M  V30 2712 C 255.92 -3.53456 4.61999 0
M  V30 2713 N 254.896 -3.75705 3.9287 0
M  V30 2714 H 258.698 -1.68382 2.40883 0
M  V30 2715 H 256.212 -0.846169 1.38614 0
M  V30 2716 H 258.209 -3.92933 1.39317 0
M  V30 2717 H 256.869 -3.21444 0.45865 0
M  V30 2718 H 257.88 -3.09316 4.15384 0
M  V30 2719 H 254.557 -3.82275 1.67845 0
M  V30 2720 H 255.947 -3.54093 5.71024 0
M  V30 2721 N 258.668 -1.30515 -0.883378 0
M  V30 2722 C 260.079 -1.17509 -1.45081 0
M  V30 2723 C 260.43 0.223605 -1.94922 0
M  V30 2724 O 259.555 1.12041 -1.85137 0
M  V30 2725 C 260.15 -2.12715 -2.63701 0
M  V30 2726 C 258.709 -2.03682 -3.16529 0
M  V30 2727 C 257.856 -2.02706 -1.89224 0
M  V30 2728 H 260.807 -1.42762 -0.693165 0
M  V30 2729 H 260.828 -1.70891 -3.39965 0
M  V30 2730 H 260.34 -3.14505 -2.27395 0
M  V30 2731 H 258.441 -1.05039 -3.57488 0
M  V30 2732 H 258.554 -2.92146 -3.7972 0
M  V30 2733 H 256.918 -1.4753 -2.07622 0
M  V30 2734 H 257.701 -3.06229 -1.55174 0
M  V30 2735 N 260.146 1.09593 -1.13257 0
M  V30 2736 C 261.423 1.78293 -0.804432 0
M  V30 2737 C 261.803 1.99004 0.70431 0
M  V30 2738 O 261.151 1.59007 1.641 0
M  V30 2739 C 261.361 3.10707 -1.5894 0
M  V30 2740 C 262.709 3.85443 -1.78099 0
M  V30 2741 O 263.733 3.20454 -1.55525 0
M  V30 2742 O 262.592 5.02108 -2.15753 0
M  V30 2743 H 259.686 0.773156 -0.293528 0
M  V30 2744 H 262.232 1.16164 -1.23709 0
M  V30 2745 H 261.004 2.91106 -2.61482 0
M  V30 2746 H 260.627 3.80558 -1.15157 0
M  V30 2747 N 261.624 0.925811 1.2754 0
M  V30 2748 C 262.572 0.413897 2.28888 0
M  V30 2749 C 263.566 -0.500779 1.61829 0
M  V30 2750 O 264.772 -0.38069 1.75928 0
M  V30 2751 H 261.147 0.115274 0.743112 0
M  V30 2752 H 263.118 1.28151 2.69481 0
M  V30 2753 C 261.867 -0.319792 3.46226 0
M  V30 2754 H 261.19 0.374846 3.98039 0
M  V30 2755 H 262.63 -0.642435 4.19105 0
M  V30 2756 C 261.089 -1.53209 3.00048 0
M  V30 2757 O 261.619 -2.6309 3.03557 0
M  V30 2758 N 259.825 -1.38326 2.55566 0
M  V30 2759 H 259.372 -0.489292 2.5291 0
M  V30 2760 H 259.33 -2.19564 2.25031 0
M  V30 2761 N 263.102 -1.41638 0.69111 0
M  V30 2762 C 264.065 -2.29178 0.0319786 0
M  V30 2763 C 265.065 -1.44153 -0.712496 0
M  V30 2764 O 266.255 -1.65354 -0.548053 0
M  V30 2765 C 263.387 -3.26952 -0.965161 0
M  V30 2766 H 264.58 -2.88959 0.802681 0
M  V30 2767 H 262.133 -1.4955 0.454356 0
M  V30 2768 H 262.868 -2.72142 -1.76378 0
M  V30 2769 H 262.653 -3.89685 -0.434522 0
M  V30 2770 H 264.143 -3.92561 -1.42428 0
M  V30 2771 N 264.58 -0.43555 -1.51462 0
M  V30 2772 C 265.51 0.367376 -2.30592 0
M  V30 2773 C 266.491 1.02263 -1.35928 0
M  V30 2774 O 267.676 1.02661 -1.64847 0
M  V30 2775 C 264.806 1.46983 -3.14664 0
M  V30 2776 C 263.76 0.938161 -4.17591 0
M  V30 2777 C 263.086 2.13622 -4.90173 0
M  V30 2778 C 264.386 -0.0261621 -5.22293 0
M  V30 2779 H 266.08 -0.292969 -2.97963 0
M  V30 2780 H 263.626 -0.14234 -1.43295 0
M  V30 2781 H 265.579 2.03873 -3.688 0
M  V30 2782 H 264.303 2.15843 -2.4511 0
M  V30 2783 H 262.962 0.391481 -3.64504 0
M  V30 2784 H 262.61 2.81098 -4.17124 0
M  V30 2785 H 262.31 1.78688 -5.59772 0
M  V30 2786 H 263.834 2.7107 -5.47132 0
M  V30 2787 H 265.248 0.452384 -5.71512 0
M  V30 2788 H 263.645 -0.287992 -5.99409 0
M  V30 2789 H 264.715 -0.963391 -4.75233 0
M  V30 2790 N 266.058 1.56714 -0.166846 0
M  V30 2791 C 266.968 2.21331 0.777791 0
M  V30 2792 C 267.984 1.20358 1.25658 0
M  V30 2793 O 269.16 1.53005 1.30964 0
M  V30 2794 C 266.225 2.83787 1.99163 0
M  V30 2795 C 265.286 3.99947 1.56016 0
M  V30 2796 C 264.519 4.59415 2.71613 0
M  V30 2797 O 264.742 4.17769 3.88362 0
M  V30 2798 O 263.676 5.49359 2.45945 0
M  V30 2799 H 267.502 3.02605 0.257636 0
M  V30 2800 H 265.087 1.49275 0.0611393 0
M  V30 2801 H 266.969 3.23405 2.70161 0
M  V30 2802 H 265.644 2.05513 2.50092 0
M  V30 2803 H 264.551 3.65007 0.819809 0
M  V30 2804 H 265.884 4.79801 1.09782 0
M  V30 2805 N 267.536 -0.106894 1.57237 0
M  V30 2806 C 268.813 -0.843526 1.76477 0
M  V30 2807 C 269.193 -1.97499 0.745464 0
M  V30 2808 O 268.541 -2.27357 -0.228306 0
M  V30 2809 C 268.751 -1.34903 3.21873 0
M  V30 2810 C 270.099 -1.79654 3.8472 0
M  V30 2811 O 271.123 -1.44554 3.2555 0
M  V30 2812 O 269.982 -2.44515 4.88748 0
M  V30 2813 H 267.076 -0.401468 0.723016 0
M  V30 2814 H 269.622 -0.0896927 1.69463 0
M  V30 2815 H 268.394 -0.53781 3.87586 0
M  V30 2816 H 268.017 -2.16522 3.33473 0
M  V30 2817 N 269.014 -1.53014 -0.377408 0
M  V30 2818 C 269.944 -1.81589 -1.46791 0
M  V30 2819 C 270.925 -0.668622 -1.56408 0
M  V30 2820 O 272.11 -0.917337 -1.71168 0
M  V30 2821 C 269.24 -1.99519 -2.8427 0
M  V30 2822 C 268.194 -3.15249 -2.89486 0
M  V30 2823 C 267.52 -3.18451 -4.29527 0
M  V30 2824 C 268.82 -4.54084 -2.58079 0
M  V30 2825 H 270.514 -2.7291 -1.23127 0
M  V30 2826 H 268.06 -1.31319 -0.590883 0
M  V30 2827 H 270.013 -2.18092 -3.60575 0
M  V30 2828 H 268.737 -1.04897 -3.09296 0
M  V30 2829 H 267.396 -2.96477 -2.15631 0
M  V30 2830 H 267.044 -2.2149 -4.5161 0
M  V30 2831 H 266.744 -3.962 -4.33934 0
M  V30 2832 H 268.268 -3.39193 -5.07721 0
M  V30 2833 H 269.682 -4.72899 -3.24098 0
M  V30 2834 H 268.079 -5.33987 -2.7382 0
M  V30 2835 H 269.149 -4.60006 -1.53372 0
M  V30 2836 N 270.492 0.636531 -1.44174 0
M  V30 2837 C 271.908 0.954104 -1.27941 0
M  V30 2838 C 272.108 2.0039 -0.211248 0
M  V30 2839 O 271.164 2.49236 0.404695 0
M  V30 2840 C 272.477 1.4225 -2.64925 0
M  V30 2841 C 274.025 1.53827 -2.72592 0
M  V30 2842 C 274.5 2.04053 -4.10032 0
M  V30 2843 N 275.991 2.11331 -4.12182 0
M  V30 2844 C 276.726 2.51352 -5.15374 0
M  V30 2845 N 276.222 2.90549 -6.2893 0
M  V30 2846 N 278.015 2.51438 -5.02728 0
M  V30 2847 H 270.166 -0.0578386 -2.12321 0
M  V30 2848 H 272.429 0.0367406 -0.947288 0
M  V30 2849 H 272.135 0.725466 -3.44136 0
M  V30 2850 H 272.009 2.39451 -2.9145 0
M  V30 2851 H 274.396 2.22628 -1.93702 0
M  V30 2852 H 274.477 0.550154 -2.49814 0
M  V30 2853 H 274.121 1.35848 -4.89395 0
M  V30 2854 H 274.051 3.03726 -4.30184 0
M  V30 2855 H 276.542 1.83745 -3.30222 0
M  V30 2856 H 276.855 3.19884 -7.03487 0
M  V30 2857 H 275.2 2.88313 -6.32377 0
M  V30 2858 H 278.391 2.20203 -4.13072 0
M  V30 2859 H 278.564 2.82304 -5.83274 0
M  V30 2860 N 271.97 1.30982 0.876444 0
M  V30 2861 C 272.9 1.20668 1.99903 0
M  V30 2862 C 273.881 0.095354 1.69833 0
M  V30 2863 O 275.066 0.27885 1.92188 0
M  V30 2864 C 272.196 0.90655 3.3526 0
M  V30 2865 C 271.15 1.97675 3.79617 0
M  V30 2866 C 270.476 1.52943 5.1236 0
M  V30 2867 C 271.776 3.389 3.97422 0
M  V30 2868 H 273.47 2.14586 2.0879 0
M  V30 2869 H 271.016 1.03308 1.00317 0
M  V30 2870 H 272.969 0.821025 4.13324 0
M  V30 2871 H 271.693 -0.0682969 3.26529 0
M  V30 2872 H 270.352 2.05205 3.03787 0
M  V30 2873 H 270 0.54262 5.00065 0
M  V30 2874 H 269.7 2.24532 5.43009 0
M  V30 2875 H 271.224 1.45786 5.92941 0
M  V30 2876 H 272.638 3.34081 4.659 0
M  V30 2877 H 271.035 4.0865 4.3946 0
M  V30 2878 H 272.105 3.80163 3.01006 0
M  V30 2879 N 273.449 -1.08991 1.13837 0
M  V30 2880 C 274.726 -1.77863 0.813876 0
M  V30 2881 C 275.106 -1.99375 -0.693746 0
M  V30 2882 O 274.454 -1.59875 -1.63255 0
M  V30 2883 C 274.664 -3.0986 1.60586 0
M  V30 2884 C 276.012 -3.84493 1.8014 0
M  V30 2885 O 277.036 -3.19624 1.57222 0
M  V30 2886 O 275.895 -5.00957 2.18413 0
M  V30 2887 H 272.989 -0.771589 0.297624 0
M  V30 2888 H 275.535 -1.15507 1.24323 0
M  V30 2889 H 274.307 -2.89715 2.63022 0
M  V30 2890 H 273.93 -3.79942 1.17173 0
M  V30 2891 N 274.927 -0.932562 -1.27047 0
M  V30 2892 C 275.874 -0.434072 -2.26681 0
M  V30 2893 C 276.844 0.501639 -1.58344 0
M  V30 2894 O 278.029 0.419734 -1.86126 0
M  V30 2895 C 275.169 0.30261 -3.43771 0
M  V30 2896 C 274.282 -0.667774 -4.26808 0
M  V30 2897 C 273.417 0.0892393 -5.31125 0
M  V30 2898 C 272.456 -0.873532 -6.05835 0
M  V30 2899 N 271.593 -0.148832 -7.01942 0
M  V30 2900 H 276.433 -1.28868 -2.68695 0
M  V30 2901 H 273.97 -0.646713 -1.32121 0
M  V30 2902 H 275.928 0.746092 -4.10474 0
M  V30 2903 H 274.558 1.12142 -3.02695 0
M  V30 2904 H 273.61 -1.22978 -3.59973 0
M  V30 2905 H 274.922 -1.40337 -4.78651 0
M  V30 2906 H 274.076 0.592409 -6.03801 0
M  V30 2907 H 272.815 0.85777 -4.80097 0
M  V30 2908 H 271.82 -1.38791 -5.31994 0
M  V30 2909 H 273.045 -1.64193 -6.58952 0
M  V30 2910 H 270.991 0.601365 -6.53238 0
M  V30 2911 H 270.908 -0.82391 -7.51497 0
M  V30 2912 H 272.176 0.333527 -7.78786 0
M  V30 2913 N 276.405 1.4127 -0.698611 0
M  V30 2914 C 277.816 1.84187 -0.305289 0
M  V30 2915 C 278.167 1.58449 1.15708 0
M  V30 2916 O 277.292 1.05651 1.88856 0
M  V30 2917 C 277.887 3.3435 -0.547314 0
M  V30 2918 C 276.446 3.75826 -0.207878 0
M  V30 2919 C 275.593 2.64647 -0.828099 0
M  V30 2920 H 278.544 1.30778 -0.89904 0
M  V30 2921 H 278.565 3.8001 0.192998 0
M  V30 2922 H 278.077 3.53051 -1.61172 0
M  V30 2923 H 276.178 3.62725 0.852143 0
M  V30 2924 H 276.291 4.74462 -0.665021 0
M  V30 2925 H 274.655 2.53395 -0.257458 0
M  V30 2926 H 275.438 2.86165 -1.89643 0
M  V30 2927 N 277.883 0.443576 1.51229 0
M  V30 2928 C 279.13 -0.120796 2.02139 0
M  V30 2929 C 279.458 -1.42166 1.32736 0
M  V30 2930 O 278.713 -1.90849 0.43301 0
M  V30 2931 C 279.012 -0.380579 3.55368 0
M  V30 2932 C 278.678 0.83523 4.43097 0
M  V30 2933 C 277.34 1.16864 4.66794 0
M  V30 2934 C 279.692 1.64601 4.94526 0
M  V30 2935 C 277.02 2.31339 5.39165 0
M  V30 2936 C 279.372 2.78181 5.68153 0
M  V30 2937 C 278.036 3.11969 5.90112 0
M  V30 2938 H 277.306 -0.0442023 0.73968 0
M  V30 2939 H 279.953 0.592046 1.82118 0
M  V30 2940 H 278.258 -1.17538 3.73754 0
M  V30 2941 H 279.955 -0.830777 3.923 0
M  V30 2942 H 276.545 0.565437 4.24854 0
M  V30 2943 H 280.729 1.40163 4.76097 0
M  V30 2944 H 275.985 2.57823 5.5438 0
M  V30 2945 H 280.159 3.41371 6.06992 0
M  V30 2946 H 277.786 4.00784 6.45969 0
M  V30 2947 N 279.361 -1.56624 0.175154 0
M  V30 2948 C 280.772 -1.83561 -0.340916 0
M  V30 2949 C 281.123 -1.09511 -1.62794 0
M  V30 2950 O 280.248 -0.349389 -2.13561 0
M  V30 2951 C 280.843 -3.32979 -0.625313 0
M  V30 2952 C 279.402 -3.60399 -1.08581 0
M  V30 2953 C 278.549 -2.77024 -0.123722 0
M  V30 2954 H 281.5 -1.53593 0.399344 0
M  V30 2955 H 281.521 -3.50666 -1.47694 0
M  V30 2956 H 281.033 -3.86847 0.311575 0
M  V30 2957 H 279.134 -3.11945 -2.03767 0
M  V30 2958 H 279.247 -4.68711 -0.992317 0
M  V30 2959 H 277.611 -2.46993 -0.621821 0
M  V30 2960 H 278.394 -3.33674 0.807256 0
M  V30 2961 N 280.839 0.0985539 -1.57292 0
M  V30 2962 C 281.749 1.13824 -2.05137 0
M  V30 2963 C 282.765 1.44076 -0.975604 0
M  V30 2964 O 283.941 1.54786 -1.28853 0
M  V30 2965 C 281.006 2.43969 -2.46333 0
M  V30 2966 C 280.067 2.2093 -3.68087 0
M  V30 2967 C 279.3 3.44869 -4.0731 0
M  V30 2968 O 279.523 4.52972 -3.46659 0
M  V30 2969 O 278.457 3.34661 -5.00285 0
M  V30 2970 H 282.283 0.761881 -2.93988 0
M  V30 2971 H 279.868 0.310818 -1.46131 0
M  V30 2972 H 281.75 3.20609 -2.73473 0
M  V30 2973 H 280.425 2.81038 -1.60621 0
M  V30 2974 H 279.332 1.42081 -3.46069 0
M  V30 2975 H 280.665 1.88755 -4.54568 0
M  V30 2976 N 282.317 1.53212 0.369288 0
M  V30 2977 C 283.247 1.82365 1.45826 0
M  V30 2978 C 284.228 0.676907 1.56051 0
M  V30 2979 O 285.413 0.926401 1.70679 0
M  V30 2980 C 282.543 2.01023 2.83208 0
M  V30 2981 C 281.497 3.1678 2.8781 0
M  V30 2982 C 280.823 3.20724 4.27832 0
M  V30 2983 C 282.123 4.55447 2.55667 0
M  V30 2984 H 283.817 2.73559 1.21678 0
M  V30 2985 H 281.363 1.3163 0.583911 0
M  V30 2986 H 283.316 2.20001 3.59413 0
M  V30 2987 H 282.04 1.06536 3.08736 0
M  V30 2988 H 280.699 2.97616 2.14056 0
M  V30 2989 H 280.347 2.23882 4.50429 0
M  V30 2990 H 280.047 3.98496 4.31827 0
M  V30 2991 H 281.571 3.41881 5.05915 0
M  V30 2992 H 282.985 4.74611 3.21586 0
M  V30 2993 H 281.382 5.35432 2.70984 0
M  V30 2994 H 282.452 4.60812 1.5093 0
M  V30 2995 N 283.795 -0.628877 1.44509 0
M  V30 2996 C 285.211 -0.947305 1.28446 0
M  V30 2997 C 285.411 -2.00275 0.221872 0
M  V30 2998 O 284.467 -2.49447 -0.391471 0
M  V30 2999 C 285.78 -1.40843 2.65676 0
M  V30 3000 C 287.328 -1.52379 2.73404 0
M  V30 3001 C 287.803 -2.01875 4.11109 0
M  V30 3002 N 289.294 -2.09142 4.13296 0
M  V30 3003 C 290.029 -2.48615 5.16699 0
M  V30 3004 N 289.525 -2.87209 6.30462 0
M  V30 3005 N 291.318 -2.48768 5.04054 0
M  V30 3006 H 283.469 0.0690977 2.12288 0
M  V30 3007 H 285.732 -0.0317164 0.947469 0
M  V30 3008 H 285.438 -0.707206 3.44516 0
M  V30 3009 H 285.312 -2.37902 2.92716 0
M  V30 3010 H 287.699 -2.21598 1.9488 0
M  V30 3011 H 287.78 -0.536898 2.50102 0
M  V30 3012 H 287.424 -1.3325 4.90109 0
M  V30 3013 H 287.354 -3.0144 4.31789 0
M  V30 3014 H 289.845 -1.81991 3.31191 0
M  V30 3015 H 290.158 -3.16149 7.05174 0
M  V30 3016 H 288.503 -2.84955 6.33897 0
M  V30 3017 H 291.694 -2.18009 4.14234 0
M  V30 3018 H 291.867 -2.79207 5.84763 0
M  V30 3019 N 285.273 -1.31445 -0.869486 0
M  V30 3020 C 286.183 -1.21097 -2.0093 0
M  V30 3021 C 287.199 -0.127584 -1.73532 0
M  V30 3022 O 288.375 -0.345477 -1.98415 0
M  V30 3023 C 285.44 -0.919378 -3.34288 0
M  V30 3024 C 284.501 -2.08971 -3.75006 0
M  V30 3025 C 283.734 -1.81194 -5.02001 0
M  V30 3026 O 283.957 -0.747296 -5.65484 0
M  V30 3027 O 282.891 -2.66883 -5.39497 0
M  V30 3028 H 286.717 -2.16883 -2.12592 0
M  V30 3029 H 284.302 -1.11189 -0.997868 0
M  V30 3030 H 286.184 -0.772625 -4.14257 0
M  V30 3031 H 284.859 0.00844772 -3.23699 0
M  V30 3032 H 283.766 -2.29187 -2.95676 0
M  V30 3033 H 285.099 -2.9998 -3.90221 0
M  V30 3034 N 286.751 1.08385 -1.14413 0
M  V30 3035 C 287.701 2.13509 -0.79987 0
M  V30 3036 C 288.685 1.5951 0.211059 0
M  V30 3037 O 289.877 1.76995 0.0133694 0
M  V30 3038 C 287.006 3.42162 -0.279297 0
M  V30 3039 C 286.092 4.03042 -1.31976 0
M  V30 3040 N 286.483 4.38327 -2.52395 0
M  V30 3041 C 284.781 4.30379 -1.17004 0
M  V30 3042 C 285.482 4.86428 -3.19003 0
M  V30 3043 N 284.458 4.84547 -2.46405 0
M  V30 3044 H 288.26 2.38609 -1.7159 0
M  V30 3045 H 285.774 1.2572 -1.02802 0
M  V30 3046 H 287.771 4.16898 -0.0143688 0
M  V30 3047 H 286.431 3.18511 0.630923 0
M  V30 3048 H 287.442 4.29349 -2.89621 0
M  V30 3049 H 284.119 4.16281 -0.318854 0
M  V30 3050 H 285.509 5.23107 -4.21674 0
M  V30 3051 N 288.23 0.939286 1.26551 0
M  V30 3052 C 289.477 0.585847 1.9384 0
M  V30 3053 C 289.805 -0.874784 1.73718 0
M  V30 3054 O 289.06 -1.64092 1.06642 0
M  V30 3055 C 289.359 0.872106 3.46596 0
M  V30 3056 C 289.025 2.31632 3.86856 0
M  V30 3057 C 287.687 2.71111 3.97558 0
M  V30 3058 C 290.039 3.25494 4.07066 0
M  V30 3059 C 287.367 4.03553 4.25866 0
M  V30 3060 C 289.719 4.57531 4.36862 0
M  V30 3061 C 288.383 4.96828 4.45778 0
M  V30 3062 H 287.653 0.214377 0.709312 0
M  V30 3063 H 290.3 1.18544 1.50398 0
M  V30 3064 H 288.605 0.18996 3.91339 0
M  V30 3065 H 290.302 0.577442 3.96821 0
M  V30 3066 H 286.892 2.00008 3.79071 0
M  V30 3067 H 291.076 2.9619 3.98227 0
M  V30 3068 H 286.332 4.33665 4.30981 0
M  V30 3069 H 290.506 5.30254 4.51446 0
M  V30 3070 H 288.133 5.99482 4.67468 0
M  V30 3071 N 289.708 -1.40897 0.706093 0
M  V30 3072 C 290.64 -2.29199 0.00815776 0
M  V30 3073 C 291.653 -1.45336 -0.733582 0
M  V30 3074 O 292.842 -1.68727 -0.582537 0
M  V30 3075 C 289.942 -3.23417 -1.01265 0
M  V30 3076 C 289.115 -4.36089 -0.338387 0
M  V30 3077 C 288.174 -5.10811 -1.26326 0
M  V30 3078 O 287.2 -5.64215 -0.751651 0
M  V30 3079 N 288.402 -5.19269 -2.595 0
M  V30 3080 H 291.167 -2.89738 0.766297 0
M  V30 3081 H 288.728 -1.52164 0.55296 0
M  V30 3082 H 290.72 -3.70276 -1.63334 0
M  V30 3083 H 289.29 -2.64112 -1.67223 0
M  V30 3084 H 288.51 -3.91479 0.462352 0
M  V30 3085 H 289.798 -5.08634 0.130031 0
M  V30 3086 H 289.196 -4.77347 -3.03573 0
M  V30 3087 H 287.753 -5.69667 -3.16737 0
M  V30 3088 N 291.186 -0.45159 -1.50991 0
M  V30 3089 C 292.411 0.110667 -2.07105 0
M  V30 3090 C 292.836 1.3446 -1.31538 0
M  V30 3091 O 292.194 1.77743 -0.357365 0
M  V30 3092 C 292.242 0.397238 -3.58405 0
M  V30 3093 O 291.346 1.48124 -3.84881 0
M  V30 3094 H 290.687 -0.00439271 -0.663985 0
M  V30 3095 H 293.217 -0.637026 -1.9443 0
M  V30 3096 H 293.227 0.64351 -4.02893 0
M  V30 3097 H 291.902 -0.504553 -4.12828 0
M  V30 3098 H 290.479 1.22381 -3.52246 0
M  V30 3099 N 292.664 1.56529 -0.183458 0
M  V30 3100 C 293.894 2.01331 0.463612 0
M  V30 3101 C 294.302 1.06278 1.5653 0
M  V30 3102 O 293.645 0.0577976 1.83609 0
M  V30 3103 C 293.707 3.42547 1.09096 0
M  V30 3104 C 293.371 4.56817 0.129442 0
M  V30 3105 C 294.368 5.15734 -0.656807 0
M  V30 3106 C 292.053 5.02295 0.02174 0
M  V30 3107 C 294.047 6.1857 -1.53784 0
M  V30 3108 C 291.734 6.04978 -0.862864 0
M  V30 3109 C 292.732 6.62988 -1.64123 0
M  V30 3110 O 292.42 7.63677 -2.51103 0
M  V30 3111 H 292.152 0.664917 0.121907 0
M  V30 3112 H 294.706 2.034 -0.285954 0
M  V30 3113 H 292.936 3.37428 1.88889 0
M  V30 3114 H 294.625 3.71228 1.64148 0
M  V30 3115 H 295.391 4.81473 -0.583839 0
M  V30 3116 H 291.27 4.56847 0.617392 0
M  V30 3117 H 294.814 6.63777 -2.14583 0
M  V30 3118 H 290.711 6.38663 -0.93699 0
M  V30 3119 H 291.479 7.81049 -2.44753 0
M  V30 3120 N 294.142 -0.090211 1.57342 0
M  V30 3121 C 295.419 -0.824761 1.77361 0
M  V30 3122 C 295.799 -1.96698 0.76637 0
M  V30 3123 O 295.147 -2.27586 -0.204179 0
M  V30 3124 C 295.357 -1.31481 3.23286 0
M  V30 3125 C 296.705 -1.75563 3.86604 0
M  V30 3126 O 297.729 -1.41093 3.27065 0
M  V30 3127 O 296.588 -2.39317 4.91314 0
M  V30 3128 H 293.682 -0.393776 0.727234 0
M  V30 3129 H 296.228 -0.0717138 1.69548 0
M  V30 3130 H 295 -0.496671 3.88135 0
M  V30 3131 H 294.623 -2.12973 3.35751 0
M  V30 3132 N 295.62 -1.53406 -0.361157 0
M  V30 3133 C 296.55 -1.83136 -1.44857 0
M  V30 3134 C 297.531 -0.685174 -1.5569 0
M  V30 3135 O 298.716 -0.93544 -1.70186 0
M  V30 3136 C 295.846 -2.02522 -2.82138 0
M  V30 3137 C 294.8 -3.18302 -2.86126 0
M  V30 3138 C 294.126 -3.22989 -4.26125 0
M  V30 3139 C 295.426 -4.56796 -2.53248 0
M  V30 3140 H 297.12 -2.74201 -1.20226 0
M  V30 3141 H 294.666 -1.31938 -0.576922 0
M  V30 3142 H 296.619 -2.21904 -3.58241 0
M  V30 3143 H 295.343 -1.08172 -3.08166 0
M  V30 3144 H 294.002 -2.98747 -2.12475 0
M  V30 3145 H 293.65 -2.26267 -4.49235 0
M  V30 3146 H 293.35 -4.00781 -4.29708 0
M  V30 3147 H 294.874 -3.44559 -5.04094 0
M  V30 3148 H 296.288 -4.7631 -3.19064 0
M  V30 3149 H 294.685 -5.36862 -2.68141 0
M  V30 3150 H 295.755 -4.61606 -1.48484 0
M  V30 3151 N 297.098 0.621204 -1.44841 0
M  V30 3152 C 298.375 1.38 -1.38619 0
M  V30 3153 C 298.755 2.11041 -0.0498935 0
M  V30 3154 O 298.103 2.06992 0.967816 0
M  V30 3155 C 298.313 2.33817 -2.59096 0
M  V30 3156 C 299.661 2.96844 -3.03593 0
M  V30 3157 O 300.685 2.44141 -2.59371 0
M  V30 3158 O 299.544 3.92476 -3.80296 0
M  V30 3159 H 296.638 0.61811 -0.549426 0
M  V30 3160 H 299.184 0.645429 -1.56947 0
M  V30 3161 H 297.956 1.79012 -3.47952 0
M  V30 3162 H 297.579 3.14676 -2.43032 0
M  V30 3163 N 298.576 1.31904 0.862503 0
M  V30 3164 C 299.526 1.16772 1.95827 0
M  V30 3165 C 300.51 0.0767098 1.60717 0
M  V30 3166 O 301.702 0.302407 1.74398 0
M  V30 3167 C 298.831 0.884858 3.317 0
M  V30 3168 C 297.917 2.0172 3.73055 0
M  V30 3169 N 298.308 3.265 3.86305 0
M  V30 3170 C 296.606 1.91861 4.02623 0
M  V30 3171 C 297.307 4.00616 4.2176 0
M  V30 3172 N 296.283 3.28847 4.32852 0
M  V30 3173 H 300.085 2.11382 2.04193 0
M  V30 3174 H 297.599 1.2357 1.05377 0
M  V30 3175 H 299.596 0.757419 4.09962 0
M  V30 3176 H 298.256 -0.0529448 3.24657 0
M  V30 3177 H 299.267 3.61529 3.70833 0
M  V30 3178 H 295.944 1.05593 4.03926 0
M  V30 3179 H 297.334 5.08182 4.39546 0
M  V30 3180 N 300.054 -1.07777 1.14986 0
M  V30 3181 C 300.987 -2.14228 0.786243 0
M  V30 3182 C 301.965 -1.60888 -0.235347 0
M  V30 3183 O 303.149 -1.88099 -0.122909 0
M  V30 3184 C 300.276 -3.38281 0.168433 0
M  V30 3185 C 299.322 -4.10387 1.16123 0
M  V30 3186 S 300.155 -4.62371 2.70135 0
M  V30 3187 C 301.311 -5.89704 2.09762 0
M  V30 3188 H 301.544 -2.44741 1.68787 0
M  V30 3189 H 299.077 -1.19984 0.971756 0
M  V30 3190 H 301.035 -4.10098 -0.181588 0
M  V30 3191 H 299.696 -3.05953 -0.710725 0
M  V30 3192 H 298.889 -4.99431 0.677086 0
M  V30 3193 H 298.491 -3.44513 1.45556 0
M  V30 3194 H 300.783 -6.61648 1.45701 0
M  V30 3195 H 301.726 -6.42824 2.96955 0
M  V30 3196 H 302.134 -5.4302 1.54239 0
M  V30 3197 N 301.532 -0.945985 -1.26051 0
M  V30 3198 C 302.442 -0.465633 -2.29933 0
M  V30 3199 C 303.458 0.462761 -1.67733 0
M  V30 3200 O 304.634 0.341118 -1.9849 0
M  V30 3201 C 301.699 0.256994 -3.45746 0
M  V30 3202 C 300.76 -0.708549 -4.23412 0
M  V30 3203 C 299.993 -0.0203135 -5.33696 0
M  V30 3204 O 300.216 1.19571 -5.57726 0
M  V30 3205 O 299.15 -0.701459 -5.97799 0
M  V30 3206 H 302.976 -1.32866 -2.73094 0
M  V30 3207 H 300.561 -0.712071 -1.31339 0
M  V30 3208 H 302.443 0.663852 -4.16138 0
M  V30 3209 H 301.118 1.09533 -3.04605 0
M  V30 3210 H 300.025 -1.16545 -3.55483 0
M  V30 3211 H 301.358 -1.51465 -4.68315 0
M  V30 3212 N 303.011 1.40521 -0.713556 0
M  V30 3213 C 303.958 2.30723 -0.059684 0
M  V30 3214 C 304.928 1.48079 0.752448 0
M  V30 3215 O 306.113 1.76823 0.71681 0
M  V30 3216 C 303.253 3.34274 0.857594 0
M  V30 3217 C 302.366 4.31986 0.0351536 0
M  V30 3218 C 301.501 5.22605 0.951724 0
M  V30 3219 C 300.54 6.11976 0.123253 0
M  V30 3220 N 299.677 6.9502 0.99459 0
M  V30 3221 H 304.517 2.86074 -0.834596 0
M  V30 3222 H 302.054 1.40879 -0.42326 0
M  V30 3223 H 304.012 3.92879 1.40364 0
M  V30 3224 H 302.642 2.8043 1.59871 0
M  V30 3225 H 301.694 3.7518 -0.628052 0
M  V30 3226 H 303.006 4.95101 -0.606347 0
M  V30 3227 H 302.16 5.86131 1.56638 0
M  V30 3228 H 300.899 4.59759 1.62705 0
M  V30 3229 H 299.904 5.47482 -0.50435 0
M  V30 3230 H 301.129 6.76881 -0.548539 0
M  V30 3231 H 299.075 6.34764 1.6556 0
M  V30 3232 H 298.992 7.54892 0.40908 0
M  V30 3233 H 300.26 7.62997 1.59549 0
M  V30 3234 N 304.489 0.459591 1.5075 0
M  V30 3235 C 305.436 -0.340524 2.28274 0
M  V30 3236 C 306.406 -0.997371 1.32822 0
M  V30 3237 O 307.591 -1.01202 1.61749 0
M  V30 3238 C 304.731 -1.42317 3.14388 0
M  V30 3239 C 303.844 -0.782251 4.24859 0
M  V30 3240 C 302.979 -1.84182 4.98247 0
M  V30 3241 C 302.018 -1.18053 6.00608 0
M  V30 3242 N 301.155 -2.18244 6.67319 0
M  V30 3243 H 305.995 0.326899 2.96202 0
M  V30 3244 H 303.532 0.173057 1.46078 0
M  V30 3245 H 305.49 -2.06241 3.62658 0
M  V30 3246 H 304.12 -2.05992 2.4853 0
M  V30 3247 H 303.172 -0.0307404 3.80388 0
M  V30 3248 H 304.484 -0.259663 4.98124 0
M  V30 3249 H 303.638 -2.55714 5.50177 0
M  V30 3250 H 302.377 -2.39819 4.24662 0
M  V30 3251 H 301.382 -0.450776 5.47949 0
M  V30 3252 H 302.607 -0.631202 6.7616 0
M  V30 3253 H 300.553 -2.72919 5.96533 0
M  V30 3254 H 300.47 -1.70938 7.36421 0
M  V30 3255 H 301.738 -2.89191 7.23871 0
M  V30 3256 N 305.967 -1.56429 0.191757 0
M  V30 3257 C 307.244 -1.89224 -0.495332 0
M  V30 3258 C 307.624 -1.10478 -1.79883 0
M  V30 3259 O 306.972 -0.204852 -2.2758 0
M  V30 3260 C 307.182 -3.41548 -0.717367 0
M  V30 3261 C 308.53 -4.11711 -1.03823 0
M  V30 3262 O 309.554 -3.4698 -0.805204 0
M  V30 3263 O 308.413 -5.2611 -1.47887 0
M  V30 3264 H 305.507 -0.785788 -0.25781 0
M  V30 3265 H 308.053 -1.68111 0.231721 0
M  V30 3266 H 306.825 -3.90772 0.203287 0
M  V30 3267 H 306.448 -3.68342 -1.497 0
M  V30 3268 N 307.445 0.0818655 -1.57387 0
M  V30 3269 C 308.395 1.10501 -1.99433 0
M  V30 3270 C 309.379 1.35041 -0.874798 0
M  V30 3271 O 310.571 1.35511 -1.13868 0
M  V30 3272 C 307.7 2.42159 -2.43339 0
M  V30 3273 C 306.786 2.20937 -3.62005 0
M  V30 3274 N 307.177 1.69616 -4.76512 0
M  V30 3275 C 305.475 2.51451 -3.68359 0
M  V30 3276 C 306.176 1.62973 -5.58404 0
M  V30 3277 N 305.152 2.08664 -5.01956 0
M  V30 3278 H 308.954 0.701373 -2.85408 0
M  V30 3279 H 306.468 0.289096 -1.59806 0
M  V30 3280 H 308.465 3.16208 -2.71695 0
M  V30 3281 H 307.125 2.83249 -1.58746 0
M  V30 3282 H 308.136 1.38624 -4.99003 0
M  V30 3283 H 304.813 2.95975 -2.94457 0
M  V30 3284 H 306.203 1.24233 -6.60315 0
M  V30 3285 N 308.923 1.53595 0.353017 0
M  V30 3286 C 310.148 1.7462 1.11904 0
M  V30 3287 C 310.573 0.479721 1.8188 0
M  V30 3288 O 309.931 -0.567066 1.72204 0
M  V30 3289 C 309.979 2.92029 2.11545 0
M  V30 3290 O 309.083 2.61516 3.18878 0
M  V30 3291 H 308.424 0.579531 0.324099 0
M  V30 3292 H 310.954 2.00525 0.406301 0
M  V30 3293 H 310.964 3.18551 2.5493 0
M  V30 3294 H 309.639 3.83888 1.60008 0
M  V30 3295 H 308.216 2.45852 2.80377 0
M  V30 3296 N 310.401 -0.613514 1.45168 0
M  V30 3297 C 311.351 -1.71871 1.49815 0
M  V30 3298 C 312.335 -1.56774 0.362021 0
M  V30 3299 O 313.527 -1.66212 0.608493 0
M  V30 3300 C 310.656 -3.1061 1.46207 0
M  V30 3301 C 309.742 -3.31114 2.64999 0
M  V30 3302 N 310.133 -3.21904 3.90143 0
M  V30 3303 C 308.431 -3.61966 2.6057 0
M  V30 3304 C 309.132 -3.43577 4.69393 0
M  V30 3305 N 308.108 -3.67287 4.00751 0
M  V30 3306 H 311.91 -1.63235 2.444 0
M  V30 3307 H 309.424 -0.816577 1.40377 0
M  V30 3308 H 311.421 -3.8989 1.4762 0
M  V30 3309 H 310.081 -3.20399 0.52673 0
M  V30 3310 H 311.092 -3.00436 4.21852 0
M  V30 3311 H 307.769 -3.78629 1.75916 0
M  V30 3312 H 309.159 -3.41901 5.78406 0
M  V30 3313 N 311.879 -1.3236 -0.855495 0
M  V30 3314 C 313.107 -1.2587 -1.64208 0
M  V30 3315 C 313.522 0.173457 -1.88002 0
M  V30 3316 O 312.879 1.11027 -1.44842 0
M  V30 3317 C 312.93 -2.01424 -3.00184 0
M  V30 3318 O 312.651 -3.39051 -2.77445 0
M  V30 3319 C 314.152 -2.01948 -3.94629 0
M  V30 3320 H 311.372 -0.434318 -0.511477 0
M  V30 3321 H 313.916 -1.74469 -1.0668 0
M  V30 3322 H 312.071 -1.56549 -3.5436 0
M  V30 3323 H 312.485 -3.77711 -3.63916 0
M  V30 3324 H 313.959 -2.59297 -4.87308 0
M  V30 3325 H 314.436 -1.00554 -4.27534 0
M  V30 3326 H 315.042 -2.46767 -3.4639 0
M  V30 3327 N 313.357 1.07166 -1.15556 0
M  V30 3328 C 314.768 1.6127 -0.940693 0
M  V30 3329 C 315.119 1.89251 0.517551 0
M  V30 3330 O 314.244 1.65937 1.38903 0
M  V30 3331 C 314.839 2.92993 -1.7012 0
M  V30 3332 C 313.398 3.43832 -1.53156 0
M  V30 3333 C 312.545 2.1786 -1.71558 0
M  V30 3334 H 315.496 0.90229 -1.30554 0
M  V30 3335 H 315.517 3.62007 -1.17181 0
M  V30 3336 H 315.029 2.72596 -2.76248 0
M  V30 3337 H 313.13 3.69307 -0.494294 0
M  V30 3338 H 313.243 4.19747 -2.30975 0
M  V30 3339 H 311.607 2.2765 -1.14225 0
M  V30 3340 H 312.39 1.99956 -2.79056 0
M  V30 3341 N 314.835 0.952656 1.25548 0
M  V30 3342 C 316.081 0.616826 1.93822 0
M  V30 3343 C 316.436 -0.836684 1.73255 0
M  V30 3344 O 315.729 -1.59218 1.06584 0
M  V30 3345 C 315.923 0.908818 3.45652 0
M  V30 3346 C 315.752 2.38916 3.80984 0
M  V30 3347 C 314.522 3.04637 4.03143 0
M  V30 3348 C 316.72 3.36838 3.88645 0
M  V30 3349 N 314.702 4.42565 4.25453 0
M  V30 3350 C 316.073 4.60065 4.1562 0
M  V30 3351 C 318.128 3.31704 3.71318 0
M  V30 3352 C 316.831 5.78795 4.2707 0
M  V30 3353 C 318.857 4.4977 3.84006 0
M  V30 3354 C 318.219 5.71783 4.11392 0
M  V30 3355 H 314.318 0.27629 0.731565 0
M  V30 3356 H 316.902 1.22443 1.5138 0
M  V30 3357 H 315.073 0.330166 3.86994 0
M  V30 3358 H 316.805 0.533093 4.01174 0
M  V30 3359 H 313.56 2.55215 3.98952 0
M  V30 3360 H 313.984 5.1399 4.40617 0
M  V30 3361 H 318.626 2.3842 3.49164 0
M  V30 3362 H 316.344 6.72521 4.48041 0
M  V30 3363 H 319.93 4.47342 3.71989 0
M  V30 3364 H 318.81 6.61617 4.2099 0
M  V30 3365 N 316.313 -1.40141 0.720998 0
M  V30 3366 C 317.562 -2.0002 0.259804 0
M  V30 3367 C 317.875 -1.57839 -1.15526 0
M  V30 3368 O 319.081 -2.10455 -1.71525 0
M  V30 3369 C 317.537 -3.57516 0.413566 0
M  V30 3370 C 317.145 -4.08667 1.83562 0
M  V30 3371 C 318.889 -4.24498 0.0134387 0
M  V30 3372 C 316.796 -5.58686 1.93968 0
M  V30 3373 H 315.726 -0.748195 0.0933806 0
M  V30 3374 H 318.377 -1.60313 0.892866 0
M  V30 3375 H 316.759 -3.9495 -0.288169 0
M  V30 3376 H 317.933 -3.82598 2.56817 0
M  V30 3377 H 316.248 -3.543 2.1877 0
M  V30 3378 H 318.845 -5.34654 0.0703954 0
M  V30 3379 H 319.188 -4.03375 -1.02927 0
M  V30 3380 H 319.721 -3.92188 0.665815 0
M  V30 3381 H 316.46 -5.8467 2.96379 0
M  V30 3382 H 315.98 -5.86602 1.25131 0
M  V30 3383 H 317.659 -6.23875 1.71431 0
M  V30 3384 N 317.792 -0.46758 -1.50504 0
M  V30 3385 C 319.038 0.0887532 -2.02606 0
M  V30 3386 C 319.371 1.39686 -1.34913 0
M  V30 3387 O 318.646 1.88644 -0.473694 0
M  V30 3388 C 318.929 0.276206 -3.59039 0
M  V30 3389 C 318.782 -1.05267 -4.37309 0
M  V30 3390 C 320.101 1.03235 -4.27821 0
M  V30 3391 H 317.22 0.0307814 -0.736357 0
M  V30 3392 H 319.862 -0.612485 -1.79857 0
M  V30 3393 H 318.012 0.8735 -3.78553 0
M  V30 3394 H 319.684 -1.68628 -4.29374 0
M  V30 3395 H 317.927 -1.65015 -4.01189 0
M  V30 3396 H 318.598 -0.875197 -5.45018 0
M  V30 3397 H 321.074 0.526111 -4.12761 0
M  V30 3398 H 319.95 1.1323 -5.37094 0
M  V30 3399 H 320.211 2.06806 -3.90748 0
M  V30 3400 N 319.27 1.56325 -0.20005 0
M  V30 3401 C 320.519 1.96895 0.437652 0
M  V30 3402 C 320.832 1.08999 1.62415 0
M  V30 3403 O 322.038 1.39372 2.32997 0
M  V30 3404 C 320.494 3.50198 0.830025 0
M  V30 3405 C 320.102 4.46765 -0.332461 0
M  V30 3406 C 321.846 3.99526 1.43453 0
M  V30 3407 C 319.753 5.91344 0.0811468 0
M  V30 3408 H 318.683 0.735209 0.167282 0
M  V30 3409 H 321.334 1.81148 -0.292853 0
M  V30 3410 H 319.716 3.61467 1.61734 0
M  V30 3411 H 320.89 4.47231 -1.11 0
M  V30 3412 H 319.205 4.07657 -0.848789 0
M  V30 3413 H 321.802 5.05025 1.75652 0
M  V30 3414 H 322.145 3.44122 2.34277 0
M  V30 3415 H 322.678 3.91393 0.71109 0
M  V30 3416 H 319.417 6.50685 -0.793033 0
M  V30 3417 H 318.937 5.94121 0.823445 0
M  V30 3418 H 320.616 6.44945 0.515252 0
M  V30 3419 N 320.748 -0.0735177 1.57428 0
M  V30 3420 C 321.997 -0.771809 1.86349 0
M  V30 3421 C 322.31 -1.78828 0.792452 0
M  V30 3422 O 323.516 -2.53602 0.96945 0
M  V30 3423 C 321.972 -1.42358 3.30548 0
M  V30 3424 C 321.58 -0.445761 4.45777 0
M  V30 3425 C 323.324 -2.10434 3.6867 0
M  V30 3426 C 321.231 -1.10335 5.81016 0
M  V30 3427 H 320.161 -0.291999 0.695164 0
M  V30 3428 H 322.812 -0.0250749 1.83483 0
M  V30 3429 H 321.194 -2.21852 3.28021 0
M  V30 3430 H 322.368 0.319239 4.59693 0
M  V30 3431 H 320.683 0.130457 4.16196 0
M  V30 3432 H 323.28 -2.60405 4.67004 0
M  V30 3433 H 323.623 -2.90298 2.98383 0
M  V30 3434 H 324.156 -1.37773 3.7318 0
M  V30 3435 H 320.895 -0.345061 6.54591 0
M  V30 3436 H 320.415 -1.83925 5.70904 0
M  V30 3437 H 322.094 -1.62367 6.26295 0
M  V30 3438 N 322.226 -1.5378 -0.344866 0
M  V30 3439 C 323.189 -1.80981 -1.40637 0
M  V30 3440 C 324.189 -0.680816 -1.45676 0
M  V30 3441 O 325.379 -0.949095 -1.46075 0
M  V30 3442 C 322.511 -1.95063 -2.79577 0
M  V30 3443 H 323.704 -2.75803 -1.17783 0
M  V30 3444 H 321.257 -1.45173 -0.579181 0
M  V30 3445 H 321.992 -1.02379 -3.07716 0
M  V30 3446 H 321.777 -2.77198 -2.77315 0
M  V30 3447 H 323.267 -2.17629 -3.56409 0
M  V30 3448 N 323.704 0.605807 -1.45491 0
M  V30 3449 C 324.651 1.7164 -1.54299 0
M  V30 3450 C 325.621 1.61486 -0.388761 0
M  V30 3451 O 326.806 1.81039 -0.602445 0
M  V30 3452 C 323.946 3.09953 -1.51734 0
M  V30 3453 C 323.059 3.309 -2.77721 0
M  V30 3454 C 322.194 4.59329 -2.66816 0
M  V30 3455 C 321.233 4.7354 -3.87848 0
M  V30 3456 N 320.37 5.9327 -3.75467 0
M  V30 3457 H 325.21 1.63449 -2.49176 0
M  V30 3458 H 322.747 0.796957 -1.23641 0
M  V30 3459 H 324.705 3.89977 -1.48235 0
M  V30 3460 H 323.335 3.17098 -0.604068 0
M  V30 3461 H 322.387 2.44639 -2.913 0
M  V30 3462 H 323.699 3.37274 -3.67488 0
M  V30 3463 H 322.853 5.4755 -2.61292 0
M  V30 3464 H 321.592 4.55355 -1.74651 0
M  V30 3465 H 320.597 3.83741 -3.93729 0
M  V30 3466 H 321.822 4.79309 -4.81082 0
M  V30 3467 H 319.768 5.90338 -2.86072 0
M  V30 3468 H 319.685 6.00811 -4.5887 0
M  V30 3469 H 320.953 6.83984 -3.73879 0
M  V30 3470 N 325.182 1.32811 0.848464 0
M  V30 3471 C 326.412 1.26556 1.63301 0
M  V30 3472 C 326.82 -0.1676 1.88456 0
M  V30 3473 O 326.163 -1.11713 1.45828 0
M  V30 3474 C 326.225 1.96202 3.01239 0
M  V30 3475 C 325.889 3.45528 2.99098 0
M  V30 3476 C 326.886 4.40903 2.75501 0
M  V30 3477 C 324.571 3.87558 3.19537 0
M  V30 3478 C 326.565 5.76282 2.72356 0
M  V30 3479 C 324.252 5.23044 3.16019 0
M  V30 3480 C 325.25 6.17217 2.92458 0
M  V30 3481 O 324.938 7.50223 2.88825 0
M  V30 3482 H 324.67 0.43771 0.515156 0
M  V30 3483 H 327.224 1.7559 1.0657 0
M  V30 3484 H 325.454 1.41746 3.59785 0
M  V30 3485 H 327.143 1.83573 3.62016 0
M  V30 3486 H 327.909 4.09756 2.5947 0
M  V30 3487 H 323.788 3.14674 3.369 0
M  V30 3488 H 327.332 6.4976 2.53886 0
M  V30 3489 H 323.229 5.53818 3.31596 0
M  V30 3490 H 323.997 7.59657 3.04735 0
M  V30 3491 N 326.66 -1.06551 1.16123 0
M  V30 3492 C 327.59 -2.15935 0.88851 0
M  V30 3493 C 328.571 -1.69306 -0.164135 0
M  V30 3494 O 329.756 -1.94193 -0.0167857 0
M  V30 3495 C 326.886 -3.45149 0.385942 0
M  V30 3496 C 325.84 -4.05271 1.3762 0
M  V30 3497 C 325.166 -5.29664 0.732137 0
M  V30 3498 C 326.466 -4.44355 2.74493 0
M  V30 3499 H 328.16 -2.39006 1.80323 0
M  V30 3500 H 325.706 -1.14866 0.868435 0
M  V30 3501 H 327.659 -4.21004 0.182647 0
M  V30 3502 H 326.383 -3.21689 -0.564274 0
M  V30 3503 H 325.042 -3.3147 1.56599 0
M  V30 3504 H 324.69 -5.02499 -0.224483 0
M  V30 3505 H 324.39 -5.70848 1.39307 0
M  V30 3506 H 325.914 -6.08218 0.538802 0
M  V30 3507 H 327.328 -5.11303 2.59311 0
M  V30 3508 H 325.725 -4.96515 3.37035 0
M  V30 3509 H 326.795 -3.55339 3.29943 0
M  V30 3510 N 328.138 -0.959301 -1.25041 0
M  V30 3511 C 329.101 -0.487677 -2.23952 0
M  V30 3512 C 330.101 0.41119 -1.55454 0
M  V30 3513 O 331.291 0.207825 -1.72956 0
M  V30 3514 C 328.423 0.294807 -3.39623 0
M  V30 3515 H 329.616 -1.36198 -2.67189 0
M  V30 3516 H 327.169 -0.743042 -1.37508 0
M  V30 3517 H 327.904 1.18658 -3.01813 0
M  V30 3518 H 327.689 -0.35012 -3.90534 0
M  V30 3519 H 329.179 0.614089 -4.1306 0
M  V30 3520 N 329.616 1.39756 -0.72842 0
M  V30 3521 C 330.548 2.29157 -0.0446202 0
M  V30 3522 C 331.561 1.46484 0.710367 0
M  V30 3523 O 332.75 1.69632 0.55562 0
M  V30 3524 C 329.85 3.24987 0.961071 0
M  V30 3525 C 329.023 4.36572 0.268967 0
M  V30 3526 C 328.082 5.12756 1.18184 0
M  V30 3527 O 327.108 5.6534 0.661794 0
M  V30 3528 N 328.31 5.23331 2.51206 0
M  V30 3529 H 331.075 2.88482 -0.812295 0
M  V30 3530 H 328.636 1.51265 -0.577098 0
M  V30 3531 H 330.628 3.72827 1.57423 0
M  V30 3532 H 329.198 2.66739 1.63 0
M  V30 3533 H 328.418 3.90694 -0.524574 0
M  V30 3534 H 329.706 5.08363 -0.210934 0
M  V30 3535 H 329.104 4.82116 2.9594 0
M  V30 3536 H 327.661 5.74634 3.07634 0
M  V30 3537 N 331.094 0.475555 1.50254 0
M  V30 3538 C 332.34 -0.0701075 2.03279 0
M  V30 3539 C 332.695 -1.37007 1.35081 0
M  V30 3540 O 331.988 -1.8577 0.469052 0
M  V30 3541 C 332.182 -0.305114 3.56095 0
M  V30 3542 C 332.011 0.970515 4.39103 0
M  V30 3543 C 330.781 1.51509 4.82051 0
M  V30 3544 C 332.979 1.8671 4.79212 0
M  V30 3545 N 330.961 2.73928 5.49397 0
M  V30 3546 C 332.332 2.93715 5.46014 0
M  V30 3547 C 334.387 1.87695 4.61167 0
M  V30 3548 C 333.09 4.01699 5.96683 0
M  V30 3549 C 335.116 2.94637 5.12779 0
M  V30 3550 C 334.478 4.00361 5.79561 0
M  V30 3551 H 330.577 0.014486 0.781866 0
M  V30 3552 H 333.161 0.644755 1.83714 0
M  V30 3553 H 331.332 -0.989019 3.75597 0
M  V30 3554 H 333.064 -0.845516 3.95769 0
M  V30 3555 H 329.819 1.06367 4.61501 0
M  V30 3556 H 330.243 3.36109 5.87673 0
M  V30 3557 H 334.885 1.07273 4.08965 0
M  V30 3558 H 332.603 4.82934 6.4792 0
M  V30 3559 H 336.189 2.96388 5.00645 0
M  V30 3560 H 335.069 4.81751 6.18778 0
M  V30 3561 N 332.573 -1.56217 0.208337 0
M  V30 3562 C 333.803 -2.02043 -0.431523 0
M  V30 3563 C 334.211 -1.08755 -1.54819 0
M  V30 3564 O 333.554 -0.0870009 -1.83494 0
M  V30 3565 C 333.616 -3.44239 -1.03633 0
M  V30 3566 C 333.28 -4.56965 -0.0567502 0
M  V30 3567 C 334.277 -5.14624 0.738773 0
M  V30 3568 C 331.962 -5.02266 0.0581736 0
M  V30 3569 C 333.956 -6.16045 1.63605 0
M  V30 3570 C 331.643 -6.03528 0.959001 0
M  V30 3571 C 332.641 -6.60293 1.7465 0
M  V30 3572 O 332.329 -7.59586 2.6322 0
M  V30 3573 H 332.061 -0.666772 -0.111313 0
M  V30 3574 H 334.615 -2.02919 0.318277 0
M  V30 3575 H 332.845 -3.40391 -1.83497 0
M  V30 3576 H 334.534 -3.73793 -1.58221 0
M  V30 3577 H 335.3 -4.80483 0.660364 0
M  V30 3578 H 331.179 -4.57771 -0.544633 0
M  V30 3579 H 334.723 -6.60279 2.25116 0
M  V30 3580 H 330.62 -6.37092 1.03848 0
M  V30 3581 H 331.388 -7.77057 2.57148 0
M  V30 3582 N 334.051 0.0651679 -1.57465 0
M  V30 3583 C 335.276 0.779605 -1.9219 0
M  V30 3584 C 335.701 1.69988 -0.805333 0
M  V30 3585 O 335.059 1.79685 0.241435 0
M  V30 3586 C 335.107 1.54364 -3.2589 0
M  V30 3587 O 334.211 2.65474 -3.1559 0
M  V30 3588 H 333.552 0.212249 -0.629163 0
M  V30 3589 H 336.082 0.0314294 -2.04576 0
M  V30 3590 H 336.092 1.92146 -3.59922 0
M  V30 3591 H 334.767 0.868457 -4.06732 0
M  V30 3592 H 333.344 2.30501 -2.93128 0
M  V30 3593 N 335.529 1.53961 0.336706 0
M  V30 3594 C 336.439 1.85432 1.43708 0
M  V30 3595 C 337.455 0.745053 1.57242 0
M  V30 3596 O 338.631 1.03804 1.72588 0
M  V30 3597 C 335.696 2.06349 2.78605 0
M  V30 3598 C 334.757 3.30191 2.74358 0
M  V30 3599 C 333.99 3.50101 4.02822 0
M  V30 3600 O 334.213 2.7371 5.00439 0
M  V30 3601 O 333.147 4.43547 4.06878 0
M  V30 3602 H 336.973 2.78975 1.20028 0
M  V30 3603 H 334.558 1.39701 0.52952 0
M  V30 3604 H 336.44 2.21513 3.58483 0
M  V30 3605 H 335.115 1.15995 3.02203 0
M  V30 3606 H 334.022 3.20425 1.93078 0
M  V30 3607 H 335.355 4.2056 2.55715 0
M  V30 3608 N 337.007 -0.598083 1.45811 0
M  V30 3609 C 338.235 -1.38322 1.53866 0
M  V30 3610 C 338.65 -1.87992 0.174479 0
M  V30 3611 O 338.007 -1.62756 -0.825627 0
M  V30 3612 C 338.058 -2.58125 2.53089 0
M  V30 3613 O 337.779 -2.10516 3.84206 0
M  V30 3614 C 339.28 -3.50869 2.70935 0
M  V30 3615 H 336.5 -0.423093 0.520801 0
M  V30 3616 H 339.044 -0.728527 1.91083 0
M  V30 3617 H 337.199 -3.19615 2.18917 0
M  V30 3618 H 337.613 -2.88425 4.38077 0
M  V30 3619 H 339.087 -4.31451 3.44317 0
M  V30 3620 H 339.564 -4.01822 1.77301 0
M  V30 3621 H 340.17 -2.95225 3.06141 0
M  V30 3622 N 338.485 -1.33259 -0.841409 0
M  V30 3623 C 339.433 -1.23279 -1.97244 0
M  V30 3624 C 340.427 -0.134706 -1.68864 0
M  V30 3625 O 341.633 -0.298501 -1.77508 0
M  V30 3626 H 338.008 -0.382497 -0.647457 0
M  V30 3627 H 339.979 -2.18906 -2.02787 0
M  V30 3628 C 338.728 -0.986268 -3.33419 0
M  V30 3629 H 338.051 -1.82347 -3.55794 0
M  V30 3630 H 339.491 -0.956728 -4.13065 0
M  V30 3631 C 337.95 0.310842 -3.35463 0
M  V30 3632 O 338.48 1.31838 -3.79449 0
M  V30 3633 N 336.686 0.337485 -2.88634 0
M  V30 3634 H 336.233 -0.482967 -2.53032 0
M  V30 3635 H 336.191 1.20518 -2.90384 0
M  V30 3636 N 339.963 1.05934 -1.16686 0
M  V30 3637 C 341.211 1.78447 -0.948744 0
M  V30 3638 C 341.532 1.87813 0.524523 0
M  V30 3639 O 340.802 1.38945 1.38098 0
M  V30 3640 H 339.382 0.660971 -0.348033 0
M  V30 3641 H 342.044 1.27947 -1.47022 0
M  V30 3642 H 341.14 2.80394 -1.37061 0
M  V30 3643 N 341.441 0.965919 1.2453 0
M  V30 3644 C 342.857 0.67216 1.44756 0
M  V30 3645 C 343.057 -0.766609 1.86347 0
M  V30 3646 O 342.113 -1.5407 2.00047 0
M  V30 3647 C 343.426 1.65473 2.51076 0
M  V30 3648 C 344.974 1.66716 2.64905 0
M  V30 3649 C 345.449 2.63766 3.74421 0
M  V30 3650 N 346.94 2.62198 3.81846 0
M  V30 3651 C 347.675 3.33966 4.66106 0
M  V30 3652 N 347.171 4.15245 5.54566 0
M  V30 3653 N 348.964 3.22799 4.60171 0
M  V30 3654 H 341.115 1.89553 0.958293 0
M  V30 3655 H 343.378 0.815979 0.482579 0
M  V30 3656 H 343.084 2.68296 2.27399 0
M  V30 3657 H 342.958 1.4261 3.49202 0
M  V30 3658 H 345.345 0.646057 2.87941 0
M  V30 3659 H 345.426 1.93642 1.67142 0
M  V30 3660 H 345.07 3.6601 3.52135 0
M  V30 3661 H 345 2.34121 4.71694 0
M  V30 3662 H 347.491 2.032 3.18619 0
M  V30 3663 H 347.804 4.66898 6.15814 0
M  V30 3664 H 346.149 4.1934 5.54237 0
M  V30 3665 H 349.34 2.58764 3.90075 0
M  V30 3666 H 349.513 3.78994 5.25612 0
M  V30 3667 N 342.919 -1.39368 0.735821 0
M  V30 3668 C 344.168 -1.99733 0.281004 0
M  V30 3669 C 344.481 -1.59055 -1.13846 0
M  V30 3670 O 345.687 -2.12262 -1.69284 0
M  V30 3671 C 344.143 -3.57057 0.451462 0
M  V30 3672 C 343.751 -4.06697 1.87886 0
M  V30 3673 C 345.495 -4.2446 0.0584616 0
M  V30 3674 C 343.402 -5.56598 1.99883 0
M  V30 3675 H 342.332 -0.747163 0.101311 0
M  V30 3676 H 344.983 -1.59357 0.909819 0
M  V30 3677 H 343.365 -3.95234 -0.246263 0
M  V30 3678 H 344.539 -3.79853 2.60861 0
M  V30 3679 H 342.854 -3.5196 2.22515 0
M  V30 3680 H 345.451 -5.34549 0.127099 0
M  V30 3681 H 345.794 -4.04444 -0.986433 0
M  V30 3682 H 346.327 -3.9146 0.707374 0
M  V30 3683 H 343.066 -5.81494 3.02564 0
M  V30 3684 H 342.586 -5.85242 1.31346 0
M  V30 3685 H 344.265 -6.22022 1.78039 0
M  V30 3686 N 344.397 -0.483516 -1.5 0
M  V30 3687 C 345.808 -0.0314176 -1.86674 0
M  V30 3688 C 346.159 1.37728 -1.39733 0
M  V30 3689 O 345.284 2.02327 -0.767635 0
M  V30 3690 C 345.879 -0.0502376 -3.38763 0
M  V30 3691 C 344.438 0.346442 -3.74802 0
M  V30 3692 C 343.585 -0.430366 -2.7394 0
M  V30 3693 H 346.536 -0.697182 -1.42566 0
M  V30 3694 H 346.557 0.749116 -3.73053 0
M  V30 3695 H 346.069 -1.07563 -3.72897 0
M  V30 3696 H 344.17 1.37572 -3.46273 0
M  V30 3697 H 344.283 0.0391486 -4.79084 0
M  V30 3698 H 342.647 0.117557 -2.54429 0
M  V30 3699 H 343.43 -1.4555 -3.10918 0
M  V30 3700 N 345.875 1.56104 -0.216619 0
M  V30 3701 C 346.822 2.2007 0.695531 0
M  V30 3702 C 347.792 1.15471 1.19397 0
M  V30 3703 O 348.977 1.43807 1.25396 0
M  V30 3704 C 346.117 2.88073 1.90021 0
M  V30 3705 C 345.23 4.07253 1.44113 0
M  V30 3706 C 344.365 4.63052 2.603 0
M  V30 3707 C 343.404 5.74545 2.11103 0
M  V30 3708 N 342.541 6.24656 3.20545 0
M  V30 3709 H 347.381 2.97655 0.143327 0
M  V30 3710 H 344.918 1.46982 0.0589934 0
M  V30 3711 H 346.876 3.25681 2.60745 0
M  V30 3712 H 345.506 2.13015 2.42538 0
M  V30 3713 H 344.558 3.75164 0.628999 0
M  V30 3714 H 345.87 4.8783 1.04036 0
M  V30 3715 H 345.024 5.03078 3.39113 0
M  V30 3716 H 343.763 3.81628 3.03663 0
M  V30 3717 H 342.768 5.34027 1.3075 0
M  V30 3718 H 343.993 6.57801 1.68746 0
M  V30 3719 H 341.939 5.46148 3.63399 0
M  V30 3720 H 341.856 7.00343 2.84704 0
M  V30 3721 H 343.124 6.69338 3.99508 0
M  V30 3722 N 347.353 -0.0568162 1.57498 0
M  V30 3723 C 348.581 -0.765626 1.92213 0
M  V30 3724 C 348.996 -1.70353 0.813961 0
M  V30 3725 O 348.353 -1.81268 -0.211701 0
M  V30 3726 C 348.404 -1.5465 3.2675 0
M  V30 3727 O 348.125 -0.646278 4.33307 0
M  V30 3728 C 349.626 -2.35497 3.75574 0
M  V30 3729 H 346.846 -0.216835 0.634999 0
M  V30 3730 H 349.39 -0.0226146 2.04487 0
M  V30 3731 H 347.545 -2.24165 3.15957 0
M  V30 3732 H 347.959 -1.19093 5.108 0
M  V30 3733 H 349.433 -2.85722 4.72299 0
M  V30 3734 H 349.91 -3.15692 3.05344 0
M  V30 3735 H 350.516 -1.7111 3.8936 0
M  V30 3736 N 348.832 -1.54138 -0.328536 0
M  V30 3737 C 350.062 -1.75807 -1.08516 0
M  V30 3738 C 350.47 -0.50428 -1.82356 0
M  V30 3739 O 349.813 0.534451 -1.75754 0
M  V30 3740 C 349.875 -2.89423 -2.13248 0
M  V30 3741 C 349.539 -4.28504 -1.5885 0
M  V30 3742 C 350.536 -5.09536 -1.03289 0
M  V30 3743 C 348.221 -4.75034 -1.63243 0
M  V30 3744 C 350.215 -6.35206 -0.52845 0
M  V30 3745 C 347.902 -6.00672 -1.12411 0
M  V30 3746 C 348.9 -6.80592 -0.573062 0
M  V30 3747 O 348.588 -8.03867 -0.0723692 0
M  V30 3748 H 348.32 -0.590633 -0.328829 0
M  V30 3749 H 350.874 -2.01819 -0.381868 0
M  V30 3750 H 349.104 -2.5897 -2.87178 0
M  V30 3751 H 350.793 -2.98921 -2.74592 0
M  V30 3752 H 351.559 -4.74745 -0.99206 0
M  V30 3753 H 347.438 -4.12875 -2.05074 0
M  V30 3754 H 350.982 -6.97532 -0.0976774 0
M  V30 3755 H 346.879 -6.34955 -1.162 0
M  V30 3756 H 347.647 -8.18283 -0.188258 0
M  V30 3757 N 350.31 0.590341 -1.46126 0
M  V30 3758 C 351.257 1.69994 -1.56111 0
M  V30 3759 C 352.227 1.61065 -0.405867 0
M  V30 3760 O 353.412 1.8039 -0.621613 0
M  V30 3761 C 350.552 3.08326 -1.55013 0
M  V30 3762 C 349.665 3.27936 -2.81215 0
M  V30 3763 C 348.8 4.56473 -2.71673 0
M  V30 3764 C 347.839 4.694 -3.92849 0
M  V30 3765 N 346.976 5.89254 -3.81738 0
M  V30 3766 H 351.816 1.60797 -2.50895 0
M  V30 3767 H 349.353 0.783799 -1.24479 0
M  V30 3768 H 351.311 3.88383 -1.52362 0
M  V30 3769 H 349.941 3.16439 -0.637667 0
M  V30 3770 H 348.993 2.41536 -2.93879 0
M  V30 3771 H 350.305 3.33357 -3.71045 0
M  V30 3772 H 349.459 5.44748 -2.67085 0
M  V30 3773 H 348.198 4.53477 -1.7947 0
M  V30 3774 H 347.203 3.79544 -3.97777 0
M  V30 3775 H 348.428 4.7418 -4.86138 0
M  V30 3776 H 346.374 5.87271 -2.92317 0
M  V30 3777 H 346.291 5.95911 -4.65217 0
M  V30 3778 H 347.559 6.79981 -3.81112 0
M  V30 3779 N 351.788 1.33704 0.83433 0
M  V30 3780 C 352.698 1.26382 1.97648 0
M  V30 3781 C 353.714 0.173548 1.73132 0
M  V30 3782 O 354.89 0.397962 1.97429 0
M  V30 3783 C 351.955 1.00769 3.31733 0
M  V30 3784 C 351.016 2.1884 3.69334 0
M  V30 3785 C 350.249 1.9444 4.9702 0
M  V30 3786 O 350.472 0.896961 5.63303 0
M  V30 3787 O 349.406 2.81093 5.32231 0
M  V30 3788 H 353.232 2.22444 2.06767 0
M  V30 3789 H 350.817 1.13795 0.968037 0
M  V30 3790 H 352.699 0.882186 4.12062 0
M  V30 3791 H 351.374 0.0773783 3.23608 0
M  V30 3792 H 350.281 2.36946 2.89495 0
M  V30 3793 H 351.614 3.10221 3.82131 0
M  V30 3794 N 353.266 -1.05314 1.17247 0
M  V30 3795 C 354.213 -2.13031 0.888058 0
M  V30 3796 C 355.183 -1.65253 -0.167537 0
M  V30 3797 O 356.368 -1.90775 -0.0305974 0
M  V30 3798 C 353.508 -3.42702 0.406147 0
M  V30 3799 C 352.621 -4.04161 1.52572 0
M  V30 3800 C 351.756 -5.21744 0.997808 0
M  V30 3801 C 350.795 -5.75207 2.09291 0
M  V30 3802 N 349.932 -6.84094 1.57986 0
M  V30 3803 H 354.772 -2.36698 1.81048 0
M  V30 3804 H 352.309 -1.16121 0.903013 0
M  V30 3805 H 354.267 -4.17059 0.108305 0
M  V30 3806 H 352.897 -3.19222 -0.479313 0
M  V30 3807 H 351.949 -3.27253 1.93931 0
M  V30 3808 H 353.261 -4.39881 2.35172 0
M  V30 3809 H 352.415 -6.03168 0.653739 0
M  V30 3810 H 351.154 -4.87495 0.141232 0
M  V30 3811 H 350.159 -4.92414 2.44557 0
M  V30 3812 H 351.384 -6.11505 2.95362 0
M  V30 3813 H 349.33 -6.51745 0.74598 0
M  V30 3814 H 349.247 -7.18811 2.34195 0
M  V30 3815 H 350.515 -7.69172 1.26468 0
M  V30 3816 N 354.744 -0.972509 -1.24016 0
M  V30 3817 C 355.654 -0.5143 -2.28893 0
M  V30 3818 C 356.67 0.427078 -1.68677 0
M  V30 3819 O 357.846 0.298939 -1.99169 0
M  V30 3820 C 354.911 0.183598 -3.46214 0
M  V30 3821 C 353.972 -0.798202 -4.21814 0
M  V30 3822 C 353.205 -0.133514 -5.33533 0
M  V30 3823 O 353.428 1.07714 -5.60137 0
M  V30 3824 O 352.362 -0.828103 -5.96176 0
M  V30 3825 H 356.188 -1.38629 -2.70214 0
M  V30 3826 H 353.773 -0.739769 -1.29799 0
M  V30 3827 H 355.655 0.575433 -4.17453 0
M  V30 3828 H 354.33 1.03048 -3.0686 0
M  V30 3829 H 353.237 -1.24059 -3.52931 0
M  V30 3830 H 354.57 -1.61364 -4.64997 0
M  V30 3831 N 356.222 1.38976 -0.743202 0
M  V30 3832 C 357.499 1.94351 -0.220705 0
M  V30 3833 C 357.879 1.67935 1.2791 0
M  V30 3834 O 357.227 1.01211 2.04862 0
M  V30 3835 C 357.437 3.44426 -0.563171 0
M  V30 3836 C 358.785 4.2144 -0.517046 0
M  V30 3837 O 359.809 3.52661 -0.500846 0
M  V30 3838 O 358.668 5.44032 -0.518806 0
M  V30 3839 H 355.762 0.825879 -0.043047 0
M  V30 3840 H 358.308 1.48429 -0.822618 0
M  V30 3841 H 357.08 3.5712 -1.59941 0
M  V30 3842 H 356.703 3.97543 0.0672883 0
M  V30 3843 N 357.7 0.491464 1.49741 0
M  V30 3844 C 358.947 -0.0564256 2.02421 0
M  V30 3845 C 359.275 -1.37872 1.37192 0
M  V30 3846 O 358.53 -1.89375 0.493508 0
M  V30 3847 C 358.829 -0.267329 3.56399 0
M  V30 3848 C 358.495 0.975775 4.40215 0
M  V30 3849 C 357.157 1.31655 4.62839 0
M  V30 3850 C 359.509 1.80251 4.89039 0
M  V30 3851 C 356.837 2.48375 5.31532 0
M  V30 3852 C 359.189 2.96116 5.59015 0
M  V30 3853 C 357.853 3.30585 5.79888 0
M  V30 3854 H 357.123 -0.0206476 0.740712 0
M  V30 3855 H 359.77 0.649686 1.80143 0
M  V30 3856 H 358.075 -1.05588 3.77304 0
M  V30 3857 H 359.772 -0.705549 3.94744 0
M  V30 3858 H 356.362 0.700315 4.2284 0
M  V30 3859 H 360.546 1.55239 4.71396 0
M  V30 3860 H 355.802 2.7533 5.45897 0
M  V30 3861 H 359.976 3.60509 5.95824 0
M  V30 3862 H 357.603 4.21132 6.32892 0
M  V30 3863 N 359.178 -1.55987 0.224894 0
M  V30 3864 C 360.594 -1.59066 -0.130426 0
M  V30 3865 C 360.794 -1.24176 -1.5869 0
M  V30 3866 O 359.85 -0.978592 -2.32766 0
M  V30 3867 C 361.163 -3.00042 0.198883 0
M  V30 3868 C 362.711 -3.1268 0.141391 0
M  V30 3869 C 363.186 -4.55839 0.444422 0
M  V30 3870 N 364.677 -4.6152 0.394115 0
M  V30 3871 C 365.412 -5.70231 0.602038 0
M  V30 3872 N 364.908 -6.87291 0.871914 0
M  V30 3873 N 366.701 -5.59555 0.534245 0
M  V30 3874 H 358.852 -1.76941 1.17497 0
M  V30 3875 H 361.115 -0.822604 0.471197 0
M  V30 3876 H 360.821 -3.30234 1.2099 0
M  V30 3877 H 360.695 -3.74075 -0.484535 0
M  V30 3878 H 363.082 -2.82283 -0.860265 0
M  V30 3879 H 363.163 -2.40969 0.858335 0
M  V30 3880 H 362.807 -4.86954 1.44353 0
M  V30 3881 H 362.737 -5.2578 -0.293752 0
M  V30 3882 H 365.228 -3.77405 0.193356 0
M  V30 3883 H 365.541 -7.66058 1.01858 0
M  V30 3884 H 363.886 -6.89028 0.909145 0
M  V30 3885 H 367.077 -4.6698 0.323612 0
M  V30 3886 H 367.25 -6.44211 0.699693 0
M  V30 3887 N 360.656 0.0484629 -1.57525 0
M  V30 3888 C 361.933 0.777447 -1.79486 0
M  V30 3889 C 362.313 1.94597 -0.818251 0
M  V30 3890 O 361.661 2.28047 0.143767 0
M  V30 3891 C 361.871 1.22864 -3.26658 0
M  V30 3892 C 363.219 1.65251 -3.91123 0
M  V30 3893 O 364.243 1.32372 -3.3069 0
M  V30 3894 O 363.102 2.26207 -4.97486 0
M  V30 3895 H 360.196 0.374357 -0.737419 0
M  V30 3896 H 362.742 0.0267359 -1.69679 0
M  V30 3897 H 361.514 0.393589 -3.89316 0
M  V30 3898 H 361.137 2.03996 -3.41279 0
M  V30 3899 N 362.134 1.5431 0.320358 0
M  V30 3900 C 363.064 1.86912 1.3995 0
M  V30 3901 C 364.045 0.726211 1.53819 0
M  V30 3902 O 365.23 0.980233 1.67646 0
M  V30 3903 C 362.36 2.09932 2.7667 0
M  V30 3904 C 361.314 3.25776 2.77586 0
M  V30 3905 C 360.64 3.34173 4.17412 0
M  V30 3906 C 361.94 4.6335 2.41048 0
M  V30 3907 H 363.634 2.77292 1.12914 0
M  V30 3908 H 361.18 1.33421 0.541738 0
M  V30 3909 H 363.133 2.31324 3.52232 0
M  V30 3910 H 361.857 1.16304 3.0519 0
M  V30 3911 H 360.516 3.04276 2.04479 0
M  V30 3912 H 360.164 2.38098 4.43078 0
M  V30 3913 H 359.864 4.12033 4.18931 0
M  V30 3914 H 361.388 3.57803 4.94782 0
M  V30 3915 H 362.802 4.84602 3.06324 0
M  V30 3916 H 361.199 5.43782 2.53813 0
M  V30 3917 H 362.269 4.65381 1.36193 0
M  V30 3918 N 363.613 -0.582584 1.46437 0
M  V30 3919 C 364.862 -1.337 1.5102 0
M  V30 3920 C 365.175 -1.94891 0.166359 0
M  V30 3921 O 366.381 -2.71351 0.0899954 0
M  V30 3922 C 364.837 -2.42315 2.66104 0
M  V30 3923 C 364.445 -1.87427 4.06909 0
M  V30 3924 C 366.189 -3.19099 2.79958 0
M  V30 3925 C 364.096 -2.93672 5.13333 0
M  V30 3926 H 363.026 -0.502619 0.562041 0
M  V30 3927 H 365.677 -0.621701 1.72647 0
M  V30 3928 H 364.059 -3.16645 2.37807 0
M  V30 3929 H 365.233 -1.19639 4.44998 0
M  V30 3930 H 363.548 -1.2331 3.97723 0
M  V30 3931 H 366.145 -3.9839 3.56636 0
M  V30 3932 H 366.488 -3.71695 1.87479 0
M  V30 3933 H 367.021 -2.51875 3.07902 0
M  V30 3934 H 363.76 -2.45962 6.07604 0
M  V30 3935 H 363.28 -3.59948 4.79789 0
M  V30 3936 H 364.959 -3.5762 5.39182 0
M  V30 3937 N 365.091 -1.34144 -0.827227 0
M  V30 3938 C 366.507 -1.13732 -1.11969 0
M  V30 3939 C 366.707 0.0640463 -2.01398 0
M  V30 3940 O 365.763 0.740856 -2.41387 0
M  V30 3941 C 367.076 -2.43047 -1.77055 0
M  V30 3942 C 368.624 -2.49063 -1.89569 0
M  V30 3943 C 369.099 -3.78369 -2.58072 0
M  V30 3944 N 370.59 -3.79505 -2.65575 0
M  V30 3945 C 371.325 -4.76274 -3.19297 0
M  V30 3946 N 370.821 -5.83424 -3.73616 0
M  V30 3947 N 372.614 -4.63735 -3.17658 0
M  V30 3948 H 364.765 -2.11126 -0.232296 0
M  V30 3949 H 367.028 -0.933424 -0.165602 0
M  V30 3950 H 366.734 -3.31025 -1.18807 0
M  V30 3951 H 366.608 -2.56066 -2.76966 0
M  V30 3952 H 368.995 -1.61527 -2.46968 0
M  V30 3953 H 369.076 -2.39975 -0.885745 0
M  V30 3954 H 368.72 -4.66293 -2.01329 0
M  V30 3955 H 368.65 -3.84737 -3.59562 0
M  V30 3956 H 371.141 -3.02074 -2.27068 0
M  V30 3957 H 371.454 -6.53282 -4.12846 0
M  V30 3958 H 369.799 -5.87143 -3.71871 0
M  V30 3959 H 372.99 -3.79177 -2.74486 0
M  V30 3960 H 373.163 -5.39318 -3.59221 0
M  V30 3961 N 366.569 1.04691 -1.17803 0
M  V30 3962 C 367.501 2.12571 -0.857097 0
M  V30 3963 C 368.514 1.62174 0.142647 0
M  V30 3964 O 369.703 1.78301 -0.0843387 0
M  V30 3965 C 366.803 3.37915 -0.258216 0
M  V30 3966 C 365.976 4.1757 -1.30207 0
M  V30 3967 C 365.035 5.2125 -0.720029 0
M  V30 3968 O 364.061 5.51888 -1.39314 0
M  V30 3969 N 365.263 5.78466 0.485507 0
M  V30 3970 H 368.028 2.40698 -1.78562 0
M  V30 3971 H 365.589 1.20831 -1.07757 0
M  V30 3972 H 367.581 4.04442 0.144584 0
M  V30 3973 H 366.151 3.07281 0.574199 0
M  V30 3974 H 365.371 3.46458 -1.88043 0
M  V30 3975 H 366.659 4.67586 -2.00601 0
M  V30 3976 H 366.057 5.55866 1.05022 0
M  V30 3977 H 364.614 6.4649 0.830307 0
M  V30 3978 N 368.047 0.979072 1.23499 0
M  V30 3979 C 369.295 0.645941 1.91499 0
M  V30 3980 C 369.616 -0.822948 1.76784 0
M  V30 3981 O 368.886 -1.58854 1.14639 0
M  V30 3982 H 367.466 0.235919 0.708767 0
M  V30 3983 H 370.128 1.2426 1.50152 0
M  V30 3984 H 369.224 0.896411 2.9895 0
M  V30 3985 N 369.525 -1.3858 0.750561 0
M  V30 3986 C 370.774 -1.99424 0.302172 0
M  V30 3987 C 371.087 -1.60254 -1.12152 0
M  V30 3988 O 372.293 -2.14046 -1.67023 0
M  V30 3989 C 370.749 -3.56558 0.489307 0
M  V30 3990 C 370.357 -4.04682 1.92189 0
M  V30 3991 C 372.101 -4.24374 0.103478 0
M  V30 3992 C 370.008 -5.54446 2.05775 0
M  V30 3993 H 368.938 -0.746046 0.10923 0
M  V30 3994 H 371.589 -1.58383 0.92667 0
M  V30 3995 H 369.971 -3.95472 -0.204329 0
M  V30 3996 H 371.145 -3.77065 2.64875 0
M  V30 3997 H 369.46 -3.4958 2.26236 0
M  V30 3998 H 372.057 -5.34384 0.183787 0
M  V30 3999 H 372.4 -4.05468 -0.943481 0
M  V30 4000 H 372.933 -3.90688 0.748854 0
M  V30 4001 H 369.672 -5.78252 3.08714 0
M  V30 4002 H 369.192 -5.83816 1.37546 0
M  V30 4003 H 370.871 -6.20099 1.84626 0
M  V30 4004 N 371.003 -0.499398 -1.49478 0
M  V30 4005 C 371.933 0.269244 -2.31943 0
M  V30 4006 C 372.914 0.964054 -1.40143 0
M  V30 4007 O 374.099 0.955767 -1.69052 0
M  V30 4008 C 371.229 1.33504 -3.20615 0
M  V30 4009 C 370.183 0.760202 -4.21195 0
M  V30 4010 C 369.509 1.9264 -4.98792 0
M  V30 4011 C 370.809 -0.247661 -5.21712 0
M  V30 4012 H 372.503 -0.419082 -2.96452 0
M  V30 4013 H 370.049 -0.202988 -1.42562 0
M  V30 4014 H 372.002 1.88048 -3.77115 0
M  V30 4015 H 370.726 2.05253 -2.54045 0
M  V30 4016 H 369.385 0.23653 -3.65836 0
M  V30 4017 H 369.033 2.63154 -4.28671 0
M  V30 4018 H 368.733 1.54785 -5.66847 0
M  V30 4019 H 370.257 2.4762 -5.58137 0
M  V30 4020 H 371.671 0.209579 -5.72917 0
M  V30 4021 H 370.068 -0.541962 -5.97648 0
M  V30 4022 H 371.138 -1.16409 -4.7072 0
M  V30 4023 N 372.481 1.55866 -0.233164 0
M  V30 4024 C 373.428 2.20796 0.67215 0
M  V30 4025 C 374.398 1.16731 1.18166 0
M  V30 4026 O 375.583 1.45129 1.23864 0
M  V30 4027 C 372.723 2.90072 1.86955 0
M  V30 4028 C 371.836 4.08759 1.39786 0
M  V30 4029 C 370.971 4.65787 2.55374 0
M  V30 4030 C 370.01 5.76752 2.04998 0
M  V30 4031 N 369.147 6.28021 3.13901 0
M  V30 4032 H 373.987 2.9779 0.111749 0
M  V30 4033 H 371.524 1.47036 0.0434007 0
M  V30 4034 H 373.482 3.28428 2.57276 0
M  V30 4035 H 372.112 2.15575 2.40265 0
M  V30 4036 H 371.164 3.7581 0.589173 0
M  V30 4037 H 372.476 4.88906 0.98856 0
M  V30 4038 H 371.63 5.06646 3.33758 0
M  V30 4039 H 370.369 3.84828 2.99598 0
M  V30 4040 H 369.374 5.35383 1.25079 0
M  V30 4041 H 370.599 6.59553 1.61759 0
M  V30 4042 H 368.545 5.49971 3.57586 0
M  V30 4043 H 368.462 7.03323 2.7726 0
M  V30 4044 H 369.73 6.73538 3.92386 0
M  V30 4045 N 373.959 -0.0401083 1.57549 0
M  V30 4046 C 374.907 -1.06264 2.06908 0
M  V30 4047 C 375.901 -1.38132 0.980608 0
M  V30 4048 O 377.107 -1.37167 1.16556 0
M  V30 4049 H 373.482 -0.360166 0.660139 0
M  V30 4050 H 375.453 -0.620445 2.91878 0
M  V30 4051 C 374.202 -2.35846 2.55483 0
M  V30 4052 H 373.525 -2.12183 3.38849 0
M  V30 4053 H 374.965 -3.05765 2.93741 0
M  V30 4054 C 373.424 -3.0404 1.45126 0
M  V30 4055 O 373.954 -3.93424 0.811216 0
M  V30 4056 N 372.16 -2.65184 1.18852 0
M  V30 4057 H 371.707 -1.92584 1.71083 0
M  V30 4058 H 371.665 -3.1113 0.452244 0
M  V30 4059 N 375.437 -1.54477 -0.31217 0
M  V30 4060 C 376.347 -1.87695 -1.4074 0
M  V30 4061 C 377.363 -0.769975 -1.56036 0
M  V30 4062 O 378.539 -1.06537 -1.70915 0
M  V30 4063 C 375.604 -2.10755 -2.75287 0
M  V30 4064 C 374.665 -3.34514 -2.69071 0
M  V30 4065 C 373.898 -3.56465 -3.97201 0
M  V30 4066 O 374.121 -2.81637 -4.96021 0
M  V30 4067 O 373.055 -4.49964 -3.9977 0
M  V30 4068 H 376.881 -2.80849 -1.15574 0
M  V30 4069 H 374.466 -1.40526 -0.507228 0
M  V30 4070 H 376.348 -2.27188 -3.54913 0
M  V30 4071 H 375.023 -1.20788 -3.0032 0
M  V30 4072 H 373.93 -3.23456 -1.87955 0
M  V30 4073 H 375.263 -4.24575 -2.48992 0
M  V30 4074 N 376.915 0.57481 -1.46744 0
M  V30 4075 C 377.863 1.70435 -1.58286 0
M  V30 4076 C 378.857 1.63287 -0.450956 0
M  V30 4077 O 380.063 1.68685 -0.628121 0
M  V30 4078 H 376.438 0.56364 -0.497809 0
M  V30 4079 H 378.409 1.57833 -2.53242 0
M  V30 4080 C 377.158 3.08815 -1.59776 0
M  V30 4081 H 376.481 3.1499 -2.46214 0
M  V30 4082 H 377.921 3.87588 -1.71905 0
M  V30 4083 C 376.38 3.35301 -0.327812 0
M  V30 4084 O 376.91 3.97511 0.57861 0
M  V30 4085 N 375.116 2.89816 -0.213274 0
M  V30 4086 H 374.663 2.39371 -0.951798 0
M  V30 4087 H 374.621 3.0791 0.63553 0
M  V30 4088 N 378.394 1.34581 0.820102 0
M  V30 4089 C 379.642 1.26845 1.57336 0
M  V30 4090 C 379.963 -0.160667 1.94337 0
M  V30 4091 O 379.233 -1.09396 1.6251 0
M  V30 4092 H 377.813 0.466514 0.583415 0
M  V30 4093 H 380.475 1.68526 0.979027 0
M  V30 4094 H 379.571 1.87513 2.4949 0
M  V30 4095 N 379.872 -1.04064 1.18357 0
M  V30 4096 C 380.835 -2.10243 0.912707 0
M  V30 4097 C 381.835 -1.60477 -0.101928 0
M  V30 4098 O 383.025 -1.73703 0.131517 0
M  V30 4099 C 380.157 -3.38893 0.369387 0
M  V30 4100 H 381.35 -2.35706 1.85426 0
M  V30 4101 H 378.903 -1.20489 0.995594 0
M  V30 4102 H 379.638 -3.19094 -0.578776 0
M  V30 4103 H 379.423 -3.76331 1.1008 0
M  V30 4104 H 380.913 -4.17128 0.198575 0
M  V30 4105 N 381.35 -0.985608 -1.22978 0
M  V30 4106 C 382.761 -0.693593 -1.73338 0
M  V30 4107 C 383.112 0.789935 -1.79595 0
M  V30 4108 O 382.237 1.61771 -1.43733 0
M  V30 4109 C 382.832 -1.25235 -3.14804 0
M  V30 4110 C 381.391 -1.00987 -3.626 0
M  V30 4111 C 380.538 -1.37695 -2.40698 0
M  V30 4112 H 383.489 -1.15884 -1.08428 0
M  V30 4113 H 383.51 -0.627329 -3.75293 0
M  V30 4114 H 383.022 -2.33209 -3.10218 0
M  V30 4115 H 381.123 0.0535565 -3.72562 0
M  V30 4116 H 381.236 -1.66812 -4.49122 0
M  V30 4117 H 379.6 -0.795459 -2.4196 0
M  V30 4118 H 380.383 -2.46657 -2.38779 0
M  V30 4119 N 382.828 1.3818 -0.7579 0
M  V30 4120 C 383.738 2.3421 -0.135247 0
M  V30 4121 C 384.754 1.59487 0.695683 0
M  V30 4122 O 385.93 1.91657 0.618832 0
M  V30 4123 C 382.995 3.3862 0.744139 0
M  V30 4124 C 382.056 4.2918 -0.101658 0
M  V30 4125 C 381.289 5.28603 0.735851 0
M  V30 4126 O 381.512 5.35166 1.97366 0
M  V30 4127 O 380.446 6.01707 0.152372 0
M  V30 4128 H 384.272 2.8916 -0.928436 0
M  V30 4129 H 381.857 1.40101 -0.518855 0
M  V30 4130 H 383.739 4.02539 1.2466 0
M  V30 4131 H 382.414 2.86019 1.51575 0
M  V30 4132 H 381.321 3.68407 -0.650167 0
M  V30 4133 H 382.654 4.85048 -0.836024 0
M  V30 4134 N 384.306 0.507319 1.49211 0
M  V30 4135 C 385.583 -0.0982702 1.95353 0
M  V30 4136 C 385.963 -1.53516 1.449 0
M  V30 4137 O 385.311 -2.18594 0.66551 0
M  V30 4138 C 385.521 -0.00440283 3.49 0
M  V30 4139 C 386.869 -0.175147 4.24239 0
M  V30 4140 O 387.893 -0.0792891 3.56112 0
M  V30 4141 O 386.752 -0.37276 5.45227 0
M  V30 4142 H 383.846 -0.0918236 0.821887 0
M  V30 4143 H 386.392 0.570307 1.5983 0
M  V30 4144 H 385.164 0.997402 3.78375 0
M  V30 4145 H 384.787 -0.712845 3.91158 0
M  V30 4146 N 385.784 -1.5574 0.241426 0
M  V30 4147 C 386.694 -2.2479 -0.671305 0
M  V30 4148 C 387.71 -1.26217 -1.19772 0
M  V30 4149 O 388.886 -1.59079 -1.23514 0
M  V30 4150 C 385.951 -2.92966 -1.85396 0
M  V30 4151 C 385.012 -4.06935 -1.36756 0
M  V30 4152 C 384.245 -4.71851 -2.49384 0
M  V30 4153 O 384.468 -4.35823 -3.67987 0
M  V30 4154 O 383.402 -5.60467 -2.19454 0
M  V30 4155 H 387.228 -3.0349 -0.112966 0
M  V30 4156 H 384.813 -1.49397 0.0101513 0
M  V30 4157 H 386.695 -3.35927 -2.54423 0
M  V30 4158 H 385.37 -2.17211 -2.40002 0
M  V30 4159 H 384.277 -3.68503 -0.644726 0
M  V30 4160 H 385.61 -4.84492 -0.867647 0
M  V30 4161 N 387.262 0.0317525 -1.57568 0
M  V30 4162 C 388.172 1.05021 -2.0978 0
M  V30 4163 C 389.188 1.39809 -1.03583 0
M  V30 4164 O 390.364 1.49182 -1.35302 0
M  V30 4165 C 387.429 2.33301 -2.56459 0
M  V30 4166 C 386.49 2.0512 -3.77127 0
M  V30 4167 C 385.723 3.27283 -4.2157 0
M  V30 4168 O 385.946 4.37861 -3.65559 0
M  V30 4169 O 384.88 3.13141 -5.14029 0
M  V30 4170 H 388.706 0.636505 -2.96955 0
M  V30 4171 H 386.291 0.248559 -1.47318 0
M  V30 4172 H 388.173 3.08722 -2.86825 0
M  V30 4173 H 386.848 2.73973 -1.72397 0
M  V30 4174 H 385.755 1.27276 -3.51784 0
M  V30 4175 H 387.088 1.69305 -4.62165 0
M  V30 4176 N 388.74 1.54641 0.303973 0
M  V30 4177 C 389.688 1.86137 1.39484 0
M  V30 4178 C 390.682 0.734854 1.52631 0
M  V30 4179 O 391.888 0.918803 1.54784 0
M  V30 4180 H 388.263 0.590324 0.465856 0
M  V30 4181 H 390.234 2.77324 1.10154 0
M  V30 4182 C 388.983 2.12274 2.75382 0
M  V30 4183 H 388.306 2.98429 2.66046 0
M  V30 4184 H 389.746 2.38254 3.5073 0
M  V30 4185 C 388.205 0.920365 3.24085 0
M  V30 4186 O 388.735 0.139377 4.01458 0
M  V30 4187 N 386.941 0.726566 2.81371 0
M  V30 4188 H 386.488 1.36332 2.18567 0
M  V30 4189 H 386.446 -0.0763799 3.14307 0
M  V30 4190 N 390.218 -0.567019 1.47046 0
M  V30 4191 C 391.465 -1.32462 1.53167 0
M  V30 4192 C 391.793 -1.93571 0.189841 0
M  V30 4193 O 391.048 -1.77865 -0.816243 0
M  V30 4194 C 391.347 -2.4623 2.59047 0
M  V30 4195 C 391.013 -2.03014 4.02612 0
M  V30 4196 C 389.675 -1.90944 4.41694 0
M  V30 4197 C 392.027 -1.69895 4.92732 0
M  V30 4198 C 389.355 -1.44035 5.68745 0
M  V30 4199 C 391.707 -1.2446 6.20236 0
M  V30 4200 C 390.371 -1.10979 6.5821 0
M  V30 4201 H 389.641 -0.484713 0.560477 0
M  V30 4202 H 392.288 -0.636888 1.80599 0
M  V30 4203 H 390.593 -3.20517 2.25335 0
M  V30 4204 H 392.29 -3.04427 2.61008 0
M  V30 4205 H 388.88 -2.13348 3.71726 0
M  V30 4206 H 393.064 -1.78098 4.63244 0
M  V30 4207 H 388.32 -1.32254 5.96925 0
M  V30 4208 H 392.494 -0.978924 6.89485 0
M  V30 4209 H 390.121 -0.744078 7.5655 0
M  V30 4210 N 391.696 -1.35014 -0.812953 0
M  V30 4211 C 392.606 -1.2951 -1.95613 0
M  V30 4212 C 393.622 -0.20107 -1.72834 0
M  V30 4213 O 394.798 -0.42932 -1.96771 0
M  V30 4214 C 391.863 -1.06033 -3.30088 0
M  V30 4215 C 390.924 -2.24688 -3.65805 0
M  V30 4216 C 390.157 -2.02322 -4.93864 0
M  V30 4217 O 390.38 -0.986464 -5.61805 0
M  V30 4218 O 389.314 -2.89525 -5.27692 0
M  V30 4219 H 393.14 -2.25705 -2.03202 0
M  V30 4220 H 390.725 -1.15321 -0.949811 0
M  V30 4221 H 392.607 -0.94763 -4.10607 0
M  V30 4222 H 391.282 -0.128852 -3.23443 0
M  V30 4223 H 390.189 -2.41521 -2.85689 0
M  V30 4224 H 391.522 -3.16261 -3.77147 0
M  V30 4225 N 393.175 1.03435 -1.18907 0
M  V30 4226 C 394.085 2.15075 -0.937015 0
M  V30 4227 C 395.101 1.73706 0.101085 0
M  V30 4228 O 396.277 2.01232 -0.0822948 0
M  V30 4229 C 393.342 3.43458 -0.473057 0
M  V30 4230 C 392.403 3.99172 -1.57989 0
M  V30 4231 C 391.636 5.21427 -1.13797 0
M  V30 4232 O 391.859 5.704 0.000725941 0
M  V30 4233 O 390.793 5.69837 -1.9383 0
M  V30 4234 H 394.619 2.39198 -1.87131 0
M  V30 4235 H 392.204 1.13506 -0.971427 0
M  V30 4236 H 394.086 4.20811 -0.222702 0
M  V30 4237 H 392.761 3.20793 0.432869 0
M  V30 4238 H 391.668 3.23178 -1.88433 0
M  V30 4239 H 393.001 4.2619 -2.46217 0
M  V30 4240 N 394.653 0.992116 1.22453 0
M  V30 4241 C 395.616 0.546883 2.2258 0
M  V30 4242 C 396.616 -0.369829 1.56489 0
M  V30 4243 O 397.806 -0.161896 1.73446 0
M  V30 4244 C 394.938 -0.204659 3.40285 0
M  V30 4245 H 396.131 1.43234 2.63484 0
M  V30 4246 H 393.684 0.779239 1.3549 0
M  V30 4247 H 394.419 -1.10614 3.04853 0
M  V30 4248 H 394.204 0.45354 3.89468 0
M  V30 4249 H 395.694 -0.504358 4.14543 0
M  V30 4250 N 396.131 -1.37776 0.765217 0
M  V30 4251 C 397.38 -1.99092 0.323307 0
M  V30 4252 C 397.693 -1.61434 -1.10446 0
M  V30 4253 O 398.899 -2.15805 -1.64743 0
M  V30 4254 C 397.355 -3.56019 0.527098 0
M  V30 4255 C 396.963 -4.0262 1.96471 0
M  V30 4256 C 398.707 -4.2424 0.148483 0
M  V30 4257 C 396.614 -5.52233 2.11644 0
M  V30 4258 H 395.544 -0.744846 0.117137 0
M  V30 4259 H 398.195 -1.57391 0.943417 0
M  V30 4260 H 396.577 -3.95667 -0.162372 0
M  V30 4261 H 397.751 -3.74234 2.68859 0
M  V30 4262 H 396.066 -3.47161 2.29931 0
M  V30 4263 H 398.663 -5.34159 0.240456 0
M  V30 4264 H 399.006 -4.06446 -0.900422 0
M  V30 4265 H 399.539 -3.89872 0.79025 0
M  V30 4266 H 396.278 -5.74945 3.1483 0
M  V30 4267 H 395.798 -5.82324 1.4373 0
M  V30 4268 H 397.477 -6.18106 1.91193 0
M  V30 4269 N 397.609 -0.515225 -1.4894 0
M  V30 4270 C 398.556 0.255567 -2.29381 0
M  V30 4271 C 399.526 0.947387 -1.36432 0
M  V30 4272 O 400.711 0.951288 -1.65394 0
M  V30 4273 C 397.851 1.30551 -3.19453 0
M  V30 4274 C 396.964 0.624029 -4.27469 0
M  V30 4275 C 396.099 1.65563 -5.0474 0
M  V30 4276 C 395.138 0.956802 -6.04576 0
M  V30 4277 N 394.275 1.93326 -6.74959 0
M  V30 4278 H 399.115 -0.436607 -2.94784 0
M  V30 4279 H 396.652 -0.227154 -1.45336 0
M  V30 4280 H 398.61 1.92639 -3.70062 0
M  V30 4281 H 397.24 1.96626 -2.56004 0
M  V30 4282 H 396.292 -0.110459 -3.8024 0
M  V30 4283 H 397.604 0.0746092 -4.98744 0
M  V30 4284 H 396.758 2.35119 -5.59289 0
M  V30 4285 H 395.497 2.23893 -4.3327 0
M  V30 4286 H 394.502 0.247097 -5.49244 0
M  V30 4287 H 395.727 0.379814 -6.78037 0
M  V30 4288 H 393.673 2.50591 -6.06251 0
M  V30 4289 H 393.59 1.43489 -7.42258 0
M  V30 4290 H 394.858 2.62126 -7.34105 0
M  V30 4291 N 399.087 1.5561 -0.249682 0
M  V30 4292 C 400.035 2.22894 0.664906 0
M  V30 4293 C 401.029 1.21743 1.17792 0
M  V30 4294 O 402.235 1.39748 1.13449 0
M  V30 4295 H 398.61 0.715022 0.232912 0
M  V30 4296 H 400.581 2.98307 0.0742998 0
M  V30 4297 C 399.33 2.94424 1.84959 0
M  V30 4298 H 398.653 3.72031 1.46399 0
M  V30 4299 H 400.093 3.44862 2.4667 0
M  V30 4300 C 398.552 1.98454 2.72245 0
M  V30 4301 O 399.082 1.51939 3.71857 0
M  V30 4302 N 397.288 1.65496 2.38871 0
M  V30 4303 H 396.835 2.03517 1.57919 0
M  V30 4304 H 396.793 1.0155 2.97548 0
M  V30 4305 N 400.565 -0.0233959 1.57583 0
M  V30 4306 C 401.811 -0.714119 1.89811 0
M  V30 4307 C 402.144 -1.74702 0.848113 0
M  V30 4308 O 401.419 -1.94023 -0.136135 0
M  V30 4309 C 401.702 -1.37853 3.32669 0
M  V30 4310 C 401.555 -0.358764 4.48367 0
M  V30 4311 C 402.874 -2.31101 3.7454 0
M  V30 4312 H 399.993 -0.25814 0.690314 0
M  V30 4313 H 402.635 0.0230927 1.89986 0
M  V30 4314 H 400.785 -2.00689 3.3265 0
M  V30 4315 H 402.457 0.268115 4.6052 0
M  V30 4316 H 400.7 0.321387 4.32608 0
M  V30 4317 H 401.371 -0.862242 5.45224 0
M  V30 4318 H 403.847 -1.78304 3.75961 0
M  V30 4319 H 402.723 -2.74567 4.75294 0
M  V30 4320 H 402.984 -3.18018 3.0711 0
M  V30 4321 N 402.043 -1.548 -0.295768 0
M  V30 4322 C 402.991 -1.86874 -1.38495 0
M  V30 4323 C 403.985 -0.742938 -1.52239 0
M  V30 4324 O 405.191 -0.926999 -1.54294 0
M  V30 4325 H 401.566 -0.592786 -0.462719 0
M  V30 4326 H 403.537 -2.77904 -1.08682 0
M  V30 4327 C 402.286 -2.13732 -2.74252 0
M  V30 4328 H 401.609 -2.99835 -2.64459 0
M  V30 4329 H 403.049 -2.4011 -3.49461 0
M  V30 4330 C 401.508 -0.937539 -3.23592 0
M  V30 4331 O 402.038 -0.160665 -4.01379 0
M  V30 4332 N 400.244 -0.741478 -2.80981 0
M  V30 4333 H 399.791 -1.37489 -2.1784 0
M  V30 4334 H 399.749 0.0597103 -3.14343 0
M  V30 4335 N 403.521 0.559213 -1.47345 0
M  V30 4336 C 404.749 1.34194 -1.57479 0
M  V30 4337 C 405.164 1.87463 -0.224261 0
M  V30 4338 O 404.521 1.64888 0.782185 0
M  V30 4339 C 404.572 2.51324 -2.59843 0
M  V30 4340 O 404.293 2.00256 -3.89653 0
M  V30 4341 C 405.794 3.43563 -2.80142 0
M  V30 4342 H 403.014 0.409136 -0.531835 0
M  V30 4343 H 405.558 0.677609 -1.92947 0
M  V30 4344 H 403.713 3.13699 -2.27314 0
M  V30 4345 H 404.127 2.76708 -4.4557 0
M  V30 4346 H 405.601 4.2217 -3.55635 0
M  V30 4347 H 406.078 3.9698 -1.87892 0
M  V30 4348 H 406.684 2.87005 -3.1386 0
M  V30 4349 N 404.999 1.35443 0.805782 0
M  V30 4350 C 405.962 1.28301 1.89925 0
M  V30 4351 C 406.962 0.194285 1.59622 0
M  V30 4352 O 408.152 0.448036 1.6834 0
M  V30 4353 C 405.284 0.984997 3.2636 0
M  V30 4354 H 406.477 2.2553 1.97677 0
M  V30 4355 H 404.03 1.19979 1.00173 0
M  V30 4356 H 404.765 0.016603 3.24296 0
M  V30 4357 H 404.55 1.77269 3.4974 0
M  V30 4358 H 406.04 0.960651 4.064 0
M  V30 4359 N 406.477 -1.02803 1.19454 0
M  V30 4360 C 407.407 -2.12999 0.956758 0
M  V30 4361 C 408.388 -1.69743 -0.110188 0
M  V30 4362 O 409.573 -1.94148 0.0450038 0
M  V30 4363 C 406.703 -3.43746 0.495553 0
M  V30 4364 C 405.657 -4.00688 1.50443 0
M  V30 4365 C 404.983 -5.27067 0.900275 0
M  V30 4366 C 406.283 -4.35397 2.8849 0
M  V30 4367 H 407.977 -2.33148 1.87836 0
M  V30 4368 H 405.523 -1.12045 0.904539 0
M  V30 4369 H 407.476 -4.2021 0.316493 0
M  V30 4370 H 406.2 -3.23321 -0.461646 0
M  V30 4371 H 404.859 -3.2632 1.67065 0
M  V30 4372 H 404.507 -5.02959 -0.064503 0
M  V30 4373 H 404.207 -5.66127 1.57397 0
M  V30 4374 H 405.731 -6.06196 0.73203 0
M  V30 4375 H 407.145 -5.02795 2.75446 0
M  V30 4376 H 405.542 -4.85541 3.52661 0
M  V30 4377 H 406.612 -3.44662 3.41081 0
M  V30 4378 N 407.956 -0.998596 -1.21925 0
M  V30 4379 C 408.904 -0.546641 -2.26085 0
M  V30 4380 C 409.898 0.405576 -1.64473 0
M  V30 4381 O 411.104 0.277471 -1.77849 0
M  V30 4382 H 407.479 -0.158403 -0.735127 0
M  V30 4383 H 409.45 -1.43645 -2.61551 0
M  V30 4384 C 408.199 0.117388 -3.47502 0
M  V30 4385 H 407.522 -0.606277 -3.95176 0
M  V30 4386 H 408.962 0.396993 -4.22137 0
M  V30 4387 C 407.421 1.35455 -3.0847 0
M  V30 4388 O 407.951 2.44944 -3.18379 0
M  V30 4389 N 406.157 1.23191 -2.63196 0
M  V30 4390 H 405.704 0.341006 -2.55333 0
M  V30 4391 H 405.662 2.06071 -2.37449 0
M  V30 4392 N 409.434 1.37368 -0.772513 0
M  V30 4393 C 410.662 2.03942 -0.348588 0
M  V30 4394 C 411.077 1.58264 1.02947 0
M  V30 4395 O 410.434 0.764246 1.65727 0
M  V30 4396 C 410.485 3.5946 -0.38351 0
M  V30 4397 O 410.206 4.03468 -1.70721 0
M  V30 4398 C 411.707 4.4327 0.0519152 0
M  V30 4399 H 408.927 0.654931 -0.145966 0
M  V30 4400 H 411.471 1.75686 -1.04665 0
M  V30 4401 H 409.626 3.86486 0.265978 0
M  V30 4402 H 410.04 4.97991 -1.64636 0
M  V30 4403 H 411.514 5.51995 -0.0236733 0
M  V30 4404 H 411.991 4.2514 1.10238 0
M  V30 4405 H 412.597 4.21471 -0.569415 0
M  V30 4406 N 410.912 0.523116 1.48665 0
M  V30 4407 C 412.14 -0.0096312 2.06898 0
M  V30 4408 C 412.555 -1.28784 1.38059 0
M  V30 4409 O 411.912 -1.76453 0.465893 0
M  V30 4410 C 411.963 -0.244386 3.60673 0
M  V30 4411 O 411.684 0.983172 4.26925 0
M  V30 4412 C 413.185 -0.818289 4.35682 0
M  V30 4413 H 410.405 0.0304161 0.67031 0
M  V30 4414 H 412.949 0.726799 1.91149 0
M  V30 4415 H 411.104 -0.930847 3.76051 0
M  V30 4416 H 411.518 0.759653 5.1897 0
M  V30 4417 H 412.992 -0.93201 5.44075 0
M  V30 4418 H 413.469 -1.82153 3.99646 0
M  V30 4419 H 414.075 -0.168609 4.24966 0
M  V30 4420 N 412.39 -1.55475 0.257931 0
M  V30 4421 C 413.322 -2.19192 -0.669881 0
M  V30 4422 C 414.335 -1.17148 -1.1305 0
M  V30 4423 O 415.524 -1.43959 -1.05537 0
M  V30 4424 C 412.624 -2.79016 -1.92363 0
M  V30 4425 C 411.797 -4.06586 -1.61265 0
M  V30 4426 C 410.856 -4.50622 -2.7171 0
M  V30 4427 O 409.882 -5.16765 -2.38627 0
M  V30 4428 N 411.084 -4.19325 -4.01431 0
M  V30 4429 H 413.849 -2.99441 -0.124635 0
M  V30 4430 H 411.41 -1.6171 0.0783311 0
M  V30 4431 H 413.402 -3.05427 -2.65511 0
M  V30 4432 H 411.972 -2.0286 -2.37837 0
M  V30 4433 H 411.192 -3.87646 -0.715811 0
M  V30 4434 H 412.48 -4.89737 -1.37967 0
M  V30 4435 H 411.878 -3.66247 -4.31138 0
M  V30 4436 H 410.435 -4.50547 -4.7101 0
M  V30 4437 N 413.868 0.0150385 -1.57593 0
M  V30 4438 C 415.117 0.702115 -1.89085 0
M  V30 4439 C 415.43 1.75764 -0.858277 0
M  V30 4440 O 416.636 2.49829 -1.0629 0
M  V30 4441 C 415.092 1.29992 -3.35604 0
M  V30 4442 C 414.7 0.280007 -4.47124 0
M  V30 4443 C 416.444 1.96606 -3.76227 0
M  V30 4444 C 414.351 0.886949 -5.84711 0
M  V30 4445 H 413.281 0.265997 -0.705522 0
M  V30 4446 H 415.932 -0.0430408 -1.8345 0
M  V30 4447 H 414.314 2.09525 -3.36029 0
M  V30 4448 H 415.488 -0.489631 -4.58191 0
M  V30 4449 H 413.803 -0.284835 -4.15425 0
M  V30 4450 H 416.4 2.42893 -4.76347 0
M  V30 4451 H 416.743 2.79024 -3.08952 0
M  V30 4452 H 417.276 1.23828 -3.78036 0
M  V30 4453 H 414.015 0.101876 -6.55421 0
M  V30 4454 H 413.535 1.6261 -5.77337 0
M  V30 4455 H 415.214 1.39011 -6.3189 0
M  V30 4456 N 415.346 1.54954 0.287554 0
M  V30 4457 C 416.757 1.65732 0.859634 0
M  V30 4458 C 417.108 0.574767 1.87592 0
M  V30 4459 O 416.233 -0.286299 2.14498 0
M  V30 4460 C 416.828 3.00438 1.56597 0
M  V30 4461 C 415.387 3.13292 2.08627 0
M  V30 4462 C 414.534 2.61473 0.923416 0
M  V30 4463 H 417.485 1.5857 0.0642338 0
M  V30 4464 H 417.506 2.92613 2.43224 0
M  V30 4465 H 417.018 3.79207 0.826053 0
M  V30 4466 H 415.119 2.39268 2.85625 0
M  V30 4467 H 415.232 4.19647 2.31157 0
M  V30 4468 H 413.596 2.18264 1.31275 0
M  V30 4469 H 414.379 3.42733 0.197241 0
M  V30 4470 N 416.824 -0.551391 1.4764 0
M  V30 4471 C 418.049 -1.33837 1.58437 0
M  V30 4472 C 418.474 -1.866 0.237063 0
M  V30 4473 O 417.832 -1.6328 -0.787994 0
M  V30 4474 C 417.88 -2.48014 2.61766 0
M  V30 4475 O 416.984 -3.50419 2.1744 0
M  V30 4476 H 416.325 -0.397299 0.532024 0
M  V30 4477 H 418.855 -0.665759 1.93465 0
M  V30 4478 H 418.865 -2.94503 2.82369 0
M  V30 4479 H 417.54 -2.08969 3.5959 0
M  V30 4480 H 416.117 -3.10196 2.06961 0
M  V30 4481 N 418.302 -1.35869 -0.798587 0
M  V30 4482 C 419.527 -1.32883 -1.59238 0
M  V30 4483 C 419.952 0.0894587 -1.87887 0
M  V30 4484 O 419.31 1.05869 -1.47178 0
M  V30 4485 C 419.358 -2.14892 -2.89575 0
M  V30 4486 O 418.462 -1.53512 -3.82763 0
M  V30 4487 H 417.803 -0.455236 -0.48338 0
M  V30 4488 H 420.333 -1.79024 -0.990539 0
M  V30 4489 H 420.343 -2.27139 -3.38928 0
M  V30 4490 H 419.018 -3.17998 -2.68049 0
M  V30 4491 H 417.595 -1.50153 -3.41334 0
M  V30 4492 N 419.78 1.02168 -1.19998 0
M  V30 4493 C 421.029 1.75091 -1.0013 0
M  V30 4494 C 421.342 1.89923 0.467835 0
M  V30 4495 O 422.548 2.59888 0.785515 0
M  V30 4496 C 421.004 3.14892 -1.74273 0
M  V30 4497 C 420.612 3.0809 -3.25245 0
M  V30 4498 C 422.356 3.9206 -1.62755 0
M  V30 4499 C 420.263 4.42867 -3.91948 0
M  V30 4500 H 419.193 0.656394 -0.37103 0
M  V30 4501 H 421.844 1.14284 -1.43567 0
M  V30 4502 H 420.226 3.7621 -1.2362 0
M  V30 4503 H 421.4 2.5611 -3.83072 0
M  V30 4504 H 419.715 2.44416 -3.3712 0
M  V30 4505 H 422.312 4.91764 -2.09934 0
M  V30 4506 H 422.655 4.12199 -0.582894 0
M  V30 4507 H 423.188 3.37359 -2.10793 0
M  V30 4508 H 419.927 4.27931 -4.96543 0
M  V30 4509 H 419.447 4.94874 -3.3891 0
M  V30 4510 H 421.126 5.11728 -3.95909 0
M  V30 4511 N 421.258 1.00505 1.21394 0
M  V30 4512 C 422.168 0.574806 2.27449 0
M  V30 4513 C 423.184 -0.382206 1.6975 0
M  V30 4514 O 424.36 -0.246027 1.99892 0
M  V30 4515 C 421.425 -0.0917414 3.46579 0
M  V30 4516 C 420.486 0.909758 4.1955 0
M  V30 4517 C 419.719 0.274924 5.32991 0
M  V30 4518 O 419.942 -0.928254 5.62796 0
M  V30 4519 O 418.876 0.985877 5.93771 0
M  V30 4520 H 422.702 1.45744 2.66444 0
M  V30 4521 H 420.287 0.773923 1.27792 0
M  V30 4522 H 422.169 -0.464551 4.18832 0
M  V30 4523 H 420.844 -0.948755 3.09484 0
M  V30 4524 H 419.751 1.33372 3.49518 0
M  V30 4525 H 421.084 1.73636 4.60555 0
M  V30 4526 N 422.737 -1.36956 0.779787 0
M  V30 4527 C 424.014 -1.93697 0.272156 0
M  V30 4528 C 424.394 -1.71267 -1.23413 0
M  V30 4529 O 423.742 -1.06607 -2.02107 0
M  V30 4530 C 423.952 -3.42812 0.654291 0
M  V30 4531 C 425.3 -4.19921 0.628602 0
M  V30 4532 O 426.324 -3.51209 0.594172 0
M  V30 4533 O 425.183 -5.42465 0.662864 0
M  V30 4534 H 422.277 -0.824447 0.0649286 0
M  V30 4535 H 424.823 -1.46196 0.861682 0
M  V30 4536 H 423.595 -3.52754 1.69353 0
M  V30 4537 H 423.218 -3.97582 0.0381369 0
M  V30 4538 N 424.215 -0.530993 -1.48385 0
M  V30 4539 C 425.464 0.00474348 -2.01699 0
M  V30 4540 C 425.777 1.35227 -1.41325 0
M  V30 4541 O 426.983 1.97643 -1.86144 0
M  V30 4542 C 425.439 0.0588473 -3.59852 0
M  V30 4543 C 425.047 -1.28385 -4.2921 0
M  V30 4544 C 426.791 0.543358 -4.21008 0
M  V30 4545 C 424.698 -1.19028 -5.79298 0
M  V30 4546 H 423.628 0.00554317 -0.75398 0
M  V30 4547 H 426.279 -0.674924 -1.70637 0
M  V30 4548 H 424.661 0.803612 -3.8776 0
M  V30 4549 H 425.835 -2.04426 -4.12973 0
M  V30 4550 H 424.15 -1.70418 -3.7993 0
M  V30 4551 H 426.747 0.631351 -5.3096 0
M  V30 4552 H 427.09 1.54937 -3.86394 0
M  V30 4553 H 427.623 -0.145754 -3.97533 0
M  V30 4554 H 424.362 -2.17147 -6.18488 0
M  V30 4555 H 423.882 -0.471246 -5.97946 0
M  V30 4556 H 425.561 -0.881365 -6.40969 0
M  V30 4557 N 425.693 1.55336 -0.266172 0
M  V30 4558 C 426.94 1.99397 0.353158 0
M  V30 4559 C 427.268 1.15451 1.56529 0
M  V30 4560 O 426.523 0.209974 1.9457 0
M  V30 4561 C 426.822 3.48606 0.787957 0
M  V30 4562 C 426.488 4.49773 -0.318541 0
M  V30 4563 C 425.15 4.77158 -0.62239 0
M  V30 4564 C 427.502 5.10212 -1.06459 0
M  V30 4565 C 424.83 5.62251 -1.67602 0
M  V30 4566 C 427.182 5.96449 -2.10788 0
M  V30 4567 C 425.846 6.22158 -2.41817 0
M  V30 4568 H 425.116 0.729644 0.12923 0
M  V30 4569 H 427.763 1.87732 -0.37802 0
M  V30 4570 H 426.068 3.57701 1.59866 0
M  V30 4571 H 427.765 3.80098 1.27775 0
M  V30 4572 H 424.355 4.2854 -0.0715925 0
M  V30 4573 H 428.539 4.89086 -0.843098 0
M  V30 4574 H 423.795 5.80419 -1.92155 0
M  V30 4575 H 427.969 6.42317 -2.69076 0
M  V30 4576 H 425.596 6.87888 -3.23596 0
M  V30 4577 N 427.171 -0.0066808 1.57599 0
M  V30 4578 C 428.119 -1.01851 2.09115 0
M  V30 4579 C 429.113 -1.36021 1.00969 0
M  V30 4580 O 430.319 -1.34663 1.19439 0
M  V30 4581 H 426.694 -0.346083 0.667631 0
M  V30 4582 H 428.665 -0.558394 2.93129 0
M  V30 4583 C 427.414 -2.30374 2.60429 0
M  V30 4584 H 426.737 -2.04947 3.43273 0
M  V30 4585 H 428.177 -2.99466 3.00161 0
M  V30 4586 C 426.636 -3.00893 1.51542 0
M  V30 4587 O 427.166 -3.91614 0.894484 0
M  V30 4588 N 425.372 -2.62603 1.2445 0
M  V30 4589 H 424.919 -1.88911 1.75129 0
M  V30 4590 H 424.877 -3.10101 0.518137 0
M  V30 4591 N 428.649 -1.55105 -0.279332 0
M  V30 4592 C 429.926 -1.66119 -1.03267 0
M  V30 4593 C 430.306 -0.523525 -2.04505 0
M  V30 4594 O 429.654 0.477194 -2.23462 0
M  V30 4595 C 429.864 -3.05067 -1.69515 0
M  V30 4596 C 431.212 -3.62606 -2.20912 0
M  V30 4597 O 432.236 -3.07659 -1.79512 0
M  V30 4598 O 431.095 -4.58861 -2.96831 0
M  V30 4599 H 428.189 -0.674429 -0.478618 0
M  V30 4600 H 430.735 -1.67446 -0.275694 0
M  V30 4601 H 429.507 -3.79311 -0.9612 0
M  V30 4602 H 429.13 -3.07611 -2.51915 0
M  V30 4603 N 430.127 0.543554 -1.4793 0
M  V30 4604 C 431.404 1.30458 -1.4574 0
M  V30 4605 C 431.784 2.1048 -0.161692 0
M  V30 4606 O 431.132 2.11831 0.856734 0
M  V30 4607 C 431.342 2.19754 -2.71126 0
M  V30 4608 C 432.69 2.80334 -3.18901 0
M  V30 4609 O 433.714 2.30049 -2.71948 0
M  V30 4610 O 432.573 3.71766 -4.00565 0
M  V30 4611 H 429.667 0.588117 -0.581418 0
M  V30 4612 H 432.213 0.561328 -1.60147 0
M  V30 4613 H 430.985 1.60316 -3.56952 0
M  V30 4614 H 430.608 3.01351 -2.59371 0
M  V30 4615 N 431.605 1.3629 0.791371 0
M  V30 4616 C 433.021 1.16661 1.08914 0
M  V30 4617 C 433.221 -0.0106266 2.01497 0
M  V30 4618 O 432.277 -0.676596 2.43266 0
M  V30 4619 C 433.59 2.47656 1.70549 0
M  V30 4620 C 435.138 2.54002 1.82899 0
M  V30 4621 C 435.613 3.85078 2.47949 0
M  V30 4622 N 437.104 3.86413 2.5542 0
M  V30 4623 C 437.839 4.84572 3.06557 0
M  V30 4624 N 437.335 5.93124 3.58016 0
M  V30 4625 N 439.128 4.71994 3.05251 0
M  V30 4626 H 431.279 2.11668 0.176238 0
M  V30 4627 H 433.542 0.937486 0.140796 0
M  V30 4628 H 433.248 3.34059 1.09989 0
M  V30 4629 H 433.122 2.63319 2.70079 0
M  V30 4630 H 435.509 1.68018 2.42598 0
M  V30 4631 H 435.59 2.42239 0.821808 0
M  V30 4632 H 435.234 4.71467 1.88895 0
M  V30 4633 H 435.164 3.94135 3.49235 0
M  V30 4634 H 437.655 3.07988 2.18979 0
M  V30 4635 H 437.968 6.63999 3.95381 0
M  V30 4636 H 436.313 5.96796 3.56173 0
M  V30 4637 H 439.504 3.86321 2.64336 0
M  V30 4638 H 439.677 5.48653 3.44796 0
M  V30 4639 N 433.083 -1.0153 1.20538 0
M  V30 4640 C 434.323 -1.76689 1.02763 0
M  V30 4641 C 434.687 -1.87065 -0.432513 0
M  V30 4642 O 435.888 -2.58684 -0.730481 0
M  V30 4643 C 434.159 -3.14707 1.69393 0
M  V30 4644 S 435.718 -4.05886 1.66738 0
M  V30 4645 H 432.536 -0.608076 0.368463 0
M  V30 4646 H 435.138 -1.21558 1.53114 0
M  V30 4647 H 433.842 -3.04782 2.74838 0
M  V30 4648 H 433.373 -3.74913 1.19179 0
M  V30 4649 H 435.388 -4.91221 0.70117 0
M  V30 4650 N 434.561 -1.01147 -1.20859 0
M  V30 4651 C 435.81 -0.693214 -1.89413 0
M  V30 4652 C 436.123 0.779969 -1.79376 0
M  V30 4653 O 437.329 1.21057 -2.43017 0
M  V30 4654 C 435.785 -1.18949 -3.39675 0
M  V30 4655 C 435.393 -2.68921 -3.58309 0
M  V30 4656 C 437.137 -0.94642 -4.13815 0
M  V30 4657 C 435.044 -3.12056 -5.0237 0
M  V30 4658 H 433.974 -0.255595 -0.709357 0
M  V30 4659 H 436.625 -1.22349 -1.36759 0
M  V30 4660 H 435.007 -0.587228 -3.91622 0
M  V30 4661 H 436.181 -3.34652 -3.16772 0
M  V30 4662 H 434.496 -2.91314 -2.97532 0
M  V30 4663 H 437.093 -1.24417 -5.20023 0
M  V30 4664 H 437.436 0.117219 -4.16135 0
M  V30 4665 H 437.969 -1.5118 -3.67953 0
M  V30 4666 H 434.708 -4.17674 -5.05202 0
M  V30 4667 H 434.228 -2.51041 -5.44737 0
M  V30 4668 H 435.907 -3.04403 -5.70918 0
M  V30 4669 N 436.039 1.36541 -0.78704 0
M  V30 4670 C 436.987 2.31965 -0.171724 0
M  V30 4671 C 437.981 1.55689 0.667631 0
M  V30 4672 O 439.187 1.70969 0.562981 0
M  V30 4673 H 435.562 0.751101 -0.0367545 0
M  V30 4674 H 437.533 2.81428 -0.992017 0
M  V30 4675 C 436.282 3.40968 0.680904 0
M  V30 4676 H 435.605 3.99775 0.0443961 0
M  V30 4677 H 437.045 4.10063 1.07815 0
M  V30 4678 C 435.504 2.82338 1.83813 0
M  V30 4679 O 436.034 2.74311 2.93456 0
M  V30 4680 N 434.24 2.39661 1.6435 0
M  V30 4681 H 433.787 2.46389 0.751668 0
M  V30 4682 H 433.745 2.00779 2.4194 0
M  V30 4683 N 437.518 0.538854 1.48102 0
M  V30 4684 C 438.767 0.0059532 2.01699 0
M  V30 4685 C 439.08 -1.34476 1.42041 0
M  V30 4686 O 440.286 -1.96653 1.87189 0
M  V30 4687 C 438.742 -0.0397627 3.59878 0
M  V30 4688 C 438.35 1.30659 4.28523 0
M  V30 4689 C 440.094 -0.521024 4.2129 0
M  V30 4690 C 438.001 1.22098 5.78659 0
M  V30 4691 H 436.931 -0.00154456 0.753998 0
M  V30 4692 H 439.582 0.683963 1.70277 0
M  V30 4693 H 437.964 -0.783037 3.88181 0
M  V30 4694 H 439.138 2.06613 4.11883 0
M  V30 4695 H 437.453 1.7243 3.79021 0
M  V30 4696 H 440.05 -0.603184 5.31287 0
M  V30 4697 H 440.393 -1.52885 3.8721 0
M  V30 4698 H 440.926 0.166834 3.9745 0
M  V30 4699 H 437.665 2.20424 6.17328 0
M  V30 4700 H 437.185 0.50295 5.97688 0
M  V30 4701 H 438.864 0.915345 6.40492 0
M  V30 4702 N 438.996 -1.55193 0.274407 0
M  V30 4703 C 440.224 -2.03987 -0.345943 0
M  V30 4704 C 440.639 -1.15279 -1.4952 0
M  V30 4705 O 439.996 -0.172759 -1.8168 0
M  V30 4706 C 440.047 -3.51898 -0.827631 0
M  V30 4707 O 439.768 -4.37231 0.275855 0
M  V30 4708 C 441.269 -4.16577 -1.51587 0
M  V30 4709 H 438.489 -0.666335 -0.0789892 0
M  V30 4710 H 441.033 -2.00423 0.406294 0
M  V30 4711 H 439.188 -3.55909 -1.52996 0
M  V30 4712 H 439.602 -5.24415 -0.0943638 0
M  V30 4713 H 441.076 -5.21678 -1.80433 0
M  V30 4714 H 441.553 -3.64707 -2.44716 0
M  V30 4715 H 442.159 -4.16568 -0.857409 0
M  V30 4716 N 440.474 -0.00167713 -1.576 0
M  V30 4717 C 441.421 0.989195 -2.08527 0
M  V30 4718 C 442.391 1.34031 -0.981065 0
M  V30 4719 O 443.576 1.43839 -1.2536 0
M  V30 4720 C 440.716 2.27537 -2.59463 0
M  V30 4721 C 439.829 1.98314 -3.83791 0
M  V30 4722 C 438.964 3.21025 -4.23222 0
M  V30 4723 C 438.003 2.87495 -5.40382 0
M  V30 4724 N 437.14 4.02749 -5.75098 0
M  V30 4725 H 441.98 0.547973 -2.92919 0
M  V30 4726 H 439.517 0.258917 -1.44803 0
M  V30 4727 H 441.475 3.02729 -2.87073 0
M  V30 4728 H 440.105 2.69325 -1.77943 0
M  V30 4729 H 439.157 1.13482 -3.63078 0
M  V30 4730 H 440.469 1.69601 -4.69081 0
M  V30 4731 H 439.623 4.04561 -4.52123 0
M  V30 4732 H 438.362 3.52877 -3.36644 0
M  V30 4733 H 437.367 2.02367 -5.11202 0
M  V30 4734 H 438.592 2.56889 -6.28637 0
M  V30 4735 H 436.538 4.34494 -4.91478 0
M  V30 4736 H 436.455 3.77566 -6.54966 0
M  V30 4737 H 437.723 4.87068 -6.08592 0
M  V30 4738 N 441.952 1.55251 0.271103 0
M  V30 4739 C 442.884 1.84675 1.35749 0
M  V30 4740 C 443.897 0.731366 1.45447 0
M  V30 4741 O 445.086 1.00924 1.4723 0
M  V30 4742 C 442.186 1.99638 2.73857 0
M  V30 4743 C 441.359 3.30312 2.86727 0
M  V30 4744 C 440.418 3.35318 4.05522 0
M  V30 4745 O 439.444 4.08682 3.96191 0
M  V30 4746 N 440.646 2.62857 5.17577 0
M  V30 4747 H 443.411 2.78445 1.10853 0
M  V30 4748 H 440.972 1.55191 0.461218 0
M  V30 4749 H 442.964 2.00355 3.51625 0
M  V30 4750 H 441.534 1.12725 2.91568 0
M  V30 4751 H 440.754 3.42118 1.95829 0
M  V30 4752 H 442.042 4.16488 2.92258 0
M  V30 4753 H 441.44 2.02939 5.28046 0
M  V30 4754 H 439.997 2.69295 5.93568 0
M  V30 4755 N 443.43 -0.535701 1.48216 0
M  V30 4756 C 444.658 -1.31671 1.59594 0
M  V30 4757 C 445.073 -1.87083 0.254056 0
M  V30 4758 O 444.43 -1.66112 -0.755854 0
M  V30 4759 C 444.481 -2.47158 2.63809 0
M  V30 4760 O 444.202 -1.94032 3.92789 0
M  V30 4761 C 445.703 -3.39062 2.85573 0
M  V30 4762 H 442.923 -0.400623 0.538277 0
M  V30 4763 H 445.467 -0.646827 1.94001 0
M  V30 4764 H 443.622 -3.10043 2.32276 0
M  V30 4765 H 444.036 -2.69585 4.49916 0
M  V30 4766 H 445.51 -4.16459 3.62306 0
M  V30 4767 H 445.987 -3.93941 1.94184 0
M  V30 4768 H 446.593 -2.81975 3.18387 0
M  V30 4769 N 444.908 -1.36708 -0.784132 0
M  V30 4770 C 446.319 -1.27947 -1.35965 0
M  V30 4771 C 446.67 0.0784013 -1.96043 0
M  V30 4772 O 445.795 0.979989 -1.92938 0
M  V30 4773 C 446.39 -2.31689 -2.47195 0
M  V30 4774 C 444.949 -2.26601 -3.00548 0
M  V30 4775 C 444.096 -2.16184 -1.73666 0
M  V30 4776 H 447.047 -1.4751 -0.585358 0
M  V30 4777 H 447.068 -1.95638 -3.26352 0
M  V30 4778 H 446.58 -3.30506 -2.03439 0
M  V30 4779 H 444.681 -1.31268 -3.48711 0
M  V30 4780 H 444.794 -3.19508 -3.57004 0
M  V30 4781 H 443.158 -1.62524 -1.96107 0
M  V30 4782 H 443.941 -3.16896 -1.32031 0
M  V30 4783 N 446.386 1.0089 -1.21074 0
M  V30 4784 C 447.611 1.78727 -1.05221 0
M  V30 4785 C 448.036 1.83932 0.393795 0
M  V30 4786 O 447.394 1.28004 1.28393 0
M  V30 4787 C 447.442 3.20665 -1.64944 0
M  V30 4788 O 446.546 4.02632 -0.892273 0
M  V30 4789 H 445.887 0.550973 -0.370574 0
M  V30 4790 H 448.417 1.26847 -1.60534 0
M  V30 4791 H 448.427 3.71352 -1.69002 0
M  V30 4792 H 447.102 3.16191 -2.70177 0
M  V30 4793 H 445.679 3.61207 -0.926492 0
M  V30 4794 N 447.864 1.01787 1.20321 0
M  V30 4795 C 449.111 0.707936 1.89722 0
M  V30 4796 C 449.439 -0.762535 1.78929 0
M  V30 4797 O 448.694 -1.56977 1.16861 0
M  V30 4798 C 448.993 1.09076 3.40349 0
M  V30 4799 C 448.659 2.55765 3.71342 0
M  V30 4800 C 447.321 2.95845 3.79511 0
M  V30 4801 C 449.673 3.50723 3.85542 0
M  V30 4802 C 447.001 4.2982 3.99339 0
M  V30 4803 C 449.353 4.84387 4.06881 0
M  V30 4804 C 448.017 5.24172 4.1328 0
M  V30 4805 H 447.287 0.259052 0.694243 0
M  V30 4806 H 449.934 1.27868 1.42555 0
M  V30 4807 H 448.239 0.438453 3.89339 0
M  V30 4808 H 449.936 0.828636 3.92345 0
M  V30 4809 H 446.526 2.2371 3.65584 0
M  V30 4810 H 450.71 3.20916 3.78585 0
M  V30 4811 H 445.966 4.60196 4.02529 0
M  V30 4812 H 450.14 5.57891 4.1681 0
M  V30 4813 H 447.767 6.27997 4.28396 0
M  V30 4814 N 449.342 -1.36122 0.79427 0
M  V30 4815 C 450.588 -1.99846 0.378542 0
M  V30 4816 C 450.943 -1.61898 -1.03955 0
M  V30 4817 O 450.236 -0.866013 -1.70912 0
M  V30 4818 C 450.43 -3.5409 0.48527 0
M  V30 4819 C 450.259 -4.0702 1.91219 0
M  V30 4820 C 449.029 -4.36944 2.53787 0
M  V30 4821 C 451.227 -4.26435 2.87502 0
M  V30 4822 N 449.209 -4.75727 3.88017 0
M  V30 4823 C 450.58 -4.68077 4.06576 0
M  V30 4824 C 452.635 -4.08616 2.84495 0
M  V30 4825 C 451.338 -4.93765 5.23057 0
M  V30 4826 C 453.364 -4.35453 4.00169 0
M  V30 4827 C 452.726 -4.77355 5.17988 0
M  V30 4828 H 448.825 -0.759549 0.186034 0
M  V30 4829 H 451.409 -1.65043 1.0329 0
M  V30 4830 H 449.58 -3.88151 -0.139023 0
M  V30 4831 H 451.312 -4.04675 0.0453192 0
M  V30 4832 H 448.067 -4.26822 2.05231 0
M  V30 4833 H 448.491 -4.99396 4.57092 0
M  V30 4834 H 453.133 -3.75373 1.94564 0
M  V30 4835 H 450.851 -5.25887 6.1357 0
M  V30 4836 H 454.437 -4.2323 3.99208 0
M  V30 4837 H 453.317 -4.97718 6.06008 0
M  V30 4838 N 450.82 -0.546701 -1.47814 0
M  V30 4839 C 452.069 -0.0166497 -2.01693 0
M  V30 4840 C 452.382 1.33721 -1.42752 0
M  V30 4841 O 453.588 1.95658 -1.8823 0
M  V30 4842 C 452.044 0.0206769 -3.59894 0
M  V30 4843 C 451.652 -1.3293 -4.27824 0
M  V30 4844 C 453.396 0.498674 -4.21561 0
M  V30 4845 C 451.303 -1.25165 -5.78003 0
M  V30 4846 H 450.233 -0.0024541 -0.753996 0
M  V30 4847 H 452.884 -0.692984 -1.69912 0
M  V30 4848 H 451.266 0.76244 -3.88591 0
M  V30 4849 H 452.44 -2.08795 -4.10781 0
M  V30 4850 H 450.755 -1.74438 -3.78101 0
M  V30 4851 H 453.352 0.575 -5.31599 0
M  V30 4852 H 453.695 1.5083 -3.88016 0
M  V30 4853 H 454.228 -0.18791 -3.97356 0
M  V30 4854 H 450.967 -2.23695 -6.1615 0
M  V30 4855 H 450.487 -0.53464 -5.97412 0
M  V30 4856 H 452.166 -0.949299 -6.39998 0
M  V30 4857 N 452.299 1.55045 -0.282633 0
M  V30 4858 C 453.229 2.2579 0.595066 0
M  V30 4859 C 454.21 1.25074 1.15284 0
M  V30 4860 O 455.395 1.5381 1.18559 0
M  V30 4861 C 452.525 2.98472 1.77572 0
M  V30 4862 C 451.479 4.0618 1.34914 0
M  V30 4863 C 450.805 4.66477 2.6135 0
M  V30 4864 C 452.105 5.1996 0.493821 0
M  V30 4865 H 453.799 2.994 0.00505653 0
M  V30 4866 H 451.345 1.44 0.000992001 0
M  V30 4867 H 453.298 3.46677 2.39568 0
M  V30 4868 H 452.022 2.2241 2.39168 0
M  V30 4869 H 450.681 3.58797 0.752338 0
M  V30 4870 H 450.329 3.87074 3.2122 0
M  V30 4871 H 450.029 5.39207 2.33516 0
M  V30 4872 H 451.553 5.17435 3.24181 0
M  V30 4873 H 452.967 5.64172 1.01898 0
M  V30 4874 H 451.364 5.99299 0.310047 0
M  V30 4875 H 452.434 4.82462 -0.485593 0
M  V30 4876 N 453.777 0.010035 1.57597 0
M  V30 4877 C 454.74 -0.963029 2.07986 0
M  V30 4878 C 455.74 -1.26619 0.991173 0
M  V30 4879 O 456.93 -1.2097 1.25347 0
M  V30 4880 C 454.062 -2.2851 2.52974 0
M  V30 4881 H 455.255 -0.526971 2.95234 0
M  V30 4882 H 452.808 -0.237639 1.54483 0
M  V30 4883 H 453.543 -2.76784 1.69 0
M  V30 4884 H 453.328 -2.07824 3.32493 0
M  V30 4885 H 454.818 -2.98294 2.9225 0
M  V30 4886 N 455.255 -1.55392 -0.262866 0
M  V30 4887 C 456.671 -1.47459 -0.610582 0
M  V30 4888 C 456.871 -0.697031 -1.8906 0
M  V30 4889 O 455.927 -0.219952 -2.5154 0
M  V30 4890 C 457.24 -2.91751 -0.728131 0
M  V30 4891 C 458.788 -3.02027 -0.821517 0
M  V30 4892 C 459.263 -4.47594 -0.97076 0
M  V30 4893 N 460.754 -4.51465 -1.03603 0
M  V30 4894 C 461.489 -5.61326 -1.17049 0
M  V30 4895 N 460.985 -6.81032 -1.2715 0
M  V30 4896 N 462.778 -5.49089 -1.20239 0
M  V30 4897 H 454.929 -2.04395 0.577632 0
M  V30 4898 H 457.192 -0.927287 0.197086 0
M  V30 4899 H 456.898 -3.51413 0.142132 0
M  V30 4900 H 456.772 -3.4134 -1.6052 0
M  V30 4901 H 459.159 -2.42456 -1.68224 0
M  V30 4902 H 459.24 -2.55674 0.0803688 0
M  V30 4903 H 458.884 -5.07771 -0.114655 0
M  V30 4904 H 458.814 -4.91613 -1.88745 0
M  V30 4905 H 461.305 -3.6524 -0.96996 0
M  V30 4906 H 461.618 -7.60511 -1.37271 0
M  V30 4907 H 459.963 -6.83824 -1.24136 0
M  V30 4908 H 463.154 -4.54507 -1.11985 0
M  V30 4909 H 463.327 -6.34749 -1.30373 0
M  V30 4910 N 456.733 0.527833 -1.48498 0
M  V30 4911 C 457.696 1.61439 -1.62696 0
M  V30 4912 C 458.696 1.52824 -0.500136 0
M  V30 4913 O 459.886 1.56456 -0.765976 0
M  V30 4914 C 457.018 3.01063 -1.59918 0
M  V30 4915 H 458.211 1.50189 -2.59583 0
M  V30 4916 H 455.764 0.750055 -1.37127 0
M  V30 4917 H 456.499 3.17818 -0.645163 0
M  V30 4918 H 456.284 3.08725 -2.41726 0
M  V30 4919 H 457.774 3.80057 -1.73051 0
M  V30 4920 N 458.211 1.37122 0.776871 0
M  V30 4921 C 459.141 1.35164 1.90402 0
M  V30 4922 C 460.122 0.221069 1.68657 0
M  V30 4923 O 461.307 0.420642 1.8959 0
M  V30 4924 C 458.437 1.15274 3.27611 0
M  V30 4925 C 457.391 2.25289 3.63908 0
M  V30 4926 C 456.717 1.90527 4.99603 0
M  V30 4927 C 458.017 3.67446 3.71188 0
M  V30 4928 H 459.711 2.29482 1.92297 0
M  V30 4929 H 457.257 1.10465 0.923773 0
M  V30 4930 H 459.21 1.12536 4.06096 0
M  V30 4931 H 457.934 0.174102 3.26136 0
M  V30 4932 H 456.593 2.27174 2.87728 0
M  V30 4933 H 456.241 0.91206 4.94662 0
M  V30 4934 H 455.941 2.64193 5.24858 0
M  V30 4935 H 457.465 1.89367 5.80493 0
M  V30 4936 H 458.879 3.67719 4.39836 0
M  V30 4937 H 457.276 4.40123 4.07936 0
M  V30 4938 H 458.346 4.01443 2.71977 0
M  V30 4939 N 459.689 -1.00246 1.21608 0
M  V30 4940 C 460.636 -2.09073 0.977613 0
M  V30 4941 C 461.606 -1.65815 -0.097297 0
M  V30 4942 O 462.791 -1.90734 0.0503445 0
M  V30 4943 C 459.931 -3.40671 0.551133 0
M  V30 4944 C 459.044 -3.97326 1.69576 0
M  V30 4945 C 458.179 -5.17043 1.2182 0
M  V30 4946 C 457.218 -5.65813 2.335 0
M  V30 4947 N 456.355 -6.76778 1.86859 0
M  V30 4948 H 461.195 -2.28806 1.90924 0
M  V30 4949 H 458.732 -1.12186 0.951452 0
M  V30 4950 H 460.69 -4.16225 0.285097 0
M  V30 4951 H 459.32 -3.20967 -0.343489 0
M  V30 4952 H 458.372 -3.18734 2.07637 0
M  V30 4953 H 459.684 -4.29511 2.53617 0
M  V30 4954 H 458.838 -5.99852 0.908975 0
M  V30 4955 H 457.577 -4.86458 0.347869 0
M  V30 4956 H 456.582 -4.81599 2.65222 0
M  V30 4957 H 457.807 -5.98427 3.21033 0
M  V30 4958 H 455.753 -6.47994 1.02174 0
M  V30 4959 H 455.67 -7.08231 2.64471 0
M  V30 4960 H 456.938 -7.63116 1.58978 0
M  V30 4961 N 461.167 -1.02423 -1.1978 0
M  V30 4962 C 462.077 -0.610919 -2.26506 0
M  V30 4963 C 463.093 0.355152 -1.70337 0
M  V30 4964 O 464.269 0.214195 -2.00258 0
M  V30 4965 C 461.334 0.0365921 -3.46681 0
M  V30 4966 C 460.395 -0.976389 -4.18049 0
M  V30 4967 C 459.628 -0.359683 -5.32487 0
M  V30 4968 O 459.851 0.838601 -5.64202 0
M  V30 4969 O 458.785 -1.08022 -5.92127 0
M  V30 4970 H 462.611 -1.49965 -2.64091 0
M  V30 4971 H 460.196 -0.794156 -1.26545 0
M  V30 4972 H 462.078 0.39786 -4.19518 0
M  V30 4973 H 460.753 0.899398 -3.10954 0
M  V30 4974 H 459.66 -1.38916 -3.47352 0
M  V30 4975 H 460.993 -1.80941 -4.57735 0
M  V30 4976 N 462.645 1.35699 -0.801477 0
M  V30 4977 C 463.892 1.98913 -0.379459 0
M  V30 4978 C 464.22 1.63592 1.05204 0
M  V30 4979 O 463.475 0.888563 1.74365 0
M  V30 4980 C 463.774 3.53828 -0.504041 0
M  V30 4981 C 463.44 4.09002 -1.8981 0
M  V30 4982 C 462.102 4.23783 -2.27951 0
M  V30 4983 C 464.454 4.38939 -2.81038 0
M  V30 4984 C 461.782 4.65816 -3.56696 0
M  V30 4985 C 464.134 4.82409 -4.09224 0
M  V30 4986 C 462.798 4.95395 -4.4737 0
M  V30 4987 H 462.068 0.727874 -0.138854 0
M  V30 4988 H 464.715 1.61994 -1.02128 0
M  V30 4989 H 463.02 3.91175 0.221242 0
M  V30 4990 H 464.717 4.00687 -0.158361 0
M  V30 4991 H 461.307 3.97946 -1.59176 0
M  V30 4992 H 465.491 4.27077 -2.52821 0
M  V30 4993 H 460.747 4.74059 -3.86106 0
M  V30 4994 H 464.921 5.04535 -4.80018 0
M  V30 4995 H 462.548 5.27724 -5.47185 0
M  V30 4996 N 464.123 0.554532 1.47522 0
M  V30 4997 C 465.369 0.0295227 2.02779 0
M  V30 4998 C 465.702 -1.31582 1.42828 0
M  V30 4999 O 464.977 -1.85561 0.582872 0
M  V30 5000 C 465.26 -0.0664057 3.60039 0
M  V30 5001 C 465.113 1.30585 4.30427 0
M  V30 5002 C 466.432 -0.781162 4.33112 0
M  V30 5003 H 463.551 0.0122027 0.736899 0
M  V30 5004 H 466.193 0.716305 1.7598 0
M  V30 5005 H 464.343 -0.651307 3.83002 0
M  V30 5006 H 466.015 1.93374 4.18813 0
M  V30 5007 H 464.258 1.88125 3.90886 0
M  V30 5008 H 464.929 1.19147 5.38988 0
M  V30 5009 H 467.405 -0.284565 4.15126 0
M  V30 5010 H 466.281 -0.817237 5.42782 0
M  V30 5011 H 466.542 -1.83672 4.0214 0
M  V30 5012 N 465.601 -1.54893 0.290851 0
M  V30 5013 C 466.564 -2.21824 -0.576784 0
M  V30 5014 C 467.564 -1.20104 -1.06919 0
M  V30 5015 O 468.754 -1.44906 -0.966843 0
M  V30 5016 C 465.886 -2.89662 -1.79747 0
M  V30 5017 H 467.079 -2.99899 0.00784051 0
M  V30 5018 H 464.632 -1.56245 0.0415934 0
M  V30 5019 H 465.367 -2.15639 -2.42219 0
M  V30 5020 H 465.152 -3.64219 -1.45214 0
M  V30 5021 H 466.642 -3.4075 -2.4141 0
M  V30 5022 N 467.08 -0.0183926 -1.57589 0
M  V30 5023 C 468.027 0.967022 -2.09565 0
M  V30 5024 C 468.997 1.32983 -0.995225 0
M  V30 5025 O 470.182 1.42501 -1.26878 0
M  V30 5026 C 467.322 2.24772 -2.61861 0
M  V30 5027 C 466.435 1.94232 -3.85873 0
M  V30 5028 C 465.57 3.16518 -4.26603 0
M  V30 5029 C 464.609 2.81748 -5.43401 0
M  V30 5030 N 463.746 3.96626 -5.79338 0
M  V30 5031 H 468.586 0.516874 -2.93483 0
M  V30 5032 H 466.123 0.243544 -1.4507 0
M  V30 5033 H 468.081 2.99667 -2.90268 0
M  V30 5034 H 466.711 2.67423 -1.8079 0
M  V30 5035 H 465.763 1.09625 -3.64262 0
M  V30 5036 H 467.075 1.64616 -4.70853 0
M  V30 5037 H 466.229 3.99743 -4.56389 0
M  V30 5038 H 464.968 3.49286 -3.40368 0
M  V30 5039 H 463.973 1.96933 -5.1332 0
M  V30 5040 H 465.198 2.50207 -6.31327 0
M  V30 5041 H 463.144 4.29257 -4.96059 0
M  V30 5042 H 463.061 3.70598 -6.58933 0
M  V30 5043 H 464.329 4.80586 -6.13724 0
M  V30 5044 N 468.558 1.5553 0.254621 0
M  V30 5045 C 469.468 1.92789 1.33677 0
M  V30 5046 C 470.484 0.827356 1.53071 0
M  V30 5047 O 471.66 1.12807 1.66843 0
M  V30 5048 C 468.725 2.20827 2.67275 0
M  V30 5049 C 467.786 3.4427 2.5647 0
M  V30 5050 C 467.019 3.70961 3.83697 0
M  V30 5051 O 467.242 2.99852 4.85227 0
M  V30 5052 O 466.176 4.64491 3.82794 0
M  V30 5053 H 470.002 2.84945 1.05071 0
M  V30 5054 H 467.587 1.42312 0.454723 0
M  V30 5055 H 469.469 2.40204 3.46237 0
M  V30 5056 H 468.144 1.31851 2.9563 0
M  V30 5057 H 467.051 3.30209 1.75821 0
M  V30 5058 H 468.384 4.33524 2.33062 0
M  V30 5059 N 470.036 -0.519951 1.48776 0
M  V30 5060 C 471.284 -1.2727 1.56993 0
M  V30 5061 C 471.605 -1.9339 0.25004 0
M  V30 5062 O 470.875 -1.81822 -0.729216 0
M  V30 5063 H 469.455 -0.472732 0.578389 0
M  V30 5064 H 472.117 -0.604234 1.85297 0
M  V30 5065 H 471.213 -2.04669 2.3562 0
M  V30 5066 N 471.514 -1.37532 -0.769588 0
M  V30 5067 C 472.446 -1.29347 -1.89214 0
M  V30 5068 C 473.459 -0.208842 -1.61455 0
M  V30 5069 O 474.648 -0.465158 -1.72333 0
M  V30 5070 C 471.748 -0.977649 -3.24492 0
M  V30 5071 C 470.921 -2.16817 -3.7988 0
M  V30 5072 C 469.98 -1.82229 -4.93639 0
M  V30 5073 O 469.006 -2.54548 -5.09111 0
M  V30 5074 N 470.208 -0.767696 -5.75401 0
M  V30 5075 H 472.973 -2.26073 -1.96751 0
M  V30 5076 H 470.534 -1.31185 -0.948795 0
M  V30 5077 H 472.526 -0.727065 -3.98115 0
M  V30 5078 H 471.096 -0.0988777 -3.12444 0
M  V30 5079 H 470.316 -2.58038 -2.9801 0
M  V30 5080 H 471.604 -2.96308 -4.13617 0
M  V30 5081 H 471.002 -0.167626 -5.65452 0
M  V30 5082 H 469.559 -0.576973 -6.49241 0
M  V30 5083 N 472.992 0.995999 -1.22138 0
M  V30 5084 C 474.24 1.73167 -1.042 0
M  V30 5085 C 474.561 1.90329 0.42423 0
M  V30 5086 O 473.831 1.4607 1.30539 0
M  V30 5087 H 472.411 0.641593 -0.38258 0
M  V30 5088 H 475.073 1.19974 -1.53598 0
M  V30 5089 H 474.169 2.72734 -1.51731 0
M  V30 5090 N 474.47 1.03057 1.19235 0
M  V30 5091 C 475.418 0.606391 2.24557 0
M  V30 5092 C 476.412 -0.361826 1.65491 0
M  V30 5093 O 477.618 -0.23022 1.78522 0
M  V30 5094 H 473.993 0.177838 0.730669 0
M  V30 5095 H 475.964 1.50529 2.5765 0
M  V30 5096 C 474.713 -0.0252127 3.47691 0
M  V30 5097 H 474.036 0.710838 3.9343 0
M  V30 5098 H 475.476 -0.284931 4.23042 0
M  V30 5099 C 473.935 -1.27229 3.11953 0
M  V30 5100 O 474.465 -2.36416 3.24762 0
M  V30 5101 N 472.671 -1.16169 2.6637 0
M  V30 5102 H 472.218 -0.273189 2.56147 0
M  V30 5103 H 472.176 -1.99703 2.42829 0
M  V30 5104 N 475.948 -1.35272 0.808662 0
M  V30 5105 C 476.878 -2.32315 0.234981 0
M  V30 5106 C 477.859 -1.57572 -0.64071 0
M  V30 5107 O 479.044 -1.8563 -0.570551 0
M  V30 5108 C 476.174 -3.41801 -0.615601 0
M  V30 5109 C 475.128 -4.27694 0.161767 0
M  V30 5110 C 474.454 -5.28519 -0.810649 0
M  V30 5111 C 475.754 -5.04231 1.36193 0
M  V30 5112 H 477.448 -2.80543 1.04575 0
M  V30 5113 H 474.994 -1.3488 0.504315 0
M  V30 5114 H 476.947 -4.08693 -1.02702 0
M  V30 5115 H 475.671 -2.92186 -1.45928 0
M  V30 5116 H 474.33 -3.62384 0.554382 0
M  V30 5117 H 473.978 -4.75171 -1.64988 0
M  V30 5118 H 473.678 -5.8686 -0.294822 0
M  V30 5119 H 475.202 -5.98283 -1.22023 0
M  V30 5120 H 476.616 -5.64058 1.02528 0
M  V30 5121 H 475.013 -5.72077 1.81239 0
M  V30 5122 H 476.083 -4.34753 2.14751 0
M  V30 5123 N 477.426 -0.562348 -1.47226 0
M  V30 5124 C 478.837 -0.130325 -1.86245 0
M  V30 5125 C 479.188 1.30128 -1.46838 0
M  V30 5126 O 478.313 1.97974 -0.873805 0
M  V30 5127 C 478.908 -0.229738 -3.3802 0
M  V30 5128 C 477.467 0.14728 -3.76112 0
M  V30 5129 C 476.614 -0.574971 -2.71274 0
M  V30 5130 H 479.565 -0.771773 -1.3867 0
M  V30 5131 H 479.586 0.550316 -3.76499 0
M  V30 5132 H 479.098 -1.27178 -3.66671 0
M  V30 5133 H 477.199 1.19023 -3.53078 0
M  V30 5134 H 477.312 -0.214858 -4.78618 0
M  V30 5135 H 475.676 -0.0174756 -2.54694 0
M  V30 5136 H 476.459 -1.61827 -3.02766 0
M  V30 5137 N 478.904 1.54736 -0.299062 0
M  V30 5138 C 480.15 2.00397 0.311244 0
M  V30 5139 C 480.483 1.18716 1.53688 0
M  V30 5140 O 479.758 0.263154 1.92712 0
M  V30 5141 C 480.041 3.53817 0.669761 0
M  V30 5142 C 479.894 4.46239 -0.564882 0
M  V30 5143 C 481.213 4.13856 1.49702 0
M  V30 5144 H 478.332 0.728493 0.111653 0
M  V30 5145 H 480.974 1.85506 -0.410774 0
M  V30 5146 H 479.124 3.66637 1.28491 0
M  V30 5147 H 480.796 4.45328 -1.20337 0
M  V30 5148 H 479.039 4.16916 -1.19849 0
M  V30 5149 H 479.71 5.5134 -0.269918 0
M  V30 5150 H 482.186 4.04461 0.977284 0
M  V30 5151 H 481.062 5.21365 1.71666 0
M  V30 5152 H 481.323 3.65608 2.48563 0
M  V30 5153 N 480.382 0.0267497 1.57577 0
M  V30 5154 C 481.798 -0.32962 1.56159 0
M  V30 5155 C 481.998 -1.73059 1.03213 0
M  V30 5156 O 481.054 -2.43233 0.677804 0
M  V30 5157 C 482.367 -0.18039 3.00158 0
M  V30 5158 C 483.915 -0.253334 3.11973 0
M  V30 5159 C 484.39 -0.132921 4.57807 0
M  V30 5160 N 485.881 -0.189979 4.6281 0
M  V30 5161 C 486.616 -0.120554 5.73273 0
M  V30 5162 N 486.112 -0.000180315 6.928 0
M  V30 5163 N 487.905 -0.174369 5.61829 0
M  V30 5164 H 480.056 0.942896 1.90324 0
M  V30 5165 H 482.319 0.3639 0.875375 0
M  V30 5166 H 482.025 0.784576 3.42837 0
M  V30 5167 H 481.899 -0.951565 3.65 0
M  V30 5168 H 484.286 -1.20876 2.69208 0
M  V30 5169 H 484.367 0.548177 2.49857 0
M  V30 5170 H 484.011 0.819073 5.01252 0
M  V30 5171 H 483.941 -0.953264 5.179 0
M  V30 5172 H 486.432 -0.283257 3.76837 0
M  V30 5173 H 486.745 0.0461666 7.72786 0
M  V30 5174 H 485.09 0.034569 6.94991 0
M  V30 5175 H 488.281 -0.266794 4.67339 0
M  V30 5176 H 488.454 -0.116802 6.47895 0
M  V30 5177 N 481.861 -1.55662 -0.24637 0
M  V30 5178 C 483.109 -1.77168 -0.972411 0
M  V30 5179 C 483.43 -0.590827 -1.85834 0
M  V30 5180 O 482.7 0.393365 -1.9191 0
M  V30 5181 H 481.28 -0.653405 -0.362038 0
M  V30 5182 H 483.942 -1.93101 -0.264189 0
M  V30 5183 H 483.038 -2.68335 -1.59382 0
M  V30 5184 N 483.339 0.512053 -1.4905 0
M  V30 5185 C 484.567 1.29116 -1.61669 0
M  V30 5186 C 484.982 1.86655 -0.283787 0
M  V30 5187 O 484.339 1.67293 0.729331 0
M  V30 5188 C 484.39 2.4293 -2.67707 0
M  V30 5189 O 484.111 1.87758 -3.95826 0
M  V30 5190 C 485.612 3.34476 -2.90931 0
M  V30 5191 H 482.832 0.392009 -0.544583 0
M  V30 5192 H 485.376 0.615881 -1.95006 0
M  V30 5193 H 483.531 3.06308 -2.37179 0
M  V30 5194 H 483.945 2.62393 -4.54148 0
M  V30 5195 H 485.419 4.10642 -3.68886 0
M  V30 5196 H 485.896 3.90801 -2.00427 0
M  V30 5197 H 486.502 2.76874 -3.22832 0
M  V30 5198 N 484.817 1.37938 0.762283 0
M  V30 5199 C 486.066 1.32989 1.51647 0
M  V30 5200 C 486.379 -0.0802922 1.95435 0
M  V30 5201 O 487.585 -0.252295 2.70325 0
M  V30 5202 C 486.041 2.33485 2.73885 0
M  V30 5203 C 485.649 3.80079 2.37157 0
M  V30 5204 C 487.393 2.37563 3.51801 0
M  V30 5205 C 485.3 4.72283 3.55954 0
M  V30 5206 H 484.23 0.494301 0.56937 0
M  V30 5207 H 486.881 1.63448 0.834083 0
M  V30 5208 H 485.263 1.96056 3.44061 0
M  V30 5209 H 486.437 4.26398 1.74704 0
M  V30 5210 H 484.752 3.79037 1.72395 0
M  V30 5211 H 487.349 3.0365 4.40114 0
M  V30 5212 H 487.692 1.39199 3.92338 0
M  V30 5213 H 488.225 2.73747 2.8863 0
M  V30 5214 H 484.964 5.7181 3.2049 0
M  V30 5215 H 484.484 4.30663 4.1748 0
M  V30 5216 H 486.163 4.89876 4.22647 0
M  V30 5217 N 486.295 -0.989507 1.22664 0
M  V30 5218 C 487.706 -1.54406 1.04955 0
M  V30 5219 C 488.057 -1.92366 -0.385951 0
M  V30 5220 O 487.182 -1.75111 -1.27142 0
M  V30 5221 C 487.777 -2.80578 1.89899 0
M  V30 5222 C 486.336 -3.32464 1.76478 0
M  V30 5223 C 485.483 -2.05524 1.86159 0
M  V30 5224 H 488.434 -0.810211 1.3646 0
M  V30 5225 H 488.455 -3.53075 1.4184 0
M  V30 5226 H 487.967 -2.52918 2.94371 0
M  V30 5227 H 486.068 -3.65024 0.747528 0
M  V30 5228 H 486.181 -4.02838 2.59342 0
M  V30 5229 H 484.545 -2.19241 1.29636 0
M  V30 5230 H 485.328 -1.80258 2.92168 0
M  V30 5231 N 487.773 -1.03688 -1.18687 0
M  V30 5232 C 489.05 -0.652397 -1.84399 0
M  V30 5233 C 489.43 0.868386 -1.92412 0
M  V30 5234 O 488.778 1.76832 -1.44716 0
M  V30 5235 C 488.988 -1.3238 -3.22919 0
M  V30 5236 C 490.336 -1.45216 -3.98996 0
M  V30 5237 O 491.36 -1.2816 -3.32345 0
M  V30 5238 O 490.219 -1.72975 -5.18403 0
M  V30 5239 H 487.313 -0.227793 -0.795009 0
M  V30 5240 H 489.859 -1.13553 -1.2611 0
M  V30 5241 H 488.631 -2.36202 -3.11968 0
M  V30 5242 H 488.254 -0.829039 -3.88861 0
M  V30 5243 N 489.251 1.34841 -0.815825 0
M  V30 5244 C 490.184 2.27504 -0.178062 0
M  V30 5245 C 491.162 1.48542 0.661373 0
M  V30 5246 O 492.346 1.77779 0.626653 0
M  V30 5247 C 489.473 3.30246 0.752002 0
M  V30 5248 C 488.519 4.26499 -0.00899172 0
M  V30 5249 S 489.352 5.18169 -1.35134 0
M  V30 5250 C 490.508 6.24449 -0.42596 0
M  V30 5251 H 490.741 2.81248 -0.963684 0
M  V30 5252 H 488.274 1.41781 -0.611355 0
M  V30 5253 H 490.232 3.89933 1.28308 0
M  V30 5254 H 488.893 2.75363 1.51109 0
M  V30 5255 H 488.086 4.99146 0.697766 0
M  V30 5256 H 487.688 3.7103 -0.470396 0
M  V30 5257 H 489.98 6.76404 0.385234 0
M  V30 5258 H 490.923 6.99156 -1.1219 0
M  V30 5259 H 491.331 5.64497 -0.0175461 0
M  V30 5260 N 490.729 0.570148 1.46925 0
M  V30 5261 C 491.978 0.0487352 2.01641 0
M  V30 5262 C 492.291 -1.31433 1.44861 0
M  V30 5263 O 493.497 -1.92638 1.91318 0
M  V30 5264 C 491.953 0.0365817 3.59881 0
M  V30 5265 C 491.561 1.39719 4.25655 0
M  V30 5266 C 493.305 -0.431545 4.22301 0
M  V30 5267 C 491.212 1.34345 5.75939 0
M  V30 5268 H 490.142 0.0144492 0.753862 0
M  V30 5269 H 492.793 0.719928 1.68788 0
M  V30 5270 H 491.175 -0.700522 3.89755 0
M  V30 5271 H 492.349 2.15303 4.07408 0
M  V30 5272 H 490.664 1.80431 3.75278 0
M  V30 5273 H 493.261 -0.490354 5.32447 0
M  V30 5274 H 493.604 -1.44638 3.90366 0
M  V30 5275 H 494.137 0.251102 3.97007 0
M  V30 5276 H 490.876 2.33469 6.12513 0
M  V30 5277 H 490.396 0.629615 5.96486 0
M  V30 5278 H 492.075 1.051 6.38407 0
M  V30 5279 N 492.207 -1.54576 0.307264 0
M  V30 5280 C 493.17 -2.22423 -0.553224 0
M  V30 5281 C 494.17 -1.21231 -1.05639 0
M  V30 5282 O 495.36 -1.45923 -0.951419 0
M  V30 5283 C 492.492 -2.91552 -1.76664 0
M  V30 5284 H 493.685 -2.99874 0.0396484 0
M  V30 5285 H 491.238 -1.56192 0.0581629 0
M  V30 5286 H 491.973 -2.18196 -2.39918 0
M  V30 5287 H 491.758 -3.65738 -1.41343 0
M  V30 5288 H 493.248 -3.43292 -2.37783 0
M  V30 5289 N 493.685 -0.035106 -1.57561 0
M  V30 5290 C 494.962 0.681212 -1.83354 0
M  V30 5291 C 495.342 1.89986 -0.920252 0
M  V30 5292 O 494.69 2.28489 0.0226815 0
M  V30 5293 C 494.9 1.05376 -3.32712 0
M  V30 5294 C 496.248 1.44286 -3.99333 0
M  V30 5295 O 497.272 1.14656 -3.37242 0
M  V30 5296 O 496.131 1.99518 -5.08778 0
M  V30 5297 H 493.225 0.334741 -0.756226 0
M  V30 5298 H 495.771 -0.0632448 -1.69582 0
M  V30 5299 H 494.543 0.186668 -3.90854 0
M  V30 5300 H 494.166 1.85619 -3.51613 0
M  V30 5301 N 495.163 1.55791 0.238111 0
M  V30 5302 C 496.388 1.8244 0.986432 0
M  V30 5303 C 496.813 0.613314 1.7782 0
M  V30 5304 O 496.171 -0.437767 1.75935 0
M  V30 5305 C 496.219 3.06917 1.893 0
M  V30 5306 O 495.323 2.84449 2.98601 0
M  V30 5307 H 494.664 0.601975 0.280218 0
M  V30 5308 H 497.194 2.02987 0.256437 0
M  V30 5309 H 497.204 3.36583 2.30598 0
M  V30 5310 H 495.879 3.947 1.31091 0
M  V30 5311 H 494.456 2.65972 2.61368 0
M  V30 5312 N 496.642 -0.504142 1.49319 0
M  V30 5313 C 497.89 -1.25598 1.58334 0
M  V30 5314 C 498.211 -1.93114 0.270538 0
M  V30 5315 O 497.481 -1.82585 -0.709891 0
M  V30 5316 H 496.061 -0.466571 0.58337 0
M  V30 5317 H 498.723 -0.584547 1.85928 0
M  V30 5318 H 497.819 -2.02159 2.37778 0
M  V30 5319 N 498.12 -1.38341 -0.754957 0
M  V30 5320 C 499.067 -1.3546 -1.86867 0
M  V30 5321 C 500.037 -0.217369 -1.64672 0
M  V30 5322 O 501.222 -0.409383 -1.86356 0
M  V30 5323 C 498.362 -1.18413 -3.24149 0
M  V30 5324 C 497.475 -2.41511 -3.58185 0
M  V30 5325 C 496.61 -2.17205 -4.84763 0
M  V30 5326 C 495.649 -3.36081 -5.11582 0
M  V30 5327 N 494.786 -3.11219 -6.29354 0
M  V30 5328 H 499.626 -2.30672 -1.88664 0
M  V30 5329 H 497.163 -1.14607 -0.922154 0
M  V30 5330 H 499.121 -1.06545 -4.03366 0
M  V30 5331 H 497.751 -0.268397 -3.21682 0
M  V30 5332 H 496.803 -2.64056 -2.73822 0
M  V30 5333 H 498.115 -3.30115 -3.73932 0
M  V30 5334 H 497.269 -2.02465 -5.7192 0
M  V30 5335 H 496.008 -1.25964 -4.71152 0
M  V30 5336 H 495.013 -3.51341 -4.22894 0
M  V30 5337 H 496.238 -4.28196 -5.27091 0
M  V30 5338 H 494.184 -2.22624 -6.17069 0
M  V30 5339 H 494.101 -3.93373 -6.45596 0
M  V30 5340 H 495.369 -3.00132 -7.19403 0
M  V30 5341 N 499.598 0.982988 -1.23187 0
M  V30 5342 C 500.828 1.75666 -1.08743 0
M  V30 5343 C 501.236 1.85662 0.364195 0
M  V30 5344 O 500.579 1.33317 1.26382 0
M  V30 5345 C 500.641 3.20144 -1.63549 0
M  V30 5346 C 500.305 3.33665 -3.12277 0
M  V30 5347 C 501.302 3.20194 -4.096 0
M  V30 5348 C 498.987 3.58397 -3.51933 0
M  V30 5349 C 500.981 3.31256 -5.44563 0
M  V30 5350 C 498.668 3.69098 -4.87042 0
M  V30 5351 C 499.666 3.55537 -5.83166 0
M  V30 5352 O 499.354 3.65864 -7.1582 0
M  V30 5353 H 499.086 0.558194 -0.381307 0
M  V30 5354 H 501.64 1.24387 -1.63454 0
M  V30 5355 H 499.87 3.72659 -1.03256 0
M  V30 5356 H 501.559 3.79262 -1.4462 0
M  V30 5357 H 502.325 3.00987 -3.80305 0
M  V30 5358 H 498.204 3.68025 -2.77631 0
M  V30 5359 H 501.748 3.20588 -6.19572 0
M  V30 5360 H 497.645 3.87814 -5.16014 0
M  V30 5361 H 498.413 3.82675 -7.23534 0
M  V30 5362 N 501.076 1.04316 1.18135 0
M  V30 5363 C 502.325 0.74319 1.87509 0
M  V30 5364 C 502.638 -0.732136 1.81381 0
M  V30 5365 O 503.844 -1.14572 2.46141 0
M  V30 5366 C 502.3 1.27913 3.36402 0
M  V30 5367 C 501.908 2.78326 3.51053 0
M  V30 5368 C 503.652 1.0558 4.11161 0
M  V30 5369 C 501.559 3.25266 4.93919 0
M  V30 5370 H 500.489 0.274313 0.702331 0
M  V30 5371 H 503.14 1.25931 1.33467 0
M  V30 5372 H 501.522 0.690853 3.89927 0
M  V30 5373 H 502.696 3.42933 3.07788 0
M  V30 5374 H 501.011 2.991 2.89704 0
M  V30 5375 H 503.608 1.38161 5.16542 0
M  V30 5376 H 503.951 -0.00684729 4.16299 0
M  V30 5377 H 504.484 1.60882 3.63816 0
M  V30 5378 H 501.223 4.30922 4.9395 0
M  V30 5379 H 500.743 2.65396 5.3789 0
M  V30 5380 H 502.422 3.19433 5.62647 0
M  V30 5381 N 502.554 -1.34406 0.822964 0
M  V30 5382 C 503.501 -2.29519 0.24284 0
M  V30 5383 C 504.471 -1.5359 -0.632397 0
M  V30 5384 O 505.656 -1.8196 -0.57403 0
M  V30 5385 C 502.796 -3.40032 -0.58925 0
M  V30 5386 C 501.909 -4.30899 0.308236 0
M  V30 5387 C 501.044 -5.28515 -0.533425 0
M  V30 5388 C 500.083 -6.1102 0.363444 0
M  V30 5389 N 499.22 -7.00725 -0.439147 0
M  V30 5390 H 504.06 -2.78537 1.05929 0
M  V30 5391 H 501.597 -1.3707 0.533872 0
M  V30 5392 H 503.555 -4.0279 -1.087 0
M  V30 5393 H 502.185 -2.92248 -1.37081 0
M  V30 5394 H 501.237 -3.69002 0.924203 0
M  V30 5395 H 502.549 -4.88717 0.997862 0
M  V30 5396 H 501.703 -5.96725 -1.09565 0
M  V30 5397 H 500.442 -4.71235 -1.25656 0
M  V30 5398 H 499.447 -5.41743 0.937812 0
M  V30 5399 H 500.672 -6.70381 1.08469 0
M  V30 5400 H 498.618 -6.45913 -1.14595 0
M  V30 5401 H 498.535 -7.55756 0.19209 0
M  V30 5402 H 499.803 -7.73263 -0.984124 0
M  V30 5403 N 504.032 -0.577932 -1.46621 0
M  V30 5404 C 504.962 0.145917 -2.33044 0
M  V30 5405 C 505.943 0.888412 -1.45056 0
M  V30 5406 O 507.128 0.864812 -1.73881 0
M  V30 5407 C 504.258 1.16322 -3.27241 0
M  V30 5408 C 503.212 0.535868 -4.24632 0
M  V30 5409 C 502.538 1.65929 -5.08303 0
M  V30 5410 C 503.838 -0.523861 -5.19666 0
M  V30 5411 H 505.532 -0.575636 -2.93814 0
M  V30 5412 H 503.078 -0.278272 -1.41286 0
M  V30 5413 H 505.031 1.67793 -3.86553 0
M  V30 5414 H 503.755 1.91498 -2.64567 0
M  V30 5415 H 502.414 0.0422759 -3.66576 0
M  V30 5416 H 502.062 2.40061 -4.42018 0
M  V30 5417 H 501.762 1.2452 -5.74255 0
M  V30 5418 H 503.286 2.17686 -5.70478 0
M  V30 5419 H 504.7 -0.0944059 -5.73222 0
M  V30 5420 H 503.097 -0.858 -5.93935 0
M  V30 5421 H 504.167 -1.41197 -4.63887 0
M  V30 5422 N 505.51 1.54411 -0.315457 0
M  V30 5423 C 506.442 2.21527 0.588067 0
M  V30 5424 C 507.455 1.21263 1.08624 0
M  V30 5425 O 508.644 1.47777 1.00121 0
M  V30 5426 C 505.744 2.85963 1.81875 0
M  V30 5427 C 504.917 4.12291 1.46063 0
M  V30 5428 C 503.976 4.60396 2.54799 0
M  V30 5429 O 503.002 5.25265 2.19283 0
M  V30 5430 N 504.204 4.33935 3.85591 0
M  V30 5431 H 506.969 2.99697 0.013414 0
M  V30 5432 H 504.53 1.61308 -0.138295 0
M  V30 5433 H 506.522 3.15071 2.53993 0
M  V30 5434 H 505.092 2.11548 2.30144 0
M  V30 5435 H 504.312 3.90036 0.571445 0
M  V30 5436 H 505.6 4.9452 1.19695 0
M  V30 5437 H 504.998 3.81996 4.17248 0
M  V30 5438 H 503.555 4.67718 4.53964 0
M  V30 5439 N 506.988 0.0434614 1.5754 0
M  V30 5440 C 507.936 -0.951465 2.1225 0
M  V30 5441 C 508.93 -1.3274 1.05245 0
M  V30 5442 O 510.136 -1.30795 1.23663 0
M  V30 5443 H 506.511 -0.324667 0.678303 0
M  V30 5444 H 508.482 -0.464855 2.94757 0
M  V30 5445 C 507.231 -2.21972 2.67626 0
M  V30 5446 H 506.554 -1.93923 3.4962 0
M  V30 5447 H 507.994 -2.89765 3.09536 0
M  V30 5448 C 506.453 -2.95919 1.61038 0
M  V30 5449 O 506.983 -3.8857 1.01862 0
M  V30 5450 N 505.189 -2.58511 1.32741 0
M  V30 5451 H 504.736 -1.83244 1.81051 0
M  V30 5452 H 504.694 -3.08296 0.616531 0
M  V30 5453 N 508.466 -1.55915 -0.229846 0
M  V30 5454 C 509.712 -1.78807 -0.956868 0
M  V30 5455 C 510.045 -0.611687 -1.84315 0
M  V30 5456 O 509.32 0.389398 -1.90562 0
M  V30 5457 C 509.603 -3.11718 -1.80288 0
M  V30 5458 C 509.456 -4.3979 -0.943649 0
M  V30 5459 C 510.775 -3.40999 -2.78222 0
M  V30 5460 H 507.894 -0.6505 -0.346437 0
M  V30 5461 H 510.536 -1.88648 -0.226252 0
M  V30 5462 H 508.686 -3.03459 -2.42579 0
M  V30 5463 H 510.358 -4.60059 -0.338121 0
M  V30 5464 H 508.601 -4.33086 -0.248705 0
M  V30 5465 H 509.272 -5.29208 -1.5698 0
M  V30 5466 H 511.748 -3.49332 -2.26067 0
M  V30 5467 H 510.624 -4.35183 -3.34526 0
M  V30 5468 H 510.885 -2.62754 -3.55546 0
M  V30 5469 N 509.944 0.496216 -1.49584 0
M  V30 5470 C 511.174 1.27209 -1.62793 0
M  V30 5471 C 511.582 1.86799 -0.300476 0
M  V30 5472 O 510.925 1.68802 0.724674 0
M  V30 5473 C 510.987 2.43812 -2.64189 0
M  V30 5474 C 510.651 2.05055 -4.08414 0
M  V30 5475 C 511.648 1.58752 -4.9507 0
M  V30 5476 C 509.333 2.14543 -4.54177 0
M  V30 5477 C 511.327 1.22448 -6.25528 0
M  V30 5478 C 509.014 1.77851 -5.84647 0
M  V30 5479 C 510.012 1.31878 -6.70147 0
M  V30 5480 O 509.7 0.956834 -7.98185 0
M  V30 5481 H 509.432 0.391848 -0.550846 0
M  V30 5482 H 511.986 0.601712 -1.96389 0
M  V30 5483 H 510.216 3.13941 -2.25783 0
M  V30 5484 H 511.905 3.05829 -2.66877 0
M  V30 5485 H 512.671 1.50863 -4.60939 0
M  V30 5486 H 508.55 2.49277 -3.87791 0
M  V30 5487 H 512.094 0.864933 -6.92217 0
M  V30 5488 H 507.991 1.8539 -6.18305 0
M  V30 5489 H 508.759 1.08789 -8.11238 0
M  V30 5490 N 511.423 1.38739 0.74761 0
M  V30 5491 C 512.839 1.20067 1.05148 0
M  V30 5492 C 513.039 0.0534835 2.01429 0
M  V30 5493 O 512.095 -0.59886 2.45296 0
M  V30 5494 C 513.408 2.52957 1.62584 0
M  V30 5495 C 514.956 2.59692 1.74726 0
M  V30 5496 C 515.431 3.92772 2.35573 0
M  V30 5497 N 516.922 3.94343 2.42997 0
M  V30 5498 C 517.657 4.9408 2.90985 0
M  V30 5499 N 517.153 6.04214 3.38965 0
M  V30 5500 N 518.946 4.81466 2.9008 0
M  V30 5501 H 511.097 2.12121 0.108808 0
M  V30 5502 H 513.36 0.941491 0.110899 0
M  V30 5503 H 513.066 3.37389 0.993051 0
M  V30 5504 H 512.94 2.71779 2.61565 0
M  V30 5505 H 515.327 1.75651 2.3713 0
M  V30 5506 H 515.408 2.44731 0.744326 0
M  V30 5507 H 515.052 4.77238 1.738 0
M  V30 5508 H 514.982 4.05046 3.36519 0
M  V30 5509 H 517.473 3.14799 2.0907 0
M  V30 5510 H 517.786 6.76241 3.74056 0
M  V30 5511 H 516.131 6.07825 3.37007 0
M  V30 5512 H 519.322 3.94535 2.51912 0
M  V30 5513 H 519.495 5.59344 3.27166 0
M  V30 5514 N 512.901 -0.976442 1.23707 0
M  V30 5515 C 513.811 -2.10359 1.03856 0
M  V30 5516 C 514.827 -1.73991 -0.0180919 0
M  V30 5517 O 516.003 -2.0061 0.178211 0
M  V30 5518 C 513.068 -3.40809 0.636387 0
M  V30 5519 C 512.129 -3.91179 1.76854 0
M  V30 5520 C 511.362 -5.15404 1.38546 0
M  V30 5521 O 511.585 -5.69754 0.27142 0
M  V30 5522 O 510.519 -5.5994 2.20797 0
M  V30 5523 H 514.345 -2.29997 1.98331 0
M  V30 5524 H 511.93 -1.08742 1.02448 0
M  V30 5525 H 513.812 -4.19269 0.423223 0
M  V30 5526 H 512.487 -3.22493 -0.279322 0
M  V30 5527 H 511.394 -3.13819 2.03638 0
M  V30 5528 H 512.727 -4.13958 2.6627 0
M  V30 5529 N 514.379 -1.04941 -1.1758 0
M  V30 5530 C 515.326 -0.648155 -2.21512 0
M  V30 5531 C 516.296 0.348431 -1.62404 0
M  V30 5532 O 517.481 0.240419 -1.89279 0
M  V30 5533 C 514.621 -0.0264291 -3.4509 0
M  V30 5534 C 513.734 -1.07154 -4.185 0
M  V30 5535 C 512.869 -0.417403 -5.29558 0
M  V30 5536 C 511.908 -1.447 -5.94751 0
M  V30 5537 N 511.045 -0.817203 -6.97328 0
M  V30 5538 H 515.885 -1.53891 -2.55189 0
M  V30 5539 H 513.422 -0.769699 -1.25356 0
M  V30 5540 H 515.38 0.351456 -4.15717 0
M  V30 5541 H 514.01 0.827802 -3.12005 0
M  V30 5542 H 513.062 -1.56728 -3.46613 0
M  V30 5543 H 514.374 -1.8532 -4.63096 0
M  V30 5544 H 513.528 0.0142061 -6.06698 0
M  V30 5545 H 512.267 0.396265 -4.86087 0
M  V30 5546 H 511.272 -1.88865 -5.16343 0
M  V30 5547 H 512.497 -2.26252 -6.40302 0
M  V30 5548 H 510.443 -0.0239995 -6.55996 0
M  V30 5549 H 510.36 -1.53644 -7.40223 0
M  V30 5550 H 511.628 -0.410283 -7.7842 0
M  V30 5551 N 515.857 1.33968 -0.830081 0
M  V30 5552 C 516.82 2.27694 -0.26235 0
M  V30 5553 C 517.82 1.50589 0.563876 0
M  V30 5554 O 519.01 1.70028 0.378941 0
M  V30 5555 C 516.142 3.35002 0.63138 0
M  V30 5556 H 517.335 2.79419 -1.08928 0
M  V30 5557 H 514.888 1.44221 -0.602486 0
M  V30 5558 H 515.623 2.88504 1.48109 0
M  V30 5559 H 515.408 3.92079 0.0403276 0
M  V30 5560 H 516.898 4.04897 1.02217 0
M  V30 5561 N 517.335 0.585699 1.46312 0
M  V30 5562 C 518.282 -0.145835 2.30339 0
M  V30 5563 C 519.252 -0.881215 1.40797 0
M  V30 5564 O 520.437 -0.871293 1.69744 0
M  V30 5565 C 517.577 -1.15161 3.25318 0
M  V30 5566 C 516.69 -0.419367 4.2996 0
M  V30 5567 C 515.825 -1.41293 5.12064 0
M  V30 5568 C 514.864 -0.667261 6.08452 0
M  V30 5569 N 514.001 -1.60903 6.83414 0
M  V30 5570 H 518.841 0.576755 2.92365 0
M  V30 5571 H 516.378 0.296237 1.44086 0
M  V30 5572 H 518.336 -1.74763 3.78832 0
M  V30 5573 H 516.966 -1.84188 2.65094 0
M  V30 5574 H 516.018 0.291751 3.7928 0
M  V30 5575 H 517.33 0.163433 4.98532 0
M  V30 5576 H 516.484 -2.08167 5.6987 0
M  V30 5577 H 515.223 -2.02966 4.43459 0
M  V30 5578 H 514.228 0.0152356 5.49798 0
M  V30 5579 H 515.453 -0.0558817 6.79077 0
M  V30 5580 H 513.399 -2.21381 6.17516 0
M  V30 5581 H 513.316 -1.07911 7.48259 0
M  V30 5582 H 514.584 -2.26802 7.45775 0
M  V30 5583 N 518.813 -1.54241 0.323641 0
M  V30 5584 C 519.76 -2.24339 -0.542277 0
M  V30 5585 C 520.73 -1.23421 -1.11159 0
M  V30 5586 O 521.915 -1.52104 -1.15192 0
M  V30 5587 C 519.055 -3.00479 -1.69725 0
M  V30 5588 C 518.168 -4.16214 -1.15716 0
M  V30 5589 C 517.303 -4.79884 -2.27783 0
M  V30 5590 C 516.342 -5.87722 -1.71023 0
M  V30 5591 N 515.479 -6.45254 -2.76752 0
M  V30 5592 H 520.319 -2.97935 0.0620613 0
M  V30 5593 H 517.856 -1.47039 0.0423993 0
M  V30 5594 H 519.814 -3.42869 -2.3769 0
M  V30 5595 H 518.444 -2.29217 -2.27288 0
M  V30 5596 H 517.496 -3.78605 -0.369063 0
M  V30 5597 H 518.808 -4.93838 -0.701832 0
M  V30 5598 H 517.962 -5.25243 -3.03651 0
M  V30 5599 H 516.701 -4.01641 -2.76652 0
M  V30 5600 H 515.706 -5.41765 -0.936518 0
M  V30 5601 H 516.931 -6.67863 -1.2303 0
M  V30 5602 H 514.877 -5.69884 -3.24912 0
M  V30 5603 H 514.794 -7.18292 -2.35782 0
M  V30 5604 H 516.062 -6.95269 -3.5245 0
M  V30 5605 N 520.291 -0.0518155 -1.57515 0
M  V30 5606 C 521.568 0.661727 -1.84067 0
M  V30 5607 C 521.948 1.88999 -0.940351 0
M  V30 5608 O 521.296 2.285 -0.00155404 0
M  V30 5609 C 521.506 1.01841 -3.3381 0
M  V30 5610 C 522.854 1.40043 -4.00841 0
M  V30 5611 O 523.878 1.11073 -3.38439 0
M  V30 5612 O 522.737 1.94111 -5.10865 0
M  V30 5613 H 519.831 0.326702 -0.759733 0
M  V30 5614 H 522.377 -0.0812277 -1.69505 0
M  V30 5615 H 521.149 0.145202 -3.91031 0
M  V30 5616 H 520.772 1.81879 -3.53562 0
M  V30 5617 N 521.769 1.56035 0.221574 0
M  V30 5618 C 522.732 1.91584 1.2581 0
M  V30 5619 C 523.732 0.794425 1.39805 0
M  V30 5620 O 524.922 1.06217 1.38071 0
M  V30 5621 C 522.054 2.16663 2.63192 0
M  V30 5622 H 523.247 2.8429 0.954935 0
M  V30 5623 H 520.8 1.49316 0.461988 0
M  V30 5624 H 521.535 1.26508 2.98607 0
M  V30 5625 H 521.32 2.98358 2.5441 0
M  V30 5626 H 522.81 2.45262 3.37988 0
M  V30 5627 N 523.247 -0.488276 1.49845 0
M  V30 5628 C 524.21 -1.57069 1.66919 0
M  V30 5629 C 525.21 -1.51445 0.540479 0
M  V30 5630 O 526.4 -1.5437 0.807188 0
M  V30 5631 C 523.532 -2.96718 1.67844 0
M  V30 5632 H 524.725 -1.43254 2.63474 0
M  V30 5633 H 522.278 -0.713435 1.39068 0
M  V30 5634 H 523.013 -3.15996 0.7292 0
M  V30 5635 H 522.798 -3.02208 2.49826 0
M  V30 5636 H 524.288 -3.75335 1.83066 0
M  V30 5637 N 524.725 -1.39134 -0.740242 0
M  V30 5638 C 525.688 -1.37217 -1.83587 0
M  V30 5639 C 526.688 -0.270221 -1.58513 0
M  V30 5640 O 527.878 -0.527843 -1.6601 0
M  V30 5641 C 525.01 -1.13959 -3.21288 0
M  V30 5642 H 526.203 -2.34705 -1.86691 0
M  V30 5643 H 523.756 -1.24622 -0.94335 0
M  V30 5644 H 524.491 -0.17131 -3.23847 0
M  V30 5645 H 524.276 -1.93754 -3.40884 0
M  V30 5646 H 525.766 -1.15346 -4.01354 0
M  V30 5647 N 526.204 0.969867 -1.24223 0
M  V30 5648 C 527.45 1.7151 -1.08223 0
M  V30 5649 C 527.783 1.90478 0.37838 0
M  V30 5650 O 527.058 1.4647 1.27971 0
M  V30 5651 C 527.341 3.10714 -1.82013 0
M  V30 5652 C 527.194 2.9925 -3.35811 0
M  V30 5653 C 528.513 4.10332 -1.59108 0
M  V30 5654 H 525.632 0.622499 -0.394543 0
M  V30 5655 H 528.274 1.1284 -1.52863 0
M  V30 5656 H 526.424 3.608 -1.44068 0
M  V30 5657 H 528.096 2.56608 -3.83341 0
M  V30 5658 H 526.339 2.35512 -3.64303 0
M  V30 5659 H 527.01 3.97857 -3.82641 0
M  V30 5660 H 529.486 3.69097 -1.92111 0
M  V30 5661 H 528.362 5.05804 -2.13198 0
M  V30 5662 H 528.623 4.38926 -0.528832 0
M  V30 5663 N 527.682 1.05563 1.17022 0
M  V30 5664 C 528.93 0.76642 1.87004 0
M  V30 5665 C 529.251 -0.708854 1.8166 0
M  V30 5666 O 528.521 -1.51242 1.2451 0
M  V30 5667 H 527.101 0.280516 0.692329 0
M  V30 5668 H 529.763 1.33557 1.41945 0
M  V30 5669 H 528.859 1.08472 2.92644 0
M  V30 5670 N 529.16 -1.33526 0.837174 0
M  V30 5671 C 530.108 -2.31168 0.257698 0
M  V30 5672 C 531.102 -1.5806 -0.609388 0
M  V30 5673 O 532.308 -1.72941 -0.499139 0
M  V30 5674 H 528.683 -0.74922 0.0646058 0
M  V30 5675 H 530.654 -2.77552 1.09578 0
M  V30 5676 C 529.403 -3.4326 -0.553887 0
M  V30 5677 H 528.726 -3.99665 0.104008 0
M  V30 5678 H 530.166 -4.13782 -0.925219 0
M  V30 5679 C 528.625 -2.88965 -1.73207 0
M  V30 5680 O 529.155 -2.85013 -2.83073 0
M  V30 5681 N 527.361 -2.45596 -1.55342 0
M  V30 5682 H 526.908 -2.49009 -0.659705 0
M  V30 5683 H 526.866 -2.0962 -2.34322 0
M  V30 5684 N 530.638 -0.59345 -1.46 0
M  V30 5685 C 531.588 0.154751 -2.27474 0
M  V30 5686 C 532.572 0.851849 -1.365 0
M  V30 5687 O 533.764 0.744171 -1.60596 0
M  V30 5688 C 530.893 1.16079 -3.2308 0
M  V30 5689 C 529.979 0.465256 -4.2154 0
M  V30 5690 N 530.37 -0.485197 -5.03467 0
M  V30 5691 C 528.668 0.714634 -4.40237 0
M  V30 5692 C 529.369 -0.892709 -5.74809 0
M  V30 5693 N 528.345 -0.239511 -5.43072 0
M  V30 5694 H 532.147 -0.57546 -2.88211 0
M  V30 5695 H 529.661 -0.416046 -1.5698 0
M  V30 5696 H 531.658 1.71108 -3.80168 0
M  V30 5697 H 530.318 1.89171 -2.63903 0
M  V30 5698 H 531.329 -0.861258 -5.10689 0
M  V30 5699 H 528.006 1.43131 -3.92199 0
M  V30 5700 H 529.396 -1.67581 -6.50666 0
M  V30 5701 N 532.116 1.54067 -0.331816 0
M  V30 5702 C 533.362 2.01012 0.268667 0
M  V30 5703 C 533.695 1.2195 1.51136 0
M  V30 5704 O 532.97 0.303972 1.9211 0
M  V30 5705 C 533.253 3.55158 0.59456 0
M  V30 5706 C 533.106 4.4494 -0.659409 0
M  V30 5707 C 534.425 4.16939 1.4089 0
M  V30 5708 H 531.544 0.730698 0.0961756 0
M  V30 5709 H 534.186 1.84593 -0.450031 0
M  V30 5710 H 532.336 3.6928 1.20685 0
M  V30 5711 H 534.008 4.42675 -1.29756 0
M  V30 5712 H 532.251 4.1428 -1.28665 0
M  V30 5713 H 532.922 5.50643 -0.386804 0
M  V30 5714 H 535.398 4.06443 0.891272 0
M  V30 5715 H 534.274 5.24889 1.60569 0
M  V30 5716 H 534.535 3.70798 2.40752 0
M  V30 5717 N 533.594 0.0601682 1.57485 0
M  V30 5718 C 534.557 -0.896373 2.10945 0
M  V30 5719 C 535.557 -1.23402 1.03095 0
M  V30 5720 O 536.747 -1.16921 1.29132 0
M  V30 5721 C 533.879 -2.20346 2.60116 0
M  V30 5722 H 535.072 -0.432778 2.96761 0
M  V30 5723 H 532.625 -0.188372 1.55161 0
M  V30 5724 H 533.36 -2.71268 1.7772 0
M  V30 5725 H 533.145 -1.9714 3.38937 0
M  V30 5726 H 534.635 -2.88846 3.01592 0
M  V30 5727 N 535.072 -1.5615 -0.213296 0
M  V30 5728 C 536.019 -1.93086 -1.26437 0
M  V30 5729 C 536.989 -0.789086 -1.4616 0
M  V30 5730 O 538.174 -1.04569 -1.59593 0
M  V30 5731 C 535.314 -2.26003 -2.608 0
M  V30 5732 C 534.427 -3.53156 -2.48807 0
M  V30 5733 C 533.562 -3.7548 -3.7575 0
M  V30 5734 C 532.601 -4.96119 -3.58514 0
M  V30 5735 N 531.738 -5.14791 -4.77425 0
M  V30 5736 H 536.578 -2.82707 -0.942376 0
M  V30 5737 H 534.115 -1.39919 -0.454001 0
M  V30 5738 H 536.073 -2.431 -3.39055 0
M  V30 5739 H 534.703 -1.39546 -2.91079 0
M  V30 5740 H 533.755 -3.44207 -1.61944 0
M  V30 5741 H 535.067 -4.41565 -2.31996 0
M  V30 5742 H 534.221 -3.92718 -4.62447 0
M  V30 5743 H 532.96 -2.85368 -3.95495 0
M  V30 5744 H 531.965 -4.78823 -2.70201 0
M  V30 5745 H 533.19 -5.87724 -3.40231 0
M  V30 5746 H 531.136 -4.27623 -4.97468 0
M  V30 5747 H 531.053 -5.97347 -4.63371 0
M  V30 5748 H 532.321 -5.36471 -5.65525 0
M  V30 5749 N 536.55 0.480323 -1.50102 0
M  V30 5750 C 537.48 1.58769 -1.71215 0
M  V30 5751 C 538.461 1.60583 -0.560997 0
M  V30 5752 O 539.646 1.76996 -0.799127 0
M  V30 5753 C 536.776 2.97148 -1.79778 0
M  V30 5754 C 535.73 3.10201 -2.94888 0
M  V30 5755 C 535.056 4.50137 -2.88584 0
M  V30 5756 C 536.356 2.88283 -4.35534 0
M  V30 5757 H 538.05 1.41354 -2.6393 0
M  V30 5758 H 535.596 0.678591 -1.27008 0
M  V30 5759 H 537.549 3.74536 -1.93133 0
M  V30 5760 H 536.273 3.15699 -0.836772 0
M  V30 5761 H 534.932 2.35244 -2.81169 0
M  V30 5762 H 534.58 4.65593 -1.90349 0
M  V30 5763 H 534.28 4.59808 -3.65856 0
M  V30 5764 H 535.804 5.29558 -3.03976 0
M  V30 5765 H 537.218 3.55427 -4.49827 0
M  V30 5766 H 535.615 3.09408 -5.14186 0
M  V30 5767 H 536.685 1.84219 -4.48544 0
M  V30 5768 N 538.028 1.39524 0.732853 0
M  V30 5769 C 538.958 1.41153 1.86005 0
M  V30 5770 C 539.939 0.274614 1.67869 0
M  V30 5771 O 541.124 0.480745 1.88155 0
M  V30 5772 C 538.254 1.25638 3.23778 0
M  V30 5773 C 537.208 2.36752 3.56556 0
M  V30 5774 C 536.534 2.06326 4.93289 0
M  V30 5775 C 537.834 3.79069 3.5931 0
M  V30 5776 H 539.528 2.35484 1.84899 0
M  V30 5777 H 537.074 1.13348 0.888162 0
M  V30 5778 H 539.027 1.25398 4.0231 0
M  V30 5779 H 537.751 0.277772 3.25417 0
M  V30 5780 H 536.41 2.36213 2.80355 0
M  V30 5781 H 536.058 1.06897 4.9151 0
M  V30 5782 H 535.758 2.80757 5.16187 0
M  V30 5783 H 537.282 2.07739 5.74175 0
M  V30 5784 H 538.696 3.81526 4.27914 0
M  V30 5785 H 537.093 4.52878 3.93728 0
M  V30 5786 H 538.163 4.09893 2.59068 0
M  V30 5787 N 539.506 -0.963266 1.24736 0
M  V30 5788 C 540.438 -2.06162 1.0015 0
M  V30 5789 C 541.451 -1.62771 -0.0305905 0
M  V30 5790 O 542.64 -1.77296 0.206966 0
M  V30 5791 C 539.74 -3.35333 0.490385 0
M  V30 5792 C 538.913 -4.07609 1.58663 0
M  V30 5793 C 537.972 -5.15052 1.0774 0
M  V30 5794 O 536.998 -5.4098 1.77002 0
M  V30 5795 N 538.2 -5.80436 -0.0858605 0
M  V30 5796 H 540.965 -2.27825 1.94719 0
M  V30 5797 H 538.526 -1.13121 1.15825 0
M  V30 5798 H 540.518 -4.04477 0.134371 0
M  V30 5799 H 539.088 -3.10507 -0.361155 0
M  V30 5800 H 538.308 -3.32681 2.11463 0
M  V30 5801 H 539.596 -4.52656 2.32336 0
M  V30 5802 H 538.994 -5.6178 -0.664806 0
M  V30 5803 H 537.551 -6.50674 -0.382981 0
M  V30 5804 N 540.985 -1.06182 -1.16461 0
M  V30 5805 C 542.21 -0.798599 -1.91408 0
M  V30 5806 C 542.635 0.640987 -1.76842 0
M  V30 5807 O 541.993 1.44652 -1.09296 0
M  V30 5808 C 542.041 -1.19665 -3.40165 0
M  V30 5809 O 541.145 -0.334768 -4.11039 0
M  V30 5810 H 540.486 -0.291961 -0.596368 0
M  V30 5811 H 543.016 -1.41732 -1.47557 0
M  V30 5812 H 543.026 -1.16772 -3.90933 0
M  V30 5813 H 541.701 -2.24526 -3.50087 0
M  V30 5814 H 540.278 -0.425168 -3.70468 0
M  V30 5815 N 542.463 1.3308 -0.844243 0
M  V30 5816 C 543.712 1.96868 -0.438833 0
M  V30 5817 C 544.025 1.67599 1.00846 0
M  V30 5818 O 545.231 2.25043 1.51881 0
M  V30 5819 C 543.687 3.5234 -0.73377 0
M  V30 5820 C 543.295 3.90481 -2.1961 0
M  V30 5821 C 545.039 4.22653 -0.395574 0
M  V30 5822 C 542.946 5.38954 -2.43481 0
M  V30 5823 H 541.876 0.736749 -0.160364 0
M  V30 5824 H 544.527 1.51623 -1.03358 0
M  V30 5825 H 542.909 3.95941 -0.068589 0
M  V30 5826 H 544.083 3.57922 -2.90221 0
M  V30 5827 H 542.398 3.33165 -2.4978 0
M  V30 5828 H 544.995 5.31848 -0.551477 0
M  V30 5829 H 545.338 4.11004 0.661921 0
M  V30 5830 H 545.871 3.84601 -1.01621 0
M  V30 5831 H 542.61 5.55612 -3.47816 0
M  V30 5832 H 542.13 5.72954 -1.77437 0
M  V30 5833 H 543.809 6.05907 -2.26905 0
M  V30 5834 N 543.941 0.601185 1.45683 0
M  V30 5835 C 545.189 0.0936957 2.01883 0
M  V30 5836 C 545.51 -1.2779 1.47291 0
M  V30 5837 O 544.78 -1.84279 0.664691 0
M  V30 5838 H 543.36 0.0316466 0.746329 0
M  V30 5839 H 546.022 0.781137 1.78562 0
M  V30 5840 H 545.118 0.0386297 3.12076 0
M  V30 5841 N 545.419 -1.53889 0.339982 0
M  V30 5842 C 546.351 -2.22435 -0.55275 0
M  V30 5843 C 547.364 -1.22975 -1.06681 0
M  V30 5844 O 548.553 -1.49351 -0.977575 0
M  V30 5845 C 545.653 -2.8882 -1.77302 0
M  V30 5846 C 544.826 -4.14563 -1.39486 0
M  V30 5847 C 543.885 -4.64391 -2.47442 0
M  V30 5848 O 542.911 -5.28687 -2.10899 0
M  V30 5849 N 544.113 -4.40015 -3.78639 0
M  V30 5850 H 546.878 -2.9968 0.0342669 0
M  V30 5851 H 544.439 -1.61068 0.16394 0
M  V30 5852 H 546.431 -3.19072 -2.48948 0
M  V30 5853 H 545.001 -2.15182 -2.26749 0
M  V30 5854 H 544.221 -3.90896 -0.509321 0
M  V30 5855 H 545.509 -4.96362 -1.11813 0
M  V30 5856 H 544.907 -3.88586 -4.11118 0
M  V30 5857 H 543.464 -4.74881 -4.46465 0
M  V30 5858 N 546.897 -0.0685191 -1.57451 0
M  V30 5859 C 547.86 0.885173 -2.11417 0
M  V30 5860 C 548.86 1.22853 -1.03748 0
M  V30 5861 O 550.05 1.16235 -1.2975 0
M  V30 5862 C 547.182 2.18964 -2.61281 0
M  V30 5863 H 548.375 0.417034 -2.96986 0
M  V30 5864 H 545.928 0.18014 -1.55258 0
M  V30 5865 H 546.663 2.70321 -1.79156 0
M  V30 5866 H 546.448 1.9534 -3.39977 0
M  V30 5867 H 547.938 2.87242 -3.0312 0
M  V30 5868 N 548.375 1.56261 0.205012 0
M  V30 5869 C 549.786 1.70056 0.770574 0
M  V30 5870 C 550.137 0.673398 1.84282 0
M  V30 5871 O 549.262 -0.172196 2.15714 0
M  V30 5872 C 549.857 3.08316 1.40451 0
M  V30 5873 C 548.416 3.2391 1.91727 0
M  V30 5874 C 547.563 2.66001 0.783516 0
M  V30 5875 H 550.514 1.58688 -0.019911 0
M  V30 5876 H 550.535 3.05094 2.27371 0
M  V30 5877 H 550.047 3.83053 0.623882 0
M  V30 5878 H 548.148 2.54072 2.7254 0
M  V30 5879 H 548.261 4.3131 2.08588 0
M  V30 5880 H 546.625 2.24915 1.19521 0
M  V30 5881 H 547.408 3.43297 0.0152883 0
M  V30 5882 N 549.853 -0.472356 1.50355 0
M  V30 5883 C 550.763 -1.59637 1.7191 0
M  V30 5884 C 551.779 -1.63247 0.602195 0
M  V30 5885 O 552.955 -1.81139 0.880369 0
M  V30 5886 C 550.02 -2.9586 1.80742 0
M  V30 5887 C 549.081 -3.02649 3.04471 0
M  V30 5888 C 548.314 -4.32374 3.12872 0
M  V30 5889 O 548.537 -5.22807 2.28099 0
M  V30 5890 O 547.471 -4.44728 4.05587 0
M  V30 5891 H 551.297 -1.44373 2.67189 0
M  V30 5892 H 548.882 -0.651717 1.34436 0
M  V30 5893 H 550.764 -3.7677 1.88739 0
M  V30 5894 H 549.439 -3.11325 0.88647 0
M  V30 5895 H 548.346 -2.20821 3.01975 0
M  V30 5896 H 549.679 -2.92119 3.9614 0
M  V30 5897 N 551.331 -1.39911 -0.725443 0
M  V30 5898 C 552.556 -1.41137 -1.5197 0
M  V30 5899 C 552.981 -0.010262 -1.88097 0
M  V30 5900 O 552.339 0.979184 -1.52583 0
M  V30 5901 C 552.387 -2.2994 -2.77777 0
M  V30 5902 O 551.491 -1.73586 -3.74088 0
M  V30 5903 H 550.832 -0.480219 -0.458569 0
M  V30 5904 H 553.362 -1.84023 -0.894249 0
M  V30 5905 H 553.372 -2.44785 -3.26411 0
M  V30 5906 H 552.047 -3.31759 -2.50816 0
M  V30 5907 H 550.624 -1.68035 -3.32894 0
M  V30 5908 N 552.809 0.956637 -1.25245 0
M  V30 5909 C 554.058 1.69537 -1.0927 0
M  V30 5910 C 554.371 1.92136 0.366503 0
M  V30 5911 O 555.577 2.63687 0.64665 0
M  V30 5912 C 554.033 3.05211 -1.9072 0
M  V30 5913 C 553.641 2.90416 -3.41119 0
M  V30 5914 C 555.385 3.82882 -1.83308 0
M  V30 5915 C 553.292 4.21468 -4.14872 0
M  V30 5916 H 552.222 0.635804 -0.405302 0
M  V30 5917 H 554.873 1.06513 -1.49423 0
M  V30 5918 H 553.255 3.69128 -1.43389 0
M  V30 5919 H 554.429 2.35444 -3.9611 0
M  V30 5920 H 552.744 2.26203 -3.49602 0
M  V30 5921 H 555.341 4.79944 -2.35706 0
M  V30 5922 H 555.684 4.0853 -0.800572 0
M  V30 5923 H 556.217 3.25711 -2.28379 0
M  V30 5924 H 552.956 4.01009 -5.18529 0
M  V30 5925 H 552.476 4.76213 -3.64665 0
M  V30 5926 H 554.155 4.90022 -4.22478 0
M  V30 5927 N 554.287 1.06798 1.15896 0
M  V30 5928 C 555.512 0.808739 1.90982 0
M  V30 5929 C 555.937 -0.6316 1.77179 0
M  V30 5930 O 555.295 -1.4407 1.10061 0
M  V30 5931 C 555.343 1.21468 3.39526 0
M  V30 5932 O 554.447 0.356562 4.10856 0
M  V30 5933 H 553.788 0.29512 0.594811 0
M  V30 5934 H 556.318 1.42513 1.46804 0
M  V30 5935 H 556.328 1.18844 3.90308 0
M  V30 5936 H 555.003 2.26379 3.48891 0
M  V30 5937 H 553.58 0.444808 3.70238 0
M  V30 5938 N 555.766 -1.3263 0.851289 0
M  V30 5939 C 556.676 -2.32722 0.296268 0
M  V30 5940 C 557.692 -1.63901 -0.584162 0
M  V30 5941 O 558.868 -1.95465 -0.485334 0
M  V30 5942 C 555.933 -3.42942 -0.509103 0
M  V30 5943 C 554.994 -4.2746 0.397069 0
M  V30 5944 C 554.227 -5.32416 -0.36996 0
M  V30 5945 O 554.45 -5.47491 -1.6003 0
M  V30 5946 O 553.384 -6.01327 0.262493 0
M  V30 5947 H 557.21 -2.82078 1.12543 0
M  V30 5948 H 554.795 -1.36194 0.614135 0
M  V30 5949 H 556.677 -4.1017 -0.96634 0
M  V30 5950 H 555.352 -2.95781 -1.31512 0
M  V30 5951 H 554.259 -3.63053 0.902411 0
M  V30 5952 H 555.592 -4.78136 1.16818 0
M  V30 5953 N 557.244 -0.608902 -1.45362 0
M  V30 5954 C 558.191 0.109172 -2.30542 0
M  V30 5955 C 559.161 0.858704 -1.42181 0
M  V30 5956 O 560.346 0.844178 -1.71109 0
M  V30 5957 C 557.486 1.09971 -3.27109 0
M  V30 5958 C 556.599 0.350911 -4.30572 0
M  V30 5959 C 555.734 1.33129 -5.14247 0
M  V30 5960 C 554.773 0.570377 -6.09437 0
M  V30 5961 N 553.91 1.5001 -6.85887 0
M  V30 5962 H 558.75 -0.623195 -2.91411 0
M  V30 5963 H 556.287 -0.319122 -1.43597 0
M  V30 5964 H 558.245 1.68714 -3.81564 0
M  V30 5965 H 556.875 1.79947 -2.67991 0
M  V30 5966 H 555.927 -0.352054 -3.78767 0
M  V30 5967 H 557.239 -0.242725 -4.98209 0
M  V30 5968 H 556.393 1.99074 -5.73109 0
M  V30 5969 H 555.132 1.95885 -4.46632 0
M  V30 5970 H 554.137 -0.102702 -5.49704 0
M  V30 5971 H 555.362 -0.0521607 -6.7908 0
M  V30 5972 H 553.308 2.11529 -6.2096 0
M  V30 5973 H 553.225 0.959934 -7.49881 0
M  V30 5974 H 554.493 2.14909 -7.49289 0
M  V30 5975 N 558.722 1.53707 -0.348139 0
M  V30 5976 C 559.632 2.28881 0.514857 0
M  V30 5977 C 560.648 1.34168 1.10793 0
M  V30 5978 O 561.824 1.6721 1.12262 0
M  V30 5979 C 558.889 3.05042 1.64774 0
M  V30 5980 C 557.95 4.15389 1.08398 0
M  V30 5981 C 557.183 4.87909 2.16287 0
M  V30 5982 O 557.406 4.60137 3.3709 0
M  V30 5983 O 556.34 5.74254 1.80323 0
M  V30 5984 H 560.166 3.03547 -0.0963699 0
M  V30 5985 H 557.751 1.48972 -0.113043 0
M  V30 5986 H 559.633 3.52656 2.30677 0
M  V30 5987 H 558.308 2.33228 2.24469 0
M  V30 5988 H 557.215 3.72068 0.389341 0
M  V30 5989 H 558.548 4.89318 0.531829 0
M  V30 5990 N 560.2 0.0768682 1.57412 0
M  V30 5991 C 561.13 -0.886026 2.16037 0
M  V30 5992 C 562.111 -1.30691 1.08876 0
M  V30 5993 O 563.296 -1.37705 1.36934 0
M  V30 5994 C 560.426 -2.1518 2.72608 0
M  V30 5995 C 559.38 -1.87015 3.8498 0
M  V30 5996 C 558.706 -3.20266 4.28175 0
M  V30 5997 C 560.006 -1.17143 5.08994 0
M  V30 5998 H 561.7 -0.397642 2.96748 0
M  V30 5999 H 559.246 -0.189823 1.42743 0
M  V30 6000 H 561.199 -2.82962 3.12266 0
M  V30 6001 H 559.923 -2.66269 1.89125 0
M  V30 6002 H 558.582 -1.21636 3.45833 0
M  V30 6003 H 558.23 -3.69207 3.41607 0
M  V30 6004 H 557.93 -3.0221 5.03927 0
M  V30 6005 H 559.454 -3.89237 4.70454 0
M  V30 6006 H 560.868 -1.75003 5.45937 0
M  V30 6007 H 559.265 -1.09328 5.90057 0
M  V30 6008 H 560.335 -0.151295 4.84664 0
M  V30 6009 N 561.678 -1.56367 -0.196722 0
M  V30 6010 C 562.625 -1.94417 -1.24382 0
M  V30 6011 C 563.595 -0.804543 -1.45315 0
M  V30 6012 O 564.78 -1.06256 -1.58475 0
M  V30 6013 C 561.92 -2.28757 -2.58388 0
M  V30 6014 C 561.033 -3.55775 -2.45047 0
M  V30 6015 C 560.168 -3.79445 -3.71746 0
M  V30 6016 C 559.207 -4.99894 -3.53231 0
M  V30 6017 N 558.344 -5.19826 -4.71938 0
M  V30 6018 H 563.184 -2.83691 -0.912338 0
M  V30 6019 H 560.721 -1.40392 -0.439135 0
M  V30 6020 H 562.679 -2.46682 -3.36457 0
M  V30 6021 H 561.309 -1.42625 -2.89582 0
M  V30 6022 H 560.361 -3.45905 -1.58284 0
M  V30 6023 H 561.673 -4.44 -2.27299 0
M  V30 6024 H 560.827 -3.97601 -4.58256 0
M  V30 6025 H 559.566 -2.89546 -3.92446 0
M  V30 6026 H 558.571 -4.81662 -2.65107 0
M  V30 6027 H 559.796 -5.913 -3.33978 0
M  V30 6028 H 557.742 -4.32875 -4.92905 0
M  V30 6029 H 557.659 -6.02228 -4.57009 0
M  V30 6030 H 558.927 -5.42439 -5.59803 0
M  V30 6031 N 563.156 0.464375 -1.50603 0
M  V30 6032 C 564.086 1.56944 -1.72889 0
M  V30 6033 C 565.067 1.59979 -0.577997 0
M  V30 6034 O 566.252 1.76138 -0.817855 0
M  V30 6035 C 563.382 2.95225 -1.8292 0
M  V30 6036 C 562.336 3.07056 -2.98162 0
M  V30 6037 C 561.662 4.47051 -2.93343 0
M  V30 6038 C 562.962 2.83648 -4.38567 0
M  V30 6039 H 564.656 1.38547 -2.65415 0
M  V30 6040 H 562.202 0.665082 -1.27721 0
M  V30 6041 H 564.155 3.72467 -1.97095 0
M  V30 6042 H 562.879 3.14793 -0.870209 0
M  V30 6043 H 561.538 2.32248 -2.83648 0
M  V30 6044 H 561.186 4.63547 -1.95276 0
M  V30 6045 H 560.886 4.55902 -3.70712 0
M  V30 6046 H 562.41 5.26304 -3.09575 0
M  V30 6047 H 563.824 3.50636 -4.53572 0
M  V30 6048 H 562.221 3.03937 -5.17438 0
M  V30 6049 H 563.291 1.79451 -4.50472 0
M  V30 6050 N 564.634 1.40294 0.718013 0
M  V30 6051 C 565.564 1.43118 1.84498 0
M  V30 6052 C 566.545 0.292403 1.67568 0
M  V30 6053 O 567.73 0.500675 1.87635 0
M  V30 6054 C 564.86 1.29065 3.22427 0
M  V30 6055 C 563.814 2.40521 3.54025 0
M  V30 6056 C 563.14 2.11546 4.91073 0
M  V30 6057 C 564.44 3.82859 3.55269 0
M  V30 6058 H 566.134 2.37432 1.82391 0
M  V30 6059 H 563.68 1.14283 0.87609 0
M  V30 6060 H 565.633 1.29658 4.00957 0
M  V30 6061 H 564.357 0.312271 3.25104 0
M  V30 6062 H 563.016 2.39173 2.77834 0
M  V30 6063 H 562.664 1.12104 4.90348 0
M  V30 6064 H 562.364 2.86216 5.1318 0
M  V30 6065 H 563.888 2.13817 5.71939 0
M  V30 6066 H 565.302 3.86044 4.23843 0
M  V30 6067 H 563.699 4.57029 3.88902 0
M  V30 6068 H 564.769 4.12617 2.54706 0
M  V30 6069 N 566.112 -0.949982 1.2575 0
M  V30 6070 C 567.352 -1.70994 1.11984 0
M  V30 6071 C 567.716 -1.89095 -0.332746 0
M  V30 6072 O 568.917 -2.62192 -0.592331 0
M  V30 6073 C 567.188 -3.05286 1.85837 0
M  V30 6074 S 568.747 -3.96477 1.88019 0
M  V30 6075 H 565.565 -0.587689 0.400178 0
M  V30 6076 H 568.167 -1.13271 1.59342 0
M  V30 6077 H 566.871 -2.89785 2.90608 0
M  V30 6078 H 566.402 -3.68069 1.38885 0
M  V30 6079 H 568.417 -4.86814 0.96057 0
M  V30 6080 N 567.59 -1.07411 -1.15328 0
M  V30 6081 C 568.815 -0.818856 -1.90551 0
M  V30 6082 C 569.24 0.622194 -1.77512 0
M  V30 6083 O 568.598 1.43484 -1.10824 0
M  V30 6084 C 568.646 -1.23267 -3.38877 0
M  V30 6085 O 567.75 -0.378345 -4.10661 0
M  V30 6086 H 567.091 -0.29827 -0.593238 0
M  V30 6087 H 569.621 -1.43289 -1.46046 0
M  V30 6088 H 569.631 -1.20912 -3.89672 0
M  V30 6089 H 568.306 -2.28226 -3.47686 0
M  V30 6090 H 566.883 -0.464437 -3.69996 0
M  V30 6091 N 569.068 1.32177 -0.85831 0
M  V30 6092 C 570.016 2.30729 -0.294442 0
M  V30 6093 C 571.01 1.59009 0.584165 0
M  V30 6094 O 572.216 1.73713 0.471562 0
M  V30 6095 H 568.591 0.748097 -0.0765171 0
M  V30 6096 H 570.562 2.75774 -1.1398 0
M  V30 6097 C 569.311 3.44098 0.499208 0
M  V30 6098 H 568.634 3.99449 -0.167579 0
M  V30 6099 H 570.074 4.15202 0.859273 0
M  V30 6100 C 568.533 2.91684 1.68588 0
M  V30 6101 O 569.063 2.89481 2.78503 0
M  V30 6102 N 567.269 2.48036 1.51415 0
M  V30 6103 H 566.816 2.50027 0.620006 0
M  V30 6104 H 566.774 2.13322 2.30957 0
M  V30 6105 N 570.547 0.616602 1.45037 0
M  V30 6106 C 571.772 0.120192 2.07051 0
M  V30 6107 C 572.197 -1.19008 1.45666 0
M  V30 6108 O 571.555 -1.7267 0.552692 0
M  V30 6109 C 571.603 0.00354901 3.606 0
M  V30 6110 O 570.707 -1.04431 3.98958 0
M  V30 6111 H 570.048 0.0781599 0.659384 0
M  V30 6112 H 572.578 0.849167 1.86146 0
M  V30 6113 H 572.588 -0.191754 4.07549 0
M  V30 6114 H 571.263 0.960239 4.04663 0
M  V30 6115 H 569.84 -0.824749 3.63665 0
M  V30 6116 N 572.025 -1.5352 0.356285 0
M  V30 6117 C 572.988 -2.24071 -0.482182 0
M  V30 6118 C 573.988 -1.24531 -1.01729 0
M  V30 6119 O 575.178 -1.48876 -0.904513 0
M  V30 6120 C 572.31 -2.97025 -1.67299 0
M  V30 6121 H 573.503 -2.99596 0.135031 0
M  V30 6122 H 571.056 -1.55928 0.107825 0
M  V30 6123 H 571.791 -2.25719 -2.32855 0
M  V30 6124 H 571.576 -3.7005 -1.29636 0
M  V30 6125 H 573.066 -3.50683 -2.26741 0
M  V30 6126 N 573.503 -0.0852151 -1.57369 0
M  V30 6127 C 574.75 0.580806 -1.93992 0
M  V30 6128 C 575.078 1.68801 -0.966252 0
M  V30 6129 O 574.333 1.95694 0.0158649 0
M  V30 6130 C 574.632 1.18482 -3.3719 0
M  V30 6131 C 574.298 0.2024 -4.50446 0
M  V30 6132 C 572.96 -0.0678318 -4.81152 0
M  V30 6133 C 575.312 -0.46895 -5.19086 0
M  V30 6134 C 572.64 -1.01627 -5.77831 0
M  V30 6135 C 574.992 -1.4058 -6.16782 0
M  V30 6136 C 573.656 -1.68436 -6.45899 0
M  V30 6137 H 572.926 0.212532 -0.709867 0
M  V30 6138 H 575.573 -0.158947 -1.90839 0
M  V30 6139 H 573.878 2.0006 -3.36873 0
M  V30 6140 H 575.575 1.70767 -3.62822 0
M  V30 6141 H 572.165 0.423208 -4.26505 0
M  V30 6142 H 576.349 -0.273307 -4.95547 0
M  V30 6143 H 571.605 -1.2392 -5.9871 0
M  V30 6144 H 575.779 -1.93188 -6.69068 0
M  V30 6145 H 573.406 -2.42088 -7.20623 0
M  V30 6146 N 574.981 1.5647 0.188427 0
M  V30 6147 C 575.911 1.98101 1.23606 0
M  V30 6148 C 576.892 0.853961 1.47111 0
M  V30 6149 O 578.077 1.11879 1.58735 0
M  V30 6150 C 575.207 2.32624 2.57882 0
M  V30 6151 C 574.161 3.48129 2.48978 0
M  V30 6152 C 573.487 3.68347 3.87588 0
M  V30 6153 C 574.787 4.82112 2.00911 0
M  V30 6154 H 576.481 2.85864 0.890068 0
M  V30 6155 H 574.027 1.37532 0.426714 0
M  V30 6156 H 575.98 2.60343 3.3136 0
M  V30 6157 H 574.704 1.41751 2.94235 0
M  V30 6158 H 573.363 3.20511 1.77956 0
M  V30 6159 H 573.011 2.74793 4.21305 0
M  V30 6160 H 572.711 4.46055 3.82503 0
M  V30 6161 H 574.235 3.98449 4.62678 0
M  V30 6162 H 575.649 5.08819 2.64151 0
M  V30 6163 H 574.046 5.63337 2.06814 0
M  V30 6164 H 575.116 4.75249 0.96262 0
M  V30 6165 N 576.459 -0.456382 1.50847 0
M  V30 6166 C 577.875 -0.791345 1.386 0
M  V30 6167 C 578.075 -1.9633 0.453498 0
M  V30 6168 O 577.131 -2.52308 -0.0984353 0
M  V30 6169 C 578.444 -1.08959 2.80265 0
M  V30 6170 C 579.992 -1.19517 2.89283 0
M  V30 6171 C 580.467 -1.52647 4.31814 0
M  V30 6172 N 581.958 -1.59609 4.34832 0
M  V30 6173 C 582.693 -1.86777 5.42127 0
M  V30 6174 N 582.189 -2.11866 6.59609 0
M  V30 6175 N 583.982 -1.88402 5.29586 0
M  V30 6176 H 576.133 0.315746 2.1004 0
M  V30 6177 H 578.396 0.0787916 0.94472 0
M  V30 6178 H 578.102 -0.301355 3.50407 0
M  V30 6179 H 577.976 -2.02211 3.18419 0
M  V30 6180 H 580.363 -1.97406 2.19351 0
M  V30 6181 H 580.444 -0.242111 2.54652 0
M  V30 6182 H 580.088 -0.752922 5.02288 0
M  V30 6183 H 580.018 -2.49127 4.63943 0
M  V30 6184 H 582.509 -1.42201 3.50125 0
M  V30 6185 H 582.822 -2.31912 7.37182 0
M  V30 6186 H 581.167 -2.09228 6.62758 0
M  V30 6187 H 584.358 -1.68307 4.36795 0
M  V30 6188 H 584.531 -2.09238 6.13289 0
M  V30 6189 N 577.937 -1.40673 -0.710563 0
M  V30 6190 C 579.183 -1.39428 -1.47267 0
M  V30 6191 C 579.516 0.00182129 -1.942 0
M  V30 6192 O 578.791 0.971387 -1.68506 0
M  V30 6193 C 579.074 -2.38812 -2.6952 0
M  V30 6194 C 578.927 -3.87467 -2.28449 0
M  V30 6195 C 580.246 -2.3566 -3.71689 0
M  V30 6196 H 577.365 -0.507768 -0.534173 0
M  V30 6197 H 580.007 -1.71843 -0.810547 0
M  V30 6198 H 578.157 -2.113 -3.26013 0
M  V30 6199 H 579.829 -4.25825 -1.77399 0
M  V30 6200 H 578.072 -4.03058 -1.60395 0
M  V30 6201 H 578.743 -4.5253 -3.16103 0
M  V30 6202 H 581.219 -2.6004 -3.24836 0
M  V30 6203 H 580.095 -3.07237 -4.54859 0
M  V30 6204 H 580.356 -1.36996 -4.20339 0
M  V30 6205 N 579.415 0.9433 -1.26252 0
M  V30 6206 C 580.661 1.69175 -1.11837 0
M  V30 6207 C 580.994 1.91238 0.337891 0
M  V30 6208 O 580.269 1.49152 1.24836 0
M  V30 6209 C 580.552 3.06783 -1.88563 0
M  V30 6210 C 580.405 2.9206 -3.42083 0
M  V30 6211 C 581.724 4.06865 -1.67776 0
M  V30 6212 H 578.843 0.61399 -0.407658 0
M  V30 6213 H 581.485 1.09572 -1.55222 0
M  V30 6214 H 579.635 3.57663 -1.51689 0
M  V30 6215 H 581.307 2.48419 -3.88698 0
M  V30 6216 H 579.55 2.27731 -3.69217 0
M  V30 6217 H 580.221 3.89651 -3.90994 0
M  V30 6218 H 582.697 3.64939 -1.99897 0
M  V30 6219 H 581.573 5.01168 -2.23879 0
M  V30 6220 H 581.834 4.37705 -0.621816 0
M  V30 6221 N 580.893 1.08022 1.14757 0
M  V30 6222 C 582.309 0.807072 1.3769 0
M  V30 6223 C 582.509 -0.585504 1.92806 0
M  V30 6224 O 581.565 -1.34301 2.13821 0
M  V30 6225 C 582.878 1.88651 2.34161 0
M  V30 6226 C 584.426 1.91206 2.47809 0
M  V30 6227 C 584.901 2.98253 3.47576 0
M  V30 6228 N 586.392 2.974 3.55117 0
M  V30 6229 C 587.127 3.76872 4.32152 0
M  V30 6230 N 586.623 4.66212 5.12463 0
M  V30 6231 N 588.416 3.6519 4.27309 0
M  V30 6232 H 580.567 1.97824 0.77326 0
M  V30 6233 H 582.83 0.85826 0.402608 0
M  V30 6234 H 582.536 2.88749 2.00791 0
M  V30 6235 H 582.41 1.75244 3.3402 0
M  V30 6236 H 584.797 0.917564 2.80472 0
M  V30 6237 H 584.878 2.08691 1.47925 0
M  V30 6238 H 584.522 3.97907 3.15646 0
M  V30 6239 H 584.452 2.78014 4.47231 0
M  V30 6240 H 586.943 2.32643 2.97801 0
M  V30 6241 H 587.256 5.23468 5.68508 0
M  V30 6242 H 585.601 4.70257 5.11745 0
M  V30 6243 H 588.792 2.94765 3.63636 0
M  V30 6244 H 588.965 4.27366 4.87095 0
M  V30 6245 N 582.371 -1.3172 0.865308 0
M  V30 6246 C 583.611 -1.98675 0.480365 0
M  V30 6247 C 583.975 -1.66929 -0.948621 0
M  V30 6248 O 585.176 -2.27059 -1.43867 0
M  V30 6249 C 583.447 -3.49972 0.724858 0
M  V30 6250 S 585.006 -4.36598 0.439078 0
M  V30 6251 H 581.824 -0.687967 0.179506 0
M  V30 6252 H 584.426 -1.60215 1.12033 0
M  V30 6253 H 583.13 -3.70567 1.76375 0
M  V30 6254 H 582.661 -3.93335 0.0717173 0
M  V30 6255 H 584.676 -4.90792 -0.730564 0
M  V30 6256 N 583.85 -0.624285 -1.44708 0
M  V30 6257 C 585.266 -0.289322 -1.56956 0
M  V30 6258 C 585.466 1.20773 -1.61295 0
M  V30 6259 O 584.522 1.9915 -1.55227 0
M  V30 6260 C 585.835 -0.975215 -2.84447 0
M  V30 6261 C 587.383 -0.952709 -2.98148 0
M  V30 6262 C 587.858 -1.61893 -4.28433 0
M  V30 6263 N 589.349 -1.5852 -4.35231 0
M  V30 6264 C 590.084 -2.06969 -5.34744 0
M  V30 6265 N 589.58 -2.63579 -6.40701 0
M  V30 6266 N 591.373 -1.97638 -5.26209 0
M  V30 6267 H 583.524 -1.59612 -1.40135 0
M  V30 6268 H 585.787 -0.669592 -0.671081 0
M  V30 6269 H 585.493 -2.02999 -2.87201 0
M  V30 6270 H 585.367 -0.508749 -3.73753 0
M  V30 6271 H 587.754 0.093568 -2.94952 0
M  V30 6272 H 587.835 -1.4576 -2.10209 0
M  V30 6273 H 587.479 -2.66463 -4.32389 0
M  V30 6274 H 587.409 -1.08893 -5.15218 0
M  V30 6275 H 589.899 -1.17183 -3.59272 0
M  V30 6276 H 590.213 -2.98298 -7.12908 0
M  V30 6277 H 588.558 -2.67626 -6.41406 0
M  V30 6278 H 591.749 -1.5314 -4.42341 0
M  V30 6279 H 591.922 -2.35708 -6.03611 0
M  V30 6280 N 585.328 1.53329 -0.364422 0
M  V30 6281 C 586.553 2.06132 0.229033 0
M  V30 6282 C 586.978 1.23625 1.41769 0
M  V30 6283 O 586.336 0.255038 1.79497 0
M  V30 6284 C 586.384 3.55544 0.60174 0
M  V30 6285 O 585.488 3.75771 1.69912 0
M  V30 6286 H 584.829 0.663148 0.0336213 0
M  V30 6287 H 587.359 1.97758 -0.524689 0
M  V30 6288 H 587.369 3.98549 0.873073 0
M  V30 6289 H 586.044 4.15039 -0.267421 0
M  V30 6290 H 584.621 3.44663 1.42343 0
M  V30 6291 N 586.806 0.0935595 1.57322 0
M  V30 6292 C 587.736 -0.863062 2.16964 0
M  V30 6293 C 588.717 -1.29528 1.10256 0
M  V30 6294 O 589.902 -1.36245 1.38387 0
M  V30 6295 C 587.032 -2.12276 2.74875 0
M  V30 6296 C 585.986 -1.82921 3.86942 0
M  V30 6297 C 585.312 -3.15707 4.31548 0
M  V30 6298 C 586.612 -1.11737 5.10208 0
M  V30 6299 H 588.306 -0.366145 2.97153 0
M  V30 6300 H 585.852 -0.174673 1.42937 0
M  V30 6301 H 587.805 -2.79634 3.1525 0
M  V30 6302 H 586.529 -2.64248 1.91938 0
M  V30 6303 H 585.188 -1.17961 3.47103 0
M  V30 6304 H 584.836 -3.65563 3.45504 0
M  V30 6305 H 584.536 -2.96849 5.07104 0
M  V30 6306 H 586.06 -3.84226 4.74555 0
M  V30 6307 H 587.474 -1.69203 5.47762 0
M  V30 6308 H 585.871 -1.03064 5.91183 0
M  V30 6309 H 586.941 -0.0998818 4.84797 0
M  V30 6310 N 588.284 -1.56567 -0.180126 0
M  V30 6311 C 589.247 -1.94852 -1.20686 0
M  V30 6312 C 590.247 -0.831212 -1.3765 0
M  V30 6313 O 591.437 -1.09841 -1.35206 0
M  V30 6314 C 588.569 -2.23565 -2.57355 0
M  V30 6315 H 589.762 -2.86722 -0.879225 0
M  V30 6316 H 587.315 -1.50489 -0.422237 0
M  V30 6317 H 588.05 -1.34381 -2.95148 0
M  V30 6318 H 587.835 -3.04999 -2.46411 0
M  V30 6319 H 589.325 -2.54137 -3.31367 0
M  V30 6320 N 589.762 0.448376 -1.51087 0
M  V30 6321 C 590.672 1.56882 -1.74428 0
M  V30 6322 C 591.688 1.62268 -0.62809 0
M  V30 6323 O 592.864 1.79716 -0.909075 0
M  V30 6324 C 589.929 2.92947 -1.85426 0
M  V30 6325 C 588.99 2.97766 -3.09247 0
M  V30 6326 C 588.223 4.27341 -3.19711 0
M  V30 6327 O 588.446 5.19112 -2.36387 0
M  V30 6328 O 587.38 4.38219 -4.12611 0
M  V30 6329 H 591.206 1.40104 -2.69452 0
M  V30 6330 H 588.791 0.630247 -1.35456 0
M  V30 6331 H 590.673 3.73719 -1.94709 0
M  V30 6332 H 589.348 3.09876 -0.935887 0
M  V30 6333 H 588.255 2.15989 -3.0545 0
M  V30 6334 H 589.588 2.8578 -4.00738 0
M  V30 6335 N 591.24 1.41047 0.703093 0
M  V30 6336 C 592.15 1.44645 1.84703 0
M  V30 6337 C 593.166 0.337778 1.7069 0
M  V30 6338 O 594.342 0.584327 1.92737 0
M  V30 6339 C 591.407 1.31928 3.20618 0
M  V30 6340 C 590.468 2.53047 3.46794 0
M  V30 6341 C 589.701 2.40927 4.76224 0
M  V30 6342 O 589.924 1.42978 5.5219 0
M  V30 6343 O 588.858 3.30543 5.03016 0
M  V30 6344 H 592.684 2.41139 1.84624 0
M  V30 6345 H 590.269 1.22504 0.855167 0
M  V30 6346 H 592.151 1.27092 4.01778 0
M  V30 6347 H 590.826 0.385469 3.21397 0
M  V30 6348 H 589.733 2.6346 2.65593 0
M  V30 6349 H 591.066 3.45231 3.50822 0
M  V30 6350 N 592.718 -0.936591 1.26751 0
M  V30 6351 C 593.948 -1.71509 1.15188 0
M  V30 6352 C 594.356 -1.86885 -0.295037 0
M  V30 6353 O 593.699 -1.37915 -1.21347 0
M  V30 6354 C 593.761 -3.13853 1.75318 0
M  V30 6355 C 593.425 -3.21845 3.24445 0
M  V30 6356 C 594.422 -3.04771 4.21201 0
M  V30 6357 C 592.107 -3.45088 3.64992 0
M  V30 6358 C 594.101 -3.10816 5.56482 0
M  V30 6359 C 591.788 -3.50767 5.00405 0
M  V30 6360 C 592.786 -3.33648 5.9596 0
M  V30 6361 O 592.474 -3.39045 7.28906 0
M  V30 6362 H 592.206 -0.543658 0.401761 0
M  V30 6363 H 594.76 -1.18234 1.67958 0
M  V30 6364 H 592.99 -3.6857 1.17016 0
M  V30 6365 H 594.679 -3.73634 1.58596 0
M  V30 6366 H 595.445 -2.86665 3.91214 0
M  V30 6367 H 591.324 -3.57467 2.91098 0
M  V30 6368 H 594.868 -2.97372 6.31043 0
M  V30 6369 H 590.765 -3.68396 5.30052 0
M  V30 6370 H 591.533 -3.55558 7.37238 0
M  V30 6371 N 594.196 -1.08629 -1.14182 0
M  V30 6372 C 595.444 -0.815731 -1.84906 0
M  V30 6373 C 595.765 0.660441 -1.83475 0
M  V30 6374 O 595.035 1.47888 -1.28476 0
M  V30 6375 H 593.615 -0.298773 -0.684648 0
M  V30 6376 H 596.277 -1.37274 -1.38354 0
M  V30 6377 H 595.373 -1.16193 -2.89665 0
M  V30 6378 N 595.674 1.31259 -0.872281 0
M  V30 6379 C 596.604 2.30929 -0.345554 0
M  V30 6380 C 597.585 1.60449 0.5648 0
M  V30 6381 O 598.77 1.8814 0.481335 0
M  V30 6382 C 595.9 3.44348 0.451823 0
M  V30 6383 C 594.854 4.26435 -0.365641 0
M  V30 6384 C 594.18 5.31785 0.557562 0
M  V30 6385 C 595.48 4.97159 -1.60095 0
M  V30 6386 H 597.174 2.75234 -1.17841 0
M  V30 6387 H 594.72 1.3232 -0.568094 0
M  V30 6388 H 596.673 4.13128 0.830854 0
M  V30 6389 H 595.397 2.98816 1.31821 0
M  V30 6390 H 594.056 3.59326 -0.726649 0
M  V30 6391 H 593.704 4.82502 1.4213 0
M  V30 6392 H 593.404 5.87598 0.0144878 0
M  V30 6393 H 594.928 6.03424 0.933387 0
M  V30 6394 H 596.342 5.58523 -1.29323 0
M  V30 6395 H 594.739 5.62779 -2.08327 0
M  V30 6396 H 595.809 4.24012 -2.35249 0
M  V30 6397 N 597.152 0.631951 1.44375 0
M  V30 6398 C 598.429 0.067646 1.95483 0
M  V30 6399 C 598.809 -1.40683 1.57389 0
M  V30 6400 O 598.157 -2.12167 0.848375 0
M  V30 6401 C 598.367 0.291392 3.47781 0
M  V30 6402 C 599.715 0.185028 4.24197 0
M  V30 6403 O 600.739 0.222803 3.55503 0
M  V30 6404 O 599.598 0.0906642 5.46425 0
M  V30 6405 H 596.692 -0.0218379 0.826712 0
M  V30 6406 H 599.238 0.703711 1.54421 0
M  V30 6407 H 598.01 1.31449 3.68561 0
M  V30 6408 H 597.633 -0.378772 3.95792 0
M  V30 6409 N 598.631 -1.53133 0.372548 0
M  V30 6410 C 599.859 -2.05774 -0.215515 0
M  V30 6411 C 600.274 -1.24555 -1.41886 0
M  V30 6412 O 599.631 -0.287951 -1.80214 0
M  V30 6413 C 599.682 -3.5645 -0.602161 0
M  V30 6414 O 599.403 -4.34591 0.553359 0
M  V30 6415 C 600.904 -4.25374 -1.24787 0
M  V30 6416 H 598.124 -0.670009 -0.0364529 0
M  V30 6417 H 600.668 -1.97434 0.532934 0
M  V30 6418 H 598.823 -3.64918 -1.30052 0
M  V30 6419 H 599.237 -5.23954 0.239336 0
M  V30 6420 H 600.711 -5.32097 -1.46891 0
M  V30 6421 H 601.188 -3.79531 -2.21026 0
M  V30 6422 H 601.794 -4.21177 -0.590752 0
M  V30 6423 N 600.109 -0.101901 -1.5727 0
M  V30 6424 C 601.358 0.559922 -1.93772 0
M  V30 6425 C 601.671 1.68913 -0.98629 0
M  V30 6426 O 602.877 2.41256 -1.24529 0
M  V30 6427 C 601.333 1.04739 -3.44322 0
M  V30 6428 C 600.941 -0.05243 -4.47969 0
M  V30 6429 C 602.685 1.68157 -3.89774 0
M  V30 6430 C 600.592 0.450781 -5.8968 0
M  V30 6431 H 599.522 0.212931 -0.723309 0
M  V30 6432 H 602.173 -0.179001 -1.82625 0
M  V30 6433 H 600.555 1.84021 -3.50645 0
M  V30 6434 H 601.729 -0.828157 -4.53297 0
M  V30 6435 H 600.044 -0.592202 -4.12167 0
M  V30 6436 H 602.641 2.0689 -4.93052 0
M  V30 6437 H 602.984 2.55338 -3.28798 0
M  V30 6438 H 603.517 0.954453 -3.8618 0
M  V30 6439 H 600.256 -0.38458 -6.54371 0
M  V30 6440 H 599.776 1.19336 -5.87809 0
M  V30 6441 H 601.455 0.917555 -6.40461 0
M  V30 6442 N 601.587 1.56661 0.17182 0
M  V30 6443 C 602.535 1.97289 1.23207 0
M  V30 6444 C 603.529 0.861566 1.45854 0
M  V30 6445 O 604.735 1.04668 1.4644 0
M  V30 6446 H 601.11 0.627681 0.41415 0
M  V30 6447 H 603.081 2.85662 0.862542 0
M  V30 6448 C 601.83 2.34849 2.564 0
M  V30 6449 H 601.153 3.19903 2.39797 0
M  V30 6450 H 602.593 2.67121 3.29276 0
M  V30 6451 C 601.052 1.19172 3.15119 0
M  V30 6452 O 601.582 0.479113 3.98833 0
M  V30 6453 N 599.788 0.962415 2.74201 0
M  V30 6454 H 599.335 1.54365 2.06226 0
M  V30 6455 H 599.293 0.190272 3.13824 0
M  V30 6456 N 603.065 -0.440357 1.51323 0
M  V30 6457 C 604.012 -1.53429 1.72419 0
M  V30 6458 C 604.982 -1.56165 0.565826 0
M  V30 6459 O 606.167 -1.73222 0.799917 0
M  V30 6460 C 603.307 -2.91169 1.85242 0
M  V30 6461 C 602.42 -2.97985 3.12777 0
M  V30 6462 C 601.555 -4.26829 3.16212 0
M  V30 6463 C 600.594 -4.27501 4.38074 0
M  V30 6464 N 599.731 -5.47866 4.39076 0
M  V30 6465 H 604.571 -1.34743 2.65797 0
M  V30 6466 H 602.108 -0.654608 1.31732 0
M  V30 6467 H 604.066 -3.71087 1.90658 0
M  V30 6468 H 602.696 -3.0842 0.952744 0
M  V30 6469 H 601.748 -2.10749 3.16685 0
M  V30 6470 H 603.06 -2.94342 4.02696 0
M  V30 6471 H 602.214 -5.15118 3.20527 0
M  V30 6472 H 600.953 -4.33124 2.24176 0
M  V30 6473 H 599.958 -3.37606 4.33938 0
M  V30 6474 H 601.183 -4.22873 5.31371 0
M  V30 6475 H 599.129 -5.54887 3.49909 0
M  V30 6476 H 599.046 -5.46091 5.22801 0
M  V30 6477 H 600.314 -6.38195 4.4758 0
M  V30 6478 N 604.543 -1.41418 -0.695603 0
M  V30 6479 C 605.82 -1.31264 -1.45014 0
M  V30 6480 C 606.2 0.0597994 -2.11015 0
M  V30 6481 O 605.548 1.07403 -2.01685 0
M  V30 6482 C 605.758 -2.466 -2.4696 0
M  V30 6483 C 607.106 -2.87763 -3.12214 0
M  V30 6484 O 608.13 -2.46339 -2.57285 0
M  V30 6485 O 606.989 -3.59395 -4.11701 0
M  V30 6486 H 604.083 -0.516576 -0.645816 0
M  V30 6487 H 606.629 -1.53382 -0.726084 0
M  V30 6488 H 605.401 -3.38183 -1.96845 0
M  V30 6489 H 605.024 -2.26358 -3.26876 0
M  V30 6490 N 606.021 0.929856 -1.27246 0
M  V30 6491 C 606.931 2.0636 -1.11592 0
M  V30 6492 C 607.947 1.73938 -0.046496 0
M  V30 6493 O 609.123 1.9981 -0.252544 0
M  V30 6494 C 606.188 3.38213 -0.762437 0
M  V30 6495 C 605.249 3.84346 -1.9125 0
M  V30 6496 C 604.482 5.09906 -1.57579 0
M  V30 6497 O 604.705 5.68354 -0.482694 0
M  V30 6498 O 603.639 5.51359 -2.41426 0
M  V30 6499 H 607.465 2.22478 -2.0673 0
M  V30 6500 H 605.05 1.04865 -1.06413 0
M  V30 6501 H 606.932 4.1741 -0.57854 0
M  V30 6502 H 605.607 3.23307 0.159439 0
M  V30 6503 H 604.514 3.06045 -2.15144 0
M  V30 6504 H 605.847 4.0379 -2.81451 0
M  V30 6505 N 607.499 1.09233 1.13605 0
M  V30 6506 C 608.748 0.82205 1.84188 0
M  V30 6507 C 609.061 -0.654548 1.84323 0
M  V30 6508 O 610.267 -1.04029 2.50779 0
M  V30 6509 C 608.723 1.42066 3.30674 0
M  V30 6510 C 608.331 2.92965 3.38933 0
M  V30 6511 C 610.075 1.22924 4.06313 0
M  V30 6512 C 607.982 3.45922 4.79679 0
M  V30 6513 H 606.912 0.303854 0.690064 0
M  V30 6514 H 609.563 1.31479 1.28006 0
M  V30 6515 H 607.945 0.855613 3.86646 0
M  V30 6516 H 609.119 3.55679 2.92966 0
M  V30 6517 H 607.434 3.11118 2.76757 0
M  V30 6518 H 610.031 1.59945 5.10217 0
M  V30 6519 H 610.374 0.169726 4.15954 0
M  V30 6520 H 610.907 1.76168 3.56665 0
M  V30 6521 H 607.646 4.51484 4.75229 0
M  V30 6522 H 607.166 2.87971 5.26149 0
M  V30 6523 H 608.845 3.43009 5.48592 0
M  V30 6524 N 608.977 -1.30795 0.87923 0
M  V30 6525 C 610.226 -1.95636 0.490875 0
M  V30 6526 C 610.539 -1.70214 -0.963674 0
M  V30 6527 O 611.745 -2.28991 -1.45861 0
M  V30 6528 C 610.201 -3.50271 0.826929 0
M  V30 6529 C 609.809 -3.84521 2.29886 0
M  V30 6530 C 611.553 -4.21456 0.507494 0
M  V30 6531 C 609.46 -5.32309 2.57685 0
M  V30 6532 H 608.39 -0.732238 0.179841 0
M  V30 6533 H 611.041 -1.48829 1.07341 0
M  V30 6534 H 609.423 -3.9562 0.173542 0
M  V30 6535 H 610.597 -3.50102 2.99609 0
M  V30 6536 H 608.912 -3.26425 2.58526 0
M  V30 6537 H 611.509 -5.30199 0.692293 0
M  V30 6538 H 611.852 -4.12614 -0.552718 0
M  V30 6539 H 612.385 -3.81772 1.11782 0
M  V30 6540 H 609.124 -5.46195 3.62424 0
M  V30 6541 H 608.644 -5.68048 1.92566 0
M  V30 6542 H 610.323 -5.99678 2.42889 0
M  V30 6543 N 610.455 -0.639598 -1.44038 0
M  V30 6544 C 611.68 -0.153117 -2.06834 0
M  V30 6545 C 612.105 1.16676 -1.47541 0
M  V30 6546 O 611.463 1.71769 -0.580093 0
M  V30 6547 C 611.511 -0.0609169 -3.60549 0
M  V30 6548 O 610.615 0.98071 -4.00569 0
M  V30 6549 H 609.956 -0.0886402 -0.658057 0
M  V30 6550 H 612.486 -0.878674 -1.84771 0
M  V30 6551 H 612.496 0.126892 -4.07803 0
M  V30 6552 H 611.171 -1.0245 -4.03084 0
M  V30 6553 H 609.748 0.766789 -3.64931 0
M  V30 6554 N 611.933 1.52934 -0.380664 0
M  V30 6555 C 613.158 2.06363 0.207157 0
M  V30 6556 C 613.583 1.25122 1.4045 0
M  V30 6557 O 612.941 0.274062 1.79217 0
M  V30 6558 C 612.989 3.56162 0.563996 0
M  V30 6559 O 612.093 3.77552 1.65917 0
M  V30 6560 H 611.434 0.663468 0.0265859 0
M  V30 6561 H 613.964 1.9719 -0.545635 0
M  V30 6562 H 613.974 3.99453 0.830752 0
M  V30 6563 H 612.649 4.14732 -0.311427 0
M  V30 6564 H 611.226 3.46154 1.3868 0
M  V30 6565 N 613.412 0.11024 1.57214 0
M  V30 6566 C 614.345 -0.880224 2.1054 0
M  V30 6567 C 615.323 -1.26658 1.01964 0
M  V30 6568 O 616.507 -1.36917 1.29561 0
M  V30 6569 C 613.634 -2.17676 2.59489 0
M  V30 6570 C 612.68 -1.93914 3.79868 0
M  V30 6571 S 613.513 -1.16336 5.2271 0
M  V30 6572 C 614.669 -2.47188 5.75021 0
M  V30 6573 H 614.902 -0.426614 2.94223 0
M  V30 6574 H 612.435 -0.10336 1.54054 0
M  V30 6575 H 614.393 -2.92175 2.88347 0
M  V30 6576 H 613.054 -2.60156 1.76005 0
M  V30 6577 H 612.247 -2.8996 4.12236 0
M  V30 6578 H 611.849 -1.27539 3.51582 0
M  V30 6579 H 614.141 -3.43079 5.84211 0
M  V30 6580 H 615.084 -2.19377 6.7326 0
M  V30 6581 H 615.492 -2.56154 5.03036 0
M  V30 6582 N 614.89 -1.56749 -0.16351 0
M  V30 6583 C 616.167 -1.73321 -0.906599 0
M  V30 6584 C 616.547 -0.673779 -2.00059 0
M  V30 6585 O 615.895 0.310121 -2.26386 0
M  V30 6586 C 616.105 -3.168 -1.46419 0
M  V30 6587 C 617.453 -3.77993 -1.93407 0
M  V30 6588 O 618.477 -3.20127 -1.56196 0
M  V30 6589 O 617.336 -4.79615 -2.61976 0
M  V30 6590 H 614.43 -0.708073 -0.427272 0
M  V30 6591 H 616.976 -1.69029 -0.150727 0
M  V30 6592 H 615.748 -3.85396 -0.677189 0
M  V30 6593 H 615.371 -3.2545 -2.28403 0
M  V30 6594 N 616.368 0.432326 -1.51554 0
M  V30 6595 C 617.316 1.54572 -1.73811 0
M  V30 6596 C 618.31 1.58246 -0.604539 0
M  V30 6597 O 619.516 1.6193 -0.786041 0
M  V30 6598 H 615.891 0.513626 -0.549265 0
M  V30 6599 H 617.862 1.32977 -2.67132 0
M  V30 6600 C 616.611 2.92181 -1.88483 0
M  V30 6601 H 615.934 2.90088 -2.75116 0
M  V30 6602 H 617.374 3.69439 -2.08065 0
M  V30 6603 C 615.833 3.3065 -0.645909 0
M  V30 6604 O 616.363 4.01216 0.197093 0
M  V30 6605 N 614.569 2.86464 -0.488538 0
M  V30 6606 H 614.116 2.29209 -1.17562 0
M  V30 6607 H 614.074 3.12565 0.339156 0
M  V30 6608 N 617.846 1.41785 0.688094 0
M  V30 6609 C 619.257 1.3701 1.26828 0
M  V30 6610 C 619.608 0.056835 1.96118 0
M  V30 6611 O 618.733 -0.84475 1.99231 0
M  V30 6612 C 619.328 2.48168 2.30648 0
M  V30 6613 C 617.887 2.46766 2.84224 0
M  V30 6614 C 617.034 2.27633 1.58361 0
M  V30 6615 H 619.985 1.51192 0.482351 0
M  V30 6616 H 620.006 2.17655 3.121 0
M  V30 6617 H 619.518 3.43735 1.80188 0
M  V30 6618 H 617.619 1.54978 3.3884 0
M  V30 6619 H 617.732 3.43342 3.34145 0
M  V30 6620 H 616.096 1.75648 1.84445 0
M  V30 6621 H 616.879 3.25238 1.09887 0
M  V30 6622 N 619.324 -0.923095 1.27737 0
M  V30 6623 C 620.601 -1.64989 1.05062 0
M  V30 6624 C 620.981 -2.07018 -0.413124 0
M  V30 6625 O 620.329 -1.80797 -1.39731 0
M  V30 6626 C 620.539 -2.84847 2.01652 0
M  V30 6627 C 621.887 -3.56083 2.31279 0
M  V30 6628 O 622.911 -2.94981 1.99662 0
M  V30 6629 O 621.77 -4.66182 2.85196 0
M  V30 6630 H 618.864 -0.723357 0.400853 0
M  V30 6631 H 621.41 -0.973224 1.3902 0
M  V30 6632 H 620.182 -2.50814 3.00347 0
M  V30 6633 H 619.805 -3.60231 1.68284 0
M  V30 6634 N 620.802 -1.09834 -1.13024 0
M  V30 6635 C 621.75 -0.736283 -2.20639 0
M  V30 6636 C 622.744 0.264725 -1.67319 0
M  V30 6637 O 623.95 0.125745 -1.7956 0
M  V30 6638 H 620.325 -0.220136 -0.719058 0
M  V30 6639 H 622.296 -1.65295 -2.48436 0
M  V30 6640 C 621.045 -0.177544 -3.47246 0
M  V30 6641 H 620.368 -0.939009 -3.88616 0
M  V30 6642 H 621.808 0.0378007 -4.23983 0
M  V30 6643 C 620.267 1.08824 -3.1884 0
M  V30 6644 O 620.797 2.1708 -3.37993 0
M  V30 6645 N 619.003 1.00442 -2.7269 0
M  V30 6646 H 618.55 0.123383 -2.57304 0
M  V30 6647 H 618.508 1.85206 -2.5406 0
M  V30 6648 N 622.28 1.30327 -0.886154 0
M  V30 6649 C 623.19 2.31854 -0.357866 0
M  V30 6650 C 624.206 1.65392 0.540502 0
M  V30 6651 O 625.382 1.96683 0.433339 0
M  V30 6652 C 622.447 3.44171 0.417999 0
M  V30 6653 C 621.508 4.26257 -0.510263 0
M  V30 6654 C 620.741 5.3321 0.228669 0
M  V30 6655 O 620.964 5.51542 1.45458 0
M  V30 6656 O 619.898 6.0042 -0.421832 0
M  V30 6657 H 623.724 2.78995 -1.19982 0
M  V30 6658 H 621.309 1.34518 -0.650028 0
M  V30 6659 H 623.191 4.12588 0.857251 0
M  V30 6660 H 621.866 2.99164 1.23623 0
M  V30 6661 H 620.773 3.60533 -0.99835 0
M  V30 6662 H 622.106 4.74871 -1.29454 0
M  V30 6663 N 623.758 0.647228 1.43697 0
M  V30 6664 C 625.007 0.155552 2.01099 0
M  V30 6665 C 625.32 -1.23569 1.51624 0
M  V30 6666 O 626.526 -1.82226 2.01261 0
M  V30 6667 C 624.982 0.227296 3.59182 0
M  V30 6668 C 624.59 1.62086 4.17651 0
M  V30 6669 C 626.334 -0.207085 4.23995 0
M  V30 6670 C 624.241 1.64685 5.68008 0
M  V30 6671 H 623.171 0.0543895 0.752036 0
M  V30 6672 H 625.822 0.808386 1.64734 0
M  V30 6673 H 624.204 -0.492937 3.9292 0
M  V30 6674 H 625.378 2.36597 3.95422 0
M  V30 6675 H 623.693 2.0007 3.65186 0
M  V30 6676 H 626.29 -0.207426 5.34298 0
M  V30 6677 H 626.633 -1.23742 3.97484 0
M  V30 6678 H 627.166 0.461193 3.95118 0
M  V30 6679 H 623.905 2.65608 5.99277 0
M  V30 6680 H 623.425 0.944914 5.9231 0
M  V30 6681 H 625.104 1.38792 6.31938 0
M  V30 6682 N 625.236 -1.5273 0.388769 0
M  V30 6683 C 626.482 -2.01871 -0.193877 0
M  V30 6684 C 626.815 -1.27475 -1.46505 0
M  V30 6685 O 626.09 -0.375063 -1.90849 0
M  V30 6686 C 626.373 -3.5712 -0.462336 0
M  V30 6687 C 626.226 -4.42186 0.824091 0
M  V30 6688 C 627.545 -4.21881 -1.25319 0
M  V30 6689 H 624.664 -0.733764 -0.0689899 0
M  V30 6690 H 627.306 -1.82796 0.518231 0
M  V30 6691 H 625.456 -3.73504 -1.06896 0
M  V30 6692 H 627.128 -4.37554 1.46096 0
M  V30 6693 H 625.371 -4.09219 1.43952 0
M  V30 6694 H 626.042 -5.48828 0.590905 0
M  V30 6695 H 628.518 -4.0947 -0.73981 0
M  V30 6696 H 627.394 -5.30487 -1.40977 0
M  V30 6697 H 627.655 -3.79478 -2.26824 0
M  V30 6698 N 626.714 -0.118576 -1.57153 0
M  V30 6699 C 627.644 0.828436 -2.1831 0
M  V30 6700 C 628.625 1.27758 -1.12303 0
M  V30 6701 O 629.81 1.34026 -1.40537 0
M  V30 6702 C 626.94 2.07876 -2.78217 0
M  V30 6703 C 625.894 1.76742 -3.89803 0
M  V30 6704 C 625.22 3.08801 -4.36516 0
M  V30 6705 C 626.52 1.03606 -5.11921 0
M  V30 6706 H 628.214 0.318824 -2.97698 0
M  V30 6707 H 625.76 0.151911 -1.43196 0
M  V30 6708 H 627.713 2.74584 -3.19659 0
M  V30 6709 H 626.437 2.61161 -1.96118 0
M  V30 6710 H 625.096 1.12424 -3.48936 0
M  V30 6711 H 624.744 3.6002 -3.51276 0
M  V30 6712 H 624.444 2.88743 -5.11763 0
M  V30 6713 H 625.968 3.76627 -4.80608 0
M  V30 6714 H 627.382 1.60467 -5.50385 0
M  V30 6715 H 625.779 0.936454 -5.92748 0
M  V30 6716 H 626.849 0.0227421 -4.84895 0
M  V30 6717 N 628.193 1.56834 0.155195 0
M  V30 6718 C 629.423 1.86778 0.883044 0
M  V30 6719 C 629.831 0.703824 1.75622 0
M  V30 6720 O 629.174 -0.33581 1.80605 0
M  V30 6721 C 629.236 3.1133 1.79761 0
M  V30 6722 C 628.9 4.43504 1.10242 0
M  V30 6723 C 629.897 5.17859 0.460204 0
M  V30 6724 C 627.582 4.90233 1.09437 0
M  V30 6725 C 629.576 6.37144 -0.180782 0
M  V30 6726 C 627.263 6.09444 0.449569 0
M  V30 6727 C 628.261 6.82744 -0.186888 0
M  V30 6728 O 627.949 7.99692 -0.821486 0
M  V30 6729 H 627.681 0.62352 0.261149 0
M  V30 6730 H 630.235 2.04813 0.155204 0
M  V30 6731 H 628.465 2.89282 2.56618 0
M  V30 6732 H 630.154 3.27587 2.39669 0
M  V30 6733 H 630.92 4.8283 0.458289 0
M  V30 6734 H 626.799 4.33109 1.57917 0
M  V30 6735 H 630.343 6.94296 -0.678154 0
M  V30 6736 H 626.24 6.43936 0.449123 0
M  V30 6737 H 627.008 8.15306 -0.722337 0
M  V30 6738 N 629.671 -0.424282 1.51781 0
M  V30 6739 C 630.601 -1.52305 1.7699 0
M  V30 6740 C 631.582 -1.5839 0.620209 0
M  V30 6741 O 632.767 -1.73908 0.864268 0
M  V30 6742 C 629.897 -2.90271 1.90683 0
M  V30 6743 C 628.851 -2.99043 3.06198 0
M  V30 6744 C 628.177 -4.39116 3.05092 0
M  V30 6745 C 629.477 -2.7192 4.45934 0
M  V30 6746 H 631.171 -1.31461 2.68995 0
M  V30 6747 H 628.717 -0.630985 1.29439 0
M  V30 6748 H 630.67 -3.6711 2.06901 0
M  V30 6749 H 629.394 -3.12376 0.953365 0
M  V30 6750 H 628.053 -2.24646 2.89706 0
M  V30 6751 H 627.701 -4.58207 2.07498 0
M  V30 6752 H 627.401 -4.45912 3.82669 0
M  V30 6753 H 628.925 -5.17911 3.2342 0
M  V30 6754 H 630.339 -3.38487 4.62709 0
M  V30 6755 H 628.736 -2.90111 5.25315 0
M  V30 6756 H 629.806 -1.67445 4.55072 0
M  V30 6757 N 631.149 -1.42148 -0.680565 0
M  V30 6758 C 632.082 -1.39602 -1.80517 0
M  V30 6759 C 633.06 -0.261098 -1.6049 0
M  V30 6760 O 634.244 -0.450404 -1.8304 0
M  V30 6761 C 631.371 -1.18134 -3.1743 0
M  V30 6762 C 630.417 -2.34543 -3.56219 0
M  V30 6763 S 631.25 -3.97063 -3.59306 0
M  V30 6764 C 632.406 -3.77926 -4.98921 0
M  V30 6765 H 632.639 -2.3477 -1.82402 0
M  V30 6766 H 630.172 -1.28851 -0.850691 0
M  V30 6767 H 632.13 -1.06434 -3.96462 0
M  V30 6768 H 630.791 -0.245611 -3.13138 0
M  V30 6769 H 629.984 -2.15255 -4.55721 0
M  V30 6770 H 629.586 -2.42728 -2.84533 0
M  V30 6771 H 631.878 -3.3856 -5.86842 0
M  V30 6772 H 632.821 -4.77084 -5.23256 0
M  V30 6773 H 633.229 -3.10904 -4.71167 0
M  V30 6774 N 632.627 0.916307 -1.28225 0
M  V30 6775 C 633.557 2.0352 -1.14464 0
M  V30 6776 C 634.538 1.70045 -0.0430844 0
M  V30 6777 O 635.723 1.92954 -0.219619 0
M  V30 6778 C 632.853 3.37889 -0.803027 0
M  V30 6779 C 631.807 3.85516 -1.85908 0
M  V30 6780 C 631.133 5.1682 -1.37116 0
M  V30 6781 C 632.433 4.07655 -3.26519 0
M  V30 6782 H 634.127 2.1529 -2.08064 0
M  V30 6783 H 631.673 1.03446 -1.00174 0
M  V30 6784 H 633.626 4.15654 -0.693537 0
M  V30 6785 H 632.35 3.26164 0.168674 0
M  V30 6786 H 631.009 3.09953 -1.95767 0
M  V30 6787 H 630.657 5.01497 -0.38859 0
M  V30 6788 H 630.357 5.49657 -2.07728 0
M  V30 6789 H 631.881 5.97143 -1.27484 0
M  V30 6790 H 633.295 4.75953 -3.19596 0
M  V30 6791 H 631.692 4.51818 -3.94943 0
M  V30 6792 H 632.762 3.12553 -3.70727 0
M  V30 6793 N 634.105 1.10431 1.1244 0
M  V30 6794 C 635.521 0.836096 1.35947 0
M  V30 6795 C 635.721 -0.544475 1.94004 0
M  V30 6796 O 634.777 -1.29735 2.16622 0
M  V30 6797 C 636.09 1.93575 2.30107 0
M  V30 6798 C 637.638 1.9642 2.43697 0
M  V30 6799 C 638.113 3.05559 3.41171 0
M  V30 6800 N 639.604 3.04865 3.48728 0
M  V30 6801 C 640.339 3.85954 4.24061 0
M  V30 6802 N 639.835 4.76977 5.02458 0
M  V30 6803 N 641.628 3.74172 4.19466 0
M  V30 6804 H 633.779 1.9942 0.731124 0
M  V30 6805 H 636.042 0.866607 0.384312 0
M  V30 6806 H 635.748 2.92943 1.94621 0
M  V30 6807 H 635.622 1.8229 3.30227 0
M  V30 6808 H 638.009 0.97685 2.78463 0
M  V30 6809 H 638.09 2.11782 1.43465 0
M  V30 6810 H 637.734 4.04513 3.07135 0
M  V30 6811 H 637.664 2.87438 4.41234 0
M  V30 6812 H 640.155 2.38908 2.92799 0
M  V30 6813 H 640.468 5.35409 5.57277 0
M  V30 6814 H 638.813 4.81006 5.01655 0
M  V30 6815 H 642.004 3.02412 3.57302 0
M  V30 6816 H 642.177 4.37602 4.77921 0
M  V30 6817 N 635.583 -1.29855 0.893053 0
M  V30 6818 C 636.546 -2.26183 0.370687 0
M  V30 6819 C 637.546 -1.53108 -0.491385 0
M  V30 6820 O 638.736 -1.71643 -0.297386 0
M  V30 6821 C 635.868 -3.37633 -0.470827 0
M  V30 6822 H 637.061 -2.73903 1.22135 0
M  V30 6823 H 634.614 -1.41183 0.67061 0
M  V30 6824 H 635.349 -2.95241 -1.34175 0
M  V30 6825 H 635.134 -3.91825 0.146784 0
M  V30 6826 H 636.624 -4.09313 -0.827825 0
M  V30 6827 N 637.061 -0.65484 -1.43351 0
M  V30 6828 C 638.307 -0.169142 -2.02093 0
M  V30 6829 C 638.64 1.21431 -1.51553 0
M  V30 6830 O 637.915 1.81105 -0.709317 0
M  V30 6831 C 638.198 -0.181775 -3.59641 0
M  V30 6832 C 638.051 -1.59926 -4.20409 0
M  V30 6833 C 639.37 0.480945 -4.37464 0
M  V30 6834 H 636.489 -0.0629371 -0.734308 0
M  V30 6835 H 639.131 -0.835833 -1.70628 0
M  V30 6836 H 637.281 0.385918 -3.86578 0
M  V30 6837 H 638.953 -2.21766 -4.04497 0
M  V30 6838 H 637.196 -2.14605 -3.76998 0
M  V30 6839 H 637.867 -1.55994 -5.295 0
M  V30 6840 H 640.343 -0.00208273 -4.161 0
M  V30 6841 H 639.219 0.441384 -5.47122 0
M  V30 6842 H 639.48 1.55533 -4.13838 0
M  V30 6843 N 638.539 1.52521 -0.396863 0
M  V30 6844 C 639.816 1.94112 0.240842 0
M  V30 6845 C 640.196 1.33288 1.637 0
M  V30 6846 O 639.544 0.503901 2.22875 0
M  V30 6847 C 639.754 3.48033 0.259567 0
M  V30 6848 C 641.102 4.21822 0.484866 0
M  V30 6849 O 642.126 3.54579 0.339453 0
M  V30 6850 O 640.985 5.41042 0.770412 0
M  V30 6851 H 638.079 0.812973 0.151671 0
M  V30 6852 H 640.625 1.63572 -0.451918 0
M  V30 6853 H 639.397 3.84655 -0.718078 0
M  V30 6854 H 639.02 3.84899 0.996937 0
M  V30 6855 N 640.017 0.126909 1.57088 0
M  V30 6856 C 641.433 -0.229641 1.57939 0
M  V30 6857 C 641.633 -1.66145 1.1401 0
M  V30 6858 O 640.689 -2.3843 0.831119 0
M  V30 6859 C 642.002 0.0108648 3.00698 0
M  V30 6860 C 643.55 -0.054418 3.12953 0
M  V30 6861 C 644.025 0.158497 4.57726 0
M  V30 6862 N 645.516 0.104735 4.63082 0
M  V30 6863 C 646.251 0.24427 5.72879 0
M  V30 6864 N 645.747 0.440415 6.91399 0
M  V30 6865 N 647.54 0.183286 5.61801 0
M  V30 6866 H 639.691 1.06203 1.83942 0
M  V30 6867 H 641.954 0.418834 0.85046 0
M  V30 6868 H 641.66 1.00102 3.37154 0
M  V30 6869 H 641.534 -0.717512 3.70313 0
M  V30 6870 H 643.921 -1.0351 2.7635 0
M  V30 6871 H 644.002 0.705967 2.45865 0
M  V30 6872 H 643.646 1.13619 4.95028 0
M  V30 6873 H 643.576 -0.62197 5.22914 0
M  V30 6874 H 646.067 -0.0430298 3.77876 0
M  V30 6875 H 646.38 0.537536 7.70928 0
M  V30 6876 H 644.725 0.476488 6.93365 0
M  V30 6877 H 647.916 0.0309561 4.6809 0
M  V30 6878 H 648.089 0.295471 6.47326 0
M  V30 6879 N 641.495 -1.56914 -0.146875 0
M  V30 6880 C 642.742 -1.83356 -0.859467 0
M  V30 6881 C 643.07 -0.707811 -1.81164 0
M  V30 6882 O 642.325 0.303155 -1.93338 0
M  V30 6883 C 642.624 -3.16128 -1.66727 0
M  V30 6884 C 642.29 -4.42586 -0.861881 0
M  V30 6885 C 640.952 -4.76929 -0.639687 0
M  V30 6886 C 643.304 -5.20344 -0.298643 0
M  V30 6887 C 640.632 -5.86491 0.156451 0
M  V30 6888 C 642.984 -6.30742 0.484536 0
M  V30 6889 C 641.648 -6.63635 0.717306 0
M  V30 6890 H 640.918 -0.670947 -0.314501 0
M  V30 6891 H 643.565 -1.91104 -0.123108 0
M  V30 6892 H 641.87 -3.03831 -2.47374 0
M  V30 6893 H 643.567 -3.33802 -2.2221 0
M  V30 6894 H 640.157 -4.15662 -1.04513 0
M  V30 6895 H 644.341 -4.94186 -0.457585 0
M  V30 6896 H 639.597 -6.10419 0.346292 0
M  V30 6897 H 643.771 -6.90188 0.928105 0
M  V30 6898 H 641.398 -7.48367 1.33607 0
M  V30 6899 N 642.974 0.416227 -1.52004 0
M  V30 6900 C 643.924 1.50558 -1.7122 0
M  V30 6901 C 644.908 1.50613 -0.56609 0
M  V30 6902 O 646.1 1.56709 -0.822874 0
M  V30 6903 C 643.229 2.88556 -1.85984 0
M  V30 6904 C 642.315 2.93177 -3.06445 0
M  V30 6905 N 642.706 2.67505 -4.29272 0
M  V30 6906 C 641.004 3.24343 -3.06133 0
M  V30 6907 C 641.705 2.78511 -5.10692 0
M  V30 6908 N 640.681 3.11087 -4.45787 0
M  V30 6909 H 644.483 1.29494 -2.63834 0
M  V30 6910 H 641.997 0.62384 -1.4994 0
M  V30 6911 H 643.994 3.66954 -1.97865 0
M  V30 6912 H 642.654 3.10624 -0.945654 0
M  V30 6913 H 643.665 2.42033 -4.57865 0
M  V30 6914 H 640.342 3.52051 -2.24425 0
M  V30 6915 H 641.732 2.62438 -6.18527 0
M  V30 6916 N 644.452 1.42507 0.673017 0
M  V30 6917 C 645.399 1.46124 1.78651 0
M  V30 6918 C 646.369 0.313007 1.63124 0
M  V30 6919 O 647.554 0.517337 1.83653 0
M  V30 6920 C 644.694 1.3711 3.16694 0
M  V30 6921 C 643.807 2.61983 3.43495 0
M  V30 6922 C 642.942 2.45098 4.71275 0
M  V30 6923 C 641.981 3.65336 4.91117 0
M  V30 6924 N 641.118 3.47383 6.10139 0
M  V30 6925 H 645.958 2.4128 1.74895 0
M  V30 6926 H 643.495 1.19788 0.853766 0
M  V30 6927 H 645.453 1.29881 3.96468 0
M  V30 6928 H 644.083 0.45549 3.1957 0
M  V30 6929 H 643.135 2.79571 2.57961 0
M  V30 6930 H 644.447 3.51355 3.5405 0
M  V30 6931 H 643.601 2.35466 5.59143 0
M  V30 6932 H 642.34 1.53219 4.63007 0
M  V30 6933 H 641.345 3.754 4.0169 0
M  V30 6934 H 642.57 4.58199 5.01229 0
M  V30 6935 H 640.516 2.58222 6.0304 0
M  V30 6936 H 640.433 4.30344 6.21563 0
M  V30 6937 H 641.701 3.41565 7.00681 0
M  V30 6938 N 645.93 -0.909495 1.28709 0
M  V30 6939 C 646.862 -2.01729 1.08804 0
M  V30 6940 C 647.875 -1.62755 0.0384739 0
M  V30 6941 O 649.064 -1.76259 0.281977 0
M  V30 6942 C 646.164 -3.32952 0.63217 0
M  V30 6943 C 645.337 -4.00512 1.75809 0
M  V30 6944 C 644.396 -5.10019 1.29488 0
M  V30 6945 O 643.422 -5.32986 1.99787 0
M  V30 6946 N 644.624 -5.80278 0.1604 0
M  V30 6947 H 647.389 -2.19362 2.04207 0
M  V30 6948 H 644.95 -1.08106 1.20518 0
M  V30 6949 H 646.942 -4.03543 0.305802 0
M  V30 6950 H 645.512 -3.11759 -0.229134 0
M  V30 6951 H 644.732 -3.23413 2.25383 0
M  V30 6952 H 646.02 -4.42395 2.51325 0
M  V30 6953 H 645.418 -5.64094 -0.425937 0
M  V30 6954 H 643.975 -6.51713 -0.106663 0
M  V30 6955 N 647.408 -1.11026 -1.11852 0
M  V30 6956 C 648.34 -0.72249 -2.17515 0
M  V30 6957 C 649.353 0.243782 -1.60964 0
M  V30 6958 O 650.542 0.0273252 -1.78479 0
M  V30 6959 C 647.642 -0.0463979 -3.38868 0
M  V30 6960 C 646.815 -1.0384 -4.24895 0
M  V30 6961 C 645.874 -0.392659 -5.24733 0
M  V30 6962 O 644.9 -1.0453 -5.5952 0
M  V30 6963 N 646.102 0.846296 -5.74298 0
M  V30 6964 H 648.867 -1.63161 -2.51393 0
M  V30 6965 H 646.428 -0.999899 -1.27333 0
M  V30 6966 H 648.42 0.397215 -4.02746 0
M  V30 6967 H 646.99 0.765231 -3.03089 0
M  V30 6968 H 646.21 -1.6601 -3.57539 0
M  V30 6969 H 647.498 -1.70968 -4.79215 0
M  V30 6970 H 646.896 1.39578 -5.4821 0
M  V30 6971 H 645.453 1.23296 -6.40032 0
M  V30 6972 N 648.886 1.2938 -0.899927 0
M  V30 6973 C 650.134 1.95164 -0.524924 0
M  V30 6974 C 650.455 1.71292 0.931888 0
M  V30 6975 O 649.725 1.04481 1.65712 0
M  V30 6976 H 648.305 0.722133 -0.191135 0
M  V30 6977 H 650.967 1.57628 -1.14627 0
M  V30 6978 H 650.063 3.0397 -0.707711 0
M  V30 6979 N 650.364 0.662433 1.43002 0
M  V30 6980 C 651.78 0.330835 1.56133 0
M  V30 6981 C 651.98 -1.16454 1.64441 0
M  V30 6982 O 651.036 -1.94964 1.60453 0
M  V30 6983 C 652.349 1.05029 2.81761 0
M  V30 6984 C 653.897 1.03142 2.95518 0
M  V30 6985 C 654.372 1.73196 4.2399 0
M  V30 6986 N 655.863 1.70004 4.30875 0
M  V30 6987 C 656.598 2.21074 5.29069 0
M  V30 6988 N 656.094 2.80473 6.33488 0
M  V30 6989 N 657.887 2.1152 5.20784 0
M  V30 6990 H 650.038 1.63272 1.35853 0
M  V30 6991 H 652.301 0.687149 0.653092 0
M  V30 6992 H 652.007 2.10542 2.81718 0
M  V30 6993 H 651.881 0.607664 3.72273 0
M  V30 6994 H 654.268 -0.0153339 2.95096 0
M  V30 6995 H 654.349 1.51282 2.0627 0
M  V30 6996 H 653.993 2.77833 4.25172 0
M  V30 6997 H 653.923 1.22515 5.1215 0
M  V30 6998 H 656.414 1.26667 3.56039 0
M  V30 6999 H 656.727 3.17094 7.04749 0
M  V30 7000 H 655.072 2.84538 6.34085 0
M  V30 7001 H 658.263 1.64814 4.38126 0
M  V30 7002 H 658.436 2.51629 5.97149 0
M  V30 7003 N 651.842 -1.52309 0.404946 0
M  V30 7004 C 653.072 -2.05886 -0.171569 0
M  V30 7005 C 653.48 -1.27527 -1.39762 0
M  V30 7006 O 652.823 -0.319215 -1.80905 0
M  V30 7007 C 652.885 -3.54609 -0.590983 0
M  V30 7008 C 652.549 -4.53989 0.523757 0
M  V30 7009 C 653.546 -5.01084 1.38604 0
M  V30 7010 C 651.231 -4.97465 0.695255 0
M  V30 7011 C 653.225 -5.90295 2.4048 0
M  V30 7012 C 650.912 -5.86473 1.71733 0
M  V30 7013 C 651.91 -6.32782 2.57051 0
M  V30 7014 O 651.598 -7.20029 3.57509 0
M  V30 7015 H 651.33 -0.675508 -0.0257763 0
M  V30 7016 H 653.884 -1.97238 0.573278 0
M  V30 7017 H 652.114 -3.60929 -1.38805 0
M  V30 7018 H 653.803 -3.90853 -1.09494 0
M  V30 7019 H 654.569 -4.68214 1.26492 0
M  V30 7020 H 650.448 -4.60982 0.0408447 0
M  V30 7021 H 653.992 -6.26363 3.07108 0
M  V30 7022 H 649.889 -6.18756 1.83877 0
M  V30 7023 H 650.657 -7.3813 3.53703 0
M  V30 7024 N 653.32 -0.135238 -1.57019 0
M  V30 7025 C 654.731 0.387521 -1.82634 0
M  V30 7026 C 655.082 1.65528 -1.05332 0
M  V30 7027 O 654.207 2.14381 -0.294926 0
M  V30 7028 C 654.802 0.709852 -3.3128 0
M  V30 7029 C 653.361 1.17718 -3.57518 0
M  V30 7030 C 652.508 0.194183 -2.76619 0
M  V30 7031 H 655.459 -0.360126 -1.5456 0
M  V30 7032 H 655.48 1.5657 -3.46794 0
M  V30 7033 H 654.992 -0.213024 -3.87515 0
M  V30 7034 H 653.093 2.1164 -3.06658 0
M  V30 7035 H 653.206 1.11128 -4.66034 0
M  V30 7036 H 651.57 0.684478 -2.4533 0
M  V30 7037 H 652.353 -0.722076 -3.3562 0
M  V30 7038 N 654.798 1.5699 0.138552 0
M  V30 7039 C 656.046 1.83446 0.848053 0
M  V30 7040 C 656.367 0.71744 1.81322 0
M  V30 7041 O 655.637 -0.260228 1.94164 0
M  V30 7042 H 654.217 0.676792 0.316166 0
M  V30 7043 H 656.879 1.94462 0.130538 0
M  V30 7044 H 655.975 2.78677 1.40518 0
M  V30 7045 N 656.276 -0.40816 1.52223 0
M  V30 7046 C 657.522 -1.15673 1.66576 0
M  V30 7047 C 657.855 -1.90141 0.394996 0
M  V30 7048 O 657.13 -1.84798 -0.606613 0
M  V30 7049 C 657.413 -2.15042 2.88841 0
M  V30 7050 C 657.266 -1.44465 4.25969 0
M  V30 7051 C 658.585 -3.15699 3.0663 0
M  V30 7052 H 655.704 -0.41916 0.606196 0
M  V30 7053 H 658.346 -0.442348 1.84779 0
M  V30 7054 H 656.496 -2.75964 2.73452 0
M  V30 7055 H 658.168 -0.866544 4.53088 0
M  V30 7056 H 656.411 -0.746612 4.27327 0
M  V30 7057 H 657.082 -2.16976 5.07568 0
M  V30 7058 H 659.558 -2.64854 3.20923 0
M  V30 7059 H 658.434 -3.82491 3.9369 0
M  V30 7060 H 658.695 -3.83481 2.19987 0
M  V30 7061 N 657.755 -1.42862 -0.66545 0
M  V30 7062 C 658.98 -1.47456 -1.45848 0
M  V30 7063 C 659.405 -0.0900312 -1.87884 0
M  V30 7064 O 658.763 0.913587 -1.56599 0
M  V30 7065 C 658.811 -2.41514 -2.67774 0
M  V30 7066 O 657.915 -1.89296 -3.66389 0
M  V30 7067 H 657.256 -0.499236 -0.437789 0
M  V30 7068 H 659.786 -1.8765 -0.815394 0
M  V30 7069 H 659.796 -2.58409 -3.15735 0
M  V30 7070 H 658.471 -3.42099 -2.36519 0
M  V30 7071 H 657.048 -1.82003 -3.25468 0
M  V30 7072 N 659.233 0.902656 -1.29189 0
M  V30 7073 C 660.181 2.0278 -1.13943 0
M  V30 7074 C 661.175 1.69308 -0.055787 0
M  V30 7075 O 662.381 1.78707 -0.215371 0
M  V30 7076 H 658.756 0.664595 -0.351877 0
M  V30 7077 H 660.727 2.12778 -2.09208 0
M  V30 7078 C 659.476 3.37657 -0.82966 0
M  V30 7079 H 658.799 3.63913 -1.65551 0
M  V30 7080 H 660.239 4.17078 -0.762998 0
M  V30 7081 C 658.698 3.33648 0.466991 0
M  V30 7082 O 659.228 3.72886 1.49395 0
M  V30 7083 N 657.434 2.86745 0.471761 0
M  V30 7084 H 656.981 2.55009 -0.364406 0
M  V30 7085 H 656.939 2.84446 1.33933 0
M  V30 7086 N 660.711 1.11618 1.11262 0
M  V30 7087 C 661.941 0.88745 1.86569 0
M  V30 7088 C 662.349 -0.56636 1.80524 0
M  V30 7089 O 661.692 -1.40289 1.18594 0
M  V30 7090 C 661.754 1.27313 3.36202 0
M  V30 7091 C 661.418 2.73649 3.66013 0
M  V30 7092 C 662.415 3.71863 3.63337 0
M  V30 7093 C 660.1 3.10342 3.9496 0
M  V30 7094 C 662.094 5.04788 3.89188 0
M  V30 7095 C 659.781 4.43451 4.20469 0
M  V30 7096 C 660.779 5.40484 4.17572 0
M  V30 7097 O 660.467 6.71195 4.42439 0
M  V30 7098 H 660.199 0.317543 0.596777 0
M  V30 7099 H 662.753 1.48768 1.41624 0
M  V30 7100 H 660.983 0.616062 3.81761 0
M  V30 7101 H 662.672 1.01991 3.92877 0
M  V30 7102 H 663.438 3.44861 3.41022 0
M  V30 7103 H 659.317 2.35431 3.9635 0
M  V30 7104 H 662.861 5.80516 3.86842 0
M  V30 7105 H 658.758 4.70187 4.42261 0
M  V30 7106 H 659.526 6.77012 4.59997 0
M  V30 7107 N 662.189 -1.289 0.906776 0
M  V30 7108 C 663.121 -2.26556 0.347159 0
M  V30 7109 C 664.134 -1.54589 -0.51049 0
M  V30 7110 O 665.323 -1.75489 -0.326501 0
M  V30 7111 C 662.423 -3.3484 -0.523024 0
M  V30 7112 C 661.596 -4.36296 0.310515 0
M  V30 7113 C 660.655 -5.23879 -0.493634 0
M  V30 7114 O 659.681 -5.69127 0.0913569 0
M  V30 7115 N 660.883 -5.51946 -1.7982 0
M  V30 7116 H 663.648 -2.75212 1.18652 0
M  V30 7117 H 661.209 -1.42309 0.771996 0
M  V30 7118 H 663.201 -3.90366 -1.06756 0
M  V30 7119 H 661.771 -2.85946 -1.26309 0
M  V30 7120 H 660.991 -3.80331 1.03644 0
M  V30 7121 H 662.279 -5.01113 0.881106 0
M  V30 7122 H 661.677 -5.17006 -2.2961 0
M  V30 7123 H 660.234 -6.10258 -2.28971 0
M  V30 7124 N 663.667 -0.670007 -1.42649 0
M  V30 7125 C 664.913 -0.190568 -2.01903 0
M  V30 7126 C 665.246 1.19817 -1.52832 0
M  V30 7127 O 664.521 1.80342 -0.728485 0
M  V30 7128 C 664.804 -0.21991 -3.59428 0
M  V30 7129 C 664.657 -1.64376 -4.18689 0
M  V30 7130 C 665.976 0.434519 -4.3795 0
M  V30 7131 H 663.095 -0.0707219 -0.733599 0
M  V30 7132 H 665.737 -0.853883 -1.69732 0
M  V30 7133 H 663.887 0.344894 -3.86966 0
M  V30 7134 H 665.559 -2.26044 -4.02122 0
M  V30 7135 H 663.802 -2.18591 -3.747 0
M  V30 7136 H 664.473 -1.61601 -5.27815 0
M  V30 7137 H 666.949 -0.0462156 -4.16074 0
M  V30 7138 H 665.825 0.38333 -5.4756 0
M  V30 7139 H 666.086 1.51135 -4.15464 0
M  V30 7140 N 665.145 1.52092 -0.413018 0
M  V30 7141 C 666.055 2.30858 0.417318 0
M  V30 7142 C 667.071 1.38746 1.05003 0
M  V30 7143 O 668.247 1.71821 1.05069 0
M  V30 7144 C 665.312 3.11756 1.51687 0
M  V30 7145 C 664.373 4.19613 0.906825 0
M  V30 7146 C 663.606 4.96644 1.95399 0
M  V30 7147 O 663.829 4.7402 3.17271 0
M  V30 7148 O 662.763 5.81385 1.55805 0
M  V30 7149 H 666.589 3.02865 -0.225028 0
M  V30 7150 H 664.174 1.48358 -0.176126 0
M  V30 7151 H 666.056 3.62122 2.15512 0
M  V30 7152 H 664.731 2.42539 2.14375 0
M  V30 7153 H 663.638 3.73385 0.231183 0
M  V30 7154 H 664.971 4.91134 0.323814 0
M  V30 7155 N 666.623 0.143563 1.56945 0
M  V30 7156 C 667.533 -0.810562 2.20152 0
M  V30 7157 C 668.549 -1.27431 1.1848 0
M  V30 7158 O 669.725 -1.33221 1.51044 0
M  V30 7159 C 666.79 -2.03353 2.80799 0
M  V30 7160 C 665.851 -1.61936 3.97587 0
M  V30 7161 C 665.084 -2.78403 4.55332 0
M  V30 7162 O 665.307 -3.94521 4.11958 0
M  V30 7163 O 664.241 -2.54073 5.45647 0
M  V30 7164 H 668.067 -0.30253 3.02189 0
M  V30 7165 H 665.652 -0.0832925 1.49168 0
M  V30 7166 H 667.534 -2.74932 3.19359 0
M  V30 7167 H 666.209 -2.53116 2.01777 0
M  V30 7168 H 665.116 -0.873904 3.6375 0
M  V30 7169 H 666.449 -1.16892 4.78118 0
M  V30 7170 N 668.101 -1.57061 -0.130224 0
M  V30 7171 C 669.378 -1.75205 -0.869631 0
M  V30 7172 C 669.758 -0.716063 -1.98584 0
M  V30 7173 O 669.106 0.262032 -2.26993 0
M  V30 7174 C 669.316 -3.19835 -1.39666 0
M  V30 7175 C 670.664 -3.82011 -1.85345 0
M  V30 7176 O 671.688 -3.23368 -1.49371 0
M  V30 7177 O 670.547 -4.85064 -2.51744 0
M  V30 7178 H 667.641 -0.716977 -0.412157 0
M  V30 7179 H 670.187 -1.69311 -0.11484 0
M  V30 7180 H 668.959 -3.86745 -0.595288 0
M  V30 7181 H 668.582 -3.30222 -2.21448 0
M  V30 7182 N 669.579 0.400081 -1.52437 0
M  V30 7183 C 670.828 1.14332 -1.66166 0
M  V30 7184 C 671.141 1.91419 -0.402253 0
M  V30 7185 O 672.347 2.6824 -0.419487 0
M  V30 7186 C 670.803 2.08137 -2.9361 0
M  V30 7187 C 670.411 1.36524 -4.26691 0
M  V30 7188 C 672.155 2.82664 -3.16703 0
M  V30 7189 C 670.062 2.29031 -5.45251 0
M  V30 7190 H 668.992 0.430499 -0.61902 0
M  V30 7191 H 671.643 0.407017 -1.78929 0
M  V30 7192 H 670.025 2.85358 -2.74567 0
M  V30 7193 H 671.199 0.646061 -4.56249 0
M  V30 7194 H 669.514 0.74002 -4.09771 0
M  V30 7195 H 672.111 3.52037 -4.0246 0
M  V30 7196 H 672.454 3.46122 -2.31312 0
M  V30 7197 H 672.987 2.12541 -3.36261 0
M  V30 7198 H 669.726 1.70206 -6.33017 0
M  V30 7199 H 669.246 2.98896 -5.2002 0
M  V30 7200 H 670.925 2.89359 -5.78689 0
M  V30 7201 N 671.057 1.43213 0.657864 0
M  V30 7202 C 672.305 1.44298 1.41501 0
M  V30 7203 C 672.626 0.0666478 1.94886 0
M  V30 7204 O 671.896 -0.897345 1.74139 0
M  V30 7205 H 670.476 0.531257 0.525143 0
M  V30 7206 H 673.138 1.78777 0.776195 0
M  V30 7207 H 672.234 2.1528 2.25966 0
M  V30 7208 N 672.536 -0.895792 1.29666 0
M  V30 7209 C 673.483 -2.00035 1.15129 0
M  V30 7210 C 674.453 -1.66043 0.0435819 0
M  V30 7211 O 675.638 -1.89621 0.211811 0
M  V30 7212 C 672.778 -3.34774 0.83787 0
M  V30 7213 C 671.891 -3.81525 2.0264 0
M  V30 7214 C 671.026 -5.04858 1.65201 0
M  V30 7215 C 670.065 -5.43988 2.80612 0
M  V30 7216 N 669.202 -6.58507 2.43544 0
M  V30 7217 H 674.042 -2.11802 2.09628 0
M  V30 7218 H 671.579 -1.03719 1.04311 0
M  V30 7219 H 673.537 -4.12311 0.636824 0
M  V30 7220 H 672.167 -3.22724 -0.0702314 0
M  V30 7221 H 671.219 -2.9999 2.33903 0
M  V30 7222 H 672.531 -4.06472 2.89106 0
M  V30 7223 H 671.685 -5.8999 1.41408 0
M  V30 7224 H 670.424 -4.81759 0.758893 0
M  V30 7225 H 669.429 -4.57388 3.05083 0
M  V30 7226 H 670.654 -5.69066 3.70595 0
M  V30 7227 H 668.6 -6.37004 1.56724 0
M  V30 7228 H 668.517 -6.83269 3.23542 0
M  V30 7229 H 669.785 -7.46897 2.2308 0
M  V30 7230 N 674.014 -1.12206 -1.10668 0
M  V30 7231 C 674.944 -0.810086 -2.18997 0
M  V30 7232 C 675.925 0.225065 -1.68604 0
M  V30 7233 O 677.11 0.086783 -1.94006 0
M  V30 7234 C 674.24 -0.261262 -3.46316 0
M  V30 7235 C 673.194 -1.2292 -4.09969 0
M  V30 7236 C 672.52 -0.540713 -5.31959 0
M  V30 7237 C 673.82 -2.58295 -4.53962 0
M  V30 7238 H 675.514 -1.7159 -2.45352 0
M  V30 7239 H 673.06 -0.82646 -1.17922 0
M  V30 7240 H 675.013 -0.0307522 -4.21389 0
M  V30 7241 H 673.737 0.679879 -3.19445 0
M  V30 7242 H 672.396 -1.44548 -3.369 0
M  V30 7243 H 672.044 0.405492 -5.01363 0
M  V30 7244 H 671.744 -1.18637 -5.75499 0
M  V30 7245 H 673.268 -0.319184 -6.09765 0
M  V30 7246 H 674.682 -2.40709 -5.20319 0
M  V30 7247 H 673.079 -3.18916 -5.08343 0
M  V30 7248 H 674.149 -3.16918 -3.67002 0
M  V30 7249 N 675.492 1.28418 -0.913599 0
M  V30 7250 C 676.439 2.27301 -0.400373 0
M  V30 7251 C 677.409 1.57582 0.52509 0
M  V30 7252 O 678.594 1.85482 0.447318 0
M  V30 7253 C 675.734 3.43284 0.35361 0
M  V30 7254 C 674.847 4.27752 -0.604341 0
M  V30 7255 C 673.982 5.30934 0.168075 0
M  V30 7256 C 673.021 6.07065 -0.783499 0
M  V30 7257 N 672.158 7.02086 -0.0446112 0
M  V30 7258 H 676.998 2.70579 -1.24865 0
M  V30 7259 H 674.535 1.33067 -0.627028 0
M  V30 7260 H 676.493 4.09322 0.806945 0
M  V30 7261 H 675.123 3.00997 1.16623 0
M  V30 7262 H 674.175 3.61759 -1.17621 0
M  V30 7263 H 675.487 4.80682 -1.33216 0
M  V30 7264 H 674.641 6.02855 0.681979 0
M  V30 7265 H 673.38 4.78771 0.928947 0
M  V30 7266 H 672.385 5.33995 -1.30878 0
M  V30 7267 H 673.61 6.61317 -1.54392 0
M  V30 7268 H 671.556 6.52273 0.698272 0
M  V30 7269 H 671.473 7.52637 -0.712258 0
M  V30 7270 H 672.741 7.78205 0.449102 0
M  V30 7271 N 676.97 0.677563 1.42291 0
M  V30 7272 C 678.195 0.207901 2.06355 0
M  V30 7273 C 678.62 -1.12723 1.50583 0
M  V30 7274 O 677.978 -1.70171 0.62543 0
M  V30 7275 C 678.026 0.156489 3.6026 0
M  V30 7276 O 677.13 -0.874162 4.03029 0
M  V30 7277 H 676.471 0.106056 0.655475 0
M  V30 7278 H 679.001 0.927354 1.82377 0
M  V30 7279 H 679.011 -0.0187258 4.07996 0
M  V30 7280 H 677.686 1.13101 4.00226 0
M  V30 7281 H 676.263 -0.669764 3.66836 0
M  V30 7282 N 678.448 -1.51871 0.421078 0
M  V30 7283 C 679.688 -2.03848 -0.150167 0
M  V30 7284 C 680.052 -1.29925 -1.41363 0
M  V30 7285 O 681.253 -1.7219 -2.06408 0
M  V30 7286 C 679.524 -3.55374 -0.38003 0
M  V30 7287 S 681.083 -4.29111 -0.917011 0
M  V30 7288 H 677.901 -0.709904 -0.0394639 0
M  V30 7289 H 680.503 -1.86799 0.576746 0
M  V30 7290 H 679.207 -4.0675 0.546122 0
M  V30 7291 H 678.738 -3.76687 -1.13448 0
M  V30 7292 H 680.753 -4.44944 -2.19635 0
M  V30 7293 N 679.926 -0.151884 -1.56866 0
M  V30 7294 C 680.856 0.781943 -2.20018 0
M  V30 7295 C 681.837 1.25347 -1.14987 0
M  V30 7296 O 683.022 1.31015 -1.43348 0
M  V30 7297 C 680.152 2.01928 -2.82564 0
M  V30 7298 C 679.106 1.68434 -3.93464 0
M  V30 7299 C 678.432 2.99472 -4.42968 0
M  V30 7300 C 679.732 0.927244 -5.14003 0
M  V30 7301 H 681.426 0.255607 -2.98307 0
M  V30 7302 H 678.972 0.121502 -1.43486 0
M  V30 7303 H 680.925 2.67741 -3.25411 0
M  V30 7304 H 679.649 2.56943 -2.01614 0
M  V30 7305 H 678.308 1.04998 -3.51242 0
M  V30 7306 H 677.956 3.52488 -3.58834 0
M  V30 7307 H 677.656 2.77823 -5.17772 0
M  V30 7308 H 679.18 3.66348 -4.88489 0
M  V30 7309 H 680.594 1.48756 -5.53665 0
M  V30 7310 H 678.991 0.810513 -5.94601 0
M  V30 7311 H 680.061 -0.0801163 -4.84834 0
M  V30 7312 N 681.404 1.57128 0.121893 0
M  V30 7313 C 682.632 1.88883 0.844451 0
M  V30 7314 C 683.047 0.742824 1.73573 0
M  V30 7315 O 682.404 -0.286475 1.80238 0
M  V30 7316 C 682.455 3.20076 1.68029 0
M  V30 7317 O 682.176 4.30264 0.824898 0
M  V30 7318 C 683.677 3.65515 2.50826 0
M  V30 7319 H 680.897 0.62549 0.242907 0
M  V30 7320 H 683.441 2.04219 0.107151 0
M  V30 7321 H 681.596 3.06418 2.37038 0
M  V30 7322 H 682.01 5.05439 1.40113 0
M  V30 7323 H 683.484 4.60081 3.05008 0
M  V30 7324 H 683.961 2.92029 3.28048 0
M  V30 7325 H 684.567 3.81952 1.87064 0
M  V30 7326 N 682.882 -0.391992 1.52647 0
M  V30 7327 C 684.13 -1.13507 1.67214 0
M  V30 7328 C 684.451 -1.90575 0.41304 0
M  V30 7329 O 683.721 -1.87348 -0.572498 0
M  V30 7330 H 682.301 -0.422013 0.616372 0
M  V30 7331 H 684.963 -0.44502 1.89751 0
M  V30 7332 H 684.059 -1.83964 2.52118 0
M  V30 7333 N 684.36 -1.4356 -0.65026 0
M  V30 7334 C 685.607 -1.45333 -1.41012 0
M  V30 7335 C 685.935 -0.0787282 -1.94341 0
M  V30 7336 O 685.19 0.916715 -1.72901 0
M  V30 7337 C 685.489 -2.44528 -2.60654 0
M  V30 7338 C 685.155 -3.90331 -2.25727 0
M  V30 7339 C 683.817 -4.3004 -2.15914 0
M  V30 7340 C 686.169 -4.822 -1.97821 0
M  V30 7341 C 683.497 -5.59568 -1.76354 0
M  V30 7342 C 685.849 -6.12095 -1.59759 0
M  V30 7343 C 684.513 -6.50778 -1.48473 0
M  V30 7344 H 683.783 -0.531813 -0.516 0
M  V30 7345 H 686.43 -1.76657 -0.739219 0
M  V30 7346 H 684.735 -2.06619 -3.3289 0
M  V30 7347 H 686.432 -2.43155 -3.18868 0
M  V30 7348 H 683.022 -3.58905 -2.34276 0
M  V30 7349 H 687.206 -4.5229 -2.04322 0
M  V30 7350 H 682.462 -5.88376 -1.66205 0
M  V30 7351 H 686.636 -6.82751 -1.37198 0
M  V30 7352 H 684.263 -7.5105 -1.17591 0
M  V30 7353 N 685.838 0.888903 -1.30139 0
M  V30 7354 C 686.768 2.01046 -1.18755 0
M  V30 7355 C 687.749 1.69916 -0.0791438 0
M  V30 7356 O 688.934 1.92445 -0.260498 0
M  V30 7357 C 686.064 3.36109 -0.874518 0
M  V30 7358 C 685.018 3.81486 -1.94043 0
M  V30 7359 C 684.344 5.13796 -1.48047 0
M  V30 7360 C 685.644 4.00637 -3.35093 0
M  V30 7361 H 687.338 2.10828 -2.12584 0
M  V30 7362 H 684.884 1.01298 -1.02346 0
M  V30 7363 H 686.837 4.14089 -0.781548 0
M  V30 7364 H 685.561 3.26449 0.0994519 0
M  V30 7365 H 684.22 3.05731 -2.02297 0
M  V30 7366 H 683.868 5.0056 -0.494878 0
M  V30 7367 H 683.568 5.45127 -2.19341 0
M  V30 7368 H 685.092 5.94305 -1.40121 0
M  V30 7369 H 686.506 4.69067 -3.2962 0
M  V30 7370 H 684.903 4.43339 -4.04438 0
M  V30 7371 H 685.973 3.0462 -3.77273 0
M  V30 7372 N 687.317 1.12792 1.10072 0
M  V30 7373 C 688.249 0.757003 2.16338 0
M  V30 7374 C 689.262 -0.218144 1.61332 0
M  V30 7375 O 690.451 0.0010727 1.785 0
M  V30 7376 C 687.551 0.100303 3.38752 0
M  V30 7377 C 686.724 1.10586 4.2319 0
M  V30 7378 C 685.783 0.47609 5.24042 0
M  V30 7379 O 684.809 1.13418 5.57786 0
M  V30 7380 N 686.011 -0.754823 5.75572 0
M  V30 7381 H 688.776 1.6714 2.48766 0
M  V30 7382 H 686.337 1.02003 1.25726 0
M  V30 7383 H 688.329 -0.333092 4.03327 0
M  V30 7384 H 686.899 -0.716915 3.04268 0
M  V30 7385 H 686.119 1.71677 3.54853 0
M  V30 7386 H 687.407 1.78571 4.76435 0
M  V30 7387 H 686.805 -1.30838 5.50362 0
M  V30 7388 H 685.362 -1.13098 6.41913 0
M  V30 7389 N 688.795 -1.27931 0.920396 0
M  V30 7390 C 689.705 -2.30824 0.419212 0
M  V30 7391 C 690.721 -1.66767 -0.496461 0
M  V30 7392 O 691.897 -1.97763 -0.38104 0
M  V30 7393 C 688.962 -3.45158 -0.326601 0
M  V30 7394 C 688.023 -4.24754 0.623098 0
M  V30 7395 C 687.256 -5.33629 -0.0872172 0
M  V30 7396 O 687.479 -5.55204 -1.30784 0
M  V30 7397 O 686.413 -5.99091 0.580875 0
M  V30 7398 H 690.239 -2.75716 1.27337 0
M  V30 7399 H 687.824 -1.32747 0.685465 0
M  V30 7400 H 689.706 -4.14716 -0.747559 0
M  V30 7401 H 688.381 -3.02336 -1.15648 0
M  V30 7402 H 687.288 -3.57759 1.09359 0
M  V30 7403 H 688.621 -4.71272 1.41998 0
M  V30 7404 N 690.273 -0.685099 -1.4193 0
M  V30 7405 C 691.503 -0.220052 -2.05425 0
M  V30 7406 C 691.911 1.13185 -1.51611 0
M  V30 7407 O 691.254 1.71631 -0.654875 0
M  V30 7408 C 691.316 -0.0888364 -3.5939 0
M  V30 7409 C 690.98 -1.37109 -4.35947 0
M  V30 7410 C 691.977 -2.30675 -4.65924 0
M  V30 7411 C 689.662 -1.62155 -4.75406 0
M  V30 7412 C 691.656 -3.47556 -5.34306 0
M  V30 7413 C 689.343 -2.79324 -5.43527 0
M  V30 7414 C 690.341 -3.71848 -5.72903 0
M  V30 7415 O 690.029 -4.86966 -6.39624 0
M  V30 7416 H 689.761 -0.102165 -0.668235 0
M  V30 7417 H 692.315 -0.935194 -1.82875 0
M  V30 7418 H 690.545 0.681981 -3.80639 0
M  V30 7419 H 692.234 0.337669 -4.04493 0
M  V30 7420 H 693 -2.12579 -4.3593 0
M  V30 7421 H 688.879 -0.910053 -4.51928 0
M  V30 7422 H 692.423 -4.19794 -5.57153 0
M  V30 7423 H 688.32 -2.97342 -5.72938 0
M  V30 7424 H 689.088 -4.86644 -6.58118 0
M  V30 7425 N 691.751 1.51645 -0.429126 0
M  V30 7426 C 692.999 2.01616 0.139802 0
M  V30 7427 C 693.32 1.31568 1.43927 0
M  V30 7428 O 692.59 0.447688 1.90716 0
M  V30 7429 H 691.17 0.744998 0.054654 0
M  V30 7430 H 693.832 1.8638 -0.569952 0
M  V30 7431 H 692.928 3.10439 0.321609 0
M  V30 7432 N 693.229 0.160201 1.56784 0
M  V30 7433 C 694.159 -0.770264 2.2043 0
M  V30 7434 C 695.14 -1.24736 1.15651 0
M  V30 7435 O 696.325 -1.30253 1.44041 0
M  V30 7436 C 693.455 -2.00427 2.83631 0
M  V30 7437 C 692.409 -1.66345 3.94352 0
M  V30 7438 C 691.735 -2.97119 4.4455 0
M  V30 7439 C 693.035 -0.899972 5.14488 0
M  V30 7440 H 694.729 -0.239783 2.98438 0
M  V30 7441 H 692.275 -0.113891 1.43549 0
M  V30 7442 H 694.228 -2.66012 3.26827 0
M  V30 7443 H 692.952 -2.5587 2.02973 0
M  V30 7444 H 691.611 -1.03133 3.51794 0
M  V30 7445 H 691.259 -3.5058 3.60698 0
M  V30 7446 H 690.959 -2.75073 5.19238 0
M  V30 7447 H 692.483 -3.63753 4.90425 0
M  V30 7448 H 693.897 -1.45818 5.54446 0
M  V30 7449 H 692.294 -0.778968 5.95023 0
M  V30 7450 H 693.364 0.105827 4.84785 0
M  V30 7451 N 694.707 -1.5719 -0.113559 0
M  V30 7452 C 695.932 -1.89702 -0.838336 0
M  V30 7453 C 696.357 -0.752679 -1.72384 0
M  V30 7454 O 695.715 0.296575 -1.78858 0
M  V30 7455 C 695.763 -3.20989 -1.64312 0
M  V30 7456 O 694.867 -3.07278 -2.75053 0
M  V30 7457 H 694.208 -0.622339 -0.231496 0
M  V30 7458 H 696.738 -2.04382 -0.0943228 0
M  V30 7459 H 696.748 -3.53843 -2.03123 0
M  V30 7460 H 695.423 -4.03869 -0.993119 0
M  V30 7461 H 694 -2.85901 -2.39406 0
M  V30 7462 N 696.185 0.383891 -1.52853 0
M  V30 7463 C 697.431 1.13009 -1.68395 0
M  V30 7464 C 697.764 1.89488 -0.425195 0
M  V30 7465 O 697.039 1.8574 0.577136 0
M  V30 7466 C 697.322 2.10419 -2.92226 0
M  V30 7467 C 697.175 1.3767 -4.28214 0
M  V30 7468 C 698.494 3.10781 -3.11614 0
M  V30 7469 H 695.613 0.409463 -0.612788 0
M  V30 7470 H 698.255 0.412895 -1.85459 0
M  V30 7471 H 696.405 2.71579 -2.77808 0
M  V30 7472 H 698.077 0.794352 -4.54409 0
M  V30 7473 H 696.32 0.678533 -4.2846 0
M  V30 7474 H 696.991 2.08874 -5.10956 0
M  V30 7475 H 699.467 2.59715 -3.25096 0
M  V30 7476 H 698.343 3.76179 -3.99725 0
M  V30 7477 H 698.604 3.79933 -2.2606 0
M  V30 7478 N 697.663 1.43903 0.642637 0
M  V30 7479 C 698.596 1.44339 1.76753 0
M  V30 7480 C 699.574 0.303558 1.59741 0
M  V30 7481 O 700.758 0.498775 1.81781 0
M  V30 7482 C 697.885 1.26508 3.14187 0
M  V30 7483 C 696.931 2.43905 3.49875 0
M  V30 7484 S 697.764 4.0645 3.48653 0
M  V30 7485 C 698.92 3.91021 4.88726 0
M  V30 7486 H 699.153 2.39523 1.76113 0
M  V30 7487 H 696.686 1.31061 0.81623 0
M  V30 7488 H 698.644 1.16908 3.93501 0
M  V30 7489 H 697.305 0.328548 3.12377 0
M  V30 7490 H 696.498 2.27262 4.49853 0
M  V30 7491 H 696.1 2.50186 2.77998 0
M  V30 7492 H 698.392 3.54 5.77659 0
M  V30 7493 H 699.335 4.9079 5.10423 0
M  V30 7494 H 699.743 3.23287 4.62759 0
M  V30 7495 N 699.141 -0.881989 1.30609 0
M  V30 7496 C 700.387 -1.63647 1.19781 0
M  V30 7497 C 700.72 -1.92632 -0.246265 0
M  V30 7498 O 699.995 -1.54938 -1.17577 0
M  V30 7499 C 700.278 -2.97437 2.02985 0
M  V30 7500 C 700.131 -2.75406 3.55628 0
M  V30 7501 C 701.45 -3.98397 1.86997 0
M  V30 7502 H 698.569 -0.593841 0.436488 0
M  V30 7503 H 701.211 -1.02041 1.60273 0
M  V30 7504 H 699.361 -3.50018 1.68581 0
M  V30 7505 H 701.033 -2.2959 4.00107 0
M  V30 7506 H 699.276 -2.09856 3.79662 0
M  V30 7507 H 699.947 -3.70552 4.09139 0
M  V30 7508 H 702.423 -3.54986 2.17081 0
M  V30 7509 H 701.299 -4.89916 2.47536 0
M  V30 7510 H 701.56 -4.3424 0.829943 0
M  V30 7511 N 700.619 -1.13374 -1.09472 0
M  V30 7512 C 701.566 -0.810682 -2.16094 0
M  V30 7513 C 702.536 0.227003 -1.64541 0
M  V30 7514 O 703.721 0.0993538 -1.90541 0
M  V30 7515 C 700.861 -0.282336 -3.43943 0
M  V30 7516 C 699.974 -1.37902 -4.09398 0
M  V30 7517 C 699.109 -0.809066 -5.25002 0
M  V30 7518 C 698.148 -1.88419 -5.82379 0
M  V30 7519 N 697.285 -1.33221 -6.89345 0
M  V30 7520 H 702.125 -1.72397 -2.43071 0
M  V30 7521 H 699.662 -0.860564 -1.19301 0
M  V30 7522 H 701.62 0.0421189 -4.17179 0
M  V30 7523 H 700.25 0.594083 -3.17286 0
M  V30 7524 H 699.302 -1.82008 -3.34032 0
M  V30 7525 H 700.614 -2.19161 -4.48074 0
M  V30 7526 H 699.768 -0.435867 -6.05132 0
M  V30 7527 H 698.507 0.0346058 -4.87688 0
M  V30 7528 H 697.512 -2.26646 -5.00911 0
M  V30 7529 H 698.737 -2.73125 -6.21755 0
M  V30 7530 H 696.683 -0.510535 -6.5401 0
M  V30 7531 H 696.6 -2.08129 -7.26786 0
M  V30 7532 H 697.868 -0.986565 -7.73232 0
M  V30 7533 N 702.098 1.27442 -0.927168 0
M  V30 7534 C 703.375 1.89473 -0.485742 0
M  V30 7535 C 703.755 1.83922 1.03614 0
M  V30 7536 O 703.103 1.28409 1.89007 0
M  V30 7537 C 703.313 3.33417 -1.03123 0
M  V30 7538 C 704.661 4.10333 -1.0914 0
M  V30 7539 O 705.685 3.4243 -0.98082 0
M  V30 7540 O 704.544 5.31737 -1.26165 0
M  V30 7541 H 701.638 0.812124 -0.156154 0
M  V30 7542 H 704.184 1.35713 -1.01882 0
M  V30 7543 H 702.956 3.31747 -2.07508 0
M  V30 7544 H 702.579 3.94695 -0.479767 0
M  V30 7545 N 703.576 0.692616 1.41565 0
M  V30 7546 C 704.853 0.150496 1.9502 0
M  V30 7547 C 705.233 -1.33881 1.63215 0
M  V30 7548 O 704.581 -2.08378 0.937598 0
M  V30 7549 C 704.791 0.438636 3.46233 0
M  V30 7550 C 706.139 0.364777 4.2303 0
M  V30 7551 O 707.163 0.373383 3.54238 0
M  V30 7552 O 706.022 0.32234 5.45549 0
M  V30 7553 H 703.116 0.0132454 0.826894 0
M  V30 7554 H 705.662 0.768574 1.51298 0
M  V30 7555 H 704.434 1.46962 3.62654 0
M  V30 7556 H 704.057 -0.210562 3.97042 0
M  V30 7557 N 705.054 -1.51416 0.437162 0
M  V30 7558 C 706.284 -2.06204 -0.127859 0
M  V30 7559 C 706.692 -1.30463 -1.37026 0
M  V30 7560 O 706.035 -0.357516 -1.80187 0
M  V30 7561 C 706.097 -3.55783 -0.515632 0
M  V30 7562 C 705.761 -4.52776 0.619937 0
M  V30 7563 C 706.758 -4.98031 1.49201 0
M  V30 7564 C 704.443 -4.95878 0.800618 0
M  V30 7565 C 706.437 -5.85061 2.52947 0
M  V30 7566 C 704.124 -5.82699 1.84135 0
M  V30 7567 C 705.122 -6.27188 2.70416 0
M  V30 7568 O 704.81 -7.12284 3.72702 0
M  V30 7569 H 704.542 -0.675903 -0.011442 0
M  V30 7570 H 707.096 -1.95977 0.614986 0
M  V30 7571 H 705.326 -3.63793 -1.31118 0
M  V30 7572 H 707.015 -3.93087 -1.01179 0
M  V30 7573 H 707.781 -4.65426 1.36395 0
M  V30 7574 H 703.66 -4.60792 0.138617 0
M  V30 7575 H 707.204 -6.19708 3.20325 0
M  V30 7576 H 703.101 -6.14717 1.9696 0
M  V30 7577 H 703.869 -7.30462 3.69281 0
M  V30 7578 N 706.532 -0.168513 -1.56696 0
M  V30 7579 C 707.778 0.477865 -1.9709 0
M  V30 7580 C 708.111 1.63084 -1.05438 0
M  V30 7581 O 707.386 1.94238 -0.10095 0
M  V30 7582 C 707.669 0.963521 -3.4697 0
M  V30 7583 C 707.522 -0.189443 -4.49401 0
M  V30 7584 C 708.841 1.83813 -3.99876 0
M  V30 7585 H 705.96 0.172229 -0.716593 0
M  V30 7586 H 708.602 -0.254083 -1.88293 0
M  V30 7587 H 706.752 1.58724 -3.54597 0
M  V30 7588 H 708.424 -0.826451 -4.53836 0
M  V30 7589 H 706.667 -0.845366 -4.25483 0
M  V30 7590 H 707.338 0.192446 -5.51664 0
M  V30 7591 H 709.814 1.31235 -3.94863 0
M  V30 7592 H 708.69 2.14697 -5.0517 0
M  V30 7593 H 708.951 2.78289 -3.43523 0
M  V30 7594 N 708.01 1.57248 0.105221 0
M  V30 7595 C 708.96 1.9777 1.1345 0
M  V30 7596 C 709.944 0.854654 1.36325 0
M  V30 7597 O 711.136 1.11844 1.37186 0
M  V30 7598 C 708.265 2.39717 2.45745 0
M  V30 7599 C 707.351 3.58686 2.26286 0
M  V30 7600 N 707.742 4.73942 1.76671 0
M  V30 7601 C 706.04 3.64586 2.56891 0
M  V30 7602 C 706.741 5.55923 1.71245 0
M  V30 7603 N 705.717 4.98803 2.16093 0
M  V30 7604 H 709.519 2.84336 0.743664 0
M  V30 7605 H 707.033 1.59359 0.312787 0
M  V30 7606 H 709.03 2.66971 3.20206 0
M  V30 7607 H 707.69 1.54523 2.85574 0
M  V30 7608 H 708.701 4.9689 1.46016 0
M  V30 7609 H 705.378 2.90031 3.00314 0
M  V30 7610 H 706.768 6.58398 1.34022 0
M  V30 7611 N 709.488 -0.375779 1.53054 0
M  V30 7612 C 710.398 -1.48381 1.81715 0
M  V30 7613 C 711.414 -1.59087 0.704795 0
M  V30 7614 O 712.59 -1.75174 0.993785 0
M  V30 7615 C 709.655 -2.83767 1.99192 0
M  V30 7616 C 708.716 -2.82673 3.23102 0
M  V30 7617 C 707.949 -4.11601 3.39736 0
M  V30 7618 O 708.172 -5.07243 2.60885 0
M  V30 7619 O 707.106 -4.18034 4.33049 0
M  V30 7620 H 710.932 -1.27089 2.7583 0
M  V30 7621 H 708.517 -0.564902 1.38308 0
M  V30 7622 H 710.399 -3.64004 2.12318 0
M  V30 7623 H 709.074 -3.05057 1.08267 0
M  V30 7624 H 707.981 -2.0117 3.15407 0
M  V30 7625 H 709.314 -2.66335 4.13916 0
M  V30 7626 N 710.966 -1.44241 -0.634997 0
M  V30 7627 C 712.213 -1.46821 -1.39463 0
M  V30 7628 C 712.541 -0.0993362 -1.94246 0
M  V30 7629 O 711.796 0.898325 -1.73864 0
M  V30 7630 C 712.095 -2.47279 -2.58046 0
M  V30 7631 C 711.761 -3.92703 -2.21574 0
M  V30 7632 C 710.423 -4.32306 -2.1134 0
M  V30 7633 C 712.775 -4.84271 -1.92695 0
M  V30 7634 C 710.103 -5.61407 -1.70409 0
M  V30 7635 C 712.455 -6.13755 -1.53258 0
M  V30 7636 C 711.119 -6.52316 -1.41562 0
M  V30 7637 H 710.389 -0.537256 -0.51033 0
M  V30 7638 H 713.036 -1.77431 -0.720441 0
M  V30 7639 H 711.341 -2.10138 -3.3068 0
M  V30 7640 H 713.038 -2.46523 -3.16271 0
M  V30 7641 H 709.628 -3.61369 -2.30456 0
M  V30 7642 H 713.812 -4.54432 -1.99513 0
M  V30 7643 H 709.068 -5.90105 -1.59955 0
M  V30 7644 H 713.242 -6.84168 -1.29949 0
M  V30 7645 H 710.869 -7.52255 -1.09619 0
M  V30 7646 N 712.444 0.87505 -1.31075 0
M  V30 7647 C 713.684 1.64174 -1.21763 0
M  V30 7648 C 714.048 1.90713 0.221933 0
M  V30 7649 O 715.249 2.652 0.438458 0
M  V30 7650 C 713.52 2.93932 -2.0332 0
M  V30 7651 S 715.079 3.84841 -2.10815 0
M  V30 7652 H 711.897 0.563358 -0.433761 0
M  V30 7653 H 714.499 1.03788 -1.65675 0
M  V30 7654 H 713.203 2.72349 -3.07009 0
M  V30 7655 H 712.734 3.59345 -1.60108 0
M  V30 7656 H 714.749 4.80385 -1.24276 0
M  V30 7657 N 713.922 1.13953 1.08869 0
M  V30 7658 C 715.338 0.878924 1.33218 0
M  V30 7659 C 715.538 -0.482478 1.95638 0
M  V30 7660 O 714.594 -1.22778 2.2064 0
M  V30 7661 C 715.907 2.00798 2.23832 0
M  V30 7662 C 717.455 2.04073 2.37325 0
M  V30 7663 C 717.93 3.16258 3.31278 0
M  V30 7664 N 719.421 3.15805 3.38853 0
M  V30 7665 C 720.156 3.99249 4.11567 0
M  V30 7666 N 719.652 4.92721 4.87029 0
M  V30 7667 N 721.445 3.87327 4.0735 0
M  V30 7668 H 713.596 2.01645 0.66731 0
M  V30 7669 H 715.859 0.878395 0.356547 0
M  V30 7670 H 715.565 2.98986 1.85203 0
M  V30 7671 H 715.439 1.92704 3.24261 0
M  V30 7672 H 717.826 1.06495 2.75214 0
M  V30 7673 H 717.907 2.16239 1.36654 0
M  V30 7674 H 717.551 4.14079 2.9411 0
M  V30 7675 H 717.481 3.0133 4.31866 0
M  V30 7676 H 719.972 2.48102 2.8505 0
M  V30 7677 H 720.285 5.52867 5.39961 0
M  V30 7678 H 718.63 4.96723 4.86098 0
M  V30 7679 H 721.821 3.13627 3.475 0
M  V30 7680 H 721.994 4.52585 4.63757 0
M  V30 7681 N 715.4 -1.26948 0.933913 0
M  V30 7682 C 716.63 -1.97898 0.593279 0
M  V30 7683 C 717.038 -1.69806 -0.834412 0
M  V30 7684 O 716.381 -0.958704 -1.56699 0
M  V30 7685 C 716.443 -3.51657 0.746825 0
M  V30 7686 C 716.107 -4.03384 2.14779 0
M  V30 7687 C 717.104 -4.15682 3.12257 0
M  V30 7688 C 714.789 -4.37577 2.46641 0
M  V30 7689 C 716.783 -4.61455 4.39702 0
M  V30 7690 C 714.47 -4.8304 3.7432 0
M  V30 7691 C 715.468 -4.94939 4.70664 0
M  V30 7692 O 715.156 -5.39403 5.96071 0
M  V30 7693 H 714.888 -0.63814 0.223055 0
M  V30 7694 H 717.442 -1.62608 1.2549 0
M  V30 7695 H 715.672 -3.8669 0.0280889 0
M  V30 7696 H 717.361 -4.03821 0.410328 0
M  V30 7697 H 718.127 -3.89519 2.88964 0
M  V30 7698 H 714.006 -4.27554 1.72391 0
M  V30 7699 H 717.55 -4.70658 5.14905 0
M  V30 7700 H 713.447 -5.08646 3.97429 0
M  V30 7701 H 714.215 -5.57641 5.99148 0
M  V30 7702 N 716.879 -0.700114 -1.41195 0
M  V30 7703 C 718.127 -0.232546 -2.00758 0
M  V30 7704 C 718.448 1.1734 -1.55745 0
M  V30 7705 O 717.718 1.79262 -0.790058 0
M  V30 7706 H 716.298 -0.0829845 -0.742376 0
M  V30 7707 H 718.96 -0.902289 -1.72756 0
M  V30 7708 H 718.056 -0.253521 -3.11069 0
M  V30 7709 N 718.357 1.51182 -0.445186 0
M  V30 7710 C 719.32 2.26501 0.350722 0
M  V30 7711 C 720.32 1.3025 0.942952 0
M  V30 7712 O 721.51 1.53897 0.816175 0
M  V30 7713 C 718.642 3.06274 1.49697 0
M  V30 7714 H 719.835 2.98299 -0.309474 0
M  V30 7715 H 717.388 1.55034 -0.198551 0
M  V30 7716 H 718.123 2.38911 2.19299 0
M  V30 7717 H 717.908 3.76979 1.0784 0
M  V30 7718 H 719.398 3.63306 2.05909 0
M  V30 7719 N 719.835 0.176821 1.56605 0
M  V30 7720 C 720.798 -0.737429 2.17013 0
M  V30 7721 C 721.798 -1.15414 1.11965 0
M  V30 7722 O 722.988 -1.0702 1.37449 0
M  V30 7723 C 720.12 -2.00445 2.75744 0
M  V30 7724 H 721.313 -0.211455 2.99154 0
M  V30 7725 H 718.866 -0.0727582 1.56131 0
M  V30 7726 H 719.601 -2.57338 1.97352 0
M  V30 7727 H 719.386 -1.71456 3.52626 0
M  V30 7728 H 720.876 -2.65679 3.22187 0
M  V30 7729 N 721.313 -1.57302 -0.09688 0
M  V30 7730 C 722.223 -2.05258 -1.13606 0
M  V30 7731 C 723.239 -0.977137 -1.43972 0
M  V30 7732 O 724.415 -1.29018 -1.54649 0
M  V30 7733 C 721.48 -2.46593 -2.43706 0
M  V30 7734 C 720.541 -3.68322 -2.20538 0
M  V30 7735 C 719.774 -4.07676 -3.44435 0
M  V30 7736 O 719.997 -3.47141 -4.52603 0
M  V30 7737 O 718.931 -5.00641 -3.34129 0
M  V30 7738 H 722.757 -2.94069 -0.758752 0
M  V30 7739 H 720.342 -1.46164 -0.309263 0
M  V30 7740 H 722.224 -2.73814 -3.20318 0
M  V30 7741 H 720.899 -1.6092 -2.80867 0
M  V30 7742 H 719.806 -3.4622 -1.41713 0
M  V30 7743 H 721.139 -4.54769 -1.88271 0
M  V30 7744 N 722.791 0.367657 -1.53252 0
M  V30 7745 C 724.202 0.944563 -1.61043 0
M  V30 7746 C 724.553 1.90325 -0.476546 0
M  V30 7747 O 723.678 2.12721 0.397333 0
M  V30 7748 C 724.273 1.71992 -2.91898 0
M  V30 7749 C 722.832 2.2462 -3.02031 0
M  V30 7750 C 721.979 1.05799 -2.56324 0
M  V30 7751 H 724.93 0.146516 -1.58022 0
M  V30 7752 H 724.951 2.58095 -2.79584 0
M  V30 7753 H 724.463 1.02192 -3.74404 0
M  V30 7754 H 722.564 2.97668 -2.24108 0
M  V30 7755 H 722.677 2.52644 -4.07073 0
M  V30 7756 H 721.041 1.42435 -2.1115 0
M  V30 7757 H 721.824 0.375008 -3.41246 0
M  V30 7758 N 724.269 1.44576 0.627338 0
M  V30 7759 C 725.219 1.48168 1.73293 0
M  V30 7760 C 726.203 0.347045 1.57113 0
M  V30 7761 O 727.395 0.592605 1.66785 0
M  V30 7762 C 724.524 1.43236 3.11991 0
M  V30 7763 C 723.61 2.61828 3.33627 0
M  V30 7764 N 724.001 3.87053 3.25612 0
M  V30 7765 C 722.299 2.57104 3.64436 0
M  V30 7766 C 723 4.66093 3.48041 0
M  V30 7767 N 721.976 3.97228 3.71095 0
M  V30 7768 H 725.778 2.42832 1.6556 0
M  V30 7769 H 723.292 1.39592 0.829934 0
M  V30 7770 H 725.289 1.43893 3.91281 0
M  V30 7771 H 723.949 0.496133 3.20887 0
M  V30 7772 H 724.96 4.18966 3.04447 0
M  V30 7773 H 721.637 1.72295 3.8029 0
M  V30 7774 H 723.027 5.75117 3.47404 0
M  V30 7775 N 725.747 -0.868086 1.31537 0
M  V30 7776 C 726.975 -1.65402 1.24298 0
M  V30 7777 C 727.39 -1.87827 -0.191389 0
M  V30 7778 O 726.747 -1.43776 -1.12404 0
M  V30 7779 C 726.798 -3.02093 1.9855 0
M  V30 7780 O 726.519 -2.80668 3.36388 0
M  V30 7781 C 728.02 -3.96538 1.98173 0
M  V30 7782 H 725.24 -0.515598 0.429417 0
M  V30 7783 H 727.784 -1.0834 1.73444 0
M  V30 7784 H 725.939 -3.55838 1.53161 0
M  V30 7785 H 726.353 -3.67504 3.74221 0
M  V30 7786 H 727.827 -4.8976 2.54635 0
M  V30 7787 H 728.304 -4.28474 0.964697 0
M  V30 7788 H 728.91 -3.48729 2.4345 0
M  V30 7789 N 727.225 -1.14528 -1.08264 0
M  V30 7790 C 728.474 -0.908992 -1.80056 0
M  V30 7791 C 728.787 0.565859 -1.87236 0
M  V30 7792 O 729.993 0.919454 -2.55457 0
M  V30 7793 C 728.449 -1.57681 -3.23519 0
M  V30 7794 C 728.057 -3.08803 -3.24569 0
M  V30 7795 C 729.801 -1.4217 -3.99985 0
M  V30 7796 C 727.708 -3.68414 -4.62629 0
M  V30 7797 H 726.638 -0.336432 -0.674781 0
M  V30 7798 H 729.289 -1.37437 -1.21587 0
M  V30 7799 H 727.671 -1.03911 -3.82124 0
M  V30 7800 H 728.845 -3.69252 -2.75663 0
M  V30 7801 H 727.16 -3.23968 -2.61598 0
M  V30 7802 H 729.757 -1.84106 -5.02005 0
M  V30 7803 H 730.1 -0.367989 -4.1467 0
M  V30 7804 H 730.633 -1.92984 -3.47853 0
M  V30 7805 H 727.372 -4.73644 -4.53147 0
M  V30 7806 H 726.892 -3.12746 -5.11811 0
M  V30 7807 H 728.571 -3.68793 -5.31602 0
M  V30 7808 N 728.703 1.26451 -0.940633 0
M  V30 7809 C 729.666 2.24651 -0.454378 0
M  V30 7810 C 730.666 1.54826 0.434222 0
M  V30 7811 O 731.856 1.72628 0.233477 0
M  V30 7812 C 728.988 3.39148 0.345192 0
M  V30 7813 H 730.181 2.69182 -1.32217 0
M  V30 7814 H 727.734 1.38596 -0.722547 0
M  V30 7815 H 728.469 3.00018 1.23125 0
M  V30 7816 H 728.254 3.9101 -0.292107 0
M  V30 7817 H 729.744 4.12103 0.675341 0
M  V30 7818 N 730.181 0.707592 1.40822 0
M  V30 7819 C 731.144 0.0587224 2.29125 0
M  V30 7820 C 732.144 -0.695624 1.44975 0
M  V30 7821 O 733.334 -0.528718 1.65983 0
M  V30 7822 C 730.466 -0.926939 3.28056 0
M  V30 7823 H 731.659 0.836349 2.88002 0
M  V30 7824 H 729.212 0.471778 1.4901 0
M  V30 7825 H 729.947 -1.7319 2.74182 0
M  V30 7826 H 729.732 -0.389015 3.90165 0
M  V30 7827 H 731.222 -1.37837 3.94196 0
M  V30 7828 N 731.66 -1.50943 0.453197 0
M  V30 7829 C 732.907 -2.02212 -0.107922 0
M  V30 7830 C 733.235 -1.33639 -1.41318 0
M  V30 7831 O 732.49 -0.445154 -1.9057 0
M  V30 7832 C 732.789 -3.55603 -0.357944 0
M  V30 7833 C 732.455 -4.42556 0.863427 0
M  V30 7834 C 731.117 -4.6604 1.19834 0
M  V30 7835 C 733.469 -4.93468 1.67747 0
M  V30 7836 C 730.797 -5.37681 2.34768 0
M  V30 7837 C 733.149 -5.6637 2.81793 0
M  V30 7838 C 731.813 -5.88113 3.1572 0
M  V30 7839 H 731.083 -0.739947 -0.0394916 0
M  V30 7840 H 733.73 -1.81738 0.60363 0
M  V30 7841 H 732.035 -3.74495 -1.15156 0
M  V30 7842 H 733.732 -3.92821 -0.805781 0
M  V30 7843 H 730.322 -4.24485 0.592478 0
M  V30 7844 H 734.506 -4.75194 1.43192 0
M  V30 7845 H 729.762 -5.52727 2.61348 0
M  V30 7846 H 733.936 -6.04806 3.45229 0
M  V30 7847 H 731.563 -6.43404 4.04889 0
M  V30 7848 N 733.138 -0.185124 -1.56509 0
M  V30 7849 C 734.068 0.735098 -2.21627 0
M  V30 7850 C 735.049 1.2288 -1.1762 0
M  V30 7851 O 736.234 1.27945 -1.46095 0
M  V30 7852 C 733.364 1.95889 -2.86783 0
M  V30 7853 C 732.318 1.6005 -3.96948 0
M  V30 7854 C 731.644 2.90009 -4.4922 0
M  V30 7855 C 732.944 0.818008 -5.15855 0
M  V30 7856 H 734.638 0.192274 -2.98782 0
M  V30 7857 H 732.184 0.0910393 -1.43712 0
M  V30 7858 H 734.137 2.60779 -3.31017 0
M  V30 7859 H 732.861 2.52608 -2.07018 0
M  V30 7860 H 731.52 0.975237 -3.5339 0
M  V30 7861 H 731.168 3.44797 -3.6623 0
M  V30 7862 H 730.868 2.66778 -5.23549 0
M  V30 7863 H 732.392 3.55904 -4.9615 0
M  V30 7864 H 733.806 1.36979 -5.56695 0
M  V30 7865 H 732.203 0.684207 -5.96187 0
M  V30 7866 H 733.273 -0.182939 -4.84555 0
M  V30 7867 N 734.616 1.57351 0.0885366 0
M  V30 7868 C 735.864 1.86051 0.789262 0
M  V30 7869 C 736.185 0.774763 1.78948 0
M  V30 7870 O 735.455 -0.198324 1.94894 0
M  V30 7871 H 734.035 0.686508 0.294475 0
M  V30 7872 H 736.697 1.94779 0.0686055 0
M  V30 7873 H 735.793 2.83007 1.31581 0
M  V30 7874 N 736.094 -0.359525 1.53444 0
M  V30 7875 C 737.342 -1.09935 1.69584 0
M  V30 7876 C 737.663 -1.89656 0.453371 0
M  V30 7877 O 736.933 -1.8852 -0.53263 0
M  V30 7878 H 735.513 -0.408843 0.625185 0
M  V30 7879 H 738.175 -0.40467 1.90653 0
M  V30 7880 H 737.271 -1.78575 2.55964 0
M  V30 7881 N 737.572 -1.44907 -0.619662 0
M  V30 7882 C 738.535 -1.52282 -1.71297 0
M  V30 7883 C 739.535 -0.40359 -1.55653 0
M  V30 7884 O 740.725 -0.666638 -1.6094 0
M  V30 7885 C 737.857 -1.40778 -3.10474 0
M  V30 7886 H 739.05 -2.49683 -1.66128 0
M  V30 7887 H 736.603 -1.32168 -0.834339 0
M  V30 7888 H 737.338 -0.445156 -3.2123 0
M  V30 7889 H 737.123 -2.21947 -3.23237 0
M  V30 7890 H 738.613 -1.48946 -3.90135 0
M  V30 7891 N 739.05 0.861098 -1.31996 0
M  V30 7892 C 740.013 1.95068 -1.20338 0
M  V30 7893 C 741.013 1.60289 -0.128114 0
M  V30 7894 O 742.203 1.70048 -0.378044 0
M  V30 7895 C 739.335 3.30153 -0.849205 0
M  V30 7896 H 740.528 2.06833 -2.17164 0
M  V30 7897 H 738.081 1.05049 -1.15734 0
M  V30 7898 H 738.816 3.24087 0.117508 0
M  V30 7899 H 738.601 3.56771 -1.62655 0
M  V30 7900 H 740.091 4.10025 -0.791782 0
M  V30 7901 N 740.528 1.15101 1.07655 0
M  V30 7902 C 741.491 0.847625 2.12951 0
M  V30 7903 C 742.491 -0.151227 1.60087 0
M  V30 7904 O 743.681 0.0780399 1.74025 0
M  V30 7905 C 740.813 0.265 3.39868 0
M  V30 7906 H 742.006 1.7809 2.41296 0
M  V30 7907 H 739.559 0.958072 1.23494 0
M  V30 7908 H 740.294 -0.676625 3.17163 0
M  V30 7909 H 740.079 0.984554 3.79538 0
M  V30 7910 H 741.569 0.0702121 4.17541 0
M  V30 7911 N 742.006 -1.2595 0.947325 0
M  V30 7912 C 742.938 -2.25336 0.41906 0
M  V30 7913 C 743.951 -1.56135 -0.461051 0
M  V30 7914 O 745.14 -1.76438 -0.270505 0
M  V30 7915 C 742.24 -3.36334 -0.416233 0
M  V30 7916 C 741.413 -4.35088 0.449162 0
M  V30 7917 C 740.472 -5.25185 -0.326716 0
M  V30 7918 O 739.498 -5.68548 0.272374 0
M  V30 7919 N 740.7 -5.57388 -1.6217 0
M  V30 7920 H 743.465 -2.71298 1.27348 0
M  V30 7921 H 741.026 -1.39781 0.81688 0
M  V30 7922 H 743.018 -3.93564 -0.942826 0
M  V30 7923 H 741.588 -2.89819 -1.17148 0
M  V30 7924 H 740.808 -3.76841 1.15692 0
M  V30 7925 H 742.096 -4.98056 1.04008 0
M  V30 7926 H 741.494 -5.2405 -2.13046 0
M  V30 7927 H 740.051 -6.17234 -2.0944 0
M  V30 7928 N 743.484 -0.715051 -1.40445 0
M  V30 7929 C 744.394 -0.0631624 -2.34515 0
M  V30 7930 C 745.41 0.744397 -1.57273 0
M  V30 7931 O 746.586 0.677475 -1.89663 0
M  V30 7932 C 743.651 0.847915 -3.36172 0
M  V30 7933 C 742.712 0.0303655 -4.29289 0
M  V30 7934 C 741.945 0.898051 -5.2609 0
M  V30 7935 O 742.168 2.13729 -5.28844 0
M  V30 7936 O 741.102 0.337328 -6.00954 0
M  V30 7937 H 744.928 -0.839078 -2.91879 0
M  V30 7938 H 742.513 -0.475527 -1.4163 0
M  V30 7939 H 744.395 1.3698 -3.98515 0
M  V30 7940 H 743.07 1.60299 -2.81222 0
M  V30 7941 H 741.977 -0.536573 -3.70232 0
M  V30 7942 H 743.31 -0.686474 -4.87389 0
M  V30 7943 N 744.962 1.50701 -0.461195 0
M  V30 7944 C 746.208 2.02566 0.0973411 0
M  V30 7945 C 746.541 1.3432 1.40257 0
M  V30 7946 O 745.816 0.465692 1.88843 0
M  V30 7947 C 746.099 3.58919 0.291423 0
M  V30 7948 C 745.952 4.37751 -1.03413 0
M  V30 7949 C 747.271 4.27379 1.05048 0
M  V30 7950 H 744.39 0.73622 0.0339026 0
M  V30 7951 H 747.032 1.80115 -0.604855 0
M  V30 7952 H 745.182 3.78179 0.889539 0
M  V30 7953 H 746.854 4.30085 -1.66806 0
M  V30 7954 H 745.097 4.01885 -1.63313 0
M  V30 7955 H 745.768 5.45384 -0.852085 0
M  V30 7956 H 748.244 4.12534 0.543603 0
M  V30 7957 H 747.12 5.36609 1.15506 0
M  V30 7958 H 747.381 3.89868 2.0846 0
M  V30 7959 N 746.441 0.193421 1.56409 0
M  V30 7960 C 747.69 -0.445995 1.96707 0
M  V30 7961 C 748.003 -1.62876 1.08309 0
M  V30 7962 O 749.209 -2.33586 1.38383 0
M  V30 7963 C 747.665 -0.844863 3.49843 0
M  V30 7964 C 747.273 0.31352 4.46902 0
M  V30 7965 C 749.017 -1.45146 3.98915 0
M  V30 7966 C 746.924 -0.106214 5.91305 0
M  V30 7967 H 745.854 -0.170398 0.734493 0
M  V30 7968 H 748.505 0.285172 1.81271 0
M  V30 7969 H 746.887 -1.63265 3.60778 0
M  V30 7970 H 748.061 1.09103 4.47698 0
M  V30 7971 H 746.376 0.8315 4.08014 0
M  V30 7972 H 748.973 -1.77792 5.04276 0
M  V30 7973 H 749.316 -2.35734 3.43126 0
M  V30 7974 H 749.849 -0.727675 3.91088 0
M  V30 7975 H 746.588 0.765442 6.51016 0
M  V30 7976 H 746.108 -0.848623 5.93766 0
M  V30 7977 H 747.787 -0.542588 6.44721 0
M  V30 7978 N 747.919 -1.57396 -0.0801906 0
M  V30 7979 C 748.866 -2.03107 -1.09618 0
M  V30 7980 C 749.836 -0.910118 -1.38946 0
M  V30 7981 O 751.021 -1.17719 -1.50156 0
M  V30 7982 C 748.161 -2.47293 -2.40708 0
M  V30 7983 C 747.274 -3.72972 -2.17982 0
M  V30 7984 C 746.409 -4.05975 -3.42576 0
M  V30 7985 C 745.448 -5.24719 -3.15177 0
M  V30 7986 N 744.585 -5.53401 -4.32078 0
M  V30 7987 H 749.425 -2.89677 -0.69939 0
M  V30 7988 H 746.962 -1.43263 -0.333785 0
M  V30 7989 H 748.92 -2.7096 -3.17232 0
M  V30 7990 H 747.55 -1.63713 -2.78205 0
M  V30 7991 H 746.602 -3.56693 -1.32189 0
M  V30 7992 H 747.914 -4.59638 -1.93738 0
M  V30 7993 H 747.068 -4.30498 -4.275 0
M  V30 7994 H 745.807 -3.17859 -3.69887 0
M  V30 7995 H 744.812 -5 -2.28648 0
M  V30 7996 H 746.037 -6.14445 -2.89197 0
M  V30 7997 H 743.983 -4.68245 -4.59437 0
M  V30 7998 H 743.9 -6.34469 -4.11078 0
M  V30 7999 H 745.168 -5.8247 -5.18024 0
M  V30 8000 N 749.397 0.351382 -1.53633 0
M  V30 8001 C 750.646 1.08988 -1.69719 0
M  V30 8002 C 750.959 1.90043 -0.462948 0
M  V30 8003 O 752.165 2.66769 -0.504613 0
M  V30 8004 C 750.621 1.98691 -3.00083 0
M  V30 8005 C 750.229 1.22881 -4.30818 0
M  V30 8006 C 751.973 2.72446 -3.25536 0
M  V30 8007 C 749.88 2.11568 -5.52262 0
M  V30 8008 H 748.81 0.410588 -0.632403 0
M  V30 8009 H 751.461 0.349886 -1.80133 0
M  V30 8010 H 749.843 2.76478 -2.83506 0
M  V30 8011 H 751.017 0.500582 -4.58073 0
M  V30 8012 H 749.332 0.60928 -4.11918 0
M  V30 8013 H 751.929 3.39055 -4.13456 0
M  V30 8014 H 752.272 3.38588 -2.42206 0
M  V30 8015 H 752.805 2.01735 -3.42852 0
M  V30 8016 H 749.544 1.4998 -6.38111 0
M  V30 8017 H 749.064 2.82201 -5.29266 0
M  V30 8018 H 750.743 2.70802 -5.87601 0
M  V30 8019 N 750.875 1.45233 0.611969 0
M  V30 8020 C 752.124 1.48296 1.36716 0
M  V30 8021 C 752.437 0.12706 1.95187 0
M  V30 8022 O 753.643 0.0353066 2.71477 0
M  V30 8023 C 752.099 2.61168 2.47627 0
M  V30 8024 C 751.707 4.03051 1.95587 0
M  V30 8025 C 753.451 2.73472 3.24674 0
M  V30 8026 C 751.358 5.07312 3.03954 0
M  V30 8027 H 750.288 0.5518 0.513841 0
M  V30 8028 H 752.939 1.7136 0.656359 0
M  V30 8029 H 751.321 2.31379 3.21372 0
M  V30 8030 H 752.495 4.42497 1.2858 0
M  V30 8031 H 750.81 3.95158 1.31298 0
M  V30 8032 H 753.407 3.48537 4.05494 0
M  V30 8033 H 753.75 1.79953 3.75397 0
M  V30 8034 H 754.283 3.02765 2.58028 0
M  V30 8035 H 751.022 6.02525 2.58154 0
M  V30 8036 H 750.542 4.7244 3.69541 0
M  V30 8037 H 752.221 5.31867 3.6841 0
M  V30 8038 N 752.353 -0.854086 1.3245 0
M  V30 8039 C 753.581 -1.64074 1.26045 0
M  V30 8040 C 753.996 -1.8802 -0.171456 0
M  V30 8041 O 753.353 -1.4496 -1.10873 0
M  V30 8042 C 753.404 -2.9997 2.01743 0
M  V30 8043 O 753.125 -2.77084 3.39346 0
M  V30 8044 C 754.626 -3.94414 2.02368 0
M  V30 8045 H 751.846 -0.511015 0.434862 0
M  V30 8046 H 754.39 -1.06494 1.74583 0
M  V30 8047 H 752.545 -3.54193 1.56926 0
M  V30 8048 H 752.959 -3.63514 3.78098 0
M  V30 8049 H 754.433 -4.87032 2.59815 0
M  V30 8050 H 754.91 -4.27427 1.01009 0
M  V30 8051 H 755.516 -3.46127 2.47135 0
M  V30 8052 N 753.831 -1.1567 -1.07043 0
M  V30 8053 C 754.778 -0.856336 -2.14326 0
M  V30 8054 C 755.748 0.192051 -1.64986 0
M  V30 8055 O 756.933 0.0589148 -1.90709 0
M  V30 8056 C 754.073 -0.355227 -3.43267 0
M  V30 8057 C 753.186 -1.46555 -4.06381 0
M  V30 8058 C 752.321 -0.920245 -5.23168 0
M  V30 8059 C 751.36 -2.00729 -5.78251 0
M  V30 8060 N 750.497 -1.47813 -6.86364 0
M  V30 8061 H 755.337 -1.77514 -2.39359 0
M  V30 8062 H 752.874 -0.885676 -1.17449 0
M  V30 8063 H 754.832 -0.0463804 -4.17174 0
M  V30 8064 H 753.462 0.526649 -3.18475 0
M  V30 8065 H 752.514 -1.89052 -3.30096 0
M  V30 8066 H 753.826 -2.28616 -4.43324 0
M  V30 8067 H 752.98 -0.564127 -6.04072 0
M  V30 8068 H 751.719 -0.0688477 -4.87651 0
M  V30 8069 H 750.724 -2.3722 -4.95991 0
M  V30 8070 H 751.949 -2.86252 -6.15822 0
M  V30 8071 H 749.895 -0.649145 -6.5278 0
M  V30 8072 H 749.812 -2.23498 -7.22208 0
M  V30 8073 H 751.08 -1.15036 -7.70965 0
M  V30 8074 N 755.309 1.25446 -0.953992 0
M  V30 8075 C 756.241 2.25111 -0.431004 0
M  V30 8076 C 757.254 1.56377 0.452764 0
M  V30 8077 O 758.443 1.76579 0.261144 0
M  V30 8078 C 755.543 3.3655 0.39839 0
M  V30 8079 C 754.716 4.34843 -0.472229 0
M  V30 8080 C 753.775 5.25351 0.29886 0
M  V30 8081 O 752.801 5.68396 -0.302522 0
M  V30 8082 N 754.003 5.5824 1.59211 0
M  V30 8083 H 756.768 2.70619 -1.28785 0
M  V30 8084 H 754.329 1.39346 -0.824281 0
M  V30 8085 H 756.321 3.94059 0.921941 0
M  V30 8086 H 754.891 2.90436 1.15609 0
M  V30 8087 H 754.111 3.76222 -1.17689 0
M  V30 8088 H 755.399 4.97497 -1.06648 0
M  V30 8089 H 754.797 5.25172 2.10264 0
M  V30 8090 H 753.354 6.18336 2.06164 0
M  V30 8091 N 756.787 0.722489 1.40064 0
M  V30 8092 C 758.034 0.264979 2.00759 0
M  V30 8093 C 758.362 -1.14395 1.57302 0
M  V30 8094 O 757.617 -1.79165 0.787298 0
M  V30 8095 C 757.916 0.300682 3.56133 0
M  V30 8096 C 757.582 1.66087 4.19197 0
M  V30 8097 C 756.244 2.03319 4.36136 0
M  V30 8098 C 758.596 2.55452 4.54306 0
M  V30 8099 C 755.924 3.29448 4.8547 0
M  V30 8100 C 758.276 3.8094 5.05042 0
M  V30 8101 C 756.94 4.1828 5.2019 0
M  V30 8102 H 756.21 0.0969625 0.734629 0
M  V30 8103 H 758.857 0.926877 1.67575 0
M  V30 8104 H 757.162 -0.44479 3.89267 0
M  V30 8105 H 758.859 -0.0712542 4.00937 0
M  V30 8106 H 755.449 1.36137 4.06405 0
M  V30 8107 H 759.633 2.27961 4.40849 0
M  V30 8108 H 754.889 3.58338 4.95382 0
M  V30 8109 H 759.063 4.50351 5.31184 0
M  V30 8110 H 756.69 5.16081 5.58179 0
M  V30 8111 N 758.265 -1.50454 0.469181 0
M  V30 8112 C 759.511 -2.02615 -0.0865971 0
M  V30 8113 C 759.844 -1.35062 -1.39542 0
M  V30 8114 O 759.119 -0.475701 -1.88593 0
M  V30 8115 C 759.402 -3.59068 -0.272385 0
M  V30 8116 C 759.255 -4.37196 1.05733 0
M  V30 8117 C 760.574 -4.2793 -1.0278 0
M  V30 8118 H 757.693 -0.736389 -0.0299977 0
M  V30 8119 H 760.335 -1.79792 0.614399 0
M  V30 8120 H 758.485 -3.78646 -0.869471 0
M  V30 8121 H 760.157 -4.29195 1.69084 0
M  V30 8122 H 758.4 -4.01013 1.65442 0
M  V30 8123 H 759.071 -5.44924 0.880997 0
M  V30 8124 H 761.547 -4.12816 -0.521718 0
M  V30 8125 H 760.423 -5.37214 -1.12659 0
M  V30 8126 H 760.684 -3.90968 -2.0639 0
M  V30 8127 N 759.743 -0.201713 -1.56304 0
M  V30 8128 C 760.992 0.435557 -1.96941 0
M  V30 8129 C 761.305 1.62299 -1.09172 0
M  V30 8130 O 762.511 2.32849 -1.3962 0
M  V30 8131 C 760.967 0.826298 -3.50286 0
M  V30 8132 C 760.575 -0.337216 -4.46729 0
M  V30 8133 C 762.319 1.43028 -3.99679 0
M  V30 8134 C 760.226 0.0748539 -5.91353 0
M  V30 8135 H 759.156 0.1665 -0.735387 0
M  V30 8136 H 761.807 -0.294781 -1.81117 0
M  V30 8137 H 760.189 1.61349 -3.61639 0
M  V30 8138 H 761.363 -1.11476 -4.47113 0
M  V30 8139 H 759.678 -0.853126 -4.07567 0
M  V30 8140 H 762.275 1.75115 -5.05212 0
M  V30 8141 H 762.618 2.33911 -3.44371 0
M  V30 8142 H 763.151 0.706924 -3.91468 0
M  V30 8143 H 759.89 -0.799957 -6.506 0
M  V30 8144 H 759.41 0.817122 -5.94208 0
M  V30 8145 H 761.089 0.508389 -6.45 0
M  V30 8146 N 761.222 1.57436 0.0718424 0
M  V30 8147 C 762.469 1.87248 0.771007 0
M  V30 8148 C 762.797 0.793441 1.7758 0
M  V30 8149 O 762.052 -0.210565 1.94564 0
M  V30 8150 C 762.351 3.23723 1.51455 0
M  V30 8151 C 762.017 4.46194 0.649736 0
M  V30 8152 C 760.679 4.79438 0.411409 0
M  V30 8153 C 763.031 5.21176 0.05004 0
M  V30 8154 C 760.359 5.85077 -0.436096 0
M  V30 8155 C 762.711 6.27712 -0.784919 0
M  V30 8156 C 761.375 6.59457 -1.03312 0
M  V30 8157 H 760.645 0.685188 0.282132 0
M  V30 8158 H 763.292 1.91474 0.0317896 0
M  V30 8159 H 761.597 3.15287 2.32597 0
M  V30 8160 H 763.294 3.44023 2.06031 0
M  V30 8161 H 759.884 4.20175 0.84562 0
M  V30 8162 H 764.068 4.95806 0.221282 0
M  V30 8163 H 759.324 6.08071 -0.637136 0
M  V30 8164 H 763.498 6.84974 -1.25635 0
M  V30 8165 H 761.125 7.4114 -1.6916 0
M  V30 8166 N 762.7 -0.34323 1.53817 0
M  V30 8167 C 763.648 -1.44176 1.82527 0
M  V30 8168 C 764.642 -1.54452 0.695772 0
M  V30 8169 O 765.848 -1.57072 0.879114 0
M  V30 8170 H 762.223 -0.480729 0.578277 0
M  V30 8171 H 764.194 -1.17176 2.74431 0
M  V30 8172 C 762.943 -2.80695 2.05197 0
M  V30 8173 H 762.266 -2.73554 2.91561 0
M  V30 8174 H 763.706 -3.56679 2.29251 0
M  V30 8175 C 762.165 -3.26322 0.837589 0
M  V30 8176 O 762.695 -4.01683 0.0371631 0
M  V30 8177 N 760.901 -2.83128 0.654724 0
M  V30 8178 H 760.448 -2.21965 1.30725 0
M  V30 8179 H 760.406 -3.14011 -0.156345 0
M  V30 8180 N 764.178 -1.45556 -0.604258 0
M  V30 8181 C 765.126 -1.5482 -1.7359 0
M  V30 8182 C 766.12 -0.417966 -1.64163 0
M  V30 8183 O 767.326 -0.594007 -1.69916 0
M  V30 8184 H 763.701 -0.486352 -0.573556 0
M  V30 8185 H 765.672 -2.5001 -1.62903 0
M  V30 8186 C 764.421 -1.53521 -3.11972 0
M  V30 8187 H 763.744 -2.39818 -3.19886 0
M  V30 8188 H 765.184 -1.64061 -3.90973 0
M  V30 8189 C 763.643 -0.260191 -3.35894 0
M  V30 8190 O 764.173 0.658582 -3.96265 0
M  V30 8191 N 762.379 -0.154839 -2.90187 0
M  V30 8192 H 761.926 -0.903378 -2.4124 0
M  V30 8193 H 761.884 0.697437 -3.06567 0
M  V30 8194 N 765.656 0.84705 -1.32902 0
M  V30 8195 C 766.884 1.63403 -1.26913 0
M  V30 8196 C 767.299 1.88108 0.161483 0
M  V30 8197 O 766.656 1.45546 1.10103 0
M  V30 8198 C 766.707 2.98896 -2.03331 0
M  V30 8199 O 766.428 2.75281 -3.40811 0
M  V30 8200 C 767.929 3.93335 -2.04457 0
M  V30 8201 H 765.149 0.508701 -0.437566 0
M  V30 8202 H 767.693 1.05567 -1.75145 0
M  V30 8203 H 765.848 3.53356 -1.58802 0
M  V30 8204 H 766.262 3.61504 -3.8002 0
M  V30 8205 H 767.736 4.85647 -2.62394 0
M  V30 8206 H 768.213 4.26885 -1.03274 0
M  V30 8207 H 768.819 3.44812 -2.48967 0
M  V30 8208 N 767.134 1.16236 1.06428 0
M  V30 8209 C 768.364 0.965782 1.82637 0
M  V30 8210 C 768.772 -0.489284 1.82764 0
M  V30 8211 O 768.115 -1.35133 1.24438 0
M  V30 8212 C 768.177 1.41458 3.30499 0
M  V30 8213 C 767.841 2.88926 3.54077 0
M  V30 8214 C 768.838 3.86939 3.47238 0
M  V30 8215 C 766.523 3.26814 3.81442 0
M  V30 8216 C 768.517 5.20841 3.67428 0
M  V30 8217 C 766.204 4.60886 4.01282 0
M  V30 8218 C 767.202 5.57708 3.94272 0
M  V30 8219 O 766.89 6.89357 4.13573 0
M  V30 8220 H 766.622 0.342569 0.582772 0
M  V30 8221 H 769.176 1.54641 1.35187 0
M  V30 8222 H 767.406 0.777426 3.78805 0
M  V30 8223 H 769.095 1.18563 3.88198 0
M  V30 8224 H 769.861 3.59014 3.26089 0
M  V30 8225 H 765.74 2.5203 3.86008 0
M  V30 8226 H 769.284 5.96401 3.61873 0
M  V30 8227 H 765.181 4.88522 4.21921 0
M  V30 8228 H 765.949 6.95913 4.30869 0
M  V30 8229 N 768.612 -1.24939 0.960631 0
M  V30 8230 C 769.861 -1.92118 0.614298 0
M  V30 8231 C 770.174 -1.75998 -0.853474 0
M  V30 8232 O 771.38 -2.37804 -1.31003 0
M  V30 8233 C 769.836 -3.44303 1.04801 0
M  V30 8234 C 769.444 -3.69123 2.53875 0
M  V30 8235 C 771.188 -4.17375 0.774497 0
M  V30 8236 C 769.095 -5.14843 2.91016 0
M  V30 8237 H 768.025 -0.719319 0.226045 0
M  V30 8238 H 770.676 -1.41701 1.16589 0
M  V30 8239 H 769.058 -3.93715 0.42479 0
M  V30 8240 H 770.232 -3.30339 3.21267 0
M  V30 8241 H 768.547 -3.09323 2.78762 0
M  V30 8242 H 771.144 -5.24723 1.02808 0
M  V30 8243 H 771.487 -4.15294 -0.289192 0
M  V30 8244 H 772.02 -3.7389 1.35835 0
M  V30 8245 H 768.759 -5.2204 3.96427 0
M  V30 8246 H 768.279 -5.54652 2.28302 0
M  V30 8247 H 769.958 -5.83017 2.80535 0
M  V30 8248 N 770.09 -0.729906 -1.39679 0
M  V30 8249 C 771.32 -0.285295 -2.04621 0
M  V30 8250 C 771.728 1.08304 -1.55135 0
M  V30 8251 O 771.071 1.6946 -0.709146 0
M  V30 8252 C 771.133 -0.203129 -3.58926 0
M  V30 8253 C 770.797 -1.50909 -4.31365 0
M  V30 8254 C 771.794 -2.45381 -4.58349 0
M  V30 8255 C 769.479 -1.77198 -4.70007 0
M  V30 8256 C 771.473 -3.64379 -5.22979 0
M  V30 8257 C 769.16 -2.96474 -5.34365 0
M  V30 8258 C 770.158 -3.89886 -5.60783 0
M  V30 8259 O 769.846 -5.07069 -6.23808 0
M  V30 8260 H 769.578 -0.123373 -0.664647 0
M  V30 8261 H 772.132 -0.992901 -1.79807 0
M  V30 8262 H 770.362 0.560538 -3.82616 0
M  V30 8263 H 772.051 0.208811 -4.05363 0
M  V30 8264 H 772.817 -2.2634 -4.28947 0
M  V30 8265 H 768.696 -1.05337 -4.48804 0
M  V30 8266 H 772.24 -4.37307 -5.43515 0
M  V30 8267 H 768.137 -3.15419 -5.63188 0
M  V30 8268 H 768.905 -5.07335 -6.42303 0
M  V30 8269 N 771.568 1.50203 -0.477153 0
M  V30 8270 C 772.793 2.07263 0.0754986 0
M  V30 8271 C 773.218 1.33801 1.32208 0
M  V30 8272 O 772.576 0.387482 1.77111 0
M  V30 8273 C 772.624 3.59028 0.336348 0
M  V30 8274 O 771.728 3.87339 1.4157 0
M  V30 8275 H 771.069 0.663815 -0.015662 0
M  V30 8276 H 773.599 1.93321 -0.669936 0
M  V30 8277 H 773.609 4.03927 0.575034 0
M  V30 8278 H 772.284 4.11912 -0.574551 0
M  V30 8279 H 770.861 3.54272 1.16385 0
M  V30 8280 N 773.046 0.209999 1.56195 0
M  V30 8281 C 774.294 -0.423974 1.97603 0
M  V30 8282 C 774.615 -1.61112 1.09854 0
M  V30 8283 O 773.885 -1.95134 0.173032 0
M  V30 8284 H 772.465 -0.159629 0.729745 0
M  V30 8285 H 775.127 0.300205 1.92574 0
M  V30 8286 H 774.223 -0.75809 3.02753 0
M  V30 8287 N 774.524 -1.57472 -0.0634922 0
M  V30 8288 C 775.457 -1.99571 -1.10664 0
M  V30 8289 C 776.435 -0.874015 -1.37112 0
M  V30 8290 O 777.619 -1.13702 -1.50347 0
M  V30 8291 C 774.746 -2.3395 -2.44918 0
M  V30 8292 C 773.792 -3.56213 -2.34551 0
M  V30 8293 S 774.625 -5.06727 -1.73169 0
M  V30 8294 C 775.781 -5.44316 -3.08984 0
M  V30 8295 H 776.014 -2.87739 -0.747905 0
M  V30 8296 H 773.547 -1.5198 -0.272316 0
M  V30 8297 H 775.505 -2.54431 -3.22141 0
M  V30 8298 H 774.166 -1.46297 -2.7795 0
M  V30 8299 H 773.359 -3.77812 -3.33578 0
M  V30 8300 H 772.961 -3.35406 -1.65466 0
M  V30 8301 H 775.253 -5.42894 -4.05305 0
M  V30 8302 H 776.196 -6.4502 -2.92156 0
M  V30 8303 H 776.604 -4.71781 -3.09972 0
M  V30 8304 N 776.003 0.335068 -1.53997 0
M  V30 8305 C 777.228 1.09859 -1.75914 0
M  V30 8306 C 777.653 1.81308 -0.500915 0
M  V30 8307 O 777.011 1.72854 0.54693 0
M  V30 8308 C 777.059 2.08122 -2.94478 0
M  V30 8309 O 776.163 3.15805 -2.65219 0
M  V30 8310 H 775.504 0.317313 -0.583274 0
M  V30 8311 H 778.034 0.382872 -2.00986 0
M  V30 8312 H 778.044 2.51195 -3.21504 0
M  V30 8313 H 776.719 1.55517 -3.8573 0
M  V30 8314 H 775.296 2.77489 -2.49107 0
M  V30 8315 N 777.481 1.45874 0.596531 0
M  V30 8316 C 778.413 1.51408 1.7207 0
M  V30 8317 C 779.426 0.403738 1.57714 0
M  V30 8318 O 780.615 0.671384 1.65393 0
M  V30 8319 C 777.715 1.3652 3.10186 0
M  V30 8320 C 776.888 2.61428 3.50677 0
M  V30 8321 C 775.947 2.40937 4.67799 0
M  V30 8322 O 774.973 3.14602 4.74357 0
M  V30 8323 N 776.175 1.4621 5.61785 0
M  V30 8324 H 778.94 2.48333 1.67782 0
M  V30 8325 H 776.501 1.41755 0.782129 0
M  V30 8326 H 778.493 1.20606 3.86311 0
M  V30 8327 H 777.063 0.478302 3.08919 0
M  V30 8328 H 776.283 2.92381 2.644 0
M  V30 8329 H 777.571 3.44432 3.74491 0
M  V30 8330 H 776.969 0.854382 5.59211 0
M  V30 8331 H 775.526 1.36264 6.37397 0
M  V30 8332 N 778.959 -0.83999 1.33349 0
M  V30 8333 C 780.187 -1.62728 1.27778 0
M  V30 8334 C 780.602 -1.88191 -0.151505 0
M  V30 8335 O 779.959 -1.46128 -1.09329 0
M  V30 8336 C 780.01 -2.97813 2.04913 0
M  V30 8337 O 779.731 -2.73469 3.42266 0
M  V30 8338 C 781.232 -3.92245 2.0654 0
M  V30 8339 H 778.452 -0.506374 0.440257 0
M  V30 8340 H 780.996 -1.04637 1.75703 0
M  V30 8341 H 779.151 -3.52509 1.60674 0
M  V30 8342 H 779.565 -3.59483 3.81932 0
M  V30 8343 H 781.039 -4.84249 2.64966 0
M  V30 8344 H 781.516 -4.26332 1.05537 0
M  V30 8345 H 782.122 -3.43487 2.50793 0
M  V30 8346 N 780.437 -1.16799 -1.0581 0
M  V30 8347 C 781.662 -0.977402 -1.82925 0
M  V30 8348 C 782.087 0.469514 -1.82146 0
M  V30 8349 O 781.445 1.33576 -1.22585 0
M  V30 8350 C 781.493 -1.51543 -3.27211 0
M  V30 8351 O 780.597 -0.725021 -4.05977 0
M  V30 8352 H 779.938 -0.347474 -0.565825 0
M  V30 8353 H 782.468 -1.55151 -1.33376 0
M  V30 8354 H 782.478 -1.53502 -3.78023 0
M  V30 8355 H 781.153 -2.56872 -3.27093 0
M  V30 8356 H 779.73 -0.77634 -3.64729 0
M  V30 8357 N 781.915 1.24427 -0.967243 0
M  V30 8358 C 782.878 2.23637 -0.501927 0
M  V30 8359 C 783.878 1.55712 0.401283 0
M  V30 8360 O 785.068 1.73085 0.196808 0
M  V30 8361 C 782.2 3.39804 0.273176 0
M  V30 8362 H 783.393 2.66317 -1.37897 0
M  V30 8363 H 780.946 1.37033 -0.751783 0
M  V30 8364 H 781.681 3.02562 1.16733 0
M  V30 8365 H 781.466 3.90303 -0.37498 0
M  V30 8366 H 782.956 4.13443 0.587776 0
M  V30 8367 N 783.393 0.737304 1.3929 0
M  V30 8368 C 784.621 0.296573 2.04763 0
M  V30 8369 C 785.036 -1.06941 1.55592 0
M  V30 8370 O 784.393 -1.67619 0.721822 0
M  V30 8371 C 784.444 0.291906 3.6032 0
M  V30 8372 O 784.165 1.60397 4.07682 0
M  V30 8373 C 785.666 -0.164708 4.42994 0
M  V30 8374 H 782.886 0.129251 0.658434 0
M  V30 8375 H 785.43 1.0016 1.78293 0
M  V30 8376 H 783.585 -0.364251 3.85684 0
M  V30 8377 H 783.999 1.51909 5.0202 0
M  V30 8378 H 785.473 -0.116814 5.51876 0
M  V30 8379 H 785.95 -1.21022 4.22197 0
M  V30 8380 H 786.556 0.461968 4.22784 0
M  V30 8381 N 784.871 -1.49948 0.485112 0
M  V30 8382 C 786.118 -2.02396 -0.0650059 0
M  V30 8383 C 786.446 -1.36606 -1.38452 0
M  V30 8384 O 785.701 -0.485476 -1.89583 0
M  V30 8385 C 786 -3.56282 -0.282434 0
M  V30 8386 C 785.666 -4.40625 0.957106 0
M  V30 8387 C 784.328 -4.63393 1.29692 0
M  V30 8388 C 786.68 -4.89799 1.78176 0
M  V30 8389 C 784.008 -5.3258 2.4612 0
M  V30 8390 C 786.36 -5.60266 2.93743 0
M  V30 8391 C 785.024 -5.81284 3.28124 0
M  V30 8392 H 784.294 -0.740618 -0.0237873 0
M  V30 8393 H 786.941 -1.80416 0.642044 0
M  V30 8394 H 785.246 -3.76853 -1.07186 0
M  V30 8395 H 786.943 -3.94442 -0.722276 0
M  V30 8396 H 783.533 -4.23133 0.682384 0
M  V30 8397 H 787.717 -4.7205 1.53239 0
M  V30 8398 H 782.973 -5.47059 2.73014 0
M  V30 8399 H 787.147 -5.97347 3.5798 0
M  V30 8400 H 784.774 -6.34671 4.18446 0
M  V30 8401 N 786.349 -0.21828 -1.56081 0
M  V30 8402 C 787.281 0.725447 -2.17416 0
M  V30 8403 C 788.294 1.15995 -1.14233 0
M  V30 8404 O 789.483 1.09166 -1.41227 0
M  V30 8405 C 786.583 1.99401 -2.7403 0
M  V30 8406 C 785.756 1.7156 -4.02351 0
M  V30 8407 C 784.815 2.8309 -4.43561 0
M  V30 8408 O 783.841 2.51701 -5.10525 0
M  V30 8409 N 785.043 4.11972 -4.08973 0
M  V30 8410 H 787.808 0.200801 -2.99027 0
M  V30 8411 H 785.369 -0.0371514 -1.61857 0
M  V30 8412 H 787.361 2.73198 -2.98571 0
M  V30 8413 H 785.931 2.42923 -1.96742 0
M  V30 8414 H 785.151 0.814233 -3.85699 0
M  V30 8415 H 786.439 1.50385 -4.86068 0
M  V30 8416 H 785.837 4.40319 -3.55156 0
M  V30 8417 H 784.394 4.82323 -4.38415 0
M  V30 8418 N 787.827 1.57504 0.0551401 0
M  V30 8419 C 788.757 2.07864 1.06372 0
M  V30 8420 C 789.738 0.975565 1.39344 0
M  V30 8421 O 790.923 1.24929 1.48682 0
M  V30 8422 C 788.053 2.53643 2.3724 0
M  V30 8423 C 787.007 3.67978 2.18578 0
M  V30 8424 C 786.333 3.9987 3.54976 0
M  V30 8425 C 787.633 4.97405 1.59329 0
M  V30 8426 H 789.327 2.92379 0.644595 0
M  V30 8427 H 786.873 1.40654 0.308619 0
M  V30 8428 H 788.826 2.8749 3.08103 0
M  V30 8429 H 787.55 1.66177 2.81163 0
M  V30 8430 H 786.209 3.3444 1.50152 0
M  V30 8431 H 785.857 3.0951 3.965 0
M  V30 8432 H 785.557 4.76867 3.43324 0
M  V30 8433 H 787.081 4.36228 4.27244 0
M  V30 8434 H 788.495 5.29375 2.20078 0
M  V30 8435 H 786.892 5.78837 1.58327 0
M  V30 8436 H 787.962 4.81697 0.55638 0
M  V30 8437 O 789.344 -0.198462 1.60276 0
M  V30 8438 H 790.035 -0.837638 1.74652 0
M  V30 END ATOM
M  V30 BEGIN BOND
M  V30 END BOND
M  V30 END CTAB
M  END
$$$$
