drugbank_target|P22619 Methylamine dehydrogenase light chain (DB08646)
 OpenBabel12092120513D

  0  0  0     0  0            999 V3000
M  V30 BEGIN CTAB
M  V30 COUNTS 2796 2828 0 0 0
M  V30 BEGIN ATOM
M  V30 1 H -0.908 1.98254 -0.117106 0
M  V30 2 N 0 1.576 0 0
M  V30 3 C 0.933 2.03868 1.02534 0
M  V30 4 C 1.911 0.928543 1.3348 0
M  V30 5 O 3.095 1.19667 1.45644 0
M  V30 6 C 0.222 2.43627 2.35294 0
M  V30 7 C -0.732 3.65373 2.2001 0
M  V30 8 S 0.101 5.13292 1.52614 0
M  V30 9 C 1.257 5.56322 2.86805 0
M  V30 10 H 1.49 2.90518 0.631377 0
M  V30 11 H -0.977 1.52953 0.210867 0
M  V30 12 H 0.981 2.67203 3.11629 0
M  V30 13 H -0.358 1.57376 2.7183 0
M  V30 14 H -1.165 3.90944 3.18086 0
M  V30 15 H -1.563 3.418 1.51819 0
M  V30 16 H 0.729 5.58782 3.83104 0
M  V30 17 H 1.672 6.56266 2.65933 0
M  V30 18 H 2.08 4.83886 2.90714 0
M  V30 19 N 1.4781 -0.272755 1.55222 0
M  V30 20 C 2.4081 -1.34136 1.91127 0
M  V30 21 C 3.3891 -1.51513 0.773168 0
M  V30 22 O 4.5741 -1.64552 1.03132 0
M  V30 23 C 1.7041 -2.70083 2.1834 0
M  V30 24 C 0.6581 -2.67437 3.34158 0
M  V30 25 C -0.0159 -4.06938 3.46851 0
M  V30 26 C 1.2841 -2.26686 4.70543 0
M  V30 27 H 2.9781 -1.04333 2.80633 0
M  V30 28 H 0.5241 -0.500454 1.35024 0
M  V30 29 H 2.4771 -3.44952 2.42046 0
M  V30 30 H 1.2011 -3.01469 1.25634 0
M  V30 31 H -0.1399 -1.95026 3.1042 0
M  V30 32 H -0.4919 -4.35547 2.51611 0
M  V30 33 H -0.7919 -4.06062 4.2472 0
M  V30 34 H 0.7321 -4.83545 3.72849 0
M  V30 35 H 2.1461 -2.91277 4.93792 0
M  V30 36 H 0.5431 -2.36971 5.5133 0
M  V30 37 H 1.6131 -1.21818 4.69349 0
M  V30 38 N 2.9562 -1.48159 -0.537278 0
M  V30 39 C 4.2042 -1.55497 -1.29094 0
M  V30 40 C 4.5252 -0.227454 -1.93669 0
M  V30 41 O 3.7952 0.750386 -1.80959 0
M  V30 42 H 2.3752 -0.572832 -0.47945 0
M  V30 43 H 5.0372 -1.84579 -0.625818 0
M  V30 44 H 4.1332 -2.33216 -2.07405 0
M  V30 45 N 4.4343 0.785586 -1.36625 0
M  V30 46 C 5.3823 1.91978 -1.31329 0
M  V30 47 C 6.3763 1.68162 -0.204416 0
M  V30 48 O 7.5823 1.76122 -0.371645 0
M  V30 49 H 3.9573 0.631087 -0.408942 0
M  V30 50 H 5.9283 1.93562 -2.27104 0
M  V30 51 C 4.6773 3.29055 -1.12329 0
M  V30 52 H 4.0003 3.4795 -1.96903 0
M  V30 53 H 5.4403 4.08756 -1.12671 0
M  V30 54 C 3.8993 3.36461 0.171861 0
M  V30 55 O 4.4293 3.84576 1.16035 0
M  V30 56 N 2.6353 2.89782 0.217846 0
M  V30 57 H 2.1823 2.50819 -0.587183 0
M  V30 58 H 2.1403 2.95119 1.08408 0
M  V30 59 N 5.9124 1.20967 1.01018 0
M  V30 60 C 7.1594 1.02374 1.74716 0
M  V30 61 C 7.4874 -0.443375 1.89379 0
M  V30 62 O 6.7424 -1.34535 1.42123 0
M  V30 63 C 7.0414 1.65997 3.16512 0
M  V30 64 C 6.7074 3.15831 3.2181 0
M  V30 65 C 5.3694 3.56719 3.22963 0
M  V30 66 C 7.7214 4.11816 3.19464 0
M  V30 67 C 5.0494 4.92107 3.19449 0
M  V30 68 C 7.4014 5.47158 3.17491 0
M  V30 69 C 6.0654 5.87451 3.16951 0
M  V30 70 H 5.3354 0.374614 0.639332 0
M  V30 71 H 7.9824 1.50485 1.18434 0
M  V30 72 H 6.2874 1.10166 3.75993 0
M  V30 73 H 7.9844 1.49119 3.72242 0
M  V30 74 H 4.5744 2.83263 3.21652 0
M  V30 75 H 8.7584 3.81257 3.17737 0
M  V30 76 H 4.0144 5.22579 3.17366 0
M  V30 77 H 8.1884 6.21274 3.14629 0
M  V30 78 H 5.8154 6.92329 3.13983 0
M  V30 79 N 7.3905 -1.2043 1.01659 0
M  V30 80 C 8.8065 -1.41852 0.731442 0
M  V30 81 C 9.0065 -1.89358 -0.688898 0
M  V30 82 O 8.0625 -2.06247 -1.45666 0
M  V30 83 C 9.3755 -2.44019 1.75714 0
M  V30 84 C 10.9235 -2.57785 1.77527 0
M  V30 85 C 11.3985 -3.63194 2.79023 0
M  V30 86 N 12.8895 -3.70678 2.77763 0
M  V30 87 C 13.6245 -4.51897 3.52954 0
M  V30 88 N 13.1205 -5.36921 4.37821 0
M  V30 89 N 14.9135 -4.4643 3.41551 0
M  V30 90 H 7.0645 -0.879093 1.93354 0
M  V30 91 H 9.3275 -0.448425 0.835236 0
M  V30 92 H 9.0335 -2.1611 2.77469 0
M  V30 93 H 8.9075 -3.43007 1.56927 0
M  V30 94 H 11.2945 -2.85023 0.764569 0
M  V30 95 H 11.3755 -1.58992 2.00387 0
M  V30 96 H 11.0195 -3.36699 3.80258 0
M  V30 97 H 10.9495 -4.61609 2.53425 0
M  V30 98 H 13.4405 -3.09944 2.16201 0
M  V30 99 H 13.7535 -5.95981 4.91962 0
M  V30 100 H 12.0985 -5.36424 4.41899 0
M  V30 101 H 15.2895 -3.79042 2.74672 0
M  V30 102 H 15.4625 -5.09491 4.00404 0
M  V30 103 N 8.8686 -0.792821 -1.36206 0
M  V30 104 C 10.1156 -0.366786 -1.99151 0
M  V30 105 C 10.4436 1.06243 -1.62919 0
M  V30 106 O 9.6986 1.74927 -0.877442 0
M  V30 107 C 9.9976 -0.481501 -3.54142 0
M  V30 108 C 9.6636 -1.87202 -4.10203 0
M  V30 109 C 8.3256 -2.25248 -4.25226 0
M  V30 110 C 10.6776 -2.78237 -4.40719 0
M  V30 111 C 8.0056 -3.53723 -4.68078 0
M  V30 112 C 10.3576 -4.06144 -4.85005 0
M  V30 113 C 9.0216 -4.44207 -4.98234 0
M  V30 114 H 8.2916 -0.134217 -0.728743 0
M  V30 115 H 10.9386 -1.01094 -1.62641 0
M  V30 116 H 9.2436 0.246146 -3.91026 0
M  V30 117 H 10.9406 -0.132844 -4.0078 0
M  V30 118 H 7.5306 -1.56639 -3.98951 0
M  V30 119 H 11.7146 -2.50097 -4.28679 0
M  V30 120 H 6.9706 -3.8308 -4.76508 0
M  V30 121 H 11.1446 -4.76796 -5.07581 0
M  V30 122 H 8.7716 -5.43814 -5.31197 0
M  V30 123 N 10.3467 1.47872 -0.545128 0
M  V30 124 C 11.6237 1.9554 0.0485222 0
M  V30 125 C 12.0037 1.4876 1.49779 0
M  V30 126 O 11.3517 0.720925 2.16829 0
M  V30 127 C 11.5617 3.48898 -0.084417 0
M  V30 128 C 12.9097 4.24547 0.0671239 0
M  V30 129 O 13.9337 3.56198 -0.0113649 0
M  V30 130 O 12.7927 5.45999 0.233882 0
M  V30 131 H 9.8867 0.823957 0.0708773 0
M  V30 132 H 12.4327 1.58327 -0.610798 0
M  V30 133 H 11.2047 3.75714 -1.09337 0
M  V30 134 H 10.8277 3.92845 0.613066 0
M  V30 135 N 11.8248 0.280983 1.55075 0
M  V30 136 C 13.1018 -0.386207 1.91749 0
M  V30 137 C 13.4818 -1.73264 1.20594 0
M  V30 138 O 12.8298 -2.26034 0.334784 0
M  V30 139 C 13.0398 -0.520687 3.45094 0
M  V30 140 C 14.3878 -0.800865 4.16979 0
M  V30 141 O 15.4118 -0.605271 3.5102 0
M  V30 142 O 14.2708 -1.1753 5.33712 0
M  V30 143 H 11.3648 -0.212408 0.799257 0
M  V30 144 H 13.9108 0.327568 1.66509 0
M  V30 145 H 12.6828 0.426633 3.88967 0
M  V30 146 H 12.3058 -1.2837 3.76307 0
M  V30 147 N 13.3029 -1.57598 0.00835791 0
M  V30 148 C 14.2359 -2.04409 -1.01451 0
M  V30 149 C 15.2139 -0.935609 -1.32985 0
M  V30 150 O 16.3979 -1.20437 -1.45007 0
M  V30 151 C 13.5249 -2.44872 -2.33999 0
M  V30 152 C 12.5709 -3.66535 -2.18069 0
M  V30 153 S 13.4039 -5.14095 -1.4989 0
M  V30 154 C 14.5599 -5.57835 -2.8385 0
M  V30 155 H 14.7929 -2.90849 -0.615961 0
M  V30 156 H 12.3259 -1.53063 -0.202752 0
M  V30 157 H 14.2839 -2.68852 -3.10208 0
M  V30 158 H 12.9449 -1.58815 -2.70992 0
M  V30 159 H 12.1379 -3.92626 -3.16008 0
M  V30 160 H 11.7399 -3.426 -1.50004 0
M  V30 161 H 14.0319 -5.60806 -3.80136 0
M  V30 162 H 14.9749 -6.57667 -2.62449 0
M  V30 163 H 15.3829 -4.85421 -2.88144 0
M  V30 164 N 14.781 0.264519 -1.55364 0
M  V30 165 C 16.027 0.99646 -1.76631 0
M  V30 166 C 16.36 1.85632 -0.570478 0
M  V30 167 O 15.635 1.89647 0.43175 0
M  V30 168 C 15.918 1.87187 -3.07625 0
M  V30 169 C 15.771 1.04138 -4.37579 0
M  V30 170 C 17.09 2.85749 -3.34717 0
M  V30 171 H 14.209 0.360841 -0.642622 0
M  V30 172 H 16.851 0.268218 -1.88097 0
M  V30 173 H 15.001 2.49279 -2.9798 0
M  V30 174 H 16.673 0.440517 -4.59192 0
M  V30 175 H 14.916 0.345115 -4.32425 0
M  V30 176 H 15.587 1.68729 -5.2558 0
M  V30 177 H 18.063 2.33793 -3.4421 0
M  V30 178 H 16.939 3.44136 -4.27623 0
M  V30 179 H 17.2 3.61311 -2.54768 0
M  V30 180 N 16.2591 1.48442 0.529413 0
M  V30 181 C 17.1691 1.6569 1.66084 0
M  V30 182 C 18.1851 0.539432 1.65427 0
M  V30 183 O 19.3611 0.810572 1.84368 0
M  V30 184 C 16.4261 1.69315 3.02545 0
M  V30 185 C 15.4871 2.92694 3.14052 0
M  V30 186 C 14.7201 2.96137 4.44003 0
M  V30 187 O 14.9431 2.07973 5.31134 0
M  V30 188 O 13.8771 3.88312 4.59888 0
M  V30 189 H 17.7031 2.61483 1.54469 0
M  V30 190 H 15.2881 1.3185 0.702567 0
M  V30 191 H 17.1701 1.74217 3.83701 0
M  V30 192 H 15.8451 0.766966 3.14483 0
M  V30 193 H 14.7521 2.93324 2.32189 0
M  V30 194 H 16.0851 3.84699 3.0703 0
M  V30 195 N 17.7372 -0.778329 1.37039 0
M  V30 196 C 18.6842 -1.89139 1.32269 0
M  V30 197 C 19.6542 -1.65017 0.189387 0
M  V30 198 O 20.8392 -1.87024 0.377693 0
M  V30 199 C 17.9792 -3.26112 1.12894 0
M  V30 200 C 17.0922 -3.62233 2.35396 0
M  V30 201 C 16.2272 -4.8838 2.08946 0
M  V30 202 C 15.2662 -5.17212 3.2735 0
M  V30 203 N 14.4032 -6.34546 3.00492 0
M  V30 204 H 19.2432 -1.92552 2.27437 0
M  V30 205 H 16.7802 -0.941473 1.13025 0
M  V30 206 H 18.7382 -4.05116 0.996835 0
M  V30 207 H 17.3682 -3.22091 0.213758 0
M  V30 208 H 16.4202 -2.78265 2.5937 0
M  V30 209 H 17.7322 -3.79481 3.23721 0
M  V30 210 H 16.8862 -5.75274 1.92729 0
M  V30 211 H 15.6252 -4.73222 1.17949 0
M  V30 212 H 14.6302 -4.28796 3.44113 0
M  V30 213 H 15.8552 -5.34283 4.19188 0
M  V30 214 H 13.8012 -6.20759 2.12118 0
M  V30 215 H 13.7182 -6.52179 3.82358 0
M  V30 216 H 14.9862 -7.24394 2.87879 0
M  V30 217 N 19.2153 -1.21501 -1.00376 0
M  V30 218 C 20.1453 -0.999478 -2.11028 0
M  V30 219 C 21.1263 0.0759671 -1.6993 0
M  V30 220 O 22.3113 -0.0841106 -1.94018 0
M  V30 221 C 19.4413 -0.564709 -3.42678 0
M  V30 222 C 18.3953 -1.58486 -3.97576 0
M  V30 223 C 17.7213 -1.00628 -5.25146 0
M  V30 224 C 19.0213 -2.97204 -4.29496 0
M  V30 225 H 20.7153 -1.92495 -2.29317 0
M  V30 226 H 18.2613 -0.92693 -1.102 0
M  V30 227 H 20.2143 -0.401091 -4.19487 0
M  V30 228 H 18.9383 0.396411 -3.24185 0
M  V30 229 H 17.5973 -1.73606 -3.22888 0
M  V30 230 H 17.2453 -0.0368439 -5.02987 0
M  V30 231 H 16.9453 -1.68771 -5.62841 0
M  V30 232 H 18.4693 -0.854015 -6.04598 0
M  V30 233 H 19.8833 -2.8552 -4.97143 0
M  V30 234 H 18.2803 -3.62372 -4.78338 0
M  V30 235 H 19.3503 -3.47956 -3.3772 0
M  V30 236 N 20.6934 1.19889 -1.02296 0
M  V30 237 C 21.9184 1.9393 -0.735237 0
M  V30 238 C 22.3434 1.74639 0.698782 0
M  V30 239 O 21.7014 1.04481 1.48167 0
M  V30 240 C 21.7494 3.43916 -1.08417 0
M  V30 241 O 20.8534 4.11917 -0.199446 0
M  V30 242 H 20.1944 0.605645 -0.272196 0
M  V30 243 H 22.7244 1.52137 -1.36804 0
M  V30 244 H 22.7344 3.9456 -1.03856 0
M  V30 245 H 21.4094 3.5728 -2.12894 0
M  V30 246 H 19.9864 3.71666 -0.303136 0
M  V30 247 N 22.1715 0.800033 1.35784 0
M  V30 248 C 23.5875 0.482977 1.52117 0
M  V30 249 C 23.7875 -0.996948 1.75109 0
M  V30 250 O 22.8435 -1.78216 1.78872 0
M  V30 251 C 24.1565 1.32264 2.70049 0
M  V30 252 C 25.7045 1.31742 2.83924 0
M  V30 253 C 26.1795 2.14106 4.04874 0
M  V30 254 N 27.6705 2.11607 4.12039 0
M  V30 255 C 28.4055 2.72099 5.04727 0
M  V30 256 N 27.9015 3.41492 6.02789 0
M  V30 257 N 29.6945 2.61776 4.97423 0
M  V30 258 H 21.8455 1.75856 1.19115 0
M  V30 259 H 24.1085 0.748122 0.582252 0
M  V30 260 H 23.8145 2.37261 2.59616 0
M  V30 261 H 23.6885 0.971303 3.6448 0
M  V30 262 H 26.0755 0.275333 2.93813 0
M  V30 263 H 26.1565 1.70859 1.9037 0
M  V30 264 H 25.8005 3.18351 3.95746 0
M  V30 265 H 25.7305 1.72353 4.97596 0
M  V30 266 H 28.2215 1.61112 3.41835 0
M  V30 267 H 28.5345 3.84953 6.70098 0
M  V30 268 H 26.8795 3.45596 6.02983 0
M  V30 269 H 30.0705 2.07157 4.19766 0
M  V30 270 H 30.2435 3.0921 5.69468 0
M  V30 271 N 23.6496 -1.47581 0.552962 0
M  V30 272 C 25.0656 -1.5818 0.212424 0
M  V30 273 C 25.2656 -1.55213 -1.28496 0
M  V30 274 O 24.3216 -1.45329 -2.06484 0
M  V30 275 C 25.6346 -2.88865 0.835318 0
M  V30 276 C 27.1826 -3.0244 0.806156 0
M  V30 277 C 27.6576 -4.35819 1.40804 0
M  V30 278 N 29.1486 -4.42444 1.37103 0
M  V30 279 C 29.8836 -5.44202 1.80641 0
M  V30 280 N 29.3796 -6.52795 2.32015 0
M  V30 281 N 31.1726 -5.35222 1.71738 0
M  V30 282 H 23.3236 -1.47753 1.52587 0
M  V30 283 H 25.5866 -0.702941 0.636064 0
M  V30 284 H 25.2926 -2.9676 1.88749 0
M  V30 285 H 25.1666 -3.7579 0.325848 0
M  V30 286 H 27.5536 -2.94144 -0.237317 0
M  V30 287 H 27.6346 -2.17068 1.35334 0
M  V30 288 H 27.2786 -4.44871 2.45056 0
M  V30 289 H 27.2086 -5.19916 0.836338 0
M  V30 290 H 29.6996 -3.6456 0.995202 0
M  V30 291 H 30.0126 -7.26609 2.63171 0
M  V30 292 H 28.3576 -6.53696 2.36023 0
M  V30 293 H 31.5486 -4.49284 1.31382 0
M  V30 294 H 31.7216 -6.14389 2.05987 0
M  V30 295 N 25.1277 -0.289203 -1.54924 0
M  V30 296 C 26.3737 0.323998 -2.00195 0
M  V30 297 C 26.7067 1.54441 -1.17735 0
M  V30 298 O 25.9817 1.92875 -0.250878 0
M  V30 299 C 26.2647 0.692276 -3.53383 0
M  V30 300 C 26.1177 -0.536457 -4.46589 0
M  V30 301 C 27.4367 1.52335 -4.12895 0
M  V30 302 H 24.5557 0.116289 -0.727768 0
M  V30 303 H 27.1977 -0.398954 -1.85764 0
M  V30 304 H 25.3477 1.30822 -3.65811 0
M  V30 305 H 27.0197 -1.17499 -4.46085 0
M  V30 306 H 25.2627 -1.17192 -4.1767 0
M  V30 307 H 25.9337 -0.234806 -5.515 0
M  V30 308 H 28.4097 1.00302 -4.0383 0
M  V30 309 H 27.2857 1.74982 -5.20262 0
M  V30 310 H 27.5467 2.50886 -3.64018 0
M  V30 311 N 26.6058 1.57591 -0.0167156 0
M  V30 312 C 27.5688 2.08393 0.954204 0
M  V30 313 C 28.5688 0.996531 1.26198 0
M  V30 314 O 29.7588 1.25858 1.20438 0
M  V30 315 C 26.8908 2.5394 2.27436 0
M  V30 316 H 28.0838 2.95455 0.514451 0
M  V30 317 H 25.6368 1.54582 0.231089 0
M  V30 318 H 26.3718 1.70171 2.76066 0
M  V30 319 H 26.1568 3.33371 2.06412 0
M  V30 320 H 27.6468 2.93512 2.97053 0
M  V30 321 N 28.0839 -0.256276 1.55502 0
M  V30 322 C 29.3319 -0.983672 1.76545 0
M  V30 323 C 29.6529 -1.86206 0.578982 0
M  V30 324 O 28.9229 -1.91656 -0.405577 0
M  V30 325 H 27.5029 -0.366191 0.651086 0
M  V30 326 H 30.1649 -0.276479 1.92929 0
M  V30 327 H 29.2609 -1.61087 2.67315 0
M  V30 328 N 29.562 -1.4872 -0.521534 0
M  V30 329 C 30.494 -1.59968 -1.64143 0
M  V30 330 C 31.507 -0.483463 -1.55456 0
M  V30 331 O 32.696 -0.75467 -1.61762 0
M  V30 332 C 29.796 -1.52127 -3.02838 0
M  V30 333 C 28.969 -2.78932 -3.36921 0
M  V30 334 C 28.028 -2.64428 -4.54933 0
M  V30 335 O 27.054 -3.38331 -4.57735 0
M  V30 336 N 28.256 -1.74606 -5.53618 0
M  V30 337 H 31.021 -2.56548 -1.54929 0
M  V30 338 H 28.582 -1.45551 -0.708988 0
M  V30 339 H 30.574 -1.40106 -3.79674 0
M  V30 340 H 29.144 -0.634868 -3.06085 0
M  V30 341 H 28.364 -3.05455 -2.4918 0
M  V30 342 H 29.652 -3.63041 -3.56481 0
M  V30 343 H 29.05 -1.13782 -5.54139 0
M  V30 344 H 27.607 -1.6852 -6.29638 0
M  V30 345 N 31.0401 0.771051 -1.3745 0
M  V30 346 C 32.2681 1.56015 -1.35893 0
M  V30 347 C 32.6831 1.88718 0.0555523 0
M  V30 348 O 32.0401 1.51502 1.01752 0
M  V30 349 C 32.0911 2.87001 -2.19801 0
M  V30 350 O 31.8121 2.557 -3.55738 0
M  V30 351 C 33.3131 3.81228 -2.26231 0
M  V30 352 H 30.5331 0.483317 -0.465453 0
M  V30 353 H 33.0771 0.955611 -1.80799 0
M  V30 354 H 31.2321 3.43877 -1.78402 0
M  V30 355 H 31.6461 3.39584 -3.99729 0
M  V30 356 H 33.1201 4.70139 -2.89263 0
M  V30 357 H 33.5971 4.20409 -1.27093 0
M  V30 358 H 34.2031 3.30281 -2.67945 0
M  V30 359 N 32.5182 1.22032 0.997298 0
M  V30 360 C 33.7432 1.06921 1.77715 0
M  V30 361 C 34.1682 -0.376226 1.84299 0
M  V30 362 O 33.5262 -1.27165 1.29223 0
M  V30 363 C 33.5742 1.67996 3.19076 0
M  V30 364 O 32.6782 0.930653 4.01762 0
M  V30 365 H 32.0192 0.375814 0.547412 0
M  V30 366 H 34.5492 1.61737 1.25309 0
M  V30 367 H 34.5592 1.72538 3.69723 0
M  V30 368 H 33.2342 2.73182 3.13599 0
M  V30 369 H 31.8112 0.960917 3.60307 0
M  V30 370 N 33.9963 -1.19345 1.0293 0
M  V30 371 C 35.4123 -1.41069 0.746446 0
M  V30 372 C 35.6123 -1.90078 -0.668776 0
M  V30 373 O 34.6683 -2.0778 -1.4347 0
M  V30 374 C 35.9813 -2.42141 1.78292 0
M  V30 375 C 37.5293 -2.55887 1.80252 0
M  V30 376 C 38.0043 -3.60214 2.8286 0
M  V30 377 N 39.4953 -3.67711 2.81679 0
M  V30 378 C 40.2303 -4.48128 3.57727 0
M  V30 379 N 39.7263 -5.32248 4.43491 0
M  V30 380 N 41.5193 -4.42782 3.46267 0
M  V30 381 H 33.6703 -0.858536 1.94275 0
M  V30 382 H 35.9333 -0.439541 0.839945 0
M  V30 383 H 35.6393 -2.13155 2.79746 0
M  V30 384 H 35.5133 -3.41323 1.60557 0
M  V30 385 H 37.9003 -2.84196 0.794757 0
M  V30 386 H 37.9813 -1.56858 2.02062 0
M  V30 387 H 37.6253 -3.32647 3.83807 0
M  V30 388 H 37.5553 -4.58895 2.58307 0
M  V30 389 H 40.0463 -3.07634 2.19476 0
M  V30 390 H 40.3593 -5.90729 4.98256 0
M  V30 391 H 38.7043 -5.31707 4.47564 0
M  V30 392 H 41.8953 -3.76107 2.78677 0
M  V30 393 H 42.0683 -5.05215 4.05785 0
M  V30 394 N 35.4744 -0.807222 -1.35358 0
M  V30 395 C 36.8904 -0.491038 -1.51858 0
M  V30 396 C 37.0904 0.987648 -1.75635 0
M  V30 397 O 36.1464 1.77265 -1.79815 0
M  V30 398 C 37.4594 -1.33695 -2.69344 0
M  V30 399 C 39.0074 -1.33246 -2.83222 0
M  V30 400 C 39.4824 -2.1625 -4.03733 0
M  V30 401 N 40.9734 -2.1379 -4.10911 0
M  V30 402 C 41.7084 -2.74772 -5.03277 0
M  V30 403 N 41.2044 -3.44684 -6.0097 0
M  V30 404 N 42.9974 -2.6441 -4.96028 0
M  V30 405 H 35.1484 -1.76485 -1.18181 0
M  V30 406 H 37.4114 -0.751199 -0.578276 0
M  V30 407 H 37.1174 -2.38634 -2.58354 0
M  V30 408 H 36.9914 -0.990618 -3.6396 0
M  V30 409 H 39.3784 -0.290911 -2.93663 0
M  V30 410 H 39.4594 -1.71866 -1.89461 0
M  V30 411 H 39.1034 -3.20445 -3.94052 0
M  V30 412 H 39.0334 -1.74989 -4.96675 0
M  V30 413 H 41.5244 -1.62923 -3.40976 0
M  V30 414 H 41.8374 -3.88501 -6.68047 0
M  V30 415 H 40.1824 -3.48788 -6.01142 0
M  V30 416 H 43.3734 -2.0938 -4.18662 0
M  V30 417 H 43.5464 -3.12225 -5.6782 0
M  V30 418 N 36.9525 1.47285 -0.560781 0
M  V30 419 C 38.1775 2.07359 -0.0410566 0
M  V30 420 C 38.6025 1.41017 1.24483 0
M  V30 421 O 37.9605 0.486368 1.74654 0
M  V30 422 C 38.0085 3.6035 0.134123 0
M  V30 423 O 37.1125 3.94681 1.19587 0
M  V30 424 H 36.4535 0.661887 -0.0529291 0
M  V30 425 H 38.9835 1.89252 -0.777482 0
M  V30 426 H 38.9935 4.0652 0.347207 0
M  V30 427 H 37.6685 4.08034 -0.805047 0
M  V30 428 H 36.2455 3.60251 0.962987 0
M  V30 429 N 38.4306 0.297415 1.54768 0
M  V30 430 C 39.6766 -0.313376 2.00364 0
M  V30 431 C 40.0096 -1.53815 1.18553 0
M  V30 432 O 39.2846 -1.92739 0.261103 0
M  V30 433 C 39.5676 -0.673525 3.53745 0
M  V30 434 C 39.4206 0.560133 4.46299 0
M  V30 435 C 40.7396 -1.50143 4.13697 0
M  V30 436 H 37.8586 -0.112428 0.728374 0
M  V30 437 H 40.5006 0.4088 1.8555 0
M  V30 438 H 38.6506 -1.28881 3.665 0
M  V30 439 H 40.3226 1.19863 4.45455 0
M  V30 440 H 38.5656 1.19405 4.17043 0
M  V30 441 H 39.2366 0.26405 5.51368 0
M  V30 442 H 41.7126 -0.981588 4.04356 0
M  V30 443 H 40.5886 -1.72221 5.21182 0
M  V30 444 H 40.8496 -2.48952 3.65343 0
M  V30 445 N 39.9087 -1.5758 0.0250728 0
M  V30 446 C 41.1577 -1.90811 -0.653767 0
M  V30 447 C 41.4707 -0.90273 -1.73523 0
M  V30 448 O 42.6767 -1.12614 -2.47043 0
M  V30 449 C 41.1327 -3.38804 -1.21409 0
M  V30 450 C 40.7407 -4.47692 -0.166126 0
M  V30 451 C 42.4847 -3.81108 -1.86967 0
M  V30 452 C 40.3917 -5.86779 -0.737856 0
M  V30 453 H 39.3217 -0.712063 -0.247956 0
M  V30 454 H 41.9727 -1.83281 0.0897137 0
M  V30 455 H 40.3547 -3.41252 -2.00905 0
M  V30 456 H 41.5287 -4.56797 0.606079 0
M  V30 457 H 39.8437 -4.14565 0.390466 0
M  V30 458 H 42.4407 -4.82375 -2.30692 0
M  V30 459 H 42.7837 -3.15953 -2.71071 0
M  V30 460 H 43.3167 -3.81065 -1.14167 0
M  V30 461 H 40.0557 -6.55468 0.0649577 0
M  V30 462 H 39.5757 -5.81288 -1.47864 0
M  V30 463 H 41.2547 -6.35223 -1.22884 0
M  V30 464 N 41.3868 0.248026 -1.55636 0
M  V30 465 C 42.6348 0.974295 -1.77065 0
M  V30 466 C 42.9558 1.85897 -0.588849 0
M  V30 467 O 42.2258 1.91868 0.395407 0
M  V30 468 H 40.8058 0.362733 -0.653019 0
M  V30 469 H 43.4678 0.266244 -1.93073 0
M  V30 470 H 42.5638 1.59667 -2.68166 0
M  V30 471 N 42.8649 1.48995 0.513639 0
M  V30 472 C 43.8119 1.6473 1.61656 0
M  V30 473 C 44.7819 0.488984 1.58739 0
M  V30 474 O 45.9669 0.714478 1.76918 0
M  V30 475 C 43.1069 1.7082 2.99858 0
M  V30 476 C 42.2199 2.9787 3.12885 0
M  V30 477 C 41.3549 2.95017 4.41744 0
M  V30 478 C 40.3939 4.16702 4.48359 0
M  V30 479 N 39.5309 4.11832 5.68629 0
M  V30 480 H 44.3709 2.58909 1.47547 0
M  V30 481 H 41.9079 1.28382 0.71808 0
M  V30 482 H 43.8659 1.72331 3.79944 0
M  V30 483 H 42.4959 0.801181 3.12699 0
M  V30 484 H 41.5479 3.06029 2.25944 0
M  V30 485 H 42.8599 3.8786 3.13633 0
M  V30 486 H 42.0139 2.95021 5.30139 0
M  V30 487 H 40.7529 2.02784 4.43542 0
M  V30 488 H 39.7579 4.16955 3.58369 0
M  V30 489 H 40.9829 5.10113 4.48287 0
M  V30 490 H 38.9289 3.22428 5.71293 0
M  V30 491 H 38.8459 4.95543 5.7094 0
M  V30 492 H 40.1139 4.1592 6.59266 0
M  V30 493 N 44.343 -0.763751 1.37857 0
M  V30 494 C 45.273 -1.89103 1.36975 0
M  V30 495 C 46.254 -1.68439 0.237152 0
M  V30 496 O 47.439 -1.8918 0.438713 0
M  V30 497 C 44.569 -3.26496 1.18395 0
M  V30 498 C 43.523 -3.61741 2.28751 0
M  V30 499 C 42.849 -4.97762 1.95286 0
M  V30 500 C 44.149 -3.67665 3.70972 0
M  V30 501 H 45.843 -1.90099 2.31307 0
M  V30 502 H 43.389 -0.91319 1.11341 0
M  V30 503 H 45.342 -4.05003 1.16406 0
M  V30 504 H 44.066 -3.25955 0.205215 0
M  V30 505 H 42.725 -2.85547 2.29909 0
M  V30 506 H 42.373 -4.93769 0.959221 0
M  V30 507 H 42.073 -5.22313 2.69189 0
M  V30 508 H 43.597 -5.7866 1.94898 0
M  V30 509 H 45.011 -4.36307 3.719 0
M  V30 510 H 43.408 -4.03718 4.43995 0
M  V30 511 H 44.478 -2.68134 4.0402 0
M  V30 512 N 45.8211 -1.22559 -0.990812 0
M  V30 513 C 47.0691 -1.04933 -1.72724 0
M  V30 514 C 47.3901 0.416158 -1.90508 0
M  V30 515 O 46.6601 1.29918 -1.46622 0
M  V30 516 H 45.2401 -0.385296 -0.639965 0
M  V30 517 H 47.9021 -1.54105 -1.19322 0
M  V30 518 H 46.9981 -1.52886 -2.72089 0
M  V30 519 N 47.2992 1.18797 -1.03562 0
M  V30 520 C 48.5272 1.92599 -0.755869 0
M  V30 521 C 48.9422 1.75886 0.686271 0
M  V30 522 O 48.2992 1.08517 1.46732 0
M  V30 523 C 48.3502 3.44159 -1.10619 0
M  V30 524 O 48.0712 3.60341 -2.4917 0
M  V30 525 C 49.5722 4.3507 -0.850214 0
M  V30 526 H 46.7922 0.611587 -0.276048 0
M  V30 527 H 49.3362 1.50742 -1.38192 0
M  V30 528 H 47.4912 3.83823 -0.525194 0
M  V30 529 H 47.9052 4.54128 -2.62427 0
M  V30 530 H 49.3792 5.39989 -1.14523 0
M  V30 531 H 49.8562 4.38673 0.215176 0
M  V30 532 H 50.4622 4.01097 -1.41426 0
M  V30 533 N 48.7773 0.814389 1.34928 0
M  V30 534 C 49.7403 0.235759 2.27984 0
M  V30 535 C 50.7403 -0.581412 1.49921 0
M  V30 536 O 51.9303 -0.398758 1.69575 0
M  V30 537 C 49.0623 -0.670433 3.34242 0
M  V30 538 H 50.2553 1.05659 2.80671 0
M  V30 539 H 47.8083 0.585614 1.44915 0
M  V30 540 H 48.5433 -1.51466 2.86755 0
M  V30 541 H 48.3283 -0.0860822 3.92005 0
M  V30 542 H 49.8183 -1.06935 4.03676 0
M  V30 543 N 50.2554 -1.46986 0.568584 0
M  V30 544 C 51.1884 -2.27129 -0.220779 0
M  V30 545 C 52.1664 -1.34757 -0.909905 0
M  V30 546 O 53.3504 -1.64152 -0.926622 0
M  V30 547 C 50.4774 -3.12108 -1.31553 0
M  V30 548 C 49.5234 -4.20141 -0.733748 0
M  V30 549 S 50.3564 -5.33783 0.428479 0
M  V30 550 C 51.5124 -6.22327 -0.667811 0
M  V30 551 H 51.7454 -2.93731 0.459267 0
M  V30 552 H 49.2784 -1.5026 0.355154 0
M  V30 553 H 51.2364 -3.61636 -1.94241 0
M  V30 554 H 49.8974 -2.44847 -1.96746 0
M  V30 555 H 49.0904 -4.79373 -1.5562 0
M  V30 556 H 48.6924 -3.73553 -0.182812 0
M  V30 557 H 50.9844 -6.59364 -1.55708 0
M  V30 558 H 51.9274 -7.0801 -0.11258 0
M  V30 559 H 52.3354 -5.5618 -0.965601 0
M  V30 560 N 51.7335 -0.305618 -1.54608 0
M  V30 561 C 52.6635 0.561482 -2.26649 0
M  V30 562 C 53.6445 1.13415 -1.26772 0
M  V30 563 O 54.8295 1.16262 -1.55553 0
M  V30 564 C 51.9595 1.73122 -3.01075 0
M  V30 565 C 50.9135 1.2887 -4.08138 0
M  V30 566 C 50.2395 2.54396 -4.70305 0
M  V30 567 C 51.5395 0.416578 -5.20636 0
M  V30 568 H 53.2335 -0.0393902 -2.99374 0
M  V30 569 H 50.7795 -0.020385 -1.43986 0
M  V30 570 H 52.7325 2.34396 -3.50195 0
M  V30 571 H 51.4565 2.3584 -2.25936 0
M  V30 572 H 50.1155 0.698991 -3.59875 0
M  V30 573 H 49.7635 3.15439 -3.918 0
M  V30 574 H 49.4635 2.25486 -5.42614 0
M  V30 575 H 50.9875 3.16464 -5.2219 0
M  V30 576 H 52.4015 0.935116 -5.65622 0
M  V30 577 H 50.7985 0.221046 -5.99693 0
M  V30 578 H 51.8685 -0.557162 -4.81688 0
M  V30 579 N 53.2116 1.57565 -0.0334293 0
M  V30 580 C 54.4596 1.91598 0.642999 0
M  V30 581 C 54.7806 0.910847 1.7242 0
M  V30 582 O 54.0506 -0.0469931 1.95844 0
M  V30 583 H 52.6306 0.707228 0.240496 0
M  V30 584 H 55.2926 1.94726 -0.0822488 0
M  V30 585 H 54.3886 2.92336 1.09298 0
M  V30 586 N 54.6897 -0.239769 1.55765 0
M  V30 587 C 55.9387 -0.964754 1.77131 0
M  V30 588 C 56.2517 -1.86213 0.59868 0
M  V30 589 O 57.4577 -2.6244 0.695522 0
M  V30 590 C 55.9137 -1.76552 3.1362 0
M  V30 591 C 55.5217 -0.915185 4.38553 0
M  V30 592 C 57.2657 -2.48281 3.44321 0
M  V30 593 C 55.1727 -1.71225 5.66071 0
M  V30 594 H 54.1027 -0.363953 0.660344 0
M  V30 595 H 56.7537 -0.219181 1.82186 0
M  V30 596 H 55.1357 -2.55331 3.02691 0
M  V30 597 H 56.3097 -0.169217 4.60489 0
M  V30 598 H 54.6247 -0.310889 4.15238 0
M  V30 599 H 57.2217 -3.08382 4.36812 0
M  V30 600 H 57.5647 -3.20256 2.65973 0
M  V30 601 H 58.0977 -1.76507 3.56497 0
M  V30 602 H 54.8367 -1.03612 6.4726 0
M  V30 603 H 54.3567 -2.43331 5.48224 0
M  V30 604 H 56.0357 -2.27758 6.05587 0
M  V30 605 N 56.1678 -1.49265 -0.50573 0
M  V30 606 C 57.4158 -1.582 -1.25766 0
M  V30 607 C 57.7368 -0.268482 -1.93143 0
M  V30 608 O 57.0068 0.711833 -1.8251 0
M  V30 609 H 55.5868 -0.582873 -0.467191 0
M  V30 610 H 58.2488 -1.85865 -0.586525 0
M  V30 611 H 57.3448 -2.37563 -2.02412 0
M  V30 612 N 57.6459 0.756429 -1.3826 0
M  V30 613 C 58.5759 1.88374 -1.37976 0
M  V30 614 C 59.5569 1.68311 -0.246082 0
M  V30 615 O 60.7419 1.88944 -0.44874 0
M  V30 616 C 57.8719 3.25864 -1.20125 0
M  V30 617 C 56.8259 3.60523 -2.30666 0
M  V30 618 C 56.1519 4.9672 -1.97923 0
M  V30 619 C 57.4519 3.65692 -3.72916 0
M  V30 620 H 59.1459 1.88869 -2.32312 0
M  V30 621 H 56.6919 0.907272 -1.11824 0
M  V30 622 H 58.6449 4.0438 -1.18552 0
M  V30 623 H 57.3689 3.25841 -0.222498 0
M  V30 624 H 56.0279 2.84324 -2.3142 0
M  V30 625 H 55.6759 4.93253 -0.985393 0
M  V30 626 H 55.3759 5.20878 -2.71955 0
M  V30 627 H 56.8999 5.77618 -1.97964 0
M  V30 628 H 58.3139 4.34328 -3.74208 0
M  V30 629 H 56.7109 4.01358 -4.4613 0
M  V30 630 H 57.7809 2.65987 -4.05436 0
M  V30 631 N 59.124 1.23083 0.984299 0
M  V30 632 C 60.37 1.06214 1.72761 0
M  V30 633 C 60.703 -0.400584 1.90024 0
M  V30 634 O 59.978 -1.29672 1.44967 0
M  V30 635 C 60.261 1.78375 3.12817 0
M  V30 636 C 60.114 3.32296 3.03149 0
M  V30 637 C 61.433 1.54309 4.12161 0
M  V30 638 H 58.552 0.387251 0.627061 0
M  V30 639 H 61.194 1.51536 1.14616 0
M  V30 640 H 59.344 1.39848 3.62457 0
M  V30 641 H 61.016 3.8032 2.61064 0
M  V30 642 H 59.259 3.6153 2.39747 0
M  V30 643 H 59.93 3.77972 4.02295 0
M  V30 644 H 62.406 1.87791 3.71314 0
M  V30 645 H 61.282 2.07281 5.08258 0
M  V30 646 H 61.543 0.477572 4.39513 0
M  V30 647 N 60.6021 -1.18246 1.0419 0
M  V30 648 C 62.0131 -1.69914 0.773698 0
M  V30 649 C 62.3641 -1.83085 -0.705297 0
M  V30 650 O 61.4891 -1.51123 -1.5489 0
M  V30 651 C 62.0841 -3.08619 1.39784 0
M  V30 652 C 60.6431 -3.57494 1.17792 0
M  V30 653 C 59.7901 -2.34013 1.48773 0
M  V30 654 H 62.7411 -1.02904 1.20816 0
M  V30 655 H 62.7621 -3.71958 0.801714 0
M  V30 656 H 62.2741 -2.99001 2.47426 0
M  V30 657 H 60.3751 -3.72406 0.120295 0
M  V30 658 H 60.4881 -4.40852 1.87581 0
M  V30 659 H 58.8521 -2.37986 0.907463 0
M  V30 660 H 59.6351 -2.27013 2.57527 0
M  V30 661 N 62.0802 -0.821533 -1.34494 0
M  V30 662 C 63.0102 -0.257138 -2.3208 0
M  V30 663 C 63.9912 0.625645 -1.58176 0
M  V30 664 O 65.1762 0.552811 -1.86166 0
M  V30 665 C 62.3062 0.582958 -3.42372 0
M  V30 666 C 61.2602 -0.202571 -4.2752 0
M  V30 667 C 60.5862 0.760179 -5.29269 0
M  V30 668 C 61.8862 -1.40998 -5.02908 0
M  V30 669 H 63.5802 -1.07247 -2.79532 0
M  V30 670 H 61.1262 -0.517163 -1.34393 0
M  V30 671 H 63.0792 0.987972 -4.09655 0
M  V30 672 H 61.8032 1.43133 -2.93565 0
M  V30 673 H 60.4622 -0.588936 -3.61838 0
M  V30 674 H 60.1102 1.60447 -4.76724 0
M  V30 675 H 59.8102 0.238809 -5.87115 0
M  V30 676 H 61.3342 1.16308 -5.9942 0
M  V30 677 H 62.7482 -1.07905 -5.63054 0
M  V30 678 H 61.1452 -1.86689 -5.70322 0
M  V30 679 H 62.2152 -2.1889 -4.32684 0
M  V30 680 N 63.5583 1.46682 -0.576371 0
M  V30 681 C 64.4883 2.33028 0.148397 0
M  V30 682 C 65.4693 1.44961 0.889956 0
M  V30 683 O 66.6543 1.73789 0.866662 0
M  V30 684 C 63.7843 3.27117 1.1667 0
M  V30 685 C 62.7383 4.24575 0.540386 0
M  V30 686 C 62.0643 5.08126 1.6647 0
M  V30 687 C 63.3643 5.19722 -0.518331 0
M  V30 688 H 65.0583 2.93875 -0.572509 0
M  V30 689 H 62.6043 1.41315 -0.276768 0
M  V30 690 H 64.5573 3.86374 1.68204 0
M  V30 691 H 63.2813 2.64364 1.9178 0
M  V30 692 H 61.9403 3.66571 0.0461769 0
M  V30 693 H 61.5883 4.41762 2.40531 0
M  V30 694 H 61.2883 5.74122 1.25131 0
M  V30 695 H 62.8123 5.70246 2.18293 0
M  V30 696 H 64.2263 5.73232 -0.0883058 0
M  V30 697 H 62.6233 5.94026 -0.851679 0
M  V30 698 H 63.6933 4.64037 -1.40703 0
M  V30 699 N 65.0364 0.313813 1.54444 0
M  V30 700 C 66.4474 -0.176243 1.85866 0
M  V30 701 C 66.7984 -1.52405 1.23561 0
M  V30 702 O 65.9234 -2.09605 0.538016 0
M  V30 703 C 66.5184 -0.32657 3.37222 0
M  V30 704 C 65.0774 -0.760846 3.6863 0
M  V30 705 C 64.2244 0.123247 2.77026 0
M  V30 706 H 67.1754 0.534418 1.49431 0
M  V30 707 H 67.1964 -1.15908 3.62416 0
M  V30 708 H 66.7084 0.654531 3.82541 0
M  V30 709 H 64.8094 -1.75204 3.28838 0
M  V30 710 H 64.9224 -0.571353 4.75681 0
M  V30 711 H 63.2864 -0.399597 2.51546 0
M  V30 712 H 64.0694 1.10094 3.25168 0
M  V30 713 N 66.5145 -1.57545 0.0417849 0
M  V30 714 C 67.7605 -1.92601 -0.635021 0
M  V30 715 C 68.0935 -0.919627 -1.71045 0
M  V30 716 O 67.3685 0.0557892 -1.9442 0
M  V30 717 C 67.6515 -3.38085 -1.23979 0
M  V30 718 C 67.5045 -4.49467 -0.173057 0
M  V30 719 C 68.8235 -3.83776 -2.15416 0
M  V30 720 H 65.9425 -0.700397 -0.229374 0
M  V30 721 H 68.5845 -1.89728 0.101633 0
M  V30 722 H 66.7345 -3.40664 -1.86762 0
M  V30 723 H 68.4065 -4.59018 0.458312 0
M  V30 724 H 66.6495 -4.30909 0.499996 0
M  V30 725 H 67.3205 -5.48323 -0.636054 0
M  V30 726 H 69.7965 -3.83013 -1.62605 0
M  V30 727 H 68.6725 -4.8624 -2.54679 0
M  V30 728 H 68.9335 -3.19998 -3.05047 0
M  V30 729 N 67.9926 0.231505 -1.5589 0
M  V30 730 C 69.2696 0.981096 -1.69215 0
M  V30 731 C 69.6496 2.02799 -0.586164 0
M  V30 732 O 68.9976 2.24823 0.408253 0
M  V30 733 C 69.2076 1.60054 -3.10135 0
M  V30 734 C 70.5556 2.09658 -3.69227 0
M  V30 735 O 71.5796 1.69967 -3.13033 0
M  V30 736 O 70.4386 2.8258 -4.67772 0
M  V30 737 H 67.5326 0.457653 -0.688827 0
M  V30 738 H 70.0786 0.224073 -1.68214 0
M  V30 739 H 68.8506 0.844105 -3.82087 0
M  V30 740 H 68.4736 2.42336 -3.15212 0
M  V30 741 N 69.4707 1.49531 0.497807 0
M  V30 742 C 70.8867 1.36365 0.829266 0
M  V30 743 C 71.0867 0.399184 1.97506 0
M  V30 744 O 70.1427 -0.167977 2.51941 0
M  V30 745 C 71.4557 2.77153 1.16647 0
M  V30 746 C 73.0037 2.85877 1.27449 0
M  V30 747 C 73.4787 4.2744 1.64497 0
M  V30 748 N 74.9697 4.30265 1.7154 0
M  V30 749 C 75.7047 5.3677 2.01656 0
M  V30 750 N 75.2007 6.53516 2.29976 0
M  V30 751 N 76.9937 5.24189 2.02934 0
M  V30 752 H 69.1447 2.10831 -0.257703 0
M  V30 753 H 71.4077 0.946534 -0.0527091 0
M  V30 754 H 71.1137 3.49442 0.397872 0
M  V30 755 H 70.9877 3.12722 2.10915 0
M  V30 756 H 73.3747 2.13824 2.0338 0
M  V30 757 H 73.4557 2.53887 0.312244 0
M  V30 758 H 73.0997 5.00021 0.891151 0
M  V30 759 H 73.0297 4.56896 2.61827 0
M  V30 760 H 75.5207 3.4607 1.51802 0
M  V30 761 H 75.8337 7.30506 2.52153 0
M  V30 762 H 74.1787 6.56737 2.27425 0
M  V30 763 H 77.3697 4.31988 1.80289 0
M  V30 764 H 77.5427 6.07286 2.26071 0
M  V30 765 N 70.9488 -0.749086 1.3866 0
M  V30 766 C 72.3648 -1.05276 1.19955 0
M  V30 767 C 72.5648 -2.01435 0.05134 0
M  V30 768 O 71.6208 -2.45232 -0.60147 0
M  V30 769 C 72.9338 -1.62853 2.52783 0
M  V30 770 C 74.4818 -1.75002 2.59506 0
M  V30 771 C 74.9568 -2.35991 3.92521 0
M  V30 772 N 76.4478 -2.43416 3.94085 0
M  V30 773 C 77.1828 -2.91511 4.9377 0
M  V30 774 N 76.6788 -3.39608 6.03853 0
M  V30 775 N 78.4718 -2.90592 4.81157 0
M  V30 776 H 70.6228 -0.111066 2.12109 0
M  V30 777 H 72.8858 -0.111901 0.941373 0
M  V30 778 H 72.5918 -0.99664 3.37283 0
M  V30 779 H 72.4658 -2.61854 2.715 0
M  V30 780 H 74.8528 -2.37317 1.75398 0
M  V30 781 H 74.9338 -0.74693 2.44652 0
M  V30 782 H 74.5778 -1.74308 4.77053 0
M  V30 783 H 74.5078 -3.3695 4.04688 0
M  V30 784 H 76.9988 -2.09405 3.14576 0
M  V30 785 H 77.3118 -3.74775 6.75843 0
M  V30 786 H 75.6568 -3.37653 6.07466 0
M  V30 787 H 78.8478 -2.52332 3.94267 0
M  V30 788 H 79.0208 -3.27762 5.58996 0
M  V30 789 N 72.4269 -1.23603 -0.977757 0
M  V30 790 C 73.6749 -1.06759 -1.71601 0
M  V30 791 C 73.9959 0.395929 -1.90938 0
M  V30 792 O 73.2659 1.28356 -1.47992 0
M  V30 793 H 71.8459 -0.392062 -0.635843 0
M  V30 794 H 74.5079 -1.55362 -1.1768 0
M  V30 795 H 73.6039 -1.55763 -2.70452 0
M  V30 796 N 73.905 1.17692 -1.04816 0
M  V30 797 C 75.321 1.39863 -0.768794 0
M  V30 798 C 75.521 1.91118 0.638451 0
M  V30 799 O 74.577 2.10036 1.40146 0
M  V30 800 C 75.89 2.39274 -1.82122 0
M  V30 801 C 77.438 2.52987 -1.843 0
M  V30 802 C 77.913 3.55669 -2.88555 0
M  V30 803 N 79.404 3.63183 -2.87493 0
M  V30 804 C 80.139 4.42381 -3.64811 0
M  V30 805 N 79.635 5.25125 -4.51903 0
M  V30 806 N 81.428 4.37217 -3.53267 0
M  V30 807 H 73.579 0.82752 -1.95617 0
M  V30 808 H 75.842 0.426123 -0.846831 0
M  V30 809 H 75.548 2.08678 -2.83102 0
M  V30 810 H 75.422 3.38725 -1.65967 0
M  V30 811 H 77.809 2.82896 -0.839869 0
M  V30 812 H 77.89 1.53623 -2.04532 0
M  V30 813 H 77.534 3.26499 -3.89051 0
M  V30 814 H 77.464 4.54728 -2.65575 0
M  V30 815 H 79.955 3.04103 -2.24343 0
M  V30 816 H 80.268 5.82728 -5.07591 0
M  V30 817 H 78.613 5.24519 -4.55966 0
M  V30 818 H 81.804 3.71626 -2.84625 0
M  V30 819 H 81.977 4.98696 -4.13771 0
M  V30 820 N 75.3831 0.828654 1.34056 0
M  V30 821 C 76.6291 0.42008 1.98402 0
M  V30 822 C 76.9621 -1.01564 1.65525 0
M  V30 823 O 76.2371 -1.70834 0.929831 0
M  V30 824 C 76.5201 0.62927 3.54559 0
M  V30 825 C 76.3731 2.11152 3.97159 0
M  V30 826 C 77.6921 0.0688756 4.40046 0
M  V30 827 H 74.8111 0.154104 0.720709 0
M  V30 828 H 77.4531 1.04228 1.5886 0
M  V30 829 H 75.6031 0.0996418 3.88372 0
M  V30 830 H 77.2751 2.70522 3.73651 0
M  V30 831 H 75.5181 2.59985 3.47261 0
M  V30 832 H 76.1891 2.20868 5.05887 0
M  V30 833 H 78.6651 0.521458 4.1282 0
M  V30 834 H 77.5411 0.245006 5.48353 0
M  V30 835 H 77.8021 -1.0266 4.30015 0
M  V30 836 N 76.8612 -1.46375 0.584142 0
M  V30 837 C 78.0862 -2.07268 0.0740405 0
M  V30 838 C 78.5112 -1.42979 -1.22223 0
M  V30 839 O 77.8692 -0.514092 -1.73859 0
M  V30 840 C 77.9172 -3.60518 -0.0767769 0
M  V30 841 O 77.0212 -3.96533 -1.13292 0
M  V30 842 H 76.3622 -0.660961 0.0634524 0
M  V30 843 H 78.8922 -1.87991 0.807492 0
M  V30 844 H 78.9022 -4.07021 -0.282489 0
M  V30 845 H 77.5772 -4.06702 0.86986 0
M  V30 846 H 76.1542 -3.61738 -0.905553 0
M  V30 847 N 78.3393 -0.321999 -1.54275 0
M  V30 848 C 79.7553 0.0306999 -1.5957 0
M  V30 849 C 79.9553 1.50614 -1.33857 0
M  V30 850 O 79.0113 2.2619 -1.12223 0
M  V30 851 C 80.3243 -0.386122 -2.98211 0
M  V30 852 C 81.8723 -0.336647 -3.11184 0
M  V30 853 C 82.3473 -0.728607 -4.52167 0
M  V30 854 N 83.8383 -0.681952 -4.58152 0
M  V30 855 C 84.5733 -0.957449 -5.6535 0
M  V30 856 N 84.0693 -1.3 -6.80494 0
M  V30 857 N 85.8623 -0.883113 -5.55119 0
M  V30 858 H 78.0133 -1.28332 -1.69247 0
M  V30 859 H 80.2763 -0.521716 -0.791528 0
M  V30 860 H 79.9823 -1.41404 -3.22022 0
M  V30 861 H 79.8563 0.249662 -3.76373 0
M  V30 862 H 82.2433 0.682058 -2.8711 0
M  V30 863 H 82.3243 -1.00734 -2.3513 0
M  V30 864 H 81.9683 -1.74522 -4.76974 0
M  V30 865 H 81.8983 -0.0356152 -5.26588 0
M  V30 866 H 84.3893 -0.428985 -3.75457 0
M  V30 867 H 84.7023 -1.49563 -7.58189 0
M  V30 868 H 83.0473 -1.33824 -6.81994 0
M  V30 869 H 86.2383 -0.615001 -4.64042 0
M  V30 870 H 86.4113 -1.10118 -6.38575 0
M  V30 871 N 79.8174 1.5752 -0.0501392 0
M  V30 872 C 80.7804 2.1037 0.909786 0
M  V30 873 C 81.7804 1.02308 1.24056 0
M  V30 874 O 82.9704 1.28385 1.17741 0
M  V30 875 C 80.1024 2.58708 2.21998 0
M  V30 876 H 81.2954 2.96479 0.451665 0
M  V30 877 H 78.8484 1.55038 0.198248 0
M  V30 878 H 79.5834 1.75989 2.72394 0
M  V30 879 H 79.3684 3.37675 1.99295 0
M  V30 880 H 80.8584 2.99747 2.9076 0
M  V30 881 N 81.2955 -0.223234 1.56011 0
M  V30 882 C 82.2435 -1.29627 1.93131 0
M  V30 883 C 83.2375 -1.48608 0.813146 0
M  V30 884 O 84.4435 -1.49802 0.997966 0
M  V30 885 H 80.8185 -0.434563 0.613726 0
M  V30 886 H 82.7895 -0.955995 2.82672 0
M  V30 887 C 81.5385 -2.63983 2.26292 0
M  V30 888 H 80.8615 -2.50185 3.11846 0
M  V30 889 H 82.3015 -3.3788 2.56151 0
M  V30 890 C 80.7605 -3.18866 1.08747 0
M  V30 891 O 81.2905 -4.00192 0.347727 0
M  V30 892 N 79.4965 -2.77217 0.871743 0
M  V30 893 H 79.0435 -2.1119 1.47501 0
M  V30 894 H 79.0015 -3.1428 0.0869905 0
M  V30 895 N 82.7736 -1.49793 -0.48987 0
M  V30 896 C 83.7366 -1.66752 -1.57246 0
M  V30 897 C 84.7366 -0.538867 -1.51502 0
M  V30 898 O 85.9266 -0.805545 -1.54456 0
M  V30 899 C 83.0586 -1.67528 -2.96896 0
M  V30 900 H 84.2516 -2.63321 -1.43534 0
M  V30 901 H 81.8046 -1.38992 -0.714914 0
M  V30 902 H 82.5396 -0.725837 -3.16073 0
M  V30 903 H 82.3246 -2.49504 -3.02473 0
M  V30 904 H 83.8146 -1.82667 -3.7553 0
M  V30 905 N 84.2517 0.741722 -1.39055 0
M  V30 906 C 85.2147 1.83733 -1.37021 0
M  V30 907 C 86.2147 1.58542 -0.268534 0
M  V30 908 O 87.4047 1.66067 -0.526076 0
M  V30 909 C 84.5367 3.2141 -1.13617 0
M  V30 910 H 85.7297 1.86941 -2.34506 0
M  V30 911 H 83.2827 0.944676 -1.24521 0
M  V30 912 H 84.0177 3.23865 -0.167863 0
M  V30 913 H 83.8027 3.4109 -1.93391 0
M  V30 914 H 85.2927 4.01477 -1.14918 0
M  V30 915 N 85.7298 1.2412 0.971189 0
M  V30 916 C 87.0068 0.986867 1.6888 0
M  V30 917 C 87.3868 -0.491857 2.0529 0
M  V30 918 O 86.7348 -1.46531 1.75331 0
M  V30 919 C 86.9448 1.9063 2.92338 0
M  V30 920 C 88.2928 2.17515 3.64654 0
M  V30 921 O 89.3168 1.88254 3.02388 0
M  V30 922 O 88.1758 2.6719 4.7673 0
M  V30 923 H 85.2698 0.372944 0.738134 0
M  V30 924 H 87.8158 1.35203 1.02559 0
M  V30 925 H 86.5878 2.90552 2.62097 0
M  V30 926 H 86.2108 1.54408 3.66393 0
M  V30 927 N 87.2079 -1.17134 1.05439 0
M  V30 928 C 88.1709 -2.19439 0.661764 0
M  V30 929 C 89.1709 -1.58199 -0.288042 0
M  V30 930 O 90.3609 -1.74053 -0.0715803 0
M  V30 931 C 87.4929 -3.40889 -0.0276209 0
M  V30 932 H 88.6859 -2.55688 1.56728 0
M  V30 933 H 86.2389 -1.31259 0.848567 0
M  V30 934 H 86.9739 -3.10187 -0.94629 0
M  V30 935 H 86.7589 -3.86586 0.655238 0
M  V30 936 H 88.2489 -4.16603 -0.288342 0
M  V30 937 N 88.686 -0.835752 -1.33615 0
M  V30 938 C 90.097 -0.487099 -1.80234 0
M  V30 939 C 90.448 0.993627 -1.69179 0
M  V30 940 O 89.573 1.77403 -1.23924 0
M  V30 941 C 90.168 -0.877385 -3.27242 0
M  V30 942 C 88.727 -0.580915 -3.7189 0
M  V30 943 C 87.874 -1.0874 -2.5509 0
M  V30 944 H 90.825 -1.02474 -1.2118 0
M  V30 945 H 90.846 -0.186195 -3.80044 0
M  V30 946 H 90.358 -1.95512 -3.35256 0
M  V30 947 H 88.459 0.486881 -3.69405 0
M  V30 948 H 88.572 -1.13396 -4.65487 0
M  V30 949 H 86.936 -0.508392 -2.49575 0
M  V30 950 H 87.719 -2.17184 -2.65868 0
M  V30 951 N 90.1641 1.46063 -0.591896 0
M  V30 952 C 91.1271 2.28854 0.125973 0
M  V30 953 C 92.1271 1.38903 0.810107 0
M  V30 954 O 93.3171 1.61186 0.66066 0
M  V30 955 C 90.4491 3.19526 1.1881 0
M  V30 956 H 91.6421 2.93802 -0.601717 0
M  V30 957 H 89.1951 1.52325 -0.350254 0
M  V30 958 H 89.9301 2.59345 1.94707 0
M  V30 959 H 89.7151 3.85766 0.701936 0
M  V30 960 H 91.2051 3.81817 1.69132 0
M  V30 961 N 91.6422 0.330177 1.54103 0
M  V30 962 C 92.8902 -0.269871 2.0029 0
M  V30 963 C 93.2112 -1.52133 1.21986 0
M  V30 964 O 92.4812 -1.93212 0.323438 0
M  V30 965 H 91.0612 -0.10271 0.739905 0
M  V30 966 H 93.7232 0.448249 1.89675 0
M  V30 967 H 92.8192 -0.52166 3.07709 0
M  V30 968 N 93.1203 -1.57491 0.0584922 0
M  V30 969 C 94.3483 -1.97296 -0.623037 0
M  V30 970 C 94.7633 -0.936338 -1.63946 0
M  V30 971 O 94.1203 0.0785981 -1.82331 0
M  V30 972 C 94.1713 -3.37183 -1.30345 0
M  V30 973 O 93.8923 -4.36872 -0.32773 0
M  V30 974 C 95.3933 -3.91788 -2.07406 0
M  V30 975 H 92.6133 -0.649153 -0.169826 0
M  V30 976 H 95.1573 -2.04106 0.12696 0
M  V30 977 H 93.3123 -3.31502 -2.00463 0
M  V30 978 H 93.7263 -5.18141 -0.814269 0
M  V30 979 H 95.2003 -4.91926 -2.50425 0
M  V30 980 H 95.6773 -3.27609 -2.92521 0
M  V30 981 H 96.2833 -4.00829 -1.42184 0
M  V30 982 N 94.5984 0.214957 -1.56127 0
M  V30 983 C 95.8754 0.963093 -1.70247 0
M  V30 984 C 96.2554 2.02166 -0.60764 0
M  V30 985 O 95.6034 2.25244 0.384385 0
M  V30 986 C 95.8134 1.56756 -3.11815 0
M  V30 987 C 97.1614 2.0573 -3.7143 0
M  V30 988 O 98.1854 1.66637 -3.14818 0
M  V30 989 O 97.0444 2.77603 -4.70743 0
M  V30 990 H 94.1384 0.450321 -0.693643 0
M  V30 991 H 96.6844 0.206219 -1.68442 0
M  V30 992 H 95.4564 0.803533 -3.82961 0
M  V30 993 H 95.0794 2.3898 -3.17765 0
M  V30 994 N 96.0765 1.50051 0.48192 0
M  V30 995 C 97.4875 1.5348 1.06305 0
M  V30 996 C 97.8385 0.331997 1.93371 0
M  V30 997 O 96.9635 -0.556256 2.09129 0
M  V30 998 C 97.5585 2.7813 1.93466 0
M  V30 999 C 96.1175 2.84275 2.46707 0
M  V30 1000 C 95.2645 2.47637 1.24785 0
M  V30 1001 H 98.2155 1.56472 0.264995 0
M  V30 1002 H 98.2365 2.59372 2.78399 0
M  V30 1003 H 97.7485 3.65654 1.30072 0
M  V30 1004 H 95.8495 2.01077 3.13686 0
M  V30 1005 H 95.9625 3.8691 2.82555 0
M  V30 1006 H 94.3265 1.99835 1.57918 0
M  V30 1007 H 95.1095 3.37457 0.630694 0
M  V30 1008 N 97.5546 -0.734337 1.39446 0
M  V30 1009 C 98.9706 -1.03997 1.21065 0
M  V30 1010 C 99.1706 -2.01369 0.0727019 0
M  V30 1011 O 98.2266 -2.45856 -0.575426 0
M  V30 1012 C 99.5396 -1.60163 2.54496 0
M  V30 1013 C 101.088 -1.7224 2.61347 0
M  V30 1014 C 101.563 -2.31814 3.95002 0
M  V30 1015 N 103.054 -2.39223 3.96644 0
M  V30 1016 C 103.789 -2.86258 4.96834 0
M  V30 1017 N 103.285 -3.33184 6.07421 0
M  V30 1018 N 105.078 -2.85473 4.84213 0
M  V30 1019 H 97.2286 -0.0885624 2.12215 0
M  V30 1020 H 99.4916 -0.10191 0.942506 0
M  V30 1021 H 99.1976 -0.960811 3.38321 0
M  V30 1022 H 99.0716 -2.5896 2.74262 0
M  V30 1023 H 101.459 -2.35443 1.77906 0
M  V30 1024 H 101.54 -0.720939 2.4543 0
M  V30 1025 H 101.184 -1.69238 4.78875 0
M  V30 1026 H 101.114 -3.32638 4.08239 0
M  V30 1027 H 103.605 -2.06057 3.16779 0
M  V30 1028 H 103.918 -3.67586 6.7978 0
M  V30 1029 H 102.263 -3.31191 6.11013 0
M  V30 1030 H 105.454 -2.48136 3.96921 0
M  V30 1031 H 105.627 -3.21814 5.62441 0
M  V30 1032 N 99.0327 -1.24633 -0.964593 0
M  V30 1033 C 99.9957 -1.0424 -2.04124 0
M  V30 1034 C 100.996 0.00137563 -1.608 0
M  V30 1035 O 102.186 -0.239883 -1.7254 0
M  V30 1036 C 99.3177 -0.580588 -3.3592 0
M  V30 1037 H 100.511 -1.99803 -2.23649 0
M  V30 1038 H 98.0637 -1.06899 -1.14027 0
M  V30 1039 H 98.7987 0.3781 -3.22088 0
M  V30 1040 H 98.5837 -1.33398 -3.6871 0
M  V30 1041 H 100.074 -0.459034 -4.15069 0
M  V30 1042 N 100.511 1.16574 -1.06058 0
M  V30 1043 C 101.458 2.20883 -0.669263 0
M  V30 1044 C 102.428 1.62729 0.332918 0
M  V30 1045 O 103.613 1.895 0.222346 0
M  V30 1046 C 100.753 3.45049 -0.0593572 0
M  V30 1047 C 99.8658 4.17458 -1.11143 0
M  V30 1048 C 99.0008 5.29135 -0.467916 0
M  V30 1049 C 98.0398 5.93343 -1.50369 0
M  V30 1050 N 97.1768 6.96516 -0.883706 0
M  V30 1051 H 102.017 2.53709 -1.5632 0
M  V30 1052 H 99.5538 1.24616 -0.781625 0
M  V30 1053 H 101.512 4.16033 0.311771 0
M  V30 1054 H 100.142 3.12781 0.797992 0
M  V30 1055 H 99.1938 3.45101 -1.60029 0
M  V30 1056 H 100.506 4.61307 -1.89731 0
M  V30 1057 H 99.6598 6.06684 -0.0436871 0
M  V30 1058 H 98.3988 4.86443 0.349864 0
M  V30 1059 H 97.4038 5.14517 -1.93784 0
M  V30 1060 H 98.6288 6.38114 -2.32352 0
M  V30 1061 H 96.5748 6.55943 -0.086595 0
M  V30 1062 H 96.4918 7.38723 -1.607 0
M  V30 1063 H 97.7598 7.77993 -0.484543 0
M  V30 1064 N 101.989 0.842826 1.3317 0
M  V30 1065 C 103.235 0.450342 1.98352 0
M  V30 1066 C 103.59 -0.980508 1.65541 0
M  V30 1067 O 102.883 -1.67678 0.927065 0
M  V30 1068 C 103.077 0.612607 3.52111 0
M  V30 1069 C 102.906 2.05768 3.99862 0
M  V30 1070 C 101.676 2.69374 4.27511 0
M  V30 1071 C 103.874 3.02688 4.15794 0
M  V30 1072 N 101.856 4.04915 4.61429 0
M  V30 1073 C 103.227 4.23186 4.53115 0
M  V30 1074 C 105.282 2.99041 3.98094 0
M  V30 1075 C 103.985 5.40518 4.74587 0
M  V30 1076 C 106.011 4.15607 4.20743 0
M  V30 1077 C 105.373 5.3486 4.58371 0
M  V30 1078 H 101.472 0.213296 0.752349 0
M  V30 1079 H 104.056 1.09173 1.61212 0
M  V30 1080 H 102.227 0.000998822 3.884 0
M  V30 1081 H 103.959 0.191179 4.04248 0
M  V30 1082 H 100.714 2.20485 4.19146 0
M  V30 1083 H 101.138 4.74798 4.82593 0
M  V30 1084 H 105.78 2.0797 3.68114 0
M  V30 1085 H 103.498 6.3213 5.03425 0
M  V30 1086 H 107.084 4.14207 4.08563 0
M  V30 1087 H 105.964 6.23558 4.75547 0
M  V30 1088 N 103.467 -1.45747 0.599634 0
M  V30 1089 C 104.713 -2.02592 0.0918643 0
M  V30 1090 C 105.046 -1.46806 -1.27128 0
M  V30 1091 O 104.321 -0.639658 -1.83681 0
M  V30 1092 C 104.604 -3.60073 0.0443398 0
M  V30 1093 C 104.457 -4.26208 1.43759 0
M  V30 1094 C 105.776 -4.35309 -0.647608 0
M  V30 1095 H 102.895 -0.736175 0.034857 0
M  V30 1096 H 105.537 -1.73694 0.770081 0
M  V30 1097 H 103.687 -3.84823 -0.533224 0
M  V30 1098 H 105.359 -4.12668 2.06162 0
M  V30 1099 H 103.602 -3.84916 2.00056 0
M  V30 1100 H 104.273 -5.35069 1.35665 0
M  V30 1101 H 106.749 -4.15805 -0.156776 0
M  V30 1102 H 105.625 -5.45038 -0.649942 0
M  V30 1103 H 105.886 -4.07598 -1.71219 0
M  V30 1104 N 104.945 -0.338344 -1.53925 0
M  V30 1105 C 106.356 0.146651 -1.86123 0
M  V30 1106 C 106.707 1.5042 -1.2597 0
M  V30 1107 O 105.832 2.08723 -0.571294 0
M  V30 1108 C 106.427 0.272879 -3.37699 0
M  V30 1109 C 104.986 0.702103 -3.69794 0
M  V30 1110 C 104.133 -0.167304 -2.76795 0
M  V30 1111 H 107.084 -0.558123 -1.48562 0
M  V30 1112 H 107.105 1.10128 -3.64214 0
M  V30 1113 H 106.617 -0.715307 -3.81451 0
M  V30 1114 H 104.718 1.6995 -3.31584 0
M  V30 1115 H 104.831 0.495604 -4.7653 0
M  V30 1116 H 103.195 0.359527 -2.5215 0
M  V30 1117 H 103.978 -1.15253 -3.23375 0
M  V30 1118 N 106.423 1.57458 -0.0668435 0
M  V30 1119 C 107.355 2.09413 0.931601 0
M  V30 1120 C 108.368 1.02522 1.26464 0
M  V30 1121 O 109.557 1.30049 1.22269 0
M  V30 1122 C 106.657 2.53537 2.24882 0
M  V30 1123 C 105.83 3.83944 2.09537 0
M  V30 1124 C 104.889 4.14214 3.2452 0
M  V30 1125 O 103.915 4.83891 2.9973 0
M  V30 1126 N 105.117 3.67367 4.49469 0
M  V30 1127 H 107.882 2.95699 0.488048 0
M  V30 1128 H 105.443 1.61462 0.119009 0
M  V30 1129 H 107.435 2.70853 3.00701 0
M  V30 1130 H 106.005 1.72415 2.60753 0
M  V30 1131 H 105.225 3.76057 1.18215 0
M  V30 1132 H 106.513 4.69312 1.96529 0
M  V30 1133 H 105.911 3.11068 4.72497 0
M  V30 1134 H 104.468 3.89891 5.2233 0
M  V30 1135 N 107.901 -0.206675 1.56239 0
M  V30 1136 C 109.178 -0.954051 1.70755 0
M  V30 1137 C 109.558 -2.01841 0.618353 0
M  V30 1138 O 108.906 -2.25444 -0.372434 0
M  V30 1139 C 109.116 -1.551 3.12642 0
M  V30 1140 C 110.464 -2.03757 3.72516 0
M  V30 1141 O 111.488 -1.64965 3.15698 0
M  V30 1142 O 110.347 -2.75103 4.72208 0
M  V30 1143 H 107.441 -0.446636 0.696021 0
M  V30 1144 H 109.987 -0.197283 1.68549 0
M  V30 1145 H 108.759 -0.783212 3.83382 0
M  V30 1146 H 108.382 -2.37291 3.19028 0
M  V30 1147 N 109.379 -1.50304 -0.473955 0
M  V30 1148 C 110.327 -1.69482 -1.59307 0
M  V30 1149 C 111.321 -0.560669 -1.59853 0
M  V30 1150 O 112.527 -0.741087 -1.64036 0
M  V30 1151 H 108.902 -0.534892 -0.528578 0
M  V30 1152 H 110.873 -2.63364 -1.40293 0
M  V30 1153 C 109.622 -1.80354 -2.97267 0
M  V30 1154 H 108.945 -2.67012 -2.97564 0
M  V30 1155 H 110.385 -1.97798 -3.75036 0
M  V30 1156 C 108.844 -0.55448 -3.32306 0
M  V30 1157 O 109.374 0.307661 -4.0052 0
M  V30 1158 N 107.58 -0.409354 -2.87702 0
M  V30 1159 H 107.127 -1.11196 -2.32364 0
M  V30 1160 H 107.085 0.425223 -3.11511 0
M  V30 1161 N 110.857 0.726932 -1.39834 0
M  V30 1162 C 112.134 1.47902 -1.28001 0
M  V30 1163 C 112.514 2.1083 0.106789 0
M  V30 1164 O 111.862 1.99242 1.11869 0
M  V30 1165 C 112.072 2.52392 -2.41038 0
M  V30 1166 C 113.42 3.18546 -2.80737 0
M  V30 1167 O 114.444 2.62708 -2.40547 0
M  V30 1168 O 113.303 4.19604 -3.50135 0
M  V30 1169 H 110.397 0.657163 -0.502062 0
M  V30 1170 H 112.943 0.760071 -1.51727 0
M  V30 1171 H 111.715 2.04329 -3.33715 0
M  V30 1172 H 111.338 3.31837 -2.19021 0
M  V30 1173 N 112.336 1.25143 0.95797 0
M  V30 1174 C 113.585 1.0909 1.69654 0
M  V30 1175 C 113.898 -0.368548 1.92097 0
M  V30 1176 O 115.104 -0.649455 2.63618 0
M  V30 1177 C 113.56 1.90395 3.05414 0
M  V30 1178 C 113.168 3.4081 2.90779 0
M  V30 1179 C 114.912 1.82901 3.83076 0
M  V30 1180 C 112.819 4.14423 4.21909 0
M  V30 1181 H 111.749 0.404625 0.636235 0
M  V30 1182 H 114.4 1.4931 1.06672 0
M  V30 1183 H 112.782 1.42996 3.69281 0
M  V30 1184 H 113.956 3.95859 2.35865 0
M  V30 1185 H 112.271 3.49361 2.26575 0
M  V30 1186 H 114.868 2.35196 4.80195 0
M  V30 1187 H 115.211 0.796224 4.08615 0
M  V30 1188 H 115.744 2.28033 3.25954 0
M  V30 1189 H 112.483 5.18102 4.01561 0
M  V30 1190 H 112.003 3.64159 4.76601 0
M  V30 1191 H 113.682 4.21956 4.90471 0
M  V30 1192 N 113.814 -1.1601 1.06675 0
M  V30 1193 C 114.746 -2.20115 0.638921 0
M  V30 1194 C 115.759 -1.59916 -0.305057 0
M  V30 1195 O 116.948 -1.78245 -0.0954446 0
M  V30 1196 C 114.048 -3.38798 -0.0830083 0
M  V30 1197 C 113.221 -4.2855 0.875426 0
M  V30 1198 C 112.28 -5.25849 0.192042 0
M  V30 1199 O 111.306 -5.63102 0.830921 0
M  V30 1200 N 112.508 -5.70648 -1.06493 0
M  V30 1201 H 115.273 -2.57439 1.53444 0
M  V30 1202 H 112.834 -1.31057 0.950557 0
M  V30 1203 H 114.826 -4.00936 -0.550685 0
M  V30 1204 H 113.396 -2.99947 -0.880386 0
M  V30 1205 H 112.616 -3.63617 1.52238 0
M  V30 1206 H 113.904 -4.85393 1.52548 0
M  V30 1207 H 113.302 -5.42482 -1.60405 0
M  V30 1208 H 111.859 -6.34859 -1.47641 0
M  V30 1209 N 115.292 -0.849877 -1.32721 0
M  V30 1210 C 116.255 -0.296122 -2.27279 0
M  V30 1211 C 117.255 0.541458 -1.5141 0
M  V30 1212 O 118.445 0.353658 -1.70572 0
M  V30 1213 C 115.577 0.581579 -3.35902 0
M  V30 1214 H 116.77 -1.13064 -2.77771 0
M  V30 1215 H 114.323 -0.62383 -1.43311 0
M  V30 1216 H 115.058 1.43809 -2.9067 0
M  V30 1217 H 114.843 -0.0178814 -3.92096 0
M  V30 1218 H 116.333 0.961951 -4.0637 0
M  V30 1219 N 116.77 1.45427 -0.607355 0
M  V30 1220 C 118.01 2.04128 -0.105458 0
M  V30 1221 C 118.374 1.46555 1.24039 0
M  V30 1222 O 119.575 1.96608 1.833 0
M  V30 1223 C 117.846 3.57338 -0.0665324 0
M  V30 1224 S 119.405 4.37201 0.374207 0
M  V30 1225 H 116.223 0.709278 -0.0494575 0
M  V30 1226 H 118.825 1.78139 -0.805404 0
M  V30 1227 H 117.529 3.96752 -1.04957 0
M  V30 1228 H 117.06 3.87902 0.655415 0
M  V30 1229 H 119.075 4.6888 1.62377 0
M  V30 1230 N 118.248 0.346503 1.53744 0
M  V30 1231 C 119.525 -0.304532 1.93215 0
M  V30 1232 C 119.905 -1.67993 1.27834 0
M  V30 1233 O 119.253 -2.24411 0.430352 0
M  V30 1234 C 119.463 -0.373852 3.46992 0
M  V30 1235 C 120.811 -0.62329 4.2 0
M  V30 1236 O 121.835 -0.455847 3.53271 0
M  V30 1237 O 120.694 -0.947879 5.38217 0
M  V30 1238 H 117.788 -0.178318 0.807547 0
M  V30 1239 H 120.334 0.397895 1.64969 0
M  V30 1240 H 119.106 0.591224 3.86808 0
M  V30 1241 H 118.729 -1.12294 3.81413 0
M  V30 1242 N 119.726 -1.57421 0.075193 0
M  V30 1243 C 120.956 -1.97659 -0.601203 0
M  V30 1244 C 121.364 -0.952427 -1.63479 0
M  V30 1245 O 120.707 0.0688241 -1.83571 0
M  V30 1246 C 120.769 -3.34218 -1.32434 0
M  V30 1247 C 120.433 -4.5484 -0.443826 0
M  V30 1248 C 121.43 -5.19034 0.299969 0
M  V30 1249 C 119.115 -5.00952 -0.367709 0
M  V30 1250 C 121.109 -6.27695 1.10807 0
M  V30 1251 C 118.796 -6.09484 0.444058 0
M  V30 1252 C 119.794 -6.72719 1.18061 0
M  V30 1253 O 119.482 -7.79161 1.97898 0
M  V30 1254 H 119.214 -0.65494 -0.167422 0
M  V30 1255 H 121.768 -2.04886 0.145157 0
M  V30 1256 H 119.998 -3.23615 -2.11685 0
M  V30 1257 H 121.687 -3.59038 -1.89331 0
M  V30 1258 H 122.453 -4.84351 0.250776 0
M  V30 1259 H 118.332 -4.51509 -0.930638 0
M  V30 1260 H 121.876 -6.76982 1.68347 0
M  V30 1261 H 117.773 -6.43601 0.494803 0
M  V30 1262 H 118.541 -7.96055 1.90367 0
M  V30 1263 N 121.204 0.198386 -1.56346 0
M  V30 1264 C 122.45 0.916115 -1.81601 0
M  V30 1265 C 122.805 1.81025 -0.651744 0
M  V30 1266 O 122.098 1.88316 0.353229 0
M  V30 1267 C 122.292 1.77031 -3.10475 0
M  V30 1268 C 122.121 0.960365 -4.39326 0
M  V30 1269 C 120.891 0.646093 -5.01152 0
M  V30 1270 C 123.089 0.314628 -5.13337 0
M  V30 1271 N 121.071 -0.182828 -6.13628 0
M  V30 1272 C 122.442 -0.37664 -6.18855 0
M  V30 1273 C 124.497 0.230019 -4.97368 0
M  V30 1274 C 123.2 -1.14445 -7.10137 0
M  V30 1275 C 125.226 -0.524389 -5.89071 0
M  V30 1276 C 124.588 -1.20412 -6.94032 0
M  V30 1277 H 120.687 0.314732 -0.715868 0
M  V30 1278 H 123.271 0.185102 -1.93818 0
M  V30 1279 H 121.442 2.47295 -2.99499 0
M  V30 1280 H 123.174 2.42727 -3.2383 0
M  V30 1281 H 119.929 0.969724 -4.63566 0
M  V30 1282 H 120.353 -0.586802 -6.74452 0
M  V30 1283 H 124.995 0.741184 -4.16253 0
M  V30 1284 H 122.713 -1.66706 -7.90718 0
M  V30 1285 H 126.299 -0.591167 -5.78789 0
M  V30 1286 H 125.179 -1.77853 -7.63766 0
M  V30 1287 N 122.682 1.50554 0.465978 0
M  V30 1288 C 124.098 1.38093 0.800154 0
M  V30 1289 C 124.298 0.440988 1.96615 0
M  V30 1290 O 123.354 -0.114499 2.5224 0
M  V30 1291 C 124.667 2.79565 1.10742 0
M  V30 1292 C 126.215 2.88516 1.21357 0
M  V30 1293 C 126.69 4.30833 1.55393 0
M  V30 1294 N 128.181 4.33807 1.62375 0
M  V30 1295 C 128.916 5.40927 1.90225 0
M  V30 1296 N 128.412 6.58247 2.16062 0
M  V30 1297 N 130.205 5.28376 1.9177 0
M  V30 1298 H 122.356 2.10237 -0.302366 0
M  V30 1299 H 124.619 0.945203 -0.0727746 0
M  V30 1300 H 124.325 3.50208 0.323661 0
M  V30 1301 H 124.199 3.17125 2.04234 0
M  V30 1302 H 126.586 2.1809 1.98799 0
M  V30 1303 H 126.667 2.54492 0.258321 0
M  V30 1304 H 126.311 5.01799 0.784889 0
M  V30 1305 H 126.241 4.62347 2.52076 0
M  V30 1306 H 128.732 3.49212 1.44427 0
M  V30 1307 H 129.045 7.3569 2.36601 0
M  V30 1308 H 127.39 6.61413 2.13444 0
M  V30 1309 H 130.581 4.35715 1.71085 0
M  V30 1310 H 130.754 6.11944 2.13139 0
M  V30 1311 N 124.16 -0.719506 1.40217 0
M  V30 1312 C 125.11 -1.8251 1.36653 0
M  V30 1313 C 126.094 -1.59028 0.244732 0
M  V30 1314 O 127.286 -1.70268 0.483524 0
M  V30 1315 C 124.415 -3.20599 1.22763 0
M  V30 1316 C 123.501 -3.49858 2.39708 0
M  V30 1317 N 123.892 -3.49957 3.6519 0
M  V30 1318 C 122.19 -3.80297 2.33002 0
M  V30 1319 C 122.891 -3.77449 4.42614 0
M  V30 1320 N 121.867 -3.96002 3.72402 0
M  V30 1321 H 125.669 -1.80914 2.31619 0
M  V30 1322 H 123.183 -0.918455 1.33933 0
M  V30 1323 H 125.18 -3.99766 1.18292 0
M  V30 1324 H 123.84 -3.23424 0.287614 0
M  V30 1325 H 124.851 -3.309 3.98404 0
M  V30 1326 H 121.528 -3.90635 1.47346 0
M  V30 1327 H 122.918 -3.83863 5.51451 0
M  V30 1328 N 125.638 -1.25649 -0.95132 0
M  V30 1329 C 126.878 -1.11802 -1.71113 0
M  V30 1330 C 127.242 0.334758 -1.89059 0
M  V30 1331 O 128.443 0.595121 -2.62129 0
M  V30 1332 C 126.714 -1.85512 -3.05483 0
M  V30 1333 S 128.273 -1.87597 -3.96677 0
M  V30 1334 H 125.091 -0.399552 -0.588115 0
M  V30 1335 H 127.693 -1.59222 -1.1344 0
M  V30 1336 H 126.397 -2.90299 -2.90094 0
M  V30 1337 H 125.928 -1.38493 -3.68216 0
M  V30 1338 H 127.943 -0.955389 -4.86916 0
M  V30 1339 N 127.117 1.15442 -1.07289 0
M  V30 1340 C 128.342 1.90638 -0.816828 0
M  V30 1341 C 128.767 1.77445 0.624083 0
M  V30 1342 O 128.125 1.10671 1.43602 0
M  V30 1343 C 128.173 3.39008 -1.22906 0
M  V30 1344 O 127.277 4.10701 -0.373975 0
M  V30 1345 H 126.618 0.593555 -0.297638 0
M  V30 1346 H 129.148 1.46198 -1.43134 0
M  V30 1347 H 129.158 3.89801 -1.20497 0
M  V30 1348 H 127.833 3.47929 -2.27856 0
M  V30 1349 H 126.41 3.70046 -0.460499 0
M  V30 1350 N 128.595 0.856903 1.32268 0
M  V30 1351 C 129.844 0.457599 1.96441 0
M  V30 1352 C 130.157 -0.992426 1.68553 0
M  V30 1353 O 131.363 -1.49727 2.26482 0
M  V30 1354 C 129.819 0.767358 3.51624 0
M  V30 1355 C 129.427 2.23326 3.88367 0
M  V30 1356 C 131.171 0.435887 4.22256 0
M  V30 1357 C 129.078 2.48613 5.36606 0
M  V30 1358 H 128.008 0.167387 0.735185 0
M  V30 1359 H 130.659 1.048 1.5063 0
M  V30 1360 H 129.041 0.106367 3.95857 0
M  V30 1361 H 130.215 2.93623 3.55137 0
M  V30 1362 H 128.53 2.52948 3.30766 0
M  V30 1363 H 131.127 0.602202 5.31298 0
M  V30 1364 H 131.47 -0.622672 4.11617 0
M  V30 1365 H 132.003 1.05286 3.83614 0
M  V30 1366 H 128.742 3.53101 5.52268 0
M  V30 1367 H 128.262 1.82896 5.71235 0
M  V30 1368 H 129.941 2.32676 6.03714 0
M  V30 1369 N 130.073 -1.45103 0.615059 0
M  V30 1370 C 131.35 -1.95549 0.0448276 0
M  V30 1371 C 131.73 -1.55737 -1.4251 0
M  V30 1372 O 131.078 -0.823556 -2.13143 0
M  V30 1373 C 131.288 -3.48098 0.250785 0
M  V30 1374 C 132.636 -4.24384 0.135509 0
M  V30 1375 O 133.66 -3.55738 0.181299 0
M  V30 1376 O 132.519 -5.46493 0.0268878 0
M  V30 1377 H 129.613 -0.8264 -0.0314845 0
M  V30 1378 H 132.159 -1.55232 0.685642 0
M  V30 1379 H 130.931 -3.7007 1.27139 0
M  V30 1380 H 130.554 -3.95323 -0.424937 0
M  V30 1381 N 131.551 -0.354651 -1.53558 0
M  V30 1382 C 132.799 0.237972 -2.00694 0
M  V30 1383 C 133.12 1.50173 -1.24391 0
M  V30 1384 O 132.39 1.92673 -0.354135 0
M  V30 1385 H 130.97 0.0909256 -0.741446 0
M  V30 1386 H 133.632 -0.478368 -1.88938 0
M  V30 1387 H 132.728 0.47264 -3.085 0
M  V30 1388 N 133.029 1.57378 -0.0835403 0
M  V30 1389 C 133.977 2.14602 0.89714 0
M  V30 1390 C 134.971 1.08589 1.30018 0
M  V30 1391 O 136.177 1.26952 1.27606 0
M  V30 1392 H 132.552 0.686346 0.3073 0
M  V30 1393 H 134.523 2.95845 0.38969 0
M  V30 1394 C 133.272 2.73188 2.15089 0
M  V30 1395 H 132.595 3.54442 1.84962 0
M  V30 1396 H 134.035 3.1681 2.81793 0
M  V30 1397 C 132.494 1.68517 2.91725 0
M  V30 1398 O 133.024 1.11718 3.85852 0
M  V30 1399 N 131.23 1.39277 2.55049 0
M  V30 1400 H 130.777 1.85655 1.78577 0
M  V30 1401 H 130.735 0.694791 3.06627 0
M  V30 1402 N 134.507 -0.190092 1.56449 0
M  V30 1403 C 135.756 -0.907912 1.80111 0
M  V30 1404 C 136.069 -1.84214 0.657619 0
M  V30 1405 O 137.275 -2.60094 0.778663 0
M  V30 1406 C 135.731 -1.66485 3.19078 0
M  V30 1407 C 135.339 -0.7752 4.41242 0
M  V30 1408 C 137.083 -2.37201 3.52045 0
M  V30 1409 C 134.99 -1.53129 5.71231 0
M  V30 1410 H 133.92 -0.34276 0.671589 0
M  V30 1411 H 136.571 -0.161109 1.82791 0
M  V30 1412 H 134.953 -2.45572 3.10661 0
M  V30 1413 H 136.127 -0.0226298 4.60794 0
M  V30 1414 H 134.442 -0.178627 4.16017 0
M  V30 1415 H 137.039 -2.94329 4.46402 0
M  V30 1416 H 137.382 -3.11632 2.76028 0
M  V30 1417 H 137.915 -1.65075 3.61932 0
M  V30 1418 H 134.654 -0.82967 6.50228 0
M  V30 1419 H 134.174 -2.25767 5.55688 0
M  V30 1420 H 135.853 -2.08377 6.12526 0
M  V30 1421 N 135.985 -1.50799 -0.457987 0
M  V30 1422 C 137.225 -1.64088 -1.21879 0
M  V30 1423 C 137.589 -0.339848 -1.88968 0
M  V30 1424 O 138.79 -0.348301 -2.66534 0
M  V30 1425 C 137.061 -2.79726 -2.2246 0
M  V30 1426 S 138.62 -3.13225 -3.07303 0
M  V30 1427 H 135.438 -0.578314 -0.41361 0
M  V30 1428 H 138.04 -1.88632 -0.513645 0
M  V30 1429 H 136.744 -3.72722 -1.71775 0
M  V30 1430 H 136.275 -2.57308 -2.97584 0
M  V30 1431 H 138.29 -2.58062 -4.23814 0
M  V30 1432 N 137.463 0.71206 -1.40597 0
M  V30 1433 C 138.74 1.46536 -1.29563 0
M  V30 1434 C 139.12 2.10931 0.0844217 0
M  V30 1435 O 138.468 2.00418 1.0975 0
M  V30 1436 C 138.678 2.49821 -2.43701 0
M  V30 1437 C 140.026 3.15551 -2.841 0
M  V30 1438 O 141.05 2.60142 -2.4332 0
M  V30 1439 O 139.909 4.15867 -3.54566 0
M  V30 1440 H 137.003 0.651801 -0.509004 0
M  V30 1441 H 139.549 0.743935 -1.52524 0
M  V30 1442 H 138.321 2.00778 -3.35863 0
M  V30 1443 H 137.944 3.29495 -2.22528 0
M  V30 1444 N 138.941 1.26152 0.944643 0
M  V30 1445 C 140.181 1.12708 1.70517 0
M  V30 1446 C 140.545 -0.324727 1.89234 0
M  V30 1447 O 141.746 -0.581211 2.62441 0
M  V30 1448 C 140.017 1.8713 3.04495 0
M  V30 1449 S 141.576 1.89698 3.95677 0
M  V30 1450 H 138.394 0.402665 0.585988 0
M  V30 1451 H 140.996 1.59821 1.12594 0
M  V30 1452 H 139.7 2.91833 2.88551 0
M  V30 1453 H 139.231 1.40444 3.67477 0
M  V30 1454 H 141.246 0.981198 4.86402 0
M  V30 1455 N 140.419 -1.14872 1.07899 0
M  V30 1456 C 141.644 -1.90202 0.826926 0
M  V30 1457 C 142.069 -1.77774 -0.614664 0
M  V30 1458 O 141.427 -1.11431 -1.43013 0
M  V30 1459 C 141.475 -3.38352 1.24702 0
M  V30 1460 O 140.579 -4.10497 0.39575 0
M  V30 1461 H 139.92 -0.591968 0.300782 0
M  V30 1462 H 142.45 -1.45437 1.43907 0
M  V30 1463 H 142.46 -3.89156 1.22563 0
M  V30 1464 H 141.135 -3.46715 2.29698 0
M  V30 1465 H 139.712 -3.69796 0.480117 0
M  V30 1466 N 141.898 -0.863906 -1.31812 0
M  V30 1467 C 143.146 -0.470904 -1.96537 0
M  V30 1468 C 143.467 0.978771 -1.68657 0
M  V30 1469 O 142.737 1.6853 -0.998717 0
M  V30 1470 H 141.317 -0.171148 -0.72713 0
M  V30 1471 H 143.979 -1.10236 -1.60729 0
M  V30 1472 H 143.075 -0.623616 -3.05806 0
M  V30 1473 N 143.376 1.44774 -0.622745 0
M  V30 1474 C 144.624 2.01721 -0.123655 0
M  V30 1475 C 144.945 1.49172 1.25589 0
M  V30 1476 O 144.215 0.691974 1.83272 0
M  V30 1477 H 142.795 0.745777 -0.0427225 0
M  V30 1478 H 145.457 1.77382 -0.807559 0
M  V30 1479 H 144.553 3.11984 -0.0849534 0
M  V30 1480 N 144.854 0.36279 1.53368 0
M  V30 1481 C 146.079 -0.231226 2.06107 0
M  V30 1482 C 146.504 -1.419 1.23474 0
M  V30 1483 O 145.862 -1.79524 0.253128 0
M  V30 1484 C 145.91 -0.605523 3.5548 0
M  V30 1485 O 145.014 -1.70312 3.7559 0
M  V30 1486 H 144.355 -0.034327 0.663112 0
M  V30 1487 H 146.885 0.522584 1.97814 0
M  V30 1488 H 146.895 -0.877314 3.98456 0
M  V30 1489 H 145.57 0.263004 4.15068 0
M  V30 1490 H 144.147 -1.4271 3.44512 0
M  V30 1491 N 146.332 -1.57332 0.0918853 0
M  V30 1492 C 147.262 -2.16872 -0.865371 0
M  V30 1493 C 148.243 -1.10118 -1.29646 0
M  V30 1494 O 149.428 -1.38242 -1.36392 0
M  V30 1495 C 146.558 -2.74649 -2.12569 0
M  V30 1496 C 145.512 -3.86747 -1.83333 0
M  V30 1497 C 144.838 -4.31212 -3.16166 0
M  V30 1498 C 146.138 -5.10089 -1.1228 0
M  V30 1499 H 147.832 -2.97114 -0.369307 0
M  V30 1500 H 145.378 -1.42918 -0.176194 0
M  V30 1501 H 147.331 -3.14952 -2.7997 0
M  V30 1502 H 146.055 -1.91657 -2.64452 0
M  V30 1503 H 144.714 -3.46978 -1.18331 0
M  V30 1504 H 144.362 -3.45115 -3.6593 0
M  V30 1505 H 144.062 -5.06788 -2.97388 0
M  V30 1506 H 145.586 -4.74146 -3.84731 0
M  V30 1507 H 147 -5.47582 -1.69785 0
M  V30 1508 H 145.397 -5.91073 -1.03693 0
M  V30 1509 H 146.467 -4.84786 -0.105041 0
M  V30 1510 N 147.81 0.181792 -1.56548 0
M  V30 1511 C 149.038 0.915947 -1.85521 0
M  V30 1512 C 149.453 1.76282 -0.676016 0
M  V30 1513 O 148.81 1.79012 0.355077 0
M  V30 1514 C 148.861 1.80126 -3.13427 0
M  V30 1515 O 148.582 0.988562 -4.26801 0
M  V30 1516 C 150.083 2.64597 -3.55673 0
M  V30 1517 H 147.303 0.26661 -0.61576 0
M  V30 1518 H 149.847 0.185039 -2.03661 0
M  V30 1519 H 148.002 2.48563 -2.97145 0
M  V30 1520 H 148.416 1.59308 -4.99721 0
M  V30 1521 H 149.89 3.2235 -4.48101 0
M  V30 1522 H 150.367 3.38958 -2.79292 0
M  V30 1523 H 150.973 2.0151 -3.74532 0
M  V30 1524 N 149.288 1.51039 0.449983 0
M  V30 1525 C 150.236 1.71995 1.5659 0
M  V30 1526 C 151.23 0.586029 1.5894 0
M  V30 1527 O 152.436 0.76709 1.62837 0
M  V30 1528 H 148.811 0.543233 0.520001 0
M  V30 1529 H 150.782 2.65562 1.36085 0
M  V30 1530 C 149.531 1.8506 2.9436 0
M  V30 1531 H 148.854 2.71712 2.93279 0
M  V30 1532 H 150.294 2.0374 3.71842 0
M  V30 1533 C 148.753 0.607277 3.31382 0
M  V30 1534 O 149.283 -0.243903 4.00959 0
M  V30 1535 N 147.489 0.455073 2.87015 0
M  V30 1536 H 147.036 1.14879 2.30566 0
M  V30 1537 H 146.994 -0.375611 3.12148 0
M  V30 1538 N 150.766 -0.704594 1.40972 0
M  V30 1539 C 152.006 -1.47691 1.41304 0
M  V30 1540 C 152.37 -1.91992 0.0178582 0
M  V30 1541 O 153.571 -2.68599 -0.103996 0
M  V30 1542 C 151.842 -2.66254 2.38419 0
M  V30 1543 S 153.401 -3.55516 2.57204 0
M  V30 1544 H 150.219 -0.504808 0.500689 0
M  V30 1545 H 152.821 -0.822962 1.77335 0
M  V30 1546 H 151.525 -2.31897 3.38603 0
M  V30 1547 H 151.056 -3.3655 2.03711 0
M  V30 1548 H 153.071 -4.61115 1.83268 0
M  V30 1549 N 152.244 -1.26651 -0.937939 0
M  V30 1550 C 153.655 -1.1125 -1.49934 0
M  V30 1551 C 154.006 0.306077 -1.93798 0
M  V30 1552 O 153.131 1.19792 -1.80219 0
M  V30 1553 C 153.726 -2.01339 -2.72485 0
M  V30 1554 C 152.285 -1.90074 -3.24883 0
M  V30 1555 C 151.432 -1.94498 -1.97651 0
M  V30 1556 H 154.383 -1.39693 -0.753091 0
M  V30 1557 H 154.404 -1.56319 -3.46907 0
M  V30 1558 H 153.916 -3.04577 -2.40529 0
M  V30 1559 H 152.017 -0.897827 -3.61621 0
M  V30 1560 H 152.13 -2.75778 -3.9177 0
M  V30 1561 H 150.494 -1.38591 -2.13693 0
M  V30 1562 H 151.277 -2.99372 -1.68022 0
M  V30 1563 N 153.722 1.14298 -1.08507 0
M  V30 1564 C 155.133 1.66926 -0.836227 0
M  V30 1565 C 155.484 1.85576 0.63686 0
M  V30 1566 O 154.609 1.56767 1.49175 0
M  V30 1567 C 155.204 3.03219 -1.51142 0
M  V30 1568 C 153.763 3.52876 -1.30979 0
M  V30 1569 C 152.91 2.2833 -1.57356 0
M  V30 1570 H 155.861 0.983491 -1.24552 0
M  V30 1571 H 155.882 3.68726 -0.939211 0
M  V30 1572 H 155.394 2.89612 -2.58353 0
M  V30 1573 H 153.495 3.71703 -0.258429 0
M  V30 1574 H 153.608 4.33586 -2.03814 0
M  V30 1575 H 151.972 2.34454 -0.995164 0
M  V30 1576 H 152.755 2.17298 -2.65775 0
M  V30 1577 N 155.201 0.870884 1.31352 0
M  V30 1578 C 156.449 0.48132 1.96285 0
M  V30 1579 C 156.77 -0.969813 1.69173 0
M  V30 1580 O 156.04 -1.67998 1.00764 0
M  V30 1581 H 154.62 0.175002 0.726212 0
M  V30 1582 H 157.282 1.11087 1.60143 0
M  V30 1583 H 156.378 0.639825 3.05471 0
M  V30 1584 N 156.679 -1.44442 0.630414 0
M  V30 1585 C 157.907 -2.06414 0.141671 0
M  V30 1586 C 158.322 -1.47105 -1.18345 0
M  V30 1587 O 157.679 -0.593662 -1.72574 0
M  V30 1588 C 157.73 -3.61494 0.0199784 0
M  V30 1589 O 157.451 -4.18594 1.29269 0
M  V30 1590 C 158.952 -4.40499 -0.497544 0
M  V30 1591 H 156.172 -0.666292 0.0793452 0
M  V30 1592 H 158.716 -1.85323 0.864614 0
M  V30 1593 H 156.871 -3.8185 -0.653402 0
M  V30 1594 H 157.285 -5.12026 1.13707 0
M  V30 1595 H 158.759 -5.49433 -0.531708 0
M  V30 1596 H 159.236 -4.11895 -1.52445 0
M  V30 1597 H 159.842 -4.25061 0.142562 0
M  V30 1598 N 158.157 -0.370918 -1.53173 0
M  V30 1599 C 159.104 0.473035 -2.259 0
M  V30 1600 C 160.074 1.07311 -1.26781 0
M  V30 1601 O 161.259 1.1046 -1.55574 0
M  V30 1602 C 158.399 1.60405 -3.05556 0
M  V30 1603 C 157.512 1.02863 -4.19575 0
M  V30 1604 C 156.647 2.12918 -4.86661 0
M  V30 1605 C 155.686 1.52869 -5.92704 0
M  V30 1606 N 154.823 2.56779 -6.53459 0
M  V30 1607 H 159.663 -0.153649 -2.97604 0
M  V30 1608 H 157.2 -0.0875946 -1.46839 0
M  V30 1609 H 159.158 2.27034 -3.50016 0
M  V30 1610 H 157.788 2.20131 -2.36097 0
M  V30 1611 H 156.84 0.252465 -3.79561 0
M  V30 1612 H 158.152 0.549642 -4.95762 0
M  V30 1613 H 157.306 2.87356 -5.34333 0
M  V30 1614 H 156.045 2.6417 -4.09958 0
M  V30 1615 H 155.05 0.769479 -5.44389 0
M  V30 1616 H 156.275 1.02435 -6.7133 0
M  V30 1617 H 154.221 3.07235 -5.79606 0
M  V30 1618 H 154.138 2.13583 -7.25202 0
M  V30 1619 H 155.406 3.30903 -7.05779 0
M  V30 1620 N 159.635 1.57281 -0.100228 0
M  V30 1621 C 160.565 2.17328 0.853857 0
M  V30 1622 C 161.546 1.10804 1.2906 0
M  V30 1623 O 162.731 1.38963 1.35657 0
M  V30 1624 C 159.861 2.75772 2.11109 0
M  V30 1625 C 158.815 3.87713 1.81279 0
M  V30 1626 C 158.141 4.32882 3.13874 0
M  V30 1627 C 159.441 5.10677 1.09574 0
M  V30 1628 H 161.135 2.97305 0.353545 0
M  V30 1629 H 158.681 1.43009 0.168612 0
M  V30 1630 H 160.634 3.16433 2.78296 0
M  V30 1631 H 159.358 1.93057 2.63432 0
M  V30 1632 H 158.017 3.476 1.16489 0
M  V30 1633 H 157.665 3.47051 3.64095 0
M  V30 1634 H 157.365 5.08358 2.94696 0
M  V30 1635 H 158.889 4.7618 3.82211 0
M  V30 1636 H 160.303 5.48474 1.66879 0
M  V30 1637 H 158.7 5.91615 1.00557 0
M  V30 1638 H 159.77 4.84835 0.0793299 0
M  V30 1639 N 161.113 -0.173488 1.56642 0
M  V30 1640 C 162.076 -1.19859 1.95362 0
M  V30 1641 C 163.076 -1.37296 0.83704 0
M  V30 1642 O 164.266 -1.34739 1.10413 0
M  V30 1643 C 161.398 -2.56405 2.24654 0
M  V30 1644 H 162.591 -0.867062 2.87092 0
M  V30 1645 H 160.144 -0.415853 1.50666 0
M  V30 1646 H 160.879 -2.94576 1.35631 0
M  V30 1647 H 160.664 -2.45115 3.06041 0
M  V30 1648 H 162.154 -3.30287 2.5554 0
M  V30 1649 N 162.591 -1.51276 -0.441967 0
M  V30 1650 C 163.819 -1.67516 -1.21434 0
M  V30 1651 C 164.234 -0.37055 -1.85128 0
M  V30 1652 O 163.591 0.650498 -1.70513 0
M  V30 1653 C 163.642 -2.78748 -2.30177 0
M  V30 1654 O 163.363 -4.04154 -1.69089 0
M  V30 1655 C 164.864 -3.06217 -3.20541 0
M  V30 1656 H 162.084 -0.562276 -0.366178 0
M  V30 1657 H 164.628 -1.97666 -0.524244 0
M  V30 1658 H 162.783 -2.5121 -2.94911 0
M  V30 1659 H 163.197 -4.65894 -2.40922 0
M  V30 1660 H 164.671 -3.8764 -3.92987 0
M  V30 1661 H 165.148 -2.18439 -3.81026 0
M  V30 1662 H 165.754 -3.35397 -2.61513 0
M  V30 1663 N 164.069 0.697108 -1.41344 0
M  V30 1664 C 165.032 1.79281 -1.42797 0
M  V30 1665 C 166.032 1.57607 -0.318837 0
M  V30 1666 O 167.222 1.64309 -0.578642 0
M  V30 1667 C 164.354 3.17632 -1.23785 0
M  V30 1668 H 165.547 1.79385 -2.40335 0
M  V30 1669 H 163.1 0.904582 -1.27464 0
M  V30 1670 H 163.835 3.23167 -0.270814 0
M  V30 1671 H 163.62 3.34765 -2.04144 0
M  V30 1672 H 165.11 3.97617 -1.27633 0
M  V30 1673 N 165.547 1.27147 0.931209 0
M  V30 1674 C 166.772 1.16191 1.71797 0
M  V30 1675 C 167.197 -0.278004 1.86034 0
M  V30 1676 O 166.555 -1.20137 1.35782 0
M  V30 1677 C 166.603 1.84673 3.09723 0
M  V30 1678 O 165.707 1.14231 3.96264 0
M  V30 1679 H 165.048 0.404303 0.526721 0
M  V30 1680 H 167.578 1.68152 1.1656 0
M  V30 1681 H 167.588 1.91893 3.60057 0
M  V30 1682 H 166.263 2.89421 2.98677 0
M  V30 1683 H 164.84 1.15056 3.54706 0
M  V30 1684 N 167.025 -1.13721 1.09112 0
M  V30 1685 C 168.271 -1.85413 0.836283 0
M  V30 1686 C 168.626 -1.8175 -0.631249 0
M  V30 1687 O 167.919 -1.24238 -1.45861 0
M  V30 1688 C 168.113 -3.32861 1.30146 0
M  V30 1689 C 167.942 -3.50882 2.81268 0
M  V30 1690 C 166.712 -3.65312 3.49106 0
M  V30 1691 C 168.91 -3.47196 3.7942 0
M  V30 1692 N 166.892 -3.71563 4.88686 0
M  V30 1693 C 168.263 -3.59777 5.04936 0
M  V30 1694 C 170.318 -3.30577 3.72321 0
M  V30 1695 C 169.021 -3.57455 6.24194 0
M  V30 1696 C 171.047 -3.29562 4.91063 0
M  V30 1697 C 170.409 -3.42691 6.15421 0
M  V30 1698 H 166.508 -0.694812 0.358832 0
M  V30 1699 H 169.092 -1.36246 1.39087 0
M  V30 1700 H 167.263 -3.80602 0.774361 0
M  V30 1701 H 168.995 -3.92346 0.99229 0
M  V30 1702 H 165.75 -3.6685 2.9953 0
M  V30 1703 H 166.174 -3.78387 5.61384 0
M  V30 1704 H 170.816 -3.19332 2.77105 0
M  V30 1705 H 168.534 -3.67475 7.19714 0
M  V30 1706 H 172.12 -3.17905 4.87266 0
M  V30 1707 H 171 -3.41862 7.05762 0
M  V30 1708 N 168.503 -0.877838 -1.30888 0
M  V30 1709 C 169.749 -0.493426 -1.96706 0
M  V30 1710 C 170.082 0.953504 -1.6918 0
M  V30 1711 O 169.357 1.67266 -0.992594 0
M  V30 1712 C 169.64 -0.760429 -3.51979 0
M  V30 1713 C 169.493 -2.25747 -3.89048 0
M  V30 1714 C 170.812 -0.232148 -4.39487 0
M  V30 1715 H 167.931 -0.180746 -0.714493 0
M  V30 1716 H 170.573 -1.10052 -1.54882 0
M  V30 1717 H 168.723 -0.243715 -3.87735 0
M  V30 1718 H 170.395 -2.84204 -3.63354 0
M  V30 1719 H 168.638 -2.72694 -3.37373 0
M  V30 1720 H 169.309 -2.39491 -4.97341 0
M  V30 1721 H 171.785 -0.674314 -4.106 0
M  V30 1722 H 170.661 -0.448355 -5.47066 0
M  V30 1723 H 170.922 0.866297 -4.33529 0
M  V30 1724 N 169.982 1.44106 -0.638065 0
M  V30 1725 C 170.945 2.29138 0.0531013 0
M  V30 1726 C 171.945 1.41409 0.765506 0
M  V30 1727 O 173.135 1.63206 0.609046 0
M  V30 1728 C 170.267 3.23144 1.08584 0
M  V30 1729 H 171.46 2.91739 -0.694883 0
M  V30 1730 H 169.013 1.51134 -0.398538 0
M  V30 1731 H 169.748 2.65408 1.86357 0
M  V30 1732 H 169.533 3.87804 0.578852 0
M  V30 1733 H 171.023 3.87004 1.56899 0
M  V30 1734 N 171.46 0.379036 1.52974 0
M  V30 1735 C 172.685 -0.209353 2.06341 0
M  V30 1736 C 173.11 -1.40583 1.24972 0
M  V30 1737 O 172.468 -1.79246 0.272155 0
M  V30 1738 C 172.516 -0.567786 3.56102 0
M  V30 1739 O 171.62 -1.66318 3.77375 0
M  V30 1740 H 170.961 -0.0272919 0.663439 0
M  V30 1741 H 173.491 0.543536 1.97248 0
M  V30 1742 H 173.501 -0.835003 3.99364 0
M  V30 1743 H 172.176 0.307013 4.14765 0
M  V30 1744 H 170.753 -1.39048 3.46006 0
M  V30 1745 N 172.938 -1.57226 0.108567 0
M  V30 1746 C 174.178 -1.96717 -0.555155 0
M  V30 1747 C 174.542 -0.990003 -1.64508 0
M  V30 1748 O 175.743 -1.2739 -2.36696 0
M  V30 1749 C 174.014 -3.40575 -1.08367 0
M  V30 1750 S 175.573 -4.02072 -1.75737 0
M  V30 1751 H 172.391 -0.687638 -0.180762 0
M  V30 1752 H 174.993 -1.94563 0.191172 0
M  V30 1753 H 173.697 -4.0945 -0.279092 0
M  V30 1754 H 173.228 -3.46356 -1.86551 0
M  V30 1755 H 175.243 -3.91977 -3.04251 0
M  V30 1756 N 174.416 0.165178 -1.56732 0
M  V30 1757 C 175.646 0.894919 -1.86212 0
M  V30 1758 C 176.054 1.76066 -0.692627 0
M  V30 1759 O 175.397 1.80387 0.347303 0
M  V30 1760 C 175.459 1.8174 -3.10179 0
M  V30 1761 C 175.123 1.13064 -4.42793 0
M  V30 1762 C 176.12 0.493169 -5.17556 0
M  V30 1763 C 173.805 1.12556 -4.89527 0
M  V30 1764 C 175.799 -0.140209 -6.37246 0
M  V30 1765 C 173.486 0.488366 -6.09145 0
M  V30 1766 C 174.484 -0.143411 -6.82849 0
M  V30 1767 O 174.172 -0.77055 -8.00199 0
M  V30 1768 H 173.904 0.265114 -0.621844 0
M  V30 1769 H 176.458 0.168242 -2.0471 0
M  V30 1770 H 174.688 2.58455 -2.87642 0
M  V30 1771 H 176.377 2.4175 -3.26055 0
M  V30 1772 H 177.143 0.489023 -4.82528 0
M  V30 1773 H 173.022 1.60672 -4.32094 0
M  V30 1774 H 176.566 -0.633932 -6.94714 0
M  V30 1775 H 172.463 0.490116 -6.43637 0
M  V30 1776 H 173.231 -0.670408 -8.1575 0
M  V30 1777 N 175.894 1.51508 0.433938 0
M  V30 1778 C 176.842 1.73646 1.54757 0
M  V30 1779 C 177.836 0.602854 1.5831 0
M  V30 1780 O 179.042 0.784318 1.62014 0
M  V30 1781 H 175.417 0.548718 0.51421 0
M  V30 1782 H 177.388 2.66991 1.33261 0
M  V30 1783 C 176.137 1.88172 2.92381 0
M  V30 1784 H 175.46 2.74808 2.90381 0
M  V30 1785 H 176.9 2.07672 3.6966 0
M  V30 1786 C 175.359 0.64239 3.30719 0
M  V30 1787 O 175.889 -0.201362 4.01195 0
M  V30 1788 N 174.095 0.485489 2.86516 0
M  V30 1789 H 173.642 1.17318 2.29334 0
M  V30 1790 H 173.6 -0.342482 3.12529 0
M  V30 1791 N 177.372 -0.689602 1.41712 0
M  V30 1792 C 178.783 -1.26973 1.36875 0
M  V30 1793 C 179.134 -1.96124 0.054748 0
M  V30 1794 O 178.259 -1.99141 -0.84687 0
M  V30 1795 C 178.854 -2.30912 2.47922 0
M  V30 1796 C 177.413 -2.84486 2.46464 0
M  V30 1797 C 176.56 -1.58603 2.27465 0
M  V30 1798 H 179.511 -0.48396 1.51141 0
M  V30 1799 H 179.532 -3.12331 2.17323 0
M  V30 1800 H 179.044 -1.80554 3.43543 0
M  V30 1801 H 177.145 -3.39005 1.54617 0
M  V30 1802 H 177.258 -3.34511 3.42986 0
M  V30 1803 H 175.622 -1.84632 1.75451 0
M  V30 1804 H 176.405 -1.10233 3.25121 0
M  V30 1805 N 178.85 -1.27639 -0.924453 0
M  V30 1806 C 180.078 -1.16989 -1.70649 0
M  V30 1807 C 180.493 0.272869 -1.86818 0
M  V30 1808 O 179.85 1.18549 -1.38753 0
M  V30 1809 C 179.901 -1.85229 -3.10439 0
M  V30 1810 O 179.622 -3.23868 -2.95028 0
M  V30 1811 C 181.123 -1.80746 -4.04779 0
M  V30 1812 H 178.343 -0.406595 -0.53378 0
M  V30 1813 H 180.887 -1.68569 -1.15778 0
M  V30 1814 H 179.042 -1.37545 -3.6216 0
M  V30 1815 H 179.456 -3.57889 -3.83426 0
M  V30 1816 H 180.93 -2.33101 -5.00368 0
M  V30 1817 H 181.407 -0.777499 -4.32263 0
M  V30 1818 H 182.013 -2.28059 -3.58984 0
M  V30 1819 N 180.328 1.1314 -1.09713 0
M  V30 1820 C 181.605 1.80762 -0.747302 0
M  V30 1821 C 181.985 1.96663 0.767265 0
M  V30 1822 O 181.333 1.53706 1.69076 0
M  V30 1823 C 181.543 3.15606 -1.48975 0
M  V30 1824 C 182.891 3.90914 -1.65746 0
M  V30 1825 O 183.915 3.25239 -1.45251 0
M  V30 1826 O 182.774 5.08718 -1.9967 0
M  V30 1827 H 179.868 0.782103 -0.268782 0
M  V30 1828 H 182.414 1.20041 -1.19951 0
M  V30 1829 H 181.186 2.99278 -2.52088 0
M  V30 1830 H 180.809 3.84029 -1.02991 0
M  V30 1831 N 181.806 0.884767 1.30421 0
M  V30 1832 C 183.054 0.502112 1.95763 0
M  V30 1833 C 183.375 -0.951815 1.70192 0
M  V30 1834 O 182.645 -1.6692 1.0254 0
M  V30 1835 H 181.225 0.182694 0.724315 0
M  V30 1836 H 183.887 1.1278 1.58955 0
M  V30 1837 H 182.983 0.672188 3.04775 0
M  V30 1838 N 183.284 -1.43765 0.645699 0
M  V30 1839 C 184.216 -2.29027 -0.0890605 0
M  V30 1840 C 185.229 -1.42093 -0.794563 0
M  V30 1841 O 186.418 -1.66104 -0.653575 0
M  V30 1842 C 183.518 -3.18831 -1.14891 0
M  V30 1843 C 182.691 -4.34261 -0.523043 0
M  V30 1844 C 181.75 -5.04994 -1.47878 0
M  V30 1845 O 180.776 -5.6052 -0.990277 0
M  V30 1846 N 181.978 -5.07795 -2.81291 0
M  V30 1847 H 184.743 -2.92727 0.64272 0
M  V30 1848 H 182.304 -1.54373 0.487924 0
M  V30 1849 H 184.296 -3.63015 -1.78892 0
M  V30 1850 H 182.866 -2.56782 -1.78275 0
M  V30 1851 H 182.086 -3.93088 0.295896 0
M  V30 1852 H 183.374 -5.08728 -0.0858147 0
M  V30 1853 H 182.772 -4.64042 -3.23546 0
M  V30 1854 H 181.329 -5.55721 -3.40614 0
M  V30 1855 N 184.763 -0.387143 -1.52771 0
M  V30 1856 C 185.988 0.198407 -2.06449 0
M  V30 1857 C 186.413 1.39918 -1.25716 0
M  V30 1858 O 185.771 1.79099 -0.281657 0
M  V30 1859 C 185.819 0.548893 -3.56398 0
M  V30 1860 O 184.923 1.64315 -3.78252 0
M  V30 1861 H 184.264 0.0237731 -0.663574 0
M  V30 1862 H 186.794 -0.553989 -1.96957 0
M  V30 1863 H 186.804 0.813812 -3.99801 0
M  V30 1864 H 185.479 -0.329005 -4.14597 0
M  V30 1865 H 184.056 1.37211 -3.46738 0
M  V30 1866 N 186.241 1.57166 -0.116904 0
M  V30 1867 C 187.471 1.99184 0.548586 0
M  V30 1868 C 187.879 0.995436 1.60897 0
M  V30 1869 O 187.222 -0.0201293 1.83689 0
M  V30 1870 C 187.284 3.37611 1.23526 0
M  V30 1871 C 186.948 4.55857 0.323077 0
M  V30 1872 C 187.945 5.18056 -0.437476 0
M  V30 1873 C 185.63 5.01751 0.234761 0
M  V30 1874 C 187.624 6.24536 -1.2741 0
M  V30 1875 C 185.311 6.08093 -0.605496 0
M  V30 1876 C 186.309 6.69352 -1.35856 0
M  V30 1877 O 185.997 7.7364 -2.18487 0
M  V30 1878 H 185.729 0.659148 0.149999 0
M  V30 1879 H 188.283 2.0443 -0.199428 0
M  V30 1880 H 186.513 3.29113 2.0303 0
M  V30 1881 H 188.202 3.63932 1.79745 0
M  V30 1882 H 188.968 4.83516 -0.379105 0
M  V30 1883 H 184.847 4.53817 0.810601 0
M  V30 1884 H 188.391 6.72281 -1.86237 0
M  V30 1885 H 184.288 6.42063 -0.665268 0
M  V30 1886 H 185.056 7.90727 -2.11406 0
M  V30 1887 N 187.719 -0.156864 1.56817 0
M  V30 1888 C 188.649 -1.19589 2.00551 0
M  V30 1889 C 189.63 -1.4536 0.883426 0
M  V30 1890 O 190.815 -1.56449 1.15054 0
M  V30 1891 C 187.945 -2.53143 2.37773 0
M  V30 1892 C 186.899 -2.41913 3.53075 0
M  V30 1893 C 186.225 -3.80088 3.76081 0
M  V30 1894 C 187.525 -1.91157 4.86062 0
M  V30 1895 H 189.219 -0.832293 2.87599 0
M  V30 1896 H 186.765 -0.398918 1.38364 0
M  V30 1897 H 188.718 -3.26047 2.66967 0
M  V30 1898 H 187.442 -2.91319 1.4765 0
M  V30 1899 H 186.101 -1.71462 3.24031 0
M  V30 1900 H 185.749 -4.15683 2.83225 0
M  V30 1901 H 185.449 -3.73439 4.53671 0
M  V30 1902 H 186.973 -4.54556 4.0769 0
M  V30 1903 H 188.387 -2.53846 5.14038 0
M  V30 1904 H 186.784 -1.95422 5.67389 0
M  V30 1905 H 187.854 -0.866673 4.77092 0
M  V30 1906 N 189.197 -1.51736 -0.425897 0
M  V30 1907 C 190.446 -1.64201 -1.17136 0
M  V30 1908 C 190.759 -0.369705 -1.92074 0
M  V30 1909 O 191.965 -0.373898 -2.68913 0
M  V30 1910 C 190.421 -2.90035 -2.13091 0
M  V30 1911 C 190.029 -4.24312 -1.43747 0
M  V30 1912 C 191.773 -3.1186 -2.87999 0
M  V30 1913 C 189.68 -5.41285 -2.38253 0
M  V30 1914 H 188.61 -0.611624 -0.440944 0
M  V30 1915 H 191.261 -1.78212 -0.437328 0
M  V30 1916 H 189.643 -2.69684 -2.89977 0
M  V30 1917 H 190.817 -4.55086 -0.723408 0
M  V30 1918 H 189.132 -4.08456 -0.809465 0
M  V30 1919 H 191.729 -3.96427 -3.58817 0
M  V30 1920 H 192.072 -2.25403 -3.49999 0
M  V30 1921 H 192.605 -3.32605 -2.18217 0
M  V30 1922 H 189.344 -6.30037 -1.80925 0
M  V30 1923 H 188.864 -5.14872 -3.0768 0
M  V30 1924 H 190.543 -5.73694 -2.99139 0
M  V30 1925 N 190.675 0.682077 -1.42076 0
M  V30 1926 C 191.638 1.77756 -1.44691 0
M  V30 1927 C 192.638 1.5726 -0.335535 0
M  V30 1928 O 193.828 1.63686 -0.596037 0
M  V30 1929 C 190.96 3.16301 -1.27146 0
M  V30 1930 H 192.153 1.76826 -2.42224 0
M  V30 1931 H 189.706 0.891012 -1.28416 0
M  V30 1932 H 190.441 3.22862 -0.305075 0
M  V30 1933 H 190.226 3.32581 -2.07683 0
M  V30 1934 H 191.716 3.96241 -1.31843 0
M  V30 1935 N 192.153 1.28127 0.917671 0
M  V30 1936 C 193.383 1.17722 1.6978 0
M  V30 1937 C 193.791 -0.267261 1.87303 0
M  V30 1938 O 193.134 -1.19286 1.39702 0
M  V30 1939 C 193.196 1.79958 3.11216 0
M  V30 1940 C 192.86 3.29187 3.16993 0
M  V30 1941 C 193.857 4.25679 2.98485 0
M  V30 1942 C 191.542 3.70075 3.39632 0
M  V30 1943 C 193.536 5.61035 3.02521 0
M  V30 1944 C 191.223 5.05557 3.433 0
M  V30 1945 C 192.221 6.00847 3.24764 0
M  V30 1946 O 191.909 7.33859 3.28187 0
M  V30 1947 H 191.641 0.409788 0.537634 0
M  V30 1948 H 194.195 1.69694 1.15728 0
M  V30 1949 H 192.425 1.22475 3.66793 0
M  V30 1950 H 194.114 1.64125 3.71238 0
M  V30 1951 H 194.88 3.95426 2.80826 0
M  V30 1952 H 190.759 2.96373 3.53106 0
M  V30 1953 H 194.303 6.35388 2.87971 0
M  V30 1954 H 190.2 5.35462 3.60486 0
M  V30 1955 H 190.968 7.42436 3.44575 0
M  V30 1956 N 193.631 -1.12557 1.10312 0
M  V30 1957 C 195.047 -1.36036 0.834649 0
M  V30 1958 C 195.247 -1.93946 -0.546539 0
M  V30 1959 O 194.303 -2.16484 -1.29966 0
M  V30 1960 C 195.616 -2.30312 1.9333 0
M  V30 1961 C 197.164 -2.43906 1.9616 0
M  V30 1962 C 197.639 -3.41496 3.05195 0
M  V30 1963 N 199.13 -3.49053 3.04494 0
M  V30 1964 C 199.865 -4.24471 3.85502 0
M  V30 1965 N 199.361 -5.02966 4.76442 0
M  V30 1966 N 201.154 -4.19864 3.73725 0
M  V30 1967 H 193.305 -0.733246 1.99342 0
M  V30 1968 H 195.568 -0.385234 0.866198 0
M  V30 1969 H 195.274 -1.94933 2.92735 0
M  V30 1970 H 195.148 -3.30421 1.81939 0
M  V30 1971 H 197.535 -2.78567 0.973886 0
M  V30 1972 H 197.616 -1.4369 2.11629 0
M  V30 1973 H 197.26 -3.07565 4.04186 0
M  V30 1974 H 197.19 -4.41539 2.86968 0
M  V30 1975 H 199.681 -2.93053 2.38596 0
M  V30 1976 H 199.994 -5.57846 5.34815 0
M  V30 1977 H 198.339 -5.02167 4.80472 0
M  V30 1978 H 201.53 -3.57623 3.02032 0
M  V30 1979 H 201.703 -4.78386 4.37093 0
M  V30 1980 N 195.109 -0.891671 -1.2995 0
M  V30 1981 C 196.386 -0.433307 -1.9074 0
M  V30 1982 C 196.766 1.08646 -1.80995 0
M  V30 1983 O 196.114 1.92476 -1.23147 0
M  V30 1984 C 196.324 -0.938895 -3.36134 0
M  V30 1985 C 197.672 -0.977829 -4.13187 0
M  V30 1986 O 198.696 -0.886015 -3.45005 0
M  V30 1987 O 197.555 -1.11453 -5.35015 0
M  V30 1988 H 194.649 -0.133699 -0.816121 0
M  V30 1989 H 197.195 -0.981011 -1.38471 0
M  V30 1990 H 195.967 -1.98281 -3.37343 0
M  V30 1991 H 195.59 -0.37074 -3.95868 0
M  V30 1992 N 196.587 1.43421 -0.653314 0
M  V30 1993 C 197.827 2.03689 -0.170346 0
M  V30 1994 C 198.191 1.50427 1.19314 0
M  V30 1995 O 199.392 2.0234 1.76952 0
M  V30 1996 C 197.663 3.56946 -0.180183 0
M  V30 1997 S 199.222 4.38171 0.234925 0
M  V30 1998 H 196.04 0.707345 -0.0719976 0
M  V30 1999 H 198.642 1.75486 -0.86167 0
M  V30 2000 H 197.346 3.93212 -1.17526 0
M  V30 2001 H 196.877 3.89791 0.531675 0
M  V30 2002 H 198.892 4.73808 1.47378 0
M  V30 2003 N 198.065 0.39524 1.52563 0
M  V30 2004 C 199.305 -0.184744 2.03563 0
M  V30 2005 C 199.669 -1.43548 1.27507 0
M  V30 2006 O 200.87 -2.093 1.68662 0
M  V30 2007 C 199.141 -0.440294 3.54678 0
M  V30 2008 S 200.7 -0.989712 4.27493 0
M  V30 2009 H 197.518 -0.0515075 0.709132 0
M  V30 2010 H 200.12 0.544957 1.87751 0
M  V30 2011 H 198.824 0.477005 4.07618 0
M  V30 2012 H 198.355 -1.19825 3.74707 0
M  V30 2013 H 200.37 -2.27155 4.41152 0
M  V30 2014 N 199.544 -1.57102 0.125237 0
M  V30 2015 C 200.792 -1.95021 -0.530198 0
M  V30 2016 C 201.113 -1.00982 -1.66816 0
M  V30 2017 O 200.383 -0.0672693 -1.95784 0
M  V30 2018 H 198.963 -0.720046 -0.198853 0
M  V30 2019 H 201.625 -1.93916 0.19564 0
M  V30 2020 H 200.721 -2.98211 -0.920681 0
M  V30 2021 N 201.022 0.148545 -1.56898 0
M  V30 2022 C 202.252 0.875118 -1.8715 0
M  V30 2023 C 202.66 1.75322 -0.711262 0
M  V30 2024 O 202.003 1.80745 0.328151 0
M  V30 2025 C 202.065 1.7844 -3.12089 0
M  V30 2026 C 201.729 1.08361 -4.43967 0
M  V30 2027 C 202.726 0.438247 -5.1805 0
M  V30 2028 C 200.411 1.07358 -4.90693 0
M  V30 2029 C 202.405 -0.20779 -6.37061 0
M  V30 2030 C 200.092 0.42373 -6.09629 0
M  V30 2031 C 201.09 -0.215829 -6.82659 0
M  V30 2032 O 200.778 -0.855378 -7.99336 0
M  V30 2033 H 200.51 0.258504 -0.624621 0
M  V30 2034 H 203.064 0.14652 -2.04877 0
M  V30 2035 H 201.294 2.55389 -2.90367 0
M  V30 2036 H 202.983 2.38279 -3.286 0
M  V30 2037 H 203.749 0.437817 -4.8302 0
M  V30 2038 H 199.628 1.5608 -4.33774 0
M  V30 2039 H 203.172 -0.70758 -6.94002 0
M  V30 2040 H 199.069 0.421822 -6.4412 0
M  V30 2041 H 199.837 -0.756892 -8.14993 0
M  V30 2042 N 202.5 1.5196 0.417844 0
M  V30 2043 C 203.448 1.75278 1.52907 0
M  V30 2044 C 204.442 0.619611 1.57662 0
M  V30 2045 O 205.648 0.801457 1.61173 0
M  V30 2046 H 202.023 0.554141 0.508362 0
M  V30 2047 H 203.994 2.68389 1.30422 0
M  V30 2048 C 202.743 1.91262 2.90369 0
M  V30 2049 H 202.066 2.77872 2.8745 0
M  V30 2050 H 203.506 2.11581 3.67436 0
M  V30 2051 C 201.965 0.677431 3.30019 0
M  V30 2052 O 202.495 -0.158799 4.01386 0
M  V30 2053 N 200.701 0.515851 2.85985 0
M  V30 2054 H 200.248 1.19744 2.28077 0
M  V30 2055 H 200.206 -0.309315 3.12875 0
M  V30 2056 N 203.978 -0.674533 1.42435 0
M  V30 2057 C 205.224 -1.43671 1.43131 0
M  V30 2058 C 205.557 -1.94142 0.0476021 0
M  V30 2059 O 204.832 -1.70924 -0.928188 0
M  V30 2060 C 205.115 -2.63355 2.45594 0
M  V30 2061 C 204.968 -2.18514 3.93156 0
M  V30 2062 C 206.287 -3.65571 2.45043 0
M  V30 2063 H 203.406 -0.521077 0.521198 0
M  V30 2064 H 206.048 -0.766551 1.7385 0
M  V30 2065 H 204.198 -3.2053 2.19528 0
M  V30 2066 H 205.87 -1.66504 4.30202 0
M  V30 2067 H 204.113 -1.50086 4.07009 0
M  V30 2068 H 204.784 -3.04484 4.60428 0
M  V30 2069 H 207.26 -3.18113 2.68223 0
M  V30 2070 H 206.136 -4.46893 3.18713 0
M  V30 2071 H 206.397 -4.16716 1.47649 0
M  V30 2072 N 205.456 -1.28612 -0.910864 0
M  V30 2073 C 206.681 -1.1891 -1.69927 0
M  V30 2074 C 207.106 0.248372 -1.86453 0
M  V30 2075 O 206.464 1.17961 -1.37676 0
M  V30 2076 C 206.512 -1.89578 -3.06745 0
M  V30 2077 O 205.616 -1.20521 -3.94396 0
M  V30 2078 H 204.957 -0.412632 -0.520222 0
M  V30 2079 H 207.487 -1.69985 -1.1387 0
M  V30 2080 H 207.497 -1.97597 -3.56958 0
M  V30 2081 H 206.172 -2.94136 -2.94035 0
M  V30 2082 H 204.749 -1.20684 -3.52831 0
M  V30 2083 N 206.934 1.1197 -1.10907 0
M  V30 2084 C 208.182 1.83225 -0.852819 0
M  V30 2085 C 208.503 1.84769 0.623341 0
M  V30 2086 O 207.773 1.3143 1.45269 0
M  V30 2087 H 206.353 0.67849 -0.312507 0
M  V30 2088 H 209.015 1.3556 -1.40033 0
M  V30 2089 H 208.111 2.87265 -1.22005 0
M  V30 2090 N 208.412 0.89855 1.29475 0
M  V30 2091 C 209.828 0.594483 1.48115 0
M  V30 2092 C 210.028 -0.86431 1.82022 0
M  V30 2093 O 209.084 -1.64457 1.91599 0
M  V30 2094 C 210.397 1.51932 2.59494 0
M  V30 2095 C 211.945 1.5244 2.7337 0
M  V30 2096 C 212.42 2.43548 3.87877 0
M  V30 2097 N 213.911 2.41589 3.95208 0
M  V30 2098 C 214.646 3.08789 4.83153 0
M  V30 2099 N 214.142 3.85265 5.75798 0
M  V30 2100 N 215.935 2.97952 4.76635 0
M  V30 2101 H 208.086 1.84207 1.05742 0
M  V30 2102 H 210.349 0.789251 0.525154 0
M  V30 2103 H 210.055 2.55865 2.41301 0
M  V30 2104 H 209.929 1.23899 3.56271 0
M  V30 2105 H 212.316 0.492518 2.90961 0
M  V30 2106 H 212.397 1.8451 1.77172 0
M  V30 2107 H 212.041 3.46829 3.71041 0
M  V30 2108 H 211.971 2.08788 4.83441 0
M  V30 2109 H 214.462 1.86025 3.28943 0
M  V30 2110 H 214.775 4.33598 6.39697 0
M  V30 2111 H 213.12 3.89371 5.75687 0
M  V30 2112 H 216.311 2.37723 4.03244 0
M  V30 2113 H 216.484 3.50599 5.44962 0
M  V30 2114 N 209.89 -1.43072 0.660911 0
M  V30 2115 C 211.13 -2.03596 0.181146 0
M  V30 2116 C 211.494 -1.51057 -1.18515 0
M  V30 2117 O 212.695 -2.03275 -1.75877 0
M  V30 2118 C 210.966 -3.56845 0.19911 0
M  V30 2119 S 212.525 -4.38289 -0.211684 0
M  V30 2120 H 209.343 -0.706954 0.0757479 0
M  V30 2121 H 211.945 -1.75027 0.870965 0
M  V30 2122 H 210.649 -3.92583 1.1961 0
M  V30 2123 H 210.18 -3.90067 -0.510996 0
M  V30 2124 H 212.195 -4.74583 -1.44863 0
M  V30 2125 N 211.368 -0.403325 -1.52352 0
M  V30 2126 C 212.779 0.0675782 -1.86578 0
M  V30 2127 C 213.13 1.44941 -1.32236 0
M  V30 2128 O 212.255 2.06112 -0.659307 0
M  V30 2129 C 212.85 0.129404 -3.38553 0
M  V30 2130 C 211.409 0.544629 -3.72439 0
M  V30 2131 C 210.556 -0.284551 -2.75836 0
M  V30 2132 H 213.507 -0.620631 -1.46061 0
M  V30 2133 H 213.528 0.94581 -3.68558 0
M  V30 2134 H 213.04 -0.87645 -3.78074 0
M  V30 2135 H 211.141 1.55734 -3.38493 0
M  V30 2136 H 211.254 0.293046 -4.78203 0
M  V30 2137 H 209.618 0.252258 -2.53448 0
M  V30 2138 H 210.401 -1.28865 -3.18196 0
M  V30 2139 N 212.846 1.57033 -0.133567 0
M  V30 2140 C 214.086 1.97575 0.523789 0
M  V30 2141 C 214.45 1.01605 1.62912 0
M  V30 2142 O 215.651 1.3114 2.3464 0
M  V30 2143 C 213.922 3.42256 1.02935 0
M  V30 2144 S 215.481 4.04817 1.69319 0
M  V30 2145 H 212.299 0.690427 0.169799 0
M  V30 2146 H 214.901 1.94234 -0.222101 0
M  V30 2147 H 213.605 4.09842 0.213917 0
M  V30 2148 H 213.136 3.4928 1.81017 0
M  V30 2149 H 215.151 3.96767 2.97977 0
M  V30 2150 N 214.325 -0.140222 1.56975 0
M  V30 2151 C 215.255 -1.17456 2.01808 0
M  V30 2152 C 216.236 -1.44415 0.898794 0
M  V30 2153 O 217.421 -1.5522 1.16707 0
M  V30 2154 C 214.551 -2.50607 2.40444 0
M  V30 2155 C 213.505 -2.38155 3.55621 0
M  V30 2156 C 212.831 -3.76078 3.80091 0
M  V30 2157 C 214.131 -1.85991 4.88062 0
M  V30 2158 H 215.825 -0.801743 2.88466 0
M  V30 2159 H 213.371 -0.38422 1.38779 0
M  V30 2160 H 215.324 -3.23197 2.7041 0
M  V30 2161 H 214.048 -2.89737 1.50732 0
M  V30 2162 H 212.707 -1.68016 3.25832 0
M  V30 2163 H 212.355 -4.12656 2.87618 0
M  V30 2164 H 212.055 -3.68606 4.57606 0
M  V30 2165 H 213.579 -4.50206 4.12488 0
M  V30 2166 H 214.993 -2.4838 5.16701 0
M  V30 2167 H 213.39 -1.89393 5.6943 0
M  V30 2168 H 214.46 -0.816023 4.77984 0
M  V30 2169 N 215.803 -1.52179 -0.40978 0
M  V30 2170 C 216.751 -1.76086 -1.51975 0
M  V30 2171 C 217.745 -0.627964 -1.57331 0
M  V30 2172 O 218.951 -0.809993 -1.60745 0
M  V30 2173 H 215.326 -0.556829 -0.505416 0
M  V30 2174 H 217.297 -2.69077 -1.28996 0
M  V30 2175 C 216.046 -1.92799 -2.8935 0
M  V30 2176 H 215.369 -2.79392 -2.85972 0
M  V30 2177 H 216.809 -2.13527 -3.66309 0
M  V30 2178 C 215.268 -0.694923 -3.29655 0
M  V30 2179 O 215.798 0.13751 -4.01465 0
M  V30 2180 N 214.004 -0.53101 -2.85707 0
M  V30 2181 H 213.551 -1.20952 -2.27439 0
M  V30 2182 H 213.509 0.292718 -3.13034 0
M  V30 2183 N 217.281 0.66697 -1.42791 0
M  V30 2184 C 218.509 1.45505 -1.47091 0
M  V30 2185 C 218.924 1.8861 -0.0845873 0
M  V30 2186 O 218.281 1.58632 0.90234 0
M  V30 2187 C 218.332 2.69906 -2.40485 0
M  V30 2188 O 218.053 2.28608 -3.73725 0
M  V30 2189 C 219.554 3.63396 -2.53886 0
M  V30 2190 H 216.774 0.447459 -0.500022 0
M  V30 2191 H 219.318 0.818866 -1.8739 0
M  V30 2192 H 217.473 3.29696 -2.03419 0
M  V30 2193 H 217.887 3.08997 -4.23817 0
M  V30 2194 H 219.361 4.47387 -3.2334 0
M  V30 2195 H 219.838 4.09824 -1.57927 0
M  V30 2196 H 220.444 3.09495 -2.91706 0
M  V30 2197 N 218.759 1.29093 0.90403 0
M  V30 2198 C 219.669 1.15727 2.0407 0
M  V30 2199 C 220.685 0.0815308 1.73809 0
M  V30 2200 O 221.861 0.292749 1.99261 0
M  V30 2201 C 218.926 0.830424 3.36608 0
M  V30 2202 C 217.987 1.98955 3.80415 0
M  V30 2203 C 217.22 1.6782 5.06628 0
M  V30 2204 O 217.443 0.597105 5.67266 0
M  V30 2205 O 216.377 2.52486 5.46383 0
M  V30 2206 H 220.203 2.11171 2.18267 0
M  V30 2207 H 217.788 1.08504 1.027 0
M  V30 2208 H 219.67 0.662521 4.16159 0
M  V30 2209 H 218.345 -0.0942678 3.23563 0
M  V30 2210 H 217.252 2.21267 3.01648 0
M  V30 2211 H 218.585 2.89529 3.98037 0
M  V30 2212 N 220.237 -1.11381 1.11499 0
M  V30 2213 C 221.485 -1.8277 0.862524 0
M  V30 2214 C 221.806 -1.85097 -0.613534 0
M  V30 2215 O 221.076 -1.32198 -1.4457 0
M  V30 2216 H 219.656 -0.676823 0.316101 0
M  V30 2217 H 222.318 -1.34816 1.4075 0
M  V30 2218 H 221.414 -2.86614 1.23527 0
M  V30 2219 N 221.715 -0.905404 -1.28997 0
M  V30 2220 C 222.625 -0.392246 -2.31298 0
M  V30 2221 C 223.641 0.515889 -1.66176 0
M  V30 2222 O 224.817 0.404093 -1.97304 0
M  V30 2223 C 221.882 0.36686 -3.44754 0
M  V30 2224 C 220.943 -0.573485 -4.25452 0
M  V30 2225 C 220.176 0.149488 -5.33491 0
M  V30 2226 O 220.399 1.37255 -5.5364 0
M  V30 2227 O 219.333 -0.510919 -5.99728 0
M  V30 2228 H 223.159 -1.2411 -2.77183 0
M  V30 2229 H 220.744 -0.669926 -1.33538 0
M  V30 2230 H 222.626 0.795907 -4.13816 0
M  V30 2231 H 221.301 1.19169 -3.00966 0
M  V30 2232 H 220.208 -1.05176 -3.59011 0
M  V30 2233 H 221.541 -1.36489 -4.72897 0
M  V30 2234 N 223.193 1.4272 -0.668489 0
M  V30 2235 C 224.123 2.335 -0.000100175 0
M  V30 2236 C 225.104 1.50328 0.795964 0
M  V30 2237 O 226.289 1.78949 0.754385 0
M  V30 2238 C 223.419 3.33874 0.956302 0
M  V30 2239 C 222.373 4.27152 0.269278 0
M  V30 2240 C 221.699 5.17684 1.33818 0
M  V30 2241 C 222.999 5.15373 -0.847805 0
M  V30 2242 H 224.693 2.89639 -0.758244 0
M  V30 2243 H 222.239 1.39269 -0.366079 0
M  V30 2244 H 224.192 3.9629 1.43292 0
M  V30 2245 H 222.916 2.76025 1.74579 0
M  V30 2246 H 221.575 3.66123 -0.187042 0
M  V30 2247 H 221.223 4.56165 2.1195 0
M  V30 2248 H 220.923 5.80918 0.883659 0
M  V30 2249 H 222.447 5.82974 1.81586 0
M  V30 2250 H 223.861 5.7151 -0.452681 0
M  V30 2251 H 222.258 5.87407 -1.22773 0
M  V30 2252 H 223.328 4.5415 -1.69929 0
M  V30 2253 N 224.671 0.411399 1.52136 0
M  V30 2254 C 226.082 -0.0576826 1.86611 0
M  V30 2255 C 226.433 -1.44238 1.33003 0
M  V30 2256 O 225.558 -2.05759 0.670228 0
M  V30 2257 C 226.153 -0.111448 3.38617 0
M  V30 2258 C 224.712 -0.52487 3.72723 0
M  V30 2259 C 223.859 0.299176 2.75681 0
M  V30 2260 H 226.81 0.628368 1.4573 0
M  V30 2261 H 226.831 -0.926252 3.69054 0
M  V30 2262 H 226.343 0.896488 3.77604 0
M  V30 2263 H 224.444 -1.53936 3.39315 0
M  V30 2264 H 224.557 -0.267681 4.78352 0
M  V30 2265 H 222.921 -0.238814 2.53578 0
M  V30 2266 H 223.704 1.3055 3.17508 0
M  V30 2267 N 226.149 -1.5696 0.141893 0
M  V30 2268 C 227.395 -1.9625 -0.511248 0
M  V30 2269 C 227.728 -1.02654 -1.64851 0
M  V30 2270 O 227.003 -0.0679676 -1.94381 0
M  V30 2271 C 227.286 -3.45285 -1.02227 0
M  V30 2272 C 227.139 -4.49658 0.113138 0
M  V30 2273 C 228.458 -3.96698 -1.90574 0
M  V30 2274 H 225.577 -0.713567 -0.184367 0
M  V30 2275 H 228.219 -1.88698 0.222087 0
M  V30 2276 H 226.369 -3.51852 -1.64719 0
M  V30 2277 H 228.041 -4.55174 0.749302 0
M  V30 2278 H 226.284 -4.26857 0.773026 0
M  V30 2279 H 226.955 -5.51258 -0.286053 0
M  V30 2280 H 229.431 -3.92578 -1.37918 0
M  V30 2281 H 228.307 -5.01453 -2.2324 0
M  V30 2282 H 228.568 -3.3875 -2.84079 0
M  V30 2283 N 227.627 0.131896 -1.57047 0
M  V30 2284 C 228.857 0.855219 -1.88068 0
M  V30 2285 C 229.265 1.74557 -0.729817 0
M  V30 2286 O 228.608 1.81083 0.308962 0
M  V30 2287 C 228.67 1.75119 -3.13964 0
M  V30 2288 C 228.334 1.03646 -4.45091 0
M  V30 2289 C 229.331 0.383276 -5.18485 0
M  V30 2290 C 227.016 1.02148 -4.91804 0
M  V30 2291 C 229.01 -0.275347 -6.36805 0
M  V30 2292 C 226.697 0.359047 -6.10044 0
M  V30 2293 C 227.695 -0.288222 -6.82392 0
M  V30 2294 O 227.383 -0.94011 -7.98384 0
M  V30 2295 H 227.115 0.251864 -0.627328 0
M  V30 2296 H 229.669 0.124782 -2.05021 0
M  V30 2297 H 227.899 2.52295 -2.9306 0
M  V30 2298 H 229.588 2.3478 -3.31109 0
M  V30 2299 H 230.354 0.386562 -4.83457 0
M  V30 2300 H 226.233 1.5147 -4.35405 0
M  V30 2301 H 229.777 -0.781148 -6.93213 0
M  V30 2302 H 225.674 0.35348 -6.44531 0
M  V30 2303 H 226.442 -0.84329 -8.14144 0
M  V30 2304 N 229.106 1.52395 0.401703 0
M  V30 2305 C 230.522 1.41363 0.740864 0
M  V30 2306 C 230.722 0.523982 1.94568 0
M  V30 2307 O 229.778 -0.00741204 2.52499 0
M  V30 2308 C 231.091 2.84011 0.987847 0
M  V30 2309 C 232.639 2.93404 1.09011 0
M  V30 2310 C 233.114 4.37036 1.3698 0
M  V30 2311 N 234.605 4.40304 1.43829 0
M  V30 2312 C 235.34 5.48508 1.67112 0
M  V30 2313 N 234.836 6.66819 1.87949 0
M  V30 2314 N 236.629 5.36034 1.69187 0
M  V30 2315 H 228.78 2.08765 -0.391262 0
M  V30 2316 H 231.043 0.941265 -0.112798 0
M  V30 2317 H 230.749 3.51265 0.174835 0
M  V30 2318 H 230.623 3.25502 1.906 0
M  V30 2319 H 233.01 2.26325 1.8937 0
M  V30 2320 H 233.091 2.55359 0.15015 0
M  V30 2321 H 232.735 5.04676 0.571353 0
M  V30 2322 H 232.665 4.72623 2.3224 0
M  V30 2323 H 235.156 3.55024 1.29486 0
M  V30 2324 H 235.469 7.45063 2.05185 0
M  V30 2325 H 233.814 6.6987 1.85199 0
M  V30 2326 H 237.005 4.42579 1.52451 0
M  V30 2327 H 237.178 6.20434 1.86993 0
M  V30 2328 N 230.584 -0.659388 1.43143 0
M  V30 2329 C 231.995 -1.24041 1.39537 0
M  V30 2330 C 232.346 -1.95963 0.0963364 0
M  V30 2331 O 231.471 -2.00892 -0.804438 0
M  V30 2332 C 232.066 -2.25601 2.52764 0
M  V30 2333 C 230.625 -2.79195 2.52443 0
M  V30 2334 C 229.772 -1.53743 2.30778 0
M  V30 2335 H 232.723 -0.451792 1.52133 0
M  V30 2336 H 232.744 -3.07651 2.23899 0
M  V30 2337 H 232.256 -1.73226 3.47296 0
M  V30 2338 H 230.357 -3.35649 1.61773 0
M  V30 2339 H 230.47 -3.2716 3.50004 0
M  V30 2340 H 228.834 -1.80869 1.79328 0
M  V30 2341 H 229.617 -1.03312 3.27386 0
M  V30 2342 N 232.062 -1.29571 -0.897171 0
M  V30 2343 C 232.972 -1.16808 -2.03453 0
M  V30 2344 C 233.988 -0.0907471 -1.73763 0
M  V30 2345 O 235.164 -0.303312 -1.99103 0
M  V30 2346 C 232.229 -0.848264 -3.36163 0
M  V30 2347 C 231.29 -2.0097 -3.79354 0
M  V30 2348 C 230.523 -1.70505 -5.05731 0
M  V30 2349 O 230.746 -0.62718 -5.66941 0
M  V30 2350 O 229.68 -2.5538 -5.45036 0
M  V30 2351 H 233.506 -2.12325 -2.17144 0
M  V30 2352 H 231.091 -1.09047 -1.02123 0
M  V30 2353 H 232.973 -0.684581 -4.15802 0
M  V30 2354 H 231.648 0.0771071 -3.23608 0
M  V30 2355 H 230.555 -2.22863 -3.00471 0
M  V30 2356 H 231.888 -2.91636 -3.96496 0
M  V30 2357 N 233.54 1.10788 -1.12088 0
M  V30 2358 C 234.787 1.82671 -0.873931 0
M  V30 2359 C 235.115 1.85004 0.600311 0
M  V30 2360 O 234.37 1.30365 1.45957 0
M  V30 2361 C 234.669 3.29294 -1.38926 0
M  V30 2362 C 234.335 3.47113 -2.87791 0
M  V30 2363 C 232.997 3.51684 -3.28439 0
M  V30 2364 C 235.349 3.52808 -3.83635 0
M  V30 2365 C 232.677 3.59513 -4.63646 0
M  V30 2366 C 235.029 3.62169 -5.18668 0
M  V30 2367 C 233.693 3.65003 -5.58864 0
M  V30 2368 H 232.963 0.668441 -0.319794 0
M  V30 2369 H 235.61 1.30613 -1.40045 0
M  V30 2370 H 233.915 3.83894 -0.783122 0
M  V30 2371 H 235.612 3.83416 -1.17443 0
M  V30 2372 H 232.202 3.4423 -2.5535 0
M  V30 2373 H 236.386 3.4853 -3.53328 0
M  V30 2374 H 231.642 3.59987 -4.94185 0
M  V30 2375 H 235.816 3.6552 -5.92763 0
M  V30 2376 H 233.443 3.70822 -6.63623 0
M  V30 2377 N 235.018 0.912232 1.28515 0
M  V30 2378 C 235.981 0.404223 2.25607 0
M  V30 2379 C 236.981 -0.468602 1.53821 0
M  V30 2380 O 238.171 -0.271873 1.72065 0
M  V30 2381 C 235.303 -0.420653 3.38295 0
M  V30 2382 H 236.496 1.26188 2.7206 0
M  V30 2383 H 234.049 0.691495 1.40171 0
M  V30 2384 H 234.784 -1.29777 2.97201 0
M  V30 2385 H 234.569 0.204935 3.91564 0
M  V30 2386 H 236.059 -0.766971 4.10496 0
M  V30 2387 N 236.496 -1.42363 0.676048 0
M  V30 2388 C 237.444 -2.32596 -0.0131507 0
M  V30 2389 C 238.438 -1.49891 -0.789238 0
M  V30 2390 O 239.644 -1.65955 -0.697061 0
M  V30 2391 H 236.019 -0.751647 -0.0230481 0
M  V30 2392 H 237.99 -2.88421 0.765243 0
M  V30 2393 C 236.739 -3.34479 -0.949702 0
M  V30 2394 H 236.062 -3.98158 -0.361938 0
M  V30 2395 H 237.502 -4.00199 -1.4006 0
M  V30 2396 C 235.961 -2.66838 -2.05667 0
M  V30 2397 O 236.491 -2.50124 -3.14326 0
M  V30 2398 N 234.697 -2.25843 -1.82875 0
M  V30 2399 H 234.244 -2.39637 -0.945085 0
M  V30 2400 H 234.202 -1.80918 -2.5713 0
M  V30 2401 N 237.974 -0.419461 -1.51915 0
M  V30 2402 C 239.251 0.211999 -1.94448 0
M  V30 2403 C 239.631 1.61703 -1.35703 0
M  V30 2404 O 238.979 2.22102 -0.536931 0
M  V30 2405 C 239.189 0.207872 -3.4838 0
M  V30 2406 C 240.537 0.422192 -4.22496 0
M  V30 2407 O 241.561 0.286778 -3.55044 0
M  V30 2408 O 240.42 0.690009 -5.42126 0
M  V30 2409 H 237.514 0.139586 -0.815135 0
M  V30 2410 H 240.06 -0.476151 -1.62883 0
M  V30 2411 H 238.832 -0.775102 -3.83546 0
M  V30 2412 H 238.455 0.939688 -3.86336 0
M  V30 2413 N 239.452 1.56882 -0.150215 0
M  V30 2414 C 240.701 1.95403 0.500071 0
M  V30 2415 C 241.014 1.03777 1.658 0
M  V30 2416 O 242.22 1.31889 2.37313 0
M  V30 2417 C 240.676 3.4738 0.941018 0
M  V30 2418 C 240.284 4.47596 -0.190158 0
M  V30 2419 C 242.028 3.9476 1.56091 0
M  V30 2420 C 239.935 5.90787 0.269237 0
M  V30 2421 H 238.865 0.729515 0.190588 0
M  V30 2422 H 241.516 1.81988 -0.235074 0
M  V30 2423 H 239.898 3.56138 1.73152 0
M  V30 2424 H 241.072 4.50536 -0.967157 0
M  V30 2425 H 239.387 4.10151 -0.718666 0
M  V30 2426 H 241.984 4.99181 1.9163 0
M  V30 2427 H 242.327 3.36494 2.45107 0
M  V30 2428 H 242.86 3.88932 0.835249 0
M  V30 2429 H 239.599 6.52879 -0.585621 0
M  V30 2430 H 239.119 5.912 1.01204 0
M  V30 2431 H 240.798 6.42979 0.720176 0
M  V30 2432 N 240.93 -0.123565 1.57115 0
M  V30 2433 C 242.179 -0.830704 1.83799 0
M  V30 2434 C 242.492 -1.81259 0.735158 0
M  V30 2435 O 243.698 -2.56558 0.888278 0
M  V30 2436 C 242.154 -1.52802 3.25852 0
M  V30 2437 C 241.762 -0.587356 4.44133 0
M  V30 2438 C 243.506 -2.22056 3.61789 0
M  V30 2439 C 241.413 -1.28764 5.77212 0
M  V30 2440 H 240.343 -0.313967 0.685522 0
M  V30 2441 H 242.994 -0.0834359 1.8331 0
M  V30 2442 H 241.376 -2.32175 3.20797 0
M  V30 2443 H 242.55 0.172829 4.60476 0
M  V30 2444 H 240.865 -0.00201892 4.164 0
M  V30 2445 H 243.462 -2.75131 4.58483 0
M  V30 2446 H 243.805 -2.99644 2.88997 0
M  V30 2447 H 244.338 -1.49576 3.68608 0
M  V30 2448 H 241.077 -0.55314 6.53162 0
M  V30 2449 H 240.597 -2.01995 5.64764 0
M  V30 2450 H 242.276 -1.8221 6.20813 0
M  V30 2451 N 242.408 -1.52605 -0.393616 0
M  V30 2452 C 243.654 -1.68624 -1.13743 0
M  V30 2453 C 244.009 -0.418687 -1.87789 0
M  V30 2454 O 243.302 0.58747 -1.82371 0
M  V30 2455 C 243.496 -2.85721 -2.14705 0
M  V30 2456 C 243.325 -4.23742 -1.50575 0
M  V30 2457 C 242.095 -4.89033 -1.2718 0
M  V30 2458 C 244.293 -5.05293 -0.958311 0
M  V30 2459 N 242.275 -6.11048 -0.591058 0
M  V30 2460 C 243.646 -6.18673 -0.405367 0
M  V30 2461 C 245.701 -4.90517 -0.854274 0
M  V30 2462 C 244.404 -7.18895 0.241434 0
M  V30 2463 C 246.43 -5.90986 -0.221301 0
M  V30 2464 C 245.792 -7.03669 0.320894 0
M  V30 2465 H 241.891 -0.670556 -0.402342 0
M  V30 2466 H 244.475 -1.89946 -0.427607 0
M  V30 2467 H 242.646 -2.65987 -2.83029 0
M  V30 2468 H 244.378 -2.90699 -2.8156 0
M  V30 2469 H 241.133 -4.47672 -1.54554 0
M  V30 2470 H 241.557 -6.76474 -0.266862 0
M  V30 2471 H 246.199 -4.03612 -1.25926 0
M  V30 2472 H 243.917 -8.05413 0.658448 0
M  V30 2473 H 247.503 -5.81626 -0.142111 0
M  V30 2474 H 246.383 -7.80078 0.802956 0
M  V30 2475 N 243.887 0.651787 -1.4349 0
M  V30 2476 C 245.127 1.42345 -1.46688 0
M  V30 2477 C 245.491 1.91793 -0.0891023 0
M  V30 2478 O 246.692 2.688 0.00423594 0
M  V30 2479 C 244.963 2.57221 -2.48137 0
M  V30 2480 S 246.522 3.45725 -2.70221 0
M  V30 2481 H 243.34 0.485878 -0.51908 0
M  V30 2482 H 245.942 0.756578 -1.80267 0
M  V30 2483 H 244.646 2.1917 -3.46976 0
M  V30 2484 H 244.177 3.28757 -2.16061 0
M  V30 2485 H 246.192 4.53996 -2.00255 0
M  V30 2486 N 245.365 1.30045 0.890287 0
M  V30 2487 C 246.612 1.18561 1.64163 0
M  V30 2488 C 246.94 -0.260852 1.92743 0
M  V30 2489 O 246.195 -1.20376 1.54299 0
M  V30 2490 C 246.494 1.95409 2.99249 0
M  V30 2491 C 246.16 3.45066 2.90242 0
M  V30 2492 C 244.822 3.85878 2.87492 0
M  V30 2493 C 247.174 4.4039 2.78758 0
M  V30 2494 C 244.502 5.20314 2.7109 0
M  V30 2495 C 246.854 5.74928 2.63894 0
M  V30 2496 C 245.518 6.14986 2.59516 0
M  V30 2497 H 244.788 0.433846 0.600715 0
M  V30 2498 H 247.435 1.61088 1.03552 0
M  V30 2499 H 245.74 1.45501 3.63781 0
M  V30 2500 H 247.437 1.8392 3.56334 0
M  V30 2501 H 244.027 3.12631 2.93189 0
M  V30 2502 H 248.211 4.09806 2.79952 0
M  V30 2503 H 243.467 5.50449 2.66112 0
M  V30 2504 H 247.641 6.48434 2.53981 0
M  V30 2505 H 245.268 7.19104 2.46565 0
M  V30 2506 N 246.843 -1.10192 1.12674 0
M  V30 2507 C 248.091 -1.81845 0.881861 0
M  V30 2508 C 248.412 -1.85737 -0.593867 0
M  V30 2509 O 247.682 -1.33724 -1.4316 0
M  V30 2510 H 246.262 -0.673432 0.323261 0
M  V30 2511 H 248.924 -1.33316 1.42172 0
M  V30 2512 H 248.02 -2.85288 1.2656 0
M  V30 2513 N 248.321 -0.919034 -1.28029 0
M  V30 2514 C 249.284 -0.416182 -2.2539 0
M  V30 2515 C 250.284 0.460438 -1.54067 0
M  V30 2516 O 251.474 0.262744 -1.72207 0
M  V30 2517 C 248.606 0.402707 -3.38513 0
M  V30 2518 H 249.799 -1.27629 -2.71387 0
M  V30 2519 H 247.352 -0.698919 -1.39803 0
M  V30 2520 H 248.087 1.282 -2.97885 0
M  V30 2521 H 247.872 -0.225698 -3.9145 0
M  V30 2522 H 249.362 0.745191 -4.10897 0
M  V30 2523 N 249.799 1.42003 -0.683588 0
M  V30 2524 C 250.709 2.34597 -0.0109075 0
M  V30 2525 C 251.725 1.55576 0.779245 0
M  V30 2526 O 252.901 1.88107 0.719555 0
M  V30 2527 C 249.966 3.34199 0.922588 0
M  V30 2528 C 249.027 4.29115 0.125984 0
M  V30 2529 C 248.26 5.23959 1.01502 0
M  V30 2530 O 248.483 5.23952 2.25456 0
M  V30 2531 O 247.417 6.00053 0.47111 0
M  V30 2532 H 251.243 2.93675 -0.773853 0
M  V30 2533 H 248.828 1.42654 -0.443861 0
M  V30 2534 H 250.71 3.95365 1.45823 0
M  V30 2535 H 249.385 2.77582 1.66523 0
M  V30 2536 H 248.292 3.71335 -0.453969 0
M  V30 2537 H 249.625 4.88798 -0.577736 0
M  V30 2538 N 251.277 0.427512 1.51691 0
M  V30 2539 C 252.554 -0.201684 1.94557 0
M  V30 2540 C 252.934 -1.60981 1.36559 0
M  V30 2541 O 252.282 -2.21814 0.548702 0
M  V30 2542 C 252.492 -0.189394 3.48486 0
M  V30 2543 C 253.84 -0.39978 4.22714 0
M  V30 2544 O 254.864 -0.267945 3.55191 0
M  V30 2545 O 253.723 -0.661249 5.42485 0
M  V30 2546 H 250.817 -0.135261 0.815864 0
M  V30 2547 H 253.363 0.484782 1.62628 0
M  V30 2548 H 252.135 0.795431 3.8313 0
M  V30 2549 H 251.758 -0.919187 3.86829 0
M  V30 2550 N 252.755 -1.56801 0.158532 0
M  V30 2551 C 254.032 -1.88131 -0.535357 0
M  V30 2552 C 254.412 -1.06638 -1.82186 0
M  V30 2553 O 253.76 -0.156533 -2.27963 0
M  V30 2554 C 253.97 -3.39949 -0.789653 0
M  V30 2555 C 255.318 -4.09416 -1.12533 0
M  V30 2556 O 256.342 -3.45194 -0.878622 0
M  V30 2557 O 255.201 -5.22855 -1.59014 0
M  V30 2558 H 252.295 -0.780143 -0.27442 0
M  V30 2559 H 254.841 -1.68564 0.19601 0
M  V30 2560 H 253.613 -3.91115 0.120353 0
M  V30 2561 H 253.236 -3.65084 -1.57479 0
M  V30 2562 N 254.233 0.115231 -1.57178 0
M  V30 2563 C 255.196 1.12526 -1.99676 0
M  V30 2564 C 256.196 1.34095 -0.88742 0
M  V30 2565 O 257.386 1.30548 -1.15337 0
M  V30 2566 C 254.518 2.4789 -2.34015 0
M  V30 2567 H 255.711 0.759912 -2.90113 0
M  V30 2568 H 253.264 0.359648 -1.52106 0
M  V30 2569 H 253.999 2.89339 -1.4647 0
M  V30 2570 H 253.784 2.33588 -3.14927 0
M  V30 2571 H 255.274 3.20575 -2.67622 0
M  V30 2572 N 255.711 1.52812 0.385517 0
M  V30 2573 C 256.644 1.72592 1.49289 0
M  V30 2574 C 257.622 0.573819 1.52138 0
M  V30 2575 O 258.806 0.80404 1.70492 0
M  V30 2576 C 255.933 1.78669 2.87741 0
M  V30 2577 C 254.979 3.00455 3.02703 0
M  V30 2578 S 255.812 4.60366 2.73538 0
M  V30 2579 C 256.968 4.69263 4.14177 0
M  V30 2580 H 257.201 2.66248 1.32285 0
M  V30 2581 H 254.734 1.43148 0.578611 0
M  V30 2582 H 256.692 1.82855 3.67524 0
M  V30 2583 H 255.353 0.861 3.02069 0
M  V30 2584 H 254.546 3.01258 4.04054 0
M  V30 2585 H 254.148 2.94278 2.30817 0
M  V30 2586 H 256.44 4.48092 5.08153 0
M  V30 2587 H 257.383 5.71276 4.18388 0
M  V30 2588 H 257.791 3.98072 4.00249 0
M  V30 2589 N 257.189 -0.644168 1.43834 0
M  V30 2590 C 258.417 -1.43147 1.49387 0
M  V30 2591 C 258.832 -1.88452 0.114583 0
M  V30 2592 O 258.189 -1.60047 -0.876989 0
M  V30 2593 C 258.24 -2.66046 2.44748 0
M  V30 2594 O 257.961 -2.22633 3.77314 0
M  V30 2595 C 259.462 -3.59311 2.59635 0
M  V30 2596 H 256.682 -0.439447 0.507077 0
M  V30 2597 H 259.226 -0.78895 1.88669 0
M  V30 2598 H 257.381 -3.26418 2.08638 0
M  V30 2599 H 257.795 -3.02216 4.28679 0
M  V30 2600 H 259.269 -4.42187 3.30416 0
M  V30 2601 H 259.746 -4.07259 1.64427 0
M  V30 2602 H 260.352 -3.04816 2.96593 0
M  V30 2603 N 258.668 -1.30515 -0.883378 0
M  V30 2604 C 259.898 -1.22182 -1.66599 0
M  V30 2605 C 260.306 0.217507 -1.87946 0
M  V30 2606 O 259.649 1.1554 -1.42815 0
M  V30 2607 C 259.711 -1.88146 -3.06335 0
M  V30 2608 C 259.375 -3.37476 -3.08154 0
M  V30 2609 C 260.372 -4.33443 -2.87094 0
M  V30 2610 C 258.057 -3.7895 -3.29701 0
M  V30 2611 C 260.051 -5.68858 -2.8754 0
M  V30 2612 C 257.738 -5.14482 -3.29776 0
M  V30 2613 C 258.736 -6.09246 -3.0872 0
M  V30 2614 O 258.424 -7.42302 -3.08615 0
M  V30 2615 H 258.156 -0.423898 -0.52658 0
M  V30 2616 H 260.71 -1.72703 -1.11188 0
M  V30 2617 H 258.94 -1.32157 -3.63416 0
M  V30 2618 H 260.629 -1.7391 -3.66756 0
M  V30 2619 H 261.395 -4.02733 -2.70243 0
M  V30 2620 H 257.274 -3.05631 -3.45124 0
M  V30 2621 H 260.818 -6.428 -2.71024 0
M  V30 2622 H 256.715 -5.44832 -3.46163 0
M  V30 2623 H 257.483 -7.5131 -3.24769 0
M  V30 2624 N 260.146 1.09593 -1.13257 0
M  V30 2625 C 261.096 2.14345 -0.777179 0
M  V30 2626 C 262.08 1.59277 0.227966 0
M  V30 2627 O 263.272 1.76971 0.0321413 0
M  V30 2628 C 260.401 3.42439 -0.242991 0
M  V30 2629 C 259.487 4.04419 -1.27694 0
M  V30 2630 N 259.878 4.40979 -2.47732 0
M  V30 2631 C 258.176 4.31596 -1.12432 0
M  V30 2632 C 258.877 4.89784 -3.13826 0
M  V30 2633 N 257.853 4.87133 -2.41252 0
M  V30 2634 H 261.655 2.40415 -1.69049 0
M  V30 2635 H 259.169 1.26803 -1.01463 0
M  V30 2636 H 261.166 4.16889 0.0298496 0
M  V30 2637 H 259.826 3.17824 0.66467 0
M  V30 2638 H 260.837 4.32396 -2.85051 0
M  V30 2639 H 257.514 4.16595 -0.274684 0
M  V30 2640 H 258.904 5.2755 -4.16102 0
M  V30 2641 N 261.624 0.925811 1.2754 0
M  V30 2642 C 262.864 0.572521 1.96218 0
M  V30 2643 C 263.228 -0.869719 1.71172 0
M  V30 2644 O 264.429 -1.33119 2.33523 0
M  V30 2645 C 262.7 0.887325 3.4621 0
M  V30 2646 S 264.259 0.642266 4.34074 0
M  V30 2647 H 261.077 0.211403 0.678845 0
M  V30 2648 H 263.679 1.19384 1.54815 0
M  V30 2649 H 262.383 1.93469 3.61936 0
M  V30 2650 H 261.914 0.255123 3.92572 0
M  V30 2651 H 263.929 -0.500822 4.93666 0
M  V30 2652 N 263.102 -1.41638 0.69111 0
M  V30 2653 C 264.33 -2.05628 0.22909 0
M  V30 2654 C 264.745 -1.51992 -1.11999 0
M  V30 2655 O 264.102 -0.666322 -1.69901 0
M  V30 2656 C 264.153 -3.61084 0.173283 0
M  V30 2657 O 263.874 -4.12735 1.46907 0
M  V30 2658 C 265.375 -4.42213 -0.310266 0
M  V30 2659 H 262.595 -0.662327 0.107534 0
M  V30 2660 H 265.139 -1.81489 0.942438 0
M  V30 2661 H 263.294 -3.84278 -0.490858 0
M  V30 2662 H 263.708 -5.06743 1.35322 0
M  V30 2663 H 265.182 -5.51194 -0.298196 0
M  V30 2664 H 265.659 -4.1799 -1.34838 0
M  V30 2665 H 266.265 -4.24074 0.322716 0
M  V30 2666 N 264.58 -0.43555 -1.51462 0
M  V30 2667 C 265.829 0.133007 -2.01261 0
M  V30 2668 C 266.142 1.43942 -1.32439 0
M  V30 2669 O 267.348 2.09081 -1.73198 0
M  V30 2670 C 265.804 0.287581 -3.58749 0
M  V30 2671 C 265.412 -1.00829 -4.36506 0
M  V30 2672 C 267.156 0.810004 -4.167 0
M  V30 2673 C 265.063 -0.819454 -5.85695 0
M  V30 2674 H 263.993 0.0534822 -0.752101 0
M  V30 2675 H 266.644 -0.565038 -1.74584 0
M  V30 2676 H 265.026 1.04859 -3.81865 0
M  V30 2677 H 266.2 -1.77749 -4.25138 0
M  V30 2678 H 264.515 -1.45911 -3.89999 0
M  V30 2679 H 267.112 0.967743 -5.2587 0
M  V30 2680 H 267.455 1.79196 -3.75758 0
M  V30 2681 H 267.988 0.107357 -3.97655 0
M  V30 2682 H 264.727 -1.77374 -6.31046 0
M  V30 2683 H 264.247 -0.0900208 -5.99732 0
M  V30 2684 H 265.926 -0.471949 -6.45276 0
M  V30 2685 N 266.058 1.56714 -0.166846 0
M  V30 2686 C 267.283 2.01557 0.488833 0
M  V30 2687 C 267.708 1.0463 1.56314 0
M  V30 2688 O 267.066 0.0251304 1.81283 0
M  V30 2689 C 267.114 3.4503 1.04818 0
M  V30 2690 O 266.218 3.51163 2.16236 0
M  V30 2691 H 265.559 0.653516 0.117526 0
M  V30 2692 H 268.089 2.02818 -0.269421 0
M  V30 2693 H 268.099 3.84243 1.37191 0
M  V30 2694 H 266.774 4.15077 0.261572 0
M  V30 2695 H 265.351 3.23807 1.84942 0
M  V30 2696 N 267.536 -0.106894 1.57237 0
M  V30 2697 C 268.947 -0.662723 1.74542 0
M  V30 2698 C 269.298 -1.7971 0.787319 0
M  V30 2699 O 268.423 -2.16368 -0.0369636 0
M  V30 2700 C 269.018 -1.20896 3.16496 0
M  V30 2701 C 267.577 -1.71096 3.35266 0
M  V30 2702 C 266.724 -0.615642 2.7038 0
M  V30 2703 H 269.675 0.119106 1.58252 0
M  V30 2704 H 269.696 -2.07847 3.18716 0
M  V30 2705 H 269.208 -0.383122 3.86204 0
M  V30 2706 H 267.309 -2.56119 2.70618 0
M  V30 2707 H 267.422 -1.81208 4.43509 0
M  V30 2708 H 265.786 -1.05222 2.31949 0
M  V30 2709 H 266.569 0.199419 3.4272 0
M  V30 2710 N 269.014 -1.53014 -0.377408 0
M  V30 2711 C 270.263 -1.67845 -1.11853 0
M  V30 2712 C 270.576 -0.430625 -1.90801 0
M  V30 2713 O 271.782 -0.459261 -2.67587 0
M  V30 2714 C 270.238 -2.96668 -2.03756 0
M  V30 2715 C 269.846 -4.28671 -1.30175 0
M  V30 2716 C 271.59 -3.20865 -2.77932 0
M  V30 2717 C 269.497 -5.48591 -2.20911 0
M  V30 2718 H 268.427 -0.625343 -0.421263 0
M  V30 2719 H 271.078 -1.79514 -0.380409 0
M  V30 2720 H 269.46 -2.78773 -2.8125 0
M  V30 2721 H 270.634 -4.57157 -0.578259 0
M  V30 2722 H 268.949 -4.10825 -0.679108 0
M  V30 2723 H 271.546 -4.07642 -3.46024 0
M  V30 2724 H 271.889 -2.36424 -3.4265 0
M  V30 2725 H 272.422 -3.39379 -2.07525 0
M  V30 2726 H 269.161 -6.35474 -1.6079 0
M  V30 2727 H 268.681 -5.244 -2.91144 0
M  V30 2728 H 270.36 -5.8292 -2.80736 0
M  V30 2729 N 270.492 0.636531 -1.44174 0
M  V30 2730 C 271.738 1.39826 -1.4689 0
M  V30 2731 C 272.071 1.93947 -0.0990585 0
M  V30 2732 O 271.346 1.73325 0.882544 0
M  V30 2733 C 271.629 2.56751 -2.5249 0
M  V30 2734 C 271.482 2.08014 -3.98811 0
M  V30 2735 C 272.801 3.58946 -2.54649 0
M  V30 2736 H 269.92 0.507075 -0.53483 0
M  V30 2737 H 272.562 0.720188 -1.75822 0
M  V30 2738 H 270.712 3.14597 -2.2795 0
M  V30 2739 H 272.384 1.5504 -4.34466 0
M  V30 2740 H 270.627 1.39242 -4.10846 0
M  V30 2741 H 271.298 2.92169 -4.68339 0
M  V30 2742 H 273.774 3.1089 -2.76563 0
M  V30 2743 H 272.65 4.38286 -3.3045 0
M  V30 2744 H 272.911 4.12655 -1.58646 0
M  V30 2745 N 271.97 1.30982 0.876444 0
M  V30 2746 C 273.218 1.20058 1.62575 0
M  V30 2747 C 273.539 -0.242947 1.93481 0
M  V30 2748 O 272.809 -1.1619 1.57724 0
M  V30 2749 H 271.389 0.44135 0.602677 0
M  V30 2750 H 274.051 1.64222 1.04962 0
M  V30 2751 H 273.147 1.76762 2.57219 0
M  V30 2752 N 273.449 -1.08991 1.13837 0
M  V30 2753 C 274.396 -2.15748 0.819835 0
M  V30 2754 C 275.366 -1.64636 -0.220026 0
M  V30 2755 O 276.551 -1.90582 -0.0912757 0
M  V30 2756 C 273.691 -3.4382 0.296913 0
M  V30 2757 C 272.804 -4.0881 1.39636 0
M  V30 2758 C 271.939 -5.24655 0.831314 0
M  V30 2759 C 270.978 -5.81575 1.90886 0
M  V30 2760 N 270.115 -6.88774 1.36142 0
M  V30 2761 H 274.955 -2.42338 1.73426 0
M  V30 2762 H 272.492 -1.18935 0.865613 0
M  V30 2763 H 274.45 -4.17193 -0.0244339 0
M  V30 2764 H 273.08 -3.17535 -0.580628 0
M  V30 2765 H 272.132 -3.33258 1.83422 0
M  V30 2766 H 273.444 -4.47141 2.21058 0
M  V30 2767 H 272.598 -6.04942 0.461515 0
M  V30 2768 H 271.337 -4.87698 -0.013932 0
M  V30 2769 H 270.342 -4.99946 2.28767 0
M  V30 2770 H 271.567 -6.20592 2.75758 0
M  V30 2771 H 269.513 -6.53788 0.538254 0
M  V30 2772 H 269.43 -7.25898 2.11208 0
M  V30 2773 H 270.698 -7.72806 1.01933 0
M  V30 2774 N 274.927 -0.932562 -1.27047 0
M  V30 2775 C 275.89 -0.440064 -2.24936 0
M  V30 2776 C 276.89 0.444071 -1.54547 0
M  V30 2777 O 278.08 0.244465 -1.72476 0
M  V30 2778 C 275.212 0.36678 -3.38921 0
M  V30 2779 H 276.405 -1.305 -2.70018 0
M  V30 2780 H 273.958 -0.713707 -1.39054 0
M  V30 2781 H 274.693 1.25033 -2.99228 0
M  V30 2782 H 274.478 -0.267204 -3.91188 0
M  V30 2783 H 275.968 0.701567 -4.11665 0
M  V30 2784 N 276.405 1.4127 -0.698611 0
M  V30 2785 C 277.63 2.06024 -0.238512 0
M  V30 2786 C 278.055 1.5224 1.10475 0
M  V30 2787 O 277.413 0.650623 1.69223 0
M  V30 2788 C 277.461 3.59988 -0.209952 0
M  V30 2789 O 276.565 4.04282 0.814235 0
M  V30 2790 H 275.906 0.653829 -0.115775 0
M  V30 2791 H 278.436 1.8098 -0.954326 0
M  V30 2792 H 278.446 4.07979 -0.0418436 0
M  V30 2793 H 277.121 3.98503 -1.1903 0
M  V30 2794 H 275.698 3.6779 0.615234 0
M  V30 2795 O 277.922 0.585593 1.50509 0
M  V30 2796 H 278.613 0.0911067 1.93486 0
M  V30 END ATOM
M  V30 BEGIN BOND
M  V30 END BOND
M  V30 END CTAB
M  END
$$$$
