drugbank_target|P35247 Pulmonary surfactant-associated protein D (DB02379)
 OpenBabel12092119473D

  0  0  0     0  0            999 V3000
M  V30 BEGIN CTAB
M  V30 COUNTS 5244 5303 0 0 0
M  V30 BEGIN ATOM
M  V30 1 H -0.908 1.98254 -0.117106 0
M  V30 2 N 0 1.576 0 0
M  V30 3 C 0.933 2.03868 1.02534 0
M  V30 4 C 1.911 0.928543 1.3348 0
M  V30 5 O 3.095 1.19667 1.45644 0
M  V30 6 C 0.222 2.43627 2.35294 0
M  V30 7 C -0.732 3.65373 2.2001 0
M  V30 8 S 0.101 5.13292 1.52614 0
M  V30 9 C 1.257 5.56322 2.86805 0
M  V30 10 H 1.49 2.90518 0.631377 0
M  V30 11 H -0.977 1.52953 0.210867 0
M  V30 12 H 0.981 2.67203 3.11629 0
M  V30 13 H -0.358 1.57376 2.7183 0
M  V30 14 H -1.165 3.90944 3.18086 0
M  V30 15 H -1.563 3.418 1.51819 0
M  V30 16 H 0.729 5.58782 3.83104 0
M  V30 17 H 1.672 6.56266 2.65933 0
M  V30 18 H 2.08 4.83886 2.90714 0
M  V30 19 N 1.4781 -0.272755 1.55222 0
M  V30 20 C 2.4081 -1.34136 1.91127 0
M  V30 21 C 3.3891 -1.51513 0.773168 0
M  V30 22 O 4.5741 -1.64552 1.03132 0
M  V30 23 C 1.7041 -2.70083 2.1834 0
M  V30 24 C 0.6581 -2.67437 3.34158 0
M  V30 25 C -0.0159 -4.06938 3.46851 0
M  V30 26 C 1.2841 -2.26686 4.70543 0
M  V30 27 H 2.9781 -1.04333 2.80633 0
M  V30 28 H 0.5241 -0.500454 1.35024 0
M  V30 29 H 2.4771 -3.44952 2.42046 0
M  V30 30 H 1.2011 -3.01469 1.25634 0
M  V30 31 H -0.1399 -1.95026 3.1042 0
M  V30 32 H -0.4919 -4.35547 2.51611 0
M  V30 33 H -0.7919 -4.06062 4.2472 0
M  V30 34 H 0.7321 -4.83545 3.72849 0
M  V30 35 H 2.1461 -2.91277 4.93792 0
M  V30 36 H 0.5431 -2.36971 5.5133 0
M  V30 37 H 1.6131 -1.21818 4.69349 0
M  V30 38 N 2.9562 -1.48159 -0.537278 0
M  V30 39 C 3.8862 -1.65029 -1.6519 0
M  V30 40 C 4.8672 -0.499281 -1.62607 0
M  V30 41 O 6.0522 -0.730972 -1.79918 0
M  V30 42 C 3.1822 -1.68303 -3.03795 0
M  V30 43 C 2.1362 -2.8283 -3.21234 0
M  V30 44 C 1.4622 -2.71189 -4.60826 0
M  V30 45 C 2.7622 -4.24211 -3.04701 0
M  V30 46 H 4.4562 -2.58341 -1.51328 0
M  V30 47 H 2.0022 -1.24325 -0.726585 0
M  V30 48 H 3.9552 -1.78693 -3.81637 0
M  V30 49 H 2.6792 -0.715635 -3.18663 0
M  V30 50 H 1.3382 -2.71983 -2.45807 0
M  V30 51 H 0.9862 -1.72435 -4.7252 0
M  V30 52 H 0.6862 -3.48035 -4.7344 0
M  V30 53 H 2.2102 -2.83537 -5.40777 0
M  V30 54 H 3.6242 -4.3593 -3.72341 0
M  V30 55 H 2.0212 -5.01998 -3.28813 0
M  V30 56 H 3.0912 -4.41184 -2.01209 0
M  V30 57 N 4.4343 0.785586 -1.36625 0
M  V30 58 C 5.6813 1.54362 -1.31067 0
M  V30 59 C 6.0093 1.94195 0.10893 0
M  V30 60 O 5.2643 1.63262 1.07908 0
M  V30 61 C 5.5633 2.83007 -2.1827 0
M  V30 62 C 5.2293 2.62294 -3.6676 0
M  V30 63 C 3.8913 2.56353 -4.0723 0
M  V30 64 C 6.2433 2.43371 -4.6089 0
M  V30 65 C 3.5713 2.29461 -5.39967 0
M  V30 66 C 5.9233 2.18005 -5.93849 0
M  V30 67 C 4.5873 2.105 -6.3344 0
M  V30 68 H 3.8573 0.564851 -0.479609 0
M  V30 69 H 6.5043 0.906028 -1.68711 0
M  V30 70 H 4.8093 3.51253 -1.73576 0
M  V30 71 H 6.5063 3.40817 -2.11292 0
M  V30 72 H 3.0963 2.67774 -3.34656 0
M  V30 73 H 7.2803 2.46959 -4.30494 0
M  V30 74 H 2.5363 2.22135 -5.69619 0
M  V30 75 H 6.7103 2.02359 -6.66351 0
M  V30 76 H 4.3373 1.89425 -7.36222 0
M  V30 77 N 5.9124 1.20967 1.01018 0
M  V30 78 C 6.8424 0.988272 2.11555 0
M  V30 79 C 7.8234 -0.0849778 1.69888 0
M  V30 80 O 9.0084 0.0738202 1.9406 0
M  V30 81 C 6.1384 0.546528 3.42973 0
M  V30 82 C 5.0924 1.56375 3.9841 0
M  V30 83 C 4.4184 0.97842 5.25672 0
M  V30 84 C 5.7184 2.94922 4.31066 0
M  V30 85 H 7.4124 1.91276 2.30334 0
M  V30 86 H 4.9584 0.921073 1.1069 0
M  V30 87 H 6.9114 0.378839 4.19694 0
M  V30 88 H 5.6354 -0.413598 3.23971 0
M  V30 89 H 4.2944 1.71891 3.23804 0
M  V30 90 H 3.9424 0.0101688 5.02999 0
M  V30 91 H 3.6424 1.65784 5.63728 0
M  V30 92 H 5.1664 0.821939 6.05043 0
M  V30 93 H 6.5804 2.8288 4.9865 0
M  V30 94 H 4.9774 3.5983 4.80253 0
M  V30 95 H 6.0474 3.4616 3.39561 0
M  V30 96 N 7.3905 -1.2043 1.01659 0
M  V30 97 C 8.3205 -2.25466 0.607226 0
M  V30 98 C 9.3015 -1.65853 -0.377716 0
M  V30 99 O 10.4865 -1.92409 -0.263149 0
M  V30 100 C 7.6165 -3.47256 -0.0552949 0
M  V30 101 C 6.5705 -4.19462 0.850632 0
M  V30 102 C 5.8965 -5.34673 0.0538859 0
M  V30 103 C 7.1965 -4.75603 2.15868 0
M  V30 104 H 8.8905 -2.59962 1.48526 0
M  V30 105 H 6.4365 -1.2496 0.715605 0
M  V30 106 H 8.3895 -4.19917 -0.353233 0
M  V30 107 H 7.1135 -3.11924 -0.968045 0
M  V30 108 H 5.7725 -3.48667 1.13257 0
M  V30 109 H 5.4205 -4.95585 -0.860514 0
M  V30 110 H 5.1205 -5.83913 0.657192 0
M  V30 111 H 6.6445 -6.10138 -0.237598 0
M  V30 112 H 8.0585 -5.40083 1.92311 0
M  V30 113 H 6.4555 -5.3528 2.71284 0
M  V30 114 H 7.5255 -3.94346 2.82169 0
M  V30 115 N 8.8686 -0.792821 -1.36206 0
M  V30 116 C 10.0936 -0.377701 -2.03932 0
M  V30 117 C 10.5186 0.998947 -1.59382 0
M  V30 118 O 9.8766 1.64421 -0.763903 0
M  V30 119 C 9.9246 -0.453635 -3.57735 0
M  V30 120 O 9.0286 0.538151 -4.08874 0
M  V30 121 H 8.3696 -0.159855 -0.644471 0
M  V30 122 H 10.8996 -1.07488 -1.7409 0
M  V30 123 H 10.9096 -0.318464 -4.06755 0
M  V30 124 H 9.5846 -1.45784 -3.89512 0
M  V30 125 H 8.1616 0.364359 -3.71116 0
M  V30 126 N 10.3467 1.47872 -0.545128 0
M  V30 127 C 11.3097 2.28337 0.198717 0
M  V30 128 C 12.3097 1.36255 0.853888 0
M  V30 129 O 13.4997 1.59003 0.711606 0
M  V30 130 C 10.6317 3.15585 1.28915 0
M  V30 131 H 11.8247 2.95567 -0.507941 0
M  V30 132 H 9.3777 1.53362 -0.301616 0
M  V30 133 H 10.1127 2.53019 2.02859 0
M  V30 134 H 9.8977 3.83337 0.824309 0
M  V30 135 H 11.3877 3.76243 1.81194 0
M  V30 136 N 11.8248 0.280983 1.55075 0
M  V30 137 C 12.7548 -0.597469 2.25727 0
M  V30 138 C 13.7358 -1.15417 1.24952 0
M  V30 139 O 14.9208 -1.18722 1.53684 0
M  V30 140 C 12.0508 -1.7789 2.98283 0
M  V30 141 C 11.0048 -1.35347 4.06036 0
M  V30 142 C 10.3308 -2.61846 4.66198 0
M  V30 143 C 11.6308 -0.499354 5.19907 0
M  V30 144 H 13.3248 -0.00824265 2.99399 0
M  V30 145 H 10.8708 -0.0025244 1.44 0
M  V30 146 H 12.8238 -2.39937 3.46422 0
M  V30 147 H 11.5478 -2.39405 2.22155 0
M  V30 148 H 10.2068 -0.756156 3.58717 0
M  V30 149 H 9.8548 -3.21632 3.86732 0
M  V30 150 H 9.5548 -2.3409 5.38958 0
M  V30 151 H 11.0788 -3.24732 5.1709 0
M  V30 152 H 12.4928 -1.02498 5.64063 0
M  V30 153 H 10.8898 -0.316424 5.99265 0
M  V30 154 H 11.9598 0.480459 4.82514 0
M  V30 155 N 13.3029 -1.57598 0.00835791 0
M  V30 156 C 14.5489 -1.91211 -0.675732 0
M  V30 157 C 14.8819 -0.883139 -1.72958 0
M  V30 158 O 14.1569 0.097016 -1.94258 0
M  V30 159 C 14.4399 -3.35379 -1.31123 0
M  V30 160 C 14.2929 -4.48999 -0.268356 0
M  V30 161 C 15.6119 -3.7912 -2.23508 0
M  V30 162 H 12.7309 -0.695374 -0.244179 0
M  V30 163 H 15.3729 -1.89901 0.0613655 0
M  V30 164 H 13.5229 -3.36626 -1.93946 0
M  V30 165 H 15.1949 -4.59887 0.360844 0
M  V30 166 H 13.4379 -4.31873 0.408482 0
M  V30 167 H 14.1089 -5.46851 -0.752218 0
M  V30 168 H 16.5849 -3.79477 -1.70693 0
M  V30 169 H 15.4609 -4.80729 -2.64936 0
M  V30 170 H 15.7219 -3.13455 -3.11766 0
M  V30 171 N 14.781 0.264519 -1.55364 0
M  V30 172 C 15.711 1.33121 -1.91836 0
M  V30 173 C 16.692 1.51101 -0.781192 0
M  V30 174 O 17.877 1.64003 -1.04003 0
M  V30 175 C 15.007 2.68921 -2.19769 0
M  V30 176 C 13.961 2.65661 -3.35571 0
M  V30 177 C 13.287 4.05093 -3.49004 0
M  V30 178 C 14.587 2.24187 -4.71739 0
M  V30 179 H 16.281 1.02844 -2.81182 0
M  V30 180 H 13.827 0.493286 -1.35287 0
M  V30 181 H 15.78 3.43663 -2.43872 0
M  V30 182 H 14.504 3.00799 -1.27231 0
M  V30 183 H 13.163 1.93377 -3.1145 0
M  V30 184 H 12.811 4.34206 -2.53917 0
M  V30 185 H 12.511 4.03804 -4.26868 0
M  V30 186 H 14.035 4.81561 -3.75408 0
M  V30 187 H 15.449 2.88654 -4.9533 0
M  V30 188 H 13.846 2.34044 -5.52579 0
M  V30 189 H 14.916 1.19327 -4.69988 0
M  V30 190 N 16.2591 1.48442 0.529413 0
M  V30 191 C 17.1891 1.65902 1.64313 0
M  V30 192 C 18.1701 0.507897 1.6234 0
M  V30 193 O 19.3551 0.740503 1.79528 0
M  V30 194 C 16.4851 1.69911 3.02898 0
M  V30 195 C 15.4391 2.8453 3.19729 0
M  V30 196 C 14.7651 2.73629 4.59381 0
M  V30 197 C 16.0651 4.25821 3.02447 0
M  V30 198 H 17.7591 2.5914 1.49955 0
M  V30 199 H 15.3051 1.24709 0.719982 0
M  V30 200 H 17.2581 1.80715 3.80684 0
M  V30 201 H 15.9821 0.732524 3.18279 0
M  V30 202 H 14.6411 2.73283 2.44361 0
M  V30 203 H 14.2891 1.74938 4.71599 0
M  V30 204 H 13.9891 3.50541 4.71588 0
M  V30 205 H 15.5131 2.86401 5.39265 0
M  V30 206 H 16.9271 4.37898 3.70024 0
M  V30 207 H 15.3241 5.03735 3.26146 0
M  V30 208 H 16.3941 4.42244 1.98867 0
M  V30 209 N 17.7372 -0.778329 1.37039 0
M  V30 210 C 18.9652 -1.56734 1.35063 0
M  V30 211 C 19.3802 -1.88686 -0.0655597 0
M  V30 212 O 18.7372 -1.5096 -1.02554 0
M  V30 213 C 18.7882 -2.88163 2.18276 0
M  V30 214 O 18.5092 -2.57583 3.54376 0
M  V30 215 C 20.0102 -3.82422 2.24206 0
M  V30 216 H 17.2302 -0.485778 0.462883 0
M  V30 217 H 19.7742 -0.965185 1.8029 0
M  V30 218 H 17.9292 -3.44818 1.76576 0
M  V30 219 H 18.3432 -3.41699 3.97922 0
M  V30 220 H 19.8172 -4.71667 2.86765 0
M  V30 221 H 20.2942 -4.21078 1.24861 0
M  V30 222 H 20.9002 -3.31697 2.6619 0
M  V30 223 N 19.2153 -1.21501 -1.00376 0
M  V30 224 C 20.1473 -0.933174 -2.09343 0
M  V30 225 C 21.1603 0.0840896 -1.62583 0
M  V30 226 O 22.3493 -0.148563 -1.77881 0
M  V30 227 C 19.4493 -0.379869 -3.36764 0
M  V30 228 C 18.6223 -1.45176 -4.12605 0
M  V30 229 C 17.6813 -0.907476 -5.18316 0
M  V30 230 O 16.7073 -1.5912 -5.46507 0
M  V30 231 N 17.9093 0.276649 -5.7984 0
M  V30 232 H 20.6743 -1.87124 -2.34104 0
M  V30 233 H 18.2353 -1.12043 -1.16867 0
M  V30 234 H 20.2273 -0.00131488 -4.047 0
M  V30 235 H 18.7973 0.463048 -3.09151 0
M  V30 236 H 18.0173 -2.00411 -3.39454 0
M  V30 237 H 19.3053 -2.17328 -4.6005 0
M  V30 238 H 18.7033 0.849147 -5.59291 0
M  V30 239 H 17.2603 0.596702 -6.49063 0
M  V30 240 N 20.6934 1.19889 -1.02296 0
M  V30 241 C 22.1044 1.71124 -0.746568 0
M  V30 242 C 22.4554 1.81939 0.734335 0
M  V30 243 O 21.5804 1.48639 1.57275 0
M  V30 244 C 22.1754 3.10804 -1.34857 0
M  V30 245 C 20.7344 3.59323 -1.1209 0
M  V30 246 C 19.8814 2.3635 -1.45031 0
M  V30 247 H 22.8324 1.04813 -1.19163 0
M  V30 248 H 22.8534 3.73186 -0.742437 0
M  V30 249 H 22.3654 3.029 -2.42638 0
M  V30 250 H 20.4664 3.7255 -0.0610337 0
M  V30 251 H 20.5794 4.4378 -1.80544 0
M  V30 252 H 18.9434 2.39399 -0.869487 0
M  V30 253 H 19.7264 2.31081 -2.53883 0
M  V30 254 N 22.1715 0.800033 1.35784 0
M  V30 255 C 23.1015 0.220184 2.3246 0
M  V30 256 C 24.0825 -0.65073 1.57161 0
M  V30 257 O 25.2675 -0.582359 1.85263 0
M  V30 258 C 22.3975 -0.637353 3.41402 0
M  V30 259 C 21.3515 0.134531 4.27789 0
M  V30 260 C 20.6775 -0.844285 5.27992 0
M  V30 261 C 21.9775 1.32979 5.05088 0
M  V30 262 H 23.6715 1.02787 2.81203 0
M  V30 263 H 21.2175 0.495717 1.35199 0
M  V30 264 H 23.1705 -1.05302 4.08031 0
M  V30 265 H 21.8945 -1.47785 2.91251 0
M  V30 266 H 20.5535 0.531296 3.6273 0
M  V30 267 H 20.2015 -1.68011 4.74111 0
M  V30 268 H 19.9015 -0.332184 5.8666 0
M  V30 269 H 21.4255 -1.2583 5.97494 0
M  V30 270 H 22.8395 0.98934 5.64699 0
M  V30 271 H 21.2365 1.77593 5.7322 0
M  V30 272 H 22.3065 2.11978 4.36111 0
M  V30 273 N 23.6496 -1.47581 0.552962 0
M  V30 274 C 24.8976 -2.02082 0.0272703 0
M  V30 275 C 25.2186 -1.4301 -1.32563 0
M  V30 276 O 24.4886 -0.603745 -1.86365 0
M  V30 277 H 23.0686 -0.746966 0.00709182 0
M  V30 278 H 25.7306 -1.81033 0.722008 0
M  V30 279 H 24.8266 -3.12034 -0.0639951 0
M  V30 280 N 25.1277 -0.289203 -1.54924 0
M  V30 281 C 26.3577 0.325989 -2.04012 0
M  V30 282 C 26.7657 1.48961 -1.1665 0
M  V30 283 O 26.1087 1.82794 -0.1822 0
M  V30 284 C 26.1707 0.856112 -3.49158 0
M  V30 285 C 25.8347 -0.180697 -4.56643 0
M  V30 286 C 26.8317 -1.0051 -5.10092 0
M  V30 287 C 24.5167 -0.318998 -5.01286 0
M  V30 288 C 26.5107 -1.95385 -6.06715 0
M  V30 289 C 24.1977 -1.27121 -5.97732 0
M  V30 290 C 25.1957 -2.08713 -6.50329 0
M  V30 291 O 24.8837 -3.02322 -7.44887 0
M  V30 292 H 24.6157 0.0765276 -0.671654 0
M  V30 293 H 27.1697 -0.423254 -2.00992 0
M  V30 294 H 25.3997 1.65567 -3.49463 0
M  V30 295 H 27.0887 1.38591 -3.81507 0
M  V30 296 H 27.8547 -0.90906 -4.76404 0
M  V30 297 H 23.7337 0.306108 -4.59983 0
M  V30 298 H 27.2777 -2.59111 -6.47694 0
M  V30 299 H 23.1747 -1.36801 -6.30837 0
M  V30 300 H 23.9427 -2.97165 -7.6265 0
M  V30 301 N 26.6058 1.57591 -0.0167156 0
M  V30 302 C 27.5358 2.12496 0.967858 0
M  V30 303 C 28.5168 1.03807 1.34752 0
M  V30 304 O 29.7018 1.31577 1.42833 0
M  V30 305 C 26.8318 2.64194 2.25431 0
M  V30 306 C 25.7858 3.77559 2.01576 0
M  V30 307 C 25.1118 4.15636 3.36379 0
M  V30 308 C 26.4118 5.04151 1.36489 0
M  V30 309 H 28.1058 2.95013 0.510643 0
M  V30 310 H 25.6518 1.41915 0.244181 0
M  V30 311 H 27.6048 3.01236 2.94678 0
M  V30 312 H 26.3288 1.78821 2.73296 0
M  V30 313 H 24.9878 3.40937 1.34751 0
M  V30 314 H 24.6358 3.27263 3.81979 0
M  V30 315 H 24.3358 4.92022 3.21229 0
M  V30 316 H 25.8598 4.5525 4.06915 0
M  V30 317 H 27.2738 5.38857 1.95718 0
M  V30 318 H 25.6708 5.85453 1.31776 0
M  V30 319 H 26.7408 4.83733 0.336219 0
M  V30 320 N 28.0839 -0.256276 1.55502 0
M  V30 321 C 28.9939 -1.33882 1.92647 0
M  V30 322 C 30.0099 -1.53159 0.825727 0
M  V30 323 O 31.1859 -1.66963 1.12629 0
M  V30 324 C 28.2509 -2.6751 2.20543 0
M  V30 325 C 27.3119 -2.56836 3.43997 0
M  V30 326 C 26.5449 -3.84092 3.70553 0
M  V30 327 O 26.7679 -4.85545 2.99336 0
M  V30 328 O 25.7019 -3.83288 4.64084 0
M  V30 329 H 29.5279 -1.05374 2.84833 0
M  V30 330 H 27.1129 -0.456237 1.42263 0
M  V30 331 H 28.9949 -3.46492 2.39835 0
M  V30 332 H 27.6699 -2.9577 1.31536 0
M  V30 333 H 26.5769 -1.76172 3.30021 0
M  V30 334 H 27.9099 -2.33523 4.33275 0
M  V30 335 N 29.562 -1.4872 -0.521534 0
M  V30 336 C 30.525 -1.63379 -1.60748 0
M  V30 337 C 31.525 -0.50661 -1.52611 0
M  V30 338 O 32.715 -0.772601 -1.5613 0
M  V30 339 C 29.847 -1.61192 -3.00383 0
M  V30 340 H 31.04 -2.60217 -1.49087 0
M  V30 341 H 28.593 -1.37444 -0.744235 0
M  V30 342 H 29.328 -0.65863 -3.17541 0
M  V30 343 H 29.113 -2.43032 -3.07698 0
M  V30 344 H 30.603 -1.7466 -3.7932 0
M  V30 345 N 31.0401 0.771051 -1.3745 0
M  V30 346 C 31.9501 1.91538 -1.35464 0
M  V30 347 C 32.9661 1.72134 -0.254123 0
M  V30 348 O 34.1421 1.95358 -0.489626 0
M  V30 349 C 31.2071 3.26671 -1.16134 0
M  V30 350 C 30.2681 3.58723 -2.35831 0
M  V30 351 C 29.5011 4.87409 -2.17413 0
M  V30 352 O 29.7241 5.58506 -1.15876 0
M  V30 353 O 28.6581 5.18539 -3.05615 0
M  V30 354 H 32.4841 1.96165 -2.31847 0
M  V30 355 H 30.0691 0.9139 -1.18187 0
M  V30 356 H 31.9511 4.07499 -1.07345 0
M  V30 357 H 30.6261 3.22894 -0.228251 0
M  V30 358 H 29.5331 2.78127 -2.50192 0
M  V30 359 H 30.8661 3.67243 -3.27709 0
M  V30 360 N 32.5182 1.22032 0.997298 0
M  V30 361 C 33.4512 0.929735 2.08401 0
M  V30 362 C 34.4292 -0.125681 1.62114 0
M  V30 363 O 35.6132 0.00495409 1.88499 0
M  V30 364 C 32.7402 0.397488 3.3636 0
M  V30 365 C 31.7862 1.4369 4.01566 0
M  V30 366 S 32.6192 3.00874 4.42984 0
M  V30 367 C 33.7752 2.49276 5.74119 0
M  V30 368 H 34.0082 1.84998 2.32729 0
M  V30 369 H 31.5412 1.0509 1.13117 0
M  V30 370 H 33.4992 0.0969846 4.10385 0
M  V30 371 H 32.1602 -0.501571 3.10069 0
M  V30 372 H 31.3532 1.01427 4.93689 0
M  V30 373 H 30.9552 1.68588 3.33847 0
M  V30 374 H 33.2472 1.90242 6.50242 0
M  V30 375 H 34.1902 3.39872 6.21203 0
M  V30 376 H 34.5982 1.90714 5.31308 0
M  V30 377 N 33.9963 -1.19345 1.0293 0
M  V30 378 C 34.9433 -2.2258 0.610464 0
M  V30 379 C 35.9133 -1.6179 -0.375946 0
M  V30 380 O 37.0983 -1.88844 -0.272511 0
M  V30 381 C 34.2383 -3.45085 -0.0321473 0
M  V30 382 C 33.3513 -4.20258 1.00035 0
M  V30 383 C 32.4863 -5.3019 0.32746 0
M  V30 384 C 31.5253 -5.97121 1.34584 0
M  V30 385 N 30.6623 -6.98615 0.698726 0
M  V30 386 H 35.5023 -2.57764 1.49538 0
M  V30 387 H 33.0393 -1.26644 0.748311 0
M  V30 388 H 34.9973 -4.15061 -0.421966 0
M  V30 389 H 33.6273 -3.10555 -0.88064 0
M  V30 390 H 32.6793 -3.49223 1.50823 0
M  V30 391 H 33.9913 -4.66175 1.77433 0
M  V30 392 H 33.1453 -6.06587 -0.11718 0
M  V30 393 H 31.8843 -4.85345 -0.478713 0
M  V30 394 H 30.8893 -5.19474 1.80074 0
M  V30 395 H 32.1143 -6.4405 2.15352 0
M  V30 396 H 30.0603 -6.55942 -0.0873471 0
M  V30 397 H 29.9773 -7.42724 1.41058 0
M  V30 398 H 31.2453 -7.79004 0.278102 0
M  V30 399 N 35.4744 -0.807222 -1.35358 0
M  V30 400 C 36.7024 -0.400377 -2.02989 0
M  V30 401 C 37.1174 0.988859 -1.60832 0
M  V30 402 O 36.4744 1.63729 -0.806175 0
M  V30 403 C 36.5254 -0.474867 -3.58368 0
M  V30 404 O 36.2464 -1.80933 -3.98992 0
M  V30 405 C 37.7474 -0.0609112 -4.43258 0
M  V30 406 H 34.9674 -0.162587 -0.651004 0
M  V30 407 H 37.5114 -1.09102 -1.72965 0
M  V30 408 H 35.6664 0.167534 -3.87038 0
M  V30 409 H 36.0804 -1.77256 -4.9364 0
M  V30 410 H 37.5544 -0.164145 -5.51756 0
M  V30 411 H 38.0314 0.993831 -4.27808 0
M  V30 412 H 38.6374 -0.676492 -4.19885 0
M  V30 413 N 36.9525 1.47285 -0.560781 0
M  V30 414 C 38.1825 2.06555 -0.0429638 0
M  V30 415 C 38.5905 1.41339 1.25777 0
M  V30 416 O 37.9335 0.505182 1.76617 0
M  V30 417 C 37.9955 3.58827 0.219887 0
M  V30 418 C 37.6595 4.46105 -0.991944 0
M  V30 419 C 38.6565 4.84 -1.89843 0
M  V30 420 C 36.3415 4.87567 -1.20762 0
M  V30 421 C 38.3355 5.6216 -3.00425 0
M  V30 422 C 36.0225 5.65491 -2.31653 0
M  V30 423 C 37.0205 6.02699 -3.21315 0
M  V30 424 O 36.7085 6.79052 -4.30283 0
M  V30 425 H 36.4405 0.674537 -0.0444468 0
M  V30 426 H 38.9945 1.90225 -0.774818 0
M  V30 427 H 37.2245 3.73383 1.00609 0
M  V30 428 H 38.9135 4.00103 0.683522 0
M  V30 429 H 39.6795 4.52564 -1.74387 0
M  V30 430 H 35.5585 4.5807 -0.518893 0
M  V30 431 H 39.1025 5.9112 -3.70436 0
M  V30 432 H 34.9995 5.9634 -2.47081 0
M  V30 433 H 35.7675 6.9745 -4.28376 0
M  V30 434 N 38.4306 0.297415 1.54768 0
M  V30 435 C 39.6556 -0.318435 2.04941 0
M  V30 436 C 40.0806 -1.4701 1.17345 0
M  V30 437 O 39.4386 -1.80436 0.176758 0
M  V30 438 C 39.4866 -0.755749 3.52592 0
M  V30 439 O 38.5906 -1.86088 3.68028 0
M  V30 440 H 37.9316 -0.062421 0.661059 0
M  V30 441 H 40.4616 0.438215 1.99852 0
M  V30 442 H 40.4716 -1.04552 3.94376 0
M  V30 443 H 39.1466 0.0867233 4.1581 0
M  V30 444 H 37.7236 -1.57193 3.38149 0
M  V30 445 N 39.9087 -1.5758 0.0250728 0
M  V30 446 C 40.8587 -2.06468 -0.967201 0
M  V30 447 C 41.8427 -0.964376 -1.28797 0
M  V30 448 O 43.0347 -1.22797 -1.27475 0
M  V30 449 C 40.1637 -2.59203 -2.25097 0
M  V30 450 C 39.2497 -3.76157 -1.95874 0
M  V30 451 N 39.6407 -4.86919 -1.36905 0
M  V30 452 C 37.9387 -3.84566 -2.25887 0
M  V30 453 C 38.6397 -5.68172 -1.24724 0
M  V30 454 N 37.6157 -5.14953 -1.74138 0
M  V30 455 H 41.4177 -2.89508 -0.506176 0
M  V30 456 H 38.9317 -1.61399 -0.18004 0
M  V30 457 H 40.9287 -2.92517 -2.97052 0
M  V30 458 H 39.5887 -1.77592 -2.71829 0
M  V30 459 H 40.5997 -5.07256 -1.04459 0
M  V30 460 H 37.2767 -3.13854 -2.75321 0
M  V30 461 H 38.6667 -6.67221 -0.791605 0
M  V30 462 N 41.3868 0.248026 -1.55636 0
M  V30 463 C 42.8028 0.596483 -1.48035 0
M  V30 464 C 43.0028 1.88386 -0.715039 0
M  V30 465 O 42.0588 2.51319 -0.243944 0
M  V30 466 C 43.3718 0.700258 -2.92433 0
M  V30 467 C 44.9198 0.792659 -3.02797 0
M  V30 468 C 45.3948 0.928005 -4.485 0
M  V30 469 N 46.8858 0.992903 -4.52433 0
M  V30 470 C 47.6208 1.11687 -5.62418 0
M  V30 471 N 47.1168 1.20645 -6.82214 0
M  V30 472 N 48.9098 1.14994 -5.50212 0
M  V30 473 H 41.0608 -0.597109 -2.03834 0
M  V30 474 H 43.3238 -0.205925 -0.925364 0
M  V30 475 H 43.0298 -0.175658 -3.51261 0
M  V30 476 H 42.9038 1.57255 -3.42857 0
M  V30 477 H 45.2908 1.65903 -2.4405 0
M  V30 478 H 45.3718 -0.104762 -2.55585 0
M  V30 479 H 45.0158 0.0661971 -5.07857 0
M  V30 480 H 44.9458 1.84045 -4.93391 0
M  V30 481 H 47.4368 0.935064 -3.66149 0
M  V30 482 H 47.7498 1.30008 -7.61786 0
M  V30 483 H 46.0948 1.17605 -6.84977 0
M  V30 484 H 49.2858 1.07643 -4.55555 0
M  V30 485 H 49.4588 1.24311 -6.35965 0
M  V30 486 N 42.8649 1.48995 0.513639 0
M  V30 487 C 44.0929 1.61531 1.29288 0
M  V30 488 C 44.5079 0.281801 1.86685 0
M  V30 489 O 43.8649 -0.731111 1.67215 0
M  V30 490 C 43.9159 2.67449 2.43215 0
M  V30 491 O 43.6369 3.95626 1.88179 0
M  V30 492 C 45.1379 2.90575 3.34785 0
M  V30 493 H 42.3579 0.544165 0.392588 0
M  V30 494 H 44.9019 1.9494 0.617956 0
M  V30 495 H 43.0569 2.36853 3.0656 0
M  V30 496 H 43.4709 4.53868 2.62876 0
M  V30 497 H 44.9449 3.68449 4.11035 0
M  V30 498 H 45.4219 2.00011 3.91015 0
M  V30 499 H 46.0279 3.22538 2.77218 0
M  V30 500 N 44.343 -0.763751 1.37857 0
M  V30 501 C 45.276 -1.88486 1.28639 0
M  V30 502 C 46.254 -1.61757 0.165363 0
M  V30 503 O 47.438 -1.85391 0.340948 0
M  V30 504 C 44.565 -3.23884 0.990811 0
M  V30 505 C 43.611 -3.69514 2.12983 0
M  V30 506 S 44.444 -3.82244 3.75033 0
M  V30 507 C 45.6 -5.20477 3.47641 0
M  V30 508 H 45.833 -1.96017 2.23527 0
M  V30 509 H 43.366 -0.925684 1.23574 0
M  V30 510 H 45.324 -4.02081 0.827101 0
M  V30 511 H 43.985 -3.14044 0.0592832 0
M  V30 512 H 43.178 -4.67696 1.87821 0
M  V30 513 H 42.78 -2.98441 2.25408 0
M  V30 514 H 45.072 -6.05905 3.03125 0
M  V30 515 H 46.015 -5.50655 4.4518 0
M  V30 516 H 46.423 -4.88793 2.82385 0
M  V30 517 N 45.8211 -1.22559 -0.990812 0
M  V30 518 C 47.2321 -1.04791 -1.54518 0
M  V30 519 C 47.5831 0.387998 -1.92325 0
M  V30 520 O 46.7081 1.27328 -1.74976 0
M  V30 521 C 47.3031 -1.896 -2.80779 0
M  V30 522 C 45.8621 -1.76124 -3.32652 0
M  V30 523 C 45.0091 -1.8594 -2.05722 0
M  V30 524 H 47.9601 -1.36374 -0.811662 0
M  V30 525 H 47.9811 -1.41464 -3.53225 0
M  V30 526 H 47.4931 -2.94101 -2.53231 0
M  V30 527 H 45.5941 -0.743643 -3.65104 0
M  V30 528 H 45.7071 -2.58913 -4.03114 0
M  V30 529 H 44.0711 -1.29403 -2.19379 0
M  V30 530 H 44.8541 -2.91976 -1.80568 0
M  V30 531 N 47.2992 1.18797 -1.03562 0
M  V30 532 C 48.5242 1.9314 -0.755764 0
M  V30 533 C 48.9492 1.7537 0.68022 0
M  V30 534 O 48.3072 1.06046 1.47051 0
M  V30 535 C 48.3552 3.42747 -1.12058 0
M  V30 536 O 47.4592 4.11683 -0.243124 0
M  V30 537 H 46.8002 0.602724 -0.278604 0
M  V30 538 H 49.3302 1.50678 -1.3841 0
M  V30 539 H 49.3402 3.93437 -1.08035 0
M  V30 540 H 48.0152 3.55002 -2.16672 0
M  V30 541 H 46.5922 3.71323 -0.342539 0
M  V30 542 N 48.7773 0.814389 1.34928 0
M  V30 543 C 49.7403 0.235759 2.27984 0
M  V30 544 C 50.7403 -0.581412 1.49921 0
M  V30 545 O 51.9303 -0.398758 1.69575 0
M  V30 546 C 49.0623 -0.670433 3.34242 0
M  V30 547 H 50.2553 1.05659 2.80671 0
M  V30 548 H 47.8083 0.585614 1.44915 0
M  V30 549 H 48.5433 -1.51466 2.86755 0
M  V30 550 H 48.3283 -0.0860822 3.92005 0
M  V30 551 H 49.8183 -1.06935 4.03676 0
M  V30 552 N 50.2554 -1.46986 0.568584 0
M  V30 553 C 51.4954 -2.04336 0.0512999 0
M  V30 554 C 51.8594 -1.43214 -1.27881 0
M  V30 555 O 53.0604 -1.91679 -1.88448 0
M  V30 556 C 51.3314 -3.57389 -0.0282328 0
M  V30 557 S 52.8904 -4.36056 -0.489991 0
M  V30 558 H 49.7084 -0.71034 0.0306349 0
M  V30 559 H 52.3104 -1.80212 0.757891 0
M  V30 560 H 51.0144 -3.99395 0.944011 0
M  V30 561 H 50.5454 -3.86028 -0.75803 0
M  V30 562 H 52.5604 -4.6441 -1.74752 0
M  V30 563 N 51.7335 -0.305618 -1.54608 0
M  V30 564 C 52.9615 0.304775 -2.04643 0
M  V30 565 C 53.3765 1.47167 -1.18268 0
M  V30 566 O 52.7335 1.81296 -0.209328 0
M  V30 567 C 52.7845 0.756564 -3.53495 0
M  V30 568 O 52.5055 -0.36389 -4.36586 0
M  V30 569 C 54.0065 1.43163 -4.19546 0
M  V30 570 H 51.2265 0.0655481 -0.667791 0
M  V30 571 H 53.7705 -0.446592 -1.99564 0
M  V30 572 H 51.9255 1.45794 -3.58919 0
M  V30 573 H 52.3395 -0.0113121 -5.24499 0
M  V30 574 H 53.8135 1.69886 -5.25207 0
M  V30 575 H 54.2905 2.37318 -3.69563 0
M  V30 576 H 54.8965 0.773307 -4.18211 0
M  V30 577 N 53.2116 1.57565 -0.0334293 0
M  V30 578 C 54.1416 2.13511 0.945265 0
M  V30 579 C 55.1226 1.05231 1.33643 0
M  V30 580 O 56.3076 1.33084 1.41429 0
M  V30 581 C 53.4376 2.6657 2.22616 0
M  V30 582 C 52.3916 3.79676 1.97561 0
M  V30 583 C 51.7176 4.1918 3.31952 0
M  V30 584 C 53.0176 5.0557 1.31135 0
M  V30 585 H 54.7116 2.95538 0.479325 0
M  V30 586 H 52.2576 1.42166 0.229115 0
M  V30 587 H 54.2106 3.04344 2.91466 0
M  V30 588 H 52.9346 1.8171 2.71384 0
M  V30 589 H 51.5936 3.42347 1.31127 0
M  V30 590 H 51.2416 3.31296 3.78487 0
M  V30 591 H 50.9416 4.95402 3.15992 0
M  V30 592 H 52.4656 4.59541 4.02063 0
M  V30 593 H 53.8796 5.40903 1.89992 0
M  V30 594 H 52.2766 5.86818 1.25559 0
M  V30 595 H 53.3466 4.84062 0.284894 0
M  V30 596 N 54.6897 -0.239769 1.55765 0
M  V30 597 C 55.9357 -0.968234 1.78194 0
M  V30 598 C 56.2687 -1.84701 0.599938 0
M  V30 599 O 55.5437 -1.9031 -0.401524 0
M  V30 600 C 55.8267 -1.8227 3.10564 0
M  V30 601 C 55.6797 -0.971633 4.3918 0
M  V30 602 C 56.9987 -2.80388 3.39221 0
M  V30 603 H 54.1177 -0.350572 0.648281 0
M  V30 604 H 56.7597 -0.238259 1.885 0
M  V30 605 H 54.9097 -2.44507 3.01908 0
M  V30 606 H 56.5817 -0.367408 4.59835 0
M  V30 607 H 54.8247 -0.276276 4.32919 0
M  V30 608 H 55.4957 -1.60346 5.28198 0
M  V30 609 H 57.9717 -2.28287 3.47885 0
M  V30 610 H 56.8477 -3.3729 4.33044 0
M  V30 611 H 57.1087 -3.57212 2.60484 0
M  V30 612 N 56.1678 -1.49265 -0.50573 0
M  V30 613 C 57.1008 -1.60183 -1.62532 0
M  V30 614 C 58.0788 -0.451107 -1.56217 0
M  V30 615 O 59.2628 -0.666016 -1.76342 0
M  V30 616 C 56.3898 -1.55238 -3.01029 0
M  V30 617 C 55.4358 -2.7545 -3.25621 0
M  V30 618 S 56.2688 -4.37174 -3.09256 0
M  V30 619 C 57.4248 -4.34866 -4.50158 0
M  V30 620 H 57.6578 -2.54894 -1.53025 0
M  V30 621 H 55.1908 -1.38098 -0.690535 0
M  V30 622 H 57.1488 -1.53071 -3.80893 0
M  V30 623 H 55.8098 -0.618238 -3.07956 0
M  V30 624 H 55.0028 -2.68197 -4.26716 0
M  V30 625 H 54.6048 -2.75005 -2.53472 0
M  V30 626 H 56.8968 -4.06295 -5.42154 0
M  V30 627 H 57.8398 -5.36223 -4.62462 0
M  V30 628 H 58.2478 -3.65007 -4.30616 0
M  V30 629 N 57.6459 0.756429 -1.3826 0
M  V30 630 C 58.8859 1.52833 -1.35725 0
M  V30 631 C 59.2499 1.91926 0.0534106 0
M  V30 632 O 60.4509 2.68028 0.203613 0
M  V30 633 C 58.7219 2.74919 -2.28373 0
M  V30 634 S 60.2809 3.64817 -2.43832 0
M  V30 635 H 57.0989 0.523043 -0.481608 0
M  V30 636 H 59.7009 0.888212 -1.74158 0
M  V30 637 H 58.4049 2.44304 -3.29763 0
M  V30 638 H 57.9359 3.43878 -1.91079 0
M  V30 639 H 59.9509 4.676 -1.66027 0
M  V30 640 N 59.124 1.23083 0.984299 0
M  V30 641 C 60.349 1.088 1.76571 0
M  V30 642 C 60.774 -0.356657 1.84688 0
M  V30 643 O 60.132 -1.25788 1.30565 0
M  V30 644 C 60.18 1.71371 3.17277 0
M  V30 645 O 59.284 0.973213 4.00752 0
M  V30 646 H 58.625 0.381599 0.543395 0
M  V30 647 H 61.155 1.63057 1.23587 0
M  V30 648 H 61.165 1.76449 3.67872 0
M  V30 649 H 59.84 2.76493 3.10684 0
M  V30 650 H 58.417 0.999078 3.59267 0
M  V30 651 N 60.6021 -1.18246 1.0419 0
M  V30 652 C 61.8271 -1.92736 0.765996 0
M  V30 653 C 62.2521 -1.75728 -0.67091 0
M  V30 654 O 61.6101 -1.06825 -1.46486 0
M  V30 655 C 61.6581 -3.42148 1.13875 0
M  V30 656 O 60.7621 -4.11548 0.264954 0
M  V30 657 H 60.1031 -0.601238 0.281797 0
M  V30 658 H 62.6331 -1.49942 1.39207 0
M  V30 659 H 62.6431 -3.92858 1.1012 0
M  V30 660 H 61.3181 -3.53848 2.18551 0
M  V30 661 H 59.8951 -3.71137 0.362226 0
M  V30 662 N 62.0802 -0.821533 -1.34494 0
M  V30 663 C 63.3262 -0.409552 -1.98622 0
M  V30 664 C 63.6592 1.0244 -1.64984 0
M  V30 665 O 62.9342 1.71325 -0.920758 0
M  V30 666 C 63.2172 -0.610458 -3.54888 0
M  V30 667 C 63.0702 -2.09043 -3.98273 0
M  V30 668 C 64.3892 -0.0455379 -4.40076 0
M  V30 669 H 61.5082 -0.15028 -0.721516 0
M  V30 670 H 64.1502 -1.03384 -1.59411 0
M  V30 671 H 62.3002 -0.079044 -3.8842 0
M  V30 672 H 63.9722 -2.68537 -3.75081 0
M  V30 673 H 62.2152 -2.58139 -3.48635 0
M  V30 674 H 62.8862 -2.18182 -5.07051 0
M  V30 675 H 65.3622 -0.499557 -4.1309 0
M  V30 676 H 64.2382 -0.215922 -5.48475 0
M  V30 677 H 64.4992 1.04939 -4.29465 0
M  V30 678 N 63.5583 1.46682 -0.576371 0
M  V30 679 C 64.4683 2.34032 0.163141 0
M  V30 680 C 65.4843 1.49367 0.892501 0
M  V30 681 O 66.6603 1.82252 0.857106 0
M  V30 682 C 63.7253 3.26435 1.16795 0
M  V30 683 C 62.7863 4.26998 0.443944 0
M  V30 684 C 62.0193 5.14986 1.40088 0
M  V30 685 O 62.2423 5.05785 2.637 0
M  V30 686 O 61.1763 5.94906 0.914917 0
M  V30 687 H 65.0023 2.98607 -0.55388 0
M  V30 688 H 62.5873 1.45554 -0.336821 0
M  V30 689 H 64.4693 3.83459 1.74748 0
M  V30 690 H 63.1443 2.64465 1.86655 0
M  V30 691 H 62.0513 3.7368 -0.177271 0
M  V30 692 H 63.3843 4.91736 -0.213566 0
M  V30 693 N 65.0364 0.313813 1.54444 0
M  V30 694 C 66.2614 -0.296681 2.05267 0
M  V30 695 C 66.6864 -1.45757 1.18897 0
M  V30 696 O 66.0444 -1.80239 0.195886 0
M  V30 697 C 66.0924 -0.71831 3.53373 0
M  V30 698 O 65.1964 -1.82175 3.69981 0
M  V30 699 H 64.5374 -0.0554061 0.661684 0
M  V30 700 H 67.0674 0.459387 1.99376 0
M  V30 701 H 67.0774 -1.00364 3.95463 0
M  V30 702 H 65.7524 0.130821 4.15694 0
M  V30 703 H 64.3294 -1.53598 3.39797 0
M  V30 704 N 66.5145 -1.57545 0.0417849 0
M  V30 705 C 67.7625 -1.91937 -0.632829 0
M  V30 706 C 68.0835 -0.919978 -1.71934 0
M  V30 707 O 67.3535 0.0366064 -1.95866 0
M  V30 708 H 65.9335 -0.708493 -0.236742 0
M  V30 709 H 68.5955 -1.9468 0.0925745 0
M  V30 710 H 67.6915 -2.92912 -1.07746 0
M  V30 711 N 67.9926 0.231505 -1.5589 0
M  V30 712 C 68.9226 1.29022 -1.94617 0
M  V30 713 C 69.9036 1.4941 -0.813067 0
M  V30 714 O 71.0886 1.6176 -1.07459 0
M  V30 715 C 68.2186 2.64199 -2.25424 0
M  V30 716 C 67.1726 2.58484 -3.41131 0
M  V30 717 C 66.4986 3.97599 -3.57518 0
M  V30 718 C 67.7986 2.1413 -4.76388 0
M  V30 719 H 69.4926 0.968563 -2.83301 0
M  V30 720 H 67.0386 0.464479 -1.36303 0
M  V30 721 H 68.9916 3.38413 -2.51107 0
M  V30 722 H 67.7156 2.98032 -1.33583 0
M  V30 723 H 66.3746 1.86727 -3.15481 0
M  V30 724 H 66.0226 4.28723 -2.6307 0
M  V30 725 H 65.7226 3.94659 -4.35337 0
M  V30 726 H 67.2466 4.7349 -3.85538 0
M  V30 727 H 68.6606 2.78083 -5.01341 0
M  V30 728 H 67.0576 2.2227 -5.57419 0
M  V30 729 H 68.1276 1.09331 -4.72414 0
M  V30 730 N 69.4707 1.49531 0.497807 0
M  V30 731 C 70.8817 1.52344 1.07927 0
M  V30 732 C 71.2327 0.311469 1.93712 0
M  V30 733 O 70.3577 -0.578405 2.08527 0
M  V30 734 C 70.9527 2.76062 1.96405 0
M  V30 735 C 69.5117 2.81643 2.49709 0
M  V30 736 C 68.6587 2.46299 1.27404 0
M  V30 737 H 71.6097 1.56182 0.281576 0
M  V30 738 H 71.6307 2.56405 2.81135 0
M  V30 739 H 71.1427 3.64254 1.33943 0
M  V30 740 H 69.2437 1.97739 3.15801 0
M  V30 741 H 69.3567 3.83891 2.86643 0
M  V30 742 H 67.7207 1.98148 1.60029 0
M  V30 743 H 68.5037 3.36769 0.66645 0
M  V30 744 N 70.9488 -0.749086 1.3866 0
M  V30 745 C 72.1968 -1.50535 1.34847 0
M  V30 746 C 72.5178 -1.94909 -0.0595016 0
M  V30 747 O 71.7878 -1.67973 -1.00806 0
M  V30 748 H 70.3678 -0.558395 0.49619 0
M  V30 749 H 73.0298 -0.890165 1.73384 0
M  V30 750 H 72.1258 -2.39413 2.00219 0
M  V30 751 N 72.4269 -1.23603 -0.977757 0
M  V30 752 C 73.8429 -0.999251 -1.24447 0
M  V30 753 C 74.0429 0.298053 -1.99283 0
M  V30 754 O 73.0989 1.01681 -2.31122 0
M  V30 755 C 74.4119 -2.20784 -2.04144 0
M  V30 756 C 75.9599 -2.25303 -2.17273 0
M  V30 757 C 76.4349 -3.45755 -3.00362 0
M  V30 758 N 77.9259 -3.4601 -3.07947 0
M  V30 759 C 78.6609 -4.35868 -3.72568 0
M  V30 760 N 78.1569 -5.35966 -4.38991 0
M  V30 761 N 79.9499 -4.23605 -3.6948 0
M  V30 762 H 72.1009 -2.06986 -0.476483 0
M  V30 763 H 74.3639 -0.907801 -0.273134 0
M  V30 764 H 74.0699 -3.14945 -1.56533 0
M  V30 765 H 73.9439 -2.22085 -3.04891 0
M  V30 766 H 76.3309 -1.3168 -2.64092 0
M  V30 767 H 76.4119 -2.28033 -1.15907 0
M  V30 768 H 76.0559 -4.39687 -2.5424 0
M  V30 769 H 75.9859 -3.40266 -4.01904 0
M  V30 770 H 78.4769 -2.73588 -2.60688 0
M  V30 771 H 78.7899 -6.00783 -4.86086 0
M  V30 772 H 77.1349 -5.39863 -4.37691 0
M  V30 773 H 80.3259 -3.44647 -3.16759 0
M  V30 774 H 80.4989 -4.93836 -4.1956 0
M  V30 775 N 73.905 1.17692 -1.04816 0
M  V30 776 C 75.182 1.83768 -0.669963 0
M  V30 777 C 75.562 1.93232 0.849986 0
M  V30 778 O 74.91 1.46397 1.75443 0
M  V30 779 C 75.12 3.21641 -1.35455 0
M  V30 780 C 76.468 3.97592 -1.49017 0
M  V30 781 O 77.492 3.31107 -1.31326 0
M  V30 782 O 76.351 5.16729 -1.77914 0
M  V30 783 H 73.445 0.792799 -0.235368 0
M  V30 784 H 75.991 1.25021 -1.14751 0
M  V30 785 H 74.763 3.097 -2.39168 0
M  V30 786 H 74.386 3.88052 -0.866107 0
M  V30 787 N 75.3831 0.828654 1.34056 0
M  V30 788 C 76.6311 0.41863 1.97717 0
M  V30 789 C 76.9521 -1.02314 1.66002 0
M  V30 790 O 76.2221 -1.71119 0.953683 0
M  V30 791 H 74.8021 0.151809 0.731412 0
M  V30 792 H 77.4641 1.05936 1.63596 0
M  V30 793 H 76.5601 0.542318 3.07352 0
M  V30 794 N 76.8612 -1.46375 0.584142 0
M  V30 795 C 78.2772 -1.57694 0.245929 0
M  V30 796 C 78.4772 -1.57903 -1.25175 0
M  V30 797 O 77.5332 -1.49676 -2.03355 0
M  V30 798 C 78.8462 -2.87028 0.896402 0
M  V30 799 C 80.3942 -3.00662 0.870127 0
M  V30 800 C 80.8692 -4.32734 1.50017 0
M  V30 801 N 82.3602 -4.39436 1.46458 0
M  V30 802 C 83.0952 -5.40248 1.92144 0
M  V30 803 N 82.5912 -6.47726 2.4581 0
M  V30 804 N 84.3842 -5.31459 1.83052 0
M  V30 805 H 76.5352 -1.44483 1.55687 0
M  V30 806 H 78.7982 -0.689291 0.650831 0
M  V30 807 H 78.5042 -2.9269 1.95002 0
M  V30 808 H 78.3782 -3.75014 0.405486 0
M  V30 809 H 80.7652 -2.94581 -0.174871 0
M  V30 810 H 80.8462 -2.14148 1.39908 0
M  V30 811 H 80.4902 -4.39573 2.54437 0
M  V30 812 H 80.4202 -5.18025 0.946432 0
M  V30 813 H 82.9112 -3.62367 1.07231 0
M  V30 814 H 83.2242 -7.20863 2.78525 0
M  V30 815 H 81.5692 -6.48542 2.49836 0
M  V30 816 H 84.7602 -4.46396 1.40883 0
M  V30 817 H 84.9332 -6.09881 2.18973 0
M  V30 818 N 78.3393 -0.321999 -1.54275 0
M  V30 819 C 79.6163 0.335232 -1.92706 0
M  V30 820 C 79.9963 1.70006 -1.25145 0
M  V30 821 O 79.3443 2.25067 -0.394596 0
M  V30 822 C 79.5543 0.429008 -3.46353 0
M  V30 823 C 80.9023 0.690029 -4.18956 0
M  V30 824 O 81.9263 0.511992 -3.52501 0
M  V30 825 O 80.7853 1.03338 -5.36641 0
M  V30 826 H 77.8793 0.191143 -0.804608 0
M  V30 827 H 80.4253 -0.3716 -1.65581 0
M  V30 828 H 79.1973 -0.529611 -3.87699 0
M  V30 829 H 78.8203 1.18348 -3.79578 0
M  V30 830 N 79.8174 1.5752 -0.0501392 0
M  V30 831 C 81.0654 1.9227 0.622642 0
M  V30 832 C 81.3864 0.929083 1.71444 0
M  V30 833 O 80.6564 -0.0262186 1.95882 0
M  V30 834 H 79.2364 0.709739 0.232981 0
M  V30 835 H 81.8984 1.94628 -0.102898 0
M  V30 836 H 80.9944 2.93479 1.06191 0
M  V30 837 N 81.2955 -0.223234 1.56011 0
M  V30 838 C 82.7115 -0.572856 1.48965 0
M  V30 839 C 82.9115 -1.87225 0.74492 0
M  V30 840 O 81.9675 -2.50899 0.283896 0
M  V30 841 C 83.2805 -0.653646 2.9351 0
M  V30 842 C 84.8285 -0.744386 3.0402 0
M  V30 843 C 85.3035 -0.856535 4.49919 0
M  V30 844 N 86.7945 -0.9208 4.53955 0
M  V30 845 C 87.5295 -1.02726 5.64123 0
M  V30 846 N 87.0255 -1.09777 6.84047 0
M  V30 847 N 88.8185 -1.06226 5.51971 0
M  V30 848 H 80.9695 0.629462 2.02858 0
M  V30 849 H 83.2325 0.220621 0.921971 0
M  V30 850 H 82.9385 0.231518 3.50937 0
M  V30 851 H 82.8125 -1.51781 3.45315 0
M  V30 852 H 85.1995 -1.61999 2.46658 0
M  V30 853 H 85.2805 0.14541 2.55386 0
M  V30 854 H 84.9245 0.0146069 5.07898 0
M  V30 855 H 84.8545 -1.76172 4.96257 0
M  V30 856 H 87.3455 -0.876694 3.6759 0
M  V30 857 H 87.6585 -1.17872 7.63758 0
M  V30 858 H 86.0035 -1.06693 6.86762 0
M  V30 859 H 89.1945 -1.00382 4.5721 0
M  V30 860 H 89.3675 -1.14177 6.37862 0
M  V30 861 N 82.7736 -1.49793 -0.48987 0
M  V30 862 C 83.6836 -1.70036 -1.61632 0
M  V30 863 C 84.6996 -0.583102 -1.63939 0
M  V30 864 O 85.8756 -0.859169 -1.82154 0
M  V30 865 C 82.9406 -1.77277 -2.97949 0
M  V30 866 C 82.0016 -3.00918 -3.06181 0
M  V30 867 C 81.2346 -3.07804 -4.35996 0
M  V30 868 O 81.4576 -2.21982 -5.25433 0
M  V30 869 O 80.3916 -4.00369 -4.49431 0
M  V30 870 H 84.2176 -2.65486 -1.47482 0
M  V30 871 H 81.8026 -1.33666 -0.667362 0
M  V30 872 H 83.6846 -1.84329 -3.78947 0
M  V30 873 H 82.3596 -0.850076 -3.12339 0
M  V30 874 H 81.2666 -2.99377 -2.2433 0
M  V30 875 H 82.5996 -3.92704 -2.96723 0
M  V30 876 N 84.2517 0.741722 -1.39055 0
M  V30 877 C 85.4997 1.49818 -1.35643 0
M  V30 878 C 85.8207 1.94938 0.0491642 0
M  V30 879 O 85.0907 1.68505 0.999141 0
M  V30 880 H 83.6707 0.555755 -0.499144 0
M  V30 881 H 86.3327 0.880957 -1.73854 0
M  V30 882 H 85.4287 2.38348 -2.01486 0
M  V30 883 N 85.7298 1.2412 0.971189 0
M  V30 884 C 87.1408 1.07236 1.52831 0
M  V30 885 C 87.4918 -0.357352 1.92918 0
M  V30 886 O 86.6168 -1.24528 1.76979 0
M  V30 887 C 87.2118 1.94043 2.77728 0
M  V30 888 C 85.7708 1.81394 3.29808 0
M  V30 889 C 84.9178 1.89189 2.02738 0
M  V30 890 H 87.8688 1.37648 0.789864 0
M  V30 891 H 87.8898 1.47066 3.5093 0
M  V30 892 H 87.4018 2.98093 2.4852 0
M  V30 893 H 85.5028 0.801634 3.63874 0
M  V30 894 H 85.6158 2.65294 3.98944 0
M  V30 895 H 83.9798 1.32877 2.17292 0
M  V30 896 H 84.7628 2.94812 1.759 0
M  V30 897 N 87.2079 -1.17134 1.05439 0
M  V30 898 C 88.6239 -1.39454 0.776201 0
M  V30 899 C 88.8239 -1.91454 -0.628307 0
M  V30 900 O 87.8799 -2.10777 -1.39031 0
M  V30 901 C 89.1929 -2.38305 1.83388 0
M  V30 902 C 90.7409 -2.52006 1.85639 0
M  V30 903 C 91.2159 -3.54133 2.90437 0
M  V30 904 N 92.7069 -3.61653 2.89415 0
M  V30 905 C 93.4419 -4.4044 3.67152 0
M  V30 906 N 92.9379 -5.22721 4.54681 0
M  V30 907 N 94.7309 -4.35337 3.55581 0
M  V30 908 H 86.8819 -0.817134 1.96053 0
M  V30 909 H 89.1449 -0.421626 0.849079 0
M  V30 910 H 88.8509 -2.07173 2.84204 0
M  V30 911 H 88.7249 -3.37841 1.67761 0
M  V30 912 H 91.1119 -2.82447 0.85486 0
M  V30 913 H 91.1929 -1.52537 2.05344 0
M  V30 914 H 90.8369 -3.24431 3.90777 0
M  V30 915 H 90.7669 -4.53313 2.67983 0
M  V30 916 H 93.2579 -3.02909 2.25952 0
M  V30 917 H 93.5709 -5.80027 5.10674 0
M  V30 918 H 91.9159 -5.22093 4.58741 0
M  V30 919 H 95.1069 -3.70112 2.86592 0
M  V30 920 H 95.2799 -4.96494 4.1641 0
M  V30 921 N 88.686 -0.835752 -1.33615 0
M  V30 922 C 89.934 -0.429109 -1.97492 0
M  V30 923 C 90.255 1.01433 -1.66543 0
M  V30 924 O 89.525 1.70611 -0.962744 0
M  V30 925 H 88.105 -0.155686 -0.730596 0
M  V30 926 H 90.767 -1.06802 -1.63031 0
M  V30 927 H 89.863 -0.55861 -3.0706 0
M  V30 928 N 90.1641 1.46063 -0.591896 0
M  V30 929 C 91.0741 2.34192 0.13831 0
M  V30 930 C 92.0901 1.50305 0.876608 0
M  V30 931 O 93.2661 1.8315 0.837728 0
M  V30 932 C 90.3311 3.27656 1.13326 0
M  V30 933 C 89.3921 4.27445 0.39863 0
M  V30 934 C 88.6251 5.16443 1.34618 0
M  V30 935 O 88.8481 5.08553 2.58321 0
M  V30 936 O 87.7821 5.95843 0.851768 0
M  V30 937 H 91.6081 2.98002 -0.58552 0
M  V30 938 H 89.1931 1.45188 -0.352239 0
M  V30 939 H 91.0751 3.85291 1.70671 0
M  V30 940 H 89.7501 2.6643 1.83839 0
M  V30 941 H 88.6571 3.73471 -0.216895 0
M  V30 942 H 89.9901 4.91482 -0.265709 0
M  V30 943 N 91.6422 0.330177 1.54103 0
M  V30 944 C 92.5892 -0.532762 2.24567 0
M  V30 945 C 93.5592 -1.10635 1.23892 0
M  V30 946 O 94.7442 -1.14546 1.5259 0
M  V30 947 C 91.8842 -1.6845 3.01195 0
M  V30 948 C 90.9972 -1.13951 4.167 0
M  V30 949 C 90.1322 -2.25746 4.80845 0
M  V30 950 C 89.1712 -1.6853 5.88442 0
M  V30 951 N 88.3082 -2.74014 6.46421 0
M  V30 952 H 93.1482 0.0746905 2.97906 0
M  V30 953 H 90.6852 0.048632 1.4702 0
M  V30 954 H 92.6432 -2.36234 3.43874 0
M  V30 955 H 91.2732 -2.26314 2.30178 0
M  V30 956 H 90.3252 -0.35301 3.78758 0
M  V30 957 H 91.6372 -0.680892 4.94131 0
M  V30 958 H 90.7912 -3.01422 5.26526 0
M  V30 959 H 89.5302 -2.74947 4.0281 0
M  V30 960 H 88.5352 -0.913543 5.42157 0
M  V30 961 H 89.7602 -1.20198 6.68378 0
M  V30 962 H 87.7062 -3.22494 5.71256 0
M  V30 963 H 87.6232 -2.32735 7.19285 0
M  V30 964 H 88.8912 -3.49499 6.96757 0
M  V30 965 N 93.1203 -1.57491 0.0584922 0
M  V30 966 C 94.3683 -1.92597 -0.612436 0
M  V30 967 C 94.6893 -0.938162 -1.70949 0
M  V30 968 O 93.9593 0.0158301 -1.95894 0
M  V30 969 H 92.5393 -0.710964 -0.229214 0
M  V30 970 H 95.2013 -1.94571 0.113218 0
M  V30 971 H 94.2973 -2.94038 -1.04633 0
M  V30 972 N 94.5984 0.214957 -1.56127 0
M  V30 973 C 95.8754 0.963093 -1.70247 0
M  V30 974 C 96.2554 2.02166 -0.60764 0
M  V30 975 O 95.6034 2.25244 0.384385 0
M  V30 976 C 95.8134 1.56756 -3.11815 0
M  V30 977 C 97.1614 2.0573 -3.7143 0
M  V30 978 O 98.1854 1.66637 -3.14818 0
M  V30 979 O 97.0444 2.77603 -4.70743 0
M  V30 980 H 94.1384 0.450321 -0.693643 0
M  V30 981 H 96.6844 0.206219 -1.68442 0
M  V30 982 H 95.4564 0.803533 -3.82961 0
M  V30 983 H 95.0794 2.3898 -3.17765 0
M  V30 984 N 96.0765 1.50051 0.48192 0
M  V30 985 C 97.4875 1.5348 1.06305 0
M  V30 986 C 97.8385 0.331997 1.93371 0
M  V30 987 O 96.9635 -0.556256 2.09129 0
M  V30 988 C 97.5585 2.7813 1.93466 0
M  V30 989 C 96.1175 2.84275 2.46707 0
M  V30 990 C 95.2645 2.47637 1.24785 0
M  V30 991 H 98.2155 1.56472 0.264995 0
M  V30 992 H 98.2365 2.59372 2.78399 0
M  V30 993 H 97.7485 3.65654 1.30072 0
M  V30 994 H 95.8495 2.01077 3.13686 0
M  V30 995 H 95.9625 3.8691 2.82555 0
M  V30 996 H 94.3265 1.99835 1.57918 0
M  V30 997 H 95.1095 3.37457 0.630694 0
M  V30 998 N 97.5546 -0.734337 1.39446 0
M  V30 999 C 98.8026 -1.49096 1.36436 0
M  V30 1000 C 99.1236 -1.94961 -0.0388255 0
M  V30 1001 O 98.3936 -1.69033 -0.990191 0
M  V30 1002 H 96.9736 -0.5531 0.502085 0
M  V30 1003 H 99.6356 -0.871725 1.74319 0
M  V30 1004 H 98.7316 -2.37276 2.02747 0
M  V30 1005 N 99.0327 -1.24633 -0.964593 0
M  V30 1006 C 99.9627 -1.06611 -2.07741 0
M  V30 1007 C 100.944 0.0218666 -1.70086 0
M  V30 1008 O 102.129 -0.145793 -1.93652 0
M  V30 1009 C 99.2587 -0.673444 -3.40708 0
M  V30 1010 C 98.2127 -1.71054 -3.92332 0
M  V30 1011 C 97.5387 -1.17285 -5.21678 0
M  V30 1012 C 98.8387 -3.10718 -4.19824 0
M  V30 1013 H 100.533 -1.99693 -2.23076 0
M  V30 1014 H 98.0787 -0.96152 -1.07195 0
M  V30 1015 H 100.032 -0.534345 -4.17998 0
M  V30 1016 H 98.7557 0.293073 -3.25282 0
M  V30 1017 H 97.4147 -1.83791 -3.17201 0
M  V30 1018 H 97.0627 -0.196847 -5.02615 0
M  V30 1019 H 96.7627 -1.86592 -5.57187 0
M  V30 1020 H 98.2867 -1.04593 -6.01575 0
M  V30 1021 H 99.7007 -3.01192 -4.87808 0
M  V30 1022 H 98.0977 -3.77406 -4.66567 0
M  V30 1023 H 99.1677 -3.58524 -3.26479 0
M  V30 1024 N 100.511 1.16574 -1.06058 0
M  V30 1025 C 101.922 1.68662 -0.800632 0
M  V30 1026 C 102.273 1.84184 0.67608 0
M  V30 1027 O 101.398 1.53568 1.52466 0
M  V30 1028 C 101.993 3.06356 -1.44676 0
M  V30 1029 C 100.552 3.55575 -1.23465 0
M  V30 1030 C 99.6988 2.31616 -1.52477 0
M  V30 1031 H 102.65 1.00969 -1.22438 0
M  V30 1032 H 102.671 3.70636 -0.860788 0
M  V30 1033 H 102.183 2.95027 -2.52152 0
M  V30 1034 H 100.284 3.72167 -0.179527 0
M  V30 1035 H 100.397 4.37812 -1.94571 0
M  V30 1036 H 98.7608 2.36512 -0.945209 0
M  V30 1037 H 99.5438 2.22887 -2.61106 0
M  V30 1038 N 101.989 0.842826 1.3317 0
M  V30 1039 C 103.237 0.439577 1.97262 0
M  V30 1040 C 103.558 -1.00548 1.67078 0
M  V30 1041 O 102.828 -1.70098 0.971779 0
M  V30 1042 H 101.408 0.159558 0.72976 0
M  V30 1043 H 104.07 1.07665 1.62463 0
M  V30 1044 H 103.166 0.574886 3.0676 0
M  V30 1045 N 103.467 -1.45747 0.599634 0
M  V30 1046 C 104.43 -2.28917 -0.113835 0
M  V30 1047 C 105.43 -1.3933 -0.802729 0
M  V30 1048 O 106.62 -1.61534 -0.652103 0
M  V30 1049 C 103.752 -3.20152 -1.17114 0
M  V30 1050 H 104.945 -2.93478 0.617289 0
M  V30 1051 H 102.498 -1.52137 0.358327 0
M  V30 1052 H 103.233 -2.60374 -1.93329 0
M  V30 1053 H 103.018 -3.86133 -0.681468 0
M  V30 1054 H 104.508 -3.82708 -1.67105 0
M  V30 1055 N 104.945 -0.338344 -1.53925 0
M  V30 1056 C 105.908 0.508299 -2.23493 0
M  V30 1057 C 106.908 1.03175 -1.23335 0
M  V30 1058 O 108.098 0.921826 -1.47811 0
M  V30 1059 C 105.23 1.70754 -2.95052 0
M  V30 1060 H 106.423 -0.100058 -2.99733 0
M  V30 1061 H 103.976 -0.0896198 -1.56043 0
M  V30 1062 H 104.711 2.35474 -2.22986 0
M  V30 1063 H 104.496 1.33946 -3.68512 0
M  V30 1064 H 105.986 2.30818 -3.48013 0
M  V30 1065 N 106.423 1.57458 -0.0668435 0
M  V30 1066 C 107.671 1.92919 0.602214 0
M  V30 1067 C 107.992 0.947215 1.70449 0
M  V30 1068 O 107.262 -0.00544117 1.95899 0
M  V30 1069 H 105.842 0.71217 0.22544 0
M  V30 1070 H 108.504 1.94508 -0.123535 0
M  V30 1071 H 107.6 2.94589 1.03073 0
M  V30 1072 N 107.901 -0.206675 1.56239 0
M  V30 1073 C 108.833 -1.27997 1.9013 0
M  V30 1074 C 109.846 -1.42299 0.790883 0
M  V30 1075 O 111.035 -1.42931 1.06925 0
M  V30 1076 C 108.135 -2.65368 2.10792 0
M  V30 1077 C 107.308 -2.72824 3.41886 0
M  V30 1078 C 106.367 -3.9131 3.51799 0
M  V30 1079 O 105.393 -3.78953 4.24716 0
M  V30 1080 N 106.595 -5.06265 2.84035 0
M  V30 1081 H 109.36 -0.992444 2.82791 0
M  V30 1082 H 106.921 -0.396652 1.56966 0
M  V30 1083 H 108.913 -3.43039 2.14724 0
M  V30 1084 H 107.483 -2.86657 1.24685 0
M  V30 1085 H 106.703 -1.81515 3.49923 0
M  V30 1086 H 107.991 -2.74786 4.28217 0
M  V30 1087 H 107.389 -5.19203 2.246 0
M  V30 1088 H 105.946 -5.81925 2.93609 0
M  V30 1089 N 109.379 -1.50304 -0.473955 0
M  V30 1090 C 110.342 -1.6841 -1.55469 0
M  V30 1091 C 111.342 -0.554905 -1.50922 0
M  V30 1092 O 112.532 -0.821882 -1.53593 0
M  V30 1093 C 109.664 -1.70667 -2.95102 0
M  V30 1094 H 110.857 -2.64828 -1.40733 0
M  V30 1095 H 108.41 -1.39742 -0.700132 0
M  V30 1096 H 109.145 -0.75932 -3.15285 0
M  V30 1097 H 108.93 -2.52698 -2.9981 0
M  V30 1098 H 110.42 -1.8664 -3.73571 0
M  V30 1099 N 110.857 0.726932 -1.39834 0
M  V30 1100 C 112.105 1.4837 -1.37225 0
M  V30 1101 C 112.426 1.94979 0.0284857 0
M  V30 1102 O 111.696 1.69555 0.981213 0
M  V30 1103 H 110.276 0.55043 -0.505011 0
M  V30 1104 H 112.938 0.862468 -1.74778 0
M  V30 1105 H 112.034 2.36198 -2.04003 0
M  V30 1106 N 112.336 1.25143 0.95797 0
M  V30 1107 C 113.269 0.995565 2.05338 0
M  V30 1108 C 114.247 -0.0740423 1.62431 0
M  V30 1109 O 115.431 0.0649212 1.88388 0
M  V30 1110 C 112.558 0.504298 3.34925 0
M  V30 1111 C 111.604 1.56393 3.96792 0
M  V30 1112 S 112.437 3.14815 4.33188 0
M  V30 1113 C 113.593 2.67415 5.65898 0
M  V30 1114 H 113.826 1.92309 2.26726 0
M  V30 1115 H 111.359 1.08635 1.09716 0
M  V30 1116 H 113.317 0.227497 4.09869 0
M  V30 1117 H 111.978 -0.402671 3.11508 0
M  V30 1118 H 111.171 1.17082 4.90212 0
M  V30 1119 H 110.773 1.79124 3.28315 0
M  V30 1120 H 113.065 2.10833 6.4386 0
M  V30 1121 H 114.008 3.59463 6.10076 0
M  V30 1122 H 114.416 2.07521 5.24972 0
M  V30 1123 N 113.814 -1.1601 1.06675 0
M  V30 1124 C 115.225 -1.68235 0.809565 0
M  V30 1125 C 115.576 -1.8454 -0.666303 0
M  V30 1126 O 114.701 -1.54374 -1.5165 0
M  V30 1127 C 115.296 -3.05585 1.46299 0
M  V30 1128 C 113.855 -3.54915 1.25349 0
M  V30 1129 C 113.002 -2.30804 1.53703 0
M  V30 1130 H 115.953 -1.00318 1.22971 0
M  V30 1131 H 115.974 -3.70174 0.880431 0
M  V30 1132 H 115.486 -2.93686 2.53713 0
M  V30 1133 H 113.587 -3.72067 0.199261 0
M  V30 1134 H 113.7 -4.36774 1.9689 0
M  V30 1135 H 112.064 -2.36007 0.957739 0
M  V30 1136 H 112.847 -2.21499 2.62284 0
M  V30 1137 N 115.292 -0.849877 -1.32721 0
M  V30 1138 C 116.54 -0.450032 -1.97026 0
M  V30 1139 C 116.861 0.996604 -1.67609 0
M  V30 1140 O 116.131 1.6958 -0.980786 0
M  V30 1141 H 114.711 -0.163426 -0.728904 0
M  V30 1142 H 117.373 -1.08526 -1.6189 0
M  V30 1143 H 116.469 -0.591146 -3.0645 0
M  V30 1144 N 116.77 1.45427 -0.607355 0
M  V30 1145 C 117.702 2.2871 0.149752 0
M  V30 1146 C 118.715 1.39937 0.831958 0
M  V30 1147 O 119.904 1.64313 0.697385 0
M  V30 1148 C 117.004 3.15673 1.23304 0
M  V30 1149 C 116.177 4.32722 0.637996 0
M  V30 1150 C 115.236 5.00895 1.61215 0
M  V30 1151 O 114.262 5.57697 1.13854 0
M  V30 1152 N 115.464 5.00159 2.94655 0
M  V30 1153 H 118.229 2.94328 -0.564882 0
M  V30 1154 H 115.79 1.55612 -0.446823 0
M  V30 1155 H 117.782 3.58144 1.88454 0
M  V30 1156 H 116.352 2.51965 1.8502 0
M  V30 1157 H 115.572 3.93734 -0.191572 0
M  V30 1158 H 116.86 5.08321 0.220665 0
M  V30 1159 H 116.258 4.553 3.35735 0
M  V30 1160 H 114.815 5.46495 3.55228 0
M  V30 1161 N 118.248 0.346503 1.53744 0
M  V30 1162 C 119.211 -0.496439 2.23759 0
M  V30 1163 C 120.211 -1.0252 1.2388 0
M  V30 1164 O 121.401 -0.913974 1.48297 0
M  V30 1165 C 118.533 -1.69187 2.95954 0
M  V30 1166 H 119.726 0.115952 2.99676 0
M  V30 1167 H 117.279 0.0978939 1.55993 0
M  V30 1168 H 118.014 -2.34288 2.24231 0
M  V30 1169 H 117.799 -1.31989 3.69217 0
M  V30 1170 H 119.289 -2.28969 3.49232 0
M  V30 1171 N 119.726 -1.57421 0.075193 0
M  V30 1172 C 120.974 -1.93236 -0.591974 0
M  V30 1173 C 121.295 -0.956241 -1.69944 0
M  V30 1174 O 120.565 -0.00494792 -1.95899 0
M  V30 1175 H 119.145 -0.713355 -0.22166 0
M  V30 1176 H 121.807 -1.9444 0.133848 0
M  V30 1177 H 120.903 -2.95131 -1.01509 0
M  V30 1178 N 121.204 0.198386 -1.56346 0
M  V30 1179 C 122.615 0.763358 -1.70381 0
M  V30 1180 C 122.966 1.83995 -0.681203 0
M  V30 1181 O 122.091 2.15785 0.16305 0
M  V30 1182 C 122.686 1.39143 -3.08909 0
M  V30 1183 C 121.245 1.90352 -3.2472 0
M  V30 1184 C 120.392 0.772233 -2.6633 0
M  V30 1185 H 123.343 -0.0266377 -1.58678 0
M  V30 1186 H 123.364 2.26076 -3.06055 0
M  V30 1187 H 122.876 0.607638 -3.83314 0
M  V30 1188 H 120.977 2.71461 -2.55225 0
M  V30 1189 H 121.09 2.06757 -4.3219 0
M  V30 1190 H 119.454 1.18566 -2.2542 0
M  V30 1191 H 120.237 0.00073556 -3.433 0
M  V30 1192 N 122.682 1.50554 0.465978 0
M  V30 1193 C 123.928 1.62038 1.21949 0
M  V30 1194 C 124.261 0.322116 1.9151 0
M  V30 1195 O 123.536 -0.676723 1.82348 0
M  V30 1196 C 123.819 2.80421 2.25912 0
M  V30 1197 C 123.672 4.20144 1.60622 0
M  V30 1198 C 124.991 2.94354 3.27176 0
M  V30 1199 H 122.11 0.589752 0.441998 0
M  V30 1200 H 124.752 1.82956 0.51257 0
M  V30 1201 H 122.902 2.62717 2.86203 0
M  V30 1202 H 124.574 4.49449 1.03889 0
M  V30 1203 H 122.817 4.24165 0.909211 0
M  V30 1204 H 123.488 4.98914 2.36196 0
M  V30 1205 H 125.964 3.10578 2.76913 0
M  V30 1206 H 124.84 3.788 3.97242 0
M  V30 1207 H 125.101 2.05186 3.916 0
M  V30 1208 N 124.16 -0.719506 1.40217 0
M  V30 1209 C 125.408 -1.47641 1.3801 0
M  V30 1210 C 125.729 -1.94992 -0.018145 0
M  V30 1211 O 124.999 -1.70073 -0.972207 0
M  V30 1212 H 123.579 -0.547744 0.507923 0
M  V30 1213 H 126.241 -0.853187 1.75233 0
M  V30 1214 H 125.337 -2.35112 2.05253 0
M  V30 1215 N 125.638 -1.25649 -0.95132 0
M  V30 1216 C 127.049 -1.09654 -1.51106 0
M  V30 1217 C 127.4 0.326615 -1.93462 0
M  V30 1218 O 126.525 1.21697 -1.78938 0
M  V30 1219 C 127.12 -1.98437 -2.74605 0
M  V30 1220 C 125.679 -1.86618 -3.2688 0
M  V30 1221 C 124.826 -1.9239 -1.99703 0
M  V30 1222 H 127.777 -1.38887 -0.767865 0
M  V30 1223 H 127.798 -1.5263 -3.48546 0
M  V30 1224 H 127.31 -3.02009 -2.43746 0
M  V30 1225 H 125.411 -0.859421 -3.62553 0
M  V30 1226 H 125.524 -2.71607 -3.94673 0
M  V30 1227 H 123.888 -1.36317 -2.15151 0
M  V30 1228 H 124.671 -2.97573 -1.71188 0
M  V30 1229 N 127.117 1.15442 -1.07289 0
M  V30 1230 C 128.064 2.20161 -0.692653 0
M  V30 1231 C 129.034 1.63073 0.31564 0
M  V30 1232 O 130.219 1.89725 0.202235 0
M  V30 1233 C 127.359 3.44967 -0.0959509 0
M  V30 1234 C 126.472 4.16256 -1.15564 0
M  V30 1235 C 125.607 5.28609 -0.524011 0
M  V30 1236 C 124.646 5.91715 -1.56653 0
M  V30 1237 N 123.783 6.9554 -0.957531 0
M  V30 1238 H 128.623 2.52037 -1.59002 0
M  V30 1239 H 126.16 1.2378 -0.794798 0
M  V30 1240 H 128.118 4.16341 0.267628 0
M  V30 1241 H 126.748 3.1361 0.764772 0
M  V30 1242 H 125.8 3.43385 -1.6368 0
M  V30 1243 H 127.112 4.59268 -1.94613 0
M  V30 1244 H 126.266 6.06604 -0.108032 0
M  V30 1245 H 125.005 4.86787 0.29825 0
M  V30 1246 H 124.01 5.12433 -1.9923 0
M  V30 1247 H 125.235 6.35614 -2.39107 0
M  V30 1248 H 123.181 6.55814 -0.156162 0
M  V30 1249 H 123.098 7.36977 -1.68526 0
M  V30 1250 H 124.366 7.77435 -0.567032 0
M  V30 1251 N 128.595 0.856903 1.32268 0
M  V30 1252 C 129.843 0.460474 1.96784 0
M  V30 1253 C 130.164 -0.987701 1.68135 0
M  V30 1254 O 129.434 -1.69058 0.989765 0
M  V30 1255 H 128.014 0.167289 0.728027 0
M  V30 1256 H 130.676 1.09383 1.61312 0
M  V30 1257 H 129.772 0.60739 3.06133 0
M  V30 1258 N 130.073 -1.45103 0.615059 0
M  V30 1259 C 131.35 -1.95549 0.0448276 0
M  V30 1260 C 131.73 -1.55737 -1.4251 0
M  V30 1261 O 131.078 -0.823556 -2.13143 0
M  V30 1262 C 131.288 -3.48098 0.250785 0
M  V30 1263 C 132.636 -4.24384 0.135509 0
M  V30 1264 O 133.66 -3.55738 0.181299 0
M  V30 1265 O 132.519 -5.46493 0.0268878 0
M  V30 1266 H 129.613 -0.8264 -0.0314845 0
M  V30 1267 H 132.159 -1.55232 0.685642 0
M  V30 1268 H 130.931 -3.7007 1.27139 0
M  V30 1269 H 130.554 -3.95323 -0.424937 0
M  V30 1270 N 131.551 -0.354651 -1.53558 0
M  V30 1271 C 132.499 0.512195 -2.26891 0
M  V30 1272 C 133.493 1.09263 -1.29452 0
M  V30 1273 O 134.699 1.03709 -1.47121 0
M  V30 1274 H 131.074 0.183878 -0.729173 0
M  V30 1275 H 133.045 -0.128202 -2.98124 0
M  V30 1276 C 131.794 1.64563 -3.06291 0
M  V30 1277 H 131.117 1.20829 -3.81104 0
M  V30 1278 H 132.557 2.22711 -3.60799 0
M  V30 1279 C 131.016 2.58158 -2.16462 0
M  V30 1280 O 131.546 3.60695 -1.76811 0
M  V30 1281 N 129.752 2.27096 -1.81317 0
M  V30 1282 H 129.299 1.43751 -2.1376 0
M  V30 1283 H 129.257 2.89975 -1.21498 0
M  V30 1284 N 133.029 1.57378 -0.0835403 0
M  V30 1285 C 134.277 1.93547 0.581718 0
M  V30 1286 C 134.598 0.96524 1.69435 0
M  V30 1287 O 133.868 0.0153369 1.95894 0
M  V30 1288 H 132.448 0.714521 0.217874 0
M  V30 1289 H 135.11 1.94366 -0.144158 0
M  V30 1290 H 134.206 2.95665 0.999423 0
M  V30 1291 N 134.507 -0.190092 1.56449 0
M  V30 1292 C 135.732 -0.929864 1.85387 0
M  V30 1293 C 136.157 -1.7585 0.667704 0
M  V30 1294 O 135.515 -1.77198 -0.383459 0
M  V30 1295 C 135.563 -1.79773 3.12593 0
M  V30 1296 O 134.667 -2.89713 2.93496 0
M  V30 1297 H 134.008 -0.261574 0.610307 0
M  V30 1298 H 136.538 -0.193896 2.03679 0
M  V30 1299 H 136.548 -2.20139 3.43515 0
M  V30 1300 H 135.223 -1.18892 3.98544 0
M  V30 1301 H 133.8 -2.53065 2.73884 0
M  V30 1302 N 135.985 -1.50799 -0.457987 0
M  V30 1303 C 137.231 -1.62683 -1.21088 0
M  V30 1304 C 137.564 -0.332268 -1.91336 0
M  V30 1305 O 136.839 0.667043 -1.82704 0
M  V30 1306 C 137.122 -2.81615 -2.24422 0
M  V30 1307 C 136.975 -4.20989 -1.58392 0
M  V30 1308 C 138.294 -2.96085 -3.2561 0
M  V30 1309 H 135.413 -0.592087 -0.438864 0
M  V30 1310 H 138.055 -1.83225 -0.50286 0
M  V30 1311 H 136.205 -2.64231 -2.84806 0
M  V30 1312 H 137.877 -4.49994 -1.01504 0
M  V30 1313 H 136.12 -4.24641 -0.886704 0
M  V30 1314 H 136.791 -5.0016 -2.33547 0
M  V30 1315 H 139.267 -3.12042 -2.75262 0
M  V30 1316 H 138.143 -3.80902 -3.95228 0
M  V30 1317 H 138.404 -2.0726 -3.90507 0
M  V30 1318 N 137.463 0.71206 -1.40597 0
M  V30 1319 C 138.711 1.46907 -1.38791 0
M  V30 1320 C 139.032 1.94998 0.00780391 0
M  V30 1321 O 138.302 1.70587 0.963174 0
M  V30 1322 H 136.882 0.545043 -0.51082 0
M  V30 1323 H 139.544 0.843882 -1.75683 0
M  V30 1324 H 138.64 2.34021 -2.06496 0
M  V30 1325 N 138.941 1.26152 0.944643 0
M  V30 1326 C 139.851 1.09176 2.07648 0
M  V30 1327 C 140.867 0.0261935 1.7398 0
M  V30 1328 O 142.043 0.229208 2.00091 0
M  V30 1329 C 139.108 0.722915 3.39079 0
M  V30 1330 C 138.169 1.86752 3.86552 0
M  V30 1331 C 137.402 1.51617 5.11711 0
M  V30 1332 O 137.625 0.416331 5.68879 0
M  V30 1333 O 136.559 2.34975 5.54139 0
M  V30 1334 H 140.385 2.0412 2.24875 0
M  V30 1335 H 137.97 1.05182 1.061 0
M  V30 1336 H 139.852 0.529787 4.18056 0
M  V30 1337 H 138.527 -0.197159 3.23099 0
M  V30 1338 H 137.434 2.11558 3.08535 0
M  V30 1339 H 138.767 2.76719 4.07047 0
M  V30 1340 N 140.419 -1.14872 1.07899 0
M  V30 1341 C 141.83 -1.67367 0.827363 0
M  V30 1342 C 142.181 -1.85236 -0.646693 0
M  V30 1343 O 141.306 -1.55974 -1.50004 0
M  V30 1344 C 141.901 -3.04016 1.49532 0
M  V30 1345 C 140.46 -3.53566 1.29106 0
M  V30 1346 C 139.607 -2.29161 1.56143 0
M  V30 1347 H 142.558 -0.990083 1.24028 0
M  V30 1348 H 142.579 -3.69219 0.919643 0
M  V30 1349 H 142.091 -2.90978 2.56814 0
M  V30 1350 H 140.192 -3.71835 0.238713 0
M  V30 1351 H 140.305 -4.34661 2.01511 0
M  V30 1352 H 138.669 -2.34978 0.982717 0
M  V30 1353 H 139.452 -2.18705 2.64619 0
M  V30 1354 N 141.898 -0.863906 -1.31812 0
M  V30 1355 C 143.146 -0.470904 -1.96537 0
M  V30 1356 C 143.467 0.978771 -1.68657 0
M  V30 1357 O 142.737 1.6853 -0.998717 0
M  V30 1358 H 141.317 -0.171148 -0.72713 0
M  V30 1359 H 143.979 -1.10236 -1.60729 0
M  V30 1360 H 143.075 -0.623616 -3.05806 0
M  V30 1361 N 143.376 1.44774 -0.622745 0
M  V30 1362 C 144.787 1.85546 -0.207226 0
M  V30 1363 C 145.138 1.52093 1.23944 0
M  V30 1364 O 144.263 0.95492 1.94191 0
M  V30 1365 C 144.858 3.36781 -0.369313 0
M  V30 1366 C 143.417 3.76399 -0.00836847 0
M  V30 1367 C 142.564 2.68664 -0.686651 0
M  V30 1368 H 145.515 1.3536 -0.828454 0
M  V30 1369 H 145.536 3.78453 0.394162 0
M  V30 1370 H 145.048 3.61098 -1.42231 0
M  V30 1371 H 143.149 3.57698 1.04322 0
M  V30 1372 H 143.262 4.7732 -0.412584 0
M  V30 1373 H 141.626 2.54404 -0.122777 0
M  V30 1374 H 142.409 2.95815 -1.74208 0
M  V30 1375 N 144.854 0.36279 1.53368 0
M  V30 1376 C 145.801 -0.485008 2.25646 0
M  V30 1377 C 146.771 -1.07982 1.2621 0
M  V30 1378 O 147.956 -1.11284 1.54986 0
M  V30 1379 C 145.096 -1.62023 3.04701 0
M  V30 1380 C 144.209 -1.05086 4.19024 0
M  V30 1381 C 143.344 -2.15496 4.85525 0
M  V30 1382 C 142.383 -1.5601 5.91884 0
M  V30 1383 N 141.52 -2.60241 6.52088 0
M  V30 1384 H 146.36 0.137864 2.97681 0
M  V30 1385 H 143.897 0.0798061 1.46883 0
M  V30 1386 H 145.855 -2.28887 3.48807 0
M  V30 1387 H 144.485 -2.2138 2.34927 0
M  V30 1388 H 143.537 -0.27259 3.79422 0
M  V30 1389 H 144.849 -0.575926 4.95464 0
M  V30 1390 H 144.003 -2.90186 5.32801 0
M  V30 1391 H 142.742 -2.66341 4.08551 0
M  V30 1392 H 141.747 -0.798338 5.43973 0
M  V30 1393 H 142.972 -1.05994 6.70777 0
M  V30 1394 H 140.918 -3.10304 5.77968 0
M  V30 1395 H 140.835 -2.17426 7.24059 0
M  V30 1396 H 142.103 -3.34641 7.04014 0
M  V30 1397 N 146.332 -1.57332 0.0918853 0
M  V30 1398 C 147.58 -1.93853 -0.571446 0
M  V30 1399 C 147.901 -0.974212 -1.6892 0
M  V30 1400 O 147.171 -0.0257254 -1.95883 0
M  V30 1401 H 145.751 -0.715666 -0.214082 0
M  V30 1402 H 148.413 -1.94287 0.154464 0
M  V30 1403 H 147.509 -2.96191 -0.983729 0
M  V30 1404 N 147.81 0.181792 -1.56548 0
M  V30 1405 C 149.087 0.926765 -1.72251 0
M  V30 1406 C 149.467 2.00831 -0.650386 0
M  V30 1407 O 148.815 2.26008 0.336521 0
M  V30 1408 C 149.025 1.50106 -3.1507 0
M  V30 1409 C 150.373 1.97805 -3.75711 0
M  V30 1410 O 151.397 1.59922 -3.18282 0
M  V30 1411 O 150.256 2.67555 -4.76525 0
M  V30 1412 H 147.35 0.435506 -0.703039 0
M  V30 1413 H 149.896 0.170443 -1.68842 0
M  V30 1414 H 148.668 0.72212 -3.84579 0
M  V30 1415 H 148.291 2.32186 -3.22763 0
M  V30 1416 N 149.288 1.51039 0.449983 0
M  V30 1417 C 150.516 1.66869 1.2232 0
M  V30 1418 C 150.931 0.360727 1.85322 0
M  V30 1419 O 150.288 -0.659531 1.70166 0
M  V30 1420 C 150.339 2.77524 2.31652 0
M  V30 1421 O 150.06 4.03252 1.7123 0
M  V30 1422 C 151.561 3.04512 3.2216 0
M  V30 1423 H 148.781 0.560326 0.369155 0
M  V30 1424 H 151.325 1.97385 0.534719 0
M  V30 1425 H 149.48 2.49642 2.96239 0
M  V30 1426 H 149.894 4.64609 2.43389 0
M  V30 1427 H 151.368 3.85551 3.95038 0
M  V30 1428 H 151.845 2.16415 3.8218 0
M  V30 1429 H 152.451 3.34005 2.63288 0
M  V30 1430 N 150.766 -0.704594 1.40972 0
M  V30 1431 C 152.014 -1.46169 1.39568 0
M  V30 1432 C 152.335 -1.95 0.00253745 0
M  V30 1433 O 151.605 -1.71095 -0.954114 0
M  V30 1434 H 150.185 -0.542326 0.513704 0
M  V30 1435 H 152.847 -0.834553 1.76128 0
M  V30 1436 H 151.943 -2.32922 2.07735 0
M  V30 1437 N 152.244 -1.26651 -0.937939 0
M  V30 1438 C 153.655 -1.1125 -1.49934 0
M  V30 1439 C 154.006 0.306077 -1.93798 0
M  V30 1440 O 153.131 1.19792 -1.80219 0
M  V30 1441 C 153.726 -2.01339 -2.72485 0
M  V30 1442 C 152.285 -1.90074 -3.24883 0
M  V30 1443 C 151.432 -1.94498 -1.97651 0
M  V30 1444 H 154.383 -1.39693 -0.753091 0
M  V30 1445 H 154.404 -1.56319 -3.46907 0
M  V30 1446 H 153.916 -3.04577 -2.40529 0
M  V30 1447 H 152.017 -0.897827 -3.61621 0
M  V30 1448 H 152.13 -2.75778 -3.9177 0
M  V30 1449 H 150.494 -1.38591 -2.13693 0
M  V30 1450 H 151.277 -2.99372 -1.68022 0
M  V30 1451 N 153.722 1.14298 -1.08507 0
M  V30 1452 C 154.947 1.8976 -0.837001 0
M  V30 1453 C 155.372 1.78097 0.605228 0
M  V30 1454 O 154.73 1.12188 1.4242 0
M  V30 1455 C 154.778 3.37685 -1.26495 0
M  V30 1456 O 153.882 4.10281 -0.417514 0
M  V30 1457 H 153.223 0.590365 -0.303917 0
M  V30 1458 H 155.753 1.44672 -1.44676 0
M  V30 1459 H 155.763 3.88501 -1.24625 0
M  V30 1460 H 154.438 3.45492 -2.31534 0
M  V30 1461 H 153.015 3.69536 -0.499722 0
M  V30 1462 N 155.201 0.870884 1.31352 0
M  V30 1463 C 156.449 0.48132 1.96285 0
M  V30 1464 C 156.77 -0.969813 1.69173 0
M  V30 1465 O 156.04 -1.67998 1.00764 0
M  V30 1466 H 154.62 0.175002 0.726212 0
M  V30 1467 H 157.282 1.11087 1.60143 0
M  V30 1468 H 156.378 0.639825 3.05471 0
M  V30 1469 N 156.679 -1.44442 0.630414 0
M  V30 1470 C 158.09 -1.85434 0.217063 0
M  V30 1471 C 158.441 -1.52748 -1.23136 0
M  V30 1472 O 157.566 -0.965205 -1.93682 0
M  V30 1473 C 158.161 -3.36581 0.387168 0
M  V30 1474 C 156.72 -3.76389 0.0283297 0
M  V30 1475 C 155.867 -2.68296 0.700889 0
M  V30 1476 H 158.818 -1.34919 0.83562 0
M  V30 1477 H 158.839 -3.78657 -0.374086 0
M  V30 1478 H 158.351 -3.60339 1.44144 0
M  V30 1479 H 156.452 -3.58246 -1.02423 0
M  V30 1480 H 156.565 -4.77095 0.437892 0
M  V30 1481 H 154.929 -2.54335 0.136267 0
M  V30 1482 H 155.712 -2.94887 1.75774 0
M  V30 1483 N 158.157 -0.370918 -1.53173 0
M  V30 1484 C 159.568 0.107139 -1.86392 0
M  V30 1485 C 159.919 1.47714 -1.29132 0
M  V30 1486 O 159.044 2.07464 -0.615439 0
M  V30 1487 C 159.639 0.201187 -3.38202 0
M  V30 1488 C 158.198 0.623507 -3.712 0
M  V30 1489 C 157.345 -0.225978 -2.76378 0
M  V30 1490 H 160.296 -0.58951 -1.47345 0
M  V30 1491 H 160.317 1.02377 -3.66468 0
M  V30 1492 H 159.829 -0.796058 -3.79848 0
M  V30 1493 H 157.93 1.62879 -3.35114 0
M  V30 1494 H 158.043 0.394414 -4.77474 0
M  V30 1495 H 156.407 0.305962 -2.52856 0
M  V30 1496 H 157.19 -1.22086 -3.20858 0
M  V30 1497 N 159.635 1.57281 -0.100228 0
M  V30 1498 C 160.883 1.94153 0.561157 0
M  V30 1499 C 161.204 0.983157 1.68401 0
M  V30 1500 O 160.474 0.0361132 1.95867 0
M  V30 1501 H 159.054 0.716791 0.210283 0
M  V30 1502 H 161.716 1.94202 -0.164765 0
M  V30 1503 H 160.812 2.96709 0.968008 0
M  V30 1504 N 161.113 -0.173488 1.56642 0
M  V30 1505 C 162.524 -0.736155 1.71574 0
M  V30 1506 C 162.875 -1.82888 0.710389 0
M  V30 1507 O 162 -2.16017 -0.1287 0
M  V30 1508 C 162.595 -1.34211 3.11083 0
M  V30 1509 C 161.154 -1.85162 3.27707 0
M  V30 1510 C 160.301 -0.729765 2.67525 0
M  V30 1511 H 163.252 0.0518786 1.58615 0
M  V30 1512 H 163.273 -2.21178 3.09613 0
M  V30 1513 H 162.785 -0.546579 3.84232 0
M  V30 1514 H 160.886 -2.67366 2.59512 0
M  V30 1515 H 160.999 -1.99855 4.35425 0
M  V30 1516 H 159.363 -1.14965 2.27278 0
M  V30 1517 H 160.146 0.0538806 3.43258 0
M  V30 1518 N 162.591 -1.51276 -0.441967 0
M  V30 1519 C 164.002 -1.56244 -1.02199 0
M  V30 1520 C 164.353 -0.383149 -1.92422 0
M  V30 1521 O 163.478 0.500613 -2.1053 0
M  V30 1522 C 164.073 -2.83162 -1.86024 0
M  V30 1523 C 162.632 -2.90716 -2.39084 0
M  V30 1524 C 161.779 -2.50858 -1.18175 0
M  V30 1525 H 164.73 -1.5712 -0.223416 0
M  V30 1526 H 164.751 -2.66663 -2.71425 0
M  V30 1527 H 164.263 -3.68974 -1.20331 0
M  V30 1528 H 162.364 -2.09323 -3.08244 0
M  V30 1529 H 162.477 -3.94266 -2.72198 0
M  V30 1530 H 160.841 -2.03951 -1.52565 0
M  V30 1531 H 161.624 -3.3901 -0.541001 0
M  V30 1532 N 164.069 0.697108 -1.41344 0
M  V30 1533 C 165.317 1.45426 -1.40341 0
M  V30 1534 C 165.638 1.94996 -0.0128787 0
M  V30 1535 O 164.908 1.71599 0.945027 0
M  V30 1536 H 163.488 0.539594 -0.516573 0
M  V30 1537 H 166.15 0.825201 -1.76569 0
M  V30 1538 H 165.246 2.31817 -2.08967 0
M  V30 1539 N 165.547 1.27147 0.931209 0
M  V30 1540 C 166.793 1.13446 1.68101 0
M  V30 1541 C 167.126 -0.319628 1.91552 0
M  V30 1542 O 166.401 -1.23407 1.50336 0
M  V30 1543 C 166.684 1.91482 3.0497 0
M  V30 1544 C 166.537 3.44855 2.88782 0
M  V30 1545 C 167.856 1.71651 4.05246 0
M  V30 1546 H 164.975 0.413498 0.610072 0
M  V30 1547 H 167.617 1.56261 1.08086 0
M  V30 1548 H 165.767 1.55095 3.56199 0
M  V30 1549 H 167.439 3.9105 2.44698 0
M  V30 1550 H 165.682 3.71373 2.24198 0
M  V30 1551 H 166.353 3.94694 3.85902 0
M  V30 1552 H 168.829 2.0337 3.63015 0
M  V30 1553 H 167.705 2.28651 4.99009 0
M  V30 1554 H 167.966 0.663555 4.37092 0
M  V30 1555 N 167.025 -1.13721 1.09112 0
M  V30 1556 C 168.436 -1.6648 0.845068 0
M  V30 1557 C 168.787 -1.85911 -0.62701 0
M  V30 1558 O 167.912 -1.57556 -1.48341 0
M  V30 1559 C 168.507 -3.02413 1.52748 0
M  V30 1560 C 167.066 -3.52176 1.32849 0
M  V30 1561 C 166.213 -2.27492 1.58564 0
M  V30 1562 H 169.164 -0.976872 1.25072 0
M  V30 1563 H 169.185 -3.68223 0.958752 0
M  V30 1564 H 168.697 -2.88238 2.59885 0
M  V30 1565 H 166.798 -3.7156 0.278137 0
M  V30 1566 H 166.911 -4.32499 2.0611 0
M  V30 1567 H 165.275 -2.33923 1.00758 0
M  V30 1568 H 166.058 -2.15886 2.66924 0
M  V30 1569 N 168.503 -0.877838 -1.30888 0
M  V30 1570 C 169.751 -0.491723 -1.96027 0
M  V30 1571 C 170.072 0.960827 -1.69685 0
M  V30 1572 O 169.342 1.67462 -1.01654 0
M  V30 1573 H 167.922 -0.17885 -0.725273 0
M  V30 1574 H 170.584 -1.11935 -1.59551 0
M  V30 1575 H 169.68 -0.656016 -3.05128 0
M  V30 1576 N 169.982 1.44106 -0.638065 0
M  V30 1577 C 171.393 1.85316 -0.226894 0
M  V30 1578 C 171.744 1.53399 1.22324 0
M  V30 1579 O 170.869 0.975463 1.93167 0
M  V30 1580 C 171.464 3.3637 -0.405013 0
M  V30 1581 C 170.023 3.76369 -0.0482902 0
M  V30 1582 C 169.17 2.67921 -0.715108 0
M  V30 1583 H 172.121 1.34474 -0.842764 0
M  V30 1584 H 172.142 3.7885 0.354 0
M  V30 1585 H 171.654 3.59569 -1.46053 0
M  V30 1586 H 169.755 3.58784 1.00522 0
M  V30 1587 H 169.868 4.76856 -0.463187 0
M  V30 1588 H 168.232 2.54259 -0.149753 0
M  V30 1589 H 169.015 2.93951 -1.77335 0
M  V30 1590 N 171.46 0.379036 1.52974 0
M  V30 1591 C 172.423 -0.448865 2.24762 0
M  V30 1592 C 173.423 -0.998689 1.26027 0
M  V30 1593 O 174.613 -0.882313 1.50203 0
M  V30 1594 C 171.745 -1.62872 2.99476 0
M  V30 1595 H 172.938 0.179491 2.99362 0
M  V30 1596 H 170.491 0.13096 1.5575 0
M  V30 1597 H 171.226 -2.29479 2.29151 0
M  V30 1598 H 171.011 -1.24128 3.71934 0
M  V30 1599 H 172.501 -2.2151 3.5401 0
M  V30 1600 N 172.938 -1.57226 0.108567 0
M  V30 1601 C 174.186 -1.94448 -0.550853 0
M  V30 1602 C 174.507 -0.992074 -1.67878 0
M  V30 1603 O 173.777 -0.0465 -1.95845 0
M  V30 1604 H 172.357 -0.717897 -0.206479 0
M  V30 1605 H 175.019 -1.94112 0.175062 0
M  V30 1606 H 174.115 -2.97218 -0.952259 0
M  V30 1607 N 174.416 0.165178 -1.56732 0
M  V30 1608 C 175.832 0.517174 -1.50988 0
M  V30 1609 C 176.032 1.84331 -0.813894 0
M  V30 1610 O 175.088 2.49672 -0.37682 0
M  V30 1611 C 176.401 0.544261 -2.95733 0
M  V30 1612 C 177.949 0.631039 -3.06573 0
M  V30 1613 C 178.424 0.68896 -4.52788 0
M  V30 1614 N 179.915 0.751683 -4.5706 0
M  V30 1615 C 180.65 0.817177 -5.67547 0
M  V30 1616 N 180.146 0.843129 -6.8765 0
M  V30 1617 N 181.939 0.856668 -5.55534 0
M  V30 1618 H 174.09 -0.704318 -2.00382 0
M  V30 1619 H 176.353 -0.254687 -0.913148 0
M  V30 1620 H 176.059 -0.361607 -3.49836 0
M  V30 1621 H 175.933 1.3886 -3.5071 0
M  V30 1622 H 178.32 1.52733 -2.52501 0
M  V30 1623 H 178.401 -0.240095 -2.54671 0
M  V30 1624 H 178.045 -0.2031 -5.07494 0
M  V30 1625 H 177.975 1.57633 -5.02454 0
M  V30 1626 H 180.466 0.739661 -3.70591 0
M  V30 1627 H 180.779 0.894448 -7.67606 0
M  V30 1628 H 179.124 0.811304 -6.90248 0
M  V30 1629 H 182.315 0.833437 -4.60621 0
M  V30 1630 H 182.488 0.904247 -6.4166 0
M  V30 1631 N 175.894 1.51508 0.433938 0
M  V30 1632 C 176.804 1.75917 1.5521 0
M  V30 1633 C 177.82 0.643545 1.61662 0
M  V30 1634 O 178.996 0.926183 1.7884 0
M  V30 1635 C 176.061 1.88213 2.91164 0
M  V30 1636 C 175.122 3.12074 2.94802 0
M  V30 1637 C 174.355 3.23774 4.24271 0
M  V30 1638 O 174.578 2.4133 5.16833 0
M  V30 1639 O 173.512 4.16774 4.34262 0
M  V30 1640 H 177.338 2.70777 1.37527 0
M  V30 1641 H 174.923 1.36051 0.617293 0
M  V30 1642 H 176.805 1.98267 3.71845 0
M  V30 1643 H 175.48 0.965413 3.08968 0
M  V30 1644 H 174.387 3.07497 2.13065 0
M  V30 1645 H 175.72 4.03446 2.81943 0
M  V30 1646 N 177.372 -0.689602 1.41712 0
M  V30 1647 C 178.62 -1.4468 1.4111 0
M  V30 1648 C 178.941 -1.94986 0.0232196 0
M  V30 1649 O 178.211 -1.72097 -0.935913 0
M  V30 1650 H 176.791 -0.536847 0.519427 0
M  V30 1651 H 179.453 -0.815825 1.77004 0
M  V30 1652 H 178.549 -2.30706 2.10193 0
M  V30 1653 N 178.85 -1.27639 -0.924453 0
M  V30 1654 C 180.261 -1.12834 -1.48746 0
M  V30 1655 C 180.612 0.285505 -1.94112 0
M  V30 1656 O 179.737 1.17874 -1.81479 0
M  V30 1657 C 180.332 -2.04217 -2.70334 0
M  V30 1658 C 178.891 -1.93509 -3.22848 0
M  V30 1659 C 178.038 -1.96583 -1.95577 0
M  V30 1660 H 180.989 -1.40484 -0.738233 0
M  V30 1661 H 181.01 -1.59989 -3.4523 0
M  V30 1662 H 180.522 -3.07111 -2.37285 0
M  V30 1663 H 178.623 -0.936131 -3.60649 0
M  V30 1664 H 178.736 -2.79917 -3.88823 0
M  V30 1665 H 177.1 -1.4085 -2.12211 0
M  V30 1666 H 177.883 -3.01137 -1.64837 0
M  V30 1667 N 180.328 1.1314 -1.09713 0
M  V30 1668 C 181.258 2.20748 -0.761102 0
M  V30 1669 C 182.239 1.68061 0.262566 0
M  V30 1670 O 183.424 1.93765 0.129977 0
M  V30 1671 C 180.554 3.46812 -0.184054 0
M  V30 1672 C 179.508 4.12606 -1.13757 0
M  V30 1673 C 178.834 5.33031 -0.422083 0
M  V30 1674 C 180.134 4.59603 -2.48118 0
M  V30 1675 H 181.828 2.49113 -1.66082 0
M  V30 1676 H 179.374 1.19734 -0.799987 0
M  V30 1677 H 181.327 4.21353 0.0631215 0
M  V30 1678 H 180.051 3.17851 0.750868 0
M  V30 1679 H 178.71 3.40036 -1.37007 0
M  V30 1680 H 178.358 5.00335 0.517072 0
M  V30 1681 H 178.058 5.77999 -1.05788 0
M  V30 1682 H 179.582 6.10325 -0.183277 0
M  V30 1683 H 180.996 5.25552 -2.29059 0
M  V30 1684 H 179.393 5.15321 -3.07514 0
M  V30 1685 H 180.463 3.73971 -3.08665 0
M  V30 1686 N 181.806 0.884767 1.30421 0
M  V30 1687 C 183.054 0.502112 1.95763 0
M  V30 1688 C 183.375 -0.951815 1.70192 0
M  V30 1689 O 182.645 -1.6692 1.0254 0
M  V30 1690 H 181.225 0.182694 0.724315 0
M  V30 1691 H 183.887 1.1278 1.58955 0
M  V30 1692 H 182.983 0.672188 3.04775 0
M  V30 1693 N 183.284 -1.43765 0.645699 0
M  V30 1694 C 184.231 -2.30745 -0.0504648 0
M  V30 1695 C 185.201 -1.4432 -0.822241 0
M  V30 1696 O 186.386 -1.73202 -0.800358 0
M  V30 1697 C 183.526 -3.29802 -1.0161 0
M  V30 1698 C 182.639 -4.31326 -0.241219 0
M  V30 1699 C 181.774 -5.17469 -1.19998 0
M  V30 1700 C 180.813 -6.10691 -0.415094 0
M  V30 1701 N 179.95 -6.89483 -1.32506 0
M  V30 1702 H 184.79 -2.8973 0.697155 0
M  V30 1703 H 182.327 -1.42738 0.355563 0
M  V30 1704 H 184.285 -3.85734 -1.58949 0
M  V30 1705 H 182.915 -2.72483 -1.73069 0
M  V30 1706 H 181.967 -3.77749 0.448334 0
M  V30 1707 H 183.279 -4.9743 0.369437 0
M  V30 1708 H 182.433 -5.7799 -1.84424 0
M  V30 1709 H 181.172 -4.51473 -1.84455 0
M  V30 1710 H 180.177 -5.49265 0.242565 0
M  V30 1711 H 181.402 -6.78727 0.224966 0
M  V30 1712 H 179.348 -6.26142 -1.95657 0
M  V30 1713 H 179.265 -7.52081 -0.768783 0
M  V30 1714 H 180.533 -7.54516 -1.9577 0
M  V30 1715 N 184.763 -0.387143 -1.52771 0
M  V30 1716 C 185.695 0.484089 -2.2403 0
M  V30 1717 C 186.708 1.02849 -1.26198 0
M  V30 1718 O 187.897 0.931186 -1.52286 0
M  V30 1719 C 184.997 1.68337 -2.94136 0
M  V30 1720 C 184.17 1.26672 -4.18656 0
M  V30 1721 C 183.229 2.33045 -4.7178 0
M  V30 1722 O 182.255 1.94541 -5.34923 0
M  V30 1723 N 183.457 3.64929 -4.5145 0
M  V30 1724 H 186.222 -0.126404 -2.99433 0
M  V30 1725 H 183.783 -0.213392 -1.60488 0
M  V30 1726 H 185.775 2.39019 -3.26577 0
M  V30 1727 H 184.345 2.20025 -2.22053 0
M  V30 1728 H 183.565 0.388878 -3.92277 0
M  V30 1729 H 184.853 0.964964 -4.99566 0
M  V30 1730 H 184.251 3.98974 -4.01044 0
M  V30 1731 H 182.808 4.31651 -4.88386 0
M  V30 1732 N 186.241 1.57166 -0.116904 0
M  V30 1733 C 187.489 1.94737 0.540533 0
M  V30 1734 C 187.81 1.00096 1.67349 0
M  V30 1735 O 187.08 0.0568854 1.95817 0
M  V30 1736 H 185.66 0.718981 0.202669 0
M  V30 1737 H 188.322 1.94017 -0.185353 0
M  V30 1738 H 187.418 2.97719 0.936483 0
M  V30 1739 N 187.719 -0.156864 1.56817 0
M  V30 1740 C 188.667 -1.21319 1.98455 0
M  V30 1741 C 189.661 -1.45025 0.875444 0
M  V30 1742 O 190.867 -1.45435 1.0606 0
M  V30 1743 H 187.242 -0.408142 0.631605 0
M  V30 1744 H 189.213 -0.835244 2.86472 0
M  V30 1745 C 187.962 -2.54148 2.37285 0
M  V30 1746 H 187.285 -2.36733 3.22176 0
M  V30 1747 H 188.725 -3.26712 2.70251 0
M  V30 1748 C 187.184 -3.13967 1.22173 0
M  V30 1749 O 187.714 -3.98357 0.517149 0
M  V30 1750 N 185.92 -2.7327 0.988536 0
M  V30 1751 H 185.467 -2.04744 1.56326 0
M  V30 1752 H 185.425 -3.13628 0.220209 0
M  V30 1753 N 189.197 -1.51736 -0.425897 0
M  V30 1754 C 190.446 -1.64201 -1.17136 0
M  V30 1755 C 190.759 -0.369705 -1.92074 0
M  V30 1756 O 191.965 -0.373898 -2.68913 0
M  V30 1757 C 190.421 -2.90035 -2.13091 0
M  V30 1758 C 190.029 -4.24312 -1.43747 0
M  V30 1759 C 191.773 -3.1186 -2.87999 0
M  V30 1760 C 189.68 -5.41285 -2.38253 0
M  V30 1761 H 188.61 -0.611624 -0.440944 0
M  V30 1762 H 191.261 -1.78212 -0.437328 0
M  V30 1763 H 189.643 -2.69684 -2.89977 0
M  V30 1764 H 190.817 -4.55086 -0.723408 0
M  V30 1765 H 189.132 -4.08456 -0.809465 0
M  V30 1766 H 191.729 -3.96427 -3.58817 0
M  V30 1767 H 192.072 -2.25403 -3.49999 0
M  V30 1768 H 192.605 -3.32605 -2.18217 0
M  V30 1769 H 189.344 -6.30037 -1.80925 0
M  V30 1770 H 188.864 -5.14872 -3.0768 0
M  V30 1771 H 190.543 -5.73694 -2.99139 0
M  V30 1772 N 190.675 0.682077 -1.42076 0
M  V30 1773 C 191.923 1.4393 -1.41876 0
M  V30 1774 C 192.244 1.94971 -0.0335599 0
M  V30 1775 O 191.514 1.72591 0.926773 0
M  V30 1776 H 190.094 0.534085 -0.522267 0
M  V30 1777 H 192.756 0.806427 -1.77434 0
M  V30 1778 H 191.852 2.29588 -2.11414 0
M  V30 1779 N 192.153 1.28127 0.917671 0
M  V30 1780 C 193.564 1.13622 1.48145 0
M  V30 1781 C 193.915 -0.275207 1.9426 0
M  V30 1782 O 193.04 -1.1691 1.82102 0
M  V30 1783 C 193.635 2.05648 2.69248 0
M  V30 1784 C 192.194 1.95219 3.21818 0
M  V30 1785 C 191.341 1.97618 1.94532 0
M  V30 1786 H 194.292 1.40874 0.730772 0
M  V30 1787 H 194.313 1.61818 3.44377 0
M  V30 1788 H 193.825 3.08365 2.35653 0
M  V30 1789 H 191.926 0.955244 3.60147 0
M  V30 1790 H 192.039 2.81976 3.87333 0
M  V30 1791 H 190.403 1.41973 2.11461 0
M  V30 1792 H 191.186 3.02007 1.63238 0
M  V30 1793 N 193.631 -1.12557 1.10312 0
M  V30 1794 C 194.563 -2.17971 0.708625 0
M  V30 1795 C 195.576 -1.60806 -0.254027 0
M  V30 1796 O 196.765 -1.78458 -0.0386891 0
M  V30 1797 C 193.865 -3.38891 0.0248198 0
M  V30 1798 C 193.038 -4.25548 1.01132 0
M  V30 1799 C 192.097 -5.24972 0.35924 0
M  V30 1800 O 191.123 -5.60174 1.00965 0
M  V30 1801 N 192.325 -5.73747 -0.882847 0
M  V30 1802 H 195.09 -2.52427 1.61557 0
M  V30 1803 H 192.651 -1.27967 0.991771 0
M  V30 1804 H 194.643 -4.02485 -0.422852 0
M  V30 1805 H 193.213 -3.02596 -0.784514 0
M  V30 1806 H 192.433 -3.58589 1.6373 0
M  V30 1807 H 193.721 -4.80294 1.67914 0
M  V30 1808 H 193.119 -5.4731 -1.43065 0
M  V30 1809 H 191.676 -6.39234 -1.27369 0
M  V30 1810 N 195.109 -0.891671 -1.2995 0
M  V30 1811 C 196.357 -0.512486 -1.95494 0
M  V30 1812 C 196.678 0.942776 -1.70695 0
M  V30 1813 O 195.948 1.66374 -1.03424 0
M  V30 1814 H 194.528 -0.186533 -0.723336 0
M  V30 1815 H 197.19 -1.13621 -1.58355 0
M  V30 1816 H 196.286 -0.688342 -3.04415 0
M  V30 1817 N 196.587 1.43421 -0.653314 0
M  V30 1818 C 197.534 2.30768 0.0382271 0
M  V30 1819 C 198.504 1.44755 0.814576 0
M  V30 1820 O 199.689 1.73624 0.791162 0
M  V30 1821 C 196.829 3.30336 0.998599 0
M  V30 1822 C 195.942 4.31448 0.218342 0
M  V30 1823 C 195.077 5.18098 1.17252 0
M  V30 1824 C 194.116 6.10902 0.382702 0
M  V30 1825 N 193.253 6.90176 1.28848 0
M  V30 1826 H 198.093 2.89357 -0.712511 0
M  V30 1827 H 195.63 1.42548 -0.363128 0
M  V30 1828 H 197.588 3.86572 1.56901 0
M  V30 1829 H 196.218 2.73397 1.71621 0
M  V30 1830 H 195.27 3.77506 -0.46836 0
M  V30 1831 H 196.582 4.97227 -0.395812 0
M  V30 1832 H 195.736 5.7896 1.81356 0
M  V30 1833 H 194.475 4.52444 1.82058 0
M  V30 1834 H 193.48 5.49128 -0.27169 0
M  V30 1835 H 194.705 6.78598 -0.260957 0
M  V30 1836 H 192.651 6.27171 1.92334 0
M  V30 1837 H 192.568 7.52478 0.728887 0
M  V30 1838 H 193.836 7.55543 1.91766 0
M  V30 1839 N 198.065 0.39524 1.52563 0
M  V30 1840 C 199.476 -0.0774719 1.86539 0
M  V30 1841 C 199.827 -1.45641 1.31466 0
M  V30 1842 O 198.952 -2.06459 0.648367 0
M  V30 1843 C 199.547 -0.147356 3.38479 0
M  V30 1844 C 198.106 -0.564373 3.72145 0
M  V30 1845 C 197.253 0.269919 2.75983 0
M  V30 1846 H 200.204 0.612876 1.46388 0
M  V30 1847 H 200.225 -0.965343 3.68051 0
M  V30 1848 H 199.737 0.856387 3.78534 0
M  V30 1849 H 197.838 -1.57527 3.37663 0
M  V30 1850 H 197.951 -0.318402 4.78041 0
M  V30 1851 H 196.315 -0.265696 2.5331 0
M  V30 1852 H 197.098 1.27175 3.18875 0
M  V30 1853 N 199.544 -1.57102 0.125237 0
M  V30 1854 C 200.792 -1.95021 -0.530198 0
M  V30 1855 C 201.113 -1.00982 -1.66816 0
M  V30 1856 O 200.383 -0.0672693 -1.95784 0
M  V30 1857 H 198.963 -0.720046 -0.198853 0
M  V30 1858 H 201.625 -1.93916 0.19564 0
M  V30 1859 H 200.721 -2.98211 -0.920681 0
M  V30 1860 N 201.022 0.148545 -1.56898 0
M  V30 1861 C 202.433 0.708766 -1.72723 0
M  V30 1862 C 202.784 1.81734 -0.739395 0
M  V30 1863 O 201.909 2.16194 0.0943169 0
M  V30 1864 C 202.504 1.29245 -3.13179 0
M  V30 1865 C 201.063 1.79925 -3.30611 0
M  V30 1866 C 200.21 0.687111 -2.68652 0
M  V30 1867 H 203.161 -0.0771063 -1.58513 0
M  V30 1868 H 203.182 2.16224 -3.13093 0
M  V30 1869 H 202.694 0.485382 -3.85053 0
M  V30 1870 H 200.795 2.63203 -2.63732 0
M  V30 1871 H 200.908 1.92903 -4.38549 0
M  V30 1872 H 199.272 1.11335 -2.29078 0
M  V30 1873 H 200.055 -0.108483 -3.43129 0
M  V30 1874 N 202.5 1.5196 0.417844 0
M  V30 1875 C 203.447 1.74678 1.50852 0
M  V30 1876 C 204.417 0.588947 1.55308 0
M  V30 1877 O 205.602 0.825544 1.72016 0
M  V30 1878 C 202.742 1.89544 2.88387 0
M  V30 1879 C 201.855 3.17166 2.93309 0
M  V30 1880 C 200.99 3.22513 4.22088 0
M  V30 1881 C 200.029 4.44372 4.20951 0
M  V30 1882 N 199.166 4.47161 5.41287 0
M  V30 1883 H 204.006 2.67768 1.30783 0
M  V30 1884 H 201.543 1.32689 0.63498 0
M  V30 1885 H 203.501 1.96146 3.68216 0
M  V30 1886 H 202.131 0.998424 3.06971 0
M  V30 1887 H 201.183 3.19778 2.06024 0
M  V30 1888 H 202.495 4.07021 2.88332 0
M  V30 1889 H 201.649 3.28139 5.10303 0
M  V30 1890 H 200.388 2.30581 4.29748 0
M  V30 1891 H 199.393 4.38902 3.31127 0
M  V30 1892 H 200.618 5.3759 4.14938 0
M  V30 1893 H 198.564 3.58108 5.49632 0
M  V30 1894 H 198.481 5.3085 5.3827 0
M  V30 1895 H 199.749 4.57005 6.3148 0
M  V30 1896 N 203.978 -0.674533 1.42435 0
M  V30 1897 C 205.226 -1.43175 1.42637 0
M  V30 1898 C 205.547 -1.94951 0.0438992 0
M  V30 1899 O 204.817 -1.7308 -0.917607 0
M  V30 1900 H 203.397 -0.531307 0.525092 0
M  V30 1901 H 206.059 -0.797006 1.77859 0
M  V30 1902 H 205.155 -2.28463 2.12629 0
M  V30 1903 N 205.456 -1.28612 -0.910864 0
M  V30 1904 C 206.366 -1.14643 -2.0468 0
M  V30 1905 C 207.382 -0.0723121 -1.7385 0
M  V30 1906 O 208.558 -0.282178 -1.99413 0
M  V30 1907 C 205.623 -0.812561 -3.37044 0
M  V30 1908 C 204.684 -1.96935 -3.81465 0
M  V30 1909 C 203.917 -1.65131 -5.07511 0
M  V30 1910 O 204.14 -0.567013 -5.67575 0
M  V30 1911 O 203.074 -2.49585 -5.47714 0
M  V30 1912 H 206.9 -2.1001 -2.19384 0
M  V30 1913 H 204.485 -1.07958 -1.03274 0
M  V30 1914 H 206.367 -0.640441 -4.16505 0
M  V30 1915 H 205.042 0.111426 -3.23508 0
M  V30 1916 H 203.949 -2.19664 -3.02818 0
M  V30 1917 H 205.282 -2.87414 -3.99567 0
M  V30 1918 N 206.934 1.1197 -1.10907 0
M  V30 1919 C 207.897 2.16031 -0.765707 0
M  V30 1920 C 208.897 1.59393 0.212235 0
M  V30 1921 O 210.087 1.74196 -0.0115441 0
M  V30 1922 C 207.219 3.40632 -0.135053 0
M  V30 1923 H 208.412 2.47919 -1.68748 0
M  V30 1924 H 205.965 1.27061 -0.910226 0
M  V30 1925 H 206.7 3.14348 0.797218 0
M  V30 1926 H 206.485 3.8302 -0.838937 0
M  V30 1927 H 207.975 4.17505 0.0892469 0
M  V30 1928 N 208.412 0.89855 1.29475 0
M  V30 1929 C 209.66 0.522847 1.9522 0
M  V30 1930 C 209.981 -0.93371 1.71192 0
M  V30 1931 O 209.251 -1.65823 1.04305 0
M  V30 1932 H 207.831 0.190366 0.722336 0
M  V30 1933 H 210.493 1.14459 1.5775 0
M  V30 1934 H 209.589 0.704476 3.04045 0
M  V30 1935 N 209.89 -1.43072 0.660911 0
M  V30 1936 C 211.301 -1.84932 0.256348 0
M  V30 1937 C 211.652 -1.55325 -1.19868 0
M  V30 1938 O 210.777 -1.00607 -1.91591 0
M  V30 1939 C 211.372 -3.35684 0.458475 0
M  V30 1940 C 209.931 -3.76245 0.108161 0
M  V30 1941 C 209.078 -2.66749 0.757641 0
M  V30 1942 H 212.029 -1.33116 0.864051 0
M  V30 1943 H 212.05 -3.79365 -0.293683 0
M  V30 1944 H 211.562 -3.572 1.51755 0
M  V30 1945 H 209.663 -3.60338 -0.948014 0
M  V30 1946 H 209.776 -4.76058 0.538992 0
M  V30 1947 H 208.14 -2.53989 0.190185 0
M  V30 1948 H 208.923 -2.91092 1.81989 0
M  V30 1949 N 211.368 -0.403325 -1.52352 0
M  V30 1950 C 212.315 0.425011 -2.26853 0
M  V30 1951 C 213.285 1.04598 -1.29029 0
M  V30 1952 O 214.47 1.07135 -1.57882 0
M  V30 1953 C 211.61 1.53888 -3.08889 0
M  V30 1954 C 210.723 0.939396 -4.21663 0
M  V30 1955 C 209.858 2.02547 -4.91068 0
M  V30 1956 C 208.897 1.40263 -5.95813 0
M  V30 1957 N 208.034 2.4286 -6.58759 0
M  V30 1958 H 212.874 -0.21674 -2.97211 0
M  V30 1959 H 210.411 -0.118722 -1.4662 0
M  V30 1960 H 212.369 2.19558 -3.54753 0
M  V30 1961 H 210.999 2.15074 -2.40714 0
M  V30 1962 H 210.051 0.171898 -3.80011 0
M  V30 1963 H 211.363 0.44436 -4.96817 0
M  V30 1964 H 210.517 2.75958 -5.40308 0
M  V30 1965 H 209.256 2.55415 -4.15469 0
M  V30 1966 H 208.261 0.653833 -5.45898 0
M  V30 1967 H 209.486 0.881719 -6.73352 0
M  V30 1968 H 207.432 2.94871 -5.85992 0
M  V30 1969 H 207.349 1.98152 -7.2957 0
M  V30 1970 H 208.617 3.15858 -7.12639 0
M  V30 1971 N 212.846 1.57033 -0.133567 0
M  V30 1972 C 214.094 1.953 0.519848 0
M  V30 1973 C 214.415 1.01866 1.66278 0
M  V30 1974 O 213.685 0.0776513 1.95746 0
M  V30 1975 H 212.265 0.721091 0.195032 0
M  V30 1976 H 214.927 1.93809 -0.205921 0
M  V30 1977 H 214.023 2.98695 0.904854 0
M  V30 1978 N 214.325 -0.140222 1.56975 0
M  V30 1979 C 215.235 -1.19223 2.02047 0
M  V30 1980 C 216.251 -1.46612 0.937062 0
M  V30 1981 O 217.427 -1.58148 1.24704 0
M  V30 1982 C 214.492 -2.50414 2.39778 0
M  V30 1983 C 213.553 -2.30612 3.621 0
M  V30 1984 C 212.786 -3.55547 3.98023 0
M  V30 1985 O 213.009 -4.62004 3.34528 0
M  V30 1986 O 211.943 -3.47808 4.91237 0
M  V30 1987 H 215.769 -0.839559 2.91865 0
M  V30 1988 H 213.354 -0.349453 1.45256 0
M  V30 1989 H 215.236 -3.27747 2.64877 0
M  V30 1990 H 213.911 -2.85198 1.53114 0
M  V30 1991 H 212.818 -1.51207 3.4218 0
M  V30 1992 H 214.151 -2.00741 4.49404 0
M  V30 1993 N 215.803 -1.52179 -0.40978 0
M  V30 1994 C 217.049 -1.66453 -1.15851 0
M  V30 1995 C 217.382 -0.392972 -1.90182 0
M  V30 1996 O 216.657 0.608579 -1.84734 0
M  V30 1997 C 216.94 -2.88612 -2.15349 0
M  V30 1998 C 216.793 -4.25815 -1.44918 0
M  V30 1999 C 218.112 -3.06294 -3.16026 0
M  V30 2000 H 215.231 -0.60575 -0.419805 0
M  V30 2001 H 217.873 -1.84732 -0.444314 0
M  V30 2002 H 216.023 -2.73158 -2.76255 0
M  V30 2003 H 217.695 -4.52995 -0.871365 0
M  V30 2004 H 215.938 -4.27247 -0.751159 0
M  V30 2005 H 216.609 -5.07337 -2.17516 0
M  V30 2006 H 219.085 -3.20641 -2.65195 0
M  V30 2007 H 217.961 -3.93283 -3.8291 0
M  V30 2008 H 218.222 -2.19579 -3.83715 0
M  V30 2009 N 217.281 0.66697 -1.42791 0
M  V30 2010 C 218.529 1.42417 -1.43394 0
M  V30 2011 C 218.85 1.94925 -0.0542373 0
M  V30 2012 O 218.12 1.73564 0.908415 0
M  V30 2013 H 216.7 0.528515 -0.527902 0
M  V30 2014 H 219.362 0.787562 -1.78279 0
M  V30 2015 H 218.458 2.27333 -2.13837 0
M  V30 2016 N 218.759 1.29093 0.90403 0
M  V30 2017 C 219.722 1.1386 1.98919 0
M  V30 2018 C 220.722 0.0753457 1.60623 0
M  V30 2019 O 221.912 0.321931 1.71199 0
M  V30 2020 C 219.044 0.740198 3.32767 0
M  V30 2021 H 220.237 2.10246 2.13861 0
M  V30 2022 H 217.79 1.12218 1.08797 0
M  V30 2023 H 218.525 -0.223997 3.23525 0
M  V30 2024 H 218.31 1.50838 3.61926 0
M  V30 2025 H 219.8 0.656546 4.12407 0
M  V30 2026 N 220.237 -1.11381 1.11499 0
M  V30 2027 C 221.648 -1.6465 0.880191 0
M  V30 2028 C 221.999 -1.87199 -0.587434 0
M  V30 2029 O 221.124 -1.60667 -1.44966 0
M  V30 2030 C 221.719 -2.99105 1.59128 0
M  V30 2031 C 220.278 -3.49279 1.40289 0
M  V30 2032 C 219.425 -2.24077 1.63354 0
M  V30 2033 H 222.376 -0.950123 1.27116 0
M  V30 2034 H 222.397 -3.66107 1.03664 0
M  V30 2035 H 221.909 -2.82661 2.65941 0
M  V30 2036 H 220.01 -3.70887 0.356888 0
M  V30 2037 H 220.123 -4.2803 2.15238 0
M  V30 2038 H 218.487 -2.31733 1.05698 0
M  V30 2039 H 219.27 -2.10175 2.71443 0
M  V30 2040 N 221.715 -0.905404 -1.28997 0
M  V30 2041 C 222.963 -0.533192 -1.9494 0
M  V30 2042 C 223.284 0.924618 -1.71685 0
M  V30 2043 O 222.554 1.65268 -1.05183 0
M  V30 2044 H 221.134 -0.194194 -0.721317 0
M  V30 2045 H 223.796 -1.15294 -1.57141 0
M  V30 2046 H 222.892 -0.72059 -3.03667 0
M  V30 2047 N 223.193 1.4272 -0.668489 0
M  V30 2048 C 224.126 2.28111 0.0637898 0
M  V30 2049 C 225.104 1.40705 0.814912 0
M  V30 2050 O 226.288 1.70146 0.81134 0
M  V30 2051 C 223.415 3.20429 1.0974 0
M  V30 2052 C 222.461 4.24197 0.442579 0
M  V30 2053 S 223.294 5.29563 -0.795173 0
M  V30 2054 C 224.45 6.25449 0.237516 0
M  V30 2055 H 224.683 2.8987 -0.660521 0
M  V30 2056 H 222.216 1.47456 -0.457821 0
M  V30 2057 H 224.174 3.74158 1.68868 0
M  V30 2058 H 222.835 2.57818 1.79411 0
M  V30 2059 H 222.028 4.88954 1.22227 0
M  V30 2060 H 221.63 3.73925 -0.0749554 0
M  V30 2061 H 223.922 6.68524 1.09915 0
M  V30 2062 H 224.865 7.07104 -0.375421 0
M  V30 2063 H 225.273 5.61511 0.580167 0
M  V30 2064 N 224.671 0.411399 1.52136 0
M  V30 2065 C 225.603 -0.448386 2.24771 0
M  V30 2066 C 226.616 -1.00828 1.27818 0
M  V30 2067 O 227.805 -0.906841 1.53749 0
M  V30 2068 C 224.905 -1.63636 2.96777 0
M  V30 2069 C 224.078 -1.19995 4.20618 0
M  V30 2070 C 223.137 -2.25509 4.75428 0
M  V30 2071 O 222.163 -1.86007 5.3795 0
M  V30 2072 N 223.365 -3.577 4.57199 0
M  V30 2073 H 226.13 0.174025 2.99194 0
M  V30 2074 H 223.691 0.238897 1.60128 0
M  V30 2075 H 225.683 -2.33793 3.30338 0
M  V30 2076 H 224.253 -2.16465 2.25526 0
M  V30 2077 H 223.473 -0.326421 3.92846 0
M  V30 2078 H 224.761 -0.885365 5.01038 0
M  V30 2079 H 224.159 -3.92543 4.07341 0
M  V30 2080 H 222.716 -4.23827 4.95191 0
M  V30 2081 N 226.149 -1.5696 0.141893 0
M  V30 2082 C 227.397 -1.95573 -0.509484 0
M  V30 2083 C 227.718 -1.02746 -1.65736 0
M  V30 2084 O 226.988 -0.0880311 -1.95702 0
M  V30 2085 H 225.568 -0.722115 -0.191205 0
M  V30 2086 H 228.23 -1.93697 0.216196 0
M  V30 2087 H 227.326 -2.99171 -0.889 0
M  V30 2088 N 227.627 0.131896 -1.57047 0
M  V30 2089 C 228.852 0.860418 -1.8871 0
M  V30 2090 C 229.277 1.73251 -0.73251 0
M  V30 2091 O 228.635 1.785 0.317429 0
M  V30 2092 C 228.683 1.68047 -3.19049 0
M  V30 2093 O 227.787 2.7862 -3.04047 0
M  V30 2094 H 227.128 0.238743 -0.619595 0
M  V30 2095 H 229.658 0.118169 -2.04258 0
M  V30 2096 H 229.668 2.07238 -3.51449 0
M  V30 2097 H 228.343 1.04018 -4.02682 0
M  V30 2098 H 226.92 2.42726 -2.83088 0
M  V30 2099 N 229.106 1.52395 0.401703 0
M  V30 2100 C 230.069 1.75636 1.47257 0
M  V30 2101 C 231.069 0.62628 1.48103 0
M  V30 2102 O 232.259 0.894227 1.49497 0
M  V30 2103 C 229.391 1.84553 2.86624 0
M  V30 2104 H 230.584 2.71241 1.27938 0
M  V30 2105 H 228.137 1.42923 0.632662 0
M  V30 2106 H 228.872 0.908882 3.11303 0
M  V30 2107 H 228.657 2.66715 2.87412 0
M  V30 2108 H 230.147 2.04251 3.64241 0
M  V30 2109 N 230.584 -0.659388 1.43143 0
M  V30 2110 C 231.832 -1.41654 1.44147 0
M  V30 2111 C 232.153 -1.94893 0.0645739 0
M  V30 2112 O 231.423 -1.74044 -0.899198 0
M  V30 2113 H 230.003 -0.525708 0.530697 0
M  V30 2114 H 232.665 -0.778097 1.78694 0
M  V30 2115 H 231.761 -2.26195 2.1504 0
M  V30 2116 N 232.062 -1.29571 -0.897171 0
M  V30 2117 C 233.025 -1.14913 -1.98312 0
M  V30 2118 C 234.025 -0.0838629 -1.60581 0
M  V30 2119 O 235.215 -0.331006 -1.71026 0
M  V30 2120 C 232.347 -0.757835 -3.3237 0
M  V30 2121 H 233.54 -2.11377 -2.12743 0
M  V30 2122 H 231.093 -1.12793 -1.08201 0
M  V30 2123 H 231.828 0.206837 -3.2364 0
M  V30 2124 H 231.613 -1.52755 -3.61121 0
M  V30 2125 H 233.103 -0.678408 -4.12053 0
M  V30 2126 N 233.54 1.10788 -1.12088 0
M  V30 2127 C 234.956 1.34691 -0.856186 0
M  V30 2128 C 235.156 1.94791 0.515615 0
M  V30 2129 O 234.212 2.18524 1.26505 0
M  V30 2130 C 235.525 2.27208 -1.9697 0
M  V30 2131 C 237.073 2.40755 -2.00016 0
M  V30 2132 C 237.548 3.36598 -3.1059 0
M  V30 2133 N 239.039 3.44164 -3.10008 0
M  V30 2134 C 239.774 4.18284 -3.92206 0
M  V30 2135 N 239.27 4.95322 -4.84384 0
M  V30 2136 N 241.063 4.13865 -3.80357 0
M  V30 2137 H 233.214 0.70144 -2.00483 0
M  V30 2138 H 235.477 0.371405 -0.872217 0
M  V30 2139 H 235.183 1.90251 -2.958 0
M  V30 2140 H 235.057 3.27485 -1.87172 0
M  V30 2141 H 237.444 2.76982 -1.01808 0
M  V30 2142 H 237.525 1.40305 -2.13888 0
M  V30 2143 H 237.169 3.01096 -4.09028 0
M  V30 2144 H 237.099 4.36918 -2.93956 0
M  V30 2145 H 239.59 2.8922 -2.43228 0
M  V30 2146 H 239.903 5.49267 -5.43623 0
M  V30 2147 H 238.248 4.94459 -4.884 0
M  V30 2148 H 241.439 3.52773 -3.07683 0
M  V30 2149 H 241.612 4.71372 -4.44649 0
M  V30 2150 N 235.018 0.912232 1.28515 0
M  V30 2151 C 236.266 0.543523 1.94654 0
M  V30 2152 C 236.587 -0.9155 1.72173 0
M  V30 2153 O 235.857 -1.64708 1.06058 0
M  V30 2154 H 234.437 0.198017 0.720277 0
M  V30 2155 H 237.099 1.16126 1.56527 0
M  V30 2156 H 236.195 0.736684 3.03281 0
M  V30 2157 N 236.496 -1.42363 0.676048 0
M  V30 2158 C 237.426 -2.33497 0.0124832 0
M  V30 2159 C 238.407 -1.50748 -0.787981 0
M  V30 2160 O 239.592 -1.79346 -0.744884 0
M  V30 2161 C 236.722 -3.34377 -0.938582 0
M  V30 2162 C 235.676 -4.27289 -0.246622 0
M  V30 2163 C 235.002 -5.18386 -1.31071 0
M  V30 2164 C 236.302 -5.14916 0.875125 0
M  V30 2165 H 237.996 -2.89233 0.773593 0
M  V30 2166 H 235.542 -1.39073 0.37346 0
M  V30 2167 H 237.495 -3.97044 -1.41188 0
M  V30 2168 H 236.219 -2.76947 -1.73113 0
M  V30 2169 H 234.878 -3.66018 0.206456 0
M  V30 2170 H 234.526 -4.57282 -2.09528 0
M  V30 2171 H 234.226 -5.81378 -0.852839 0
M  V30 2172 H 235.75 -5.83929 -1.78492 0
M  V30 2173 H 237.164 -5.71262 0.482983 0
M  V30 2174 H 235.561 -5.86747 1.25887 0
M  V30 2175 H 236.631 -4.53242 1.72335 0
M  V30 2176 N 237.974 -0.419461 -1.51915 0
M  V30 2177 C 238.937 0.389116 -2.25873 0
M  V30 2178 C 239.937 0.964924 -1.28631 0
M  V30 2179 O 241.127 0.842179 -1.52489 0
M  V30 2180 C 238.259 1.54874 -3.03689 0
M  V30 2181 H 239.452 -0.258799 -2.98781 0
M  V30 2182 H 237.005 -0.172209 -1.55348 0
M  V30 2183 H 237.74 2.23323 -2.35154 0
M  V30 2184 H 237.525 1.14223 -3.75094 0
M  V30 2185 H 239.015 2.12046 -3.59759 0
M  V30 2186 N 239.452 1.56882 -0.150215 0
M  V30 2187 C 240.7 1.9584 0.499105 0
M  V30 2188 C 241.021 1.03623 1.65188 0
M  V30 2189 O 240.291 0.0984084 1.95653 0
M  V30 2190 H 238.871 0.723119 0.187373 0
M  V30 2191 H 241.533 1.9358 -0.226466 0
M  V30 2192 H 240.629 2.99638 0.873122 0
M  V30 2193 N 240.93 -0.123565 1.57115 0
M  V30 2194 C 242.341 -0.681198 1.73829 0
M  V30 2195 C 242.692 -1.80535 0.768214 0
M  V30 2196 O 241.817 -2.16317 -0.0599103 0
M  V30 2197 C 242.412 -1.24246 3.15196 0
M  V30 2198 C 240.971 -1.74643 3.33432 0
M  V30 2199 C 240.118 -0.644284 2.69711 0
M  V30 2200 H 243.069 0.102315 1.5837 0
M  V30 2201 H 243.09 -2.11216 3.16493 0
M  V30 2202 H 242.602 -0.424062 3.85776 0
M  V30 2203 H 240.703 -2.58974 2.67886 0
M  V30 2204 H 240.816 -1.85902 4.41562 0
M  V30 2205 H 239.18 -1.07676 2.3082 0
M  V30 2206 H 239.963 0.163058 3.42913 0
M  V30 2207 N 242.408 -1.52605 -0.393616 0
M  V30 2208 C 243.355 -1.77055 -1.48054 0
M  V30 2209 C 244.325 -0.61358 -1.54352 0
M  V30 2210 O 245.51 -0.852806 -1.70681 0
M  V30 2211 C 242.65 -1.94108 -2.85335 0
M  V30 2212 C 241.763 -3.21792 -2.88226 0
M  V30 2213 C 240.898 -3.29188 -4.16904 0
M  V30 2214 C 239.937 -4.51013 -4.13828 0
M  V30 2215 N 239.074 -4.55716 -5.34105 0
M  V30 2216 H 243.914 -2.69815 -1.26506 0
M  V30 2217 H 241.451 -1.33683 -0.61379 0
M  V30 2218 H 243.409 -2.01979 -3.65049 0
M  V30 2219 H 242.039 -1.04713 -3.05344 0
M  V30 2220 H 241.091 -3.23015 -2.00911 0
M  V30 2221 H 242.403 -4.11557 -2.8182 0
M  V30 2222 H 241.557 -3.36216 -5.05018 0
M  V30 2223 H 240.296 -2.37389 -4.26026 0
M  V30 2224 H 239.301 -4.44115 -3.24102 0
M  V30 2225 H 240.526 -5.44123 -4.06333 0
M  V30 2226 H 238.472 -3.66807 -5.43865 0
M  V30 2227 H 238.389 -5.39346 -5.29756 0
M  V30 2228 H 239.657 -4.66993 -6.2413 0
M  V30 2229 N 243.887 0.651787 -1.4349 0
M  V30 2230 C 245.135 1.40888 -1.44897 0
M  V30 2231 C 245.456 1.94856 -0.0749086 0
M  V30 2232 O 244.726 1.74518 0.889956 0
M  V30 2233 H 243.306 0.522887 -0.533478 0
M  V30 2234 H 245.968 0.768609 -1.79104 0
M  V30 2235 H 245.064 2.25052 -2.16236 0
M  V30 2236 N 245.365 1.30045 0.890287 0
M  V30 2237 C 246.275 1.17885 2.02831 0
M  V30 2238 C 247.291 0.0999609 1.73713 0
M  V30 2239 O 248.467 0.313867 1.98939 0
M  V30 2240 C 245.532 0.866079 3.35708 0
M  V30 2241 C 244.593 2.02979 3.78283 0
M  V30 2242 C 243.826 1.73184 5.0482 0
M  V30 2243 O 244.049 0.657237 5.66601 0
M  V30 2244 O 242.983 2.58267 5.43674 0
M  V30 2245 H 246.809 2.13474 2.16015 0
M  V30 2246 H 244.394 1.09587 1.01543 0
M  V30 2247 H 246.276 0.706623 4.15433 0
M  V30 2248 H 244.951 -0.0599443 3.23644 0
M  V30 2249 H 243.858 2.24454 2.99285 0
M  V30 2250 H 245.191 2.93734 3.94944 0
M  V30 2251 N 246.843 -1.10192 1.12674 0
M  V30 2252 C 248.259 -1.34235 0.863317 0
M  V30 2253 C 248.459 -1.95062 -0.505277 0
M  V30 2254 O 247.515 -2.19192 -1.25345 0
M  V30 2255 C 248.828 -2.2616 1.98172 0
M  V30 2256 C 250.376 -2.3969 2.0129 0
M  V30 2257 C 250.851 -3.34946 3.1237 0
M  V30 2258 N 252.342 -3.42515 3.11829 0
M  V30 2259 C 253.077 -4.16199 3.94419 0
M  V30 2260 N 252.573 -4.92747 4.87004 0
M  V30 2261 N 254.366 -4.11843 3.82547 0
M  V30 2262 H 246.517 -0.690798 2.00853 0
M  V30 2263 H 248.78 -0.366774 0.874174 0
M  V30 2264 H 248.486 -1.8868 2.96804 0
M  V30 2265 H 248.36 -3.26488 1.88906 0
M  V30 2266 H 250.747 -2.76438 1.03276 0
M  V30 2267 H 250.828 -1.39169 2.14629 0
M  V30 2268 H 250.472 -2.98923 4.10619 0
M  V30 2269 H 250.402 -4.35353 2.96269 0
M  V30 2270 H 252.893 -2.87926 2.44759 0
M  V30 2271 H 253.206 -5.46376 5.46528 0
M  V30 2272 H 251.551 -4.91862 4.91016 0
M  V30 2273 H 254.742 -3.51136 3.0955 0
M  V30 2274 H 254.915 -4.69007 4.47142 0
M  V30 2275 N 248.321 -0.919034 -1.28029 0
M  V30 2276 C 249.569 -0.553838 -1.94363 0
M  V30 2277 C 249.89 0.906357 -1.72656 0
M  V30 2278 O 249.16 1.64143 -1.0693 0
M  V30 2279 H 247.74 -0.201834 -0.719216 0
M  V30 2280 H 250.402 -1.16954 -1.55909 0
M  V30 2281 H 249.498 -0.752758 -3.02886 0
M  V30 2282 N 249.799 1.42003 -0.683588 0
M  V30 2283 C 251.045 2.01712 -0.209825 0
M  V30 2284 C 251.378 1.53968 1.18353 0
M  V30 2285 O 250.653 0.745661 1.79639 0
M  V30 2286 C 250.936 3.59202 -0.254197 0
M  V30 2287 C 250.789 4.17102 -1.68363 0
M  V30 2288 C 252.108 4.38344 0.392709 0
M  V30 2289 H 249.227 0.732891 -0.0777189 0
M  V30 2290 H 251.869 1.68909 -0.87004 0
M  V30 2291 H 250.019 3.87278 0.307954 0
M  V30 2292 H 251.691 3.99946 -2.29871 0
M  V30 2293 H 249.934 3.72597 -2.22157 0
M  V30 2294 H 250.605 5.26249 -1.6663 0
M  V30 2295 H 253.081 4.16011 -0.0859162 0
M  V30 2296 H 251.957 5.47901 0.331063 0
M  V30 2297 H 252.218 4.16887 1.47164 0
M  V30 2298 N 251.277 0.427512 1.51691 0
M  V30 2299 C 252.688 -0.0378867 1.86662 0
M  V30 2300 C 253.039 -1.42819 1.34525 0
M  V30 2301 O 252.164 -2.05037 0.692014 0
M  V30 2302 C 252.759 -0.0755266 3.38716 0
M  V30 2303 C 251.318 -0.485309 3.73258 0
M  V30 2304 C 250.465 0.328399 2.75349 0
M  V30 2305 H 253.416 0.64379 1.45055 0
M  V30 2306 H 253.437 -0.887056 3.70016 0
M  V30 2307 H 252.949 0.936487 3.76632 0
M  V30 2308 H 251.05 -1.50329 3.40928 0
M  V30 2309 H 251.163 -0.21693 4.78609 0
M  V30 2310 H 249.527 -0.211905 2.53817 0
M  V30 2311 H 250.31 1.3391 3.16106 0
M  V30 2312 N 252.755 -1.56801 0.158532 0
M  V30 2313 C 254.003 -1.96102 -0.488712 0
M  V30 2314 C 254.324 -1.04498 -1.64636 0
M  V30 2315 O 253.594 -0.108783 -1.95598 0
M  V30 2316 H 252.174 -0.724102 -0.183535 0
M  V30 2317 H 254.836 -1.93457 0.236728 0
M  V30 2318 H 253.932 -3.00097 -0.857219 0
M  V30 2319 N 254.233 0.115231 -1.57178 0
M  V30 2320 C 255.143 1.15994 -2.03918 0
M  V30 2321 C 256.159 1.45103 -0.960268 0
M  V30 2322 O 257.335 1.56144 -1.27204 0
M  V30 2323 C 254.4 2.46568 -2.43732 0
M  V30 2324 C 253.461 2.24822 -3.65723 0
M  V30 2325 C 252.694 3.4917 -4.03629 0
M  V30 2326 O 252.917 4.56623 -3.41835 0
M  V30 2327 O 251.851 3.39949 -4.96708 0
M  V30 2328 H 255.677 0.793019 -2.93164 0
M  V30 2329 H 253.262 0.3263 -1.45793 0
M  V30 2330 H 255.144 3.23492 -2.70057 0
M  V30 2331 H 253.819 2.82726 -1.57631 0
M  V30 2332 H 252.726 1.45744 -3.44542 0
M  V30 2333 H 254.059 1.93566 -4.52541 0
M  V30 2334 N 255.711 1.52812 0.385517 0
M  V30 2335 C 257.127 1.4214 0.725829 0
M  V30 2336 C 257.327 0.544589 1.94001 0
M  V30 2337 O 256.383 0.0193693 2.52493 0
M  V30 2338 C 257.696 2.85042 0.957668 0
M  V30 2339 C 259.244 2.94543 1.05892 0
M  V30 2340 C 259.719 4.38464 1.32337 0
M  V30 2341 N 261.21 4.41804 1.39151 0
M  V30 2342 C 261.945 5.5025 1.61285 0
M  V30 2343 N 261.441 6.68775 1.80866 0
M  V30 2344 N 263.234 5.37798 1.63492 0
M  V30 2345 H 255.385 2.08338 -0.413383 0
M  V30 2346 H 257.648 0.940016 -0.122775 0
M  V30 2347 H 257.354 3.51431 0.137568 0
M  V30 2348 H 257.228 3.27505 1.87137 0
M  V30 2349 H 259.615 2.28321 1.86959 0
M  V30 2350 H 259.696 2.55504 0.123057 0
M  V30 2351 H 259.34 5.05254 0.517793 0
M  V30 2352 H 259.27 4.75059 2.27214 0
M  V30 2353 H 261.761 3.56377 1.25713 0
M  V30 2354 H 262.074 7.47197 1.97271 0
M  V30 2355 H 260.419 6.71797 1.78083 0
M  V30 2356 H 263.61 4.44171 1.47749 0
M  V30 2357 H 263.783 6.22382 1.80402 0
M  V30 2358 N 257.189 -0.644168 1.43834 0
M  V30 2359 C 258.437 -1.40117 1.45642 0
M  V30 2360 C 258.758 -1.94814 0.0852413 0
M  V30 2361 O 258.028 -1.74988 -0.880688 0
M  V30 2362 H 256.608 -0.52005 0.536243 0
M  V30 2363 H 259.27 -0.7591 1.7951 0
M  V30 2364 H 258.366 -2.23902 2.17427 0
M  V30 2365 N 258.668 -1.30515 -0.883378 0
M  V30 2366 C 259.914 -1.19607 -1.63774 0
M  V30 2367 C 260.247 0.248314 -1.92606 0
M  V30 2368 O 259.522 1.17742 -1.54813 0
M  V30 2369 C 259.805 -2.02669 -2.97653 0
M  V30 2370 C 259.658 -3.55335 -2.75784 0
M  V30 2371 C 260.977 -1.86573 -3.98596 0
M  V30 2372 H 258.096 -0.435856 -0.594305 0
M  V30 2373 H 260.738 -1.60165 -1.02212 0
M  V30 2374 H 258.888 -1.68208 -3.50197 0
M  V30 2375 H 260.56 -3.99863 -2.30016 0
M  V30 2376 H 258.803 -3.79438 -2.1026 0
M  V30 2377 H 259.474 -4.08745 -3.70988 0
M  V30 2378 H 261.95 -2.16703 -3.55217 0
M  V30 2379 H 260.826 -2.47014 -4.90179 0
M  V30 2380 H 261.087 -0.825321 -4.34328 0
M  V30 2381 N 260.146 1.09593 -1.13257 0
M  V30 2382 C 261.557 1.63229 -0.906274 0
M  V30 2383 C 261.908 1.8811 0.557578 0
M  V30 2384 O 261.033 1.62953 1.42391 0
M  V30 2385 C 261.628 2.96535 -1.63867 0
M  V30 2386 C 260.187 3.47003 -1.45828 0
M  V30 2387 C 259.334 2.2145 -1.66898 0
M  V30 2388 H 262.285 0.92978 -1.28611 0
M  V30 2389 H 262.306 3.64411 -1.09476 0
M  V30 2390 H 261.818 2.78394 -2.70404 0
M  V30 2391 H 259.919 3.70272 -0.415848 0
M  V30 2392 H 260.032 4.24551 -2.2202 0
M  V30 2393 H 258.396 2.30022 -1.09371 0
M  V30 2394 H 259.179 2.0583 -2.74752 0
M  V30 2395 N 261.624 0.925811 1.2754 0
M  V30 2396 C 262.872 0.564138 1.94067 0
M  V30 2397 C 263.193 -0.897188 1.73134 0
M  V30 2398 O 262.463 -1.63573 1.07799 0
M  V30 2399 H 261.043 0.205645 0.718136 0
M  V30 2400 H 263.705 1.1778 1.55287 0
M  V30 2401 H 262.801 0.76881 3.02483 0
M  V30 2402 N 263.102 -1.41638 0.69111 0
M  V30 2403 C 264.05 -2.32597 0.0115199 0
M  V30 2404 C 265.044 -1.5072 -0.773296 0
M  V30 2405 O 266.25 -1.66685 -0.67942 0
M  V30 2406 H 262.625 -0.751849 -0.0150746 0
M  V30 2407 H 264.596 -2.87593 0.795791 0
M  V30 2408 C 263.345 -3.35467 -0.914172 0
M  V30 2409 H 262.668 -3.9852 -0.319687 0
M  V30 2410 H 264.108 -4.01662 -1.35808 0
M  V30 2411 C 262.567 -2.69004 -2.02826 0
M  V30 2412 O 263.097 -2.53444 -3.11655 0
M  V30 2413 N 261.303 -2.2777 -1.80469 0
M  V30 2414 H 260.85 -2.40626 -0.919615 0
M  V30 2415 H 260.808 -1.83635 -2.55197 0
M  V30 2416 N 264.58 -0.43555 -1.51462 0
M  V30 2417 C 265.808 0.130242 -2.0649 0
M  V30 2418 C 266.223 1.36614 -1.30315 0
M  V30 2419 O 265.58 1.78869 -0.362223 0
M  V30 2420 C 265.631 0.454253 -3.58635 0
M  V30 2421 O 265.352 -0.73259 -4.31931 0
M  V30 2422 C 266.853 1.07091 -4.3017 0
M  V30 2423 H 264.073 0.00871669 -0.670943 0
M  V30 2424 H 266.617 -0.614117 -1.95061 0
M  V30 2425 H 264.772 1.14851 -3.69984 0
M  V30 2426 H 265.186 -0.455787 -5.22516 0
M  V30 2427 H 266.66 1.24764 -5.37716 0
M  V30 2428 H 267.137 2.05144 -3.88346 0
M  V30 2429 H 267.743 0.416089 -4.2326 0
M  V30 2430 N 266.058 1.56714 -0.166846 0
M  V30 2431 C 267.306 1.96358 0.478305 0
M  V30 2432 C 267.627 1.0537 1.6408 0
M  V30 2433 O 266.897 0.119154 1.95537 0
M  V30 2434 H 265.477 0.725065 0.179692 0
M  V30 2435 H 268.139 1.93329 -0.246985 0
M  V30 2436 H 267.235 3.00547 0.841292 0
M  V30 2437 N 267.536 -0.106894 1.57237 0
M  V30 2438 C 268.499 -1.11466 2.0027 0
M  V30 2439 C 269.499 -1.33623 0.894519 0
M  V30 2440 O 270.689 -1.29935 1.16028 0
M  V30 2441 C 267.821 -2.46646 2.35327 0
M  V30 2442 H 269.014 -0.744516 2.90512 0
M  V30 2443 H 266.567 -0.351576 1.52295 0
M  V30 2444 H 267.302 -2.88558 1.48003 0
M  V30 2445 H 267.087 -2.31915 3.16161 0
M  V30 2446 H 268.577 -3.19151 2.69318 0
M  V30 2447 N 269.014 -1.53014 -0.377408 0
M  V30 2448 C 269.977 -1.77957 -1.44444 0
M  V30 2449 C 270.977 -0.649763 -1.47087 0
M  V30 2450 O 272.167 -0.917897 -1.48055 0
M  V30 2451 C 269.299 -1.89089 -2.83651 0
M  V30 2452 H 270.492 -2.73243 -1.23606 0
M  V30 2453 H 268.045 -1.43912 -0.609844 0
M  V30 2454 H 268.78 -0.958293 -3.09818 0
M  V30 2455 H 268.565 -2.71254 -2.83132 0
M  V30 2456 H 270.055 -2.1002 -3.60945 0
M  V30 2457 N 270.492 0.636531 -1.44174 0
M  V30 2458 C 271.74 1.39343 -1.46383 0
M  V30 2459 C 272.061 1.94766 -0.0955715 0
M  V30 2460 O 271.331 1.75452 0.871395 0
M  V30 2461 H 269.911 0.517199 -0.538994 0
M  V30 2462 H 272.573 0.74957 -1.7991 0
M  V30 2463 H 271.669 2.22746 -2.18611 0
M  V30 2464 N 271.97 1.30982 0.876444 0
M  V30 2465 C 273.195 1.23373 1.66715 0
M  V30 2466 C 273.62 -0.19885 1.87046 0
M  V30 2467 O 272.978 -1.1427 1.40756 0
M  V30 2468 C 273.026 1.97644 3.01611 0
M  V30 2469 O 272.13 1.30935 3.91062 0
M  V30 2470 H 271.471 0.426279 0.509099 0
M  V30 2471 H 274.001 1.72944 1.09323 0
M  V30 2472 H 274.011 2.06992 3.51594 0
M  V30 2473 H 272.686 3.01829 2.86133 0
M  V30 2474 H 271.263 1.29996 3.49507 0
M  V30 2475 N 273.449 -1.08991 1.13837 0
M  V30 2476 C 274.412 -2.13925 0.822715 0
M  V30 2477 C 275.412 -1.599 -0.1699 0
M  V30 2478 O 276.602 -1.74104 0.0577251 0
M  V30 2479 C 273.734 -3.40155 0.225318 0
M  V30 2480 H 274.927 -2.43358 1.75262 0
M  V30 2481 H 272.48 -1.24603 0.943594 0
M  V30 2482 H 273.215 -3.16352 -0.713594 0
M  V30 2483 H 273 -3.80661 0.940193 0
M  V30 2484 H 274.49 -4.17594 0.0214784 0
M  V30 2485 N 274.927 -0.932562 -1.27047 0
M  V30 2486 C 276.175 -0.574422 -1.93765 0
M  V30 2487 C 276.496 0.887993 -1.73608 0
M  V30 2488 O 275.766 1.62999 -1.08665 0
M  V30 2489 H 274.346 -0.209451 -0.717035 0
M  V30 2490 H 277.008 -1.18601 -1.5466 0
M  V30 2491 H 276.104 -0.784841 -3.02071 0
M  V30 2492 N 276.405 1.4127 -0.698611 0
M  V30 2493 C 277.368 2.29158 -0.044132 0
M  V30 2494 C 278.368 1.44529 0.704841 0
M  V30 2495 O 279.558 1.65643 0.539276 0
M  V30 2496 C 276.69 3.27459 0.947809 0
M  V30 2497 H 277.883 2.88529 -0.817994 0
M  V30 2498 H 275.436 1.49307 -0.46228 0
M  V30 2499 H 276.171 2.73073 1.74933 0
M  V30 2500 H 275.956 3.8991 0.41385 0
M  V30 2501 H 277.446 3.93311 1.40344 0
M  V30 2502 N 277.883 0.443576 1.51229 0
M  V30 2503 C 278.816 -0.410089 2.24485 0
M  V30 2504 C 279.794 -1.01949 1.26669 0
M  V30 2505 O 280.978 -1.06075 1.55821 0
M  V30 2506 C 278.105 -1.57211 3.00004 0
M  V30 2507 C 277.151 -1.08279 4.12526 0
M  V30 2508 S 277.984 -0.0197476 5.35496 0
M  V30 2509 C 279.14 -1.18629 6.14555 0
M  V30 2510 H 279.373 0.211832 2.96544 0
M  V30 2511 H 276.906 0.228156 1.52705 0
M  V30 2512 H 278.864 -2.23825 3.44111 0
M  V30 2513 H 277.525 -2.16547 2.27522 0
M  V30 2514 H 276.718 -1.95193 4.64667 0
M  V30 2515 H 276.32 -0.494797 3.70713 0
M  V30 2516 H 278.612 -2.10344 6.4402 0
M  V30 2517 H 279.555 -0.70472 7.04584 0
M  V30 2518 H 279.963 -1.42768 5.46148 0
M  V30 2519 N 279.361 -1.56624 0.175154 0
M  V30 2520 C 280.609 -1.96609 -0.467885 0
M  V30 2521 C 280.93 -1.06238 -1.63519 0
M  V30 2522 O 280.2 -0.129523 -1.95471 0
M  V30 2523 H 278.78 -0.726008 -0.175845 0
M  V30 2524 H 281.442 -1.93195 0.257234 0
M  V30 2525 H 280.538 -3.00989 -0.825342 0
M  V30 2526 N 280.839 0.0985539 -1.57292 0
M  V30 2527 C 282.25 0.653457 -1.74891 0
M  V30 2528 C 282.601 1.7929 -0.796838 0
M  V30 2529 O 281.726 2.16385 0.0254886 0
M  V30 2530 C 282.321 1.19216 -3.17133 0
M  V30 2531 C 280.88 1.69316 -3.36168 0
M  V30 2532 C 280.027 0.601294 -2.70702 0
M  V30 2533 H 282.978 -0.127497 -1.58187 0
M  V30 2534 H 282.999 2.06154 -3.19814 0
M  V30 2535 H 282.511 0.362635 -3.86402 0
M  V30 2536 H 280.612 2.5468 -2.71972 0
M  V30 2537 H 280.725 1.78853 -4.44464 0
M  V30 2538 H 279.089 1.0399 -2.32504 0
M  V30 2539 H 279.872 -0.217592 -3.4261 0
M  V30 2540 N 282.317 1.53212 0.369288 0
M  V30 2541 C 283.249 1.75668 1.47219 0
M  V30 2542 C 284.262 0.637387 1.49804 0
M  V30 2543 O 285.451 0.913561 1.5335 0
M  V30 2544 C 282.551 1.81818 2.85999 0
M  V30 2545 C 281.724 3.11409 3.07153 0
M  V30 2546 C 280.783 3.08849 4.26026 0
M  V30 2547 O 279.809 3.82659 4.2138 0
M  V30 2548 N 281.011 2.29409 5.33246 0
M  V30 2549 H 283.776 2.70832 1.28337 0
M  V30 2550 H 281.337 1.51944 0.55898 0
M  V30 2551 H 283.329 1.77588 3.63655 0
M  V30 2552 H 281.899 0.939544 2.98146 0
M  V30 2553 H 281.119 3.28971 2.1719 0
M  V30 2554 H 282.407 3.97059 3.18154 0
M  V30 2555 H 281.805 1.68946 5.39883 0
M  V30 2556 H 280.362 2.31001 6.09493 0
M  V30 2557 N 283.795 -0.628877 1.44509 0
M  V30 2558 C 285.043 -1.38565 1.4712 0
M  V30 2559 C 285.364 -1.94712 0.105899 0
M  V30 2560 O 284.634 -1.75912 -0.862079 0
M  V30 2561 H 283.214 -0.514333 0.541729 0
M  V30 2562 H 285.876 -0.740018 1.80305 0
M  V30 2563 H 284.972 -2.21583 2.19789 0
M  V30 2564 N 285.273 -1.31445 -0.869486 0
M  V30 2565 C 286.498 -1.24256 -1.66058 0
M  V30 2566 C 286.923 0.188928 -1.87149 0
M  V30 2567 O 286.281 1.13522 -1.4136 0
M  V30 2568 C 286.329 -1.9924 -3.00559 0
M  V30 2569 O 285.433 -1.33007 -3.90362 0
M  V30 2570 H 284.774 -0.428973 -0.506831 0
M  V30 2571 H 287.304 -1.73521 -1.08404 0
M  V30 2572 H 287.314 -2.08854 -3.50491 0
M  V30 2573 H 285.989 -3.03342 -2.84528 0
M  V30 2574 H 284.566 -1.31848 -3.48813 0
M  V30 2575 N 286.751 1.08385 -1.14413 0
M  V30 2576 C 288.162 1.62258 -0.923535 0
M  V30 2577 C 288.513 1.88691 0.537595 0
M  V30 2578 O 287.638 1.64454 1.40655 0
M  V30 2579 C 288.233 2.94781 -1.67002 0
M  V30 2580 C 286.792 3.45437 -1.495 0
M  V30 2581 C 285.939 2.19668 -1.69238 0
M  V30 2582 H 288.89 0.916086 -1.2959 0
M  V30 2583 H 288.911 3.63229 -1.13334 0
M  V30 2584 H 288.423 2.7551 -2.73342 0
M  V30 2585 H 286.524 3.6981 -0.455097 0
M  V30 2586 H 286.637 4.22173 -2.2651 0
M  V30 2587 H 285.001 2.28849 -1.11804 0
M  V30 2588 H 285.784 2.02905 -2.7692 0
M  V30 2589 N 288.23 0.939286 1.26551 0
M  V30 2590 C 289.478 0.58469 1.93457 0
M  V30 2591 C 289.799 -0.878774 1.74076 0
M  V30 2592 O 289.069 -1.62421 1.09528 0
M  V30 2593 H 287.649 0.21325 0.715914 0
M  V30 2594 H 290.311 1.1942 1.54029 0
M  V30 2595 H 289.407 0.800849 3.0165 0
M  V30 2596 N 289.708 -1.40897 0.706093 0
M  V30 2597 C 290.671 -2.29131 0.0562841 0
M  V30 2598 C 291.671 -1.44901 -0.697166 0
M  V30 2599 O 292.861 -1.65926 -0.530484 0
M  V30 2600 C 289.993 -3.27957 -0.93043 0
M  V30 2601 H 291.186 -2.88091 0.833284 0
M  V30 2602 H 288.739 -1.4906 0.470192 0
M  V30 2603 H 289.474 -2.73997 -1.73482 0
M  V30 2604 H 289.259 -3.90124 -0.393166 0
M  V30 2605 H 290.749 -3.94049 -1.38256 0
M  V30 2606 N 291.186 -0.45159 -1.50991 0
M  V30 2607 C 292.602 -0.104647 -1.59257 0
M  V30 2608 C 292.802 1.38728 -1.4614 0
M  V30 2609 O 291.858 2.15866 -1.30989 0
M  V30 2610 C 293.171 -0.637468 -2.93865 0
M  V30 2611 C 294.719 -0.599166 -3.07212 0
M  V30 2612 C 295.194 -1.1092 -4.44366 0
M  V30 2613 N 296.685 -1.06778 -4.50725 0
M  V30 2614 C 297.42 -1.43314 -5.55201 0
M  V30 2615 N 296.916 -1.87204 -6.67028 0
M  V30 2616 N 298.709 -1.3504 -5.45638 0
M  V30 2617 H 290.86 -1.42214 -1.57762 0
M  V30 2618 H 293.123 -0.586921 -0.744465 0
M  V30 2619 H 292.829 -1.68187 -3.08879 0
M  V30 2620 H 292.703 -0.0702139 -3.77135 0
M  V30 2621 H 295.09 0.436277 -2.91857 0
M  V30 2622 H 295.171 -1.20299 -2.25747 0
M  V30 2623 H 294.815 -2.14318 -4.60467 0
M  V30 2624 H 294.745 -0.481773 -5.24392 0
M  V30 2625 H 297.236 -0.745643 -3.70471 0
M  V30 2626 H 297.549 -2.13282 -7.42786 0
M  V30 2627 H 295.894 -1.91142 -6.68199 0
M  V30 2628 H 299.085 -1.00607 -4.57161 0
M  V30 2629 H 299.258 -1.63841 -6.26945 0
M  V30 2630 N 292.664 1.56529 -0.183458 0
M  V30 2631 C 293.912 1.96855 0.457452 0
M  V30 2632 C 294.233 1.07104 1.62953 0
M  V30 2633 O 293.503 0.139887 1.954 0
M  V30 2634 H 292.083 0.72693 0.171992 0
M  V30 2635 H 294.745 1.93056 -0.267476 0
M  V30 2636 H 293.841 3.01423 0.809368 0
M  V30 2637 N 294.142 -0.090211 1.57342 0
M  V30 2638 C 295.553 -0.644173 1.75235 0
M  V30 2639 C 295.904 -1.78865 0.806335 0
M  V30 2640 O 295.029 -2.16395 -0.0140128 0
M  V30 2641 C 295.624 -1.17532 3.1776 0
M  V30 2642 C 294.183 -1.67531 3.37061 0
M  V30 2643 C 293.33 -0.58693 2.71017 0
M  V30 2644 H 296.281 0.135884 1.58117 0
M  V30 2645 H 296.302 -2.04455 3.20902 0
M  V30 2646 H 295.814 -0.342138 3.86589 0
M  V30 2647 H 293.915 -2.53234 2.73319 0
M  V30 2648 H 294.028 -1.76493 4.45406 0
M  V30 2649 H 292.392 -1.02756 2.33052 0
M  V30 2650 H 293.175 0.235758 3.4249 0
M  V30 2651 N 295.62 -1.53406 -0.361157 0
M  V30 2652 C 297.031 -1.61442 -0.937728 0
M  V30 2653 C 297.382 -0.48461 -1.90121 0
M  V30 2654 O 296.507 0.388312 -2.12888 0
M  V30 2655 C 297.102 -2.92624 -1.70753 0
M  V30 2656 C 295.661 -3.02981 -2.23337 0
M  V30 2657 C 294.808 -2.5677 -1.04712 0
M  V30 2658 H 297.759 -1.58083 -0.139816 0
M  V30 2659 H 297.78 -2.80675 -2.56908 0
M  V30 2660 H 297.292 -3.74834 -1.00604 0
M  V30 2661 H 295.393 -2.25368 -2.96715 0
M  V30 2662 H 295.506 -4.0814 -2.50916 0
M  V30 2663 H 293.87 -2.11752 -1.41539 0
M  V30 2664 H 294.653 -3.41402 -0.360539 0
M  V30 2665 N 297.098 0.621204 -1.44841 0
M  V30 2666 C 298.346 1.37783 -1.47852 0
M  V30 2667 C 298.667 1.94653 -0.116224 0
M  V30 2668 O 297.937 1.76367 0.852737 0
M  V30 2669 H 296.517 0.511453 -0.544449 0
M  V30 2670 H 299.179 0.730446 -1.80694 0
M  V30 2671 H 298.275 2.20414 -2.20961 0
M  V30 2672 N 298.576 1.31904 0.862503 0
M  V30 2673 C 299.506 1.22782 1.98612 0
M  V30 2674 C 300.487 0.113362 1.69722 0
M  V30 2675 O 301.672 0.299218 1.91881 0
M  V30 2676 C 298.802 0.942058 3.34279 0
M  V30 2677 C 297.756 2.0169 3.77499 0
M  V30 2678 C 297.082 1.58369 5.10709 0
M  V30 2679 C 298.382 3.43096 3.93805 0
M  V30 2680 H 300.076 2.16788 2.06502 0
M  V30 2681 H 297.622 1.04366 0.992154 0
M  V30 2682 H 299.575 0.864818 4.1243 0
M  V30 2683 H 298.299 -0.0336603 3.26583 0
M  V30 2684 H 296.958 2.08416 3.01593 0
M  V30 2685 H 296.606 0.595628 4.99461 0
M  V30 2686 H 296.306 2.30279 5.40597 0
M  V30 2687 H 297.83 1.52067 5.91361 0
M  V30 2688 H 299.244 3.39003 4.62331 0
M  V30 2689 H 297.641 4.13288 4.35101 0
M  V30 2690 H 298.711 3.83334 2.96957 0
M  V30 2691 N 300.054 -1.07777 1.14986 0
M  V30 2692 C 301.001 -2.14867 0.842672 0
M  V30 2693 C 301.971 -1.6486 -0.202552 0
M  V30 2694 O 303.156 -1.90668 -0.0710568 0
M  V30 2695 C 300.296 -3.43486 0.333363 0
M  V30 2696 C 299.409 -4.07306 1.43965 0
M  V30 2697 C 298.544 -5.23744 0.886914 0
M  V30 2698 C 297.583 -5.79517 1.97043 0
M  V30 2699 N 296.72 -6.87291 1.4344 0
M  V30 2700 H 301.56 -2.40485 1.75986 0
M  V30 2701 H 299.097 -1.1801 0.878179 0
M  V30 2702 H 301.055 -4.17195 0.0198163 0
M  V30 2703 H 299.685 -3.18133 -0.546916 0
M  V30 2704 H 298.737 -3.31293 1.86946 0
M  V30 2705 H 300.049 -4.44771 2.25788 0
M  V30 2706 H 299.203 -6.04419 0.525651 0
M  V30 2707 H 297.942 -4.87685 0.0377957 0
M  V30 2708 H 296.947 -4.97491 2.34057 0
M  V30 2709 H 298.172 -6.17632 2.82325 0
M  V30 2710 H 296.118 -6.5318 0.607567 0
M  V30 2711 H 296.035 -7.23617 2.18895 0
M  V30 2712 H 297.303 -7.71682 1.10124 0
M  V30 2713 N 301.532 -0.945985 -1.26051 0
M  V30 2714 C 302.78 -0.594941 -1.93145 0
M  V30 2715 C 303.101 0.86953 -1.7454 0
M  V30 2716 O 302.371 1.61838 -1.10387 0
M  V30 2717 H 300.951 -0.217044 -0.714773 0
M  V30 2718 H 303.613 -1.20235 -1.53393 0
M  V30 2719 H 302.709 -0.816835 -3.01221 0
M  V30 2720 N 303.011 1.40521 -0.713556 0
M  V30 2721 C 304.288 1.94775 -0.17943 0
M  V30 2722 C 304.668 1.65184 1.31444 0
M  V30 2723 O 304.016 0.968429 2.06963 0
M  V30 2724 C 304.226 3.45543 -0.489986 0
M  V30 2725 C 305.574 4.22442 -0.427536 0
M  V30 2726 O 306.598 3.53644 -0.425929 0
M  V30 2727 O 305.457 5.4501 -0.403292 0
M  V30 2728 H 302.551 0.826606 -0.0255192 0
M  V30 2729 H 305.097 1.5014 -0.790949 0
M  V30 2730 H 303.869 3.60432 -1.5233 0
M  V30 2731 H 303.492 3.97311 0.151598 0
M  V30 2732 N 304.489 0.459591 1.5075 0
M  V30 2733 C 305.436 -0.340524 2.28274 0
M  V30 2734 C 306.406 -0.997371 1.32822 0
M  V30 2735 O 307.591 -1.01202 1.61749 0
M  V30 2736 C 304.731 -1.42317 3.14388 0
M  V30 2737 C 303.844 -0.782251 4.24859 0
M  V30 2738 C 302.979 -1.84182 4.98247 0
M  V30 2739 C 302.018 -1.18053 6.00608 0
M  V30 2740 N 301.155 -2.18244 6.67319 0
M  V30 2741 H 305.995 0.326899 2.96202 0
M  V30 2742 H 303.532 0.173057 1.46078 0
M  V30 2743 H 305.49 -2.06241 3.62658 0
M  V30 2744 H 304.12 -2.05992 2.4853 0
M  V30 2745 H 303.172 -0.0307404 3.80388 0
M  V30 2746 H 304.484 -0.259663 4.98124 0
M  V30 2747 H 303.638 -2.55714 5.50177 0
M  V30 2748 H 302.377 -2.39819 4.24662 0
M  V30 2749 H 301.382 -0.450776 5.47949 0
M  V30 2750 H 302.607 -0.631202 6.7616 0
M  V30 2751 H 300.553 -2.72919 5.96533 0
M  V30 2752 H 300.47 -1.70938 7.36421 0
M  V30 2753 H 301.738 -2.89191 7.23871 0
M  V30 2754 N 305.967 -1.56429 0.191757 0
M  V30 2755 C 307.215 -1.97095 -0.447006 0
M  V30 2756 C 307.536 -1.07967 -1.62383 0
M  V30 2757 O 306.806 -0.150248 -1.95323 0
M  V30 2758 H 305.386 -0.727832 -0.168135 0
M  V30 2759 H 308.048 -1.92911 0.27771 0
M  V30 2760 H 307.144 -3.01848 -0.793371 0
M  V30 2761 N 307.445 0.0818655 -1.57387 0
M  V30 2762 C 308.694 0.781681 -1.85937 0
M  V30 2763 C 309.007 1.79246 -0.782957 0
M  V30 2764 O 310.213 2.54112 -0.955987 0
M  V30 2765 C 308.669 1.44109 -3.29789 0
M  V30 2766 C 308.277 0.469396 -4.45534 0
M  V30 2767 C 310.021 2.12386 -3.67549 0
M  V30 2768 C 307.928 1.13415 -5.80423 0
M  V30 2769 H 306.858 0.295682 -0.693605 0
M  V30 2770 H 309.509 0.0348051 -1.83467 0
M  V30 2771 H 307.891 2.23588 -3.2684 0
M  V30 2772 H 309.065 -0.294856 -4.59856 0
M  V30 2773 H 307.38 -0.108383 -4.16259 0
M  V30 2774 H 309.977 2.62878 -4.65617 0
M  V30 2775 H 310.32 2.91877 -2.96839 0
M  V30 2776 H 310.853 1.39751 -3.72444 0
M  V30 2777 H 307.592 0.379771 -6.54399 0
M  V30 2778 H 307.112 1.8695 -5.69921 0
M  V30 2779 H 308.791 1.65686 -6.25426 0
M  V30 2780 N 308.923 1.53595 0.353017 0
M  V30 2781 C 310.334 1.61937 0.929153 0
M  V30 2782 C 310.685 0.494686 1.89861 0
M  V30 2783 O 309.81 -0.377017 2.1309 0
M  V30 2784 C 310.405 2.93526 1.69199 0
M  V30 2785 C 308.964 3.04161 2.21727 0
M  V30 2786 C 308.111 2.57322 1.03348 0
M  V30 2787 H 311.062 1.58155 0.131431 0
M  V30 2788 H 311.083 2.82034 2.55416 0
M  V30 2789 H 310.595 3.75362 0.986144 0
M  V30 2790 H 308.696 2.26938 2.95516 0
M  V30 2791 H 308.809 4.09465 2.48748 0
M  V30 2792 H 307.173 2.12499 1.40414 0
M  V30 2793 H 307.956 3.41588 0.342428 0
M  V30 2794 N 310.401 -0.613514 1.45168 0
M  V30 2795 C 311.649 -1.36997 1.48581 0
M  V30 2796 C 311.97 -1.94589 0.126545 0
M  V30 2797 O 311.24 -1.76816 -0.843372 0
M  V30 2798 H 309.82 -0.508558 0.547154 0
M  V30 2799 H 312.482 -0.720853 1.81079 0
M  V30 2800 H 311.578 -2.1924 2.22127 0
M  V30 2801 N 311.879 -1.3236 -0.855495 0
M  V30 2802 C 313.156 -1.13491 -1.59309 0
M  V30 2803 C 313.536 0.30503 -2.08885 0
M  V30 2804 O 312.884 1.30151 -1.87811 0
M  V30 2805 C 313.094 -2.16176 -2.73987 0
M  V30 2806 C 314.442 -2.49463 -3.43589 0
M  V30 2807 O 315.466 -2.14715 -2.84211 0
M  V30 2808 O 314.325 -3.09027 -4.50738 0
M  V30 2809 H 311.419 -0.437887 -0.701559 0
M  V30 2810 H 313.965 -1.43887 -0.899696 0
M  V30 2811 H 312.737 -3.1297 -2.34873 0
M  V30 2812 H 312.36 -1.86769 -3.51003 0
M  V30 2813 N 313.357 1.07166 -1.15556 0
M  V30 2814 C 314.304 2.14417 -0.854055 0
M  V30 2815 C 315.274 1.64965 0.193806 0
M  V30 2816 O 316.459 1.90703 0.0609443 0
M  V30 2817 C 313.599 3.43304 -0.351574 0
M  V30 2818 C 312.712 4.06537 -1.46123 0
M  V30 2819 C 311.847 5.23266 -0.914677 0
M  V30 2820 C 310.886 5.78464 -2.00114 0
M  V30 2821 N 310.023 6.86521 -1.47083 0
M  V30 2822 H 314.863 2.39548 -1.77259 0
M  V30 2823 H 312.4 1.17543 -0.884425 0
M  V30 2824 H 314.358 4.17179 -0.0419409 0
M  V30 2825 H 312.988 3.18419 0.530037 0
M  V30 2826 H 312.04 3.30297 -1.88701 0
M  V30 2827 H 313.352 4.43567 -2.28144 0
M  V30 2828 H 312.506 6.04131 -0.557698 0
M  V30 2829 H 311.245 4.87658 -0.0636583 0
M  V30 2830 H 310.25 4.96243 -2.36692 0
M  V30 2831 H 311.475 6.16126 -2.85597 0
M  V30 2832 H 309.421 6.52849 -0.642198 0
M  V30 2833 H 309.338 7.22446 -2.22729 0
M  V30 2834 H 310.606 7.71087 -1.14215 0
M  V30 2835 N 314.835 0.952656 1.25548 0
M  V30 2836 C 316.083 0.605176 1.92826 0
M  V30 2837 C 316.404 -0.860261 1.74999 0
M  V30 2838 O 315.674 -1.6125 1.11244 0
M  V30 2839 H 314.254 0.220832 0.713612 0
M  V30 2840 H 316.916 1.21047 1.52754 0
M  V30 2841 H 316.012 0.832798 3.00784 0
M  V30 2842 N 316.313 -1.40141 0.720998 0
M  V30 2843 C 317.276 -2.29058 0.0805834 0
M  V30 2844 C 318.276 -1.45632 -0.681758 0
M  V30 2845 O 319.466 -1.6648 -0.512856 0
M  V30 2846 C 316.598 -3.28925 -0.895593 0
M  V30 2847 H 317.791 -2.87191 0.863793 0
M  V30 2848 H 315.344 -1.48553 0.485975 0
M  V30 2849 H 316.079 -2.75822 -1.70566 0
M  V30 2850 H 315.864 -3.90519 -0.351766 0
M  V30 2851 H 317.354 -3.95494 -1.34069 0
M  V30 2852 N 317.792 -0.46758 -1.50504 0
M  V30 2853 C 318.739 0.328413 -2.28452 0
M  V30 2854 C 319.709 0.990313 -1.33349 0
M  V30 2855 O 320.894 1.00343 -1.62284 0
M  V30 2856 C 318.034 1.40648 -3.15138 0
M  V30 2857 C 317.147 0.759709 -4.25267 0
M  V30 2858 C 316.282 1.81537 -4.99217 0
M  V30 2859 C 315.321 1.14866 -6.01226 0
M  V30 2860 N 314.458 2.14702 -6.68467 0
M  V30 2861 H 319.298 -0.342603 -2.96024 0
M  V30 2862 H 316.835 -0.180801 -1.45985 0
M  V30 2863 H 318.793 2.04315 -3.63746 0
M  V30 2864 H 317.423 2.04671 -2.49619 0
M  V30 2865 H 316.475 0.0105671 -3.80399 0
M  V30 2866 H 317.787 0.233243 -4.98254 0
M  V30 2867 H 316.941 2.52793 -5.51526 0
M  V30 2868 H 315.68 2.37564 -4.25928 0
M  V30 2869 H 314.685 0.42171 -5.4818 0
M  V30 2870 H 315.91 0.595334 -6.76485 0
M  V30 2871 H 313.856 2.69752 -5.97972 0
M  V30 2872 H 313.773 1.6703 -7.37317 0
M  V30 2873 H 315.041 2.85348 -7.25394 0
M  V30 2874 N 319.27 1.56325 -0.20005 0
M  V30 2875 C 320.518 1.97329 0.436547 0
M  V30 2876 C 320.839 1.08826 1.61808 0
M  V30 2877 O 320.109 0.160604 1.95241 0
M  V30 2878 H 318.689 0.728714 0.164272 0
M  V30 2879 H 321.351 1.92761 -0.287937 0
M  V30 2880 H 320.447 3.02264 0.777353 0
M  V30 2881 N 320.748 -0.0735177 1.57428 0
M  V30 2882 C 321.658 -1.10547 2.06922 0
M  V30 2883 C 322.674 -1.42506 0.998402 0
M  V30 2884 O 323.85 -1.52717 1.31299 0
M  V30 2885 C 320.915 -2.40019 2.50184 0
M  V30 2886 C 319.976 -2.15046 3.71556 0
M  V30 2887 C 319.209 -3.38345 4.12745 0
M  V30 2888 O 319.432 -4.47399 3.53822 0
M  V30 2889 O 318.366 -3.2666 5.05546 0
M  V30 2890 H 322.192 -0.715013 2.95163 0
M  V30 2891 H 319.777 -0.287531 1.46607 0
M  V30 2892 H 321.659 -3.16218 2.78539 0
M  V30 2893 H 320.334 -2.78447 1.65072 0
M  V30 2894 H 319.241 -1.36558 3.48285 0
M  V30 2895 H 320.574 -1.81499 4.57514 0
M  V30 2896 N 322.226 -1.5378 -0.344866 0
M  V30 2897 C 323.451 -1.75211 -1.10977 0
M  V30 2898 C 323.876 -0.48936 -1.81623 0
M  V30 2899 O 323.234 0.557925 -1.72502 0
M  V30 2900 C 323.282 -2.93147 -2.09993 0
M  V30 2901 O 322.386 -2.63203 -3.17487 0
M  V30 2902 H 321.727 -0.581241 -0.321021 0
M  V30 2903 H 324.257 -2.00738 -0.395661 0
M  V30 2904 H 324.267 -3.19898 -2.53237 0
M  V30 2905 H 322.942 -3.84731 -1.5797 0
M  V30 2906 H 321.519 -2.47336 -2.79069 0
M  V30 2907 N 323.704 0.605807 -1.45491 0
M  V30 2908 C 324.952 1.36207 -1.49305 0
M  V30 2909 C 325.273 1.94519 -0.136863 0
M  V30 2910 O 324.543 1.77261 0.833983 0
M  V30 2911 H 323.123 0.50565 -0.549843 0
M  V30 2912 H 325.785 0.711239 -1.81459 0
M  V30 2913 H 324.881 2.18058 -2.23287 0
M  V30 2914 N 325.182 1.32811 0.848464 0
M  V30 2915 C 326.112 1.24882 1.97299 0
M  V30 2916 C 327.093 0.131357 1.69592 0
M  V30 2917 O 328.278 0.319553 1.91553 0
M  V30 2918 C 325.408 0.97746 3.33261 0
M  V30 2919 C 324.362 2.05682 3.75338 0
M  V30 2920 C 323.688 1.63777 5.09 0
M  V30 2921 C 324.988 3.47254 3.90144 0
M  V30 2922 H 326.682 2.18966 2.04191 0
M  V30 2923 H 324.228 1.05413 0.981029 0
M  V30 2924 H 326.181 0.908513 4.1149 0
M  V30 2925 H 324.905 0.000980011 3.266 0
M  V30 2926 H 323.564 2.11603 2.99366 0
M  V30 2927 H 323.212 0.648569 4.98801 0
M  V30 2928 H 322.912 2.36 5.38124 0
M  V30 2929 H 324.436 1.5833 5.89715 0
M  V30 2930 H 325.85 3.43888 4.58709 0
M  V30 2931 H 324.247 4.1788 4.30693 0
M  V30 2932 H 325.317 3.86462 2.92874 0
M  V30 2933 N 326.66 -1.06551 1.16123 0
M  V30 2934 C 328.071 -1.60768 0.949232 0
M  V30 2935 C 328.422 -1.89523 -0.507508 0
M  V30 2936 O 327.547 -1.66671 -1.38021 0
M  V30 2937 C 328.142 -2.92086 1.71671 0
M  V30 2938 C 326.701 -3.43015 1.54977 0
M  V30 2939 C 325.848 -2.16947 1.72711 0
M  V30 2940 H 328.799 -0.895354 1.31031 0
M  V30 2941 H 328.82 -3.6138 1.19099 0
M  V30 2942 H 328.332 -2.71127 2.7769 0
M  V30 2943 H 326.433 -3.69039 0.513873 0
M  V30 2944 H 326.546 -4.18516 2.33198 0
M  V30 2945 H 324.91 -2.27041 1.15431 0
M  V30 2946 H 325.693 -1.98473 2.80113 0
M  V30 2947 N 328.138 -0.959301 -1.25041 0
M  V30 2948 C 329.415 -0.533805 -1.88175 0
M  V30 2949 C 329.795 0.988994 -1.865 0
M  V30 2950 O 329.143 1.85677 -1.33177 0
M  V30 2951 C 329.353 -1.11575 -3.30684 0
M  V30 2952 C 330.701 -1.19548 -4.07423 0
M  V30 2953 O 331.725 -1.06765 -3.39823 0
M  V30 2954 O 330.584 -1.39656 -5.28354 0
M  V30 2955 H 327.678 -0.176772 -0.807887 0
M  V30 2956 H 330.224 -1.05303 -1.33076 0
M  V30 2957 H 328.996 -2.15884 -3.26358 0
M  V30 2958 H 328.619 -0.580059 -3.93346 0
M  V30 2959 N 329.616 1.39756 -0.72842 0
M  V30 2960 C 330.862 2.00942 -0.273892 0
M  V30 2961 C 331.195 1.57656 1.13394 0
M  V30 2962 O 330.47 0.802434 1.77176 0
M  V30 2963 C 330.753 3.58211 -0.368346 0
M  V30 2964 C 330.606 4.11534 -1.81548 0
M  V30 2965 C 331.925 4.39372 0.253054 0
M  V30 2966 H 329.044 0.730047 -0.100996 0
M  V30 2967 H 331.686 1.66056 -0.923337 0
M  V30 2968 H 329.836 3.88061 0.184588 0
M  V30 2969 H 331.508 3.92431 -2.42478 0
M  V30 2970 H 329.751 3.65341 -2.33898 0
M  V30 2971 H 330.422 5.20682 -1.83288 0
M  V30 2972 H 332.898 4.15527 -0.218224 0
M  V30 2973 H 331.774 5.48677 0.156585 0
M  V30 2974 H 332.035 4.21358 1.33826 0
M  V30 2975 N 331.094 0.475555 1.50254 0
M  V30 2976 C 332.057 -0.305016 2.27161 0
M  V30 2977 C 333.057 -0.916519 1.32123 0
M  V30 2978 O 334.247 -0.785003 1.5551 0
M  V30 2979 C 331.379 -1.43496 3.09227 0
M  V30 2980 H 332.572 0.369511 2.97615 0
M  V30 2981 H 330.125 0.229747 1.54602 0
M  V30 2982 H 330.86 -2.14441 2.43281 0
M  V30 2983 H 330.645 -1.00223 3.79075 0
M  V30 2984 H 332.135 -1.98548 3.67381 0
M  V30 2985 N 332.573 -1.56217 0.208337 0
M  V30 2986 C 333.798 -2.02782 -0.435222 0
M  V30 2987 C 334.223 -1.08738 -1.53485 0
M  V30 2988 O 333.581 -0.0731855 -1.81152 0
M  V30 2989 C 333.629 -3.47687 -0.956335 0
M  V30 2990 O 332.733 -3.56773 -2.06849 0
M  V30 2991 H 332.074 -0.656403 -0.100158 0
M  V30 2992 H 334.604 -2.02033 0.3231 0
M  V30 2993 H 334.614 -3.87745 -1.26955 0
M  V30 2994 H 333.289 -4.15624 -0.15143 0
M  V30 2995 H 331.866 -3.28597 -1.76292 0
M  V30 2996 N 334.051 0.0651679 -1.57465 0
M  V30 2997 C 334.981 1.07693 -2.07182 0
M  V30 2998 C 335.962 1.39962 -0.966673 0
M  V30 2999 O 337.147 1.49475 -1.2398 0
M  V30 3000 C 334.277 2.3885 -2.52127 0
M  V30 3001 C 333.231 2.20917 -3.66579 0
M  V30 3002 C 332.557 3.57515 -3.97601 0
M  V30 3003 C 333.857 1.62493 -4.9638 0
M  V30 3004 H 335.551 0.663199 -2.91962 0
M  V30 3005 H 333.097 0.317569 -1.40455 0
M  V30 3006 H 335.05 3.09928 -2.85522 0
M  V30 3007 H 333.774 2.82215 -1.64384 0
M  V30 3008 H 332.433 1.52279 -3.33477 0
M  V30 3009 H 332.081 3.98463 -3.06979 0
M  V30 3010 H 331.781 3.46353 -4.74672 0
M  V30 3011 H 333.305 4.30013 -4.33499 0
M  V30 3012 H 334.719 2.23445 -5.27963 0
M  V30 3013 H 333.116 1.62009 -5.77818 0
M  V30 3014 H 334.186 0.587041 -4.81333 0
M  V30 3015 N 335.529 1.53961 0.336706 0
M  V30 3016 C 336.945 1.44378 0.680241 0
M  V30 3017 C 337.145 0.606034 1.9217 0
M  V30 3018 O 336.201 0.099688 2.52303 0
M  V30 3019 C 337.514 2.87945 0.8665 0
M  V30 3020 C 339.062 2.97763 0.964682 0
M  V30 3021 C 339.537 4.42453 1.18321 0
M  V30 3022 N 341.028 4.46008 1.25025 0
M  V30 3023 C 341.763 5.55102 1.43697 0
M  V30 3024 N 341.259 6.7419 1.59498 0
M  V30 3025 N 343.052 5.42727 1.463 0
M  V30 3026 H 335.203 2.06918 -0.479455 0
M  V30 3027 H 337.466 0.935634 -0.152619 0
M  V30 3028 H 337.172 3.51691 0.0256937 0
M  V30 3029 H 337.046 3.33293 1.76623 0
M  V30 3030 H 339.433 2.34153 1.796 0
M  V30 3031 H 339.514 2.55766 0.041708 0
M  V30 3032 H 339.158 5.06645 0.356788 0
M  V30 3033 H 339.088 4.82048 2.11985 0
M  V30 3034 H 341.579 3.60196 1.14312 0
M  V30 3035 H 341.892 7.53095 1.734 0
M  V30 3036 H 340.237 6.77123 1.56621 0
M  V30 3037 H 343.428 4.48647 1.33543 0
M  V30 3038 H 343.601 6.27806 1.6051 0
M  V30 3039 N 337.007 -0.598083 1.45811 0
M  V30 3040 C 337.939 -1.72231 1.51225 0
M  V30 3041 C 338.952 -1.57757 0.402059 0
M  V30 3042 O 340.141 -1.65464 0.669624 0
M  V30 3043 C 337.241 -3.10331 1.3619 0
M  V30 3044 C 336.414 -3.50955 2.61054 0
M  V30 3045 C 335.473 -4.68055 2.40439 0
M  V30 3046 O 334.499 -4.74691 3.14097 0
M  V30 3047 N 335.701 -5.61941 1.45612 0
M  V30 3048 H 338.466 -1.68046 2.48154 0
M  V30 3049 H 336.027 -0.783637 1.41671 0
M  V30 3050 H 338.019 -3.86439 1.20195 0
M  V30 3051 H 336.589 -3.0897 0.475015 0
M  V30 3052 H 335.809 -2.64711 2.92099 0
M  V30 3053 H 337.097 -3.74858 3.44034 0
M  V30 3054 H 336.495 -5.59301 0.848431 0
M  V30 3055 H 335.052 -6.37542 1.35585 0
M  V30 3056 N 338.485 -1.33259 -0.841409 0
M  V30 3057 C 339.417 -1.19136 -1.95804 0
M  V30 3058 C 340.43 -0.122965 -1.62335 0
M  V30 3059 O 341.619 -0.373154 -1.74556 0
M  V30 3060 C 338.719 -0.804268 -3.29218 0
M  V30 3061 C 337.892 -1.96376 -3.90839 0
M  V30 3062 C 336.951 -1.55806 -5.02604 0
M  V30 3063 O 335.977 -2.27203 -5.21888 0
M  V30 3064 N 337.179 -0.461609 -5.78662 0
M  V30 3065 H 339.944 -2.15326 -2.08458 0
M  V30 3066 H 337.505 -1.25971 -1.017 0
M  V30 3067 H 339.497 -0.51501 -4.0141 0
M  V30 3068 H 338.067 0.0668809 -3.12528 0
M  V30 3069 H 337.287 -2.41879 -3.11269 0
M  V30 3070 H 338.575 -2.73966 -4.28742 0
M  V30 3071 H 337.973 0.132343 -5.65545 0
M  V30 3072 H 336.53 -0.232013 -6.51387 0
M  V30 3073 N 339.963 1.05934 -1.16686 0
M  V30 3074 C 341.209 1.79065 -0.95203 0
M  V30 3075 C 341.542 1.87147 0.518629 0
M  V30 3076 O 340.817 1.36574 1.38484 0
M  V30 3077 C 341.1 3.23359 -1.58464 0
M  V30 3078 C 340.953 3.23336 -3.12689 0
M  V30 3079 C 342.272 4.21004 -1.28232 0
M  V30 3080 H 339.391 0.65005 -0.34728 0
M  V30 3081 H 342.033 1.23868 -1.44072 0
M  V30 3082 H 340.183 3.70493 -1.16908 0
M  V30 3083 H 341.855 2.84336 -3.6325 0
M  V30 3084 H 340.098 2.61886 -3.4583 0
M  V30 3085 H 340.769 4.25144 -3.52075 0
M  V30 3086 H 343.245 3.8233 -1.64203 0
M  V30 3087 H 342.121 5.20225 -1.75092 0
M  V30 3088 H 342.382 4.41639 -0.201791 0
M  V30 3089 N 341.441 0.965919 1.2453 0
M  V30 3090 C 342.351 0.502154 2.29163 0
M  V30 3091 C 343.367 -0.436017 1.68448 0
M  V30 3092 O 344.543 -0.309497 1.99008 0
M  V30 3093 C 341.608 -0.201956 3.46111 0
M  V30 3094 C 340.669 0.775821 4.22232 0
M  V30 3095 C 339.902 0.105217 5.33596 0
M  V30 3096 O 340.125 -1.10683 5.59558 0
M  V30 3097 O 339.059 0.796475 5.96607 0
M  V30 3098 H 342.885 1.37194 2.70946 0
M  V30 3099 H 340.47 0.732875 1.30189 0
M  V30 3100 H 342.352 -0.597564 4.17142 0
M  V30 3101 H 341.027 -1.04673 3.06309 0
M  V30 3102 H 339.934 1.22185 3.53584 0
M  V30 3103 H 341.267 1.58896 4.65846 0
M  V30 3104 N 342.919 -1.39368 0.735821 0
M  V30 3105 C 343.882 -2.2896 0.104874 0
M  V30 3106 C 344.882 -1.46347 -0.666274 0
M  V30 3107 O 346.072 -1.67014 -0.49517 0
M  V30 3108 C 343.204 -3.29857 -0.860656 0
M  V30 3109 H 344.397 -2.86259 0.894205 0
M  V30 3110 H 341.95 -1.48029 0.501704 0
M  V30 3111 H 342.685 -2.77615 -1.67631 0
M  V30 3112 H 342.47 -3.9087 -0.310327 0
M  V30 3113 H 343.96 -3.96893 -1.29867 0
M  V30 3114 N 344.397 -0.483516 -1.5 0
M  V30 3115 C 345.327 0.293829 -2.31644 0
M  V30 3116 C 346.308 0.978864 -1.39112 0
M  V30 3117 O 347.493 0.973644 -1.68029 0
M  V30 3118 C 344.623 1.36897 -3.19181 0
M  V30 3119 C 343.577 0.804833 -4.20365 0
M  V30 3120 C 342.903 1.9792 -4.96721 0
M  V30 3121 C 344.203 -0.192313 -5.21946 0
M  V30 3122 H 345.897 -0.387616 -2.9688 0
M  V30 3123 H 343.443 -0.187856 -1.42769 0
M  V30 3124 H 345.396 1.92037 -3.751 0
M  V30 3125 H 344.12 2.07936 -2.51853 0
M  V30 3126 H 342.779 0.275319 -3.65565 0
M  V30 3127 H 342.427 2.67686 -4.25856 0
M  V30 3128 H 342.127 1.60789 -5.65173 0
M  V30 3129 H 343.651 2.53526 -5.55479 0
M  V30 3130 H 345.065 0.270333 -5.72662 0
M  V30 3131 H 343.462 -0.478543 -5.98189 0
M  V30 3132 H 344.532 -1.11409 -4.71928 0
M  V30 3133 N 345.875 1.56104 -0.216619 0
M  V30 3134 C 346.807 2.17339 0.72776 0
M  V30 3135 C 347.82 1.14109 1.16116 0
M  V30 3136 O 349.009 1.4111 1.09317 0
M  V30 3137 C 346.109 2.73818 1.99693 0
M  V30 3138 C 345.282 4.02168 1.71988 0
M  V30 3139 C 344.341 4.43259 2.83562 0
M  V30 3140 O 343.367 5.10257 2.52244 0
M  V30 3141 N 344.569 4.08535 4.12407 0
M  V30 3142 H 347.334 2.99005 0.203983 0
M  V30 3143 H 344.895 1.61861 -0.0354289 0
M  V30 3144 H 346.887 2.9828 2.73516 0
M  V30 3145 H 345.457 1.96483 2.43132 0
M  V30 3146 H 344.677 3.85612 0.818337 0
M  V30 3147 H 345.965 4.85907 1.50903 0
M  V30 3148 H 345.363 3.54687 4.40696 0
M  V30 3149 H 343.92 4.37901 4.8279 0
M  V30 3150 N 347.353 -0.0568162 1.57498 0
M  V30 3151 C 348.601 -0.751617 1.87604 0
M  V30 3152 C 348.922 -1.77351 0.81066 0
M  V30 3153 O 348.192 -1.95254 -0.159018 0
M  V30 3154 H 346.772 -0.280583 0.692302 0
M  V30 3155 H 349.434 -0.0293483 1.94878 0
M  V30 3156 H 348.53 -1.25852 2.856 0
M  V30 3157 N 348.832 -1.54138 -0.328536 0
M  V30 3158 C 349.764 -1.79509 -1.4251 0
M  V30 3159 C 350.777 -0.67688 -1.48061 0
M  V30 3160 O 351.966 -0.953898 -1.50874 0
M  V30 3161 C 349.066 -1.89337 -2.81078 0
M  V30 3162 C 348.239 -3.19443 -2.98789 0
M  V30 3163 C 347.298 -3.20036 -4.17688 0
M  V30 3164 O 346.324 -3.93697 -4.11086 0
M  V30 3165 N 347.526 -2.43467 -5.26976 0
M  V30 3166 H 350.291 -2.74139 -1.21111 0
M  V30 3167 H 347.852 -1.53373 -0.518499 0
M  V30 3168 H 349.844 -1.87167 -3.58818 0
M  V30 3169 H 348.414 -1.01826 -2.95551 0
M  V30 3170 H 347.634 -3.34614 -2.08391 0
M  V30 3171 H 348.922 -4.05354 -3.07515 0
M  V30 3172 H 348.32 -1.83201 -5.35214 0
M  V30 3173 H 346.877 -2.4708 -6.03154 0
M  V30 3174 N 350.31 0.590341 -1.46126 0
M  V30 3175 C 351.556 1.35082 -1.51264 0
M  V30 3176 C 351.889 1.93534 -0.160711 0
M  V30 3177 O 351.164 1.76045 0.826956 0
M  V30 3178 C 351.447 2.48588 -2.6053 0
M  V30 3179 C 351.3 1.95221 -4.05227 0
M  V30 3180 C 352.619 3.50662 -2.6594 0
M  V30 3181 H 349.738 0.489803 -0.550692 0
M  V30 3182 H 352.38 0.663887 -1.78024 0
M  V30 3183 H 350.53 3.07186 -2.37843 0
M  V30 3184 H 352.202 1.41139 -4.39178 0
M  V30 3185 H 350.445 1.26101 -4.15068 0
M  V30 3186 H 351.116 2.77121 -4.77397 0
M  V30 3187 H 353.592 3.01934 -2.86313 0
M  V30 3188 H 352.468 4.27551 -3.44226 0
M  V30 3189 H 352.729 4.07399 -1.71694 0
M  V30 3190 N 351.788 1.33704 0.83433 0
M  V30 3191 C 352.72 1.20172 1.9517 0
M  V30 3192 C 353.733 0.131572 1.62267 0
M  V30 3193 O 354.922 0.382406 1.74356 0
M  V30 3194 C 352.022 0.821716 3.28787 0
M  V30 3195 C 351.195 1.98446 3.89792 0
M  V30 3196 C 350.254 1.58469 5.01771 0
M  V30 3197 O 349.28 2.29968 5.20676 0
M  V30 3198 N 350.482 0.492291 5.78409 0
M  V30 3199 H 353.247 2.16429 2.07313 0
M  V30 3200 H 350.808 1.26509 1.0103 0
M  V30 3201 H 352.8 0.536291 4.01131 0
M  V30 3202 H 351.37 -0.0503058 3.1256 0
M  V30 3203 H 350.59 2.43526 3.09982 0
M  V30 3204 H 351.878 2.76236 4.27283 0
M  V30 3205 H 351.276 -0.102349 5.65607 0
M  V30 3206 H 349.833 0.266555 6.51255 0
M  V30 3207 N 353.266 -1.05314 1.17247 0
M  V30 3208 C 354.216 -2.11313 0.856196 0
M  V30 3209 C 355.2 -1.60013 -0.168694 0
M  V30 3210 O 356.392 -1.76968 0.0335624 0
M  V30 3211 C 353.521 -3.41301 0.369917 0
M  V30 3212 C 352.607 -3.99401 1.42616 0
M  V30 3213 N 352.998 -4.31481 2.63928 0
M  V30 3214 C 351.296 -4.27126 1.28373 0
M  V30 3215 C 351.997 -4.77799 3.31787 0
M  V30 3216 N 350.973 -4.77843 2.59166 0
M  V30 3217 H 354.775 -2.33976 1.77856 0
M  V30 3218 H 352.289 -1.2295 1.06099 0
M  V30 3219 H 354.286 -4.16713 0.124897 0
M  V30 3220 H 352.946 -3.20072 -0.546253 0
M  V30 3221 H 353.957 -4.21519 3.00902 0
M  V30 3222 H 350.634 -4.15289 0.429111 0
M  V30 3223 H 352.024 -5.11743 4.35395 0
M  V30 3224 N 354.744 -0.972509 -1.24016 0
M  V30 3225 C 355.674 -0.525548 -2.27509 0
M  V30 3226 C 356.655 0.437262 -1.64384 0
M  V30 3227 O 357.84 0.332343 -1.91335 0
M  V30 3228 C 354.97 0.180448 -3.46831 0
M  V30 3229 C 353.924 -0.698859 -4.22256 0
M  V30 3230 C 353.25 0.138903 -5.3452 0
M  V30 3231 C 354.55 -1.98582 -4.83076 0
M  V30 3232 H 356.244 -1.39058 -2.65148 0
M  V30 3233 H 353.79 -0.67009 -1.27459 0
M  V30 3234 H 355.743 0.504387 -4.18371 0
M  V30 3235 H 354.467 1.07987 -3.08231 0
M  V30 3236 H 353.126 -1.00614 -3.52523 0
M  V30 3237 H 352.774 1.03862 -4.9216 0
M  V30 3238 H 352.474 -0.446259 -5.85903 0
M  V30 3239 H 353.998 0.457404 -6.08884 0
M  V30 3240 H 355.412 -1.72715 -5.46665 0
M  V30 3241 H 353.809 -2.5181 -5.44713 0
M  V30 3242 H 354.879 -2.67769 -4.04262 0
M  V30 3243 N 356.222 1.38976 -0.743202 0
M  V30 3244 C 357.154 2.29096 -0.0689228 0
M  V30 3245 C 358.167 1.47229 0.694791 0
M  V30 3246 O 359.356 1.70212 0.537597 0
M  V30 3247 C 356.456 3.25988 0.926548 0
M  V30 3248 C 355.629 4.36833 0.222647 0
M  V30 3249 C 354.688 5.13981 1.12739 0
M  V30 3250 O 353.714 5.6601 0.601795 0
M  V30 3251 N 354.916 5.25966 2.45641 0
M  V30 3252 H 357.681 2.87604 -0.842846 0
M  V30 3253 H 355.242 1.50645 -0.593109 0
M  V30 3254 H 357.234 3.74476 1.5346 0
M  V30 3255 H 355.804 2.68453 1.60162 0
M  V30 3256 H 355.024 3.90116 -0.565983 0
M  V30 3257 H 356.312 5.0811 -0.264841 0
M  V30 3258 H 355.71 4.85228 2.9081 0
M  V30 3259 H 354.267 5.77865 3.01522 0
M  V30 3260 N 357.7 0.491464 1.49741 0
M  V30 3261 C 358.663 -0.280906 2.27472 0
M  V30 3262 C 359.663 -0.902454 1.33088 0
M  V30 3263 O 360.853 -0.768465 1.56334 0
M  V30 3264 C 357.985 -1.40209 3.10732 0
M  V30 3265 H 359.178 0.401056 2.97206 0
M  V30 3266 H 356.731 0.246131 1.5435 0
M  V30 3267 H 357.466 -2.11849 2.45541 0
M  V30 3268 H 357.251 -0.961969 3.80117 0
M  V30 3269 H 358.741 -1.9464 3.69466 0
M  V30 3270 N 359.178 -1.55987 0.224894 0
M  V30 3271 C 360.141 -2.19178 -0.670348 0
M  V30 3272 C 361.141 -1.15461 -1.11917 0
M  V30 3273 O 362.331 -1.40675 -1.02743 0
M  V30 3274 C 359.463 -2.81777 -1.9187 0
M  V30 3275 H 360.656 -2.99662 -0.119364 0
M  V30 3276 H 358.209 -1.5628 -0.0247128 0
M  V30 3277 H 358.944 -2.05172 -2.51147 0
M  V30 3278 H 358.729 -3.57732 -1.60531 0
M  V30 3279 H 360.219 -3.30205 -2.55645 0
M  V30 3280 N 360.656 0.0484629 -1.57525 0
M  V30 3281 C 361.903 0.743125 -1.88372 0
M  V30 3282 C 362.231 1.76383 -0.819715 0
M  V30 3283 O 361.486 1.94855 0.181659 0
M  V30 3284 C 361.785 1.46632 -3.25935 0
M  V30 3285 C 361.451 0.583427 -4.4711 0
M  V30 3286 C 360.113 0.340191 -4.79996 0
M  V30 3287 C 362.465 -0.0273345 -5.21193 0
M  V30 3288 C 359.793 -0.522903 -5.84365 0
M  V30 3289 C 362.145 -0.878017 -6.26477 0
M  V30 3290 C 360.809 -1.1309 -6.5785 0
M  V30 3291 H 360.079 0.271929 -0.689301 0
M  V30 3292 H 362.726 0.00336166 -1.915 0
M  V30 3293 H 361.031 2.2789 -3.18706 0
M  V30 3294 H 362.728 2.00902 -3.47044 0
M  V30 3295 H 359.318 0.783151 -4.21384 0
M  V30 3296 H 363.502 0.147654 -4.9608 0
M  V30 3297 H 358.758 -0.727335 -6.07058 0
M  V30 3298 H 362.932 -1.35789 -6.83033 0
M  V30 3299 H 360.559 -1.80144 -7.38547 0
M  V30 3300 N 362.134 1.5431 0.320358 0
M  V30 3301 C 363.359 1.76954 1.08175 0
M  V30 3302 C 363.784 0.518193 1.80821 0
M  V30 3303 O 363.142 -0.530411 1.73368 0
M  V30 3304 C 363.19 2.96451 2.05303 0
M  V30 3305 O 362.294 2.68221 3.13259 0
M  V30 3306 H 361.635 0.586275 0.311733 0
M  V30 3307 H 364.165 2.01342 0.363676 0
M  V30 3308 H 364.175 3.23887 2.48116 0
M  V30 3309 H 362.85 3.87196 1.51829 0
M  V30 3310 H 361.427 2.51744 2.75099 0
M  V30 3311 N 363.613 -0.582584 1.46437 0
M  V30 3312 C 364.545 -1.70618 1.53043 0
M  V30 3313 C 365.558 -1.57322 0.418769 0
M  V30 3314 O 366.747 -1.64744 0.687136 0
M  V30 3315 C 363.847 -3.08869 1.39474 0
M  V30 3316 C 363.02 -3.48166 2.64762 0
M  V30 3317 C 362.079 -4.65478 2.4539 0
M  V30 3318 O 361.105 -4.71333 3.19114 0
M  V30 3319 N 362.307 -5.60365 1.51564 0
M  V30 3320 H 365.072 -1.65405 2.49923 0
M  V30 3321 H 362.633 -0.768567 1.42494 0
M  V30 3322 H 364.625 -3.85143 1.24287 0
M  V30 3323 H 363.195 -3.08449 0.507758 0
M  V30 3324 H 362.415 -2.61598 2.9489 0
M  V30 3325 H 363.703 -3.71188 3.4799 0
M  V30 3326 H 363.101 -5.5837 0.907705 0
M  V30 3327 H 361.658 -6.36068 1.4234 0
M  V30 3328 N 365.091 -1.34144 -0.827227 0
M  V30 3329 C 366.321 -1.29138 -1.61267 0
M  V30 3330 C 366.729 0.137597 -1.88699 0
M  V30 3331 O 366.072 1.09379 -1.47587 0
M  V30 3332 C 366.134 -2.0097 -2.9808 0
M  V30 3333 C 365.798 -3.50242 -2.93563 0
M  V30 3334 C 366.795 -4.4523 -2.68452 0
M  V30 3335 C 364.48 -3.92592 -3.13331 0
M  V30 3336 C 366.474 -5.80542 -2.63154 0
M  V30 3337 C 364.161 -5.28005 -3.07658 0
M  V30 3338 C 365.159 -6.21792 -2.82602 0
M  V30 3339 O 364.847 -7.54723 -2.76853 0
M  V30 3340 H 364.579 -0.445851 -0.508127 0
M  V30 3341 H 367.133 -1.77263 -1.03763 0
M  V30 3342 H 365.363 -1.47451 -3.57484 0
M  V30 3343 H 367.052 -1.89309 -3.5905 0
M  V30 3344 H 367.818 -4.13832 -2.52919 0
M  V30 3345 H 363.697 -3.19994 -3.31851 0
M  V30 3346 H 367.241 -6.53717 -2.43516 0
M  V30 3347 H 363.138 -5.59023 -3.22743 0
M  V30 3348 H 363.906 -7.64409 -2.92611 0
M  V30 3349 N 366.569 1.04691 -1.17803 0
M  V30 3350 C 367.516 2.12557 -0.899343 0
M  V30 3351 C 368.486 1.65339 0.158771 0
M  V30 3352 O 369.671 1.90789 0.0204797 0
M  V30 3353 C 366.811 3.42481 -0.424315 0
M  V30 3354 C 365.924 4.03346 -1.54713 0
M  V30 3355 C 365.059 5.21208 -1.02546 0
M  V30 3356 C 364.098 5.74089 -2.12339 0
M  V30 3357 N 363.235 6.83247 -1.61612 0
M  V30 3358 H 368.075 2.35734 -1.823 0
M  V30 3359 H 365.612 1.1564 -0.909159 0
M  V30 3360 H 367.57 4.16996 -0.130421 0
M  V30 3361 H 366.2 3.19471 0.462377 0
M  V30 3362 H 365.252 3.2622 -1.95664 0
M  V30 3363 H 366.564 4.38628 -2.37501 0
M  V30 3364 H 365.718 6.02812 -0.685718 0
M  V30 3365 H 364.457 4.87414 -0.167084 0
M  V30 3366 H 363.462 4.91111 -2.47165 0
M  V30 3367 H 364.687 6.0993 -2.98601 0
M  V30 3368 H 362.633 6.5134 -0.780533 0
M  V30 3369 H 362.55 7.17559 -2.38003 0
M  V30 3370 H 363.818 7.68491 -1.30545 0
M  V30 3371 N 368.047 0.979072 1.23499 0
M  V30 3372 C 368.994 0.517904 2.24914 0
M  V30 3373 C 369.964 -0.442525 1.60097 0
M  V30 3374 O 371.149 -0.350365 1.87556 0
M  V30 3375 C 368.289 -0.174813 3.44657 0
M  V30 3376 C 367.402 0.825721 4.24035 0
M  V30 3377 C 366.537 0.107946 5.3109 0
M  V30 3378 C 365.576 1.09778 6.02175 0
M  V30 3379 N 364.713 0.40925 7.00906 0
M  V30 3380 H 369.553 1.38751 2.63727 0
M  V30 3381 H 367.09 0.695303 1.2963 0
M  V30 3382 H 369.048 -0.593233 4.12961 0
M  V30 3383 H 367.678 -1.0083 3.06648 0
M  V30 3384 H 366.73 1.36253 3.55161 0
M  V30 3385 H 368.042 1.58005 4.73113 0
M  V30 3386 H 367.196 -0.367904 6.05583 0
M  V30 3387 H 365.935 -0.678994 4.8295 0
M  V30 3388 H 364.94 1.5844 5.26476 0
M  V30 3389 H 366.165 1.88536 6.52404 0
M  V30 3390 H 364.111 -0.358506 6.5502 0
M  V30 3391 H 364.028 1.10226 7.47921 0
M  V30 3392 H 365.296 -0.0442557 7.79487 0
M  V30 3393 N 369.525 -1.3858 0.750561 0
M  V30 3394 C 370.771 -2.00481 0.305825 0
M  V30 3395 C 371.104 -1.5944 -1.10872 0
M  V30 3396 O 370.379 -0.83052 -1.75877 0
M  V30 3397 C 370.662 -3.5758 0.425287 0
M  V30 3398 C 370.515 -4.08594 1.88072 0
M  V30 3399 C 371.834 -4.39719 -0.183122 0
M  V30 3400 H 368.953 -0.728348 0.112598 0
M  V30 3401 H 371.595 -1.64566 0.949638 0
M  V30 3402 H 369.745 -3.88306 -0.122828 0
M  V30 3403 H 371.417 -3.88523 2.48691 0
M  V30 3404 H 369.66 -3.61574 2.39681 0
M  V30 3405 H 370.331 -5.177 1.91548 0
M  V30 3406 H 372.807 -4.15128 0.284303 0
M  V30 3407 H 371.683 -5.48856 -0.0692757 0
M  V30 3408 H 371.944 -4.23434 -1.27106 0
M  V30 3409 N 371.003 -0.499398 -1.49478 0
M  V30 3410 C 371.913 0.284489 -2.32869 0
M  V30 3411 C 372.929 0.968885 -1.44529 0
M  V30 3412 O 374.105 0.95062 -1.77553 0
M  V30 3413 C 371.17 1.33594 -3.19928 0
M  V30 3414 C 370.231 0.665149 -4.24116 0
M  V30 3415 C 369.464 1.6665 -5.07014 0
M  V30 3416 O 369.687 2.89618 -4.91404 0
M  V30 3417 O 368.621 1.22271 -5.8935 0
M  V30 3418 H 372.447 -0.39802 -3.01081 0
M  V30 3419 H 370.032 -0.260758 -1.47107 0
M  V30 3420 H 371.914 1.94431 -3.73864 0
M  V30 3421 H 370.589 2.0014 -2.54412 0
M  V30 3422 H 369.496 0.0170769 -3.74096 0
M  V30 3423 H 370.829 0.0421555 -4.92182 0
M  V30 3424 N 372.481 1.55866 -0.233164 0
M  V30 3425 C 373.411 2.23783 0.666599 0
M  V30 3426 C 374.392 1.21343 1.19205 0
M  V30 3427 O 375.577 1.4996 1.23392 0
M  V30 3428 C 372.707 2.92671 1.86978 0
M  V30 3429 C 371.661 4.01682 1.47768 0
M  V30 3430 C 370.987 4.57926 2.76058 0
M  V30 3431 C 372.287 5.18126 0.658993 0
M  V30 3432 H 373.981 2.99232 0.100306 0
M  V30 3433 H 371.527 1.43924 0.046804 0
M  V30 3434 H 373.48 3.3888 2.50476 0
M  V30 3435 H 372.204 2.14688 2.46123 0
M  V30 3436 H 370.863 3.56222 0.866106 0
M  V30 3437 H 370.511 3.76659 3.33372 0
M  V30 3438 H 370.211 5.31505 2.50552 0
M  V30 3439 H 371.735 5.06859 3.40479 0
M  V30 3440 H 373.149 5.60644 1.19795 0
M  V30 3441 H 371.546 5.98009 0.500552 0
M  V30 3442 H 372.616 4.83763 -0.331856 0
M  V30 3443 N 373.959 -0.0401083 1.57549 0
M  V30 3444 C 375.206 -0.733125 1.88763 0
M  V30 3445 C 375.534 -1.75946 0.829058 0
M  V30 3446 O 374.789 -1.94949 -0.171323 0
M  V30 3447 C 375.088 -1.44902 3.26708 0
M  V30 3448 C 374.754 -0.559707 4.47413 0
M  V30 3449 C 373.416 -0.314731 4.8017 0
M  V30 3450 C 375.768 0.0549743 5.21171 0
M  V30 3451 C 373.096 0.553886 5.8408 0
M  V30 3452 C 375.448 0.911229 6.26003 0
M  V30 3453 C 374.112 1.16577 6.57241 0
M  V30 3454 H 373.382 -0.268269 0.690733 0
M  V30 3455 H 376.029 0.00679408 1.91499 0
M  V30 3456 H 374.334 -2.26197 3.1991 0
M  V30 3457 H 376.031 -1.99058 3.48105 0
M  V30 3458 H 372.621 -0.760793 4.21794 0
M  V30 3459 H 376.805 -0.121344 4.96152 0
M  V30 3460 H 372.061 0.759518 6.06664 0
M  V30 3461 H 376.235 1.3941 6.82303 0
M  V30 3462 H 373.862 1.84058 7.37582 0
M  V30 3463 N 375.437 -1.54477 -0.31217 0
M  V30 3464 C 376.848 -1.64344 -0.885891 0
M  V30 3465 C 377.199 -0.54485 -1.88483 0
M  V30 3466 O 376.324 0.320387 -2.14015 0
M  V30 3467 C 376.919 -2.97908 -1.61357 0
M  V30 3468 C 375.478 -3.09933 -2.13585 0
M  V30 3469 C 374.625 -2.59971 -0.964897 0
M  V30 3470 H 377.576 -1.58448 -0.0894528 0
M  V30 3471 H 377.597 -2.88706 -2.47848 0
M  V30 3472 H 377.109 -3.77845 -0.886277 0
M  V30 3473 H 375.21 -2.34694 -2.89395 0
M  V30 3474 H 375.323 -4.15916 -2.37804 0
M  V30 3475 H 373.687 -2.16147 -1.34731 0
M  V30 3476 H 374.47 -3.42376 -0.251742 0
M  V30 3477 N 376.915 0.57481 -1.46744 0
M  V30 3478 C 377.863 1.70435 -1.58286 0
M  V30 3479 C 378.857 1.63287 -0.450956 0
M  V30 3480 O 380.063 1.68685 -0.628121 0
M  V30 3481 H 376.438 0.56364 -0.497809 0
M  V30 3482 H 378.409 1.57833 -2.53242 0
M  V30 3483 C 377.158 3.08815 -1.59776 0
M  V30 3484 H 376.481 3.1499 -2.46214 0
M  V30 3485 H 377.921 3.87588 -1.71905 0
M  V30 3486 C 376.38 3.35301 -0.327812 0
M  V30 3487 O 376.91 3.97511 0.57861 0
M  V30 3488 N 375.116 2.89816 -0.213274 0
M  V30 3489 H 374.663 2.39371 -0.951798 0
M  V30 3490 H 374.621 3.0791 0.63553 0
M  V30 3491 N 378.394 1.34581 0.820102 0
M  V30 3492 C 379.642 1.26845 1.57336 0
M  V30 3493 C 379.963 -0.160667 1.94337 0
M  V30 3494 O 379.233 -1.09396 1.6251 0
M  V30 3495 H 377.813 0.466514 0.583415 0
M  V30 3496 H 380.475 1.68526 0.979027 0
M  V30 3497 H 379.571 1.87513 2.4949 0
M  V30 3498 N 379.872 -1.04064 1.18357 0
M  V30 3499 C 380.804 -2.12114 0.868358 0
M  V30 3500 C 381.817 -1.62247 -0.134045 0
M  V30 3501 O 383.006 -1.78253 0.0937933 0
M  V30 3502 C 380.106 -3.37773 0.276132 0
M  V30 3503 C 379.279 -4.16874 1.3242 0
M  V30 3504 C 378.338 -5.20861 0.747662 0
M  V30 3505 O 377.364 -5.51141 1.42239 0
M  V30 3506 N 378.566 -5.78715 -0.454823 0
M  V30 3507 H 381.331 -2.39748 1.79836 0
M  V30 3508 H 378.892 -1.20258 1.08396 0
M  V30 3509 H 380.884 -4.04513 -0.123133 0
M  V30 3510 H 379.454 -3.07581 -0.557895 0
M  V30 3511 H 378.674 -3.45456 1.89878 0
M  V30 3512 H 379.962 -4.66516 2.03078 0
M  V30 3513 H 379.36 -5.56415 -1.02073 0
M  V30 3514 H 377.917 -6.46921 -0.79601 0
M  V30 3515 N 381.35 -0.985608 -1.22978 0
M  V30 3516 C 382.575 -0.675254 -1.961 0
M  V30 3517 C 383 0.752154 -1.72407 0
M  V30 3518 O 382.358 1.5131 -0.998751 0
M  V30 3519 C 382.406 -0.977899 -3.47087 0
M  V30 3520 O 381.51 -0.072685 -4.12336 0
M  V30 3521 H 380.851 -0.253443 -0.613728 0
M  V30 3522 H 383.381 -1.32061 -1.56272 0
M  V30 3523 H 383.391 -0.916739 -3.97567 0
M  V30 3524 H 382.066 -2.01807 -3.63657 0
M  V30 3525 H 380.643 -0.188703 -3.72422 0
M  V30 3526 N 382.828 1.3818 -0.7579 0
M  V30 3527 C 384.074 2.00316 -0.316453 0
M  V30 3528 C 384.407 1.60026 1.10025 0
M  V30 3529 O 383.682 0.839835 1.75434 0
M  V30 3530 C 383.965 3.57349 -0.444245 0
M  V30 3531 C 383.818 4.07591 -1.90236 0
M  V30 3532 C 385.137 4.3981 0.1598 0
M  V30 3533 H 382.256 0.727741 -0.116459 0
M  V30 3534 H 384.898 1.6406 -0.958352 0
M  V30 3535 H 383.048 3.88365 0.102233 0
M  V30 3536 H 384.72 3.87199 -2.50748 0
M  V30 3537 H 382.963 3.60297 -2.41595 0
M  V30 3538 H 383.634 5.16677 -1.94291 0
M  V30 3539 H 386.11 4.14971 -0.306314 0
M  V30 3540 H 384.986 5.48885 0.0401675 0
M  V30 3541 H 385.247 4.24102 1.24859 0
M  V30 3542 N 384.306 0.507319 1.49211 0
M  V30 3543 C 385.554 -0.0348839 2.0207 0
M  V30 3544 C 385.875 -1.36898 1.38866 0
M  V30 3545 O 385.145 -1.88133 0.546151 0
M  V30 3546 H 383.725 -0.0158812 0.746831 0
M  V30 3547 H 386.387 0.665998 1.83168 0
M  V30 3548 H 385.483 -0.159917 3.1169 0
M  V30 3549 N 385.784 -1.5574 0.241426 0
M  V30 3550 C 386.694 -2.2479 -0.671305 0
M  V30 3551 C 387.71 -1.26217 -1.19772 0
M  V30 3552 O 388.886 -1.59079 -1.23514 0
M  V30 3553 C 385.951 -2.92966 -1.85396 0
M  V30 3554 C 385.012 -4.06935 -1.36756 0
M  V30 3555 C 384.245 -4.71851 -2.49384 0
M  V30 3556 O 384.468 -4.35823 -3.67987 0
M  V30 3557 O 383.402 -5.60467 -2.19454 0
M  V30 3558 H 387.228 -3.0349 -0.112966 0
M  V30 3559 H 384.813 -1.49397 0.0101513 0
M  V30 3560 H 386.695 -3.35927 -2.54423 0
M  V30 3561 H 385.37 -2.17211 -2.40002 0
M  V30 3562 H 384.277 -3.68503 -0.644726 0
M  V30 3563 H 385.61 -4.84492 -0.867647 0
M  V30 3564 N 387.262 0.0317525 -1.57568 0
M  V30 3565 C 388.209 1.0332 -2.06382 0
M  V30 3566 C 389.179 1.36082 -0.952414 0
M  V30 3567 O 390.364 1.46466 -1.2228 0
M  V30 3568 C 387.504 2.32989 -2.54578 0
M  V30 3569 C 386.617 2.0641 -3.79498 0
M  V30 3570 C 385.752 3.2993 -4.16317 0
M  V30 3571 C 384.791 2.98893 -5.34162 0
M  V30 3572 N 383.928 4.14857 -5.66426 0
M  V30 3573 H 388.768 0.609982 -2.9169 0
M  V30 3574 H 386.305 0.289573 -1.44222 0
M  V30 3575 H 388.263 3.0875 -2.80587 0
M  V30 3576 H 386.893 2.73039 -1.7219 0
M  V30 3577 H 385.945 1.21158 -3.6059 0
M  V30 3578 H 387.257 1.79513 -4.65378 0
M  V30 3579 H 386.411 4.1406 -4.4344 0
M  V30 3580 H 385.15 3.59938 -3.29083 0
M  V30 3581 H 384.155 2.13164 -5.06795 0
M  V30 3582 H 385.38 2.70165 -6.23047 0
M  V30 3583 H 383.326 4.44821 -4.82151 0
M  V30 3584 H 383.243 3.91374 -6.4681 0
M  V30 3585 H 384.511 4.99868 -5.98124 0
M  V30 3586 N 388.74 1.54641 0.303973 0
M  V30 3587 C 389.989 1.7299 1.03717 0
M  V30 3588 C 390.302 0.521168 1.88529 0
M  V30 3589 O 391.508 0.586408 2.65092 0
M  V30 3590 C 389.964 3.06051 1.89369 0
M  V30 3591 C 389.572 4.34393 1.09574 0
M  V30 3592 C 391.316 3.3376 2.62306 0
M  V30 3593 C 389.223 5.58506 1.94486 0
M  V30 3594 H 388.153 0.64473 0.390947 0
M  V30 3595 H 390.804 1.81124 0.294328 0
M  V30 3596 H 389.186 2.91874 2.67629 0
M  V30 3597 H 390.36 4.59396 0.359485 0
M  V30 3598 H 388.675 4.13597 0.482324 0
M  V30 3599 H 391.272 4.23687 3.26181 0
M  V30 3600 H 391.615 2.52503 3.3098 0
M  V30 3601 H 392.148 3.48894 1.91097 0
M  V30 3602 H 388.887 6.42422 1.30287 0
M  V30 3603 H 388.407 5.37694 2.65792 0
M  V30 3604 H 390.086 5.95651 2.52605 0
M  V30 3605 N 390.218 -0.567019 1.47046 0
M  V30 3606 C 391.465 -1.32462 1.53167 0
M  V30 3607 C 391.793 -1.93571 0.189841 0
M  V30 3608 O 391.048 -1.77865 -0.816243 0
M  V30 3609 C 391.347 -2.4623 2.59047 0
M  V30 3610 C 391.013 -2.03014 4.02612 0
M  V30 3611 C 389.675 -1.90944 4.41694 0
M  V30 3612 C 392.027 -1.69895 4.92732 0
M  V30 3613 C 389.355 -1.44035 5.68745 0
M  V30 3614 C 391.707 -1.2446 6.20236 0
M  V30 3615 C 390.371 -1.10979 6.5821 0
M  V30 3616 H 389.641 -0.484713 0.560477 0
M  V30 3617 H 392.288 -0.636888 1.80599 0
M  V30 3618 H 390.593 -3.20517 2.25335 0
M  V30 3619 H 392.29 -3.04427 2.61008 0
M  V30 3620 H 388.88 -2.13348 3.71726 0
M  V30 3621 H 393.064 -1.78098 4.63244 0
M  V30 3622 H 388.32 -1.32254 5.96925 0
M  V30 3623 H 392.494 -0.978924 6.89485 0
M  V30 3624 H 390.121 -0.744078 7.5655 0
M  V30 3625 N 391.696 -1.35014 -0.812953 0
M  V30 3626 C 392.643 -1.27412 -1.92444 0
M  V30 3627 C 393.613 -0.14733 -1.65445 0
M  V30 3628 O 394.798 -0.329974 -1.87925 0
M  V30 3629 C 391.938 -1.04558 -3.28879 0
M  V30 3630 C 391.051 -2.26101 -3.68106 0
M  V30 3631 C 390.186 -1.96449 -4.9354 0
M  V30 3632 C 389.225 -3.14081 -5.25376 0
M  V30 3633 N 388.362 -2.84246 -6.41988 0
M  V30 3634 H 393.202 -2.22463 -1.98278 0
M  V30 3635 H 390.739 -1.10593 -0.969933 0
M  V30 3636 H 392.697 -0.893413 -4.07522 0
M  V30 3637 H 391.327 -0.131719 -3.22531 0
M  V30 3638 H 390.379 -2.52204 -2.84775 0
M  V30 3639 H 391.691 -3.13959 -3.87597 0
M  V30 3640 H 390.845 -1.78026 -5.79993 0
M  V30 3641 H 389.584 -1.05867 -4.76071 0
M  V30 3642 H 388.589 -3.33089 -4.37415 0
M  V30 3643 H 389.814 -4.05455 -5.44778 0
M  V30 3644 H 387.76 -1.96252 -6.25956 0
M  V30 3645 H 387.677 -3.65637 -6.61699 0
M  V30 3646 H 388.945 -2.6935 -7.31485 0
M  V30 3647 N 393.175 1.03435 -1.18907 0
M  V30 3648 C 394.403 1.80381 -1.01342 0
M  V30 3649 C 394.818 1.83649 0.438005 0
M  V30 3650 O 394.175 1.27655 1.30424 0
M  V30 3651 C 394.226 3.25689 -1.56873 0
M  V30 3652 O 393.947 3.22673 -2.96334 0
M  V30 3653 C 395.448 4.19255 -1.44014 0
M  V30 3654 H 392.668 0.56784 -0.35749 0
M  V30 3655 H 395.212 1.30317 -1.576 0
M  V30 3656 H 393.367 3.72962 -1.04777 0
M  V30 3657 H 393.781 4.13748 -3.22355 0
M  V30 3658 H 395.255 5.19123 -1.87657 0
M  V30 3659 H 395.732 4.37467 -0.389815 0
M  V30 3660 H 396.338 3.77851 -1.95214 0
M  V30 3661 N 394.653 0.992116 1.22453 0
M  V30 3662 C 395.616 0.546883 2.2258 0
M  V30 3663 C 396.616 -0.369829 1.56489 0
M  V30 3664 O 397.806 -0.161896 1.73446 0
M  V30 3665 C 394.938 -0.204659 3.40285 0
M  V30 3666 H 396.131 1.43234 2.63484 0
M  V30 3667 H 393.684 0.779239 1.3549 0
M  V30 3668 H 394.419 -1.10614 3.04853 0
M  V30 3669 H 394.204 0.45354 3.89468 0
M  V30 3670 H 395.694 -0.504358 4.14543 0
M  V30 3671 N 396.131 -1.37776 0.765217 0
M  V30 3672 C 397.379 -1.99454 0.325943 0
M  V30 3673 C 397.7 -1.61049 -1.09947 0
M  V30 3674 O 396.97 -0.872821 -1.75381 0
M  V30 3675 H 395.55 -0.737697 0.117525 0
M  V30 3676 H 398.212 -1.68359 0.981895 0
M  V30 3677 H 397.308 -3.09547 0.398353 0
M  V30 3678 N 397.609 -0.515225 -1.4894 0
M  V30 3679 C 398.856 0.024215 -2.02486 0
M  V30 3680 C 399.184 1.35671 -1.39368 0
M  V30 3681 O 398.439 1.88566 -0.523574 0
M  V30 3682 C 398.738 0.210595 -3.56779 0
M  V30 3683 C 398.404 -1.04569 -4.38607 0
M  V30 3684 C 397.066 -1.39002 -4.60686 0
M  V30 3685 C 399.418 -1.88008 -4.86109 0
M  V30 3686 C 396.746 -2.568 -5.27514 0
M  V30 3687 C 399.098 -3.04972 -5.54234 0
M  V30 3688 C 397.762 -3.39768 -5.74555 0
M  V30 3689 H 397.032 0.00886088 -0.740947 0
M  V30 3690 H 399.679 -0.678263 -1.79086 0
M  V30 3691 H 397.984 0.99572 -3.78936 0
M  V30 3692 H 399.681 0.642659 -3.95817 0
M  V30 3693 H 396.271 -0.767497 -4.21672 0
M  V30 3694 H 400.455 -1.62719 -4.68867 0
M  V30 3695 H 395.711 -2.8398 -5.41447 0
M  V30 3696 H 399.885 -3.69943 -5.90013 0
M  V30 3697 H 397.512 -4.31148 -6.26112 0
M  V30 3698 N 399.087 1.5561 -0.249682 0
M  V30 3699 C 400.333 1.99306 0.374841 0
M  V30 3700 C 400.666 1.13767 1.57387 0
M  V30 3701 O 399.941 0.201711 1.93451 0
M  V30 3702 C 400.224 3.51507 0.781986 0
M  V30 3703 C 400.077 4.4781 -0.422629 0
M  V30 3704 C 401.396 4.08884 1.62793 0
M  V30 3705 H 398.515 0.724572 0.134773 0
M  V30 3706 H 401.157 1.86719 -0.351549 0
M  V30 3707 H 399.307 3.62363 1.4009 0
M  V30 3708 H 400.979 4.48931 -1.06108 0
M  V30 3709 H 399.222 4.20518 -1.06524 0
M  V30 3710 H 399.893 5.51919 -0.0943766 0
M  V30 3711 H 402.369 4.01147 1.10547 0
M  V30 3712 H 401.245 5.1564 1.88166 0
M  V30 3713 H 401.506 3.57515 2.60068 0
M  V30 3714 N 400.565 -0.0233959 1.57583 0
M  V30 3715 C 401.512 -1.02224 2.06927 0
M  V30 3716 C 402.482 -1.35575 0.959617 0
M  V30 3717 O 403.667 -1.45815 1.23055 0
M  V30 3718 C 400.807 -2.31636 2.5581 0
M  V30 3719 C 399.92 -2.04394 3.80588 0
M  V30 3720 C 399.055 -3.27717 4.18061 0
M  V30 3721 C 398.094 -2.96056 5.3574 0
M  V30 3722 N 397.231 -4.11847 5.68618 0
M  V30 3723 H 402.071 -0.594504 2.9201 0
M  V30 3724 H 399.608 -0.281921 1.44373 0
M  V30 3725 H 401.566 -3.07258 2.82221 0
M  V30 3726 H 400.196 -2.72122 1.73636 0
M  V30 3727 H 399.248 -1.19244 3.61227 0
M  V30 3728 H 400.56 -1.77042 4.66323 0
M  V30 3729 H 399.714 -4.11702 4.4563 0
M  V30 3730 H 398.453 -3.58188 3.30988 0
M  V30 3731 H 397.458 -2.10474 5.07918 0
M  V30 3732 H 398.683 -2.66857 6.24471 0
M  V30 3733 H 396.629 -4.42258 4.84504 0
M  V30 3734 H 396.546 -3.87938 6.48876 0
M  V30 3735 H 397.814 -4.96689 6.00766 0
M  V30 3736 N 402.043 -1.548 -0.295768 0
M  V30 3737 C 403.454 -1.65274 -0.868411 0
M  V30 3738 C 403.805 -0.56481 -1.87894 0
M  V30 3739 O 402.93 0.29767 -2.14343 0
M  V30 3740 C 403.525 -2.99603 -1.58188 0
M  V30 3741 C 402.084 -3.12181 -2.10286 0
M  V30 3742 C 401.231 -2.6098 -0.93727 0
M  V30 3743 H 404.182 -1.58534 -0.0726422 0
M  V30 3744 H 404.203 -2.91319 -2.44772 0
M  V30 3745 H 403.715 -3.78764 -0.846151 0
M  V30 3746 H 401.816 -2.3775 -2.8689 0
M  V30 3747 H 401.929 -4.18415 -2.33379 0
M  V30 3748 H 400.293 -2.17564 -1.32431 0
M  V30 3749 H 401.076 -3.42623 -0.215414 0
M  V30 3750 N 403.521 0.559213 -1.47345 0
M  V30 3751 C 404.768 1.31648 -1.53867 0
M  V30 3752 C 405.096 1.93468 -0.200104 0
M  V30 3753 O 404.351 1.78295 0.806799 0
M  V30 3754 C 404.65 2.44853 -2.6035 0
M  V30 3755 C 404.316 2.00876 -4.03683 0
M  V30 3756 C 402.978 1.88599 -4.42701 0
M  V30 3757 C 405.33 1.67279 -4.93626 0
M  V30 3758 C 402.658 1.41017 -5.69501 0
M  V30 3759 C 405.01 1.21169 -6.20887 0
M  V30 3760 C 403.674 1.07487 -6.58789 0
M  V30 3761 H 402.944 0.481734 -0.56304 0
M  V30 3762 H 405.591 0.627301 -1.80934 0
M  V30 3763 H 403.896 3.19318 -2.27032 0
M  V30 3764 H 405.593 3.03039 -2.62619 0
M  V30 3765 H 402.183 2.11374 -3.72853 0
M  V30 3766 H 406.367 1.75638 -4.64182 0
M  V30 3767 H 401.623 1.29086 -5.97618 0
M  V30 3768 H 405.797 0.942345 -6.89995 0
M  V30 3769 H 403.424 0.703946 -7.56934 0
M  V30 3770 N 404.999 1.35443 0.805782 0
M  V30 3771 C 406.227 1.31878 1.59423 0
M  V30 3772 C 406.642 -0.103562 1.88516 0
M  V30 3773 O 405.999 -1.05575 1.48863 0
M  V30 3774 C 406.05 2.12426 2.92502 0
M  V30 3775 O 405.771 3.49115 2.6467 0
M  V30 3776 C 407.272 2.16455 3.86862 0
M  V30 3777 H 404.492 0.453002 0.495005 0
M  V30 3778 H 407.036 1.78309 1.00131 0
M  V30 3779 H 405.191 1.69593 3.48306 0
M  V30 3780 H 405.605 3.90957 3.49647 0
M  V30 3781 H 407.079 2.77204 4.77349 0
M  V30 3782 H 407.556 1.16352 4.23508 0
M  V30 3783 H 408.162 2.59453 3.36993 0
M  V30 3784 N 406.477 -1.02803 1.19454 0
M  V30 3785 C 407.387 -2.14575 0.948408 0
M  V30 3786 C 408.403 -1.73757 -0.091871 0
M  V30 3787 O 409.579 -2.01185 0.0929654 0
M  V30 3788 C 406.644 -3.43202 0.491265 0
M  V30 3789 C 405.705 -3.98328 1.60103 0
M  V30 3790 C 404.938 -5.20816 1.16561 0
M  V30 3791 O 405.161 -5.70392 0.0295238 0
M  V30 3792 O 404.095 -5.68801 1.96849 0
M  V30 3793 H 407.921 -2.38202 1.88397 0
M  V30 3794 H 405.506 -1.12989 0.977433 0
M  V30 3795 H 407.388 -4.20687 0.245015 0
M  V30 3796 H 406.063 -3.21018 -0.415851 0
M  V30 3797 H 404.97 -3.22174 1.90144 0
M  V30 3798 H 406.303 -4.24879 2.48473 0
M  V30 3799 N 407.956 -0.998596 -1.21925 0
M  V30 3800 C 408.919 -0.558679 -2.22287 0
M  V30 3801 C 409.919 0.361525 -1.56683 0
M  V30 3802 O 411.109 0.152695 -1.73529 0
M  V30 3803 C 408.241 0.18661 -3.40389 0
M  V30 3804 H 409.434 -1.4463 -2.62721 0
M  V30 3805 H 406.987 -0.786413 -1.35075 0
M  V30 3806 H 407.722 1.08996 -3.05435 0
M  V30 3807 H 407.507 -0.474188 -3.89222 0
M  V30 3808 H 408.997 0.482367 -4.14805 0
M  V30 3809 N 409.434 1.37368 -0.772513 0
M  V30 3810 C 410.366 2.28899 -0.117502 0
M  V30 3811 C 411.379 1.4867 0.663405 0
M  V30 3812 O 412.568 1.71314 0.501372 0
M  V30 3813 C 409.668 3.2788 0.857192 0
M  V30 3814 C 408.841 4.37207 0.129938 0
M  V30 3815 C 407.9 5.16257 1.01811 0
M  V30 3816 O 406.926 5.67159 0.481601 0
M  V30 3817 N 408.128 5.31058 2.3443 0
M  V30 3818 H 410.893 2.85752 -0.903662 0
M  V30 3819 H 408.454 1.49353 -0.62493 0
M  V30 3820 H 410.446 3.77647 1.45482 0
M  V30 3821 H 409.016 2.7179 1.54432 0
M  V30 3822 H 408.236 3.88827 -0.648605 0
M  V30 3823 H 409.524 5.07434 -0.372559 0
M  V30 3824 H 408.922 4.91287 2.80452 0
M  V30 3825 H 407.479 5.84131 2.89197 0
M  V30 3826 N 410.912 0.523116 1.48665 0
M  V30 3827 C 411.842 -0.23231 2.32342 0
M  V30 3828 C 412.823 -0.941637 1.41659 0
M  V30 3829 O 414.008 -0.928751 1.70552 0
M  V30 3830 C 411.138 -1.28387 3.22698 0
M  V30 3831 C 410.092 -0.693098 4.22351 0
M  V30 3832 C 409.418 -1.8468 5.01794 0
M  V30 3833 C 410.718 0.33063 5.21252 0
M  V30 3834 H 412.412 0.466192 2.95748 0
M  V30 3835 H 409.958 0.225643 1.42221 0
M  V30 3836 H 411.911 -1.82024 3.80059 0
M  V30 3837 H 410.635 -2.01186 2.57278 0
M  V30 3838 H 409.294 -0.178299 3.66166 0
M  V30 3839 H 408.942 -2.56301 4.32804 0
M  V30 3840 H 408.642 -1.45747 5.69238 0
M  V30 3841 H 410.166 -2.38709 5.62006 0
M  V30 3842 H 411.58 -0.118407 5.73178 0
M  V30 3843 H 409.977 0.636974 5.9671 0
M  V30 3844 H 411.047 1.23883 4.68808 0
M  V30 3845 N 412.39 -1.55475 0.257931 0
M  V30 3846 C 413.32 -2.24815 -0.630912 0
M  V30 3847 C 414.301 -1.23224 -1.17259 0
M  V30 3848 O 415.486 -1.51904 -1.20991 0
M  V30 3849 C 412.616 -2.95609 -1.82298 0
M  V30 3850 C 411.57 -4.03982 -1.41359 0
M  V30 3851 C 410.896 -4.6226 -2.68738 0
M  V30 3852 C 412.196 -5.19109 -0.57648 0
M  V30 3853 H 413.89 -2.99354 -0.0526878 0
M  V30 3854 H 411.436 -1.4398 -0.023901 0
M  V30 3855 H 413.389 -3.42822 -2.45054 0
M  V30 3856 H 412.113 -2.18577 -2.42676 0
M  V30 3857 H 410.772 -3.57555 -0.809324 0
M  V30 3858 H 410.42 -3.81915 -3.27338 0
M  V30 3859 H 410.12 -5.35424 -2.42065 0
M  V30 3860 H 411.644 -5.12212 -3.32372 0
M  V30 3861 H 413.058 -5.62479 -1.10861 0
M  V30 3862 H 411.455 -5.98729 -0.405351 0
M  V30 3863 H 412.525 -4.83174 0.408776 0
M  V30 3864 N 413.868 0.0150385 -1.57593 0
M  V30 3865 C 415.108 0.70768 -1.91758 0
M  V30 3866 C 415.472 1.71764 -0.857974 0
M  V30 3867 O 416.673 2.45956 -1.0844 0
M  V30 3868 C 414.944 1.34736 -3.3103 0
M  V30 3869 S 416.503 2.06721 -3.87056 0
M  V30 3870 H 413.321 0.234119 -0.671349 0
M  V30 3871 H 415.923 -0.0380373 -1.95463 0
M  V30 3872 H 414.627 0.59926 -4.06001 0
M  V30 3873 H 414.158 2.13133 -3.30663 0
M  V30 3874 H 416.173 3.34047 -3.66915 0
M  V30 3875 N 415.346 1.54954 0.287554 0
M  V30 3876 C 416.574 1.78881 1.03967 0
M  V30 3877 C 416.989 0.554894 1.80462 0
M  V30 3878 O 416.346 -0.475676 1.76192 0
M  V30 3879 C 416.397 3.00488 2.0097 0
M  V30 3880 O 416.118 4.19113 1.27577 0
M  V30 3881 C 417.619 3.36907 2.88112 0
M  V30 3882 H 414.839 0.596259 0.307761 0
M  V30 3883 H 417.383 2.01937 0.322749 0
M  V30 3884 H 415.538 2.79601 2.68145 0
M  V30 3885 H 415.952 4.87765 1.92835 0
M  V30 3886 H 417.426 4.25205 3.52001 0
M  V30 3887 H 417.903 2.55659 3.57121 0
M  V30 3888 H 418.509 3.60001 2.26449 0
M  V30 3889 N 416.824 -0.551391 1.4764 0
M  V30 3890 C 417.756 -1.67333 1.56628 0
M  V30 3891 C 418.769 -1.56398 0.452045 0
M  V30 3892 O 419.958 -1.6325 0.721926 0
M  V30 3893 C 417.058 -3.05841 1.45994 0
M  V30 3894 C 416.231 -3.42472 2.72088 0
M  V30 3895 C 415.29 -4.60168 2.55209 0
M  V30 3896 O 414.316 -4.64458 3.2904 0
M  V30 3897 N 415.518 -5.57024 1.63416 0
M  V30 3898 H 418.283 -1.60066 2.53375 0
M  V30 3899 H 415.844 -0.738169 1.44093 0
M  V30 3900 H 417.836 -3.8242 1.32428 0
M  V30 3901 H 416.406 -3.07302 0.573071 0
M  V30 3902 H 415.626 -2.55284 3.00373 0
M  V30 3903 H 416.914 -3.63723 3.55785 0
M  V30 3904 H 416.312 -5.56319 1.02594 0
M  V30 3905 H 414.869 -6.32906 1.558 0
M  V30 3906 N 418.302 -1.35869 -0.798587 0
M  V30 3907 C 419.265 -1.29307 -1.89242 0
M  V30 3908 C 420.265 -0.202747 -1.59517 0
M  V30 3909 O 421.455 -0.456957 -1.681 0
M  V30 3910 C 418.587 -1.00229 -3.25833 0
M  V30 3911 H 419.78 -2.26576 -1.96478 0
M  V30 3912 H 417.333 -1.20509 -0.995358 0
M  V30 3913 H 418.068 -0.033801 -3.24282 0
M  V30 3914 H 417.853 -1.79121 -3.48795 0
M  V30 3915 H 419.343 -0.98219 -4.05885 0
M  V30 3916 N 419.78 1.02168 -1.19998 0
M  V30 3917 C 421.028 1.75338 -1.00504 0
M  V30 3918 C 421.349 1.89387 0.464506 0
M  V30 3919 O 420.619 1.43268 1.33608 0
M  V30 3920 H 419.199 0.649564 -0.368885 0
M  V30 3921 H 421.861 1.23205 -1.51018 0
M  V30 3922 H 420.957 2.75892 -1.45912 0
M  V30 3923 N 421.258 1.00505 1.21394 0
M  V30 3924 C 422.506 0.686415 1.90086 0
M  V30 3925 C 422.827 -0.785264 1.7849 0
M  V30 3926 O 422.097 -1.56387 1.17983 0
M  V30 3927 H 420.677 0.2509 0.703604 0
M  V30 3928 H 423.339 1.27417 1.47482 0
M  V30 3929 H 422.435 0.959621 2.96981 0
M  V30 3930 N 422.737 -1.36956 0.779787 0
M  V30 3931 C 423.669 -2.28833 0.129639 0
M  V30 3932 C 424.682 -1.4902 -0.655511 0
M  V30 3933 O 425.871 -1.71578 -0.492279 0
M  V30 3934 C 422.971 -3.2833 -0.839792 0
M  V30 3935 C 422.144 -4.3727 -0.10675 0
M  V30 3936 C 421.203 -5.16789 -0.990717 0
M  V30 3937 O 420.229 -5.67406 -0.451516 0
M  V30 3938 N 421.431 -5.32294 -2.3161 0
M  V30 3939 H 424.196 -2.85268 0.918803 0
M  V30 3940 H 421.757 -1.49019 0.632841 0
M  V30 3941 H 423.749 -3.78413 -1.43477 0
M  V30 3942 H 422.319 -2.72605 -1.52988 0
M  V30 3943 H 421.539 -3.88478 0.669216 0
M  V30 3944 H 422.827 -5.07229 0.399464 0
M  V30 3945 H 422.225 -4.92768 -2.77843 0
M  V30 3946 H 420.782 -5.85656 -2.86095 0
M  V30 3947 N 424.215 -0.530993 -1.48385 0
M  V30 3948 C 425.145 0.219985 -2.32461 0
M  V30 3949 C 426.126 0.934111 -1.42156 0
M  V30 3950 O 427.311 0.919694 -1.71042 0
M  V30 3951 C 424.441 1.26674 -3.23375 0
M  V30 3952 C 423.395 0.67069 -4.22712 0
M  V30 3953 C 422.721 1.82017 -5.02766 0
M  V30 3954 C 424.021 -0.358268 -5.2107 0
M  V30 3955 H 425.715 -0.48187 -2.95497 0
M  V30 3956 H 423.261 -0.233182 -1.42099 0
M  V30 3957 H 425.214 1.80006 -3.81019 0
M  V30 3958 H 423.938 1.99818 -2.58341 0
M  V30 3959 H 422.597 0.158878 -3.66256 0
M  V30 3960 H 422.245 2.54002 -4.34157 0
M  V30 3961 H 421.945 1.42727 -5.70003 0
M  V30 3962 H 423.469 2.35725 -5.63264 0
M  V30 3963 H 424.883 0.0880081 -5.73232 0
M  V30 3964 H 423.28 -0.66861 -5.96364 0
M  V30 3965 H 424.35 -1.26367 -4.68145 0
M  V30 3966 N 425.693 1.55336 -0.266172 0
M  V30 3967 C 426.656 2.20878 0.612001 0
M  V30 3968 C 427.656 1.18388 1.08816 0
M  V30 3969 O 428.846 1.4335 0.989774 0
M  V30 3970 C 425.978 2.86765 1.84332 0
M  V30 3971 H 427.171 2.99873 0.0398718 0
M  V30 3972 H 424.724 1.56291 -0.0167309 0
M  V30 3973 H 425.459 2.11759 2.45619 0
M  V30 3974 H 425.244 3.61862 1.5099 0
M  V30 3975 H 426.734 3.36867 2.46801 0
M  V30 3976 N 427.171 -0.0066808 1.57599 0
M  V30 3977 C 428.396 -0.707738 1.94951 0
M  V30 3978 C 428.821 -1.66882 0.867868 0
M  V30 3979 O 428.179 -1.80457 -0.17458 0
M  V30 3980 C 428.227 -1.42162 3.31394 0
M  V30 3981 O 427.331 -2.53578 3.25226 0
M  V30 3982 H 426.672 -0.188752 0.636607 0
M  V30 3983 H 429.202 0.0445193 2.04552 0
M  V30 3984 H 429.212 -1.78655 3.66806 0
M  V30 3985 H 427.887 -0.716903 4.09675 0
M  V30 3986 H 426.464 -2.19463 3.01481 0
M  V30 3987 N 428.649 -1.55105 -0.279332 0
M  V30 3988 C 430.06 -1.66186 -0.850832 0
M  V30 3989 C 430.411 -0.584707 -1.87285 0
M  V30 3990 O 429.536 0.274919 -2.14647 0
M  V30 3991 C 430.131 -3.01264 -1.55001 0
M  V30 3992 C 428.69 -3.14394 -2.06963 0
M  V30 3993 C 427.837 -2.61959 -0.909536 0
M  V30 3994 H 430.788 -1.58602 -0.0558235 0
M  V30 3995 H 430.809 -2.93899 -2.41669 0
M  V30 3996 H 430.321 -3.7964 -0.805931 0
M  V30 3997 H 428.422 -2.4078 -2.84352 0
M  V30 3998 H 428.535 -4.20867 -2.28928 0
M  V30 3999 H 426.899 -2.18957 -1.30116 0
M  V30 4000 H 427.682 -3.42833 -0.179062 0
M  V30 4001 N 430.127 0.543554 -1.4793 0
M  V30 4002 C 431.543 0.870806 -1.3375 0
M  V30 4003 C 431.743 1.9864 -0.338261 0
M  V30 4004 O 430.799 2.51305 0.245371 0
M  V30 4005 C 432.112 1.25114 -2.73435 0
M  V30 4006 C 433.66 1.3618 -2.81823 0
M  V30 4007 C 434.135 1.77563 -4.22179 0
M  V30 4008 N 435.626 1.8469 -4.24787 0
M  V30 4009 C 436.361 2.18067 -5.30315 0
M  V30 4010 N 435.857 2.49963 -6.46135 0
M  V30 4011 N 437.65 2.18958 -5.17701 0
M  V30 4012 H 429.801 -0.19275 -2.11524 0
M  V30 4013 H 432.064 -0.0235777 -0.947707 0
M  V30 4014 H 431.77 0.50514 -3.48053 0
M  V30 4015 H 431.644 2.20431 -3.06088 0
M  V30 4016 H 434.031 2.09859 -2.07468 0
M  V30 4017 H 434.112 0.390169 -2.52807 0
M  V30 4018 H 433.756 1.04449 -4.97044 0
M  V30 4019 H 433.686 2.75753 -4.48629 0
M  V30 4020 H 436.177 1.62372 -3.41239 0
M  V30 4021 H 436.49 2.74497 -7.22406 0
M  V30 4022 H 434.835 2.47513 -6.49432 0
M  V30 4023 H 438.026 1.93488 -4.2624 0
M  V30 4024 H 438.199 2.44639 -6.00047 0
M  V30 4025 N 431.605 1.3629 0.791371 0
M  V30 4026 C 432.83 1.33726 1.58531 0
M  V30 4027 C 433.255 -0.0794933 1.87932 0
M  V30 4028 O 432.613 -1.05087 1.47738 0
M  V30 4029 C 432.661 2.16425 2.88431 0
M  V30 4030 O 431.765 1.5554 3.81944 0
M  V30 4031 H 431.106 0.457793 0.480959 0
M  V30 4032 H 433.636 1.79547 0.981031 0
M  V30 4033 H 433.646 2.28933 3.37718 0
M  V30 4034 H 432.321 3.19415 2.66359 0
M  V30 4035 H 430.898 1.51961 3.40532 0
M  V30 4036 N 433.083 -1.0153 1.20538 0
M  V30 4037 C 434.046 -2.0826 0.957098 0
M  V30 4038 C 435.046 -1.60657 -0.0678655 0
M  V30 4039 O 436.236 -1.73385 0.168332 0
M  V30 4040 C 433.368 -3.38033 0.441188 0
M  V30 4041 H 434.561 -2.31719 1.90384 0
M  V30 4042 H 432.114 -1.1835 1.02093 0
M  V30 4043 H 432.849 -3.20249 -0.510961 0
M  V30 4044 H 432.634 -3.73911 1.18038 0
M  V30 4045 H 434.124 -4.16613 0.287009 0
M  V30 4046 N 434.561 -1.01147 -1.20859 0
M  V30 4047 C 435.524 -0.582224 -2.21682 0
M  V30 4048 C 436.524 0.344887 -1.57058 0
M  V30 4049 O 437.714 0.134281 -1.73682 0
M  V30 4050 C 434.846 0.150496 -3.40568 0
M  V30 4051 H 436.039 -1.47408 -2.61172 0
M  V30 4052 H 433.592 -0.800695 -1.34233 0
M  V30 4053 H 434.327 1.0575 -3.06574 0
M  V30 4054 H 434.112 -0.515444 -3.88697 0
M  V30 4055 H 435.602 0.438344 -4.15293 0
M  V30 4056 N 436.039 1.36541 -0.78704 0
M  V30 4057 C 436.949 2.3387 -0.184896 0
M  V30 4058 C 437.965 1.60927 0.661697 0
M  V30 4059 O 439.141 1.92927 0.57804 0
M  V30 4060 C 436.206 3.40122 0.672145 0
M  V30 4061 C 435.267 4.28867 -0.19267 0
M  V30 4062 C 434.5 5.30045 0.623561 0
M  V30 4063 O 434.723 5.39232 1.8597 0
M  V30 4064 O 433.657 6.01895 0.0247068 0
M  V30 4065 H 437.483 2.87126 -0.989562 0
M  V30 4066 H 435.068 1.38969 -0.548455 0
M  V30 4067 H 436.95 4.05093 1.16094 0
M  V30 4068 H 435.625 2.89169 1.45474 0
M  V30 4069 H 434.532 3.66945 -0.728166 0
M  V30 4070 H 435.865 4.83165 -0.938722 0
M  V30 4071 N 437.518 0.538854 1.48102 0
M  V30 4072 C 438.466 -0.232325 2.31437 0
M  V30 4073 C 439.46 -0.927004 1.41785 0
M  V30 4074 O 440.666 -0.850378 1.58646 0
M  V30 4075 H 437.041 -0.0937916 0.746128 0
M  V30 4076 H 439.012 0.489986 2.9435 0
M  V30 4077 C 437.761 -1.26074 3.24038 0
M  V30 4078 H 437.084 -0.735609 3.92974 0
M  V30 4079 H 438.524 -1.77157 3.85216 0
M  V30 4080 C 436.983 -2.29902 2.46265 0
M  V30 4081 O 437.513 -3.36502 2.19384 0
M  V30 4082 N 435.719 -2.03348 2.07601 0
M  V30 4083 H 435.266 -1.16675 2.29662 0
M  V30 4084 H 435.224 -2.73038 1.55877 0
M  V30 4085 N 438.996 -1.55193 0.274407 0
M  V30 4086 C 439.959 -2.212 -0.600279 0
M  V30 4087 C 440.959 -1.18963 -1.08187 0
M  V30 4088 O 442.149 -1.43873 -0.982158 0
M  V30 4089 C 439.281 -2.87739 -1.82809 0
M  V30 4090 H 440.474 -2.9989 -0.0239682 0
M  V30 4091 H 438.027 -1.5628 0.0250192 0
M  V30 4092 H 438.762 -2.13058 -2.44493 0
M  V30 4093 H 438.547 -3.62658 -1.49069 0
M  V30 4094 H 440.037 -3.38171 -2.45011 0
M  V30 4095 N 440.474 -0.00167713 -1.576 0
M  V30 4096 C 441.437 0.974046 -2.07473 0
M  V30 4097 C 442.437 1.27143 -0.984444 0
M  V30 4098 O 443.627 1.21633 -1.24703 0
M  V30 4099 C 440.759 2.29849 -2.51759 0
M  V30 4100 H 441.952 0.54262 -2.9495 0
M  V30 4101 H 439.505 0.245829 -1.54355 0
M  V30 4102 H 440.24 2.77677 -1.67529 0
M  V30 4103 H 440.025 2.09584 -3.31386 0
M  V30 4104 H 441.515 2.9984 -2.90664 0
M  V30 4105 N 441.952 1.55251 0.271103 0
M  V30 4106 C 442.882 1.9127 1.33933 0
M  V30 4107 C 443.863 0.77478 1.5143 0
M  V30 4108 O 445.048 1.03307 1.64442 0
M  V30 4109 C 442.178 2.18627 2.69851 0
M  V30 4110 C 441.132 3.34442 2.67081 0
M  V30 4111 C 440.458 3.47284 4.06569 0
M  V30 4112 C 441.758 4.70784 2.26185 0
M  V30 4113 H 443.452 2.80744 1.04035 0
M  V30 4114 H 440.998 1.35077 0.499017 0
M  V30 4115 H 442.951 2.42413 3.44694 0
M  V30 4116 H 441.675 1.25955 3.01335 0
M  V30 4117 H 440.334 3.10627 1.94695 0
M  V30 4118 H 439.982 2.52074 4.35279 0
M  V30 4119 H 439.682 4.25152 4.0561 0
M  V30 4120 H 441.206 3.73363 4.83148 0
M  V30 4121 H 442.62 4.94102 2.90751 0
M  V30 4122 H 441.017 5.51582 2.36384 0
M  V30 4123 H 442.087 4.69478 1.21319 0
M  V30 4124 N 443.43 -0.535701 1.48216 0
M  V30 4125 C 444.362 -1.65662 1.58394 0
M  V30 4126 C 445.375 -1.5591 0.468607 0
M  V30 4127 O 446.564 -1.62475 0.7392 0
M  V30 4128 C 443.664 -3.04276 1.4923 0
M  V30 4129 C 442.837 -3.39567 2.75705 0
M  V30 4130 C 441.896 -4.57436 2.60075 0
M  V30 4131 O 440.922 -4.60942 3.33948 0
M  V30 4132 N 442.124 -5.55259 1.69315 0
M  V30 4133 H 444.889 -1.5737 2.55058 0
M  V30 4134 H 442.45 -0.722845 1.44867 0
M  V30 4135 H 444.442 -3.80994 1.36477 0
M  V30 4136 H 443.012 -3.06677 0.605632 0
M  V30 4137 H 442.232 -2.52083 3.03064 0
M  V30 4138 H 443.52 -3.59929 3.59623 0
M  V30 4139 H 442.918 -5.552 1.08489 0
M  V30 4140 H 441.475 -6.31218 1.62504 0
M  V30 4141 N 444.908 -1.36708 -0.784132 0
M  V30 4142 C 445.84 -1.27333 -1.90575 0
M  V30 4143 C 446.853 -0.191706 -1.61667 0
M  V30 4144 O 448.042 -0.446854 -1.72816 0
M  V30 4145 C 445.142 -0.943177 -3.25511 0
M  V30 4146 C 444.315 -2.12776 -3.82158 0
M  V30 4147 C 443.374 -1.76983 -4.95544 0
M  V30 4148 O 442.4 -2.49134 -5.11782 0
M  V30 4149 N 443.602 -0.706624 -5.76183 0
M  V30 4150 H 446.367 -2.23974 -1.99138 0
M  V30 4151 H 443.928 -1.30171 -0.962656 0
M  V30 4152 H 445.92 -0.684799 -3.98864 0
M  V30 4153 H 444.49 -0.0657333 -3.12531 0
M  V30 4154 H 443.71 -2.54863 -3.0073 0
M  V30 4155 H 444.998 -2.91904 -4.16737 0
M  V30 4156 H 444.396 -0.107643 -5.65598 0
M  V30 4157 H 442.953 -0.50808 -6.49817 0
M  V30 4158 N 446.386 1.0089 -1.21074 0
M  V30 4159 C 447.316 2.1145 -0.990523 0
M  V30 4160 C 448.297 1.69897 0.0831699 0
M  V30 4161 O 449.482 1.94052 -0.0758853 0
M  V30 4162 C 446.612 3.42914 -0.550177 0
M  V30 4163 C 445.566 3.98244 -1.56799 0
M  V30 4164 C 444.892 5.25568 -0.984013 0
M  V30 4165 C 446.192 4.30752 -2.95381 0
M  V30 4166 H 447.886 2.3013 -1.91521 0
M  V30 4167 H 445.432 1.10592 -0.92225 0
M  V30 4168 H 447.385 4.19653 -0.383305 0
M  V30 4169 H 446.109 3.24014 0.41015 0
M  V30 4170 H 444.768 3.23621 -1.72236 0
M  V30 4171 H 444.416 5.02998 -0.0155216 0
M  V30 4172 H 444.116 5.63551 -1.66384 0
M  V30 4173 H 445.64 6.04955 -0.828378 0
M  V30 4174 H 447.054 4.98349 -2.8341 0
M  V30 4175 H 445.451 4.79869 -3.60341 0
M  V30 4176 H 446.521 3.39192 -3.46521 0
M  V30 4177 N 447.864 1.01787 1.20321 0
M  V30 4178 C 449.11 0.708985 1.90003 0
M  V30 4179 C 449.443 -0.759572 1.78729 0
M  V30 4180 O 448.718 -1.55198 1.17234 0
M  V30 4181 C 449.001 1.1469 3.41348 0
M  V30 4182 C 448.854 2.67586 3.61549 0
M  V30 4183 C 450.173 0.71915 4.34185 0
M  V30 4184 H 447.292 0.259034 0.689978 0
M  V30 4185 H 449.934 1.26584 1.41692 0
M  V30 4186 H 448.084 0.673128 3.82624 0
M  V30 4187 H 449.756 3.22826 3.29517 0
M  V30 4188 H 447.999 3.085 3.04976 0
M  V30 4189 H 448.67 2.93281 4.67643 0
M  V30 4190 H 451.146 1.12647 4.00562 0
M  V30 4191 H 450.022 1.05358 5.38694 0
M  V30 4192 H 450.283 -0.379111 4.40472 0
M  V30 4193 N 449.342 -1.36122 0.79427 0
M  V30 4194 C 450.588 -1.99406 0.369452 0
M  V30 4195 C 450.921 -1.62886 -1.05743 0
M  V30 4196 O 450.196 -0.886053 -1.73145 0
M  V30 4197 C 450.479 -3.56046 0.538833 0
M  V30 4198 C 450.332 -4.02404 2.00976 0
M  V30 4199 C 451.651 -4.40079 -0.0431359 0
M  V30 4200 H 448.77 -0.724397 0.135712 0
M  V30 4201 H 451.412 -1.61461 1.00151 0
M  V30 4202 H 449.562 -3.885 0.000771004 0
M  V30 4203 H 451.234 -3.80415 2.60926 0
M  V30 4204 H 449.477 -3.53765 2.51063 0
M  V30 4205 H 450.148 -5.11344 2.07922 0
M  V30 4206 H 452.624 -4.14013 0.416228 0
M  V30 4207 H 451.5 -5.48799 0.105374 0
M  V30 4208 H 451.761 -4.27264 -1.13571 0
M  V30 4209 N 450.82 -0.546701 -1.47814 0
M  V30 4210 C 451.783 0.196287 -2.28358 0
M  V30 4211 C 452.783 0.852437 -1.36346 0
M  V30 4212 O 453.973 0.709913 -1.59078 0
M  V30 4213 C 451.105 1.28579 -3.15722 0
M  V30 4214 H 452.298 -0.511086 -2.95513 0
M  V30 4215 H 449.851 -0.303248 -1.5333 0
M  V30 4216 H 450.586 2.0259 -2.53235 0
M  V30 4217 H 450.371 0.820229 -3.83425 0
M  V30 4218 H 451.861 1.80793 -3.76435 0
M  V30 4219 N 452.299 1.55045 -0.282633 0
M  V30 4220 C 453.246 2.22822 0.601566 0
M  V30 4221 C 454.216 1.20431 1.14392 0
M  V30 4222 O 455.401 1.48996 1.19184 0
M  V30 4223 C 452.541 2.95873 1.77632 0
M  V30 4224 C 451.654 4.12999 1.26711 0
M  V30 4225 C 450.789 4.73676 2.40426 0
M  V30 4226 C 449.828 5.82981 1.86545 0
M  V30 4227 N 448.965 6.3769 2.93762 0
M  V30 4228 H 453.805 2.97995 0.0169528 0
M  V30 4229 H 451.342 1.471 -0.00339964 0
M  V30 4230 H 453.3 3.36447 2.46697 0
M  V30 4231 H 451.93 2.2311 2.33285 0
M  V30 4232 H 450.982 3.77494 0.469314 0
M  V30 4233 H 452.294 4.91803 0.832518 0
M  V30 4234 H 451.448 5.17008 3.17471 0
M  V30 4235 H 450.187 3.94164 2.87203 0
M  V30 4236 H 449.192 5.39092 1.07983 0
M  V30 4237 H 450.417 6.64366 1.40694 0
M  V30 4238 H 448.363 5.61069 3.39908 0
M  V30 4239 H 448.28 7.11788 2.54744 0
M  V30 4240 H 449.548 6.8568 3.7076 0
M  V30 4241 N 453.777 0.010035 1.57597 0
M  V30 4242 C 454.725 -0.996272 2.10184 0
M  V30 4243 C 455.719 -1.34942 1.02406 0
M  V30 4244 O 456.925 -1.33389 1.20861 0
M  V30 4245 H 453.3 -0.338982 0.671264 0
M  V30 4246 H 455.271 -0.527272 2.93705 0
M  V30 4247 C 454.02 -2.27599 2.62857 0
M  V30 4248 H 453.343 -2.01295 3.45428 0
M  V30 4249 H 454.783 -2.96265 3.0332 0
M  V30 4250 C 453.242 -2.99269 1.54725 0
M  V30 4251 O 453.772 -3.90644 0.93597 0
M  V30 4252 N 451.978 -2.61269 1.27228 0
M  V30 4253 H 451.525 -1.87043 1.77123 0
M  V30 4254 H 451.483 -3.09534 0.550999 0
M  V30 4255 N 455.255 -1.55392 -0.262866 0
M  V30 4256 C 456.165 -1.92077 -1.34698 0
M  V30 4257 C 457.181 -0.819227 -1.53508 0
M  V30 4258 O 458.357 -1.11921 -1.67439 0
M  V30 4259 C 455.422 -2.19407 -2.68443 0
M  V30 4260 C 454.483 -3.42905 -2.58292 0
M  V30 4261 C 453.716 -3.68921 -3.85659 0
M  V30 4262 O 453.939 -2.97275 -4.8681 0
M  V30 4263 O 452.873 -4.62455 -3.85252 0
M  V30 4264 H 456.699 -2.84384 -1.06581 0
M  V30 4265 H 454.284 -1.42069 -0.462264 0
M  V30 4266 H 456.166 -2.38365 -3.47506 0
M  V30 4267 H 454.841 -1.30282 -2.96325 0
M  V30 4268 H 453.748 -3.29272 -1.7757 0
M  V30 4269 H 455.081 -4.32282 -2.35358 0
M  V30 4270 N 456.733 0.527833 -1.48498 0
M  V30 4271 C 457.696 1.61439 -1.62696 0
M  V30 4272 C 458.696 1.52824 -0.500136 0
M  V30 4273 O 459.886 1.56456 -0.765976 0
M  V30 4274 C 457.018 3.01063 -1.59918 0
M  V30 4275 H 458.211 1.50189 -2.59583 0
M  V30 4276 H 455.764 0.750055 -1.37127 0
M  V30 4277 H 456.499 3.17818 -0.645163 0
M  V30 4278 H 456.284 3.08725 -2.41726 0
M  V30 4279 H 457.774 3.80057 -1.73051 0
M  V30 4280 N 458.211 1.37122 0.776871 0
M  V30 4281 C 459.174 1.32301 1.8716 0
M  V30 4282 C 460.174 0.228099 1.59174 0
M  V30 4283 O 461.364 0.483642 1.67352 0
M  V30 4284 C 458.496 1.054 3.24197 0
M  V30 4285 H 459.689 2.29673 1.92848 0
M  V30 4286 H 457.242 1.22077 0.97606 0
M  V30 4287 H 457.977 0.0853872 3.24188 0
M  V30 4288 H 457.762 1.84648 3.45901 0
M  V30 4289 H 459.252 1.04664 4.04271 0
M  V30 4290 N 459.689 -1.00246 1.21608 0
M  V30 4291 C 460.936 -1.74061 1.03485 0
M  V30 4292 C 461.264 -1.89658 -0.431308 0
M  V30 4293 O 460.519 -1.42976 -1.33627 0
M  V30 4294 C 460.818 -3.15448 1.68009 0
M  V30 4295 C 460.484 -3.19792 3.17874 0
M  V30 4296 C 459.146 -3.20685 3.58768 0
M  V30 4297 C 461.498 -3.16835 4.13842 0
M  V30 4298 C 458.826 -3.16309 4.94131 0
M  V30 4299 C 461.178 -3.14001 5.49169 0
M  V30 4300 C 459.842 -3.13204 5.89457 0
M  V30 4301 H 459.112 -0.636934 0.378677 0
M  V30 4302 H 461.759 -1.17473 1.51236 0
M  V30 4303 H 460.064 -3.75284 1.12557 0
M  V30 4304 H 461.761 -3.71285 1.51487 0
M  V30 4305 H 458.351 -3.19842 2.85305 0
M  V30 4306 H 462.535 -3.15303 3.83272 0
M  V30 4307 H 457.791 -3.14032 5.24589 0
M  V30 4308 H 461.965 -3.10667 6.23265 0
M  V30 4309 H 459.592 -3.09568 6.94314 0
M  V30 4310 N 461.167 -1.02423 -1.1978 0
M  V30 4311 C 462.097 -0.62157 -2.25075 0
M  V30 4312 C 463.078 0.367148 -1.6609 0
M  V30 4313 O 464.263 0.250892 -1.92573 0
M  V30 4314 C 461.393 0.0331826 -3.47284 0
M  V30 4315 C 460.347 -0.877323 -4.18912 0
M  V30 4316 C 459.673 -0.0879296 -5.34628 0
M  V30 4317 C 460.973 -2.18892 -4.74219 0
M  V30 4318 H 462.667 -1.50179 -2.59011 0
M  V30 4319 H 460.213 -0.723547 -1.24502 0
M  V30 4320 H 462.166 0.326488 -4.20133 0
M  V30 4321 H 460.89 0.948164 -3.12534 0
M  V30 4322 H 459.549 -1.15475 -3.47938 0
M  V30 4323 H 459.197 0.828941 -4.96123 0
M  V30 4324 H 458.897 -0.694359 -5.83483 0
M  V30 4325 H 460.421 0.198743 -6.10276 0
M  V30 4326 H 461.835 -1.95746 -5.38847 0
M  V30 4327 H 460.232 -2.74686 -5.33542 0
M  V30 4328 H 461.302 -2.84674 -3.92541 0
M  V30 4329 N 462.645 1.35699 -0.801477 0
M  V30 4330 C 463.87 2.03687 -0.390678 0
M  V30 4331 C 464.295 1.60015 0.988778 0
M  V30 4332 O 463.653 0.774357 1.63931 0
M  V30 4333 C 463.701 3.57439 -0.476404 0
M  V30 4334 O 462.805 4.09208 0.512106 0
M  V30 4335 H 462.146 0.64344 -0.163956 0
M  V30 4336 H 464.676 1.73403 -1.08594 0
M  V30 4337 H 464.686 4.06544 -0.344357 0
M  V30 4338 H 463.361 3.88576 -1.48262 0
M  V30 4339 H 461.938 3.7134 0.340721 0
M  V30 4340 N 464.123 0.554532 1.47522 0
M  V30 4341 C 465.056 -0.242442 2.26908 0
M  V30 4342 C 466.034 -0.922722 1.33883 0
M  V30 4343 O 467.218 -0.942244 1.63261 0
M  V30 4344 C 464.345 -1.34525 3.10839 0
M  V30 4345 C 463.391 -0.773805 4.19422 0
M  V30 4346 S 464.224 0.377525 5.34168 0
M  V30 4347 C 465.38 -0.727164 6.21662 0
M  V30 4348 H 465.613 0.431218 2.94156 0
M  V30 4349 H 463.146 0.3408 1.50592 0
M  V30 4350 H 465.104 -1.97683 3.59766 0
M  V30 4351 H 463.765 -1.99073 2.42958 0
M  V30 4352 H 462.958 -1.60187 4.77866 0
M  V30 4353 H 462.56 -0.218448 3.73361 0
M  V30 4354 H 464.852 -1.61992 6.57849 0
M  V30 4355 H 465.795 -0.180135 7.07871 0
M  V30 4356 H 466.203 -1.01863 5.55233 0
M  V30 4357 N 465.601 -1.54893 0.290851 0
M  V30 4358 C 466.829 -2.04343 -0.324288 0
M  V30 4359 C 467.244 -1.16859 -1.48289 0
M  V30 4360 O 466.601 -0.192018 -1.81487 0
M  V30 4361 C 466.652 -3.52756 -0.79026 0
M  V30 4362 O 466.373 -4.36913 0.322213 0
M  V30 4363 C 467.874 -4.18161 -1.4716 0
M  V30 4364 H 465.094 -0.667135 -0.0719173 0
M  V30 4365 H 467.638 -1.99981 0.427529 0
M  V30 4366 H 465.793 -3.57511 -1.49213 0
M  V30 4367 H 466.207 -5.24486 -0.0387372 0
M  V30 4368 H 467.681 -5.23562 -1.7489 0
M  V30 4369 H 468.158 -3.67282 -2.40834 0
M  V30 4370 H 468.764 -4.17454 -0.813178 0
M  V30 4371 N 467.08 -0.0183926 -1.57589 0
M  V30 4372 C 468.357 0.700621 -1.82622 0
M  V30 4373 C 468.737 1.90951 -0.90005 0
M  V30 4374 O 468.085 2.28452 0.0469145 0
M  V30 4375 C 468.295 1.08899 -3.31575 0
M  V30 4376 C 469.643 1.48514 -3.9778 0
M  V30 4377 O 470.667 1.18227 -3.36007 0
M  V30 4378 O 469.526 2.04903 -5.06633 0
M  V30 4379 H 466.62 0.342743 -0.752633 0
M  V30 4380 H 469.166 -0.0452548 -1.6964 0
M  V30 4381 H 467.938 0.228113 -3.90635 0
M  V30 4382 H 467.561 1.89338 -3.49624 0
M  V30 4383 N 468.558 1.5553 0.254621 0
M  V30 4384 C 469.783 1.81383 1.00573 0
M  V30 4385 C 470.208 0.594419 1.78461 0
M  V30 4386 O 469.566 -0.456403 1.75461 0
M  V30 4387 C 469.614 3.04892 1.92545 0
M  V30 4388 O 468.718 2.81266 3.01601 0
M  V30 4389 H 468.059 0.598969 0.286587 0
M  V30 4390 H 470.589 2.02703 0.277952 0
M  V30 4391 H 470.599 3.34119 2.34155 0
M  V30 4392 H 469.274 3.93287 1.3527 0
M  V30 4393 H 467.851 2.63185 2.64174 0
M  V30 4394 N 470.036 -0.519951 1.48776 0
M  V30 4395 C 470.983 -1.62352 1.64044 0
M  V30 4396 C 471.953 -1.58945 0.482251 0
M  V30 4397 O 473.138 -1.77219 0.706971 0
M  V30 4398 C 470.278 -3.00579 1.69547 0
M  V30 4399 C 469.391 -3.14145 2.96541 0
M  V30 4400 C 468.526 -4.42991 2.93142 0
M  V30 4401 C 467.565 -4.50122 4.14797 0
M  V30 4402 N 466.702 -5.7037 4.09418 0
M  V30 4403 H 471.542 -1.48643 2.58281 0
M  V30 4404 H 469.079 -0.723516 1.28077 0
M  V30 4405 H 471.037 -3.80671 1.70719 0
M  V30 4406 H 469.667 -3.13036 0.787918 0
M  V30 4407 H 468.719 -2.27239 3.05068 0
M  V30 4408 H 470.031 -3.15275 3.86527 0
M  V30 4409 H 469.185 -5.31385 2.92772 0
M  V30 4410 H 467.924 -4.44398 2.00902 0
M  V30 4411 H 466.929 -3.60133 4.15433 0
M  V30 4412 H 468.154 -4.50445 5.08208 0
M  V30 4413 H 466.1 -5.72655 3.20004 0
M  V30 4414 H 466.017 -5.73036 4.93119 0
M  V30 4415 H 467.285 -6.61023 4.13121 0
M  V30 4416 N 471.514 -1.37532 -0.769588 0
M  V30 4417 C 472.742 -1.36059 -1.55871 0
M  V30 4418 C 473.157 0.053544 -1.88724 0
M  V30 4419 O 472.514 1.01591 -1.5161 0
M  V30 4420 C 472.565 -2.20107 -2.86767 0
M  V30 4421 O 472.286 -3.56009 -2.55321 0
M  V30 4422 C 473.787 -2.26636 -3.80987 0
M  V30 4423 H 471.007 -0.465967 -0.482821 0
M  V30 4424 H 473.551 -1.80901 -0.953686 0
M  V30 4425 H 471.706 -1.78768 -3.43687 0
M  V30 4426 H 472.12 -4.0009 -3.39158 0
M  V30 4427 H 473.594 -2.89763 -4.69831 0
M  V30 4428 H 474.071 -1.2754 -4.20274 0
M  V30 4429 H 474.677 -2.68296 -3.29996 0
M  V30 4430 N 472.992 0.995999 -1.22138 0
M  V30 4431 C 473.902 2.11985 -1.00496 0
M  V30 4432 C 474.918 1.7394 0.0457701 0
M  V30 4433 O 476.094 2.00868 -0.146273 0
M  V30 4434 C 473.159 3.41779 -0.582086 0
M  V30 4435 C 472.22 3.93943 -1.70608 0
M  V30 4436 C 471.453 5.17542 -1.30328 0
M  V30 4437 O 471.676 5.70114 -0.180743 0
M  V30 4438 O 470.61 5.63382 -2.11861 0
M  V30 4439 H 474.436 2.33123 -1.94647 0
M  V30 4440 H 472.021 1.10358 -1.00705 0
M  V30 4441 H 473.903 4.1989 -0.356467 0
M  V30 4442 H 472.578 3.22007 0.330592 0
M  V30 4443 H 471.485 3.17019 -1.98619 0
M  V30 4444 H 472.818 4.18141 -2.59651 0
M  V30 4445 N 474.47 1.03057 1.19235 0
M  V30 4446 C 475.718 0.726581 1.88587 0
M  V30 4447 C 476.039 -0.747227 1.80115 0
M  V30 4448 O 475.309 -1.53849 1.21274 0
M  V30 4449 H 473.889 0.265768 0.698124 0
M  V30 4450 H 476.551 1.30516 1.44746 0
M  V30 4451 H 475.647 1.0224 2.94879 0
M  V30 4452 N 475.948 -1.35272 0.808662 0
M  V30 4453 C 476.895 -2.29764 0.218482 0
M  V30 4454 C 477.865 -1.52911 -0.648652 0
M  V30 4455 O 479.05 -1.81341 -0.593297 0
M  V30 4456 C 476.19 -3.39388 -0.625282 0
M  V30 4457 C 475.303 -4.31202 0.262516 0
M  V30 4458 C 474.438 -5.27919 -0.589451 0
M  V30 4459 C 473.477 -6.11371 0.298617 0
M  V30 4460 N 472.614 -7.0022 -0.513443 0
M  V30 4461 H 477.454 -2.79645 1.02968 0
M  V30 4462 H 474.991 -1.37629 0.519303 0
M  V30 4463 H 476.949 -4.01615 -1.12966 0
M  V30 4464 H 475.579 -2.90777 -1.40173 0
M  V30 4465 H 474.631 -3.69962 0.885013 0
M  V30 4466 H 475.943 -4.89748 0.945971 0
M  V30 4467 H 475.097 -5.95529 -1.15888 0
M  V30 4468 H 473.836 -4.69875 -1.30647 0
M  V30 4469 H 472.841 -5.42707 0.880301 0
M  V30 4470 H 474.066 -6.71494 1.01352 0
M  V30 4471 H 472.012 -6.44662 -1.21439 0
M  V30 4472 H 471.929 -7.55917 0.111922 0
M  V30 4473 H 473.197 -7.72175 -1.06608 0
M  V30 4474 N 477.426 -0.562348 -1.47226 0
M  V30 4475 C 478.673 -0.0402165 -2.0246 0
M  V30 4476 C 479.001 1.31169 -1.43614 0
M  V30 4477 O 478.256 1.86805 -0.5833 0
M  V30 4478 C 478.555 0.0969817 -3.57268 0
M  V30 4479 C 478.221 -1.1847 -4.35058 0
M  V30 4480 C 476.883 -1.53588 -4.56031 0
M  V30 4481 C 479.235 -2.03378 -4.79882 0
M  V30 4482 C 476.563 -2.73452 -5.19077 0
M  V30 4483 C 478.915 -3.2245 -5.44251 0
M  V30 4484 C 477.579 -3.57876 -5.63455 0
M  V30 4485 H 476.849 -0.0147163 -0.740854 0
M  V30 4486 H 479.496 -0.734895 -1.76838 0
M  V30 4487 H 477.801 0.87466 -3.81912 0
M  V30 4488 H 479.498 0.516408 -3.97661 0
M  V30 4489 H 476.088 -0.90126 -4.19017 0
M  V30 4490 H 480.272 -1.77553 -4.63453 0
M  V30 4491 H 475.528 -3.01062 -5.32139 0
M  V30 4492 H 479.702 -3.88526 -5.77945 0
M  V30 4493 H 477.329 -4.50849 -6.12078 0
M  V30 4494 N 478.904 1.54736 -0.299062 0
M  V30 4495 C 480.132 2.04512 0.313447 0
M  V30 4496 C 480.547 1.17643 1.47667 0
M  V30 4497 O 479.904 0.20164 1.81383 0
M  V30 4498 C 479.955 3.53171 0.771542 0
M  V30 4499 O 479.676 4.36736 -0.345379 0
M  V30 4500 C 481.177 4.18936 1.4494 0
M  V30 4501 H 478.397 0.667507 0.0683784 0
M  V30 4502 H 480.941 1.99752 -0.438129 0
M  V30 4503 H 479.096 3.58298 1.47314 0
M  V30 4504 H 479.51 5.24499 0.0109219 0
M  V30 4505 H 480.984 5.24482 1.72111 0
M  V30 4506 H 481.461 3.68554 2.38883 0
M  V30 4507 H 482.067 4.17879 0.791028 0
M  V30 4508 N 480.382 0.0267497 1.57577 0
M  V30 4509 C 481.612 -0.6617 1.95717 0
M  V30 4510 C 482.02 -1.66331 0.901706 0
M  V30 4511 O 481.363 -1.83273 -0.125241 0
M  V30 4512 C 481.425 -1.42649 3.29987 0
M  V30 4513 C 481.089 -0.583482 4.5326 0
M  V30 4514 C 482.086 0.140221 5.19711 0
M  V30 4515 C 479.771 -0.521581 4.99585 0
M  V30 4516 C 481.765 0.914523 6.30805 0
M  V30 4517 C 479.452 0.256428 6.10562 0
M  V30 4518 C 480.45 0.973189 6.76031 0
M  V30 4519 O 480.138 1.73845 7.84878 0
M  V30 4520 H 479.87 -0.187483 0.649481 0
M  V30 4521 H 482.424 0.0820847 2.05236 0
M  V30 4522 H 480.654 -2.21536 3.16952 0
M  V30 4523 H 482.343 -2.00282 3.53047 0
M  V30 4524 H 483.109 0.101716 4.84893 0
M  V30 4525 H 478.988 -1.06904 4.48433 0
M  V30 4526 H 482.532 1.4745 6.81839 0
M  V30 4527 H 478.429 0.296657 6.44818 0
M  V30 4528 H 479.197 1.65797 8.01532 0
M  V30 4529 N 481.861 -1.55662 -0.24637 0
M  V30 4530 C 483.272 -1.67953 -0.81539 0
M  V30 4531 C 483.623 -0.624302 -1.86002 0
M  V30 4532 O 482.748 0.229328 -2.15181 0
M  V30 4533 C 483.343 -3.04484 -1.48576 0
M  V30 4534 C 481.902 -3.18713 -2.00248 0
M  V30 4535 C 481.049 -2.6383 -0.853766 0
M  V30 4536 H 484 -1.58685 -0.0221692 0
M  V30 4537 H 484.021 -2.98959 -2.3538 0
M  V30 4538 H 483.533 -3.81264 -0.725222 0
M  V30 4539 H 481.634 -2.46757 -2.79181 0
M  V30 4540 H 481.747 -4.25628 -2.1995 0
M  V30 4541 H 480.111 -2.21667 -1.25442 0
M  V30 4542 H 480.894 -3.43135 -0.106302 0
M  V30 4543 N 483.339 0.512053 -1.4905 0
M  V30 4544 C 484.567 1.29116 -1.61669 0
M  V30 4545 C 484.982 1.86655 -0.283787 0
M  V30 4546 O 484.339 1.67293 0.729331 0
M  V30 4547 C 484.39 2.4293 -2.67707 0
M  V30 4548 O 484.111 1.87758 -3.95826 0
M  V30 4549 C 485.612 3.34476 -2.90931 0
M  V30 4550 H 482.832 0.392009 -0.544583 0
M  V30 4551 H 485.376 0.615881 -1.95006 0
M  V30 4552 H 483.531 3.06308 -2.37179 0
M  V30 4553 H 483.945 2.62393 -4.54148 0
M  V30 4554 H 485.419 4.10642 -3.68886 0
M  V30 4555 H 485.896 3.90801 -2.00427 0
M  V30 4556 H 486.502 2.76874 -3.22832 0
M  V30 4557 N 484.817 1.37938 0.762283 0
M  V30 4558 C 486.065 1.33404 1.51815 0
M  V30 4559 C 486.386 -0.0780975 1.94844 0
M  V30 4560 O 485.656 -1.02405 1.67003 0
M  V30 4561 H 484.236 0.490839 0.563104 0
M  V30 4562 H 486.898 1.72527 0.906669 0
M  V30 4563 H 485.994 1.97926 2.41313 0
M  V30 4564 N 486.295 -0.989507 1.22664 0
M  V30 4565 C 487.205 -2.11449 1.01619 0
M  V30 4566 C 488.221 -1.73962 -0.036545 0
M  V30 4567 O 489.397 -2.00788 0.156924 0
M  V30 4568 C 486.462 -3.41465 0.600204 0
M  V30 4569 C 485.523 -3.93033 1.72695 0
M  V30 4570 C 484.756 -5.16844 1.33071 0
M  V30 4571 O 484.979 -5.7001 0.210975 0
M  V30 4572 O 483.913 -5.6225 2.14845 0
M  V30 4573 H 487.739 -2.32088 1.9588 0
M  V30 4574 H 485.324 -1.09823 1.01289 0
M  V30 4575 H 487.206 -4.19695 0.37873 0
M  V30 4576 H 485.881 -3.22178 -0.313511 0
M  V30 4577 H 484.788 -3.15961 2.00298 0
M  V30 4578 H 486.121 -4.16758 2.61865 0
M  V30 4579 N 487.773 -1.03688 -1.18687 0
M  V30 4580 C 488.998 -0.757819 -1.93059 0
M  V30 4581 C 489.423 0.678353 -1.75442 0
M  V30 4582 O 488.781 1.46938 -1.06203 0
M  V30 4583 C 488.829 -1.12423 -3.42627 0
M  V30 4584 O 487.933 -0.247505 -4.11657 0
M  V30 4585 H 487.274 -0.279245 -0.602427 0
M  V30 4586 H 489.804 -1.3857 -1.5053 0
M  V30 4587 H 489.814 -1.08454 -3.93322 0
M  V30 4588 H 488.489 -2.17049 -3.54771 0
M  V30 4589 H 487.066 -0.34649 -3.71287 0
M  V30 4590 N 489.251 1.34841 -0.815825 0
M  V30 4591 C 490.181 2.32187 -0.247298 0
M  V30 4592 C 491.162 1.5791 0.632344 0
M  V30 4593 O 492.347 1.8593 0.560698 0
M  V30 4594 C 489.477 3.42122 0.597466 0
M  V30 4595 C 488.431 4.27602 -0.184446 0
M  V30 4596 C 487.757 5.28942 0.782609 0
M  V30 4597 C 489.057 5.03502 -1.38865 0
M  V30 4598 H 490.751 2.79985 -1.06061 0
M  V30 4599 H 488.297 1.34611 -0.511461 0
M  V30 4600 H 490.25 4.09232 1.00533 0
M  V30 4601 H 488.974 2.92956 1.44376 0
M  V30 4602 H 487.633 3.62085 -0.573592 0
M  V30 4603 H 487.281 4.7604 1.62466 0
M  V30 4604 H 486.981 5.87008 0.263695 0
M  V30 4605 H 488.505 5.98922 1.18848 0
M  V30 4606 H 489.919 5.63506 -1.05518 0
M  V30 4607 H 488.316 5.71108 -1.8427 0
M  V30 4608 H 489.386 4.33608 -2.17054 0
M  V30 4609 N 490.729 0.570148 1.46925 0
M  V30 4610 C 491.975 0.0510284 2.02736 0
M  V30 4611 C 492.308 -1.3006 1.44215 0
M  V30 4612 O 491.583 -1.84932 0.602521 0
M  V30 4613 C 491.866 -0.028215 3.60089 0
M  V30 4614 C 491.719 1.35142 4.29018 0
M  V30 4615 C 493.038 -0.735181 4.33916 0
M  V30 4616 H 490.157 0.0200178 0.736728 0
M  V30 4617 H 492.799 0.73493 1.75211 0
M  V30 4618 H 490.949 -0.610648 3.83671 0
M  V30 4619 H 492.621 1.97806 4.16738 0
M  V30 4620 H 490.864 1.9226 3.88868 0
M  V30 4621 H 491.535 1.24857 5.37694 0
M  V30 4622 H 494.011 -0.240519 4.15404 0
M  V30 4623 H 492.887 -0.759622 5.43618 0
M  V30 4624 H 493.148 -1.79397 4.04066 0
M  V30 4625 N 492.207 -1.54576 0.307264 0
M  V30 4626 C 493.437 -2.04378 -0.302158 0
M  V30 4627 C 493.845 -1.18381 -1.47589 0
M  V30 4628 O 493.188 -0.20352 -1.82569 0
M  V30 4629 C 493.25 -3.50133 -0.815305 0
M  V30 4630 C 492.914 -4.56401 0.233977 0
M  V30 4631 C 493.911 -5.08884 1.06456 0
M  V30 4632 C 491.596 -5.0088 0.377478 0
M  V30 4633 C 493.59 -6.04394 2.02452 0
M  V30 4634 C 491.277 -5.96208 1.34088 0
M  V30 4635 C 492.275 -6.47849 2.16288 0
M  V30 4636 O 491.963 -7.41308 3.10994 0
M  V30 4637 H 491.695 -0.672502 -0.0686839 0
M  V30 4638 H 494.249 -2.00484 0.446682 0
M  V30 4639 H 492.479 -3.51371 -1.61478 0
M  V30 4640 H 494.168 -3.83098 -1.34129 0
M  V30 4641 H 494.934 -4.75311 0.964596 0
M  V30 4642 H 490.813 -4.60309 -0.252405 0
M  V30 4643 H 494.357 -6.44626 2.66652 0
M  V30 4644 H 490.254 -6.29198 1.44154 0
M  V30 4645 H 491.022 -7.5913 3.06045 0
M  V30 4646 N 493.685 -0.035106 -1.57561 0
M  V30 4647 C 494.91 0.655802 -1.96759 0
M  V30 4648 C 495.335 1.64523 -0.911809 0
M  V30 4649 O 494.693 1.80857 0.126673 0
M  V30 4650 C 494.741 1.33326 -3.35047 0
M  V30 4651 O 493.845 2.44866 -3.31835 0
M  V30 4652 H 493.186 0.171807 -0.641388 0
M  V30 4653 H 495.716 -0.0987369 -2.04362 0
M  V30 4654 H 495.726 1.68867 -3.71413 0
M  V30 4655 H 494.401 0.608033 -4.11431 0
M  V30 4656 H 492.978 2.11392 -3.07193 0
M  V30 4657 N 495.163 1.55791 0.238111 0
M  V30 4658 C 496.111 1.91885 1.31464 0
M  V30 4659 C 497.105 0.798929 1.49377 0
M  V30 4660 O 498.311 0.983626 1.50747 0
M  V30 4661 H 494.686 0.609551 0.440399 0
M  V30 4662 H 496.657 2.81747 0.982925 0
M  V30 4663 C 495.406 2.23763 2.6613 0
M  V30 4664 H 494.729 3.09444 2.53149 0
M  V30 4665 H 496.169 2.52915 3.40309 0
M  V30 4666 C 494.628 1.05699 3.1989 0
M  V30 4667 O 495.158 0.309524 4.00506 0
M  V30 4668 N 493.364 0.845251 2.78036 0
M  V30 4669 H 492.911 1.4548 2.12588 0
M  V30 4670 H 492.869 0.0569973 3.14348 0
M  V30 4671 N 496.642 -0.504142 1.49319 0
M  V30 4672 C 497.888 -1.25767 1.59857 0
M  V30 4673 C 498.243 -1.90348 0.280262 0
M  V30 4674 O 497.536 -1.77588 -0.719241 0
M  V30 4675 C 497.73 -2.35021 2.69258 0
M  V30 4676 C 497.559 -1.81154 4.11598 0
M  V30 4677 C 496.329 -1.62596 4.78425 0
M  V30 4678 C 498.527 -1.3252 4.96934 0
M  V30 4679 N 496.509 -1.03625 6.05091 0
M  V30 4680 C 497.88 -0.856633 6.14054 0
M  V30 4681 C 499.935 -1.21063 4.82958 0
M  V30 4682 C 498.638 -0.284841 7.18736 0
M  V30 4683 C 500.664 -0.652815 5.87786 0
M  V30 4684 C 500.026 -0.194461 7.04132 0
M  V30 4685 H 496.125 -0.450293 0.639343 0
M  V30 4686 H 498.709 -0.565344 1.86311 0
M  V30 4687 H 496.88 -3.01719 2.44581 0
M  V30 4688 H 498.612 -3.02061 2.69335 0
M  V30 4689 H 495.367 -1.86873 4.35173 0
M  V30 4690 H 495.791 -0.76076 6.72712 0
M  V30 4691 H 500.433 -1.551 3.93324 0
M  V30 4692 H 498.151 0.0677979 8.08072 0
M  V30 4693 H 501.737 -0.566994 5.79031 0
M  V30 4694 H 500.617 0.230442 7.83861 0
M  V30 4695 N 498.12 -1.38341 -0.754957 0
M  V30 4696 C 499.083 -1.35262 -1.85032 0
M  V30 4697 C 500.083 -0.253393 -1.58791 0
M  V30 4698 O 501.273 -0.510205 -1.66561 0
M  V30 4699 C 498.405 -1.10544 -3.22479 0
M  V30 4700 H 499.598 -2.32712 -1.8917 0
M  V30 4701 H 497.151 -1.23614 -0.956515 0
M  V30 4702 H 497.886 -0.136952 -3.24011 0
M  V30 4703 H 497.671 -1.90127 -3.4292 0
M  V30 4704 H 499.161 -1.11082 -4.02555 0
M  V30 4705 N 499.598 0.982988 -1.23187 0
M  V30 4706 C 501.009 1.53847 -1.05773 0
M  V30 4707 C 501.36 1.92568 0.375744 0
M  V30 4708 O 500.485 1.75783 1.26211 0
M  V30 4709 C 501.08 2.79567 -1.91384 0
M  V30 4710 C 499.639 3.31524 -1.78238 0
M  V30 4711 C 498.786 2.04534 -1.87246 0
M  V30 4712 H 501.737 0.802962 -1.36888 0
M  V30 4713 H 501.758 3.52317 -1.43711 0
M  V30 4714 H 501.27 2.51353 -2.95708 0
M  V30 4715 H 499.371 3.64623 -0.766875 0
M  V30 4716 H 499.484 4.01457 -2.61475 0
M  V30 4717 H 497.848 2.1855 -1.30797 0
M  V30 4718 H 498.631 1.78706 -2.9312 0
M  V30 4719 N 501.076 1.04316 1.18135 0
M  V30 4720 C 502.324 0.746542 1.87806 0
M  V30 4721 C 502.645 -0.728082 1.80898 0
M  V30 4722 O 501.915 -1.52554 1.22899 0
M  V30 4723 H 500.495 0.273157 0.695265 0
M  V30 4724 H 503.157 1.32044 1.43354 0
M  V30 4725 H 502.253 1.05362 2.93778 0
M  V30 4726 N 502.554 -1.34406 0.822964 0
M  V30 4727 C 503.464 -2.33298 0.246838 0
M  V30 4728 C 504.48 -1.62625 -0.618797 0
M  V30 4729 O 505.656 -1.94391 -0.526685 0
M  V30 4730 C 502.721 -3.41785 -0.581731 0
M  V30 4731 C 501.782 -4.28206 0.306309 0
M  V30 4732 C 501.015 -5.31512 -0.48281 0
M  V30 4733 O 501.238 -5.43973 -1.71607 0
M  V30 4734 O 500.172 -6.01749 0.134884 0
M  V30 4735 H 503.998 -2.84401 1.06534 0
M  V30 4736 H 501.583 -1.37466 0.585108 0
M  V30 4737 H 503.465 -4.08028 -1.05313 0
M  V30 4738 H 502.14 -2.92925 -1.37756 0
M  V30 4739 H 501.047 -3.64885 0.825199 0
M  V30 4740 H 502.38 -4.80507 1.06649 0
M  V30 4741 N 504.032 -0.577932 -1.46621 0
M  V30 4742 C 505.443 -0.150071 -1.86096 0
M  V30 4743 C 505.794 1.28563 -1.48209 0
M  V30 4744 O 504.919 1.97036 -0.894754 0
M  V30 4745 C 505.514 -0.265576 -3.37758 0
M  V30 4746 C 504.073 0.10738 -3.76247 0
M  V30 4747 C 503.22 -0.603711 -2.70649 0
M  V30 4748 H 506.171 -0.786438 -1.37844 0
M  V30 4749 H 506.192 0.510352 -3.77062 0
M  V30 4750 H 505.704 -1.3106 -3.65301 0
M  V30 4751 H 503.805 1.15272 -3.54321 0
M  V30 4752 H 503.918 -0.26561 -4.78363 0
M  V30 4753 H 502.282 -0.0444884 -2.54661 0
M  V30 4754 H 503.065 -1.65029 -3.01032 0
M  V30 4755 N 505.51 1.54411 -0.315457 0
M  V30 4756 C 506.458 2.25514 0.569771 0
M  V30 4757 C 507.452 1.2663 1.12522 0
M  V30 4758 O 508.658 1.44434 1.07419 0
M  V30 4759 H 505.033 0.724257 0.202376 0
M  V30 4760 H 507.004 2.98354 -0.0522895 0
M  V30 4761 C 505.753 3.02004 1.72305 0
M  V30 4762 H 505.076 3.77906 1.30488 0
M  V30 4763 H 506.516 3.55014 2.31821 0
M  V30 4764 C 504.975 2.09822 2.63583 0
M  V30 4765 O 505.505 1.67574 3.65078 0
M  V30 4766 N 503.711 1.75478 2.31637 0
M  V30 4767 H 503.258 2.10032 1.49145 0
M  V30 4768 H 503.216 1.14079 2.92973 0
M  V30 4769 N 506.988 0.0434614 1.5754 0
M  V30 4770 C 508.265 -0.671479 1.83713 0
M  V30 4771 C 508.645 -1.89495 0.930315 0
M  V30 4772 O 507.993 -2.28498 -0.0105639 0
M  V30 4773 C 508.203 -1.0361 3.33266 0
M  V30 4774 C 509.551 -1.42167 4.00092 0
M  V30 4775 O 510.575 -1.12866 3.37846 0
M  V30 4776 O 509.434 -1.96817 5.09829 0
M  V30 4777 H 506.528 -0.330726 0.75799 0
M  V30 4778 H 509.074 0.0722373 1.69546 0
M  V30 4779 H 507.846 -0.165938 3.90948 0
M  V30 4780 H 507.469 -1.83751 3.52592 0
M  V30 4781 N 508.466 -1.55915 -0.229846 0
M  V30 4782 C 509.743 -1.6932 -0.979295 0
M  V30 4783 C 510.123 -0.588321 -2.02736 0
M  V30 4784 O 509.471 0.40586 -2.24867 0
M  V30 4785 C 509.681 -3.10305 -1.59724 0
M  V30 4786 C 511.029 -3.6945 -2.09264 0
M  V30 4787 O 512.053 -3.13214 -1.69633 0
M  V30 4788 O 510.912 -4.68072 -2.82082 0
M  V30 4789 H 508.006 -0.689314 -0.456919 0
M  V30 4790 H 510.552 -1.68238 -0.222283 0
M  V30 4791 H 509.324 -3.82177 -0.840039 0
M  V30 4792 H 508.947 -3.1547 -2.42001 0
M  V30 4793 N 509.944 0.496216 -1.49584 0
M  V30 4794 C 511.192 1.24756 -1.58998 0
M  V30 4795 C 511.513 1.92968 -0.280775 0
M  V30 4796 O 510.783 1.82959 0.700198 0
M  V30 4797 H 509.363 0.463471 -0.585836 0
M  V30 4798 H 512.025 0.574678 -1.86235 0
M  V30 4799 H 511.121 2.00895 -2.38847 0
M  V30 4800 N 511.423 1.38739 0.74761 0
M  V30 4801 C 512.671 1.35007 1.50391 0
M  V30 4802 C 512.992 -0.0574274 1.94915 0
M  V30 4803 O 512.262 -1.00628 1.6808 0
M  V30 4804 H 510.842 0.496784 0.557866 0
M  V30 4805 H 513.504 1.73479 0.888319 0
M  V30 4806 H 512.6 2.00474 2.392 0
M  V30 4807 N 512.901 -0.976442 1.23707 0
M  V30 4808 C 514.126 -1.75875 1.09922 0
M  V30 4809 C 514.551 -1.84911 -0.34489 0
M  V30 4810 O 513.909 -1.31363 -1.24954 0
M  V30 4811 C 513.957 -3.16179 1.73388 0
M  V30 4812 O 513.061 -4.00124 0.99871 0
M  V30 4813 H 512.402 -0.540954 0.385052 0
M  V30 4814 H 514.932 -1.22546 1.6384 0
M  V30 4815 H 514.942 -3.66741 1.78788 0
M  V30 4816 H 513.617 -3.08917 2.78466 0
M  V30 4817 H 512.194 -3.58624 1.02193 0
M  V30 4818 N 514.379 -1.04941 -1.1758 0
M  V30 4819 C 515.289 -0.658826 -2.25159 0
M  V30 4820 C 516.305 0.318941 -1.71052 0
M  V30 4821 O 517.481 0.171669 -2.00667 0
M  V30 4822 C 514.546 -0.0369522 -3.4668 0
M  V30 4823 C 513.607 -1.06484 -4.15884 0
M  V30 4824 C 512.84 -0.472551 -5.31604 0
M  V30 4825 O 513.063 0.718736 -5.65854 0
M  V30 4826 O 511.997 -1.20557 -5.89703 0
M  V30 4827 H 515.823 -1.55533 -2.60851 0
M  V30 4828 H 513.408 -0.820819 -1.24832 0
M  V30 4829 H 515.29 0.308784 -4.20267 0
M  V30 4830 H 513.965 0.833238 -3.12792 0
M  V30 4831 H 512.872 -1.46253 -3.44327 0
M  V30 4832 H 514.205 -1.9061 -4.53794 0
M  V30 4833 N 515.857 1.33968 -0.830081 0
M  V30 4834 C 517.134 1.92554 -0.343858 0
M  V30 4835 C 517.514 1.7573 1.16971 0
M  V30 4836 O 516.862 1.14035 1.98011 0
M  V30 4837 C 517.072 3.40147 -0.781073 0
M  V30 4838 C 518.42 4.17299 -0.78402 0
M  V30 4839 O 519.444 3.48762 -0.724112 0
M  V30 4840 O 518.303 5.39631 -0.863739 0
M  V30 4841 H 515.397 0.821469 -0.0954827 0
M  V30 4842 H 517.943 1.42897 -0.915348 0
M  V30 4843 H 516.715 3.46225 -1.82329 0
M  V30 4844 H 516.338 3.97166 -0.18567 0
M  V30 4845 N 517.335 0.585699 1.46312 0
M  V30 4846 C 518.575 0.0751432 2.04262 0
M  V30 4847 C 518.939 -1.26201 1.44697 0
M  V30 4848 O 520.14 -1.86198 1.93865 0
M  V30 4849 C 518.411 0.013478 3.57397 0
M  V30 4850 S 519.97 -0.439068 4.36598 0
M  V30 4851 H 516.788 0.0389228 0.709934 0
M  V30 4852 H 519.39 0.778871 1.79315 0
M  V30 4853 H 518.094 0.990558 3.98266 0
M  V30 4854 H 517.625 -0.712927 3.86886 0
M  V30 4855 H 519.64 -1.6932 4.66417 0
M  V30 4856 N 518.813 -1.54241 0.323641 0
M  V30 4857 C 520.059 -2.00867 -0.279323 0
M  V30 4858 C 520.392 -1.21146 -1.5178 0
M  V30 4859 O 519.667 -0.29378 -1.92269 0
M  V30 4860 C 519.95 -3.54837 -0.613387 0
M  V30 4861 C 519.803 -4.45284 0.635803 0
M  V30 4862 C 521.122 -4.16186 -1.43099 0
M  V30 4863 H 518.241 -0.730177 -0.100049 0
M  V30 4864 H 520.883 -1.84829 0.440235 0
M  V30 4865 H 519.033 -3.68634 -1.22641 0
M  V30 4866 H 520.705 -4.43357 1.27406 0
M  V30 4867 H 518.948 -4.14956 1.26466 0
M  V30 4868 H 519.619 -5.5084 0.357597 0
M  V30 4869 H 522.095 -4.05964 -0.912814 0
M  V30 4870 H 520.971 -5.24031 -1.6335 0
M  V30 4871 H 521.232 -3.69516 -2.42715 0
M  V30 4872 N 520.291 -0.0518155 -1.57515 0
M  V30 4873 C 521.201 0.937539 -2.15052 0
M  V30 4874 C 522.217 1.34121 -1.10849 0
M  V30 4875 O 523.393 1.418 -1.4302 0
M  V30 4876 C 520.458 2.19379 -2.68466 0
M  V30 4877 C 519.519 1.84841 -3.87469 0
M  V30 4878 C 518.752 3.04477 -4.38326 0
M  V30 4879 O 518.975 4.17868 -3.88256 0
M  V30 4880 O 517.909 2.85453 -5.29906 0
M  V30 4881 H 521.735 0.478201 -2.99912 0
M  V30 4882 H 519.32 0.17012 -1.48428 0
M  V30 4883 H 521.202 2.93084 -3.02787 0
M  V30 4884 H 519.877 2.64449 -1.86677 0
M  V30 4885 H 518.784 1.08449 -3.58036 0
M  V30 4886 H 520.117 1.44569 -4.7049 0
M  V30 4887 N 521.769 1.56035 0.221574 0
M  V30 4888 C 523.018 1.78245 0.944016 0
M  V30 4889 C 523.331 0.620371 1.85501 0
M  V30 4890 O 524.537 0.726103 2.6161 0
M  V30 4891 C 522.993 3.15659 1.7288 0
M  V30 4892 C 522.601 4.39591 0.863942 0
M  V30 4893 C 524.345 3.47195 2.44246 0
M  V30 4894 C 522.252 5.6803 1.64607 0
M  V30 4895 H 521.182 0.664547 0.356222 0
M  V30 4896 H 523.833 1.8243 0.197904 0
M  V30 4897 H 522.215 3.0565 2.51781 0
M  V30 4898 H 523.389 4.60655 0.115464 0
M  V30 4899 H 521.704 4.15572 0.262407 0
M  V30 4900 H 524.301 4.40381 3.03263 0
M  V30 4901 H 524.644 2.69693 3.1713 0
M  V30 4902 H 525.177 3.58533 1.72334 0
M  V30 4903 H 521.916 6.48425 0.960507 0
M  V30 4904 H 521.436 5.51027 2.36917 0
M  V30 4905 H 523.115 6.08203 2.20675 0
M  V30 4906 N 523.247 -0.488276 1.49845 0
M  V30 4907 C 524.494 -1.24157 1.59973 0
M  V30 4908 C 524.822 -1.92293 0.292182 0
M  V30 4909 O 524.077 -1.81942 -0.720813 0
M  V30 4910 C 524.376 -2.32152 2.71735 0
M  V30 4911 C 524.042 -1.81387 4.12807 0
M  V30 4912 C 522.704 -1.67262 4.51195 0
M  V30 4913 C 525.056 -1.43537 5.01045 0
M  V30 4914 C 522.384 -1.13685 5.7558 0
M  V30 4915 C 524.736 -0.914081 6.25961 0
M  V30 4916 C 523.4 -0.759327 6.63167 0
M  V30 4917 H 522.67 -0.454322 0.585383 0
M  V30 4918 H 525.317 -0.540261 1.83721 0
M  V30 4919 H 523.622 -3.08122 2.42008 0
M  V30 4920 H 525.319 -2.90164 2.76778 0
M  V30 4921 H 521.909 -1.93344 3.82513 0
M  V30 4922 H 526.093 -1.53292 4.72033 0
M  V30 4923 H 521.349 -1.00426 6.03096 0
M  V30 4924 H 525.523 -0.612066 6.93705 0
M  V30 4925 H 523.15 -0.342002 7.5943 0
M  V30 4926 N 524.725 -1.39134 -0.740242 0
M  V30 4927 C 525.953 -1.39334 -1.5295 0
M  V30 4928 C 526.368 0.0135008 -1.88795 0
M  V30 4929 O 525.725 0.983524 -1.5373 0
M  V30 4930 C 525.776 -2.2614 -2.82034 0
M  V30 4931 O 525.497 -3.61345 -2.47712 0
M  V30 4932 C 526.998 -2.34666 -3.76094 0
M  V30 4933 H 524.218 -0.476103 -0.472828 0
M  V30 4934 H 526.762 -1.82883 -0.9151 0
M  V30 4935 H 524.917 -1.86018 -3.39818 0
M  V30 4936 H 525.331 -4.07194 -3.30595 0
M  V30 4937 H 526.805 -2.99663 -4.63579 0
M  V30 4938 H 527.282 -1.36426 -4.17474 0
M  V30 4939 H 527.888 -2.75236 -3.2423 0
M  V30 4940 N 526.204 0.969867 -1.24223 0
M  V30 4941 C 527.152 2.08535 -1.03034 0
M  V30 4942 C 528.146 1.69366 0.0340379 0
M  V30 4943 O 529.352 1.79597 -0.12034 0
M  V30 4944 H 525.727 0.682313 -0.316154 0
M  V30 4945 H 527.698 2.23569 -1.97635 0
M  V30 4946 C 526.447 3.4158 -0.649509 0
M  V30 4947 H 525.77 3.72177 -1.46028 0
M  V30 4948 H 527.21 4.20536 -0.540841 0
M  V30 4949 C 525.669 3.30703 0.643194 0
M  V30 4950 O 526.199 3.64443 1.68951 0
M  V30 4951 N 524.405 2.83841 0.623095 0
M  V30 4952 H 523.952 2.56583 -0.228719 0
M  V30 4953 H 523.91 2.76946 1.48823 0
M  V30 4954 N 527.682 1.05563 1.17022 0
M  V30 4955 C 528.93 0.76642 1.87004 0
M  V30 4956 C 529.251 -0.708854 1.8166 0
M  V30 4957 O 528.521 -1.51242 1.2451 0
M  V30 4958 H 527.101 0.280516 0.692329 0
M  V30 4959 H 529.763 1.33557 1.41945 0
M  V30 4960 H 528.859 1.08472 2.92644 0
M  V30 4961 N 529.16 -1.33526 0.837174 0
M  V30 4962 C 530.107 -2.29248 0.267169 0
M  V30 4963 C 531.077 -1.54252 -0.616071 0
M  V30 4964 O 532.262 -1.82559 -0.554699 0
M  V30 4965 C 529.402 -3.40638 -0.553152 0
M  V30 4966 C 528.515 -4.30548 0.353921 0
M  V30 4967 C 527.65 -5.29051 -0.477339 0
M  V30 4968 C 526.689 -6.106 0.42823 0
M  V30 4969 N 525.826 -7.01152 -0.364801 0
M  V30 4970 H 530.666 -2.77398 1.08877 0
M  V30 4971 H 528.203 -1.36496 0.54838 0
M  V30 4972 H 530.161 -4.03921 -1.04422 0
M  V30 4973 H 528.791 -2.93685 -1.33973 0
M  V30 4974 H 527.843 -3.68001 0.963289 0
M  V30 4975 H 529.155 -4.87631 1.04964 0
M  V30 4976 H 528.309 -5.97853 -1.0323 0
M  V30 4977 H 527.048 -4.72541 -1.2065 0
M  V30 4978 H 526.053 -5.40718 0.995219 0
M  V30 4979 H 527.278 -6.69193 1.15573 0
M  V30 4980 H 525.224 -6.47092 -1.07738 0
M  V30 4981 H 525.141 -7.5551 0.272238 0
M  V30 4982 H 526.409 -7.74263 -0.902054 0
M  V30 4983 N 530.638 -0.59345 -1.46 0
M  V30 4984 C 531.884 -0.0916503 -2.03193 0
M  V30 4985 C 532.239 1.25839 -1.45541 0
M  V30 4986 O 531.532 1.81455 -0.615191 0
M  V30 4987 C 531.726 0.021178 -3.57394 0
M  V30 4988 C 531.555 -1.31638 -4.30002 0
M  V30 4989 C 530.325 -1.89336 -4.68487 0
M  V30 4990 C 532.523 -2.242 -4.62859 0
M  V30 4991 N 530.505 -3.1672 -5.25891 0
M  V30 4992 C 531.876 -3.36175 -5.20948 0
M  V30 4993 C 533.931 -2.23748 -4.44794 0
M  V30 4994 C 532.634 -4.47844 -5.62875 0
M  V30 4995 C 534.66 -3.34454 -4.87744 0
M  V30 4996 C 534.022 -4.4515 -5.45913 0
M  V30 4997 H 530.121 -0.0765713 -0.778242 0
M  V30 4998 H 532.705 -0.788705 -1.7801 0
M  V30 4999 H 530.876 0.687423 -3.82268 0
M  V30 5000 H 532.608 0.528343 -4.01236 0
M  V30 5001 H 529.363 -1.42704 -4.51589 0
M  V30 5002 H 529.787 -3.81746 -5.59106 0
M  V30 5003 H 534.429 -1.39433 -3.99147 0
M  V30 5004 H 532.147 -5.32894 -6.07495 0
M  V30 5005 H 535.733 -3.35234 -4.75509 0
M  V30 5006 H 534.613 -5.29398 -5.78539 0
M  V30 5007 N 532.116 1.54067 -0.331816 0
M  V30 5008 C 533.064 2.26105 0.54582 0
M  V30 5009 C 534.058 1.27816 1.11173 0
M  V30 5010 O 535.264 1.45565 1.05882 0
M  V30 5011 H 531.639 0.726363 0.194683 0
M  V30 5012 H 533.61 2.98282 -0.083931 0
M  V30 5013 C 532.359 3.03814 1.69092 0
M  V30 5014 H 531.682 3.79269 1.26473 0
M  V30 5015 H 533.122 3.57453 2.28043 0
M  V30 5016 C 531.581 2.12606 2.61343 0
M  V30 5017 O 532.111 1.71437 3.6328 0
M  V30 5018 N 530.317 1.77925 2.29763 0
M  V30 5019 H 529.864 2.11602 1.46909 0
M  V30 5020 H 529.822 1.1718 2.91747 0
M  V30 5021 N 533.594 0.0601682 1.57485 0
M  V30 5022 C 534.871 -0.651956 1.84415 0
M  V30 5023 C 535.251 -1.88498 0.950361 0
M  V30 5024 O 534.599 -2.28496 0.0136719 0
M  V30 5025 C 534.809 -1.00069 3.34346 0
M  V30 5026 C 536.157 -1.37915 4.01578 0
M  V30 5027 O 537.181 -1.09277 3.39024 0
M  V30 5028 O 536.04 -1.91399 5.11887 0
M  V30 5029 H 533.134 -0.322668 0.761455 0
M  V30 5030 H 535.68 0.0902159 1.6946 0
M  V30 5031 H 534.452 -0.124463 3.91102 0
M  V30 5032 H 534.075 -1.80001 3.54521 0
M  V30 5033 N 535.072 -1.5615 -0.213296 0
M  V30 5034 C 536.488 -1.49327 -0.56336 0
M  V30 5035 C 536.688 -0.756826 -1.86747 0
M  V30 5036 O 535.744 -0.299866 -2.50713 0
M  V30 5037 C 537.057 -2.9392 -0.634944 0
M  V30 5038 C 538.605 -3.04487 -0.725013 0
M  V30 5039 C 539.08 -4.50456 -0.82787 0
M  V30 5040 N 540.571 -4.54533 -0.891876 0
M  V30 5041 C 541.306 -5.64766 -0.991315 0
M  V30 5042 N 540.802 -6.84733 -1.05419 0
M  V30 5043 N 542.595 -5.52637 -1.02709 0
M  V30 5044 H 534.746 -2.02453 0.642366 0
M  V30 5045 H 537.009 -0.920548 0.226487 0
M  V30 5046 H 536.715 -3.50783 0.253859 0
M  V30 5047 H 536.589 -3.46274 -1.49579 0
M  V30 5048 H 538.976 -2.47685 -1.60425 0
M  V30 5049 H 539.057 -2.55289 0.161669 0
M  V30 5050 H 538.701 -5.07878 0.0469464 0
M  V30 5051 H 538.631 -4.97369 -1.73009 0
M  V30 5052 H 541.122 -3.68141 -0.85327 0
M  V30 5053 H 541.435 -7.64493 -1.13007 0
M  V30 5054 H 539.78 -6.87427 -1.02318 0
M  V30 5055 H 542.971 -4.5784 -0.974687 0
M  V30 5056 H 543.144 -6.38576 -1.10113 0
M  V30 5057 N 536.55 0.480323 -1.50102 0
M  V30 5058 C 537.513 1.56181 -1.6775 0
M  V30 5059 C 538.513 1.51156 -0.548503 0
M  V30 5060 O 539.703 1.5394 -0.815363 0
M  V30 5061 C 536.835 2.95823 -1.69415 0
M  V30 5062 H 538.028 1.41855 -2.6423 0
M  V30 5063 H 535.581 0.70605 -1.39444 0
M  V30 5064 H 536.316 3.15604 -0.745948 0
M  V30 5065 H 536.101 3.00878 -2.51425 0
M  V30 5066 H 537.591 3.74359 -1.85054 0
M  V30 5067 N 538.028 1.39524 0.732853 0
M  V30 5068 C 539.268 1.383 1.50508 0
M  V30 5069 C 539.632 -0.0208271 1.91989 0
M  V30 5070 O 540.833 -0.158091 2.68335 0
M  V30 5071 C 539.104 2.33007 2.71003 0
M  V30 5072 S 540.663 2.49989 3.60626 0
M  V30 5073 H 537.481 0.490417 0.514794 0
M  V30 5074 H 540.083 1.75641 0.858524 0
M  V30 5075 H 538.787 3.33862 2.38672 0
M  V30 5076 H 538.318 1.96889 3.40585 0
M  V30 5077 H 540.333 1.7394 4.64714 0
M  V30 5078 N 539.506 -0.963266 1.24736 0
M  V30 5079 C 540.754 -1.70343 1.08755 0
M  V30 5080 C 541.075 -1.91387 -0.373619 0
M  V30 5081 O 540.345 -1.4948 -1.2662 0
M  V30 5082 H 538.925 -0.631224 0.399456 0
M  V30 5083 H 541.587 -1.15859 1.56725 0
M  V30 5084 H 540.683 -2.68616 1.58909 0
M  V30 5085 N 540.985 -1.06182 -1.16461 0
M  V30 5086 C 541.895 -0.682671 -2.24448 0
M  V30 5087 C 542.911 0.30078 -1.71381 0
M  V30 5088 O 544.087 0.150376 -2.00838 0
M  V30 5089 C 541.152 -0.0737202 -3.46622 0
M  V30 5090 C 540.213 -1.10889 -4.14731 0
M  V30 5091 C 539.446 -0.528908 -5.31073 0
M  V30 5092 O 539.669 0.65868 -5.66584 0
M  V30 5093 O 538.603 -1.26805 -5.88391 0
M  V30 5094 H 542.429 -1.58291 -2.59187 0
M  V30 5095 H 540.014 -0.834013 -1.23954 0
M  V30 5096 H 541.896 0.264192 -4.20571 0
M  V30 5097 H 540.571 0.800015 -3.13658 0
M  V30 5098 H 539.478 -1.49896 -3.42756 0
M  V30 5099 H 540.811 -1.95412 -4.51747 0
M  V30 5100 N 542.463 1.3308 -0.844243 0
M  V30 5101 C 543.41 2.29104 -0.279323 0
M  V30 5102 C 544.38 1.54577 0.607882 0
M  V30 5103 O 545.565 1.8285 0.545009 0
M  V30 5104 C 542.705 3.40927 0.53508 0
M  V30 5105 C 541.818 4.30354 -0.376749 0
M  V30 5106 C 540.953 5.29297 0.449276 0
M  V30 5107 C 539.992 6.10365 -0.460606 0
M  V30 5108 N 539.129 7.01335 0.327612 0
M  V30 5109 H 543.969 2.76817 -1.10346 0
M  V30 5110 H 541.506 1.36203 -0.555611 0
M  V30 5111 H 543.464 4.04469 1.02278 0
M  V30 5112 H 542.094 2.94391 1.32414 0
M  V30 5113 H 541.146 3.67485 -0.982791 0
M  V30 5114 H 542.458 4.87067 -1.07549 0
M  V30 5115 H 541.612 5.98392 1.00058 0
M  V30 5116 H 540.351 4.73174 1.18143 0
M  V30 5117 H 539.356 5.40182 -1.02388 0
M  V30 5118 H 540.581 6.68571 -1.1912 0
M  V30 5119 H 538.527 6.47655 1.04305 0
M  V30 5120 H 538.444 7.55355 -0.3123 0
M  V30 5121 H 539.712 7.74731 0.86098 0
M  V30 5122 N 543.941 0.601185 1.45683 0
M  V30 5123 C 545.357 0.264315 1.57396 0
M  V30 5124 C 545.557 -1.23324 1.59353 0
M  V30 5125 O 544.613 -2.01594 1.52039 0
M  V30 5126 C 545.926 0.929839 2.85962 0
M  V30 5127 C 547.474 0.905156 2.99626 0
M  V30 5128 C 547.949 1.55057 4.30954 0
M  V30 5129 N 549.44 1.51576 4.37697 0
M  V30 5130 C 550.175 1.98436 5.37969 0
M  V30 5131 N 549.671 2.53352 6.44813 0
M  V30 5132 N 551.464 1.89242 5.29286 0
M  V30 5133 H 543.615 1.57363 1.42656 0
M  V30 5134 H 545.878 0.658831 0.681649 0
M  V30 5135 H 545.584 1.98404 2.90394 0
M  V30 5136 H 545.458 0.449224 3.74515 0
M  V30 5137 H 547.845 -0.14048 2.94765 0
M  V30 5138 H 547.926 1.42397 2.12501 0
M  V30 5139 H 547.57 2.5955 4.36573 0
M  V30 5140 H 547.5 1.00682 5.16886 0
M  V30 5141 H 549.991 1.11452 3.61091 0
M  V30 5142 H 550.304 2.86918 7.17564 0
M  V30 5143 H 548.649 2.57388 6.45582 0
M  V30 5144 H 551.84 1.46083 4.44722 0
M  V30 5145 H 552.013 2.26075 6.07284 0
M  V30 5146 N 545.419 -1.53889 0.339982 0
M  V30 5147 C 546.349 -2.27843 -0.510856 0
M  V30 5148 C 547.33 -1.29267 -1.10563 0
M  V30 5149 O 548.515 -1.58104 -1.12768 0
M  V30 5150 C 545.645 -3.04857 -1.66372 0
M  V30 5151 C 544.599 -4.10907 -1.19746 0
M  V30 5152 C 543.925 -4.75855 -2.43857 0
M  V30 5153 C 545.225 -5.21435 -0.300501 0
M  V30 5154 H 546.919 -2.99212 0.106067 0
M  V30 5155 H 544.465 -1.43904 0.0524533 0
M  V30 5156 H 546.418 -3.5533 -2.26537 0
M  V30 5157 H 545.142 -2.31133 -2.30749 0
M  V30 5158 H 543.801 -3.61342 -0.618654 0
M  V30 5159 H 543.449 -3.9873 -3.06633 0
M  V30 5160 H 543.149 -5.47502 -2.13343 0
M  V30 5161 H 544.673 -5.2911 -3.04754 0
M  V30 5162 H 546.087 -5.67565 -0.80889 0
M  V30 5163 H 544.484 -6.00036 -0.0874076 0
M  V30 5164 H 545.554 -4.80328 0.664321 0
M  V30 5165 N 546.897 -0.0685191 -1.57451 0
M  V30 5166 C 548.143 0.602239 -1.93652 0
M  V30 5167 C 548.476 1.6946 -0.948526 0
M  V30 5168 O 547.751 1.94487 0.022782 0
M  V30 5169 C 548.034 1.18223 -3.4014 0
M  V30 5170 C 547.887 0.0967431 -4.49696 0
M  V30 5171 C 549.206 2.08872 -3.87377 0
M  V30 5172 H 546.325 0.217453 -0.70419 0
M  V30 5173 H 548.967 -0.133821 -1.89528 0
M  V30 5174 H 547.117 1.80953 -3.43785 0
M  V30 5175 H 548.789 -0.536155 -4.58174 0
M  V30 5176 H 547.032 -0.573063 -4.29998 0
M  V30 5177 H 547.703 0.542894 -5.49324 0
M  V30 5178 H 550.179 1.56081 -3.85717 0
M  V30 5179 H 549.055 2.46389 -4.90493 0
M  V30 5180 H 549.316 2.99572 -3.25129 0
M  V30 5181 N 548.375 1.56261 0.205012 0
M  V30 5182 C 549.621 1.80306 0.9283 0
M  V30 5183 C 549.954 0.640932 1.83319 0
M  V30 5184 O 549.229 -0.359032 1.91158 0
M  V30 5185 C 549.512 3.14547 1.75306 0
M  V30 5186 C 549.365 4.41236 0.873562 0
M  V30 5187 C 550.684 3.45382 2.72762 0
M  V30 5188 H 547.803 0.655929 0.336044 0
M  V30 5189 H 550.445 1.88984 0.196211 0
M  V30 5190 H 548.595 3.0728 2.37721 0
M  V30 5191 H 550.267 4.60539 0.264887 0
M  V30 5192 H 548.51 4.33427 0.179773 0
M  V30 5193 H 549.181 5.31639 1.48541 0
M  V30 5194 H 551.657 3.52884 2.20481 0
M  V30 5195 H 550.533 4.40449 3.2756 0
M  V30 5196 H 550.794 2.68377 3.51321 0
M  V30 5197 N 549.853 -0.472356 1.50355 0
M  V30 5198 C 551.093 -1.23439 1.62918 0
M  V30 5199 C 551.457 -1.89284 0.321801 0
M  V30 5200 O 552.658 -2.66854 0.322852 0
M  V30 5201 C 550.929 -2.25119 2.7759 0
M  V30 5202 S 552.488 -3.10278 3.10279 0
M  V30 5203 H 549.306 -0.41911 0.574341 0
M  V30 5204 H 551.908 -0.531621 1.88133 0
M  V30 5205 H 550.612 -1.75324 3.71066 0
M  V30 5206 H 550.143 -3.00026 2.54457 0
M  V30 5207 H 552.158 -4.26257 2.54007 0
M  V30 5208 N 551.331 -1.39911 -0.725443 0
M  V30 5209 C 552.241 -1.41688 -1.8698 0
M  V30 5210 C 553.257 -0.310579 -1.71206 0
M  V30 5211 O 554.433 -0.55359 -1.93642 0
M  V30 5212 C 551.498 -1.26811 -3.22676 0
M  V30 5213 C 550.559 -2.47497 -3.50776 0
M  V30 5214 C 549.792 -2.3332 -4.79997 0
M  V30 5215 O 550.015 -1.34175 -5.54394 0
M  V30 5216 O 548.949 -3.22498 -5.08211 0
M  V30 5217 H 552.775 -2.38171 -1.88436 0
M  V30 5218 H 550.36 -1.21128 -0.874548 0
M  V30 5219 H 552.242 -1.20684 -4.03749 0
M  V30 5220 H 550.917 -0.334289 -3.21969 0
M  V30 5221 H 549.824 -2.59201 -2.69751 0
M  V30 5222 H 551.157 -3.39606 -3.5627 0
M  V30 5223 N 552.809 0.956637 -1.25245 0
M  V30 5224 C 554.056 1.701 -1.09874 0
M  V30 5225 C 554.384 1.91128 0.36062 0
M  V30 5226 O 553.639 1.47837 1.28229 0
M  V30 5227 C 553.938 3.08996 -1.79601 0
M  V30 5228 C 553.604 3.07774 -3.29523 0
M  V30 5229 C 552.266 3.07149 -3.70423 0
M  V30 5230 C 554.618 3.01257 -4.25316 0
M  V30 5231 C 551.946 2.97752 -5.0553 0
M  V30 5232 C 554.298 2.93403 -5.60444 0
M  V30 5233 C 552.962 2.91111 -6.00675 0
M  V30 5234 H 552.232 0.62244 -0.402056 0
M  V30 5235 H 554.879 1.1178 -1.55491 0
M  V30 5236 H 553.184 3.70848 -1.26408 0
M  V30 5237 H 554.881 3.65407 -1.65162 0
M  V30 5238 H 551.471 3.09032 -2.9698 0
M  V30 5239 H 555.655 3.00861 -3.9471 0
M  V30 5240 H 550.911 2.94346 -5.35883 0
M  V30 5241 H 555.085 2.87321 -6.34366 0
M  V30 5242 H 552.712 2.83586 -7.05325 0
M  V30 5243 O 554.326 1.1921 1.08956 0
M  V30 5244 H 555.017 0.939352 1.69399 0
M  V30 END ATOM
M  V30 BEGIN BOND
M  V30 END BOND
M  V30 END CTAB
M  END
$$$$
