drugbank_target|P16384 tRNA dimethylallyltransferase (DB02270)
 OpenBabel12092120463D

  0  0  0     0  0            999 V3000
M  V30 BEGIN CTAB
M  V30 COUNTS 7179 7672 0 0 0
M  V30 BEGIN ATOM
M  V30 1 H -2.588 8.49073 -0.0679273 0
M  V30 2 O -1.492 9.37262 0.0843559 0
M  V30 3 P 0 8.791 0 0
M  V30 4 O 1.422 9.31096 0.027933 0
M  V30 5 O -0.36 7.77869 -1.04071 0
M  V30 6 O -0.323 8.09533 1.41463 0
M  V30 7 C -0.483 9.0349 2.53943 0
M  V30 8 C 0.057 8.35226 3.79016 0
M  V30 9 O -0.999 7.57992 4.15078 0
M  V30 10 C 1.275 7.45087 3.67298 0
M  V30 11 O 2.013 7.27796 4.85194 0
M  V30 12 C 0.606 6.17323 3.12027 0
M  V30 13 O 1.405 5.04231 3.47188 0
M  V30 14 C -0.731 6.19961 3.81809 0
M  V30 15 H -0.699 5.58218 4.73051 0
M  V30 16 H 0.484 6.21726 2.02589 0
M  V30 17 H 1.968 7.86112 2.9231 0
M  V30 18 H 0.274 9.11627 4.55076 0
M  V30 19 H 0.084 9.9573 2.34194 0
M  V30 20 H -1.546 9.2792 2.67832 0
M  V30 21 H 1.093 4.67702 4.28772 0
M  V30 22 P 2.95057 7.39546 4.75277 0
M  V30 23 O 4.37257 7.81777 5.05738 0
M  V30 24 O 2.59057 7.1065 3.32998 0
M  V30 25 O 2.62757 6.04542 5.56673 0
M  V30 26 C 2.46757 6.22772 7.02095 0
M  V30 27 C 3.00757 4.97725 7.70406 0
M  V30 28 O 1.95157 4.13256 7.58987 0
M  V30 29 C 4.22557 4.28231 7.11815 0
M  V30 30 O 4.96357 3.49945 8.01648 0
M  V30 31 C 3.55657 3.5063 5.96244 0
M  V30 32 O 4.35557 2.36482 5.64681 0
M  V30 33 C 2.21957 3.15122 6.56374 0
M  V30 34 H 2.25157 2.13853 6.99751 0
M  V30 35 H 3.43457 4.13501 5.06559 0
M  V30 36 H 4.91857 5.03285 6.70911 0
M  V30 37 H 3.22457 5.20877 8.75697 0
M  V30 38 H 3.03457 7.11046 7.35349 0
M  V30 39 H 1.40457 6.35815 7.26986 0
M  V30 40 H 4.04357 1.61644 6.13565 0
M  V30 41 P 5.90114 3.65191 7.99657 0
M  V30 42 O 7.32314 3.8425 8.48115 0
M  V30 43 O 5.54114 4.17805 6.64342 0
M  V30 44 O 5.57814 2.07613 7.95143 0
M  V30 45 C 5.41814 1.44328 9.27336 0
M  V30 46 C 5.95814 0.0220036 9.17197 0
M  V30 47 O 4.90214 -0.626867 8.61923 0
M  V30 48 C 7.17614 -0.24586 8.30336 0
M  V30 49 O 7.91414 -1.39011 8.63583 0
M  V30 50 C 6.50714 -0.273849 6.91158 0
M  V30 51 O 7.30614 -1.06348 6.02892 0
M  V30 52 C 5.17014 -0.897649 7.22545 0
M  V30 53 H 5.20214 -1.9841 7.04286 0
M  V30 54 H 6.38514 0.739928 6.497 0
M  V30 55 H 7.86914 0.60668 8.36503 0
M  V30 56 H 6.17514 -0.352479 10.1829 0
M  V30 57 H 5.98514 2.00611 10.0304 0
M  V30 58 H 4.35514 1.41843 9.55327 0
M  V30 59 H 6.99414 -1.95734 6.03555 0
M  V30 60 P 8.85171 -1.25109 8.70152 0
M  V30 61 O 10.2737 -1.35274 9.21221 0
M  V30 62 O 8.49171 -0.0769065 7.84762 0
M  V30 63 O 8.52871 -2.55232 7.81161 0
M  V30 64 C 8.36871 -3.79939 8.58154 0
M  V30 65 C 8.90871 -4.94023 7.72785 0
M  V30 66 O 7.85271 -5.18726 6.91205 0
M  V30 67 C 10.1267 -4.69597 6.85231 0
M  V30 68 O 10.8647 -5.83832 6.51337 0
M  V30 69 C 9.45771 -3.96706 5.66633 0
M  V30 70 O 10.2567 -4.15414 4.49689 0
M  V30 71 C 8.12071 -4.66153 5.59313 0
M  V30 72 H 8.15271 -5.47679 4.85214 0
M  V30 73 H 9.33571 -2.89008 5.86566 0
M  V30 74 H 10.8197 -4.0121 7.36511 0
M  V30 75 H 9.12571 -5.80182 8.37584 0
M  V30 76 H 8.93571 -3.73517 9.52265 0
M  V30 77 H 7.30571 -3.97163 8.80359 0
M  V30 78 H 9.94471 -4.90969 4.01921 0
M  V30 79 P 11.8023 -5.75688 6.64379 0
M  V30 80 O 13.2243 -6.11849 7.01846 0
M  V30 81 O 11.4423 -4.30744 6.56026 0
M  V30 82 O 11.4793 -6.37042 5.19165 0
M  V30 83 C 11.3193 -7.83578 5.16515 0
M  V30 84 C 11.8593 -8.33398 3.83019 0
M  V30 85 O 10.8033 -8.10074 3.01034 0
M  V30 86 C 13.0773 -7.65514 3.2257 0
M  V30 87 O 13.8153 -8.4329 2.32297 0
M  V30 88 C 12.4083 -6.40075 2.62207 0
M  V30 89 O 13.2073 -5.92589 1.53712 0
M  V30 90 C 11.0713 -6.9454 2.18503 0
M  V30 91 H 11.1033 -7.23063 1.12091 0
M  V30 92 H 12.2863 -5.6025 3.37201 0
M  V30 93 H 13.7703 -7.35707 4.02681 0
M  V30 94 H 12.0763 -9.40912 3.9095 0
M  V30 95 H 11.8863 -8.29056 5.99158 0
M  V30 96 H 10.2563 -8.10073 5.25882 0
M  V30 97 H 12.8953 -6.30324 0.726794 0
M  V30 98 P 14.7528 -8.4349 2.47671 0
M  V30 99 O 16.1748 -8.94167 2.5964 0
M  V30 100 O 14.3928 -7.1704 3.19006 0
M  V30 101 O 14.4298 -8.16596 0.923387 0
M  V30 102 C 14.2698 -9.38437 0.108857 0
M  V30 103 C 14.8098 -9.08175 -1.28353 0
M  V30 104 O 13.7538 -8.44229 -1.84713 0
M  V30 105 C 16.0278 -8.18386 -1.42505 0
M  V30 106 O 16.7659 -8.3501 -2.60497 0
M  V30 107 C 15.3588 -6.80225 -1.25468 0
M  V30 108 O 16.1578 -5.81621 -1.91066 0
M  V30 109 C 14.0218 -7.02416 -1.9168 0
M  V30 110 H 14.0538 -6.6888 -2.96621 0
M  V30 111 H 15.2368 -6.53617 -0.192223 0
M  V30 112 H 16.7208 -8.36622 -0.589963 0
M  V30 113 H 15.0268 -10.0291 -1.79807 0
M  V30 114 H 14.8368 -10.2138 0.558219 0
M  V30 115 H 13.2068 -9.6579 0.0444202 0
M  V30 116 H 15.8458 -5.69556 -2.79637 0
M  V30 117 P 17.7034 -8.4349 -2.47671 0
M  V30 118 O 19.1244 -8.92689 -2.65029 0
M  V30 119 O 17.3434 -7.7568 -1.19296 0
M  V30 120 O 17.3804 -7.36886 -3.63805 0
M  V30 121 C 17.2194 -7.95433 -4.98253 0
M  V30 122 C 17.7604 -6.94612 -5.98974 0
M  V30 123 O 16.7054 -6.10277 -6.11744 0
M  V30 124 C 18.9784 -6.11426 -5.62335 0
M  V30 125 O 19.7164 -5.6162 -6.70584 0
M  V30 126 C 18.3104 -5.04409 -4.73308 0
M  V30 127 O 19.1084 -3.86404 -4.74719 0
M  V30 128 C 16.9724 -4.8728 -5.41006 0
M  V30 129 N 15.9294 -4.65812 -4.42377 0
M  V30 130 C 16.0984 -5.09132 -3.15382 0
M  V30 131 N 15.0714 -4.84021 -2.3716 0
M  V30 132 C 14.1864 -4.18386 -3.20441 0
M  V30 133 C 12.9194 -3.6275 -2.94905 0
M  V30 134 N 12.3204 -3.65794 -1.73372 0
M  V30 135 N 12.3544 -3.05008 -4.05243 0
M  V30 136 C 12.9564 -2.98348 -5.28159 0
M  V30 137 N 14.1334 -3.48171 -5.56333 0
M  V30 138 C 14.7084 -4.06869 -4.47212 0
M  V30 139 H 17.0044 -4.02278 -6.11074 0
M  V30 140 H 18.1874 -5.39013 -3.70026 0
M  V30 141 H 19.6704 -6.71916 -5.01943 0
M  V30 142 H 17.9764 -7.45796 -6.94223 0
M  V30 143 H 17.7864 -8.89416 -5.05237 0
M  V30 144 H 16.1564 -8.14876 -5.18409 0
M  V30 145 H 12.4204 -2.47853 -6.07807 0
M  V30 146 H 16.9984 -5.59989 -2.81362 0
M  V30 147 H 11.3904 -3.23218 -1.60782 0
M  V30 148 H 12.7944 -4.10523 -0.937856 0
M  V30 149 H 18.7964 -3.27906 -5.43085 0
M  V30 150 P 20.654 -5.75688 -6.64379 0
M  V30 151 O 22.076 -6.07627 -7.05504 0
M  V30 152 O 20.294 -5.88047 -5.19722 0
M  V30 153 O 20.331 -4.2322 -7.04443 0
M  V30 154 C 20.171 -3.99743 -8.4911 0
M  V30 155 C 20.711 -2.60516 -8.79425 0
M  V30 156 O 19.655 -1.82684 -8.4467 0
M  V30 157 C 21.929 -2.10343 -8.03628 0
M  V30 158 O 22.667 -1.09919 -8.67766 0
M  V30 159 C 21.26 -1.68446 -6.70876 0
M  V30 160 O 22.059 -0.678137 -6.08433 0
M  V30 161 C 19.923 -1.17436 -7.18567 0
M  V30 162 H 19.955 -0.0804732 -7.31656 0
M  V30 163 H 21.138 -2.54037 -6.02537 0
M  V30 164 H 22.622 -2.93881 -7.85526 0
M  V30 165 H 20.928 -2.53065 -9.86973 0
M  V30 166 H 20.738 -4.75072 -9.05887 0
M  V30 167 H 19.108 -4.05244 -8.76668 0
M  V30 168 H 21.747 0.177647 -6.34251 0
M  V30 169 P 23.6046 -1.25109 -8.70152 0
M  V30 170 O 25.0266 -1.29744 -9.22016 0
M  V30 171 O 23.2446 -2.13714 -7.55141 0
M  V30 172 O 23.2816 0.248149 -8.21425 0
M  V30 173 C 23.1216 1.22779 -9.30434 0
M  V30 174 C 23.6616 2.56293 -8.80664 0
M  V30 175 O 22.6056 3.02979 -8.09349 0
M  V30 176 C 24.8796 2.57523 -7.89775 0
M  V30 177 O 25.6176 3.7668 -7.89438 0
M  V30 178 C 24.2106 2.20997 -6.55446 0
M  V30 179 O 25.0096 2.71895 -5.48509 0
M  V30 180 C 22.8736 2.89693 -6.67988 0
M  V30 181 H 22.9056 3.88793 -6.19859 0
M  V30 182 H 24.0886 1.12046 -6.44229 0
M  V30 183 H 25.5726 1.7746 -8.19711 0
M  V30 184 H 23.8786 3.20706 -9.67112 0
M  V30 185 H 23.6886 0.901032 -10.1892 0
M  V30 186 H 22.0586 1.33049 -9.56592 0
M  V30 187 H 24.6976 3.57847 -5.23962 0
M  V30 188 P 26.5551 3.65191 -7.99657 0
M  V30 189 O 27.9771 3.89332 -8.45794 0
M  V30 190 O 26.1951 2.28472 -7.50807 0
M  V30 191 O 26.2321 4.64972 -6.77611 0
M  V30 192 C 26.0721 6.06319 -7.16352 0
M  V30 193 C 26.6121 6.91731 -6.02299 0
M  V30 194 O 25.5561 6.92449 -5.17064 0
M  V30 195 C 27.8301 6.43627 -5.25174 0
M  V30 196 O 28.5681 7.43686 -4.60469 0
M  V30 197 C 27.1611 5.40275 -4.31916 0
M  V30 198 O 27.9601 5.25279 -3.14438 0
M  V30 199 C 25.8241 6.04847 -4.05327 0
M  V30 200 H 25.8561 6.62195 -3.11261 0
M  V30 201 H 27.0391 4.42556 -4.81383 0
M  V30 202 H 28.5231 5.92458 -5.93643 0
M  V30 203 H 26.8291 7.92655 -6.402 0
M  V30 204 H 26.6391 6.26671 -8.0846 0
M  V30 205 H 25.0091 6.29101 -7.32804 0
M  V30 206 H 27.6481 5.84315 -2.47318 0
M  V30 207 P 29.5057 7.39546 -4.75277 0
M  V30 208 O 30.9277 7.84798 -5.01039 0
M  V30 209 O 29.1457 5.9812 -5.08098 0
M  V30 210 O 29.1827 7.57503 -3.1866 0
M  V30 211 C 29.0227 8.97357 -2.74833 0
M  V30 212 C 29.5627 9.07548 -1.32709 0
M  V30 213 O 28.5067 8.62072 -0.606159 0
M  V30 214 C 30.7807 8.25383 -0.938334 0
M  V30 215 O 31.5187 8.74577 0.146954 0
M  V30 216 C 30.1117 6.8802 -0.712559 0
M  V30 217 O 30.9107 6.1189 0.194655 0
M  V30 218 C 28.7747 7.27966 -0.139777 0
M  V30 219 H 28.8067 7.25354 0.961601 0
M  V30 220 H 29.9897 6.32557 -1.65702 0
M  V30 221 H 31.4737 8.19355 -1.79097 0
M  V30 222 H 29.7797 10.1294 -1.10029 0
M  V30 223 H 29.5897 9.64276 -3.41316 0
M  V30 224 H 27.9597 9.25417 -2.76357 0
M  V30 225 H 30.5987 6.25267 1.07847 0
M  V30 226 P 32.4563 8.791 -9.96115e-15 0
M  V30 227 O 33.8773 9.31196 0.027936 0
M  V30 228 O 32.0963 7.77869 -1.04071 0
M  V30 229 O 32.1333 8.09533 1.41463 0
M  V30 230 C 31.9723 9.03587 2.5397 0
M  V30 231 C 32.5133 8.35226 3.79016 0
M  V30 232 O 31.4583 7.57904 4.1503 0
M  V30 233 C 33.7313 7.45087 3.67298 0
M  V30 234 O 34.4693 7.27796 4.85194 0
M  V30 235 C 33.0633 6.17323 3.12027 0
M  V30 236 O 33.8613 5.04496 3.46627 0
M  V30 237 C 31.7253 6.19961 3.81809 0
M  V30 238 N 30.6823 5.71575 2.93223 0
M  V30 239 C 30.8513 5.77362 1.59168 0
M  V30 240 N 29.8243 5.3123 0.911893 0
M  V30 241 C 28.9393 4.91717 1.89588 0
M  V30 242 C 27.6723 4.3114 1.8076 0
M  V30 243 N 27.0733 3.99821 0.632928 0
M  V30 244 N 27.1073 4.06823 3.02898 0
M  V30 245 C 27.7093 4.35062 4.22711 0
M  V30 246 N 28.8863 4.90805 4.35707 0
M  V30 247 C 29.4613 5.16382 3.14469 0
M  V30 248 H 31.7573 5.58142 4.72986 0
M  V30 249 H 32.9403 6.21428 2.0318 0
M  V30 250 H 34.4233 7.86112 2.9231 0
M  V30 251 H 32.7293 9.11171 4.55987 0
M  V30 252 H 32.5393 9.9573 2.34194 0
M  V30 253 H 30.9093 9.2792 2.67832 0
M  V30 254 H 27.1733 4.09052 5.13359 0
M  V30 255 H 31.7513 6.16575 1.12198 0
M  V30 256 H 26.1433 3.55423 0.632085 0
M  V30 257 H 27.5473 4.20317 -0.256712 0
M  V30 258 H 33.5493 4.67628 4.28704 0
M  V30 259 P 35.4068 7.39546 4.75277 0
M  V30 260 O 36.8288 7.81777 5.05738 0
M  V30 261 O 35.0468 7.1065 3.32998 0
M  V30 262 O 35.0838 6.04542 5.56673 0
M  V30 263 C 34.9238 6.22772 7.02095 0
M  V30 264 C 35.4638 4.97725 7.70406 0
M  V30 265 O 34.4078 4.13256 7.58987 0
M  V30 266 C 36.6818 4.28231 7.11815 0
M  V30 267 O 37.4198 3.49945 8.01648 0
M  V30 268 C 36.0128 3.5063 5.96244 0
M  V30 269 O 36.8118 2.36482 5.64681 0
M  V30 270 C 34.6758 3.15122 6.56374 0
M  V30 271 H 34.7078 2.13853 6.99751 0
M  V30 272 H 35.8908 4.13501 5.06559 0
M  V30 273 H 37.3748 5.03285 6.70911 0
M  V30 274 H 35.6808 5.20877 8.75697 0
M  V30 275 H 35.4908 7.11046 7.35349 0
M  V30 276 H 33.8608 6.35815 7.26986 0
M  V30 277 H 36.4998 1.61644 6.13565 0
M  V30 278 P 38.3574 3.65191 7.99657 0
M  V30 279 O 39.7794 3.8425 8.48115 0
M  V30 280 O 37.9974 4.17805 6.64342 0
M  V30 281 O 38.0344 2.07613 7.95143 0
M  V30 282 C 37.8744 1.44328 9.27336 0
M  V30 283 C 38.4144 0.0220036 9.17197 0
M  V30 284 O 37.3584 -0.626867 8.61923 0
M  V30 285 C 39.6324 -0.24586 8.30336 0
M  V30 286 O 40.3704 -1.39011 8.63583 0
M  V30 287 C 38.9634 -0.273849 6.91158 0
M  V30 288 O 39.7624 -1.06348 6.02892 0
M  V30 289 C 37.6264 -0.897649 7.22545 0
M  V30 290 H 37.6584 -1.9841 7.04286 0
M  V30 291 H 38.8414 0.739928 6.497 0
M  V30 292 H 40.3254 0.60668 8.36503 0
M  V30 293 H 38.6314 -0.352479 10.1829 0
M  V30 294 H 38.4414 2.00611 10.0304 0
M  V30 295 H 36.8114 1.41843 9.55327 0
M  V30 296 H 39.4504 -1.95734 6.03555 0
M  V30 297 P 41.308 -1.25109 8.70152 0
M  V30 298 O 42.73 -1.35274 9.21221 0
M  V30 299 O 40.948 -0.0769065 7.84762 0
M  V30 300 O 40.985 -2.55232 7.81161 0
M  V30 301 C 40.825 -3.79939 8.58154 0
M  V30 302 C 41.365 -4.94023 7.72785 0
M  V30 303 O 40.309 -5.18726 6.91205 0
M  V30 304 C 42.583 -4.69597 6.85231 0
M  V30 305 O 43.321 -5.83832 6.51337 0
M  V30 306 C 41.914 -3.96706 5.66633 0
M  V30 307 O 42.713 -4.15414 4.49689 0
M  V30 308 C 40.577 -4.66153 5.59313 0
M  V30 309 H 40.609 -5.47679 4.85214 0
M  V30 310 H 41.792 -2.89008 5.86566 0
M  V30 311 H 43.276 -4.0121 7.36511 0
M  V30 312 H 41.582 -5.80182 8.37584 0
M  V30 313 H 41.392 -3.73517 9.52265 0
M  V30 314 H 39.762 -3.97163 8.80359 0
M  V30 315 H 42.401 -4.90969 4.01921 0
M  V30 316 P 44.2585 -5.75688 6.64379 0
M  V30 317 O 45.6805 -6.11849 7.01846 0
M  V30 318 O 43.8985 -4.30744 6.56026 0
M  V30 319 O 43.9355 -6.37042 5.19165 0
M  V30 320 C 43.7755 -7.83578 5.16515 0
M  V30 321 C 44.3155 -8.33398 3.83019 0
M  V30 322 O 43.2595 -8.10074 3.01034 0
M  V30 323 C 45.5335 -7.65514 3.2257 0
M  V30 324 O 46.2715 -8.4329 2.32297 0
M  V30 325 C 44.8645 -6.40075 2.62207 0
M  V30 326 O 45.6635 -5.92589 1.53712 0
M  V30 327 C 43.5275 -6.9454 2.18503 0
M  V30 328 H 43.5595 -7.23063 1.12091 0
M  V30 329 H 44.7425 -5.6025 3.37201 0
M  V30 330 H 46.2265 -7.35707 4.02681 0
M  V30 331 H 44.5325 -9.40912 3.9095 0
M  V30 332 H 44.3425 -8.29056 5.99158 0
M  V30 333 H 42.7125 -8.10073 5.25882 0
M  V30 334 H 45.3515 -6.30324 0.726794 0
M  V30 335 P 47.2091 -8.4349 2.47671 0
M  V30 336 O 48.6311 -8.94359 2.59696 0
M  V30 337 O 46.8491 -7.1704 3.19006 0
M  V30 338 O 46.8861 -8.16596 0.923387 0
M  V30 339 C 46.7261 -9.38437 0.108857 0
M  V30 340 C 47.2661 -9.08076 -1.28339 0
M  V30 341 O 46.2111 -8.44229 -1.84713 0
M  V30 342 C 48.4841 -8.18386 -1.42505 0
M  V30 343 O 49.2221 -8.3501 -2.60497 0
M  V30 344 C 47.8161 -6.80225 -1.25468 0
M  V30 345 O 48.6141 -5.81526 -1.91035 0
M  V30 346 C 46.4781 -7.02416 -1.9168 0
M  V30 347 N 45.4351 -6.31033 -1.20314 0
M  V30 348 C 45.4971 -6.18781 0.121293 0
M  V30 349 N 44.4521 -5.49762 0.588272 0
M  V30 350 C 43.7181 -5.22015 -0.488988 0
M  V30 351 C 42.4121 -4.61966 -0.596448 0
M  V30 352 O 41.6791 -4.19162 0.309059 0
M  V30 353 N 41.9821 -4.53773 -1.878 0
M  V30 354 C 42.7311 -4.99623 -2.99082 0
M  V30 355 N 42.1341 -4.78912 -4.21227 0
M  V30 356 N 43.8841 -5.59957 -2.91093 0
M  V30 357 C 44.3411 -5.70225 -1.64218 0
M  V30 358 H 46.5101 -6.6888 -2.96621 0
M  V30 359 H 47.6931 -6.53517 -0.192194 0
M  V30 360 H 49.1781 -8.36563 -0.598329 0
M  V30 361 H 47.4831 -10.0291 -1.79807 0
M  V30 362 H 47.2931 -10.2138 0.558219 0
M  V30 363 H 45.6621 -9.6579 0.0444202 0
M  V30 364 H 41.0861 -4.12883 -2.05283 0
M  V30 365 H 46.2931 -6.59596 0.745856 0
M  V30 366 H 41.2231 -4.31425 -4.2628 0
M  V30 367 H 42.5991 -5.11219 -5.07148 0
M  V30 368 H 48.3031 -5.69466 -2.79593 0
M  V30 369 P 50.1597 -8.4349 -2.47671 0
M  V30 370 O 51.5817 -8.92593 -2.65 0
M  V30 371 O 49.7997 -7.7568 -1.19296 0
M  V30 372 O 49.8367 -7.36886 -3.63805 0
M  V30 373 C 49.6767 -7.95349 -4.982 0
M  V30 374 C 50.2167 -6.94612 -5.98974 0
M  V30 375 O 49.1607 -6.10347 -6.11815 0
M  V30 376 C 51.4347 -6.11426 -5.62335 0
M  V30 377 O 52.1727 -5.6162 -6.70584 0
M  V30 378 C 50.7657 -5.04409 -4.73308 0
M  V30 379 O 51.5647 -3.85992 -4.75183 0
M  V30 380 C 49.4287 -4.8728 -5.41006 0
M  V30 381 H 49.4607 -4.02333 -6.11157 0
M  V30 382 H 50.6437 -5.39466 -3.69543 0
M  V30 383 H 52.1277 -6.71916 -5.01943 0
M  V30 384 H 50.4337 -7.4649 -6.93477 0
M  V30 385 H 50.2437 -8.89416 -5.05237 0
M  V30 386 H 48.6137 -8.14876 -5.18409 0
M  V30 387 H 51.2527 -3.27957 -5.4317 0
M  V30 388 P 53.1103 -5.75688 -6.64379 0
M  V30 389 O 54.5323 -6.07627 -7.05504 0
M  V30 390 O 52.7503 -5.88047 -5.19722 0
M  V30 391 O 52.7873 -4.2322 -7.04443 0
M  V30 392 C 52.6273 -3.99743 -8.4911 0
M  V30 393 C 53.1673 -2.60516 -8.79425 0
M  V30 394 O 52.1113 -1.82684 -8.4467 0
M  V30 395 C 54.3853 -2.10343 -8.03628 0
M  V30 396 O 55.1233 -1.09919 -8.67766 0
M  V30 397 C 53.7163 -1.68446 -6.70876 0
M  V30 398 O 54.5153 -0.678137 -6.08433 0
M  V30 399 C 52.3793 -1.17436 -7.18567 0
M  V30 400 H 52.4113 -0.0804732 -7.31656 0
M  V30 401 H 53.5943 -2.54037 -6.02537 0
M  V30 402 H 55.0783 -2.93881 -7.85526 0
M  V30 403 H 53.3843 -2.53065 -9.86973 0
M  V30 404 H 53.1943 -4.75072 -9.05887 0
M  V30 405 H 51.5643 -4.05244 -8.76668 0
M  V30 406 H 54.2033 0.177647 -6.34251 0
M  V30 407 P 56.0608 -1.25109 -8.70152 0
M  V30 408 O 57.4818 -1.29758 -9.22115 0
M  V30 409 O 55.7008 -2.13714 -7.55141 0
M  V30 410 O 55.7378 0.248149 -8.21425 0
M  V30 411 C 55.5768 1.22792 -9.30533 0
M  V30 412 C 56.1178 2.56293 -8.80664 0
M  V30 413 O 55.0628 3.02944 -8.09255 0
M  V30 414 C 57.3358 2.57523 -7.89775 0
M  V30 415 O 58.0738 3.7668 -7.89438 0
M  V30 416 C 56.6678 2.20997 -6.55446 0
M  V30 417 O 57.4658 2.71302 -5.48691 0
M  V30 418 C 55.3298 2.89693 -6.67988 0
M  V30 419 N 54.2868 2.08895 -6.07487 0
M  V30 420 C 54.4558 0.753809 -5.94137 0
M  V30 421 N 53.4288 0.146592 -5.38801 0
M  V30 422 C 52.5438 1.1768 -5.13693 0
M  V30 423 C 51.2768 1.17563 -4.52477 0
M  V30 424 N 50.6778 0.057481 -4.04759 0
M  V30 425 N 50.7118 2.41918 -4.45789 0
M  V30 426 C 51.3138 3.56493 -4.90792 0
M  V30 427 N 52.4908 3.61423 -5.47817 0
M  V30 428 C 53.0658 2.37779 -5.5588 0
M  V30 429 H 55.3618 3.8874 -6.19774 0
M  V30 430 H 56.5448 1.12673 -6.44018 0
M  V30 431 H 58.0278 1.7746 -8.19711 0
M  V30 432 H 56.3338 3.21673 -9.66791 0
M  V30 433 H 56.1438 0.901032 -10.1892 0
M  V30 434 H 54.5138 1.33049 -9.56592 0
M  V30 435 H 50.7778 4.49919 -4.77947 0
M  V30 436 H 55.3558 0.233081 -6.26266 0
M  V30 437 H 49.7478 0.119831 -3.60801 0
M  V30 438 H 51.1518 -0.852272 -4.12385 0
M  V30 439 H 57.1538 3.5779 -5.23879 0
M  V30 440 P 59.0114 3.65191 -7.99657 0
M  V30 441 O 60.4334 3.89332 -8.45794 0
M  V30 442 O 58.6514 2.28472 -7.50807 0
M  V30 443 O 58.6884 4.64972 -6.77611 0
M  V30 444 C 58.5284 6.06319 -7.16352 0
M  V30 445 C 59.0684 6.91731 -6.02299 0
M  V30 446 O 58.0124 6.92449 -5.17064 0
M  V30 447 C 60.2864 6.43627 -5.25174 0
M  V30 448 O 61.0244 7.43686 -4.60469 0
M  V30 449 C 59.6174 5.40275 -4.31916 0
M  V30 450 O 60.4164 5.25279 -3.14438 0
M  V30 451 C 58.2804 6.04847 -4.05327 0
M  V30 452 H 58.3124 6.62195 -3.11261 0
M  V30 453 H 59.4954 4.42556 -4.81383 0
M  V30 454 H 60.9794 5.92458 -5.93643 0
M  V30 455 H 59.2854 7.92655 -6.402 0
M  V30 456 H 59.0954 6.26671 -8.0846 0
M  V30 457 H 57.4654 6.29101 -7.32804 0
M  V30 458 H 60.1044 5.84315 -2.47318 0
M  V30 459 P 61.962 7.39546 -4.75277 0
M  V30 460 O 63.384 7.84966 -5.01146 0
M  V30 461 O 61.602 5.9812 -5.08098 0
M  V30 462 O 61.639 7.57503 -3.1866 0
M  V30 463 C 61.479 8.97357 -2.74833 0
M  V30 464 C 62.019 9.0745 -1.32694 0
M  V30 465 O 60.964 8.62072 -0.606159 0
M  V30 466 C 63.237 8.25383 -0.938334 0
M  V30 467 O 63.975 8.74577 0.146954 0
M  V30 468 C 62.569 6.8802 -0.712559 0
M  V30 469 O 63.367 6.11791 0.194623 0
M  V30 470 C 61.231 7.27966 -0.139777 0
M  V30 471 N 60.188 6.39368 -0.623421 0
M  V30 472 C 60.25 5.90299 -1.85969 0
M  V30 473 N 59.205 5.10919 -2.1133 0
M  V30 474 C 58.471 5.14646 -1.0015 0
M  V30 475 C 57.165 4.60057 -0.729219 0
M  V30 476 O 56.432 3.93476 -1.47746 0
M  V30 477 N 56.735 4.88302 0.523505 0
M  V30 478 C 57.484 5.63646 1.46207 0
M  V30 479 N 56.887 5.78186 2.69239 0
M  V30 480 N 58.637 6.19285 1.21544 0
M  V30 481 C 59.094 5.93392 -0.0308487 0
M  V30 482 H 61.263 7.25354 0.961601 0
M  V30 483 H 62.446 6.3246 -1.65676 0
M  V30 484 H 63.931 8.19533 -1.78278 0
M  V30 485 H 62.236 10.1294 -1.10029 0
M  V30 486 H 62.046 9.64276 -3.41316 0
M  V30 487 H 60.415 9.25417 -2.76357 0
M  V30 488 H 55.839 4.53993 0.806451 0
M  V30 489 H 61.046 6.11865 -2.57394 0
M  V30 490 H 55.976 5.34046 2.87467 0
M  V30 491 H 57.352 6.33391 3.42578 0
M  V30 492 H 63.056 6.25169 1.0783 0
M  V30 493 P 64.9125 8.791 -3.55383e-14 0
M  V30 494 O 66.3345 9.31096 0.027933 0
M  V30 495 O 64.5525 7.77869 -1.04071 0
M  V30 496 O 64.5895 8.09533 1.41463 0
M  V30 497 C 64.4295 9.0349 2.53943 0
M  V30 498 C 64.9695 8.35226 3.79016 0
M  V30 499 O 63.9135 7.57992 4.15078 0
M  V30 500 C 66.1875 7.45087 3.67298 0
M  V30 501 O 66.9255 7.27796 4.85194 0
M  V30 502 C 65.5185 6.17323 3.12027 0
M  V30 503 O 66.3175 5.04231 3.47188 0
M  V30 504 C 64.1815 6.19961 3.81809 0
M  V30 505 H 64.2135 5.58218 4.73051 0
M  V30 506 H 65.3965 6.21726 2.02589 0
M  V30 507 H 66.8805 7.86112 2.9231 0
M  V30 508 H 65.1865 9.11627 4.55076 0
M  V30 509 H 64.9965 9.9573 2.34194 0
M  V30 510 H 63.3665 9.2792 2.67832 0
M  V30 511 H 66.0055 4.67702 4.28772 0
M  V30 512 P 67.8631 7.39546 4.75277 0
M  V30 513 O 69.2851 7.81777 5.05738 0
M  V30 514 O 67.5031 7.1065 3.32998 0
M  V30 515 O 67.5401 6.04542 5.56673 0
M  V30 516 C 67.3801 6.22772 7.02095 0
M  V30 517 C 67.9201 4.97725 7.70406 0
M  V30 518 O 66.8641 4.13256 7.58987 0
M  V30 519 C 69.1381 4.28231 7.11815 0
M  V30 520 O 69.8761 3.49945 8.01648 0
M  V30 521 C 68.4691 3.5063 5.96244 0
M  V30 522 O 69.2681 2.36482 5.64681 0
M  V30 523 C 67.1321 3.15122 6.56374 0
M  V30 524 H 67.1641 2.13853 6.99751 0
M  V30 525 H 68.3471 4.13501 5.06559 0
M  V30 526 H 69.8311 5.03285 6.70911 0
M  V30 527 H 68.1371 5.20877 8.75697 0
M  V30 528 H 67.9471 7.11046 7.35349 0
M  V30 529 H 66.3171 6.35815 7.26986 0
M  V30 530 H 68.9561 1.61644 6.13565 0
M  V30 531 P 70.8137 3.65191 7.99657 0
M  V30 532 O 72.2347 3.84292 8.48206 0
M  V30 533 O 70.4537 4.17805 6.64342 0
M  V30 534 O 70.4907 2.07613 7.95143 0
M  V30 535 C 70.3297 1.44344 9.27435 0
M  V30 536 C 70.8707 0.0220036 9.17197 0
M  V30 537 O 69.8157 -0.626794 8.61824 0
M  V30 538 C 72.0887 -0.24586 8.30336 0
M  V30 539 O 72.8267 -1.39011 8.63583 0
M  V30 540 C 71.4207 -0.273849 6.91158 0
M  V30 541 O 72.2187 -1.05728 6.029 0
M  V30 542 C 70.0827 -0.897649 7.22545 0
M  V30 543 N 69.0397 -0.292839 6.41732 0
M  V30 544 C 69.2087 0.950603 5.91308 0
M  V30 545 N 68.1817 1.37732 5.21105 0
M  V30 546 C 67.2967 0.318109 5.26039 0
M  V30 547 C 66.0297 0.146766 4.6727 0
M  V30 548 N 65.4307 1.08519 3.89983 0
M  V30 549 N 65.4647 -1.06525 4.95887 0
M  V30 550 C 66.0667 -2.0378 5.71347 0
M  V30 551 N 67.2437 -1.92445 6.27451 0
M  V30 552 C 67.8187 -0.715382 6.00353 0
M  V30 553 H 70.1147 -1.98383 7.04189 0
M  V30 554 H 71.2977 0.733318 6.49674 0
M  V30 555 H 72.7807 0.60668 8.36503 0
M  V30 556 H 71.0867 -0.362662 10.1825 0
M  V30 557 H 70.8967 2.00611 10.0304 0
M  V30 558 H 69.2667 1.41843 9.55327 0
M  V30 559 H 65.5307 -2.97041 5.85344 0
M  V30 560 H 70.1087 1.54076 6.07465 0
M  V30 561 H 64.5007 0.901517 3.49562 0
M  V30 562 H 65.9047 1.97957 3.71669 0
M  V30 563 H 71.9067 -1.95704 6.0346 0
M  V30 564 P 73.7642 -1.25109 8.70152 0
M  V30 565 O 75.1862 -1.35274 9.21221 0
M  V30 566 O 73.4042 -0.0769065 7.84762 0
M  V30 567 O 73.4412 -2.55232 7.81161 0
M  V30 568 C 73.2812 -3.79939 8.58154 0
M  V30 569 C 73.8212 -4.94023 7.72785 0
M  V30 570 O 72.7652 -5.18726 6.91205 0
M  V30 571 C 75.0392 -4.69597 6.85231 0
M  V30 572 O 75.7772 -5.83832 6.51337 0
M  V30 573 C 74.3702 -3.96706 5.66633 0
M  V30 574 O 75.1692 -4.15414 4.49689 0
M  V30 575 C 73.0332 -4.66153 5.59313 0
M  V30 576 H 73.0652 -5.47679 4.85214 0
M  V30 577 H 74.2482 -2.89008 5.86566 0
M  V30 578 H 75.7322 -4.0121 7.36511 0
M  V30 579 H 74.0382 -5.80182 8.37584 0
M  V30 580 H 73.8482 -3.73517 9.52265 0
M  V30 581 H 72.2182 -3.97163 8.80359 0
M  V30 582 H 74.8572 -4.90969 4.01921 0
M  V30 583 P 76.7148 -5.75688 6.64379 0
M  V30 584 O 78.1358 -6.11915 7.01921 0
M  V30 585 O 76.3548 -4.30744 6.56026 0
M  V30 586 O 76.3918 -6.37042 5.19165 0
M  V30 587 C 76.2308 -7.83662 5.1657 0
M  V30 588 C 76.7718 -8.33398 3.83019 0
M  V30 589 O 75.7168 -8.0998 3.00999 0
M  V30 590 C 77.9898 -7.65514 3.2257 0
M  V30 591 O 78.7278 -8.4329 2.32297 0
M  V30 592 C 77.3218 -6.40075 2.62207 0
M  V30 593 O 78.1198 -5.92338 1.5428 0
M  V30 594 C 75.9838 -6.9454 2.18503 0
M  V30 595 N 74.9408 -5.95905 2.39948 0
M  V30 596 C 75.1098 -4.98383 3.32108 0
M  V30 597 N 74.0828 -4.16798 3.41761 0
M  V30 598 C 73.1978 -4.65287 2.47461 0
M  V30 599 C 71.9308 -4.18946 2.07461 0
M  V30 600 N 71.3318 -3.09661 2.60717 0
M  V30 601 N 71.3658 -4.95327 1.09101 0
M  V30 602 C 71.9678 -6.04369 0.519812 0
M  V30 603 N 73.1448 -6.50694 0.855982 0
M  V30 604 C 73.7198 -5.75818 1.84322 0
M  V30 605 H 76.0158 -7.22964 1.12076 0
M  V30 606 H 77.1988 -5.60502 3.36589 0
M  V30 607 H 78.6818 -7.35707 4.02681 0
M  V30 608 H 76.9878 -9.41302 3.90009 0
M  V30 609 H 76.7978 -8.29056 5.99158 0
M  V30 610 H 75.1678 -8.10073 5.25882 0
M  V30 611 H 71.4318 -6.55843 -0.270373 0
M  V30 612 H 76.0098 -4.88564 3.92502 0
M  V30 613 H 70.4018 -2.80523 2.27218 0
M  V30 614 H 71.8058 -2.55848 3.34465 0
M  V30 615 H 77.8078 -6.30224 0.72668 0
M  V30 616 P 79.6654 -8.4349 2.47671 0
M  V30 617 O 81.0874 -8.94167 2.5964 0
M  V30 618 O 79.3054 -7.1704 3.19006 0
M  V30 619 O 79.3424 -8.16596 0.923387 0
M  V30 620 C 79.1824 -9.38437 0.108857 0
M  V30 621 C 79.7224 -9.08175 -1.28353 0
M  V30 622 O 78.6664 -8.44229 -1.84713 0
M  V30 623 C 80.9404 -8.18386 -1.42505 0
M  V30 624 O 81.6784 -8.3501 -2.60497 0
M  V30 625 C 80.2714 -6.80225 -1.25468 0
M  V30 626 O 81.0704 -5.81621 -1.91066 0
M  V30 627 C 78.9344 -7.02416 -1.9168 0
M  V30 628 H 78.9664 -6.6888 -2.96621 0
M  V30 629 H 80.1494 -6.53617 -0.192223 0
M  V30 630 H 81.6334 -8.36622 -0.589963 0
M  V30 631 H 79.9394 -10.0291 -1.79807 0
M  V30 632 H 79.7494 -10.2138 0.558219 0
M  V30 633 H 78.1194 -9.6579 0.0444202 0
M  V30 634 H 80.7584 -5.69556 -2.79637 0
M  V30 635 P 82.616 -8.4349 -2.47671 0
M  V30 636 O 84.038 -8.92593 -2.65 0
M  V30 637 O 82.256 -7.7568 -1.19296 0
M  V30 638 O 82.293 -7.36886 -3.63805 0
M  V30 639 C 82.133 -7.95349 -4.982 0
M  V30 640 C 82.673 -6.94612 -5.98974 0
M  V30 641 O 81.617 -6.10347 -6.11815 0
M  V30 642 C 83.891 -6.11426 -5.62335 0
M  V30 643 O 84.629 -5.6162 -6.70584 0
M  V30 644 C 83.222 -5.04409 -4.73308 0
M  V30 645 O 84.021 -3.85992 -4.75183 0
M  V30 646 C 81.885 -4.8728 -5.41006 0
M  V30 647 H 81.917 -4.02333 -6.11157 0
M  V30 648 H 83.1 -5.39466 -3.69543 0
M  V30 649 H 84.584 -6.71916 -5.01943 0
M  V30 650 H 82.89 -7.4649 -6.93477 0
M  V30 651 H 82.7 -8.89416 -5.05237 0
M  V30 652 H 81.07 -8.14876 -5.18409 0
M  V30 653 H 83.709 -3.27957 -5.4317 0
M  V30 654 P 85.5665 -5.75688 -6.64379 0
M  V30 655 O 86.9885 -6.07627 -7.05504 0
M  V30 656 O 85.2065 -5.88047 -5.19722 0
M  V30 657 O 85.2435 -4.2322 -7.04443 0
M  V30 658 C 85.0835 -3.99743 -8.4911 0
M  V30 659 C 85.6235 -2.60516 -8.79425 0
M  V30 660 O 84.5675 -1.82684 -8.4467 0
M  V30 661 C 86.8415 -2.10343 -8.03628 0
M  V30 662 O 87.5795 -1.09919 -8.67766 0
M  V30 663 C 86.1725 -1.68446 -6.70876 0
M  V30 664 O 86.9715 -0.678137 -6.08433 0
M  V30 665 C 84.8355 -1.17436 -7.18567 0
M  V30 666 H 84.8675 -0.0804732 -7.31656 0
M  V30 667 H 86.0505 -2.54037 -6.02537 0
M  V30 668 H 87.5345 -2.93881 -7.85526 0
M  V30 669 H 85.8405 -2.53065 -9.86973 0
M  V30 670 H 85.6505 -4.75072 -9.05887 0
M  V30 671 H 84.0205 -4.05244 -8.76668 0
M  V30 672 H 86.6595 0.177647 -6.34251 0
M  V30 673 P 88.5171 -1.25109 -8.70152 0
M  V30 674 O 89.9381 -1.29758 -9.22115 0
M  V30 675 O 88.1571 -2.13714 -7.55141 0
M  V30 676 O 88.1941 0.248149 -8.21425 0
M  V30 677 C 88.0331 1.22792 -9.30533 0
M  V30 678 C 88.5741 2.56293 -8.80664 0
M  V30 679 O 87.5191 3.02944 -8.09255 0
M  V30 680 C 89.7921 2.57523 -7.89775 0
M  V30 681 O 90.5301 3.7668 -7.89438 0
M  V30 682 C 89.1241 2.20997 -6.55446 0
M  V30 683 O 89.9221 2.71302 -5.48691 0
M  V30 684 C 87.7861 2.89693 -6.67988 0
M  V30 685 N 86.7431 2.08895 -6.07487 0
M  V30 686 C 86.9121 0.753809 -5.94137 0
M  V30 687 N 85.8851 0.146592 -5.38801 0
M  V30 688 C 85.0001 1.1768 -5.13693 0
M  V30 689 C 83.7331 1.17563 -4.52477 0
M  V30 690 N 83.1681 2.41918 -4.45789 0
M  V30 691 C 83.7701 3.56493 -4.90792 0
M  V30 692 N 84.9471 3.61423 -5.47817 0
M  V30 693 C 85.5221 2.37779 -5.5588 0
M  V30 694 H 89.0011 1.12673 -6.44018 0
M  V30 695 H 90.4841 1.7746 -8.19711 0
M  V30 696 H 88.7901 3.21673 -9.66791 0
M  V30 697 H 88.6001 0.901032 -10.1892 0
M  V30 698 H 86.9701 1.33049 -9.56592 0
M  V30 699 H 87.8121 0.233081 -6.26266 0
M  V30 700 H 89.6101 3.5779 -5.23879 0
M  V30 701 P 91.4677 3.65191 -7.99657 0
M  V30 702 O 92.8897 3.89332 -8.45794 0
M  V30 703 O 91.1077 2.28472 -7.50807 0
M  V30 704 O 91.1447 4.64972 -6.77611 0
M  V30 705 C 90.9847 6.06319 -7.16352 0
M  V30 706 C 91.5247 6.91731 -6.02299 0
M  V30 707 O 90.4687 6.92449 -5.17064 0
M  V30 708 C 92.7427 6.43627 -5.25174 0
M  V30 709 O 93.4807 7.43686 -4.60469 0
M  V30 710 C 92.0737 5.40275 -4.31916 0
M  V30 711 O 92.8727 5.25279 -3.14438 0
M  V30 712 C 90.7367 6.04847 -4.05327 0
M  V30 713 H 90.7687 6.62195 -3.11261 0
M  V30 714 H 91.9517 4.42556 -4.81383 0
M  V30 715 H 93.4357 5.92458 -5.93643 0
M  V30 716 H 91.7417 7.92655 -6.402 0
M  V30 717 H 91.5517 6.26671 -8.0846 0
M  V30 718 H 89.9217 6.29101 -7.32804 0
M  V30 719 H 92.5607 5.84315 -2.47318 0
M  V30 720 P 94.4182 7.39546 -4.75277 0
M  V30 721 O 95.8402 7.84798 -5.01039 0
M  V30 722 O 94.0582 5.9812 -5.08098 0
M  V30 723 O 94.0952 7.57503 -3.1866 0
M  V30 724 C 93.9352 8.97357 -2.74833 0
M  V30 725 C 94.4752 9.07548 -1.32709 0
M  V30 726 O 93.4192 8.62072 -0.606159 0
M  V30 727 C 95.6932 8.25383 -0.938334 0
M  V30 728 O 96.4312 8.74577 0.146954 0
M  V30 729 C 95.0242 6.8802 -0.712559 0
M  V30 730 O 95.8232 6.1189 0.194655 0
M  V30 731 C 93.6872 7.27966 -0.139777 0
M  V30 732 H 93.7192 7.25354 0.961601 0
M  V30 733 H 94.9022 6.32557 -1.65702 0
M  V30 734 H 96.3862 8.19355 -1.79097 0
M  V30 735 H 94.6922 10.1294 -1.10029 0
M  V30 736 H 94.5022 9.64276 -3.41316 0
M  V30 737 H 92.8722 9.25417 -2.76357 0
M  V30 738 H 95.5112 6.25267 1.07847 0
M  V30 739 P 97.3688 8.791 -6.89233e-14 0
M  V30 740 O 98.7908 9.31096 0.027933 0
M  V30 741 O 97.0088 7.77869 -1.04071 0
M  V30 742 O 97.0458 8.09533 1.41463 0
M  V30 743 C 96.8858 9.0349 2.53943 0
M  V30 744 C 97.4258 8.35226 3.79016 0
M  V30 745 O 96.3698 7.57992 4.15078 0
M  V30 746 C 98.6438 7.45087 3.67298 0
M  V30 747 O 99.3818 7.27796 4.85194 0
M  V30 748 C 97.9748 6.17323 3.12027 0
M  V30 749 O 98.7738 5.04231 3.47188 0
M  V30 750 C 96.6378 6.19961 3.81809 0
M  V30 751 H 96.6698 5.58218 4.73051 0
M  V30 752 H 97.8528 6.21726 2.02589 0
M  V30 753 H 99.3368 7.86112 2.9231 0
M  V30 754 H 97.6428 9.11627 4.55076 0
M  V30 755 H 97.4528 9.9573 2.34194 0
M  V30 756 H 95.8228 9.2792 2.67832 0
M  V30 757 H 98.4618 4.67702 4.28772 0
M  V30 758 P 100.319 7.39546 4.75277 0
M  V30 759 O 101.741 7.81777 5.05738 0
M  V30 760 O 99.9594 7.1065 3.32998 0
M  V30 761 O 99.9964 6.04542 5.56673 0
M  V30 762 C 99.8364 6.22772 7.02095 0
M  V30 763 C 100.376 4.97725 7.70406 0
M  V30 764 O 99.3204 4.13256 7.58987 0
M  V30 765 C 101.594 4.28231 7.11815 0
M  V30 766 O 102.332 3.49945 8.01648 0
M  V30 767 C 100.925 3.5063 5.96244 0
M  V30 768 O 101.724 2.36482 5.64681 0
M  V30 769 C 99.5884 3.15122 6.56374 0
M  V30 770 H 99.6204 2.13853 6.99751 0
M  V30 771 H 100.803 4.13501 5.06559 0
M  V30 772 H 102.287 5.03285 6.70911 0
M  V30 773 H 100.593 5.20877 8.75697 0
M  V30 774 H 100.403 7.11046 7.35349 0
M  V30 775 H 98.7734 6.35815 7.26986 0
M  V30 776 H 101.412 1.61644 6.13565 0
M  V30 777 P 103.27 3.65191 7.99657 0
M  V30 778 O 104.692 3.8425 8.48115 0
M  V30 779 O 102.91 4.17805 6.64342 0
M  V30 780 O 102.947 2.07613 7.95143 0
M  V30 781 C 102.787 1.44328 9.27336 0
M  V30 782 C 103.327 0.0220036 9.17197 0
M  V30 783 O 102.271 -0.626867 8.61923 0
M  V30 784 C 104.545 -0.24586 8.30336 0
M  V30 785 O 105.283 -1.39011 8.63583 0
M  V30 786 C 103.876 -0.273849 6.91158 0
M  V30 787 O 104.675 -1.06348 6.02892 0
M  V30 788 C 102.539 -0.897649 7.22545 0
M  V30 789 H 102.571 -1.9841 7.04286 0
M  V30 790 H 103.754 0.739928 6.497 0
M  V30 791 H 105.238 0.60668 8.36503 0
M  V30 792 H 103.544 -0.352479 10.1829 0
M  V30 793 H 103.354 2.00611 10.0304 0
M  V30 794 H 101.724 1.41843 9.55327 0
M  V30 795 H 104.363 -1.95734 6.03555 0
M  V30 796 P 106.221 -1.25109 8.70152 0
M  V30 797 O 107.643 -1.35274 9.21221 0
M  V30 798 O 105.861 -0.0769065 7.84762 0
M  V30 799 O 105.898 -2.55232 7.81161 0
M  V30 800 C 105.738 -3.79939 8.58154 0
M  V30 801 C 106.278 -4.94023 7.72785 0
M  V30 802 O 105.222 -5.18726 6.91205 0
M  V30 803 C 107.496 -4.69597 6.85231 0
M  V30 804 O 108.234 -5.83832 6.51337 0
M  V30 805 C 106.827 -3.96706 5.66633 0
M  V30 806 O 107.626 -4.15414 4.49689 0
M  V30 807 C 105.49 -4.66153 5.59313 0
M  V30 808 H 105.522 -5.47679 4.85214 0
M  V30 809 H 106.705 -2.89008 5.86566 0
M  V30 810 H 108.189 -4.0121 7.36511 0
M  V30 811 H 106.495 -5.80182 8.37584 0
M  V30 812 H 106.305 -3.73517 9.52265 0
M  V30 813 H 104.675 -3.97163 8.80359 0
M  V30 814 H 107.314 -4.90969 4.01921 0
M  V30 815 P 109.171 -5.75688 6.64379 0
M  V30 816 O 110.593 -6.11849 7.01846 0
M  V30 817 O 108.811 -4.30744 6.56026 0
M  V30 818 O 108.848 -6.37042 5.19165 0
M  V30 819 C 108.688 -7.83578 5.16515 0
M  V30 820 C 109.228 -8.33398 3.83019 0
M  V30 821 O 108.172 -8.10074 3.01034 0
M  V30 822 C 110.446 -7.65514 3.2257 0
M  V30 823 O 111.184 -8.4329 2.32297 0
M  V30 824 C 109.777 -6.40075 2.62207 0
M  V30 825 O 110.576 -5.92589 1.53712 0
M  V30 826 C 108.44 -6.9454 2.18503 0
M  V30 827 H 108.472 -7.23063 1.12091 0
M  V30 828 H 109.655 -5.6025 3.37201 0
M  V30 829 H 111.139 -7.35707 4.02681 0
M  V30 830 H 109.445 -9.40912 3.9095 0
M  V30 831 H 109.255 -8.29056 5.99158 0
M  V30 832 H 107.625 -8.10073 5.25882 0
M  V30 833 H 110.264 -6.30324 0.726794 0
M  V30 834 P 112.122 -8.4349 2.47671 0
M  V30 835 O 113.544 -8.94167 2.5964 0
M  V30 836 O 111.762 -7.1704 3.19006 0
M  V30 837 O 111.799 -8.16596 0.923387 0
M  V30 838 C 111.639 -9.38437 0.108857 0
M  V30 839 C 112.179 -9.08175 -1.28353 0
M  V30 840 O 111.123 -8.44229 -1.84713 0
M  V30 841 C 113.397 -8.18386 -1.42505 0
M  V30 842 O 114.135 -8.3501 -2.60497 0
M  V30 843 C 112.728 -6.80225 -1.25468 0
M  V30 844 O 113.527 -5.81621 -1.91066 0
M  V30 845 C 111.391 -7.02416 -1.9168 0
M  V30 846 H 111.423 -6.6888 -2.96621 0
M  V30 847 H 112.606 -6.53617 -0.192223 0
M  V30 848 H 114.09 -8.36622 -0.589963 0
M  V30 849 H 112.396 -10.0291 -1.79807 0
M  V30 850 H 112.206 -10.2138 0.558219 0
M  V30 851 H 110.576 -9.6579 0.0444202 0
M  V30 852 H 113.215 -5.69556 -2.79637 0
M  V30 853 P 115.072 -8.4349 -2.47671 0
M  V30 854 O 116.494 -8.92593 -2.65 0
M  V30 855 O 114.712 -7.7568 -1.19296 0
M  V30 856 O 114.749 -7.36886 -3.63805 0
M  V30 857 C 114.589 -7.95349 -4.982 0
M  V30 858 C 115.129 -6.94612 -5.98974 0
M  V30 859 O 114.073 -6.10347 -6.11815 0
M  V30 860 C 116.347 -6.11426 -5.62335 0
M  V30 861 O 117.085 -5.6162 -6.70584 0
M  V30 862 C 115.678 -5.04409 -4.73308 0
M  V30 863 O 116.477 -3.85992 -4.75183 0
M  V30 864 C 114.341 -4.8728 -5.41006 0
M  V30 865 H 114.373 -4.02333 -6.11157 0
M  V30 866 H 115.556 -5.39466 -3.69543 0
M  V30 867 H 117.04 -6.71916 -5.01943 0
M  V30 868 H 115.346 -7.4649 -6.93477 0
M  V30 869 H 115.156 -8.89416 -5.05237 0
M  V30 870 H 113.526 -8.14876 -5.18409 0
M  V30 871 H 116.165 -3.27957 -5.4317 0
M  V30 872 P 118.023 -5.75688 -6.64379 0
M  V30 873 O 119.445 -6.07627 -7.05504 0
M  V30 874 O 117.663 -5.88047 -5.19722 0
M  V30 875 O 117.7 -4.2322 -7.04443 0
M  V30 876 C 117.54 -3.99743 -8.4911 0
M  V30 877 C 118.08 -2.60516 -8.79425 0
M  V30 878 O 117.024 -1.82684 -8.4467 0
M  V30 879 C 119.298 -2.10343 -8.03628 0
M  V30 880 O 120.036 -1.09919 -8.67766 0
M  V30 881 C 118.629 -1.68446 -6.70876 0
M  V30 882 O 119.428 -0.678137 -6.08433 0
M  V30 883 C 117.292 -1.17436 -7.18567 0
M  V30 884 H 117.324 -0.0804732 -7.31656 0
M  V30 885 H 118.507 -2.54037 -6.02537 0
M  V30 886 H 119.991 -2.93881 -7.85526 0
M  V30 887 H 118.297 -2.53065 -9.86973 0
M  V30 888 H 118.107 -4.75072 -9.05887 0
M  V30 889 H 116.477 -4.05244 -8.76668 0
M  V30 890 H 119.116 0.177647 -6.34251 0
M  V30 891 P 120.973 -1.25109 -8.70152 0
M  V30 892 O 122.395 -1.29744 -9.22016 0
M  V30 893 O 120.613 -2.13714 -7.55141 0
M  V30 894 O 120.65 0.248149 -8.21425 0
M  V30 895 C 120.49 1.22779 -9.30434 0
M  V30 896 C 121.03 2.56293 -8.80664 0
M  V30 897 O 119.974 3.02979 -8.09349 0
M  V30 898 C 122.248 2.57523 -7.89775 0
M  V30 899 O 122.986 3.7668 -7.89438 0
M  V30 900 C 121.579 2.20997 -6.55446 0
M  V30 901 O 122.378 2.71895 -5.48509 0
M  V30 902 C 120.242 2.89693 -6.67988 0
M  V30 903 H 120.274 3.88793 -6.19859 0
M  V30 904 H 121.457 1.12046 -6.44229 0
M  V30 905 H 122.941 1.7746 -8.19711 0
M  V30 906 H 121.247 3.20706 -9.67112 0
M  V30 907 H 121.057 0.901032 -10.1892 0
M  V30 908 H 119.427 1.33049 -9.56592 0
M  V30 909 H 122.066 3.57847 -5.23962 0
M  V30 910 P 123.924 3.65191 -7.99657 0
M  V30 911 O 125.346 3.89332 -8.45794 0
M  V30 912 O 123.564 2.28472 -7.50807 0
M  V30 913 O 123.601 4.64972 -6.77611 0
M  V30 914 C 123.441 6.06319 -7.16352 0
M  V30 915 C 123.981 6.91731 -6.02299 0
M  V30 916 O 122.925 6.92449 -5.17064 0
M  V30 917 C 125.199 6.43627 -5.25174 0
M  V30 918 O 125.937 7.43686 -4.60469 0
M  V30 919 C 124.53 5.40275 -4.31916 0
M  V30 920 O 125.329 5.25279 -3.14438 0
M  V30 921 C 123.193 6.04847 -4.05327 0
M  V30 922 H 123.225 6.62195 -3.11261 0
M  V30 923 H 124.408 4.42556 -4.81383 0
M  V30 924 H 125.892 5.92458 -5.93643 0
M  V30 925 H 124.198 7.92655 -6.402 0
M  V30 926 H 124.008 6.26671 -8.0846 0
M  V30 927 H 122.378 6.29101 -7.32804 0
M  V30 928 H 125.017 5.84315 -2.47318 0
M  V30 929 P 126.875 7.39546 -4.75277 0
M  V30 930 O 128.296 7.84882 -5.01092 0
M  V30 931 O 126.515 5.9812 -5.08098 0
M  V30 932 O 126.552 7.57503 -3.1866 0
M  V30 933 C 126.391 8.97452 -2.74862 0
M  V30 934 C 126.932 9.07548 -1.32709 0
M  V30 935 O 125.877 8.61972 -0.606089 0
M  V30 936 C 128.15 8.25383 -0.938334 0
M  V30 937 O 128.888 8.74577 0.146954 0
M  V30 938 C 127.482 6.8802 -0.712559 0
M  V30 939 O 128.28 6.1181 0.188505 0
M  V30 940 C 126.144 7.27966 -0.139777 0
M  V30 941 N 125.101 6.39368 -0.623421 0
M  V30 942 C 125.27 5.71761 -1.78245 0
M  V30 943 N 124.243 4.962 -2.10491 0
M  V30 944 C 123.358 5.16158 -1.0635 0
M  V30 945 C 122.091 4.60425 -0.810266 0
M  V30 946 N 121.492 3.7057 -1.62914 0
M  V30 947 N 121.526 5.06 0.348685 0
M  V30 948 C 122.128 5.94532 1.20395 0
M  V30 949 N 123.305 6.48452 1.01191 0
M  V30 950 C 123.88 6.04423 -0.146291 0
M  V30 951 H 126.176 7.25255 0.961469 0
M  V30 952 H 127.359 6.32625 -1.65044 0
M  V30 953 H 128.842 8.19355 -1.79097 0
M  V30 954 H 127.148 10.1305 -1.09016 0
M  V30 955 H 126.958 9.64276 -3.41316 0
M  V30 956 H 125.328 9.25417 -2.76357 0
M  V30 957 H 121.592 6.21659 2.10714 0
M  V30 958 H 126.17 5.79354 -2.38959 0
M  V30 959 H 120.562 3.33174 -1.38982 0
M  V30 960 H 121.966 3.39714 -2.48836 0
M  V30 961 H 127.968 6.25169 1.0783 0
M  V30 962 P 129.825 8.791 -1.02308e-13 0
M  V30 963 O 131.247 9.31096 0.027933 0
M  V30 964 O 129.465 7.77869 -1.04071 0
M  V30 965 O 129.502 8.09533 1.41463 0
M  V30 966 C 129.342 9.0349 2.53943 0
M  V30 967 C 129.882 8.35226 3.79016 0
M  V30 968 O 128.826 7.57992 4.15078 0
M  V30 969 C 131.1 7.45087 3.67298 0
M  V30 970 O 131.838 7.27796 4.85194 0
M  V30 971 C 130.431 6.17323 3.12027 0
M  V30 972 O 131.23 5.04231 3.47188 0
M  V30 973 C 129.094 6.19961 3.81809 0
M  V30 974 H 129.126 5.58218 4.73051 0
M  V30 975 H 130.309 6.21726 2.02589 0
M  V30 976 H 131.793 7.86112 2.9231 0
M  V30 977 H 130.099 9.11627 4.55076 0
M  V30 978 H 129.909 9.9573 2.34194 0
M  V30 979 H 128.279 9.2792 2.67832 0
M  V30 980 H 130.918 4.67702 4.28772 0
M  V30 981 P 132.776 7.39546 4.75277 0
M  V30 982 O 134.198 7.81777 5.05738 0
M  V30 983 O 132.416 7.1065 3.32998 0
M  V30 984 O 132.453 6.04542 5.56673 0
M  V30 985 C 132.293 6.22772 7.02095 0
M  V30 986 C 132.833 4.97725 7.70406 0
M  V30 987 O 131.777 4.13256 7.58987 0
M  V30 988 C 134.051 4.28231 7.11815 0
M  V30 989 O 134.789 3.49945 8.01648 0
M  V30 990 C 133.382 3.5063 5.96244 0
M  V30 991 O 134.181 2.36482 5.64681 0
M  V30 992 C 132.045 3.15122 6.56374 0
M  V30 993 H 132.077 2.13853 6.99751 0
M  V30 994 H 133.26 4.13501 5.06559 0
M  V30 995 H 134.744 5.03285 6.70911 0
M  V30 996 H 133.05 5.20877 8.75697 0
M  V30 997 H 132.86 7.11046 7.35349 0
M  V30 998 H 131.23 6.35815 7.26986 0
M  V30 999 H 133.869 1.61644 6.13565 0
M  V30 1000 P 135.726 3.65191 7.99657 0
M  V30 1001 O 137.127 3.90823 8.51272 0
M  V30 1002 O 135.348 4.23191 6.66972 0
M  V30 1003 O 135.403 2.07587 7.95046 0
M  V30 1004 C 135.243 1.44328 9.27336 0
M  V30 1005 C 135.783 0.0220012 9.17097 0
M  V30 1006 O 134.727 -0.626794 8.61824 0
M  V30 1007 C 137 -0.24586 8.30336 0
M  V30 1008 O 137.739 -1.39011 8.63583 0
M  V30 1009 C 136.333 -0.273849 6.91158 0
M  V30 1010 O 137.131 -1.06331 6.02794 0
M  V30 1011 C 134.995 -0.897649 7.22545 0
M  V30 1012 N 133.952 -0.292839 6.41732 0
M  V30 1013 C 132.917 -1.08701 5.98712 0
M  V30 1014 O 132.956 -2.31211 6.24471 0
M  V30 1015 N 131.905 -0.533391 5.28415 0
M  V30 1016 C 131.953 0.770866 4.98576 0
M  V30 1017 C 133.049 1.59049 5.38086 0
M  V30 1018 C 134.015 1.01866 6.10256 0
M  V30 1019 H 135.027 -1.98383 7.04189 0
M  V30 1020 H 136.21 0.733318 6.49674 0
M  V30 1021 H 137.694 0.598386 8.36663 0
M  V30 1022 H 136 -0.362662 10.1825 0
M  V30 1023 H 135.809 2.00611 10.0304 0
M  V30 1024 H 134.179 1.41828 9.55228 0
M  V30 1025 H 133.097 2.6415 5.10622 0
M  V30 1026 H 134.861 1.61983 6.44042 0
M  V30 1027 H 136.915 -1.97777 6.14035 0
M  V30 1028 P 138.677 -1.25109 8.70152 0
M  V30 1029 O 140.099 -1.35274 9.21221 0
M  V30 1030 O 138.317 -0.0769065 7.84762 0
M  V30 1031 O 138.354 -2.55232 7.81161 0
M  V30 1032 C 138.194 -3.79939 8.58154 0
M  V30 1033 C 138.734 -4.94023 7.72785 0
M  V30 1034 O 137.678 -5.18726 6.91205 0
M  V30 1035 C 139.952 -4.69597 6.85231 0
M  V30 1036 O 140.69 -5.83832 6.51337 0
M  V30 1037 C 139.283 -3.96706 5.66633 0
M  V30 1038 O 140.082 -4.15414 4.49689 0
M  V30 1039 C 137.946 -4.66153 5.59313 0
M  V30 1040 H 137.978 -5.47679 4.85214 0
M  V30 1041 H 139.161 -2.89008 5.86566 0
M  V30 1042 H 140.645 -4.0121 7.36511 0
M  V30 1043 H 138.951 -5.80182 8.37584 0
M  V30 1044 H 138.761 -3.73517 9.52265 0
M  V30 1045 H 137.131 -3.97163 8.80359 0
M  V30 1046 H 139.77 -4.90969 4.01921 0
M  V30 1047 P 141.627 -5.75688 6.64379 0
M  V30 1048 O 143.049 -6.11981 7.01997 0
M  V30 1049 O 141.267 -4.30744 6.56026 0
M  V30 1050 O 141.304 -6.37042 5.19165 0
M  V30 1051 C 141.144 -7.83578 5.16515 0
M  V30 1052 C 141.684 -8.33307 3.82977 0
M  V30 1053 O 140.629 -8.10074 3.01034 0
M  V30 1054 C 142.902 -7.65514 3.2257 0
M  V30 1055 O 143.64 -8.4329 2.32297 0
M  V30 1056 C 142.234 -6.40075 2.62207 0
M  V30 1057 O 143.032 -5.92492 1.53687 0
M  V30 1058 C 140.896 -6.9454 2.18503 0
M  V30 1059 N 139.853 -5.95905 2.39948 0
M  V30 1060 C 139.915 -5.13994 3.44742 0
M  V30 1061 N 138.87 -4.30684 3.46712 0
M  V30 1062 C 138.136 -4.65583 2.41086 0
M  V30 1063 C 136.83 -4.20877 1.99581 0
M  V30 1064 O 136.097 -3.35913 2.52616 0
M  V30 1065 N 136.4 -4.83271 0.873406 0
M  V30 1066 C 137.149 -5.82006 0.185129 0
M  V30 1067 N 136.552 -6.30619 -0.95439 0
M  V30 1068 N 138.302 -6.28443 0.578524 0
M  V30 1069 C 138.759 -5.68486 1.70138 0
M  V30 1070 H 140.928 -7.23063 1.12091 0
M  V30 1071 H 142.111 -5.60165 3.3715 0
M  V30 1072 H 143.596 -7.3611 4.01946 0
M  V30 1073 H 141.901 -9.40912 3.9095 0
M  V30 1074 H 141.711 -8.29056 5.99158 0
M  V30 1075 H 140.08 -8.10073 5.25882 0
M  V30 1076 H 135.504 -4.58323 0.505262 0
M  V30 1077 H 140.711 -5.14564 4.1935 0
M  V30 1078 H 135.641 -5.93402 -1.25364 0
M  V30 1079 H 137.017 -7.0425 -1.50254 0
M  V30 1080 H 142.721 -6.30224 0.72668 0
M  V30 1081 P 144.578 -8.4349 2.47671 0
M  V30 1082 O 146 -8.94167 2.5964 0
M  V30 1083 O 144.218 -7.1704 3.19006 0
M  V30 1084 O 144.255 -8.16596 0.923387 0
M  V30 1085 C 144.095 -9.38437 0.108857 0
M  V30 1086 C 144.635 -9.08175 -1.28353 0
M  V30 1087 O 143.579 -8.44229 -1.84713 0
M  V30 1088 C 145.853 -8.18386 -1.42505 0
M  V30 1089 O 146.591 -8.3501 -2.60497 0
M  V30 1090 C 145.184 -6.80225 -1.25468 0
M  V30 1091 O 145.983 -5.81621 -1.91066 0
M  V30 1092 C 143.847 -7.02416 -1.9168 0
M  V30 1093 H 143.879 -6.6888 -2.96621 0
M  V30 1094 H 145.062 -6.53617 -0.192223 0
M  V30 1095 H 146.546 -8.36622 -0.589963 0
M  V30 1096 H 144.852 -10.0291 -1.79807 0
M  V30 1097 H 144.662 -10.2138 0.558219 0
M  V30 1098 H 143.032 -9.6579 0.0444202 0
M  V30 1099 H 145.671 -5.69556 -2.79637 0
M  V30 1100 P 147.528 -8.4349 -2.47671 0
M  V30 1101 O 148.95 -8.92593 -2.65 0
M  V30 1102 O 147.168 -7.7568 -1.19296 0
M  V30 1103 O 147.205 -7.36886 -3.63805 0
M  V30 1104 C 147.045 -7.95349 -4.982 0
M  V30 1105 C 147.585 -6.94612 -5.98974 0
M  V30 1106 O 146.529 -6.10347 -6.11815 0
M  V30 1107 C 148.803 -6.11426 -5.62335 0
M  V30 1108 O 149.541 -5.6162 -6.70584 0
M  V30 1109 C 148.134 -5.04409 -4.73308 0
M  V30 1110 O 148.933 -3.85992 -4.75183 0
M  V30 1111 C 146.797 -4.8728 -5.41006 0
M  V30 1112 H 146.829 -4.02333 -6.11157 0
M  V30 1113 H 148.012 -5.39466 -3.69543 0
M  V30 1114 H 149.496 -6.71916 -5.01943 0
M  V30 1115 H 147.802 -7.4649 -6.93477 0
M  V30 1116 H 147.612 -8.89416 -5.05237 0
M  V30 1117 H 145.982 -8.14876 -5.18409 0
M  V30 1118 H 148.621 -3.27957 -5.4317 0
M  V30 1119 P 150.479 -5.75688 -6.64379 0
M  V30 1120 O 151.901 -6.07627 -7.05504 0
M  V30 1121 O 150.119 -5.88047 -5.19722 0
M  V30 1122 O 150.156 -4.2322 -7.04443 0
M  V30 1123 C 149.996 -3.99743 -8.4911 0
M  V30 1124 C 150.536 -2.60516 -8.79425 0
M  V30 1125 O 149.48 -1.82684 -8.4467 0
M  V30 1126 C 151.754 -2.10343 -8.03628 0
M  V30 1127 O 152.492 -1.09919 -8.67766 0
M  V30 1128 C 151.085 -1.68446 -6.70876 0
M  V30 1129 O 151.884 -0.678137 -6.08433 0
M  V30 1130 C 149.748 -1.17436 -7.18567 0
M  V30 1131 H 149.78 -0.0804732 -7.31656 0
M  V30 1132 H 150.963 -2.54037 -6.02537 0
M  V30 1133 H 152.447 -2.93881 -7.85526 0
M  V30 1134 H 150.753 -2.53065 -9.86973 0
M  V30 1135 H 150.563 -4.75072 -9.05887 0
M  V30 1136 H 148.933 -4.05244 -8.76668 0
M  V30 1137 H 151.572 0.177647 -6.34251 0
M  V30 1138 P 153.43 -1.25109 -8.70152 0
M  V30 1139 O 154.852 -1.29772 -9.22214 0
M  V30 1140 O 153.07 -2.13714 -7.55141 0
M  V30 1141 O 153.107 0.248149 -8.21425 0
M  V30 1142 C 152.947 1.22779 -9.30434 0
M  V30 1143 C 153.487 2.56265 -8.80568 0
M  V30 1144 O 152.432 3.02979 -8.09349 0
M  V30 1145 C 154.705 2.57523 -7.89775 0
M  V30 1146 O 155.443 3.7668 -7.89438 0
M  V30 1147 C 154.037 2.20997 -6.55446 0
M  V30 1148 O 154.835 2.71851 -5.48419 0
M  V30 1149 C 152.699 2.89693 -6.67988 0
M  V30 1150 N 151.656 2.08895 -6.07487 0
M  V30 1151 C 151.718 0.760559 -6.14209 0
M  V30 1152 N 150.673 0.200108 -5.52538 0
M  V30 1153 C 149.939 1.22692 -5.09742 0
M  V30 1154 C 148.633 1.24782 -4.48775 0
M  V30 1155 O 147.9 0.290617 -4.19294 0
M  V30 1156 N 148.203 2.50468 -4.22428 0
M  V30 1157 C 148.952 3.67142 -4.51974 0
M  V30 1158 N 148.355 4.85096 -4.14091 0
M  V30 1159 N 150.105 3.67821 -5.12831 0
M  V30 1160 C 150.562 2.43698 -5.4105 0
M  V30 1161 H 152.731 3.88793 -6.19859 0
M  V30 1162 H 153.914 1.12029 -6.4413 0
M  V30 1163 H 155.399 1.78279 -8.19533 0
M  V30 1164 H 153.704 3.20706 -9.67112 0
M  V30 1165 H 153.514 0.901032 -10.1892 0
M  V30 1166 H 151.883 1.33049 -9.56592 0
M  V30 1167 H 147.307 2.61953 -3.79465 0
M  V30 1168 H 152.514 0.200439 -6.63497 0
M  V30 1169 H 147.444 4.8334 -3.66367 0
M  V30 1170 H 148.82 5.7474 -4.33841 0
M  V30 1171 H 154.524 3.5779 -5.23879 0
M  V30 1172 P 156.38 3.65191 -7.99657 0
M  V30 1173 O 157.802 3.89332 -8.45794 0
M  V30 1174 O 156.02 2.28472 -7.50807 0
M  V30 1175 O 156.057 4.64972 -6.77611 0
M  V30 1176 C 155.897 6.06319 -7.16352 0
M  V30 1177 C 156.437 6.91731 -6.02299 0
M  V30 1178 O 155.381 6.92449 -5.17064 0
M  V30 1179 C 157.655 6.43627 -5.25174 0
M  V30 1180 O 158.393 7.43686 -4.60469 0
M  V30 1181 C 156.986 5.40275 -4.31916 0
M  V30 1182 O 157.785 5.25279 -3.14438 0
M  V30 1183 C 155.649 6.04847 -4.05327 0
M  V30 1184 H 155.681 6.62195 -3.11261 0
M  V30 1185 H 156.864 4.42556 -4.81383 0
M  V30 1186 H 158.348 5.92458 -5.93643 0
M  V30 1187 H 156.654 7.92655 -6.402 0
M  V30 1188 H 156.464 6.26671 -8.0846 0
M  V30 1189 H 154.834 6.29101 -7.32804 0
M  V30 1190 H 157.473 5.84315 -2.47318 0
M  V30 1191 P 159.331 7.39546 -4.75277 0
M  V30 1192 O 160.752 7.84882 -5.01092 0
M  V30 1193 O 158.971 5.9812 -5.08098 0
M  V30 1194 O 159.008 7.57503 -3.1866 0
M  V30 1195 C 158.847 8.97452 -2.74862 0
M  V30 1196 C 159.388 9.07548 -1.32709 0
M  V30 1197 O 158.333 8.61972 -0.606089 0
M  V30 1198 C 160.606 8.25383 -0.938334 0
M  V30 1199 O 161.344 8.74577 0.146954 0
M  V30 1200 C 159.938 6.8802 -0.712559 0
M  V30 1201 O 160.736 6.1181 0.188505 0
M  V30 1202 C 158.6 7.27966 -0.139777 0
M  V30 1203 N 157.557 6.39368 -0.623421 0
M  V30 1204 C 157.726 5.71761 -1.78245 0
M  V30 1205 N 156.699 4.962 -2.10491 0
M  V30 1206 C 155.814 5.16158 -1.0635 0
M  V30 1207 C 154.547 4.60425 -0.810266 0
M  V30 1208 N 153.948 3.7057 -1.62914 0
M  V30 1209 N 153.982 5.06 0.348685 0
M  V30 1210 C 154.584 5.94532 1.20395 0
M  V30 1211 N 155.761 6.48452 1.01191 0
M  V30 1212 C 156.336 6.04423 -0.146291 0
M  V30 1213 H 158.632 7.25255 0.961469 0
M  V30 1214 H 159.815 6.32625 -1.65044 0
M  V30 1215 H 161.298 8.19355 -1.79097 0
M  V30 1216 H 159.604 10.1305 -1.09016 0
M  V30 1217 H 159.414 9.64276 -3.41316 0
M  V30 1218 H 157.784 9.25417 -2.76357 0
M  V30 1219 H 154.048 6.21659 2.10714 0
M  V30 1220 H 158.626 5.79354 -2.38959 0
M  V30 1221 H 153.018 3.33174 -1.38982 0
M  V30 1222 H 154.422 3.39714 -2.48836 0
M  V30 1223 H 160.424 6.25169 1.0783 0
M  V30 1224 P 162.281 8.791 -1.35693e-13 0
M  V30 1225 O 163.703 9.31096 0.027933 0
M  V30 1226 O 161.921 7.77869 -1.04071 0
M  V30 1227 O 161.958 8.09533 1.41463 0
M  V30 1228 C 161.798 9.0349 2.53943 0
M  V30 1229 C 162.338 8.35226 3.79016 0
M  V30 1230 O 161.282 7.57992 4.15078 0
M  V30 1231 C 163.556 7.45087 3.67298 0
M  V30 1232 O 164.294 7.27796 4.85194 0
M  V30 1233 C 162.887 6.17323 3.12027 0
M  V30 1234 O 163.686 5.04231 3.47188 0
M  V30 1235 C 161.55 6.19961 3.81809 0
M  V30 1236 H 161.582 5.58218 4.73051 0
M  V30 1237 H 162.765 6.21726 2.02589 0
M  V30 1238 H 164.249 7.86112 2.9231 0
M  V30 1239 H 162.555 9.11627 4.55076 0
M  V30 1240 H 162.365 9.9573 2.34194 0
M  V30 1241 H 160.735 9.2792 2.67832 0
M  V30 1242 H 163.374 4.67702 4.28772 0
M  V30 1243 P 165.232 7.39546 4.75277 0
M  V30 1244 O 166.654 7.81777 5.05738 0
M  V30 1245 O 164.872 7.1065 3.32998 0
M  V30 1246 O 164.909 6.04542 5.56673 0
M  V30 1247 C 164.749 6.22772 7.02095 0
M  V30 1248 C 165.289 4.97725 7.70406 0
M  V30 1249 O 164.233 4.13256 7.58987 0
M  V30 1250 C 166.507 4.28231 7.11815 0
M  V30 1251 O 167.245 3.49945 8.01648 0
M  V30 1252 C 165.838 3.5063 5.96244 0
M  V30 1253 O 166.637 2.36482 5.64681 0
M  V30 1254 C 164.501 3.15122 6.56374 0
M  V30 1255 H 164.533 2.13853 6.99751 0
M  V30 1256 H 165.716 4.13501 5.06559 0
M  V30 1257 H 167.2 5.03285 6.70911 0
M  V30 1258 H 165.506 5.20877 8.75697 0
M  V30 1259 H 165.316 7.11046 7.35349 0
M  V30 1260 H 163.686 6.35815 7.26986 0
M  V30 1261 H 166.325 1.61644 6.13565 0
M  V30 1262 P 168.182 3.65191 7.99657 0
M  V30 1263 O 169.604 3.8425 8.48115 0
M  V30 1264 O 167.822 4.17805 6.64342 0
M  V30 1265 O 167.859 2.07613 7.95143 0
M  V30 1266 C 167.699 1.44328 9.27336 0
M  V30 1267 C 168.239 0.0220036 9.17197 0
M  V30 1268 O 167.183 -0.626867 8.61923 0
M  V30 1269 C 169.457 -0.24586 8.30336 0
M  V30 1270 O 170.195 -1.39011 8.63583 0
M  V30 1271 C 168.788 -0.273849 6.91158 0
M  V30 1272 O 169.587 -1.06348 6.02892 0
M  V30 1273 C 167.451 -0.897649 7.22545 0
M  V30 1274 H 167.483 -1.9841 7.04286 0
M  V30 1275 H 168.666 0.739928 6.497 0
M  V30 1276 H 170.15 0.60668 8.36503 0
M  V30 1277 H 168.456 -0.352479 10.1829 0
M  V30 1278 H 168.266 2.00611 10.0304 0
M  V30 1279 H 166.636 1.41843 9.55327 0
M  V30 1280 H 169.275 -1.95734 6.03555 0
M  V30 1281 P 171.133 -1.25109 8.70152 0
M  V30 1282 O 172.554 -1.35288 9.2132 0
M  V30 1283 O 170.773 -0.0769065 7.84762 0
M  V30 1284 O 170.81 -2.55232 7.81161 0
M  V30 1285 C 170.649 -3.79979 8.58246 0
M  V30 1286 C 171.19 -4.94023 7.72785 0
M  V30 1287 O 170.135 -5.18666 6.91125 0
M  V30 1288 C 172.408 -4.69597 6.85231 0
M  V30 1289 O 173.146 -5.83832 6.51337 0
M  V30 1290 C 171.74 -3.96706 5.66633 0
M  V30 1291 O 172.538 -4.14896 4.5003 0
M  V30 1292 C 170.402 -4.66153 5.59313 0
M  V30 1293 N 169.359 -3.71582 5.24027 0
M  V30 1294 C 169.528 -2.39715 5.48833 0
M  V30 1295 N 168.501 -1.65863 5.12845 0
M  V30 1296 C 167.616 -2.57637 4.5973 0
M  V30 1297 C 166.349 -2.40278 4.01027 0
M  V30 1298 N 165.75 -1.19549 3.86744 0
M  V30 1299 N 165.784 -3.57711 3.59575 0
M  V30 1300 C 166.386 -4.80324 3.70476 0
M  V30 1301 N 167.563 -5.01121 4.23801 0
M  V30 1302 C 168.138 -3.84757 4.66372 0
M  V30 1303 H 170.434 -5.47604 4.85148 0
M  V30 1304 H 171.617 -2.8955 5.86187 0
M  V30 1305 H 173.1 -4.0121 7.36511 0
M  V30 1306 H 171.406 -5.81019 8.37003 0
M  V30 1307 H 171.216 -3.73517 9.52265 0
M  V30 1308 H 169.586 -3.97163 8.80359 0
M  V30 1309 H 165.85 -5.66348 3.3183 0
M  V30 1310 H 170.428 -1.98804 5.94332 0
M  V30 1311 H 164.82 -1.13147 3.4281 0
M  V30 1312 H 166.224 -0.344074 4.19692 0
M  V30 1313 H 172.226 -4.90891 4.01857 0
M  V30 1314 P 174.084 -5.75688 6.64379 0
M  V30 1315 O 175.506 -6.11849 7.01846 0
M  V30 1316 O 173.724 -4.30744 6.56026 0
M  V30 1317 O 173.761 -6.37042 5.19165 0
M  V30 1318 C 173.601 -7.83578 5.16515 0
M  V30 1319 C 174.141 -8.33398 3.83019 0
M  V30 1320 O 173.085 -8.10074 3.01034 0
M  V30 1321 C 175.359 -7.65514 3.2257 0
M  V30 1322 O 176.097 -8.4329 2.32297 0
M  V30 1323 C 174.69 -6.40075 2.62207 0
M  V30 1324 O 175.489 -5.92589 1.53712 0
M  V30 1325 C 173.353 -6.9454 2.18503 0
M  V30 1326 H 173.385 -7.23063 1.12091 0
M  V30 1327 H 174.568 -5.6025 3.37201 0
M  V30 1328 H 176.052 -7.35707 4.02681 0
M  V30 1329 H 174.358 -9.40912 3.9095 0
M  V30 1330 H 174.168 -8.29056 5.99158 0
M  V30 1331 H 172.538 -8.10073 5.25882 0
M  V30 1332 H 175.177 -6.30324 0.726794 0
M  V30 1333 P 177.034 -8.4349 2.47671 0
M  V30 1334 O 178.456 -8.94167 2.5964 0
M  V30 1335 O 176.674 -7.1704 3.19006 0
M  V30 1336 O 176.711 -8.16596 0.923387 0
M  V30 1337 C 176.551 -9.38437 0.108857 0
M  V30 1338 C 177.091 -9.08175 -1.28353 0
M  V30 1339 O 176.035 -8.44229 -1.84713 0
M  V30 1340 C 178.309 -8.18386 -1.42505 0
M  V30 1341 O 179.047 -8.3501 -2.60497 0
M  V30 1342 C 177.64 -6.80225 -1.25468 0
M  V30 1343 O 178.439 -5.81621 -1.91066 0
M  V30 1344 C 176.303 -7.02416 -1.9168 0
M  V30 1345 H 176.335 -6.6888 -2.96621 0
M  V30 1346 H 177.518 -6.53617 -0.192223 0
M  V30 1347 H 179.002 -8.36622 -0.589963 0
M  V30 1348 H 177.308 -10.0291 -1.79807 0
M  V30 1349 H 177.118 -10.2138 0.558219 0
M  V30 1350 H 175.488 -9.6579 0.0444202 0
M  V30 1351 H 178.127 -5.69556 -2.79637 0
M  V30 1352 P 179.985 -8.4349 -2.47671 0
M  V30 1353 O 181.407 -8.92593 -2.65 0
M  V30 1354 O 179.625 -7.7568 -1.19296 0
M  V30 1355 O 179.662 -7.36886 -3.63805 0
M  V30 1356 C 179.502 -7.95349 -4.982 0
M  V30 1357 C 180.042 -6.94612 -5.98974 0
M  V30 1358 O 178.986 -6.10347 -6.11815 0
M  V30 1359 C 181.26 -6.11426 -5.62335 0
M  V30 1360 O 181.998 -5.6162 -6.70584 0
M  V30 1361 C 180.591 -5.04409 -4.73308 0
M  V30 1362 O 181.39 -3.85992 -4.75183 0
M  V30 1363 C 179.254 -4.8728 -5.41006 0
M  V30 1364 H 179.286 -4.02333 -6.11157 0
M  V30 1365 H 180.469 -5.39466 -3.69543 0
M  V30 1366 H 181.953 -6.71916 -5.01943 0
M  V30 1367 H 180.259 -7.4649 -6.93477 0
M  V30 1368 H 180.069 -8.89416 -5.05237 0
M  V30 1369 H 178.439 -8.14876 -5.18409 0
M  V30 1370 H 181.078 -3.27957 -5.4317 0
M  V30 1371 P 182.935 -5.75688 -6.64379 0
M  V30 1372 O 184.357 -6.07627 -7.05504 0
M  V30 1373 O 182.575 -5.88047 -5.19722 0
M  V30 1374 O 182.612 -4.2322 -7.04443 0
M  V30 1375 C 182.452 -3.99743 -8.4911 0
M  V30 1376 C 182.992 -2.60516 -8.79425 0
M  V30 1377 O 181.936 -1.82684 -8.4467 0
M  V30 1378 C 184.21 -2.10343 -8.03628 0
M  V30 1379 O 184.948 -1.09919 -8.67766 0
M  V30 1380 C 183.541 -1.68446 -6.70876 0
M  V30 1381 O 184.34 -0.678137 -6.08433 0
M  V30 1382 C 182.204 -1.17436 -7.18567 0
M  V30 1383 H 182.236 -0.0804732 -7.31656 0
M  V30 1384 H 183.419 -2.54037 -6.02537 0
M  V30 1385 H 184.903 -2.93881 -7.85526 0
M  V30 1386 H 183.209 -2.53065 -9.86973 0
M  V30 1387 H 183.019 -4.75072 -9.05887 0
M  V30 1388 H 181.389 -4.05244 -8.76668 0
M  V30 1389 H 184.028 0.177647 -6.34251 0
M  V30 1390 P 185.886 -1.25109 -8.70152 0
M  V30 1391 O 187.307 -1.29758 -9.22115 0
M  V30 1392 O 185.526 -2.13714 -7.55141 0
M  V30 1393 O 185.563 0.248149 -8.21425 0
M  V30 1394 C 185.402 1.22792 -9.30533 0
M  V30 1395 C 185.943 2.56293 -8.80664 0
M  V30 1396 O 184.888 3.02944 -8.09255 0
M  V30 1397 C 187.161 2.57523 -7.89775 0
M  V30 1398 O 187.899 3.7668 -7.89438 0
M  V30 1399 C 186.493 2.20997 -6.55446 0
M  V30 1400 O 187.291 2.71302 -5.48691 0
M  V30 1401 C 185.155 2.89693 -6.67988 0
M  V30 1402 N 184.112 2.08895 -6.07487 0
M  V30 1403 C 184.281 0.753809 -5.94137 0
M  V30 1404 N 183.254 0.146592 -5.38801 0
M  V30 1405 C 182.369 1.1768 -5.13693 0
M  V30 1406 C 181.102 1.17563 -4.52477 0
M  V30 1407 N 180.503 0.057481 -4.04759 0
M  V30 1408 N 180.537 2.41918 -4.45789 0
M  V30 1409 C 181.139 3.56493 -4.90792 0
M  V30 1410 N 182.316 3.61423 -5.47817 0
M  V30 1411 C 182.891 2.37779 -5.5588 0
M  V30 1412 H 185.187 3.8874 -6.19774 0
M  V30 1413 H 186.37 1.12673 -6.44018 0
M  V30 1414 H 187.853 1.7746 -8.19711 0
M  V30 1415 H 186.159 3.21673 -9.66791 0
M  V30 1416 H 185.969 0.901032 -10.1892 0
M  V30 1417 H 184.339 1.33049 -9.56592 0
M  V30 1418 H 180.603 4.49919 -4.77947 0
M  V30 1419 H 185.181 0.233081 -6.26266 0
M  V30 1420 H 179.573 0.119831 -3.60801 0
M  V30 1421 H 180.977 -0.852272 -4.12385 0
M  V30 1422 H 186.979 3.5779 -5.23879 0
M  V30 1423 P 188.836 3.65191 -7.99657 0
M  V30 1424 O 190.257 3.89374 -8.45885 0
M  V30 1425 O 188.476 2.28472 -7.50807 0
M  V30 1426 O 188.513 4.64972 -6.77611 0
M  V30 1427 C 188.352 6.06383 -7.16428 0
M  V30 1428 C 188.893 6.91731 -6.02299 0
M  V30 1429 O 187.838 6.92369 -5.17005 0
M  V30 1430 C 190.111 6.43627 -5.25174 0
M  V30 1431 O 190.849 7.43686 -4.60469 0
M  V30 1432 C 189.443 5.40275 -4.31916 0
M  V30 1433 O 190.241 5.24878 -3.14911 0
M  V30 1434 C 188.105 6.04847 -4.05327 0
M  V30 1435 N 187.062 5.04166 -3.98114 0
M  V30 1436 C 187.231 3.84629 -4.59066 0
M  V30 1437 N 186.204 3.0363 -4.45343 0
M  V30 1438 C 185.319 3.76722 -3.68523 0
M  V30 1439 C 184.052 3.43528 -3.17088 0
M  V30 1440 N 183.453 2.23665 -3.37397 0
M  V30 1441 N 183.487 4.44526 -2.44231 0
M  V30 1442 C 184.089 5.65243 -2.20146 0
M  V30 1443 N 185.266 6.00221 -2.65453 0
M  V30 1444 C 185.841 5.00564 -3.39083 0
M  V30 1445 H 188.137 6.62104 -3.11218 0
M  V30 1446 H 189.32 4.42969 -4.80867 0
M  V30 1447 H 190.803 5.92458 -5.93643 0
M  V30 1448 H 189.109 7.93295 -6.39407 0
M  V30 1449 H 188.919 6.26671 -8.0846 0
M  V30 1450 H 187.289 6.29101 -7.32804 0
M  V30 1451 H 183.553 6.36894 -1.5883 0
M  V30 1452 H 188.131 3.58193 -5.14248 0
M  V30 1453 H 182.523 2.05145 -2.97047 0
M  V30 1454 H 183.927 1.51255 -3.92998 0
M  V30 1455 H 189.929 5.84223 -2.47279 0
M  V30 1456 P 191.787 7.39546 -4.75277 0
M  V30 1457 O 193.209 7.84798 -5.01039 0
M  V30 1458 O 191.427 5.9812 -5.08098 0
M  V30 1459 O 191.464 7.57503 -3.1866 0
M  V30 1460 C 191.304 8.97357 -2.74833 0
M  V30 1461 C 191.844 9.07548 -1.32709 0
M  V30 1462 O 190.788 8.62072 -0.606159 0
M  V30 1463 C 193.062 8.25383 -0.938334 0
M  V30 1464 O 193.8 8.74577 0.146954 0
M  V30 1465 C 192.393 6.8802 -0.712559 0
M  V30 1466 O 193.192 6.1189 0.194655 0
M  V30 1467 C 191.056 7.27966 -0.139777 0
M  V30 1468 H 191.088 7.25354 0.961601 0
M  V30 1469 H 192.271 6.32557 -1.65702 0
M  V30 1470 H 193.755 8.19355 -1.79097 0
M  V30 1471 H 192.061 10.1294 -1.10029 0
M  V30 1472 H 191.871 9.64276 -3.41316 0
M  V30 1473 H 190.241 9.25417 -2.76357 0
M  V30 1474 H 192.88 6.25267 1.07847 0
M  V30 1475 P 194.738 8.791 1.12009e-13 0
M  V30 1476 O 196.16 9.31096 0.027933 0
M  V30 1477 O 194.378 7.77869 -1.04071 0
M  V30 1478 O 194.415 8.09533 1.41463 0
M  V30 1479 C 194.255 9.0349 2.53943 0
M  V30 1480 C 194.795 8.35226 3.79016 0
M  V30 1481 O 193.739 7.57992 4.15078 0
M  V30 1482 C 196.013 7.45087 3.67298 0
M  V30 1483 O 196.751 7.27796 4.85194 0
M  V30 1484 C 195.344 6.17323 3.12027 0
M  V30 1485 O 196.143 5.04231 3.47188 0
M  V30 1486 C 194.007 6.19961 3.81809 0
M  V30 1487 H 194.039 5.58218 4.73051 0
M  V30 1488 H 195.222 6.21726 2.02589 0
M  V30 1489 H 196.706 7.86112 2.9231 0
M  V30 1490 H 195.012 9.11627 4.55076 0
M  V30 1491 H 194.822 9.9573 2.34194 0
M  V30 1492 H 193.192 9.2792 2.67832 0
M  V30 1493 H 195.831 4.67702 4.28772 0
M  V30 1494 P 197.688 7.39546 4.75277 0
M  V30 1495 O 199.109 7.81861 5.05793 0
M  V30 1496 O 197.328 7.1065 3.32998 0
M  V30 1497 O 197.365 6.04542 5.56673 0
M  V30 1498 C 197.204 6.22839 7.02169 0
M  V30 1499 C 197.745 4.97725 7.70406 0
M  V30 1500 O 196.69 4.13208 7.58899 0
M  V30 1501 C 198.963 4.28231 7.11815 0
M  V30 1502 O 199.701 3.49945 8.01648 0
M  V30 1503 C 198.295 3.5063 5.96244 0
M  V30 1504 O 199.093 2.37008 5.64352 0
M  V30 1505 C 196.957 3.15122 6.56374 0
M  V30 1506 N 195.914 3.22311 5.55692 0
M  V30 1507 C 196.083 3.99655 4.46046 0
M  V30 1508 N 195.056 3.97599 3.63918 0
M  V30 1509 C 194.171 3.11159 4.25334 0
M  V30 1510 C 192.904 2.64972 3.85157 0
M  V30 1511 N 192.339 1.78482 4.74759 0
M  V30 1512 C 192.941 1.37463 5.90819 0
M  V30 1513 N 194.118 1.7733 6.31889 0
M  V30 1514 C 194.693 2.64393 5.43725 0
M  V30 1515 H 198.172 4.12931 5.06895 0
M  V30 1516 H 199.655 5.03285 6.70911 0
M  V30 1517 H 197.961 5.20001 8.76217 0
M  V30 1518 H 197.771 7.11046 7.35349 0
M  V30 1519 H 196.141 6.35815 7.26986 0
M  V30 1520 H 196.983 4.58037 4.27732 0
M  V30 1521 H 198.781 1.61619 6.13468 0
M  V30 1522 P 200.639 3.65191 7.99657 0
M  V30 1523 O 202.061 3.8425 8.48115 0
M  V30 1524 O 200.279 4.17805 6.64342 0
M  V30 1525 O 200.316 2.07613 7.95143 0
M  V30 1526 C 200.156 1.44328 9.27336 0
M  V30 1527 C 200.696 0.0220036 9.17197 0
M  V30 1528 O 199.64 -0.626867 8.61923 0
M  V30 1529 C 201.914 -0.24586 8.30336 0
M  V30 1530 O 202.652 -1.39011 8.63583 0
M  V30 1531 C 201.245 -0.273849 6.91158 0
M  V30 1532 O 202.044 -1.06348 6.02892 0
M  V30 1533 C 199.908 -0.897649 7.22545 0
M  V30 1534 H 199.94 -1.9841 7.04286 0
M  V30 1535 H 201.123 0.739928 6.497 0
M  V30 1536 H 202.607 0.60668 8.36503 0
M  V30 1537 H 200.913 -0.352479 10.1829 0
M  V30 1538 H 200.723 2.00611 10.0304 0
M  V30 1539 H 199.093 1.41843 9.55327 0
M  V30 1540 H 201.732 -1.95734 6.03555 0
M  V30 1541 P 203.589 -1.25109 8.70152 0
M  V30 1542 O 205.011 -1.35274 9.21221 0
M  V30 1543 O 203.229 -0.0769065 7.84762 0
M  V30 1544 O 203.266 -2.55232 7.81161 0
M  V30 1545 C 203.106 -3.79939 8.58154 0
M  V30 1546 C 203.646 -4.94023 7.72785 0
M  V30 1547 O 202.59 -5.18726 6.91205 0
M  V30 1548 C 204.864 -4.69597 6.85231 0
M  V30 1549 O 205.602 -5.83832 6.51337 0
M  V30 1550 C 204.195 -3.96706 5.66633 0
M  V30 1551 O 204.994 -4.15414 4.49689 0
M  V30 1552 C 202.858 -4.66153 5.59313 0
M  V30 1553 H 202.89 -5.47679 4.85214 0
M  V30 1554 H 204.073 -2.89008 5.86566 0
M  V30 1555 H 205.557 -4.0121 7.36511 0
M  V30 1556 H 203.863 -5.80182 8.37584 0
M  V30 1557 H 203.673 -3.73517 9.52265 0
M  V30 1558 H 202.043 -3.97163 8.80359 0
M  V30 1559 H 204.682 -4.90969 4.01921 0
M  V30 1560 P 206.54 -5.75688 6.64379 0
M  V30 1561 O 207.962 -6.11849 7.01846 0
M  V30 1562 O 206.18 -4.30744 6.56026 0
M  V30 1563 O 206.217 -6.37042 5.19165 0
M  V30 1564 C 206.057 -7.83578 5.16515 0
M  V30 1565 C 206.597 -8.33398 3.83019 0
M  V30 1566 O 205.541 -8.10074 3.01034 0
M  V30 1567 C 207.815 -7.65514 3.2257 0
M  V30 1568 O 208.553 -8.4329 2.32297 0
M  V30 1569 C 207.146 -6.40075 2.62207 0
M  V30 1570 O 207.945 -5.92589 1.53712 0
M  V30 1571 C 205.809 -6.9454 2.18503 0
M  V30 1572 H 205.841 -7.23063 1.12091 0
M  V30 1573 H 207.024 -5.6025 3.37201 0
M  V30 1574 H 208.508 -7.35707 4.02681 0
M  V30 1575 H 206.814 -9.40912 3.9095 0
M  V30 1576 H 206.624 -8.29056 5.99158 0
M  V30 1577 H 204.994 -8.10073 5.25882 0
M  V30 1578 H 207.633 -6.30324 0.726794 0
M  V30 1579 P 209.49 -8.4349 2.47671 0
M  V30 1580 O 210.912 -8.94167 2.5964 0
M  V30 1581 O 209.13 -7.1704 3.19006 0
M  V30 1582 O 209.167 -8.16596 0.923387 0
M  V30 1583 C 209.007 -9.38437 0.108857 0
M  V30 1584 C 209.547 -9.08175 -1.28353 0
M  V30 1585 O 208.491 -8.44229 -1.84713 0
M  V30 1586 C 210.765 -8.18386 -1.42505 0
M  V30 1587 O 211.503 -8.3501 -2.60497 0
M  V30 1588 C 210.096 -6.80225 -1.25468 0
M  V30 1589 O 210.895 -5.81621 -1.91066 0
M  V30 1590 C 208.759 -7.02416 -1.9168 0
M  V30 1591 H 208.791 -6.6888 -2.96621 0
M  V30 1592 H 209.974 -6.53617 -0.192223 0
M  V30 1593 H 211.458 -8.36622 -0.589963 0
M  V30 1594 H 209.764 -10.0291 -1.79807 0
M  V30 1595 H 209.574 -10.2138 0.558219 0
M  V30 1596 H 207.944 -9.6579 0.0444202 0
M  V30 1597 H 210.583 -5.69556 -2.79637 0
M  V30 1598 P 212.441 -8.4349 -2.47671 0
M  V30 1599 O 213.862 -8.92689 -2.65029 0
M  V30 1600 O 212.081 -7.7568 -1.19296 0
M  V30 1601 O 212.118 -7.36886 -3.63805 0
M  V30 1602 C 211.957 -7.95433 -4.98253 0
M  V30 1603 C 212.498 -6.94612 -5.98974 0
M  V30 1604 O 211.443 -6.10277 -6.11744 0
M  V30 1605 C 213.716 -6.11426 -5.62335 0
M  V30 1606 O 214.454 -5.6162 -6.70584 0
M  V30 1607 C 213.048 -5.04409 -4.73308 0
M  V30 1608 O 213.846 -3.86404 -4.74719 0
M  V30 1609 C 211.71 -4.8728 -5.41006 0
M  V30 1610 N 210.667 -4.65812 -4.42377 0
M  V30 1611 C 210.836 -5.09132 -3.15382 0
M  V30 1612 N 209.809 -4.84021 -2.3716 0
M  V30 1613 C 208.924 -4.18386 -3.20441 0
M  V30 1614 C 207.657 -3.6275 -2.94905 0
M  V30 1615 N 207.092 -3.05008 -4.05243 0
M  V30 1616 C 207.694 -2.98348 -5.28159 0
M  V30 1617 N 208.871 -3.48171 -5.56333 0
M  V30 1618 C 209.446 -4.06869 -4.47212 0
M  V30 1619 H 212.925 -5.39013 -3.70026 0
M  V30 1620 H 214.408 -6.71916 -5.01943 0
M  V30 1621 H 212.714 -7.45796 -6.94223 0
M  V30 1622 H 212.524 -8.89416 -5.05237 0
M  V30 1623 H 210.894 -8.14876 -5.18409 0
M  V30 1624 H 211.736 -5.59989 -2.81362 0
M  V30 1625 H 213.534 -3.27906 -5.43085 0
M  V30 1626 P 215.392 -5.75688 -6.64379 0
M  V30 1627 O 216.814 -6.07627 -7.05504 0
M  V30 1628 O 215.032 -5.88047 -5.19722 0
M  V30 1629 O 215.069 -4.2322 -7.04443 0
M  V30 1630 C 214.909 -3.99743 -8.4911 0
M  V30 1631 C 215.449 -2.60516 -8.79425 0
M  V30 1632 O 214.393 -1.82684 -8.4467 0
M  V30 1633 C 216.667 -2.10343 -8.03628 0
M  V30 1634 O 217.405 -1.09919 -8.67766 0
M  V30 1635 C 215.998 -1.68446 -6.70876 0
M  V30 1636 O 216.797 -0.678137 -6.08433 0
M  V30 1637 C 214.661 -1.17436 -7.18567 0
M  V30 1638 H 214.693 -0.0804732 -7.31656 0
M  V30 1639 H 215.876 -2.54037 -6.02537 0
M  V30 1640 H 217.36 -2.93881 -7.85526 0
M  V30 1641 H 215.666 -2.53065 -9.86973 0
M  V30 1642 H 215.476 -4.75072 -9.05887 0
M  V30 1643 H 213.846 -4.05244 -8.76668 0
M  V30 1644 H 216.485 0.177647 -6.34251 0
M  V30 1645 P 218.342 -1.25109 -8.70152 0
M  V30 1646 O 219.764 -1.29744 -9.22016 0
M  V30 1647 O 217.982 -2.13714 -7.55141 0
M  V30 1648 O 218.019 0.248149 -8.21425 0
M  V30 1649 C 217.859 1.22779 -9.30434 0
M  V30 1650 C 218.399 2.56293 -8.80664 0
M  V30 1651 O 217.343 3.02979 -8.09349 0
M  V30 1652 C 219.617 2.57523 -7.89775 0
M  V30 1653 O 220.355 3.7668 -7.89438 0
M  V30 1654 C 218.948 2.20997 -6.55446 0
M  V30 1655 O 219.747 2.71895 -5.48509 0
M  V30 1656 C 217.611 2.89693 -6.67988 0
M  V30 1657 H 217.643 3.88793 -6.19859 0
M  V30 1658 H 218.826 1.12046 -6.44229 0
M  V30 1659 H 220.31 1.7746 -8.19711 0
M  V30 1660 H 218.616 3.20706 -9.67112 0
M  V30 1661 H 218.426 0.901032 -10.1892 0
M  V30 1662 H 216.796 1.33049 -9.56592 0
M  V30 1663 H 219.435 3.57847 -5.23962 0
M  V30 1664 P 221.293 3.65191 -7.99657 0
M  V30 1665 O 222.715 3.89332 -8.45794 0
M  V30 1666 O 220.933 2.28472 -7.50807 0
M  V30 1667 O 220.97 4.64972 -6.77611 0
M  V30 1668 C 220.81 6.06319 -7.16352 0
M  V30 1669 C 221.35 6.91731 -6.02299 0
M  V30 1670 O 220.294 6.92449 -5.17064 0
M  V30 1671 C 222.568 6.43627 -5.25174 0
M  V30 1672 O 223.306 7.43686 -4.60469 0
M  V30 1673 C 221.899 5.40275 -4.31916 0
M  V30 1674 O 222.698 5.25279 -3.14438 0
M  V30 1675 C 220.562 6.04847 -4.05327 0
M  V30 1676 H 220.594 6.62195 -3.11261 0
M  V30 1677 H 221.777 4.42556 -4.81383 0
M  V30 1678 H 223.261 5.92458 -5.93643 0
M  V30 1679 H 221.567 7.92655 -6.402 0
M  V30 1680 H 221.377 6.26671 -8.0846 0
M  V30 1681 H 219.747 6.29101 -7.32804 0
M  V30 1682 H 222.386 5.84315 -2.47318 0
M  V30 1683 P 224.243 7.39546 -4.75277 0
M  V30 1684 O 225.665 7.84798 -5.01039 0
M  V30 1685 O 223.883 5.9812 -5.08098 0
M  V30 1686 O 223.92 7.57503 -3.1866 0
M  V30 1687 C 223.76 8.97357 -2.74833 0
M  V30 1688 C 224.3 9.07548 -1.32709 0
M  V30 1689 O 223.244 8.62072 -0.606159 0
M  V30 1690 C 225.518 8.25383 -0.938334 0
M  V30 1691 O 226.256 8.74577 0.146954 0
M  V30 1692 C 224.849 6.8802 -0.712559 0
M  V30 1693 O 225.648 6.1189 0.194655 0
M  V30 1694 C 223.512 7.27966 -0.139777 0
M  V30 1695 H 223.544 7.25354 0.961601 0
M  V30 1696 H 224.727 6.32557 -1.65702 0
M  V30 1697 H 226.211 8.19355 -1.79097 0
M  V30 1698 H 224.517 10.1294 -1.10029 0
M  V30 1699 H 224.327 9.64276 -3.41316 0
M  V30 1700 H 222.697 9.25417 -2.76357 0
M  V30 1701 H 225.336 6.25267 1.07847 0
M  V30 1702 P 227.194 8.791 4.22174e-13 0
M  V30 1703 O 228.615 9.31196 0.027936 0
M  V30 1704 O 226.834 7.77869 -1.04071 0
M  V30 1705 O 226.871 8.09533 1.41463 0
M  V30 1706 C 226.71 9.03587 2.5397 0
M  V30 1707 C 227.251 8.35226 3.79016 0
M  V30 1708 O 226.196 7.57904 4.1503 0
M  V30 1709 C 228.469 7.45087 3.67298 0
M  V30 1710 O 229.207 7.27796 4.85194 0
M  V30 1711 C 227.801 6.17323 3.12027 0
M  V30 1712 O 228.599 5.04496 3.46627 0
M  V30 1713 C 226.463 6.19961 3.81809 0
M  V30 1714 N 225.42 5.71575 2.93223 0
M  V30 1715 C 225.589 5.77362 1.59168 0
M  V30 1716 N 224.562 5.3123 0.911893 0
M  V30 1717 C 223.677 4.91717 1.89588 0
M  V30 1718 C 222.41 4.3114 1.8076 0
M  V30 1719 N 221.811 3.99821 0.632928 0
M  V30 1720 N 221.845 4.06823 3.02898 0
M  V30 1721 C 222.447 4.35062 4.22711 0
M  V30 1722 N 223.624 4.90805 4.35707 0
M  V30 1723 C 224.199 5.16382 3.14469 0
M  V30 1724 H 226.495 5.58142 4.72986 0
M  V30 1725 H 227.678 6.21428 2.0318 0
M  V30 1726 H 229.161 7.86112 2.9231 0
M  V30 1727 H 227.467 9.11171 4.55987 0
M  V30 1728 H 227.277 9.9573 2.34194 0
M  V30 1729 H 225.647 9.2792 2.67832 0
M  V30 1730 H 221.911 4.09052 5.13359 0
M  V30 1731 H 226.489 6.16575 1.12198 0
M  V30 1732 H 220.881 3.55423 0.632085 0
M  V30 1733 H 222.285 4.20317 -0.256712 0
M  V30 1734 H 228.287 4.67628 4.28704 0
M  V30 1735 P 230.144 7.39546 4.75277 0
M  V30 1736 O 231.545 7.89013 5.04841 0
M  V30 1737 O 229.766 7.16603 3.32298 0
M  V30 1738 O 229.821 6.04468 5.56605 0
M  V30 1739 C 229.661 6.22772 7.02095 0
M  V30 1740 C 230.201 4.97671 7.70322 0
M  V30 1741 O 229.145 4.13208 7.58899 0
M  V30 1742 C 231.418 4.28231 7.11815 0
M  V30 1743 O 232.157 3.49945 8.01648 0
M  V30 1744 C 230.751 3.5063 5.96244 0
M  V30 1745 O 231.549 2.36443 5.64589 0
M  V30 1746 C 229.413 3.15122 6.56374 0
M  V30 1747 N 228.37 3.22311 5.55692 0
M  V30 1748 C 227.335 2.32244 5.62437 0
M  V30 1749 O 227.374 1.43107 6.50341 0
M  V30 1750 N 226.323 2.40811 4.73368 0
M  V30 1751 C 226.371 3.344 3.77753 0
M  V30 1752 C 227.467 4.24712 3.66679 0
M  V30 1753 C 228.433 4.15625 4.58307 0
M  V30 1754 H 229.445 2.13823 6.99656 0
M  V30 1755 H 230.628 4.12931 5.06895 0
M  V30 1756 H 232.112 5.02674 6.71494 0
M  V30 1757 H 230.418 5.20001 8.76217 0
M  V30 1758 H 230.227 7.11046 7.35349 0
M  V30 1759 H 228.597 6.35749 7.26911 0
M  V30 1760 H 227.515 4.9828 2.86753 0
M  V30 1761 H 229.279 4.84464 4.54228 0
M  V30 1762 H 231.333 1.65592 6.23485 0
M  V30 1763 P 233.095 3.65191 7.99657 0
M  V30 1764 O 234.517 3.8425 8.48115 0
M  V30 1765 O 232.735 4.17805 6.64342 0
M  V30 1766 O 232.772 2.07613 7.95143 0
M  V30 1767 C 232.612 1.44328 9.27336 0
M  V30 1768 C 233.152 0.0220036 9.17197 0
M  V30 1769 O 232.096 -0.626867 8.61923 0
M  V30 1770 C 234.37 -0.24586 8.30336 0
M  V30 1771 O 235.108 -1.39011 8.63583 0
M  V30 1772 C 233.701 -0.273849 6.91158 0
M  V30 1773 O 234.5 -1.06348 6.02892 0
M  V30 1774 C 232.364 -0.897649 7.22545 0
M  V30 1775 H 232.396 -1.9841 7.04286 0
M  V30 1776 H 233.579 0.739928 6.497 0
M  V30 1777 H 235.063 0.60668 8.36503 0
M  V30 1778 H 233.369 -0.352479 10.1829 0
M  V30 1779 H 233.179 2.00611 10.0304 0
M  V30 1780 H 231.549 1.41843 9.55327 0
M  V30 1781 H 234.188 -1.95734 6.03555 0
M  V30 1782 P 236.046 -1.25109 8.70152 0
M  V30 1783 O 237.467 -1.35288 9.2132 0
M  V30 1784 O 235.686 -0.0769065 7.84762 0
M  V30 1785 O 235.723 -2.55232 7.81161 0
M  V30 1786 C 235.562 -3.79979 8.58246 0
M  V30 1787 C 236.103 -4.94023 7.72785 0
M  V30 1788 O 235.048 -5.18666 6.91125 0
M  V30 1789 C 237.321 -4.69597 6.85231 0
M  V30 1790 O 238.059 -5.83832 6.51337 0
M  V30 1791 C 236.653 -3.96706 5.66633 0
M  V30 1792 O 237.451 -4.14896 4.5003 0
M  V30 1793 C 235.315 -4.66153 5.59313 0
M  V30 1794 N 234.272 -3.71582 5.24027 0
M  V30 1795 C 234.441 -2.39715 5.48833 0
M  V30 1796 N 233.414 -1.65863 5.12845 0
M  V30 1797 C 232.529 -2.57637 4.5973 0
M  V30 1798 C 231.262 -2.40278 4.01027 0
M  V30 1799 N 230.663 -1.19549 3.86744 0
M  V30 1800 N 230.697 -3.57711 3.59575 0
M  V30 1801 C 231.299 -4.80324 3.70476 0
M  V30 1802 N 232.476 -5.01121 4.23801 0
M  V30 1803 C 233.051 -3.84757 4.66372 0
M  V30 1804 H 235.347 -5.47604 4.85148 0
M  V30 1805 H 236.53 -2.8955 5.86187 0
M  V30 1806 H 238.013 -4.0121 7.36511 0
M  V30 1807 H 236.319 -5.81019 8.37003 0
M  V30 1808 H 236.129 -3.73517 9.52265 0
M  V30 1809 H 234.499 -3.97163 8.80359 0
M  V30 1810 H 230.763 -5.66348 3.3183 0
M  V30 1811 H 235.341 -1.98804 5.94332 0
M  V30 1812 H 229.733 -1.13147 3.4281 0
M  V30 1813 H 231.137 -0.344074 4.19692 0
M  V30 1814 H 237.139 -4.90891 4.01857 0
M  V30 1815 P 238.996 -5.75688 6.64379 0
M  V30 1816 O 240.417 -6.11915 7.01921 0
M  V30 1817 O 238.636 -4.30744 6.56026 0
M  V30 1818 O 238.673 -6.37042 5.19165 0
M  V30 1819 C 238.512 -7.83662 5.1657 0
M  V30 1820 C 239.053 -8.33398 3.83019 0
M  V30 1821 O 237.998 -8.0998 3.00999 0
M  V30 1822 C 240.271 -7.65514 3.2257 0
M  V30 1823 O 241.009 -8.4329 2.32297 0
M  V30 1824 C 239.603 -6.40075 2.62207 0
M  V30 1825 O 240.401 -5.92338 1.5428 0
M  V30 1826 C 238.265 -6.9454 2.18503 0
M  V30 1827 N 237.222 -5.95905 2.39948 0
M  V30 1828 C 237.391 -4.98383 3.32108 0
M  V30 1829 N 236.364 -4.16798 3.41761 0
M  V30 1830 C 235.479 -4.65287 2.47461 0
M  V30 1831 C 234.212 -4.18946 2.07461 0
M  V30 1832 N 233.613 -3.09661 2.60717 0
M  V30 1833 N 233.647 -4.95327 1.09101 0
M  V30 1834 C 234.249 -6.04369 0.519812 0
M  V30 1835 N 235.426 -6.50694 0.855982 0
M  V30 1836 C 236.001 -5.75818 1.84322 0
M  V30 1837 H 238.297 -7.22964 1.12076 0
M  V30 1838 H 239.48 -5.60502 3.36589 0
M  V30 1839 H 240.963 -7.35707 4.02681 0
M  V30 1840 H 239.269 -9.41302 3.90009 0
M  V30 1841 H 239.079 -8.29056 5.99158 0
M  V30 1842 H 237.449 -8.10073 5.25882 0
M  V30 1843 H 233.713 -6.55843 -0.270373 0
M  V30 1844 H 238.291 -4.88564 3.92502 0
M  V30 1845 H 232.683 -2.80523 2.27218 0
M  V30 1846 H 234.087 -2.55848 3.34465 0
M  V30 1847 H 240.089 -6.30224 0.72668 0
M  V30 1848 P 241.947 -8.4349 2.47671 0
M  V30 1849 O 243.369 -8.94167 2.5964 0
M  V30 1850 O 241.587 -7.1704 3.19006 0
M  V30 1851 O 241.624 -8.16596 0.923387 0
M  V30 1852 C 241.464 -9.38437 0.108857 0
M  V30 1853 C 242.004 -9.08175 -1.28353 0
M  V30 1854 O 240.948 -8.44229 -1.84713 0
M  V30 1855 C 243.222 -8.18386 -1.42505 0
M  V30 1856 O 243.96 -8.3501 -2.60497 0
M  V30 1857 C 242.553 -6.80225 -1.25468 0
M  V30 1858 O 243.352 -5.81621 -1.91066 0
M  V30 1859 C 241.216 -7.02416 -1.9168 0
M  V30 1860 H 241.248 -6.6888 -2.96621 0
M  V30 1861 H 242.431 -6.53617 -0.192223 0
M  V30 1862 H 243.915 -8.36622 -0.589963 0
M  V30 1863 H 242.221 -10.0291 -1.79807 0
M  V30 1864 H 242.031 -10.2138 0.558219 0
M  V30 1865 H 240.401 -9.6579 0.0444202 0
M  V30 1866 H 243.04 -5.69556 -2.79637 0
M  V30 1867 P 244.897 -8.4349 -2.47671 0
M  V30 1868 O 246.319 -8.92593 -2.65 0
M  V30 1869 O 244.537 -7.7568 -1.19296 0
M  V30 1870 O 244.574 -7.36886 -3.63805 0
M  V30 1871 C 244.414 -7.95349 -4.982 0
M  V30 1872 C 244.954 -6.94612 -5.98974 0
M  V30 1873 O 243.898 -6.10347 -6.11815 0
M  V30 1874 C 246.172 -6.11426 -5.62335 0
M  V30 1875 O 246.91 -5.6162 -6.70584 0
M  V30 1876 C 245.503 -5.04409 -4.73308 0
M  V30 1877 O 246.302 -3.85992 -4.75183 0
M  V30 1878 C 244.166 -4.8728 -5.41006 0
M  V30 1879 H 244.198 -4.02333 -6.11157 0
M  V30 1880 H 245.381 -5.39466 -3.69543 0
M  V30 1881 H 246.865 -6.71916 -5.01943 0
M  V30 1882 H 245.171 -7.4649 -6.93477 0
M  V30 1883 H 244.981 -8.89416 -5.05237 0
M  V30 1884 H 243.351 -8.14876 -5.18409 0
M  V30 1885 H 245.99 -3.27957 -5.4317 0
M  V30 1886 P 247.848 -5.75688 -6.64379 0
M  V30 1887 O 249.269 -6.07692 -7.0558 0
M  V30 1888 O 247.488 -5.88047 -5.19722 0
M  V30 1889 O 247.525 -4.2322 -7.04443 0
M  V30 1890 C 247.364 -3.99785 -8.49201 0
M  V30 1891 C 247.905 -2.60516 -8.79425 0
M  V30 1892 O 246.85 -1.82663 -8.44573 0
M  V30 1893 C 249.123 -2.10343 -8.03628 0
M  V30 1894 O 249.861 -1.09919 -8.67766 0
M  V30 1895 C 248.455 -1.68446 -6.70876 0
M  V30 1896 O 249.253 -0.684109 -6.08265 0
M  V30 1897 C 247.117 -1.17436 -7.18567 0
M  V30 1898 N 246.074 -1.52699 -6.23988 0
M  V30 1899 C 246.243 -2.578 -5.40574 0
M  V30 1900 N 245.216 -2.78966 -4.61193 0
M  V30 1901 C 244.331 -1.78725 -4.95769 0
M  V30 1902 C 243.064 -1.45727 -4.44207 0
M  V30 1903 N 242.499 -0.374977 -5.05812 0
M  V30 1904 C 243.101 0.345585 -6.05615 0
M  V30 1905 N 244.278 0.0787651 -6.56253 0
M  V30 1906 C 244.853 -1.00499 -5.96189 0
M  V30 1907 H 248.332 -2.53396 -6.02698 0
M  V30 1908 H 249.815 -2.93881 -7.85526 0
M  V30 1909 H 248.121 -2.52078 -9.87225 0
M  V30 1910 H 247.931 -4.75072 -9.05887 0
M  V30 1911 H 246.301 -4.05244 -8.76668 0
M  V30 1912 H 247.143 -3.18977 -5.3945 0
M  V30 1913 H 248.941 0.177619 -6.34151 0
M  V30 1914 P 250.798 -1.25109 -8.70152 0
M  V30 1915 O 252.219 -1.29758 -9.22115 0
M  V30 1916 O 250.438 -2.13714 -7.55141 0
M  V30 1917 O 250.475 0.248149 -8.21425 0
M  V30 1918 C 250.314 1.22792 -9.30533 0
M  V30 1919 C 250.855 2.56293 -8.80664 0
M  V30 1920 O 249.8 3.02944 -8.09255 0
M  V30 1921 C 252.073 2.57523 -7.89775 0
M  V30 1922 O 252.811 3.7668 -7.89438 0
M  V30 1923 C 251.405 2.20997 -6.55446 0
M  V30 1924 O 252.203 2.71302 -5.48691 0
M  V30 1925 C 250.067 2.89693 -6.67988 0
M  V30 1926 N 249.024 2.08895 -6.07487 0
M  V30 1927 C 249.193 0.753809 -5.94137 0
M  V30 1928 N 248.166 0.146592 -5.38801 0
M  V30 1929 C 247.281 1.1768 -5.13693 0
M  V30 1930 C 246.014 1.17563 -4.52477 0
M  V30 1931 N 245.449 2.41918 -4.45789 0
M  V30 1932 C 246.051 3.56493 -4.90792 0
M  V30 1933 N 247.228 3.61423 -5.47817 0
M  V30 1934 C 247.803 2.37779 -5.5588 0
M  V30 1935 H 251.282 1.12673 -6.44018 0
M  V30 1936 H 252.765 1.7746 -8.19711 0
M  V30 1937 H 251.071 3.21673 -9.66791 0
M  V30 1938 H 250.881 0.901032 -10.1892 0
M  V30 1939 H 249.251 1.33049 -9.56592 0
M  V30 1940 H 250.093 0.233081 -6.26266 0
M  V30 1941 H 251.891 3.5779 -5.23879 0
M  V30 1942 P 253.749 3.65191 -7.99657 0
M  V30 1943 O 255.171 3.89332 -8.45794 0
M  V30 1944 O 253.389 2.28472 -7.50807 0
M  V30 1945 O 253.426 4.64972 -6.77611 0
M  V30 1946 C 253.266 6.06319 -7.16352 0
M  V30 1947 C 253.806 6.91731 -6.02299 0
M  V30 1948 O 252.75 6.92449 -5.17064 0
M  V30 1949 C 255.024 6.43627 -5.25174 0
M  V30 1950 O 255.762 7.43686 -4.60469 0
M  V30 1951 C 254.355 5.40275 -4.31916 0
M  V30 1952 O 255.154 5.25279 -3.14438 0
M  V30 1953 C 253.018 6.04847 -4.05327 0
M  V30 1954 H 253.05 6.62195 -3.11261 0
M  V30 1955 H 254.233 4.42556 -4.81383 0
M  V30 1956 H 255.717 5.92458 -5.93643 0
M  V30 1957 H 254.023 7.92655 -6.402 0
M  V30 1958 H 253.833 6.26671 -8.0846 0
M  V30 1959 H 252.203 6.29101 -7.32804 0
M  V30 1960 H 254.842 5.84315 -2.47318 0
M  V30 1961 P 256.7 7.39546 -4.75277 0
M  V30 1962 O 258.121 7.84882 -5.01092 0
M  V30 1963 O 256.34 5.9812 -5.08098 0
M  V30 1964 O 256.377 7.57503 -3.1866 0
M  V30 1965 C 256.216 8.97452 -2.74862 0
M  V30 1966 C 256.757 9.07548 -1.32709 0
M  V30 1967 O 255.702 8.61972 -0.606089 0
M  V30 1968 C 257.975 8.25383 -0.938334 0
M  V30 1969 O 258.713 8.74577 0.146954 0
M  V30 1970 C 257.307 6.8802 -0.712559 0
M  V30 1971 O 258.105 6.1181 0.188505 0
M  V30 1972 C 255.969 7.27966 -0.139777 0
M  V30 1973 N 254.926 6.39368 -0.623421 0
M  V30 1974 C 255.095 5.71761 -1.78245 0
M  V30 1975 N 254.068 4.962 -2.10491 0
M  V30 1976 C 253.183 5.16158 -1.0635 0
M  V30 1977 C 251.916 4.60425 -0.810266 0
M  V30 1978 N 251.317 3.7057 -1.62914 0
M  V30 1979 N 251.351 5.06 0.348685 0
M  V30 1980 C 251.953 5.94532 1.20395 0
M  V30 1981 N 253.13 6.48452 1.01191 0
M  V30 1982 C 253.705 6.04423 -0.146291 0
M  V30 1983 H 256.001 7.25255 0.961469 0
M  V30 1984 H 257.184 6.32625 -1.65044 0
M  V30 1985 H 258.667 8.19355 -1.79097 0
M  V30 1986 H 256.973 10.1305 -1.09016 0
M  V30 1987 H 256.783 9.64276 -3.41316 0
M  V30 1988 H 255.153 9.25417 -2.76357 0
M  V30 1989 H 251.417 6.21659 2.10714 0
M  V30 1990 H 255.995 5.79354 -2.38959 0
M  V30 1991 H 250.387 3.33174 -1.38982 0
M  V30 1992 H 251.791 3.39714 -2.48836 0
M  V30 1993 H 257.793 6.25169 1.0783 0
M  V30 1994 P 259.65 8.791 7.3234e-13 0
M  V30 1995 O 261.072 9.31096 0.027933 0
M  V30 1996 O 259.29 7.77869 -1.04071 0
M  V30 1997 O 259.327 8.09533 1.41463 0
M  V30 1998 C 259.167 9.0349 2.53943 0
M  V30 1999 C 259.707 8.35226 3.79016 0
M  V30 2000 O 258.651 7.57992 4.15078 0
M  V30 2001 C 260.925 7.45087 3.67298 0
M  V30 2002 O 261.663 7.27796 4.85194 0
M  V30 2003 C 260.256 6.17323 3.12027 0
M  V30 2004 O 261.055 5.04231 3.47188 0
M  V30 2005 C 258.919 6.19961 3.81809 0
M  V30 2006 H 258.951 5.58218 4.73051 0
M  V30 2007 H 260.134 6.21726 2.02589 0
M  V30 2008 H 261.618 7.86112 2.9231 0
M  V30 2009 H 259.924 9.11627 4.55076 0
M  V30 2010 H 259.734 9.9573 2.34194 0
M  V30 2011 H 258.104 9.2792 2.67832 0
M  V30 2012 H 260.743 4.67702 4.28772 0
M  V30 2013 P 262.601 7.39546 4.75277 0
M  V30 2014 O 264.022 7.81861 5.05793 0
M  V30 2015 O 262.241 7.1065 3.32998 0
M  V30 2016 O 262.278 6.04542 5.56673 0
M  V30 2017 C 262.117 6.22839 7.02169 0
M  V30 2018 C 262.658 4.97725 7.70406 0
M  V30 2019 O 261.603 4.13208 7.58899 0
M  V30 2020 C 263.876 4.28231 7.11815 0
M  V30 2021 O 264.614 3.49945 8.01648 0
M  V30 2022 C 263.208 3.5063 5.96244 0
M  V30 2023 O 264.006 2.37008 5.64352 0
M  V30 2024 C 261.87 3.15122 6.56374 0
M  V30 2025 N 260.827 3.22311 5.55692 0
M  V30 2026 C 260.996 3.99655 4.46046 0
M  V30 2027 N 259.969 3.97599 3.63918 0
M  V30 2028 C 259.084 3.11159 4.25334 0
M  V30 2029 C 257.817 2.64972 3.85157 0
M  V30 2030 N 257.218 3.02132 2.69405 0
M  V30 2031 N 257.252 1.78482 4.74759 0
M  V30 2032 C 257.854 1.37463 5.90819 0
M  V30 2033 N 259.031 1.7733 6.31889 0
M  V30 2034 C 259.606 2.64393 5.43725 0
M  V30 2035 H 261.902 2.13823 6.99656 0
M  V30 2036 H 263.085 4.12931 5.06895 0
M  V30 2037 H 264.568 5.03285 6.70911 0
M  V30 2038 H 262.874 5.20001 8.76217 0
M  V30 2039 H 262.684 7.11046 7.35349 0
M  V30 2040 H 261.054 6.35815 7.26986 0
M  V30 2041 H 257.318 0.66574 6.53015 0
M  V30 2042 H 261.896 4.58037 4.27732 0
M  V30 2043 H 256.288 2.64828 2.45331 0
M  V30 2044 H 257.692 3.67472 2.05644 0
M  V30 2045 H 263.694 1.61619 6.13468 0
M  V30 2046 P 265.551 3.65191 7.99657 0
M  V30 2047 O 266.973 3.8425 8.48115 0
M  V30 2048 O 265.191 4.17805 6.64342 0
M  V30 2049 O 265.228 2.07613 7.95143 0
M  V30 2050 C 265.068 1.44328 9.27336 0
M  V30 2051 C 265.608 0.0220036 9.17197 0
M  V30 2052 O 264.552 -0.626867 8.61923 0
M  V30 2053 C 266.826 -0.24586 8.30336 0
M  V30 2054 O 267.564 -1.39011 8.63583 0
M  V30 2055 C 266.157 -0.273849 6.91158 0
M  V30 2056 O 266.956 -1.06348 6.02892 0
M  V30 2057 C 264.82 -0.897649 7.22545 0
M  V30 2058 H 264.852 -1.9841 7.04286 0
M  V30 2059 H 266.035 0.739928 6.497 0
M  V30 2060 H 267.519 0.60668 8.36503 0
M  V30 2061 H 265.825 -0.352479 10.1829 0
M  V30 2062 H 265.635 2.00611 10.0304 0
M  V30 2063 H 264.005 1.41843 9.55327 0
M  V30 2064 H 266.644 -1.95734 6.03555 0
M  V30 2065 P 268.502 -1.25109 8.70152 0
M  V30 2066 O 269.924 -1.35274 9.21221 0
M  V30 2067 O 268.142 -0.0769065 7.84762 0
M  V30 2068 O 268.179 -2.55232 7.81161 0
M  V30 2069 C 268.019 -3.79939 8.58154 0
M  V30 2070 C 268.559 -4.94023 7.72785 0
M  V30 2071 O 267.503 -5.18726 6.91205 0
M  V30 2072 C 269.777 -4.69597 6.85231 0
M  V30 2073 O 270.515 -5.83832 6.51337 0
M  V30 2074 C 269.108 -3.96706 5.66633 0
M  V30 2075 O 269.907 -4.15414 4.49689 0
M  V30 2076 C 267.771 -4.66153 5.59313 0
M  V30 2077 H 267.803 -5.47679 4.85214 0
M  V30 2078 H 268.986 -2.89008 5.86566 0
M  V30 2079 H 270.47 -4.0121 7.36511 0
M  V30 2080 H 268.776 -5.80182 8.37584 0
M  V30 2081 H 268.586 -3.73517 9.52265 0
M  V30 2082 H 266.956 -3.97163 8.80359 0
M  V30 2083 H 269.595 -4.90969 4.01921 0
M  V30 2084 P 271.452 -5.75688 6.64379 0
M  V30 2085 O 272.873 -6.11915 7.01921 0
M  V30 2086 O 271.092 -4.30744 6.56026 0
M  V30 2087 O 271.129 -6.37042 5.19165 0
M  V30 2088 C 270.968 -7.83662 5.1657 0
M  V30 2089 C 271.509 -8.33398 3.83019 0
M  V30 2090 O 270.454 -8.0998 3.00999 0
M  V30 2091 C 272.727 -7.65514 3.2257 0
M  V30 2092 O 273.465 -8.4329 2.32297 0
M  V30 2093 C 272.059 -6.40075 2.62207 0
M  V30 2094 O 272.857 -5.92338 1.5428 0
M  V30 2095 C 270.721 -6.9454 2.18503 0
M  V30 2096 N 269.678 -5.95905 2.39948 0
M  V30 2097 C 269.847 -4.98383 3.32108 0
M  V30 2098 N 268.82 -4.16798 3.41761 0
M  V30 2099 C 267.935 -4.65287 2.47461 0
M  V30 2100 C 266.668 -4.18946 2.07461 0
M  V30 2101 N 266.069 -3.09661 2.60717 0
M  V30 2102 N 266.103 -4.95327 1.09101 0
M  V30 2103 C 266.705 -6.04369 0.519812 0
M  V30 2104 N 267.882 -6.50694 0.855982 0
M  V30 2105 C 268.457 -5.75818 1.84322 0
M  V30 2106 H 270.753 -7.22964 1.12076 0
M  V30 2107 H 271.936 -5.60502 3.36589 0
M  V30 2108 H 273.419 -7.35707 4.02681 0
M  V30 2109 H 271.725 -9.41302 3.90009 0
M  V30 2110 H 271.535 -8.29056 5.99158 0
M  V30 2111 H 269.905 -8.10073 5.25882 0
M  V30 2112 H 266.169 -6.55843 -0.270373 0
M  V30 2113 H 270.747 -4.88564 3.92502 0
M  V30 2114 H 265.139 -2.80523 2.27218 0
M  V30 2115 H 266.543 -2.55848 3.34465 0
M  V30 2116 H 272.545 -6.30224 0.72668 0
M  V30 2117 P 274.403 -8.4349 2.47671 0
M  V30 2118 O 275.825 -8.94167 2.5964 0
M  V30 2119 O 274.043 -7.1704 3.19006 0
M  V30 2120 O 274.08 -8.16596 0.923387 0
M  V30 2121 C 273.92 -9.38437 0.108857 0
M  V30 2122 C 274.46 -9.08175 -1.28353 0
M  V30 2123 O 273.404 -8.44229 -1.84713 0
M  V30 2124 C 275.678 -8.18386 -1.42505 0
M  V30 2125 O 276.416 -8.3501 -2.60497 0
M  V30 2126 C 275.009 -6.80225 -1.25468 0
M  V30 2127 O 275.808 -5.81621 -1.91066 0
M  V30 2128 C 273.672 -7.02416 -1.9168 0
M  V30 2129 H 273.704 -6.6888 -2.96621 0
M  V30 2130 H 274.887 -6.53617 -0.192223 0
M  V30 2131 H 276.371 -8.36622 -0.589963 0
M  V30 2132 H 274.677 -10.0291 -1.79807 0
M  V30 2133 H 274.487 -10.2138 0.558219 0
M  V30 2134 H 272.857 -9.6579 0.0444202 0
M  V30 2135 H 275.496 -5.69556 -2.79637 0
M  V30 2136 P 277.354 -8.4349 -2.47671 0
M  V30 2137 O 278.776 -8.92593 -2.65 0
M  V30 2138 O 276.994 -7.7568 -1.19296 0
M  V30 2139 O 277.031 -7.36886 -3.63805 0
M  V30 2140 C 276.871 -7.95349 -4.982 0
M  V30 2141 C 277.411 -6.94612 -5.98974 0
M  V30 2142 O 276.355 -6.10347 -6.11815 0
M  V30 2143 C 278.629 -6.11426 -5.62335 0
M  V30 2144 O 279.367 -5.6162 -6.70584 0
M  V30 2145 C 277.96 -5.04409 -4.73308 0
M  V30 2146 O 278.759 -3.85992 -4.75183 0
M  V30 2147 C 276.623 -4.8728 -5.41006 0
M  V30 2148 H 276.655 -4.02333 -6.11157 0
M  V30 2149 H 277.838 -5.39466 -3.69543 0
M  V30 2150 H 279.322 -6.71916 -5.01943 0
M  V30 2151 H 277.628 -7.4649 -6.93477 0
M  V30 2152 H 277.438 -8.89416 -5.05237 0
M  V30 2153 H 275.808 -8.14876 -5.18409 0
M  V30 2154 H 278.447 -3.27957 -5.4317 0
M  V30 2155 P 280.304 -5.75688 -6.64379 0
M  V30 2156 O 281.726 -6.07627 -7.05504 0
M  V30 2157 O 279.944 -5.88047 -5.19722 0
M  V30 2158 O 279.981 -4.2322 -7.04443 0
M  V30 2159 C 279.821 -3.99743 -8.4911 0
M  V30 2160 C 280.361 -2.60516 -8.79425 0
M  V30 2161 O 279.305 -1.82684 -8.4467 0
M  V30 2162 C 281.579 -2.10343 -8.03628 0
M  V30 2163 O 282.317 -1.09919 -8.67766 0
M  V30 2164 C 280.91 -1.68446 -6.70876 0
M  V30 2165 O 281.709 -0.678137 -6.08433 0
M  V30 2166 C 279.573 -1.17436 -7.18567 0
M  V30 2167 H 279.605 -0.0804732 -7.31656 0
M  V30 2168 H 280.788 -2.54037 -6.02537 0
M  V30 2169 H 282.272 -2.93881 -7.85526 0
M  V30 2170 H 280.578 -2.53065 -9.86973 0
M  V30 2171 H 280.388 -4.75072 -9.05887 0
M  V30 2172 H 278.758 -4.05244 -8.76668 0
M  V30 2173 H 281.397 0.177647 -6.34251 0
M  V30 2174 P 283.255 -1.25109 -8.70152 0
M  V30 2175 O 284.676 -1.29758 -9.22115 0
M  V30 2176 O 282.895 -2.13714 -7.55141 0
M  V30 2177 O 282.932 0.248149 -8.21425 0
M  V30 2178 C 282.771 1.22792 -9.30533 0
M  V30 2179 C 283.312 2.56293 -8.80664 0
M  V30 2180 O 282.257 3.02944 -8.09255 0
M  V30 2181 C 284.53 2.57523 -7.89775 0
M  V30 2182 O 285.268 3.7668 -7.89438 0
M  V30 2183 C 283.862 2.20997 -6.55446 0
M  V30 2184 O 284.66 2.71302 -5.48691 0
M  V30 2185 C 282.524 2.89693 -6.67988 0
M  V30 2186 N 281.481 2.08895 -6.07487 0
M  V30 2187 C 281.65 0.753809 -5.94137 0
M  V30 2188 N 280.623 0.146592 -5.38801 0
M  V30 2189 C 279.738 1.1768 -5.13693 0
M  V30 2190 C 278.471 1.17563 -4.52477 0
M  V30 2191 N 277.872 0.057481 -4.04759 0
M  V30 2192 N 277.906 2.41918 -4.45789 0
M  V30 2193 C 278.508 3.56493 -4.90792 0
M  V30 2194 N 279.685 3.61423 -5.47817 0
M  V30 2195 C 280.26 2.37779 -5.5588 0
M  V30 2196 H 282.556 3.8874 -6.19774 0
M  V30 2197 H 283.739 1.12673 -6.44018 0
M  V30 2198 H 285.222 1.7746 -8.19711 0
M  V30 2199 H 283.528 3.21673 -9.66791 0
M  V30 2200 H 283.338 0.901032 -10.1892 0
M  V30 2201 H 281.708 1.33049 -9.56592 0
M  V30 2202 H 277.972 4.49919 -4.77947 0
M  V30 2203 H 282.55 0.233081 -6.26266 0
M  V30 2204 H 276.942 0.119831 -3.60801 0
M  V30 2205 H 278.346 -0.852272 -4.12385 0
M  V30 2206 H 284.348 3.5779 -5.23879 0
M  V30 2207 P 286.205 3.65191 -7.99657 0
M  V30 2208 O 287.626 3.89374 -8.45885 0
M  V30 2209 O 285.845 2.28472 -7.50807 0
M  V30 2210 O 285.882 4.64972 -6.77611 0
M  V30 2211 C 285.721 6.06383 -7.16428 0
M  V30 2212 C 286.262 6.91731 -6.02299 0
M  V30 2213 O 285.207 6.92369 -5.17005 0
M  V30 2214 C 287.48 6.43627 -5.25174 0
M  V30 2215 O 288.218 7.43686 -4.60469 0
M  V30 2216 C 286.812 5.40275 -4.31916 0
M  V30 2217 O 287.61 5.24878 -3.14911 0
M  V30 2218 C 285.474 6.04847 -4.05327 0
M  V30 2219 N 284.431 5.04166 -3.98114 0
M  V30 2220 C 284.6 3.84629 -4.59066 0
M  V30 2221 N 283.573 3.0363 -4.45343 0
M  V30 2222 C 282.688 3.76722 -3.68523 0
M  V30 2223 C 281.421 3.43528 -3.17088 0
M  V30 2224 N 280.822 2.23665 -3.37397 0
M  V30 2225 N 280.856 4.44526 -2.44231 0
M  V30 2226 C 281.458 5.65243 -2.20146 0
M  V30 2227 N 282.635 6.00221 -2.65453 0
M  V30 2228 C 283.21 5.00564 -3.39083 0
M  V30 2229 H 285.506 6.62104 -3.11218 0
M  V30 2230 H 286.689 4.42969 -4.80867 0
M  V30 2231 H 288.172 5.92458 -5.93643 0
M  V30 2232 H 286.478 7.93295 -6.39407 0
M  V30 2233 H 286.288 6.26671 -8.0846 0
M  V30 2234 H 284.658 6.29101 -7.32804 0
M  V30 2235 H 280.922 6.36894 -1.5883 0
M  V30 2236 H 285.5 3.58193 -5.14248 0
M  V30 2237 H 279.892 2.05145 -2.97047 0
M  V30 2238 H 281.296 1.51255 -3.92998 0
M  V30 2239 H 287.298 5.84223 -2.47279 0
M  V30 2240 P 289.156 7.39546 -4.75277 0
M  V30 2241 O 290.578 7.84966 -5.01146 0
M  V30 2242 O 288.796 5.9812 -5.08098 0
M  V30 2243 O 288.833 7.57503 -3.1866 0
M  V30 2244 C 288.673 8.97357 -2.74833 0
M  V30 2245 C 289.213 9.0745 -1.32694 0
M  V30 2246 O 288.158 8.62072 -0.606159 0
M  V30 2247 C 290.431 8.25383 -0.938334 0
M  V30 2248 O 291.169 8.74577 0.146954 0
M  V30 2249 C 289.763 6.8802 -0.712559 0
M  V30 2250 O 290.561 6.11791 0.194623 0
M  V30 2251 C 288.425 7.27966 -0.139777 0
M  V30 2252 N 287.382 6.39368 -0.623421 0
M  V30 2253 C 287.444 5.90299 -1.85969 0
M  V30 2254 N 286.399 5.10919 -2.1133 0
M  V30 2255 C 285.665 5.14646 -1.0015 0
M  V30 2256 C 284.359 4.60057 -0.729219 0
M  V30 2257 O 283.626 3.93476 -1.47746 0
M  V30 2258 N 283.929 4.88302 0.523505 0
M  V30 2259 C 284.678 5.63646 1.46207 0
M  V30 2260 N 284.081 5.78186 2.69239 0
M  V30 2261 N 285.831 6.19285 1.21544 0
M  V30 2262 C 286.288 5.93392 -0.0308487 0
M  V30 2263 H 288.457 7.25354 0.961601 0
M  V30 2264 H 289.64 6.3246 -1.65676 0
M  V30 2265 H 291.125 8.19533 -1.78278 0
M  V30 2266 H 289.43 10.1294 -1.10029 0
M  V30 2267 H 289.24 9.64276 -3.41316 0
M  V30 2268 H 287.609 9.25417 -2.76357 0
M  V30 2269 H 283.033 4.53993 0.806451 0
M  V30 2270 H 288.24 6.11865 -2.57394 0
M  V30 2271 H 283.17 5.34046 2.87467 0
M  V30 2272 H 284.546 6.33391 3.42578 0
M  V30 2273 H 290.25 6.25169 1.0783 0
M  V30 2274 P 292.106 8.791 1.04251e-12 0
M  V30 2275 O 293.527 9.31196 0.027936 0
M  V30 2276 O 291.746 7.77869 -1.04071 0
M  V30 2277 O 291.783 8.09533 1.41463 0
M  V30 2278 C 291.622 9.03587 2.5397 0
M  V30 2279 C 292.163 8.35226 3.79016 0
M  V30 2280 O 291.108 7.57904 4.1503 0
M  V30 2281 C 293.381 7.45087 3.67298 0
M  V30 2282 O 294.119 7.27796 4.85194 0
M  V30 2283 C 292.713 6.17323 3.12027 0
M  V30 2284 O 293.511 5.04496 3.46627 0
M  V30 2285 C 291.375 6.19961 3.81809 0
M  V30 2286 N 290.332 5.71575 2.93223 0
M  V30 2287 C 290.501 5.77362 1.59168 0
M  V30 2288 N 289.474 5.3123 0.911893 0
M  V30 2289 C 288.589 4.91717 1.89588 0
M  V30 2290 C 287.322 4.3114 1.8076 0
M  V30 2291 N 286.757 4.06823 3.02898 0
M  V30 2292 C 287.359 4.35062 4.22711 0
M  V30 2293 N 288.536 4.90805 4.35707 0
M  V30 2294 C 289.111 5.16382 3.14469 0
M  V30 2295 H 292.59 6.21428 2.0318 0
M  V30 2296 H 294.073 7.86112 2.9231 0
M  V30 2297 H 292.379 9.11171 4.55987 0
M  V30 2298 H 292.189 9.9573 2.34194 0
M  V30 2299 H 290.559 9.2792 2.67832 0
M  V30 2300 H 291.401 6.16575 1.12198 0
M  V30 2301 H 293.199 4.67628 4.28704 0
M  V30 2302 P 295.057 7.39546 4.75277 0
M  V30 2303 O 296.479 7.81777 5.05738 0
M  V30 2304 O 294.697 7.1065 3.32998 0
M  V30 2305 O 294.734 6.04542 5.56673 0
M  V30 2306 C 294.574 6.22772 7.02095 0
M  V30 2307 C 295.114 4.97725 7.70406 0
M  V30 2308 O 294.058 4.13256 7.58987 0
M  V30 2309 C 296.332 4.28231 7.11815 0
M  V30 2310 O 297.07 3.49945 8.01648 0
M  V30 2311 C 295.663 3.5063 5.96244 0
M  V30 2312 O 296.462 2.36482 5.64681 0
M  V30 2313 C 294.326 3.15122 6.56374 0
M  V30 2314 H 294.358 2.13853 6.99751 0
M  V30 2315 H 295.541 4.13501 5.06559 0
M  V30 2316 H 297.025 5.03285 6.70911 0
M  V30 2317 H 295.331 5.20877 8.75697 0
M  V30 2318 H 295.141 7.11046 7.35349 0
M  V30 2319 H 293.511 6.35815 7.26986 0
M  V30 2320 H 296.15 1.61644 6.13565 0
M  V30 2321 P 298.008 3.65191 7.99657 0
M  V30 2322 O 299.43 3.8425 8.48115 0
M  V30 2323 O 297.648 4.17805 6.64342 0
M  V30 2324 O 297.685 2.07613 7.95143 0
M  V30 2325 C 297.525 1.44328 9.27336 0
M  V30 2326 C 298.065 0.0220036 9.17197 0
M  V30 2327 O 297.009 -0.626867 8.61923 0
M  V30 2328 C 299.283 -0.24586 8.30336 0
M  V30 2329 O 300.021 -1.39011 8.63583 0
M  V30 2330 C 298.614 -0.273849 6.91158 0
M  V30 2331 O 299.413 -1.06348 6.02892 0
M  V30 2332 C 297.277 -0.897649 7.22545 0
M  V30 2333 H 297.309 -1.9841 7.04286 0
M  V30 2334 H 298.492 0.739928 6.497 0
M  V30 2335 H 299.976 0.60668 8.36503 0
M  V30 2336 H 298.282 -0.352479 10.1829 0
M  V30 2337 H 298.092 2.00611 10.0304 0
M  V30 2338 H 296.462 1.41843 9.55327 0
M  V30 2339 H 299.101 -1.95734 6.03555 0
M  V30 2340 P 300.958 -1.25109 8.70152 0
M  V30 2341 O 302.38 -1.35274 9.21221 0
M  V30 2342 O 300.598 -0.0769065 7.84762 0
M  V30 2343 O 300.635 -2.55232 7.81161 0
M  V30 2344 C 300.475 -3.79939 8.58154 0
M  V30 2345 C 301.015 -4.94023 7.72785 0
M  V30 2346 O 299.959 -5.18726 6.91205 0
M  V30 2347 C 302.233 -4.69597 6.85231 0
M  V30 2348 O 302.971 -5.83832 6.51337 0
M  V30 2349 C 301.564 -3.96706 5.66633 0
M  V30 2350 O 302.363 -4.15414 4.49689 0
M  V30 2351 C 300.227 -4.66153 5.59313 0
M  V30 2352 H 300.259 -5.47679 4.85214 0
M  V30 2353 H 301.442 -2.89008 5.86566 0
M  V30 2354 H 302.926 -4.0121 7.36511 0
M  V30 2355 H 301.232 -5.80182 8.37584 0
M  V30 2356 H 301.042 -3.73517 9.52265 0
M  V30 2357 H 299.412 -3.97163 8.80359 0
M  V30 2358 H 302.051 -4.90969 4.01921 0
M  V30 2359 P 303.909 -5.75688 6.64379 0
M  V30 2360 O 305.331 -6.11849 7.01846 0
M  V30 2361 O 303.549 -4.30744 6.56026 0
M  V30 2362 O 303.586 -6.37042 5.19165 0
M  V30 2363 C 303.426 -7.83578 5.16515 0
M  V30 2364 C 303.966 -8.33398 3.83019 0
M  V30 2365 O 302.91 -8.10074 3.01034 0
M  V30 2366 C 305.184 -7.65514 3.2257 0
M  V30 2367 O 305.922 -8.4329 2.32297 0
M  V30 2368 C 304.515 -6.40075 2.62207 0
M  V30 2369 O 305.314 -5.92589 1.53712 0
M  V30 2370 C 303.178 -6.9454 2.18503 0
M  V30 2371 H 303.21 -7.23063 1.12091 0
M  V30 2372 H 304.393 -5.6025 3.37201 0
M  V30 2373 H 305.877 -7.35707 4.02681 0
M  V30 2374 H 304.183 -9.40912 3.9095 0
M  V30 2375 H 303.993 -8.29056 5.99158 0
M  V30 2376 H 302.363 -8.10073 5.25882 0
M  V30 2377 H 305.002 -6.30324 0.726794 0
M  V30 2378 P 306.859 -8.4349 2.47671 0
M  V30 2379 O 308.281 -8.94167 2.5964 0
M  V30 2380 O 306.499 -7.1704 3.19006 0
M  V30 2381 O 306.536 -8.16596 0.923387 0
M  V30 2382 C 306.376 -9.38437 0.108857 0
M  V30 2383 C 306.916 -9.08175 -1.28353 0
M  V30 2384 O 305.86 -8.44229 -1.84713 0
M  V30 2385 C 308.134 -8.18386 -1.42505 0
M  V30 2386 O 308.872 -8.3501 -2.60497 0
M  V30 2387 C 307.465 -6.80225 -1.25468 0
M  V30 2388 O 308.264 -5.81621 -1.91066 0
M  V30 2389 C 306.128 -7.02416 -1.9168 0
M  V30 2390 H 306.16 -6.6888 -2.96621 0
M  V30 2391 H 307.343 -6.53617 -0.192223 0
M  V30 2392 H 308.827 -8.36622 -0.589963 0
M  V30 2393 H 307.133 -10.0291 -1.79807 0
M  V30 2394 H 306.943 -10.2138 0.558219 0
M  V30 2395 H 305.313 -9.6579 0.0444202 0
M  V30 2396 H 307.952 -5.69556 -2.79637 0
M  V30 2397 P 309.81 -8.4349 -2.47671 0
M  V30 2398 O 311.232 -8.92785 -2.65057 0
M  V30 2399 O 309.45 -7.7568 -1.19296 0
M  V30 2400 O 309.487 -7.36886 -3.63805 0
M  V30 2401 C 309.327 -7.95349 -4.982 0
M  V30 2402 C 309.867 -6.94537 -5.98908 0
M  V30 2403 O 308.812 -6.10347 -6.11815 0
M  V30 2404 C 311.085 -6.11426 -5.62335 0
M  V30 2405 O 311.823 -5.6162 -6.70584 0
M  V30 2406 C 310.417 -5.04409 -4.73308 0
M  V30 2407 O 311.215 -3.85929 -4.75106 0
M  V30 2408 C 309.079 -4.8728 -5.41006 0
M  V30 2409 N 308.036 -4.65812 -4.42377 0
M  V30 2410 C 308.098 -5.27109 -3.24335 0
M  V30 2411 N 307.053 -4.94293 -2.47735 0
M  V30 2412 C 306.319 -4.1271 -3.23359 0
M  V30 2413 C 305.013 -3.56384 -2.99934 0
M  V30 2414 O 304.28 -3.69331 -2.00616 0
M  V30 2415 N 304.583 -2.80206 -4.03316 0
M  V30 2416 C 305.332 -2.58614 -5.2172 0
M  V30 2417 N 304.735 -1.75154 -6.13278 0
M  V30 2418 N 306.485 -3.13689 -5.47619 0
M  V30 2419 C 306.942 -3.90921 -4.46436 0
M  V30 2420 H 309.111 -4.02333 -6.11157 0
M  V30 2421 H 310.294 -5.39383 -3.69487 0
M  V30 2422 H 311.779 -6.71414 -5.02615 0
M  V30 2423 H 310.084 -7.4649 -6.93477 0
M  V30 2424 H 309.894 -8.89416 -5.05237 0
M  V30 2425 H 308.263 -8.14876 -5.18409 0
M  V30 2426 H 303.687 -2.36355 -3.95916 0
M  V30 2427 H 308.894 -5.95212 -2.93859 0
M  V30 2428 H 303.824 -1.32473 -5.91856 0
M  V30 2429 H 305.2 -1.5588 -7.03026 0
M  V30 2430 H 310.904 -3.27906 -5.43085 0
M  V30 2431 P 312.76 -5.75688 -6.64379 0
M  V30 2432 O 314.182 -6.07758 -7.05656 0
M  V30 2433 O 312.4 -5.88047 -5.19722 0
M  V30 2434 O 312.437 -4.2322 -7.04443 0
M  V30 2435 C 312.277 -3.99743 -8.4911 0
M  V30 2436 C 312.817 -2.60487 -8.79329 0
M  V30 2437 O 311.762 -1.82684 -8.4467 0
M  V30 2438 C 314.035 -2.10343 -8.03628 0
M  V30 2439 O 314.773 -1.09919 -8.67766 0
M  V30 2440 C 313.367 -1.68446 -6.70876 0
M  V30 2441 O 314.165 -0.678026 -6.08333 0
M  V30 2442 C 312.029 -1.17436 -7.18567 0
M  V30 2443 N 310.986 -1.52699 -6.23988 0
M  V30 2444 C 311.048 -2.68084 -5.57824 0
M  V30 2445 N 310.003 -2.8189 -4.75643 0
M  V30 2446 C 309.269 -1.72373 -4.95155 0
M  V30 2447 C 307.963 -1.37653 -4.44996 0
M  V30 2448 O 307.23 -2.02239 -3.68445 0
M  V30 2449 N 307.533 -0.17675 -4.90782 0
M  V30 2450 C 308.282 0.645036 -5.78716 0
M  V30 2451 N 307.685 1.84214 -6.10618 0
M  V30 2452 N 309.435 0.321732 -6.30279 0
M  V30 2453 C 309.892 -0.87502 -5.86913 0
M  V30 2454 H 312.061 -0.0804732 -7.31656 0
M  V30 2455 H 313.244 -2.53998 -6.02444 0
M  V30 2456 H 314.729 -2.93095 -7.8582 0
M  V30 2457 H 313.034 -2.53065 -9.86973 0
M  V30 2458 H 312.844 -4.75072 -9.05887 0
M  V30 2459 H 311.213 -4.05244 -8.76668 0
M  V30 2460 H 306.637 0.152143 -4.60849 0
M  V30 2461 H 311.844 -3.41852 -5.69006 0
M  V30 2462 H 306.774 2.08538 -5.69521 0
M  V30 2463 H 308.15 2.4895 -6.75698 0
M  V30 2464 H 313.854 0.177619 -6.34151 0
M  V30 2465 P 315.711 -1.25109 -8.70152 0
M  V30 2466 O 317.133 -1.29744 -9.22016 0
M  V30 2467 O 315.351 -2.13714 -7.55141 0
M  V30 2468 O 315.388 0.248149 -8.21425 0
M  V30 2469 C 315.228 1.22779 -9.30434 0
M  V30 2470 C 315.768 2.56293 -8.80664 0
M  V30 2471 O 314.712 3.02979 -8.09349 0
M  V30 2472 C 316.986 2.57523 -7.89775 0
M  V30 2473 O 317.724 3.7668 -7.89438 0
M  V30 2474 C 316.317 2.20997 -6.55446 0
M  V30 2475 O 317.116 2.71895 -5.48509 0
M  V30 2476 C 314.98 2.89693 -6.67988 0
M  V30 2477 H 315.012 3.88793 -6.19859 0
M  V30 2478 H 316.195 1.12046 -6.44229 0
M  V30 2479 H 317.679 1.7746 -8.19711 0
M  V30 2480 H 315.985 3.20706 -9.67112 0
M  V30 2481 H 315.795 0.901032 -10.1892 0
M  V30 2482 H 314.165 1.33049 -9.56592 0
M  V30 2483 H 316.804 3.57847 -5.23962 0
M  V30 2484 P 318.662 3.65191 -7.99657 0
M  V30 2485 O 320.084 3.89332 -8.45794 0
M  V30 2486 O 318.302 2.28472 -7.50807 0
M  V30 2487 O 318.339 4.64972 -6.77611 0
M  V30 2488 C 318.179 6.06319 -7.16352 0
M  V30 2489 C 318.719 6.91731 -6.02299 0
M  V30 2490 O 317.663 6.92449 -5.17064 0
M  V30 2491 C 319.937 6.43627 -5.25174 0
M  V30 2492 O 320.675 7.43686 -4.60469 0
M  V30 2493 C 319.268 5.40275 -4.31916 0
M  V30 2494 O 320.067 5.25279 -3.14438 0
M  V30 2495 C 317.931 6.04847 -4.05327 0
M  V30 2496 H 317.963 6.62195 -3.11261 0
M  V30 2497 H 319.146 4.42556 -4.81383 0
M  V30 2498 H 320.63 5.92458 -5.93643 0
M  V30 2499 H 318.936 7.92655 -6.402 0
M  V30 2500 H 318.746 6.26671 -8.0846 0
M  V30 2501 H 317.116 6.29101 -7.32804 0
M  V30 2502 H 319.755 5.84315 -2.47318 0
M  V30 2503 P 321.612 7.39546 -4.75277 0
M  V30 2504 O 323.034 7.84798 -5.01039 0
M  V30 2505 O 321.252 5.9812 -5.08098 0
M  V30 2506 O 321.289 7.57503 -3.1866 0
M  V30 2507 C 321.129 8.97357 -2.74833 0
M  V30 2508 C 321.669 9.07548 -1.32709 0
M  V30 2509 O 320.613 8.62072 -0.606159 0
M  V30 2510 C 322.887 8.25383 -0.938334 0
M  V30 2511 O 323.625 8.74577 0.146954 0
M  V30 2512 C 322.218 6.8802 -0.712559 0
M  V30 2513 O 323.017 6.1189 0.194655 0
M  V30 2514 C 320.881 7.27966 -0.139777 0
M  V30 2515 H 320.913 7.25354 0.961601 0
M  V30 2516 H 322.096 6.32557 -1.65702 0
M  V30 2517 H 323.58 8.19355 -1.79097 0
M  V30 2518 H 321.886 10.1294 -1.10029 0
M  V30 2519 H 321.696 9.64276 -3.41316 0
M  V30 2520 H 320.066 9.25417 -2.76357 0
M  V30 2521 H 322.705 6.25267 1.07847 0
M  V30 2522 P 324.563 8.791 1.35267e-12 0
M  V30 2523 O 325.964 9.36698 -0.018734 0
M  V30 2524 O 324.185 7.82499 -1.07878 0
M  V30 2525 O 324.24 8.09434 1.41446 0
M  V30 2526 C 324.08 9.0349 2.53943 0
M  V30 2527 C 324.62 8.35135 3.78975 0
M  V30 2528 O 323.564 7.57904 4.1503 0
M  V30 2529 C 325.837 7.45087 3.67298 0
M  V30 2530 O 326.576 7.27796 4.85194 0
M  V30 2531 C 325.17 6.17323 3.12027 0
M  V30 2532 O 325.968 5.04149 3.47132 0
M  V30 2533 C 323.832 6.19961 3.81809 0
M  V30 2534 N 322.789 5.71575 2.93223 0
M  V30 2535 C 321.754 4.99452 3.47592 0
M  V30 2536 O 321.793 4.7199 4.69732 0
M  V30 2537 N 320.742 4.58505 2.6803 0
M  V30 2538 C 320.79 4.85544 1.36995 0
M  V30 2539 C 321.886 5.55532 0.788532 0
M  V30 2540 C 322.852 5.97426 1.60849 0
M  V30 2541 H 323.864 5.58142 4.72986 0
M  V30 2542 H 325.047 6.21428 2.0318 0
M  V30 2543 H 326.531 7.85913 2.93131 0
M  V30 2544 H 324.837 9.11171 4.55987 0
M  V30 2545 H 324.646 9.9573 2.34194 0
M  V30 2546 H 323.016 9.27824 2.67805 0
M  V30 2547 H 321.934 5.7421 -0.281588 0
M  V30 2548 H 323.698 6.53132 1.202 0
M  V30 2549 H 325.752 4.76386 4.34983 0
M  V30 2550 P 327.513 7.39546 4.75277 0
M  V30 2551 O 328.935 7.81777 5.05738 0
M  V30 2552 O 327.153 7.1065 3.32998 0
M  V30 2553 O 327.19 6.04542 5.56673 0
M  V30 2554 C 327.03 6.22772 7.02095 0
M  V30 2555 C 327.57 4.97725 7.70406 0
M  V30 2556 O 326.514 4.13256 7.58987 0
M  V30 2557 C 328.788 4.28231 7.11815 0
M  V30 2558 O 329.526 3.49945 8.01648 0
M  V30 2559 C 328.119 3.5063 5.96244 0
M  V30 2560 O 328.918 2.36482 5.64681 0
M  V30 2561 C 326.782 3.15122 6.56374 0
M  V30 2562 H 326.814 2.13853 6.99751 0
M  V30 2563 H 327.997 4.13501 5.06559 0
M  V30 2564 H 329.481 5.03285 6.70911 0
M  V30 2565 H 327.787 5.20877 8.75697 0
M  V30 2566 H 327.597 7.11046 7.35349 0
M  V30 2567 H 325.967 6.35815 7.26986 0
M  V30 2568 H 328.606 1.61644 6.13565 0
M  V30 2569 P 330.464 3.65191 7.99657 0
M  V30 2570 O 331.886 3.8425 8.48115 0
M  V30 2571 O 330.104 4.17805 6.64342 0
M  V30 2572 O 330.141 2.07613 7.95143 0
M  V30 2573 C 329.981 1.44328 9.27336 0
M  V30 2574 C 330.521 0.0220036 9.17197 0
M  V30 2575 O 329.465 -0.626867 8.61923 0
M  V30 2576 C 331.739 -0.24586 8.30336 0
M  V30 2577 O 332.477 -1.39011 8.63583 0
M  V30 2578 C 331.07 -0.273849 6.91158 0
M  V30 2579 O 331.869 -1.06348 6.02892 0
M  V30 2580 C 329.733 -0.897649 7.22545 0
M  V30 2581 H 329.765 -1.9841 7.04286 0
M  V30 2582 H 330.948 0.739928 6.497 0
M  V30 2583 H 332.432 0.60668 8.36503 0
M  V30 2584 H 330.738 -0.352479 10.1829 0
M  V30 2585 H 330.548 2.00611 10.0304 0
M  V30 2586 H 328.918 1.41843 9.55327 0
M  V30 2587 H 331.557 -1.95734 6.03555 0
M  V30 2588 P 333.414 -1.25109 8.70152 0
M  V30 2589 O 334.835 -1.35288 9.2132 0
M  V30 2590 O 333.054 -0.0769065 7.84762 0
M  V30 2591 O 333.091 -2.55232 7.81161 0
M  V30 2592 C 332.93 -3.79979 8.58246 0
M  V30 2593 C 333.471 -4.94023 7.72785 0
M  V30 2594 O 332.416 -5.18666 6.91125 0
M  V30 2595 C 334.689 -4.69597 6.85231 0
M  V30 2596 O 335.427 -5.83832 6.51337 0
M  V30 2597 C 334.021 -3.96706 5.66633 0
M  V30 2598 O 334.819 -4.14896 4.5003 0
M  V30 2599 C 332.683 -4.66153 5.59313 0
M  V30 2600 N 331.64 -3.71582 5.24027 0
M  V30 2601 C 331.809 -2.39715 5.48833 0
M  V30 2602 N 330.782 -1.65863 5.12845 0
M  V30 2603 C 329.897 -2.57637 4.5973 0
M  V30 2604 C 328.63 -2.40278 4.01027 0
M  V30 2605 N 328.031 -1.19549 3.86744 0
M  V30 2606 N 328.065 -3.57711 3.59575 0
M  V30 2607 C 328.667 -4.80324 3.70476 0
M  V30 2608 N 329.844 -5.01121 4.23801 0
M  V30 2609 C 330.419 -3.84757 4.66372 0
M  V30 2610 H 332.715 -5.47604 4.85148 0
M  V30 2611 H 333.898 -2.8955 5.86187 0
M  V30 2612 H 335.381 -4.0121 7.36511 0
M  V30 2613 H 333.687 -5.81019 8.37003 0
M  V30 2614 H 333.497 -3.73517 9.52265 0
M  V30 2615 H 331.867 -3.97163 8.80359 0
M  V30 2616 H 328.131 -5.66348 3.3183 0
M  V30 2617 H 332.709 -1.98804 5.94332 0
M  V30 2618 H 327.101 -1.13147 3.4281 0
M  V30 2619 H 328.505 -0.344074 4.19692 0
M  V30 2620 H 334.507 -4.90891 4.01857 0
M  V30 2621 P 336.365 -5.75688 6.64379 0
M  V30 2622 O 337.787 -6.11849 7.01846 0
M  V30 2623 O 336.005 -4.30744 6.56026 0
M  V30 2624 O 336.042 -6.37042 5.19165 0
M  V30 2625 C 335.882 -7.83578 5.16515 0
M  V30 2626 C 336.422 -8.33398 3.83019 0
M  V30 2627 O 335.366 -8.10074 3.01034 0
M  V30 2628 C 337.64 -7.65514 3.2257 0
M  V30 2629 O 338.378 -8.4329 2.32297 0
M  V30 2630 C 336.971 -6.40075 2.62207 0
M  V30 2631 O 337.77 -5.92589 1.53712 0
M  V30 2632 C 335.634 -6.9454 2.18503 0
M  V30 2633 H 335.666 -7.23063 1.12091 0
M  V30 2634 H 336.849 -5.6025 3.37201 0
M  V30 2635 H 338.333 -7.35707 4.02681 0
M  V30 2636 H 336.639 -9.40912 3.9095 0
M  V30 2637 H 336.449 -8.29056 5.99158 0
M  V30 2638 H 334.819 -8.10073 5.25882 0
M  V30 2639 H 337.458 -6.30324 0.726794 0
M  V30 2640 P 339.316 -8.4349 2.47671 0
M  V30 2641 O 340.738 -8.94167 2.5964 0
M  V30 2642 O 338.956 -7.1704 3.19006 0
M  V30 2643 O 338.993 -8.16596 0.923387 0
M  V30 2644 C 338.833 -9.38437 0.108857 0
M  V30 2645 C 339.373 -9.08175 -1.28353 0
M  V30 2646 O 338.317 -8.44229 -1.84713 0
M  V30 2647 C 340.591 -8.18386 -1.42505 0
M  V30 2648 O 341.329 -8.3501 -2.60497 0
M  V30 2649 C 339.922 -6.80225 -1.25468 0
M  V30 2650 O 340.721 -5.81621 -1.91066 0
M  V30 2651 C 338.585 -7.02416 -1.9168 0
M  V30 2652 H 338.617 -6.6888 -2.96621 0
M  V30 2653 H 339.8 -6.53617 -0.192223 0
M  V30 2654 H 341.284 -8.36622 -0.589963 0
M  V30 2655 H 339.59 -10.0291 -1.79807 0
M  V30 2656 H 339.4 -10.2138 0.558219 0
M  V30 2657 H 337.77 -9.6579 0.0444202 0
M  V30 2658 H 340.409 -5.69556 -2.79637 0
M  V30 2659 P 342.266 -8.4349 -2.47671 0
M  V30 2660 O 343.688 -8.92593 -2.65 0
M  V30 2661 O 341.906 -7.7568 -1.19296 0
M  V30 2662 O 341.943 -7.36886 -3.63805 0
M  V30 2663 C 341.783 -7.95349 -4.982 0
M  V30 2664 C 342.323 -6.94612 -5.98974 0
M  V30 2665 O 341.267 -6.10347 -6.11815 0
M  V30 2666 C 343.541 -6.11426 -5.62335 0
M  V30 2667 O 344.279 -5.6162 -6.70584 0
M  V30 2668 C 342.872 -5.04409 -4.73308 0
M  V30 2669 O 343.671 -3.85992 -4.75183 0
M  V30 2670 C 341.535 -4.8728 -5.41006 0
M  V30 2671 H 341.567 -4.02333 -6.11157 0
M  V30 2672 H 342.75 -5.39466 -3.69543 0
M  V30 2673 H 344.234 -6.71916 -5.01943 0
M  V30 2674 H 342.54 -7.4649 -6.93477 0
M  V30 2675 H 342.35 -8.89416 -5.05237 0
M  V30 2676 H 340.72 -8.14876 -5.18409 0
M  V30 2677 H 343.359 -3.27957 -5.4317 0
M  V30 2678 P 345.217 -5.75688 -6.64379 0
M  V30 2679 O 346.639 -6.07758 -7.05656 0
M  V30 2680 O 344.857 -5.88047 -5.19722 0
M  V30 2681 O 344.894 -4.2322 -7.04443 0
M  V30 2682 C 344.734 -3.99743 -8.4911 0
M  V30 2683 C 345.274 -2.60487 -8.79329 0
M  V30 2684 O 344.219 -1.82684 -8.4467 0
M  V30 2685 C 346.492 -2.10343 -8.03628 0
M  V30 2686 O 347.23 -1.09919 -8.67766 0
M  V30 2687 C 345.824 -1.68446 -6.70876 0
M  V30 2688 O 346.622 -0.678026 -6.08333 0
M  V30 2689 C 344.486 -1.17436 -7.18567 0
M  V30 2690 N 343.443 -1.52699 -6.23988 0
M  V30 2691 C 343.505 -2.68084 -5.57824 0
M  V30 2692 N 342.46 -2.8189 -4.75643 0
M  V30 2693 C 341.726 -1.72373 -4.95155 0
M  V30 2694 C 340.42 -1.37653 -4.44996 0
M  V30 2695 O 339.687 -2.02239 -3.68445 0
M  V30 2696 N 339.99 -0.17675 -4.90782 0
M  V30 2697 C 340.739 0.645036 -5.78716 0
M  V30 2698 N 340.142 1.84214 -6.10618 0
M  V30 2699 N 341.892 0.321732 -6.30279 0
M  V30 2700 C 342.349 -0.87502 -5.86913 0
M  V30 2701 H 344.518 -0.0804732 -7.31656 0
M  V30 2702 H 345.701 -2.53998 -6.02444 0
M  V30 2703 H 347.186 -2.93095 -7.8582 0
M  V30 2704 H 345.491 -2.53065 -9.86973 0
M  V30 2705 H 345.301 -4.75072 -9.05887 0
M  V30 2706 H 343.67 -4.05244 -8.76668 0
M  V30 2707 H 339.094 0.152143 -4.60849 0
M  V30 2708 H 344.301 -3.41852 -5.69006 0
M  V30 2709 H 339.231 2.08538 -5.69521 0
M  V30 2710 H 340.607 2.4895 -6.75698 0
M  V30 2711 H 346.311 0.177619 -6.34151 0
M  V30 2712 P 348.167 -1.25109 -8.70152 0
M  V30 2713 O 349.589 -1.29744 -9.22016 0
M  V30 2714 O 347.807 -2.13714 -7.55141 0
M  V30 2715 O 347.844 0.248149 -8.21425 0
M  V30 2716 C 347.684 1.22779 -9.30434 0
M  V30 2717 C 348.224 2.56293 -8.80664 0
M  V30 2718 O 347.168 3.02979 -8.09349 0
M  V30 2719 C 349.442 2.57523 -7.89775 0
M  V30 2720 O 350.18 3.7668 -7.89438 0
M  V30 2721 C 348.773 2.20997 -6.55446 0
M  V30 2722 O 349.572 2.71895 -5.48509 0
M  V30 2723 C 347.436 2.89693 -6.67988 0
M  V30 2724 H 347.468 3.88793 -6.19859 0
M  V30 2725 H 348.651 1.12046 -6.44229 0
M  V30 2726 H 350.135 1.7746 -8.19711 0
M  V30 2727 H 348.441 3.20706 -9.67112 0
M  V30 2728 H 348.251 0.901032 -10.1892 0
M  V30 2729 H 346.621 1.33049 -9.56592 0
M  V30 2730 H 349.26 3.57847 -5.23962 0
M  V30 2731 P 351.118 3.65191 -7.99657 0
M  V30 2732 O 352.54 3.89332 -8.45794 0
M  V30 2733 O 350.758 2.28472 -7.50807 0
M  V30 2734 O 350.795 4.64972 -6.77611 0
M  V30 2735 C 350.635 6.06319 -7.16352 0
M  V30 2736 C 351.175 6.91731 -6.02299 0
M  V30 2737 O 350.119 6.92449 -5.17064 0
M  V30 2738 C 352.393 6.43627 -5.25174 0
M  V30 2739 O 353.131 7.43686 -4.60469 0
M  V30 2740 C 351.724 5.40275 -4.31916 0
M  V30 2741 O 352.523 5.25279 -3.14438 0
M  V30 2742 C 350.387 6.04847 -4.05327 0
M  V30 2743 H 350.419 6.62195 -3.11261 0
M  V30 2744 H 351.602 4.42556 -4.81383 0
M  V30 2745 H 353.086 5.92458 -5.93643 0
M  V30 2746 H 351.392 7.92655 -6.402 0
M  V30 2747 H 351.202 6.26671 -8.0846 0
M  V30 2748 H 349.572 6.29101 -7.32804 0
M  V30 2749 H 352.211 5.84315 -2.47318 0
M  V30 2750 P 354.068 7.39546 -4.75277 0
M  V30 2751 O 355.49 7.84798 -5.01039 0
M  V30 2752 O 353.708 5.9812 -5.08098 0
M  V30 2753 O 353.745 7.57503 -3.1866 0
M  V30 2754 C 353.585 8.97357 -2.74833 0
M  V30 2755 C 354.125 9.07548 -1.32709 0
M  V30 2756 O 353.069 8.62072 -0.606159 0
M  V30 2757 C 355.343 8.25383 -0.938334 0
M  V30 2758 O 356.081 8.74577 0.146954 0
M  V30 2759 C 354.674 6.8802 -0.712559 0
M  V30 2760 O 355.473 6.1189 0.194655 0
M  V30 2761 C 353.337 7.27966 -0.139777 0
M  V30 2762 H 353.369 7.25354 0.961601 0
M  V30 2763 H 354.552 6.32557 -1.65702 0
M  V30 2764 H 356.036 8.19355 -1.79097 0
M  V30 2765 H 354.342 10.1294 -1.10029 0
M  V30 2766 H 354.152 9.64276 -3.41316 0
M  V30 2767 H 352.522 9.25417 -2.76357 0
M  V30 2768 H 355.161 6.25267 1.07847 0
M  V30 2769 P 357.019 8.791 1.66284e-12 0
M  V30 2770 O 358.441 9.31096 0.027933 0
M  V30 2771 O 356.659 7.77869 -1.04071 0
M  V30 2772 O 356.696 8.09533 1.41463 0
M  V30 2773 C 356.536 9.0349 2.53943 0
M  V30 2774 C 357.076 8.35226 3.79016 0
M  V30 2775 O 356.02 7.57992 4.15078 0
M  V30 2776 C 358.294 7.45087 3.67298 0
M  V30 2777 O 359.032 7.27796 4.85194 0
M  V30 2778 C 357.625 6.17323 3.12027 0
M  V30 2779 O 358.424 5.04231 3.47188 0
M  V30 2780 C 356.288 6.19961 3.81809 0
M  V30 2781 H 356.32 5.58218 4.73051 0
M  V30 2782 H 357.503 6.21726 2.02589 0
M  V30 2783 H 358.987 7.86112 2.9231 0
M  V30 2784 H 357.293 9.11627 4.55076 0
M  V30 2785 H 357.103 9.9573 2.34194 0
M  V30 2786 H 355.473 9.2792 2.67832 0
M  V30 2787 H 358.112 4.67702 4.28772 0
M  V30 2788 P 359.97 7.39546 4.75277 0
M  V30 2789 O 361.392 7.81777 5.05738 0
M  V30 2790 O 359.61 7.1065 3.32998 0
M  V30 2791 O 359.647 6.04542 5.56673 0
M  V30 2792 C 359.487 6.22772 7.02095 0
M  V30 2793 C 360.027 4.97725 7.70406 0
M  V30 2794 O 358.971 4.13256 7.58987 0
M  V30 2795 C 361.245 4.28231 7.11815 0
M  V30 2796 O 361.983 3.49945 8.01648 0
M  V30 2797 C 360.576 3.5063 5.96244 0
M  V30 2798 O 361.375 2.36482 5.64681 0
M  V30 2799 C 359.239 3.15122 6.56374 0
M  V30 2800 H 359.271 2.13853 6.99751 0
M  V30 2801 H 360.454 4.13501 5.06559 0
M  V30 2802 H 361.938 5.03285 6.70911 0
M  V30 2803 H 360.244 5.20877 8.75697 0
M  V30 2804 H 360.054 7.11046 7.35349 0
M  V30 2805 H 358.424 6.35815 7.26986 0
M  V30 2806 H 361.063 1.61644 6.13565 0
M  V30 2807 P 362.92 3.65191 7.99657 0
M  V30 2808 O 364.342 3.8425 8.48115 0
M  V30 2809 O 362.56 4.17805 6.64342 0
M  V30 2810 O 362.597 2.07613 7.95143 0
M  V30 2811 C 362.437 1.44328 9.27336 0
M  V30 2812 C 362.977 0.0220036 9.17197 0
M  V30 2813 O 361.921 -0.626867 8.61923 0
M  V30 2814 C 364.195 -0.24586 8.30336 0
M  V30 2815 O 364.933 -1.39011 8.63583 0
M  V30 2816 C 363.526 -0.273849 6.91158 0
M  V30 2817 O 364.325 -1.06348 6.02892 0
M  V30 2818 C 362.189 -0.897649 7.22545 0
M  V30 2819 H 362.221 -1.9841 7.04286 0
M  V30 2820 H 363.404 0.739928 6.497 0
M  V30 2821 H 364.888 0.60668 8.36503 0
M  V30 2822 H 363.194 -0.352479 10.1829 0
M  V30 2823 H 363.004 2.00611 10.0304 0
M  V30 2824 H 361.374 1.41843 9.55327 0
M  V30 2825 H 364.013 -1.95734 6.03555 0
M  V30 2826 P 365.871 -1.25109 8.70152 0
M  V30 2827 O 367.292 -1.35288 9.2132 0
M  V30 2828 O 365.511 -0.0769065 7.84762 0
M  V30 2829 O 365.548 -2.55232 7.81161 0
M  V30 2830 C 365.387 -3.79979 8.58246 0
M  V30 2831 C 365.928 -4.94023 7.72785 0
M  V30 2832 O 364.873 -5.18666 6.91125 0
M  V30 2833 C 367.146 -4.69597 6.85231 0
M  V30 2834 O 367.884 -5.83832 6.51337 0
M  V30 2835 C 366.478 -3.96706 5.66633 0
M  V30 2836 O 367.276 -4.14896 4.5003 0
M  V30 2837 C 365.14 -4.66153 5.59313 0
M  V30 2838 N 364.097 -3.71582 5.24027 0
M  V30 2839 C 364.266 -2.39715 5.48833 0
M  V30 2840 N 363.239 -1.65863 5.12845 0
M  V30 2841 C 362.354 -2.57637 4.5973 0
M  V30 2842 C 361.087 -2.40278 4.01027 0
M  V30 2843 N 360.488 -1.19549 3.86744 0
M  V30 2844 N 360.522 -3.57711 3.59575 0
M  V30 2845 C 361.124 -4.80324 3.70476 0
M  V30 2846 N 362.301 -5.01121 4.23801 0
M  V30 2847 C 362.876 -3.84757 4.66372 0
M  V30 2848 H 365.172 -5.47604 4.85148 0
M  V30 2849 H 366.355 -2.8955 5.86187 0
M  V30 2850 H 367.838 -4.0121 7.36511 0
M  V30 2851 H 366.144 -5.81019 8.37003 0
M  V30 2852 H 365.954 -3.73517 9.52265 0
M  V30 2853 H 364.324 -3.97163 8.80359 0
M  V30 2854 H 360.588 -5.66348 3.3183 0
M  V30 2855 H 365.166 -1.98804 5.94332 0
M  V30 2856 H 359.558 -1.13147 3.4281 0
M  V30 2857 H 360.962 -0.344074 4.19692 0
M  V30 2858 H 366.964 -4.90891 4.01857 0
M  V30 2859 P 368.821 -5.75688 6.64379 0
M  V30 2860 O 370.243 -6.11849 7.01846 0
M  V30 2861 O 368.461 -4.30744 6.56026 0
M  V30 2862 O 368.498 -6.37042 5.19165 0
M  V30 2863 C 368.338 -7.83578 5.16515 0
M  V30 2864 C 368.878 -8.33398 3.83019 0
M  V30 2865 O 367.822 -8.10074 3.01034 0
M  V30 2866 C 370.096 -7.65514 3.2257 0
M  V30 2867 O 370.834 -8.4329 2.32297 0
M  V30 2868 C 369.427 -6.40075 2.62207 0
M  V30 2869 O 370.226 -5.92589 1.53712 0
M  V30 2870 C 368.09 -6.9454 2.18503 0
M  V30 2871 H 368.122 -7.23063 1.12091 0
M  V30 2872 H 369.305 -5.6025 3.37201 0
M  V30 2873 H 370.789 -7.35707 4.02681 0
M  V30 2874 H 369.095 -9.40912 3.9095 0
M  V30 2875 H 368.905 -8.29056 5.99158 0
M  V30 2876 H 367.275 -8.10073 5.25882 0
M  V30 2877 H 369.914 -6.30324 0.726794 0
M  V30 2878 P 371.772 -8.4349 2.47671 0
M  V30 2879 O 373.194 -8.94167 2.5964 0
M  V30 2880 O 371.412 -7.1704 3.19006 0
M  V30 2881 O 371.449 -8.16596 0.923387 0
M  V30 2882 C 371.289 -9.38437 0.108857 0
M  V30 2883 C 371.829 -9.08175 -1.28353 0
M  V30 2884 O 370.773 -8.44229 -1.84713 0
M  V30 2885 C 373.047 -8.18386 -1.42505 0
M  V30 2886 O 373.785 -8.3501 -2.60497 0
M  V30 2887 C 372.378 -6.80225 -1.25468 0
M  V30 2888 O 373.177 -5.81621 -1.91066 0
M  V30 2889 C 371.041 -7.02416 -1.9168 0
M  V30 2890 H 371.073 -6.6888 -2.96621 0
M  V30 2891 H 372.256 -6.53617 -0.192223 0
M  V30 2892 H 373.74 -8.36622 -0.589963 0
M  V30 2893 H 372.046 -10.0291 -1.79807 0
M  V30 2894 H 371.856 -10.2138 0.558219 0
M  V30 2895 H 370.226 -9.6579 0.0444202 0
M  V30 2896 H 372.865 -5.69556 -2.79637 0
M  V30 2897 P 374.722 -8.4349 -2.47671 0
M  V30 2898 O 376.144 -8.92593 -2.65 0
M  V30 2899 O 374.362 -7.7568 -1.19296 0
M  V30 2900 O 374.399 -7.36886 -3.63805 0
M  V30 2901 C 374.239 -7.95349 -4.982 0
M  V30 2902 C 374.779 -6.94612 -5.98974 0
M  V30 2903 O 373.723 -6.10347 -6.11815 0
M  V30 2904 C 375.997 -6.11426 -5.62335 0
M  V30 2905 O 376.735 -5.6162 -6.70584 0
M  V30 2906 C 375.328 -5.04409 -4.73308 0
M  V30 2907 O 376.127 -3.85992 -4.75183 0
M  V30 2908 C 373.991 -4.8728 -5.41006 0
M  V30 2909 H 374.023 -4.02333 -6.11157 0
M  V30 2910 H 375.206 -5.39466 -3.69543 0
M  V30 2911 H 376.69 -6.71916 -5.01943 0
M  V30 2912 H 374.996 -7.4649 -6.93477 0
M  V30 2913 H 374.806 -8.89416 -5.05237 0
M  V30 2914 H 373.176 -8.14876 -5.18409 0
M  V30 2915 H 375.815 -3.27957 -5.4317 0
M  V30 2916 P 377.673 -5.75688 -6.64379 0
M  V30 2917 O 379.095 -6.07627 -7.05504 0
M  V30 2918 O 377.313 -5.88047 -5.19722 0
M  V30 2919 O 377.35 -4.2322 -7.04443 0
M  V30 2920 C 377.19 -3.99743 -8.4911 0
M  V30 2921 C 377.73 -2.60516 -8.79425 0
M  V30 2922 O 376.674 -1.82684 -8.4467 0
M  V30 2923 C 378.948 -2.10343 -8.03628 0
M  V30 2924 O 379.686 -1.09919 -8.67766 0
M  V30 2925 C 378.279 -1.68446 -6.70876 0
M  V30 2926 O 379.078 -0.678137 -6.08433 0
M  V30 2927 C 376.942 -1.17436 -7.18567 0
M  V30 2928 H 376.974 -0.0804732 -7.31656 0
M  V30 2929 H 378.157 -2.54037 -6.02537 0
M  V30 2930 H 379.641 -2.93881 -7.85526 0
M  V30 2931 H 377.947 -2.53065 -9.86973 0
M  V30 2932 H 377.757 -4.75072 -9.05887 0
M  V30 2933 H 376.127 -4.05244 -8.76668 0
M  V30 2934 H 378.766 0.177647 -6.34251 0
M  V30 2935 P 380.624 -1.25109 -8.70152 0
M  V30 2936 O 382.045 -1.29758 -9.22115 0
M  V30 2937 O 380.264 -2.13714 -7.55141 0
M  V30 2938 O 380.301 0.248149 -8.21425 0
M  V30 2939 C 380.14 1.22792 -9.30533 0
M  V30 2940 C 380.681 2.56293 -8.80664 0
M  V30 2941 O 379.626 3.02944 -8.09255 0
M  V30 2942 C 381.899 2.57523 -7.89775 0
M  V30 2943 O 382.637 3.7668 -7.89438 0
M  V30 2944 C 381.231 2.20997 -6.55446 0
M  V30 2945 O 382.029 2.71302 -5.48691 0
M  V30 2946 C 379.893 2.89693 -6.67988 0
M  V30 2947 N 378.85 2.08895 -6.07487 0
M  V30 2948 C 379.019 0.753809 -5.94137 0
M  V30 2949 N 377.992 0.146592 -5.38801 0
M  V30 2950 C 377.107 1.1768 -5.13693 0
M  V30 2951 C 375.84 1.17563 -4.52477 0
M  V30 2952 N 375.275 2.41918 -4.45789 0
M  V30 2953 C 375.877 3.56493 -4.90792 0
M  V30 2954 N 377.054 3.61423 -5.47817 0
M  V30 2955 C 377.629 2.37779 -5.5588 0
M  V30 2956 H 381.108 1.12673 -6.44018 0
M  V30 2957 H 382.591 1.7746 -8.19711 0
M  V30 2958 H 380.897 3.21673 -9.66791 0
M  V30 2959 H 380.707 0.901032 -10.1892 0
M  V30 2960 H 379.077 1.33049 -9.56592 0
M  V30 2961 H 379.919 0.233081 -6.26266 0
M  V30 2962 H 381.717 3.5779 -5.23879 0
M  V30 2963 P 383.574 3.65191 -7.99657 0
M  V30 2964 O 384.995 3.89374 -8.45885 0
M  V30 2965 O 383.214 2.28472 -7.50807 0
M  V30 2966 O 383.251 4.64972 -6.77611 0
M  V30 2967 C 383.09 6.06383 -7.16428 0
M  V30 2968 C 383.631 6.91731 -6.02299 0
M  V30 2969 O 382.576 6.92369 -5.17005 0
M  V30 2970 C 384.849 6.43627 -5.25174 0
M  V30 2971 O 385.587 7.43686 -4.60469 0
M  V30 2972 C 384.181 5.40275 -4.31916 0
M  V30 2973 O 384.979 5.24878 -3.14911 0
M  V30 2974 C 382.843 6.04847 -4.05327 0
M  V30 2975 N 381.8 5.04166 -3.98114 0
M  V30 2976 C 381.969 3.84629 -4.59066 0
M  V30 2977 N 380.942 3.0363 -4.45343 0
M  V30 2978 C 380.057 3.76722 -3.68523 0
M  V30 2979 C 378.79 3.43528 -3.17088 0
M  V30 2980 N 378.191 2.23665 -3.37397 0
M  V30 2981 N 378.225 4.44526 -2.44231 0
M  V30 2982 C 378.827 5.65243 -2.20146 0
M  V30 2983 N 380.004 6.00221 -2.65453 0
M  V30 2984 C 380.579 5.00564 -3.39083 0
M  V30 2985 H 382.875 6.62104 -3.11218 0
M  V30 2986 H 384.058 4.42969 -4.80867 0
M  V30 2987 H 385.541 5.92458 -5.93643 0
M  V30 2988 H 383.847 7.93295 -6.39407 0
M  V30 2989 H 383.657 6.26671 -8.0846 0
M  V30 2990 H 382.027 6.29101 -7.32804 0
M  V30 2991 H 378.291 6.36894 -1.5883 0
M  V30 2992 H 382.869 3.58193 -5.14248 0
M  V30 2993 H 377.261 2.05145 -2.97047 0
M  V30 2994 H 378.665 1.51255 -3.92998 0
M  V30 2995 H 384.667 5.84223 -2.47279 0
M  V30 2996 P 386.525 7.39546 -4.75277 0
M  V30 2997 O 387.946 7.84882 -5.01092 0
M  V30 2998 O 386.165 5.9812 -5.08098 0
M  V30 2999 O 386.202 7.57503 -3.1866 0
M  V30 3000 C 386.041 8.97452 -2.74862 0
M  V30 3001 C 386.582 9.07548 -1.32709 0
M  V30 3002 O 385.527 8.61972 -0.606089 0
M  V30 3003 C 387.8 8.25383 -0.938334 0
M  V30 3004 O 388.538 8.74577 0.146954 0
M  V30 3005 C 387.132 6.8802 -0.712559 0
M  V30 3006 O 387.93 6.1181 0.188505 0
M  V30 3007 C 385.794 7.27966 -0.139777 0
M  V30 3008 N 384.751 6.39368 -0.623421 0
M  V30 3009 C 384.92 5.71761 -1.78245 0
M  V30 3010 N 383.893 4.962 -2.10491 0
M  V30 3011 C 383.008 5.16158 -1.0635 0
M  V30 3012 C 381.741 4.60425 -0.810266 0
M  V30 3013 N 381.176 5.06 0.348685 0
M  V30 3014 C 381.778 5.94532 1.20395 0
M  V30 3015 N 382.955 6.48452 1.01191 0
M  V30 3016 C 383.53 6.04423 -0.146291 0
M  V30 3017 H 387.009 6.32625 -1.65044 0
M  V30 3018 H 388.492 8.19355 -1.79097 0
M  V30 3019 H 386.798 10.1305 -1.09016 0
M  V30 3020 H 386.608 9.64276 -3.41316 0
M  V30 3021 H 384.978 9.25417 -2.76357 0
M  V30 3022 H 385.82 5.79354 -2.38959 0
M  V30 3023 H 387.618 6.25169 1.0783 0
M  V30 3024 P 389.475 8.791 1.973e-12 0
M  V30 3025 O 390.897 9.31096 0.027933 0
M  V30 3026 O 389.115 7.77869 -1.04071 0
M  V30 3027 O 389.152 8.09533 1.41463 0
M  V30 3028 C 388.992 9.0349 2.53943 0
M  V30 3029 C 389.532 8.35226 3.79016 0
M  V30 3030 O 388.476 7.57992 4.15078 0
M  V30 3031 C 390.75 7.45087 3.67298 0
M  V30 3032 O 391.488 7.27796 4.85194 0
M  V30 3033 C 390.081 6.17323 3.12027 0
M  V30 3034 O 390.88 5.04231 3.47188 0
M  V30 3035 C 388.744 6.19961 3.81809 0
M  V30 3036 H 388.776 5.58218 4.73051 0
M  V30 3037 H 389.959 6.21726 2.02589 0
M  V30 3038 H 391.443 7.86112 2.9231 0
M  V30 3039 H 389.749 9.11627 4.55076 0
M  V30 3040 H 389.559 9.9573 2.34194 0
M  V30 3041 H 387.929 9.2792 2.67832 0
M  V30 3042 H 390.568 4.67702 4.28772 0
M  V30 3043 P 392.426 7.39546 4.75277 0
M  V30 3044 O 393.848 7.81777 5.05738 0
M  V30 3045 O 392.066 7.1065 3.32998 0
M  V30 3046 O 392.103 6.04542 5.56673 0
M  V30 3047 C 391.943 6.22772 7.02095 0
M  V30 3048 C 392.483 4.97725 7.70406 0
M  V30 3049 O 391.427 4.13256 7.58987 0
M  V30 3050 C 393.701 4.28231 7.11815 0
M  V30 3051 O 394.439 3.49945 8.01648 0
M  V30 3052 C 393.032 3.5063 5.96244 0
M  V30 3053 O 393.831 2.36482 5.64681 0
M  V30 3054 C 391.695 3.15122 6.56374 0
M  V30 3055 H 391.727 2.13853 6.99751 0
M  V30 3056 H 392.91 4.13501 5.06559 0
M  V30 3057 H 394.394 5.03285 6.70911 0
M  V30 3058 H 392.7 5.20877 8.75697 0
M  V30 3059 H 392.51 7.11046 7.35349 0
M  V30 3060 H 390.88 6.35815 7.26986 0
M  V30 3061 H 393.519 1.61644 6.13565 0
M  V30 3062 P 395.376 3.65191 7.99657 0
M  V30 3063 O 396.798 3.8425 8.48115 0
M  V30 3064 O 395.016 4.17805 6.64342 0
M  V30 3065 O 395.053 2.07613 7.95143 0
M  V30 3066 C 394.893 1.44328 9.27336 0
M  V30 3067 C 395.433 0.0220036 9.17197 0
M  V30 3068 O 394.377 -0.626867 8.61923 0
M  V30 3069 C 396.651 -0.24586 8.30336 0
M  V30 3070 O 397.389 -1.39011 8.63583 0
M  V30 3071 C 395.982 -0.273849 6.91158 0
M  V30 3072 O 396.781 -1.06348 6.02892 0
M  V30 3073 C 394.645 -0.897649 7.22545 0
M  V30 3074 H 394.677 -1.9841 7.04286 0
M  V30 3075 H 395.86 0.739928 6.497 0
M  V30 3076 H 397.344 0.60668 8.36503 0
M  V30 3077 H 395.65 -0.352479 10.1829 0
M  V30 3078 H 395.46 2.00611 10.0304 0
M  V30 3079 H 393.83 1.41843 9.55327 0
M  V30 3080 H 396.469 -1.95734 6.03555 0
M  V30 3081 P 398.327 -1.25109 8.70152 0
M  V30 3082 O 399.749 -1.35274 9.21221 0
M  V30 3083 O 397.967 -0.0769065 7.84762 0
M  V30 3084 O 398.004 -2.55232 7.81161 0
M  V30 3085 C 397.844 -3.79939 8.58154 0
M  V30 3086 C 398.384 -4.94023 7.72785 0
M  V30 3087 O 397.328 -5.18726 6.91205 0
M  V30 3088 C 399.602 -4.69597 6.85231 0
M  V30 3089 O 400.34 -5.83832 6.51337 0
M  V30 3090 C 398.933 -3.96706 5.66633 0
M  V30 3091 O 399.732 -4.15414 4.49689 0
M  V30 3092 C 397.596 -4.66153 5.59313 0
M  V30 3093 H 397.628 -5.47679 4.85214 0
M  V30 3094 H 398.811 -2.89008 5.86566 0
M  V30 3095 H 400.295 -4.0121 7.36511 0
M  V30 3096 H 398.601 -5.80182 8.37584 0
M  V30 3097 H 398.411 -3.73517 9.52265 0
M  V30 3098 H 396.781 -3.97163 8.80359 0
M  V30 3099 H 399.42 -4.90969 4.01921 0
M  V30 3100 P 401.278 -5.75688 6.64379 0
M  V30 3101 O 402.699 -6.11915 7.01921 0
M  V30 3102 O 400.918 -4.30744 6.56026 0
M  V30 3103 O 400.955 -6.37042 5.19165 0
M  V30 3104 C 400.794 -7.83662 5.1657 0
M  V30 3105 C 401.335 -8.33398 3.83019 0
M  V30 3106 O 400.28 -8.0998 3.00999 0
M  V30 3107 C 402.553 -7.65514 3.2257 0
M  V30 3108 O 403.291 -8.4329 2.32297 0
M  V30 3109 C 401.885 -6.40075 2.62207 0
M  V30 3110 O 402.683 -5.92338 1.5428 0
M  V30 3111 C 400.547 -6.9454 2.18503 0
M  V30 3112 N 399.504 -5.95905 2.39948 0
M  V30 3113 C 399.673 -4.98383 3.32108 0
M  V30 3114 N 398.646 -4.16798 3.41761 0
M  V30 3115 C 397.761 -4.65287 2.47461 0
M  V30 3116 C 396.494 -4.18946 2.07461 0
M  V30 3117 N 395.895 -3.09661 2.60717 0
M  V30 3118 N 395.929 -4.95327 1.09101 0
M  V30 3119 C 396.531 -6.04369 0.519812 0
M  V30 3120 N 397.708 -6.50694 0.855982 0
M  V30 3121 C 398.283 -5.75818 1.84322 0
M  V30 3122 H 400.579 -7.22964 1.12076 0
M  V30 3123 H 401.762 -5.60502 3.36589 0
M  V30 3124 H 403.245 -7.35707 4.02681 0
M  V30 3125 H 401.551 -9.41302 3.90009 0
M  V30 3126 H 401.361 -8.29056 5.99158 0
M  V30 3127 H 399.731 -8.10073 5.25882 0
M  V30 3128 H 395.995 -6.55843 -0.270373 0
M  V30 3129 H 400.573 -4.88564 3.92502 0
M  V30 3130 H 394.965 -2.80523 2.27218 0
M  V30 3131 H 396.369 -2.55848 3.34465 0
M  V30 3132 H 402.371 -6.30224 0.72668 0
M  V30 3133 P 404.228 -8.4349 2.47671 0
M  V30 3134 O 405.649 -8.94263 2.59668 0
M  V30 3135 O 403.868 -7.1704 3.19006 0
M  V30 3136 O 403.905 -8.16596 0.923387 0
M  V30 3137 C 403.744 -9.38537 0.108869 0
M  V30 3138 C 404.285 -9.08175 -1.28353 0
M  V30 3139 O 403.23 -8.44131 -1.84692 0
M  V30 3140 C 405.503 -8.18386 -1.42505 0
M  V30 3141 O 406.241 -8.3501 -2.60497 0
M  V30 3142 C 404.835 -6.80225 -1.25468 0
M  V30 3143 O 405.633 -5.81716 -1.90454 0
M  V30 3144 C 403.497 -7.02416 -1.9168 0
M  V30 3145 N 402.454 -6.31033 -1.20314 0
M  V30 3146 C 402.623 -5.98817 0.0994088 0
M  V30 3147 N 401.596 -5.35403 0.621694 0
M  V30 3148 C 400.711 -5.25212 -0.43376 0
M  V30 3149 C 399.444 -4.64602 -0.519722 0
M  V30 3150 N 398.845 -4.01457 0.519136 0
M  V30 3151 N 398.879 -4.7568 -1.76013 0
M  V30 3152 C 399.481 -5.3653 -2.83017 0
M  V30 3153 N 400.658 -5.93676 -2.79782 0
M  V30 3154 C 401.233 -5.84061 -1.56249 0
M  V30 3155 H 403.529 -6.68789 -2.9658 0
M  V30 3156 H 404.712 -6.53498 -0.198729 0
M  V30 3157 H 406.195 -8.36622 -0.589963 0
M  V30 3158 H 404.501 -10.0273 -1.8081 0
M  V30 3159 H 404.311 -10.2138 0.558219 0
M  V30 3160 H 402.681 -9.6579 0.0444202 0
M  V30 3161 H 398.945 -5.37113 -3.77321 0
M  V30 3162 H 403.523 -6.23209 0.660562 0
M  V30 3163 H 397.915 -3.58834 0.394862 0
M  V30 3164 H 399.319 -3.96059 1.43048 0
M  V30 3165 H 405.321 -5.69466 -2.79593 0
M  V30 3166 P 407.179 -8.4349 -2.47671 0
M  V30 3167 O 408.601 -8.92593 -2.65 0
M  V30 3168 O 406.819 -7.7568 -1.19296 0
M  V30 3169 O 406.856 -7.36886 -3.63805 0
M  V30 3170 C 406.696 -7.95349 -4.982 0
M  V30 3171 C 407.236 -6.94612 -5.98974 0
M  V30 3172 O 406.18 -6.10347 -6.11815 0
M  V30 3173 C 408.454 -6.11426 -5.62335 0
M  V30 3174 O 409.192 -5.6162 -6.70584 0
M  V30 3175 C 407.785 -5.04409 -4.73308 0
M  V30 3176 O 408.584 -3.85992 -4.75183 0
M  V30 3177 C 406.448 -4.8728 -5.41006 0
M  V30 3178 H 406.48 -4.02333 -6.11157 0
M  V30 3179 H 407.663 -5.39466 -3.69543 0
M  V30 3180 H 409.147 -6.71916 -5.01943 0
M  V30 3181 H 407.453 -7.4649 -6.93477 0
M  V30 3182 H 407.263 -8.89416 -5.05237 0
M  V30 3183 H 405.633 -8.14876 -5.18409 0
M  V30 3184 H 408.272 -3.27957 -5.4317 0
M  V30 3185 P 410.129 -5.75688 -6.64379 0
M  V30 3186 O 411.551 -6.07627 -7.05504 0
M  V30 3187 O 409.769 -5.88047 -5.19722 0
M  V30 3188 O 409.806 -4.2322 -7.04443 0
M  V30 3189 C 409.646 -3.99743 -8.4911 0
M  V30 3190 C 410.186 -2.60516 -8.79425 0
M  V30 3191 O 409.13 -1.82684 -8.4467 0
M  V30 3192 C 411.404 -2.10343 -8.03628 0
M  V30 3193 O 412.142 -1.09919 -8.67766 0
M  V30 3194 C 410.735 -1.68446 -6.70876 0
M  V30 3195 O 411.534 -0.678137 -6.08433 0
M  V30 3196 C 409.398 -1.17436 -7.18567 0
M  V30 3197 H 409.43 -0.0804732 -7.31656 0
M  V30 3198 H 410.613 -2.54037 -6.02537 0
M  V30 3199 H 412.097 -2.93881 -7.85526 0
M  V30 3200 H 410.403 -2.53065 -9.86973 0
M  V30 3201 H 410.213 -4.75072 -9.05887 0
M  V30 3202 H 408.583 -4.05244 -8.76668 0
M  V30 3203 H 411.222 0.177647 -6.34251 0
M  V30 3204 P 413.08 -1.25109 -8.70152 0
M  V30 3205 O 414.502 -1.29772 -9.22214 0
M  V30 3206 O 412.72 -2.13714 -7.55141 0
M  V30 3207 O 412.757 0.248149 -8.21425 0
M  V30 3208 C 412.597 1.22779 -9.30434 0
M  V30 3209 C 413.137 2.56265 -8.80568 0
M  V30 3210 O 412.082 3.02979 -8.09349 0
M  V30 3211 C 414.355 2.57523 -7.89775 0
M  V30 3212 O 415.093 3.7668 -7.89438 0
M  V30 3213 C 413.687 2.20997 -6.55446 0
M  V30 3214 O 414.485 2.71851 -5.48419 0
M  V30 3215 C 412.349 2.89693 -6.67988 0
M  V30 3216 N 411.306 2.08895 -6.07487 0
M  V30 3217 C 411.368 0.760559 -6.14209 0
M  V30 3218 N 410.323 0.200108 -5.52538 0
M  V30 3219 C 409.589 1.22692 -5.09742 0
M  V30 3220 C 408.283 1.24782 -4.48775 0
M  V30 3221 O 407.55 0.290617 -4.19294 0
M  V30 3222 N 407.853 2.50468 -4.22428 0
M  V30 3223 C 408.602 3.67142 -4.51974 0
M  V30 3224 N 408.005 4.85096 -4.14091 0
M  V30 3225 N 409.755 3.67821 -5.12831 0
M  V30 3226 C 410.212 2.43698 -5.4105 0
M  V30 3227 H 412.381 3.88793 -6.19859 0
M  V30 3228 H 413.564 1.12029 -6.4413 0
M  V30 3229 H 415.049 1.78279 -8.19533 0
M  V30 3230 H 413.354 3.20706 -9.67112 0
M  V30 3231 H 413.164 0.901032 -10.1892 0
M  V30 3232 H 411.533 1.33049 -9.56592 0
M  V30 3233 H 406.957 2.61953 -3.79465 0
M  V30 3234 H 412.164 0.200439 -6.63497 0
M  V30 3235 H 407.094 4.8334 -3.66367 0
M  V30 3236 H 408.47 5.7474 -4.33841 0
M  V30 3237 H 414.174 3.5779 -5.23879 0
M  V30 3238 P 416.03 3.65191 -7.99657 0
M  V30 3239 O 417.452 3.89332 -8.45794 0
M  V30 3240 O 415.67 2.28472 -7.50807 0
M  V30 3241 O 415.707 4.64972 -6.77611 0
M  V30 3242 C 415.547 6.06319 -7.16352 0
M  V30 3243 C 416.087 6.91731 -6.02299 0
M  V30 3244 O 415.031 6.92449 -5.17064 0
M  V30 3245 C 417.305 6.43627 -5.25174 0
M  V30 3246 O 418.043 7.43686 -4.60469 0
M  V30 3247 C 416.636 5.40275 -4.31916 0
M  V30 3248 O 417.435 5.25279 -3.14438 0
M  V30 3249 C 415.299 6.04847 -4.05327 0
M  V30 3250 H 415.331 6.62195 -3.11261 0
M  V30 3251 H 416.514 4.42556 -4.81383 0
M  V30 3252 H 417.998 5.92458 -5.93643 0
M  V30 3253 H 416.304 7.92655 -6.402 0
M  V30 3254 H 416.114 6.26671 -8.0846 0
M  V30 3255 H 414.484 6.29101 -7.32804 0
M  V30 3256 H 417.123 5.84315 -2.47318 0
M  V30 3257 P 418.981 7.39546 -4.75277 0
M  V30 3258 O 420.403 7.84798 -5.01039 0
M  V30 3259 O 418.621 5.9812 -5.08098 0
M  V30 3260 O 418.658 7.57503 -3.1866 0
M  V30 3261 C 418.498 8.97357 -2.74833 0
M  V30 3262 C 419.038 9.07548 -1.32709 0
M  V30 3263 O 417.982 8.62072 -0.606159 0
M  V30 3264 C 420.256 8.25383 -0.938334 0
M  V30 3265 O 420.994 8.74577 0.146954 0
M  V30 3266 C 419.587 6.8802 -0.712559 0
M  V30 3267 O 420.386 6.1189 0.194655 0
M  V30 3268 C 418.25 7.27966 -0.139777 0
M  V30 3269 H 418.282 7.25354 0.961601 0
M  V30 3270 H 419.465 6.32557 -1.65702 0
M  V30 3271 H 420.949 8.19355 -1.79097 0
M  V30 3272 H 419.255 10.1294 -1.10029 0
M  V30 3273 H 419.065 9.64276 -3.41316 0
M  V30 3274 H 417.435 9.25417 -2.76357 0
M  V30 3275 H 420.074 6.25267 1.07847 0
M  V30 3276 P 421.932 8.791 2.28317e-12 0
M  V30 3277 O 423.354 9.31096 0.027933 0
M  V30 3278 O 421.572 7.77869 -1.04071 0
M  V30 3279 O 421.609 8.09533 1.41463 0
M  V30 3280 C 421.449 9.0349 2.53943 0
M  V30 3281 C 421.989 8.35226 3.79016 0
M  V30 3282 O 420.933 7.57992 4.15078 0
M  V30 3283 C 423.207 7.45087 3.67298 0
M  V30 3284 O 423.945 7.27796 4.85194 0
M  V30 3285 C 422.538 6.17323 3.12027 0
M  V30 3286 O 423.337 5.04231 3.47188 0
M  V30 3287 C 421.201 6.19961 3.81809 0
M  V30 3288 H 421.233 5.58218 4.73051 0
M  V30 3289 H 422.416 6.21726 2.02589 0
M  V30 3290 H 423.9 7.86112 2.9231 0
M  V30 3291 H 422.206 9.11627 4.55076 0
M  V30 3292 H 422.016 9.9573 2.34194 0
M  V30 3293 H 420.386 9.2792 2.67832 0
M  V30 3294 H 423.025 4.67702 4.28772 0
M  V30 3295 P 424.882 7.39546 4.75277 0
M  V30 3296 O 426.304 7.81777 5.05738 0
M  V30 3297 O 424.522 7.1065 3.32998 0
M  V30 3298 O 424.559 6.04542 5.56673 0
M  V30 3299 C 424.399 6.22772 7.02095 0
M  V30 3300 C 424.939 4.97725 7.70406 0
M  V30 3301 O 423.883 4.13256 7.58987 0
M  V30 3302 C 426.157 4.28231 7.11815 0
M  V30 3303 O 426.895 3.49945 8.01648 0
M  V30 3304 C 425.488 3.5063 5.96244 0
M  V30 3305 O 426.287 2.36482 5.64681 0
M  V30 3306 C 424.151 3.15122 6.56374 0
M  V30 3307 H 424.183 2.13853 6.99751 0
M  V30 3308 H 425.366 4.13501 5.06559 0
M  V30 3309 H 426.85 5.03285 6.70911 0
M  V30 3310 H 425.156 5.20877 8.75697 0
M  V30 3311 H 424.966 7.11046 7.35349 0
M  V30 3312 H 423.336 6.35815 7.26986 0
M  V30 3313 H 425.975 1.61644 6.13565 0
M  V30 3314 P 427.833 3.65191 7.99657 0
M  V30 3315 O 429.255 3.8425 8.48115 0
M  V30 3316 O 427.473 4.17805 6.64342 0
M  V30 3317 O 427.51 2.07613 7.95143 0
M  V30 3318 C 427.35 1.44328 9.27336 0
M  V30 3319 C 427.89 0.0220036 9.17197 0
M  V30 3320 O 426.834 -0.626867 8.61923 0
M  V30 3321 C 429.108 -0.24586 8.30336 0
M  V30 3322 O 429.846 -1.39011 8.63583 0
M  V30 3323 C 428.439 -0.273849 6.91158 0
M  V30 3324 O 429.238 -1.06348 6.02892 0
M  V30 3325 C 427.102 -0.897649 7.22545 0
M  V30 3326 H 427.134 -1.9841 7.04286 0
M  V30 3327 H 428.317 0.739928 6.497 0
M  V30 3328 H 429.801 0.60668 8.36503 0
M  V30 3329 H 428.107 -0.352479 10.1829 0
M  V30 3330 H 427.917 2.00611 10.0304 0
M  V30 3331 H 426.287 1.41843 9.55327 0
M  V30 3332 H 428.926 -1.95734 6.03555 0
M  V30 3333 P 430.783 -1.25109 8.70152 0
M  V30 3334 O 432.204 -1.35288 9.2132 0
M  V30 3335 O 430.423 -0.0769065 7.84762 0
M  V30 3336 O 430.46 -2.55232 7.81161 0
M  V30 3337 C 430.299 -3.79979 8.58246 0
M  V30 3338 C 430.84 -4.94023 7.72785 0
M  V30 3339 O 429.785 -5.18666 6.91125 0
M  V30 3340 C 432.058 -4.69597 6.85231 0
M  V30 3341 O 432.796 -5.83832 6.51337 0
M  V30 3342 C 431.39 -3.96706 5.66633 0
M  V30 3343 O 432.188 -4.14896 4.5003 0
M  V30 3344 C 430.052 -4.66153 5.59313 0
M  V30 3345 N 429.009 -3.71582 5.24027 0
M  V30 3346 C 429.178 -2.39715 5.48833 0
M  V30 3347 N 428.151 -1.65863 5.12845 0
M  V30 3348 C 427.266 -2.57637 4.5973 0
M  V30 3349 C 425.999 -2.40278 4.01027 0
M  V30 3350 N 425.434 -3.57711 3.59575 0
M  V30 3351 C 426.036 -4.80324 3.70476 0
M  V30 3352 N 427.213 -5.01121 4.23801 0
M  V30 3353 C 427.788 -3.84757 4.66372 0
M  V30 3354 H 431.267 -2.8955 5.86187 0
M  V30 3355 H 432.75 -4.0121 7.36511 0
M  V30 3356 H 431.056 -5.81019 8.37003 0
M  V30 3357 H 430.866 -3.73517 9.52265 0
M  V30 3358 H 429.236 -3.97163 8.80359 0
M  V30 3359 H 430.078 -1.98804 5.94332 0
M  V30 3360 H 431.876 -4.90891 4.01857 0
M  V30 3361 P 433.734 -5.75688 6.64379 0
M  V30 3362 O 435.156 -6.11849 7.01846 0
M  V30 3363 O 433.374 -4.30744 6.56026 0
M  V30 3364 O 433.411 -6.37042 5.19165 0
M  V30 3365 C 433.251 -7.83578 5.16515 0
M  V30 3366 C 433.791 -8.33398 3.83019 0
M  V30 3367 O 432.735 -8.10074 3.01034 0
M  V30 3368 C 435.009 -7.65514 3.2257 0
M  V30 3369 O 435.747 -8.4329 2.32297 0
M  V30 3370 C 434.34 -6.40075 2.62207 0
M  V30 3371 O 435.139 -5.92589 1.53712 0
M  V30 3372 C 433.003 -6.9454 2.18503 0
M  V30 3373 H 433.035 -7.23063 1.12091 0
M  V30 3374 H 434.218 -5.6025 3.37201 0
M  V30 3375 H 435.702 -7.35707 4.02681 0
M  V30 3376 H 434.008 -9.40912 3.9095 0
M  V30 3377 H 433.818 -8.29056 5.99158 0
M  V30 3378 H 432.188 -8.10073 5.25882 0
M  V30 3379 H 434.827 -6.30324 0.726794 0
M  V30 3380 P 436.684 -8.4349 2.47671 0
M  V30 3381 O 438.106 -8.94167 2.5964 0
M  V30 3382 O 436.324 -7.1704 3.19006 0
M  V30 3383 O 436.361 -8.16596 0.923387 0
M  V30 3384 C 436.201 -9.38437 0.108857 0
M  V30 3385 C 436.741 -9.08175 -1.28353 0
M  V30 3386 O 435.685 -8.44229 -1.84713 0
M  V30 3387 C 437.959 -8.18386 -1.42505 0
M  V30 3388 O 438.697 -8.3501 -2.60497 0
M  V30 3389 C 437.29 -6.80225 -1.25468 0
M  V30 3390 O 438.089 -5.81621 -1.91066 0
M  V30 3391 C 435.953 -7.02416 -1.9168 0
M  V30 3392 H 435.985 -6.6888 -2.96621 0
M  V30 3393 H 437.168 -6.53617 -0.192223 0
M  V30 3394 H 438.652 -8.36622 -0.589963 0
M  V30 3395 H 436.958 -10.0291 -1.79807 0
M  V30 3396 H 436.768 -10.2138 0.558219 0
M  V30 3397 H 435.138 -9.6579 0.0444202 0
M  V30 3398 H 437.777 -5.69556 -2.79637 0
M  V30 3399 P 439.635 -8.4349 -2.47671 0
M  V30 3400 O 441.057 -8.92593 -2.65 0
M  V30 3401 O 439.275 -7.7568 -1.19296 0
M  V30 3402 O 439.312 -7.36886 -3.63805 0
M  V30 3403 C 439.152 -7.95349 -4.982 0
M  V30 3404 C 439.692 -6.94612 -5.98974 0
M  V30 3405 O 438.636 -6.10347 -6.11815 0
M  V30 3406 C 440.91 -6.11426 -5.62335 0
M  V30 3407 O 441.648 -5.6162 -6.70584 0
M  V30 3408 C 440.241 -5.04409 -4.73308 0
M  V30 3409 O 441.04 -3.85992 -4.75183 0
M  V30 3410 C 438.904 -4.8728 -5.41006 0
M  V30 3411 H 438.936 -4.02333 -6.11157 0
M  V30 3412 H 440.119 -5.39466 -3.69543 0
M  V30 3413 H 441.603 -6.71916 -5.01943 0
M  V30 3414 H 439.909 -7.4649 -6.93477 0
M  V30 3415 H 439.719 -8.89416 -5.05237 0
M  V30 3416 H 438.089 -8.14876 -5.18409 0
M  V30 3417 H 440.728 -3.27957 -5.4317 0
M  V30 3418 P 442.586 -5.75688 -6.64379 0
M  V30 3419 O 444.008 -6.07627 -7.05504 0
M  V30 3420 O 442.226 -5.88047 -5.19722 0
M  V30 3421 O 442.263 -4.2322 -7.04443 0
M  V30 3422 C 442.103 -3.99743 -8.4911 0
M  V30 3423 C 442.643 -2.60516 -8.79425 0
M  V30 3424 O 441.587 -1.82684 -8.4467 0
M  V30 3425 C 443.861 -2.10343 -8.03628 0
M  V30 3426 O 444.599 -1.09919 -8.67766 0
M  V30 3427 C 443.192 -1.68446 -6.70876 0
M  V30 3428 O 443.991 -0.678137 -6.08433 0
M  V30 3429 C 441.855 -1.17436 -7.18567 0
M  V30 3430 H 441.887 -0.0804732 -7.31656 0
M  V30 3431 H 443.07 -2.54037 -6.02537 0
M  V30 3432 H 444.554 -2.93881 -7.85526 0
M  V30 3433 H 442.86 -2.53065 -9.86973 0
M  V30 3434 H 442.67 -4.75072 -9.05887 0
M  V30 3435 H 441.04 -4.05244 -8.76668 0
M  V30 3436 H 443.679 0.177647 -6.34251 0
M  V30 3437 P 445.536 -1.25109 -8.70152 0
M  V30 3438 O 446.958 -1.29744 -9.22016 0
M  V30 3439 O 445.176 -2.13714 -7.55141 0
M  V30 3440 O 445.213 0.248149 -8.21425 0
M  V30 3441 C 445.053 1.22779 -9.30434 0
M  V30 3442 C 445.593 2.56293 -8.80664 0
M  V30 3443 O 444.537 3.02979 -8.09349 0
M  V30 3444 C 446.811 2.57523 -7.89775 0
M  V30 3445 O 447.549 3.7668 -7.89438 0
M  V30 3446 C 446.142 2.20997 -6.55446 0
M  V30 3447 O 446.941 2.71895 -5.48509 0
M  V30 3448 C 444.805 2.89693 -6.67988 0
M  V30 3449 H 444.837 3.88793 -6.19859 0
M  V30 3450 H 446.02 1.12046 -6.44229 0
M  V30 3451 H 447.504 1.7746 -8.19711 0
M  V30 3452 H 445.81 3.20706 -9.67112 0
M  V30 3453 H 445.62 0.901032 -10.1892 0
M  V30 3454 H 443.99 1.33049 -9.56592 0
M  V30 3455 H 446.629 3.57847 -5.23962 0
M  V30 3456 P 448.487 3.65191 -7.99657 0
M  V30 3457 O 449.909 3.89332 -8.45794 0
M  V30 3458 O 448.127 2.28472 -7.50807 0
M  V30 3459 O 448.164 4.64972 -6.77611 0
M  V30 3460 C 448.004 6.06319 -7.16352 0
M  V30 3461 C 448.544 6.91731 -6.02299 0
M  V30 3462 O 447.488 6.92449 -5.17064 0
M  V30 3463 C 449.762 6.43627 -5.25174 0
M  V30 3464 O 450.5 7.43686 -4.60469 0
M  V30 3465 C 449.093 5.40275 -4.31916 0
M  V30 3466 O 449.892 5.25279 -3.14438 0
M  V30 3467 C 447.756 6.04847 -4.05327 0
M  V30 3468 H 447.788 6.62195 -3.11261 0
M  V30 3469 H 448.971 4.42556 -4.81383 0
M  V30 3470 H 450.455 5.92458 -5.93643 0
M  V30 3471 H 448.761 7.92655 -6.402 0
M  V30 3472 H 448.571 6.26671 -8.0846 0
M  V30 3473 H 446.941 6.29101 -7.32804 0
M  V30 3474 H 449.58 5.84315 -2.47318 0
M  V30 3475 P 451.437 7.39546 -4.75277 0
M  V30 3476 O 452.859 7.84798 -5.01039 0
M  V30 3477 O 451.077 5.9812 -5.08098 0
M  V30 3478 O 451.114 7.57503 -3.1866 0
M  V30 3479 C 450.954 8.97357 -2.74833 0
M  V30 3480 C 451.494 9.07548 -1.32709 0
M  V30 3481 O 450.438 8.62072 -0.606159 0
M  V30 3482 C 452.712 8.25383 -0.938334 0
M  V30 3483 O 453.45 8.74577 0.146954 0
M  V30 3484 C 452.043 6.8802 -0.712559 0
M  V30 3485 O 452.842 6.1189 0.194655 0
M  V30 3486 C 450.706 7.27966 -0.139777 0
M  V30 3487 H 450.738 7.25354 0.961601 0
M  V30 3488 H 451.921 6.32557 -1.65702 0
M  V30 3489 H 453.405 8.19355 -1.79097 0
M  V30 3490 H 451.711 10.1294 -1.10029 0
M  V30 3491 H 451.521 9.64276 -3.41316 0
M  V30 3492 H 449.891 9.25417 -2.76357 0
M  V30 3493 H 452.53 6.25267 1.07847 0
M  V30 3494 P 454.388 8.791 2.59334e-12 0
M  V30 3495 O 455.81 9.31096 0.027933 0
M  V30 3496 O 454.028 7.77869 -1.04071 0
M  V30 3497 O 454.065 8.09533 1.41463 0
M  V30 3498 C 453.905 9.0349 2.53943 0
M  V30 3499 C 454.445 8.35226 3.79016 0
M  V30 3500 O 453.389 7.57992 4.15078 0
M  V30 3501 C 455.663 7.45087 3.67298 0
M  V30 3502 O 456.401 7.27796 4.85194 0
M  V30 3503 C 454.994 6.17323 3.12027 0
M  V30 3504 O 455.793 5.04231 3.47188 0
M  V30 3505 C 453.657 6.19961 3.81809 0
M  V30 3506 H 453.689 5.58218 4.73051 0
M  V30 3507 H 454.872 6.21726 2.02589 0
M  V30 3508 H 456.356 7.86112 2.9231 0
M  V30 3509 H 454.662 9.11627 4.55076 0
M  V30 3510 H 454.472 9.9573 2.34194 0
M  V30 3511 H 452.842 9.2792 2.67832 0
M  V30 3512 H 455.481 4.67702 4.28772 0
M  V30 3513 P 457.338 7.39546 4.75277 0
M  V30 3514 O 458.759 7.81861 5.05793 0
M  V30 3515 O 456.978 7.1065 3.32998 0
M  V30 3516 O 457.015 6.04542 5.56673 0
M  V30 3517 C 456.854 6.22839 7.02169 0
M  V30 3518 C 457.395 4.97725 7.70406 0
M  V30 3519 O 456.34 4.13208 7.58899 0
M  V30 3520 C 458.613 4.28231 7.11815 0
M  V30 3521 O 459.351 3.49945 8.01648 0
M  V30 3522 C 457.945 3.5063 5.96244 0
M  V30 3523 O 458.743 2.37008 5.64352 0
M  V30 3524 C 456.607 3.15122 6.56374 0
M  V30 3525 N 455.564 3.22311 5.55692 0
M  V30 3526 C 455.733 3.99655 4.46046 0
M  V30 3527 N 454.706 3.97599 3.63918 0
M  V30 3528 C 453.821 3.11159 4.25334 0
M  V30 3529 C 452.554 2.64972 3.85157 0
M  V30 3530 N 451.955 3.02132 2.69405 0
M  V30 3531 N 451.989 1.78482 4.74759 0
M  V30 3532 C 452.591 1.37463 5.90819 0
M  V30 3533 N 453.768 1.7733 6.31889 0
M  V30 3534 C 454.343 2.64393 5.43725 0
M  V30 3535 H 456.639 2.13823 6.99656 0
M  V30 3536 H 457.822 4.12931 5.06895 0
M  V30 3537 H 459.305 5.03285 6.70911 0
M  V30 3538 H 457.611 5.20001 8.76217 0
M  V30 3539 H 457.421 7.11046 7.35349 0
M  V30 3540 H 455.791 6.35815 7.26986 0
M  V30 3541 H 452.055 0.66574 6.53015 0
M  V30 3542 H 456.633 4.58037 4.27732 0
M  V30 3543 H 451.025 2.64828 2.45331 0
M  V30 3544 H 452.429 3.67472 2.05644 0
M  V30 3545 H 458.431 1.61619 6.13468 0
M  V30 3546 P 460.289 3.65191 7.99657 0
M  V30 3547 O 461.71 3.84292 8.48206 0
M  V30 3548 O 459.929 4.17805 6.64342 0
M  V30 3549 O 459.966 2.07613 7.95143 0
M  V30 3550 C 459.805 1.44344 9.27435 0
M  V30 3551 C 460.346 0.0220036 9.17197 0
M  V30 3552 O 459.291 -0.626794 8.61824 0
M  V30 3553 C 461.564 -0.24586 8.30336 0
M  V30 3554 O 462.302 -1.39011 8.63583 0
M  V30 3555 C 460.896 -0.273849 6.91158 0
M  V30 3556 O 461.694 -1.05728 6.029 0
M  V30 3557 C 459.558 -0.897649 7.22545 0
M  V30 3558 N 458.515 -0.292839 6.41732 0
M  V30 3559 C 458.684 0.950603 5.91308 0
M  V30 3560 N 457.657 1.37732 5.21105 0
M  V30 3561 C 456.772 0.318109 5.26039 0
M  V30 3562 C 455.505 0.146766 4.6727 0
M  V30 3563 N 454.906 1.08519 3.89983 0
M  V30 3564 N 454.94 -1.06525 4.95887 0
M  V30 3565 C 455.542 -2.0378 5.71347 0
M  V30 3566 N 456.719 -1.92445 6.27451 0
M  V30 3567 C 457.294 -0.715382 6.00353 0
M  V30 3568 H 459.59 -1.98383 7.04189 0
M  V30 3569 H 460.773 0.733318 6.49674 0
M  V30 3570 H 462.256 0.60668 8.36503 0
M  V30 3571 H 460.562 -0.362662 10.1825 0
M  V30 3572 H 460.372 2.00611 10.0304 0
M  V30 3573 H 458.742 1.41843 9.55327 0
M  V30 3574 H 455.006 -2.97041 5.85344 0
M  V30 3575 H 459.584 1.54076 6.07465 0
M  V30 3576 H 453.976 0.901517 3.49562 0
M  V30 3577 H 455.38 1.97957 3.71669 0
M  V30 3578 H 461.382 -1.95704 6.0346 0
M  V30 3579 P 463.239 -1.25109 8.70152 0
M  V30 3580 O 464.66 -1.35288 9.2132 0
M  V30 3581 O 462.879 -0.0769065 7.84762 0
M  V30 3582 O 462.916 -2.55232 7.81161 0
M  V30 3583 C 462.755 -3.79979 8.58246 0
M  V30 3584 C 463.296 -4.94023 7.72785 0
M  V30 3585 O 462.241 -5.18666 6.91125 0
M  V30 3586 C 464.514 -4.69597 6.85231 0
M  V30 3587 O 465.252 -5.83832 6.51337 0
M  V30 3588 C 463.846 -3.96706 5.66633 0
M  V30 3589 O 464.644 -4.14896 4.5003 0
M  V30 3590 C 462.508 -4.66153 5.59313 0
M  V30 3591 N 461.465 -3.71582 5.24027 0
M  V30 3592 C 461.634 -2.39715 5.48833 0
M  V30 3593 N 460.607 -1.65863 5.12845 0
M  V30 3594 C 459.722 -2.57637 4.5973 0
M  V30 3595 C 458.455 -2.40278 4.01027 0
M  V30 3596 N 457.856 -1.19549 3.86744 0
M  V30 3597 N 457.89 -3.57711 3.59575 0
M  V30 3598 C 458.492 -4.80324 3.70476 0
M  V30 3599 N 459.669 -5.01121 4.23801 0
M  V30 3600 C 460.244 -3.84757 4.66372 0
M  V30 3601 H 462.54 -5.47604 4.85148 0
M  V30 3602 H 463.723 -2.8955 5.86187 0
M  V30 3603 H 465.206 -4.0121 7.36511 0
M  V30 3604 H 463.512 -5.81019 8.37003 0
M  V30 3605 H 463.322 -3.73517 9.52265 0
M  V30 3606 H 461.692 -3.97163 8.80359 0
M  V30 3607 H 457.956 -5.66348 3.3183 0
M  V30 3608 H 462.534 -1.98804 5.94332 0
M  V30 3609 H 456.926 -1.13147 3.4281 0
M  V30 3610 H 458.33 -0.344074 4.19692 0
M  V30 3611 H 464.332 -4.90891 4.01857 0
M  V30 3612 P 466.19 -5.75688 6.64379 0
M  V30 3613 O 467.611 -6.11915 7.01921 0
M  V30 3614 O 465.83 -4.30744 6.56026 0
M  V30 3615 O 465.867 -6.37042 5.19165 0
M  V30 3616 C 465.706 -7.83662 5.1657 0
M  V30 3617 C 466.247 -8.33398 3.83019 0
M  V30 3618 O 465.192 -8.0998 3.00999 0
M  V30 3619 C 467.465 -7.65514 3.2257 0
M  V30 3620 O 468.203 -8.4329 2.32297 0
M  V30 3621 C 466.797 -6.40075 2.62207 0
M  V30 3622 O 467.595 -5.92338 1.5428 0
M  V30 3623 C 465.459 -6.9454 2.18503 0
M  V30 3624 N 464.416 -5.95905 2.39948 0
M  V30 3625 C 464.585 -4.98383 3.32108 0
M  V30 3626 N 463.558 -4.16798 3.41761 0
M  V30 3627 C 462.673 -4.65287 2.47461 0
M  V30 3628 C 461.406 -4.18946 2.07461 0
M  V30 3629 N 460.841 -4.95327 1.09101 0
M  V30 3630 C 461.443 -6.04369 0.519812 0
M  V30 3631 N 462.62 -6.50694 0.855982 0
M  V30 3632 C 463.195 -5.75818 1.84322 0
M  V30 3633 H 466.674 -5.60502 3.36589 0
M  V30 3634 H 468.157 -7.35707 4.02681 0
M  V30 3635 H 466.463 -9.41302 3.90009 0
M  V30 3636 H 466.273 -8.29056 5.99158 0
M  V30 3637 H 464.643 -8.10073 5.25882 0
M  V30 3638 H 465.485 -4.88564 3.92502 0
M  V30 3639 H 467.283 -6.30224 0.72668 0
M  V30 3640 P 469.141 -8.4349 2.47671 0
M  V30 3641 O 470.563 -8.94167 2.5964 0
M  V30 3642 O 468.781 -7.1704 3.19006 0
M  V30 3643 O 468.818 -8.16596 0.923387 0
M  V30 3644 C 468.658 -9.38437 0.108857 0
M  V30 3645 C 469.198 -9.08175 -1.28353 0
M  V30 3646 O 468.142 -8.44229 -1.84713 0
M  V30 3647 C 470.416 -8.18386 -1.42505 0
M  V30 3648 O 471.154 -8.3501 -2.60497 0
M  V30 3649 C 469.747 -6.80225 -1.25468 0
M  V30 3650 O 470.546 -5.81621 -1.91066 0
M  V30 3651 C 468.41 -7.02416 -1.9168 0
M  V30 3652 H 468.442 -6.6888 -2.96621 0
M  V30 3653 H 469.625 -6.53617 -0.192223 0
M  V30 3654 H 471.109 -8.36622 -0.589963 0
M  V30 3655 H 469.415 -10.0291 -1.79807 0
M  V30 3656 H 469.225 -10.2138 0.558219 0
M  V30 3657 H 467.595 -9.6579 0.0444202 0
M  V30 3658 H 470.234 -5.69556 -2.79637 0
M  V30 3659 P 472.091 -8.4349 -2.47671 0
M  V30 3660 O 473.513 -8.92593 -2.65 0
M  V30 3661 O 471.731 -7.7568 -1.19296 0
M  V30 3662 O 471.768 -7.36886 -3.63805 0
M  V30 3663 C 471.608 -7.95349 -4.982 0
M  V30 3664 C 472.148 -6.94612 -5.98974 0
M  V30 3665 O 471.092 -6.10347 -6.11815 0
M  V30 3666 C 473.366 -6.11426 -5.62335 0
M  V30 3667 O 474.104 -5.6162 -6.70584 0
M  V30 3668 C 472.697 -5.04409 -4.73308 0
M  V30 3669 O 473.496 -3.85992 -4.75183 0
M  V30 3670 C 471.36 -4.8728 -5.41006 0
M  V30 3671 H 471.392 -4.02333 -6.11157 0
M  V30 3672 H 472.575 -5.39466 -3.69543 0
M  V30 3673 H 474.059 -6.71916 -5.01943 0
M  V30 3674 H 472.365 -7.4649 -6.93477 0
M  V30 3675 H 472.175 -8.89416 -5.05237 0
M  V30 3676 H 470.545 -8.14876 -5.18409 0
M  V30 3677 H 473.184 -3.27957 -5.4317 0
M  V30 3678 P 475.042 -5.75688 -6.64379 0
M  V30 3679 O 476.464 -6.07627 -7.05504 0
M  V30 3680 O 474.682 -5.88047 -5.19722 0
M  V30 3681 O 474.719 -4.2322 -7.04443 0
M  V30 3682 C 474.559 -3.99743 -8.4911 0
M  V30 3683 C 475.099 -2.60516 -8.79425 0
M  V30 3684 O 474.043 -1.82684 -8.4467 0
M  V30 3685 C 476.317 -2.10343 -8.03628 0
M  V30 3686 O 477.055 -1.09919 -8.67766 0
M  V30 3687 C 475.648 -1.68446 -6.70876 0
M  V30 3688 O 476.447 -0.678137 -6.08433 0
M  V30 3689 C 474.311 -1.17436 -7.18567 0
M  V30 3690 H 474.343 -0.0804732 -7.31656 0
M  V30 3691 H 475.526 -2.54037 -6.02537 0
M  V30 3692 H 477.01 -2.93881 -7.85526 0
M  V30 3693 H 475.316 -2.53065 -9.86973 0
M  V30 3694 H 475.126 -4.75072 -9.05887 0
M  V30 3695 H 473.496 -4.05244 -8.76668 0
M  V30 3696 H 476.135 0.177647 -6.34251 0
M  V30 3697 P 477.992 -1.25109 -8.70152 0
M  V30 3698 O 479.414 -1.29744 -9.22016 0
M  V30 3699 O 477.632 -2.13714 -7.55141 0
M  V30 3700 O 477.669 0.248149 -8.21425 0
M  V30 3701 C 477.509 1.22779 -9.30434 0
M  V30 3702 C 478.049 2.56293 -8.80664 0
M  V30 3703 O 476.993 3.02979 -8.09349 0
M  V30 3704 C 479.267 2.57523 -7.89775 0
M  V30 3705 O 480.005 3.7668 -7.89438 0
M  V30 3706 C 478.598 2.20997 -6.55446 0
M  V30 3707 O 479.397 2.71895 -5.48509 0
M  V30 3708 C 477.261 2.89693 -6.67988 0
M  V30 3709 H 477.293 3.88793 -6.19859 0
M  V30 3710 H 478.476 1.12046 -6.44229 0
M  V30 3711 H 479.96 1.7746 -8.19711 0
M  V30 3712 H 478.266 3.20706 -9.67112 0
M  V30 3713 H 478.076 0.901032 -10.1892 0
M  V30 3714 H 476.446 1.33049 -9.56592 0
M  V30 3715 H 479.085 3.57847 -5.23962 0
M  V30 3716 P 480.943 3.65191 -7.99657 0
M  V30 3717 O 482.365 3.89332 -8.45794 0
M  V30 3718 O 480.583 2.28472 -7.50807 0
M  V30 3719 O 480.62 4.64972 -6.77611 0
M  V30 3720 C 480.46 6.06319 -7.16352 0
M  V30 3721 C 481 6.91731 -6.02299 0
M  V30 3722 O 479.944 6.92449 -5.17064 0
M  V30 3723 C 482.218 6.43627 -5.25174 0
M  V30 3724 O 482.956 7.43686 -4.60469 0
M  V30 3725 C 481.549 5.40275 -4.31916 0
M  V30 3726 O 482.348 5.25279 -3.14438 0
M  V30 3727 C 480.212 6.04847 -4.05327 0
M  V30 3728 H 480.244 6.62195 -3.11261 0
M  V30 3729 H 481.427 4.42556 -4.81383 0
M  V30 3730 H 482.911 5.92458 -5.93643 0
M  V30 3731 H 481.217 7.92655 -6.402 0
M  V30 3732 H 481.027 6.26671 -8.0846 0
M  V30 3733 H 479.397 6.29101 -7.32804 0
M  V30 3734 H 482.036 5.84315 -2.47318 0
M  V30 3735 P 483.893 7.39546 -4.75277 0
M  V30 3736 O 485.315 7.84798 -5.01039 0
M  V30 3737 O 483.533 5.9812 -5.08098 0
M  V30 3738 O 483.57 7.57503 -3.1866 0
M  V30 3739 C 483.41 8.97357 -2.74833 0
M  V30 3740 C 483.95 9.07548 -1.32709 0
M  V30 3741 O 482.894 8.62072 -0.606159 0
M  V30 3742 C 485.168 8.25383 -0.938334 0
M  V30 3743 O 485.906 8.74577 0.146954 0
M  V30 3744 C 484.499 6.8802 -0.712559 0
M  V30 3745 O 485.298 6.1189 0.194655 0
M  V30 3746 C 483.162 7.27966 -0.139777 0
M  V30 3747 H 483.194 7.25354 0.961601 0
M  V30 3748 H 484.377 6.32557 -1.65702 0
M  V30 3749 H 485.861 8.19355 -1.79097 0
M  V30 3750 H 484.167 10.1294 -1.10029 0
M  V30 3751 H 483.977 9.64276 -3.41316 0
M  V30 3752 H 482.347 9.25417 -2.76357 0
M  V30 3753 H 484.986 6.25267 1.07847 0
M  V30 3754 P 486.844 8.791 2.9035e-12 0
M  V30 3755 O 488.266 9.31096 0.027933 0
M  V30 3756 O 486.484 7.77869 -1.04071 0
M  V30 3757 O 486.521 8.09533 1.41463 0
M  V30 3758 C 486.361 9.0349 2.53943 0
M  V30 3759 C 486.901 8.35226 3.79016 0
M  V30 3760 O 485.845 7.57992 4.15078 0
M  V30 3761 C 488.119 7.45087 3.67298 0
M  V30 3762 O 488.857 7.27796 4.85194 0
M  V30 3763 C 487.45 6.17323 3.12027 0
M  V30 3764 O 488.249 5.04231 3.47188 0
M  V30 3765 C 486.113 6.19961 3.81809 0
M  V30 3766 H 486.145 5.58218 4.73051 0
M  V30 3767 H 487.328 6.21726 2.02589 0
M  V30 3768 H 488.812 7.86112 2.9231 0
M  V30 3769 H 487.118 9.11627 4.55076 0
M  V30 3770 H 486.928 9.9573 2.34194 0
M  V30 3771 H 485.298 9.2792 2.67832 0
M  V30 3772 H 487.937 4.67702 4.28772 0
M  V30 3773 P 489.795 7.39546 4.75277 0
M  V30 3774 O 491.216 7.81861 5.05793 0
M  V30 3775 O 489.435 7.1065 3.32998 0
M  V30 3776 O 489.472 6.04542 5.56673 0
M  V30 3777 C 489.311 6.22839 7.02169 0
M  V30 3778 C 489.852 4.97725 7.70406 0
M  V30 3779 O 488.797 4.13208 7.58899 0
M  V30 3780 C 491.07 4.28231 7.11815 0
M  V30 3781 O 491.808 3.49945 8.01648 0
M  V30 3782 C 490.402 3.5063 5.96244 0
M  V30 3783 O 491.2 2.37008 5.64352 0
M  V30 3784 C 489.064 3.15122 6.56374 0
M  V30 3785 N 488.021 3.22311 5.55692 0
M  V30 3786 C 488.19 3.99655 4.46046 0
M  V30 3787 N 487.163 3.97599 3.63918 0
M  V30 3788 C 486.278 3.11159 4.25334 0
M  V30 3789 C 485.011 2.64972 3.85157 0
M  V30 3790 N 484.446 1.78482 4.74759 0
M  V30 3791 C 485.048 1.37463 5.90819 0
M  V30 3792 N 486.225 1.7733 6.31889 0
M  V30 3793 C 486.8 2.64393 5.43725 0
M  V30 3794 H 490.279 4.12931 5.06895 0
M  V30 3795 H 491.762 5.03285 6.70911 0
M  V30 3796 H 490.068 5.20001 8.76217 0
M  V30 3797 H 489.878 7.11046 7.35349 0
M  V30 3798 H 488.248 6.35815 7.26986 0
M  V30 3799 H 489.09 4.58037 4.27732 0
M  V30 3800 H 490.888 1.61619 6.13468 0
M  V30 3801 P 492.745 3.65191 7.99657 0
M  V30 3802 O 494.167 3.8425 8.48115 0
M  V30 3803 O 492.385 4.17805 6.64342 0
M  V30 3804 O 492.422 2.07613 7.95143 0
M  V30 3805 C 492.262 1.44328 9.27336 0
M  V30 3806 C 492.802 0.0220036 9.17197 0
M  V30 3807 O 491.746 -0.626867 8.61923 0
M  V30 3808 C 494.02 -0.24586 8.30336 0
M  V30 3809 O 494.758 -1.39011 8.63583 0
M  V30 3810 C 493.351 -0.273849 6.91158 0
M  V30 3811 O 494.15 -1.06348 6.02892 0
M  V30 3812 C 492.014 -0.897649 7.22545 0
M  V30 3813 H 492.046 -1.9841 7.04286 0
M  V30 3814 H 493.229 0.739928 6.497 0
M  V30 3815 H 494.713 0.60668 8.36503 0
M  V30 3816 H 493.019 -0.352479 10.1829 0
M  V30 3817 H 492.829 2.00611 10.0304 0
M  V30 3818 H 491.199 1.41843 9.55327 0
M  V30 3819 H 493.838 -1.95734 6.03555 0
M  V30 3820 P 495.696 -1.25109 8.70152 0
M  V30 3821 O 497.118 -1.35274 9.21221 0
M  V30 3822 O 495.336 -0.0769065 7.84762 0
M  V30 3823 O 495.373 -2.55232 7.81161 0
M  V30 3824 C 495.213 -3.79939 8.58154 0
M  V30 3825 C 495.753 -4.94023 7.72785 0
M  V30 3826 O 494.697 -5.18726 6.91205 0
M  V30 3827 C 496.971 -4.69597 6.85231 0
M  V30 3828 O 497.709 -5.83832 6.51337 0
M  V30 3829 C 496.302 -3.96706 5.66633 0
M  V30 3830 O 497.101 -4.15414 4.49689 0
M  V30 3831 C 494.965 -4.66153 5.59313 0
M  V30 3832 H 494.997 -5.47679 4.85214 0
M  V30 3833 H 496.18 -2.89008 5.86566 0
M  V30 3834 H 497.664 -4.0121 7.36511 0
M  V30 3835 H 495.97 -5.80182 8.37584 0
M  V30 3836 H 495.78 -3.73517 9.52265 0
M  V30 3837 H 494.15 -3.97163 8.80359 0
M  V30 3838 H 496.789 -4.90969 4.01921 0
M  V30 3839 P 498.646 -5.75688 6.64379 0
M  V30 3840 O 500.067 -6.11915 7.01921 0
M  V30 3841 O 498.286 -4.30744 6.56026 0
M  V30 3842 O 498.323 -6.37042 5.19165 0
M  V30 3843 C 498.162 -7.83662 5.1657 0
M  V30 3844 C 498.703 -8.33398 3.83019 0
M  V30 3845 O 497.648 -8.0998 3.00999 0
M  V30 3846 C 499.921 -7.65514 3.2257 0
M  V30 3847 O 500.659 -8.4329 2.32297 0
M  V30 3848 C 499.253 -6.40075 2.62207 0
M  V30 3849 O 500.051 -5.92338 1.5428 0
M  V30 3850 C 497.915 -6.9454 2.18503 0
M  V30 3851 N 496.872 -5.95905 2.39948 0
M  V30 3852 C 497.041 -4.98383 3.32108 0
M  V30 3853 N 496.014 -4.16798 3.41761 0
M  V30 3854 C 495.129 -4.65287 2.47461 0
M  V30 3855 C 493.862 -4.18946 2.07461 0
M  V30 3856 N 493.297 -4.95327 1.09101 0
M  V30 3857 C 493.899 -6.04369 0.519812 0
M  V30 3858 N 495.076 -6.50694 0.855982 0
M  V30 3859 C 495.651 -5.75818 1.84322 0
M  V30 3860 H 499.13 -5.60502 3.36589 0
M  V30 3861 H 500.613 -7.35707 4.02681 0
M  V30 3862 H 498.919 -9.41302 3.90009 0
M  V30 3863 H 498.729 -8.29056 5.99158 0
M  V30 3864 H 497.099 -8.10073 5.25882 0
M  V30 3865 H 497.941 -4.88564 3.92502 0
M  V30 3866 H 499.739 -6.30224 0.72668 0
M  V30 3867 P 501.597 -8.4349 2.47671 0
M  V30 3868 O 503.018 -8.94263 2.59668 0
M  V30 3869 O 501.237 -7.1704 3.19006 0
M  V30 3870 O 501.274 -8.16596 0.923387 0
M  V30 3871 C 501.113 -9.38537 0.108869 0
M  V30 3872 C 501.654 -9.08175 -1.28353 0
M  V30 3873 O 500.599 -8.44131 -1.84692 0
M  V30 3874 C 502.872 -8.18386 -1.42505 0
M  V30 3875 O 503.61 -8.3501 -2.60497 0
M  V30 3876 C 502.204 -6.80225 -1.25468 0
M  V30 3877 O 503.002 -5.81716 -1.90454 0
M  V30 3878 C 500.866 -7.02416 -1.9168 0
M  V30 3879 N 499.823 -6.31033 -1.20314 0
M  V30 3880 C 499.992 -5.98817 0.0994088 0
M  V30 3881 N 498.965 -5.35403 0.621694 0
M  V30 3882 C 498.08 -5.25212 -0.43376 0
M  V30 3883 C 496.813 -4.64602 -0.519722 0
M  V30 3884 N 496.214 -4.01457 0.519136 0
M  V30 3885 N 496.248 -4.7568 -1.76013 0
M  V30 3886 C 496.85 -5.3653 -2.83017 0
M  V30 3887 N 498.027 -5.93676 -2.79782 0
M  V30 3888 C 498.602 -5.84061 -1.56249 0
M  V30 3889 H 500.898 -6.68789 -2.9658 0
M  V30 3890 H 502.081 -6.53498 -0.198729 0
M  V30 3891 H 503.564 -8.36622 -0.589963 0
M  V30 3892 H 501.87 -10.0273 -1.8081 0
M  V30 3893 H 501.68 -10.2138 0.558219 0
M  V30 3894 H 500.05 -9.6579 0.0444202 0
M  V30 3895 H 496.314 -5.37113 -3.77321 0
M  V30 3896 H 500.892 -6.23209 0.660562 0
M  V30 3897 H 495.284 -3.58834 0.394862 0
M  V30 3898 H 496.688 -3.96059 1.43048 0
M  V30 3899 H 502.69 -5.69466 -2.79593 0
M  V30 3900 P 504.547 -8.4349 -2.47671 0
M  V30 3901 O 505.969 -8.92593 -2.65 0
M  V30 3902 O 504.187 -7.7568 -1.19296 0
M  V30 3903 O 504.224 -7.36886 -3.63805 0
M  V30 3904 C 504.064 -7.95349 -4.982 0
M  V30 3905 C 504.604 -6.94612 -5.98974 0
M  V30 3906 O 503.548 -6.10347 -6.11815 0
M  V30 3907 C 505.822 -6.11426 -5.62335 0
M  V30 3908 O 506.56 -5.6162 -6.70584 0
M  V30 3909 C 505.153 -5.04409 -4.73308 0
M  V30 3910 O 505.952 -3.85992 -4.75183 0
M  V30 3911 C 503.816 -4.8728 -5.41006 0
M  V30 3912 H 503.848 -4.02333 -6.11157 0
M  V30 3913 H 505.031 -5.39466 -3.69543 0
M  V30 3914 H 506.515 -6.71916 -5.01943 0
M  V30 3915 H 504.821 -7.4649 -6.93477 0
M  V30 3916 H 504.631 -8.89416 -5.05237 0
M  V30 3917 H 503.001 -8.14876 -5.18409 0
M  V30 3918 H 505.64 -3.27957 -5.4317 0
M  V30 3919 P 507.498 -5.75688 -6.64379 0
M  V30 3920 O 508.92 -6.07627 -7.05504 0
M  V30 3921 O 507.138 -5.88047 -5.19722 0
M  V30 3922 O 507.175 -4.2322 -7.04443 0
M  V30 3923 C 507.015 -3.99743 -8.4911 0
M  V30 3924 C 507.555 -2.60516 -8.79425 0
M  V30 3925 O 506.499 -1.82684 -8.4467 0
M  V30 3926 C 508.773 -2.10343 -8.03628 0
M  V30 3927 O 509.511 -1.09919 -8.67766 0
M  V30 3928 C 508.104 -1.68446 -6.70876 0
M  V30 3929 O 508.903 -0.678137 -6.08433 0
M  V30 3930 C 506.767 -1.17436 -7.18567 0
M  V30 3931 H 506.799 -0.0804732 -7.31656 0
M  V30 3932 H 507.982 -2.54037 -6.02537 0
M  V30 3933 H 509.466 -2.93881 -7.85526 0
M  V30 3934 H 507.772 -2.53065 -9.86973 0
M  V30 3935 H 507.582 -4.75072 -9.05887 0
M  V30 3936 H 505.952 -4.05244 -8.76668 0
M  V30 3937 H 508.591 0.177647 -6.34251 0
M  V30 3938 P 510.449 -1.25109 -8.70152 0
M  V30 3939 O 511.871 -1.29744 -9.22016 0
M  V30 3940 O 510.089 -2.13714 -7.55141 0
M  V30 3941 O 510.126 0.248149 -8.21425 0
M  V30 3942 C 509.966 1.22779 -9.30434 0
M  V30 3943 C 510.506 2.56293 -8.80664 0
M  V30 3944 O 509.45 3.02979 -8.09349 0
M  V30 3945 C 511.724 2.57523 -7.89775 0
M  V30 3946 O 512.462 3.7668 -7.89438 0
M  V30 3947 C 511.055 2.20997 -6.55446 0
M  V30 3948 O 511.854 2.71895 -5.48509 0
M  V30 3949 C 509.718 2.89693 -6.67988 0
M  V30 3950 H 509.75 3.88793 -6.19859 0
M  V30 3951 H 510.933 1.12046 -6.44229 0
M  V30 3952 H 512.417 1.7746 -8.19711 0
M  V30 3953 H 510.723 3.20706 -9.67112 0
M  V30 3954 H 510.533 0.901032 -10.1892 0
M  V30 3955 H 508.903 1.33049 -9.56592 0
M  V30 3956 H 511.542 3.57847 -5.23962 0
M  V30 3957 P 513.399 3.65191 -7.99657 0
M  V30 3958 O 514.821 3.89332 -8.45794 0
M  V30 3959 O 513.039 2.28472 -7.50807 0
M  V30 3960 O 513.076 4.64972 -6.77611 0
M  V30 3961 C 512.916 6.06319 -7.16352 0
M  V30 3962 C 513.456 6.91731 -6.02299 0
M  V30 3963 O 512.4 6.92449 -5.17064 0
M  V30 3964 C 514.674 6.43627 -5.25174 0
M  V30 3965 O 515.412 7.43686 -4.60469 0
M  V30 3966 C 514.005 5.40275 -4.31916 0
M  V30 3967 O 514.804 5.25279 -3.14438 0
M  V30 3968 C 512.668 6.04847 -4.05327 0
M  V30 3969 H 512.7 6.62195 -3.11261 0
M  V30 3970 H 513.883 4.42556 -4.81383 0
M  V30 3971 H 515.367 5.92458 -5.93643 0
M  V30 3972 H 513.673 7.92655 -6.402 0
M  V30 3973 H 513.483 6.26671 -8.0846 0
M  V30 3974 H 511.853 6.29101 -7.32804 0
M  V30 3975 H 514.492 5.84315 -2.47318 0
M  V30 3976 P 516.35 7.39546 -4.75277 0
M  V30 3977 O 517.772 7.84798 -5.01039 0
M  V30 3978 O 515.99 5.9812 -5.08098 0
M  V30 3979 O 516.027 7.57503 -3.1866 0
M  V30 3980 C 515.867 8.97357 -2.74833 0
M  V30 3981 C 516.407 9.07548 -1.32709 0
M  V30 3982 O 515.351 8.62072 -0.606159 0
M  V30 3983 C 517.625 8.25383 -0.938334 0
M  V30 3984 O 518.363 8.74577 0.146954 0
M  V30 3985 C 516.956 6.8802 -0.712559 0
M  V30 3986 O 517.755 6.1189 0.194655 0
M  V30 3987 C 515.619 7.27966 -0.139777 0
M  V30 3988 H 515.651 7.25354 0.961601 0
M  V30 3989 H 516.834 6.32557 -1.65702 0
M  V30 3990 H 518.318 8.19355 -1.79097 0
M  V30 3991 H 516.624 10.1294 -1.10029 0
M  V30 3992 H 516.434 9.64276 -3.41316 0
M  V30 3993 H 514.804 9.25417 -2.76357 0
M  V30 3994 H 517.443 6.25267 1.07847 0
M  V30 3995 P 519.3 8.791 3.21367e-12 0
M  V30 3996 O 520.722 9.31096 0.027933 0
M  V30 3997 O 518.94 7.77869 -1.04071 0
M  V30 3998 O 518.977 8.09533 1.41463 0
M  V30 3999 C 518.817 9.0349 2.53943 0
M  V30 4000 C 519.357 8.35226 3.79016 0
M  V30 4001 O 518.301 7.57992 4.15078 0
M  V30 4002 C 520.575 7.45087 3.67298 0
M  V30 4003 O 521.313 7.27796 4.85194 0
M  V30 4004 C 519.906 6.17323 3.12027 0
M  V30 4005 O 520.705 5.04231 3.47188 0
M  V30 4006 C 518.569 6.19961 3.81809 0
M  V30 4007 H 518.601 5.58218 4.73051 0
M  V30 4008 H 519.784 6.21726 2.02589 0
M  V30 4009 H 521.268 7.86112 2.9231 0
M  V30 4010 H 519.574 9.11627 4.55076 0
M  V30 4011 H 519.384 9.9573 2.34194 0
M  V30 4012 H 517.754 9.2792 2.67832 0
M  V30 4013 H 520.393 4.67702 4.28772 0
M  V30 4014 P 522.251 7.39546 4.75277 0
M  V30 4015 O 523.673 7.81777 5.05738 0
M  V30 4016 O 521.891 7.1065 3.32998 0
M  V30 4017 O 521.928 6.04542 5.56673 0
M  V30 4018 C 521.768 6.22772 7.02095 0
M  V30 4019 C 522.308 4.97725 7.70406 0
M  V30 4020 O 521.252 4.13256 7.58987 0
M  V30 4021 C 523.526 4.28231 7.11815 0
M  V30 4022 O 524.264 3.49945 8.01648 0
M  V30 4023 C 522.857 3.5063 5.96244 0
M  V30 4024 O 523.656 2.36482 5.64681 0
M  V30 4025 C 521.52 3.15122 6.56374 0
M  V30 4026 H 521.552 2.13853 6.99751 0
M  V30 4027 H 522.735 4.13501 5.06559 0
M  V30 4028 H 524.219 5.03285 6.70911 0
M  V30 4029 H 522.525 5.20877 8.75697 0
M  V30 4030 H 522.335 7.11046 7.35349 0
M  V30 4031 H 520.705 6.35815 7.26986 0
M  V30 4032 H 523.344 1.61644 6.13565 0
M  V30 4033 P 525.201 3.65191 7.99657 0
M  V30 4034 O 526.623 3.84333 8.48297 0
M  V30 4035 O 524.841 4.17805 6.64342 0
M  V30 4036 O 524.878 2.07613 7.95143 0
M  V30 4037 C 524.718 1.44328 9.27336 0
M  V30 4038 C 525.258 0.0220012 9.17097 0
M  V30 4039 O 524.203 -0.626867 8.61923 0
M  V30 4040 C 526.476 -0.24586 8.30336 0
M  V30 4041 O 527.214 -1.39011 8.63583 0
M  V30 4042 C 525.808 -0.273849 6.91158 0
M  V30 4043 O 526.606 -1.06331 6.02794 0
M  V30 4044 C 524.47 -0.897649 7.22545 0
M  V30 4045 N 523.427 -0.292839 6.41732 0
M  V30 4046 C 523.489 1.00068 6.10757 0
M  V30 4047 N 522.444 1.36468 5.35794 0
M  V30 4048 C 521.71 0.258894 5.2366 0
M  V30 4049 C 520.404 0.0670682 4.65752 0
M  V30 4050 O 519.671 0.902443 4.10497 0
M  V30 4051 N 519.974 -1.2131 4.75881 0
M  V30 4052 C 520.723 -2.24934 5.37101 0
M  V30 4053 N 520.126 -3.48783 5.33984 0
M  V30 4054 N 521.876 -2.0844 5.95684 0
M  V30 4055 C 522.333 -0.81395 5.87791 0
M  V30 4056 H 524.502 -1.9841 7.04286 0
M  V30 4057 H 525.685 0.739815 6.49601 0
M  V30 4058 H 527.17 0.598315 8.36563 0
M  V30 4059 H 525.475 -0.352479 10.1829 0
M  V30 4060 H 525.285 2.00611 10.0304 0
M  V30 4061 H 523.654 1.41843 9.55327 0
M  V30 4062 H 519.078 -1.44434 4.37895 0
M  V30 4063 H 524.285 1.67697 6.42268 0
M  V30 4064 H 519.215 -3.60543 4.87699 0
M  V30 4065 H 520.591 -4.29232 5.7819 0
M  V30 4066 H 526.295 -1.95704 6.0346 0
M  V30 4067 P 528.152 -1.25109 8.70152 0
M  V30 4068 O 529.574 -1.35274 9.21221 0
M  V30 4069 O 527.792 -0.0769065 7.84762 0
M  V30 4070 O 527.829 -2.55232 7.81161 0
M  V30 4071 C 527.669 -3.79939 8.58154 0
M  V30 4072 C 528.209 -4.94023 7.72785 0
M  V30 4073 O 527.153 -5.18726 6.91205 0
M  V30 4074 C 529.427 -4.69597 6.85231 0
M  V30 4075 O 530.165 -5.83832 6.51337 0
M  V30 4076 C 528.758 -3.96706 5.66633 0
M  V30 4077 O 529.557 -4.15414 4.49689 0
M  V30 4078 C 527.421 -4.66153 5.59313 0
M  V30 4079 H 527.453 -5.47679 4.85214 0
M  V30 4080 H 528.636 -2.89008 5.86566 0
M  V30 4081 H 530.12 -4.0121 7.36511 0
M  V30 4082 H 528.426 -5.80182 8.37584 0
M  V30 4083 H 528.236 -3.73517 9.52265 0
M  V30 4084 H 526.606 -3.97163 8.80359 0
M  V30 4085 H 529.245 -4.90969 4.01921 0
M  V30 4086 P 531.103 -5.75688 6.64379 0
M  V30 4087 O 532.525 -6.11849 7.01846 0
M  V30 4088 O 530.743 -4.30744 6.56026 0
M  V30 4089 O 530.78 -6.37042 5.19165 0
M  V30 4090 C 530.62 -7.83578 5.16515 0
M  V30 4091 C 531.16 -8.33398 3.83019 0
M  V30 4092 O 530.104 -8.10074 3.01034 0
M  V30 4093 C 532.378 -7.65514 3.2257 0
M  V30 4094 O 533.116 -8.4329 2.32297 0
M  V30 4095 C 531.709 -6.40075 2.62207 0
M  V30 4096 O 532.508 -5.92589 1.53712 0
M  V30 4097 C 530.372 -6.9454 2.18503 0
M  V30 4098 H 530.404 -7.23063 1.12091 0
M  V30 4099 H 531.587 -5.6025 3.37201 0
M  V30 4100 H 533.071 -7.35707 4.02681 0
M  V30 4101 H 531.377 -9.40912 3.9095 0
M  V30 4102 H 531.187 -8.29056 5.99158 0
M  V30 4103 H 529.557 -8.10073 5.25882 0
M  V30 4104 H 532.196 -6.30324 0.726794 0
M  V30 4105 P 534.053 -8.4349 2.47671 0
M  V30 4106 O 535.475 -8.94167 2.5964 0
M  V30 4107 O 533.693 -7.1704 3.19006 0
M  V30 4108 O 533.73 -8.16596 0.923387 0
M  V30 4109 C 533.57 -9.38437 0.108857 0
M  V30 4110 C 534.11 -9.08175 -1.28353 0
M  V30 4111 O 533.054 -8.44229 -1.84713 0
M  V30 4112 C 535.328 -8.18386 -1.42505 0
M  V30 4113 O 536.066 -8.3501 -2.60497 0
M  V30 4114 C 534.659 -6.80225 -1.25468 0
M  V30 4115 O 535.458 -5.81621 -1.91066 0
M  V30 4116 C 533.322 -7.02416 -1.9168 0
M  V30 4117 H 533.354 -6.6888 -2.96621 0
M  V30 4118 H 534.537 -6.53617 -0.192223 0
M  V30 4119 H 536.021 -8.36622 -0.589963 0
M  V30 4120 H 534.327 -10.0291 -1.79807 0
M  V30 4121 H 534.137 -10.2138 0.558219 0
M  V30 4122 H 532.507 -9.6579 0.0444202 0
M  V30 4123 H 535.146 -5.69556 -2.79637 0
M  V30 4124 P 537.004 -8.4349 -2.47671 0
M  V30 4125 O 538.426 -8.92593 -2.65 0
M  V30 4126 O 536.644 -7.7568 -1.19296 0
M  V30 4127 O 536.681 -7.36886 -3.63805 0
M  V30 4128 C 536.521 -7.95349 -4.982 0
M  V30 4129 C 537.061 -6.94612 -5.98974 0
M  V30 4130 O 536.005 -6.10347 -6.11815 0
M  V30 4131 C 538.279 -6.11426 -5.62335 0
M  V30 4132 O 539.017 -5.6162 -6.70584 0
M  V30 4133 C 537.61 -5.04409 -4.73308 0
M  V30 4134 O 538.409 -3.85992 -4.75183 0
M  V30 4135 C 536.273 -4.8728 -5.41006 0
M  V30 4136 H 536.305 -4.02333 -6.11157 0
M  V30 4137 H 537.488 -5.39466 -3.69543 0
M  V30 4138 H 538.972 -6.71916 -5.01943 0
M  V30 4139 H 537.278 -7.4649 -6.93477 0
M  V30 4140 H 537.088 -8.89416 -5.05237 0
M  V30 4141 H 535.458 -8.14876 -5.18409 0
M  V30 4142 H 538.097 -3.27957 -5.4317 0
M  V30 4143 P 539.954 -5.75688 -6.64379 0
M  V30 4144 O 541.376 -6.07627 -7.05504 0
M  V30 4145 O 539.594 -5.88047 -5.19722 0
M  V30 4146 O 539.631 -4.2322 -7.04443 0
M  V30 4147 C 539.471 -3.99743 -8.4911 0
M  V30 4148 C 540.011 -2.60516 -8.79425 0
M  V30 4149 O 538.955 -1.82684 -8.4467 0
M  V30 4150 C 541.229 -2.10343 -8.03628 0
M  V30 4151 O 541.967 -1.09919 -8.67766 0
M  V30 4152 C 540.56 -1.68446 -6.70876 0
M  V30 4153 O 541.359 -0.678137 -6.08433 0
M  V30 4154 C 539.223 -1.17436 -7.18567 0
M  V30 4155 H 539.255 -0.0804732 -7.31656 0
M  V30 4156 H 540.438 -2.54037 -6.02537 0
M  V30 4157 H 541.922 -2.93881 -7.85526 0
M  V30 4158 H 540.228 -2.53065 -9.86973 0
M  V30 4159 H 540.038 -4.75072 -9.05887 0
M  V30 4160 H 538.408 -4.05244 -8.76668 0
M  V30 4161 H 541.047 0.177647 -6.34251 0
M  V30 4162 P 542.905 -1.25109 -8.70152 0
M  V30 4163 O 544.327 -1.29744 -9.22016 0
M  V30 4164 O 542.545 -2.13714 -7.55141 0
M  V30 4165 O 542.582 0.248149 -8.21425 0
M  V30 4166 C 542.422 1.22779 -9.30434 0
M  V30 4167 C 542.962 2.56293 -8.80664 0
M  V30 4168 O 541.906 3.02979 -8.09349 0
M  V30 4169 C 544.18 2.57523 -7.89775 0
M  V30 4170 O 544.918 3.7668 -7.89438 0
M  V30 4171 C 543.511 2.20997 -6.55446 0
M  V30 4172 O 544.31 2.71895 -5.48509 0
M  V30 4173 C 542.174 2.89693 -6.67988 0
M  V30 4174 H 542.206 3.88793 -6.19859 0
M  V30 4175 H 543.389 1.12046 -6.44229 0
M  V30 4176 H 544.873 1.7746 -8.19711 0
M  V30 4177 H 543.179 3.20706 -9.67112 0
M  V30 4178 H 542.989 0.901032 -10.1892 0
M  V30 4179 H 541.359 1.33049 -9.56592 0
M  V30 4180 H 543.998 3.57847 -5.23962 0
M  V30 4181 P 545.855 3.65191 -7.99657 0
M  V30 4182 O 547.277 3.89332 -8.45794 0
M  V30 4183 O 545.495 2.28472 -7.50807 0
M  V30 4184 O 545.532 4.64972 -6.77611 0
M  V30 4185 C 545.372 6.06319 -7.16352 0
M  V30 4186 C 545.912 6.91731 -6.02299 0
M  V30 4187 O 544.856 6.92449 -5.17064 0
M  V30 4188 C 547.13 6.43627 -5.25174 0
M  V30 4189 O 547.868 7.43686 -4.60469 0
M  V30 4190 C 546.461 5.40275 -4.31916 0
M  V30 4191 O 547.26 5.25279 -3.14438 0
M  V30 4192 C 545.124 6.04847 -4.05327 0
M  V30 4193 H 545.156 6.62195 -3.11261 0
M  V30 4194 H 546.339 4.42556 -4.81383 0
M  V30 4195 H 547.823 5.92458 -5.93643 0
M  V30 4196 H 546.129 7.92655 -6.402 0
M  V30 4197 H 545.939 6.26671 -8.0846 0
M  V30 4198 H 544.309 6.29101 -7.32804 0
M  V30 4199 H 546.948 5.84315 -2.47318 0
M  V30 4200 P 548.806 7.39546 -4.75277 0
M  V30 4201 O 550.228 7.84798 -5.01039 0
M  V30 4202 O 548.446 5.9812 -5.08098 0
M  V30 4203 O 548.483 7.57503 -3.1866 0
M  V30 4204 C 548.323 8.97357 -2.74833 0
M  V30 4205 C 548.863 9.07548 -1.32709 0
M  V30 4206 O 547.807 8.62072 -0.606159 0
M  V30 4207 C 550.081 8.25383 -0.938334 0
M  V30 4208 O 550.819 8.74577 0.146954 0
M  V30 4209 C 549.412 6.8802 -0.712559 0
M  V30 4210 O 550.211 6.1189 0.194655 0
M  V30 4211 C 548.075 7.27966 -0.139777 0
M  V30 4212 H 548.107 7.25354 0.961601 0
M  V30 4213 H 549.29 6.32557 -1.65702 0
M  V30 4214 H 550.774 8.19355 -1.79097 0
M  V30 4215 H 549.08 10.1294 -1.10029 0
M  V30 4216 H 548.89 9.64276 -3.41316 0
M  V30 4217 H 547.26 9.25417 -2.76357 0
M  V30 4218 H 549.899 6.25267 1.07847 0
M  V30 4219 P 551.757 8.791 3.52383e-12 0
M  V30 4220 O 553.179 9.31096 0.027933 0
M  V30 4221 O 551.397 7.77869 -1.04071 0
M  V30 4222 O 551.434 8.09533 1.41463 0
M  V30 4223 C 551.274 9.0349 2.53943 0
M  V30 4224 C 551.814 8.35226 3.79016 0
M  V30 4225 O 550.758 7.57992 4.15078 0
M  V30 4226 C 553.032 7.45087 3.67298 0
M  V30 4227 O 553.77 7.27796 4.85194 0
M  V30 4228 C 552.363 6.17323 3.12027 0
M  V30 4229 O 553.162 5.04231 3.47188 0
M  V30 4230 C 551.026 6.19961 3.81809 0
M  V30 4231 H 551.058 5.58218 4.73051 0
M  V30 4232 H 552.241 6.21726 2.02589 0
M  V30 4233 H 553.725 7.86112 2.9231 0
M  V30 4234 H 552.031 9.11627 4.55076 0
M  V30 4235 H 551.841 9.9573 2.34194 0
M  V30 4236 H 550.211 9.2792 2.67832 0
M  V30 4237 H 552.85 4.67702 4.28772 0
M  V30 4238 P 554.707 7.39546 4.75277 0
M  V30 4239 O 556.129 7.81777 5.05738 0
M  V30 4240 O 554.347 7.1065 3.32998 0
M  V30 4241 O 554.384 6.04542 5.56673 0
M  V30 4242 C 554.224 6.22772 7.02095 0
M  V30 4243 C 554.764 4.97725 7.70406 0
M  V30 4244 O 553.708 4.13256 7.58987 0
M  V30 4245 C 555.982 4.28231 7.11815 0
M  V30 4246 O 556.72 3.49945 8.01648 0
M  V30 4247 C 555.313 3.5063 5.96244 0
M  V30 4248 O 556.112 2.36482 5.64681 0
M  V30 4249 C 553.976 3.15122 6.56374 0
M  V30 4250 H 554.008 2.13853 6.99751 0
M  V30 4251 H 555.191 4.13501 5.06559 0
M  V30 4252 H 556.675 5.03285 6.70911 0
M  V30 4253 H 554.981 5.20877 8.75697 0
M  V30 4254 H 554.791 7.11046 7.35349 0
M  V30 4255 H 553.161 6.35815 7.26986 0
M  V30 4256 H 555.8 1.61644 6.13565 0
M  V30 4257 P 557.658 3.65191 7.99657 0
M  V30 4258 O 559.08 3.84333 8.48297 0
M  V30 4259 O 557.298 4.17805 6.64342 0
M  V30 4260 O 557.335 2.07613 7.95143 0
M  V30 4261 C 557.175 1.44328 9.27336 0
M  V30 4262 C 557.715 0.0220012 9.17097 0
M  V30 4263 O 556.66 -0.626867 8.61923 0
M  V30 4264 C 558.933 -0.24586 8.30336 0
M  V30 4265 O 559.671 -1.39011 8.63583 0
M  V30 4266 C 558.265 -0.273849 6.91158 0
M  V30 4267 O 559.063 -1.06331 6.02794 0
M  V30 4268 C 556.927 -0.897649 7.22545 0
M  V30 4269 N 555.884 -0.292839 6.41732 0
M  V30 4270 C 555.946 1.00068 6.10757 0
M  V30 4271 N 554.901 1.36468 5.35794 0
M  V30 4272 C 554.167 0.258894 5.2366 0
M  V30 4273 C 552.861 0.0670682 4.65752 0
M  V30 4274 O 552.128 0.902443 4.10497 0
M  V30 4275 N 552.431 -1.2131 4.75881 0
M  V30 4276 C 553.18 -2.24934 5.37101 0
M  V30 4277 N 552.583 -3.48783 5.33984 0
M  V30 4278 N 554.333 -2.0844 5.95684 0
M  V30 4279 C 554.79 -0.81395 5.87791 0
M  V30 4280 H 556.959 -1.9841 7.04286 0
M  V30 4281 H 558.142 0.739815 6.49601 0
M  V30 4282 H 559.627 0.598315 8.36563 0
M  V30 4283 H 557.932 -0.352479 10.1829 0
M  V30 4284 H 557.742 2.00611 10.0304 0
M  V30 4285 H 556.111 1.41843 9.55327 0
M  V30 4286 H 551.535 -1.44434 4.37895 0
M  V30 4287 H 556.742 1.67697 6.42268 0
M  V30 4288 H 551.672 -3.60543 4.87699 0
M  V30 4289 H 553.048 -4.29232 5.7819 0
M  V30 4290 H 558.752 -1.95704 6.0346 0
M  V30 4291 P 560.608 -1.25109 8.70152 0
M  V30 4292 O 562.03 -1.35274 9.21221 0
M  V30 4293 O 560.248 -0.0769065 7.84762 0
M  V30 4294 O 560.285 -2.55232 7.81161 0
M  V30 4295 C 560.125 -3.79939 8.58154 0
M  V30 4296 C 560.665 -4.94023 7.72785 0
M  V30 4297 O 559.609 -5.18726 6.91205 0
M  V30 4298 C 561.883 -4.69597 6.85231 0
M  V30 4299 O 562.621 -5.83832 6.51337 0
M  V30 4300 C 561.214 -3.96706 5.66633 0
M  V30 4301 O 562.013 -4.15414 4.49689 0
M  V30 4302 C 559.877 -4.66153 5.59313 0
M  V30 4303 H 559.909 -5.47679 4.85214 0
M  V30 4304 H 561.092 -2.89008 5.86566 0
M  V30 4305 H 562.576 -4.0121 7.36511 0
M  V30 4306 H 560.882 -5.80182 8.37584 0
M  V30 4307 H 560.692 -3.73517 9.52265 0
M  V30 4308 H 559.062 -3.97163 8.80359 0
M  V30 4309 H 561.701 -4.90969 4.01921 0
M  V30 4310 P 563.559 -5.75688 6.64379 0
M  V30 4311 O 564.98 -6.11915 7.01921 0
M  V30 4312 O 563.199 -4.30744 6.56026 0
M  V30 4313 O 563.236 -6.37042 5.19165 0
M  V30 4314 C 563.075 -7.83662 5.1657 0
M  V30 4315 C 563.616 -8.33398 3.83019 0
M  V30 4316 O 562.561 -8.0998 3.00999 0
M  V30 4317 C 564.834 -7.65514 3.2257 0
M  V30 4318 O 565.572 -8.4329 2.32297 0
M  V30 4319 C 564.166 -6.40075 2.62207 0
M  V30 4320 O 564.964 -5.92338 1.5428 0
M  V30 4321 C 562.828 -6.9454 2.18503 0
M  V30 4322 N 561.785 -5.95905 2.39948 0
M  V30 4323 C 561.954 -4.98383 3.32108 0
M  V30 4324 N 560.927 -4.16798 3.41761 0
M  V30 4325 C 560.042 -4.65287 2.47461 0
M  V30 4326 C 558.775 -4.18946 2.07461 0
M  V30 4327 N 558.176 -3.09661 2.60717 0
M  V30 4328 N 558.21 -4.95327 1.09101 0
M  V30 4329 C 558.812 -6.04369 0.519812 0
M  V30 4330 N 559.989 -6.50694 0.855982 0
M  V30 4331 C 560.564 -5.75818 1.84322 0
M  V30 4332 H 562.86 -7.22964 1.12076 0
M  V30 4333 H 564.043 -5.60502 3.36589 0
M  V30 4334 H 565.526 -7.35707 4.02681 0
M  V30 4335 H 563.832 -9.41302 3.90009 0
M  V30 4336 H 563.642 -8.29056 5.99158 0
M  V30 4337 H 562.012 -8.10073 5.25882 0
M  V30 4338 H 558.276 -6.55843 -0.270373 0
M  V30 4339 H 562.854 -4.88564 3.92502 0
M  V30 4340 H 557.246 -2.80523 2.27218 0
M  V30 4341 H 558.65 -2.55848 3.34465 0
M  V30 4342 H 564.652 -6.30224 0.72668 0
M  V30 4343 P 566.509 -8.4349 2.47671 0
M  V30 4344 O 567.931 -8.94167 2.5964 0
M  V30 4345 O 566.149 -7.1704 3.19006 0
M  V30 4346 O 566.186 -8.16596 0.923387 0
M  V30 4347 C 566.026 -9.38437 0.108857 0
M  V30 4348 C 566.566 -9.08175 -1.28353 0
M  V30 4349 O 565.51 -8.44229 -1.84713 0
M  V30 4350 C 567.784 -8.18386 -1.42505 0
M  V30 4351 O 568.522 -8.3501 -2.60497 0
M  V30 4352 C 567.115 -6.80225 -1.25468 0
M  V30 4353 O 567.914 -5.81621 -1.91066 0
M  V30 4354 C 565.778 -7.02416 -1.9168 0
M  V30 4355 H 565.81 -6.6888 -2.96621 0
M  V30 4356 H 566.993 -6.53617 -0.192223 0
M  V30 4357 H 568.477 -8.36622 -0.589963 0
M  V30 4358 H 566.783 -10.0291 -1.79807 0
M  V30 4359 H 566.593 -10.2138 0.558219 0
M  V30 4360 H 564.963 -9.6579 0.0444202 0
M  V30 4361 H 567.602 -5.69556 -2.79637 0
M  V30 4362 P 569.46 -8.4349 -2.47671 0
M  V30 4363 O 570.882 -8.92593 -2.65 0
M  V30 4364 O 569.1 -7.7568 -1.19296 0
M  V30 4365 O 569.137 -7.36886 -3.63805 0
M  V30 4366 C 568.977 -7.95349 -4.982 0
M  V30 4367 C 569.517 -6.94612 -5.98974 0
M  V30 4368 O 568.461 -6.10347 -6.11815 0
M  V30 4369 C 570.735 -6.11426 -5.62335 0
M  V30 4370 O 571.473 -5.6162 -6.70584 0
M  V30 4371 C 570.066 -5.04409 -4.73308 0
M  V30 4372 O 570.865 -3.85992 -4.75183 0
M  V30 4373 C 568.729 -4.8728 -5.41006 0
M  V30 4374 H 568.761 -4.02333 -6.11157 0
M  V30 4375 H 569.944 -5.39466 -3.69543 0
M  V30 4376 H 571.428 -6.71916 -5.01943 0
M  V30 4377 H 569.734 -7.4649 -6.93477 0
M  V30 4378 H 569.544 -8.89416 -5.05237 0
M  V30 4379 H 567.914 -8.14876 -5.18409 0
M  V30 4380 H 570.553 -3.27957 -5.4317 0
M  V30 4381 P 572.411 -5.75688 -6.64379 0
M  V30 4382 O 573.812 -6.14823 -7.06682 0
M  V30 4383 O 572.033 -5.93957 -5.20728 0
M  V30 4384 O 572.088 -4.23169 -7.04357 0
M  V30 4385 C 571.928 -3.99743 -8.4911 0
M  V30 4386 C 572.468 -2.60487 -8.79329 0
M  V30 4387 O 571.412 -1.82663 -8.44573 0
M  V30 4388 C 573.685 -2.10343 -8.03628 0
M  V30 4389 O 574.424 -1.09919 -8.67766 0
M  V30 4390 C 573.018 -1.68446 -6.70876 0
M  V30 4391 O 573.816 -0.678026 -6.08333 0
M  V30 4392 C 571.68 -1.17436 -7.18567 0
M  V30 4393 N 570.637 -1.52699 -6.23988 0
M  V30 4394 C 569.602 -0.643793 -6.05085 0
M  V30 4395 O 569.641 0.459118 -6.64315 0
M  V30 4396 N 568.59 -0.976931 -5.22038 0
M  V30 4397 C 568.638 -2.14429 -4.56662 0
M  V30 4398 C 569.734 -3.04203 -4.71481 0
M  V30 4399 C 570.7 -2.69669 -5.56838 0
M  V30 4400 H 571.712 -0.0804622 -7.31556 0
M  V30 4401 H 572.895 -2.53396 -6.02698 0
M  V30 4402 H 574.379 -2.9313 -7.85914 0
M  V30 4403 H 572.685 -2.52078 -9.87225 0
M  V30 4404 H 572.494 -4.75072 -9.05887 0
M  V30 4405 H 570.864 -4.05202 -8.76577 0
M  V30 4406 H 569.782 -3.97309 -4.15519 0
M  V30 4407 H 571.546 -3.36869 -5.72318 0
M  V30 4408 H 573.6 0.167718 -6.44882 0
M  V30 4409 P 575.361 -1.25109 -8.70152 0
M  V30 4410 O 576.783 -1.29744 -9.22016 0
M  V30 4411 O 575.001 -2.13714 -7.55141 0
M  V30 4412 O 575.038 0.248149 -8.21425 0
M  V30 4413 C 574.878 1.22779 -9.30434 0
M  V30 4414 C 575.418 2.56293 -8.80664 0
M  V30 4415 O 574.362 3.02979 -8.09349 0
M  V30 4416 C 576.636 2.57523 -7.89775 0
M  V30 4417 O 577.374 3.7668 -7.89438 0
M  V30 4418 C 575.967 2.20997 -6.55446 0
M  V30 4419 O 576.766 2.71895 -5.48509 0
M  V30 4420 C 574.63 2.89693 -6.67988 0
M  V30 4421 H 574.662 3.88793 -6.19859 0
M  V30 4422 H 575.845 1.12046 -6.44229 0
M  V30 4423 H 577.329 1.7746 -8.19711 0
M  V30 4424 H 575.635 3.20706 -9.67112 0
M  V30 4425 H 575.445 0.901032 -10.1892 0
M  V30 4426 H 573.815 1.33049 -9.56592 0
M  V30 4427 H 576.454 3.57847 -5.23962 0
M  V30 4428 P 578.312 3.65191 -7.99657 0
M  V30 4429 O 579.734 3.89332 -8.45794 0
M  V30 4430 O 577.952 2.28472 -7.50807 0
M  V30 4431 O 577.989 4.64972 -6.77611 0
M  V30 4432 C 577.829 6.06319 -7.16352 0
M  V30 4433 C 578.369 6.91731 -6.02299 0
M  V30 4434 O 577.313 6.92449 -5.17064 0
M  V30 4435 C 579.587 6.43627 -5.25174 0
M  V30 4436 O 580.325 7.43686 -4.60469 0
M  V30 4437 C 578.918 5.40275 -4.31916 0
M  V30 4438 O 579.717 5.25279 -3.14438 0
M  V30 4439 C 577.581 6.04847 -4.05327 0
M  V30 4440 H 577.613 6.62195 -3.11261 0
M  V30 4441 H 578.796 4.42556 -4.81383 0
M  V30 4442 H 580.28 5.92458 -5.93643 0
M  V30 4443 H 578.586 7.92655 -6.402 0
M  V30 4444 H 578.396 6.26671 -8.0846 0
M  V30 4445 H 576.766 6.29101 -7.32804 0
M  V30 4446 H 579.405 5.84315 -2.47318 0
M  V30 4447 P 581.262 7.39546 -4.75277 0
M  V30 4448 O 582.684 7.84798 -5.01039 0
M  V30 4449 O 580.902 5.9812 -5.08098 0
M  V30 4450 O 580.939 7.57503 -3.1866 0
M  V30 4451 C 580.779 8.97357 -2.74833 0
M  V30 4452 C 581.319 9.07548 -1.32709 0
M  V30 4453 O 580.263 8.62072 -0.606159 0
M  V30 4454 C 582.537 8.25383 -0.938334 0
M  V30 4455 O 583.275 8.74577 0.146954 0
M  V30 4456 C 581.868 6.8802 -0.712559 0
M  V30 4457 O 582.667 6.1189 0.194655 0
M  V30 4458 C 580.531 7.27966 -0.139777 0
M  V30 4459 H 580.563 7.25354 0.961601 0
M  V30 4460 H 581.746 6.32557 -1.65702 0
M  V30 4461 H 583.23 8.19355 -1.79097 0
M  V30 4462 H 581.536 10.1294 -1.10029 0
M  V30 4463 H 581.346 9.64276 -3.41316 0
M  V30 4464 H 579.716 9.25417 -2.76357 0
M  V30 4465 H 582.355 6.25267 1.07847 0
M  V30 4466 P 584.213 8.791 3.834e-12 0
M  V30 4467 O 585.635 9.31096 0.027933 0
M  V30 4468 O 583.853 7.77869 -1.04071 0
M  V30 4469 O 583.89 8.09533 1.41463 0
M  V30 4470 C 583.73 9.0349 2.53943 0
M  V30 4471 C 584.27 8.35226 3.79016 0
M  V30 4472 O 583.214 7.57992 4.15078 0
M  V30 4473 C 585.488 7.45087 3.67298 0
M  V30 4474 O 586.226 7.27796 4.85194 0
M  V30 4475 C 584.819 6.17323 3.12027 0
M  V30 4476 O 585.618 5.04231 3.47188 0
M  V30 4477 C 583.482 6.19961 3.81809 0
M  V30 4478 H 583.514 5.58218 4.73051 0
M  V30 4479 H 584.697 6.21726 2.02589 0
M  V30 4480 H 586.181 7.86112 2.9231 0
M  V30 4481 H 584.487 9.11627 4.55076 0
M  V30 4482 H 584.297 9.9573 2.34194 0
M  V30 4483 H 582.667 9.2792 2.67832 0
M  V30 4484 H 585.306 4.67702 4.28772 0
M  V30 4485 P 587.163 7.39546 4.75277 0
M  V30 4486 O 588.585 7.81777 5.05738 0
M  V30 4487 O 586.803 7.1065 3.32998 0
M  V30 4488 O 586.84 6.04542 5.56673 0
M  V30 4489 C 586.68 6.22772 7.02095 0
M  V30 4490 C 587.22 4.97725 7.70406 0
M  V30 4491 O 586.164 4.13256 7.58987 0
M  V30 4492 C 588.438 4.28231 7.11815 0
M  V30 4493 O 589.176 3.49945 8.01648 0
M  V30 4494 C 587.769 3.5063 5.96244 0
M  V30 4495 O 588.568 2.36482 5.64681 0
M  V30 4496 C 586.432 3.15122 6.56374 0
M  V30 4497 H 586.464 2.13853 6.99751 0
M  V30 4498 H 587.647 4.13501 5.06559 0
M  V30 4499 H 589.131 5.03285 6.70911 0
M  V30 4500 H 587.437 5.20877 8.75697 0
M  V30 4501 H 587.247 7.11046 7.35349 0
M  V30 4502 H 585.617 6.35815 7.26986 0
M  V30 4503 H 588.256 1.61644 6.13565 0
M  V30 4504 P 590.114 3.65191 7.99657 0
M  V30 4505 O 591.535 3.84292 8.48206 0
M  V30 4506 O 589.754 4.17805 6.64342 0
M  V30 4507 O 589.791 2.07613 7.95143 0
M  V30 4508 C 589.63 1.44344 9.27435 0
M  V30 4509 C 590.171 0.0220036 9.17197 0
M  V30 4510 O 589.116 -0.626794 8.61824 0
M  V30 4511 C 591.389 -0.24586 8.30336 0
M  V30 4512 O 592.127 -1.39011 8.63583 0
M  V30 4513 C 590.721 -0.273849 6.91158 0
M  V30 4514 O 591.519 -1.05728 6.029 0
M  V30 4515 C 589.383 -0.897649 7.22545 0
M  V30 4516 N 588.34 -0.292839 6.41732 0
M  V30 4517 C 588.509 0.950603 5.91308 0
M  V30 4518 N 587.482 1.37732 5.21105 0
M  V30 4519 C 586.597 0.318109 5.26039 0
M  V30 4520 C 585.33 0.146766 4.6727 0
M  V30 4521 N 584.731 1.08519 3.89983 0
M  V30 4522 N 584.765 -1.06525 4.95887 0
M  V30 4523 C 585.367 -2.0378 5.71347 0
M  V30 4524 N 586.544 -1.92445 6.27451 0
M  V30 4525 C 587.119 -0.715382 6.00353 0
M  V30 4526 H 589.415 -1.98383 7.04189 0
M  V30 4527 H 590.598 0.733318 6.49674 0
M  V30 4528 H 592.081 0.60668 8.36503 0
M  V30 4529 H 590.387 -0.362662 10.1825 0
M  V30 4530 H 590.197 2.00611 10.0304 0
M  V30 4531 H 588.567 1.41843 9.55327 0
M  V30 4532 H 584.831 -2.97041 5.85344 0
M  V30 4533 H 589.409 1.54076 6.07465 0
M  V30 4534 H 583.801 0.901517 3.49562 0
M  V30 4535 H 585.205 1.97957 3.71669 0
M  V30 4536 H 591.207 -1.95704 6.0346 0
M  V30 4537 P 593.065 -1.25109 8.70152 0
M  V30 4538 O 594.487 -1.35274 9.21221 0
M  V30 4539 O 592.705 -0.0769065 7.84762 0
M  V30 4540 O 592.742 -2.55232 7.81161 0
M  V30 4541 C 592.582 -3.79939 8.58154 0
M  V30 4542 C 593.122 -4.94023 7.72785 0
M  V30 4543 O 592.066 -5.18726 6.91205 0
M  V30 4544 C 594.34 -4.69597 6.85231 0
M  V30 4545 O 595.078 -5.83832 6.51337 0
M  V30 4546 C 593.671 -3.96706 5.66633 0
M  V30 4547 O 594.47 -4.15414 4.49689 0
M  V30 4548 C 592.334 -4.66153 5.59313 0
M  V30 4549 H 592.366 -5.47679 4.85214 0
M  V30 4550 H 593.549 -2.89008 5.86566 0
M  V30 4551 H 595.033 -4.0121 7.36511 0
M  V30 4552 H 593.339 -5.80182 8.37584 0
M  V30 4553 H 593.149 -3.73517 9.52265 0
M  V30 4554 H 591.519 -3.97163 8.80359 0
M  V30 4555 H 594.158 -4.90969 4.01921 0
M  V30 4556 P 596.015 -5.75688 6.64379 0
M  V30 4557 O 597.436 -6.11915 7.01921 0
M  V30 4558 O 595.655 -4.30744 6.56026 0
M  V30 4559 O 595.692 -6.37042 5.19165 0
M  V30 4560 C 595.531 -7.83662 5.1657 0
M  V30 4561 C 596.072 -8.33398 3.83019 0
M  V30 4562 O 595.017 -8.0998 3.00999 0
M  V30 4563 C 597.29 -7.65514 3.2257 0
M  V30 4564 O 598.028 -8.4329 2.32297 0
M  V30 4565 C 596.622 -6.40075 2.62207 0
M  V30 4566 O 597.42 -5.92338 1.5428 0
M  V30 4567 C 595.284 -6.9454 2.18503 0
M  V30 4568 N 594.241 -5.95905 2.39948 0
M  V30 4569 C 594.41 -4.98383 3.32108 0
M  V30 4570 N 593.383 -4.16798 3.41761 0
M  V30 4571 C 592.498 -4.65287 2.47461 0
M  V30 4572 C 591.231 -4.18946 2.07461 0
M  V30 4573 N 590.632 -3.09661 2.60717 0
M  V30 4574 N 590.666 -4.95327 1.09101 0
M  V30 4575 C 591.268 -6.04369 0.519812 0
M  V30 4576 N 592.445 -6.50694 0.855982 0
M  V30 4577 C 593.02 -5.75818 1.84322 0
M  V30 4578 H 595.316 -7.22964 1.12076 0
M  V30 4579 H 596.499 -5.60502 3.36589 0
M  V30 4580 H 597.982 -7.35707 4.02681 0
M  V30 4581 H 596.288 -9.41302 3.90009 0
M  V30 4582 H 596.098 -8.29056 5.99158 0
M  V30 4583 H 594.468 -8.10073 5.25882 0
M  V30 4584 H 590.732 -6.55843 -0.270373 0
M  V30 4585 H 595.31 -4.88564 3.92502 0
M  V30 4586 H 589.702 -2.80523 2.27218 0
M  V30 4587 H 591.106 -2.55848 3.34465 0
M  V30 4588 H 597.108 -6.30224 0.72668 0
M  V30 4589 P 598.966 -8.4349 2.47671 0
M  V30 4590 O 600.388 -8.94167 2.5964 0
M  V30 4591 O 598.606 -7.1704 3.19006 0
M  V30 4592 O 598.643 -8.16596 0.923387 0
M  V30 4593 C 598.483 -9.38437 0.108857 0
M  V30 4594 C 599.023 -9.08175 -1.28353 0
M  V30 4595 O 597.967 -8.44229 -1.84713 0
M  V30 4596 C 600.241 -8.18386 -1.42505 0
M  V30 4597 O 600.979 -8.3501 -2.60497 0
M  V30 4598 C 599.572 -6.80225 -1.25468 0
M  V30 4599 O 600.371 -5.81621 -1.91066 0
M  V30 4600 C 598.235 -7.02416 -1.9168 0
M  V30 4601 H 598.267 -6.6888 -2.96621 0
M  V30 4602 H 599.45 -6.53617 -0.192223 0
M  V30 4603 H 600.934 -8.36622 -0.589963 0
M  V30 4604 H 599.24 -10.0291 -1.79807 0
M  V30 4605 H 599.05 -10.2138 0.558219 0
M  V30 4606 H 597.42 -9.6579 0.0444202 0
M  V30 4607 H 600.059 -5.69556 -2.79637 0
M  V30 4608 P 601.916 -8.4349 -2.47671 0
M  V30 4609 O 603.337 -8.92689 -2.65029 0
M  V30 4610 O 601.556 -7.7568 -1.19296 0
M  V30 4611 O 601.593 -7.36886 -3.63805 0
M  V30 4612 C 601.432 -7.95433 -4.98253 0
M  V30 4613 C 601.973 -6.94612 -5.98974 0
M  V30 4614 O 600.918 -6.10277 -6.11744 0
M  V30 4615 C 603.191 -6.11426 -5.62335 0
M  V30 4616 O 603.929 -5.6162 -6.70584 0
M  V30 4617 C 602.523 -5.04409 -4.73308 0
M  V30 4618 O 603.321 -3.86404 -4.74719 0
M  V30 4619 C 601.185 -4.8728 -5.41006 0
M  V30 4620 N 600.142 -4.65812 -4.42377 0
M  V30 4621 C 600.311 -5.09132 -3.15382 0
M  V30 4622 N 599.284 -4.84021 -2.3716 0
M  V30 4623 C 598.399 -4.18386 -3.20441 0
M  V30 4624 C 597.132 -3.6275 -2.94905 0
M  V30 4625 N 596.533 -3.65794 -1.73372 0
M  V30 4626 N 596.567 -3.05008 -4.05243 0
M  V30 4627 C 597.169 -2.98348 -5.28159 0
M  V30 4628 N 598.346 -3.48171 -5.56333 0
M  V30 4629 C 598.921 -4.06869 -4.47212 0
M  V30 4630 H 601.217 -4.02278 -6.11074 0
M  V30 4631 H 602.4 -5.39013 -3.70026 0
M  V30 4632 H 603.883 -6.71916 -5.01943 0
M  V30 4633 H 602.189 -7.45796 -6.94223 0
M  V30 4634 H 601.999 -8.89416 -5.05237 0
M  V30 4635 H 600.369 -8.14876 -5.18409 0
M  V30 4636 H 596.633 -2.47853 -6.07807 0
M  V30 4637 H 601.211 -5.59989 -2.81362 0
M  V30 4638 H 595.603 -3.23218 -1.60782 0
M  V30 4639 H 597.007 -4.10523 -0.937856 0
M  V30 4640 H 603.009 -3.27906 -5.43085 0
M  V30 4641 P 604.867 -5.75688 -6.64379 0
M  V30 4642 O 606.289 -6.07627 -7.05504 0
M  V30 4643 O 604.507 -5.88047 -5.19722 0
M  V30 4644 O 604.544 -4.2322 -7.04443 0
M  V30 4645 C 604.384 -3.99743 -8.4911 0
M  V30 4646 C 604.924 -2.60516 -8.79425 0
M  V30 4647 O 603.868 -1.82684 -8.4467 0
M  V30 4648 C 606.142 -2.10343 -8.03628 0
M  V30 4649 O 606.88 -1.09919 -8.67766 0
M  V30 4650 C 605.473 -1.68446 -6.70876 0
M  V30 4651 O 606.272 -0.678137 -6.08433 0
M  V30 4652 C 604.136 -1.17436 -7.18567 0
M  V30 4653 H 604.168 -0.0804732 -7.31656 0
M  V30 4654 H 605.351 -2.54037 -6.02537 0
M  V30 4655 H 606.835 -2.93881 -7.85526 0
M  V30 4656 H 605.141 -2.53065 -9.86973 0
M  V30 4657 H 604.951 -4.75072 -9.05887 0
M  V30 4658 H 603.321 -4.05244 -8.76668 0
M  V30 4659 H 605.96 0.177647 -6.34251 0
M  V30 4660 P 607.817 -1.25109 -8.70152 0
M  V30 4661 O 609.238 -1.29758 -9.22115 0
M  V30 4662 O 607.457 -2.13714 -7.55141 0
M  V30 4663 O 607.494 0.248149 -8.21425 0
M  V30 4664 C 607.333 1.22792 -9.30533 0
M  V30 4665 C 607.874 2.56293 -8.80664 0
M  V30 4666 O 606.819 3.02944 -8.09255 0
M  V30 4667 C 609.092 2.57523 -7.89775 0
M  V30 4668 O 609.83 3.7668 -7.89438 0
M  V30 4669 C 608.424 2.20997 -6.55446 0
M  V30 4670 O 609.222 2.71302 -5.48691 0
M  V30 4671 C 607.086 2.89693 -6.67988 0
M  V30 4672 N 606.043 2.08895 -6.07487 0
M  V30 4673 C 606.212 0.753809 -5.94137 0
M  V30 4674 N 605.185 0.146592 -5.38801 0
M  V30 4675 C 604.3 1.1768 -5.13693 0
M  V30 4676 C 603.033 1.17563 -4.52477 0
M  V30 4677 N 602.468 2.41918 -4.45789 0
M  V30 4678 C 603.07 3.56493 -4.90792 0
M  V30 4679 N 604.247 3.61423 -5.47817 0
M  V30 4680 C 604.822 2.37779 -5.5588 0
M  V30 4681 H 608.301 1.12673 -6.44018 0
M  V30 4682 H 609.784 1.7746 -8.19711 0
M  V30 4683 H 608.09 3.21673 -9.66791 0
M  V30 4684 H 607.9 0.901032 -10.1892 0
M  V30 4685 H 606.27 1.33049 -9.56592 0
M  V30 4686 H 607.112 0.233081 -6.26266 0
M  V30 4687 H 608.91 3.5779 -5.23879 0
M  V30 4688 P 610.768 3.65191 -7.99657 0
M  V30 4689 O 612.19 3.89332 -8.45794 0
M  V30 4690 O 610.408 2.28472 -7.50807 0
M  V30 4691 O 610.445 4.64972 -6.77611 0
M  V30 4692 C 610.285 6.06319 -7.16352 0
M  V30 4693 C 610.825 6.91731 -6.02299 0
M  V30 4694 O 609.769 6.92449 -5.17064 0
M  V30 4695 C 612.043 6.43627 -5.25174 0
M  V30 4696 O 612.781 7.43686 -4.60469 0
M  V30 4697 C 611.374 5.40275 -4.31916 0
M  V30 4698 O 612.173 5.25279 -3.14438 0
M  V30 4699 C 610.037 6.04847 -4.05327 0
M  V30 4700 H 610.069 6.62195 -3.11261 0
M  V30 4701 H 611.252 4.42556 -4.81383 0
M  V30 4702 H 612.736 5.92458 -5.93643 0
M  V30 4703 H 611.042 7.92655 -6.402 0
M  V30 4704 H 610.852 6.26671 -8.0846 0
M  V30 4705 H 609.222 6.29101 -7.32804 0
M  V30 4706 H 611.861 5.84315 -2.47318 0
M  V30 4707 P 613.719 7.39546 -4.75277 0
M  V30 4708 O 615.141 7.84798 -5.01039 0
M  V30 4709 O 613.359 5.9812 -5.08098 0
M  V30 4710 O 613.396 7.57503 -3.1866 0
M  V30 4711 C 613.236 8.97357 -2.74833 0
M  V30 4712 C 613.776 9.07548 -1.32709 0
M  V30 4713 O 612.72 8.62072 -0.606159 0
M  V30 4714 C 614.994 8.25383 -0.938334 0
M  V30 4715 O 615.732 8.74577 0.146954 0
M  V30 4716 C 614.325 6.8802 -0.712559 0
M  V30 4717 O 615.124 6.1189 0.194655 0
M  V30 4718 C 612.988 7.27966 -0.139777 0
M  V30 4719 H 613.02 7.25354 0.961601 0
M  V30 4720 H 614.203 6.32557 -1.65702 0
M  V30 4721 H 615.687 8.19355 -1.79097 0
M  V30 4722 H 613.993 10.1294 -1.10029 0
M  V30 4723 H 613.803 9.64276 -3.41316 0
M  V30 4724 H 612.173 9.25417 -2.76357 0
M  V30 4725 H 614.812 6.25267 1.07847 0
M  V30 4726 P 616.669 8.791 4.14417e-12 0
M  V30 4727 O 618.091 9.31096 0.027933 0
M  V30 4728 O 616.309 7.77869 -1.04071 0
M  V30 4729 O 616.346 8.09533 1.41463 0
M  V30 4730 C 616.186 9.0349 2.53943 0
M  V30 4731 C 616.726 8.35226 3.79016 0
M  V30 4732 O 615.67 7.57992 4.15078 0
M  V30 4733 C 617.944 7.45087 3.67298 0
M  V30 4734 O 618.682 7.27796 4.85194 0
M  V30 4735 C 617.275 6.17323 3.12027 0
M  V30 4736 O 618.074 5.04231 3.47188 0
M  V30 4737 C 615.938 6.19961 3.81809 0
M  V30 4738 H 615.97 5.58218 4.73051 0
M  V30 4739 H 617.153 6.21726 2.02589 0
M  V30 4740 H 618.637 7.86112 2.9231 0
M  V30 4741 H 616.943 9.11627 4.55076 0
M  V30 4742 H 616.753 9.9573 2.34194 0
M  V30 4743 H 615.123 9.2792 2.67832 0
M  V30 4744 H 617.762 4.67702 4.28772 0
M  V30 4745 P 619.62 7.39546 4.75277 0
M  V30 4746 O 621.042 7.81777 5.05738 0
M  V30 4747 O 619.26 7.1065 3.32998 0
M  V30 4748 O 619.297 6.04542 5.56673 0
M  V30 4749 C 619.137 6.22772 7.02095 0
M  V30 4750 C 619.677 4.97725 7.70406 0
M  V30 4751 O 618.621 4.13256 7.58987 0
M  V30 4752 C 620.895 4.28231 7.11815 0
M  V30 4753 O 621.633 3.49945 8.01648 0
M  V30 4754 C 620.226 3.5063 5.96244 0
M  V30 4755 O 621.025 2.36482 5.64681 0
M  V30 4756 C 618.889 3.15122 6.56374 0
M  V30 4757 H 618.921 2.13853 6.99751 0
M  V30 4758 H 620.104 4.13501 5.06559 0
M  V30 4759 H 621.588 5.03285 6.70911 0
M  V30 4760 H 619.894 5.20877 8.75697 0
M  V30 4761 H 619.704 7.11046 7.35349 0
M  V30 4762 H 618.074 6.35815 7.26986 0
M  V30 4763 H 620.713 1.61644 6.13565 0
M  V30 4764 P 622.57 3.65191 7.99657 0
M  V30 4765 O 623.992 3.8425 8.48115 0
M  V30 4766 O 622.21 4.17805 6.64342 0
M  V30 4767 O 622.247 2.07613 7.95143 0
M  V30 4768 C 622.087 1.44328 9.27336 0
M  V30 4769 C 622.627 0.0220036 9.17197 0
M  V30 4770 O 621.571 -0.626867 8.61923 0
M  V30 4771 C 623.845 -0.24586 8.30336 0
M  V30 4772 O 624.583 -1.39011 8.63583 0
M  V30 4773 C 623.176 -0.273849 6.91158 0
M  V30 4774 O 623.975 -1.06348 6.02892 0
M  V30 4775 C 621.839 -0.897649 7.22545 0
M  V30 4776 H 621.871 -1.9841 7.04286 0
M  V30 4777 H 623.054 0.739928 6.497 0
M  V30 4778 H 624.538 0.60668 8.36503 0
M  V30 4779 H 622.844 -0.352479 10.1829 0
M  V30 4780 H 622.654 2.00611 10.0304 0
M  V30 4781 H 621.024 1.41843 9.55327 0
M  V30 4782 H 623.663 -1.95734 6.03555 0
M  V30 4783 P 625.521 -1.25109 8.70152 0
M  V30 4784 O 626.942 -1.35288 9.2132 0
M  V30 4785 O 625.161 -0.0769065 7.84762 0
M  V30 4786 O 625.198 -2.55232 7.81161 0
M  V30 4787 C 625.037 -3.79979 8.58246 0
M  V30 4788 C 625.578 -4.94023 7.72785 0
M  V30 4789 O 624.523 -5.18666 6.91125 0
M  V30 4790 C 626.796 -4.69597 6.85231 0
M  V30 4791 O 627.534 -5.83832 6.51337 0
M  V30 4792 C 626.128 -3.96706 5.66633 0
M  V30 4793 O 626.926 -4.14896 4.5003 0
M  V30 4794 C 624.79 -4.66153 5.59313 0
M  V30 4795 N 623.747 -3.71582 5.24027 0
M  V30 4796 C 623.916 -2.39715 5.48833 0
M  V30 4797 N 622.889 -1.65863 5.12845 0
M  V30 4798 C 622.004 -2.57637 4.5973 0
M  V30 4799 C 620.737 -2.40278 4.01027 0
M  V30 4800 N 620.172 -3.57711 3.59575 0
M  V30 4801 C 620.774 -4.80324 3.70476 0
M  V30 4802 N 621.951 -5.01121 4.23801 0
M  V30 4803 C 622.526 -3.84757 4.66372 0
M  V30 4804 H 626.005 -2.8955 5.86187 0
M  V30 4805 H 627.488 -4.0121 7.36511 0
M  V30 4806 H 625.794 -5.81019 8.37003 0
M  V30 4807 H 625.604 -3.73517 9.52265 0
M  V30 4808 H 623.974 -3.97163 8.80359 0
M  V30 4809 H 624.816 -1.98804 5.94332 0
M  V30 4810 H 626.614 -4.90891 4.01857 0
M  V30 4811 P 628.471 -5.75688 6.64379 0
M  V30 4812 O 629.893 -6.11849 7.01846 0
M  V30 4813 O 628.111 -4.30744 6.56026 0
M  V30 4814 O 628.148 -6.37042 5.19165 0
M  V30 4815 C 627.988 -7.83578 5.16515 0
M  V30 4816 C 628.528 -8.33398 3.83019 0
M  V30 4817 O 627.472 -8.10074 3.01034 0
M  V30 4818 C 629.746 -7.65514 3.2257 0
M  V30 4819 O 630.484 -8.4329 2.32297 0
M  V30 4820 C 629.077 -6.40075 2.62207 0
M  V30 4821 O 629.876 -5.92589 1.53712 0
M  V30 4822 C 627.74 -6.9454 2.18503 0
M  V30 4823 H 627.772 -7.23063 1.12091 0
M  V30 4824 H 628.955 -5.6025 3.37201 0
M  V30 4825 H 630.439 -7.35707 4.02681 0
M  V30 4826 H 628.745 -9.40912 3.9095 0
M  V30 4827 H 628.555 -8.29056 5.99158 0
M  V30 4828 H 626.925 -8.10073 5.25882 0
M  V30 4829 H 629.564 -6.30324 0.726794 0
M  V30 4830 P 631.422 -8.4349 2.47671 0
M  V30 4831 O 632.844 -8.94167 2.5964 0
M  V30 4832 O 631.062 -7.1704 3.19006 0
M  V30 4833 O 631.099 -8.16596 0.923387 0
M  V30 4834 C 630.939 -9.38437 0.108857 0
M  V30 4835 C 631.479 -9.08175 -1.28353 0
M  V30 4836 O 630.423 -8.44229 -1.84713 0
M  V30 4837 C 632.697 -8.18386 -1.42505 0
M  V30 4838 O 633.435 -8.3501 -2.60497 0
M  V30 4839 C 632.028 -6.80225 -1.25468 0
M  V30 4840 O 632.827 -5.81621 -1.91066 0
M  V30 4841 C 630.691 -7.02416 -1.9168 0
M  V30 4842 H 630.723 -6.6888 -2.96621 0
M  V30 4843 H 631.906 -6.53617 -0.192223 0
M  V30 4844 H 633.39 -8.36622 -0.589963 0
M  V30 4845 H 631.696 -10.0291 -1.79807 0
M  V30 4846 H 631.506 -10.2138 0.558219 0
M  V30 4847 H 629.876 -9.6579 0.0444202 0
M  V30 4848 H 632.515 -5.69556 -2.79637 0
M  V30 4849 P 634.373 -8.4349 -2.47671 0
M  V30 4850 O 635.795 -8.92593 -2.65 0
M  V30 4851 O 634.013 -7.7568 -1.19296 0
M  V30 4852 O 634.05 -7.36886 -3.63805 0
M  V30 4853 C 633.89 -7.95349 -4.982 0
M  V30 4854 C 634.43 -6.94612 -5.98974 0
M  V30 4855 O 633.374 -6.10347 -6.11815 0
M  V30 4856 C 635.648 -6.11426 -5.62335 0
M  V30 4857 O 636.386 -5.6162 -6.70584 0
M  V30 4858 C 634.979 -5.04409 -4.73308 0
M  V30 4859 O 635.778 -3.85992 -4.75183 0
M  V30 4860 C 633.642 -4.8728 -5.41006 0
M  V30 4861 H 633.674 -4.02333 -6.11157 0
M  V30 4862 H 634.857 -5.39466 -3.69543 0
M  V30 4863 H 636.341 -6.71916 -5.01943 0
M  V30 4864 H 634.647 -7.4649 -6.93477 0
M  V30 4865 H 634.457 -8.89416 -5.05237 0
M  V30 4866 H 632.827 -8.14876 -5.18409 0
M  V30 4867 H 635.466 -3.27957 -5.4317 0
M  V30 4868 P 637.323 -5.75688 -6.64379 0
M  V30 4869 O 638.744 -6.07692 -7.0558 0
M  V30 4870 O 636.963 -5.88047 -5.19722 0
M  V30 4871 O 637 -4.2322 -7.04443 0
M  V30 4872 C 636.839 -3.99785 -8.49201 0
M  V30 4873 C 637.38 -2.60516 -8.79425 0
M  V30 4874 O 636.325 -1.82663 -8.44573 0
M  V30 4875 C 638.598 -2.10343 -8.03628 0
M  V30 4876 O 639.336 -1.09919 -8.67766 0
M  V30 4877 C 637.93 -1.68446 -6.70876 0
M  V30 4878 O 638.728 -0.684109 -6.08265 0
M  V30 4879 C 636.592 -1.17436 -7.18567 0
M  V30 4880 N 635.549 -1.52699 -6.23988 0
M  V30 4881 C 635.718 -2.578 -5.40574 0
M  V30 4882 N 634.691 -2.78966 -4.61193 0
M  V30 4883 C 633.806 -1.78725 -4.95769 0
M  V30 4884 C 632.539 -1.45727 -4.44207 0
M  V30 4885 N 631.974 -0.374977 -5.05812 0
M  V30 4886 C 632.576 0.345585 -6.05615 0
M  V30 4887 N 633.753 0.0787651 -6.56253 0
M  V30 4888 C 634.328 -1.00499 -5.96189 0
M  V30 4889 H 637.807 -2.53396 -6.02698 0
M  V30 4890 H 639.29 -2.93881 -7.85526 0
M  V30 4891 H 637.596 -2.52078 -9.87225 0
M  V30 4892 H 637.406 -4.75072 -9.05887 0
M  V30 4893 H 635.776 -4.05244 -8.76668 0
M  V30 4894 H 636.618 -3.18977 -5.3945 0
M  V30 4895 H 638.416 0.177619 -6.34151 0
M  V30 4896 P 640.274 -1.25109 -8.70152 0
M  V30 4897 O 641.696 -1.29744 -9.22016 0
M  V30 4898 O 639.914 -2.13714 -7.55141 0
M  V30 4899 O 639.951 0.248149 -8.21425 0
M  V30 4900 C 639.791 1.22779 -9.30434 0
M  V30 4901 C 640.331 2.56293 -8.80664 0
M  V30 4902 O 639.275 3.02979 -8.09349 0
M  V30 4903 C 641.549 2.57523 -7.89775 0
M  V30 4904 O 642.287 3.7668 -7.89438 0
M  V30 4905 C 640.88 2.20997 -6.55446 0
M  V30 4906 O 641.679 2.71895 -5.48509 0
M  V30 4907 C 639.543 2.89693 -6.67988 0
M  V30 4908 H 639.575 3.88793 -6.19859 0
M  V30 4909 H 640.758 1.12046 -6.44229 0
M  V30 4910 H 642.242 1.7746 -8.19711 0
M  V30 4911 H 640.548 3.20706 -9.67112 0
M  V30 4912 H 640.358 0.901032 -10.1892 0
M  V30 4913 H 638.728 1.33049 -9.56592 0
M  V30 4914 H 641.367 3.57847 -5.23962 0
M  V30 4915 P 643.224 3.65191 -7.99657 0
M  V30 4916 O 644.646 3.89332 -8.45794 0
M  V30 4917 O 642.864 2.28472 -7.50807 0
M  V30 4918 O 642.901 4.64972 -6.77611 0
M  V30 4919 C 642.741 6.06319 -7.16352 0
M  V30 4920 C 643.281 6.91731 -6.02299 0
M  V30 4921 O 642.225 6.92449 -5.17064 0
M  V30 4922 C 644.499 6.43627 -5.25174 0
M  V30 4923 O 645.237 7.43686 -4.60469 0
M  V30 4924 C 643.83 5.40275 -4.31916 0
M  V30 4925 O 644.629 5.25279 -3.14438 0
M  V30 4926 C 642.493 6.04847 -4.05327 0
M  V30 4927 H 642.525 6.62195 -3.11261 0
M  V30 4928 H 643.708 4.42556 -4.81383 0
M  V30 4929 H 645.192 5.92458 -5.93643 0
M  V30 4930 H 643.498 7.92655 -6.402 0
M  V30 4931 H 643.308 6.26671 -8.0846 0
M  V30 4932 H 641.678 6.29101 -7.32804 0
M  V30 4933 H 644.317 5.84315 -2.47318 0
M  V30 4934 P 646.175 7.39546 -4.75277 0
M  V30 4935 O 647.597 7.84798 -5.01039 0
M  V30 4936 O 645.815 5.9812 -5.08098 0
M  V30 4937 O 645.852 7.57503 -3.1866 0
M  V30 4938 C 645.692 8.97357 -2.74833 0
M  V30 4939 C 646.232 9.07548 -1.32709 0
M  V30 4940 O 645.176 8.62072 -0.606159 0
M  V30 4941 C 647.45 8.25383 -0.938334 0
M  V30 4942 O 648.188 8.74577 0.146954 0
M  V30 4943 C 646.781 6.8802 -0.712559 0
M  V30 4944 O 647.58 6.1189 0.194655 0
M  V30 4945 C 645.444 7.27966 -0.139777 0
M  V30 4946 H 645.476 7.25354 0.961601 0
M  V30 4947 H 646.659 6.32557 -1.65702 0
M  V30 4948 H 648.143 8.19355 -1.79097 0
M  V30 4949 H 646.449 10.1294 -1.10029 0
M  V30 4950 H 646.259 9.64276 -3.41316 0
M  V30 4951 H 644.629 9.25417 -2.76357 0
M  V30 4952 H 647.268 6.25267 1.07847 0
M  V30 4953 P 649.125 8.791 4.45433e-12 0
M  V30 4954 O 650.547 9.31096 0.027933 0
M  V30 4955 O 648.765 7.77869 -1.04071 0
M  V30 4956 O 648.802 8.09533 1.41463 0
M  V30 4957 C 648.642 9.0349 2.53943 0
M  V30 4958 C 649.182 8.35226 3.79016 0
M  V30 4959 O 648.126 7.57992 4.15078 0
M  V30 4960 C 650.4 7.45087 3.67298 0
M  V30 4961 O 651.138 7.27796 4.85194 0
M  V30 4962 C 649.731 6.17323 3.12027 0
M  V30 4963 O 650.53 5.04231 3.47188 0
M  V30 4964 C 648.394 6.19961 3.81809 0
M  V30 4965 H 648.426 5.58218 4.73051 0
M  V30 4966 H 649.609 6.21726 2.02589 0
M  V30 4967 H 651.093 7.86112 2.9231 0
M  V30 4968 H 649.399 9.11627 4.55076 0
M  V30 4969 H 649.209 9.9573 2.34194 0
M  V30 4970 H 647.579 9.2792 2.67832 0
M  V30 4971 H 650.218 4.67702 4.28772 0
M  V30 4972 P 652.076 7.39546 4.75277 0
M  V30 4973 O 653.498 7.81777 5.05738 0
M  V30 4974 O 651.716 7.1065 3.32998 0
M  V30 4975 O 651.753 6.04542 5.56673 0
M  V30 4976 C 651.593 6.22772 7.02095 0
M  V30 4977 C 652.133 4.97725 7.70406 0
M  V30 4978 O 651.077 4.13256 7.58987 0
M  V30 4979 C 653.351 4.28231 7.11815 0
M  V30 4980 O 654.089 3.49945 8.01648 0
M  V30 4981 C 652.682 3.5063 5.96244 0
M  V30 4982 O 653.481 2.36482 5.64681 0
M  V30 4983 C 651.345 3.15122 6.56374 0
M  V30 4984 H 651.377 2.13853 6.99751 0
M  V30 4985 H 652.56 4.13501 5.06559 0
M  V30 4986 H 654.044 5.03285 6.70911 0
M  V30 4987 H 652.35 5.20877 8.75697 0
M  V30 4988 H 652.16 7.11046 7.35349 0
M  V30 4989 H 650.53 6.35815 7.26986 0
M  V30 4990 H 653.169 1.61644 6.13565 0
M  V30 4991 P 655.027 3.65191 7.99657 0
M  V30 4992 O 656.448 3.84292 8.48206 0
M  V30 4993 O 654.667 4.17805 6.64342 0
M  V30 4994 O 654.704 2.07613 7.95143 0
M  V30 4995 C 654.543 1.44344 9.27435 0
M  V30 4996 C 655.084 0.0220036 9.17197 0
M  V30 4997 O 654.029 -0.626794 8.61824 0
M  V30 4998 C 656.302 -0.24586 8.30336 0
M  V30 4999 O 657.04 -1.39011 8.63583 0
M  V30 5000 C 655.634 -0.273849 6.91158 0
M  V30 5001 O 656.432 -1.05728 6.029 0
M  V30 5002 C 654.296 -0.897649 7.22545 0
M  V30 5003 N 653.253 -0.292839 6.41732 0
M  V30 5004 C 653.422 0.950603 5.91308 0
M  V30 5005 N 652.395 1.37732 5.21105 0
M  V30 5006 C 651.51 0.318109 5.26039 0
M  V30 5007 C 650.243 0.146766 4.6727 0
M  V30 5008 N 649.644 1.08519 3.89983 0
M  V30 5009 N 649.678 -1.06525 4.95887 0
M  V30 5010 C 650.28 -2.0378 5.71347 0
M  V30 5011 N 651.457 -1.92445 6.27451 0
M  V30 5012 C 652.032 -0.715382 6.00353 0
M  V30 5013 H 654.328 -1.98383 7.04189 0
M  V30 5014 H 655.511 0.733318 6.49674 0
M  V30 5015 H 656.994 0.60668 8.36503 0
M  V30 5016 H 655.3 -0.362662 10.1825 0
M  V30 5017 H 655.11 2.00611 10.0304 0
M  V30 5018 H 653.48 1.41843 9.55327 0
M  V30 5019 H 649.744 -2.97041 5.85344 0
M  V30 5020 H 654.322 1.54076 6.07465 0
M  V30 5021 H 648.714 0.901517 3.49562 0
M  V30 5022 H 650.118 1.97957 3.71669 0
M  V30 5023 H 656.12 -1.95704 6.0346 0
M  V30 5024 P 657.977 -1.25109 8.70152 0
M  V30 5025 O 659.399 -1.35274 9.21221 0
M  V30 5026 O 657.617 -0.0769065 7.84762 0
M  V30 5027 O 657.654 -2.55232 7.81161 0
M  V30 5028 C 657.494 -3.79939 8.58154 0
M  V30 5029 C 658.034 -4.94023 7.72785 0
M  V30 5030 O 656.978 -5.18726 6.91205 0
M  V30 5031 C 659.252 -4.69597 6.85231 0
M  V30 5032 O 659.99 -5.83832 6.51337 0
M  V30 5033 C 658.583 -3.96706 5.66633 0
M  V30 5034 O 659.382 -4.15414 4.49689 0
M  V30 5035 C 657.246 -4.66153 5.59313 0
M  V30 5036 H 657.278 -5.47679 4.85214 0
M  V30 5037 H 658.461 -2.89008 5.86566 0
M  V30 5038 H 659.945 -4.0121 7.36511 0
M  V30 5039 H 658.251 -5.80182 8.37584 0
M  V30 5040 H 658.061 -3.73517 9.52265 0
M  V30 5041 H 656.431 -3.97163 8.80359 0
M  V30 5042 H 659.07 -4.90969 4.01921 0
M  V30 5043 P 660.928 -5.75688 6.64379 0
M  V30 5044 O 662.35 -6.11981 7.01997 0
M  V30 5045 O 660.568 -4.30744 6.56026 0
M  V30 5046 O 660.605 -6.37042 5.19165 0
M  V30 5047 C 660.445 -7.83578 5.16515 0
M  V30 5048 C 660.985 -8.33307 3.82977 0
M  V30 5049 O 659.93 -8.10074 3.01034 0
M  V30 5050 C 662.203 -7.65514 3.2257 0
M  V30 5051 O 662.941 -8.4329 2.32297 0
M  V30 5052 C 661.535 -6.40075 2.62207 0
M  V30 5053 O 662.333 -5.92492 1.53687 0
M  V30 5054 C 660.197 -6.9454 2.18503 0
M  V30 5055 N 659.154 -5.95905 2.39948 0
M  V30 5056 C 659.216 -5.13994 3.44742 0
M  V30 5057 N 658.171 -4.30684 3.46712 0
M  V30 5058 C 657.437 -4.65583 2.41086 0
M  V30 5059 C 656.131 -4.20877 1.99581 0
M  V30 5060 O 655.398 -3.35913 2.52616 0
M  V30 5061 N 655.701 -4.83271 0.873406 0
M  V30 5062 C 656.45 -5.82006 0.185129 0
M  V30 5063 N 655.853 -6.30619 -0.95439 0
M  V30 5064 N 657.603 -6.28443 0.578524 0
M  V30 5065 C 658.06 -5.68486 1.70138 0
M  V30 5066 H 660.229 -7.23063 1.12091 0
M  V30 5067 H 661.412 -5.60165 3.3715 0
M  V30 5068 H 662.897 -7.3611 4.01946 0
M  V30 5069 H 661.202 -9.40912 3.9095 0
M  V30 5070 H 661.012 -8.29056 5.99158 0
M  V30 5071 H 659.381 -8.10073 5.25882 0
M  V30 5072 H 654.805 -4.58323 0.505262 0
M  V30 5073 H 660.012 -5.14564 4.1935 0
M  V30 5074 H 654.942 -5.93402 -1.25364 0
M  V30 5075 H 656.318 -7.0425 -1.50254 0
M  V30 5076 H 662.022 -6.30224 0.72668 0
M  V30 5077 P 663.878 -8.4349 2.47671 0
M  V30 5078 O 665.3 -8.94167 2.5964 0
M  V30 5079 O 663.518 -7.1704 3.19006 0
M  V30 5080 O 663.555 -8.16596 0.923387 0
M  V30 5081 C 663.395 -9.38437 0.108857 0
M  V30 5082 C 663.935 -9.08175 -1.28353 0
M  V30 5083 O 662.879 -8.44229 -1.84713 0
M  V30 5084 C 665.153 -8.18386 -1.42505 0
M  V30 5085 O 665.891 -8.3501 -2.60497 0
M  V30 5086 C 664.484 -6.80225 -1.25468 0
M  V30 5087 O 665.283 -5.81621 -1.91066 0
M  V30 5088 C 663.147 -7.02416 -1.9168 0
M  V30 5089 H 663.179 -6.6888 -2.96621 0
M  V30 5090 H 664.362 -6.53617 -0.192223 0
M  V30 5091 H 665.846 -8.36622 -0.589963 0
M  V30 5092 H 664.152 -10.0291 -1.79807 0
M  V30 5093 H 663.962 -10.2138 0.558219 0
M  V30 5094 H 662.332 -9.6579 0.0444202 0
M  V30 5095 H 664.971 -5.69556 -2.79637 0
M  V30 5096 P 666.829 -8.4349 -2.47671 0
M  V30 5097 O 668.251 -8.92593 -2.65 0
M  V30 5098 O 666.469 -7.7568 -1.19296 0
M  V30 5099 O 666.506 -7.36886 -3.63805 0
M  V30 5100 C 666.346 -7.95349 -4.982 0
M  V30 5101 C 666.886 -6.94612 -5.98974 0
M  V30 5102 O 665.83 -6.10347 -6.11815 0
M  V30 5103 C 668.104 -6.11426 -5.62335 0
M  V30 5104 O 668.842 -5.6162 -6.70584 0
M  V30 5105 C 667.435 -5.04409 -4.73308 0
M  V30 5106 O 668.234 -3.85992 -4.75183 0
M  V30 5107 C 666.098 -4.8728 -5.41006 0
M  V30 5108 H 666.13 -4.02333 -6.11157 0
M  V30 5109 H 667.313 -5.39466 -3.69543 0
M  V30 5110 H 668.797 -6.71916 -5.01943 0
M  V30 5111 H 667.103 -7.4649 -6.93477 0
M  V30 5112 H 666.913 -8.89416 -5.05237 0
M  V30 5113 H 665.283 -8.14876 -5.18409 0
M  V30 5114 H 667.922 -3.27957 -5.4317 0
M  V30 5115 P 669.779 -5.75688 -6.64379 0
M  V30 5116 O 671.2 -6.07692 -7.0558 0
M  V30 5117 O 669.419 -5.88047 -5.19722 0
M  V30 5118 O 669.456 -4.2322 -7.04443 0
M  V30 5119 C 669.295 -3.99785 -8.49201 0
M  V30 5120 C 669.836 -2.60516 -8.79425 0
M  V30 5121 O 668.781 -1.82663 -8.44573 0
M  V30 5122 C 671.054 -2.10343 -8.03628 0
M  V30 5123 O 671.792 -1.09919 -8.67766 0
M  V30 5124 C 670.386 -1.68446 -6.70876 0
M  V30 5125 O 671.184 -0.684109 -6.08265 0
M  V30 5126 C 669.048 -1.17436 -7.18567 0
M  V30 5127 N 668.005 -1.52699 -6.23988 0
M  V30 5128 C 668.174 -2.578 -5.40574 0
M  V30 5129 N 667.147 -2.78966 -4.61193 0
M  V30 5130 C 666.262 -1.78725 -4.95769 0
M  V30 5131 C 664.995 -1.45727 -4.44207 0
M  V30 5132 N 664.396 -2.13994 -3.43613 0
M  V30 5133 N 664.43 -0.374977 -5.05812 0
M  V30 5134 C 665.032 0.345585 -6.05615 0
M  V30 5135 N 666.209 0.0787651 -6.56253 0
M  V30 5136 C 666.784 -1.00499 -5.96189 0
M  V30 5137 H 669.08 -0.0804622 -7.31556 0
M  V30 5138 H 670.263 -2.53396 -6.02698 0
M  V30 5139 H 671.746 -2.93881 -7.85526 0
M  V30 5140 H 670.052 -2.52078 -9.87225 0
M  V30 5141 H 669.862 -4.75072 -9.05887 0
M  V30 5142 H 668.232 -4.05244 -8.76668 0
M  V30 5143 H 664.496 1.20098 -6.4532 0
M  V30 5144 H 669.074 -3.18977 -5.3945 0
M  V30 5145 H 663.466 -1.84983 -3.10004 0
M  V30 5146 H 664.87 -2.9465 -3.00843 0
M  V30 5147 H 670.872 0.177619 -6.34151 0
M  V30 5148 P 672.73 -1.25109 -8.70152 0
M  V30 5149 O 674.152 -1.29744 -9.22016 0
M  V30 5150 O 672.37 -2.13714 -7.55141 0
M  V30 5151 O 672.407 0.248149 -8.21425 0
M  V30 5152 C 672.247 1.22779 -9.30434 0
M  V30 5153 C 672.787 2.56293 -8.80664 0
M  V30 5154 O 671.731 3.02979 -8.09349 0
M  V30 5155 C 674.005 2.57523 -7.89775 0
M  V30 5156 O 674.743 3.7668 -7.89438 0
M  V30 5157 C 673.336 2.20997 -6.55446 0
M  V30 5158 O 674.135 2.71895 -5.48509 0
M  V30 5159 C 671.999 2.89693 -6.67988 0
M  V30 5160 H 672.031 3.88793 -6.19859 0
M  V30 5161 H 673.214 1.12046 -6.44229 0
M  V30 5162 H 674.698 1.7746 -8.19711 0
M  V30 5163 H 673.004 3.20706 -9.67112 0
M  V30 5164 H 672.814 0.901032 -10.1892 0
M  V30 5165 H 671.184 1.33049 -9.56592 0
M  V30 5166 H 673.823 3.57847 -5.23962 0
M  V30 5167 P 675.681 3.65191 -7.99657 0
M  V30 5168 O 677.103 3.89332 -8.45794 0
M  V30 5169 O 675.321 2.28472 -7.50807 0
M  V30 5170 O 675.358 4.64972 -6.77611 0
M  V30 5171 C 675.198 6.06319 -7.16352 0
M  V30 5172 C 675.738 6.91731 -6.02299 0
M  V30 5173 O 674.682 6.92449 -5.17064 0
M  V30 5174 C 676.956 6.43627 -5.25174 0
M  V30 5175 O 677.694 7.43686 -4.60469 0
M  V30 5176 C 676.287 5.40275 -4.31916 0
M  V30 5177 O 677.086 5.25279 -3.14438 0
M  V30 5178 C 674.95 6.04847 -4.05327 0
M  V30 5179 H 674.982 6.62195 -3.11261 0
M  V30 5180 H 676.165 4.42556 -4.81383 0
M  V30 5181 H 677.649 5.92458 -5.93643 0
M  V30 5182 H 675.955 7.92655 -6.402 0
M  V30 5183 H 675.765 6.26671 -8.0846 0
M  V30 5184 H 674.135 6.29101 -7.32804 0
M  V30 5185 H 676.774 5.84315 -2.47318 0
M  V30 5186 P 678.631 7.39546 -4.75277 0
M  V30 5187 O 680.052 7.84882 -5.01092 0
M  V30 5188 O 678.271 5.9812 -5.08098 0
M  V30 5189 O 678.308 7.57503 -3.1866 0
M  V30 5190 C 678.147 8.97452 -2.74862 0
M  V30 5191 C 678.688 9.07548 -1.32709 0
M  V30 5192 O 677.633 8.61972 -0.606089 0
M  V30 5193 C 679.906 8.25383 -0.938334 0
M  V30 5194 O 680.644 8.74577 0.146954 0
M  V30 5195 C 679.238 6.8802 -0.712559 0
M  V30 5196 O 680.036 6.1181 0.188505 0
M  V30 5197 C 677.9 7.27966 -0.139777 0
M  V30 5198 N 676.857 6.39368 -0.623421 0
M  V30 5199 C 677.026 5.71761 -1.78245 0
M  V30 5200 N 675.999 4.962 -2.10491 0
M  V30 5201 C 675.114 5.16158 -1.0635 0
M  V30 5202 C 673.847 4.60425 -0.810266 0
M  V30 5203 N 673.282 5.06 0.348685 0
M  V30 5204 C 673.884 5.94532 1.20395 0
M  V30 5205 N 675.061 6.48452 1.01191 0
M  V30 5206 C 675.636 6.04423 -0.146291 0
M  V30 5207 H 679.115 6.32625 -1.65044 0
M  V30 5208 H 680.598 8.19355 -1.79097 0
M  V30 5209 H 678.904 10.1305 -1.09016 0
M  V30 5210 H 678.714 9.64276 -3.41316 0
M  V30 5211 H 677.084 9.25417 -2.76357 0
M  V30 5212 H 677.926 5.79354 -2.38959 0
M  V30 5213 H 679.724 6.25169 1.0783 0
M  V30 5214 P 681.582 8.791 4.7645e-12 0
M  V30 5215 O 683.003 9.31196 0.027936 0
M  V30 5216 O 681.222 7.77869 -1.04071 0
M  V30 5217 O 681.259 8.09533 1.41463 0
M  V30 5218 C 681.098 9.03587 2.5397 0
M  V30 5219 C 681.639 8.35226 3.79016 0
M  V30 5220 O 680.584 7.57904 4.1503 0
M  V30 5221 C 682.857 7.45087 3.67298 0
M  V30 5222 O 683.595 7.27796 4.85194 0
M  V30 5223 C 682.189 6.17323 3.12027 0
M  V30 5224 O 682.987 5.04496 3.46627 0
M  V30 5225 C 680.851 6.19961 3.81809 0
M  V30 5226 N 679.808 5.71575 2.93223 0
M  V30 5227 C 679.977 5.77362 1.59168 0
M  V30 5228 N 678.95 5.3123 0.911893 0
M  V30 5229 C 678.065 4.91717 1.89588 0
M  V30 5230 C 676.798 4.3114 1.8076 0
M  V30 5231 N 676.199 3.99821 0.632928 0
M  V30 5232 N 676.233 4.06823 3.02898 0
M  V30 5233 C 676.835 4.35062 4.22711 0
M  V30 5234 N 678.012 4.90805 4.35707 0
M  V30 5235 C 678.587 5.16382 3.14469 0
M  V30 5236 H 680.883 5.58142 4.72986 0
M  V30 5237 H 682.066 6.21428 2.0318 0
M  V30 5238 H 683.549 7.86112 2.9231 0
M  V30 5239 H 681.855 9.11171 4.55987 0
M  V30 5240 H 681.665 9.9573 2.34194 0
M  V30 5241 H 680.035 9.2792 2.67832 0
M  V30 5242 H 676.299 4.09052 5.13359 0
M  V30 5243 H 680.877 6.16575 1.12198 0
M  V30 5244 H 675.269 3.55423 0.632085 0
M  V30 5245 H 676.673 4.20317 -0.256712 0
M  V30 5246 H 682.675 4.67628 4.28704 0
M  V30 5247 P 684.532 7.39546 4.75277 0
M  V30 5248 O 685.954 7.81777 5.05738 0
M  V30 5249 O 684.172 7.1065 3.32998 0
M  V30 5250 O 684.209 6.04542 5.56673 0
M  V30 5251 C 684.049 6.22772 7.02095 0
M  V30 5252 C 684.589 4.97725 7.70406 0
M  V30 5253 O 683.533 4.13256 7.58987 0
M  V30 5254 C 685.807 4.28231 7.11815 0
M  V30 5255 O 686.545 3.49945 8.01648 0
M  V30 5256 C 685.138 3.5063 5.96244 0
M  V30 5257 O 685.937 2.36482 5.64681 0
M  V30 5258 C 683.801 3.15122 6.56374 0
M  V30 5259 H 683.833 2.13853 6.99751 0
M  V30 5260 H 685.016 4.13501 5.06559 0
M  V30 5261 H 686.5 5.03285 6.70911 0
M  V30 5262 H 684.806 5.20877 8.75697 0
M  V30 5263 H 684.616 7.11046 7.35349 0
M  V30 5264 H 682.986 6.35815 7.26986 0
M  V30 5265 H 685.625 1.61644 6.13565 0
M  V30 5266 P 687.483 3.65191 7.99657 0
M  V30 5267 O 688.905 3.8425 8.48115 0
M  V30 5268 O 687.123 4.17805 6.64342 0
M  V30 5269 O 687.16 2.07613 7.95143 0
M  V30 5270 C 687 1.44328 9.27336 0
M  V30 5271 C 687.54 0.0220036 9.17197 0
M  V30 5272 O 686.484 -0.626867 8.61923 0
M  V30 5273 C 688.758 -0.24586 8.30336 0
M  V30 5274 O 689.496 -1.39011 8.63583 0
M  V30 5275 C 688.089 -0.273849 6.91158 0
M  V30 5276 O 688.888 -1.06348 6.02892 0
M  V30 5277 C 686.752 -0.897649 7.22545 0
M  V30 5278 H 686.784 -1.9841 7.04286 0
M  V30 5279 H 687.967 0.739928 6.497 0
M  V30 5280 H 689.451 0.60668 8.36503 0
M  V30 5281 H 687.757 -0.352479 10.1829 0
M  V30 5282 H 687.567 2.00611 10.0304 0
M  V30 5283 H 685.937 1.41843 9.55327 0
M  V30 5284 H 688.576 -1.95734 6.03555 0
M  V30 5285 P 690.433 -1.25109 8.70152 0
M  V30 5286 O 691.854 -1.35288 9.2132 0
M  V30 5287 O 690.073 -0.0769065 7.84762 0
M  V30 5288 O 690.11 -2.55232 7.81161 0
M  V30 5289 C 689.949 -3.79979 8.58246 0
M  V30 5290 C 690.49 -4.94023 7.72785 0
M  V30 5291 O 689.435 -5.18666 6.91125 0
M  V30 5292 C 691.708 -4.69597 6.85231 0
M  V30 5293 O 692.446 -5.83832 6.51337 0
M  V30 5294 C 691.04 -3.96706 5.66633 0
M  V30 5295 O 691.838 -4.14896 4.5003 0
M  V30 5296 C 689.702 -4.66153 5.59313 0
M  V30 5297 N 688.659 -3.71582 5.24027 0
M  V30 5298 C 688.828 -2.39715 5.48833 0
M  V30 5299 N 687.801 -1.65863 5.12845 0
M  V30 5300 C 686.916 -2.57637 4.5973 0
M  V30 5301 C 685.649 -2.40278 4.01027 0
M  V30 5302 N 685.05 -1.19549 3.86744 0
M  V30 5303 N 685.084 -3.57711 3.59575 0
M  V30 5304 C 685.686 -4.80324 3.70476 0
M  V30 5305 N 686.863 -5.01121 4.23801 0
M  V30 5306 C 687.438 -3.84757 4.66372 0
M  V30 5307 H 689.734 -5.47604 4.85148 0
M  V30 5308 H 690.917 -2.8955 5.86187 0
M  V30 5309 H 692.4 -4.0121 7.36511 0
M  V30 5310 H 690.706 -5.81019 8.37003 0
M  V30 5311 H 690.516 -3.73517 9.52265 0
M  V30 5312 H 688.886 -3.97163 8.80359 0
M  V30 5313 H 685.15 -5.66348 3.3183 0
M  V30 5314 H 689.728 -1.98804 5.94332 0
M  V30 5315 H 684.12 -1.13147 3.4281 0
M  V30 5316 H 685.524 -0.344074 4.19692 0
M  V30 5317 H 691.526 -4.90891 4.01857 0
M  V30 5318 P 693.384 -5.75688 6.64379 0
M  V30 5319 O 694.805 -6.11915 7.01921 0
M  V30 5320 O 693.024 -4.30744 6.56026 0
M  V30 5321 O 693.061 -6.37042 5.19165 0
M  V30 5322 C 692.9 -7.83662 5.1657 0
M  V30 5323 C 693.441 -8.33398 3.83019 0
M  V30 5324 O 692.386 -8.0998 3.00999 0
M  V30 5325 C 694.659 -7.65514 3.2257 0
M  V30 5326 O 695.397 -8.4329 2.32297 0
M  V30 5327 C 693.991 -6.40075 2.62207 0
M  V30 5328 O 694.789 -5.92338 1.5428 0
M  V30 5329 C 692.653 -6.9454 2.18503 0
M  V30 5330 N 691.61 -5.95905 2.39948 0
M  V30 5331 C 691.779 -4.98383 3.32108 0
M  V30 5332 N 690.752 -4.16798 3.41761 0
M  V30 5333 C 689.867 -4.65287 2.47461 0
M  V30 5334 C 688.6 -4.18946 2.07461 0
M  V30 5335 N 688.035 -4.95327 1.09101 0
M  V30 5336 C 688.637 -6.04369 0.519812 0
M  V30 5337 N 689.814 -6.50694 0.855982 0
M  V30 5338 C 690.389 -5.75818 1.84322 0
M  V30 5339 H 693.868 -5.60502 3.36589 0
M  V30 5340 H 695.351 -7.35707 4.02681 0
M  V30 5341 H 693.657 -9.41302 3.90009 0
M  V30 5342 H 693.467 -8.29056 5.99158 0
M  V30 5343 H 691.837 -8.10073 5.25882 0
M  V30 5344 H 692.679 -4.88564 3.92502 0
M  V30 5345 H 694.477 -6.30224 0.72668 0
M  V30 5346 P 696.335 -8.4349 2.47671 0
M  V30 5347 O 697.757 -8.94359 2.59696 0
M  V30 5348 O 695.975 -7.1704 3.19006 0
M  V30 5349 O 696.012 -8.16596 0.923387 0
M  V30 5350 C 695.852 -9.38437 0.108857 0
M  V30 5351 C 696.392 -9.08076 -1.28339 0
M  V30 5352 O 695.337 -8.44229 -1.84713 0
M  V30 5353 C 697.61 -8.18386 -1.42505 0
M  V30 5354 O 698.348 -8.3501 -2.60497 0
M  V30 5355 C 696.942 -6.80225 -1.25468 0
M  V30 5356 O 697.74 -5.81526 -1.91035 0
M  V30 5357 C 695.604 -7.02416 -1.9168 0
M  V30 5358 N 694.561 -6.31033 -1.20314 0
M  V30 5359 C 694.623 -6.18781 0.121293 0
M  V30 5360 N 693.578 -5.49762 0.588272 0
M  V30 5361 C 692.844 -5.22015 -0.488988 0
M  V30 5362 C 691.538 -4.61966 -0.596448 0
M  V30 5363 O 690.805 -4.19162 0.309059 0
M  V30 5364 N 691.108 -4.53773 -1.878 0
M  V30 5365 C 691.857 -4.99623 -2.99082 0
M  V30 5366 N 691.26 -4.78912 -4.21227 0
M  V30 5367 N 693.01 -5.59957 -2.91093 0
M  V30 5368 C 693.467 -5.70225 -1.64218 0
M  V30 5369 H 695.636 -6.6888 -2.96621 0
M  V30 5370 H 696.819 -6.53517 -0.192194 0
M  V30 5371 H 698.304 -8.36563 -0.598329 0
M  V30 5372 H 696.609 -10.0291 -1.79807 0
M  V30 5373 H 696.419 -10.2138 0.558219 0
M  V30 5374 H 694.788 -9.6579 0.0444202 0
M  V30 5375 H 690.212 -4.12883 -2.05283 0
M  V30 5376 H 695.419 -6.59596 0.745856 0
M  V30 5377 H 690.349 -4.31425 -4.2628 0
M  V30 5378 H 691.725 -5.11219 -5.07148 0
M  V30 5379 H 697.429 -5.69466 -2.79593 0
M  V30 5380 P 699.285 -8.4349 -2.47671 0
M  V30 5381 O 700.707 -8.92593 -2.65 0
M  V30 5382 O 698.925 -7.7568 -1.19296 0
M  V30 5383 O 698.962 -7.36886 -3.63805 0
M  V30 5384 C 698.802 -7.95349 -4.982 0
M  V30 5385 C 699.342 -6.94612 -5.98974 0
M  V30 5386 O 698.286 -6.10347 -6.11815 0
M  V30 5387 C 700.56 -6.11426 -5.62335 0
M  V30 5388 O 701.298 -5.6162 -6.70584 0
M  V30 5389 C 699.891 -5.04409 -4.73308 0
M  V30 5390 O 700.69 -3.85992 -4.75183 0
M  V30 5391 C 698.554 -4.8728 -5.41006 0
M  V30 5392 H 698.586 -4.02333 -6.11157 0
M  V30 5393 H 699.769 -5.39466 -3.69543 0
M  V30 5394 H 701.253 -6.71916 -5.01943 0
M  V30 5395 H 699.559 -7.4649 -6.93477 0
M  V30 5396 H 699.369 -8.89416 -5.05237 0
M  V30 5397 H 697.739 -8.14876 -5.18409 0
M  V30 5398 H 700.378 -3.27957 -5.4317 0
M  V30 5399 P 702.236 -5.75688 -6.64379 0
M  V30 5400 O 703.658 -6.07627 -7.05504 0
M  V30 5401 O 701.876 -5.88047 -5.19722 0
M  V30 5402 O 701.913 -4.2322 -7.04443 0
M  V30 5403 C 701.753 -3.99743 -8.4911 0
M  V30 5404 C 702.293 -2.60516 -8.79425 0
M  V30 5405 O 701.237 -1.82684 -8.4467 0
M  V30 5406 C 703.511 -2.10343 -8.03628 0
M  V30 5407 O 704.249 -1.09919 -8.67766 0
M  V30 5408 C 702.842 -1.68446 -6.70876 0
M  V30 5409 O 703.641 -0.678137 -6.08433 0
M  V30 5410 C 701.505 -1.17436 -7.18567 0
M  V30 5411 H 701.537 -0.0804732 -7.31656 0
M  V30 5412 H 702.72 -2.54037 -6.02537 0
M  V30 5413 H 704.204 -2.93881 -7.85526 0
M  V30 5414 H 702.51 -2.53065 -9.86973 0
M  V30 5415 H 702.32 -4.75072 -9.05887 0
M  V30 5416 H 700.69 -4.05244 -8.76668 0
M  V30 5417 H 703.329 0.177647 -6.34251 0
M  V30 5418 P 705.186 -1.25109 -8.70152 0
M  V30 5419 O 706.608 -1.29744 -9.22016 0
M  V30 5420 O 704.826 -2.13714 -7.55141 0
M  V30 5421 O 704.863 0.248149 -8.21425 0
M  V30 5422 C 704.703 1.22779 -9.30434 0
M  V30 5423 C 705.243 2.56293 -8.80664 0
M  V30 5424 O 704.187 3.02979 -8.09349 0
M  V30 5425 C 706.461 2.57523 -7.89775 0
M  V30 5426 O 707.199 3.7668 -7.89438 0
M  V30 5427 C 705.792 2.20997 -6.55446 0
M  V30 5428 O 706.591 2.71895 -5.48509 0
M  V30 5429 C 704.455 2.89693 -6.67988 0
M  V30 5430 H 704.487 3.88793 -6.19859 0
M  V30 5431 H 705.67 1.12046 -6.44229 0
M  V30 5432 H 707.154 1.7746 -8.19711 0
M  V30 5433 H 705.46 3.20706 -9.67112 0
M  V30 5434 H 705.27 0.901032 -10.1892 0
M  V30 5435 H 703.64 1.33049 -9.56592 0
M  V30 5436 H 706.279 3.57847 -5.23962 0
M  V30 5437 P 708.137 3.65191 -7.99657 0
M  V30 5438 O 709.559 3.89332 -8.45794 0
M  V30 5439 O 707.777 2.28472 -7.50807 0
M  V30 5440 O 707.814 4.64972 -6.77611 0
M  V30 5441 C 707.654 6.06319 -7.16352 0
M  V30 5442 C 708.194 6.91731 -6.02299 0
M  V30 5443 O 707.138 6.92449 -5.17064 0
M  V30 5444 C 709.412 6.43627 -5.25174 0
M  V30 5445 O 710.15 7.43686 -4.60469 0
M  V30 5446 C 708.743 5.40275 -4.31916 0
M  V30 5447 O 709.542 5.25279 -3.14438 0
M  V30 5448 C 707.406 6.04847 -4.05327 0
M  V30 5449 H 707.438 6.62195 -3.11261 0
M  V30 5450 H 708.621 4.42556 -4.81383 0
M  V30 5451 H 710.105 5.92458 -5.93643 0
M  V30 5452 H 708.411 7.92655 -6.402 0
M  V30 5453 H 708.221 6.26671 -8.0846 0
M  V30 5454 H 706.591 6.29101 -7.32804 0
M  V30 5455 H 709.23 5.84315 -2.47318 0
M  V30 5456 P 711.087 7.39546 -4.75277 0
M  V30 5457 O 712.509 7.84798 -5.01039 0
M  V30 5458 O 710.727 5.9812 -5.08098 0
M  V30 5459 O 710.764 7.57503 -3.1866 0
M  V30 5460 C 710.604 8.97357 -2.74833 0
M  V30 5461 C 711.144 9.07548 -1.32709 0
M  V30 5462 O 710.088 8.62072 -0.606159 0
M  V30 5463 C 712.362 8.25383 -0.938334 0
M  V30 5464 O 713.1 8.74577 0.146954 0
M  V30 5465 C 711.693 6.8802 -0.712559 0
M  V30 5466 O 712.492 6.1189 0.194655 0
M  V30 5467 C 710.356 7.27966 -0.139777 0
M  V30 5468 H 710.388 7.25354 0.961601 0
M  V30 5469 H 711.571 6.32557 -1.65702 0
M  V30 5470 H 713.055 8.19355 -1.79097 0
M  V30 5471 H 711.361 10.1294 -1.10029 0
M  V30 5472 H 711.171 9.64276 -3.41316 0
M  V30 5473 H 709.541 9.25417 -2.76357 0
M  V30 5474 H 712.18 6.25267 1.07847 0
M  V30 5475 P 714.038 8.791 5.07466e-12 0
M  V30 5476 O 715.46 9.31096 0.027933 0
M  V30 5477 O 713.678 7.77869 -1.04071 0
M  V30 5478 O 713.715 8.09533 1.41463 0
M  V30 5479 C 713.555 9.0349 2.53943 0
M  V30 5480 C 714.095 8.35226 3.79016 0
M  V30 5481 O 713.039 7.57992 4.15078 0
M  V30 5482 C 715.313 7.45087 3.67298 0
M  V30 5483 O 716.051 7.27796 4.85194 0
M  V30 5484 C 714.644 6.17323 3.12027 0
M  V30 5485 O 715.443 5.04231 3.47188 0
M  V30 5486 C 713.307 6.19961 3.81809 0
M  V30 5487 H 713.339 5.58218 4.73051 0
M  V30 5488 H 714.522 6.21726 2.02589 0
M  V30 5489 H 716.006 7.86112 2.9231 0
M  V30 5490 H 714.312 9.11627 4.55076 0
M  V30 5491 H 714.122 9.9573 2.34194 0
M  V30 5492 H 712.492 9.2792 2.67832 0
M  V30 5493 H 715.131 4.67702 4.28772 0
M  V30 5494 P 716.989 7.39546 4.75277 0
M  V30 5495 O 718.411 7.81777 5.05738 0
M  V30 5496 O 716.629 7.1065 3.32998 0
M  V30 5497 O 716.666 6.04542 5.56673 0
M  V30 5498 C 716.506 6.22772 7.02095 0
M  V30 5499 C 717.046 4.97725 7.70406 0
M  V30 5500 O 715.99 4.13256 7.58987 0
M  V30 5501 C 718.264 4.28231 7.11815 0
M  V30 5502 O 719.002 3.49945 8.01648 0
M  V30 5503 C 717.595 3.5063 5.96244 0
M  V30 5504 O 718.394 2.36482 5.64681 0
M  V30 5505 C 716.258 3.15122 6.56374 0
M  V30 5506 H 716.29 2.13853 6.99751 0
M  V30 5507 H 717.473 4.13501 5.06559 0
M  V30 5508 H 718.957 5.03285 6.70911 0
M  V30 5509 H 717.263 5.20877 8.75697 0
M  V30 5510 H 717.073 7.11046 7.35349 0
M  V30 5511 H 715.443 6.35815 7.26986 0
M  V30 5512 H 718.082 1.61644 6.13565 0
M  V30 5513 P 719.939 3.65191 7.99657 0
M  V30 5514 O 721.361 3.8425 8.48115 0
M  V30 5515 O 719.579 4.17805 6.64342 0
M  V30 5516 O 719.616 2.07613 7.95143 0
M  V30 5517 C 719.456 1.44328 9.27336 0
M  V30 5518 C 719.996 0.0220036 9.17197 0
M  V30 5519 O 718.94 -0.626867 8.61923 0
M  V30 5520 C 721.214 -0.24586 8.30336 0
M  V30 5521 O 721.952 -1.39011 8.63583 0
M  V30 5522 C 720.545 -0.273849 6.91158 0
M  V30 5523 O 721.344 -1.06348 6.02892 0
M  V30 5524 C 719.208 -0.897649 7.22545 0
M  V30 5525 H 719.24 -1.9841 7.04286 0
M  V30 5526 H 720.423 0.739928 6.497 0
M  V30 5527 H 721.907 0.60668 8.36503 0
M  V30 5528 H 720.213 -0.352479 10.1829 0
M  V30 5529 H 720.023 2.00611 10.0304 0
M  V30 5530 H 718.393 1.41843 9.55327 0
M  V30 5531 H 721.032 -1.95734 6.03555 0
M  V30 5532 P 722.89 -1.25109 8.70152 0
M  V30 5533 O 724.312 -1.35274 9.21221 0
M  V30 5534 O 722.53 -0.0769065 7.84762 0
M  V30 5535 O 722.567 -2.55232 7.81161 0
M  V30 5536 C 722.407 -3.79939 8.58154 0
M  V30 5537 C 722.947 -4.94023 7.72785 0
M  V30 5538 O 721.891 -5.18726 6.91205 0
M  V30 5539 C 724.165 -4.69597 6.85231 0
M  V30 5540 O 724.903 -5.83832 6.51337 0
M  V30 5541 C 723.496 -3.96706 5.66633 0
M  V30 5542 O 724.295 -4.15414 4.49689 0
M  V30 5543 C 722.159 -4.66153 5.59313 0
M  V30 5544 H 722.191 -5.47679 4.85214 0
M  V30 5545 H 723.374 -2.89008 5.86566 0
M  V30 5546 H 724.858 -4.0121 7.36511 0
M  V30 5547 H 723.164 -5.80182 8.37584 0
M  V30 5548 H 722.974 -3.73517 9.52265 0
M  V30 5549 H 721.344 -3.97163 8.80359 0
M  V30 5550 H 723.983 -4.90969 4.01921 0
M  V30 5551 P 725.84 -5.75688 6.64379 0
M  V30 5552 O 727.261 -6.11915 7.01921 0
M  V30 5553 O 725.48 -4.30744 6.56026 0
M  V30 5554 O 725.517 -6.37042 5.19165 0
M  V30 5555 C 725.356 -7.83662 5.1657 0
M  V30 5556 C 725.897 -8.33398 3.83019 0
M  V30 5557 O 724.842 -8.0998 3.00999 0
M  V30 5558 C 727.115 -7.65514 3.2257 0
M  V30 5559 O 727.853 -8.4329 2.32297 0
M  V30 5560 C 726.447 -6.40075 2.62207 0
M  V30 5561 O 727.245 -5.92338 1.5428 0
M  V30 5562 C 725.109 -6.9454 2.18503 0
M  V30 5563 N 724.066 -5.95905 2.39948 0
M  V30 5564 C 724.235 -4.98383 3.32108 0
M  V30 5565 N 723.208 -4.16798 3.41761 0
M  V30 5566 C 722.323 -4.65287 2.47461 0
M  V30 5567 C 721.056 -4.18946 2.07461 0
M  V30 5568 N 720.491 -4.95327 1.09101 0
M  V30 5569 C 721.093 -6.04369 0.519812 0
M  V30 5570 N 722.27 -6.50694 0.855982 0
M  V30 5571 C 722.845 -5.75818 1.84322 0
M  V30 5572 H 726.324 -5.60502 3.36589 0
M  V30 5573 H 727.807 -7.35707 4.02681 0
M  V30 5574 H 726.113 -9.41302 3.90009 0
M  V30 5575 H 725.923 -8.29056 5.99158 0
M  V30 5576 H 724.293 -8.10073 5.25882 0
M  V30 5577 H 725.135 -4.88564 3.92502 0
M  V30 5578 H 726.933 -6.30224 0.72668 0
M  V30 5579 P 728.791 -8.4349 2.47671 0
M  V30 5580 O 730.192 -8.98227 2.65696 0
M  V30 5581 O 728.413 -7.20409 3.23964 0
M  V30 5582 O 728.468 -8.16496 0.923275 0
M  V30 5583 C 728.308 -9.38437 0.108857 0
M  V30 5584 C 728.848 -9.08076 -1.28339 0
M  V30 5585 O 727.792 -8.44131 -1.84692 0
M  V30 5586 C 730.065 -8.18386 -1.42505 0
M  V30 5587 O 730.804 -8.3501 -2.60497 0
M  V30 5588 C 729.398 -6.80225 -1.25468 0
M  V30 5589 O 730.196 -5.81526 -1.91035 0
M  V30 5590 C 728.06 -7.02416 -1.9168 0
M  V30 5591 N 727.017 -6.31033 -1.20314 0
M  V30 5592 C 725.982 -5.77149 -1.928 0
M  V30 5593 O 726.021 -5.8521 -3.17729 0
M  V30 5594 N 724.97 -5.15445 -1.27997 0
M  V30 5595 C 725.018 -5.04472 0.0534726 0
M  V30 5596 N 724.008 -4.44183 0.669496 0
M  V30 5597 C 726.114 -5.55244 0.808522 0
M  V30 5598 C 727.08 -6.18542 0.13981 0
M  V30 5599 H 728.092 -6.68789 -2.9658 0
M  V30 5600 H 729.275 -6.53498 -0.198729 0
M  V30 5601 H 730.759 -8.36663 -0.5984 0
M  V30 5602 H 729.065 -10.0273 -1.8081 0
M  V30 5603 H 728.874 -10.2138 0.558219 0
M  V30 5604 H 727.244 -9.6569 0.0444156 0
M  V30 5605 H 726.162 -5.43017 1.88792 0
M  V30 5606 H 727.926 -6.60539 0.686773 0
M  V30 5607 H 723.218 -4.07222 0.12057 0
M  V30 5608 H 724.013 -4.34288 1.69244 0
M  V30 5609 H 729.98 -5.79638 -2.8315 0
M  V30 5610 P 731.741 -8.4349 -2.47671 0
M  V30 5611 O 733.163 -8.92593 -2.65 0
M  V30 5612 O 731.381 -7.7568 -1.19296 0
M  V30 5613 O 731.418 -7.36886 -3.63805 0
M  V30 5614 C 731.258 -7.95349 -4.982 0
M  V30 5615 C 731.798 -6.94612 -5.98974 0
M  V30 5616 O 730.742 -6.10347 -6.11815 0
M  V30 5617 C 733.016 -6.11426 -5.62335 0
M  V30 5618 O 733.754 -5.6162 -6.70584 0
M  V30 5619 C 732.347 -5.04409 -4.73308 0
M  V30 5620 O 733.146 -3.85992 -4.75183 0
M  V30 5621 C 731.01 -4.8728 -5.41006 0
M  V30 5622 H 731.042 -4.02333 -6.11157 0
M  V30 5623 H 732.225 -5.39466 -3.69543 0
M  V30 5624 H 733.709 -6.71916 -5.01943 0
M  V30 5625 H 732.015 -7.4649 -6.93477 0
M  V30 5626 H 731.825 -8.89416 -5.05237 0
M  V30 5627 H 730.195 -8.14876 -5.18409 0
M  V30 5628 H 732.834 -3.27957 -5.4317 0
M  V30 5629 P 734.692 -5.75688 -6.64379 0
M  V30 5630 O 736.114 -6.07758 -7.05656 0
M  V30 5631 O 734.332 -5.88047 -5.19722 0
M  V30 5632 O 734.369 -4.2322 -7.04443 0
M  V30 5633 C 734.209 -3.99743 -8.4911 0
M  V30 5634 C 734.749 -2.60487 -8.79329 0
M  V30 5635 O 733.694 -1.82684 -8.4467 0
M  V30 5636 C 735.967 -2.10343 -8.03628 0
M  V30 5637 O 736.705 -1.09919 -8.67766 0
M  V30 5638 C 735.299 -1.68446 -6.70876 0
M  V30 5639 O 736.097 -0.678026 -6.08333 0
M  V30 5640 C 733.961 -1.17436 -7.18567 0
M  V30 5641 N 732.918 -1.52699 -6.23988 0
M  V30 5642 C 732.98 -2.68084 -5.57824 0
M  V30 5643 N 731.935 -2.8189 -4.75643 0
M  V30 5644 C 731.201 -1.72373 -4.95155 0
M  V30 5645 C 729.895 -1.37653 -4.44996 0
M  V30 5646 O 729.162 -2.02239 -3.68445 0
M  V30 5647 N 729.465 -0.17675 -4.90782 0
M  V30 5648 C 730.214 0.645036 -5.78716 0
M  V30 5649 N 729.617 1.84214 -6.10618 0
M  V30 5650 N 731.367 0.321732 -6.30279 0
M  V30 5651 C 731.824 -0.87502 -5.86913 0
M  V30 5652 H 733.993 -0.0804732 -7.31656 0
M  V30 5653 H 735.176 -2.53998 -6.02444 0
M  V30 5654 H 736.661 -2.93095 -7.8582 0
M  V30 5655 H 734.966 -2.53065 -9.86973 0
M  V30 5656 H 734.776 -4.75072 -9.05887 0
M  V30 5657 H 733.145 -4.05244 -8.76668 0
M  V30 5658 H 728.569 0.152143 -4.60849 0
M  V30 5659 H 733.776 -3.41852 -5.69006 0
M  V30 5660 H 728.706 2.08538 -5.69521 0
M  V30 5661 H 730.082 2.4895 -6.75698 0
M  V30 5662 H 735.786 0.177619 -6.34151 0
M  V30 5663 P 737.643 -1.25109 -8.70152 0
M  V30 5664 O 739.043 -1.3516 -9.26897 0
M  V30 5665 O 737.264 -2.18141 -7.59181 0
M  V30 5666 O 737.32 0.248118 -8.21325 0
M  V30 5667 C 737.16 1.22779 -9.30434 0
M  V30 5668 C 737.7 2.56265 -8.80568 0
M  V30 5669 O 736.644 3.02944 -8.09255 0
M  V30 5670 C 738.917 2.57523 -7.89775 0
M  V30 5671 O 739.656 3.7668 -7.89438 0
M  V30 5672 C 738.25 2.20997 -6.55446 0
M  V30 5673 O 739.048 2.71851 -5.48419 0
M  V30 5674 C 736.912 2.89693 -6.67988 0
M  V30 5675 N 735.869 2.08895 -6.07487 0
M  V30 5676 C 734.834 2.72974 -5.43836 0
M  V30 5677 O 734.873 3.97779 -5.34036 0
M  V30 5678 N 733.822 2.0005 -4.91983 0
M  V30 5679 C 733.87 0.66501 -5.00098 0
M  V30 5680 C 734.966 -0.0100979 -5.61099 0
M  V30 5681 C 735.932 0.74189 -6.14236 0
M  V30 5682 H 736.944 3.8874 -6.19774 0
M  V30 5683 H 738.127 1.12673 -6.44018 0
M  V30 5684 H 739.611 1.783 -8.19631 0
M  V30 5685 H 737.917 3.21673 -9.66791 0
M  V30 5686 H 737.726 0.901032 -10.1892 0
M  V30 5687 H 736.096 1.33036 -9.56493 0
M  V30 5688 H 735.014 -1.09591 -5.64358 0
M  V30 5689 H 736.778 0.260263 -6.6359 0
M  V30 5690 H 738.832 3.62759 -5.33442 0
M  V30 5691 P 740.593 3.65191 -7.99657 0
M  V30 5692 O 742.014 3.89374 -8.45885 0
M  V30 5693 O 740.233 2.28472 -7.50807 0
M  V30 5694 O 740.27 4.64972 -6.77611 0
M  V30 5695 C 740.109 6.06383 -7.16428 0
M  V30 5696 C 740.65 6.91731 -6.02299 0
M  V30 5697 O 739.595 6.92369 -5.17005 0
M  V30 5698 C 741.868 6.43627 -5.25174 0
M  V30 5699 O 742.606 7.43686 -4.60469 0
M  V30 5700 C 741.2 5.40275 -4.31916 0
M  V30 5701 O 741.998 5.24878 -3.14911 0
M  V30 5702 C 739.862 6.04847 -4.05327 0
M  V30 5703 N 738.819 5.04166 -3.98114 0
M  V30 5704 C 738.988 3.84629 -4.59066 0
M  V30 5705 N 737.961 3.0363 -4.45343 0
M  V30 5706 C 737.076 3.76722 -3.68523 0
M  V30 5707 C 735.809 3.43528 -3.17088 0
M  V30 5708 N 735.244 4.44526 -2.44231 0
M  V30 5709 C 735.846 5.65243 -2.20146 0
M  V30 5710 N 737.023 6.00221 -2.65453 0
M  V30 5711 C 737.598 5.00564 -3.39083 0
M  V30 5712 H 741.077 4.42969 -4.80867 0
M  V30 5713 H 742.56 5.92458 -5.93643 0
M  V30 5714 H 740.866 7.93295 -6.39407 0
M  V30 5715 H 740.676 6.26671 -8.0846 0
M  V30 5716 H 739.046 6.29101 -7.32804 0
M  V30 5717 H 739.888 3.58193 -5.14248 0
M  V30 5718 H 741.686 5.84223 -2.47279 0
M  V30 5719 P 743.544 7.39546 -4.75277 0
M  V30 5720 O 744.966 7.84798 -5.01039 0
M  V30 5721 O 743.184 5.9812 -5.08098 0
M  V30 5722 O 743.221 7.57503 -3.1866 0
M  V30 5723 C 743.061 8.97357 -2.74833 0
M  V30 5724 C 743.601 9.07548 -1.32709 0
M  V30 5725 O 742.545 8.62072 -0.606159 0
M  V30 5726 C 744.819 8.25383 -0.938334 0
M  V30 5727 O 745.557 8.74577 0.146954 0
M  V30 5728 C 744.15 6.8802 -0.712559 0
M  V30 5729 O 744.949 6.1189 0.194655 0
M  V30 5730 C 742.813 7.27966 -0.139777 0
M  V30 5731 H 742.845 7.25354 0.961601 0
M  V30 5732 H 744.028 6.32557 -1.65702 0
M  V30 5733 H 745.512 8.19355 -1.79097 0
M  V30 5734 H 743.818 10.1294 -1.10029 0
M  V30 5735 H 743.628 9.64276 -3.41316 0
M  V30 5736 H 741.998 9.25417 -2.76357 0
M  V30 5737 H 744.637 6.25267 1.07847 0
M  V30 5738 P 746.494 8.791 5.38483e-12 0
M  V30 5739 O 747.916 9.31096 0.027933 0
M  V30 5740 O 746.134 7.77869 -1.04071 0
M  V30 5741 O 746.171 8.09533 1.41463 0
M  V30 5742 C 746.011 9.0349 2.53943 0
M  V30 5743 C 746.551 8.35226 3.79016 0
M  V30 5744 O 745.495 7.57992 4.15078 0
M  V30 5745 C 747.769 7.45087 3.67298 0
M  V30 5746 O 748.507 7.27796 4.85194 0
M  V30 5747 C 747.1 6.17323 3.12027 0
M  V30 5748 O 747.899 5.04231 3.47188 0
M  V30 5749 C 745.763 6.19961 3.81809 0
M  V30 5750 H 745.795 5.58218 4.73051 0
M  V30 5751 H 746.978 6.21726 2.02589 0
M  V30 5752 H 748.462 7.86112 2.9231 0
M  V30 5753 H 746.768 9.11627 4.55076 0
M  V30 5754 H 746.578 9.9573 2.34194 0
M  V30 5755 H 744.948 9.2792 2.67832 0
M  V30 5756 H 747.587 4.67702 4.28772 0
M  V30 5757 P 749.445 7.39546 4.75277 0
M  V30 5758 O 750.867 7.81777 5.05738 0
M  V30 5759 O 749.085 7.1065 3.32998 0
M  V30 5760 O 749.122 6.04542 5.56673 0
M  V30 5761 C 748.962 6.22772 7.02095 0
M  V30 5762 C 749.502 4.97725 7.70406 0
M  V30 5763 O 748.446 4.13256 7.58987 0
M  V30 5764 C 750.72 4.28231 7.11815 0
M  V30 5765 O 751.458 3.49945 8.01648 0
M  V30 5766 C 750.051 3.5063 5.96244 0
M  V30 5767 O 750.85 2.36482 5.64681 0
M  V30 5768 C 748.714 3.15122 6.56374 0
M  V30 5769 H 748.746 2.13853 6.99751 0
M  V30 5770 H 749.929 4.13501 5.06559 0
M  V30 5771 H 751.413 5.03285 6.70911 0
M  V30 5772 H 749.719 5.20877 8.75697 0
M  V30 5773 H 749.529 7.11046 7.35349 0
M  V30 5774 H 747.899 6.35815 7.26986 0
M  V30 5775 H 750.538 1.61644 6.13565 0
M  V30 5776 P 752.395 3.65191 7.99657 0
M  V30 5777 O 753.817 3.8425 8.48115 0
M  V30 5778 O 752.035 4.17805 6.64342 0
M  V30 5779 O 752.072 2.07613 7.95143 0
M  V30 5780 C 751.912 1.44328 9.27336 0
M  V30 5781 C 752.452 0.0220036 9.17197 0
M  V30 5782 O 751.396 -0.626867 8.61923 0
M  V30 5783 C 753.67 -0.24586 8.30336 0
M  V30 5784 O 754.408 -1.39011 8.63583 0
M  V30 5785 C 753.001 -0.273849 6.91158 0
M  V30 5786 O 753.8 -1.06348 6.02892 0
M  V30 5787 C 751.664 -0.897649 7.22545 0
M  V30 5788 H 751.696 -1.9841 7.04286 0
M  V30 5789 H 752.879 0.739928 6.497 0
M  V30 5790 H 754.363 0.60668 8.36503 0
M  V30 5791 H 752.669 -0.352479 10.1829 0
M  V30 5792 H 752.479 2.00611 10.0304 0
M  V30 5793 H 750.849 1.41843 9.55327 0
M  V30 5794 H 753.488 -1.95734 6.03555 0
M  V30 5795 P 755.346 -1.25109 8.70152 0
M  V30 5796 O 756.747 -1.31452 9.27431 0
M  V30 5797 O 754.968 -0.0458113 7.89887 0
M  V30 5798 O 755.023 -2.55201 7.81066 0
M  V30 5799 C 754.863 -3.79939 8.58154 0
M  V30 5800 C 755.403 -4.93969 7.72701 0
M  V30 5801 O 754.347 -5.18666 6.91125 0
M  V30 5802 C 756.62 -4.69597 6.85231 0
M  V30 5803 O 757.359 -5.83832 6.51337 0
M  V30 5804 C 755.953 -3.96706 5.66633 0
M  V30 5805 O 756.751 -4.15346 4.49615 0
M  V30 5806 C 754.615 -4.66153 5.59313 0
M  V30 5807 N 753.572 -3.71582 5.24027 0
M  V30 5808 C 752.537 -4.15133 4.44901 0
M  V30 5809 O 752.576 -5.32122 4.00336 0
M  V30 5810 N 751.525 -3.30554 4.15693 0
M  V30 5811 C 751.573 -2.04701 4.61105 0
M  V30 5812 C 752.669 -1.57111 5.38655 0
M  V30 5813 C 753.635 -2.44234 5.68454 0
M  V30 5814 H 754.647 -5.47604 4.85148 0
M  V30 5815 H 755.83 -2.8955 5.86187 0
M  V30 5816 H 757.314 -4.01995 7.36197 0
M  V30 5817 H 755.62 -5.81019 8.37003 0
M  V30 5818 H 755.429 -3.73517 9.52265 0
M  V30 5819 H 753.799 -3.97122 8.80267 0
M  V30 5820 H 752.717 -0.538464 5.72373 0
M  V30 5821 H 754.481 -2.11927 6.29377 0
M  V30 5822 H 756.535 -4.98352 4.09633 0
M  V30 5823 P 758.296 -5.75688 6.64379 0
M  V30 5824 O 759.718 -6.11849 7.01846 0
M  V30 5825 O 757.936 -4.30744 6.56026 0
M  V30 5826 O 757.973 -6.37042 5.19165 0
M  V30 5827 C 757.813 -7.83578 5.16515 0
M  V30 5828 C 758.353 -8.33398 3.83019 0
M  V30 5829 O 757.297 -8.10074 3.01034 0
M  V30 5830 C 759.571 -7.65514 3.2257 0
M  V30 5831 O 760.309 -8.4329 2.32297 0
M  V30 5832 C 758.902 -6.40075 2.62207 0
M  V30 5833 O 759.701 -5.92589 1.53712 0
M  V30 5834 C 757.565 -6.9454 2.18503 0
M  V30 5835 H 757.597 -7.23063 1.12091 0
M  V30 5836 H 758.78 -5.6025 3.37201 0
M  V30 5837 H 760.264 -7.35707 4.02681 0
M  V30 5838 H 758.57 -9.40912 3.9095 0
M  V30 5839 H 758.38 -8.29056 5.99158 0
M  V30 5840 H 756.75 -8.10073 5.25882 0
M  V30 5841 H 759.389 -6.30324 0.726794 0
M  V30 5842 P 761.247 -8.4349 2.47671 0
M  V30 5843 O 762.669 -8.94167 2.5964 0
M  V30 5844 O 760.887 -7.1704 3.19006 0
M  V30 5845 O 760.924 -8.16596 0.923387 0
M  V30 5846 C 760.764 -9.38437 0.108857 0
M  V30 5847 C 761.304 -9.08175 -1.28353 0
M  V30 5848 O 760.248 -8.44229 -1.84713 0
M  V30 5849 C 762.522 -8.18386 -1.42505 0
M  V30 5850 O 763.26 -8.3501 -2.60497 0
M  V30 5851 C 761.853 -6.80225 -1.25468 0
M  V30 5852 O 762.652 -5.81621 -1.91066 0
M  V30 5853 C 760.516 -7.02416 -1.9168 0
M  V30 5854 H 760.548 -6.6888 -2.96621 0
M  V30 5855 H 761.731 -6.53617 -0.192223 0
M  V30 5856 H 763.215 -8.36622 -0.589963 0
M  V30 5857 H 761.521 -10.0291 -1.79807 0
M  V30 5858 H 761.331 -10.2138 0.558219 0
M  V30 5859 H 759.701 -9.6579 0.0444202 0
M  V30 5860 H 762.34 -5.69556 -2.79637 0
M  V30 5861 P 764.198 -8.4349 -2.47671 0
M  V30 5862 O 765.62 -8.92785 -2.65057 0
M  V30 5863 O 763.838 -7.7568 -1.19296 0
M  V30 5864 O 763.875 -7.36886 -3.63805 0
M  V30 5865 C 763.715 -7.95349 -4.982 0
M  V30 5866 C 764.255 -6.94537 -5.98908 0
M  V30 5867 O 763.2 -6.10347 -6.11815 0
M  V30 5868 C 765.473 -6.11426 -5.62335 0
M  V30 5869 O 766.211 -5.6162 -6.70584 0
M  V30 5870 C 764.805 -5.04409 -4.73308 0
M  V30 5871 O 765.603 -3.85929 -4.75106 0
M  V30 5872 C 763.467 -4.8728 -5.41006 0
M  V30 5873 N 762.424 -4.65812 -4.42377 0
M  V30 5874 C 762.486 -5.27109 -3.24335 0
M  V30 5875 N 761.441 -4.94293 -2.47735 0
M  V30 5876 C 760.707 -4.1271 -3.23359 0
M  V30 5877 C 759.401 -3.56384 -2.99934 0
M  V30 5878 O 758.668 -3.69331 -2.00616 0
M  V30 5879 N 758.971 -2.80206 -4.03316 0
M  V30 5880 C 759.72 -2.58614 -5.2172 0
M  V30 5881 N 759.123 -1.75154 -6.13278 0
M  V30 5882 N 760.873 -3.13689 -5.47619 0
M  V30 5883 C 761.33 -3.90921 -4.46436 0
M  V30 5884 H 763.499 -4.02333 -6.11157 0
M  V30 5885 H 764.682 -5.39383 -3.69487 0
M  V30 5886 H 766.167 -6.71414 -5.02615 0
M  V30 5887 H 764.472 -7.4649 -6.93477 0
M  V30 5888 H 764.282 -8.89416 -5.05237 0
M  V30 5889 H 762.651 -8.14876 -5.18409 0
M  V30 5890 H 758.075 -2.36355 -3.95916 0
M  V30 5891 H 763.282 -5.95212 -2.93859 0
M  V30 5892 H 758.212 -1.32473 -5.91856 0
M  V30 5893 H 759.588 -1.5588 -7.03026 0
M  V30 5894 H 765.292 -3.27906 -5.43085 0
M  V30 5895 P 767.148 -5.75688 -6.64379 0
M  V30 5896 O 768.57 -6.07627 -7.05504 0
M  V30 5897 O 766.788 -5.88047 -5.19722 0
M  V30 5898 O 766.825 -4.2322 -7.04443 0
M  V30 5899 C 766.665 -3.99743 -8.4911 0
M  V30 5900 C 767.205 -2.60516 -8.79425 0
M  V30 5901 O 766.149 -1.82684 -8.4467 0
M  V30 5902 C 768.423 -2.10343 -8.03628 0
M  V30 5903 O 769.161 -1.09919 -8.67766 0
M  V30 5904 C 767.754 -1.68446 -6.70876 0
M  V30 5905 O 768.553 -0.678137 -6.08433 0
M  V30 5906 C 766.417 -1.17436 -7.18567 0
M  V30 5907 H 766.449 -0.0804732 -7.31656 0
M  V30 5908 H 767.632 -2.54037 -6.02537 0
M  V30 5909 H 769.116 -2.93881 -7.85526 0
M  V30 5910 H 767.422 -2.53065 -9.86973 0
M  V30 5911 H 767.232 -4.75072 -9.05887 0
M  V30 5912 H 765.602 -4.05244 -8.76668 0
M  V30 5913 H 768.241 0.177647 -6.34251 0
M  V30 5914 P 770.099 -1.25109 -8.70152 0
M  V30 5915 O 771.521 -1.29744 -9.22016 0
M  V30 5916 O 769.739 -2.13714 -7.55141 0
M  V30 5917 O 769.776 0.248149 -8.21425 0
M  V30 5918 C 769.616 1.22779 -9.30434 0
M  V30 5919 C 770.156 2.56293 -8.80664 0
M  V30 5920 O 769.1 3.02979 -8.09349 0
M  V30 5921 C 771.374 2.57523 -7.89775 0
M  V30 5922 O 772.112 3.7668 -7.89438 0
M  V30 5923 C 770.705 2.20997 -6.55446 0
M  V30 5924 O 771.504 2.71895 -5.48509 0
M  V30 5925 C 769.368 2.89693 -6.67988 0
M  V30 5926 H 769.4 3.88793 -6.19859 0
M  V30 5927 H 770.583 1.12046 -6.44229 0
M  V30 5928 H 772.067 1.7746 -8.19711 0
M  V30 5929 H 770.373 3.20706 -9.67112 0
M  V30 5930 H 770.183 0.901032 -10.1892 0
M  V30 5931 H 768.553 1.33049 -9.56592 0
M  V30 5932 H 771.192 3.57847 -5.23962 0
M  V30 5933 P 773.049 3.65191 -7.99657 0
M  V30 5934 O 774.471 3.89332 -8.45794 0
M  V30 5935 O 772.689 2.28472 -7.50807 0
M  V30 5936 O 772.726 4.64972 -6.77611 0
M  V30 5937 C 772.566 6.06319 -7.16352 0
M  V30 5938 C 773.106 6.91731 -6.02299 0
M  V30 5939 O 772.05 6.92449 -5.17064 0
M  V30 5940 C 774.324 6.43627 -5.25174 0
M  V30 5941 O 775.062 7.43686 -4.60469 0
M  V30 5942 C 773.655 5.40275 -4.31916 0
M  V30 5943 O 774.454 5.25279 -3.14438 0
M  V30 5944 C 772.318 6.04847 -4.05327 0
M  V30 5945 H 772.35 6.62195 -3.11261 0
M  V30 5946 H 773.533 4.42556 -4.81383 0
M  V30 5947 H 775.017 5.92458 -5.93643 0
M  V30 5948 H 773.323 7.92655 -6.402 0
M  V30 5949 H 773.133 6.26671 -8.0846 0
M  V30 5950 H 771.503 6.29101 -7.32804 0
M  V30 5951 H 774.142 5.84315 -2.47318 0
M  V30 5952 P 776 7.39546 -4.75277 0
M  V30 5953 O 777.401 7.86988 -5.07993 0
M  V30 5954 O 775.622 5.99957 -5.13804 0
M  V30 5955 O 775.677 7.57411 -3.18621 0
M  V30 5956 C 775.517 8.97357 -2.74833 0
M  V30 5957 C 776.057 9.0745 -1.32694 0
M  V30 5958 O 775.001 8.61972 -0.606089 0
M  V30 5959 C 777.274 8.25383 -0.938334 0
M  V30 5960 O 778.013 8.74577 0.146954 0
M  V30 5961 C 776.607 6.8802 -0.712559 0
M  V30 5962 O 777.405 6.11791 0.194623 0
M  V30 5963 C 775.269 7.27966 -0.139777 0
M  V30 5964 N 774.226 6.39368 -0.623421 0
M  V30 5965 C 773.191 6.08088 0.223886 0
M  V30 5966 O 773.23 6.5102 1.39986 0
M  V30 5967 N 772.179 5.30627 -0.224051 0
M  V30 5968 C 772.227 4.82531 -1.47257 0
M  V30 5969 C 773.323 5.09974 -2.34008 0
M  V30 5970 C 774.289 5.89548 -1.87678 0
M  V30 5971 H 775.301 7.25255 0.961469 0
M  V30 5972 H 776.484 6.32625 -1.65044 0
M  V30 5973 H 777.968 8.19631 -1.78299 0
M  V30 5974 H 776.274 10.1305 -1.09016 0
M  V30 5975 H 776.083 9.64276 -3.41316 0
M  V30 5976 H 774.453 9.25321 -2.76328 0
M  V30 5977 H 773.371 4.67832 -3.3413 0
M  V30 5978 H 775.135 6.14434 -2.51991 0
M  V30 5979 H 777.189 6.35931 1.08377 0
M  V30 5980 P 778.95 8.791 5.69499e-12 0
M  V30 5981 O 780.372 9.31096 0.027933 0
M  V30 5982 O 778.59 7.77869 -1.04071 0
M  V30 5983 O 778.627 8.09533 1.41463 0
M  V30 5984 C 778.467 9.0349 2.53943 0
M  V30 5985 C 779.007 8.35226 3.79016 0
M  V30 5986 O 777.951 7.57992 4.15078 0
M  V30 5987 C 780.225 7.45087 3.67298 0
M  V30 5988 O 780.963 7.27796 4.85194 0
M  V30 5989 C 779.556 6.17323 3.12027 0
M  V30 5990 O 780.355 5.04231 3.47188 0
M  V30 5991 C 778.219 6.19961 3.81809 0
M  V30 5992 H 778.251 5.58218 4.73051 0
M  V30 5993 H 779.434 6.21726 2.02589 0
M  V30 5994 H 780.918 7.86112 2.9231 0
M  V30 5995 H 779.224 9.11627 4.55076 0
M  V30 5996 H 779.034 9.9573 2.34194 0
M  V30 5997 H 777.404 9.2792 2.67832 0
M  V30 5998 H 780.043 4.67702 4.28772 0
M  V30 5999 P 781.901 7.39546 4.75277 0
M  V30 6000 O 783.323 7.81777 5.05738 0
M  V30 6001 O 781.541 7.1065 3.32998 0
M  V30 6002 O 781.578 6.04542 5.56673 0
M  V30 6003 C 781.418 6.22772 7.02095 0
M  V30 6004 C 781.958 4.97725 7.70406 0
M  V30 6005 O 780.902 4.13256 7.58987 0
M  V30 6006 C 783.176 4.28231 7.11815 0
M  V30 6007 O 783.914 3.49945 8.01648 0
M  V30 6008 C 782.507 3.5063 5.96244 0
M  V30 6009 O 783.306 2.36482 5.64681 0
M  V30 6010 C 781.17 3.15122 6.56374 0
M  V30 6011 H 781.202 2.13853 6.99751 0
M  V30 6012 H 782.385 4.13501 5.06559 0
M  V30 6013 H 783.869 5.03285 6.70911 0
M  V30 6014 H 782.175 5.20877 8.75697 0
M  V30 6015 H 781.985 7.11046 7.35349 0
M  V30 6016 H 780.355 6.35815 7.26986 0
M  V30 6017 H 782.994 1.61644 6.13565 0
M  V30 6018 P 784.852 3.65191 7.99657 0
M  V30 6019 O 786.274 3.8425 8.48115 0
M  V30 6020 O 784.492 4.17805 6.64342 0
M  V30 6021 O 784.529 2.07613 7.95143 0
M  V30 6022 C 784.369 1.44328 9.27336 0
M  V30 6023 C 784.909 0.0220036 9.17197 0
M  V30 6024 O 783.853 -0.626867 8.61923 0
M  V30 6025 C 786.127 -0.24586 8.30336 0
M  V30 6026 O 786.865 -1.39011 8.63583 0
M  V30 6027 C 785.458 -0.273849 6.91158 0
M  V30 6028 O 786.257 -1.06348 6.02892 0
M  V30 6029 C 784.121 -0.897649 7.22545 0
M  V30 6030 H 784.153 -1.9841 7.04286 0
M  V30 6031 H 785.336 0.739928 6.497 0
M  V30 6032 H 786.82 0.60668 8.36503 0
M  V30 6033 H 785.126 -0.352479 10.1829 0
M  V30 6034 H 784.936 2.00611 10.0304 0
M  V30 6035 H 783.306 1.41843 9.55327 0
M  V30 6036 H 785.945 -1.95734 6.03555 0
M  V30 6037 P 787.802 -1.25109 8.70152 0
M  V30 6038 O 789.224 -1.35274 9.21221 0
M  V30 6039 O 787.442 -0.0769065 7.84762 0
M  V30 6040 O 787.479 -2.55232 7.81161 0
M  V30 6041 C 787.319 -3.79939 8.58154 0
M  V30 6042 C 787.859 -4.94023 7.72785 0
M  V30 6043 O 786.803 -5.18726 6.91205 0
M  V30 6044 C 789.077 -4.69597 6.85231 0
M  V30 6045 O 789.815 -5.83832 6.51337 0
M  V30 6046 C 788.408 -3.96706 5.66633 0
M  V30 6047 O 789.207 -4.15414 4.49689 0
M  V30 6048 C 787.071 -4.66153 5.59313 0
M  V30 6049 H 787.103 -5.47679 4.85214 0
M  V30 6050 H 788.286 -2.89008 5.86566 0
M  V30 6051 H 789.77 -4.0121 7.36511 0
M  V30 6052 H 788.076 -5.80182 8.37584 0
M  V30 6053 H 787.886 -3.73517 9.52265 0
M  V30 6054 H 786.256 -3.97163 8.80359 0
M  V30 6055 H 788.895 -4.90969 4.01921 0
M  V30 6056 P 790.753 -5.75688 6.64379 0
M  V30 6057 O 792.154 -6.11991 7.09136 0
M  V30 6058 O 790.375 -4.30899 6.62018 0
M  V30 6059 O 790.43 -6.36965 5.19102 0
M  V30 6060 C 790.27 -7.83578 5.16515 0
M  V30 6061 C 790.81 -8.33307 3.82977 0
M  V30 6062 O 789.754 -8.0998 3.00999 0
M  V30 6063 C 792.027 -7.65514 3.2257 0
M  V30 6064 O 792.766 -8.4329 2.32297 0
M  V30 6065 C 791.36 -6.40075 2.62207 0
M  V30 6066 O 792.158 -5.92492 1.53687 0
M  V30 6067 C 790.022 -6.9454 2.18503 0
M  V30 6068 N 788.979 -5.95905 2.39948 0
M  V30 6069 C 787.944 -5.89764 1.49837 0
M  V30 6070 O 787.983 -6.64088 0.490975 0
M  V30 6071 N 786.932 -5.02821 1.70992 0
M  V30 6072 C 786.98 -4.21498 2.77236 0
M  V30 6073 C 788.076 -4.23389 3.68205 0
M  V30 6074 C 789.042 -5.12792 3.46171 0
M  V30 6075 H 790.054 -7.22964 1.12076 0
M  V30 6076 H 791.237 -5.60502 3.36589 0
M  V30 6077 H 792.721 -7.36197 4.01993 0
M  V30 6078 H 791.027 -9.41302 3.90009 0
M  V30 6079 H 790.836 -8.29056 5.99158 0
M  V30 6080 H 789.206 -8.09989 5.25828 0
M  V30 6081 H 788.124 -3.54747 4.52399 0
M  V30 6082 H 789.888 -5.18551 4.1489 0
M  V30 6083 H 791.942 -6.40705 0.751752 0
M  V30 6084 P 793.703 -8.4349 2.47671 0
M  V30 6085 O 795.124 -8.94263 2.59668 0
M  V30 6086 O 793.343 -7.1704 3.19006 0
M  V30 6087 O 793.38 -8.16596 0.923387 0
M  V30 6088 C 793.219 -9.38537 0.108869 0
M  V30 6089 C 793.76 -9.08175 -1.28353 0
M  V30 6090 O 792.705 -8.44131 -1.84692 0
M  V30 6091 C 794.978 -8.18386 -1.42505 0
M  V30 6092 O 795.716 -8.3501 -2.60497 0
M  V30 6093 C 794.31 -6.80225 -1.25468 0
M  V30 6094 O 795.108 -5.81716 -1.90454 0
M  V30 6095 C 792.972 -7.02416 -1.9168 0
M  V30 6096 N 791.929 -6.31033 -1.20314 0
M  V30 6097 C 792.098 -5.98817 0.0994088 0
M  V30 6098 N 791.071 -5.35403 0.621694 0
M  V30 6099 C 790.186 -5.25212 -0.43376 0
M  V30 6100 C 788.919 -4.64602 -0.519722 0
M  V30 6101 N 788.354 -4.7568 -1.76013 0
M  V30 6102 C 788.956 -5.3653 -2.83017 0
M  V30 6103 N 790.133 -5.93676 -2.79782 0
M  V30 6104 C 790.708 -5.84061 -1.56249 0
M  V30 6105 H 794.187 -6.53498 -0.198729 0
M  V30 6106 H 795.67 -8.36622 -0.589963 0
M  V30 6107 H 793.976 -10.0273 -1.8081 0
M  V30 6108 H 793.786 -10.2138 0.558219 0
M  V30 6109 H 792.156 -9.6579 0.0444202 0
M  V30 6110 H 792.998 -6.23209 0.660562 0
M  V30 6111 H 794.796 -5.69466 -2.79593 0
M  V30 6112 P 796.654 -8.4349 -2.47671 0
M  V30 6113 O 798.076 -8.92785 -2.65057 0
M  V30 6114 O 796.294 -7.7568 -1.19296 0
M  V30 6115 O 796.331 -7.36886 -3.63805 0
M  V30 6116 C 796.171 -7.95349 -4.982 0
M  V30 6117 C 796.711 -6.94537 -5.98908 0
M  V30 6118 O 795.656 -6.10347 -6.11815 0
M  V30 6119 C 797.929 -6.11426 -5.62335 0
M  V30 6120 O 798.667 -5.6162 -6.70584 0
M  V30 6121 C 797.261 -5.04409 -4.73308 0
M  V30 6122 O 798.059 -3.85929 -4.75106 0
M  V30 6123 C 795.923 -4.8728 -5.41006 0
M  V30 6124 N 794.88 -4.65812 -4.42377 0
M  V30 6125 C 794.942 -5.27109 -3.24335 0
M  V30 6126 N 793.897 -4.94293 -2.47735 0
M  V30 6127 C 793.163 -4.1271 -3.23359 0
M  V30 6128 C 791.857 -3.56384 -2.99934 0
M  V30 6129 O 791.124 -3.69331 -2.00616 0
M  V30 6130 N 791.427 -2.80206 -4.03316 0
M  V30 6131 C 792.176 -2.58614 -5.2172 0
M  V30 6132 N 791.579 -1.75154 -6.13278 0
M  V30 6133 N 793.329 -3.13689 -5.47619 0
M  V30 6134 C 793.786 -3.90921 -4.46436 0
M  V30 6135 H 795.955 -4.02333 -6.11157 0
M  V30 6136 H 797.138 -5.39383 -3.69487 0
M  V30 6137 H 798.623 -6.71414 -5.02615 0
M  V30 6138 H 796.928 -7.4649 -6.93477 0
M  V30 6139 H 796.738 -8.89416 -5.05237 0
M  V30 6140 H 795.107 -8.14876 -5.18409 0
M  V30 6141 H 790.531 -2.36355 -3.95916 0
M  V30 6142 H 795.738 -5.95212 -2.93859 0
M  V30 6143 H 790.668 -1.32473 -5.91856 0
M  V30 6144 H 792.044 -1.5588 -7.03026 0
M  V30 6145 H 797.748 -3.27906 -5.43085 0
M  V30 6146 P 799.604 -5.75688 -6.64379 0
M  V30 6147 O 801.026 -6.07627 -7.05504 0
M  V30 6148 O 799.244 -5.88047 -5.19722 0
M  V30 6149 O 799.281 -4.2322 -7.04443 0
M  V30 6150 C 799.121 -3.99743 -8.4911 0
M  V30 6151 C 799.661 -2.60516 -8.79425 0
M  V30 6152 O 798.605 -1.82684 -8.4467 0
M  V30 6153 C 800.879 -2.10343 -8.03628 0
M  V30 6154 O 801.617 -1.09919 -8.67766 0
M  V30 6155 C 800.21 -1.68446 -6.70876 0
M  V30 6156 O 801.009 -0.678137 -6.08433 0
M  V30 6157 C 798.873 -1.17436 -7.18567 0
M  V30 6158 H 798.905 -0.0804732 -7.31656 0
M  V30 6159 H 800.088 -2.54037 -6.02537 0
M  V30 6160 H 801.572 -2.93881 -7.85526 0
M  V30 6161 H 799.878 -2.53065 -9.86973 0
M  V30 6162 H 799.688 -4.75072 -9.05887 0
M  V30 6163 H 798.058 -4.05244 -8.76668 0
M  V30 6164 H 800.697 0.177647 -6.34251 0
M  V30 6165 P 802.555 -1.25109 -8.70152 0
M  V30 6166 O 803.956 -1.3516 -9.26897 0
M  V30 6167 O 802.177 -2.18141 -7.59181 0
M  V30 6168 O 802.232 0.248118 -8.21325 0
M  V30 6169 C 802.072 1.22779 -9.30434 0
M  V30 6170 C 802.612 2.56265 -8.80568 0
M  V30 6171 O 801.556 3.02944 -8.09255 0
M  V30 6172 C 803.829 2.57523 -7.89775 0
M  V30 6173 O 804.568 3.7668 -7.89438 0
M  V30 6174 C 803.162 2.20997 -6.55446 0
M  V30 6175 O 803.96 2.71851 -5.48419 0
M  V30 6176 C 801.824 2.89693 -6.67988 0
M  V30 6177 N 800.781 2.08895 -6.07487 0
M  V30 6178 C 799.746 2.72974 -5.43836 0
M  V30 6179 O 799.785 3.97779 -5.34036 0
M  V30 6180 N 798.734 2.0005 -4.91983 0
M  V30 6181 C 798.782 0.66501 -5.00098 0
M  V30 6182 N 797.772 -0.0305439 -4.4919 0
M  V30 6183 C 799.878 -0.0100979 -5.61099 0
M  V30 6184 C 800.844 0.74189 -6.14236 0
M  V30 6185 H 801.856 3.8874 -6.19774 0
M  V30 6186 H 803.039 1.12673 -6.44018 0
M  V30 6187 H 804.523 1.783 -8.19631 0
M  V30 6188 H 802.829 3.21673 -9.66791 0
M  V30 6189 H 802.638 0.901032 -10.1892 0
M  V30 6190 H 801.008 1.33036 -9.56493 0
M  V30 6191 H 799.926 -1.09591 -5.64358 0
M  V30 6192 H 801.69 0.260263 -6.6359 0
M  V30 6193 H 796.982 0.460194 -4.04793 0
M  V30 6194 H 797.777 -1.05716 -4.53953 0
M  V30 6195 H 803.744 3.62759 -5.33442 0
M  V30 6196 P 805.506 3.65191 -7.99657 0
M  V30 6197 O 806.927 3.89374 -8.45885 0
M  V30 6198 O 805.146 2.28472 -7.50807 0
M  V30 6199 O 805.183 4.64972 -6.77611 0
M  V30 6200 C 805.022 6.06383 -7.16428 0
M  V30 6201 C 805.563 6.91731 -6.02299 0
M  V30 6202 O 804.508 6.92369 -5.17005 0
M  V30 6203 C 806.781 6.43627 -5.25174 0
M  V30 6204 O 807.519 7.43686 -4.60469 0
M  V30 6205 C 806.113 5.40275 -4.31916 0
M  V30 6206 O 806.911 5.24878 -3.14911 0
M  V30 6207 C 804.775 6.04847 -4.05327 0
M  V30 6208 N 803.732 5.04166 -3.98114 0
M  V30 6209 C 803.901 3.84629 -4.59066 0
M  V30 6210 N 802.874 3.0363 -4.45343 0
M  V30 6211 C 801.989 3.76722 -3.68523 0
M  V30 6212 C 800.722 3.43528 -3.17088 0
M  V30 6213 N 800.123 2.23665 -3.37397 0
M  V30 6214 N 800.157 4.44526 -2.44231 0
M  V30 6215 C 800.759 5.65243 -2.20146 0
M  V30 6216 N 801.936 6.00221 -2.65453 0
M  V30 6217 C 802.511 5.00564 -3.39083 0
M  V30 6218 H 804.807 6.62104 -3.11218 0
M  V30 6219 H 805.99 4.42969 -4.80867 0
M  V30 6220 H 807.473 5.92458 -5.93643 0
M  V30 6221 H 805.779 7.93295 -6.39407 0
M  V30 6222 H 805.589 6.26671 -8.0846 0
M  V30 6223 H 803.959 6.29101 -7.32804 0
M  V30 6224 H 800.223 6.36894 -1.5883 0
M  V30 6225 H 804.801 3.58193 -5.14248 0
M  V30 6226 H 799.193 2.05145 -2.97047 0
M  V30 6227 H 800.597 1.51255 -3.92998 0
M  V30 6228 H 806.599 5.84223 -2.47279 0
M  V30 6229 P 808.456 7.39546 -4.75277 0
M  V30 6230 O 809.878 7.84798 -5.01039 0
M  V30 6231 O 808.096 5.9812 -5.08098 0
M  V30 6232 O 808.133 7.57503 -3.1866 0
M  V30 6233 C 807.973 8.97357 -2.74833 0
M  V30 6234 C 808.513 9.07548 -1.32709 0
M  V30 6235 O 807.457 8.62072 -0.606159 0
M  V30 6236 C 809.731 8.25383 -0.938334 0
M  V30 6237 O 810.469 8.74577 0.146954 0
M  V30 6238 C 809.062 6.8802 -0.712559 0
M  V30 6239 O 809.861 6.1189 0.194655 0
M  V30 6240 C 807.725 7.27966 -0.139777 0
M  V30 6241 H 807.757 7.25354 0.961601 0
M  V30 6242 H 808.94 6.32557 -1.65702 0
M  V30 6243 H 810.424 8.19355 -1.79097 0
M  V30 6244 H 808.73 10.1294 -1.10029 0
M  V30 6245 H 808.54 9.64276 -3.41316 0
M  V30 6246 H 806.91 9.25417 -2.76357 0
M  V30 6247 H 809.549 6.25267 1.07847 0
M  V30 6248 P 811.407 8.791 6.00516e-12 0
M  V30 6249 O 812.828 9.31196 0.027936 0
M  V30 6250 O 811.047 7.77869 -1.04071 0
M  V30 6251 O 811.084 8.09533 1.41463 0
M  V30 6252 C 810.923 9.03587 2.5397 0
M  V30 6253 C 811.464 8.35226 3.79016 0
M  V30 6254 O 810.409 7.57904 4.1503 0
M  V30 6255 C 812.682 7.45087 3.67298 0
M  V30 6256 O 813.42 7.27796 4.85194 0
M  V30 6257 C 812.014 6.17323 3.12027 0
M  V30 6258 O 812.812 5.04496 3.46627 0
M  V30 6259 C 810.676 6.19961 3.81809 0
M  V30 6260 N 809.633 5.71575 2.93223 0
M  V30 6261 C 809.802 5.77362 1.59168 0
M  V30 6262 N 808.775 5.3123 0.911893 0
M  V30 6263 C 807.89 4.91717 1.89588 0
M  V30 6264 C 806.623 4.3114 1.8076 0
M  V30 6265 N 806.058 4.06823 3.02898 0
M  V30 6266 C 806.66 4.35062 4.22711 0
M  V30 6267 N 807.837 4.90805 4.35707 0
M  V30 6268 C 808.412 5.16382 3.14469 0
M  V30 6269 H 811.891 6.21428 2.0318 0
M  V30 6270 H 813.374 7.86112 2.9231 0
M  V30 6271 H 811.68 9.11171 4.55987 0
M  V30 6272 H 811.49 9.9573 2.34194 0
M  V30 6273 H 809.86 9.2792 2.67832 0
M  V30 6274 H 810.702 6.16575 1.12198 0
M  V30 6275 H 812.5 4.67628 4.28704 0
M  V30 6276 P 814.357 7.39546 4.75277 0
M  V30 6277 O 815.779 7.81777 5.05738 0
M  V30 6278 O 813.997 7.1065 3.32998 0
M  V30 6279 O 814.034 6.04542 5.56673 0
M  V30 6280 C 813.874 6.22772 7.02095 0
M  V30 6281 C 814.414 4.97725 7.70406 0
M  V30 6282 O 813.358 4.13256 7.58987 0
M  V30 6283 C 815.632 4.28231 7.11815 0
M  V30 6284 O 816.37 3.49945 8.01648 0
M  V30 6285 C 814.963 3.5063 5.96244 0
M  V30 6286 O 815.762 2.36482 5.64681 0
M  V30 6287 C 813.626 3.15122 6.56374 0
M  V30 6288 H 813.658 2.13853 6.99751 0
M  V30 6289 H 814.841 4.13501 5.06559 0
M  V30 6290 H 816.325 5.03285 6.70911 0
M  V30 6291 H 814.631 5.20877 8.75697 0
M  V30 6292 H 814.441 7.11046 7.35349 0
M  V30 6293 H 812.811 6.35815 7.26986 0
M  V30 6294 H 815.45 1.61644 6.13565 0
M  V30 6295 P 817.308 3.65191 7.99657 0
M  V30 6296 O 818.73 3.8425 8.48115 0
M  V30 6297 O 816.948 4.17805 6.64342 0
M  V30 6298 O 816.985 2.07613 7.95143 0
M  V30 6299 C 816.825 1.44328 9.27336 0
M  V30 6300 C 817.365 0.0220036 9.17197 0
M  V30 6301 O 816.309 -0.626867 8.61923 0
M  V30 6302 C 818.583 -0.24586 8.30336 0
M  V30 6303 O 819.321 -1.39011 8.63583 0
M  V30 6304 C 817.914 -0.273849 6.91158 0
M  V30 6305 O 818.713 -1.06348 6.02892 0
M  V30 6306 C 816.577 -0.897649 7.22545 0
M  V30 6307 H 816.609 -1.9841 7.04286 0
M  V30 6308 H 817.792 0.739928 6.497 0
M  V30 6309 H 819.276 0.60668 8.36503 0
M  V30 6310 H 817.582 -0.352479 10.1829 0
M  V30 6311 H 817.392 2.00611 10.0304 0
M  V30 6312 H 815.762 1.41843 9.55327 0
M  V30 6313 H 818.401 -1.95734 6.03555 0
M  V30 6314 P 820.258 -1.25109 8.70152 0
M  V30 6315 O 821.679 -1.35288 9.2132 0
M  V30 6316 O 819.898 -0.0769065 7.84762 0
M  V30 6317 O 819.935 -2.55232 7.81161 0
M  V30 6318 C 819.774 -3.79979 8.58246 0
M  V30 6319 C 820.315 -4.94023 7.72785 0
M  V30 6320 O 819.26 -5.18666 6.91125 0
M  V30 6321 C 821.533 -4.69597 6.85231 0
M  V30 6322 O 822.271 -5.83832 6.51337 0
M  V30 6323 C 820.865 -3.96706 5.66633 0
M  V30 6324 O 821.663 -4.14896 4.5003 0
M  V30 6325 C 819.527 -4.66153 5.59313 0
M  V30 6326 N 818.484 -3.71582 5.24027 0
M  V30 6327 C 818.653 -2.39715 5.48833 0
M  V30 6328 N 817.626 -1.65863 5.12845 0
M  V30 6329 C 816.741 -2.57637 4.5973 0
M  V30 6330 C 815.474 -2.40278 4.01027 0
M  V30 6331 N 814.875 -1.19549 3.86744 0
M  V30 6332 N 814.909 -3.57711 3.59575 0
M  V30 6333 C 815.511 -4.80324 3.70476 0
M  V30 6334 N 816.688 -5.01121 4.23801 0
M  V30 6335 C 817.263 -3.84757 4.66372 0
M  V30 6336 H 819.559 -5.47604 4.85148 0
M  V30 6337 H 820.742 -2.8955 5.86187 0
M  V30 6338 H 822.225 -4.0121 7.36511 0
M  V30 6339 H 820.531 -5.81019 8.37003 0
M  V30 6340 H 820.341 -3.73517 9.52265 0
M  V30 6341 H 818.711 -3.97163 8.80359 0
M  V30 6342 H 814.975 -5.66348 3.3183 0
M  V30 6343 H 819.553 -1.98804 5.94332 0
M  V30 6344 H 813.945 -1.13147 3.4281 0
M  V30 6345 H 815.349 -0.344074 4.19692 0
M  V30 6346 H 821.351 -4.90891 4.01857 0
M  V30 6347 P 823.209 -5.75688 6.64379 0
M  V30 6348 O 824.631 -6.11849 7.01846 0
M  V30 6349 O 822.849 -4.30744 6.56026 0
M  V30 6350 O 822.886 -6.37042 5.19165 0
M  V30 6351 C 822.726 -7.83578 5.16515 0
M  V30 6352 C 823.266 -8.33398 3.83019 0
M  V30 6353 O 822.21 -8.10074 3.01034 0
M  V30 6354 C 824.484 -7.65514 3.2257 0
M  V30 6355 O 825.222 -8.4329 2.32297 0
M  V30 6356 C 823.815 -6.40075 2.62207 0
M  V30 6357 O 824.614 -5.92589 1.53712 0
M  V30 6358 C 822.478 -6.9454 2.18503 0
M  V30 6359 H 822.51 -7.23063 1.12091 0
M  V30 6360 H 823.693 -5.6025 3.37201 0
M  V30 6361 H 825.177 -7.35707 4.02681 0
M  V30 6362 H 823.483 -9.40912 3.9095 0
M  V30 6363 H 823.293 -8.29056 5.99158 0
M  V30 6364 H 821.663 -8.10073 5.25882 0
M  V30 6365 H 824.302 -6.30324 0.726794 0
M  V30 6366 P 826.16 -8.4349 2.47671 0
M  V30 6367 O 827.581 -8.94263 2.59668 0
M  V30 6368 O 825.8 -7.1704 3.19006 0
M  V30 6369 O 825.837 -8.16596 0.923387 0
M  V30 6370 C 825.676 -9.38537 0.108869 0
M  V30 6371 C 826.217 -9.08175 -1.28353 0
M  V30 6372 O 825.162 -8.44131 -1.84692 0
M  V30 6373 C 827.435 -8.18386 -1.42505 0
M  V30 6374 O 828.173 -8.3501 -2.60497 0
M  V30 6375 C 826.767 -6.80225 -1.25468 0
M  V30 6376 O 827.565 -5.81716 -1.90454 0
M  V30 6377 C 825.429 -7.02416 -1.9168 0
M  V30 6378 N 824.386 -6.31033 -1.20314 0
M  V30 6379 C 824.555 -5.98817 0.0994088 0
M  V30 6380 N 823.528 -5.35403 0.621694 0
M  V30 6381 C 822.643 -5.25212 -0.43376 0
M  V30 6382 C 821.376 -4.64602 -0.519722 0
M  V30 6383 N 820.811 -4.7568 -1.76013 0
M  V30 6384 C 821.413 -5.3653 -2.83017 0
M  V30 6385 N 822.59 -5.93676 -2.79782 0
M  V30 6386 C 823.165 -5.84061 -1.56249 0
M  V30 6387 H 826.644 -6.53498 -0.198729 0
M  V30 6388 H 828.127 -8.36622 -0.589963 0
M  V30 6389 H 826.433 -10.0273 -1.8081 0
M  V30 6390 H 826.243 -10.2138 0.558219 0
M  V30 6391 H 824.613 -9.6579 0.0444202 0
M  V30 6392 H 825.455 -6.23209 0.660562 0
M  V30 6393 H 827.253 -5.69466 -2.79593 0
M  V30 6394 P 829.11 -8.4349 -2.47671 0
M  V30 6395 O 830.532 -8.92593 -2.65 0
M  V30 6396 O 828.75 -7.7568 -1.19296 0
M  V30 6397 O 828.787 -7.36886 -3.63805 0
M  V30 6398 C 828.627 -7.95349 -4.982 0
M  V30 6399 C 829.167 -6.94612 -5.98974 0
M  V30 6400 O 828.111 -6.10347 -6.11815 0
M  V30 6401 C 830.385 -6.11426 -5.62335 0
M  V30 6402 O 831.123 -5.6162 -6.70584 0
M  V30 6403 C 829.716 -5.04409 -4.73308 0
M  V30 6404 O 830.515 -3.85992 -4.75183 0
M  V30 6405 C 828.379 -4.8728 -5.41006 0
M  V30 6406 H 828.411 -4.02333 -6.11157 0
M  V30 6407 H 829.594 -5.39466 -3.69543 0
M  V30 6408 H 831.078 -6.71916 -5.01943 0
M  V30 6409 H 829.384 -7.4649 -6.93477 0
M  V30 6410 H 829.194 -8.89416 -5.05237 0
M  V30 6411 H 827.564 -8.14876 -5.18409 0
M  V30 6412 H 830.203 -3.27957 -5.4317 0
M  V30 6413 P 832.061 -5.75688 -6.64379 0
M  V30 6414 O 833.483 -6.07627 -7.05504 0
M  V30 6415 O 831.701 -5.88047 -5.19722 0
M  V30 6416 O 831.738 -4.2322 -7.04443 0
M  V30 6417 C 831.578 -3.99743 -8.4911 0
M  V30 6418 C 832.118 -2.60516 -8.79425 0
M  V30 6419 O 831.062 -1.82684 -8.4467 0
M  V30 6420 C 833.336 -2.10343 -8.03628 0
M  V30 6421 O 834.074 -1.09919 -8.67766 0
M  V30 6422 C 832.667 -1.68446 -6.70876 0
M  V30 6423 O 833.466 -0.678137 -6.08433 0
M  V30 6424 C 831.33 -1.17436 -7.18567 0
M  V30 6425 H 831.362 -0.0804732 -7.31656 0
M  V30 6426 H 832.545 -2.54037 -6.02537 0
M  V30 6427 H 834.029 -2.93881 -7.85526 0
M  V30 6428 H 832.335 -2.53065 -9.86973 0
M  V30 6429 H 832.145 -4.75072 -9.05887 0
M  V30 6430 H 830.515 -4.05244 -8.76668 0
M  V30 6431 H 833.154 0.177647 -6.34251 0
M  V30 6432 P 835.011 -1.25109 -8.70152 0
M  V30 6433 O 836.433 -1.29744 -9.22016 0
M  V30 6434 O 834.651 -2.13714 -7.55141 0
M  V30 6435 O 834.688 0.248149 -8.21425 0
M  V30 6436 C 834.528 1.22779 -9.30434 0
M  V30 6437 C 835.068 2.56293 -8.80664 0
M  V30 6438 O 834.012 3.02979 -8.09349 0
M  V30 6439 C 836.286 2.57523 -7.89775 0
M  V30 6440 O 837.024 3.7668 -7.89438 0
M  V30 6441 C 835.617 2.20997 -6.55446 0
M  V30 6442 O 836.416 2.71895 -5.48509 0
M  V30 6443 C 834.28 2.89693 -6.67988 0
M  V30 6444 H 834.312 3.88793 -6.19859 0
M  V30 6445 H 835.495 1.12046 -6.44229 0
M  V30 6446 H 836.979 1.7746 -8.19711 0
M  V30 6447 H 835.285 3.20706 -9.67112 0
M  V30 6448 H 835.095 0.901032 -10.1892 0
M  V30 6449 H 833.465 1.33049 -9.56592 0
M  V30 6450 H 836.104 3.57847 -5.23962 0
M  V30 6451 P 837.962 3.65191 -7.99657 0
M  V30 6452 O 839.384 3.89332 -8.45794 0
M  V30 6453 O 837.602 2.28472 -7.50807 0
M  V30 6454 O 837.639 4.64972 -6.77611 0
M  V30 6455 C 837.479 6.06319 -7.16352 0
M  V30 6456 C 838.019 6.91731 -6.02299 0
M  V30 6457 O 836.963 6.92449 -5.17064 0
M  V30 6458 C 839.237 6.43627 -5.25174 0
M  V30 6459 O 839.975 7.43686 -4.60469 0
M  V30 6460 C 838.568 5.40275 -4.31916 0
M  V30 6461 O 839.367 5.25279 -3.14438 0
M  V30 6462 C 837.231 6.04847 -4.05327 0
M  V30 6463 H 837.263 6.62195 -3.11261 0
M  V30 6464 H 838.446 4.42556 -4.81383 0
M  V30 6465 H 839.93 5.92458 -5.93643 0
M  V30 6466 H 838.236 7.92655 -6.402 0
M  V30 6467 H 838.046 6.26671 -8.0846 0
M  V30 6468 H 836.416 6.29101 -7.32804 0
M  V30 6469 H 839.055 5.84315 -2.47318 0
M  V30 6470 P 840.912 7.39546 -4.75277 0
M  V30 6471 O 842.334 7.84798 -5.01039 0
M  V30 6472 O 840.552 5.9812 -5.08098 0
M  V30 6473 O 840.589 7.57503 -3.1866 0
M  V30 6474 C 840.429 8.97357 -2.74833 0
M  V30 6475 C 840.969 9.07548 -1.32709 0
M  V30 6476 O 839.913 8.62072 -0.606159 0
M  V30 6477 C 842.187 8.25383 -0.938334 0
M  V30 6478 O 842.925 8.74577 0.146954 0
M  V30 6479 C 841.518 6.8802 -0.712559 0
M  V30 6480 O 842.317 6.1189 0.194655 0
M  V30 6481 C 840.181 7.27966 -0.139777 0
M  V30 6482 H 840.213 7.25354 0.961601 0
M  V30 6483 H 841.396 6.32557 -1.65702 0
M  V30 6484 H 842.88 8.19355 -1.79097 0
M  V30 6485 H 841.186 10.1294 -1.10029 0
M  V30 6486 H 840.996 9.64276 -3.41316 0
M  V30 6487 H 839.366 9.25417 -2.76357 0
M  V30 6488 H 842.005 6.25267 1.07847 0
M  V30 6489 P 843.863 8.791 6.31533e-12 0
M  V30 6490 O 845.284 9.31196 0.027936 0
M  V30 6491 O 843.503 7.77869 -1.04071 0
M  V30 6492 O 843.54 8.09533 1.41463 0
M  V30 6493 C 843.379 9.03587 2.5397 0
M  V30 6494 C 843.92 8.35226 3.79016 0
M  V30 6495 O 842.865 7.57904 4.1503 0
M  V30 6496 C 845.138 7.45087 3.67298 0
M  V30 6497 O 845.876 7.27796 4.85194 0
M  V30 6498 C 844.47 6.17323 3.12027 0
M  V30 6499 O 845.268 5.04496 3.46627 0
M  V30 6500 C 843.132 6.19961 3.81809 0
M  V30 6501 N 842.089 5.71575 2.93223 0
M  V30 6502 C 842.258 5.77362 1.59168 0
M  V30 6503 N 841.231 5.3123 0.911893 0
M  V30 6504 C 840.346 4.91717 1.89588 0
M  V30 6505 C 839.079 4.3114 1.8076 0
M  V30 6506 N 838.514 4.06823 3.02898 0
M  V30 6507 C 839.116 4.35062 4.22711 0
M  V30 6508 N 840.293 4.90805 4.35707 0
M  V30 6509 C 840.868 5.16382 3.14469 0
M  V30 6510 H 844.347 6.21428 2.0318 0
M  V30 6511 H 845.83 7.86112 2.9231 0
M  V30 6512 H 844.136 9.11171 4.55987 0
M  V30 6513 H 843.946 9.9573 2.34194 0
M  V30 6514 H 842.316 9.2792 2.67832 0
M  V30 6515 H 843.158 6.16575 1.12198 0
M  V30 6516 H 844.956 4.67628 4.28704 0
M  V30 6517 P 846.814 7.39546 4.75277 0
M  V30 6518 O 848.236 7.81945 5.05847 0
M  V30 6519 O 846.454 7.1065 3.32998 0
M  V30 6520 O 846.491 6.04542 5.56673 0
M  V30 6521 C 846.331 6.22772 7.02095 0
M  V30 6522 C 846.871 4.97671 7.70322 0
M  V30 6523 O 845.816 4.13256 7.58987 0
M  V30 6524 C 848.089 4.28231 7.11815 0
M  V30 6525 O 848.827 3.49945 8.01648 0
M  V30 6526 C 847.421 3.5063 5.96244 0
M  V30 6527 O 848.219 2.36443 5.64589 0
M  V30 6528 C 846.083 3.15122 6.56374 0
M  V30 6529 N 845.04 3.22311 5.55692 0
M  V30 6530 C 845.102 4.14382 4.59701 0
M  V30 6531 N 844.057 4.04476 3.76958 0
M  V30 6532 C 843.323 3.04892 4.26534 0
M  V30 6533 C 842.017 2.57447 3.88189 0
M  V30 6534 O 841.284 2.9785 2.96543 0
M  V30 6535 N 841.587 1.55228 4.65922 0
M  V30 6536 C 842.336 1.01152 5.73447 0
M  V30 6537 N 841.739 -0.0472117 6.37783 0
M  V30 6538 N 843.489 1.467 6.13813 0
M  V30 6539 C 843.946 2.4931 5.38487 0
M  V30 6540 H 846.115 2.13853 6.99751 0
M  V30 6541 H 847.298 4.13438 5.06482 0
M  V30 6542 H 848.783 5.02614 6.71414 0
M  V30 6543 H 847.088 5.20877 8.75697 0
M  V30 6544 H 846.898 7.11046 7.35349 0
M  V30 6545 H 845.267 6.35815 7.26986 0
M  V30 6546 H 840.691 1.15238 4.46468 0
M  V30 6547 H 845.898 4.88312 4.49647 0
M  V30 6548 H 840.828 -0.396382 6.05203 0
M  V30 6549 H 842.204 -0.484997 7.18465 0
M  V30 6550 H 847.908 1.61619 6.13468 0
M  V30 6551 P 849.764 3.65191 7.99657 0
M  V30 6552 O 851.186 3.8425 8.48115 0
M  V30 6553 O 849.404 4.17805 6.64342 0
M  V30 6554 O 849.441 2.07613 7.95143 0
M  V30 6555 C 849.281 1.44328 9.27336 0
M  V30 6556 C 849.821 0.0220036 9.17197 0
M  V30 6557 O 848.765 -0.626867 8.61923 0
M  V30 6558 C 851.039 -0.24586 8.30336 0
M  V30 6559 O 851.777 -1.39011 8.63583 0
M  V30 6560 C 850.37 -0.273849 6.91158 0
M  V30 6561 O 851.169 -1.06348 6.02892 0
M  V30 6562 C 849.033 -0.897649 7.22545 0
M  V30 6563 H 849.065 -1.9841 7.04286 0
M  V30 6564 H 850.248 0.739928 6.497 0
M  V30 6565 H 851.732 0.60668 8.36503 0
M  V30 6566 H 850.038 -0.352479 10.1829 0
M  V30 6567 H 849.848 2.00611 10.0304 0
M  V30 6568 H 848.218 1.41843 9.55327 0
M  V30 6569 H 850.857 -1.95734 6.03555 0
M  V30 6570 P 852.715 -1.25109 8.70152 0
M  V30 6571 O 854.137 -1.35274 9.21221 0
M  V30 6572 O 852.355 -0.0769065 7.84762 0
M  V30 6573 O 852.392 -2.55232 7.81161 0
M  V30 6574 C 852.232 -3.79939 8.58154 0
M  V30 6575 C 852.772 -4.94023 7.72785 0
M  V30 6576 O 851.716 -5.18726 6.91205 0
M  V30 6577 C 853.99 -4.69597 6.85231 0
M  V30 6578 O 854.728 -5.83832 6.51337 0
M  V30 6579 C 853.321 -3.96706 5.66633 0
M  V30 6580 O 854.12 -4.15414 4.49689 0
M  V30 6581 C 851.984 -4.66153 5.59313 0
M  V30 6582 H 852.016 -5.47679 4.85214 0
M  V30 6583 H 853.199 -2.89008 5.86566 0
M  V30 6584 H 854.683 -4.0121 7.36511 0
M  V30 6585 H 852.989 -5.80182 8.37584 0
M  V30 6586 H 852.799 -3.73517 9.52265 0
M  V30 6587 H 851.169 -3.97163 8.80359 0
M  V30 6588 H 853.808 -4.90969 4.01921 0
M  V30 6589 P 855.665 -5.75688 6.64379 0
M  V30 6590 O 857.087 -6.11981 7.01997 0
M  V30 6591 O 855.305 -4.30744 6.56026 0
M  V30 6592 O 855.342 -6.37042 5.19165 0
M  V30 6593 C 855.182 -7.83578 5.16515 0
M  V30 6594 C 855.722 -8.33307 3.82977 0
M  V30 6595 O 854.667 -8.10074 3.01034 0
M  V30 6596 C 856.94 -7.65514 3.2257 0
M  V30 6597 O 857.678 -8.4329 2.32297 0
M  V30 6598 C 856.272 -6.40075 2.62207 0
M  V30 6599 O 857.07 -5.92492 1.53687 0
M  V30 6600 C 854.934 -6.9454 2.18503 0
M  V30 6601 N 853.891 -5.95905 2.39948 0
M  V30 6602 C 853.953 -5.13994 3.44742 0
M  V30 6603 N 852.908 -4.30684 3.46712 0
M  V30 6604 C 852.174 -4.65583 2.41086 0
M  V30 6605 C 850.868 -4.20877 1.99581 0
M  V30 6606 O 850.135 -3.35913 2.52616 0
M  V30 6607 N 850.438 -4.83271 0.873406 0
M  V30 6608 C 851.187 -5.82006 0.185129 0
M  V30 6609 N 850.59 -6.30619 -0.95439 0
M  V30 6610 N 852.34 -6.28443 0.578524 0
M  V30 6611 C 852.797 -5.68486 1.70138 0
M  V30 6612 H 854.966 -7.23063 1.12091 0
M  V30 6613 H 856.149 -5.60165 3.3715 0
M  V30 6614 H 857.634 -7.3611 4.01946 0
M  V30 6615 H 855.939 -9.40912 3.9095 0
M  V30 6616 H 855.749 -8.29056 5.99158 0
M  V30 6617 H 854.118 -8.10073 5.25882 0
M  V30 6618 H 849.542 -4.58323 0.505262 0
M  V30 6619 H 854.749 -5.14564 4.1935 0
M  V30 6620 H 849.679 -5.93402 -1.25364 0
M  V30 6621 H 851.055 -7.0425 -1.50254 0
M  V30 6622 H 856.759 -6.30224 0.72668 0
M  V30 6623 P 858.616 -8.4349 2.47671 0
M  V30 6624 O 860.038 -8.94167 2.5964 0
M  V30 6625 O 858.256 -7.1704 3.19006 0
M  V30 6626 O 858.293 -8.16596 0.923387 0
M  V30 6627 C 858.133 -9.38437 0.108857 0
M  V30 6628 C 858.673 -9.08175 -1.28353 0
M  V30 6629 O 857.617 -8.44229 -1.84713 0
M  V30 6630 C 859.891 -8.18386 -1.42505 0
M  V30 6631 O 860.629 -8.3501 -2.60497 0
M  V30 6632 C 859.222 -6.80225 -1.25468 0
M  V30 6633 O 860.021 -5.81621 -1.91066 0
M  V30 6634 C 857.885 -7.02416 -1.9168 0
M  V30 6635 H 857.917 -6.6888 -2.96621 0
M  V30 6636 H 859.1 -6.53617 -0.192223 0
M  V30 6637 H 860.584 -8.36622 -0.589963 0
M  V30 6638 H 858.89 -10.0291 -1.79807 0
M  V30 6639 H 858.7 -10.2138 0.558219 0
M  V30 6640 H 857.07 -9.6579 0.0444202 0
M  V30 6641 H 859.709 -5.69556 -2.79637 0
M  V30 6642 P 861.566 -8.4349 -2.47671 0
M  V30 6643 O 862.988 -8.92593 -2.65 0
M  V30 6644 O 861.206 -7.7568 -1.19296 0
M  V30 6645 O 861.243 -7.36886 -3.63805 0
M  V30 6646 C 861.083 -7.95349 -4.982 0
M  V30 6647 C 861.623 -6.94612 -5.98974 0
M  V30 6648 O 860.567 -6.10347 -6.11815 0
M  V30 6649 C 862.841 -6.11426 -5.62335 0
M  V30 6650 O 863.579 -5.6162 -6.70584 0
M  V30 6651 C 862.172 -5.04409 -4.73308 0
M  V30 6652 O 862.971 -3.85992 -4.75183 0
M  V30 6653 C 860.835 -4.8728 -5.41006 0
M  V30 6654 H 860.867 -4.02333 -6.11157 0
M  V30 6655 H 862.05 -5.39466 -3.69543 0
M  V30 6656 H 863.534 -6.71916 -5.01943 0
M  V30 6657 H 861.84 -7.4649 -6.93477 0
M  V30 6658 H 861.65 -8.89416 -5.05237 0
M  V30 6659 H 860.02 -8.14876 -5.18409 0
M  V30 6660 H 862.659 -3.27957 -5.4317 0
M  V30 6661 P 864.517 -5.75688 -6.64379 0
M  V30 6662 O 865.939 -6.07627 -7.05504 0
M  V30 6663 O 864.157 -5.88047 -5.19722 0
M  V30 6664 O 864.194 -4.2322 -7.04443 0
M  V30 6665 C 864.034 -3.99743 -8.4911 0
M  V30 6666 C 864.574 -2.60516 -8.79425 0
M  V30 6667 O 863.518 -1.82684 -8.4467 0
M  V30 6668 C 865.792 -2.10343 -8.03628 0
M  V30 6669 O 866.53 -1.09919 -8.67766 0
M  V30 6670 C 865.123 -1.68446 -6.70876 0
M  V30 6671 O 865.922 -0.678137 -6.08433 0
M  V30 6672 C 863.786 -1.17436 -7.18567 0
M  V30 6673 H 863.818 -0.0804732 -7.31656 0
M  V30 6674 H 865.001 -2.54037 -6.02537 0
M  V30 6675 H 866.485 -2.93881 -7.85526 0
M  V30 6676 H 864.791 -2.53065 -9.86973 0
M  V30 6677 H 864.601 -4.75072 -9.05887 0
M  V30 6678 H 862.971 -4.05244 -8.76668 0
M  V30 6679 H 865.61 0.177647 -6.34251 0
M  V30 6680 P 867.468 -1.25109 -8.70152 0
M  V30 6681 O 868.89 -1.29744 -9.22016 0
M  V30 6682 O 867.108 -2.13714 -7.55141 0
M  V30 6683 O 867.145 0.248149 -8.21425 0
M  V30 6684 C 866.985 1.22779 -9.30434 0
M  V30 6685 C 867.525 2.56293 -8.80664 0
M  V30 6686 O 866.469 3.02979 -8.09349 0
M  V30 6687 C 868.743 2.57523 -7.89775 0
M  V30 6688 O 869.481 3.7668 -7.89438 0
M  V30 6689 C 868.074 2.20997 -6.55446 0
M  V30 6690 O 868.873 2.71895 -5.48509 0
M  V30 6691 C 866.737 2.89693 -6.67988 0
M  V30 6692 H 866.769 3.88793 -6.19859 0
M  V30 6693 H 867.952 1.12046 -6.44229 0
M  V30 6694 H 869.436 1.7746 -8.19711 0
M  V30 6695 H 867.742 3.20706 -9.67112 0
M  V30 6696 H 867.552 0.901032 -10.1892 0
M  V30 6697 H 865.922 1.33049 -9.56592 0
M  V30 6698 H 868.561 3.57847 -5.23962 0
M  V30 6699 P 870.418 3.65191 -7.99657 0
M  V30 6700 O 871.84 3.89332 -8.45794 0
M  V30 6701 O 870.058 2.28472 -7.50807 0
M  V30 6702 O 870.095 4.64972 -6.77611 0
M  V30 6703 C 869.935 6.06319 -7.16352 0
M  V30 6704 C 870.475 6.91731 -6.02299 0
M  V30 6705 O 869.419 6.92449 -5.17064 0
M  V30 6706 C 871.693 6.43627 -5.25174 0
M  V30 6707 O 872.431 7.43686 -4.60469 0
M  V30 6708 C 871.024 5.40275 -4.31916 0
M  V30 6709 O 871.823 5.25279 -3.14438 0
M  V30 6710 C 869.687 6.04847 -4.05327 0
M  V30 6711 H 869.719 6.62195 -3.11261 0
M  V30 6712 H 870.902 4.42556 -4.81383 0
M  V30 6713 H 872.386 5.92458 -5.93643 0
M  V30 6714 H 870.692 7.92655 -6.402 0
M  V30 6715 H 870.502 6.26671 -8.0846 0
M  V30 6716 H 868.872 6.29101 -7.32804 0
M  V30 6717 H 871.511 5.84315 -2.47318 0
M  V30 6718 P 873.369 7.39546 -4.75277 0
M  V30 6719 O 874.791 7.84798 -5.01039 0
M  V30 6720 O 873.009 5.9812 -5.08098 0
M  V30 6721 O 873.046 7.57503 -3.1866 0
M  V30 6722 C 872.886 8.97357 -2.74833 0
M  V30 6723 C 873.426 9.07548 -1.32709 0
M  V30 6724 O 872.37 8.62072 -0.606159 0
M  V30 6725 C 874.644 8.25383 -0.938334 0
M  V30 6726 O 875.382 8.74577 0.146954 0
M  V30 6727 C 873.975 6.8802 -0.712559 0
M  V30 6728 O 874.774 6.1189 0.194655 0
M  V30 6729 C 872.638 7.27966 -0.139777 0
M  V30 6730 H 872.67 7.25354 0.961601 0
M  V30 6731 H 873.853 6.32557 -1.65702 0
M  V30 6732 H 875.337 8.19355 -1.79097 0
M  V30 6733 H 873.643 10.1294 -1.10029 0
M  V30 6734 H 873.453 9.64276 -3.41316 0
M  V30 6735 H 871.823 9.25417 -2.76357 0
M  V30 6736 H 874.462 6.25267 1.07847 0
M  V30 6737 P 876.319 8.791 6.62549e-12 0
M  V30 6738 O 877.741 9.31096 0.027933 0
M  V30 6739 O 875.959 7.77869 -1.04071 0
M  V30 6740 O 875.996 8.09533 1.41463 0
M  V30 6741 C 875.836 9.0349 2.53943 0
M  V30 6742 C 876.376 8.35226 3.79016 0
M  V30 6743 O 875.32 7.57992 4.15078 0
M  V30 6744 C 877.594 7.45087 3.67298 0
M  V30 6745 O 878.332 7.27796 4.85194 0
M  V30 6746 C 876.925 6.17323 3.12027 0
M  V30 6747 O 877.724 5.04231 3.47188 0
M  V30 6748 C 875.588 6.19961 3.81809 0
M  V30 6749 H 875.62 5.58218 4.73051 0
M  V30 6750 H 876.803 6.21726 2.02589 0
M  V30 6751 H 878.287 7.86112 2.9231 0
M  V30 6752 H 876.593 9.11627 4.55076 0
M  V30 6753 H 876.403 9.9573 2.34194 0
M  V30 6754 H 874.773 9.2792 2.67832 0
M  V30 6755 H 877.412 4.67702 4.28772 0
M  V30 6756 P 879.27 7.39546 4.75277 0
M  V30 6757 O 880.692 7.81777 5.05738 0
M  V30 6758 O 878.91 7.1065 3.32998 0
M  V30 6759 O 878.947 6.04542 5.56673 0
M  V30 6760 C 878.787 6.22772 7.02095 0
M  V30 6761 C 879.327 4.97725 7.70406 0
M  V30 6762 O 878.271 4.13256 7.58987 0
M  V30 6763 C 880.545 4.28231 7.11815 0
M  V30 6764 O 881.283 3.49945 8.01648 0
M  V30 6765 C 879.876 3.5063 5.96244 0
M  V30 6766 O 880.675 2.36482 5.64681 0
M  V30 6767 C 878.539 3.15122 6.56374 0
M  V30 6768 H 878.571 2.13853 6.99751 0
M  V30 6769 H 879.754 4.13501 5.06559 0
M  V30 6770 H 881.238 5.03285 6.70911 0
M  V30 6771 H 879.544 5.20877 8.75697 0
M  V30 6772 H 879.354 7.11046 7.35349 0
M  V30 6773 H 877.724 6.35815 7.26986 0
M  V30 6774 H 880.363 1.61644 6.13565 0
M  V30 6775 P 882.22 3.65191 7.99657 0
M  V30 6776 O 883.642 3.8425 8.48115 0
M  V30 6777 O 881.86 4.17805 6.64342 0
M  V30 6778 O 881.897 2.07613 7.95143 0
M  V30 6779 C 881.737 1.44328 9.27336 0
M  V30 6780 C 882.277 0.0220036 9.17197 0
M  V30 6781 O 881.221 -0.626867 8.61923 0
M  V30 6782 C 883.495 -0.24586 8.30336 0
M  V30 6783 O 884.233 -1.39011 8.63583 0
M  V30 6784 C 882.826 -0.273849 6.91158 0
M  V30 6785 O 883.625 -1.06348 6.02892 0
M  V30 6786 C 881.489 -0.897649 7.22545 0
M  V30 6787 H 881.521 -1.9841 7.04286 0
M  V30 6788 H 882.704 0.739928 6.497 0
M  V30 6789 H 884.188 0.60668 8.36503 0
M  V30 6790 H 882.494 -0.352479 10.1829 0
M  V30 6791 H 882.304 2.00611 10.0304 0
M  V30 6792 H 880.674 1.41843 9.55327 0
M  V30 6793 H 883.313 -1.95734 6.03555 0
M  V30 6794 P 885.171 -1.25109 8.70152 0
M  V30 6795 O 886.593 -1.35274 9.21221 0
M  V30 6796 O 884.811 -0.0769065 7.84762 0
M  V30 6797 O 884.848 -2.55232 7.81161 0
M  V30 6798 C 884.688 -3.79939 8.58154 0
M  V30 6799 C 885.228 -4.94023 7.72785 0
M  V30 6800 O 884.172 -5.18726 6.91205 0
M  V30 6801 C 886.446 -4.69597 6.85231 0
M  V30 6802 O 887.184 -5.83832 6.51337 0
M  V30 6803 C 885.777 -3.96706 5.66633 0
M  V30 6804 O 886.576 -4.15414 4.49689 0
M  V30 6805 C 884.44 -4.66153 5.59313 0
M  V30 6806 H 884.472 -5.47679 4.85214 0
M  V30 6807 H 885.655 -2.89008 5.86566 0
M  V30 6808 H 887.139 -4.0121 7.36511 0
M  V30 6809 H 885.445 -5.80182 8.37584 0
M  V30 6810 H 885.255 -3.73517 9.52265 0
M  V30 6811 H 883.625 -3.97163 8.80359 0
M  V30 6812 H 886.264 -4.90969 4.01921 0
M  V30 6813 P 888.122 -5.75688 6.64379 0
M  V30 6814 O 889.544 -6.11849 7.01846 0
M  V30 6815 O 887.762 -4.30744 6.56026 0
M  V30 6816 O 887.799 -6.37042 5.19165 0
M  V30 6817 C 887.639 -7.83578 5.16515 0
M  V30 6818 C 888.179 -8.33398 3.83019 0
M  V30 6819 O 887.123 -8.10074 3.01034 0
M  V30 6820 C 889.397 -7.65514 3.2257 0
M  V30 6821 O 890.135 -8.4329 2.32297 0
M  V30 6822 C 888.728 -6.40075 2.62207 0
M  V30 6823 O 889.527 -5.92589 1.53712 0
M  V30 6824 C 887.391 -6.9454 2.18503 0
M  V30 6825 H 887.423 -7.23063 1.12091 0
M  V30 6826 H 888.606 -5.6025 3.37201 0
M  V30 6827 H 890.09 -7.35707 4.02681 0
M  V30 6828 H 888.396 -9.40912 3.9095 0
M  V30 6829 H 888.206 -8.29056 5.99158 0
M  V30 6830 H 886.576 -8.10073 5.25882 0
M  V30 6831 H 889.215 -6.30324 0.726794 0
M  V30 6832 P 891.072 -8.4349 2.47671 0
M  V30 6833 O 892.493 -8.94263 2.59668 0
M  V30 6834 O 890.712 -7.1704 3.19006 0
M  V30 6835 O 890.749 -8.16596 0.923387 0
M  V30 6836 C 890.588 -9.38537 0.108869 0
M  V30 6837 C 891.129 -9.08175 -1.28353 0
M  V30 6838 O 890.074 -8.44131 -1.84692 0
M  V30 6839 C 892.347 -8.18386 -1.42505 0
M  V30 6840 O 893.085 -8.3501 -2.60497 0
M  V30 6841 C 891.679 -6.80225 -1.25468 0
M  V30 6842 O 892.477 -5.81716 -1.90454 0
M  V30 6843 C 890.341 -7.02416 -1.9168 0
M  V30 6844 N 889.298 -6.31033 -1.20314 0
M  V30 6845 C 889.467 -5.98817 0.0994088 0
M  V30 6846 N 888.44 -5.35403 0.621694 0
M  V30 6847 C 887.555 -5.25212 -0.43376 0
M  V30 6848 C 886.288 -4.64602 -0.519722 0
M  V30 6849 N 885.689 -4.01457 0.519136 0
M  V30 6850 N 885.723 -4.7568 -1.76013 0
M  V30 6851 C 886.325 -5.3653 -2.83017 0
M  V30 6852 N 887.502 -5.93676 -2.79782 0
M  V30 6853 C 888.077 -5.84061 -1.56249 0
M  V30 6854 H 890.373 -6.68789 -2.9658 0
M  V30 6855 H 891.556 -6.53498 -0.198729 0
M  V30 6856 H 893.039 -8.36622 -0.589963 0
M  V30 6857 H 891.345 -10.0273 -1.8081 0
M  V30 6858 H 891.155 -10.2138 0.558219 0
M  V30 6859 H 889.525 -9.6579 0.0444202 0
M  V30 6860 H 885.789 -5.37113 -3.77321 0
M  V30 6861 H 890.367 -6.23209 0.660562 0
M  V30 6862 H 884.759 -3.58834 0.394862 0
M  V30 6863 H 886.163 -3.96059 1.43048 0
M  V30 6864 H 892.165 -5.69466 -2.79593 0
M  V30 6865 P 894.023 -8.4349 -2.47671 0
M  V30 6866 O 895.444 -8.92689 -2.65029 0
M  V30 6867 O 893.663 -7.7568 -1.19296 0
M  V30 6868 O 893.7 -7.36886 -3.63805 0
M  V30 6869 C 893.539 -7.95433 -4.98253 0
M  V30 6870 C 894.08 -6.94612 -5.98974 0
M  V30 6871 O 893.025 -6.10277 -6.11744 0
M  V30 6872 C 895.298 -6.11426 -5.62335 0
M  V30 6873 O 896.036 -5.6162 -6.70584 0
M  V30 6874 C 894.63 -5.04409 -4.73308 0
M  V30 6875 O 895.428 -3.86404 -4.74719 0
M  V30 6876 C 893.292 -4.8728 -5.41006 0
M  V30 6877 N 892.249 -4.65812 -4.42377 0
M  V30 6878 C 892.418 -5.09132 -3.15382 0
M  V30 6879 N 891.391 -4.84021 -2.3716 0
M  V30 6880 C 890.506 -4.18386 -3.20441 0
M  V30 6881 C 889.239 -3.6275 -2.94905 0
M  V30 6882 N 888.674 -3.05008 -4.05243 0
M  V30 6883 C 889.276 -2.98348 -5.28159 0
M  V30 6884 N 890.453 -3.48171 -5.56333 0
M  V30 6885 C 891.028 -4.06869 -4.47212 0
M  V30 6886 H 894.507 -5.39013 -3.70026 0
M  V30 6887 H 895.99 -6.71916 -5.01943 0
M  V30 6888 H 894.296 -7.45796 -6.94223 0
M  V30 6889 H 894.106 -8.89416 -5.05237 0
M  V30 6890 H 892.476 -8.14876 -5.18409 0
M  V30 6891 H 893.318 -5.59989 -2.81362 0
M  V30 6892 H 895.116 -3.27906 -5.43085 0
M  V30 6893 P 896.973 -5.75688 -6.64379 0
M  V30 6894 O 898.395 -6.07627 -7.05504 0
M  V30 6895 O 896.613 -5.88047 -5.19722 0
M  V30 6896 O 896.65 -4.2322 -7.04443 0
M  V30 6897 C 896.49 -3.99743 -8.4911 0
M  V30 6898 C 897.03 -2.60516 -8.79425 0
M  V30 6899 O 895.974 -1.82684 -8.4467 0
M  V30 6900 C 898.248 -2.10343 -8.03628 0
M  V30 6901 O 898.986 -1.09919 -8.67766 0
M  V30 6902 C 897.579 -1.68446 -6.70876 0
M  V30 6903 O 898.378 -0.678137 -6.08433 0
M  V30 6904 C 896.242 -1.17436 -7.18567 0
M  V30 6905 H 896.274 -0.0804732 -7.31656 0
M  V30 6906 H 897.457 -2.54037 -6.02537 0
M  V30 6907 H 898.941 -2.93881 -7.85526 0
M  V30 6908 H 897.247 -2.53065 -9.86973 0
M  V30 6909 H 897.057 -4.75072 -9.05887 0
M  V30 6910 H 895.427 -4.05244 -8.76668 0
M  V30 6911 H 898.066 0.177647 -6.34251 0
M  V30 6912 P 899.924 -1.25109 -8.70152 0
M  V30 6913 O 901.346 -1.29744 -9.22016 0
M  V30 6914 O 899.564 -2.13714 -7.55141 0
M  V30 6915 O 899.601 0.248149 -8.21425 0
M  V30 6916 C 899.441 1.22779 -9.30434 0
M  V30 6917 C 899.981 2.56293 -8.80664 0
M  V30 6918 O 898.925 3.02979 -8.09349 0
M  V30 6919 C 901.199 2.57523 -7.89775 0
M  V30 6920 O 901.937 3.7668 -7.89438 0
M  V30 6921 C 900.53 2.20997 -6.55446 0
M  V30 6922 O 901.329 2.71895 -5.48509 0
M  V30 6923 C 899.193 2.89693 -6.67988 0
M  V30 6924 H 899.225 3.88793 -6.19859 0
M  V30 6925 H 900.408 1.12046 -6.44229 0
M  V30 6926 H 901.892 1.7746 -8.19711 0
M  V30 6927 H 900.198 3.20706 -9.67112 0
M  V30 6928 H 900.008 0.901032 -10.1892 0
M  V30 6929 H 898.378 1.33049 -9.56592 0
M  V30 6930 H 901.017 3.57847 -5.23962 0
M  V30 6931 P 902.874 3.65191 -7.99657 0
M  V30 6932 O 904.296 3.89332 -8.45794 0
M  V30 6933 O 902.514 2.28472 -7.50807 0
M  V30 6934 O 902.551 4.64972 -6.77611 0
M  V30 6935 C 902.391 6.06319 -7.16352 0
M  V30 6936 C 902.931 6.91731 -6.02299 0
M  V30 6937 O 901.875 6.92449 -5.17064 0
M  V30 6938 C 904.149 6.43627 -5.25174 0
M  V30 6939 O 904.887 7.43686 -4.60469 0
M  V30 6940 C 903.48 5.40275 -4.31916 0
M  V30 6941 O 904.279 5.25279 -3.14438 0
M  V30 6942 C 902.143 6.04847 -4.05327 0
M  V30 6943 H 902.175 6.62195 -3.11261 0
M  V30 6944 H 903.358 4.42556 -4.81383 0
M  V30 6945 H 904.842 5.92458 -5.93643 0
M  V30 6946 H 903.148 7.92655 -6.402 0
M  V30 6947 H 902.958 6.26671 -8.0846 0
M  V30 6948 H 901.328 6.29101 -7.32804 0
M  V30 6949 H 903.967 5.84315 -2.47318 0
M  V30 6950 P 905.825 7.39546 -4.75277 0
M  V30 6951 O 907.247 7.84798 -5.01039 0
M  V30 6952 O 905.465 5.9812 -5.08098 0
M  V30 6953 O 905.502 7.57503 -3.1866 0
M  V30 6954 C 905.342 8.97357 -2.74833 0
M  V30 6955 C 905.882 9.07548 -1.32709 0
M  V30 6956 O 904.826 8.62072 -0.606159 0
M  V30 6957 C 907.1 8.25383 -0.938334 0
M  V30 6958 O 907.838 8.74577 0.146954 0
M  V30 6959 C 906.431 6.8802 -0.712559 0
M  V30 6960 O 907.23 6.1189 0.194655 0
M  V30 6961 C 905.094 7.27966 -0.139777 0
M  V30 6962 H 905.126 7.25354 0.961601 0
M  V30 6963 H 906.309 6.32557 -1.65702 0
M  V30 6964 H 907.793 8.19355 -1.79097 0
M  V30 6965 H 906.099 10.1294 -1.10029 0
M  V30 6966 H 905.909 9.64276 -3.41316 0
M  V30 6967 H 904.279 9.25417 -2.76357 0
M  V30 6968 H 906.918 6.25267 1.07847 0
M  V30 6969 P 908.776 8.791 6.93566e-12 0
M  V30 6970 O 910.198 9.31096 0.027933 0
M  V30 6971 O 908.416 7.77869 -1.04071 0
M  V30 6972 O 908.453 8.09533 1.41463 0
M  V30 6973 C 908.293 9.0349 2.53943 0
M  V30 6974 C 908.833 8.35226 3.79016 0
M  V30 6975 O 907.777 7.57992 4.15078 0
M  V30 6976 C 910.051 7.45087 3.67298 0
M  V30 6977 O 910.789 7.27796 4.85194 0
M  V30 6978 C 909.382 6.17323 3.12027 0
M  V30 6979 O 910.181 5.04231 3.47188 0
M  V30 6980 C 908.045 6.19961 3.81809 0
M  V30 6981 H 908.077 5.58218 4.73051 0
M  V30 6982 H 909.26 6.21726 2.02589 0
M  V30 6983 H 910.744 7.86112 2.9231 0
M  V30 6984 H 909.05 9.11627 4.55076 0
M  V30 6985 H 908.86 9.9573 2.34194 0
M  V30 6986 H 907.23 9.2792 2.67832 0
M  V30 6987 H 909.869 4.67702 4.28772 0
M  V30 6988 P 911.726 7.39546 4.75277 0
M  V30 6989 O 913.148 7.81777 5.05738 0
M  V30 6990 O 911.366 7.1065 3.32998 0
M  V30 6991 O 911.403 6.04542 5.56673 0
M  V30 6992 C 911.243 6.22772 7.02095 0
M  V30 6993 C 911.783 4.97725 7.70406 0
M  V30 6994 O 910.727 4.13256 7.58987 0
M  V30 6995 C 913.001 4.28231 7.11815 0
M  V30 6996 O 913.739 3.49945 8.01648 0
M  V30 6997 C 912.332 3.5063 5.96244 0
M  V30 6998 O 913.131 2.36482 5.64681 0
M  V30 6999 C 910.995 3.15122 6.56374 0
M  V30 7000 H 911.027 2.13853 6.99751 0
M  V30 7001 H 912.21 4.13501 5.06559 0
M  V30 7002 H 913.694 5.03285 6.70911 0
M  V30 7003 H 912 5.20877 8.75697 0
M  V30 7004 H 911.81 7.11046 7.35349 0
M  V30 7005 H 910.18 6.35815 7.26986 0
M  V30 7006 H 912.819 1.61644 6.13565 0
M  V30 7007 P 914.677 3.65191 7.99657 0
M  V30 7008 O 916.099 3.8425 8.48115 0
M  V30 7009 O 914.317 4.17805 6.64342 0
M  V30 7010 O 914.354 2.07613 7.95143 0
M  V30 7011 C 914.194 1.44328 9.27336 0
M  V30 7012 C 914.734 0.0220036 9.17197 0
M  V30 7013 O 913.678 -0.626867 8.61923 0
M  V30 7014 C 915.952 -0.24586 8.30336 0
M  V30 7015 O 916.69 -1.39011 8.63583 0
M  V30 7016 C 915.283 -0.273849 6.91158 0
M  V30 7017 O 916.082 -1.06348 6.02892 0
M  V30 7018 C 913.946 -0.897649 7.22545 0
M  V30 7019 H 913.978 -1.9841 7.04286 0
M  V30 7020 H 915.161 0.739928 6.497 0
M  V30 7021 H 916.645 0.60668 8.36503 0
M  V30 7022 H 914.951 -0.352479 10.1829 0
M  V30 7023 H 914.761 2.00611 10.0304 0
M  V30 7024 H 913.131 1.41843 9.55327 0
M  V30 7025 H 915.77 -1.95734 6.03555 0
M  V30 7026 P 917.627 -1.25109 8.70152 0
M  V30 7027 O 919.049 -1.35303 9.21419 0
M  V30 7028 O 917.267 -0.0769065 7.84762 0
M  V30 7029 O 917.304 -2.55232 7.81161 0
M  V30 7030 C 917.144 -3.79939 8.58154 0
M  V30 7031 C 917.684 -4.93969 7.72701 0
M  V30 7032 O 916.629 -5.18726 6.91205 0
M  V30 7033 C 918.902 -4.69597 6.85231 0
M  V30 7034 O 919.64 -5.83832 6.51337 0
M  V30 7035 C 918.234 -3.96706 5.66633 0
M  V30 7036 O 919.032 -4.15346 4.49615 0
M  V30 7037 C 916.896 -4.66153 5.59313 0
M  V30 7038 N 915.853 -3.71582 5.24027 0
M  V30 7039 C 915.915 -2.46018 5.67902 0
M  V30 7040 N 914.87 -1.74868 5.24518 0
M  V30 7041 C 914.136 -2.61333 4.54528 0
M  V30 7042 C 912.83 -2.46162 3.95441 0
M  V30 7043 O 912.097 -1.46013 3.94122 0
M  V30 7044 N 912.4 -3.59334 3.34752 0
M  V30 7045 C 913.149 -4.79605 3.3023 0
M  V30 7046 N 912.552 -5.82109 2.6065 0
M  V30 7047 N 914.302 -4.97402 3.8843 0
M  V30 7048 C 914.759 -3.86258 4.50476 0
M  V30 7049 H 916.928 -5.47679 4.85214 0
M  V30 7050 H 918.111 -2.88964 5.86476 0
M  V30 7051 H 919.596 -4.01947 7.36109 0
M  V30 7052 H 917.901 -5.80182 8.37584 0
M  V30 7053 H 917.711 -3.73517 9.52265 0
M  V30 7054 H 916.08 -3.97163 8.80359 0
M  V30 7055 H 911.504 -3.5825 2.90294 0
M  V30 7056 H 916.711 -2.06161 6.30974 0
M  V30 7057 H 911.641 -5.66979 2.15354 0
M  V30 7058 H 913.017 -6.73686 2.54344 0
M  V30 7059 H 918.721 -4.90891 4.01857 0
M  V30 7060 P 920.578 -5.75688 6.64379 0
M  V30 7061 O 921.999 -6.11915 7.01921 0
M  V30 7062 O 920.218 -4.30744 6.56026 0
M  V30 7063 O 920.255 -6.37042 5.19165 0
M  V30 7064 C 920.094 -7.83662 5.1657 0
M  V30 7065 C 920.635 -8.33398 3.83019 0
M  V30 7066 O 919.58 -8.0998 3.00999 0
M  V30 7067 C 921.853 -7.65514 3.2257 0
M  V30 7068 O 922.591 -8.4329 2.32297 0
M  V30 7069 C 921.185 -6.40075 2.62207 0
M  V30 7070 O 921.983 -5.92338 1.5428 0
M  V30 7071 C 919.847 -6.9454 2.18503 0
M  V30 7072 N 918.804 -5.95905 2.39948 0
M  V30 7073 C 918.973 -4.98383 3.32108 0
M  V30 7074 N 917.946 -4.16798 3.41761 0
M  V30 7075 C 917.061 -4.65287 2.47461 0
M  V30 7076 C 915.794 -4.18946 2.07461 0
M  V30 7077 N 915.195 -3.09661 2.60717 0
M  V30 7078 N 915.229 -4.95327 1.09101 0
M  V30 7079 C 915.831 -6.04369 0.519812 0
M  V30 7080 N 917.008 -6.50694 0.855982 0
M  V30 7081 C 917.583 -5.75818 1.84322 0
M  V30 7082 H 919.879 -7.22964 1.12076 0
M  V30 7083 H 921.062 -5.60502 3.36589 0
M  V30 7084 H 922.545 -7.35707 4.02681 0
M  V30 7085 H 920.851 -9.41302 3.90009 0
M  V30 7086 H 920.661 -8.29056 5.99158 0
M  V30 7087 H 919.031 -8.10073 5.25882 0
M  V30 7088 H 915.295 -6.55843 -0.270373 0
M  V30 7089 H 919.873 -4.88564 3.92502 0
M  V30 7090 H 914.265 -2.80523 2.27218 0
M  V30 7091 H 915.669 -2.55848 3.34465 0
M  V30 7092 H 921.671 -6.30224 0.72668 0
M  V30 7093 P 923.528 -8.4349 2.47671 0
M  V30 7094 O 924.95 -8.94167 2.5964 0
M  V30 7095 O 923.168 -7.1704 3.19006 0
M  V30 7096 O 923.205 -8.16596 0.923387 0
M  V30 7097 C 923.045 -9.38437 0.108857 0
M  V30 7098 C 923.585 -9.08175 -1.28353 0
M  V30 7099 O 922.529 -8.44229 -1.84713 0
M  V30 7100 C 924.803 -8.18386 -1.42505 0
M  V30 7101 O 925.541 -8.3501 -2.60497 0
M  V30 7102 C 924.134 -6.80225 -1.25468 0
M  V30 7103 O 924.933 -5.81621 -1.91066 0
M  V30 7104 C 922.797 -7.02416 -1.9168 0
M  V30 7105 H 922.829 -6.6888 -2.96621 0
M  V30 7106 H 924.012 -6.53617 -0.192223 0
M  V30 7107 H 925.496 -8.36622 -0.589963 0
M  V30 7108 H 923.802 -10.0291 -1.79807 0
M  V30 7109 H 923.612 -10.2138 0.558219 0
M  V30 7110 H 921.982 -9.6579 0.0444202 0
M  V30 7111 H 924.621 -5.69556 -2.79637 0
M  V30 7112 P 926.479 -8.4349 -2.47671 0
M  V30 7113 O 927.9 -8.92689 -2.65029 0
M  V30 7114 O 926.119 -7.7568 -1.19296 0
M  V30 7115 O 926.156 -7.36886 -3.63805 0
M  V30 7116 C 925.995 -7.95433 -4.98253 0
M  V30 7117 C 926.536 -6.94612 -5.98974 0
M  V30 7118 O 925.481 -6.10277 -6.11744 0
M  V30 7119 C 927.754 -6.11426 -5.62335 0
M  V30 7120 O 928.492 -5.6162 -6.70584 0
M  V30 7121 C 927.086 -5.04409 -4.73308 0
M  V30 7122 O 927.884 -3.86404 -4.74719 0
M  V30 7123 C 925.748 -4.8728 -5.41006 0
M  V30 7124 N 924.705 -4.65812 -4.42377 0
M  V30 7125 C 924.874 -5.09132 -3.15382 0
M  V30 7126 N 923.847 -4.84021 -2.3716 0
M  V30 7127 C 922.962 -4.18386 -3.20441 0
M  V30 7128 C 921.695 -3.6275 -2.94905 0
M  V30 7129 N 921.096 -3.65794 -1.73372 0
M  V30 7130 N 921.13 -3.05008 -4.05243 0
M  V30 7131 C 921.732 -2.98348 -5.28159 0
M  V30 7132 N 922.909 -3.48171 -5.56333 0
M  V30 7133 C 923.484 -4.06869 -4.47212 0
M  V30 7134 H 925.78 -4.02278 -6.11074 0
M  V30 7135 H 926.963 -5.39013 -3.70026 0
M  V30 7136 H 928.446 -6.71916 -5.01943 0
M  V30 7137 H 926.752 -7.45796 -6.94223 0
M  V30 7138 H 926.562 -8.89416 -5.05237 0
M  V30 7139 H 924.932 -8.14876 -5.18409 0
M  V30 7140 H 921.196 -2.47853 -6.07807 0
M  V30 7141 H 925.774 -5.59989 -2.81362 0
M  V30 7142 H 920.166 -3.23218 -1.60782 0
M  V30 7143 H 921.57 -4.10523 -0.937856 0
M  V30 7144 H 927.572 -3.27906 -5.43085 0
M  V30 7145 P 929.43 -5.75688 -6.64379 0
M  V30 7146 O 930.852 -6.07758 -7.05656 0
M  V30 7147 O 929.07 -5.88047 -5.19722 0
M  V30 7148 O 929.107 -4.2322 -7.04443 0
M  V30 7149 C 928.947 -3.99743 -8.4911 0
M  V30 7150 C 929.487 -2.60487 -8.79329 0
M  V30 7151 O 928.432 -1.82684 -8.4467 0
M  V30 7152 C 930.705 -2.10343 -8.03628 0
M  V30 7153 O 931.443 -1.09919 -8.67766 0
M  V30 7154 C 930.037 -1.68446 -6.70876 0
M  V30 7155 O 930.835 -0.678026 -6.08333 0
M  V30 7156 C 928.699 -1.17436 -7.18567 0
M  V30 7157 N 927.656 -1.52699 -6.23988 0
M  V30 7158 C 927.718 -2.68084 -5.57824 0
M  V30 7159 N 926.673 -2.8189 -4.75643 0
M  V30 7160 C 925.939 -1.72373 -4.95155 0
M  V30 7161 C 924.633 -1.37653 -4.44996 0
M  V30 7162 O 923.9 -2.02239 -3.68445 0
M  V30 7163 N 924.203 -0.17675 -4.90782 0
M  V30 7164 C 924.952 0.645036 -5.78716 0
M  V30 7165 N 924.355 1.84214 -6.10618 0
M  V30 7166 N 926.105 0.321732 -6.30279 0
M  V30 7167 C 926.562 -0.87502 -5.86913 0
M  V30 7168 H 928.731 -0.0804732 -7.31656 0
M  V30 7169 H 929.914 -2.53998 -6.02444 0
M  V30 7170 H 931.399 -2.93095 -7.8582 0
M  V30 7171 H 929.704 -2.53065 -9.86973 0
M  V30 7172 H 929.514 -4.75072 -9.05887 0
M  V30 7173 H 927.883 -4.05244 -8.76668 0
M  V30 7174 H 923.307 0.152143 -4.60849 0
M  V30 7175 H 928.514 -3.41852 -5.69006 0
M  V30 7176 H 923.444 2.08538 -5.69521 0
M  V30 7177 H 924.82 2.4895 -6.75698 0
M  V30 7178 H 930.524 0.177619 -6.34151 0
M  V30 7179 H 933.076 -1.2072 -8.15311 0
M  V30 END ATOM
M  V30 BEGIN BOND
M  V30 END BOND
M  V30 END CTAB
M  END
$$$$
