drugbank_target|P04406 Glyceraldehyde-3-phosphate dehydrogenase (DB00157; DB02059; DB03893; DB07347; DB09092; DB09130; DB11638)
 OpenBabel12092119343D

  0  0  0     0  0            999 V3000
M  V30 BEGIN CTAB
M  V30 COUNTS 5074 5124 0 0 0
M  V30 BEGIN ATOM
M  V30 1 H -0.908 1.98254 -0.117106 0
M  V30 2 N 0 1.576 0 0
M  V30 3 C 0.933 2.03868 1.02534 0
M  V30 4 C 1.911 0.928543 1.3348 0
M  V30 5 O 3.095 1.19667 1.45644 0
M  V30 6 C 0.222 2.43627 2.35294 0
M  V30 7 C -0.732 3.65373 2.2001 0
M  V30 8 S 0.101 5.13292 1.52614 0
M  V30 9 C 1.257 5.56322 2.86805 0
M  V30 10 H 1.49 2.90518 0.631377 0
M  V30 11 H -0.977 1.52953 0.210867 0
M  V30 12 H 0.981 2.67203 3.11629 0
M  V30 13 H -0.358 1.57376 2.7183 0
M  V30 14 H -1.165 3.90944 3.18086 0
M  V30 15 H -1.563 3.418 1.51819 0
M  V30 16 H 0.729 5.58782 3.83104 0
M  V30 17 H 1.672 6.56266 2.65933 0
M  V30 18 H 2.08 4.83886 2.90714 0
M  V30 19 N 1.4781 -0.272755 1.55222 0
M  V30 20 C 2.7261 -1.00234 1.75492 0
M  V30 21 C 3.0471 -1.8681 0.5592 0
M  V30 22 O 2.3171 -1.91215 -0.425882 0
M  V30 23 H 0.8971 -0.373076 0.647166 0
M  V30 24 H 3.5591 -0.296926 1.92625 0
M  V30 25 H 2.6551 -1.63913 2.65592 0
M  V30 26 N 2.9562 -1.48159 -0.537278 0
M  V30 27 C 3.9032 -1.62138 -1.64256 0
M  V30 28 C 4.8732 -0.463668 -1.59497 0
M  V30 29 O 6.0582 -0.686241 -1.78032 0
M  V30 30 C 3.1982 -1.66028 -3.02537 0
M  V30 31 C 2.3112 -2.92855 -3.17585 0
M  V30 32 C 1.4462 -2.87952 -4.46382 0
M  V30 33 C 0.4852 -4.09516 -4.54932 0
M  V30 34 N -0.3778 -4.02733 -5.75109 0
M  V30 35 H 4.4622 -2.56529 -1.51647 0
M  V30 36 H 1.9992 -1.27224 -0.738414 0
M  V30 37 H 3.9572 -1.66265 -3.82638 0
M  V30 38 H 2.5872 -0.751331 -3.13934 0
M  V30 39 H 1.6392 -3.02395 -2.30784 0
M  V30 40 H 2.9512 -3.82822 -3.19764 0
M  V30 41 H 2.1052 -2.8655 -5.34765 0
M  V30 42 H 0.8442 -1.95702 -4.46712 0
M  V30 43 H -0.1508 -4.11201 -3.64957 0
M  V30 44 H 1.0742 -5.02917 -4.56346 0
M  V30 45 H -0.9798 -3.13299 -5.76351 0
M  V30 46 H -1.0628 -4.86397 -5.78752 0
M  V30 47 H 0.2052 -4.05379 -6.65799 0
M  V30 48 N 4.4343 0.785586 -1.36625 0
M  V30 49 C 5.6803 1.54591 -1.31261 0
M  V30 50 C 6.0133 1.93906 0.106823 0
M  V30 51 O 5.2883 1.63007 1.06108 0
M  V30 52 C 5.5713 2.82038 -2.23889 0
M  V30 53 C 5.4243 2.49066 -3.74548 0
M  V30 54 C 6.7433 3.83887 -2.15217 0
M  V30 55 H 3.8623 0.560846 -0.478143 0
M  V30 56 H 6.5043 0.902278 -1.67209 0
M  V30 57 H 4.6543 3.36961 -1.93363 0
M  V30 58 H 6.3263 2.00164 -4.15611 0
M  V30 59 H 4.5693 1.81954 -3.93796 0
M  V30 60 H 5.2403 3.40109 -4.34776 0
M  V30 61 H 7.7163 3.38421 -2.42096 0
M  V30 62 H 6.5923 4.70806 -2.82193 0
M  V30 63 H 6.8533 4.27131 -1.14068 0
M  V30 64 N 5.9124 1.20967 1.01018 0
M  V30 65 C 6.8594 0.964281 2.09691 0
M  V30 66 C 7.8294 -0.107853 1.65749 0
M  V30 67 O 9.0144 0.0381987 1.90762 0
M  V30 68 C 6.1544 0.52943 3.41015 0
M  V30 69 C 5.2674 1.67043 3.98398 0
M  V30 70 C 4.4024 1.18525 5.17808 0
M  V30 71 C 3.4414 2.29892 5.67288 0
M  V30 72 N 2.5784 1.82546 6.77954 0
M  V30 73 H 7.4184 1.89463 2.30017 0
M  V30 74 H 4.9554 0.944289 1.1279 0
M  V30 75 H 6.9134 0.258588 4.16398 0
M  V30 76 H 5.5434 -0.363919 3.20742 0
M  V30 77 H 4.5954 2.05603 3.20049 0
M  V30 78 H 5.9074 2.50877 4.31117 0
M  V30 79 H 5.0614 0.870762 6.00419 0
M  V30 80 H 3.8004 0.316887 4.86669 0
M  V30 81 H 2.8054 2.6215 4.83278 0
M  V30 82 H 4.0304 3.17216 6.00459 0
M  V30 83 H 1.9764 0.980454 6.48632 0
M  V30 84 H 1.8934 2.59956 7.09901 0
M  V30 85 H 3.1614 1.54115 7.64113 0
M  V30 86 N 7.3905 -1.2043 1.01659 0
M  V30 87 C 8.6365 -1.90079 0.706963 0
M  V30 88 C 8.9695 -1.78648 -0.761474 0
M  V30 89 O 8.2445 -1.17069 -1.55323 0
M  V30 90 C 8.5275 -3.41469 1.14327 0
M  V30 91 C 8.3805 -3.61833 2.67201 0
M  V30 92 C 9.6995 -4.34261 0.714529 0
M  V30 93 H 6.8185 -0.690254 0.2583 0
M  V30 94 H 9.4605 -1.41826 1.26433 0
M  V30 95 H 7.6105 -3.82696 0.669056 0
M  V30 96 H 9.2825 -3.2986 3.22475 0
M  V30 97 H 7.5255 -3.05304 3.08175 0
M  V30 98 H 8.1965 -4.67955 2.92783 0
M  V30 99 H 10.6725 -4.00682 1.12221 0
M  V30 100 H 9.5485 -5.38806 1.04784 0
M  V30 101 H 9.8095 -4.40431 -0.383799 0
M  V30 102 N 8.8686 -0.792821 -1.36206 0
M  V30 103 C 10.1166 -0.366062 -1.98757 0
M  V30 104 C 10.4376 1.0668 -1.63231 0
M  V30 105 O 9.7076 1.73587 -0.907978 0
M  V30 106 H 8.2876 -0.132364 -0.735179 0
M  V30 107 H 10.9496 -1.01562 -1.66347 0
M  V30 108 H 10.0456 -0.460638 -3.08682 0
M  V30 109 N 10.3467 1.47872 -0.545128 0
M  V30 110 C 11.5927 2.02793 -0.0166104 0
M  V30 111 C 11.9257 1.41987 1.32489 0
M  V30 112 O 11.2007 0.571045 1.85928 0
M  V30 113 C 11.4837 3.59989 0.0893294 0
M  V30 114 C 11.3367 4.3125 -1.27841 0
M  V30 115 C 12.6557 4.32606 0.808724 0
M  V30 116 H 9.7747 0.736962 -0.00751035 0
M  V30 117 H 12.4167 1.76433 -0.705085 0
M  V30 118 H 10.5667 3.82579 0.675681 0
M  V30 119 H 12.2387 4.20035 -1.90704 0
M  V30 120 H 10.4817 3.92076 -1.85632 0
M  V30 121 H 11.1527 5.39736 -1.15713 0
M  V30 122 H 13.6287 4.14936 0.310992 0
M  V30 123 H 12.5047 5.42251 0.851782 0
M  V30 124 H 12.7657 4.00963 1.86229 0
M  V30 125 N 11.8248 0.280983 1.55075 0
M  V30 126 C 12.7728 -0.619864 2.24188 0
M  V30 127 C 13.7668 -1.15315 1.24092 0
M  V30 128 O 14.9728 -1.1061 1.42005 0
M  V30 129 H 11.3478 -0.218459 0.719569 0
M  V30 130 H 13.3188 -0.0141831 2.98397 0
M  V30 131 C 12.0678 -1.7899 2.98091 0
M  V30 132 H 11.3908 -1.38874 3.74905 0
M  V30 133 H 12.8308 -2.39672 3.49762 0
M  V30 134 C 11.2898 -2.68192 2.03899 0
M  V30 135 O 11.8198 -3.6872 1.594 0
M  V30 136 N 10.0258 -2.35488 1.70275 0
M  V30 137 H 9.5728 -1.53787 2.06658 0
M  V30 138 H 9.5308 -2.95442 1.07524 0
M  V30 139 N 13.3029 -1.57598 0.00835791 0
M  V30 140 C 14.5509 -1.90551 -0.6734 0
M  V30 141 C 14.8719 -0.883301 -1.73847 0
M  V30 142 O 14.1419 0.0781442 -1.95744 0
M  V30 143 H 12.7219 -0.703312 -0.251717 0
M  V30 144 H 15.3839 -1.94833 0.0512592 0
M  V30 145 H 14.4799 -2.9056 -1.13935 0
M  V30 146 N 14.781 0.264519 -1.55364 0
M  V30 147 C 16.028 0.994986 -1.7637 0
M  V30 148 C 16.356 1.85976 -0.5695 0
M  V30 149 O 15.611 1.90509 0.44776 0
M  V30 150 C 15.91 1.9004 -3.02687 0
M  V30 151 C 15.576 1.19243 -4.34847 0
M  V30 152 C 14.238 0.996709 -4.70764 0
M  V30 153 C 16.59 0.689296 -5.16622 0
M  V30 154 C 13.918 0.285261 -5.86006 0
M  V30 155 C 16.27 -0.00860079 -6.32599 0
M  V30 156 C 14.934 -0.215963 -6.67151 0
M  V30 157 H 14.204 0.364091 -0.645383 0
M  V30 158 H 16.851 0.266543 -1.89636 0
M  V30 159 H 15.156 2.69533 -2.84357 0
M  V30 160 H 16.853 2.46695 -3.16137 0
M  V30 161 H 13.443 1.3549 -4.06621 0
M  V30 162 H 17.627 0.828108 -4.89342 0
M  V30 163 H 12.883 0.113961 -6.11294 0
M  V30 164 H 17.057 -0.406186 -6.95214 0
M  V30 165 H 14.684 -0.769217 -7.56298 0
M  V30 166 N 16.2591 1.48442 0.529413 0
M  V30 167 C 17.5071 1.56179 1.28267 0
M  V30 168 C 17.8281 0.237721 1.93546 0
M  V30 169 O 17.0981 -0.740779 1.81354 0
M  V30 170 H 15.6781 0.575367 0.476405 0
M  V30 171 H 18.3401 1.84909 0.61602 0
M  V30 172 H 17.4361 2.34312 2.06165 0
M  V30 173 N 17.7372 -0.778329 1.37039 0
M  V30 174 C 19.1532 -1.07796 1.17695 0
M  V30 175 C 19.3532 -2.01498 0.00860115 0
M  V30 176 O 18.4092 -2.43901 -0.653352 0
M  V30 177 C 19.7222 -1.68178 2.49272 0
M  V30 178 C 21.2702 -1.80467 2.55735 0
M  V30 179 C 21.7452 -2.44263 3.87427 0
M  V30 180 N 23.2362 -2.51721 3.88833 0
M  V30 181 C 23.9712 -3.01919 4.87476 0
M  V30 182 N 23.4672 -3.5234 5.96513 0
M  V30 183 N 25.2602 -3.00733 4.74885 0
M  V30 184 H 17.4112 -0.156032 2.11826 0
M  V30 185 H 19.6742 -0.131844 0.938787 0
M  V30 186 H 19.3802 -1.06796 3.35093 0
M  V30 187 H 19.2542 -2.67554 2.65885 0
M  V30 188 H 21.6412 -2.40984 1.70325 0
M  V30 189 H 21.7222 -0.798656 2.43013 0
M  V30 190 H 21.3662 -1.84388 4.73248 0
M  V30 191 H 21.2962 -3.45458 3.9745 0
M  V30 192 H 23.7872 -2.1603 3.10063 0
M  V30 193 H 24.1002 -3.89027 6.67741 0
M  V30 194 H 22.4452 -3.50462 6.00168 0
M  V30 195 H 25.6362 -2.60638 3.88826 0
M  V30 196 H 25.8092 -3.39545 5.51918 0
M  V30 197 N 19.2153 -1.21501 -1.00376 0
M  V30 198 C 20.4643 -1.02718 -1.73586 0
M  V30 199 C 20.7773 0.439589 -1.90596 0
M  V30 200 O 21.9833 0.746848 -2.61026 0
M  V30 201 C 20.4393 -1.78929 -3.1227 0
M  V30 202 C 20.0473 -3.29783 -3.03228 0
M  V30 203 C 21.7913 -1.68557 -3.89601 0
M  V30 204 C 19.6983 -3.98479 -4.36999 0
M  V30 205 H 18.6283 -0.380733 -0.650814 0
M  V30 206 H 21.2793 -1.45248 -1.1214 0
M  V30 207 H 19.6613 -1.29192 -3.74333 0
M  V30 208 H 20.8353 -3.86832 -2.50395 0
M  V30 209 H 19.1503 -3.40711 -2.39385 0
M  V30 210 H 21.7473 -2.17211 -4.88593 0
M  V30 211 H 22.0903 -0.644021 -4.11288 0
M  V30 212 H 22.6233 -2.15778 -3.34193 0
M  V30 213 H 19.3623 -5.02841 -4.20513 0
M  V30 214 H 18.8823 -3.46219 -4.89788 0
M  V30 215 H 20.5613 -4.03462 -5.05794 0
M  V30 216 N 20.6934 1.19889 -1.02296 0
M  V30 217 C 21.9414 1.89046 -0.714558 0
M  V30 218 C 22.2624 1.79636 0.758681 0
M  V30 219 O 21.5324 1.20292 1.54618 0
M  V30 220 H 20.1124 0.699802 -0.261317 0
M  V30 221 H 22.7744 1.45574 -1.29592 0
M  V30 222 H 21.8704 2.95524 -1.0036 0
M  V30 223 N 22.1715 0.800033 1.35784 0
M  V30 224 C 23.5875 0.482977 1.52117 0
M  V30 225 C 23.7875 -0.996948 1.75109 0
M  V30 226 O 22.8435 -1.78216 1.78872 0
M  V30 227 C 24.1565 1.32264 2.70049 0
M  V30 228 C 25.7045 1.31742 2.83924 0
M  V30 229 C 26.1795 2.14106 4.04874 0
M  V30 230 N 27.6705 2.11607 4.12039 0
M  V30 231 C 28.4055 2.72099 5.04727 0
M  V30 232 N 27.9015 3.41492 6.02789 0
M  V30 233 N 29.6945 2.61776 4.97423 0
M  V30 234 H 21.8455 1.75856 1.19115 0
M  V30 235 H 24.1085 0.748122 0.582252 0
M  V30 236 H 23.8145 2.37261 2.59616 0
M  V30 237 H 23.6885 0.971303 3.6448 0
M  V30 238 H 26.0755 0.275333 2.93813 0
M  V30 239 H 26.1565 1.70859 1.9037 0
M  V30 240 H 25.8005 3.18351 3.95746 0
M  V30 241 H 25.7305 1.72353 4.97596 0
M  V30 242 H 28.2215 1.61112 3.41835 0
M  V30 243 H 28.5345 3.84953 6.70098 0
M  V30 244 H 26.8795 3.45596 6.02983 0
M  V30 245 H 30.0705 2.07157 4.19766 0
M  V30 246 H 30.2435 3.0921 5.69468 0
M  V30 247 N 23.6496 -1.47581 0.552962 0
M  V30 248 C 24.5796 -2.32762 -0.185451 0
M  V30 249 C 25.5606 -1.43527 -0.912905 0
M  V30 250 O 26.7456 -1.72388 -0.894201 0
M  V30 251 C 23.8756 -3.25219 -1.21859 0
M  V30 252 C 22.8296 -4.23661 -0.607864 0
M  V30 253 C 22.1556 -5.05413 -1.74533 0
M  V30 254 C 23.4556 -5.20481 0.435582 0
M  V30 255 H 25.1496 -2.94749 0.525684 0
M  V30 256 H 22.6956 -1.41738 0.254251 0
M  V30 257 H 24.6486 -3.8365 -1.7433 0
M  V30 258 H 23.3726 -2.61279 -1.95961 0
M  V30 259 H 22.0316 -3.66451 -0.104489 0
M  V30 260 H 21.6796 -4.3788 -2.47529 0
M  V30 261 H 21.3796 -5.72059 -1.34249 0
M  V30 262 H 22.9036 -5.66701 -2.27338 0
M  V30 263 H 24.3176 -5.733 -0.00290157 0
M  V30 264 H 22.7146 -5.95305 0.757067 0
M  V30 265 H 23.7846 -4.66217 1.33303 0
M  V30 266 N 25.1277 -0.289203 -1.54924 0
M  V30 267 C 26.3737 0.323998 -2.00195 0
M  V30 268 C 26.7067 1.54441 -1.17735 0
M  V30 269 O 25.9817 1.92875 -0.250878 0
M  V30 270 C 26.2647 0.692276 -3.53383 0
M  V30 271 C 26.1177 -0.536457 -4.46589 0
M  V30 272 C 27.4367 1.52335 -4.12895 0
M  V30 273 H 24.5557 0.116289 -0.727768 0
M  V30 274 H 27.1977 -0.398954 -1.85764 0
M  V30 275 H 25.3477 1.30822 -3.65811 0
M  V30 276 H 27.0197 -1.17499 -4.46085 0
M  V30 277 H 25.2627 -1.17192 -4.1767 0
M  V30 278 H 25.9337 -0.234806 -5.515 0
M  V30 279 H 28.4097 1.00302 -4.0383 0
M  V30 280 H 27.2857 1.74982 -5.20262 0
M  V30 281 H 27.5467 2.50886 -3.64018 0
M  V30 282 N 26.6058 1.57591 -0.0167156 0
M  V30 283 C 27.8338 1.95575 0.675128 0
M  V30 284 C 28.2488 0.892542 1.6637 0
M  V30 285 O 27.6058 -0.126912 1.82058 0
M  V30 286 C 27.6568 3.33608 1.39239 0
M  V30 287 O 27.3778 4.3585 0.443444 0
M  V30 288 C 28.8788 3.86151 2.17721 0
M  V30 289 H 26.0988 0.644423 0.186978 0
M  V30 290 H 28.6428 2.0437 -0.0728 0
M  V30 291 H 26.7978 3.2607 2.09182 0
M  V30 292 H 27.2118 5.158 0.951358 0
M  V30 293 H 28.6858 4.85114 2.63379 0
M  V30 294 H 29.1628 3.19738 3.01105 0
M  V30 295 H 29.7688 3.96918 1.52761 0
M  V30 296 N 28.0839 -0.256276 1.55502 0
M  V30 297 C 29.4999 -0.604325 1.47716 0
M  V30 298 C 29.6999 -1.88763 0.705039 0
M  V30 299 O 28.7559 -2.51445 0.230613 0
M  V30 300 C 30.0689 -0.715756 2.92057 0
M  V30 301 C 31.6169 -0.808706 3.02372 0
M  V30 302 C 32.0919 -0.951777 4.48001 0
M  V30 303 N 33.5829 -1.01688 4.519 0
M  V30 304 C 34.3179 -1.14668 5.61817 0
M  V30 305 N 33.8139 -1.24261 6.81565 0
M  V30 306 N 35.6069 -1.1791 5.49594 0
M  V30 307 H 27.7579 0.586291 2.04148 0
M  V30 308 H 30.0209 0.201015 0.926443 0
M  V30 309 H 29.7269 0.157027 3.51349 0
M  V30 310 H 29.6009 -1.59071 3.42018 0
M  V30 311 H 31.9879 -1.67195 2.43166 0
M  V30 312 H 32.0689 0.0912063 2.55637 0
M  V30 313 H 31.7129 -0.0931291 5.07815 0
M  V30 314 H 31.6429 -1.86659 4.92408 0
M  V30 315 H 34.1339 -0.954468 3.65648 0
M  V30 316 H 34.4469 -1.34046 7.61086 0
M  V30 317 H 32.7919 -1.21236 6.84344 0
M  V30 318 H 35.9829 -1.10057 4.54978 0
M  V30 319 H 36.1559 -1.27681 6.35296 0
M  V30 320 N 29.562 -1.4872 -0.521534 0
M  V30 321 C 30.525 -1.63379 -1.60748 0
M  V30 322 C 31.525 -0.50661 -1.52611 0
M  V30 323 O 32.715 -0.772601 -1.5613 0
M  V30 324 C 29.847 -1.61192 -3.00383 0
M  V30 325 H 31.04 -2.60217 -1.49087 0
M  V30 326 H 28.593 -1.37444 -0.744235 0
M  V30 327 H 29.328 -0.65863 -3.17541 0
M  V30 328 H 29.113 -2.43032 -3.07698 0
M  V30 329 H 30.603 -1.7466 -3.7932 0
M  V30 330 N 31.0401 0.771051 -1.3745 0
M  V30 331 C 32.0031 1.86598 -1.33093 0
M  V30 332 C 33.0031 1.59076 -0.234845 0
M  V30 333 O 34.1931 1.67145 -0.490732 0
M  V30 334 C 31.3251 3.23747 -1.06773 0
M  V30 335 H 32.5181 1.91873 -2.30488 0
M  V30 336 H 30.0711 0.970876 -1.2249 0
M  V30 337 H 30.8061 3.24148 -0.099129 0
M  V30 338 H 30.5911 3.45115 -1.86112 0
M  V30 339 H 32.0811 4.03824 -1.06377 0
M  V30 340 N 32.5182 1.22032 0.997298 0
M  V30 341 C 33.7652 1.04222 1.73621 0
M  V30 342 C 34.0932 -0.423264 1.89839 0
M  V30 343 O 33.3482 -1.3302 1.43542 0
M  V30 344 C 33.6472 1.69345 3.14733 0
M  V30 345 C 33.3132 3.19226 3.18442 0
M  V30 346 C 31.9752 3.60124 3.19161 0
M  V30 347 C 34.3272 4.15181 3.15078 0
M  V30 348 C 31.6552 4.95467 3.14212 0
M  V30 349 C 34.0072 5.50495 3.1167 0
M  V30 350 C 32.6712 5.90779 3.10703 0
M  V30 351 H 31.9412 0.381374 0.635323 0
M  V30 352 H 34.5882 1.51732 1.16831 0
M  V30 353 H 32.8932 1.14147 3.74803 0
M  V30 354 H 34.5902 1.53059 3.7064 0
M  V30 355 H 31.1802 2.86659 3.18629 0
M  V30 356 H 35.3642 3.84605 3.13676 0
M  V30 357 H 30.6202 5.25916 3.11805 0
M  V30 358 H 34.7942 6.24576 3.08022 0
M  V30 359 H 32.4212 6.9562 3.06622 0
M  V30 360 N 33.9963 -1.19345 1.0293 0
M  V30 361 C 34.9443 -2.24621 0.604001 0
M  V30 362 C 35.9383 -1.65452 -0.363587 0
M  V30 363 O 37.1443 -1.78497 -0.23212 0
M  V30 364 H 33.5193 -0.730858 0.177061 0
M  V30 365 H 35.4903 -2.5781 1.50255 0
M  V30 366 C 34.2393 -3.47688 -0.0289127 0
M  V30 367 H 33.5623 -3.93505 0.706651 0
M  V30 368 H 35.0023 -4.23011 -0.289432 0
M  V30 369 C 33.4613 -3.11817 -1.2756 0
M  V30 370 O 33.9913 -3.2451 -2.36762 0
M  V30 371 N 32.1973 -2.66246 -1.16453 0
M  V30 372 H 31.7443 -2.56118 -0.275914 0
M  V30 373 H 31.7023 -2.42617 -1.99961 0
M  V30 374 N 35.4744 -0.807222 -1.35358 0
M  V30 375 C 36.6994 -0.399309 -2.0352 0
M  V30 376 C 37.1244 0.981986 -1.60433 0
M  V30 377 O 36.4824 1.63601 -0.781299 0
M  V30 378 C 36.5304 -0.491552 -3.57234 0
M  V30 379 O 35.6344 0.494754 -4.09421 0
M  V30 380 H 34.9754 -0.166682 -0.642739 0
M  V30 381 H 37.5054 -1.09328 -1.72941 0
M  V30 382 H 37.5154 -0.361588 -4.06395 0
M  V30 383 H 36.1904 -1.49907 -3.87944 0
M  V30 384 H 34.7674 0.324977 -3.71481 0
M  V30 385 N 36.9525 1.47285 -0.560781 0
M  V30 386 C 38.2005 2.02064 -0.0379868 0
M  V30 387 C 38.5215 1.43711 1.31803 0
M  V30 388 O 37.7915 0.61362 1.86042 0
M  V30 389 H 36.3715 0.746918 -0.0110531 0
M  V30 390 H 39.0335 1.80648 -0.731598 0
M  V30 391 H 38.1295 3.12064 0.0474463 0
M  V30 392 N 38.4306 0.297415 1.54768 0
M  V30 393 C 39.3776 -0.580276 2.23386 0
M  V30 394 C 40.3476 -1.13238 1.21517 0
M  V30 395 O 41.5326 -1.17757 1.50126 0
M  V30 396 C 38.6726 -1.74801 2.97555 0
M  V30 397 C 37.7856 -1.22764 4.1419 0
M  V30 398 C 36.9206 -2.35895 4.75949 0
M  V30 399 C 35.9596 -1.80974 5.84735 0
M  V30 400 N 35.0966 -2.87664 6.40464 0
M  V30 401 H 39.9366 0.0114833 2.97998 0
M  V30 402 H 37.4736 0.0174361 1.4709 0
M  V30 403 H 39.4316 -2.43475 3.38786 0
M  V30 404 H 38.0616 -2.31145 2.25326 0
M  V30 405 H 37.1136 -0.433271 3.77924 0
M  V30 406 H 38.4256 -0.785551 4.92575 0
M  V30 407 H 37.5796 -3.12523 5.20014 0
M  V30 408 H 36.3186 -2.83429 3.96887 0
M  V30 409 H 35.3236 -1.02834 5.40097 0
M  V30 410 H 36.5486 -1.34348 6.65678 0
M  V30 411 H 34.4946 -3.34538 5.64287 0
M  V30 412 H 34.4116 -2.4794 7.14186 0
M  V30 413 H 35.6796 -3.642 6.89187 0
M  V30 414 N 39.9087 -1.5758 0.0250728 0
M  V30 415 C 41.1547 -1.91917 -0.655413 0
M  V30 416 C 41.4877 -0.901433 -1.72011 0
M  V30 417 O 40.7627 0.0764069 -1.9435 0
M  V30 418 C 41.0457 -3.36751 -1.27558 0
M  V30 419 C 40.8987 -4.49258 -0.220719 0
M  V30 420 C 42.2177 -3.81469 -2.19475 0
M  V30 421 H 39.3367 -0.697925 -0.23679 0
M  V30 422 H 41.9787 -1.89825 0.0815036 0
M  V30 423 H 40.1287 -3.38664 -1.90365 0
M  V30 424 H 41.8007 -4.59478 0.409601 0
M  V30 425 H 40.0437 -4.31415 0.454264 0
M  V30 426 H 40.7147 -5.47618 -0.694175 0
M  V30 427 H 43.1907 -3.81266 -1.66659 0
M  V30 428 H 42.0667 -4.83512 -2.59822 0
M  V30 429 H 42.3277 -3.16744 -3.08424 0
M  V30 430 N 41.3868 0.248026 -1.55636 0
M  V30 431 C 42.6638 0.998988 -1.68165 0
M  V30 432 C 43.0438 2.03409 -0.564621 0
M  V30 433 O 42.3918 2.24378 0.432076 0
M  V30 434 C 42.6018 1.63334 -3.0842 0
M  V30 435 C 43.9498 2.13562 -3.66983 0
M  V30 436 O 44.9738 1.73277 -3.11213 0
M  V30 437 O 43.8328 2.87526 -4.64749 0
M  V30 438 H 40.9268 0.464933 -0.683935 0
M  V30 439 H 43.4728 0.241902 -1.67967 0
M  V30 440 H 42.2448 0.884583 -3.8117 0
M  V30 441 H 41.8678 2.45666 -3.12624 0
M  V30 442 N 42.8649 1.48995 0.513639 0
M  V30 443 C 44.1139 1.57093 1.2651 0
M  V30 444 C 44.4269 0.257091 1.93903 0
M  V30 445 O 45.6329 0.216478 2.70636 0
M  V30 446 C 44.0889 2.77118 2.29638 0
M  V30 447 C 43.6969 4.15209 1.68241 0
M  V30 448 C 45.4409 2.94538 3.05692 0
M  V30 449 C 43.3479 5.26474 2.69406 0
M  V30 450 H 42.2779 0.584876 0.475854 0
M  V30 451 H 44.9289 1.7536 0.540487 0
M  V30 452 H 43.3109 2.52319 3.05207 0
M  V30 453 H 44.4849 4.50094 0.987505 0
M  V30 454 H 42.7999 4.03042 1.04623 0
M  V30 455 H 45.3969 3.74832 3.8132 0
M  V30 456 H 45.7399 2.04614 3.62545 0
M  V30 457 H 46.2729 3.19316 2.37238 0
M  V30 458 H 43.0119 6.18417 2.17351 0
M  V30 459 H 42.5319 4.96058 3.37175 0
M  V30 460 H 44.2109 5.55277 3.32078 0
M  V30 461 N 44.343 -0.763751 1.37857 0
M  V30 462 C 45.589 -1.52483 1.33704 0
M  V30 463 C 45.922 -1.94051 -0.0759612 0
M  V30 464 O 45.197 -1.64675 -1.03501 0
M  V30 465 C 45.48 -2.78441 2.28348 0
M  V30 466 C 45.333 -2.43075 3.78463 0
M  V30 467 C 46.652 -3.80415 2.21298 0
M  V30 468 H 43.771 -0.553169 0.487005 0
M  V30 469 H 46.413 -0.875562 1.68624 0
M  V30 470 H 44.563 -3.33842 1.987 0
M  V30 471 H 46.235 -1.93527 4.18742 0
M  V30 472 H 44.478 -1.75666 3.96641 0
M  V30 473 H 45.149 -3.33149 4.40132 0
M  V30 474 H 47.625 -3.34527 2.47449 0
M  V30 475 H 46.501 -4.66257 2.89647 0
M  V30 476 H 46.762 -4.25262 1.20849 0
M  V30 477 N 45.8211 -1.22559 -0.990812 0
M  V30 478 C 46.7841 -0.998863 -2.0629 0
M  V30 479 C 47.7841 0.0354834 -1.60761 0
M  V30 480 O 48.9741 -0.203231 -1.7301 0
M  V30 481 C 46.1061 -0.509203 -3.37076 0
M  V30 482 H 47.2991 -1.95014 -2.27837 0
M  V30 483 H 44.8521 -1.04456 -1.16269 0
M  V30 484 H 45.5871 0.446335 -3.21214 0
M  V30 485 H 45.3721 -1.25547 -3.71457 0
M  V30 486 H 46.8621 -0.370888 -4.1595 0
M  V30 487 N 47.2992 1.18797 -1.03562 0
M  V30 488 C 48.5482 1.87978 -0.731235 0
M  V30 489 C 48.8612 1.80911 0.743671 0
M  V30 490 O 50.0672 2.45407 1.16137 0
M  V30 491 C 48.5232 3.3721 -1.25768 0
M  V30 492 C 48.1312 3.52818 -2.76085 0
M  V30 493 C 49.8752 4.11825 -1.0296 0
M  V30 494 C 47.7822 4.9598 -3.22114 0
M  V30 495 H 46.7122 0.704063 -0.269835 0
M  V30 496 H 49.3632 1.34266 -1.25079 0
M  V30 497 H 47.7452 3.90359 -0.666011 0
M  V30 498 H 48.9192 3.09965 -3.40966 0
M  V30 499 H 47.2342 2.91602 -2.97249 0
M  V30 500 H 49.8312 5.17411 -1.34869 0
M  V30 501 H 50.1742 4.16287 0.0333546 0
M  V30 502 H 50.7072 3.64833 -1.58562 0
M  V30 503 H 47.4462 4.96684 -4.27768 0
M  V30 504 H 46.9662 5.39569 -2.61965 0
M  V30 505 H 48.6452 5.6467 -3.15844 0
M  V30 506 N 48.7773 0.814389 1.34928 0
M  V30 507 C 49.7253 0.218424 2.31572 0
M  V30 508 C 50.7193 -0.636128 1.57002 0
M  V30 509 O 51.9253 -0.52842 1.72069 0
M  V30 510 H 48.3003 0.0518799 0.750208 0
M  V30 511 H 50.2713 1.04852 2.79372 0
M  V30 512 C 49.0203 -0.61207 3.4227 0
M  V30 513 H 48.3433 0.0361578 3.99784 0
M  V30 514 H 49.7833 -0.995317 4.12152 0
M  V30 515 C 48.2423 -1.78087 2.85984 0
M  V30 516 O 48.7723 -2.8787 2.80168 0
M  V30 517 N 46.9783 -1.59488 2.42924 0
M  V30 518 H 46.5253 -0.701874 2.47854 0
M  V30 519 H 46.4833 -2.37846 2.05613 0
M  V30 520 N 50.2554 -1.46986 0.568584 0
M  V30 521 C 51.5324 -1.95592 -0.0174074 0
M  V30 522 C 51.9124 -1.51124 -1.47393 0
M  V30 523 O 51.2604 -0.755329 -2.15655 0
M  V30 524 C 51.4704 -3.48719 0.139913 0
M  V30 525 C 52.8184 -4.246 0.000426376 0
M  V30 526 O 53.8424 -3.56135 0.0680316 0
M  V30 527 O 52.7014 -5.46302 -0.146988 0
M  V30 528 H 49.7954 -0.82498 -0.0577599 0
M  V30 529 H 52.3414 -1.57335 0.635909 0
M  V30 530 H 51.1134 -3.73927 1.15301 0
M  V30 531 H 50.7364 -3.93771 -0.550491 0
M  V30 532 N 51.7335 -0.305618 -1.54608 0
M  V30 533 C 53.1445 0.186098 -1.8577 0
M  V30 534 C 53.4955 1.53058 -1.22751 0
M  V30 535 O 52.6205 2.09888 -0.526893 0
M  V30 536 C 53.2155 0.344449 -3.37044 0
M  V30 537 C 51.7745 0.780384 -3.68221 0
M  V30 538 C 50.9215 -0.108554 -2.77087 0
M  V30 539 H 53.8725 -0.526485 -1.49712 0
M  V30 540 H 53.8935 1.17828 -3.61796 0
M  V30 541 H 53.4055 -0.634235 -3.82883 0
M  V30 542 H 51.5065 1.76945 -3.27904 0
M  V30 543 H 51.6195 0.596572 -4.75371 0
M  V30 544 H 49.9835 0.412931 -2.5133 0
M  V30 545 H 50.7665 -1.08368 -3.25747 0
M  V30 546 N 53.2116 1.57565 -0.0334293 0
M  V30 547 C 54.4586 1.91978 0.644272 0
M  V30 548 C 54.7866 0.910231 1.71887 0
M  V30 549 O 54.0416 -0.0801961 1.95536 0
M  V30 550 C 54.3406 3.33112 1.29504 0
M  V30 551 C 54.0066 4.49537 0.350388 0
M  V30 552 C 52.6686 4.81115 0.0903974 0
M  V30 553 C 55.0206 5.20347 -0.298032 0
M  V30 554 C 52.3486 5.8086 -0.825746 0
M  V30 555 C 54.7006 6.2107 -1.20226 0
M  V30 556 C 53.3646 6.51088 -1.4711 0
M  V30 557 H 52.6346 0.702496 0.235756 0
M  V30 558 H 55.2816 1.91259 -0.0961176 0
M  V30 559 H 53.5866 3.30113 2.11028 0
M  V30 560 H 55.2836 3.57011 1.82603 0
M  V30 561 H 51.8736 4.24883 0.563205 0
M  V30 562 H 56.0576 4.96178 -0.110234 0
M  V30 563 H 51.3136 6.02461 -1.04169 0
M  V30 564 H 55.4876 6.75057 -1.71086 0
M  V30 565 H 53.1146 7.28193 -2.18264 0
M  V30 566 N 54.6897 -0.239769 1.55765 0
M  V30 567 C 55.9387 -0.964754 1.77131 0
M  V30 568 C 56.2517 -1.86213 0.59868 0
M  V30 569 O 57.4577 -2.6244 0.695522 0
M  V30 570 C 55.9137 -1.76552 3.1362 0
M  V30 571 C 55.5217 -0.915185 4.38553 0
M  V30 572 C 57.2657 -2.48281 3.44321 0
M  V30 573 C 55.1727 -1.71225 5.66071 0
M  V30 574 H 54.1027 -0.363953 0.660344 0
M  V30 575 H 56.7537 -0.219181 1.82186 0
M  V30 576 H 55.1357 -2.55331 3.02691 0
M  V30 577 H 56.3097 -0.169217 4.60489 0
M  V30 578 H 54.6247 -0.310889 4.15238 0
M  V30 579 H 57.2217 -3.08382 4.36812 0
M  V30 580 H 57.5647 -3.20256 2.65973 0
M  V30 581 H 58.0977 -1.76507 3.56497 0
M  V30 582 H 54.8367 -1.03612 6.4726 0
M  V30 583 H 54.3567 -2.43331 5.48224 0
M  V30 584 H 56.0357 -2.27758 6.05587 0
M  V30 585 N 56.1678 -1.49265 -0.50573 0
M  V30 586 C 57.4448 -1.49012 -1.26707 0
M  V30 587 C 57.8248 -0.215205 -2.1 0
M  V30 588 O 57.1728 0.802547 -2.13943 0
M  V30 589 C 57.3828 -2.7663 -2.12783 0
M  V30 590 C 58.7308 -3.25932 -2.72127 0
M  V30 591 O 59.7548 -2.77715 -2.23054 0
M  V30 592 O 58.6138 -4.09897 -3.61451 0
M  V30 593 H 55.7078 -0.596197 -0.57313 0
M  V30 594 H 58.2538 -1.61524 -0.52039 0
M  V30 595 H 57.0258 -3.60916 -1.5118 0
M  V30 596 H 56.6488 -2.66956 -2.94653 0
M  V30 597 N 57.6459 0.756429 -1.3826 0
M  V30 598 C 58.5759 1.88374 -1.37976 0
M  V30 599 C 59.5569 1.68311 -0.246082 0
M  V30 600 O 60.7419 1.88944 -0.44874 0
M  V30 601 C 57.8719 3.25864 -1.20125 0
M  V30 602 C 56.8259 3.60523 -2.30666 0
M  V30 603 C 56.1519 4.9672 -1.97923 0
M  V30 604 C 57.4519 3.65692 -3.72916 0
M  V30 605 H 59.1459 1.88869 -2.32312 0
M  V30 606 H 56.6919 0.907272 -1.11824 0
M  V30 607 H 58.6449 4.0438 -1.18552 0
M  V30 608 H 57.3689 3.25841 -0.222498 0
M  V30 609 H 56.0279 2.84324 -2.3142 0
M  V30 610 H 55.6759 4.93253 -0.985393 0
M  V30 611 H 55.3759 5.20878 -2.71955 0
M  V30 612 H 56.8999 5.77618 -1.97964 0
M  V30 613 H 58.3139 4.34328 -3.74208 0
M  V30 614 H 56.7109 4.01358 -4.4613 0
M  V30 615 H 57.7809 2.65987 -4.05436 0
M  V30 616 N 59.124 1.23083 0.984299 0
M  V30 617 C 60.072 1.00593 2.09723 0
M  V30 618 C 61.066 -0.0538014 1.69315 0
M  V30 619 O 62.272 0.0993719 1.79725 0
M  V30 620 H 58.647 0.30817 0.685956 0
M  V30 621 H 60.618 1.95012 2.2586 0
M  V30 622 C 59.367 0.609601 3.42314 0
M  V30 623 H 58.69 1.41675 3.73856 0
M  V30 624 H 60.13 0.491726 4.21139 0
M  V30 625 C 58.589 -0.681745 3.2993 0
M  V30 626 O 59.119 -1.73192 3.62446 0
M  V30 627 N 57.325 -0.656178 2.83095 0
M  V30 628 H 56.872 0.198759 2.56832 0
M  V30 629 H 56.83 -1.52044 2.75191 0
M  V30 630 N 60.6021 -1.18246 1.0419 0
M  V30 631 C 61.8321 -1.91916 0.764961 0
M  V30 632 C 62.2401 -1.76485 -0.681898 0
M  V30 633 O 61.5831 -1.09275 -1.47664 0
M  V30 634 C 61.6451 -3.4373 1.05309 0
M  V30 635 C 61.3091 -3.8294 2.4941 0
M  V30 636 C 62.3061 -3.86621 3.47592 0
M  V30 637 C 59.9911 -4.142 2.84155 0
M  V30 638 C 61.9851 -4.21013 4.78568 0
M  V30 639 C 59.6721 -4.48262 4.15337 0
M  V30 640 C 60.6701 -4.51645 5.12353 0
M  V30 641 O 60.3581 -4.84911 6.41183 0
M  V30 642 H 60.0901 -0.61606 0.278292 0
M  V30 643 H 62.6441 -1.50947 1.39299 0
M  V30 644 H 60.8741 -3.84946 0.367933 0
M  V30 645 H 62.5631 -3.9865 0.763752 0
M  V30 646 H 63.3291 -3.62607 3.22089 0
M  V30 647 H 59.2081 -4.10743 2.09311 0
M  V30 648 H 62.7521 -4.23568 5.54289 0
M  V30 649 H 58.6491 -4.71737 4.40607 0
M  V30 650 H 59.4171 -5.02809 6.45852 0
M  V30 651 N 62.0802 -0.821533 -1.34494 0
M  V30 652 C 63.0132 -0.187704 -2.27427 0
M  V30 653 C 63.9912 0.65507 -1.48821 0
M  V30 654 O 65.1752 0.619111 -1.78043 0
M  V30 655 C 62.3022 0.737996 -3.30562 0
M  V30 656 C 61.3482 -0.0270713 -4.26491 0
M  V30 657 S 62.1812 -1.37329 -5.17592 0
M  V30 658 C 63.3372 -0.452427 -6.24263 0
M  V30 659 H 63.5702 -0.975598 -2.80837 0
M  V30 660 H 61.1032 -0.61736 -1.4152 0
M  V30 661 H 63.0612 1.26654 -3.90473 0
M  V30 662 H 61.7222 1.4994 -2.76001 0
M  V30 663 H 60.9152 0.6766 -4.99438 0
M  V30 664 H 60.5172 -0.48612 -3.70827 0
M  V30 665 H 62.8092 0.356557 -6.76561 0
M  V30 666 H 63.7522 -1.15153 -6.98674 0
M  V30 667 H 64.1602 -0.0414755 -5.64485 0
M  V30 668 N 63.5583 1.46682 -0.576371 0
M  V30 669 C 64.8043 2.02712 -0.0596221 0
M  V30 670 C 65.1373 1.44765 1.29448 0
M  V30 671 O 64.4123 0.610355 1.84675 0
M  V30 672 C 64.6953 3.60098 0.0129503 0
M  V30 673 C 64.5483 4.28441 -1.3696 0
M  V30 674 C 65.8673 4.34224 0.71678 0
M  V30 675 H 62.9863 0.736637 -0.0231407 0
M  V30 676 H 65.6283 1.74898 -0.742351 0
M  V30 677 H 63.7783 3.83926 0.594378 0
M  V30 678 H 65.4503 4.15896 -1.9957 0
M  V30 679 H 63.6933 3.8805 -1.93907 0
M  V30 680 H 64.3643 5.3716 -1.27135 0
M  V30 681 H 66.8403 4.15503 0.222908 0
M  V30 682 H 65.7163 5.43936 0.73657 0
M  V30 683 H 65.9773 4.04823 1.77682 0
M  V30 684 N 65.0364 0.313813 1.54444 0
M  V30 685 C 66.2664 -0.293491 2.04505 0
M  V30 686 C 66.6744 -1.47086 1.19005 0
M  V30 687 O 66.0174 -1.82481 0.211257 0
M  V30 688 C 66.0794 -0.800455 3.50475 0
M  V30 689 C 65.7434 0.253322 4.56297 0
M  V30 690 C 66.7404 1.08612 5.08428 0
M  V30 691 C 64.4254 0.398708 5.00715 0
M  V30 692 C 66.4194 2.05013 6.0353 0
M  V30 693 C 64.1064 1.36614 5.95634 0
M  V30 694 C 65.1044 2.19033 6.46926 0
M  V30 695 O 64.7924 3.14134 7.39983 0
M  V30 696 H 64.5244 -0.0658325 0.672787 0
M  V30 697 H 67.0784 0.455177 2.00293 0
M  V30 698 H 65.3084 -1.59987 3.52053 0
M  V30 699 H 66.9974 -1.32504 3.83663 0
M  V30 700 H 67.7634 0.984736 4.74898 0
M  V30 701 H 63.6424 -0.23289 4.60411 0
M  V30 702 H 67.1864 2.69382 6.4349 0
M  V30 703 H 63.0834 1.4682 6.28581 0
M  V30 704 H 63.8514 3.0926 7.57826 0
M  V30 705 N 66.5145 -1.57545 0.0417849 0
M  V30 706 C 67.4475 -2.06514 -0.970928 0
M  V30 707 C 68.4255 -0.963607 -1.30971 0
M  V30 708 O 69.6095 -1.23486 -1.4242 0
M  V30 709 C 66.7365 -2.4978 -2.28752 0
M  V30 710 C 65.7825 -3.71078 -2.10246 0
M  V30 711 S 66.6155 -5.17158 -1.38952 0
M  V30 712 C 67.7715 -5.6373 -2.71954 0
M  V30 713 H 68.0045 -2.9209 -0.554129 0
M  V30 714 H 65.5375 -1.53459 -0.17024 0
M  V30 715 H 67.4955 -2.75371 -3.04435 0
M  V30 716 H 66.1565 -1.64527 -2.67562 0
M  V30 717 H 65.3495 -3.9924 -3.07609 0
M  V30 718 H 64.9515 -3.45705 -1.42704 0
M  V30 719 H 67.2435 -5.68743 -3.68154 0
M  V30 720 H 68.1865 -6.63086 -2.4844 0
M  V30 721 H 68.5945 -4.91424 -2.77782 0
M  V30 722 N 67.9926 0.231505 -1.5589 0
M  V30 723 C 69.2396 0.957352 -1.78441 0
M  V30 724 C 69.5676 1.84726 -0.60882 0
M  V30 725 O 68.8226 1.91416 0.40725 0
M  V30 726 C 69.1216 1.83577 -3.0665 0
M  V30 727 C 68.7876 1.09993 -4.37278 0
M  V30 728 C 67.4496 0.896629 -4.72773 0
M  V30 729 C 69.8016 0.579558 -5.17968 0
M  V30 730 C 67.1296 0.160896 -5.86479 0
M  V30 731 C 69.4816 -0.142783 -6.32439 0
M  V30 732 C 68.1456 -0.357427 -6.66542 0
M  V30 733 H 67.4156 0.35032 -0.65296 0
M  V30 734 H 70.0626 0.226259 -1.90159 0
M  V30 735 H 68.3676 2.63441 -2.90011 0
M  V30 736 H 70.0646 2.39934 -3.21298 0
M  V30 737 H 66.6546 1.26835 -4.09403 0
M  V30 738 H 70.8386 0.724125 -4.90989 0
M  V30 739 H 66.0946 -0.0157293 -6.11398 0
M  V30 740 H 70.2686 -0.553559 -6.94196 0
M  V30 741 H 67.8956 -0.929466 -7.54497 0
M  V30 742 N 69.4707 1.49531 0.497807 0
M  V30 743 C 70.4027 1.62559 1.61578 0
M  V30 744 C 71.4157 0.508134 1.54667 0
M  V30 745 O 72.6047 0.780309 1.60541 0
M  V30 746 C 69.7047 1.56925 3.00379 0
M  V30 747 C 68.8777 2.84257 3.3244 0
M  V30 748 C 67.9367 2.71632 4.50669 0
M  V30 749 O 66.9627 3.4557 4.52294 0
M  V30 750 N 68.1647 1.83391 5.5077 0
M  V30 751 H 70.9297 2.58981 1.50828 0
M  V30 752 H 68.4907 1.4666 0.685743 0
M  V30 753 H 70.4827 1.46129 3.77397 0
M  V30 754 H 69.0527 0.683483 3.05037 0
M  V30 755 H 68.2727 3.09381 2.44289 0
M  V30 756 H 69.5607 3.68666 3.5066 0
M  V30 757 H 68.9587 1.22583 5.52259 0
M  V30 758 H 67.5157 1.78515 6.26878 0
M  V30 759 N 70.9488 -0.749086 1.3866 0
M  V30 760 C 72.1788 -1.53611 1.38157 0
M  V30 761 C 72.5868 -1.89177 -0.0293595 0
M  V30 762 O 71.9298 -1.53606 -1.00752 0
M  V30 763 C 71.9918 -2.86087 2.17702 0
M  V30 764 C 71.6558 -2.73034 3.66472 0
M  V30 765 C 72.6528 -2.42526 4.59866 0
M  V30 766 C 70.3378 -2.90345 4.09884 0
M  V30 767 C 72.3318 -2.29492 5.94653 0
M  V30 768 C 70.0188 -2.7693 5.4475 0
M  V30 769 C 71.0168 -2.46547 6.36949 0
M  V30 770 O 70.7048 -2.33199 7.69333 0
M  V30 771 H 70.4368 -0.481773 0.474205 0
M  V30 772 H 72.9908 -0.934465 1.82912 0
M  V30 773 H 71.2208 -3.48458 1.67672 0
M  V30 774 H 72.9098 -3.47625 2.09551 0
M  V30 775 H 73.6758 -2.28816 4.27631 0
M  V30 776 H 69.5548 -3.1299 3.38464 0
M  V30 777 H 73.0988 -2.05698 6.66584 0
M  V30 778 H 68.9958 -2.90215 5.76581 0
M  V30 779 H 69.7638 -2.48376 7.79905 0
M  V30 780 N 72.4269 -1.23603 -0.977757 0
M  V30 781 C 73.7039 -0.977897 -1.69401 0
M  V30 782 C 74.0839 0.502738 -2.05026 0
M  V30 783 O 73.4319 1.47459 -1.74551 0
M  V30 784 C 73.6419 -1.89077 -2.93345 0
M  V30 785 C 74.9899 -2.15579 -3.65802 0
M  V30 786 O 76.0139 -1.86648 -3.03383 0
M  V30 787 O 74.8729 -2.64658 -4.78141 0
M  V30 788 H 71.9669 -0.369025 -0.740101 0
M  V30 789 H 74.5129 -1.34657 -1.03274 0
M  V30 790 H 73.2849 -2.89158 -2.63634 0
M  V30 791 H 72.9079 -1.52463 -3.67207 0
M  V30 792 N 73.905 1.17692 -1.04816 0
M  V30 793 C 75.13 1.92327 -0.776207 0
M  V30 794 C 75.555 1.76082 0.661581 0
M  V30 795 O 74.913 1.076 1.45917 0
M  V30 796 C 74.961 3.41539 -1.15687 0
M  V30 797 O 74.065 4.11402 -0.286775 0
M  V30 798 H 73.406 0.599735 -0.284981 0
M  V30 799 H 75.936 1.49201 -1.4 0
M  V30 800 H 75.946 3.92269 -1.12202 0
M  V30 801 H 74.621 3.52684 -2.20425 0
M  V30 802 H 73.198 3.70939 -0.381903 0
M  V30 803 N 75.3831 0.828654 1.34056 0
M  V30 804 C 76.6111 0.43262 2.02326 0
M  V30 805 C 77.0261 -0.963147 1.62385 0
M  V30 806 O 76.3831 -1.62425 0.832121 0
M  V30 807 C 76.4341 0.53182 3.57567 0
M  V30 808 O 76.1551 1.87258 3.96063 0
M  V30 809 C 77.6561 0.131422 4.43105 0
M  V30 810 H 74.8761 0.172923 0.648335 0
M  V30 811 H 77.4201 1.1184 1.71208 0
M  V30 812 H 75.5751 -0.105938 3.87255 0
M  V30 813 H 75.9891 1.85087 4.90758 0
M  V30 814 H 77.4631 0.251904 5.51425 0
M  V30 815 H 77.9401 -0.925645 4.29335 0
M  V30 816 H 78.5461 0.743207 4.18756 0
M  V30 817 N 76.8612 -1.46375 0.584142 0
M  V30 818 C 77.8112 -2.27371 -0.169232 0
M  V30 819 C 78.7952 -1.35955 -0.860523 0
M  V30 820 O 79.9872 -1.60119 -0.754382 0
M  V30 821 C 77.1162 -3.22334 -1.18134 0
M  V30 822 C 76.2022 -4.21235 -0.492088 0
M  V30 823 N 76.5932 -5.03766 0.453129 0
M  V30 824 C 74.8912 -4.39773 -0.742652 0
M  V30 825 C 75.5922 -5.75366 0.85609 0
M  V30 826 N 74.5682 -5.43214 0.204926 0
M  V30 827 H 78.3702 -2.88572 0.557097 0
M  V30 828 H 75.8842 -1.57242 0.406042 0
M  V30 829 H 77.8812 -3.79071 -1.73525 0
M  V30 830 H 76.5412 -2.62693 -1.90847 0
M  V30 831 H 77.5522 -5.11227 0.828723 0
M  V30 832 H 74.2292 -3.91279 -1.45625 0
M  V30 833 H 75.6192 -6.5172 1.63434 0
M  V30 834 N 78.3393 -0.321999 -1.54275 0
M  V30 835 C 79.5873 0.280489 -2.00144 0
M  V30 836 C 79.9083 1.52777 -1.21178 0
M  V30 837 O 79.1783 1.9338 -0.313187 0
M  V30 838 H 77.7583 0.106632 -0.73935 0
M  V30 839 H 80.4203 -0.438184 -1.8991 0
M  V30 840 H 79.5163 0.537972 -3.07428 0
M  V30 841 N 79.8174 1.5752 -0.0501392 0
M  V30 842 C 80.7644 2.1147 0.924603 0
M  V30 843 C 81.7344 1.02182 1.30951 0
M  V30 844 O 82.9194 1.29723 1.39916 0
M  V30 845 C 80.0594 2.66337 2.19451 0
M  V30 846 C 79.1724 3.89708 1.86418 0
M  V30 847 C 78.3074 4.32893 3.07859 0
M  V30 848 C 77.3464 5.48967 2.70742 0
M  V30 849 N 76.4834 5.87211 3.84874 0
M  V30 850 H 81.3234 2.94465 0.457639 0
M  V30 851 H 78.8604 1.45531 0.214266 0
M  V30 852 H 80.8184 2.96247 2.93758 0
M  V30 853 H 79.4484 1.86141 2.63726 0
M  V30 854 H 78.5004 3.66396 1.02264 0
M  V30 855 H 79.8124 4.74074 1.55096 0
M  V30 856 H 78.9664 4.6435 3.90466 0
M  V30 857 H 77.7054 3.47336 3.42358 0
M  V30 858 H 76.7104 5.17183 1.86551 0
M  V30 859 H 77.9354 6.3624 2.37436 0
M  V30 860 H 75.8814 5.04607 4.19175 0
M  V30 861 H 75.7984 6.66266 3.57247 0
M  V30 862 H 77.0664 6.23282 4.68123 0
M  V30 863 N 81.2955 -0.223234 1.56011 0
M  V30 864 C 82.5425 -0.947875 1.78946 0
M  V30 865 C 82.8705 -1.844 0.618608 0
M  V30 866 O 82.1255 -1.91629 -0.397093 0
M  V30 867 C 82.4245 -1.81948 3.0762 0
M  V30 868 C 82.0905 -1.07672 4.37856 0
M  V30 869 C 80.7525 -0.871544 4.73242 0
M  V30 870 C 83.1045 -0.552081 5.18268 0
M  V30 871 C 80.4325 -0.129791 5.86556 0
M  V30 872 C 82.7845 0.17632 6.32354 0
M  V30 873 C 81.4485 0.39277 6.66343 0
M  V30 874 H 80.7185 -0.346852 0.654809 0
M  V30 875 H 83.3655 -0.216171 1.90276 0
M  V30 876 H 81.6705 -2.61899 2.91404 0
M  V30 877 H 83.3675 -2.38227 3.22566 0
M  V30 878 H 79.9575 -1.24662 4.1007 0
M  V30 879 H 84.1415 -0.698076 4.91366 0
M  V30 880 H 79.3975 0.048153 6.11381 0
M  V30 881 H 83.5715 0.590367 6.93893 0
M  V30 882 H 81.1985 0.969466 7.53993 0
M  V30 883 N 82.7736 -1.49793 -0.48987 0
M  V30 884 C 83.7236 -1.63673 -1.5873 0
M  V30 885 C 84.7076 -0.491956 -1.53195 0
M  V30 886 O 85.8996 -0.745461 -1.60536 0
M  V30 887 C 83.0286 -1.71689 -2.97284 0
M  V30 888 C 82.1146 -2.91781 -3.07774 0
M  V30 889 N 82.5056 -4.15714 -2.88124 0
M  V30 890 C 80.8036 -2.89949 -3.38889 0
M  V30 891 C 81.5046 -4.965 -3.03088 0
M  V30 892 N 80.4806 -4.30083 -3.3246 0
M  V30 893 H 84.2826 -2.57204 -1.42208 0
M  V30 894 H 81.7966 -1.46719 -0.69623 0
M  V30 895 H 83.7936 -1.79732 -3.76168 0
M  V30 896 H 82.4536 -0.793024 -3.14867 0
M  V30 897 H 83.4646 -4.45515 -2.64077 0
M  V30 898 H 80.1416 -2.06987 -3.62578 0
M  V30 899 H 81.5316 -6.04991 -2.92294 0
M  V30 900 N 84.2517 0.741722 -1.39055 0
M  V30 901 C 85.4997 1.49818 -1.35643 0
M  V30 902 C 85.8207 1.94938 0.0491642 0
M  V30 903 O 85.0907 1.68505 0.999141 0
M  V30 904 H 83.6707 0.555755 -0.499144 0
M  V30 905 H 86.3327 0.880957 -1.73854 0
M  V30 906 H 85.4287 2.38348 -2.01486 0
M  V30 907 N 85.7298 1.2412 0.971189 0
M  V30 908 C 86.9578 1.10575 1.74874 0
M  V30 909 C 87.3728 -0.342017 1.85676 0
M  V30 910 O 86.7298 -1.23617 1.34258 0
M  V30 911 C 86.7808 1.73579 3.171 0
M  V30 912 O 86.5018 3.12695 3.06844 0
M  V30 913 C 88.0028 1.65598 4.11208 0
M  V30 914 H 85.2228 0.386504 0.548503 0
M  V30 915 H 87.7668 1.64156 1.21955 0
M  V30 916 H 85.9218 1.24009 3.67016 0
M  V30 917 H 86.3358 3.43412 3.96445 0
M  V30 918 H 87.8098 2.1437 5.08674 0
M  V30 919 H 88.2868 0.616532 4.34851 0
M  V30 920 H 88.8928 2.14578 3.67201 0
M  V30 921 N 87.2079 -1.17134 1.05439 0
M  V30 922 C 88.4539 -1.87733 0.767077 0
M  V30 923 C 88.7869 -1.8098 -0.704253 0
M  V30 924 O 88.0619 -1.21951 -1.5152 0
M  V30 925 C 88.3449 -3.37659 1.25133 0
M  V30 926 C 88.1979 -3.53149 2.78578 0
M  V30 927 C 89.5169 -4.31768 0.852324 0
M  V30 928 H 86.6359 -0.681687 0.280129 0
M  V30 929 H 89.2779 -1.37732 1.30881 0
M  V30 930 H 87.4279 -3.80373 0.790469 0
M  V30 931 H 89.0999 -3.19434 3.32806 0
M  V30 932 H 87.3429 -2.95345 3.17732 0
M  V30 933 H 88.0139 -4.58403 3.07523 0
M  V30 934 H 90.4899 -3.96909 1.24911 0
M  V30 935 H 89.3659 -5.35199 1.21873 0
M  V30 936 H 89.6269 -4.41429 -0.243485 0
M  V30 937 N 88.686 -0.835752 -1.33615 0
M  V30 938 C 89.633 -0.26473 -2.29277 0
M  V30 939 C 90.603 0.617712 -1.54187 0
M  V30 940 O 91.788 0.556641 -1.825 0
M  V30 941 C 88.928 0.556777 -3.40579 0
M  V30 942 C 88.041 -0.349339 -4.30585 0
M  V30 943 C 87.176 0.482969 -5.29 0
M  V30 944 C 86.215 -0.421732 -6.10645 0
M  V30 945 N 85.352 0.372262 -7.01112 0
M  V30 946 H 90.192 -1.08582 -2.77514 0
M  V30 947 H 87.729 -0.546927 -1.36554 0
M  V30 948 H 89.687 1.04852 -4.03809 0
M  V30 949 H 88.317 1.34286 -2.93542 0
M  V30 950 H 87.369 -0.959372 -3.68104 0
M  V30 951 H 88.681 -1.04445 -4.87742 0
M  V30 952 H 87.835 1.03866 -5.97743 0
M  V30 953 H 86.574 1.21153 -4.72412 0
M  V30 954 H 85.579 -0.989464 -5.40823 0
M  V30 955 H 86.804 -1.14861 -6.69316 0
M  V30 956 H 84.75 1.08426 -6.46977 0
M  V30 957 H 84.667 -0.264198 -7.55538 0
M  V30 958 H 85.935 0.910293 -7.74167 0
M  V30 959 N 90.1641 1.46063 -0.591896 0
M  V30 960 C 91.1271 2.28854 0.125973 0
M  V30 961 C 92.1271 1.38903 0.810107 0
M  V30 962 O 93.3171 1.61186 0.66066 0
M  V30 963 C 90.4491 3.19526 1.1881 0
M  V30 964 H 91.6421 2.93802 -0.601717 0
M  V30 965 H 89.1951 1.52325 -0.350254 0
M  V30 966 H 89.9301 2.59345 1.94707 0
M  V30 967 H 89.7151 3.85766 0.701936 0
M  V30 968 H 91.2051 3.81817 1.69132 0
M  V30 969 N 91.6422 0.330177 1.54103 0
M  V30 970 C 92.5522 -0.541534 2.28264 0
M  V30 971 C 93.5682 -1.12351 1.32866 0
M  V30 972 O 94.7442 -1.14206 1.65888 0
M  V30 973 C 91.8092 -1.68322 3.03098 0
M  V30 974 C 90.8702 -1.13238 4.14096 0
M  V30 975 C 90.1032 -2.21966 4.85352 0
M  V30 976 O 90.3262 -3.42437 4.56172 0
M  V30 977 O 89.2602 -1.87013 5.7211 0
M  V30 978 H 93.0862 0.060938 3.03639 0
M  V30 979 H 90.6712 0.09565 1.49093 0
M  V30 980 H 92.5532 -2.34777 3.49939 0
M  V30 981 H 91.2282 -2.27176 2.30593 0
M  V30 982 H 90.1352 -0.432736 3.71589 0
M  V30 983 H 91.4682 -0.588898 4.88664 0
M  V30 984 N 93.1203 -1.57491 0.0584922 0
M  V30 985 C 94.0683 -2.13148 -0.931168 0
M  V30 986 C 95.0623 -1.06507 -1.31729 0
M  V30 987 O 96.2683 -1.24906 -1.29609 0
M  V30 988 H 92.6433 -0.68137 -0.31818 0
M  V30 989 H 94.6143 -2.95187 -0.436707 0
M  V30 990 C 93.3633 -2.69732 -2.19408 0
M  V30 991 H 92.6863 -3.51454 -1.90578 0
M  V30 992 H 94.1263 -3.12287 -2.86798 0
M  V30 993 C 92.5853 -1.63855 -2.94369 0
M  V30 994 O 93.1153 -1.05565 -3.87581 0
M  V30 995 N 91.3213 -1.35202 -2.57233 0
M  V30 996 H 90.8683 -1.82791 -1.81508 0
M  V30 997 H 90.8263 -0.645922 -3.07693 0
M  V30 998 N 94.5984 0.214957 -1.56127 0
M  V30 999 C 95.8464 0.936518 -1.79091 0
M  V30 1000 C 96.1674 1.84606 -0.628148 0
M  V30 1001 O 95.4374 1.92664 0.35462 0
M  V30 1002 H 94.0174 0.3488 -0.660566 0
M  V30 1003 H 96.6794 0.22523 -1.93594 0
M  V30 1004 H 95.7754 1.53943 -2.71492 0
M  V30 1005 N 96.0765 1.50051 0.48192 0
M  V30 1006 C 97.0235 1.68122 1.58125 0
M  V30 1007 C 97.9935 0.522545 1.57666 0
M  V30 1008 O 99.1785 0.751844 1.75362 0
M  V30 1009 C 96.3185 1.77142 2.96167 0
M  V30 1010 C 95.4315 3.0444 3.06497 0
M  V30 1011 C 94.5665 3.04321 4.35387 0
M  V30 1012 C 93.6055 4.26118 4.3942 0
M  V30 1013 N 92.7425 4.238 5.59766 0
M  V30 1014 H 97.5825 2.6198 1.42022 0
M  V30 1015 H 95.1195 1.29877 0.690687 0
M  V30 1016 H 97.0775 1.80352 3.76203 0
M  V30 1017 H 95.7075 0.867329 3.1093 0
M  V30 1018 H 94.7595 3.10752 2.19402 0
M  V30 1019 H 96.0715 3.94426 3.05336 0
M  V30 1020 H 95.2255 3.062 5.23762 0
M  V30 1021 H 93.9645 2.12147 4.39141 0
M  V30 1022 H 92.9695 4.24463 3.49444 0
M  V30 1023 H 94.1945 5.19507 4.37366 0
M  V30 1024 H 92.1405 3.34474 5.64326 0
M  V30 1025 H 92.0575 5.07542 5.60301 0
M  V30 1026 H 93.3255 4.2981 6.50295 0
M  V30 1027 N 97.5546 -0.734337 1.39446 0
M  V30 1028 C 98.4846 -1.86155 1.40955 0
M  V30 1029 C 99.4656 -1.67898 0.272827 0
M  V30 1030 O 100.651 -1.88207 0.478743 0
M  V30 1031 C 97.7806 -3.23912 1.25294 0
M  V30 1032 C 96.7346 -3.56808 2.36373 0
M  V30 1033 C 96.0606 -4.93508 2.058 0
M  V30 1034 C 97.3606 -3.59713 3.78687 0
M  V30 1035 H 99.0546 -1.8515 2.35287 0
M  V30 1036 H 96.6006 -0.889367 1.13253 0
M  V30 1037 H 98.5536 -4.02443 1.2497 0
M  V30 1038 H 97.2776 -3.25446 0.274308 0
M  V30 1039 H 95.9366 -2.80606 2.35914 0
M  V30 1040 H 95.5846 -4.91623 1.06374 0
M  V30 1041 H 95.2846 -5.16486 2.80208 0
M  V30 1042 H 96.8086 -5.74396 2.07128 0
M  V30 1043 H 98.2226 -4.2832 3.81071 0
M  V30 1044 H 96.6196 -3.94209 4.52459 0
M  V30 1045 H 97.6896 -2.59504 4.09617 0
M  V30 1046 N 99.0327 -1.24633 -0.964593 0
M  V30 1047 C 100.279 -1.08949 -1.71049 0
M  V30 1048 C 100.612 0.370302 -1.90637 0
M  V30 1049 O 99.8867 1.27349 -1.47011 0
M  V30 1050 C 100.17 -1.83329 -3.0994 0
M  V30 1051 C 100.023 -3.37077 -2.97824 0
M  V30 1052 C 101.342 -1.60846 -4.09654 0
M  V30 1053 H 98.4607 -0.397178 -0.620821 0
M  V30 1054 H 101.103 -1.5334 -1.12191 0
M  V30 1055 H 99.2527 -1.45597 -3.60186 0
M  V30 1056 H 100.925 -3.84425 -2.5498 0
M  V30 1057 H 99.1677 -3.65298 -2.33965 0
M  V30 1058 H 99.8387 -3.84324 -3.96231 0
M  V30 1059 H 102.315 -1.93674 -3.68279 0
M  V30 1060 H 101.191 -2.1534 -5.04896 0
M  V30 1061 H 101.452 -0.547434 -4.38698 0
M  V30 1062 N 100.511 1.16574 -1.06058 0
M  V30 1063 C 101.76 1.86385 -0.770944 0
M  V30 1064 C 102.073 1.82448 0.705129 0
M  V30 1065 O 103.279 2.47815 1.10905 0
M  V30 1066 C 101.735 3.34466 -1.32893 0
M  V30 1067 C 101.343 3.46883 -2.83507 0
M  V30 1068 C 103.087 4.09548 -1.11672 0
M  V30 1069 C 100.994 4.89036 -3.32562 0
M  V30 1070 H 99.9238 0.698181 -0.284709 0
M  V30 1071 H 102.575 1.31583 -1.27899 0
M  V30 1072 H 100.957 3.88859 -0.748662 0
M  V30 1073 H 102.131 3.02663 -3.47465 0
M  V30 1074 H 100.446 2.85232 -3.03368 0
M  V30 1075 H 103.043 5.14434 -1.45814 0
M  V30 1076 H 103.386 4.16264 -0.0549535 0
M  V30 1077 H 103.919 3.61387 -1.66265 0
M  V30 1078 H 100.658 4.87499 -4.38207 0
M  V30 1079 H 100.178 5.3389 -2.73351 0
M  V30 1080 H 101.857 5.57843 -3.2775 0
M  V30 1081 N 101.989 0.842826 1.3317 0
M  V30 1082 C 102.937 0.267495 2.31057 0
M  V30 1083 C 103.931 -0.602682 1.58316 0
M  V30 1084 O 105.137 -0.491803 1.73151 0
M  V30 1085 H 101.512 0.0677813 0.748939 0
M  V30 1086 H 103.483 1.10754 2.77085 0
M  V30 1087 C 102.232 -0.539331 3.43492 0
M  V30 1088 H 101.555 0.12095 3.99617 0
M  V30 1089 H 102.995 -0.90767 4.14171 0
M  V30 1090 C 101.454 -1.71981 2.89697 0
M  V30 1091 O 101.984 -2.81862 2.86211 0
M  V30 1092 N 100.19 -1.54299 2.46252 0
M  V30 1093 H 99.7369 -0.649143 2.49287 0
M  V30 1094 H 99.6949 -2.33431 2.10612 0
M  V30 1095 N 103.467 -1.45747 0.599634 0
M  V30 1096 C 104.715 -2.01893 0.0915472 0
M  V30 1097 C 105.036 -1.47155 -1.27946 0
M  V30 1098 O 104.306 -0.66273 -1.84349 0
M  V30 1099 H 102.886 -0.746363 0.0308524 0
M  V30 1100 H 105.548 -1.78645 0.779237 0
M  V30 1101 H 104.644 -3.1208 0.0353086 0
M  V30 1102 N 104.945 -0.338344 -1.53925 0
M  V30 1103 C 105.893 0.536231 -2.26335 0
M  V30 1104 C 106.887 1.1063 -1.28286 0
M  V30 1105 O 108.093 1.05264 -1.46012 0
M  V30 1106 H 104.468 0.191602 -0.727181 0
M  V30 1107 H 106.439 -0.0965747 -2.98244 0
M  V30 1108 C 105.188 1.67803 -3.04528 0
M  V30 1109 H 104.511 1.24864 -3.79801 0
M  V30 1110 H 105.951 2.26526 -3.58416 0
M  V30 1111 C 104.41 2.60439 -2.13712 0
M  V30 1112 O 104.94 3.6255 -1.72975 0
M  V30 1113 N 103.146 2.29006 -1.78898 0
M  V30 1114 H 102.693 1.46011 -2.12223 0
M  V30 1115 H 102.651 2.91248 -1.18416 0
M  V30 1116 N 106.423 1.57458 -0.0668435 0
M  V30 1117 C 107.834 1.80776 0.466558 0
M  V30 1118 C 108.185 0.980361 1.69951 0
M  V30 1119 O 107.31 0.201441 2.1546 0
M  V30 1120 C 107.905 3.27881 0.85321 0
M  V30 1121 C 106.464 3.52062 1.3315 0
M  V30 1122 C 105.611 2.75513 0.314264 0
M  V30 1123 H 108.562 1.5598 -0.292588 0
M  V30 1124 H 108.583 3.39659 1.715 0
M  V30 1125 H 108.095 3.88075 -0.0443439 0
M  V30 1126 H 106.196 2.97167 2.24772 0
M  V30 1127 H 106.309 4.60762 1.31285 0
M  V30 1128 H 104.673 2.42123 0.790492 0
M  V30 1129 H 105.456 3.38442 -0.575477 0
M  V30 1130 N 107.901 -0.206675 1.56239 0
M  V30 1131 C 109.15 -0.926964 1.79138 0
M  V30 1132 C 109.463 -1.84901 0.638043 0
M  V30 1133 O 110.669 -2.60906 0.751033 0
M  V30 1134 C 109.125 -1.6986 3.17294 0
M  V30 1135 C 108.733 -0.821956 4.40395 0
M  V30 1136 C 110.477 -2.40922 3.4951 0
M  V30 1137 C 108.384 -1.59179 5.69575 0
M  V30 1138 H 107.314 -0.349864 0.667915 0
M  V30 1139 H 109.965 -0.180487 1.8261 0
M  V30 1140 H 108.347 -2.48853 3.08039 0
M  V30 1141 H 109.521 -0.0715019 4.60745 0
M  V30 1142 H 107.836 -0.222741 4.15804 0
M  V30 1143 H 110.433 -2.99047 4.43255 0
M  V30 1144 H 110.776 -3.14542 2.72707 0
M  V30 1145 H 111.309 -1.68905 3.60161 0
M  V30 1146 H 108.048 -0.898589 6.49312 0
M  V30 1147 H 107.568 -2.31648 5.53262 0
M  V30 1148 H 109.247 -2.14862 6.10281 0
M  V30 1149 N 109.379 -1.50304 -0.473955 0
M  V30 1150 C 110.607 -1.64902 -1.24959 0
M  V30 1151 C 111.022 -0.331198 -1.85872 0
M  V30 1152 O 110.379 0.68652 -1.69095 0
M  V30 1153 C 110.43 -2.73803 -2.36038 0
M  V30 1154 O 110.151 -4.00477 -1.77624 0
M  V30 1155 C 111.652 -2.99349 -3.26964 0
M  V30 1156 H 108.872 -0.554383 -0.378022 0
M  V30 1157 H 111.416 -1.9651 -0.566054 0
M  V30 1158 H 109.571 -2.44898 -3.00173 0
M  V30 1159 H 109.985 -4.60678 -2.5075 0
M  V30 1160 H 111.459 -3.79217 -4.01121 0
M  V30 1161 H 111.936 -2.10307 -3.85574 0
M  V30 1162 H 112.542 -3.29774 -2.68569 0
M  V30 1163 N 110.857 0.726932 -1.39834 0
M  V30 1164 C 112.106 1.48214 -1.36805 0
M  V30 1165 C 112.419 1.95576 0.0305291 0
M  V30 1166 O 113.625 2.7088 0.183417 0
M  V30 1167 C 112.081 2.67854 -2.40379 0
M  V30 1168 C 111.689 2.27408 -3.85992 0
M  V30 1169 C 113.433 3.45641 -2.46439 0
M  V30 1170 C 111.34 3.43819 -4.81189 0
M  V30 1171 H 110.27 0.556606 -0.508631 0
M  V30 1172 H 112.921 0.792216 -1.65518 0
M  V30 1173 H 111.303 3.3896 -2.04749 0
M  V30 1174 H 112.477 1.63795 -4.30706 0
M  V30 1175 H 110.792 1.62692 -3.83302 0
M  V30 1176 H 113.389 4.32244 -3.14753 0
M  V30 1177 H 113.732 3.88669 -1.49139 0
M  V30 1178 H 114.265 2.8157 -2.81004 0
M  V30 1179 H 111.004 3.05834 -5.79781 0
M  V30 1180 H 110.524 4.06385 -4.41148 0
M  V30 1181 H 112.203 4.10043 -5.00474 0
M  V30 1182 N 112.336 1.25143 0.95797 0
M  V30 1183 C 113.583 1.09692 1.70217 0
M  V30 1184 C 113.911 -0.362654 1.91089 0
M  V30 1185 O 113.166 -1.28386 1.47701 0
M  V30 1186 C 113.465 1.79272 3.09187 0
M  V30 1187 C 113.131 3.29196 3.08125 0
M  V30 1188 C 111.793 3.70096 3.07543 0
M  V30 1189 C 114.145 4.24995 3.0171 0
M  V30 1190 C 111.473 5.05213 2.9829 0
M  V30 1191 C 113.825 5.60132 2.93999 0
M  V30 1192 C 112.489 6.00365 2.9175 0
M  V30 1193 H 111.759 0.401393 0.622868 0
M  V30 1194 H 114.406 1.55372 1.11945 0
M  V30 1195 H 112.711 1.26014 3.70982 0
M  V30 1196 H 114.408 1.64773 3.65583 0
M  V30 1197 H 110.998 2.96651 3.09348 0
M  V30 1198 H 115.182 3.9439 3.01281 0
M  V30 1199 H 110.438 5.35569 2.94916 0
M  V30 1200 H 114.612 6.3406 2.87996 0
M  V30 1201 H 112.239 7.05023 2.84336 0
M  V30 1202 N 113.814 -1.1601 1.06675 0
M  V30 1203 C 114.746 -2.20115 0.638921 0
M  V30 1204 C 115.759 -1.59916 -0.305057 0
M  V30 1205 O 116.948 -1.78245 -0.0954446 0
M  V30 1206 C 114.048 -3.38798 -0.0830083 0
M  V30 1207 C 113.221 -4.2855 0.875426 0
M  V30 1208 C 112.28 -5.25849 0.192042 0
M  V30 1209 O 111.306 -5.63102 0.830921 0
M  V30 1210 N 112.508 -5.70648 -1.06493 0
M  V30 1211 H 115.273 -2.57439 1.53444 0
M  V30 1212 H 112.834 -1.31057 0.950557 0
M  V30 1213 H 114.826 -4.00936 -0.550685 0
M  V30 1214 H 113.396 -2.99947 -0.880386 0
M  V30 1215 H 112.616 -3.63617 1.52238 0
M  V30 1216 H 113.904 -4.85393 1.52548 0
M  V30 1217 H 113.302 -5.42482 -1.60405 0
M  V30 1218 H 111.859 -6.34859 -1.47641 0
M  V30 1219 N 115.292 -0.849877 -1.32721 0
M  V30 1220 C 116.202 -0.293791 -2.32753 0
M  V30 1221 C 117.218 0.585906 -1.63839 0
M  V30 1222 O 118.394 0.487413 -1.95413 0
M  V30 1223 C 115.459 0.512752 -3.42887 0
M  V30 1224 C 114.52 -0.39252 -4.27502 0
M  V30 1225 C 113.753 0.375625 -5.32377 0
M  V30 1226 O 113.976 1.60613 -5.4732 0
M  V30 1227 O 112.91 -0.256094 -6.01355 0
M  V30 1228 H 116.736 -1.12242 -2.82197 0
M  V30 1229 H 114.321 -0.612685 -1.36259 0
M  V30 1230 H 116.203 0.970704 -4.10067 0
M  V30 1231 H 114.878 1.31826 -2.95641 0
M  V30 1232 H 113.785 -0.898547 -3.63149 0
M  V30 1233 H 115.118 -1.16309 -4.7826 0
M  V30 1234 N 116.77 1.45427 -0.607355 0
M  V30 1235 C 118.186 1.57283 -0.270985 0
M  V30 1236 C 118.386 1.59875 1.22647 0
M  V30 1237 O 117.442 1.52893 2.00948 0
M  V30 1238 C 118.755 2.85566 -0.941952 0
M  V30 1239 C 120.303 2.9924 -0.917849 0
M  V30 1240 C 120.778 4.30293 -1.56882 0
M  V30 1241 N 122.269 4.37051 -1.5343 0
M  V30 1242 C 123.004 5.37123 -2.00715 0
M  V30 1243 N 122.5 6.43734 -2.56084 0
M  V30 1244 N 124.293 5.28479 -1.91484 0
M  V30 1245 H 116.444 1.41988 -1.57966 0
M  V30 1246 H 118.707 0.67885 -0.661715 0
M  V30 1247 H 118.413 2.8955 -1.99633 0
M  V30 1248 H 118.287 3.74322 -0.465096 0
M  V30 1249 H 120.674 2.94822 0.127984 0
M  V30 1250 H 120.755 2.11895 -1.43297 0
M  V30 1251 H 120.399 4.35469 -2.61398 0
M  V30 1252 H 120.329 5.16454 -1.02873 0
M  V30 1253 H 122.82 3.60615 -1.12982 0
M  V30 1254 H 123.133 7.16341 -2.89958 0
M  V30 1255 H 121.478 6.44485 -2.60122 0
M  V30 1256 H 124.669 4.44098 -1.47967 0
M  V30 1257 H 124.842 6.0632 -2.28648 0
M  V30 1258 N 118.248 0.346503 1.53744 0
M  V30 1259 C 119.525 -0.304532 1.93215 0
M  V30 1260 C 119.905 -1.67993 1.27834 0
M  V30 1261 O 119.253 -2.24411 0.430352 0
M  V30 1262 C 119.463 -0.373852 3.46992 0
M  V30 1263 C 120.811 -0.62329 4.2 0
M  V30 1264 O 121.835 -0.455847 3.53271 0
M  V30 1265 O 120.694 -0.947879 5.38217 0
M  V30 1266 H 117.788 -0.178318 0.807547 0
M  V30 1267 H 120.334 0.397895 1.64969 0
M  V30 1268 H 119.106 0.591224 3.86808 0
M  V30 1269 H 118.729 -1.12294 3.81413 0
M  V30 1270 N 119.726 -1.57421 0.075193 0
M  V30 1271 C 121.137 -1.81021 -0.456964 0
M  V30 1272 C 121.488 -0.98936 -1.69429 0
M  V30 1273 O 120.613 -0.212865 -2.15351 0
M  V30 1274 C 121.208 -3.28329 -0.83581 0
M  V30 1275 C 119.767 -3.52764 -1.31281 0
M  V30 1276 C 118.914 -2.75676 -0.299648 0
M  V30 1277 H 121.865 -1.55822 0.300856 0
M  V30 1278 H 121.886 -3.40564 -1.69696 0
M  V30 1279 H 121.398 -3.88046 0.0649238 0
M  V30 1280 H 119.499 -2.98355 -2.23193 0
M  V30 1281 H 119.612 -4.61451 -1.28839 0
M  V30 1282 H 117.976 -2.42538 -0.777641 0
M  V30 1283 H 118.759 -3.38132 0.593417 0
M  V30 1284 N 121.204 0.198386 -1.56346 0
M  V30 1285 C 122.429 0.939682 -1.84891 0
M  V30 1286 C 122.854 1.76202 -0.658369 0
M  V30 1287 O 122.212 1.76993 0.392851 0
M  V30 1288 C 122.26 1.81428 -3.11635 0
M  V30 1289 O 121.364 2.91265 -2.91956 0
M  V30 1290 H 120.705 0.264807 -0.608912 0
M  V30 1291 H 123.235 0.204695 -2.03573 0
M  V30 1292 H 123.245 2.21958 -3.42343 0
M  V30 1293 H 121.92 1.21004 -3.97908 0
M  V30 1294 H 120.497 2.54514 -2.72538 0
M  V30 1295 N 122.682 1.50554 0.465978 0
M  V30 1296 C 123.629 1.6979 1.56333 0
M  V30 1297 C 124.599 0.539239 1.57103 0
M  V30 1298 O 125.784 0.770401 1.74555 0
M  V30 1299 C 122.924 1.80273 2.94271 0
M  V30 1300 C 122.037 3.07674 3.0325 0
M  V30 1301 C 121.172 3.08922 4.32135 0
M  V30 1302 C 120.211 4.30755 4.34875 0
M  V30 1303 N 119.348 4.29714 5.55239 0
M  V30 1304 H 124.188 2.63472 1.39235 0
M  V30 1305 H 121.725 1.30602 0.676873 0
M  V30 1306 H 123.683 1.84332 3.74269 0
M  V30 1307 H 122.313 0.900258 3.09992 0
M  V30 1308 H 121.365 3.13062 2.16094 0
M  V30 1309 H 122.677 3.97642 3.01135 0
M  V30 1310 H 121.831 3.11738 5.20485 0
M  V30 1311 H 120.57 2.16792 4.36866 0
M  V30 1312 H 119.575 4.28146 3.44922 0
M  V30 1313 H 120.8 5.24117 4.31831 0
M  V30 1314 H 118.746 3.4044 5.60746 0
M  V30 1315 H 118.663 5.13456 5.54886 0
M  V30 1316 H 119.931 4.36683 6.457 0
M  V30 1317 N 124.16 -0.719506 1.40217 0
M  V30 1318 C 125.409 -1.47486 1.37589 0
M  V30 1319 C 125.722 -1.9559 -0.0201568 0
M  V30 1320 O 126.928 -2.70973 -0.169049 0
M  V30 1321 C 125.384 -2.66575 2.41796 0
M  V30 1322 C 124.992 -2.25358 3.87192 0
M  V30 1323 C 126.736 -3.4433 2.48269 0
M  V30 1324 C 124.643 -3.41262 4.83005 0
M  V30 1325 H 123.573 -0.553901 0.511576 0
M  V30 1326 H 126.224 -0.783427 1.65936 0
M  V30 1327 H 124.606 -3.3787 2.06543 0
M  V30 1328 H 125.78 -1.61509 4.31569 0
M  V30 1329 H 124.095 -1.60657 3.84159 0
M  V30 1330 H 126.692 -4.30569 3.17041 0
M  V30 1331 H 127.035 -3.87872 1.51198 0
M  V30 1332 H 127.568 -2.80076 2.82493 0
M  V30 1333 H 124.307 -3.02755 5.81394 0
M  V30 1334 H 123.827 -4.0404 4.43297 0
M  V30 1335 H 125.506 -4.07383 5.02641 0
M  V30 1336 N 125.638 -1.25649 -0.95132 0
M  V30 1337 C 126.585 -1.06323 -2.04851 0
M  V30 1338 C 127.555 0.0286491 -1.66075 0
M  V30 1339 O 128.74 -0.12917 -1.90362 0
M  V30 1340 C 125.88 -0.691529 -3.381 0
M  V30 1341 C 124.993 -1.85861 -3.89974 0
M  V30 1342 C 124.128 -1.43096 -5.11563 0
M  V30 1343 C 123.167 -2.56696 -5.55674 0
M  V30 1344 N 122.304 -2.14684 -6.68472 0
M  V30 1345 H 127.144 -2.00222 -2.20715 0
M  V30 1346 H 124.681 -0.997027 -1.08156 0
M  V30 1347 H 126.639 -0.456963 -4.1469 0
M  V30 1348 H 125.269 0.210474 -3.22113 0
M  V30 1349 H 124.321 -2.20639 -3.09875 0
M  V30 1350 H 125.633 -2.71161 -4.18657 0
M  V30 1351 H 124.787 -1.15624 -5.9558 0
M  V30 1352 H 123.526 -0.548722 -4.84603 0
M  V30 1353 H 122.531 -2.84909 -4.7022 0
M  V30 1354 H 123.756 -3.45503 -5.8464 0
M  V30 1355 H 121.702 -1.28881 -6.43215 0
M  V30 1356 H 121.619 -2.9353 -6.96689 0
M  V30 1357 H 122.887 -1.90397 -7.5589 0
M  V30 1358 N 127.117 1.15442 -1.07289 0
M  V30 1359 C 128.363 1.8672 -0.806679 0
M  V30 1360 C 128.718 1.80723 0.660084 0
M  V30 1361 O 128.011 1.21902 1.47819 0
M  V30 1362 C 128.205 3.3489 -1.24834 0
M  V30 1363 C 128.034 3.55313 -2.7565 0
M  V30 1364 C 126.804 3.7082 -3.4325 0
M  V30 1365 C 129.002 3.53188 -3.73848 0
M  V30 1366 N 126.984 3.7929 -4.82713 0
M  V30 1367 C 128.355 3.67765 -4.99149 0
M  V30 1368 C 130.41 3.36459 -3.67015 0
M  V30 1369 C 129.113 3.6734 -6.18428 0
M  V30 1370 C 131.139 3.37333 -4.85758 0
M  V30 1371 C 130.501 3.52438 -6.09891 0
M  V30 1372 H 126.6 0.700433 -0.347733 0
M  V30 1373 H 129.184 1.38441 -1.36902 0
M  V30 1374 H 127.355 3.81786 -0.713713 0
M  V30 1375 H 129.087 3.93875 -0.929745 0
M  V30 1376 H 125.842 3.71568 -2.93656 0
M  V30 1377 H 126.266 3.8727 -5.55294 0
M  V30 1378 H 130.908 3.237 -2.71989 0
M  V30 1379 H 128.626 3.78878 -7.13777 0
M  V30 1380 H 132.212 3.25617 -4.82146 0
M  V30 1381 H 131.092 3.53047 -7.00234 0
M  V30 1382 N 128.595 0.856903 1.32268 0
M  V30 1383 C 129.843 0.460474 1.96784 0
M  V30 1384 C 130.164 -0.987701 1.68135 0
M  V30 1385 O 129.434 -1.69058 0.989765 0
M  V30 1386 H 128.014 0.167289 0.728027 0
M  V30 1387 H 130.676 1.09383 1.61312 0
M  V30 1388 H 129.772 0.60739 3.06133 0
M  V30 1389 N 130.073 -1.45103 0.615059 0
M  V30 1390 C 131.35 -1.95549 0.0448276 0
M  V30 1391 C 131.73 -1.55737 -1.4251 0
M  V30 1392 O 131.078 -0.823556 -2.13143 0
M  V30 1393 C 131.288 -3.48098 0.250785 0
M  V30 1394 C 132.636 -4.24384 0.135509 0
M  V30 1395 O 133.66 -3.55738 0.181299 0
M  V30 1396 O 132.519 -5.46493 0.0268878 0
M  V30 1397 H 129.613 -0.8264 -0.0314845 0
M  V30 1398 H 132.159 -1.55232 0.685642 0
M  V30 1399 H 130.931 -3.7007 1.27139 0
M  V30 1400 H 130.554 -3.95323 -0.424937 0
M  V30 1401 N 131.551 -0.354651 -1.53558 0
M  V30 1402 C 132.514 0.484566 -2.24019 0
M  V30 1403 C 133.514 1.01861 -1.24422 0
M  V30 1404 O 134.704 0.906097 -1.4878 0
M  V30 1405 C 131.836 1.67615 -2.96847 0
M  V30 1406 H 133.029 -0.131843 -2.9961 0
M  V30 1407 H 130.582 -0.106165 -1.55939 0
M  V30 1408 H 131.317 2.33095 -2.25471 0
M  V30 1409 H 131.102 1.30029 -3.69912 0
M  V30 1410 H 132.592 2.27114 -3.50441 0
M  V30 1411 N 133.029 1.57378 -0.0835403 0
M  V30 1412 C 134.277 1.93547 0.581718 0
M  V30 1413 C 134.598 0.96524 1.69435 0
M  V30 1414 O 133.868 0.0153369 1.95894 0
M  V30 1415 H 132.448 0.714521 0.217874 0
M  V30 1416 H 135.11 1.94366 -0.144158 0
M  V30 1417 H 134.206 2.95665 0.999423 0
M  V30 1418 N 134.507 -0.190092 1.56449 0
M  V30 1419 C 135.47 -1.21925 1.9408 0
M  V30 1420 C 136.47 -1.38176 0.822431 0
M  V30 1421 O 137.66 -1.35903 1.08977 0
M  V30 1422 C 134.792 -2.58773 2.21922 0
M  V30 1423 H 135.985 -0.897464 2.86157 0
M  V30 1424 H 133.538 -0.43181 1.50217 0
M  V30 1425 H 134.273 -2.95998 1.32499 0
M  V30 1426 H 134.058 -2.48348 3.03424 0
M  V30 1427 H 135.548 -3.32978 2.52022 0
M  V30 1428 N 135.985 -1.50799 -0.457987 0
M  V30 1429 C 136.895 -1.73426 -1.57989 0
M  V30 1430 C 137.911 -0.617745 -1.62665 0
M  V30 1431 O 139.087 -0.897614 -1.80291 0
M  V30 1432 C 136.152 -1.83557 -2.94122 0
M  V30 1433 C 135.213 -3.07345 -2.99729 0
M  V30 1434 C 134.446 -3.16983 -4.29368 0
M  V30 1435 O 134.669 -2.33077 -5.20607 0
M  V30 1436 O 133.603 -4.09812 -4.40837 0
M  V30 1437 H 137.429 -2.68555 -1.41817 0
M  V30 1438 H 135.014 -1.35052 -0.638859 0
M  V30 1439 H 136.896 -1.92326 -3.74952 0
M  V30 1440 H 135.571 -0.916137 -3.10465 0
M  V30 1441 H 134.478 -3.04068 -2.1793 0
M  V30 1442 H 135.811 -3.9891 -2.88326 0
M  V30 1443 N 137.463 0.71206 -1.40597 0
M  V30 1444 C 138.693 1.49894 -1.42181 0
M  V30 1445 C 139.101 1.89189 -0.0208078 0
M  V30 1446 O 138.444 1.56223 0.966436 0
M  V30 1447 C 138.506 2.80215 -2.25211 0
M  V30 1448 C 138.17 2.63221 -3.73582 0
M  V30 1449 C 139.167 2.30249 -4.66135 0
M  V30 1450 C 136.852 2.79376 -4.17438 0
M  V30 1451 C 138.846 2.13645 -6.00529 0
M  V30 1452 C 136.533 2.6239 -5.51901 0
M  V30 1453 C 137.531 2.29573 -6.43262 0
M  V30 1454 O 137.219 2.12719 -7.75246 0
M  V30 1455 H 136.951 0.469031 -0.486812 0
M  V30 1456 H 139.505 0.88564 -1.85326 0
M  V30 1457 H 137.735 3.4389 -1.76852 0
M  V30 1458 H 139.424 3.41947 -2.18694 0
M  V30 1459 H 140.19 2.17398 -4.33547 0
M  V30 1460 H 136.069 3.03906 -3.46644 0
M  V30 1461 H 139.613 1.87953 -6.71803 0
M  V30 1462 H 135.51 2.74826 -5.84073 0
M  V30 1463 H 136.278 2.27611 -7.86216 0
M  V30 1464 N 138.941 1.26152 0.944643 0
M  V30 1465 C 140.187 1.11657 1.69294 0
M  V30 1466 C 140.52 -0.339926 1.91202 0
M  V30 1467 O 139.795 -1.24994 1.49019 0
M  V30 1468 C 140.078 1.88236 3.06984 0
M  V30 1469 C 139.931 3.41772 2.92424 0
M  V30 1470 C 141.25 1.67343 4.07043 0
M  V30 1471 H 138.369 0.407004 0.614424 0
M  V30 1472 H 141.011 1.55106 1.09737 0
M  V30 1473 H 139.161 1.51308 3.57824 0
M  V30 1474 H 140.833 3.88433 2.48832 0
M  V30 1475 H 139.076 3.68974 2.28124 0
M  V30 1476 H 139.747 3.90579 3.90067 0
M  V30 1477 H 142.223 1.99509 3.65151 0
M  V30 1478 H 141.099 2.23346 5.01406 0
M  V30 1479 H 141.36 0.617158 4.37771 0
M  V30 1480 N 140.419 -1.14872 1.07899 0
M  V30 1481 C 141.665 -1.86064 0.806725 0
M  V30 1482 C 141.998 -1.82434 -0.665706 0
M  V30 1483 O 141.273 -1.25138 -1.48899 0
M  V30 1484 C 141.556 -3.34929 1.32267 0
M  V30 1485 C 141.409 -3.47161 2.86006 0
M  V30 1486 C 142.728 -4.29863 0.943717 0
M  V30 1487 H 139.847 -0.675591 0.294526 0
M  V30 1488 H 142.489 -1.34925 1.33773 0
M  V30 1489 H 140.639 -3.78611 0.870974 0
M  V30 1490 H 142.311 -3.12302 3.39507 0
M  V30 1491 H 140.554 -2.88539 3.23925 0
M  V30 1492 H 141.225 -4.51777 3.17177 0
M  V30 1493 H 143.701 -3.9417 1.33302 0
M  V30 1494 H 142.577 -5.32494 1.33198 0
M  V30 1495 H 142.838 -4.41846 -0.149796 0
M  V30 1496 N 141.898 -0.863906 -1.31812 0
M  V30 1497 C 142.808 -0.318461 -2.32428 0
M  V30 1498 C 143.824 0.568496 -1.64451 0
M  V30 1499 O 145 0.46666 -1.95919 0
M  V30 1500 C 142.065 0.476355 -3.43412 0
M  V30 1501 C 141.126 -0.43784 -4.27061 0
M  V30 1502 C 140.359 0.319138 -5.32745 0
M  V30 1503 O 140.582 1.54799 -5.48993 0
M  V30 1504 O 139.516 -0.319861 -6.01049 0
M  V30 1505 H 143.342 -1.15229 -2.80991 0
M  V30 1506 H 140.927 -0.627103 -1.35602 0
M  V30 1507 H 142.809 0.927156 -4.11074 0
M  V30 1508 H 141.484 1.28683 -2.97022 0
M  V30 1509 H 140.391 -0.937013 -3.62175 0
M  V30 1510 H 141.724 -1.21375 -4.77 0
M  V30 1511 N 143.376 1.44774 -0.622745 0
M  V30 1512 C 144.601 2.06999 -0.128968 0
M  V30 1513 C 145.026 1.4617 1.1839 0
M  V30 1514 O 144.384 0.560007 1.72434 0
M  V30 1515 C 144.432 3.60595 -0.0188351 0
M  V30 1516 O 143.536 3.99398 1.02739 0
M  V30 1517 H 142.877 0.659047 -0.0809544 0
M  V30 1518 H 145.407 1.85784 -0.85705 0
M  V30 1519 H 145.417 4.07627 0.174476 0
M  V30 1520 H 144.092 4.04252 -0.977384 0
M  V30 1521 H 142.669 3.64011 0.809326 0
M  V30 1522 N 144.854 0.36279 1.53368 0
M  V30 1523 C 146.082 -0.228613 2.05633 0
M  V30 1524 C 146.497 -1.42676 1.23649 0
M  V30 1525 O 145.854 -1.80394 0.27647 0
M  V30 1526 C 145.905 -0.624845 3.56059 0
M  V30 1527 O 145.626 0.525675 4.34935 0
M  V30 1528 C 147.127 -1.27493 4.24571 0
M  V30 1529 H 144.347 -0.0407183 0.669763 0
M  V30 1530 H 146.891 0.520352 1.97769 0
M  V30 1531 H 145.046 -1.32373 3.64083 0
M  V30 1532 H 145.46 0.205969 5.24095 0
M  V30 1533 H 146.934 -1.50277 5.31151 0
M  V30 1534 H 147.411 -2.23439 3.78116 0
M  V30 1535 H 148.017 -0.617558 4.20792 0
M  V30 1536 N 146.332 -1.57332 0.0918853 0
M  V30 1537 C 147.58 -1.93853 -0.571446 0
M  V30 1538 C 147.901 -0.974212 -1.6892 0
M  V30 1539 O 147.171 -0.0257254 -1.95883 0
M  V30 1540 H 145.751 -0.715666 -0.214082 0
M  V30 1541 H 148.413 -1.94287 0.154464 0
M  V30 1542 H 147.509 -2.96191 -0.983729 0
M  V30 1543 N 147.81 0.181792 -1.56548 0
M  V30 1544 C 149.056 0.901431 -1.81665 0
M  V30 1545 C 149.389 1.82347 -0.668075 0
M  V30 1546 O 148.664 1.91669 0.330615 0
M  V30 1547 C 148.947 1.70618 -3.17115 0
M  V30 1548 C 148.8 0.807964 -4.42484 0
M  V30 1549 C 150.119 2.67605 -3.49393 0
M  V30 1550 H 147.238 0.32627 -0.660846 0
M  V30 1551 H 149.88 0.168134 -1.89255 0
M  V30 1552 H 148.03 2.33133 -3.10775 0
M  V30 1553 H 149.702 0.19649 -4.60881 0
M  V30 1554 H 147.945 0.115411 -4.33646 0
M  V30 1555 H 148.616 1.40632 -5.33785 0
M  V30 1556 H 151.092 2.15218 -3.56118 0
M  V30 1557 H 149.968 3.20985 -4.45264 0
M  V30 1558 H 150.229 3.47298 -2.73563 0
M  V30 1559 N 149.288 1.51039 0.449983 0
M  V30 1560 C 150.535 1.63081 1.20045 0
M  V30 1561 C 150.863 0.341024 1.91487 0
M  V30 1562 O 150.118 -0.674276 1.83717 0
M  V30 1563 C 150.417 2.77556 2.25161 0
M  V30 1564 C 150.083 4.17289 1.70823 0
M  V30 1565 C 148.745 4.55305 1.55725 0
M  V30 1566 C 151.097 5.04536 1.3074 0
M  V30 1567 C 148.425 5.78287 0.989999 0
M  V30 1568 C 150.777 6.28085 0.754482 0
M  V30 1569 C 149.441 6.64885 0.590308 0
M  V30 1570 H 148.711 0.596755 0.439277 0
M  V30 1571 H 151.358 1.85037 0.49333 0
M  V30 1572 H 149.663 2.49771 3.01863 0
M  V30 1573 H 151.36 2.84073 2.83026 0
M  V30 1574 H 147.95 3.8731 1.83546 0
M  V30 1575 H 152.134 4.75782 1.41229 0
M  V30 1576 H 147.39 6.05456 0.850451 0
M  V30 1577 H 151.564 6.95038 0.435324 0
M  V30 1578 H 149.191 7.60055 0.14862 0
M  V30 1579 N 150.766 -0.704594 1.40972 0
M  V30 1580 C 151.994 -1.49354 1.43182 0
M  V30 1581 C 152.409 -1.88768 0.0345508 0
M  V30 1582 O 151.766 -1.56184 -0.944081 0
M  V30 1583 C 151.817 -2.76187 2.33244 0
M  V30 1584 O 151.538 -2.38436 3.67532 0
M  V30 1585 C 153.039 -3.7 2.44162 0
M  V30 1586 H 150.259 -0.460559 0.487982 0
M  V30 1587 H 152.803 -0.868261 1.85153 0
M  V30 1588 H 150.958 -3.34974 1.94606 0
M  V30 1589 H 151.372 -3.20126 4.15475 0
M  V30 1590 H 152.846 -4.55803 3.11364 0
M  V30 1591 H 153.323 -4.13867 1.47006 0
M  V30 1592 H 153.929 -3.17121 2.83398 0
M  V30 1593 N 152.244 -1.26651 -0.937939 0
M  V30 1594 C 153.472 -1.15173 -1.7188 0
M  V30 1595 C 153.887 0.292668 -1.86518 0
M  V30 1596 O 153.244 1.20014 -1.37488 0
M  V30 1597 C 153.295 -1.81925 -3.12387 0
M  V30 1598 O 153.016 -3.2072 -2.98446 0
M  V30 1599 C 154.517 -1.76442 -4.06673 0
M  V30 1600 H 151.737 -0.400911 -0.538063 0
M  V30 1601 H 154.281 -1.67332 -1.1756 0
M  V30 1602 H 152.436 -1.33696 -3.63599 0
M  V30 1603 H 152.85 -3.53802 -3.872 0
M  V30 1604 H 154.324 -2.27781 -5.02812 0
M  V30 1605 H 154.801 -0.731608 -4.33064 0
M  V30 1606 H 155.407 -2.24238 -3.61382 0
M  V30 1607 N 153.722 1.14298 -1.08507 0
M  V30 1608 C 154.655 2.18447 -0.660004 0
M  V30 1609 C 155.633 1.59242 0.328749 0
M  V30 1610 O 156.817 1.87062 0.232367 0
M  V30 1611 C 153.944 3.38688 0.0290807 0
M  V30 1612 C 152.99 4.1646 -0.919982 0
M  V30 1613 S 153.823 4.77334 -2.42718 0
M  V30 1614 C 154.979 6.00931 -1.75024 0
M  V30 1615 H 155.212 2.54166 -1.54231 0
M  V30 1616 H 152.745 1.25446 -0.900149 0
M  V30 1617 H 154.703 4.08342 0.420378 0
M  V30 1618 H 153.364 3.01289 0.887895 0
M  V30 1619 H 152.557 5.02529 -0.384751 0
M  V30 1620 H 152.159 3.52414 -1.25223 0
M  V30 1621 H 154.451 6.69017 -1.06877 0
M  V30 1622 H 155.394 6.59044 -2.58971 0
M  V30 1623 H 155.802 5.51089 -1.22317 0
M  V30 1624 N 155.201 0.870884 1.31352 0
M  V30 1625 C 156.111 0.330783 2.32256 0
M  V30 1626 C 157.127 -0.559767 1.6475 0
M  V30 1627 O 158.303 -0.456263 1.96164 0
M  V30 1628 C 155.368 -0.458137 3.4366 0
M  V30 1629 C 154.429 0.460482 4.26823 0
M  V30 1630 C 153.662 -0.290881 5.32907 0
M  V30 1631 O 153.885 -1.51885 5.49806 0
M  V30 1632 O 152.819 0.351732 6.00871 0
M  V30 1633 H 156.645 1.16718 2.80376 0
M  V30 1634 H 154.23 0.634285 1.35267 0
M  V30 1635 H 156.112 -0.905343 4.1156 0
M  V30 1636 H 154.787 -1.27106 2.97701 0
M  V30 1637 H 153.694 0.956207 3.61673 0
M  V30 1638 H 155.027 1.23903 4.7635 0
M  V30 1639 N 156.679 -1.44442 0.630414 0
M  V30 1640 C 157.626 -2.30678 -0.0749355 0
M  V30 1641 C 158.596 -1.4344 -0.837502 0
M  V30 1642 O 159.781 -1.72343 -0.818684 0
M  V30 1643 C 156.921 -3.28706 -1.05103 0
M  V30 1644 C 156.034 -4.31046 -0.286954 0
M  V30 1645 C 155.169 -5.16167 -1.2548 0
M  V30 1646 C 154.208 -6.10216 -0.479843 0
M  V30 1647 N 153.345 -6.88039 -1.39811 0
M  V30 1648 H 158.185 -2.90454 0.666386 0
M  V30 1649 H 155.722 -1.43107 0.340404 0
M  V30 1650 H 157.68 -3.84027 -1.63031 0
M  V30 1651 H 156.31 -2.70632 -1.75949 0
M  V30 1652 H 155.362 -3.78203 0.408243 0
M  V30 1653 H 156.674 -4.97794 0.316657 0
M  V30 1654 H 155.828 -5.76002 -1.90544 0
M  V30 1655 H 154.567 -4.49491 -1.89233 0
M  V30 1656 H 153.572 -5.49491 0.184295 0
M  V30 1657 H 154.797 -6.78928 0.152965 0
M  V30 1658 H 152.743 -6.24032 -2.02287 0
M  V30 1659 H 152.66 -7.51223 -0.848508 0
M  V30 1660 H 153.928 -7.52397 -2.03762 0
M  V30 1661 N 158.157 -0.370918 -1.53173 0
M  V30 1662 C 159.12 0.460778 -2.24521 0
M  V30 1663 C 160.12 1.00536 -1.25496 0
M  V30 1664 O 161.31 0.890266 -1.49733 0
M  V30 1665 C 158.442 1.64457 -2.98608 0
M  V30 1666 H 159.635 -0.163613 -2.99453 0
M  V30 1667 H 157.188 -0.122699 -1.55818 0
M  V30 1668 H 157.923 2.30691 -2.2793 0
M  V30 1669 H 157.708 1.26099 -3.7127 0
M  V30 1670 H 159.198 2.23384 -3.5283 0
M  V30 1671 N 159.635 1.57281 -0.100228 0
M  V30 1672 C 160.883 1.94153 0.561157 0
M  V30 1673 C 161.204 0.983157 1.68401 0
M  V30 1674 O 160.474 0.0361132 1.95867 0
M  V30 1675 H 159.054 0.716791 0.210283 0
M  V30 1676 H 161.716 1.94202 -0.164765 0
M  V30 1677 H 160.812 2.96709 0.968008 0
M  V30 1678 N 161.113 -0.173488 1.56642 0
M  V30 1679 C 162.076 -1.19859 1.95362 0
M  V30 1680 C 163.076 -1.37296 0.83704 0
M  V30 1681 O 164.266 -1.34739 1.10413 0
M  V30 1682 C 161.398 -2.56405 2.24654 0
M  V30 1683 H 162.591 -0.867062 2.87092 0
M  V30 1684 H 160.144 -0.415853 1.50666 0
M  V30 1685 H 160.879 -2.94576 1.35631 0
M  V30 1686 H 160.664 -2.45115 3.06041 0
M  V30 1687 H 162.154 -3.30287 2.5554 0
M  V30 1688 N 162.591 -1.51276 -0.441967 0
M  V30 1689 C 163.541 -1.6864 -1.53442 0
M  V30 1690 C 164.525 -0.540444 -1.51552 0
M  V30 1691 O 165.717 -0.796157 -1.58083 0
M  V30 1692 C 162.846 -1.8106 -2.91672 0
M  V30 1693 C 161.932 -3.01424 -2.98336 0
M  V30 1694 N 162.323 -4.2467 -2.74752 0
M  V30 1695 C 160.621 -3.00584 -3.29493 0
M  V30 1696 C 161.322 -5.05891 -2.87139 0
M  V30 1697 N 160.298 -4.40442 -3.18609 0
M  V30 1698 H 164.1 -2.61598 -1.33954 0
M  V30 1699 H 161.614 -1.4886 -0.6492 0
M  V30 1700 H 163.611 -1.91609 -3.70259 0
M  V30 1701 H 162.271 -0.892795 -3.12185 0
M  V30 1702 H 163.282 -4.53691 -2.49769 0
M  V30 1703 H 159.959 -2.18417 -3.55809 0
M  V30 1704 H 161.349 -6.13983 -2.72899 0
M  V30 1705 N 164.069 0.697108 -1.41344 0
M  V30 1706 C 164.999 1.82353 -1.45841 0
M  V30 1707 C 165.98 1.67115 -0.317247 0
M  V30 1708 O 167.165 1.86871 -0.528474 0
M  V30 1709 C 164.295 3.20476 -1.33838 0
M  V30 1710 C 163.249 3.50415 -2.4575 0
M  V30 1711 C 162.575 4.87878 -2.18813 0
M  V30 1712 C 163.875 3.49546 -3.88091 0
M  V30 1713 H 165.569 1.78846 -2.40113 0
M  V30 1714 H 163.115 0.859028 -1.15571 0
M  V30 1715 H 165.068 3.98988 -1.35596 0
M  V30 1716 H 163.792 3.24604 -0.360498 0
M  V30 1717 H 162.451 2.74253 -2.43271 0
M  V30 1718 H 162.099 4.8863 -1.19371 0
M  V30 1719 H 161.799 5.08875 -2.93803 0
M  V30 1720 H 163.323 5.68702 -2.22284 0
M  V30 1721 H 164.737 4.18066 -3.92293 0
M  V30 1722 H 163.134 3.82075 -4.62751 0
M  V30 1723 H 164.204 2.48552 -4.16353 0
M  V30 1724 N 165.547 1.27147 0.931209 0
M  V30 1725 C 166.479 1.05364 2.03546 0
M  V30 1726 C 167.492 0.0108438 1.62796 0
M  V30 1727 O 168.681 0.25202 1.76712 0
M  V30 1728 C 165.781 0.575566 3.33977 0
M  V30 1729 C 164.954 1.68985 4.03439 0
M  V30 1730 C 164.013 1.20813 5.12143 0
M  V30 1731 O 163.039 1.90712 5.363 0
M  V30 1732 N 164.241 0.0618851 5.80467 0
M  V30 1733 H 167.006 2.00454 2.22796 0
M  V30 1734 H 164.567 1.18666 1.10136 0
M  V30 1735 H 166.559 0.237264 4.04004 0
M  V30 1736 H 165.129 -0.282016 3.11325 0
M  V30 1737 H 164.349 2.19861 3.27192 0
M  V30 1738 H 165.637 2.4378 4.46597 0
M  V30 1739 H 165.035 -0.521621 5.6329 0
M  V30 1740 H 163.592 -0.217264 6.51438 0
M  V30 1741 N 167.025 -1.13721 1.09112 0
M  V30 1742 C 168.273 -1.84559 0.823562 0
M  V30 1743 C 168.594 -1.83754 -0.652658 0
M  V30 1744 O 167.864 -1.29102 -1.47342 0
M  V30 1745 H 166.444 -0.683376 0.301673 0
M  V30 1746 H 169.106 -1.37771 1.37859 0
M  V30 1747 H 168.202 -2.8917 1.17419 0
M  V30 1748 N 168.503 -0.877838 -1.30888 0
M  V30 1749 C 169.751 -0.491723 -1.96027 0
M  V30 1750 C 170.072 0.960827 -1.69685 0
M  V30 1751 O 169.342 1.67462 -1.01654 0
M  V30 1752 H 167.922 -0.17885 -0.725273 0
M  V30 1753 H 170.584 -1.11935 -1.59551 0
M  V30 1754 H 169.68 -0.656016 -3.05128 0
M  V30 1755 N 169.982 1.44106 -0.638065 0
M  V30 1756 C 170.945 2.29138 0.0531013 0
M  V30 1757 C 171.945 1.41409 0.765506 0
M  V30 1758 O 173.135 1.63206 0.609046 0
M  V30 1759 C 170.267 3.23144 1.08584 0
M  V30 1760 H 171.46 2.91739 -0.694883 0
M  V30 1761 H 169.013 1.51134 -0.398538 0
M  V30 1762 H 169.748 2.65408 1.86357 0
M  V30 1763 H 169.533 3.87804 0.578852 0
M  V30 1764 H 171.023 3.87004 1.56899 0
M  V30 1765 N 171.46 0.379036 1.52974 0
M  V30 1766 C 172.407 -0.461048 2.26148 0
M  V30 1767 C 173.377 -1.06637 1.27349 0
M  V30 1768 O 174.562 -1.09633 1.56157 0
M  V30 1769 C 171.702 -1.58782 3.06402 0
M  V30 1770 C 170.815 -1.00636 4.20115 0
M  V30 1771 C 169.95 -2.10334 4.87784 0
M  V30 1772 C 168.989 -1.49724 5.93506 0
M  V30 1773 N 168.126 -2.5331 6.54812 0
M  V30 1774 H 172.966 0.169429 2.97518 0
M  V30 1775 H 170.503 0.0953806 1.4679 0
M  V30 1776 H 172.461 -2.25174 3.51215 0
M  V30 1777 H 171.091 -2.18876 2.37261 0
M  V30 1778 H 170.143 -0.232332 3.7969 0
M  V30 1779 H 171.455 -0.523343 4.96047 0
M  V30 1780 H 170.609 -2.84519 5.35849 0
M  V30 1781 H 169.348 -2.61992 4.11353 0
M  V30 1782 H 168.353 -0.740598 5.44789 0
M  V30 1783 H 169.578 -0.988732 6.71864 0
M  V30 1784 H 167.524 -3.04156 5.81227 0
M  V30 1785 H 167.441 -2.09734 7.26325 0
M  V30 1786 H 168.709 -3.27155 7.07524 0
M  V30 1787 N 172.938 -1.57226 0.108567 0
M  V30 1788 C 174.354 -1.5766 -0.248058 0
M  V30 1789 C 174.554 -1.12063 -1.67464 0
M  V30 1790 O 173.61 -0.803236 -2.39383 0
M  V30 1791 C 174.923 -3.0069 -0.0242287 0
M  V30 1792 C 176.471 -3.12868 -0.0909372 0
M  V30 1793 C 176.946 -4.57879 0.105067 0
M  V30 1794 N 178.437 -4.63172 0.0506846 0
M  V30 1795 C 179.172 -5.73126 0.177396 0
M  V30 1796 N 178.668 -6.91866 0.359696 0
M  V30 1797 N 180.461 -5.61977 0.117709 0
M  V30 1798 H 172.612 -1.85169 1.04049 0
M  V30 1799 H 174.875 -0.85529 0.40888 0
M  V30 1800 H 174.581 -3.38299 0.961604 0
M  V30 1801 H 174.455 -3.6945 -0.76068 0
M  V30 1802 H 176.842 -2.75124 -1.06729 0
M  V30 1803 H 176.923 -2.46672 0.677225 0
M  V30 1804 H 176.567 -4.96321 1.07834 0
M  V30 1805 H 176.497 -5.22153 -0.682954 0
M  V30 1806 H 178.988 -3.778 -0.0871266 0
M  V30 1807 H 179.301 -7.71503 0.447529 0
M  V30 1808 H 177.646 -6.93874 0.395536 0
M  V30 1809 H 180.837 -4.68094 -0.0236741 0
M  V30 1810 H 181.01 -6.47627 0.219905 0
M  V30 1811 N 174.416 0.165178 -1.56732 0
M  V30 1812 C 175.662 0.882112 -1.82611 0
M  V30 1813 C 175.995 1.81628 -0.687378 0
M  V30 1814 O 175.27 1.92009 0.310267 0
M  V30 1815 C 175.553 1.67245 -3.18906 0
M  V30 1816 C 175.406 0.760987 -4.43316 0
M  V30 1817 C 176.725 2.63884 -3.52212 0
M  V30 1818 H 173.844 0.319242 -0.664269 0
M  V30 1819 H 176.486 0.148052 -1.89422 0
M  V30 1820 H 174.636 2.29824 -3.1323 0
M  V30 1821 H 176.308 0.147596 -4.61064 0
M  V30 1822 H 174.551 0.0694102 -4.33744 0
M  V30 1823 H 175.222 1.34962 -5.35247 0
M  V30 1824 H 177.698 2.11429 -3.58381 0
M  V30 1825 H 176.574 3.16245 -4.48643 0
M  V30 1826 H 176.835 3.44377 -2.77231 0
M  V30 1827 N 175.894 1.51508 0.433938 0
M  V30 1828 C 177.143 1.63578 1.18005 0
M  V30 1829 C 177.456 0.359514 1.92268 0
M  V30 1830 O 178.662 0.359632 2.69108 0
M  V30 1831 C 177.118 2.88901 2.14626 0
M  V30 1832 C 176.726 4.23544 1.45995 0
M  V30 1833 C 178.47 3.10328 2.89649 0
M  V30 1834 C 176.377 5.40014 2.4112 0
M  V30 1835 H 175.307 0.609277 0.444182 0
M  V30 1836 H 177.958 1.77978 0.446773 0
M  V30 1837 H 176.34 2.68142 2.91403 0
M  V30 1838 H 177.514 4.54696 0.747532 0
M  V30 1839 H 175.829 4.08021 0.831115 0
M  V30 1840 H 178.426 3.94518 3.60915 0
M  V30 1841 H 178.769 2.23544 3.51189 0
M  V30 1842 H 179.302 3.31443 2.19978 0
M  V30 1843 H 176.041 6.29068 1.84264 0
M  V30 1844 H 175.561 5.13233 3.10406 0
M  V30 1845 H 177.24 5.72099 3.02177 0
M  V30 1846 N 177.372 -0.689602 1.41712 0
M  V30 1847 C 178.621 -1.44534 1.40686 0
M  V30 1848 C 178.934 -1.95588 0.0213352 0
M  V30 1849 O 180.14 -2.71271 -0.111534 0
M  V30 1850 C 178.596 -2.61387 2.47396 0
M  V30 1851 C 178.204 -2.17094 3.91885 0
M  V30 1852 C 179.948 -3.38986 2.55517 0
M  V30 1853 C 177.855 -3.3094 4.90135 0
M  V30 1854 H 176.785 -0.542925 0.52321 0
M  V30 1855 H 179.436 -0.748054 1.6756 0
M  V30 1856 H 177.818 -3.33412 2.13664 0
M  V30 1857 H 178.992 -1.52318 4.34897 0
M  V30 1858 H 177.307 -1.52473 3.8748 0
M  V30 1859 H 179.904 -4.23747 3.26102 0
M  V30 1860 H 180.247 -3.84578 1.59391 0
M  V30 1861 H 180.78 -2.74021 2.8837 0
M  V30 1862 H 177.519 -2.90355 5.87685 0
M  V30 1863 H 177.039 -3.94546 4.51767 0
M  V30 1864 H 178.718 -3.9663 5.11169 0
M  V30 1865 N 178.85 -1.27639 -0.924453 0
M  V30 1866 C 180.075 -1.17101 -1.71179 0
M  V30 1867 C 180.5 0.268134 -1.86179 0
M  V30 1868 O 179.858 1.19415 -1.36418 0
M  V30 1869 C 179.906 -1.86313 -3.08739 0
M  V30 1870 O 179.01 -1.16331 -3.95652 0
M  V30 1871 H 178.351 -0.407091 -0.524569 0
M  V30 1872 H 180.881 -1.68767 -1.15666 0
M  V30 1873 H 180.891 -1.938 -3.59034 0
M  V30 1874 H 179.566 -2.91001 -2.97138 0
M  V30 1875 H 178.143 -1.16935 -3.54091 0
M  V30 1876 N 180.328 1.1314 -1.09713 0
M  V30 1877 C 181.291 2.16831 -0.742751 0
M  V30 1878 C 182.291 1.59159 0.229129 0
M  V30 1879 O 183.481 1.74199 0.00693237 0
M  V30 1880 C 180.613 3.40756 -0.0989168 0
M  V30 1881 H 181.806 2.49695 -1.66109 0
M  V30 1882 H 179.359 1.2802 -0.896699 0
M  V30 1883 H 180.094 3.13485 0.830514 0
M  V30 1884 H 179.879 3.83888 -0.798265 0
M  V30 1885 H 181.369 4.17386 0.133524 0
M  V30 1886 N 181.806 0.884767 1.30421 0
M  V30 1887 C 183.217 0.553656 1.78302 0
M  V30 1888 C 183.568 -0.930153 1.7275 0
M  V30 1889 O 182.693 -1.72681 1.30423 0
M  V30 1890 C 183.288 0.998234 3.2376 0
M  V30 1891 C 181.847 0.71854 3.69478 0
M  V30 1892 C 180.994 1.18132 2.50879 0
M  V30 1893 H 183.945 1.06901 1.17294 0
M  V30 1894 H 183.966 0.327118 3.79091 0
M  V30 1895 H 183.478 2.0782 3.27769 0
M  V30 1896 H 181.579 -0.349444 3.70958 0
M  V30 1897 H 181.692 1.30595 4.60958 0
M  V30 1898 H 180.056 0.600669 2.47516 0
M  V30 1899 H 180.839 2.26902 2.57624 0
M  V30 1900 N 183.284 -1.43765 0.645699 0
M  V30 1901 C 184.509 -2.06767 0.161883 0
M  V30 1902 C 184.934 -1.48034 -1.16049 0
M  V30 1903 O 184.292 -0.587369 -1.71522 0
M  V30 1904 C 184.34 -3.60519 0.0762003 0
M  V30 1905 O 183.444 -4.00982 -0.963721 0
M  V30 1906 H 182.785 -0.657675 0.091429 0
M  V30 1907 H 185.315 -1.84397 0.886499 0
M  V30 1908 H 185.325 -4.07853 -0.109604 0
M  V30 1909 H 184 -4.02646 1.04157 0
M  V30 1910 H 182.577 -3.65253 -0.751312 0
M  V30 1911 N 184.763 -0.387143 -1.52771 0
M  V30 1912 C 185.726 0.436939 -2.24997 0
M  V30 1913 C 186.726 0.991991 -1.26555 0
M  V30 1914 O 187.916 0.874335 -1.50669 0
M  V30 1915 C 185.048 1.61281 -3.00335 0
M  V30 1916 H 186.241 -0.195365 -2.99263 0
M  V30 1917 H 183.794 -0.139218 -1.55679 0
M  V30 1918 H 184.529 2.2826 -2.30364 0
M  V30 1919 H 184.314 1.22154 -3.72587 0
M  V30 1920 H 185.804 2.19629 -3.5518 0
M  V30 1921 N 186.241 1.57166 -0.116904 0
M  V30 1922 C 187.518 1.86645 0.585049 0
M  V30 1923 C 187.898 1.0177 1.84949 0
M  V30 1924 O 187.246 0.0960379 2.28298 0
M  V30 1925 C 187.456 3.37736 0.879507 0
M  V30 1926 C 188.804 4.06289 1.23348 0
M  V30 1927 O 189.828 3.42743 0.969836 0
M  V30 1928 O 188.687 5.18455 1.7282 0
M  V30 1929 H 185.781 0.772593 0.295007 0
M  V30 1930 H 188.327 1.69025 -0.151249 0
M  V30 1931 H 187.099 3.91296 -0.0166136 0
M  V30 1932 H 186.722 3.6078 1.67103 0
M  V30 1933 N 187.719 -0.156864 1.56817 0
M  V30 1934 C 188.682 -1.17781 1.96622 0
M  V30 1935 C 189.682 -1.36401 0.851555 0
M  V30 1936 O 190.872 -1.33561 1.11836 0
M  V30 1937 C 188.004 -2.54008 2.27361 0
M  V30 1938 H 189.197 -0.836564 2.87996 0
M  V30 1939 H 186.75 -0.39985 1.51099 0
M  V30 1940 H 187.485 -2.9312 1.38748 0
M  V30 1941 H 187.27 -2.41856 3.08623 0
M  V30 1942 H 188.76 -3.27558 2.59029 0
M  V30 1943 N 189.197 -1.51736 -0.425897 0
M  V30 1944 C 190.608 -1.5732 -1.00536 0
M  V30 1945 C 190.959 -0.403537 -1.92005 0
M  V30 1946 O 190.084 0.478256 -2.11049 0
M  V30 1947 C 190.679 -2.85119 -1.8301 0
M  V30 1948 C 189.238 -2.93236 -2.35987 0
M  V30 1949 C 188.385 -2.52098 -1.15508 0
M  V30 1950 H 191.336 -1.57348 -0.206739 0
M  V30 1951 H 191.357 -2.69526 -2.68581 0
M  V30 1952 H 190.869 -3.7023 -1.16411 0
M  V30 1953 H 188.97 -2.12581 -3.06007 0
M  V30 1954 H 189.083 -3.9713 -2.68001 0
M  V30 1955 H 187.447 -2.05558 -1.50393 0
M  V30 1956 H 188.23 -3.39565 -0.505014 0
M  V30 1957 N 190.675 0.682077 -1.42076 0
M  V30 1958 C 191.608 1.80666 -1.3941 0
M  V30 1959 C 192.586 1.60518 -0.25939 0
M  V30 1960 O 193.77 1.83088 -0.448456 0
M  V30 1961 C 190.897 3.17556 -1.17796 0
M  V30 1962 C 189.943 3.56468 -2.34164 0
M  V30 1963 S 190.776 3.59729 -3.96681 0
M  V30 1964 C 191.932 4.99323 -3.77395 0
M  V30 1965 H 192.165 1.82652 -2.34575 0
M  V30 1966 H 189.698 0.852062 -1.2876 0
M  V30 1967 H 191.656 3.96575 -1.06012 0
M  V30 1968 H 190.317 3.13164 -0.242279 0
M  V30 1969 H 189.51 4.5595 -2.1477 0
M  V30 1970 H 189.112 2.84792 -2.42425 0
M  V30 1971 H 191.404 5.87202 -3.37935 0
M  V30 1972 H 192.347 5.23763 -4.76527 0
M  V30 1973 H 192.755 4.71498 -3.10403 0
M  V30 1974 N 192.153 1.28127 0.917671 0
M  V30 1975 C 193.4 1.15052 1.66641 0
M  V30 1976 C 193.728 -0.301677 1.92146 0
M  V30 1977 O 192.983 -1.23622 1.51711 0
M  V30 1978 C 193.282 1.89018 3.03327 0
M  V30 1979 C 192.948 3.38832 2.97496 0
M  V30 1980 C 191.61 3.79693 2.95613 0
M  V30 1981 C 193.962 4.34378 2.88036 0
M  V30 1982 C 191.29 5.14447 2.82066 0
M  V30 1983 C 193.642 5.69201 2.7603 0
M  V30 1984 C 192.306 6.09343 2.72502 0
M  V30 1985 H 191.576 0.421006 0.609783 0
M  V30 1986 H 194.223 1.58855 1.06945 0
M  V30 1987 H 192.528 1.37752 3.66785 0
M  V30 1988 H 194.225 1.76321 3.60156 0
M  V30 1989 H 190.815 3.06342 2.99754 0
M  V30 1990 H 194.999 4.03775 2.88581 0
M  V30 1991 H 190.255 5.44681 2.77728 0
M  V30 1992 H 194.429 6.42901 2.67678 0
M  V30 1993 H 192.056 7.13712 2.61762 0
M  V30 1994 N 193.631 -1.12557 1.10312 0
M  V30 1995 C 194.877 -1.84311 0.846011 0
M  V30 1996 C 195.21 -1.83805 -0.626859 0
M  V30 1997 O 194.485 -1.28268 -1.46211 0
M  V30 1998 C 194.768 -3.32048 1.39341 0
M  V30 1999 C 194.621 -3.41016 2.93305 0
M  V30 2000 C 195.94 -4.27764 1.03468 0
M  V30 2001 H 193.059 -0.669192 0.30879 0
M  V30 2002 H 195.701 -1.32057 1.36605 0
M  V30 2003 H 193.851 -3.76678 0.951087 0
M  V30 2004 H 195.523 -3.05031 3.46055 0
M  V30 2005 H 193.766 -2.81603 3.29973 0
M  V30 2006 H 194.437 -4.44948 3.26689 0
M  V30 2007 H 196.913 -3.91253 1.41633 0
M  V30 2008 H 195.789 -5.29549 1.44463 0
M  V30 2009 H 196.05 -4.42064 -0.0560404 0
M  V30 2010 N 195.109 -0.891671 -1.2995 0
M  V30 2011 C 196.042 -0.307994 -2.26112 0
M  V30 2012 C 197.02 0.575262 -1.52084 0
M  V30 2013 O 198.204 0.523864 -1.81074 0
M  V30 2014 C 195.331 0.561734 -3.34009 0
M  V30 2015 C 194.377 -0.253107 -4.25748 0
M  V30 2016 S 195.21 -1.64572 -5.09584 0
M  V30 2017 C 196.366 -0.782699 -6.20987 0
M  V30 2018 H 196.599 -1.12309 -2.75271 0
M  V30 2019 H 194.132 -0.691509 -1.38049 0
M  V30 2020 H 196.09 1.05777 -3.96638 0
M  V30 2021 H 194.751 1.35099 -2.83561 0
M  V30 2022 H 193.944 0.410908 -5.02322 0
M  V30 2023 H 193.546 -0.682004 -3.67729 0
M  V30 2024 H 195.838 -0.00257476 -6.775 0
M  V30 2025 H 196.781 -1.52026 -6.91588 0
M  V30 2026 H 197.189 -0.340638 -5.63471 0
M  V30 2027 N 196.587 1.43421 -0.653314 0
M  V30 2028 C 197.835 2.01414 -0.166415 0
M  V30 2029 C 198.156 1.51803 1.22397 0
M  V30 2030 O 197.426 0.730693 1.81763 0
M  V30 2031 H 196.006 0.744703 -0.0585319 0
M  V30 2032 H 198.668 1.75629 -0.845003 0
M  V30 2033 H 197.764 3.11734 -0.151111 0
M  V30 2034 N 198.065 0.39524 1.52563 0
M  V30 2035 C 199.311 -0.185318 2.01952 0
M  V30 2036 C 199.644 -1.45964 1.28095 0
M  V30 2037 O 198.919 -1.90689 0.38315 0
M  V30 2038 C 199.202 -0.447193 3.57312 0
M  V30 2039 C 199.055 0.842828 4.41833 0
M  V30 2040 C 200.374 -1.23529 4.22408 0
M  V30 2041 H 197.493 -0.0658788 0.73405 0
M  V30 2042 H 200.135 0.525975 1.82575 0
M  V30 2043 H 198.285 -1.05312 3.73954 0
M  V30 2044 H 199.957 1.4795 4.36931 0
M  V30 2045 H 198.2 1.45686 4.08605 0
M  V30 2046 H 198.871 0.614165 5.48573 0
M  V30 2047 H 201.347 -0.722445 4.0978 0
M  V30 2048 H 200.223 -1.38727 5.3108 0
M  V30 2049 H 200.484 -2.25213 3.80436 0
M  V30 2050 N 199.544 -1.57102 0.125237 0
M  V30 2051 C 200.492 -2.16905 -0.839927 0
M  V30 2052 C 201.486 -1.11998 -1.27094 0
M  V30 2053 O 202.692 -1.3029 -1.24195 0
M  V30 2054 H 199.067 -0.694252 -0.288995 0
M  V30 2055 H 201.038 -2.96774 -0.311115 0
M  V30 2056 C 199.787 -2.78795 -2.07771 0
M  V30 2057 H 199.11 -3.59221 -1.755 0
M  V30 2058 H 200.55 -3.2417 -2.73295 0
M  V30 2059 C 199.009 -1.76193 -2.87155 0
M  V30 2060 O 199.539 -1.21909 -3.82755 0
M  V30 2061 N 197.745 -1.45991 -2.51267 0
M  V30 2062 H 197.292 -1.90325 -1.73592 0
M  V30 2063 H 197.25 -0.775844 -3.04677 0
M  V30 2064 N 201.022 0.148545 -1.56898 0
M  V30 2065 C 201.972 1.1886 -1.94567 0
M  V30 2066 C 202.956 1.3863 -0.816735 0
M  V30 2067 O 204.148 1.40218 -1.08018 0
M  V30 2068 C 201.277 2.52262 -2.32849 0
M  V30 2069 C 200.363 2.36092 -3.52309 0
M  V30 2070 N 200.754 1.89674 -4.6889 0
M  V30 2071 C 199.052 2.66848 -3.57363 0
M  V30 2072 C 199.753 1.86511 -5.50989 0
M  V30 2073 N 198.729 2.29766 -4.92655 0
M  V30 2074 H 202.531 0.821793 -2.82177 0
M  V30 2075 H 200.045 0.356615 -1.58436 0
M  V30 2076 H 202.042 3.27447 -2.58039 0
M  V30 2077 H 200.702 2.89727 -1.46589 0
M  V30 2078 H 201.713 1.59663 -4.92674 0
M  V30 2079 H 198.39 3.08198 -2.81639 0
M  V30 2080 H 199.78 1.52128 -6.54452 0
M  V30 2081 N 202.5 1.5196 0.417844 0
M  V30 2082 C 203.41 1.77554 1.53336 0
M  V30 2083 C 204.426 0.660655 1.6097 0
M  V30 2084 O 205.602 0.945099 1.77848 0
M  V30 2085 C 202.667 1.91291 2.89152 0
M  V30 2086 C 201.728 3.15183 2.91475 0
M  V30 2087 C 200.961 3.28256 4.20813 0
M  V30 2088 O 201.184 2.46798 5.14244 0
M  V30 2089 O 200.118 4.21356 4.29817 0
M  V30 2090 H 203.944 2.7222 1.34647 0
M  V30 2091 H 201.529 1.36698 0.602828 0
M  V30 2092 H 203.411 2.02199 3.69721 0
M  V30 2093 H 202.086 0.998129 3.07927 0
M  V30 2094 H 200.993 3.09739 2.09791 0
M  V30 2095 H 202.326 4.06414 2.77648 0
M  V30 2096 N 203.978 -0.674533 1.42435 0
M  V30 2097 C 204.925 -1.78807 1.45934 0
M  V30 2098 C 205.895 -1.63157 0.311271 0
M  V30 2099 O 207.08 -1.83707 0.515383 0
M  V30 2100 C 204.22 -3.16839 1.36773 0
M  V30 2101 C 203.333 -3.43774 2.61617 0
M  V30 2102 C 202.468 -4.71536 2.44597 0
M  V30 2103 C 201.507 -4.91505 3.64814 0
M  V30 2104 N 200.644 -6.10508 3.46734 0
M  V30 2105 H 205.484 -1.75151 2.41093 0
M  V30 2106 H 203.021 -0.85504 1.19697 0
M  V30 2107 H 204.979 -3.96606 1.29459 0
M  V30 2108 H 203.609 -3.19619 0.452089 0
M  V30 2109 H 202.661 -2.58259 2.79297 0
M  V30 2110 H 203.973 -3.54423 3.50978 0
M  V30 2111 H 203.127 -5.59393 2.3487 0
M  V30 2112 H 201.866 -4.6317 1.52726 0
M  V30 2113 H 200.871 -4.0209 3.74972 0
M  V30 2114 H 202.096 -5.01716 4.57665 0
M  V30 2115 H 200.042 -6.03315 2.5758 0
M  V30 2116 H 199.959 -6.2202 4.29682 0
M  V30 2117 H 201.227 -7.01044 3.40819 0
M  V30 2118 N 205.456 -1.28612 -0.910864 0
M  V30 2119 C 206.686 -1.1862 -1.69153 0
M  V30 2120 C 207.094 0.257324 -1.87442 0
M  V30 2121 O 206.437 1.18543 -1.40332 0
M  V30 2122 C 206.499 -1.81606 -3.10257 0
M  V30 2123 C 206.163 -3.30864 -3.15243 0
M  V30 2124 C 207.16 -4.27256 -2.96223 0
M  V30 2125 C 204.845 -3.71871 -3.37664 0
M  V30 2126 C 206.839 -5.62631 -2.99541 0
M  V30 2127 C 204.526 -5.07371 -3.40614 0
M  V30 2128 C 205.524 -6.02561 -3.21573 0
M  V30 2129 O 205.212 -7.35589 -3.2429 0
M  V30 2130 H 204.944 -0.412633 -0.535453 0
M  V30 2131 H 207.498 -1.70306 -1.14827 0
M  V30 2132 H 205.728 -1.24418 -3.66138 0
M  V30 2133 H 207.417 -1.66092 -3.70362 0
M  V30 2134 H 208.183 -3.9691 -2.78725 0
M  V30 2135 H 204.062 -2.98241 -3.5153 0
M  V30 2136 H 207.606 -6.36907 -2.84597 0
M  V30 2137 H 203.503 -5.37366 -3.57642 0
M  V30 2138 H 204.271 -7.44252 -3.40633 0
M  V30 2139 N 206.934 1.1197 -1.10907 0
M  V30 2140 C 208.211 1.79959 -0.766432 0
M  V30 2141 C 208.591 1.97466 0.746363 0
M  V30 2142 O 207.939 1.55491 1.67436 0
M  V30 2143 C 208.149 3.14009 -1.52314 0
M  V30 2144 C 209.497 3.89134 -1.69883 0
M  V30 2145 O 210.521 3.2368 -1.48692 0
M  V30 2146 O 209.38 5.06572 -2.05054 0
M  V30 2147 H 206.474 0.779208 -0.277062 0
M  V30 2148 H 209.02 1.18762 -1.21217 0
M  V30 2149 H 207.792 2.96587 -2.55249 0
M  V30 2150 H 207.415 3.82915 -1.07059 0
M  V30 2151 N 208.412 0.89855 1.29475 0
M  V30 2152 C 209.36 0.365253 2.29714 0
M  V30 2153 C 210.354 -0.534993 1.6073 0
M  V30 2154 O 211.56 -0.417921 1.75081 0
M  V30 2155 H 207.935 0.0994853 0.74539 0
M  V30 2156 H 209.906 1.22406 2.72138 0
M  V30 2157 C 208.655 -0.393159 3.4547 0
M  V30 2158 H 207.978 0.290332 3.98744 0
M  V30 2159 H 209.418 -0.731189 4.17648 0
M  V30 2160 C 207.877 -1.59539 2.9673 0
M  V30 2161 O 208.407 -2.69469 2.97908 0
M  V30 2162 N 206.613 -1.43716 2.52575 0
M  V30 2163 H 206.16 -0.542828 2.51816 0
M  V30 2164 H 206.118 -2.24288 2.20323 0
M  V30 2165 N 209.89 -1.43072 0.660911 0
M  V30 2166 C 211.115 -2.06584 0.183805 0
M  V30 2167 C 211.54 -1.49257 -1.14472 0
M  V30 2168 O 210.898 -0.605528 -1.70889 0
M  V30 2169 C 210.946 -3.60418 0.114434 0
M  V30 2170 O 210.05 -4.01981 -0.921137 0
M  V30 2171 H 209.391 -0.656669 0.0983994 0
M  V30 2172 H 211.921 -1.83447 0.906006 0
M  V30 2173 H 211.931 -4.07946 -0.0663394 0
M  V30 2174 H 210.606 -4.01519 1.08422 0
M  V30 2175 H 209.183 -3.66029 -0.71253 0
M  V30 2176 N 211.368 -0.403325 -1.52352 0
M  V30 2177 C 212.298 0.416205 -2.29761 0
M  V30 2178 C 213.279 1.05123 -1.33728 0
M  V30 2179 O 214.464 1.06134 -1.62632 0
M  V30 2180 C 211.594 1.53624 -3.11475 0
M  V30 2181 C 210.548 1.02653 -4.15507 0
M  V30 2182 C 209.874 2.23971 -4.85532 0
M  V30 2183 C 211.174 0.08463 -5.22231 0
M  V30 2184 H 212.868 -0.229701 -2.98518 0
M  V30 2185 H 210.414 -0.111913 -1.43564 0
M  V30 2186 H 212.367 2.1165 -3.64393 0
M  V30 2187 H 211.091 2.20994 -2.40477 0
M  V30 2188 H 209.75 0.46871 -3.63591 0
M  V30 2189 H 209.398 2.89883 -4.11068 0
M  V30 2190 H 209.098 1.90521 -5.55856 0
M  V30 2191 H 210.622 2.82614 -5.41259 0
M  V30 2192 H 212.036 0.573509 -5.70424 0
M  V30 2193 H 210.433 -0.160783 -5.99885 0
M  V30 2194 H 211.503 -0.86237 -4.7717 0
M  V30 2195 N 212.846 1.57033 -0.133567 0
M  V30 2196 C 213.793 2.16074 0.811208 0
M  V30 2197 C 214.763 1.08979 1.2535 0
M  V30 2198 O 215.948 1.36958 1.32843 0
M  V30 2199 C 213.088 2.77595 2.05024 0
M  V30 2200 C 212.201 3.99042 1.65498 0
M  V30 2201 C 211.336 4.48603 2.84479 0
M  V30 2202 C 210.375 5.62547 2.41262 0
M  V30 2203 N 209.512 6.06787 3.53206 0
M  V30 2204 H 214.352 2.96477 0.300906 0
M  V30 2205 H 211.889 1.46462 0.136822 0
M  V30 2206 H 213.847 3.11402 2.77642 0
M  V30 2207 H 212.477 1.99859 2.53488 0
M  V30 2208 H 211.529 3.71302 0.826981 0
M  V30 2209 H 212.841 4.81629 1.29748 0
M  V30 2210 H 211.995 4.84395 3.65303 0
M  V30 2211 H 210.734 3.64995 3.23465 0
M  V30 2212 H 209.739 5.26345 1.58874 0
M  V30 2213 H 210.964 6.47931 2.03377 0
M  V30 2214 H 208.91 5.26117 3.91838 0
M  V30 2215 H 208.827 6.84266 3.21427 0
M  V30 2216 H 210.095 6.4722 4.34427 0
M  V30 2217 N 214.325 -0.140222 1.56975 0
M  V30 2218 C 215.574 -0.850152 1.82908 0
M  V30 2219 C 215.887 -1.82028 0.715892 0
M  V30 2220 O 217.093 -2.57485 0.861016 0
M  V30 2221 C 215.549 -1.5625 3.24213 0
M  V30 2222 C 215.157 -0.63443 4.43485 0
M  V30 2223 C 216.901 -2.25881 3.59413 0
M  V30 2224 C 214.808 -1.34879 5.75814 0
M  V30 2225 H 213.738 -0.321221 0.682153 0
M  V30 2226 H 216.389 -0.102874 1.83211 0
M  V30 2227 H 214.771 -2.35565 3.18316 0
M  V30 2228 H 215.945 0.12398 4.60633 0
M  V30 2229 H 214.26 -0.0461836 4.16374 0
M  V30 2230 H 216.857 -2.79978 4.5554 0
M  V30 2231 H 217.2 -3.02693 2.85802 0
M  V30 2232 H 217.733 -1.53477 3.67001 0
M  V30 2233 H 214.472 -0.622385 6.52539 0
M  V30 2234 H 213.992 -2.07974 5.6259 0
M  V30 2235 H 215.671 -1.88784 6.18845 0
M  V30 2236 N 215.803 -1.52179 -0.40978 0
M  V30 2237 C 217.052 -1.65434 -1.15388 0
M  V30 2238 C 217.365 -0.390056 -1.91671 0
M  V30 2239 O 218.571 -0.402399 -2.68501 0
M  V30 2240 C 217.027 -2.92279 -2.10003 0
M  V30 2241 C 216.635 -4.25813 -1.39239 0
M  V30 2242 C 218.379 -3.14897 -2.84675 0
M  V30 2243 C 216.286 -5.43782 -2.32498 0
M  V30 2244 H 215.216 -0.616267 -0.434432 0
M  V30 2245 H 217.867 -1.78666 -0.418401 0
M  V30 2246 H 216.249 -2.72744 -2.871 0
M  V30 2247 H 217.423 -4.55828 -0.675099 0
M  V30 2248 H 215.738 -4.09292 -0.766097 0
M  V30 2249 H 218.335 -4.0021 -3.54593 0
M  V30 2250 H 218.678 -2.29103 -3.47588 0
M  V30 2251 H 219.211 -3.34901 -2.14677 0
M  V30 2252 H 215.95 -6.3192 -1.74233 0
M  V30 2253 H 215.47 -5.18106 -3.02201 0
M  V30 2254 H 217.149 -5.76834 -2.93038 0
M  V30 2255 N 217.281 0.66697 -1.42791 0
M  V30 2256 C 218.506 1.46004 -1.47301 0
M  V30 2257 C 218.931 1.87894 -0.0880317 0
M  V30 2258 O 218.289 1.56502 0.915253 0
M  V30 2259 C 218.337 2.68031 -2.41229 0
M  V30 2260 O 217.441 3.6659 -1.88906 0
M  V30 2261 H 216.782 0.43832 -0.49877 0
M  V30 2262 H 219.312 0.817391 -1.87563 0
M  V30 2263 H 219.322 3.1601 -2.58073 0
M  V30 2264 H 217.997 2.36883 -3.41847 0
M  V30 2265 H 216.574 3.25661 -1.81656 0
M  V30 2266 N 218.759 1.29093 0.90403 0
M  V30 2267 C 219.707 1.13727 2.02901 0
M  V30 2268 C 220.701 0.0539853 1.69314 0
M  V30 2269 O 221.907 0.213469 1.7873 0
M  V30 2270 H 218.282 0.35117 0.664969 0
M  V30 2271 H 220.253 2.08982 2.13001 0
M  V30 2272 C 219.002 0.826066 3.37745 0
M  V30 2273 H 218.325 1.65164 3.64089 0
M  V30 2274 H 219.765 0.758559 4.17159 0
M  V30 2275 C 218.224 -0.470541 3.33598 0
M  V30 2276 O 218.754 -1.49792 3.72727 0
M  V30 2277 N 216.96 -0.474812 2.86695 0
M  V30 2278 H 216.507 0.361692 2.55048 0
M  V30 2279 H 216.465 -1.34236 2.84303 0
M  V30 2280 N 220.237 -1.11381 1.11499 0
M  V30 2281 C 221.2 -2.15622 0.777153 0
M  V30 2282 C 222.2 -1.59504 -0.203779 0
M  V30 2283 O 223.39 -1.74188 0.020782 0
M  V30 2284 C 220.522 -3.40556 0.153116 0
M  V30 2285 H 221.715 -2.47021 1.70061 0
M  V30 2286 H 219.268 -1.26577 0.916952 0
M  V30 2287 H 220.003 -3.14767 -0.780536 0
M  V30 2288 H 219.788 -3.8257 0.859238 0
M  V30 2289 H 221.278 -4.17546 -0.0671044 0
M  V30 2290 N 221.715 -0.905404 -1.28997 0
M  V30 2291 C 222.94 -0.549175 -1.99997 0
M  V30 2292 C 223.365 0.860276 -1.67275 0
M  V30 2293 O 222.723 1.57355 -0.900502 0
M  V30 2294 C 222.771 -0.755185 -3.52604 0
M  V30 2295 O 221.875 0.189692 -4.11964 0
M  V30 2296 H 221.216 -0.213899 -0.628604 0
M  V30 2297 H 223.746 -1.21856 -1.64354 0
M  V30 2298 H 223.756 -0.662045 -4.02593 0
M  V30 2299 H 222.431 -1.78271 -3.75755 0
M  V30 2300 H 221.008 0.0485257 -3.72868 0
M  V30 2301 N 223.193 1.4272 -0.668489 0
M  V30 2302 C 224.433 2.03497 -0.19194 0
M  V30 2303 C 224.797 1.51684 1.17712 0
M  V30 2304 O 225.998 2.04205 1.74796 0
M  V30 2305 C 224.269 3.56734 -0.218032 0
M  V30 2306 S 225.828 4.38395 0.188438 0
M  V30 2307 H 222.646 0.706542 -0.0794959 0
M  V30 2308 H 225.248 1.74563 -0.880235 0
M  V30 2309 H 223.952 3.91943 -1.2169 0
M  V30 2310 H 223.483 3.90333 0.490303 0
M  V30 2311 H 225.498 4.75345 1.42345 0
M  V30 2312 N 224.671 0.411399 1.52136 0
M  V30 2313 C 225.899 -0.163076 2.06256 0
M  V30 2314 C 226.314 -1.3867 1.28125 0
M  V30 2315 O 225.671 -1.79423 0.333721 0
M  V30 2316 C 225.722 -0.511252 3.57867 0
M  V30 2317 O 225.443 0.66378 4.33042 0
M  V30 2318 C 226.944 -1.13921 4.28412 0
M  V30 2319 H 224.164 -0.0193897 0.67072 0
M  V30 2320 H 226.708 0.583007 1.96013 0
M  V30 2321 H 224.863 -1.20723 3.6811 0
M  V30 2322 H 225.277 0.372601 5.23175 0
M  V30 2323 H 226.751 -1.33302 5.35663 0
M  V30 2324 H 227.228 -2.11296 3.85033 0
M  V30 2325 H 227.834 -0.483373 4.22544 0
M  V30 2326 N 226.149 -1.5696 0.141893 0
M  V30 2327 C 227.377 -2.00322 -0.517579 0
M  V30 2328 C 227.792 -1.02193 -1.58752 0
M  V30 2329 O 227.149 -0.0181619 -1.82491 0
M  V30 2330 C 227.2 -3.43618 -1.12289 0
M  V30 2331 O 226.921 -4.37995 -0.0956929 0
M  V30 2332 C 228.422 -4.02231 -1.86347 0
M  V30 2333 H 225.642 -0.657243 -0.135177 0
M  V30 2334 H 228.186 -2.03146 0.234973 0
M  V30 2335 H 226.341 -3.41662 -1.82609 0
M  V30 2336 H 226.755 -5.21729 -0.538469 0
M  V30 2337 H 228.229 -5.04509 -2.23997 0
M  V30 2338 H 228.706 -3.42655 -2.74744 0
M  V30 2339 H 229.312 -4.07802 -1.20737 0
M  V30 2340 N 227.627 0.131896 -1.57047 0
M  V30 2341 C 228.575 1.18146 -2.0036 0
M  V30 2342 C 229.569 1.43614 -0.898406 0
M  V30 2343 O 230.775 1.43729 -1.08361 0
M  V30 2344 H 227.15 0.398042 -0.638018 0
M  V30 2345 H 229.121 0.789564 -2.87765 0
M  V30 2346 C 227.87 2.50341 -2.41298 0
M  V30 2347 H 227.193 2.31578 -3.25902 0
M  V30 2348 H 228.633 3.22371 -2.75414 0
M  V30 2349 C 227.092 3.11984 -1.27153 0
M  V30 2350 O 227.622 3.97484 -0.580459 0
M  V30 2351 N 225.828 2.71662 -1.03189 0
M  V30 2352 H 225.375 2.02231 -1.59564 0
M  V30 2353 H 225.333 3.13238 -0.270077 0
M  V30 2354 N 229.106 1.52395 0.401703 0
M  V30 2355 C 230.346 1.68498 1.15705 0
M  V30 2356 C 230.71 0.409748 1.87577 0
M  V30 2357 O 231.911 0.446983 2.65058 0
M  V30 2358 C 230.182 2.87789 2.11924 0
M  V30 2359 S 231.741 3.24415 2.95466 0
M  V30 2360 H 228.559 0.593267 0.391862 0
M  V30 2361 H 231.161 1.90408 0.443282 0
M  V30 2362 H 229.865 3.7884 1.57824 0
M  V30 2363 H 229.396 2.68175 2.87829 0
M  V30 2364 H 231.411 2.73614 4.13944 0
M  V30 2365 N 230.584 -0.659388 1.43143 0
M  V30 2366 C 231.514 -1.78422 1.50625 0
M  V30 2367 C 232.495 -1.66216 0.361443 0
M  V30 2368 O 233.68 -1.85404 0.577834 0
M  V30 2369 C 230.81 -3.16815 1.42287 0
M  V30 2370 C 229.764 -3.43777 2.54954 0
M  V30 2371 C 229.09 -4.81905 2.31671 0
M  V30 2372 C 230.39 -3.39134 3.97222 0
M  V30 2373 H 232.084 -1.72417 2.44771 0
M  V30 2374 H 229.63 -0.828084 1.17808 0
M  V30 2375 H 231.583 -3.95253 1.46127 0
M  V30 2376 H 230.307 -3.23534 0.446435 0
M  V30 2377 H 228.966 -2.67707 2.50457 0
M  V30 2378 H 228.614 -4.85294 1.32284 0
M  V30 2379 H 228.314 -5.00906 3.07192 0
M  V30 2380 H 229.838 -5.62609 2.37284 0
M  V30 2381 H 231.252 -4.07518 4.03239 0
M  V30 2382 H 229.649 -3.69671 4.72719 0
M  V30 2383 H 230.719 -2.37426 4.22797 0
M  V30 2384 N 232.062 -1.29571 -0.897171 0
M  V30 2385 C 233.025 -1.14913 -1.98312 0
M  V30 2386 C 234.025 -0.0838629 -1.60581 0
M  V30 2387 O 235.215 -0.331006 -1.71026 0
M  V30 2388 C 232.347 -0.757835 -3.3237 0
M  V30 2389 H 233.54 -2.11377 -2.12743 0
M  V30 2390 H 231.093 -1.12793 -1.08201 0
M  V30 2391 H 231.828 0.206837 -3.2364 0
M  V30 2392 H 231.613 -1.52755 -3.61121 0
M  V30 2393 H 233.103 -0.678408 -4.12053 0
M  V30 2394 N 233.54 1.10788 -1.12088 0
M  V30 2395 C 234.951 1.64181 -0.88891 0
M  V30 2396 C 235.302 1.87508 0.577498 0
M  V30 2397 O 234.427 1.61434 1.44112 0
M  V30 2398 C 235.022 2.98257 -1.60712 0
M  V30 2399 C 233.581 3.4853 -1.42139 0
M  V30 2400 C 232.728 2.23208 -1.6454 0
M  V30 2401 H 235.679 0.943368 -1.27618 0
M  V30 2402 H 235.7 3.65552 -1.05604 0
M  V30 2403 H 235.212 2.81246 -2.67436 0
M  V30 2404 H 233.313 3.70692 -0.376552 0
M  V30 2405 H 233.426 4.26882 -2.17505 0
M  V30 2406 H 231.79 2.31169 -1.06925 0
M  V30 2407 H 232.573 2.08733 -2.72554 0
M  V30 2408 N 235.018 0.912232 1.28515 0
M  V30 2409 C 235.948 0.416403 2.29757 0
M  V30 2410 C 236.929 -0.515194 1.6211 0
M  V30 2411 O 238.114 -0.423253 1.89532 0
M  V30 2412 C 235.244 -0.34572 3.45575 0
M  V30 2413 C 234.198 0.496599 4.25109 0
M  V30 2414 C 233.524 -0.393771 5.33248 0
M  V30 2415 C 234.824 1.75307 4.92001 0
M  V30 2416 H 236.518 1.26249 2.7148 0
M  V30 2417 H 234.064 0.608515 1.30511 0
M  V30 2418 H 236.017 -0.703422 4.15488 0
M  V30 2419 H 234.741 -1.2257 3.02728 0
M  V30 2420 H 233.4 0.8368 3.56922 0
M  V30 2421 H 233.048 -1.27225 4.86644 0
M  V30 2422 H 232.748 0.166209 5.87365 0
M  V30 2423 H 234.272 -0.747389 6.06009 0
M  V30 2424 H 235.686 1.46437 5.54283 0
M  V30 2425 H 234.083 2.25534 5.56106 0
M  V30 2426 H 235.153 2.48176 4.16577 0
M  V30 2427 N 236.496 -1.42363 0.676048 0
M  V30 2428 C 237.459 -2.29199 0.00766941 0
M  V30 2429 C 238.459 -1.43389 -0.727745 0
M  V30 2430 O 239.649 -1.64764 -0.56556 0
M  V30 2431 C 236.781 -3.2591 -0.999785 0
M  V30 2432 H 237.974 -2.89794 0.771988 0
M  V30 2433 H 235.527 -1.50024 0.438468 0
M  V30 2434 H 236.262 -2.70256 -1.79255 0
M  V30 2435 H 236.047 -3.89202 -0.475829 0
M  V30 2436 H 237.537 -3.91028 -1.46583 0
M  V30 2437 N 237.974 -0.419461 -1.51915 0
M  V30 2438 C 238.921 0.400927 -2.27291 0
M  V30 2439 C 239.891 1.03224 -1.30131 0
M  V30 2440 O 241.076 1.05455 -1.59009 0
M  V30 2441 C 238.216 1.50603 -3.10504 0
M  V30 2442 C 237.329 0.89462 -4.22635 0
M  V30 2443 C 236.464 1.97328 -4.93189 0
M  V30 2444 C 235.503 1.33935 -5.97267 0
M  V30 2445 N 234.64 2.3586 -6.61298 0
M  V30 2446 H 239.48 -0.248251 -2.96964 0
M  V30 2447 H 237.017 -0.134266 -1.46486 0
M  V30 2448 H 238.975 2.15783 -3.57062 0
M  V30 2449 H 237.605 2.12509 -2.42981 0
M  V30 2450 H 236.657 0.131583 -3.80172 0
M  V30 2451 H 237.969 0.391641 -4.9726 0
M  V30 2452 H 237.123 2.70211 -5.43204 0
M  V30 2453 H 235.862 2.50994 -4.18155 0
M  V30 2454 H 234.867 0.595896 -5.46561 0
M  V30 2455 H 236.092 0.810252 -6.74249 0
M  V30 2456 H 234.038 2.88639 -5.89087 0
M  V30 2457 H 233.955 1.90403 -7.3163 0
M  V30 2458 H 235.223 3.08282 -7.15949 0
M  V30 2459 N 239.452 1.56882 -0.150215 0
M  V30 2460 C 240.698 1.96518 0.500834 0
M  V30 2461 C 241.031 1.03527 1.64304 0
M  V30 2462 O 240.306 0.0782751 1.94342 0
M  V30 2463 C 240.589 3.45822 1.00395 0
M  V30 2464 C 240.442 4.49591 -0.136983 0
M  V30 2465 C 241.761 3.97704 1.88467 0
M  V30 2466 H 238.88 0.714535 0.18058 0
M  V30 2467 H 241.522 1.88577 -0.232091 0
M  V30 2468 H 239.672 3.5272 1.62851 0
M  V30 2469 H 241.344 4.5477 -0.77343 0
M  V30 2470 H 239.587 4.26441 -0.795652 0
M  V30 2471 H 240.258 5.51402 0.256815 0
M  V30 2472 H 242.734 3.93304 1.35834 0
M  V30 2473 H 241.61 5.0263 2.20578 0
M  V30 2474 H 241.871 3.40252 2.82279 0
M  V30 2475 N 240.93 -0.123565 1.57115 0
M  V30 2476 C 242.179 -0.830704 1.83799 0
M  V30 2477 C 242.492 -1.81259 0.735158 0
M  V30 2478 O 243.698 -2.56558 0.888278 0
M  V30 2479 C 242.154 -1.52802 3.25852 0
M  V30 2480 C 241.762 -0.587356 4.44133 0
M  V30 2481 C 243.506 -2.22056 3.61789 0
M  V30 2482 C 241.413 -1.28764 5.77212 0
M  V30 2483 H 240.343 -0.313967 0.685522 0
M  V30 2484 H 242.994 -0.0834359 1.8331 0
M  V30 2485 H 241.376 -2.32175 3.20797 0
M  V30 2486 H 242.55 0.172829 4.60476 0
M  V30 2487 H 240.865 -0.00201892 4.164 0
M  V30 2488 H 243.462 -2.75131 4.58483 0
M  V30 2489 H 243.805 -2.99644 2.88997 0
M  V30 2490 H 244.338 -1.49576 3.68608 0
M  V30 2491 H 241.077 -0.55314 6.53162 0
M  V30 2492 H 240.597 -2.01995 5.64764 0
M  V30 2493 H 242.276 -1.8221 6.20813 0
M  V30 2494 N 242.408 -1.52605 -0.393616 0
M  V30 2495 C 243.358 -1.73436 -1.48 0
M  V30 2496 C 244.342 -0.588386 -1.49756 0
M  V30 2497 O 245.534 -0.846047 -1.5547 0
M  V30 2498 C 242.663 -1.90247 -2.85764 0
M  V30 2499 C 241.749 -3.10763 -2.88595 0
M  V30 2500 N 242.14 -4.33196 -2.61103 0
M  V30 2501 C 240.438 -3.10914 -3.19763 0
M  V30 2502 C 241.139 -5.1477 -2.70899 0
M  V30 2503 N 240.115 -4.50356 -3.04435 0
M  V30 2504 H 243.917 -2.65727 -1.25563 0
M  V30 2505 H 241.431 -1.5085 -0.601513 0
M  V30 2506 H 243.428 -2.03291 -3.63976 0
M  V30 2507 H 242.088 -0.991663 -3.09186 0
M  V30 2508 H 243.099 -4.61408 -2.35209 0
M  V30 2509 H 239.776 -2.29626 -3.4868 0
M  V30 2510 H 241.166 -6.22355 -2.53227 0
M  V30 2511 N 243.887 0.651787 -1.4349 0
M  V30 2512 C 245.164 1.40909 -1.35661 0
M  V30 2513 C 245.544 2.11099 -0.00511733 0
M  V30 2514 O 244.892 2.04892 1.0115 0
M  V30 2515 C 245.102 2.3926 -2.54078 0
M  V30 2516 C 246.45 3.03217 -2.97228 0
M  V30 2517 O 247.474 2.49588 -2.54135 0
M  V30 2518 O 246.333 4.00455 -3.71885 0
M  V30 2519 H 243.427 0.629625 -0.536191 0
M  V30 2520 H 245.973 0.678575 -1.55542 0
M  V30 2521 H 244.745 1.86352 -3.44076 0
M  V30 2522 H 244.368 3.1976 -2.36303 0
M  V30 2523 N 245.365 1.30045 0.890287 0
M  V30 2524 C 246.313 1.15873 2.01683 0
M  V30 2525 C 247.307 0.0719403 1.69247 0
M  V30 2526 O 248.513 0.232414 1.78493 0
M  V30 2527 H 244.888 0.358203 0.661207 0
M  V30 2528 H 246.859 2.11229 2.10772 0
M  V30 2529 C 245.608 0.861842 3.36849 0
M  V30 2530 H 244.931 1.69016 3.62317 0
M  V30 2531 H 246.371 0.802762 4.16331 0
M  V30 2532 C 244.83 -0.435132 3.34078 0
M  V30 2533 O 245.36 -1.4583 3.74295 0
M  V30 2534 N 243.566 -0.444377 2.87182 0
M  V30 2535 H 243.113 0.388723 2.5465 0
M  V30 2536 H 243.071 -1.31213 2.85711 0
M  V30 2537 N 246.843 -1.10192 1.12674 0
M  V30 2538 C 248.09 -1.82205 0.883606 0
M  V30 2539 C 248.418 -1.8532 -0.590492 0
M  V30 2540 O 247.673 -1.31137 -1.45264 0
M  V30 2541 C 247.972 -3.28552 1.4067 0
M  V30 2542 C 247.638 -3.45582 2.89627 0
M  V30 2543 C 246.3 -3.49937 3.30299 0
M  V30 2544 C 248.652 -3.50768 3.85501 0
M  V30 2545 C 245.98 -3.57049 4.65546 0
M  V30 2546 C 248.332 -3.59414 5.20581 0
M  V30 2547 C 246.996 -3.62034 5.60792 0
M  V30 2548 H 246.266 -0.666735 0.323334 0
M  V30 2549 H 248.913 -1.29868 1.40736 0
M  V30 2550 H 247.218 -3.83473 0.80347 0
M  V30 2551 H 248.915 -3.82788 1.19475 0
M  V30 2552 H 245.505 -3.42871 2.57172 0
M  V30 2553 H 249.689 -3.46651 3.55171 0
M  V30 2554 H 244.945 -3.57361 4.96088 0
M  V30 2555 H 249.119 -3.62371 5.94693 0
M  V30 2556 H 246.746 -3.67298 6.6558 0
M  V30 2557 N 248.321 -0.919034 -1.28029 0
M  V30 2558 C 249.569 -0.553838 -1.94363 0
M  V30 2559 C 249.89 0.906357 -1.72656 0
M  V30 2560 O 249.16 1.64143 -1.0693 0
M  V30 2561 H 247.74 -0.201834 -0.719216 0
M  V30 2562 H 250.402 -1.16954 -1.55909 0
M  V30 2563 H 249.498 -0.752758 -3.02886 0
M  V30 2564 N 249.799 1.42003 -0.683588 0
M  V30 2565 C 251.048 2.00638 -0.206681 0
M  V30 2566 C 251.361 1.5472 1.19671 0
M  V30 2567 O 252.567 2.05833 1.77045 0
M  V30 2568 C 251.023 3.58487 -0.318632 0
M  V30 2569 C 250.631 4.1339 -1.72663 0
M  V30 2570 C 252.375 4.24384 0.0991141 0
M  V30 2571 C 250.282 5.63633 -1.79087 0
M  V30 2572 H 249.212 0.750408 -0.0735107 0
M  V30 2573 H 251.863 1.62624 -0.850048 0
M  V30 2574 H 250.245 3.94047 0.392781 0
M  V30 2575 H 251.419 3.89273 -2.46583 0
M  V30 2576 H 249.734 3.59976 -2.09299 0
M  V30 2577 H 252.331 5.34652 0.0713833 0
M  V30 2578 H 252.674 4.00505 1.13586 0
M  V30 2579 H 253.207 3.93816 -0.561599 0
M  V30 2580 H 249.946 5.92323 -2.80774 0
M  V30 2581 H 249.466 5.89714 -1.09535 0
M  V30 2582 H 251.145 6.28201 -1.5483 0
M  V30 2583 N 251.277 0.427512 1.51691 0
M  V30 2584 C 252.523 -0.142439 2.02299 0
M  V30 2585 C 252.856 -1.43214 1.31162 0
M  V30 2586 O 252.131 -1.89833 0.423511 0
M  V30 2587 C 252.414 -0.371301 3.58181 0
M  V30 2588 C 252.267 0.936358 4.39946 0
M  V30 2589 C 253.586 -1.14542 4.24933 0
M  V30 2590 H 250.705 -0.0502937 0.735282 0
M  V30 2591 H 253.347 0.564584 1.81418 0
M  V30 2592 H 251.497 -0.973559 3.76104 0
M  V30 2593 H 253.169 1.57184 4.33694 0
M  V30 2594 H 251.412 1.5432 4.05423 0
M  V30 2595 H 252.083 0.730388 5.47147 0
M  V30 2596 H 254.559 -0.635362 4.11221 0
M  V30 2597 H 253.435 -1.27431 5.33903 0
M  V30 2598 H 253.696 -2.17093 3.85127 0
M  V30 2599 N 252.755 -1.56801 0.158532 0
M  V30 2600 C 253.665 -2.20916 -0.789518 0
M  V30 2601 C 254.681 -1.1969 -1.26294 0
M  V30 2602 O 255.857 -1.52308 -1.31773 0
M  V30 2603 C 252.922 -2.82727 -2.00665 0
M  V30 2604 C 251.983 -3.99114 -1.58134 0
M  V30 2605 C 251.216 -4.57968 -2.74045 0
M  V30 2606 O 251.439 -4.15704 -3.90572 0
M  V30 2607 O 250.373 -5.48047 -2.48855 0
M  V30 2608 H 254.199 -3.02464 -0.273681 0
M  V30 2609 H 251.784 -1.4924 -0.0690548 0
M  V30 2610 H 253.666 -3.21968 -2.71872 0
M  V30 2611 H 252.341 -2.04184 -2.51179 0
M  V30 2612 H 251.248 -3.64567 -0.839155 0
M  V30 2613 H 252.581 -4.79212 -1.12325 0
M  V30 2614 N 254.233 0.115231 -1.57178 0
M  V30 2615 C 255.481 0.820727 -1.84685 0
M  V30 2616 C 255.802 1.80237 -0.744279 0
M  V30 2617 O 255.072 1.94529 0.231375 0
M  V30 2618 H 253.652 0.306084 -0.681411 0
M  V30 2619 H 256.314 0.101656 -1.94635 0
M  V30 2620 H 255.41 1.36366 -2.80733 0
M  V30 2621 N 255.711 1.52812 0.385517 0
M  V30 2622 C 256.641 1.80808 1.47752 0
M  V30 2623 C 257.622 0.660318 1.5676 0
M  V30 2624 O 258.807 0.908246 1.71652 0
M  V30 2625 C 255.937 1.98008 2.85324 0
M  V30 2626 C 254.891 3.13709 2.91154 0
M  V30 2627 C 254.217 3.16169 4.31209 0
M  V30 2628 C 255.517 4.52709 2.60483 0
M  V30 2629 H 257.211 2.72253 1.24573 0
M  V30 2630 H 254.757 1.31003 0.597839 0
M  V30 2631 H 256.71 2.16176 3.61726 0
M  V30 2632 H 255.434 1.03255 3.09848 0
M  V30 2633 H 254.093 2.95329 2.17201 0
M  V30 2634 H 253.741 2.19092 4.52778 0
M  V30 2635 H 253.441 3.93894 4.36029 0
M  V30 2636 H 254.965 3.36496 5.09512 0
M  V30 2637 H 256.379 4.71173 3.26602 0
M  V30 2638 H 254.776 5.32528 2.76648 0
M  V30 2639 H 255.846 4.59186 1.55809 0
M  V30 2640 N 257.189 -0.644168 1.43834 0
M  V30 2641 C 258.122 -1.76906 1.44151 0
M  V30 2642 C 259.1 -1.59774 0.301857 0
M  V30 2643 O 260.284 -1.81834 0.496841 0
M  V30 2644 C 257.411 -3.14321 1.26174 0
M  V30 2645 C 256.457 -3.50134 2.43533 0
M  V30 2646 S 257.29 -3.49085 4.06079 0
M  V30 2647 C 258.446 -4.89142 3.90501 0
M  V30 2648 H 258.679 -1.76368 2.39336 0
M  V30 2649 H 256.212 -0.817624 1.30974 0
M  V30 2650 H 258.17 -3.93625 1.16489 0
M  V30 2651 H 256.831 -3.12412 0.325224 0
M  V30 2652 H 256.024 -4.50095 2.26783 0
M  V30 2653 H 255.626 -2.78264 2.4989 0
M  V30 2654 H 257.918 -5.78036 3.53385 0
M  V30 2655 H 258.861 -5.10945 4.90246 0
M  V30 2656 H 259.269 -4.63102 3.22795 0
M  V30 2657 N 258.668 -1.30515 -0.883378 0
M  V30 2658 C 259.896 -1.22359 -1.66841 0
M  V30 2659 C 260.311 0.213296 -1.87591 0
M  V30 2660 O 259.668 1.14075 -1.42454 0
M  V30 2661 C 259.719 -1.95011 -3.04389 0
M  V30 2662 O 259.44 -3.3309 -2.84575 0
M  V30 2663 C 260.941 -1.93532 -3.98824 0
M  V30 2664 H 258.161 -0.423371 -0.520575 0
M  V30 2665 H 260.705 -1.72167 -1.10357 0
M  V30 2666 H 258.86 -1.48997 -3.57601 0
M  V30 2667 H 259.274 -3.69907 -3.71846 0
M  V30 2668 H 260.748 -2.48902 -4.92699 0
M  V30 2669 H 261.225 -0.914627 -4.29571 0
M  V30 2670 H 261.831 -2.39364 -3.51547 0
M  V30 2671 N 260.146 1.09593 -1.13257 0
M  V30 2672 C 261.374 1.855 -0.916378 0
M  V30 2673 C 261.789 1.81069 0.534738 0
M  V30 2674 O 261.146 1.20562 1.37007 0
M  V30 2675 C 261.197 3.33546 -1.39388 0
M  V30 2676 O 260.918 3.37927 -2.78813 0
M  V30 2677 C 262.419 4.26299 -1.21588 0
M  V30 2678 H 259.639 0.585991 -0.326887 0
M  V30 2679 H 262.183 1.38488 -1.5047 0
M  V30 2680 H 260.338 3.77992 -0.848597 0
M  V30 2681 H 260.752 4.30254 -2.9997 0
M  V30 2682 H 262.226 5.28341 -1.59876 0
M  V30 2683 H 262.703 4.38918 -0.157376 0
M  V30 2684 H 263.309 3.87668 -1.7491 0
M  V30 2685 N 261.624 0.925811 1.2754 0
M  V30 2686 C 262.87 0.566092 1.94739 0
M  V30 2687 C 263.203 -0.890057 1.72603 0
M  V30 2688 O 262.478 -1.63467 1.05399 0
M  V30 2689 C 262.761 0.89054 3.48915 0
M  V30 2690 C 262.614 2.4003 3.80402 0
M  V30 2691 C 263.933 0.395101 4.38323 0
M  V30 2692 H 261.052 0.20714 0.707292 0
M  V30 2693 H 263.694 1.15725 1.50691 0
M  V30 2694 H 261.844 0.387452 3.86563 0
M  V30 2695 H 263.516 2.97494 3.52555 0
M  V30 2696 H 261.759 2.85028 3.2702 0
M  V30 2697 H 262.43 2.57785 4.8811 0
M  V30 2698 H 264.906 0.826241 4.07814 0
M  V30 2699 H 263.782 0.651086 5.45025 0
M  V30 2700 H 264.043 -0.704798 4.36446 0
M  V30 2701 N 263.102 -1.41638 0.69111 0
M  V30 2702 C 264.052 -2.28 -0.000107832 0
M  V30 2703 C 265.036 -1.41964 -0.757304 0
M  V30 2704 O 266.228 -1.65274 -0.633532 0
M  V30 2705 C 263.357 -3.30209 -0.938983 0
M  V30 2706 C 262.443 -4.23725 -0.17827 0
M  V30 2707 N 262.834 -4.99017 0.825563 0
M  V30 2708 C 261.132 -4.44071 -0.414392 0
M  V30 2709 C 261.833 -5.67431 1.28052 0
M  V30 2710 N 260.809 -5.40197 0.607304 0
M  V30 2711 H 264.611 -2.83644 0.769617 0
M  V30 2712 H 262.125 -1.53797 0.521562 0
M  V30 2713 H 264.122 -3.90898 -1.44929 0
M  V30 2714 H 262.782 -2.76126 -1.70836 0
M  V30 2715 H 263.793 -5.03671 1.20566 0
M  V30 2716 H 260.47 -4.01004 -1.162 0
M  V30 2717 H 261.86 -6.37801 2.11327 0
M  V30 2718 N 264.58 -0.43555 -1.51462 0
M  V30 2719 C 265.543 0.365137 -2.26273 0
M  V30 2720 C 266.543 0.951227 -1.29647 0
M  V30 2721 O 267.733 0.825958 -1.53374 0
M  V30 2722 C 264.865 1.51645 -3.05314 0
M  V30 2723 H 266.058 -0.290474 -2.9849 0
M  V30 2724 H 263.611 -0.188676 -1.55157 0
M  V30 2725 H 264.346 2.20816 -2.3751 0
M  V30 2726 H 264.131 1.10238 -3.76284 0
M  V30 2727 H 265.621 2.08218 -3.61987 0
M  V30 2728 N 266.058 1.56714 -0.166846 0
M  V30 2729 C 267.307 1.95922 0.479318 0
M  V30 2730 C 267.62 1.05529 1.6469 0
M  V30 2731 O 268.826 1.34399 2.35901 0
M  V30 2732 C 267.282 3.48359 0.90412 0
M  V30 2733 C 266.89 4.47369 -0.237621 0
M  V30 2734 C 268.634 3.96394 1.51896 0
M  V30 2735 C 266.541 5.91039 0.206561 0
M  V30 2736 H 265.471 0.731495 0.18284 0
M  V30 2737 H 268.122 1.81728 -0.254363 0
M  V30 2738 H 266.504 3.57955 1.69365 0
M  V30 2739 H 267.678 4.49485 -1.01489 0
M  V30 2740 H 265.993 4.09366 -0.762128 0
M  V30 2741 H 268.59 5.01186 1.86325 0
M  V30 2742 H 268.933 3.39075 2.41524 0
M  V30 2743 H 269.466 3.89796 0.79395 0
M  V30 2744 H 266.205 6.52221 -0.654834 0
M  V30 2745 H 265.725 5.9224 0.949282 0
M  V30 2746 H 267.404 6.43707 0.651939 0
M  V30 2747 N 267.536 -0.106894 1.57237 0
M  V30 2748 C 268.764 -0.826389 1.8968 0
M  V30 2749 C 269.179 -1.72856 0.759353 0
M  V30 2750 O 268.536 -1.80503 -0.269263 0
M  V30 2751 C 268.587 -1.64967 3.21665 0
M  V30 2752 O 268.308 -0.783804 4.31031 0
M  V30 2753 C 269.809 -2.47326 3.67892 0
M  V30 2754 H 267.029 -0.236927 0.627779 0
M  V30 2755 H 269.573 -0.0876593 2.04312 0
M  V30 2756 H 267.728 -2.34103 3.08666 0
M  V30 2757 H 268.142 -1.35284 5.06753 0
M  V30 2758 H 269.616 -3.00604 4.6297 0
M  V30 2759 H 270.093 -3.25247 2.95146 0
M  V30 2760 H 270.699 -1.83411 3.83719 0
M  V30 2761 N 269.014 -1.53014 -0.377408 0
M  V30 2762 C 269.977 -1.77957 -1.44444 0
M  V30 2763 C 270.977 -0.649763 -1.47087 0
M  V30 2764 O 272.167 -0.917897 -1.48055 0
M  V30 2765 C 269.299 -1.89089 -2.83651 0
M  V30 2766 H 270.492 -2.73243 -1.23606 0
M  V30 2767 H 268.045 -1.43912 -0.609844 0
M  V30 2768 H 268.78 -0.958293 -3.09818 0
M  V30 2769 H 268.565 -2.71254 -2.83132 0
M  V30 2770 H 270.055 -2.1002 -3.60945 0
M  V30 2771 N 270.492 0.636531 -1.44174 0
M  V30 2772 C 271.72 1.42353 -1.50144 0
M  V30 2773 C 272.135 1.88389 -0.124575 0
M  V30 2774 O 271.492 1.6051 0.868489 0
M  V30 2775 C 271.543 2.64744 -2.46156 0
M  V30 2776 O 271.264 2.20629 -3.7849 0
M  V30 2777 C 272.765 3.57929 -2.61537 0
M  V30 2778 H 269.985 0.436752 -0.5094 0
M  V30 2779 H 272.529 0.778933 -1.89084 0
M  V30 2780 H 270.684 3.25307 -2.10366 0
M  V30 2781 H 271.098 2.99938 -4.30276 0
M  V30 2782 H 272.572 4.40428 -3.32757 0
M  V30 2783 H 273.049 4.06382 -1.66585 0
M  V30 2784 H 273.655 3.03238 -2.98206 0
M  V30 2785 N 271.97 1.30982 0.876444 0
M  V30 2786 C 272.902 1.13902 1.98894 0
M  V30 2787 C 273.915 0.0798815 1.62604 0
M  V30 2788 O 275.104 0.326743 1.75484 0
M  V30 2789 C 272.204 0.716699 3.31235 0
M  V30 2790 C 271.377 1.85945 3.95908 0
M  V30 2791 C 270.436 1.42426 5.06558 0
M  V30 2792 O 269.462 2.13287 5.27729 0
M  V30 2793 N 270.664 0.308025 5.79682 0
M  V30 2794 H 273.429 2.09724 2.14094 0
M  V30 2795 H 270.99 1.2323 1.05004 0
M  V30 2796 H 272.982 0.408403 4.02634 0
M  V30 2797 H 271.552 -0.149719 3.12241 0
M  V30 2798 H 270.772 2.33541 3.17573 0
M  V30 2799 H 272.06 2.62503 4.35855 0
M  V30 2800 H 271.458 -0.282241 5.64995 0
M  V30 2801 H 270.015 0.0592282 6.51773 0
M  V30 2802 N 273.449 -1.08991 1.13837 0
M  V30 2803 C 274.396 -2.15748 0.819835 0
M  V30 2804 C 275.366 -1.64636 -0.220026 0
M  V30 2805 O 276.551 -1.90582 -0.0912757 0
M  V30 2806 C 273.691 -3.4382 0.296913 0
M  V30 2807 C 272.804 -4.0881 1.39636 0
M  V30 2808 C 271.939 -5.24655 0.831314 0
M  V30 2809 C 270.978 -5.81575 1.90886 0
M  V30 2810 N 270.115 -6.88774 1.36142 0
M  V30 2811 H 274.955 -2.42338 1.73426 0
M  V30 2812 H 272.492 -1.18935 0.865613 0
M  V30 2813 H 274.45 -4.17193 -0.0244339 0
M  V30 2814 H 273.08 -3.17535 -0.580628 0
M  V30 2815 H 272.132 -3.33258 1.83422 0
M  V30 2816 H 273.444 -4.47141 2.21058 0
M  V30 2817 H 272.598 -6.04942 0.461515 0
M  V30 2818 H 271.337 -4.87698 -0.013932 0
M  V30 2819 H 270.342 -4.99946 2.28767 0
M  V30 2820 H 271.567 -6.20592 2.75758 0
M  V30 2821 H 269.513 -6.53788 0.538254 0
M  V30 2822 H 269.43 -7.25898 2.11208 0
M  V30 2823 H 270.698 -7.72806 1.01933 0
M  V30 2824 N 274.927 -0.932562 -1.27047 0
M  V30 2825 C 276.155 -0.592031 -1.98249 0
M  V30 2826 C 276.57 0.831062 -1.69525 0
M  V30 2827 O 275.927 1.55299 -0.958561 0
M  V30 2828 C 275.978 -0.814279 -3.5221 0
M  V30 2829 O 275.699 -2.18139 -3.7993 0
M  V30 2830 C 277.2 -0.483121 -4.4066 0
M  V30 2831 H 274.42 -0.223896 -0.632544 0
M  V30 2832 H 276.964 -1.25091 -1.61779 0
M  V30 2833 H 275.119 -0.20213 -3.86872 0
M  V30 2834 H 275.533 -2.235 -4.74498 0
M  V30 2835 H 277.007 -0.689298 -5.47679 0
M  V30 2836 H 277.484 0.581546 -4.35333 0
M  V30 2837 H 278.09 -1.07362 -4.11526 0
M  V30 2838 N 276.405 1.4127 -0.698611 0
M  V30 2839 C 277.651 2.01478 -0.231207 0
M  V30 2840 C 277.984 1.55215 1.16713 0
M  V30 2841 O 277.259 0.764672 1.78838 0
M  V30 2842 C 277.542 3.58912 -0.292281 0
M  V30 2843 C 277.395 4.15293 -1.72778 0
M  V30 2844 C 278.714 4.38736 0.346194 0
M  V30 2845 H 275.833 0.732025 -0.0854878 0
M  V30 2846 H 278.475 1.67977 -0.887906 0
M  V30 2847 H 276.625 3.87582 0.26686 0
M  V30 2848 H 278.297 3.97486 -2.341 0
M  V30 2849 H 276.54 3.7022 -2.26096 0
M  V30 2850 H 277.211 5.24452 -1.72202 0
M  V30 2851 H 279.687 4.15897 -0.130035 0
M  V30 2852 H 278.563 5.48221 0.272932 0
M  V30 2853 H 278.824 4.18425 1.42734 0
M  V30 2854 N 277.883 0.443576 1.51229 0
M  V30 2855 C 279.16 -0.181038 1.9476 0
M  V30 2856 C 279.54 -1.59523 1.38259 0
M  V30 2857 O 278.888 -2.2122 0.572198 0
M  V30 2858 C 279.098 -0.152422 3.48667 0
M  V30 2859 C 280.446 -0.354923 4.23114 0
M  V30 2860 O 281.47 -0.230257 3.55455 0
M  V30 2861 O 280.329 -0.603674 5.43156 0
M  V30 2862 H 277.423 -0.1266 0.817252 0
M  V30 2863 H 279.969 0.502004 1.62105 0
M  V30 2864 H 278.741 0.836022 3.82265 0
M  V30 2865 H 278.364 -0.878107 3.87782 0
M  V30 2866 N 279.361 -1.56624 0.175154 0
M  V30 2867 C 280.609 -1.96609 -0.467885 0
M  V30 2868 C 280.93 -1.06238 -1.63519 0
M  V30 2869 O 280.2 -0.129523 -1.95471 0
M  V30 2870 H 278.78 -0.726008 -0.175845 0
M  V30 2871 H 281.442 -1.93195 0.257234 0
M  V30 2872 H 280.538 -3.00989 -0.825342 0
M  V30 2873 N 280.839 0.0985539 -1.57292 0
M  V30 2874 C 282.25 0.653457 -1.74891 0
M  V30 2875 C 282.601 1.7929 -0.796838 0
M  V30 2876 O 281.726 2.16385 0.0254886 0
M  V30 2877 C 282.321 1.19216 -3.17133 0
M  V30 2878 C 280.88 1.69316 -3.36168 0
M  V30 2879 C 280.027 0.601294 -2.70702 0
M  V30 2880 H 282.978 -0.127497 -1.58187 0
M  V30 2881 H 282.999 2.06154 -3.19814 0
M  V30 2882 H 282.511 0.362635 -3.86402 0
M  V30 2883 H 280.612 2.5468 -2.71972 0
M  V30 2884 H 280.725 1.78853 -4.44464 0
M  V30 2885 H 279.089 1.0399 -2.32504 0
M  V30 2886 H 279.872 -0.217592 -3.4261 0
M  V30 2887 N 282.317 1.53212 0.369288 0
M  V30 2888 C 283.542 1.73423 1.1375 0
M  V30 2889 C 283.967 0.460404 1.82378 0
M  V30 2890 O 283.325 -0.585298 1.71592 0
M  V30 2891 C 283.373 2.89769 2.1463 0
M  V30 2892 O 282.477 2.58119 3.21634 0
M  V30 2893 H 281.818 0.576061 0.330227 0
M  V30 2894 H 284.348 2.00083 0.427547 0
M  V30 2895 H 284.358 3.15829 2.58294 0
M  V30 2896 H 283.033 3.8217 1.64071 0
M  V30 2897 H 281.61 2.42864 2.82969 0
M  V30 2898 N 283.795 -0.628877 1.44509 0
M  V30 2899 C 285.043 -1.38565 1.4712 0
M  V30 2900 C 285.364 -1.94712 0.105899 0
M  V30 2901 O 284.634 -1.75912 -0.862079 0
M  V30 2902 H 283.214 -0.514333 0.541729 0
M  V30 2903 H 285.876 -0.740018 1.80305 0
M  V30 2904 H 284.972 -2.21583 2.19789 0
M  V30 2905 N 285.273 -1.31445 -0.869486 0
M  V30 2906 C 286.22 -1.19135 -1.97675 0
M  V30 2907 C 287.19 -0.0770266 -1.65921 0
M  V30 2908 O 288.375 -0.249972 -1.89155 0
M  V30 2909 C 285.515 -0.905149 -3.33018 0
M  V30 2910 C 284.628 -2.10285 -3.77365 0
M  V30 2911 C 283.763 -1.75339 -5.01427 0
M  V30 2912 C 282.802 -2.91515 -5.38224 0
M  V30 2913 N 281.939 -2.56762 -6.53466 0
M  V30 2914 H 286.779 -2.13853 -2.07535 0
M  V30 2915 H 284.316 -1.06379 -1.01597 0
M  V30 2916 H 286.274 -0.719765 -4.10944 0
M  V30 2917 H 284.904 0.00519624 -3.228 0
M  V30 2918 H 283.956 -2.39899 -2.95216 0
M  V30 2919 H 285.268 -2.97237 -4.00564 0
M  V30 2920 H 284.422 -1.53266 -5.87022 0
M  V30 2921 H 283.161 -0.855801 -4.80133 0
M  V30 2922 H 282.166 -3.14237 -4.51149 0
M  V30 2923 H 283.391 -3.81985 -5.61484 0
M  V30 2924 H 281.337 -1.69526 -6.33717 0
M  V30 2925 H 281.254 -3.37243 -6.76612 0
M  V30 2926 H 282.522 -2.38083 -7.42251 0
M  V30 2927 N 286.751 1.08385 -1.14413 0
M  V30 2928 C 287.681 2.17321 -0.854044 0
M  V30 2929 C 288.662 1.69024 0.191049 0
M  V30 2930 O 289.847 1.94141 0.0476779 0
M  V30 2931 C 286.977 3.45719 -0.330983 0
M  V30 2932 C 285.931 4.07409 -1.31155 0
M  V30 2933 C 285.257 5.30762 -0.64778 0
M  V30 2934 C 286.557 4.48665 -2.67388 0
M  V30 2935 H 288.251 2.41845 -1.76498 0
M  V30 2936 H 285.797 1.16233 -0.850051 0
M  V30 2937 H 287.75 4.21241 -0.115645 0
M  V30 2938 H 286.474 3.2075 0.615381 0
M  V30 2939 H 285.133 3.33919 -1.51306 0
M  V30 2940 H 284.781 5.02078 0.304398 0
M  V30 2941 H 284.481 5.72992 -1.30207 0
M  V30 2942 H 286.005 6.08998 -0.441972 0
M  V30 2943 H 287.419 5.15364 -2.51143 0
M  V30 2944 H 285.816 5.01814 -3.29093 0
M  V30 2945 H 286.886 3.60543 -3.24248 0
M  V30 2946 N 288.23 0.939286 1.26551 0
M  V30 2947 C 289.476 0.596234 1.94465 0
M  V30 2948 C 289.831 -0.855013 1.72358 0
M  V30 2949 O 289.124 -1.6034 1.04889 0
M  V30 2950 C 289.318 0.872106 3.46596 0
M  V30 2951 C 289.147 2.34862 3.83497 0
M  V30 2952 C 287.917 3.00344 4.06352 0
M  V30 2953 C 290.115 3.32697 3.92195 0
M  V30 2954 N 288.097 4.38027 4.30123 0
M  V30 2955 C 289.468 4.55631 4.20476 0
M  V30 2956 C 291.523 3.27747 3.74815 0
M  V30 2957 C 290.226 5.74233 4.33185 0
M  V30 2958 C 292.252 4.45672 3.88755 0
M  V30 2959 C 291.614 5.67388 4.17433 0
M  V30 2960 H 287.713 0.268515 0.734455 0
M  V30 2961 H 290.297 1.2083 1.5267 0
M  V30 2962 H 288.468 0.289102 3.87323 0
M  V30 2963 H 290.2 0.490513 4.01716 0
M  V30 2964 H 286.955 2.50969 4.01636 0
M  V30 2965 H 287.379 5.09288 4.46044 0
M  V30 2966 H 292.021 2.34703 3.51673 0
M  V30 2967 H 289.739 6.67731 4.55149 0
M  V30 2968 H 293.325 4.43372 3.76713 0
M  V30 2969 H 292.205 6.57115 4.27983 0
M  V30 2970 N 289.708 -1.40897 0.706093 0
M  V30 2971 C 291.124 -1.55042 0.37869 0
M  V30 2972 C 291.324 -1.67944 -1.11342 0
M  V30 2973 O 290.38 -1.66372 -1.89938 0
M  V30 2974 C 291.693 -2.78398 1.13643 0
M  V30 2975 C 293.241 -2.92206 1.12181 0
M  V30 2976 C 293.716 -4.18463 1.86152 0
M  V30 2977 N 295.207 -4.25443 1.83173 0
M  V30 2978 C 295.942 -5.2202 2.37239 0
M  V30 2979 N 295.438 -6.24563 2.99821 0
M  V30 2980 N 297.231 -5.14033 2.27435 0
M  V30 2981 H 289.382 -1.30769 1.67372 0
M  V30 2982 H 291.645 -0.631653 0.706907 0
M  V30 2983 H 291.351 -2.7511 2.19106 0
M  V30 2984 H 291.225 -3.70228 0.721853 0
M  V30 2985 H 293.612 -2.95004 0.0754171 0
M  V30 2986 H 293.693 -2.01521 1.57554 0
M  V30 2987 H 293.337 -4.16427 2.90776 0
M  V30 2988 H 293.267 -5.08141 1.38206 0
M  V30 2989 H 295.758 -3.51976 1.37556 0
M  V30 2990 H 296.071 -6.94665 3.38616 0
M  V30 2991 H 294.416 -6.25035 3.03902 0
M  V30 2992 H 297.607 -4.3285 1.78208 0
M  V30 2993 H 297.78 -5.89129 2.69873 0
M  V30 2994 N 291.186 -0.45159 -1.50991 0
M  V30 2995 C 292.463 0.170707 -1.94854 0
M  V30 2996 C 292.843 1.58788 -1.39103 0
M  V30 2997 O 292.191 2.20913 -0.583921 0
M  V30 2998 C 292.401 0.133929 -3.48743 0
M  V30 2999 C 293.749 0.33248 -4.23296 0
M  V30 3000 O 294.773 0.211403 -3.55572 0
M  V30 3001 O 293.632 0.57486 -5.43468 0
M  V30 3002 H 290.726 0.122264 -0.817912 0
M  V30 3003 H 293.272 -0.510594 -1.61836 0
M  V30 3004 H 292.044 -0.856283 -3.81816 0
M  V30 3005 H 291.667 0.857529 -3.88242 0
M  V30 3006 N 292.664 1.56529 -0.183458 0
M  V30 3007 C 293.912 1.96855 0.457452 0
M  V30 3008 C 294.233 1.07104 1.62953 0
M  V30 3009 O 293.503 0.139887 1.954 0
M  V30 3010 H 292.083 0.72693 0.171992 0
M  V30 3011 H 294.745 1.93056 -0.267476 0
M  V30 3012 H 293.841 3.01423 0.809368 0
M  V30 3013 N 294.142 -0.090211 1.57342 0
M  V30 3014 C 295.558 -0.444547 1.53284 0
M  V30 3015 C 295.758 -1.80238 0.900914 0
M  V30 3016 O 294.814 -2.4759 0.495513 0
M  V30 3017 C 296.127 -0.402543 2.97993 0
M  V30 3018 C 297.675 -0.48405 3.09234 0
M  V30 3019 C 298.15 -0.472144 4.5556 0
M  V30 3020 N 299.641 -0.532757 4.60126 0
M  V30 3021 C 300.376 -0.545462 5.708 0
M  V30 3022 N 299.872 -0.514082 6.9089 0
M  V30 3023 N 301.665 -0.59064 5.58988 0
M  V30 3024 H 293.816 0.799121 1.96794 0
M  V30 3025 H 296.079 0.297965 0.899956 0
M  V30 3026 H 295.785 0.528106 3.47712 0
M  V30 3027 H 295.659 -1.21969 3.56936 0
M  V30 3028 H 298.046 -1.40512 2.595 0
M  V30 3029 H 298.127 0.361328 2.53235 0
M  V30 3030 H 297.771 0.445 5.05947 0
M  V30 3031 H 297.701 -1.3348 5.09402 0
M  V30 3032 H 300.192 -0.562006 3.73698 0
M  V30 3033 H 300.505 -0.527195 7.71 0
M  V30 3034 H 298.85 -0.481054 6.93333 0
M  V30 3035 H 302.041 -0.61272 4.64073 0
M  V30 3036 H 302.214 -0.597073 6.45243 0
M  V30 3037 N 295.62 -1.53406 -0.361157 0
M  V30 3038 C 296.868 -1.69467 -1.10115 0
M  V30 3039 C 297.189 -0.451352 -1.89705 0
M  V30 3040 O 296.459 0.534636 -1.88463 0
M  V30 3041 H 295.039 -0.624749 -0.409508 0
M  V30 3042 H 297.701 -1.90609 -0.406699 0
M  V30 3043 H 296.797 -2.55774 -1.78847 0
M  V30 3044 N 297.098 0.621204 -1.44841 0
M  V30 3045 C 298.061 1.71459 -1.521 0
M  V30 3046 C 299.061 1.55696 -0.401933 0
M  V30 3047 O 300.251 1.61011 -0.664925 0
M  V30 3048 C 297.383 3.10624 -1.40447 0
M  V30 3049 H 298.576 1.66394 -2.49506 0
M  V30 3050 H 296.129 0.835745 -1.3208 0
M  V30 3051 H 296.864 3.21277 -0.441737 0
M  V30 3052 H 296.649 3.23473 -2.21602 0
M  V30 3053 H 298.139 3.90293 -1.4853 0
M  V30 3054 N 298.576 1.31904 0.862503 0
M  V30 3055 C 299.506 1.22782 1.98612 0
M  V30 3056 C 300.487 0.113362 1.69722 0
M  V30 3057 O 301.672 0.299218 1.91881 0
M  V30 3058 C 298.802 0.942058 3.34279 0
M  V30 3059 C 297.756 2.0169 3.77499 0
M  V30 3060 C 297.082 1.58369 5.10709 0
M  V30 3061 C 298.382 3.43096 3.93805 0
M  V30 3062 H 300.076 2.16788 2.06502 0
M  V30 3063 H 297.622 1.04366 0.992154 0
M  V30 3064 H 299.575 0.864818 4.1243 0
M  V30 3065 H 298.299 -0.0336603 3.26583 0
M  V30 3066 H 296.958 2.08416 3.01593 0
M  V30 3067 H 296.606 0.595628 4.99461 0
M  V30 3068 H 296.306 2.30279 5.40597 0
M  V30 3069 H 297.83 1.52067 5.91361 0
M  V30 3070 H 299.244 3.39003 4.62331 0
M  V30 3071 H 297.641 4.13288 4.35101 0
M  V30 3072 H 298.711 3.83334 2.96957 0
M  V30 3073 N 300.054 -1.07777 1.14986 0
M  V30 3074 C 300.986 -2.14769 0.800436 0
M  V30 3075 C 301.999 -1.61739 -0.185595 0
M  V30 3076 O 303.188 -1.78462 0.0370358 0
M  V30 3077 C 300.288 -3.38481 0.168533 0
M  V30 3078 C 299.461 -4.20876 1.1909 0
M  V30 3079 C 298.52 -5.22976 0.581575 0
M  V30 3080 O 297.546 -5.55388 1.24633 0
M  V30 3081 N 298.748 -5.76976 -0.638706 0
M  V30 3082 H 301.513 -2.45348 1.72118 0
M  V30 3083 H 299.074 -1.23645 1.04515 0
M  V30 3084 H 301.066 -4.03916 -0.251764 0
M  V30 3085 H 299.636 -3.05651 -0.655467 0
M  V30 3086 H 298.856 -3.51322 1.78791 0
M  V30 3087 H 300.144 -4.7274 1.88133 0
M  V30 3088 H 299.542 -5.52886 -1.19723 0
M  V30 3089 H 298.099 -6.44061 -1.00142 0
M  V30 3090 N 301.532 -0.945985 -1.26051 0
M  V30 3091 C 302.48 -0.450259 -2.282 0
M  V30 3092 C 303.474 0.47497 -1.62605 0
M  V30 3093 O 304.68 0.352653 -1.76512 0
M  V30 3094 H 301.055 -0.127081 -0.741184 0
M  V30 3095 H 303.026 -1.32422 -2.67408 0
M  V30 3096 C 301.775 0.26467 -3.46691 0
M  V30 3097 H 301.098 -0.438123 -3.97392 0
M  V30 3098 H 302.538 0.575678 -4.20074 0
M  V30 3099 C 300.997 1.48416 -3.02447 0
M  V30 3100 O 301.527 2.58227 -3.07704 0
M  V30 3101 N 299.733 1.34243 -2.57735 0
M  V30 3102 H 299.28 0.448994 -2.53657 0
M  V30 3103 H 299.238 2.15957 -2.28495 0
M  V30 3104 N 303.011 1.40521 -0.713556 0
M  V30 3105 C 304.26 2.00155 -0.249192 0
M  V30 3106 C 304.573 1.57224 1.16362 0
M  V30 3107 O 305.779 2.09542 1.72639 0
M  V30 3108 C 304.235 3.5773 -0.3946 0
M  V30 3109 C 303.843 4.09635 -1.81392 0
M  V30 3110 C 305.587 4.24499 0.00907364 0
M  V30 3111 C 303.494 5.59707 -1.91003 0
M  V30 3112 H 302.424 0.74868 -0.0894114 0
M  V30 3113 H 305.075 1.60784 -0.884352 0
M  V30 3114 H 303.457 3.94792 0.30911 0
M  V30 3115 H 304.631 3.83955 -2.54785 0
M  V30 3116 H 302.946 3.55456 -2.16888 0
M  V30 3117 H 305.543 5.34683 -0.0420404 0
M  V30 3118 H 305.886 4.02824 1.05065 0
M  V30 3119 H 306.419 3.92536 -0.645007 0
M  V30 3120 H 303.158 5.86234 -2.93275 0
M  V30 3121 H 302.678 5.87258 -1.22019 0
M  V30 3122 H 304.357 6.24776 -1.6812 0
M  V30 3123 N 304.489 0.459591 1.5075 0
M  V30 3124 C 305.738 -0.100971 2.01447 0
M  V30 3125 C 306.051 -1.41816 1.34713 0
M  V30 3126 O 307.257 -2.06299 1.76502 0
M  V30 3127 C 305.713 -0.23047 3.59161 0
M  V30 3128 C 305.321 1.0776 4.34847 0
M  V30 3129 C 307.065 -0.743608 4.17936 0
M  V30 3130 C 304.972 0.91253 5.84317 0
M  V30 3131 H 303.902 -0.0415102 0.752856 0
M  V30 3132 H 306.553 0.592742 1.73663 0
M  V30 3133 H 304.935 -0.987703 3.83485 0
M  V30 3134 H 306.109 1.8449 4.22256 0
M  V30 3135 H 304.424 1.52097 3.87628 0
M  V30 3136 H 307.021 -0.883959 5.27343 0
M  V30 3137 H 307.364 -1.73196 3.78562 0
M  V30 3138 H 307.897 -0.04408 3.97776 0
M  V30 3139 H 304.636 1.87391 6.28144 0
M  V30 3140 H 304.156 0.185422 5.99513 0
M  V30 3141 H 305.835 0.574547 6.44444 0
M  V30 3142 N 305.967 -1.56429 0.191757 0
M  V30 3143 C 307.378 -1.83912 -0.321428 0
M  V30 3144 C 307.729 -1.11231 -1.61623 0
M  V30 3145 O 306.854 -0.37202 -2.13178 0
M  V30 3146 C 307.449 -3.33624 -0.589961 0
M  V30 3147 C 306.008 -3.6153 -1.04753 0
M  V30 3148 C 305.155 -2.7714 -0.0943327 0
M  V30 3149 H 308.106 -1.53161 0.415612 0
M  V30 3150 H 308.127 -3.52213 -1.43966 0
M  V30 3151 H 307.639 -3.86495 0.352588 0
M  V30 3152 H 305.74 -3.14089 -2.00447 0
M  V30 3153 H 305.853 -4.69737 -0.942549 0
M  V30 3154 H 304.217 -2.47638 -0.595589 0
M  V30 3155 H 305 -3.32799 0.842601 0
M  V30 3156 N 307.445 0.0818655 -1.57387 0
M  V30 3157 C 308.408 1.08265 -2.02018 0
M  V30 3158 C 309.408 1.32183 -0.915664 0
M  V30 3159 O 310.598 1.28073 -1.18081 0
M  V30 3160 C 307.73 2.42871 -2.39221 0
M  V30 3161 H 308.923 0.698204 -2.91659 0
M  V30 3162 H 306.476 0.327303 -1.52835 0
M  V30 3163 H 307.211 2.86167 -1.52575 0
M  V30 3164 H 306.996 2.26855 -3.19811 0
M  V30 3165 H 308.486 3.14826 -2.74362 0
M  V30 3166 N 308.923 1.53595 0.353017 0
M  V30 3167 C 310.148 1.7462 1.11904 0
M  V30 3168 C 310.573 0.479721 1.8188 0
M  V30 3169 O 309.931 -0.567066 1.72204 0
M  V30 3170 C 309.979 2.92029 2.11545 0
M  V30 3171 O 309.083 2.61516 3.18878 0
M  V30 3172 H 308.424 0.579531 0.324099 0
M  V30 3173 H 310.954 2.00525 0.406301 0
M  V30 3174 H 310.964 3.18551 2.5493 0
M  V30 3175 H 309.639 3.83888 1.60008 0
M  V30 3176 H 308.216 2.45852 2.80377 0
M  V30 3177 N 310.401 -0.613514 1.45168 0
M  V30 3178 C 311.629 -1.39946 1.5239 0
M  V30 3179 C 312.044 -1.88167 0.154531 0
M  V30 3180 O 311.401 -1.61872 -0.842843 0
M  V30 3181 C 311.452 -2.60795 2.50337 0
M  V30 3182 O 311.173 -2.1458 3.81952 0
M  V30 3183 C 312.674 -3.53723 2.67198 0
M  V30 3184 H 309.894 -0.428593 0.516284 0
M  V30 3185 H 312.438 -0.748753 1.903 0
M  V30 3186 H 310.593 -3.21919 2.15515 0
M  V30 3187 H 311.007 -2.93055 4.34993 0
M  V30 3188 H 312.481 -4.35079 3.39721 0
M  V30 3189 H 312.958 -4.0368 1.73029 0
M  V30 3190 H 313.564 -2.98456 3.02992 0
M  V30 3191 N 311.879 -1.3236 -0.855495 0
M  V30 3192 C 313.127 -1.22629 -1.60644 0
M  V30 3193 C 313.448 0.212136 -1.93843 0
M  V30 3194 O 312.718 1.13666 -1.59552 0
M  V30 3195 H 311.298 -0.450882 -0.595579 0
M  V30 3196 H 313.96 -1.65871 -1.02337 0
M  V30 3197 H 313.056 -1.80832 -2.54374 0
M  V30 3198 N 313.357 1.07166 -1.15556 0
M  V30 3199 C 314.32 2.12589 -0.856644 0
M  V30 3200 C 315.32 1.6015 0.14444 0
M  V30 3201 O 316.51 1.7399 -0.0854163 0
M  V30 3202 C 313.642 3.39753 -0.279405 0
M  V30 3203 H 314.835 2.40539 -1.79112 0
M  V30 3204 H 312.388 1.23086 -0.963298 0
M  V30 3205 H 313.123 3.17447 0.663174 0
M  V30 3206 H 312.908 3.79117 -1.00063 0
M  V30 3207 H 314.398 4.17507 -0.0879113 0
M  V30 3208 N 314.835 0.952656 1.25548 0
M  V30 3209 C 315.798 0.475794 2.24207 0
M  V30 3210 C 316.798 -0.419428 1.55234 0
M  V30 3211 O 317.988 -0.216994 1.72843 0
M  V30 3212 C 315.12 -0.312814 3.39462 0
M  V30 3213 H 316.313 1.34779 2.67908 0
M  V30 3214 H 313.866 0.735739 1.37901 0
M  V30 3215 H 314.601 -1.20257 3.01179 0
M  V30 3216 H 314.386 0.329404 3.90714 0
M  V30 3217 H 315.876 -0.635986 4.12729 0
M  V30 3218 N 316.313 -1.40141 0.720998 0
M  V30 3219 C 317.26 -2.30688 0.071919 0
M  V30 3220 C 318.23 -1.48476 -0.744584 0
M  V30 3221 O 319.415 -1.77201 -0.707423 0
M  V30 3222 C 316.555 -3.34724 -0.839855 0
M  V30 3223 C 315.668 -4.31998 -0.0122438 0
M  V30 3224 C 314.803 -5.23102 -0.923995 0
M  V30 3225 C 313.842 -6.12033 -0.0907969 0
M  V30 3226 N 312.979 -6.95537 -0.957718 0
M  V30 3227 H 317.819 -2.85628 0.849755 0
M  V30 3228 H 315.356 -1.40653 0.430726 0
M  V30 3229 H 317.314 -3.93618 -1.38279 0
M  V30 3230 H 315.944 -2.81274 -1.58381 0
M  V30 3231 H 314.996 -3.74841 0.64794 0
M  V30 3232 H 316.308 -4.94772 0.632595 0
M  V30 3233 H 315.462 -5.86953 -1.53527 0
M  V30 3234 H 314.201 -4.60615 -1.60264 0
M  V30 3235 H 313.206 -5.47207 0.533377 0
M  V30 3236 H 314.431 -6.76581 0.584428 0
M  V30 3237 H 312.377 -6.35633 -1.62192 0
M  V30 3238 H 312.294 -7.55099 -0.36904 0
M  V30 3239 H 313.562 -7.63832 -1.555 0
M  V30 3240 N 317.792 -0.46758 -1.50504 0
M  V30 3241 C 318.755 0.317059 -2.26996 0
M  V30 3242 C 319.755 0.923513 -1.31635 0
M  V30 3243 O 320.945 0.793239 -1.55091 0
M  V30 3244 C 318.077 1.45134 -3.08462 0
M  V30 3245 H 319.27 -0.353723 -2.97807 0
M  V30 3246 H 316.823 -0.221545 -1.54722 0
M  V30 3247 H 317.558 2.15728 -2.4214 0
M  V30 3248 H 317.343 1.02232 -3.78538 0
M  V30 3249 H 318.833 2.00493 -3.66323 0
M  V30 3250 N 319.27 1.56325 -0.20005 0
M  V30 3251 C 320.516 1.98012 0.438059 0
M  V30 3252 C 320.849 1.08702 1.60927 0
M  V30 3253 O 320.124 0.140064 1.93995 0
M  V30 3254 C 320.407 3.48841 0.893419 0
M  V30 3255 C 320.26 4.48928 -0.279947 0
M  V30 3256 C 321.579 4.03498 1.75719 0
M  V30 3257 H 318.698 0.719918 0.157757 0
M  V30 3258 H 321.34 1.87743 -0.291968 0
M  V30 3259 H 319.49 3.57723 1.51547 0
M  V30 3260 H 321.162 4.52079 -0.91772 0
M  V30 3261 H 319.405 4.23694 -0.930919 0
M  V30 3262 H 320.076 5.5194 0.0812601 0
M  V30 3263 H 322.552 3.97427 1.23253 0
M  V30 3264 H 321.428 5.09393 2.04476 0
M  V30 3265 H 321.689 3.4906 2.71311 0
M  V30 3266 N 320.748 -0.0735177 1.57428 0
M  V30 3267 C 321.996 -0.771472 1.86796 0
M  V30 3268 C 322.317 -1.78201 0.791804 0
M  V30 3269 O 321.587 -1.95074 -0.179718 0
M  V30 3270 H 320.167 -0.28791 0.689287 0
M  V30 3271 H 322.829 -0.0500161 1.94836 0
M  V30 3272 H 321.925 -1.28874 2.8425 0
M  V30 3273 N 322.226 -1.5378 -0.344866 0
M  V30 3274 C 323.173 -1.81676 -1.42346 0
M  V30 3275 C 324.143 -0.662376 -1.52321 0
M  V30 3276 O 325.328 -0.906675 -1.67881 0
M  V30 3277 C 322.468 -2.03087 -2.79015 0
M  V30 3278 C 321.581 -3.30799 -2.77842 0
M  V30 3279 C 320.716 -3.42285 -4.0622 0
M  V30 3280 C 319.755 -4.6395 -3.9927 0
M  V30 3281 N 318.892 -4.72477 -5.19336 0
M  V30 3282 H 323.732 -2.73703 -1.17858 0
M  V30 3283 H 321.269 -1.35568 -0.570949 0
M  V30 3284 H 323.227 -2.1349 -3.58438 0
M  V30 3285 H 321.857 -1.14375 -3.01858 0
M  V30 3286 H 320.909 -3.29244 -1.90533 0
M  V30 3287 H 322.221 -4.20314 -2.68584 0
M  V30 3288 H 321.375 -3.52113 -4.94066 0
M  V30 3289 H 320.114 -2.50823 -4.18258 0
M  V30 3290 H 319.119 -4.54201 -3.09809 0
M  V30 3291 H 320.344 -5.56775 -3.88817 0
M  V30 3292 H 318.29 -3.83924 -5.3192 0
M  V30 3293 H 318.207 -5.55927 -5.12329 0
M  V30 3294 H 319.475 -4.86613 -6.08957 0
M  V30 3295 N 323.704 0.605807 -1.45491 0
M  V30 3296 C 324.95 1.36679 -1.49823 0
M  V30 3297 C 325.283 1.93693 -0.140175 0
M  V30 3298 O 324.558 1.75158 0.845581 0
M  V30 3299 C 324.841 2.51337 -2.57879 0
M  V30 3300 C 324.694 1.99508 -4.03134 0
M  V30 3301 C 326.013 3.53463 -2.62205 0
M  V30 3302 H 323.132 0.495617 -0.545466 0
M  V30 3303 H 325.774 0.682732 -1.7731 0
M  V30 3304 H 323.924 3.09691 -2.34571 0
M  V30 3305 H 325.596 1.45789 -4.37656 0
M  V30 3306 H 323.839 1.30496 -4.13707 0
M  V30 3307 H 324.51 2.82169 -4.74431 0
M  V30 3308 H 326.986 3.04953 -2.83095 0
M  V30 3309 H 325.862 4.31178 -3.39672 0
M  V30 3310 H 326.123 4.09197 -1.67363 0
M  V30 3311 N 325.182 1.32811 0.848464 0
M  V30 3312 C 326.431 1.23075 1.59798 0
M  V30 3313 C 326.744 -0.204419 1.94529 0
M  V30 3314 O 327.95 -0.423701 2.68173 0
M  V30 3315 C 326.406 2.15594 2.88179 0
M  V30 3316 C 326.014 3.64228 2.60849 0
M  V30 3317 C 327.758 2.14709 3.66197 0
M  V30 3318 C 325.665 4.48689 3.85269 0
M  V30 3319 H 324.595 0.457091 0.599653 0
M  V30 3320 H 327.246 1.57813 0.936342 0
M  V30 3321 H 325.628 1.73778 3.55833 0
M  V30 3322 H 326.802 4.14424 2.01467 0
M  V30 3323 H 325.117 3.67306 1.96151 0
M  V30 3324 H 327.714 2.75046 4.58534 0
M  V30 3325 H 328.057 1.13966 4.00397 0
M  V30 3326 H 328.59 2.54837 3.05455 0
M  V30 3327 H 325.329 5.5027 3.56207 0
M  V30 3328 H 324.849 4.03241 4.44024 0
M  V30 3329 H 326.528 4.62006 4.52946 0
M  V30 3330 N 326.66 -1.06551 1.16123 0
M  V30 3331 C 328.071 -1.60768 0.949232 0
M  V30 3332 C 328.422 -1.89523 -0.507508 0
M  V30 3333 O 327.547 -1.66671 -1.38021 0
M  V30 3334 C 328.142 -2.92086 1.71671 0
M  V30 3335 C 326.701 -3.43015 1.54977 0
M  V30 3336 C 325.848 -2.16947 1.72711 0
M  V30 3337 H 328.799 -0.895354 1.31031 0
M  V30 3338 H 328.82 -3.6138 1.19099 0
M  V30 3339 H 328.332 -2.71127 2.7769 0
M  V30 3340 H 326.433 -3.69039 0.513873 0
M  V30 3341 H 326.546 -4.18516 2.33198 0
M  V30 3342 H 324.91 -2.27041 1.15431 0
M  V30 3343 H 325.693 -1.98473 2.80113 0
M  V30 3344 N 328.138 -0.959301 -1.25041 0
M  V30 3345 C 329.048 -0.489994 -2.29426 0
M  V30 3346 C 330.064 0.444944 -1.68215 0
M  V30 3347 O 331.24 0.320046 -1.98841 0
M  V30 3348 C 328.305 0.220309 -3.45999 0
M  V30 3349 C 327.366 -0.753418 -4.22637 0
M  V30 3350 C 326.599 -0.076918 -5.33645 0
M  V30 3351 O 326.822 1.13649 -5.58963 0
M  V30 3352 O 325.756 -0.764824 -5.97021 0
M  V30 3353 H 329.582 -1.35755 -2.71669 0
M  V30 3354 H 327.167 -0.725961 -1.30576 0
M  V30 3355 H 329.049 0.619677 -4.16819 0
M  V30 3356 H 327.724 1.06296 -3.0575 0
M  V30 3357 H 326.631 -1.20308 -3.54227 0
M  V30 3358 H 327.964 -1.56423 -4.66683 0
M  V30 3359 N 329.616 1.39756 -0.72842 0
M  V30 3360 C 330.546 2.33289 -0.0991354 0
M  V30 3361 C 331.527 1.53568 0.731489 0
M  V30 3362 O 332.712 1.81987 0.677807 0
M  V30 3363 C 329.842 3.3763 0.813834 0
M  V30 3364 C 328.796 4.2791 0.0878663 0
M  V30 3365 C 328.122 5.22894 1.11741 0
M  V30 3366 C 329.422 5.11314 -1.06563 0
M  V30 3367 H 331.116 2.86163 -0.880408 0
M  V30 3368 H 328.662 1.37591 -0.424819 0
M  V30 3369 H 330.615 4.0201 1.26355 0
M  V30 3370 H 329.339 2.83181 1.62715 0
M  V30 3371 H 327.998 3.65 -0.342159 0
M  V30 3372 H 327.646 4.64744 1.92412 0
M  V30 3373 H 327.346 5.84143 0.636477 0
M  V30 3374 H 328.87 5.90151 1.56697 0
M  V30 3375 H 330.284 5.69076 -0.694671 0
M  V30 3376 H 328.681 5.81671 -1.47577 0
M  V30 3377 H 329.751 4.46534 -1.89038 0
M  V30 3378 N 331.094 0.475555 1.50254 0
M  V30 3379 C 332.042 -0.330276 2.30243 0
M  V30 3380 C 333.036 -0.986306 1.37726 0
M  V30 3381 O 334.242 -0.9169 1.54897 0
M  V30 3382 H 330.617 -0.125353 0.741479 0
M  V30 3383 H 332.588 0.364702 2.96163 0
M  V30 3384 C 331.337 -1.39704 3.18399 0
M  V30 3385 H 330.66 -0.901621 3.89501 0
M  V30 3386 H 332.1 -1.93336 3.77355 0
M  V30 3387 C 330.559 -2.4014 2.36293 0
M  V30 3388 O 331.089 -3.45504 2.04914 0
M  V30 3389 N 329.295 -2.1197 1.98789 0
M  V30 3390 H 328.842 -1.2631 2.24507 0
M  V30 3391 H 328.8 -2.79403 1.44157 0
M  V30 3392 N 332.573 -1.56217 0.208337 0
M  V30 3393 C 333.821 -1.97558 -0.426076 0
M  V30 3394 C 334.142 -1.09683 -1.61229 0
M  V30 3395 O 333.412 -0.170956 -1.95153 0
M  V30 3396 H 331.992 -0.729575 -0.160405 0
M  V30 3397 H 334.654 -1.92606 0.298155 0
M  V30 3398 H 333.75 -3.02672 -0.761312 0
M  V30 3399 N 334.051 0.0651679 -1.57465 0
M  V30 3400 C 334.998 1.07675 -2.04144 0
M  V30 3401 C 335.968 1.38071 -0.923335 0
M  V30 3402 O 337.153 1.49026 -1.19146 0
M  V30 3403 C 334.293 2.38337 -2.49579 0
M  V30 3404 C 333.406 2.14413 -3.75035 0
M  V30 3405 C 332.541 3.38686 -4.09225 0
M  V30 3406 C 331.58 3.10156 -5.27702 0
M  V30 3407 N 330.717 4.26778 -5.57499 0
M  V30 3408 H 335.557 0.671716 -2.90331 0
M  V30 3409 H 333.094 0.3201 -1.43575 0
M  V30 3410 H 335.052 3.14632 -2.73975 0
M  V30 3411 H 333.682 2.7663 -1.6636 0
M  V30 3412 H 332.734 1.2878 -3.57939 0
M  V30 3413 H 334.046 1.89344 -4.61466 0
M  V30 3414 H 333.2 4.23373 -4.34558 0
M  V30 3415 H 331.939 3.66837 -3.21374 0
M  V30 3416 H 330.944 2.23866 -5.02159 0
M  V30 3417 H 332.169 2.8332 -6.17176 0
M  V30 3418 H 330.115 4.54948 -4.72608 0
M  V30 3419 H 330.032 4.05005 -6.38362 0
M  V30 3420 H 331.3 5.12443 -5.87386 0
M  V30 3421 N 335.529 1.53961 0.336706 0
M  V30 3422 C 336.459 1.85417 1.41925 0
M  V30 3423 C 337.44 0.709856 1.5458 0
M  V30 3424 O 338.625 0.962396 1.68676 0
M  V30 3425 C 335.755 2.06985 2.78881 0
M  V30 3426 C 334.709 3.22813 2.81026 0
M  V30 3427 C 334.035 3.29727 4.20932 0
M  V30 3428 C 335.335 4.60767 2.45949 0
M  V30 3429 H 337.029 2.76079 1.15848 0
M  V30 3430 H 334.575 1.32839 0.555859 0
M  V30 3431 H 336.528 2.27575 3.54665 0
M  V30 3432 H 335.252 1.13061 3.06406 0
M  V30 3433 H 333.911 3.0209 2.07695 0
M  V30 3434 H 333.559 2.33385 4.45579 0
M  V30 3435 H 333.259 4.07566 4.23277 0
M  V30 3436 H 334.783 3.52536 4.98549 0
M  V30 3437 H 336.197 4.81325 3.11446 0
M  V30 3438 H 334.594 5.4106 2.59566 0
M  V30 3439 H 335.664 4.6391 1.41122 0
M  V30 3440 N 337.007 -0.598083 1.45811 0
M  V30 3441 C 338.235 -1.38322 1.53866 0
M  V30 3442 C 338.65 -1.87992 0.174479 0
M  V30 3443 O 338.007 -1.62756 -0.825627 0
M  V30 3444 C 338.058 -2.58125 2.53089 0
M  V30 3445 O 337.779 -2.10516 3.84206 0
M  V30 3446 C 339.28 -3.50869 2.70935 0
M  V30 3447 H 336.5 -0.423093 0.520801 0
M  V30 3448 H 339.044 -0.728527 1.91083 0
M  V30 3449 H 337.199 -3.19615 2.18917 0
M  V30 3450 H 337.613 -2.88425 4.38077 0
M  V30 3451 H 339.087 -4.31451 3.44317 0
M  V30 3452 H 339.564 -4.01822 1.77301 0
M  V30 3453 H 340.17 -2.95225 3.06141 0
M  V30 3454 N 338.485 -1.33259 -0.841409 0
M  V30 3455 C 339.733 -1.24326 -1.59334 0
M  V30 3456 C 340.054 0.191564 -1.94057 0
M  V30 3457 O 339.324 1.11967 -1.60749 0
M  V30 3458 H 337.904 -0.457174 -0.590763 0
M  V30 3459 H 340.566 -1.66947 -1.00571 0
M  V30 3460 H 339.662 -1.8352 -2.52442 0
M  V30 3461 N 339.963 1.05934 -1.16686 0
M  V30 3462 C 340.896 2.1295 -0.820225 0
M  V30 3463 C 341.874 1.61242 0.209722 0
M  V30 3464 O 343.058 1.88271 0.0929688 0
M  V30 3465 C 340.185 3.3797 -0.22223 0
M  V30 3466 C 339.231 4.08488 -1.22637 0
M  V30 3467 S 340.064 4.58015 -2.77457 0
M  V30 3468 C 341.22 5.86292 -2.19117 0
M  V30 3469 H 341.453 2.42025 -1.72659 0
M  V30 3470 H 338.986 1.18423 -0.990722 0
M  V30 3471 H 340.944 4.10335 0.116322 0
M  V30 3472 H 339.605 3.07045 0.66196 0
M  V30 3473 H 338.798 4.98291 -0.756455 0
M  V30 3474 H 338.4 3.42154 -1.51019 0
M  V30 3475 H 340.692 6.59246 -1.56209 0
M  V30 3476 H 341.635 6.38019 -3.07144 0
M  V30 3477 H 342.043 5.40497 -1.62858 0
M  V30 3478 N 341.441 0.965919 1.2453 0
M  V30 3479 C 342.404 0.499547 2.2369 0
M  V30 3480 C 343.404 -0.40294 1.5567 0
M  V30 3481 O 344.594 -0.19865 1.73064 0
M  V30 3482 C 341.726 -0.276792 3.39774 0
M  V30 3483 H 342.919 1.37613 2.66463 0
M  V30 3484 H 340.472 0.750324 1.37112 0
M  V30 3485 H 341.207 -1.17055 3.02438 0
M  V30 3486 H 340.992 0.370826 3.90343 0
M  V30 3487 H 342.482 -0.592175 4.1338 0
M  V30 3488 N 342.919 -1.39368 0.735821 0
M  V30 3489 C 344.166 -2.00497 0.284123 0
M  V30 3490 C 344.494 -1.58387 -1.12889 0
M  V30 3491 O 343.749 -0.804359 -1.78406 0
M  V30 3492 C 344.048 -3.5583 0.334651 0
M  V30 3493 C 343.714 -4.17593 1.7008 0
M  V30 3494 C 342.376 -4.34176 2.07472 0
M  V30 3495 C 344.728 -4.51848 2.59775 0
M  V30 3496 C 342.056 -4.82304 3.34065 0
M  V30 3497 C 344.408 -5.01384 3.85741 0
M  V30 3498 C 343.072 -5.16175 4.23225 0
M  V30 3499 H 342.342 -0.73367 0.103968 0
M  V30 3500 H 344.989 -1.66683 0.942825 0
M  V30 3501 H 343.294 -3.89674 -0.407625 0
M  V30 3502 H 344.991 -4.00986 -0.0329927 0
M  V30 3503 H 341.581 -4.05087 1.40008 0
M  V30 3504 H 345.765 -4.38653 2.32157 0
M  V30 3505 H 341.021 -4.91941 3.63049 0
M  V30 3506 H 345.195 -5.26863 4.55399 0
M  V30 3507 H 342.822 -5.5323 5.21384 0
M  V30 3508 N 344.397 -0.483516 -1.5 0
M  V30 3509 C 345.813 -0.138404 -1.58999 0
M  V30 3510 C 346.013 1.35597 -1.4905 0
M  V30 3511 O 345.069 2.13039 -1.35539 0
M  V30 3512 C 346.382 -0.699658 -2.92447 0
M  V30 3513 C 347.93 -0.664195 -3.05872 0
M  V30 3514 C 348.405 -1.20321 -4.41913 0
M  V30 3515 N 349.896 -1.16315 -4.48358 0
M  V30 3516 C 350.631 -1.55058 -5.52037 0
M  V30 3517 N 350.127 -2.01311 -6.62907 0
M  V30 3518 N 351.92 -1.46584 -5.42651 0
M  V30 3519 H 344.071 -1.45529 -1.5471 0
M  V30 3520 H 346.334 -0.60258 -0.731848 0
M  V30 3521 H 346.04 -1.747 -3.05242 0
M  V30 3522 H 345.914 -0.150194 -3.76901 0
M  V30 3523 H 348.301 0.374272 -2.92717 0
M  V30 3524 H 348.382 -1.25061 -2.23144 0
M  V30 3525 H 348.026 -2.24037 -4.55818 0
M  V30 3526 H 347.956 -0.592896 -5.23252 0
M  V30 3527 H 350.447 -0.824058 -3.68806 0
M  V30 3528 H 350.76 -2.2899 -7.38095 0
M  V30 3529 H 349.105 -2.05273 -6.63994 0
M  V30 3530 H 352.296 -1.10281 -4.54924 0
M  V30 3531 H 352.469 -1.77103 -6.23329 0
M  V30 3532 N 345.875 1.56104 -0.216619 0
M  V30 3533 C 347.121 1.98466 0.417033 0
M  V30 3534 C 347.454 1.10403 1.59765 0
M  V30 3535 O 346.729 0.160632 1.93836 0
M  V30 3536 C 347.012 3.49769 0.85637 0
M  V30 3537 C 346.865 4.48606 -0.327546 0
M  V30 3538 C 348.184 4.05339 1.7143 0
M  V30 3539 H 345.303 0.721551 0.150112 0
M  V30 3540 H 347.945 1.87423 -0.311864 0
M  V30 3541 H 346.095 3.5931 1.47745 0
M  V30 3542 H 347.767 4.5108 -0.965618 0
M  V30 3543 H 346.01 4.22682 -0.975805 0
M  V30 3544 H 346.681 5.51995 0.0227149 0
M  V30 3545 H 349.157 3.98712 1.19031 0
M  V30 3546 H 348.033 5.11533 1.99061 0
M  V30 3547 H 348.294 3.51918 2.67593 0
M  V30 3548 N 347.353 -0.0568162 1.57498 0
M  V30 3549 C 348.764 -0.606858 1.76562 0
M  V30 3550 C 349.115 -1.77114 0.844094 0
M  V30 3551 O 348.24 -2.16376 0.0318911 0
M  V30 3552 C 348.835 -1.10766 3.20182 0
M  V30 3553 C 347.394 -1.60344 3.40539 0
M  V30 3554 C 346.541 -0.529311 2.72201 0
M  V30 3555 H 349.492 0.169393 1.57793 0
M  V30 3556 H 349.513 -1.97602 3.25167 0
M  V30 3557 H 349.025 -0.26006 3.87228 0
M  V30 3558 H 347.126 -2.47379 2.78629 0
M  V30 3559 H 347.239 -1.67006 4.4905 0
M  V30 3560 H 345.603 -0.977893 2.35179 0
M  V30 3561 H 346.386 0.308352 3.41912 0
M  V30 3562 N 348.832 -1.54138 -0.328536 0
M  V30 3563 C 350.06 -1.76062 -1.08673 0
M  V30 3564 C 350.475 -0.506852 -1.81869 0
M  V30 3565 O 349.832 0.522223 -1.74869 0
M  V30 3566 C 349.883 -2.95054 -2.08866 0
M  V30 3567 O 349.604 -4.15583 -1.38644 0
M  V30 3568 C 351.105 -3.2915 -2.96943 0
M  V30 3569 H 348.325 -0.587889 -0.323461 0
M  V30 3570 H 350.869 -2.0101 -0.376175 0
M  V30 3571 H 349.024 -2.72394 -2.75464 0
M  V30 3572 H 349.438 -4.82481 -2.05699 0
M  V30 3573 H 350.912 -4.15723 -3.63151 0
M  V30 3574 H 351.389 -2.461 -3.63774 0
M  V30 3575 H 351.995 -3.53871 -2.35914 0
M  V30 3576 N 350.31 0.590341 -1.46126 0
M  V30 3577 C 351.273 1.68194 -1.55703 0
M  V30 3578 C 352.273 1.54808 -0.434868 0
M  V30 3579 O 353.463 1.59564 -0.698928 0
M  V30 3580 C 350.595 3.07575 -1.47005 0
M  V30 3581 H 351.788 1.61064 -2.52979 0
M  V30 3582 H 349.341 0.807541 -1.33823 0
M  V30 3583 H 350.076 3.20268 -0.509785 0
M  V30 3584 H 349.861 3.187 -2.28414 0
M  V30 3585 H 351.351 3.87055 -1.56776 0
M  V30 3586 N 351.788 1.33704 0.83433 0
M  V30 3587 C 352.736 1.24323 1.96587 0
M  V30 3588 C 353.73 0.143659 1.6879 0
M  V30 3589 O 354.936 0.30791 1.77347 0
M  V30 3590 H 351.311 0.385925 0.645419 0
M  V30 3591 H 353.282 2.19978 2.01624 0
M  V30 3592 C 352.031 1.00394 3.32891 0
M  V30 3593 H 351.354 1.84231 3.54822 0
M  V30 3594 H 352.794 0.97862 4.12552 0
M  V30 3595 C 351.253 -0.293047 3.35623 0
M  V30 3596 O 351.783 -1.29823 3.80143 0
M  V30 3597 N 349.989 -0.322174 2.88809 0
M  V30 3598 H 349.536 0.496379 2.52772 0
M  V30 3599 H 349.494 -1.18977 2.91019 0
M  V30 3600 N 353.266 -1.05314 1.17247 0
M  V30 3601 C 354.512 -1.78557 0.961513 0
M  V30 3602 C 354.845 -1.87419 -0.508697 0
M  V30 3603 O 354.12 -1.37307 -1.37757 0
M  V30 3604 C 354.403 -3.22514 1.60176 0
M  V30 3605 C 354.256 -3.21673 3.14399 0
M  V30 3606 C 355.575 -4.20318 1.30463 0
M  V30 3607 H 352.694 -0.6482 0.350723 0
M  V30 3608 H 355.336 -1.23102 1.44727 0
M  V30 3609 H 353.486 -3.69867 1.18871 0
M  V30 3610 H 355.158 -2.82405 3.64753 0
M  V30 3611 H 353.401 -2.60048 3.47214 0
M  V30 3612 H 354.072 -4.23271 3.54324 0
M  V30 3613 H 356.548 -3.81454 1.66229 0
M  V30 3614 H 355.424 -5.19289 1.77848 0
M  V30 3615 H 355.685 -4.41526 0.22521 0
M  V30 3616 N 354.744 -0.972509 -1.24016 0
M  V30 3617 C 355.969 -0.654417 -1.96805 0
M  V30 3618 C 356.394 0.770398 -1.716 0
M  V30 3619 O 355.752 1.52361 -0.982647 0
M  V30 3620 C 355.8 -0.941031 -3.48105 0
M  V30 3621 O 354.904 -0.0289472 -4.1239 0
M  V30 3622 H 354.245 -0.24692 -0.616382 0
M  V30 3623 H 356.775 -1.30396 -1.57664 0
M  V30 3624 H 356.785 -0.87452 -3.98517 0
M  V30 3625 H 355.46 -1.97939 -3.65777 0
M  V30 3626 H 354.037 -0.149192 -3.72601 0
M  V30 3627 N 356.222 1.38976 -0.743202 0
M  V30 3628 C 357.468 2.0064 -0.295189 0
M  V30 3629 C 357.801 1.5885 1.11716 0
M  V30 3630 O 357.076 0.821181 1.76315 0
M  V30 3631 C 357.359 3.578 -0.406318 0
M  V30 3632 C 357.212 4.09586 -1.85903 0
M  V30 3633 C 358.531 4.39616 0.206439 0
M  V30 3634 H 355.65 0.728935 -0.108733 0
M  V30 3635 H 358.292 1.65067 -0.940897 0
M  V30 3636 H 356.442 3.88235 0.143419 0
M  V30 3637 H 358.114 3.89837 -2.46627 0
M  V30 3638 H 356.357 3.6284 -2.3776 0
M  V30 3639 H 357.028 5.18708 -1.888 0
M  V30 3640 H 359.504 4.15273 -0.262283 0
M  V30 3641 H 358.38 5.48812 0.0983819 0
M  V30 3642 H 358.641 4.22754 1.2935 0
M  V30 3643 N 357.7 0.491464 1.49741 0
M  V30 3644 C 358.946 -0.0565092 2.02721 0
M  V30 3645 C 359.279 -1.37522 1.37118 0
M  V30 3646 O 358.554 -1.87866 0.503645 0
M  V30 3647 C 358.837 -0.219051 3.59433 0
M  V30 3648 C 358.69 1.12211 4.35579 0
M  V30 3649 C 360.009 -0.964157 4.29409 0
M  V30 3650 H 357.128 -0.0190627 0.736753 0
M  V30 3651 H 359.77 0.641021 1.7886 0
M  V30 3652 H 357.92 -0.813165 3.79895 0
M  V30 3653 H 359.592 1.75437 4.26637 0
M  V30 3654 H 357.835 1.71377 3.98513 0
M  V30 3655 H 358.506 0.961794 5.43556 0
M  V30 3656 H 360.982 -0.460378 4.13545 0
M  V30 3657 H 359.858 -1.04671 5.38828 0
M  V30 3658 H 360.119 -2.00563 3.93988 0
M  V30 3659 N 359.178 -1.55987 0.224894 0
M  V30 3660 C 360.455 -1.90232 -0.455083 0
M  V30 3661 C 360.835 -1.14269 -1.77499 0
M  V30 3662 O 360.183 -0.253079 -2.27094 0
M  V30 3663 C 360.393 -3.42993 -0.644758 0
M  V30 3664 C 361.741 -4.13821 -0.950669 0
M  V30 3665 O 362.765 -3.4861 -0.731423 0
M  V30 3666 O 361.624 -5.29128 -1.36695 0
M  V30 3667 H 358.718 -0.79108 -0.241084 0
M  V30 3668 H 361.264 -1.67581 0.267327 0
M  V30 3669 H 360.036 -3.90252 0.28613 0
M  V30 3670 H 359.659 -3.71434 -1.41853 0
M  V30 3671 N 360.656 0.0484629 -1.57525 0
M  V30 3672 C 361.586 1.0549 -2.08313 0
M  V30 3673 C 362.567 1.38929 -0.981463 0
M  V30 3674 O 363.752 1.48151 -1.25558 0
M  V30 3675 C 360.882 2.36162 -2.54646 0
M  V30 3676 C 359.836 2.17016 -3.68901 0
M  V30 3677 C 359.162 3.53278 -4.01371 0
M  V30 3678 C 360.462 1.57219 -4.98076 0
M  V30 3679 H 362.156 0.632195 -2.92649 0
M  V30 3680 H 359.702 0.302654 -1.40784 0
M  V30 3681 H 361.655 3.06882 -2.88793 0
M  V30 3682 H 360.379 2.80456 -1.67368 0
M  V30 3683 H 359.038 1.48733 -3.35073 0
M  V30 3684 H 358.686 3.95185 -3.11188 0
M  V30 3685 H 358.386 3.41299 -4.78318 0
M  V30 3686 H 359.91 4.25391 -4.38035 0
M  V30 3687 H 361.324 2.17832 -5.30304 0
M  V30 3688 H 359.721 1.55871 -5.79503 0
M  V30 3689 H 360.791 0.535956 -4.81929 0
M  V30 3690 N 362.134 1.5431 0.320358 0
M  V30 3691 C 363.362 1.76636 1.07738 0
M  V30 3692 C 363.777 0.51649 1.81598 0
M  V30 3693 O 363.134 -0.512942 1.75143 0
M  V30 3694 C 363.185 2.96158 2.07299 0
M  V30 3695 O 362.906 4.16313 1.36438 0
M  V30 3696 C 364.407 3.3072 2.95193 0
M  V30 3697 H 361.627 0.589597 0.320339 0
M  V30 3698 H 364.171 2.01207 0.36551 0
M  V30 3699 H 362.326 2.73851 2.74016 0
M  V30 3700 H 362.74 4.83565 2.03138 0
M  V30 3701 H 364.214 4.17643 3.60941 0
M  V30 3702 H 364.691 2.48026 3.62463 0
M  V30 3703 H 365.297 3.55117 2.34034 0
M  V30 3704 N 363.613 -0.582584 1.46437 0
M  V30 3705 C 364.853 -1.35184 1.53312 0
M  V30 3706 C 365.217 -1.9115 0.180508 0
M  V30 3707 O 366.418 -2.68514 0.124017 0
M  V30 3708 C 364.689 -2.45089 2.60127 0
M  V30 3709 S 366.248 -3.32439 2.86408 0
M  V30 3710 H 363.066 -0.460559 0.54167 0
M  V30 3711 H 365.668 -0.669709 1.83671 0
M  V30 3712 H 364.372 -2.02366 3.57038 0
M  V30 3713 H 363.903 -3.18074 2.315 0
M  V30 3714 H 365.918 -4.43924 2.21688 0
M  V30 3715 N 365.091 -1.34144 -0.827227 0
M  V30 3716 C 366.507 -1.13732 -1.11969 0
M  V30 3717 C 366.707 0.0640463 -2.01398 0
M  V30 3718 O 365.763 0.740856 -2.41387 0
M  V30 3719 C 367.076 -2.43047 -1.77055 0
M  V30 3720 C 368.624 -2.49063 -1.89569 0
M  V30 3721 C 369.099 -3.78369 -2.58072 0
M  V30 3722 N 370.59 -3.79505 -2.65575 0
M  V30 3723 C 371.325 -4.76274 -3.19297 0
M  V30 3724 N 370.821 -5.83424 -3.73616 0
M  V30 3725 N 372.614 -4.63735 -3.17658 0
M  V30 3726 H 364.765 -2.11126 -0.232296 0
M  V30 3727 H 367.028 -0.933424 -0.165602 0
M  V30 3728 H 366.734 -3.31025 -1.18807 0
M  V30 3729 H 366.608 -2.56066 -2.76966 0
M  V30 3730 H 368.995 -1.61527 -2.46968 0
M  V30 3731 H 369.076 -2.39975 -0.885745 0
M  V30 3732 H 368.72 -4.66293 -2.01329 0
M  V30 3733 H 368.65 -3.84737 -3.59562 0
M  V30 3734 H 371.141 -3.02074 -2.27068 0
M  V30 3735 H 371.454 -6.53282 -4.12846 0
M  V30 3736 H 369.799 -5.87143 -3.71871 0
M  V30 3737 H 372.99 -3.79177 -2.74486 0
M  V30 3738 H 373.163 -5.39318 -3.59221 0
M  V30 3739 N 366.569 1.04691 -1.17803 0
M  V30 3740 C 367.499 2.14494 -0.92275 0
M  V30 3741 C 368.48 1.69546 0.137179 0
M  V30 3742 O 369.665 1.94195 -0.0141108 0
M  V30 3743 C 366.795 3.44491 -0.440803 0
M  V30 3744 C 365.749 4.03031 -1.4405 0
M  V30 3745 C 365.075 5.28432 -0.81631 0
M  V30 3746 C 366.375 4.39932 -2.81527 0
M  V30 3747 H 368.069 2.36107 -1.84103 0
M  V30 3748 H 365.615 1.1347 -0.886599 0
M  V30 3749 H 367.568 4.2066 -0.249602 0
M  V30 3750 H 366.292 3.22546 0.513025 0
M  V30 3751 H 364.951 3.28937 -1.61853 0
M  V30 3752 H 364.599 5.02792 0.144511 0
M  V30 3753 H 364.299 5.68559 -1.48371 0
M  V30 3754 H 365.823 6.07284 -0.635496 0
M  V30 3755 H 367.237 5.07113 -2.67412 0
M  V30 3756 H 365.634 4.9109 -3.44892 0
M  V30 3757 H 366.704 3.50045 -3.35554 0
M  V30 3758 N 368.047 0.979072 1.23499 0
M  V30 3759 C 368.957 0.526431 2.28617 0
M  V30 3760 C 369.973 -0.418126 1.68901 0
M  V30 3761 O 371.149 -0.288372 1.99325 0
M  V30 3762 C 368.214 -0.165235 3.46306 0
M  V30 3763 C 367.275 0.82056 4.21385 0
M  V30 3764 C 366.508 0.161807 5.33455 0
M  V30 3765 O 366.731 -1.04742 5.60701 0
M  V30 3766 O 365.665 0.859708 5.95729 0
M  V30 3767 H 369.491 1.4006 2.69475 0
M  V30 3768 H 367.076 0.746643 1.29405 0
M  V30 3769 H 368.958 -0.553287 4.17752 0
M  V30 3770 H 367.633 -1.01419 3.07402 0
M  V30 3771 H 366.54 1.25929 3.52268 0
M  V30 3772 H 367.873 1.63828 4.64135 0
M  V30 3773 N 369.525 -1.3858 0.750561 0
M  V30 3774 C 370.472 -2.30483 0.120835 0
M  V30 3775 C 371.442 -1.50022 -0.712923 0
M  V30 3776 O 372.627 -1.78662 -0.669676 0
M  V30 3777 C 369.767 -3.36431 -0.768666 0
M  V30 3778 C 368.88 -4.31927 0.0793922 0
M  V30 3779 C 368.015 -5.24944 -0.81283 0
M  V30 3780 C 367.054 -6.12088 0.0390447 0
M  V30 3781 N 366.191 -6.97412 -0.809969 0
M  V30 3782 H 371.031 -2.83761 0.91015 0
M  V30 3783 H 368.568 -1.39707 0.460463 0
M  V30 3784 H 370.526 -3.96462 -1.29898 0
M  V30 3785 H 369.156 -2.8457 -1.5238 0
M  V30 3786 H 368.208 -3.73382 0.727303 0
M  V30 3787 H 369.52 -4.93319 0.737401 0
M  V30 3788 H 368.674 -5.90078 -1.41042 0
M  V30 3789 H 367.413 -4.63911 -1.50458 0
M  V30 3790 H 366.418 -5.45952 0.649328 0
M  V30 3791 H 367.643 -6.75189 0.727809 0
M  V30 3792 H 365.589 -6.38931 -1.48672 0
M  V30 3793 H 365.506 -7.55712 -0.208789 0
M  V30 3794 H 366.774 -7.66959 -1.39263 0
M  V30 3795 N 371.003 -0.499398 -1.49478 0
M  V30 3796 C 372.414 -0.051215 -1.8663 0
M  V30 3797 C 372.765 1.36238 -1.41186 0
M  V30 3798 O 371.89 2.01502 -0.789051 0
M  V30 3799 C 372.485 -0.0861651 -3.3869 0
M  V30 3800 C 371.044 0.30667 -3.75149 0
M  V30 3801 C 370.191 -0.459397 -2.73468 0
M  V30 3802 H 373.142 -0.712264 -1.41818 0
M  V30 3803 H 373.163 0.709507 -3.73826 0
M  V30 3804 H 372.675 -1.11512 -3.71735 0
M  V30 3805 H 370.776 1.33892 -3.47712 0
M  V30 3806 H 370.889 -0.0116669 -4.79099 0
M  V30 3807 H 369.253 0.0905645 -2.54539 0
M  V30 3808 H 370.036 -1.4884 -3.09357 0
M  V30 3809 N 372.481 1.55866 -0.233164 0
M  V30 3810 C 373.444 2.1953 0.658715 0
M  V30 3811 C 374.444 1.16053 1.11303 0
M  V30 3812 O 375.634 1.41218 1.01996 0
M  V30 3813 C 372.766 2.82791 1.90373 0
M  V30 3814 H 373.959 2.99721 0.10347 0
M  V30 3815 H 371.512 1.56291 0.0164245 0
M  V30 3816 H 372.247 2.06501 2.50056 0
M  V30 3817 H 372.032 3.58578 1.58632 0
M  V30 3818 H 373.522 3.31556 2.53891 0
M  V30 3819 N 373.959 -0.0401083 1.57549 0
M  V30 3820 C 374.906 -1.04413 2.05831 0
M  V30 3821 C 375.876 -1.36585 0.945184 0
M  V30 3822 O 377.061 -1.47112 1.21502 0
M  V30 3823 C 374.201 -2.34336 2.53339 0
M  V30 3824 C 373.314 -2.08419 3.78398 0
M  V30 3825 C 372.449 -3.32133 4.14561 0
M  V30 3826 C 371.488 -3.01721 5.3257 0
M  V30 3827 N 370.625 -4.17855 5.64218 0
M  V30 3828 H 375.465 -0.625442 2.91363 0
M  V30 3829 H 373.002 -0.297218 1.44066 0
M  V30 3830 H 374.96 -3.10234 2.78946 0
M  V30 3831 H 373.59 -2.73948 1.7074 0
M  V30 3832 H 372.642 -1.23069 3.59942 0
M  V30 3833 H 373.954 -1.81978 4.64419 0
M  V30 3834 H 373.108 -4.16406 4.41238 0
M  V30 3835 H 371.847 -3.61678 3.2717 0
M  V30 3836 H 370.852 -2.15849 5.05657 0
M  V30 3837 H 372.077 -2.73466 6.21605 0
M  V30 3838 H 370.023 -4.47372 4.79786 0
M  V30 3839 H 369.94 -3.94798 6.44725 0
M  V30 3840 H 371.208 -5.03033 5.95465 0
M  V30 3841 N 375.437 -1.54477 -0.31217 0
M  V30 3842 C 376.667 -1.76948 -1.06645 0
M  V30 3843 C 377.075 -0.523593 -1.81811 0
M  V30 3844 O 376.418 0.51578 -1.76311 0
M  V30 3845 C 376.48 -2.91668 -2.10166 0
M  V30 3846 C 376.144 -4.30165 -1.54296 0
M  V30 3847 C 377.141 -5.10603 -0.978793 0
M  V30 3848 C 374.826 -4.76738 -1.58196 0
M  V30 3849 C 376.82 -6.3573 -0.461048 0
M  V30 3850 C 374.507 -6.01831 -1.06034 0
M  V30 3851 C 375.505 -6.81161 -0.500844 0
M  V30 3852 O 375.193 -8.03899 0.0128958 0
M  V30 3853 H 374.925 -0.594088 -0.322546 0
M  V30 3854 H 377.479 -2.02213 -0.360441 0
M  V30 3855 H 375.709 -2.62001 -2.84416 0
M  V30 3856 H 377.398 -3.01817 -2.71406 0
M  V30 3857 H 378.164 -4.75771 -0.941651 0
M  V30 3858 H 374.043 -4.15027 -2.00683 0
M  V30 3859 H 377.587 -6.97596 -0.0236894 0
M  V30 3860 H 373.484 -6.36152 -1.09459 0
M  V30 3861 H 374.252 -8.18437 -0.101457 0
M  V30 3862 N 376.915 0.57481 -1.46744 0
M  V30 3863 C 378.192 1.3352 -1.4294 0
M  V30 3864 C 378.572 2.10775 -0.117009 0
M  V30 3865 O 377.92 2.09966 0.901474 0
M  V30 3866 C 378.13 2.25456 -2.66403 0
M  V30 3867 C 379.478 2.87035 -3.12883 0
M  V30 3868 O 380.502 2.35766 -2.67007 0
M  V30 3869 O 379.361 3.80179 -3.92589 0
M  V30 3870 H 376.455 0.600318 -0.568812 0
M  V30 3871 H 379.001 0.595171 -1.58921 0
M  V30 3872 H 377.773 1.67851 -3.53471 0
M  V30 3873 H 377.396 3.06785 -2.52921 0
M  V30 3874 N 378.394 1.34581 0.820102 0
M  V30 3875 C 379.671 1.17675 1.56244 0
M  V30 3876 C 380.051 -0.249541 2.0962 0
M  V30 3877 O 379.399 -1.25125 1.91196 0
M  V30 3878 C 379.609 2.23364 2.6816 0
M  V30 3879 C 380.957 2.58485 3.36854 0
M  V30 3880 O 381.981 2.22175 2.78418 0
M  V30 3881 O 380.84 3.20868 4.42386 0
M  V30 3882 H 377.934 0.456333 0.689702 0
M  V30 3883 H 380.48 1.46222 0.861231 0
M  V30 3884 H 379.252 3.19087 2.26493 0
M  V30 3885 H 378.875 1.96009 3.45928 0
M  V30 3886 N 379.872 -1.04064 1.18357 0
M  V30 3887 C 381.121 -1.76662 0.973313 0
M  V30 3888 C 381.434 -1.89154 -0.497991 0
M  V30 3889 O 382.64 -2.58606 -0.826762 0
M  V30 3890 C 381.096 -3.17624 1.69242 0
M  V30 3891 C 380.704 -3.13225 3.20303 0
M  V30 3892 C 382.448 -3.946 1.56497 0
M  V30 3893 C 380.355 -4.49046 3.84853 0
M  V30 3894 H 379.285 -0.662214 0.36054 0
M  V30 3895 H 381.936 -1.16553 1.41731 0
M  V30 3896 H 380.318 -3.78129 1.1762 0
M  V30 3897 H 381.492 -2.62172 3.78949 0
M  V30 3898 H 379.807 -2.49749 3.33189 0
M  V30 3899 H 382.404 -4.95042 2.02084 0
M  V30 3900 H 382.747 -4.13074 0.517243 0
M  V30 3901 H 383.28 -3.4067 2.05399 0
M  V30 3902 H 380.019 -4.35777 4.89672 0
M  V30 3903 H 379.539 -5.00203 3.30994 0
M  V30 3904 H 381.218 -5.17961 3.87718 0
M  V30 3905 N 381.35 -0.985608 -1.22978 0
M  V30 3906 C 382.297 -0.529825 -2.24636 0
M  V30 3907 C 383.267 0.434028 -1.60329 0
M  V30 3908 O 384.452 0.340414 -1.87739 0
M  V30 3909 C 381.592 0.156533 -3.44745 0
M  V30 3910 C 380.705 -0.848197 -4.23591 0
M  V30 3911 C 379.84 -0.136109 -5.31026 0
M  V30 3912 C 378.879 -1.1297 -6.01585 0
M  V30 3913 N 378.016 -0.446415 -7.00679 0
M  V30 3914 H 382.856 -1.40148 -2.62988 0
M  V30 3915 H 380.393 -0.702168 -1.29259 0
M  V30 3916 H 382.351 0.571324 -4.1327 0
M  V30 3917 H 380.981 0.992025 -3.07179 0
M  V30 3918 H 380.033 -1.38135 -3.54433 0
M  V30 3919 H 381.345 -1.60512 -4.72268 0
M  V30 3920 H 380.499 0.335784 -6.0577 0
M  V30 3921 H 379.238 0.653373 -4.83304 0
M  V30 3922 H 378.243 -1.6123 -5.25628 0
M  V30 3923 H 379.468 -1.91993 -6.51395 0
M  V30 3924 H 377.414 0.323763 -6.55201 0
M  V30 3925 H 377.331 -1.1419 -7.47326 0
M  V30 3926 H 378.599 0.00291697 -7.795 0
M  V30 3927 N 382.828 1.3818 -0.7579 0
M  V30 3928 C 383.775 2.30416 -0.133057 0
M  V30 3929 C 384.745 1.50398 0.704957 0
M  V30 3930 O 385.93 1.79014 0.660192 0
M  V30 3931 C 383.07 3.36834 0.750813 0
M  V30 3932 C 382.183 4.31879 -0.102297 0
M  V30 3933 C 381.318 5.25368 0.784979 0
M  V30 3934 C 380.357 6.12058 -0.0715046 0
M  V30 3935 N 379.494 6.97832 0.772972 0
M  V30 3936 H 384.334 2.83274 -0.925186 0
M  V30 3937 H 381.871 1.39461 -0.467866 0
M  V30 3938 H 383.829 3.97145 1.27794 0
M  V30 3939 H 382.459 2.85374 1.50868 0
M  V30 3940 H 381.511 3.72991 -0.747095 0
M  V30 3941 H 382.823 4.92921 -0.763552 0
M  V30 3942 H 381.977 5.90818 1.37911 0
M  V30 3943 H 380.716 4.64703 1.47996 0
M  V30 3944 H 379.721 5.456 -0.678272 0
M  V30 3945 H 380.946 6.74793 -0.763606 0
M  V30 3946 H 378.892 6.3971 1.45282 0
M  V30 3947 H 378.809 7.55812 0.168709 0
M  V30 3948 H 380.077 7.67687 1.35194 0
M  V30 3949 N 384.306 0.507319 1.49211 0
M  V30 3950 C 385.552 -0.0350047 2.0277 0
M  V30 3951 C 385.885 -1.3606 1.38569 0
M  V30 3952 O 385.16 -1.87321 0.523542 0
M  V30 3953 C 385.443 -0.180916 3.59645 0
M  V30 3954 C 385.296 1.16825 4.34364 0
M  V30 3955 C 386.615 -0.918558 4.30407 0
M  V30 3956 H 383.734 -0.0112473 0.736914 0
M  V30 3957 H 386.376 0.659956 1.7817 0
M  V30 3958 H 384.526 -0.772826 3.80736 0
M  V30 3959 H 386.198 1.79952 4.24753 0
M  V30 3960 H 384.441 1.75594 3.96673 0
M  V30 3961 H 385.112 1.01939 5.42506 0
M  V30 3962 H 387.588 -0.41649 4.1401 0
M  V30 3963 H 386.464 -0.989505 5.39907 0
M  V30 3964 H 386.725 -1.96373 3.96093 0
M  V30 3965 N 385.784 -1.5574 0.241426 0
M  V30 3966 C 387.03 -1.99104 -0.385406 0
M  V30 3967 C 387.363 -1.1293 -1.57988 0
M  V30 3968 O 386.638 -0.191449 -1.93555 0
M  V30 3969 C 386.921 -3.51087 -0.800616 0
M  V30 3970 C 386.774 -4.48028 0.398874 0
M  V30 3971 C 388.093 -4.08015 -1.64959 0
M  V30 3972 H 385.212 -0.723848 -0.138614 0
M  V30 3973 H 387.854 -1.86903 0.341642 0
M  V30 3974 H 386.004 -3.61615 -1.4201 0
M  V30 3975 H 387.676 -4.49487 1.03726 0
M  V30 3976 H 385.919 -4.21077 1.04293 0
M  V30 3977 H 386.59 -5.51962 0.0651056 0
M  V30 3978 H 389.066 -4.00555 -1.12672 0
M  V30 3979 H 387.942 -5.14635 -1.90898 0
M  V30 3980 H 388.203 -3.56131 -2.61961 0
M  V30 3981 N 387.262 0.0317525 -1.57568 0
M  V30 3982 C 388.209 1.0332 -2.06382 0
M  V30 3983 C 389.179 1.36082 -0.952414 0
M  V30 3984 O 390.364 1.46466 -1.2228 0
M  V30 3985 C 387.504 2.32989 -2.54578 0
M  V30 3986 C 386.617 2.0641 -3.79498 0
M  V30 3987 C 385.752 3.2993 -4.16317 0
M  V30 3988 C 384.791 2.98893 -5.34162 0
M  V30 3989 N 383.928 4.14857 -5.66426 0
M  V30 3990 H 388.768 0.609982 -2.9169 0
M  V30 3991 H 386.305 0.289573 -1.44222 0
M  V30 3992 H 388.263 3.0875 -2.80587 0
M  V30 3993 H 386.893 2.73039 -1.7219 0
M  V30 3994 H 385.945 1.21158 -3.6059 0
M  V30 3995 H 387.257 1.79513 -4.65378 0
M  V30 3996 H 386.411 4.1406 -4.4344 0
M  V30 3997 H 385.15 3.59938 -3.29083 0
M  V30 3998 H 384.155 2.13164 -5.06795 0
M  V30 3999 H 385.38 2.70165 -6.23047 0
M  V30 4000 H 383.326 4.44821 -4.82151 0
M  V30 4001 H 383.243 3.91374 -6.4681 0
M  V30 4002 H 384.511 4.99868 -5.98124 0
M  V30 4003 N 388.74 1.54641 0.303973 0
M  V30 4004 C 389.672 1.81754 1.39636 0
M  V30 4005 C 390.685 0.70035 1.46966 0
M  V30 4006 O 391.874 0.97778 1.49338 0
M  V30 4007 C 388.974 1.93785 2.7803 0
M  V30 4008 C 388.147 3.24156 2.93669 0
M  V30 4009 C 387.206 3.26641 4.12544 0
M  V30 4010 O 386.232 4.00187 4.04771 0
M  V30 4011 N 387.434 2.5182 5.23036 0
M  V30 4012 H 390.199 2.76031 1.16734 0
M  V30 4013 H 387.76 1.54178 0.494033 0
M  V30 4014 H 389.752 1.92852 3.55795 0
M  V30 4015 H 388.322 1.06515 2.93893 0
M  V30 4016 H 387.542 3.37887 2.03042 0
M  V30 4017 H 388.83 4.10195 3.01027 0
M  V30 4018 H 388.228 1.91692 5.32232 0
M  V30 4019 H 386.785 2.56644 5.99147 0
M  V30 4020 N 390.218 -0.567019 1.47046 0
M  V30 4021 C 391.181 -1.65696 1.58359 0
M  V30 4022 C 392.181 -1.54097 0.459441 0
M  V30 4023 O 393.371 -1.58432 0.724225 0
M  V30 4024 C 390.503 -3.05197 1.51879 0
M  V30 4025 H 391.696 -1.57019 2.5551 0
M  V30 4026 H 389.249 -0.786148 1.3509 0
M  V30 4027 H 389.984 -3.19417 0.560673 0
M  V30 4028 H 389.769 -3.15025 2.33455 0
M  V30 4029 H 391.259 -3.84511 1.62913 0
M  V30 4030 N 391.696 -1.35014 -0.812953 0
M  V30 4031 C 392.921 -1.31187 -1.60639 0
M  V30 4032 C 393.346 0.109382 -1.87782 0
M  V30 4033 O 392.704 1.07424 -1.46047 0
M  V30 4034 C 392.752 -2.11809 -2.91838 0
M  V30 4035 O 391.856 -1.49444 -3.8437 0
M  V30 4036 H 391.197 -0.450084 -0.488181 0
M  V30 4037 H 393.727 -1.77963 -1.00947 0
M  V30 4038 H 393.737 -2.23531 -3.41318 0
M  V30 4039 H 392.412 -3.15137 -2.71407 0
M  V30 4040 H 390.989 -1.46524 -3.42907 0
M  V30 4041 N 393.175 1.03435 -1.18907 0
M  V30 4042 C 394.085 2.15075 -0.937015 0
M  V30 4043 C 395.101 1.73706 0.101085 0
M  V30 4044 O 396.277 2.01232 -0.0822948 0
M  V30 4045 C 393.342 3.43458 -0.473057 0
M  V30 4046 C 392.403 3.99172 -1.57989 0
M  V30 4047 C 391.636 5.21427 -1.13797 0
M  V30 4048 O 391.859 5.704 0.000725941 0
M  V30 4049 O 390.793 5.69837 -1.9383 0
M  V30 4050 H 394.619 2.39198 -1.87131 0
M  V30 4051 H 392.204 1.13506 -0.971427 0
M  V30 4052 H 394.086 4.20811 -0.222702 0
M  V30 4053 H 392.761 3.20793 0.432869 0
M  V30 4054 H 391.668 3.23178 -1.88433 0
M  V30 4055 H 393.001 4.2619 -2.46217 0
M  V30 4056 N 394.653 0.992116 1.22453 0
M  V30 4057 C 395.901 0.666215 1.90804 0
M  V30 4058 C 396.222 -0.804152 1.77647 0
M  V30 4059 O 395.492 -1.57629 1.16318 0
M  V30 4060 H 394.072 0.243423 0.706225 0
M  V30 4061 H 396.734 1.25845 1.48825 0
M  V30 4062 H 395.83 0.928069 2.97982 0
M  V30 4063 N 396.131 -1.37776 0.765217 0
M  V30 4064 C 397.542 -1.82521 0.392819 0
M  V30 4065 C 397.893 -1.63789 -1.08017 0
M  V30 4066 O 397.018 -1.14542 -1.83601 0
M  V30 4067 C 397.613 -3.31358 0.706214 0
M  V30 4068 C 396.172 -3.74406 0.386952 0
M  V30 4069 C 395.319 -2.60394 0.953422 0
M  V30 4070 H 398.27 -1.2634 0.960412 0
M  V30 4071 H 398.291 -3.80498 -0.0114706 0
M  V30 4072 H 397.803 -3.44959 1.77833 0
M  V30 4073 H 395.904 -3.66377 -0.678112 0
M  V30 4074 H 396.017 -4.70749 0.890636 0
M  V30 4075 H 394.381 -2.51878 0.378064 0
M  V30 4076 H 395.164 -2.76791 2.03081 0
M  V30 4077 N 397.609 -0.515225 -1.4894 0
M  V30 4078 C 398.539 0.244628 -2.32215 0
M  V30 4079 C 399.52 0.949136 -1.41157 0
M  V30 4080 O 400.705 0.937783 -1.70057 0
M  V30 4081 C 397.835 1.30096 -3.22013 0
M  V30 4082 C 396.789 0.715486 -4.21977 0
M  V30 4083 C 396.115 1.87339 -5.00808 0
M  V30 4084 C 397.415 -0.302982 -5.2142 0
M  V30 4085 H 399.109 -0.450501 -2.95991 0
M  V30 4086 H 396.655 -0.218098 -1.42339 0
M  V30 4087 H 398.608 1.84037 -3.79089 0
M  V30 4088 H 397.332 2.02547 -2.56207 0
M  V30 4089 H 395.991 0.197715 -3.66066 0
M  V30 4090 H 395.639 2.58592 -4.31438 0
M  V30 4091 H 395.339 1.48764 -5.68457 0
M  V30 4092 H 396.863 2.41686 -5.60732 0
M  V30 4093 H 398.277 0.148802 -5.73107 0
M  V30 4094 H 396.674 -0.60532 -5.97039 0
M  V30 4095 H 397.744 -1.21395 -4.69459 0
M  V30 4096 N 399.087 1.5561 -0.249682 0
M  V30 4097 C 400.034 2.21496 0.648694 0
M  V30 4098 C 401.004 1.17977 1.16921 0
M  V30 4099 O 402.189 1.46434 1.22318 0
M  V30 4100 C 399.329 2.92039 1.83868 0
M  V30 4101 C 398.442 4.10219 1.35442 0
M  V30 4102 C 397.577 4.6847 2.50419 0
M  V30 4103 C 396.616 5.78893 1.98869 0
M  V30 4104 N 395.753 6.31315 3.07223 0
M  V30 4105 H 400.593 2.97892 0.0801582 0
M  V30 4106 H 398.13 1.47074 0.0278031 0
M  V30 4107 H 400.088 3.31138 2.53778 0
M  V30 4108 H 398.718 2.18111 2.37965 0
M  V30 4109 H 397.77 3.76413 0.54928 0
M  V30 4110 H 399.082 4.89927 0.936649 0
M  V30 4111 H 398.236 5.10158 3.28366 0
M  V30 4112 H 396.975 3.87984 2.95499 0
M  V30 4113 H 395.98 5.3668 1.19393 0
M  V30 4114 H 397.205 6.61232 1.54755 0
M  V30 4115 H 395.151 5.53733 3.51732 0
M  V30 4116 H 395.068 7.06224 2.69784 0
M  V30 4117 H 396.336 6.77662 3.8522 0
M  V30 4118 N 400.565 -0.0233959 1.57583 0
M  V30 4119 C 401.813 -0.711654 1.89156 0
M  V30 4120 C 402.134 -1.75591 0.848096 0
M  V30 4121 O 401.404 -1.95547 -0.117566 0
M  V30 4122 H 399.984 -0.265835 0.698098 0
M  V30 4123 H 402.646 0.0119948 1.94896 0
M  V30 4124 H 401.742 -1.19766 2.88206 0
M  V30 4125 N 402.043 -1.548 -0.295768 0
M  V30 4126 C 403.292 -1.73538 -1.02798 0
M  V30 4127 C 403.605 -0.531159 -1.8825 0
M  V30 4128 O 404.811 -0.600458 -2.64777 0
M  V30 4129 C 403.267 -3.07051 -1.87744 0
M  V30 4130 C 402.875 -4.34968 -1.07269 0
M  V30 4131 C 404.619 -3.35146 -2.60533 0
M  V30 4132 C 402.526 -5.5953 -1.91521 0
M  V30 4133 H 401.456 -0.646794 -0.387522 0
M  V30 4134 H 404.107 -1.81278 -0.284718 0
M  V30 4135 H 402.489 -2.93289 -2.66078 0
M  V30 4136 H 403.663 -4.5958 -0.335117 0
M  V30 4137 H 401.978 -4.13847 -0.460384 0
M  V30 4138 H 404.575 -4.2541 -3.23929 0
M  V30 4139 H 404.918 -2.54255 -3.29636 0
M  V30 4140 H 405.451 -3.49902 -1.89244 0
M  V30 4141 H 402.19 -6.43103 -1.26878 0
M  V30 4142 H 401.71 -5.39096 -2.62937 0
M  V30 4143 H 403.389 -5.96982 -2.49442 0
M  V30 4144 N 403.521 0.559213 -1.47345 0
M  V30 4145 C 404.451 1.67622 -1.62558 0
M  V30 4146 C 405.432 1.63331 -0.475087 0
M  V30 4147 O 406.617 1.80983 -0.704182 0
M  V30 4148 C 403.747 3.0626 -1.63774 0
M  V30 4149 C 402.701 3.25397 -2.7803 0
M  V30 4150 C 402.027 4.64801 -2.64318 0
M  V30 4151 C 403.327 3.10965 -4.19641 0
M  V30 4152 H 405.021 1.55146 -2.56067 0
M  V30 4153 H 402.567 0.744961 -1.23233 0
M  V30 4154 H 404.52 3.84247 -1.73008 0
M  V30 4155 H 403.244 3.1969 -0.66825 0
M  V30 4156 H 401.903 2.49817 -2.68304 0
M  V30 4157 H 401.551 4.75028 -1.65401 0
M  V30 4158 H 401.251 4.78555 -3.40968 0
M  V30 4159 H 402.775 5.44926 -2.75478 0
M  V30 4160 H 404.189 3.78772 -4.30354 0
M  V30 4161 H 402.586 3.36229 -4.97062 0
M  V30 4162 H 403.656 2.07736 -4.38148 0
M  V30 4163 N 404.999 1.35443 0.805782 0
M  V30 4164 C 406.247 1.28507 1.55982 0
M  V30 4165 C 406.568 -0.140046 1.94496 0
M  V30 4166 O 405.838 -1.07666 1.63661 0
M  V30 4167 H 404.418 0.472676 0.578434 0
M  V30 4168 H 407.08 1.69555 0.961098 0
M  V30 4169 H 406.176 1.90148 2.47488 0
M  V30 4170 N 406.477 -1.02803 1.19454 0
M  V30 4171 C 407.707 -1.79581 1.02149 0
M  V30 4172 C 408.115 -1.84182 -0.432851 0
M  V30 4173 O 407.458 -1.28534 -1.31243 0
M  V30 4174 C 407.52 -3.25993 1.51554 0
M  V30 4175 C 407.184 -3.45025 2.99678 0
M  V30 4176 C 408.181 -3.35175 3.97434 0
M  V30 4177 C 405.866 -3.71212 3.38389 0
M  V30 4178 C 407.86 -3.51238 5.31893 0
M  V30 4179 C 405.547 -3.8692 4.73008 0
M  V30 4180 C 406.545 -3.76936 5.69569 0
M  V30 4181 O 406.233 -3.92179 7.01748 0
M  V30 4182 H 405.965 -0.571962 0.360327 0
M  V30 4183 H 408.519 -1.30367 1.58725 0
M  V30 4184 H 406.749 -3.76235 0.893543 0
M  V30 4185 H 408.438 -3.84368 1.30444 0
M  V30 4186 H 409.204 -3.14895 3.68872 0
M  V30 4187 H 405.083 -3.78075 2.6378 0
M  V30 4188 H 408.627 -3.43362 6.07247 0
M  V30 4189 H 404.524 -4.06699 5.01265 0
M  V30 4190 H 405.292 -4.09265 7.08833 0
M  V30 4191 N 407.956 -0.998596 -1.21925 0
M  V30 4192 C 409.184 -0.696286 -1.94832 0
M  V30 4193 C 409.599 0.740032 -1.73692 0
M  V30 4194 O 408.956 1.5 -1.03953 0
M  V30 4195 C 409.007 -0.999833 -3.47398 0
M  V30 4196 O 408.728 -2.37972 -3.67833 0
M  V30 4197 C 410.229 -0.716025 -4.37479 0
M  V30 4198 H 407.449 -0.257111 -0.619786 0
M  V30 4199 H 409.993 -1.33491 -1.54921 0
M  V30 4200 H 408.148 -0.406918 -3.85257 0
M  V30 4201 H 408.562 -2.48338 -4.61983 0
M  V30 4202 H 410.036 -0.978642 -5.43256 0
M  V30 4203 H 410.513 0.349968 -4.37803 0
M  V30 4204 H 411.119 -1.29025 -4.05256 0
M  V30 4205 N 409.434 1.37368 -0.772513 0
M  V30 4206 C 410.344 2.34053 -0.160081 0
M  V30 4207 C 411.36 1.60216 0.678728 0
M  V30 4208 O 412.536 1.92303 0.59847 0
M  V30 4209 C 409.601 3.3939 0.708182 0
M  V30 4210 C 408.662 4.29048 -0.147172 0
M  V30 4211 C 407.895 5.29354 0.679744 0
M  V30 4212 O 408.118 5.3723 1.91678 0
M  V30 4213 O 407.052 6.01835 0.0885444 0
M  V30 4214 H 410.878 2.88159 -0.959053 0
M  V30 4215 H 408.463 1.39543 -0.533685 0
M  V30 4216 H 410.345 4.03839 1.20384 0
M  V30 4217 H 409.02 2.8761 1.48533 0
M  V30 4218 H 407.927 3.67697 -0.689205 0
M  V30 4219 H 409.26 4.84134 -0.887423 0
M  V30 4220 N 410.912 0.523116 1.48665 0
M  V30 4221 C 411.862 -0.263106 2.26477 0
M  V30 4222 C 412.846 -0.916005 1.32281 0
M  V30 4223 O 414.038 -0.819946 1.56863 0
M  V30 4224 C 411.167 -1.31361 3.17174 0
M  V30 4225 C 410.253 -0.665849 4.1884 0
M  V30 4226 N 410.644 0.244434 5.05209 0
M  V30 4227 C 408.942 -0.923863 4.36326 0
M  V30 4228 C 409.643 0.617443 5.78414 0
M  V30 4229 N 408.619 -0.0198686 5.43596 0
M  V30 4230 H 412.421 0.437295 2.90629 0
M  V30 4231 H 409.935 0.340675 1.58787 0
M  V30 4232 H 411.932 -1.89052 3.71571 0
M  V30 4233 H 410.592 -2.01546 2.54576 0
M  V30 4234 H 411.603 0.616621 5.14216 0
M  V30 4235 H 408.28 -1.6168 3.84923 0
M  V30 4236 H 409.67 1.36346 6.57921 0
M  V30 4237 N 412.39 -1.55475 0.257931 0
M  V30 4238 C 413.322 -2.19192 -0.669881 0
M  V30 4239 C 414.335 -1.17148 -1.1305 0
M  V30 4240 O 415.524 -1.43959 -1.05537 0
M  V30 4241 C 412.624 -2.79016 -1.92363 0
M  V30 4242 C 411.797 -4.06586 -1.61265 0
M  V30 4243 C 410.856 -4.50622 -2.7171 0
M  V30 4244 O 409.882 -5.16765 -2.38627 0
M  V30 4245 N 411.084 -4.19325 -4.01431 0
M  V30 4246 H 413.849 -2.99441 -0.124635 0
M  V30 4247 H 411.41 -1.6171 0.0783311 0
M  V30 4248 H 413.402 -3.05427 -2.65511 0
M  V30 4249 H 411.972 -2.0286 -2.37837 0
M  V30 4250 H 411.192 -3.87646 -0.715811 0
M  V30 4251 H 412.48 -4.89737 -1.37967 0
M  V30 4252 H 411.878 -3.66247 -4.31138 0
M  V30 4253 H 410.435 -4.50547 -4.7101 0
M  V30 4254 N 413.868 0.0150385 -1.57593 0
M  V30 4255 C 415.114 0.704043 -1.90187 0
M  V30 4256 C 415.447 1.74249 -0.857366 0
M  V30 4257 O 414.722 1.94092 0.125843 0
M  V30 4258 C 415.005 1.36087 -3.33395 0
M  V30 4259 C 414.858 0.334981 -4.48551 0
M  V30 4260 C 416.177 2.29112 -3.7576 0
M  V30 4261 H 413.296 0.254475 -0.691673 0
M  V30 4262 H 415.938 -0.0331678 -1.89971 0
M  V30 4263 H 414.088 1.98922 -3.3371 0
M  V30 4264 H 415.76 -0.292534 -4.60372 0
M  V30 4265 H 414.003 -0.344325 -4.32431 0
M  V30 4266 H 414.674 0.833316 -5.45674 0
M  V30 4267 H 417.15 1.76308 -3.76902 0
M  V30 4268 H 416.026 2.72043 -4.76743 0
M  V30 4269 H 416.287 3.16385 -3.08793 0
M  V30 4270 N 415.346 1.54954 0.287554 0
M  V30 4271 C 416.592 1.75132 1.02257 0
M  V30 4272 C 416.925 0.542858 1.86458 0
M  V30 4273 O 416.2 -0.459856 1.88986 0
M  V30 4274 C 416.483 3.04812 1.91733 0
M  V30 4275 C 416.336 4.35985 1.10622 0
M  V30 4276 C 417.655 3.30438 2.90687 0
M  V30 4277 H 414.774 0.637194 0.370341 0
M  V30 4278 H 417.416 1.87678 0.296111 0
M  V30 4279 H 415.566 2.94247 2.53675 0
M  V30 4280 H 417.238 4.58487 0.508636 0
M  V30 4281 H 415.481 4.31865 0.409271 0
M  V30 4282 H 416.152 5.23017 1.76513 0
M  V30 4283 H 418.628 3.40701 2.38877 0
M  V30 4284 H 417.504 4.22467 3.50447 0
M  V30 4285 H 417.765 2.49377 3.65053 0
M  V30 4286 N 416.824 -0.551391 1.4764 0
M  V30 4287 C 418.049 -1.33837 1.58437 0
M  V30 4288 C 418.474 -1.866 0.237063 0
M  V30 4289 O 417.832 -1.6328 -0.787994 0
M  V30 4290 C 417.88 -2.48014 2.61766 0
M  V30 4291 O 416.984 -3.50419 2.1744 0
M  V30 4292 H 416.325 -0.397299 0.532024 0
M  V30 4293 H 418.855 -0.665759 1.93465 0
M  V30 4294 H 418.865 -2.94503 2.82369 0
M  V30 4295 H 417.54 -2.08969 3.5959 0
M  V30 4296 H 416.117 -3.10196 2.06961 0
M  V30 4297 N 418.302 -1.35869 -0.798587 0
M  V30 4298 C 419.527 -1.32883 -1.59238 0
M  V30 4299 C 419.952 0.0894587 -1.87887 0
M  V30 4300 O 419.31 1.05869 -1.47178 0
M  V30 4301 C 419.358 -2.14892 -2.89575 0
M  V30 4302 O 418.462 -1.53512 -3.82763 0
M  V30 4303 H 417.803 -0.455236 -0.48338 0
M  V30 4304 H 420.333 -1.79024 -0.990539 0
M  V30 4305 H 420.343 -2.27139 -3.38928 0
M  V30 4306 H 419.018 -3.17998 -2.68049 0
M  V30 4307 H 417.595 -1.50153 -3.41334 0
M  V30 4308 N 419.78 1.02168 -1.19998 0
M  V30 4309 C 421.057 1.72816 -0.916191 0
M  V30 4310 C 421.437 2.03081 0.576325 0
M  V30 4311 O 420.785 1.69122 1.53656 0
M  V30 4312 C 420.995 2.9997 -1.78378 0
M  V30 4313 C 422.343 3.73336 -2.02251 0
M  V30 4314 O 423.367 3.09914 -1.75589 0
M  V30 4315 O 422.226 4.87371 -2.47249 0
M  V30 4316 H 419.32 0.752924 -0.342103 0
M  V30 4317 H 421.866 1.08062 -1.30846 0
M  V30 4318 H 420.638 2.73888 -2.79466 0
M  V30 4319 H 420.261 3.72464 -1.39126 0
M  V30 4320 N 421.258 1.00505 1.21394 0
M  V30 4321 C 422.505 0.687774 1.90462 0
M  V30 4322 C 422.833 -0.78147 1.7811 0
M  V30 4323 O 422.088 -1.58208 1.1519 0
M  V30 4324 C 422.387 1.0546 3.41486 0
M  V30 4325 C 422.053 2.51812 3.74034 0
M  V30 4326 C 420.715 2.91804 3.82628 0
M  V30 4327 C 423.067 3.46614 3.8924 0
M  V30 4328 C 420.395 4.2556 4.03876 0
M  V30 4329 C 422.747 4.80044 4.11995 0
M  V30 4330 C 421.411 5.19759 4.18816 0
M  V30 4331 H 420.681 0.251674 0.696951 0
M  V30 4332 H 423.328 1.26349 1.43903 0
M  V30 4333 H 421.633 0.397133 3.89782 0
M  V30 4334 H 423.33 0.786976 3.93202 0
M  V30 4335 H 419.92 2.1982 3.67936 0
M  V30 4336 H 424.104 3.16883 3.81967 0
M  V30 4337 H 419.36 4.55901 4.07387 0
M  V30 4338 H 423.534 5.53439 4.22704 0
M  V30 4339 H 421.161 6.23418 4.35033 0
M  V30 4340 N 422.737 -1.36956 0.779787 0
M  V30 4341 C 423.685 -2.32053 0.15942 0
M  V30 4342 C 424.679 -1.55333 -0.675878 0
M  V30 4343 O 425.885 -1.70668 -0.57204 0
M  V30 4344 H 422.26 -0.751286 0.0327707 0
M  V30 4345 H 424.231 -2.8195 0.977078 0
M  V30 4346 C 422.98 -3.40602 -0.698977 0
M  V30 4347 H 422.303 -3.99746 -0.0655966 0
M  V30 4348 H 423.743 -4.09486 -1.09989 0
M  V30 4349 C 422.202 -2.81359 -1.85307 0
M  V30 4350 O 422.732 -2.72751 -2.94906 0
M  V30 4351 N 420.938 -2.38786 -1.65619 0
M  V30 4352 H 420.485 -2.45987 -0.764725 0
M  V30 4353 H 420.443 -1.99493 -2.43002 0
M  V30 4354 N 424.215 -0.530993 -1.48385 0
M  V30 4355 C 425.44 0.000729535 -2.074 0
M  V30 4356 C 425.865 1.27298 -1.3848 0
M  V30 4357 O 425.223 1.75599 -0.451081 0
M  V30 4358 C 425.271 0.206697 -3.60007 0
M  V30 4359 O 424.375 1.27514 -3.92191 0
M  V30 4360 H 423.716 -0.039583 -0.662819 0
M  V30 4361 H 426.246 -0.739194 -1.9078 0
M  V30 4362 H 426.256 0.42904 -4.05738 0
M  V30 4363 H 424.931 -0.722675 -4.09573 0
M  V30 4364 H 423.508 1.03537 -3.58238 0
M  V30 4365 N 425.693 1.55336 -0.266172 0
M  V30 4366 C 426.97 1.91372 0.404486 0
M  V30 4367 C 427.35 1.18935 1.74407 0
M  V30 4368 O 426.698 0.3132 2.26343 0
M  V30 4369 C 426.908 3.44581 0.553593 0
M  V30 4370 C 428.256 4.16196 0.840618 0
M  V30 4371 O 429.28 3.50426 0.638739 0
M  V30 4372 O 428.139 5.32567 1.22618 0
M  V30 4373 H 425.233 0.797194 0.220025 0
M  V30 4374 H 427.779 1.66813 -0.311664 0
M  V30 4375 H 426.551 3.89357 -0.389498 0
M  V30 4376 H 426.174 3.75065 1.31955 0
M  V30 4377 N 427.171 -0.0066808 1.57599 0
M  V30 4378 C 428.399 -0.704087 1.94551 0
M  V30 4379 C 428.814 -1.67677 0.867746 0
M  V30 4380 O 428.171 -1.8185 -0.153925 0
M  V30 4381 C 428.222 -1.44177 3.31505 0
M  V30 4382 O 427.943 -0.508097 4.35144 0
M  V30 4383 C 429.444 -2.23429 3.82876 0
M  V30 4384 H 426.664 -0.196523 0.641576 0
M  V30 4385 H 429.208 0.042453 2.04456 0
M  V30 4386 H 427.363 -2.13999 3.22929 0
M  V30 4387 H 427.777 -1.02782 5.14331 0
M  V30 4388 H 429.251 -2.70552 4.8115 0
M  V30 4389 H 429.728 -3.05818 3.15233 0
M  V30 4390 H 430.334 -1.58636 3.94607 0
M  V30 4391 N 428.649 -1.55105 -0.279332 0
M  V30 4392 C 429.599 -1.83937 -1.34727 0
M  V30 4393 C 430.583 -0.69785 -1.44979 0
M  V30 4394 O 431.775 -0.95904 -1.48766 0
M  V30 4395 C 428.904 -2.1092 -2.70864 0
M  V30 4396 C 427.99 -3.31314 -2.64748 0
M  V30 4397 N 428.381 -4.51371 -2.2825 0
M  V30 4398 C 426.679 -3.33777 -2.95819 0
M  V30 4399 C 427.38 -5.33447 -2.31969 0
M  V30 4400 N 426.356 -4.71697 -2.7019 0
M  V30 4401 H 430.158 -2.74309 -1.05506 0
M  V30 4402 H 427.672 -1.54896 -0.487959 0
M  V30 4403 H 429.669 -2.2973 -3.47893 0
M  V30 4404 H 428.329 -1.21828 -3.00979 0
M  V30 4405 H 429.34 -4.77584 -2.00335 0
M  V30 4406 H 426.017 -2.54858 -3.30687 0
M  V30 4407 H 427.407 -6.39424 -2.06365 0
M  V30 4408 N 430.127 0.543554 -1.4793 0
M  V30 4409 C 431.352 1.32995 -1.59145 0
M  V30 4410 C 431.777 1.86472 -0.246956 0
M  V30 4411 O 431.135 1.63696 0.779324 0
M  V30 4412 C 431.183 2.46623 -2.63077 0
M  V30 4413 O 430.287 3.49261 -2.19295 0
M  V30 4414 H 429.628 0.394472 -0.534124 0
M  V30 4415 H 432.158 0.655489 -1.93816 0
M  V30 4416 H 432.168 2.93001 -2.83926 0
M  V30 4417 H 430.843 2.07059 -3.60693 0
M  V30 4418 H 429.42 3.09094 -2.08603 0
M  V30 4419 N 431.605 1.3629 0.791371 0
M  V30 4420 C 432.83 1.33726 1.58531 0
M  V30 4421 C 433.255 -0.0794933 1.87932 0
M  V30 4422 O 432.613 -1.05087 1.47738 0
M  V30 4423 C 432.661 2.16425 2.88431 0
M  V30 4424 O 431.765 1.5554 3.81944 0
M  V30 4425 H 431.106 0.457793 0.480959 0
M  V30 4426 H 433.636 1.79547 0.981031 0
M  V30 4427 H 433.646 2.28933 3.37718 0
M  V30 4428 H 432.321 3.19415 2.66359 0
M  V30 4429 H 430.898 1.51961 3.40532 0
M  V30 4430 N 433.083 -1.0153 1.20538 0
M  V30 4431 C 434.311 -1.78746 1.04199 0
M  V30 4432 C 434.726 -1.84323 -0.408733 0
M  V30 4433 O 434.083 -1.29714 -1.28377 0
M  V30 4434 C 434.134 -3.23152 1.62035 0
M  V30 4435 O 433.855 -3.17918 3.0143 0
M  V30 4436 C 435.356 -4.16911 1.50666 0
M  V30 4437 H 432.576 -0.56208 0.366479 0
M  V30 4438 H 435.12 -1.27794 1.59653 0
M  V30 4439 H 433.275 -3.71248 1.10697 0
M  V30 4440 H 433.689 -4.08567 3.28897 0
M  V30 4441 H 435.163 -5.16072 1.95892 0
M  V30 4442 H 435.64 -4.36791 0.459363 0
M  V30 4443 H 436.246 -3.74698 2.01201 0
M  V30 4444 N 434.561 -1.01147 -1.20859 0
M  V30 4445 C 435.808 -0.697865 -1.90095 0
M  V30 4446 C 436.136 0.772014 -1.78522 0
M  V30 4447 O 435.391 1.57595 -1.16027 0
M  V30 4448 C 435.69 -1.0727 -3.40922 0
M  V30 4449 C 435.356 -2.53792 -3.72693 0
M  V30 4450 C 434.018 -2.93829 -3.81075 0
M  V30 4451 C 436.37 -3.48674 -3.87397 0
M  V30 4452 C 433.698 -4.27696 -4.01613 0
M  V30 4453 C 436.05 -4.82223 -4.09444 0
M  V30 4454 C 434.714 -5.21973 -4.16054 0
M  V30 4455 H 433.984 -0.255367 -0.695607 0
M  V30 4456 H 436.631 -1.27111 -1.43231 0
M  V30 4457 H 434.936 -0.417799 -3.89566 0
M  V30 4458 H 436.633 -0.807818 -3.92779 0
M  V30 4459 H 433.223 -2.21768 -3.66765 0
M  V30 4460 H 437.407 -3.18904 -3.80281 0
M  V30 4461 H 432.663 -4.58055 -4.04964 0
M  V30 4462 H 436.837 -5.55672 -4.19763 0
M  V30 4463 H 434.464 -6.25717 -4.31721 0
M  V30 4464 N 436.039 1.36541 -0.78704 0
M  V30 4465 C 437.316 1.9355 -0.282424 0
M  V30 4466 C 437.696 1.71919 1.22503 0
M  V30 4467 O 437.044 1.07677 2.01539 0
M  V30 4468 C 437.254 3.4246 -0.672462 0
M  V30 4469 C 438.602 4.19582 -0.650863 0
M  V30 4470 O 439.626 3.50889 -0.612789 0
M  V30 4471 O 438.485 5.42106 -0.691623 0
M  V30 4472 H 435.579 0.824091 -0.0693 0
M  V30 4473 H 438.125 1.45736 -0.869423 0
M  V30 4474 H 436.897 3.51851 -1.71221 0
M  V30 4475 H 436.52 3.97556 -0.0592211 0
M  V30 4476 N 437.518 0.538854 1.48102 0
M  V30 4477 C 438.481 -0.208395 2.28251 0
M  V30 4478 C 439.481 -0.859656 1.35892 0
M  V30 4479 O 440.671 -0.71834 1.58699 0
M  V30 4480 C 437.803 -1.30252 3.15035 0
M  V30 4481 H 438.996 0.495407 2.9578 0
M  V30 4482 H 436.549 0.295112 1.53489 0
M  V30 4483 H 437.284 -2.0393 2.52157 0
M  V30 4484 H 437.069 -0.840551 3.82985 0
M  V30 4485 H 438.559 -1.82787 3.75471 0
M  V30 4486 N 438.996 -1.55193 0.274407 0
M  V30 4487 C 440.244 -1.99187 -0.341902 0
M  V30 4488 C 440.565 -1.16422 -1.56431 0
M  V30 4489 O 439.835 -0.253573 -1.94252 0
M  V30 4490 H 438.415 -0.735721 -0.129317 0
M  V30 4491 H 441.077 -1.91168 0.379578 0
M  V30 4492 H 440.173 -3.05629 -0.632253 0
M  V30 4493 N 440.474 -0.00167713 -1.576 0
M  V30 4494 C 441.437 0.974046 -2.07473 0
M  V30 4495 C 442.437 1.27143 -0.984444 0
M  V30 4496 O 443.627 1.21633 -1.24703 0
M  V30 4497 C 440.759 2.29849 -2.51759 0
M  V30 4498 H 441.952 0.54262 -2.9495 0
M  V30 4499 H 439.505 0.245829 -1.54355 0
M  V30 4500 H 440.24 2.77677 -1.67529 0
M  V30 4501 H 440.025 2.09584 -3.31386 0
M  V30 4502 H 441.515 2.9984 -2.90664 0
M  V30 4503 N 441.952 1.55251 0.271103 0
M  V30 4504 C 443.2 1.75599 1.00047 0
M  V30 4505 C 443.521 0.561188 1.8675 0
M  V30 4506 O 442.791 -0.423846 1.9126 0
M  V30 4507 H 441.371 0.647562 0.372387 0
M  V30 4508 H 444.033 1.92656 0.294876 0
M  V30 4509 H 443.129 2.65766 1.6363 0
M  V30 4510 N 443.43 -0.535701 1.48216 0
M  V30 4511 C 444.679 -1.28828 1.55197 0
M  V30 4512 C 444.992 -1.94263 0.228278 0
M  V30 4513 O 446.198 -2.70927 0.176278 0
M  V30 4514 C 444.654 -2.33727 2.73678 0
M  V30 4515 C 444.262 -1.74386 4.12666 0
M  V30 4516 C 446.006 -3.1003 2.89968 0
M  V30 4517 C 443.913 -2.77192 5.22416 0
M  V30 4518 H 442.843 -0.484484 0.577747 0
M  V30 4519 H 445.494 -0.56646 1.74538 0
M  V30 4520 H 443.876 -3.08919 2.4776 0
M  V30 4521 H 445.05 -1.05421 4.48579 0
M  V30 4522 H 443.365 -1.10595 4.01445 0
M  V30 4523 H 445.962 -3.86842 3.6913 0
M  V30 4524 H 446.305 -3.65542 1.9921 0
M  V30 4525 H 446.838 -2.41952 3.15759 0
M  V30 4526 H 443.577 -2.26507 6.15122 0
M  V30 4527 H 443.097 -3.44502 4.90998 0
M  V30 4528 H 444.776 -3.40285 5.50286 0
M  V30 4529 N 444.908 -1.36708 -0.784132 0
M  V30 4530 C 445.871 -1.31307 -1.87859 0
M  V30 4531 C 446.871 -0.219654 -1.59293 0
M  V30 4532 O 448.061 -0.47476 -1.67606 0
M  V30 4533 C 445.193 -1.03679 -3.24751 0
M  V30 4534 H 446.386 -2.28647 -1.94064 0
M  V30 4535 H 443.939 -1.21558 -0.98252 0
M  V30 4536 H 444.674 -0.0681936 -3.24228 0
M  V30 4537 H 444.459 -1.82811 -3.46876 0
M  V30 4538 H 445.949 -1.02518 -4.04821 0
M  V30 4539 N 446.386 1.0089 -1.21074 0
M  V30 4540 C 447.316 2.1145 -0.990523 0
M  V30 4541 C 448.297 1.69897 0.0831699 0
M  V30 4542 O 449.482 1.94052 -0.0758853 0
M  V30 4543 C 446.612 3.42914 -0.550177 0
M  V30 4544 C 445.566 3.98244 -1.56799 0
M  V30 4545 C 444.892 5.25568 -0.984013 0
M  V30 4546 C 446.192 4.30752 -2.95381 0
M  V30 4547 H 447.886 2.3013 -1.91521 0
M  V30 4548 H 445.432 1.10592 -0.92225 0
M  V30 4549 H 447.385 4.19653 -0.383305 0
M  V30 4550 H 446.109 3.24014 0.41015 0
M  V30 4551 H 444.768 3.23621 -1.72236 0
M  V30 4552 H 444.416 5.02998 -0.0155216 0
M  V30 4553 H 444.116 5.63551 -1.66384 0
M  V30 4554 H 445.64 6.04955 -0.828378 0
M  V30 4555 H 447.054 4.98349 -2.8341 0
M  V30 4556 H 445.451 4.79869 -3.60341 0
M  V30 4557 H 446.521 3.39192 -3.46521 0
M  V30 4558 N 447.864 1.01787 1.20321 0
M  V30 4559 C 448.812 0.58254 2.25187 0
M  V30 4560 C 449.806 -0.379359 1.65098 0
M  V30 4561 O 451.012 -0.249142 1.78267 0
M  V30 4562 H 447.387 0.170078 0.732514 0
M  V30 4563 H 449.358 1.47788 2.59232 0
M  V30 4564 C 448.107 -0.0620885 3.47645 0
M  V30 4565 H 447.43 0.669069 3.94162 0
M  V30 4566 H 448.87 -0.329784 4.22716 0
M  V30 4567 C 447.329 -1.3053 3.10586 0
M  V30 4568 O 447.859 -2.39848 3.22236 0
M  V30 4569 N 446.065 -1.18988 2.65123 0
M  V30 4570 H 445.612 -0.300341 2.55843 0
M  V30 4571 H 445.57 -2.02267 2.40698 0
M  V30 4572 N 449.342 -1.36122 0.79427 0
M  V30 4573 C 450.619 -1.93398 0.292685 0
M  V30 4574 C 450.999 -1.72567 -1.21589 0
M  V30 4575 O 450.347 -1.08745 -2.00965 0
M  V30 4576 C 450.557 -3.42099 0.690614 0
M  V30 4577 C 451.905 -4.19231 0.673105 0
M  V30 4578 O 452.929 -3.50559 0.631389 0
M  V30 4579 O 451.788 -5.41732 0.720362 0
M  V30 4580 H 448.882 -0.823712 0.0736693 0
M  V30 4581 H 451.428 -1.45273 0.87714 0
M  V30 4582 H 450.2 -3.50938 1.73085 0
M  V30 4583 H 449.823 -3.97519 0.0803036 0
M  V30 4584 N 450.82 -0.546701 -1.47814 0
M  V30 4585 C 451.77 0.227042 -2.26867 0
M  V30 4586 C 452.754 0.894844 -1.33721 0
M  V30 4587 O 453.946 0.794887 -1.58147 0
M  V30 4588 C 451.075 1.26299 -3.19223 0
M  V30 4589 C 450.161 0.59913 -4.19847 0
M  V30 4590 N 450.552 -0.324777 -5.04756 0
M  V30 4591 C 448.85 0.854331 -4.37741 0
M  V30 4592 C 449.551 -0.709386 -5.77358 0
M  V30 4593 N 448.527 -0.0666153 -5.43559 0
M  V30 4594 H 452.329 -0.483476 -2.89896 0
M  V30 4595 H 449.843 -0.365893 -1.58224 0
M  V30 4596 H 451.84 1.83116 -3.74532 0
M  V30 4597 H 450.5 1.97471 -2.57751 0
M  V30 4598 H 451.511 -0.698351 -5.1317 0
M  V30 4599 H 448.188 1.55536 -3.87447 0
M  V30 4600 H 449.578 -1.46796 -6.55668 0
M  V30 4601 N 452.299 1.55045 -0.282633 0
M  V30 4602 C 453.546 1.9976 0.33199 0
M  V30 4603 C 453.874 1.17105 1.55295 0
M  V30 4604 O 453.129 0.230599 1.94337 0
M  V30 4605 C 453.428 3.49422 0.750938 0
M  V30 4606 C 453.094 4.4941 -0.366228 0
M  V30 4607 C 451.756 4.76471 -0.672964 0
M  V30 4608 C 454.108 5.09054 -1.11864 0
M  V30 4609 C 451.436 5.60442 -1.73556 0
M  V30 4610 C 453.788 5.9418 -2.17102 0
M  V30 4611 C 452.452 6.19558 -2.48402 0
M  V30 4612 H 451.722 0.730974 0.121484 0
M  V30 4613 H 454.369 1.8732 -0.39791 0
M  V30 4614 H 452.674 3.59377 1.56063 0
M  V30 4615 H 454.371 3.81432 1.23736 0
M  V30 4616 H 450.961 4.2844 -0.117041 0
M  V30 4617 H 455.145 4.88165 -0.894925 0
M  V30 4618 H 450.401 5.78349 -1.983 0
M  V30 4619 H 454.575 6.39427 -2.75873 0
M  V30 4620 H 452.202 6.84417 -3.30874 0
M  V30 4621 N 453.777 0.010035 1.57597 0
M  V30 4622 C 455.023 -0.673697 1.91283 0
M  V30 4623 C 455.356 -1.72863 0.884979 0
M  V30 4624 O 454.631 -1.94268 -0.0949487 0
M  V30 4625 C 454.914 -1.30766 3.35518 0
M  V30 4626 C 454.767 -0.263578 4.49027 0
M  V30 4627 C 456.086 -2.23105 3.79358 0
M  V30 4628 H 453.205 -0.243439 0.695634 0
M  V30 4629 H 455.847 0.0633864 1.89894 0
M  V30 4630 H 453.997 -1.93588 3.36832 0
M  V30 4631 H 455.669 0.365738 4.59848 0
M  V30 4632 H 453.912 0.413077 4.31829 0
M  V30 4633 H 454.583 -0.746398 5.4693 0
M  V30 4634 H 457.059 -1.70289 3.79659 0
M  V30 4635 H 455.935 -2.64424 4.81011 0
M  V30 4636 H 456.196 -3.11433 3.13787 0
M  V30 4637 N 455.255 -1.55392 -0.262866 0
M  V30 4638 C 456.202 -1.88966 -1.32516 0
M  V30 4639 C 457.172 -0.742187 -1.48596 0
M  V30 4640 O 458.357 -0.99439 -1.62839 0
M  V30 4641 C 455.497 -2.17592 -2.67858 0
M  V30 4642 C 454.61 -3.45061 -2.59917 0
M  V30 4643 C 453.745 -3.63336 -3.87505 0
M  V30 4644 C 452.784 -4.84462 -3.74116 0
M  V30 4645 N 451.921 -4.99342 -4.93561 0
M  V30 4646 H 456.761 -2.79566 -1.03184 0
M  V30 4647 H 454.298 -1.38404 -0.498285 0
M  V30 4648 H 456.256 -2.3219 -3.46617 0
M  V30 4649 H 454.886 -1.30215 -2.95371 0
M  V30 4650 H 453.938 -3.38881 -1.72812 0
M  V30 4651 H 455.25 -4.3396 -2.45926 0
M  V30 4652 H 454.404 -3.77807 -4.74707 0
M  V30 4653 H 453.143 -2.72641 -4.04374 0
M  V30 4654 H 452.148 -4.69985 -2.85297 0
M  V30 4655 H 453.373 -5.76603 -3.58757 0
M  V30 4656 H 451.319 -4.1158 -5.10821 0
M  V30 4657 H 451.236 -5.82303 -4.82141 0
M  V30 4658 H 452.504 -5.18208 -5.82306 0
M  V30 4659 N 456.733 0.527833 -1.48498 0
M  V30 4660 C 457.663 1.64136 -1.66077 0
M  V30 4661 C 458.644 1.62286 -0.509625 0
M  V30 4662 O 459.829 1.79449 -0.742413 0
M  V30 4663 C 456.959 3.02717 -1.70234 0
M  V30 4664 C 455.913 3.19426 -2.8487 0
M  V30 4665 C 455.239 4.5909 -2.74118 0
M  V30 4666 C 456.539 3.01993 -4.26142 0
M  V30 4667 H 458.233 1.4968 -2.593 0
M  V30 4668 H 455.779 0.718654 -1.24785 0
M  V30 4669 H 457.732 3.80491 -1.8112 0
M  V30 4670 H 456.456 3.18201 -0.735911 0
M  V30 4671 H 455.115 2.4407 -2.73542 0
M  V30 4672 H 454.763 4.71413 -1.7544 0
M  V30 4673 H 454.463 4.71214 -3.51042 0
M  V30 4674 H 455.987 5.3896 -2.86974 0
M  V30 4675 H 457.401 3.69558 -4.38292 0
M  V30 4676 H 455.798 3.2561 -5.04082 0
M  V30 4677 H 456.868 1.98396 -4.42456 0
M  V30 4678 N 458.211 1.37122 0.776871 0
M  V30 4679 C 459.46 1.31373 1.53049 0
M  V30 4680 C 459.773 -0.101016 1.95339 0
M  V30 4681 O 460.979 -0.280953 2.70042 0
M  V30 4682 C 459.435 2.30567 2.76346 0
M  V30 4683 C 459.043 3.77543 2.41175 0
M  V30 4684 C 460.787 2.33818 3.54301 0
M  V30 4685 C 458.694 4.68481 3.60943 0
M  V30 4686 H 457.624 0.488234 0.574581 0
M  V30 4687 H 460.275 1.62554 0.851372 0
M  V30 4688 H 458.657 1.92396 3.46121 0
M  V30 4689 H 459.831 4.24521 1.79216 0
M  V30 4690 H 458.146 3.77187 1.76405 0
M  V30 4691 H 460.743 2.98965 4.4331 0
M  V30 4692 H 461.086 1.3503 3.93793 0
M  V30 4693 H 461.619 2.7067 2.91518 0
M  V30 4694 H 458.358 5.68378 3.26537 0
M  V30 4695 H 457.878 4.2621 4.22025 0
M  V30 4696 H 459.557 4.85366 4.27819 0
M  V30 4697 N 459.689 -1.00246 1.21608 0
M  V30 4698 C 460.914 -1.78167 1.06167 0
M  V30 4699 C 461.339 -1.84138 -0.384035 0
M  V30 4700 O 460.697 -1.28683 -1.27712 0
M  V30 4701 C 460.745 -3.19786 1.66642 0
M  V30 4702 O 459.849 -4.02153 0.913613 0
M  V30 4703 H 459.19 -0.549 0.37349 0
M  V30 4704 H 461.72 -1.25994 1.61204 0
M  V30 4705 H 461.73 -3.70451 1.70969 0
M  V30 4706 H 460.405 -3.14754 2.7185 0
M  V30 4707 H 458.982 -3.60711 0.945635 0
M  V30 4708 N 461.167 -1.02423 -1.1978 0
M  V30 4709 C 462.413 -0.72878 -1.89896 0
M  V30 4710 C 462.768 0.734248 -1.77839 0
M  V30 4711 O 462.061 1.52733 -1.15685 0
M  V30 4712 C 462.255 -1.1088 -3.39765 0
M  V30 4713 C 462.084 -2.60722 -3.66407 0
M  V30 4714 C 460.854 -3.27623 -3.84696 0
M  V30 4715 C 463.052 -3.58924 -3.68345 0
M  V30 4716 N 461.034 -4.66617 -3.98926 0
M  V30 4717 C 462.405 -4.83514 -3.8809 0
M  V30 4718 C 464.46 -3.52788 -3.51347 0
M  V30 4719 C 463.163 -6.0271 -3.92598 0
M  V30 4720 C 465.189 -4.71394 -3.5713 0
M  V30 4721 C 464.551 -5.94796 -3.77356 0
M  V30 4722 H 460.65 -0.318473 -0.714212 0
M  V30 4723 H 463.234 -1.3106 -1.43984 0
M  V30 4724 H 461.405 -0.555233 -3.84411 0
M  V30 4725 H 463.137 -0.766082 -3.97383 0
M  V30 4726 H 459.892 -2.7804 -3.83393 0
M  V30 4727 H 460.316 -5.38805 -4.099 0
M  V30 4728 H 464.958 -2.58372 -3.3467 0
M  V30 4729 H 462.676 -6.97499 -4.08069 0
M  V30 4730 H 466.262 -4.6827 -3.45275 0
M  V30 4731 H 465.142 -6.85037 -3.81699 0
M  V30 4732 N 462.645 1.35699 -0.801477 0
M  V30 4733 C 463.875 2.02862 -0.3912 0
M  V30 4734 C 464.283 1.60552 1.00099 0
M  V30 4735 O 463.626 0.796215 1.65548 0
M  V30 4736 C 463.688 3.57386 -0.389299 0
M  V30 4737 C 463.352 4.22943 -1.73113 0
M  V30 4738 C 464.349 4.44984 -2.68859 0
M  V30 4739 C 462.034 4.60167 -2.01373 0
M  V30 4740 C 464.028 5.03345 -3.91053 0
M  V30 4741 C 461.715 5.18243 -3.23832 0
M  V30 4742 C 462.713 5.39773 -4.1849 0
M  V30 4743 O 462.401 5.96626 -5.38788 0
M  V30 4744 H 462.133 0.657341 -0.157732 0
M  V30 4745 H 464.687 1.74407 -1.08496 0
M  V30 4746 H 462.917 3.85011 0.361031 0
M  V30 4747 H 464.606 4.059 -0.0020365 0
M  V30 4748 H 465.372 4.1661 -2.48316 0
M  V30 4749 H 461.251 4.42726 -1.28508 0
M  V30 4750 H 464.795 5.20065 -4.64949 0
M  V30 4751 H 460.692 5.46044 -3.44248 0
M  V30 4752 H 461.46 6.15082 -5.40015 0
M  V30 4753 N 464.123 0.554532 1.47522 0
M  V30 4754 C 465.4 -0.0360704 1.95567 0
M  V30 4755 C 465.78 -1.48828 1.49711 0
M  V30 4756 O 465.128 -2.16366 0.734717 0
M  V30 4757 C 465.338 0.106631 3.48837 0
M  V30 4758 C 466.686 -0.0400899 4.24581 0
M  V30 4759 O 467.71 0.0340453 3.56184 0
M  V30 4760 O 466.569 -0.199111 5.46137 0
M  V30 4761 H 463.663 -0.0656294 0.824392 0
M  V30 4762 H 466.209 0.620867 1.57935 0
M  V30 4763 H 464.981 1.11727 3.7501 0
M  V30 4764 H 464.604 -0.58804 3.93227 0
M  V30 4765 N 465.601 -1.54893 0.290851 0
M  V30 4766 C 466.549 -2.24579 -0.605576 0
M  V30 4767 C 467.543 -1.24824 -1.14522 0
M  V30 4768 O 468.749 -1.42706 -1.09704 0
M  V30 4769 H 465.124 -0.720946 -0.213872 0
M  V30 4770 H 467.095 -2.984 0.0048173 0
M  V30 4771 C 465.844 -2.99224 -1.77088 0
M  V30 4772 H 465.167 -3.75782 -1.36484 0
M  V30 4773 H 466.607 -3.51281 -2.3744 0
M  V30 4774 C 465.066 -2.05602 -2.66888 0
M  V30 4775 O 465.596 -1.61745 -3.67698 0
M  V30 4776 N 463.802 -1.71771 -2.34399 0
M  V30 4777 H 463.349 -2.07633 -1.52468 0
M  V30 4778 H 463.307 -1.09403 -2.94751 0
M  V30 4779 N 467.08 -0.0183926 -1.57589 0
M  V30 4780 C 467.99 0.982943 -2.13015 0
M  V30 4781 C 469.006 1.36443 -1.07979 0
M  V30 4782 O 470.182 1.44802 -1.3998 0
M  V30 4783 C 467.247 2.25024 -2.63752 0
M  V30 4784 C 466.308 1.93018 -3.83461 0
M  V30 4785 C 465.541 3.13706 -4.31769 0
M  V30 4786 O 465.764 4.2601 -3.79305 0
M  V30 4787 O 464.698 2.96629 -5.23732 0
M  V30 4788 H 468.524 0.541709 -2.9883 0
M  V30 4789 H 466.109 0.201565 -1.48034 0
M  V30 4790 H 467.991 2.99441 -2.96502 0
M  V30 4791 H 466.666 2.68349 -1.81026 0
M  V30 4792 H 465.573 1.16019 -3.55655 0
M  V30 4793 H 466.906 1.54516 -4.67317 0
M  V30 4794 N 468.558 1.5553 0.254621 0
M  V30 4795 C 469.805 1.77 0.983736 0
M  V30 4796 C 470.133 0.58133 1.85609 0
M  V30 4797 O 469.388 -0.435621 1.9079 0
M  V30 4798 C 469.687 3.03891 1.88109 0
M  V30 4799 C 469.353 4.35597 1.16472 0
M  V30 4800 C 468.015 4.7139 0.966714 0
M  V30 4801 C 470.367 5.1705 0.656387 0
M  V30 4802 C 467.695 5.86176 0.247942 0
M  V30 4803 C 470.047 6.32581 -0.0488807 0
M  V30 4804 C 468.711 6.67 -0.258438 0
M  V30 4805 H 467.981 0.647688 0.359974 0
M  V30 4806 H 470.628 1.89802 0.254463 0
M  V30 4807 H 468.933 2.86068 2.67717 0
M  V30 4808 H 470.63 3.17701 2.44677 0
M  V30 4809 H 467.22 4.07475 1.32899 0
M  V30 4810 H 471.404 4.8986 0.796933 0
M  V30 4811 H 466.66 6.11354 0.075035 0
M  V30 4812 H 470.834 6.94942 -0.450444 0
M  V30 4813 H 468.461 7.55793 -0.817358 0
M  V30 4814 N 470.036 -0.519951 1.48776 0
M  V30 4815 C 471.284 -1.2727 1.56993 0
M  V30 4816 C 471.605 -1.9339 0.25004 0
M  V30 4817 O 470.875 -1.81822 -0.729216 0
M  V30 4818 H 469.455 -0.472732 0.578389 0
M  V30 4819 H 472.117 -0.604234 1.85297 0
M  V30 4820 H 471.213 -2.04669 2.3562 0
M  V30 4821 N 471.514 -1.37532 -0.769588 0
M  V30 4822 C 472.744 -1.35861 -1.55645 0
M  V30 4823 C 473.152 0.0574398 -1.89113 0
M  V30 4824 O 472.495 1.03021 -1.52093 0
M  V30 4825 C 472.557 -2.13431 -2.89288 0
M  V30 4826 C 472.221 -3.62378 -2.78444 0
M  V30 4827 C 473.218 -4.56215 -2.49326 0
M  V30 4828 C 470.903 -4.05529 -2.96398 0
M  V30 4829 C 472.897 -5.91181 -2.38294 0
M  V30 4830 C 470.584 -5.40579 -2.84987 0
M  V30 4831 C 471.582 -6.33218 -2.55975 0
M  V30 4832 O 471.27 -7.65787 -2.44594 0
M  V30 4833 H 471.002 -0.467001 -0.48876 0
M  V30 4834 H 473.556 -1.81505 -0.961515 0
M  V30 4835 H 471.786 -1.62481 -3.50909 0
M  V30 4836 H 473.475 -2.04368 -3.50697 0
M  V30 4837 H 474.241 -4.24187 -2.35139 0
M  V30 4838 H 470.12 -3.33781 -3.1798 0
M  V30 4839 H 473.664 -6.63457 -2.15571 0
M  V30 4840 H 469.561 -5.72209 -2.98743 0
M  V30 4841 H 470.329 -7.76132 -2.59927 0
M  V30 4842 N 472.992 0.995999 -1.22138 0
M  V30 4843 C 474.217 1.77601 -1.0711 0
M  V30 4844 C 474.642 1.84339 0.374264 0
M  V30 4845 O 474 1.29359 1.27028 0
M  V30 4846 C 474.048 3.18897 -1.68336 0
M  V30 4847 O 473.152 4.01663 -0.934928 0
M  V30 4848 H 472.493 0.547011 -0.376397 0
M  V30 4849 H 475.023 1.25137 -1.6187 0
M  V30 4850 H 475.033 3.69539 -1.72931 0
M  V30 4851 H 473.708 3.13308 -2.73516 0
M  V30 4852 H 472.285 3.60204 -0.964751 0
M  V30 4853 N 474.47 1.03057 1.19235 0
M  V30 4854 C 475.418 0.606391 2.24557 0
M  V30 4855 C 476.412 -0.361826 1.65491 0
M  V30 4856 O 477.618 -0.23022 1.78522 0
M  V30 4857 H 473.993 0.177838 0.730669 0
M  V30 4858 H 475.964 1.50529 2.5765 0
M  V30 4859 C 474.713 -0.0252127 3.47691 0
M  V30 4860 H 474.036 0.710838 3.9343 0
M  V30 4861 H 475.476 -0.284931 4.23042 0
M  V30 4862 C 473.935 -1.27229 3.11953 0
M  V30 4863 O 474.465 -2.36416 3.24762 0
M  V30 4864 N 472.671 -1.16169 2.6637 0
M  V30 4865 H 472.218 -0.273189 2.56147 0
M  V30 4866 H 472.176 -1.99703 2.42829 0
M  V30 4867 N 475.948 -1.35272 0.808662 0
M  V30 4868 C 477.364 -1.51806 0.492653 0
M  V30 4869 C 477.564 -1.7574 -0.985778 0
M  V30 4870 O 476.62 -1.80003 -1.77074 0
M  V30 4871 C 477.933 -2.69202 1.33981 0
M  V30 4872 C 479.481 -2.8308 1.33547 0
M  V30 4873 C 479.956 -4.03502 2.16679 0
M  V30 4874 N 481.447 -4.10684 2.14227 0
M  V30 4875 C 482.182 -5.02984 2.75308 0
M  V30 4876 N 481.678 -6.00603 3.45323 0
M  V30 4877 N 483.471 -4.95746 2.64938 0
M  V30 4878 H 475.622 -1.17993 1.76611 0
M  V30 4879 H 477.885 -0.577476 0.751814 0
M  V30 4880 H 477.591 -2.581 2.38909 0
M  V30 4881 H 477.465 -3.63854 0.994491 0
M  V30 4882 H 479.852 -2.93631 0.294036 0
M  V30 4883 H 479.933 -1.89278 1.72068 0
M  V30 4884 H 479.577 -3.93711 3.20864 0
M  V30 4885 H 479.507 -4.96489 1.75517 0
M  V30 4886 H 481.998 -3.40802 1.63285 0
M  V30 4887 H 482.311 -6.67633 3.89212 0
M  V30 4888 H 480.656 -6.0077 3.49428 0
M  V30 4889 H 483.847 -4.18439 2.09825 0
M  V30 4890 H 484.02 -5.67487 3.12829 0
M  V30 4891 N 477.426 -0.562348 -1.47226 0
M  V30 4892 C 478.672 -0.0402761 -2.0276 0
M  V30 4893 C 479.005 1.30823 -1.43523 0
M  V30 4894 O 478.28 1.85249 -0.592705 0
M  V30 4895 C 478.563 0.047311 -3.60069 0
M  V30 4896 C 478.416 -1.32865 -4.29729 0
M  V30 4897 C 479.735 0.758182 -4.3352 0
M  V30 4898 H 476.854 -0.0161105 -0.736824 0
M  V30 4899 H 479.496 -0.725628 -1.75598 0
M  V30 4900 H 477.646 0.630986 -3.83342 0
M  V30 4901 H 479.318 -1.95593 -4.17781 0
M  V30 4902 H 477.561 -1.90195 -3.89882 0
M  V30 4903 H 478.232 -1.22004 -5.38349 0
M  V30 4904 H 480.708 0.262546 -4.15271 0
M  V30 4905 H 479.584 0.78844 -5.43208 0
M  V30 4906 H 479.845 1.81537 -4.03109 0
M  V30 4907 N 478.904 1.54736 -0.299062 0
M  V30 4908 C 480.15 2.00397 0.311244 0
M  V30 4909 C 480.483 1.18716 1.53688 0
M  V30 4910 O 479.758 0.263154 1.92712 0
M  V30 4911 C 480.041 3.53817 0.669761 0
M  V30 4912 C 479.894 4.46239 -0.564882 0
M  V30 4913 C 481.213 4.13856 1.49702 0
M  V30 4914 H 478.332 0.728493 0.111653 0
M  V30 4915 H 480.974 1.85506 -0.410774 0
M  V30 4916 H 479.124 3.66637 1.28491 0
M  V30 4917 H 480.796 4.45328 -1.20337 0
M  V30 4918 H 479.039 4.16916 -1.19849 0
M  V30 4919 H 479.71 5.5134 -0.269918 0
M  V30 4920 H 482.186 4.04461 0.977284 0
M  V30 4921 H 481.062 5.21365 1.71666 0
M  V30 4922 H 481.323 3.65608 2.48563 0
M  V30 4923 N 480.382 0.0267497 1.57577 0
M  V30 4924 C 481.659 -0.690926 1.82991 0
M  V30 4925 C 482.039 -1.90471 0.910164 0
M  V30 4926 O 481.387 -2.28474 -0.0347985 0
M  V30 4927 C 481.597 -1.07139 3.32148 0
M  V30 4928 C 482.945 -1.46402 3.98562 0
M  V30 4929 O 483.969 -1.16443 3.36629 0
M  V30 4930 O 482.828 -2.02214 5.07712 0
M  V30 4931 H 479.922 -0.338747 0.75444 0
M  V30 4932 H 482.468 0.0542506 1.69613 0
M  V30 4933 H 481.24 -0.207394 3.9075 0
M  V30 4934 H 480.863 -1.87481 3.50623 0
M  V30 4935 N 481.861 -1.55662 -0.24637 0
M  V30 4936 C 482.791 -1.93377 -1.30873 0
M  V30 4937 C 483.772 -0.798773 -1.50179 0
M  V30 4938 O 484.957 -1.0591 -1.62778 0
M  V30 4939 C 482.087 -2.22893 -2.66338 0
M  V30 4940 C 481.041 -3.38649 -2.61727 0
M  V30 4941 C 480.367 -3.53708 -4.00992 0
M  V30 4942 C 481.667 -4.74323 -2.18666 0
M  V30 4943 H 483.361 -2.82363 -0.995552 0
M  V30 4944 H 480.907 -1.35854 -0.477464 0
M  V30 4945 H 482.86 -2.47866 -3.40794 0
M  V30 4946 H 481.584 -1.30733 -2.99293 0
M  V30 4947 H 480.243 -3.13685 -1.89729 0
M  V30 4948 H 479.891 -2.58967 -4.31214 0
M  V30 4949 H 479.591 -4.31551 -3.98795 0
M  V30 4950 H 481.115 -3.81003 -4.77147 0
M  V30 4951 H 482.529 -4.98665 -2.82854 0
M  V30 4952 H 480.926 -5.55273 -2.27579 0
M  V30 4953 H 481.996 -4.71349 -1.13834 0
M  V30 4954 N 483.339 0.512053 -1.4905 0
M  V30 4955 C 484.272 1.63209 -1.59493 0
M  V30 4956 C 485.25 1.56407 -0.444481 0
M  V30 4957 O 486.434 1.76623 -0.658535 0
M  V30 4958 C 483.561 3.01685 -1.53961 0
M  V30 4959 C 482.607 3.26786 -2.74068 0
M  V30 4960 S 483.44 3.11107 -4.35859 0
M  V30 4961 C 484.596 4.51997 -4.32954 0
M  V30 4962 H 484.829 1.54104 -2.54243 0
M  V30 4963 H 482.362 0.696382 -1.37804 0
M  V30 4964 H 484.32 3.81538 -1.51455 0
M  V30 4965 H 482.981 3.08215 -0.605178 0
M  V30 4966 H 482.174 4.27849 -2.66386 0
M  V30 4967 H 481.776 2.54635 -2.73928 0
M  V30 4968 H 484.068 5.43871 -4.03993 0
M  V30 4969 H 485.011 4.64731 -5.34257 0
M  V30 4970 H 485.419 4.32159 -3.63178 0
M  V30 4971 N 484.817 1.37938 0.762283 0
M  V30 4972 C 485.78 1.34279 1.85747 0
M  V30 4973 C 486.78 0.244969 1.58923 0
M  V30 4974 O 487.97 0.501365 1.66829 0
M  V30 4975 C 485.102 1.08833 3.23061 0
M  V30 4976 H 486.295 2.31705 1.90401 0
M  V30 4977 H 483.848 1.23105 0.963057 0
M  V30 4978 H 484.583 0.119767 3.24079 0
M  V30 4979 H 484.368 1.88306 3.43923 0
M  V30 4980 H 485.858 1.08946 4.03138 0
M  V30 4981 N 486.295 -0.989507 1.22664 0
M  V30 4982 C 487.245 -2.06478 0.967005 0
M  V30 4983 C 488.229 -1.60682 -0.0836374 0
M  V30 4984 O 489.421 -1.76541 0.127322 0
M  V30 4985 C 486.55 -3.38861 0.550313 0
M  V30 4986 C 485.636 -3.9128 1.63587 0
M  V30 4987 N 486.027 -4.16884 2.86429 0
M  V30 4988 C 484.325 -4.1972 1.50834 0
M  V30 4989 C 485.026 -4.5954 3.56648 0
M  V30 4990 N 484.002 -4.63434 2.84131 0
M  V30 4991 H 487.804 -2.24219 1.90008 0
M  V30 4992 H 485.318 -1.17153 1.12467 0
M  V30 4993 H 487.315 -4.15465 0.345612 0
M  V30 4994 H 485.975 -3.22518 -0.375822 0
M  V30 4995 H 486.986 -4.04976 3.22823 0
M  V30 4996 H 483.663 -4.1243 0.648643 0
M  V30 4997 H 485.053 -4.87944 4.61909 0
M  V30 4998 N 487.773 -1.03688 -1.18687 0
M  V30 4999 C 488.706 -0.569112 -2.2099 0
M  V30 5000 C 489.684 0.394315 -1.57746 0
M  V30 5001 O 490.868 0.309519 -1.85941 0
M  V30 5002 C 487.995 0.169104 -3.38278 0
M  V30 5003 C 487.041 -0.746989 -4.19908 0
M  V30 5004 S 487.874 -2.22773 -4.86963 0
M  V30 5005 C 489.03 -1.50025 -6.07654 0
M  V30 5006 H 489.263 -1.43589 -2.60326 0
M  V30 5007 H 486.796 -0.847507 -1.29061 0
M  V30 5008 H 488.754 0.588868 -4.06254 0
M  V30 5009 H 487.415 1.01172 -2.9736 0
M  V30 5010 H 486.608 -0.176626 -5.0369 0
M  V30 5011 H 486.21 -1.10543 -3.5729 0
M  V30 5012 H 488.502 -0.791217 -6.72864 0
M  V30 5013 H 489.445 -2.31498 -6.69189 0
M  V30 5014 H 489.853 -0.994245 -5.55675 0
M  V30 5015 N 489.251 1.34841 -0.815825 0
M  V30 5016 C 490.214 2.27959 -0.238185 0
M  V30 5017 C 491.214 1.49983 0.579816 0
M  V30 5018 O 492.404 1.69617 0.396953 0
M  V30 5019 C 489.536 3.34314 0.666876 0
M  V30 5020 H 490.729 2.80558 -1.05958 0
M  V30 5021 H 488.282 1.44852 -0.587156 0
M  V30 5022 H 489.017 2.86916 1.5116 0
M  V30 5023 H 488.802 3.92014 0.0819106 0
M  V30 5024 H 490.292 4.0379 1.06506 0
M  V30 5025 N 490.729 0.570148 1.46925 0
M  V30 5026 C 491.954 0.0542592 2.07329 0
M  V30 5027 C 492.379 -1.23582 1.41806 0
M  V30 5028 O 491.737 -1.74341 0.497479 0
M  V30 5029 C 491.785 -0.111175 3.60429 0
M  V30 5030 O 490.889 -1.17071 3.95434 0
M  V30 5031 H 490.23 0.0571425 0.661537 0
M  V30 5032 H 492.76 0.789516 1.88753 0
M  V30 5033 H 492.77 -0.321315 4.06733 0
M  V30 5034 H 491.445 0.831012 4.07513 0
M  V30 5035 H 490.022 -0.940029 3.60857 0
M  V30 5036 N 492.207 -1.54576 0.307264 0
M  V30 5037 C 493.154 -2.23751 -0.56604 0
M  V30 5038 C 494.124 -1.22235 -1.12462 0
M  V30 5039 O 495.309 -1.50873 -1.16799 0
M  V30 5040 C 492.449 -2.98661 -1.72903 0
M  V30 5041 C 491.562 -4.14963 -1.20124 0
M  V30 5042 C 490.697 -4.77441 -2.3286 0
M  V30 5043 C 489.736 -5.85875 -1.77247 0
M  V30 5044 N 488.873 -6.42282 -2.8358 0
M  V30 5045 H 493.713 -2.97984 0.0304578 0
M  V30 5046 H 491.25 -1.47076 0.0268015 0
M  V30 5047 H 493.208 -3.40329 -2.41313 0
M  V30 5048 H 491.838 -2.26793 -2.29706 0
M  V30 5049 H 490.89 -3.78193 -0.409198 0
M  V30 5050 H 492.202 -4.93066 -0.754171 0
M  V30 5051 H 491.356 -5.21993 -3.09205 0
M  V30 5052 H 490.095 -3.98684 -2.80896 0
M  V30 5053 H 489.1 -5.40741 -0.993926 0
M  V30 5054 H 490.325 -6.6652 -1.30107 0
M  V30 5055 H 488.271 -5.66406 -3.30939 0
M  V30 5056 H 488.188 -7.1575 -2.43388 0
M  V30 5057 H 489.456 -6.91492 -3.59804 0
M  V30 5058 N 493.685 -0.035106 -1.57561 0
M  V30 5059 C 494.595 0.960295 -2.14046 0
M  V30 5060 C 495.611 1.3529 -1.0942 0
M  V30 5061 O 496.787 1.43309 -1.41508 0
M  V30 5062 C 493.852 2.22214 -2.66124 0
M  V30 5063 C 492.913 1.8894 -3.85487 0
M  V30 5064 C 492.146 3.09109 -4.35072 0
M  V30 5065 O 492.369 4.21963 -3.83802 0
M  V30 5066 O 491.303 2.91058 -5.26848 0
M  V30 5067 H 495.129 0.509983 -2.99387 0
M  V30 5068 H 492.714 0.185853 -1.48239 0
M  V30 5069 H 494.596 2.96279 -2.99661 0
M  V30 5070 H 493.271 2.66414 -1.83862 0
M  V30 5071 H 492.178 1.12241 -3.56865 0
M  V30 5072 H 493.511 1.49551 -4.6893 0
M  V30 5073 O 495.202 1.61149 0.106394 0
M  V30 5074 H 495.893 1.7916 0.736293 0
M  V30 END ATOM
M  V30 BEGIN BOND
M  V30 END BOND
M  V30 END CTAB
M  END
$$$$
