drugbank_target|P00909 Tryptophan biosynthesis protein TrpCF (DB03543)
 OpenBabel12092119563D

  0  0  0     0  0            999 V3000
M  V30 BEGIN CTAB
M  V30 COUNTS 6955 7017 0 0 0
M  V30 BEGIN ATOM
M  V30 1 H -0.908 1.98254 -0.117106 0
M  V30 2 N 0 1.576 0 0
M  V30 3 C 0.933 2.03868 1.02534 0
M  V30 4 C 1.911 0.928543 1.3348 0
M  V30 5 O 3.095 1.19667 1.45644 0
M  V30 6 C 0.222 2.43627 2.35294 0
M  V30 7 C -0.732 3.65373 2.2001 0
M  V30 8 S 0.101 5.13292 1.52614 0
M  V30 9 C 1.257 5.56322 2.86805 0
M  V30 10 H 1.49 2.90518 0.631377 0
M  V30 11 H -0.977 1.52953 0.210867 0
M  V30 12 H 0.981 2.67203 3.11629 0
M  V30 13 H -0.358 1.57376 2.7183 0
M  V30 14 H -1.165 3.90944 3.18086 0
M  V30 15 H -1.563 3.418 1.51819 0
M  V30 16 H 0.729 5.58782 3.83104 0
M  V30 17 H 1.672 6.56266 2.65933 0
M  V30 18 H 2.08 4.83886 2.90714 0
M  V30 19 N 1.4781 -0.272755 1.55222 0
M  V30 20 C 2.4111 -1.3627 1.83046 0
M  V30 21 C 3.3891 -1.47536 0.683521 0
M  V30 22 O 4.5731 -1.64157 0.926545 0
M  V30 23 C 1.7001 -2.73908 1.99229 0
M  V30 24 C 0.7461 -2.79925 3.21783 0
M  V30 25 S 1.5791 -2.39146 4.79134 0
M  V30 26 C 2.7351 -3.78758 4.9829 0
M  V30 27 H 2.9681 -1.12464 2.75207 0
M  V30 28 H 0.5011 -0.472398 1.46996 0
M  V30 29 H 2.4591 -3.53171 2.09238 0
M  V30 30 H 1.1201 -2.94965 1.07956 0
M  V30 31 H 0.3131 -3.80946 3.29994 0
M  V30 32 H -0.0849 -2.08683 3.10367 0
M  V30 33 H 2.2071 -4.7403 4.84047 0
M  V30 34 H 3.1501 -3.75499 6.00338 0
M  V30 35 H 3.5581 -3.70072 4.26271 0
M  V30 36 N 2.9562 -1.48159 -0.537278 0
M  V30 37 C 3.8882 -1.58218 -1.65831 0
M  V30 38 C 4.9012 -0.466948 -1.5596 0
M  V30 39 O 6.0902 -0.73747 -1.62553 0
M  V30 40 C 3.1902 -1.48906 -3.04434 0
M  V30 41 C 2.3632 -2.75343 -3.3986 0
M  V30 42 C 1.4222 -2.59588 -4.57712 0
M  V30 43 O 0.4482 -3.33457 -4.61297 0
M  V30 44 N 1.6502 -1.68724 -5.55439 0
M  V30 45 H 4.4152 -2.54891 -1.57641 0
M  V30 46 H 1.9762 -1.4479 -0.724386 0
M  V30 47 H 3.9682 -1.36072 -3.81139 0
M  V30 48 H 2.5382 -0.602368 -3.06741 0
M  V30 49 H 1.7582 -3.02795 -2.52406 0
M  V30 50 H 3.0462 -3.5924 -3.60311 0
M  V30 51 H 2.4442 -1.07898 -5.55315 0
M  V30 52 H 1.0012 -1.61832 -6.3139 0
M  V30 53 N 4.4343 0.785586 -1.36625 0
M  V30 54 C 5.6623 1.57448 -1.3423 0
M  V30 55 C 6.0773 1.88649 0.0755653 0
M  V30 56 O 5.4343 1.50414 1.03354 0
M  V30 57 C 5.4853 2.89316 -2.16745 0
M  V30 58 O 5.2063 2.59459 -3.53005 0
M  V30 59 C 6.7073 3.83606 -2.22174 0
M  V30 60 H 3.9273 0.488226 -0.4603 0
M  V30 61 H 6.4713 0.974733 -1.79775 0
M  V30 62 H 4.6263 3.4575 -1.74745 0
M  V30 63 H 5.0403 3.43804 -3.96105 0
M  V30 64 H 6.5143 4.73181 -2.8426 0
M  V30 65 H 6.9913 4.21734 -1.22627 0
M  V30 66 H 7.5973 3.33104 -2.64427 0
M  V30 67 N 5.9124 1.20967 1.01018 0
M  V30 68 C 7.1584 1.02526 1.74975 0
M  V30 69 C 7.4914 -0.4408 1.89131 0
M  V30 70 O 6.7664 -1.32718 1.42184 0
M  V30 71 C 7.0494 1.71699 3.1653 0
M  V30 72 C 6.9024 3.25791 3.10129 0
M  V30 73 C 8.2214 1.45531 4.15342 0
M  V30 74 H 5.3404 0.373863 0.635134 0
M  V30 75 H 7.9824 1.49071 1.17805 0
M  V30 76 H 6.1324 1.32128 3.65341 0
M  V30 77 H 7.8044 3.74697 2.69072 0
M  V30 78 H 6.0474 3.56363 2.47362 0
M  V30 79 H 6.7184 3.69353 4.10222 0
M  V30 80 H 9.1944 1.79872 3.75213 0
M  V30 81 H 8.0704 1.96453 5.1254 0
M  V30 82 H 8.3314 0.384237 4.40427 0
M  V30 83 N 7.3905 -1.2043 1.01659 0
M  V30 84 C 8.3205 -2.25466 0.607226 0
M  V30 85 C 9.3015 -1.65853 -0.377716 0
M  V30 86 O 10.4865 -1.92409 -0.263149 0
M  V30 87 C 7.6165 -3.47256 -0.0552949 0
M  V30 88 C 6.5705 -4.19462 0.850632 0
M  V30 89 C 5.8965 -5.34673 0.0538859 0
M  V30 90 C 7.1965 -4.75603 2.15868 0
M  V30 91 H 8.8905 -2.59962 1.48526 0
M  V30 92 H 6.4365 -1.2496 0.715605 0
M  V30 93 H 8.3895 -4.19917 -0.353233 0
M  V30 94 H 7.1135 -3.11924 -0.968045 0
M  V30 95 H 5.7725 -3.48667 1.13257 0
M  V30 96 H 5.4205 -4.95585 -0.860514 0
M  V30 97 H 5.1205 -5.83913 0.657192 0
M  V30 98 H 6.6445 -6.10138 -0.237598 0
M  V30 99 H 8.0585 -5.40083 1.92311 0
M  V30 100 H 6.4555 -5.3528 2.71284 0
M  V30 101 H 7.5255 -3.94346 2.82169 0
M  V30 102 N 8.8686 -0.792821 -1.36206 0
M  V30 103 C 9.8316 -0.199459 -2.2833 0
M  V30 104 C 10.8316 0.605189 -1.48977 0
M  V30 105 O 12.0216 0.425685 -1.68919 0
M  V30 106 C 9.1536 0.723523 -3.33134 0
M  V30 107 H 10.3466 -1.01181 -2.82316 0
M  V30 108 H 7.8996 -0.562485 -1.45828 0
M  V30 109 H 8.6346 1.56008 -2.84309 0
M  V30 110 H 8.4196 0.148436 -3.91819 0
M  V30 111 H 9.9096 1.13344 -4.01924 0
M  V30 112 N 10.3467 1.47872 -0.545128 0
M  V30 113 C 11.2937 2.29849 0.2093 0
M  V30 114 C 12.2637 1.38313 0.919707 0
M  V30 115 O 13.4487 1.67277 0.917772 0
M  V30 116 C 10.5887 3.22019 1.24088 0
M  V30 117 C 9.7017 4.2864 0.537778 0
M  V30 118 C 8.8367 5.07973 1.5536 0
M  V30 119 C 7.8757 6.06381 0.8348 0
M  V30 120 N 7.0127 6.78717 1.79688 0
M  V30 121 H 11.8527 2.93845 -0.49591 0
M  V30 122 H 9.3897 1.44848 -0.256389 0
M  V30 123 H 11.3477 3.73868 1.85144 0
M  V30 124 H 9.9777 2.59914 1.91428 0
M  V30 125 H 9.0297 3.7994 -0.187046 0
M  V30 126 H 10.3417 4.98793 -0.0258907 0
M  V30 127 H 9.4957 5.63912 2.23803 0
M  V30 128 H 8.2347 4.37693 2.15118 0
M  V30 129 H 7.2397 5.49631 0.136388 0
M  V30 130 H 8.4647 6.78665 0.24313 0
M  V30 131 H 6.4107 6.11177 2.38326 0
M  V30 132 H 6.3277 7.44998 1.28505 0
M  V30 133 H 7.5957 7.39237 2.47282 0
M  V30 134 N 11.8248 0.280983 1.55075 0
M  V30 135 C 13.0738 -0.334784 1.98902 0
M  V30 136 C 13.3868 -1.56534 1.17288 0
M  V30 137 O 14.5928 -2.25443 1.51287 0
M  V30 138 C 13.0488 -0.646994 3.54037 0
M  V30 139 C 12.6568 0.564085 4.44435 0
M  V30 140 C 14.4008 -1.22506 4.06439 0
M  V30 141 C 12.3078 0.226137 5.90967 0
M  V30 142 H 11.2378 -0.128866 0.742906 0
M  V30 143 H 13.8888 0.386556 1.79382 0
M  V30 144 H 12.2708 -1.42739 3.6938 0
M  V30 145 H 13.4448 1.34082 4.40861 0
M  V30 146 H 11.7598 1.0594 4.02698 0
M  V30 147 H 14.3568 -1.49182 5.13468 0
M  V30 148 H 14.6998 -2.16085 3.55827 0
M  V30 149 H 15.2328 -0.50682 3.94558 0
M  V30 150 H 11.9718 1.12996 6.45687 0
M  V30 151 H 11.4918 -0.513717 5.97596 0
M  V30 152 H 13.1708 -0.179539 6.46751 0
M  V30 153 N 13.3029 -1.57598 0.00835791 0
M  V30 154 C 14.5489 -1.91211 -0.675732 0
M  V30 155 C 14.8819 -0.883139 -1.72958 0
M  V30 156 O 14.1569 0.097016 -1.94258 0
M  V30 157 C 14.4399 -3.35379 -1.31123 0
M  V30 158 C 14.2929 -4.48999 -0.268356 0
M  V30 159 C 15.6119 -3.7912 -2.23508 0
M  V30 160 H 12.7309 -0.695374 -0.244179 0
M  V30 161 H 15.3729 -1.89901 0.0613655 0
M  V30 162 H 13.5229 -3.36626 -1.93946 0
M  V30 163 H 15.1949 -4.59887 0.360844 0
M  V30 164 H 13.4379 -4.31873 0.408482 0
M  V30 165 H 14.1089 -5.46851 -0.752218 0
M  V30 166 H 16.5849 -3.79477 -1.70693 0
M  V30 167 H 15.4609 -4.80729 -2.64936 0
M  V30 168 H 15.7219 -3.13455 -3.11766 0
M  V30 169 N 14.781 0.264519 -1.55364 0
M  V30 170 C 15.744 1.31046 -1.88042 0
M  V30 171 C 16.744 1.41943 -0.755569 0
M  V30 172 O 17.934 1.40947 -1.02369 0
M  V30 173 C 15.066 2.69067 -2.09323 0
M  V30 174 H 16.259 1.03297 -2.81549 0
M  V30 175 H 13.812 0.502989 -1.47986 0
M  V30 176 H 14.547 3.01982 -1.18226 0
M  V30 177 H 14.332 2.62542 -2.91229 0
M  V30 178 H 15.822 3.44623 -2.35848 0
M  V30 179 N 16.2591 1.48442 0.529413 0
M  V30 180 C 17.5361 1.46978 1.29062 0
M  V30 181 C 17.9161 0.181769 2.10316 0
M  V30 182 O 17.2641 -0.836481 2.12639 0
M  V30 183 C 17.4741 2.7321 2.17157 0
M  V30 184 C 18.8221 3.21562 2.77278 0
M  V30 185 O 19.8461 2.74131 2.27444 0
M  V30 186 O 18.7051 4.04094 3.67927 0
M  V30 187 H 15.7991 0.587003 0.582543 0
M  V30 188 H 18.3451 1.60676 0.546021 0
M  V30 189 H 17.1171 3.58465 1.56903 0
M  V30 190 H 16.7401 2.62235 2.98862 0
M  V30 191 N 17.7372 -0.778329 1.37039 0
M  V30 192 C 18.6842 -1.89139 1.32269 0
M  V30 193 C 19.6542 -1.65017 0.189387 0
M  V30 194 O 20.8392 -1.87024 0.377693 0
M  V30 195 C 17.9792 -3.26112 1.12894 0
M  V30 196 C 17.0922 -3.62233 2.35396 0
M  V30 197 C 16.2272 -4.8838 2.08946 0
M  V30 198 C 15.2662 -5.17212 3.2735 0
M  V30 199 N 14.4032 -6.34546 3.00492 0
M  V30 200 H 19.2432 -1.92552 2.27437 0
M  V30 201 H 16.7802 -0.941473 1.13025 0
M  V30 202 H 18.7382 -4.05116 0.996835 0
M  V30 203 H 17.3682 -3.22091 0.213758 0
M  V30 204 H 16.4202 -2.78265 2.5937 0
M  V30 205 H 17.7322 -3.79481 3.23721 0
M  V30 206 H 16.8862 -5.75274 1.92729 0
M  V30 207 H 15.6252 -4.73222 1.17949 0
M  V30 208 H 14.6302 -4.28796 3.44113 0
M  V30 209 H 15.8552 -5.34283 4.19188 0
M  V30 210 H 13.8012 -6.20759 2.12118 0
M  V30 211 H 13.7182 -6.52179 3.82358 0
M  V30 212 H 14.9862 -7.24394 2.87879 0
M  V30 213 N 19.2153 -1.21501 -1.00376 0
M  V30 214 C 20.1783 -0.976927 -2.07337 0
M  V30 215 C 21.1783 0.0525322 -1.60714 0
M  V30 216 O 22.3683 -0.184869 -1.73216 0
M  V30 217 C 19.5003 -0.473423 -3.37597 0
M  V30 218 H 20.6933 -1.92587 -2.29892 0
M  V30 219 H 18.2463 -1.03217 -1.17371 0
M  V30 220 H 18.9813 0.480379 -3.20722 0
M  V30 221 H 18.7663 -1.216 -3.72768 0
M  V30 222 H 20.2563 -0.32675 -4.1632 0
M  V30 223 N 20.6934 1.19889 -1.02296 0
M  V30 224 C 21.9424 1.88743 -0.711257 0
M  V30 225 C 22.2554 1.80112 0.762817 0
M  V30 226 O 23.4614 2.44161 1.18733 0
M  V30 227 C 21.9174 3.38525 -1.22185 0
M  V30 228 C 21.5254 3.55727 -2.72328 0
M  V30 229 C 23.2694 4.12893 -0.985864 0
M  V30 230 C 21.1764 4.99369 -3.16835 0
M  V30 231 H 20.1064 0.706885 -0.262353 0
M  V30 232 H 22.7574 1.35586 -1.23648 0
M  V30 233 H 21.1394 3.91044 -0.624571 0
M  V30 234 H 22.3134 3.13564 -3.3766 0
M  V30 235 H 20.6284 2.94739 -2.9414 0
M  V30 236 H 23.2254 5.18813 -1.29374 0
M  V30 237 H 23.5684 4.16228 0.0775055 0
M  V30 238 H 24.1014 3.66494 -1.54684 0
M  V30 239 H 20.8404 5.01193 -4.22476 0
M  V30 240 H 20.3604 5.42317 -2.56228 0
M  V30 241 H 22.0394 5.67988 -3.09837 0
M  V30 242 N 22.1715 0.800033 1.35784 0
M  V30 243 C 23.4175 0.38701 1.99684 0
M  V30 244 C 23.7725 -1.03268 1.62338 0
M  V30 245 O 23.0655 -1.70543 0.87325 0
M  V30 246 C 23.2595 0.500276 3.53881 0
M  V30 247 C 23.0885 1.92942 4.06206 0
M  V30 248 C 21.8585 2.55637 4.35865 0
M  V30 249 C 24.0565 2.89307 4.25213 0
M  V30 250 N 22.0385 3.9003 4.74078 0
M  V30 251 C 23.4095 4.08556 4.66349 0
M  V30 252 C 25.4645 2.86225 4.07406 0
M  V30 253 C 24.1675 5.25146 4.91543 0
M  V30 254 C 26.1935 4.02011 4.33752 0
M  V30 255 C 25.5555 5.20007 4.75155 0
M  V30 256 H 21.6545 0.189252 0.758754 0
M  V30 257 H 24.2385 1.03988 1.64604 0
M  V30 258 H 22.4095 -0.122568 3.88207 0
M  V30 259 H 24.1415 0.0624733 4.04652 0
M  V30 260 H 20.8965 2.07039 4.25948 0
M  V30 261 H 21.3205 4.59205 4.97454 0
M  V30 262 H 25.9625 1.96154 3.74544 0
M  V30 263 H 23.6805 6.15794 5.23281 0
M  V30 264 H 27.2665 4.00999 4.21534 0
M  V30 265 H 26.1465 6.08113 4.95145 0
M  V30 266 N 23.6496 -1.47581 0.552962 0
M  V30 267 C 24.8956 -2.02782 0.0273648 0
M  V30 268 C 25.2286 -1.42687 -1.31734 0
M  V30 269 O 24.5036 -0.580897 -1.85623 0
M  V30 270 C 24.7866 -3.60031 -0.0702371 0
M  V30 271 C 24.6396 -4.30566 1.30126 0
M  V30 272 C 25.9586 -4.33028 -0.785771 0
M  V30 273 H 23.0776 -0.736912 0.0114185 0
M  V30 274 H 25.7196 -1.76056 0.714432 0
M  V30 275 H 23.8696 -3.82932 -0.655382 0
M  V30 276 H 25.5416 -4.19018 1.92929 0
M  V30 277 H 23.7846 -3.91086 1.87709 0
M  V30 278 H 24.4556 -5.39114 1.18573 0
M  V30 279 H 26.9316 -4.15095 -0.288982 0
M  V30 280 H 25.8076 -5.42695 -0.823013 0
M  V30 281 H 26.0686 -4.01945 -1.841 0
M  V30 282 N 25.1277 -0.289203 -1.54924 0
M  V30 283 C 26.0377 0.601863 -2.26748 0
M  V30 284 C 27.0537 1.15834 -1.2984 0
M  V30 285 O 28.2297 1.18564 -1.62802 0
M  V30 286 C 25.2947 1.76299 -2.98529 0
M  V30 287 C 24.3557 1.24178 -4.10948 0
M  V30 288 C 23.5887 2.34757 -4.79296 0
M  V30 289 O 23.8117 3.54411 -4.46933 0
M  V30 290 O 22.7457 2.02115 -5.66951 0
M  V30 291 H 26.5717 0.0195879 -3.03694 0
M  V30 292 H 24.1567 -0.0560868 -1.49295 0
M  V30 293 H 26.0387 2.43973 -3.43592 0
M  V30 294 H 24.7137 2.33209 -2.24488 0
M  V30 295 H 23.6207 0.531104 -3.70311 0
M  V30 296 H 24.9537 0.718252 -4.86931 0
M  V30 297 N 26.6058 1.57591 -0.0167156 0
M  V30 298 C 27.5688 2.08393 0.954204 0
M  V30 299 C 28.5688 0.996531 1.26198 0
M  V30 300 O 29.7588 1.25858 1.20438 0
M  V30 301 C 26.8908 2.5394 2.27436 0
M  V30 302 H 28.0838 2.95455 0.514451 0
M  V30 303 H 25.6368 1.54582 0.231089 0
M  V30 304 H 26.3718 1.70171 2.76066 0
M  V30 305 H 26.1568 3.33371 2.06412 0
M  V30 306 H 27.6468 2.93512 2.97053 0
M  V30 307 N 28.0839 -0.256276 1.55502 0
M  V30 308 C 29.4999 -0.604325 1.47716 0
M  V30 309 C 29.6999 -1.88763 0.705039 0
M  V30 310 O 28.7559 -2.51445 0.230613 0
M  V30 311 C 30.0689 -0.715756 2.92057 0
M  V30 312 C 31.6169 -0.808706 3.02372 0
M  V30 313 C 32.0919 -0.951777 4.48001 0
M  V30 314 N 33.5829 -1.01688 4.519 0
M  V30 315 C 34.3179 -1.14668 5.61817 0
M  V30 316 N 33.8139 -1.24261 6.81565 0
M  V30 317 N 35.6069 -1.1791 5.49594 0
M  V30 318 H 27.7579 0.586291 2.04148 0
M  V30 319 H 30.0209 0.201015 0.926443 0
M  V30 320 H 29.7269 0.157027 3.51349 0
M  V30 321 H 29.6009 -1.59071 3.42018 0
M  V30 322 H 31.9879 -1.67195 2.43166 0
M  V30 323 H 32.0689 0.0912063 2.55637 0
M  V30 324 H 31.7129 -0.0931291 5.07815 0
M  V30 325 H 31.6429 -1.86659 4.92408 0
M  V30 326 H 34.1339 -0.954468 3.65648 0
M  V30 327 H 34.4469 -1.34046 7.61086 0
M  V30 328 H 32.7919 -1.21236 6.84344 0
M  V30 329 H 35.9829 -1.10057 4.54978 0
M  V30 330 H 36.1559 -1.27681 6.35296 0
M  V30 331 N 29.562 -1.4872 -0.521534 0
M  V30 332 C 30.509 -1.63871 -1.62527 0
M  V30 333 C 31.479 -0.480559 -1.58996 0
M  V30 334 O 32.664 -0.705085 -1.77294 0
M  V30 335 C 29.804 -1.69227 -3.00759 0
M  V30 336 C 28.917 -2.96207 -3.14461 0
M  V30 337 C 28.052 -2.92671 -4.43303 0
M  V30 338 C 27.091 -4.14318 -4.50563 0
M  V30 339 N 26.228 -4.0881 -5.70805 0
M  V30 340 H 31.068 -2.58123 -1.48918 0
M  V30 341 H 28.605 -1.28 -0.724878 0
M  V30 342 H 30.563 -1.70314 -3.80853 0
M  V30 343 H 29.193 -0.784586 -3.1312 0
M  V30 344 H 28.245 -3.04826 -2.27564 0
M  V30 345 H 29.557 -3.86192 -3.15686 0
M  V30 346 H 28.711 -2.92206 -5.31696 0
M  V30 347 H 27.45 -2.00429 -4.44612 0
M  V30 348 H 26.455 -4.15049 -3.60575 0
M  V30 349 H 27.68 -5.07729 -4.50986 0
M  V30 350 H 25.626 -3.19394 -5.72995 0
M  V30 351 H 25.543 -4.92509 -5.7356 0
M  V30 352 H 26.811 -4.12418 -6.61462 0
M  V30 353 N 31.0401 0.771051 -1.3745 0
M  V30 354 C 31.9721 1.89352 -1.29146 0
M  V30 355 C 32.9851 1.61477 -0.207124 0
M  V30 356 O 34.1741 1.72382 -0.463324 0
M  V30 357 C 31.2741 3.24596 -0.974195 0
M  V30 358 C 30.4471 3.80111 -2.16413 0
M  V30 359 C 29.5061 4.93832 -1.81703 0
M  V30 360 O 28.5321 5.09382 -2.54006 0
M  V30 361 N 29.7341 5.75483 -0.761573 0
M  V30 362 H 32.4991 1.96991 -2.25864 0
M  V30 363 H 30.0601 0.950191 -1.31084 0
M  V30 364 H 32.0521 3.98193 -0.722828 0
M  V30 365 H 30.6221 3.12454 -0.0955527 0
M  V30 366 H 29.8421 2.98284 -2.57721 0
M  V30 367 H 31.1301 4.13932 -2.95867 0
M  V30 368 H 30.5281 5.65469 -0.161609 0
M  V30 369 H 29.0851 6.49302 -0.570064 0
M  V30 370 N 32.5182 1.22032 0.997298 0
M  V30 371 C 33.4502 0.944263 2.08845 0
M  V30 372 C 34.4632 -0.0754663 1.62625 0
M  V30 373 O 35.6522 0.157994 1.77799 0
M  V30 374 C 32.7522 0.397723 3.36558 0
M  V30 375 C 31.9252 1.47362 4.11829 0
M  V30 376 C 30.9842 0.934951 5.17827 0
M  V30 377 O 30.0102 1.62016 5.45655 0
M  V30 378 N 31.2122 -0.245895 5.79979 0
M  V30 379 H 33.9772 1.88363 2.33109 0
M  V30 380 H 31.5382 1.12661 1.16272 0
M  V30 381 H 33.5302 0.0227771 4.04694 0
M  V30 382 H 32.1002 -0.446646 3.09393 0
M  V30 383 H 31.3202 2.02208 3.38386 0
M  V30 384 H 32.6082 2.19764 4.58891 0
M  V30 385 H 32.0062 -0.819475 5.59733 0
M  V30 386 H 30.5632 -0.562272 6.4937 0
M  V30 387 N 33.9963 -1.19345 1.0293 0
M  V30 388 C 34.9283 -2.22036 0.56857 0
M  V30 389 C 35.9413 -1.58865 -0.355779 0
M  V30 390 O 37.1303 -1.77851 -0.152103 0
M  V30 391 C 34.2303 -3.38363 -0.190752 0
M  V30 392 C 33.4033 -4.31118 0.738643 0
M  V30 393 C 32.4623 -5.26194 0.0246497 0
M  V30 394 O 31.4883 -5.65461 0.651354 0
M  V30 395 N 32.6903 -5.66971 -1.24594 0
M  V30 396 H 35.4553 -2.6219 1.45177 0
M  V30 397 H 33.0163 -1.34015 0.908381 0
M  V30 398 H 35.0083 -3.98981 -0.677961 0
M  V30 399 H 33.5783 -2.96994 -0.975366 0
M  V30 400 H 32.7983 -3.68276 1.40593 0
M  V30 401 H 34.0863 -4.90001 1.37029 0
M  V30 402 H 33.4843 -5.37104 -1.77583 0
M  V30 403 H 32.0413 -6.2984 -1.67764 0
M  V30 404 N 35.4744 -0.807222 -1.35358 0
M  V30 405 C 36.8854 -0.44876 -1.81226 0
M  V30 406 C 37.2364 1.02929 -1.67033 0
M  V30 407 O 36.3614 1.79991 -1.20133 0
M  V30 408 C 36.9564 -0.807774 -3.2903 0
M  V30 409 C 35.5154 -0.501901 -3.73039 0
M  V30 410 C 34.6624 -1.03304 -2.57339 0
M  V30 411 H 37.6134 -0.998808 -1.23327 0
M  V30 412 H 37.6344 -0.10554 -3.80354 0
M  V30 413 H 37.1464 -1.88357 -3.39328 0
M  V30 414 H 35.2474 0.565128 -3.68289 0
M  V30 415 H 35.3604 -1.03497 -4.67787 0
M  V30 416 H 33.7244 -0.455339 -2.50597 0
M  V30 417 H 34.5074 -2.11496 -2.70415 0
M  V30 418 N 36.9525 1.47285 -0.560781 0
M  V30 419 C 37.8825 2.32857 0.173105 0
M  V30 420 C 38.8635 1.44009 0.905281 0
M  V30 421 O 40.0485 1.7286 0.885046 0
M  V30 422 C 37.1785 3.25861 1.20133 0
M  V30 423 C 36.1325 4.23978 0.585388 0
M  V30 424 C 35.4585 5.06332 1.7185 0
M  V30 425 C 36.7585 5.20242 -0.463178 0
M  V30 426 H 38.4525 2.94466 -0.541307 0
M  V30 427 H 35.9985 1.41601 -0.261764 0
M  V30 428 H 37.9515 3.84569 1.72293 0
M  V30 429 H 36.6755 2.62315 1.94573 0
M  V30 430 H 35.3345 3.66501 0.085054 0
M  V30 431 H 34.9825 4.39186 2.45203 0
M  V30 432 H 34.6825 5.72762 1.31213 0
M  V30 433 H 36.2065 5.67899 2.24329 0
M  V30 434 H 37.6205 5.73293 -0.027502 0
M  V30 435 H 36.0175 5.94896 -0.788627 0
M  V30 436 H 37.0875 4.65504 -1.35773 0
M  V30 437 N 38.4306 0.297415 1.54768 0
M  V30 438 C 39.3936 -0.567375 2.22066 0
M  V30 439 C 40.3936 -1.06409 1.20556 0
M  V30 440 O 41.5836 -0.960691 1.45315 0
M  V30 441 C 38.7156 -1.78517 2.90421 0
M  V30 442 H 39.9086 0.0205534 2.99893 0
M  V30 443 H 37.4616 0.0482163 1.56226 0
M  V30 444 H 38.1966 -2.41303 2.16664 0
M  V30 445 H 37.9816 -1.43669 3.64831 0
M  V30 446 H 39.4716 -2.39964 3.41771 0
M  V30 447 N 39.9087 -1.5758 0.0250728 0
M  V30 448 C 41.1337 -1.96337 -0.668317 0
M  V30 449 C 41.5587 -0.901314 -1.651 0
M  V30 450 O 40.9167 0.138187 -1.80773 0
M  V30 451 C 40.9647 -3.34191 -1.35457 0
M  V30 452 O 40.0687 -3.30269 -2.46974 0
M  V30 453 H 39.4097 -0.640281 -0.175887 0
M  V30 454 H 41.9397 -2.0442 0.0857224 0
M  V30 455 H 41.9497 -3.70331 -1.71228 0
M  V30 456 H 40.6247 -4.11036 -0.634218 0
M  V30 457 H 39.2017 -3.05841 -2.13344 0
M  V30 458 N 41.3868 0.248026 -1.55636 0
M  V30 459 C 42.6338 0.976224 -1.77415 0
M  V30 460 C 42.9618 1.85361 -0.589193 0
M  V30 461 O 42.2168 1.90973 0.427529 0
M  V30 462 C 42.5158 1.86819 -3.04686 0
M  V30 463 C 42.1818 1.14625 -4.36087 0
M  V30 464 C 40.8438 0.946723 -4.71795 0
M  V30 465 C 43.1958 0.634463 -5.17324 0
M  V30 466 C 40.5238 0.223091 -5.86276 0
M  V30 467 C 42.8758 -0.0756959 -6.32555 0
M  V30 468 C 41.5398 -0.286711 -6.66884 0
M  V30 469 H 40.8098 0.357226 -0.649208 0
M  V30 470 H 43.4568 0.246415 -1.89908 0
M  V30 471 H 41.7618 2.66502 -2.872 0
M  V30 472 H 43.4588 2.43329 -3.18735 0
M  V30 473 H 40.0488 1.3117 -4.08035 0
M  V30 474 H 44.2328 0.77616 -4.90193 0
M  V30 475 H 39.4888 0.0491185 -6.1138 0
M  V30 476 H 43.6628 -0.479899 -6.94745 0
M  V30 477 H 41.2898 -0.849389 -7.5544 0
M  V30 478 N 42.8649 1.48995 0.513639 0
M  V30 479 C 43.7969 1.60836 1.63293 0
M  V30 480 C 44.8099 0.491701 1.55197 0
M  V30 481 O 45.9989 0.763238 1.6136 0
M  V30 482 C 43.0989 1.53731 3.02027 0
M  V30 483 C 42.2719 2.80715 3.35437 0
M  V30 484 C 41.3309 2.66837 4.53525 0
M  V30 485 O 40.3569 3.40753 4.55934 0
M  V30 486 N 41.5589 1.77539 5.52684 0
M  V30 487 H 44.3239 2.57366 1.53566 0
M  V30 488 H 41.8849 1.45925 0.701259 0
M  V30 489 H 43.8769 1.42118 3.78926 0
M  V30 490 H 42.4469 0.651092 3.05744 0
M  V30 491 H 41.6669 3.06772 2.47557 0
M  V30 492 H 42.9549 3.64927 3.54551 0
M  V30 493 H 42.3529 1.16719 5.53528 0
M  V30 494 H 40.9099 1.71856 6.28736 0
M  V30 495 N 44.343 -0.763751 1.37857 0
M  V30 496 C 45.291 -1.89864 1.34367 0
M  V30 497 C 46.285 -1.67816 0.231143 0
M  V30 498 O 47.491 -1.75508 0.399617 0
M  V30 499 H 43.866 -0.624501 0.41893 0
M  V30 500 H 45.837 -1.89925 2.30155 0
M  V30 501 C 44.586 -3.27227 1.1755 0
M  V30 502 H 43.909 -3.44773 2.02414 0
M  V30 503 H 45.349 -4.06911 1.1916 0
M  V30 504 C 43.808 -3.36692 -0.118311 0
M  V30 505 O 44.338 -3.86374 -1.09902 0
M  V30 506 N 42.544 -2.90092 -0.171717 0
M  V30 507 H 42.091 -2.49853 0.627012 0
M  V30 508 H 42.049 -2.96806 -1.03699 0
M  V30 509 N 45.8211 -1.22559 -0.990812 0
M  V30 510 C 46.7311 -1.01394 -2.11557 0
M  V30 511 C 47.7471 0.0383962 -1.73958 0
M  V30 512 O 48.9231 -0.154787 -2.00804 0
M  V30 513 C 45.9881 -0.596569 -3.41529 0
M  V30 514 C 45.0491 -1.72276 -3.93217 0
M  V30 515 C 44.2821 -1.32521 -5.16985 0
M  V30 516 O 44.5051 -0.204909 -5.70032 0
M  V30 517 O 43.4391 -2.14247 -5.62478 0
M  V30 518 H 47.2651 -1.95633 -2.32296 0
M  V30 519 H 44.8501 -1.01172 -1.0993 0
M  V30 520 H 46.7321 -0.374263 -4.19735 0
M  V30 521 H 45.4071 0.316939 -3.22145 0
M  V30 522 H 44.3141 -1.99961 -3.16174 0
M  V30 523 H 45.6471 -2.61421 -4.17037 0
M  V30 524 N 47.2992 1.18797 -1.03562 0
M  V30 525 C 48.5452 1.8893 -0.737113 0
M  V30 526 C 48.8782 1.79837 0.732956 0
M  V30 527 O 48.1532 1.19525 1.5344 0
M  V30 528 C 48.4362 3.39607 -1.19745 0
M  V30 529 C 48.2892 3.57537 -2.72924 0
M  V30 530 C 49.6082 4.33069 -0.783526 0
M  V30 531 H 46.7272 0.686057 -0.269249 0
M  V30 532 H 49.3692 1.39797 -1.28673 0
M  V30 533 H 47.5192 3.81583 -0.729855 0
M  V30 534 H 49.1912 3.24688 -3.27682 0
M  V30 535 H 47.4342 3.00363 -3.12993 0
M  V30 536 H 48.1052 4.63238 -3.00191 0
M  V30 537 H 50.5812 3.98846 -1.18581 0
M  V30 538 H 49.4572 5.3707 -1.13343 0
M  V30 539 H 49.7182 4.40986 0.313681 0
M  V30 540 N 48.7773 0.814389 1.34928 0
M  V30 541 C 49.7093 0.187834 2.28429 0
M  V30 542 C 50.7223 -0.617374 1.5064 0
M  V30 543 O 51.9113 -0.448454 1.72775 0
M  V30 544 C 49.0113 -0.755962 3.30361 0
M  V30 545 C 48.1843 0.00456686 4.374 0
M  V30 546 C 47.2433 -0.858876 5.19143 0
M  V30 547 O 46.2693 -0.306968 5.68372 0
M  V30 548 N 47.4713 -2.17988 5.38016 0
M  V30 549 H 50.2363 0.991105 2.82838 0
M  V30 550 H 47.7973 0.670561 1.4736 0
M  V30 551 H 49.7893 -1.338 3.81942 0
M  V30 552 H 48.3593 -1.46001 2.7641 0
M  V30 553 H 47.5793 0.767865 3.86649 0
M  V30 554 H 48.8673 0.528422 5.06049 0
M  V30 555 H 48.2653 -2.65212 4.99679 0
M  V30 556 H 46.8223 -2.71098 5.92747 0
M  V30 557 N 50.2554 -1.46986 0.568584 0
M  V30 558 C 51.6664 -1.86188 0.138219 0
M  V30 559 C 52.0174 -1.47388 -1.29504 0
M  V30 560 O 51.1424 -0.88219 -1.97602 0
M  V30 561 C 51.7374 -3.3792 0.244065 0
M  V30 562 C 50.2964 -3.76171 -0.131335 0
M  V30 563 C 49.4434 -2.71027 0.586465 0
M  V30 564 H 52.3944 -1.38342 0.777645 0
M  V30 565 H 52.4154 -3.76729 -0.534351 0
M  V30 566 H 51.9274 -3.66128 1.28731 0
M  V30 567 H 50.0284 -3.5358 -1.17526 0
M  V30 568 H 50.1414 -4.78523 0.235146 0
M  V30 569 H 48.5054 -2.54684 0.0282722 0
M  V30 570 H 49.2884 -3.02077 1.63109 0
M  V30 571 N 51.7335 -0.305618 -1.54608 0
M  V30 572 C 52.9585 0.307562 -2.05107 0
M  V30 573 C 53.3835 1.46385 -1.18123 0
M  V30 574 O 52.7415 1.8034 -0.186324 0
M  V30 575 C 52.7895 0.73704 -3.52987 0
M  V30 576 O 51.8935 1.84134 -3.6901 0
M  V30 577 H 51.2345 0.0589143 -0.661381 0
M  V30 578 H 53.7645 -0.448807 -1.99617 0
M  V30 579 H 53.7745 1.02459 -3.94925 0
M  V30 580 H 52.4495 -0.108773 -4.15758 0
M  V30 581 H 51.0265 1.55398 -3.38978 0
M  V30 582 N 53.2116 1.57565 -0.0334293 0
M  V30 583 C 54.4396 1.9628 0.654347 0
M  V30 584 C 54.8546 0.910138 1.65414 0
M  V30 585 O 54.2116 -0.107595 1.82183 0
M  V30 586 C 54.2626 3.35067 1.35693 0
M  V30 587 O 53.9836 4.36296 0.397191 0
M  V30 588 C 55.4846 3.88439 2.13613 0
M  V30 589 H 52.7046 0.646369 0.180132 0
M  V30 590 H 55.2486 2.04282 -0.0944721 0
M  V30 591 H 53.4036 3.2827 2.05712 0
M  V30 592 H 53.8176 5.1678 0.896597 0
M  V30 593 H 55.2916 4.8788 2.58219 0
M  V30 594 H 55.7686 3.22914 2.97696 0
M  V30 595 H 56.3746 3.98516 1.48543 0
M  V30 596 N 54.6897 -0.239769 1.55765 0
M  V30 597 C 56.1057 -0.588624 1.48349 0
M  V30 598 C 56.3057 -1.88005 0.72502 0
M  V30 599 O 55.3617 -2.51186 0.257269 0
M  V30 600 C 56.6747 -0.68474 2.928 0
M  V30 601 C 58.2227 -0.77659 3.03213 0
M  V30 602 C 58.6977 -0.904207 4.48986 0
M  V30 603 N 60.1887 -0.968896 4.52953 0
M  V30 604 C 60.9237 -1.08703 5.63002 0
M  V30 605 N 60.4197 -1.17026 6.82845 0
M  V30 606 N 62.2127 -1.12074 5.50814 0
M  V30 607 H 54.3637 0.607911 2.03515 0
M  V30 608 H 56.6267 0.21083 0.924259 0
M  V30 609 H 56.3327 0.194284 3.51163 0
M  V30 610 H 56.2067 -1.55435 3.43686 0
M  V30 611 H 58.5937 -1.64606 2.44926 0
M  V30 612 H 58.6747 0.118315 2.55526 0
M  V30 613 H 58.3187 -0.0392633 5.07885 0
M  V30 614 H 58.2487 -1.81426 4.9436 0
M  V30 615 H 60.7397 -0.915633 3.6664 0
M  V30 616 H 61.0527 -1.25966 7.62465 0
M  V30 617 H 59.3977 -1.13971 6.85591 0
M  V30 618 H 62.5887 -1.05226 4.5612 0
M  V30 619 H 62.7617 -1.20936 6.36615 0
M  V30 620 N 56.1678 -1.49265 -0.50573 0
M  V30 621 C 57.1178 -1.6198 -1.60457 0
M  V30 622 C 58.1018 -0.47568 -1.53708 0
M  V30 623 O 59.2938 -0.728392 -1.61318 0
M  V30 624 C 56.4228 -1.68526 -2.99089 0
M  V30 625 C 55.5088 -2.885 -3.10852 0
M  V30 626 N 55.8998 -4.12635 -2.92517 0
M  V30 627 C 54.1978 -2.86338 -3.41945 0
M  V30 628 C 54.8988 -4.93258 -3.08337 0
M  V30 629 N 53.8748 -4.26533 -3.37003 0
M  V30 630 H 57.6768 -2.55681 -1.44928 0
M  V30 631 H 55.1908 -1.45972 -0.711752 0
M  V30 632 H 57.1878 -1.75732 -3.78053 0
M  V30 633 H 55.8478 -0.759584 -3.1569 0
M  V30 634 H 56.8588 -4.42689 -2.68787 0
M  V30 635 H 53.5358 -2.03129 -3.64753 0
M  V30 636 H 54.9258 -6.01856 -2.98695 0
M  V30 637 N 57.6459 0.756429 -1.3826 0
M  V30 638 C 58.8929 1.51547 -1.34312 0
M  V30 639 C 59.2209 1.94382 0.0677144 0
M  V30 640 O 58.4759 1.65514 1.04421 0
M  V30 641 C 58.7749 2.78313 -2.24224 0
M  V30 642 C 58.4409 2.54455 -3.72241 0
M  V30 643 C 57.1029 2.47657 -4.12576 0
M  V30 644 C 59.4549 2.3354 -4.65949 0
M  V30 645 C 56.7829 2.17956 -5.44713 0
M  V30 646 C 59.1349 2.05359 -5.9834 0
M  V30 647 C 57.7989 1.97016 -6.37762 0
M  V30 648 H 57.0689 0.55455 -0.491482 0
M  V30 649 H 59.7159 0.870039 -1.70595 0
M  V30 650 H 58.0209 3.47492 -1.80987 0
M  V30 651 H 59.7179 3.36259 -2.18474 0
M  V30 652 H 56.3079 2.60616 -3.40261 0
M  V30 653 H 60.4919 2.37772 -4.35635 0
M  V30 654 H 55.7479 2.10003 -5.74203 0
M  V30 655 H 59.9219 1.88179 -6.70494 0
M  V30 656 H 57.5489 1.73766 -7.40074 0
M  V30 657 N 59.124 1.23083 0.984299 0
M  V30 658 C 60.354 1.08556 1.75781 0
M  V30 659 C 60.762 -0.366171 1.85623 0
M  V30 660 O 60.105 -1.26524 1.33182 0
M  V30 661 C 60.167 1.63208 3.20318 0
M  V30 662 C 59.831 3.11922 3.33997 0
M  V30 663 C 60.828 4.09259 3.2063 0
M  V30 664 C 58.513 3.51552 3.58771 0
M  V30 665 C 60.507 5.4421 3.31835 0
M  V30 666 C 58.194 4.86649 3.69616 0
M  V30 667 C 59.192 5.82787 3.56157 0
M  V30 668 O 58.88 7.15431 3.66626 0
M  V30 669 H 58.612 0.380713 0.5586 0
M  V30 670 H 61.166 1.63321 1.2456 0
M  V30 671 H 59.396 1.0286 3.72769 0
M  V30 672 H 61.085 1.44216 3.79416 0
M  V30 673 H 61.851 3.79984 3.01392 0
M  V30 674 H 57.73 2.77239 3.6832 0
M  V30 675 H 61.274 6.1923 3.21247 0
M  V30 676 H 57.171 5.15601 3.88363 0
M  V30 677 H 57.939 7.23127 3.83445 0
M  V30 678 N 60.6021 -1.18246 1.0419 0
M  V30 679 C 61.8791 -1.84121 0.660208 0
M  V30 680 C 62.2591 -1.92778 -0.860221 0
M  V30 681 O 61.6071 -1.45464 -1.76217 0
M  V30 682 C 61.8171 -3.22355 1.33747 0
M  V30 683 C 63.1651 -3.98376 1.46906 0
M  V30 684 O 64.1891 -3.31799 1.29568 0
M  V30 685 O 63.0481 -5.17665 1.75171 0
M  V30 686 H 60.1421 -0.794036 0.231161 0
M  V30 687 H 62.6881 -1.25628 1.14087 0
M  V30 688 H 61.4601 -3.10964 2.37522 0
M  V30 689 H 61.0831 -3.88506 0.845515 0
M  V30 690 N 62.0802 -0.821533 -1.34494 0
M  V30 691 C 63.0432 -0.247847 -2.27856 0
M  V30 692 C 64.0432 0.573453 -1.50227 0
M  V30 693 O 65.2332 0.389759 -1.69784 0
M  V30 694 C 62.3652 0.652698 -3.34593 0
M  V30 695 H 63.5582 -1.07146 -2.80107 0
M  V30 696 H 61.1112 -0.593291 -1.44602 0
M  V30 697 H 61.8462 1.49943 -2.87555 0
M  V30 698 H 61.6312 0.065292 -3.92046 0
M  V30 699 H 63.1212 1.04793 -4.04238 0
M  V30 700 N 63.5583 1.46682 -0.576371 0
M  V30 701 C 64.4883 2.33028 0.148397 0
M  V30 702 C 65.4693 1.44961 0.889956 0
M  V30 703 O 66.6543 1.73789 0.866662 0
M  V30 704 C 63.7843 3.27117 1.1667 0
M  V30 705 C 62.7383 4.24575 0.540386 0
M  V30 706 C 62.0643 5.08126 1.6647 0
M  V30 707 C 63.3643 5.19722 -0.518331 0
M  V30 708 H 65.0583 2.93875 -0.572509 0
M  V30 709 H 62.6043 1.41315 -0.276768 0
M  V30 710 H 64.5573 3.86374 1.68204 0
M  V30 711 H 63.2813 2.64364 1.9178 0
M  V30 712 H 61.9403 3.66571 0.0461769 0
M  V30 713 H 61.5883 4.41762 2.40531 0
M  V30 714 H 61.2883 5.74122 1.25131 0
M  V30 715 H 62.8123 5.70246 2.18293 0
M  V30 716 H 64.2263 5.73232 -0.0883058 0
M  V30 717 H 62.6233 5.94026 -0.851679 0
M  V30 718 H 63.6933 4.64037 -1.40703 0
M  V30 719 N 65.0364 0.313813 1.54444 0
M  V30 720 C 65.9684 -0.590425 2.21465 0
M  V30 721 C 66.9814 -1.08753 1.21147 0
M  V30 722 O 68.1704 -1.00278 1.4767 0
M  V30 723 C 65.2704 -1.82179 2.85769 0
M  V30 724 C 64.4434 -1.46502 4.12136 0
M  V30 725 C 63.5024 -2.55288 4.60124 0
M  V30 726 O 62.5284 -2.19842 5.25032 0
M  V30 727 N 63.7304 -3.86053 4.33525 0
M  V30 728 H 66.4954 -0.0166033 2.99695 0
M  V30 729 H 64.0564 0.136578 1.61323 0
M  V30 730 H 66.0484 -2.54328 3.14801 0
M  V30 731 H 64.6184 -2.30369 2.11303 0
M  V30 732 H 63.8384 -0.575595 3.89975 0
M  V30 733 H 65.1264 -1.20221 4.94393 0
M  V30 734 H 64.5244 -4.17654 3.81552 0
M  V30 735 H 63.0814 -4.54461 4.67235 0
M  V30 736 N 66.5145 -1.57545 0.0417849 0
M  V30 737 C 67.7625 -1.91937 -0.632829 0
M  V30 738 C 68.0835 -0.919978 -1.71934 0
M  V30 739 O 67.3535 0.0366064 -1.95866 0
M  V30 740 H 65.9335 -0.708493 -0.236742 0
M  V30 741 H 68.5955 -1.9468 0.0925745 0
M  V30 742 H 67.6915 -2.92912 -1.07746 0
M  V30 743 N 67.9926 0.231505 -1.5589 0
M  V30 744 C 68.9556 1.27028 -1.90779 0
M  V30 745 C 69.9556 1.40308 -0.785507 0
M  V30 746 O 71.1456 1.38744 -1.05336 0
M  V30 747 C 68.2776 2.64566 -2.14983 0
M  V30 748 H 69.4706 0.973017 -2.83677 0
M  V30 749 H 67.0236 0.471486 -1.49019 0
M  V30 750 H 67.7586 2.99406 -1.24604 0
M  V30 751 H 67.5436 2.56305 -2.96732 0
M  V30 752 H 69.0336 3.39543 -2.43105 0
M  V30 753 N 69.4707 1.49531 0.497807 0
M  V30 754 C 70.8867 1.36365 0.829266 0
M  V30 755 C 71.0867 0.399184 1.97506 0
M  V30 756 O 70.1427 -0.167977 2.51941 0
M  V30 757 C 71.4557 2.77153 1.16647 0
M  V30 758 C 73.0037 2.85877 1.27449 0
M  V30 759 C 73.4787 4.2744 1.64497 0
M  V30 760 N 74.9697 4.30265 1.7154 0
M  V30 761 C 75.7047 5.3677 2.01656 0
M  V30 762 N 75.2007 6.53516 2.29976 0
M  V30 763 N 76.9937 5.24189 2.02934 0
M  V30 764 H 69.1447 2.10831 -0.257703 0
M  V30 765 H 71.4077 0.946534 -0.0527091 0
M  V30 766 H 71.1137 3.49442 0.397872 0
M  V30 767 H 70.9877 3.12722 2.10915 0
M  V30 768 H 73.3747 2.13824 2.0338 0
M  V30 769 H 73.4557 2.53887 0.312244 0
M  V30 770 H 73.0997 5.00021 0.891151 0
M  V30 771 H 73.0297 4.56896 2.61827 0
M  V30 772 H 75.5207 3.4607 1.51802 0
M  V30 773 H 75.8337 7.30506 2.52153 0
M  V30 774 H 74.1787 6.56737 2.27425 0
M  V30 775 H 77.3697 4.31988 1.80289 0
M  V30 776 H 77.5427 6.07286 2.26071 0
M  V30 777 N 70.9488 -0.749086 1.3866 0
M  V30 778 C 72.1768 -1.53834 1.38358 0
M  V30 779 C 72.5918 -1.88783 -0.0255219 0
M  V30 780 O 71.9488 -1.53101 -0.993292 0
M  V30 781 C 71.9998 -2.83468 2.2434 0
M  V30 782 O 71.7208 -2.50008 3.5976 0
M  V30 783 C 73.2218 -3.7758 2.32267 0
M  V30 784 H 70.4418 -0.47585 0.473083 0
M  V30 785 H 72.9858 -0.926726 1.82297 0
M  V30 786 H 71.1408 -3.40995 1.83851 0
M  V30 787 H 71.5548 -3.33182 4.05081 0
M  V30 788 H 73.0288 -4.65478 2.96706 0
M  V30 789 H 73.5058 -4.18334 1.33765 0
M  V30 790 H 74.1118 -3.25976 2.73166 0
M  V30 791 N 72.4269 -1.23603 -0.977757 0
M  V30 792 C 73.3899 -1.02069 -2.05218 0
M  V30 793 C 74.3899 0.0184305 -1.60789 0
M  V30 794 O 75.5799 -0.221569 -1.72785 0
M  V30 795 C 72.7119 -0.544926 -3.36517 0
M  V30 796 H 73.9049 -1.9742 -2.25755 0
M  V30 797 H 71.4579 -1.05684 -1.15155 0
M  V30 798 H 72.1929 0.412241 -3.21669 0
M  V30 799 H 71.9779 -1.2948 -3.70105 0
M  V30 800 H 73.4679 -0.414985 -4.15533 0
M  V30 801 N 73.905 1.17692 -1.04816 0
M  V30 802 C 75.152 1.87859 -0.75599 0
M  V30 803 C 75.48 1.80812 0.716752 0
M  V30 804 O 74.735 1.20819 1.53952 0
M  V30 805 C 75.034 3.37462 -1.17703 0
M  V30 806 C 74.7 3.64713 -2.65133 0
M  V30 807 C 73.362 3.71859 -3.05408 0
M  V30 808 C 75.714 3.76492 -3.60421 0
M  V30 809 C 73.042 3.88271 -4.39843 0
M  V30 810 C 75.394 3.94421 -4.94585 0
M  V30 811 C 74.058 3.99806 -5.3452 0
M  V30 812 H 73.328 0.687425 -0.276636 0
M  V30 813 H 75.975 1.39255 -1.31455 0
M  V30 814 H 74.28 3.88097 -0.537395 0
M  V30 815 H 75.977 3.90109 -0.928218 0
M  V30 816 H 72.567 3.59772 -2.32942 0
M  V30 817 H 76.751 3.70295 -3.30447 0
M  V30 818 H 72.007 3.90687 -4.70291 0
M  V30 819 H 76.181 4.02477 -5.68318 0
M  V30 820 H 73.808 4.12276 -6.38696 0
M  V30 821 N 75.3831 0.828654 1.34056 0
M  V30 822 C 76.6321 0.415828 1.97367 0
M  V30 823 C 76.9451 -1.02796 1.6641 0
M  V30 824 O 78.1511 -1.54497 2.23255 0
M  V30 825 C 76.6071 0.692601 3.53173 0
M  V30 826 C 76.2151 2.15038 3.93017 0
M  V30 827 C 77.9591 0.346222 4.23086 0
M  V30 828 C 75.8661 2.37174 5.41758 0
M  V30 829 H 74.7961 0.151755 0.738571 0
M  V30 830 H 77.4471 1.01581 1.52819 0
M  V30 831 H 75.8291 0.0223764 3.95994 0
M  V30 832 H 77.0031 2.86024 3.61285 0
M  V30 833 H 75.3181 2.45875 3.36057 0
M  V30 834 H 77.9151 0.48937 5.32456 0
M  V30 835 H 78.2581 -0.709842 4.10204 0
M  V30 836 H 78.7911 0.971258 3.85761 0
M  V30 837 H 75.5301 3.41308 5.59633 0
M  V30 838 H 75.0501 1.70738 5.74986 0
M  V30 839 H 76.7291 2.19818 6.08514 0
M  V30 840 N 76.8612 -1.46375 0.584142 0
M  V30 841 C 77.7912 -2.33103 -0.136037 0
M  V30 842 C 78.7722 -1.45431 -0.882255 0
M  V30 843 O 79.9572 -1.74246 -0.857434 0
M  V30 844 C 77.0872 -3.27731 -1.14933 0
M  V30 845 C 76.0412 -4.24855 -0.517862 0
M  V30 846 C 75.3672 -5.09001 -1.63773 0
M  V30 847 C 76.6672 -5.19439 0.545886 0
M  V30 848 H 78.3612 -2.93568 0.588086 0
M  V30 849 H 75.9072 -1.41166 0.284259 0
M  V30 850 H 77.8602 -3.87261 -1.66153 0
M  V30 851 H 76.5842 -2.65377 -1.90375 0
M  V30 852 H 75.2432 -3.6659 -0.0267361 0
M  V30 853 H 74.8912 -4.43031 -2.38185 0
M  V30 854 H 74.5912 -5.74777 -1.22085 0
M  V30 855 H 76.1152 -5.71396 -2.15266 0
M  V30 856 H 77.5292 -5.73177 0.118704 0
M  V30 857 H 75.9262 -5.93566 0.88317 0
M  V30 858 H 76.9962 -4.63285 1.43162 0
M  V30 859 N 78.3393 -0.321999 -1.54275 0
M  V30 860 C 79.2493 0.553631 -2.27974 0
M  V30 861 C 80.2653 1.13054 -1.32268 0
M  V30 862 O 81.4413 1.15084 -1.6528 0
M  V30 863 C 78.5063 1.69927 -3.02201 0
M  V30 864 C 77.5673 1.15433 -4.1349 0
M  V30 865 C 76.8003 2.24537 -4.84168 0
M  V30 866 O 77.0233 3.44852 -4.5435 0
M  V30 867 O 75.9573 1.90044 -5.7111 0
M  V30 868 H 79.7833 -0.0448345 -3.03667 0
M  V30 869 H 77.3683 -0.0877418 -1.49142 0
M  V30 870 H 79.2503 2.3663 -3.48689 0
M  V30 871 H 77.9253 2.28395 -2.29385 0
M  V30 872 H 76.8323 0.452436 -3.71354 0
M  V30 873 H 78.1653 0.614805 -4.88345 0
M  V30 874 N 79.8174 1.5752 -0.0501392 0
M  V30 875 C 81.0574 1.94521 0.627783 0
M  V30 876 C 81.4214 0.928265 1.68069 0
M  V30 877 O 82.6224 1.18517 2.41261 0
M  V30 878 C 80.8934 3.36319 1.20932 0
M  V30 879 S 82.4524 3.95272 1.90539 0
M  V30 880 H 79.2704 0.680456 0.206158 0
M  V30 881 H 81.8724 1.95139 -0.118829 0
M  V30 882 H 80.5764 4.08132 0.430865 0
M  V30 883 H 80.1074 3.39193 1.99277 0
M  V30 884 H 82.1224 3.80415 3.18589 0
M  V30 885 N 81.2955 -0.223234 1.56011 0
M  V30 886 C 82.2425 -1.27664 1.92277 0
M  V30 887 C 83.2125 -1.46659 0.779763 0
M  V30 888 O 84.3975 -1.60256 1.03551 0
M  V30 889 C 81.5375 -2.62234 2.24338 0
M  V30 890 C 80.6505 -2.51051 3.51564 0
M  V30 891 C 79.7855 -3.78133 3.7308 0
M  V30 892 C 78.8245 -3.61665 4.93827 0
M  V30 893 N 77.9615 -4.80693 5.11741 0
M  V30 894 H 82.8015 -0.960358 2.82101 0
M  V30 895 H 80.3385 -0.462901 1.39627 0
M  V30 896 H 82.2965 -3.40596 2.40936 0
M  V30 897 H 80.9265 -2.91961 1.3769 0
M  V30 898 H 79.9785 -1.64132 3.43169 0
M  V30 899 H 81.2905 -2.34803 4.40079 0
M  V30 900 H 80.4445 -4.64938 3.89766 0
M  V30 901 H 79.1835 -3.97304 2.82844 0
M  V30 902 H 78.1885 -2.73244 4.77093 0
M  V30 903 H 79.4135 -3.43966 5.85546 0
M  V30 904 H 77.3595 -5.00181 4.24446 0
M  V30 905 H 77.2765 -4.67165 5.94384 0
M  V30 906 H 78.5445 -5.6893 5.3286 0
M  V30 907 N 82.7736 -1.49793 -0.48987 0
M  V30 908 C 83.7206 -1.67281 -1.59014 0
M  V30 909 C 84.6906 -0.514177 -1.57941 0
M  V30 910 O 85.8756 -0.742533 -1.75759 0
M  V30 911 C 83.0156 -1.75569 -2.97102 0
M  V30 912 C 82.1286 -3.0281 -3.08107 0
M  V30 913 C 81.2636 -3.02008 -4.36995 0
M  V30 914 C 80.3026 -4.23782 -4.41673 0
M  V30 915 N 79.4396 -4.20826 -5.62005 0
M  V30 916 H 84.2796 -2.61224 -1.43409 0
M  V30 917 H 81.8166 -1.29508 -0.697565 0
M  V30 918 H 83.7746 -1.78354 -3.77155 0
M  V30 919 H 82.4046 -0.850827 -3.11385 0
M  V30 920 H 81.4566 -3.09584 -2.21047 0
M  V30 921 H 82.7686 -3.92801 -3.07423 0
M  V30 922 H 81.9226 -3.03418 -5.25378 0
M  V30 923 H 80.6616 -2.09815 -4.4026 0
M  V30 924 H 79.6666 -4.22604 -3.5169 0
M  V30 925 H 80.8916 -5.17181 -4.40115 0
M  V30 926 H 78.8376 -3.31476 -5.66091 0
M  V30 927 H 78.7546 -5.04564 -5.62984 0
M  V30 928 H 80.0226 -4.26355 -6.52565 0
M  V30 929 N 84.2517 0.741722 -1.39055 0
M  V30 930 C 85.2147 1.83733 -1.37021 0
M  V30 931 C 86.2147 1.58542 -0.268534 0
M  V30 932 O 87.4047 1.66067 -0.526076 0
M  V30 933 C 84.5367 3.2141 -1.13617 0
M  V30 934 H 85.7297 1.86941 -2.34506 0
M  V30 935 H 83.2827 0.944676 -1.24521 0
M  V30 936 H 84.0177 3.23865 -0.167863 0
M  V30 937 H 83.8027 3.4109 -1.93391 0
M  V30 938 H 85.2927 4.01477 -1.14918 0
M  V30 939 N 85.7298 1.2412 0.971189 0
M  V30 940 C 86.9548 1.10667 1.75407 0
M  V30 941 C 87.3798 -0.337048 1.85056 0
M  V30 942 O 86.7378 -1.24396 1.31892 0
M  V30 943 C 86.7858 1.74726 3.15441 0
M  V30 944 O 85.8898 1.01566 3.99697 0
M  V30 945 H 85.2308 0.387341 0.539317 0
M  V30 946 H 87.7608 1.64358 1.2185 0
M  V30 947 H 87.7708 1.80341 3.6598 0
M  V30 948 H 86.4458 2.79773 3.07734 0
M  V30 949 H 85.0228 1.03713 3.58187 0
M  V30 950 N 87.2079 -1.17134 1.05439 0
M  V30 951 C 88.6189 -1.69084 0.791676 0
M  V30 952 C 88.9699 -1.83822 -0.685839 0
M  V30 953 O 88.0949 -1.52757 -1.53278 0
M  V30 954 C 88.6899 -3.07119 1.4305 0
M  V30 955 C 87.2489 -3.56225 1.21577 0
M  V30 956 C 86.3959 -2.32421 1.51247 0
M  V30 957 H 89.3469 -1.01617 1.219 0
M  V30 958 H 89.3679 -3.71087 0.84112 0
M  V30 959 H 88.8799 -2.9636 2.50584 0
M  V30 960 H 86.9809 -3.72257 0.159787 0
M  V30 961 H 87.0939 -4.38837 1.92246 0
M  V30 962 H 85.4579 -2.3701 0.932653 0
M  V30 963 H 86.2409 -2.24268 2.5992 0
M  V30 964 N 88.686 -0.835752 -1.33615 0
M  V30 965 C 89.911 -0.442389 -2.02627 0
M  V30 966 C 90.336 0.947735 -1.62479 0
M  V30 967 O 89.694 1.61907 -0.815826 0
M  V30 968 C 89.742 -0.567216 -3.56111 0
M  V30 969 O 88.846 0.407799 -4.10379 0
M  V30 970 H 88.187 -0.180278 -0.639059 0
M  V30 971 H 90.717 -1.12972 -1.70583 0
M  V30 972 H 90.727 -0.447708 -4.05536 0
M  V30 973 H 89.402 -1.58103 -3.84677 0
M  V30 974 H 87.979 0.246107 -3.72087 0
M  V30 975 N 90.1641 1.46063 -0.591896 0
M  V30 976 C 91.1111 2.30399 0.136069 0
M  V30 977 C 92.0811 1.41169 0.875238 0
M  V30 978 O 93.2661 1.70112 0.86409 0
M  V30 979 C 90.4061 3.25804 1.13781 0
M  V30 980 C 89.5191 4.30134 0.401137 0
M  V30 981 C 88.6541 5.12659 1.39121 0
M  V30 982 C 87.6931 6.0873 0.641462 0
M  V30 983 N 86.8301 6.8409 1.58004 0
M  V30 984 H 91.6701 2.92118 -0.589144 0
M  V30 985 H 89.2071 1.43959 -0.302342 0
M  V30 986 H 91.1651 3.79569 1.73156 0
M  V30 987 H 89.7951 2.65872 1.83062 0
M  V30 988 H 88.8471 3.79152 -0.307826 0
M  V30 989 H 90.1591 4.98458 -0.184565 0
M  V30 990 H 89.3131 5.70747 2.05749 0
M  V30 991 H 88.0521 4.44316 2.01084 0
M  V30 992 H 87.0571 5.49786 -0.0385419 0
M  V30 993 H 88.2821 6.79095 0.0270945 0
M  V30 994 H 86.2281 6.18449 2.18761 0
M  V30 995 H 86.1451 7.48709 1.04738 0
M  V30 996 H 87.4131 7.4673 2.23639 0
M  V30 997 N 91.6422 0.330177 1.54103 0
M  V30 998 C 92.8902 -0.269871 2.0029 0
M  V30 999 C 93.2112 -1.52133 1.21986 0
M  V30 1000 O 92.4812 -1.93212 0.323438 0
M  V30 1001 H 91.0612 -0.10271 0.739905 0
M  V30 1002 H 93.7232 0.448249 1.89675 0
M  V30 1003 H 92.8192 -0.52166 3.07709 0
M  V30 1004 N 93.1203 -1.57491 0.0584922 0
M  V30 1005 C 94.3663 -1.93264 -0.614558 0
M  V30 1006 C 94.6993 -0.937717 -1.7006 0
M  V30 1007 O 93.9743 0.0351652 -1.94468 0
M  V30 1008 C 94.2573 -3.3938 -1.20386 0
M  V30 1009 C 94.1103 -4.49625 -0.125375 0
M  V30 1010 C 95.4293 -3.86039 -2.11334 0
M  V30 1011 H 92.5483 -0.702791 -0.221933 0
M  V30 1012 H 95.1903 -1.8961 0.12175 0
M  V30 1013 H 93.3403 -3.42626 -1.83139 0
M  V30 1014 H 95.0123 -4.58506 0.506971 0
M  V30 1015 H 93.2553 -4.30354 0.545672 0
M  V30 1016 H 93.9263 -5.48967 -0.577861 0
M  V30 1017 H 96.4023 -3.84716 -1.58534 0
M  V30 1018 H 95.2783 -4.88914 -2.49507 0
M  V30 1019 H 95.5393 -3.23215 -3.01636 0
M  V30 1020 N 94.5984 0.214957 -1.56127 0
M  V30 1021 C 95.8474 0.936451 -1.78643 0
M  V30 1022 C 96.1604 1.85237 -0.628229 0
M  V30 1023 O 97.3664 2.613 -0.737186 0
M  V30 1024 C 95.8224 1.7154 -3.16389 0
M  V30 1025 C 95.4304 0.845299 -4.39953 0
M  V30 1026 C 97.1744 2.42772 -3.48227 0
M  V30 1027 C 95.0814 1.62198 -5.68723 0
M  V30 1028 H 94.0114 0.353401 -0.666051 0
M  V30 1029 H 96.6624 0.190169 -1.82512 0
M  V30 1030 H 95.0444 2.50484 -3.06715 0
M  V30 1031 H 96.2184 0.0959353 -4.607 0
M  V30 1032 H 94.5334 0.244789 -4.1568 0
M  V30 1033 H 97.1304 3.01394 -4.41663 0
M  V30 1034 H 97.4734 3.15984 -2.71035 0
M  V30 1035 H 98.0064 1.70813 -3.5926 0
M  V30 1036 H 94.7454 0.933011 -6.48826 0
M  V30 1037 H 94.2654 2.34579 -5.52026 0
M  V30 1038 H 95.9444 2.18095 -6.09133 0
M  V30 1039 N 96.0765 1.50051 0.48192 0
M  V30 1040 C 97.4925 1.37237 0.814756 0
M  V30 1041 C 97.6925 0.420109 1.97072 0
M  V30 1042 O 96.7485 -0.141246 2.52105 0
M  V30 1043 C 98.0615 2.78375 1.13701 0
M  V30 1044 C 99.6095 2.87213 1.2441 0
M  V30 1045 C 100.084 4.29161 1.59954 0
M  V30 1046 N 101.575 4.32061 1.66967 0
M  V30 1047 C 102.31 5.38879 1.95952 0
M  V30 1048 N 101.806 6.55918 2.23031 0
M  V30 1049 N 103.599 5.26312 1.97363 0
M  V30 1050 H 95.7505 2.10546 -0.28005 0
M  V30 1051 H 98.0135 0.945921 -0.0627454 0
M  V30 1052 H 97.7195 3.49845 0.360787 0
M  V30 1053 H 97.5935 3.14941 2.07586 0
M  V30 1054 H 99.9805 2.15969 2.01101 0
M  V30 1055 H 100.061 2.54204 0.285299 0
M  V30 1056 H 99.7055 5.00938 0.838067 0
M  V30 1057 H 99.6355 4.59648 2.56966 0
M  V30 1058 H 102.126 3.47661 1.48123 0
M  V30 1059 H 102.439 7.33139 2.44391 0
M  V30 1060 H 100.784 6.59112 2.20447 0
M  V30 1061 H 103.975 4.33876 1.75697 0
M  V30 1062 H 104.148 6.09649 2.19618 0
M  V30 1063 N 97.5546 -0.734337 1.39446 0
M  V30 1064 C 98.8316 -1.48579 1.27215 0
M  V30 1065 C 99.2116 -2.1077 -0.117968 0
M  V30 1066 O 98.5596 -1.98646 -1.12924 0
M  V30 1067 C 98.7696 -2.53667 2.39696 0
M  V30 1068 C 100.118 -3.20031 2.79044 0
M  V30 1069 O 101.142 -2.6398 2.39151 0
M  V30 1070 O 100.001 -4.21455 3.47905 0
M  V30 1071 H 97.0946 -0.659816 0.49857 0
M  V30 1072 H 99.6406 -0.768106 1.51322 0
M  V30 1073 H 98.4126 -2.06096 3.32626 0
M  V30 1074 H 98.0356 -3.32994 2.17258 0
M  V30 1075 N 99.0327 -1.24633 -0.964593 0
M  V30 1076 C 100.31 -0.995809 -1.68354 0
M  V30 1077 C 100.69 0.480964 -2.05548 0
M  V30 1078 O 100.038 1.45599 -1.76105 0
M  V30 1079 C 100.248 -1.92177 -2.91323 0
M  V30 1080 C 101.596 -2.19446 -3.63495 0
M  V30 1081 O 102.62 -1.89855 -3.01386 0
M  V30 1082 O 101.479 -2.69714 -4.75307 0
M  V30 1083 H 98.5727 -0.376854 -0.736146 0
M  V30 1084 H 101.119 -1.35745 -1.0184 0
M  V30 1085 H 99.8907 -2.91938 -2.60553 0
M  V30 1086 H 99.5137 -1.56349 -3.65569 0
M  V30 1087 N 100.511 1.16574 -1.06058 0
M  V30 1088 C 101.758 1.87047 -0.775873 0
M  V30 1089 C 102.086 1.81562 0.697534 0
M  V30 1090 O 101.341 1.22445 1.52662 0
M  V30 1091 C 101.64 3.36195 -1.21275 0
M  V30 1092 C 101.306 3.6188 -2.68986 0
M  V30 1093 C 99.9678 3.68599 -3.09335 0
M  V30 1094 C 102.32 3.72648 -3.64394 0
M  V30 1095 C 99.6478 3.83584 -4.43937 0
M  V30 1096 C 102 3.89154 -4.98741 0
M  V30 1097 C 100.664 3.94114 -5.3873 0
M  V30 1098 H 99.9338 0.684452 -0.283912 0
M  V30 1099 H 102.581 1.37853 -1.32925 0
M  V30 1100 H 100.886 3.87505 -0.578528 0
M  V30 1101 H 102.583 3.89103 -0.969542 0
M  V30 1102 H 99.1728 3.57281 -2.36744 0
M  V30 1103 H 103.357 3.66769 -3.34356 0
M  V30 1104 H 98.6128 3.85677 -4.74409 0
M  V30 1105 H 102.787 3.96427 -5.72554 0
M  V30 1106 H 100.414 4.05478 -6.43033 0
M  V30 1107 N 101.989 0.842826 1.3317 0
M  V30 1108 C 103.266 0.362216 1.92217 0
M  V30 1109 C 103.646 -1.15289 1.76838 0
M  V30 1110 O 102.994 -1.96914 1.15919 0
M  V30 1111 C 103.204 0.813495 3.39387 0
M  V30 1112 C 104.552 0.823804 4.16532 0
M  V30 1113 O 105.576 0.757358 3.48055 0
M  V30 1114 O 104.435 0.915193 5.38782 0
M  V30 1115 H 101.529 0.103317 0.820521 0
M  V30 1116 H 104.075 0.928942 1.42017 0
M  V30 1117 H 102.847 1.85624 3.4447 0
M  V30 1118 H 102.47 0.223561 3.96971 0
M  V30 1119 N 103.467 -1.45747 0.599634 0
M  V30 1120 C 104.878 -1.85853 0.177681 0
M  V30 1121 C 105.229 -1.50102 -1.26348 0
M  V30 1122 O 104.354 -0.923905 -1.95686 0
M  V30 1123 C 104.949 -3.37326 0.315688 0
M  V30 1124 C 103.508 -3.76365 -0.0515144 0
M  V30 1125 C 102.655 -2.69722 0.643822 0
M  V30 1126 H 105.606 -1.36661 0.806814 0
M  V30 1127 H 105.627 -3.77778 -0.454321 0
M  V30 1128 H 105.139 -3.63315 1.36468 0
M  V30 1129 H 103.24 -3.55993 -1.09999 0
M  V30 1130 H 103.353 -4.77916 0.336594 0
M  V30 1131 H 101.717 -2.54567 0.0822881 0
M  V30 1132 H 102.5 -2.98549 1.6948 0
M  V30 1133 N 104.945 -0.338344 -1.53925 0
M  V30 1134 C 105.908 0.508299 -2.23493 0
M  V30 1135 C 106.908 1.03175 -1.23335 0
M  V30 1136 O 108.098 0.921826 -1.47811 0
M  V30 1137 C 105.23 1.70754 -2.95052 0
M  V30 1138 H 106.423 -0.100058 -2.99733 0
M  V30 1139 H 103.976 -0.0896198 -1.56043 0
M  V30 1140 H 104.711 2.35474 -2.22986 0
M  V30 1141 H 104.496 1.33946 -3.68512 0
M  V30 1142 H 105.986 2.30818 -3.48013 0
M  V30 1143 N 106.423 1.57458 -0.0668435 0
M  V30 1144 C 107.839 1.56947 0.289772 0
M  V30 1145 C 108.039 1.07584 1.70376 0
M  V30 1146 O 107.095 0.739486 2.41429 0
M  V30 1147 C 108.408 3.0052 0.103943 0
M  V30 1148 C 109.956 3.12517 0.173857 0
M  V30 1149 C 110.431 4.57997 0.0163682 0
M  V30 1150 N 111.922 4.63144 0.0721352 0
M  V30 1151 C 112.657 5.73394 -0.0253794 0
M  V30 1152 N 112.153 6.92576 -0.176133 0
M  V30 1153 N 113.946 5.62091 0.0313305 0
M  V30 1154 H 106.097 1.87863 -0.991027 0
M  V30 1155 H 108.36 0.86583 -0.38606 0
M  V30 1156 H 108.066 3.40729 -0.871572 0
M  V30 1157 H 107.94 3.67304 0.858366 0
M  V30 1158 H 110.327 2.72197 1.13985 0
M  V30 1159 H 110.408 2.48381 -0.611586 0
M  V30 1160 H 110.052 4.99005 -0.946374 0
M  V30 1161 H 109.982 5.20158 0.821153 0
M  V30 1162 H 112.473 3.77436 0.187263 0
M  V30 1163 H 112.786 7.72418 -0.242821 0
M  V30 1164 H 111.131 6.94678 -0.211429 0
M  V30 1165 H 114.322 4.67867 0.147773 0
M  V30 1166 H 114.495 6.47982 -0.048121 0
M  V30 1167 N 107.901 -0.206675 1.56239 0
M  V30 1168 C 109.15 -0.926964 1.79138 0
M  V30 1169 C 109.463 -1.84901 0.638043 0
M  V30 1170 O 110.669 -2.60906 0.751033 0
M  V30 1171 C 109.125 -1.6986 3.17294 0
M  V30 1172 C 108.733 -0.821956 4.40395 0
M  V30 1173 C 110.477 -2.40922 3.4951 0
M  V30 1174 C 108.384 -1.59179 5.69575 0
M  V30 1175 H 107.314 -0.349864 0.667915 0
M  V30 1176 H 109.965 -0.180487 1.8261 0
M  V30 1177 H 108.347 -2.48853 3.08039 0
M  V30 1178 H 109.521 -0.0715019 4.60745 0
M  V30 1179 H 107.836 -0.222741 4.15804 0
M  V30 1180 H 110.433 -2.99047 4.43255 0
M  V30 1181 H 110.776 -3.14542 2.72707 0
M  V30 1182 H 111.309 -1.68905 3.60161 0
M  V30 1183 H 108.048 -0.898589 6.49312 0
M  V30 1184 H 107.568 -2.31648 5.53262 0
M  V30 1185 H 109.247 -2.14862 6.10281 0
M  V30 1186 N 109.379 -1.50304 -0.473955 0
M  V30 1187 C 110.342 -1.6841 -1.55469 0
M  V30 1188 C 111.342 -0.554905 -1.50922 0
M  V30 1189 O 112.532 -0.821882 -1.53593 0
M  V30 1190 C 109.664 -1.70667 -2.95102 0
M  V30 1191 H 110.857 -2.64828 -1.40733 0
M  V30 1192 H 108.41 -1.39742 -0.700132 0
M  V30 1193 H 109.145 -0.75932 -3.15285 0
M  V30 1194 H 108.93 -2.52698 -2.9981 0
M  V30 1195 H 110.42 -1.8664 -3.73571 0
M  V30 1196 N 110.857 0.726932 -1.39834 0
M  V30 1197 C 111.82 1.82269 -1.38962 0
M  V30 1198 C 112.82 1.58248 -0.285334 0
M  V30 1199 O 114.01 1.65499 -0.54366 0
M  V30 1200 C 111.142 3.20186 -1.17019 0
M  V30 1201 H 112.335 1.84443 -2.36476 0
M  V30 1202 H 109.888 0.931416 -1.25516 0
M  V30 1203 H 110.623 3.23669 -0.202204 0
M  V30 1204 H 110.408 3.3902 -1.96998 0
M  V30 1205 H 111.898 4.00235 -1.1917 0
M  V30 1206 N 112.336 1.25143 0.95797 0
M  V30 1207 C 113.585 1.0909 1.69654 0
M  V30 1208 C 113.898 -0.368548 1.92097 0
M  V30 1209 O 115.104 -0.649455 2.63618 0
M  V30 1210 C 113.56 1.90395 3.05414 0
M  V30 1211 C 113.168 3.4081 2.90779 0
M  V30 1212 C 114.912 1.82901 3.83076 0
M  V30 1213 C 112.819 4.14423 4.21909 0
M  V30 1214 H 111.749 0.404625 0.636235 0
M  V30 1215 H 114.4 1.4931 1.06672 0
M  V30 1216 H 112.782 1.42996 3.69281 0
M  V30 1217 H 113.956 3.95859 2.35865 0
M  V30 1218 H 112.271 3.49361 2.26575 0
M  V30 1219 H 114.868 2.35196 4.80195 0
M  V30 1220 H 115.211 0.796224 4.08615 0
M  V30 1221 H 115.744 2.28033 3.25954 0
M  V30 1222 H 112.483 5.18102 4.01561 0
M  V30 1223 H 112.003 3.64159 4.76601 0
M  V30 1224 H 113.682 4.21956 4.90471 0
M  V30 1225 N 113.814 -1.1601 1.06675 0
M  V30 1226 C 115.044 -1.90251 0.805497 0
M  V30 1227 C 115.452 -1.77891 -0.64431 0
M  V30 1228 O 114.795 -1.12383 -1.45313 0
M  V30 1229 C 114.857 -3.41419 1.12576 0
M  V30 1230 C 114.521 -3.77564 2.57477 0
M  V30 1231 C 115.518 -3.79161 3.55715 0
M  V30 1232 C 113.203 -4.08079 2.92877 0
M  V30 1233 C 115.197 -4.10767 4.8739 0
M  V30 1234 C 112.884 -4.39351 4.24751 0
M  V30 1235 C 113.882 -4.40675 5.21818 0
M  V30 1236 O 113.57 -4.71202 6.51325 0
M  V30 1237 H 113.302 -0.610018 0.291297 0
M  V30 1238 H 115.856 -1.47958 1.4247 0
M  V30 1239 H 114.086 -3.84079 0.449503 0
M  V30 1240 H 115.775 -3.9694 0.84814 0
M  V30 1241 H 116.541 -3.55693 3.29708 0
M  V30 1242 H 112.42 -4.06211 2.17976 0
M  V30 1243 H 115.964 -4.11715 5.63148 0
M  V30 1244 H 111.861 -4.62285 4.50514 0
M  V30 1245 H 112.629 -4.88996 6.56373 0
M  V30 1246 N 115.292 -0.849877 -1.32721 0
M  V30 1247 C 116.239 -0.289033 -2.28983 0
M  V30 1248 C 117.209 0.601324 -1.54833 0
M  V30 1249 O 118.394 0.537253 -1.8308 0
M  V30 1250 C 115.534 0.520623 -3.4115 0
M  V30 1251 C 114.647 -0.394989 -4.3019 0
M  V30 1252 C 113.782 0.426834 -5.29482 0
M  V30 1253 C 112.821 -0.486476 -6.10164 0
M  V30 1254 N 111.958 0.297879 -7.01468 0
M  V30 1255 H 116.798 -1.11519 -2.76347 0
M  V30 1256 H 114.335 -0.56138 -1.35967 0
M  V30 1257 H 116.293 1.00563 -4.04899 0
M  V30 1258 H 114.923 1.31165 -2.9495 0
M  V30 1259 H 113.975 -0.99836 -3.67065 0
M  V30 1260 H 115.287 -1.09612 -4.86607 0
M  V30 1261 H 114.441 0.975205 -5.98811 0
M  V30 1262 H 113.18 1.16136 -4.73671 0
M  V30 1263 H 112.185 -1.04677 -5.39743 0
M  V30 1264 H 113.41 -1.21953 -6.6806 0
M  V30 1265 H 111.356 1.01558 -6.48091 0
M  V30 1266 H 111.273 -0.344318 -7.55216 0
M  V30 1267 H 112.541 0.828131 -7.75089 0
M  V30 1268 N 116.77 1.45427 -0.607355 0
M  V30 1269 C 117.72 2.27612 0.133038 0
M  V30 1270 C 118.704 1.37307 0.838785 0
M  V30 1271 O 119.896 1.61299 0.728813 0
M  V30 1272 C 117.025 3.24173 1.12991 0
M  V30 1273 C 116.111 4.21965 0.425011 0
M  V30 1274 N 116.502 5.02982 -0.533217 0
M  V30 1275 C 114.8 4.40899 0.672593 0
M  V30 1276 C 115.501 5.73931 -0.947518 0
M  V30 1277 N 114.477 5.42819 -0.291321 0
M  V30 1278 H 118.279 2.87649 -0.602935 0
M  V30 1279 H 115.793 1.56576 -0.431006 0
M  V30 1280 H 117.79 3.81783 1.67473 0
M  V30 1281 H 116.45 2.65696 1.86644 0
M  V30 1282 H 117.461 5.09843 -0.90995 0
M  V30 1283 H 114.138 3.93547 1.39382 0
M  V30 1284 H 115.528 6.49037 -1.73782 0
M  V30 1285 N 118.248 0.346503 1.53744 0
M  V30 1286 C 119.478 -0.250047 2.05081 0
M  V30 1287 C 119.886 -1.44529 1.22098 0
M  V30 1288 O 119.229 -1.81992 0.249917 0
M  V30 1289 C 119.291 -0.725934 3.52094 0
M  V30 1290 C 118.955 0.350053 4.55657 0
M  V30 1291 C 119.952 1.19372 5.0601 0
M  V30 1292 C 117.637 0.504827 4.99757 0
M  V30 1293 C 119.631 2.17768 5.99046 0
M  V30 1294 C 117.318 1.49218 5.92602 0
M  V30 1295 C 118.316 2.32706 6.42135 0
M  V30 1296 O 118.004 3.2976 7.33153 0
M  V30 1297 H 117.736 -0.0515469 0.674032 0
M  V30 1298 H 120.29 0.497559 1.99282 0
M  V30 1299 H 118.52 -1.52483 3.55367 0
M  V30 1300 H 120.209 -1.24336 3.86388 0
M  V30 1301 H 120.975 1.08525 4.72702 0
M  V30 1302 H 116.854 -0.135178 4.60802 0
M  V30 1303 H 120.398 2.82971 6.37631 0
M  V30 1304 H 116.295 1.6012 6.25325 0
M  V30 1305 H 117.063 3.25265 7.51096 0
M  V30 1306 N 119.726 -1.57421 0.075193 0
M  V30 1307 C 120.689 -2.11791 -0.876203 0
M  V30 1308 C 121.689 -1.04268 -1.22412 0
M  V30 1309 O 122.879 -1.30242 -1.15684 0
M  V30 1310 C 120.011 -2.62207 -2.17854 0
M  V30 1311 H 121.204 -2.9716 -0.40444 0
M  V30 1312 H 118.757 -1.55333 -0.173557 0
M  V30 1313 H 119.492 -1.803 -2.6956 0
M  V30 1314 H 119.277 -3.40802 -1.93897 0
M  V30 1315 H 120.767 -3.04335 -2.85955 0
M  V30 1316 N 121.204 0.198386 -1.56346 0
M  V30 1317 C 122.429 0.939682 -1.84891 0
M  V30 1318 C 122.854 1.76202 -0.658369 0
M  V30 1319 O 122.212 1.76993 0.392851 0
M  V30 1320 C 122.26 1.81428 -3.11635 0
M  V30 1321 O 121.364 2.91265 -2.91956 0
M  V30 1322 H 120.705 0.264807 -0.608912 0
M  V30 1323 H 123.235 0.204695 -2.03573 0
M  V30 1324 H 123.245 2.21958 -3.42343 0
M  V30 1325 H 121.92 1.21004 -3.97908 0
M  V30 1326 H 120.497 2.54514 -2.72538 0
M  V30 1327 N 122.682 1.50554 0.465978 0
M  V30 1328 C 123.645 1.69233 1.54574 0
M  V30 1329 C 124.645 0.562901 1.50626 0
M  V30 1330 O 125.835 0.830016 1.53155 0
M  V30 1331 C 122.967 1.7223 2.94193 0
M  V30 1332 H 124.16 2.65571 1.39327 0
M  V30 1333 H 121.713 1.40111 0.692711 0
M  V30 1334 H 122.448 0.77603 3.14878 0
M  V30 1335 H 122.233 2.54285 2.98466 0
M  V30 1336 H 123.723 1.88618 3.72576 0
M  V30 1337 N 124.16 -0.719506 1.40217 0
M  V30 1338 C 125.409 -1.47486 1.37589 0
M  V30 1339 C 125.722 -1.9559 -0.0201568 0
M  V30 1340 O 126.928 -2.70973 -0.169049 0
M  V30 1341 C 125.384 -2.66575 2.41796 0
M  V30 1342 C 124.992 -2.25358 3.87192 0
M  V30 1343 C 126.736 -3.4433 2.48269 0
M  V30 1344 C 124.643 -3.41262 4.83005 0
M  V30 1345 H 123.573 -0.553901 0.511576 0
M  V30 1346 H 126.224 -0.783427 1.65936 0
M  V30 1347 H 124.606 -3.3787 2.06543 0
M  V30 1348 H 125.78 -1.61509 4.31569 0
M  V30 1349 H 124.095 -1.60657 3.84159 0
M  V30 1350 H 126.692 -4.30569 3.17041 0
M  V30 1351 H 127.035 -3.87872 1.51198 0
M  V30 1352 H 127.568 -2.80076 2.82493 0
M  V30 1353 H 124.307 -3.02755 5.81394 0
M  V30 1354 H 123.827 -4.0404 4.43297 0
M  V30 1355 H 125.506 -4.07383 5.02641 0
M  V30 1356 N 125.638 -1.25649 -0.95132 0
M  V30 1357 C 126.863 -1.13443 -1.73624 0
M  V30 1358 C 127.288 0.307565 -1.85568 0
M  V30 1359 O 126.646 1.22282 -1.33854 0
M  V30 1360 C 126.694 -1.79723 -3.12621 0
M  V30 1361 O 125.798 -1.07912 -3.98031 0
M  V30 1362 H 125.139 -0.395872 -0.533086 0
M  V30 1363 H 127.669 -1.66276 -1.1922 0
M  V30 1364 H 127.679 -1.86141 -3.63064 0
M  V30 1365 H 126.354 -2.84633 -3.03244 0
M  V30 1366 H 124.931 -1.09398 -3.56492 0
M  V30 1367 N 127.117 1.15442 -1.07289 0
M  V30 1368 C 128.363 1.86489 -0.796846 0
M  V30 1369 C 128.696 1.82078 0.675371 0
M  V30 1370 O 127.971 1.24346 1.4956 0
M  V30 1371 C 128.254 3.35626 -1.30489 0
M  V30 1372 C 128.107 3.48673 -2.84161 0
M  V30 1373 C 129.426 4.30357 -0.920907 0
M  V30 1374 H 126.545 0.677144 -0.290939 0
M  V30 1375 H 129.187 1.35633 -1.33056 0
M  V30 1376 H 127.337 3.79068 -0.850883 0
M  V30 1377 H 129.009 3.14099 -3.37846 0
M  V30 1378 H 127.252 2.90253 -3.22391 0
M  V30 1379 H 127.923 4.53453 -3.14777 0
M  V30 1380 H 130.399 3.94871 -1.3121 0
M  V30 1381 H 129.275 5.33193 -1.30372 0
M  V30 1382 H 129.536 4.4176 0.173226 0
M  V30 1383 N 128.595 0.856903 1.32268 0
M  V30 1384 C 129.525 0.31858 2.31316 0
M  V30 1385 C 130.506 -0.583487 1.59779 0
M  V30 1386 O 131.691 -0.503259 1.87566 0
M  V30 1387 C 128.821 -0.491979 3.43798 0
M  V30 1388 C 127.775 0.315849 4.26833 0
M  V30 1389 C 127.101 -0.619586 5.31098 0
M  V30 1390 C 128.401 1.54282 4.98993 0
M  V30 1391 H 130.095 1.14621 2.76591 0
M  V30 1392 H 127.641 0.552613 1.32974 0
M  V30 1393 H 129.594 -0.879012 4.1213 0
M  V30 1394 H 128.318 -1.35299 2.97257 0
M  V30 1395 H 126.977 0.684664 3.6015 0
M  V30 1396 H 126.625 -1.47751 4.8081 0
M  V30 1397 H 126.325 -0.0830621 5.87541 0
M  V30 1398 H 127.849 -1.00375 6.02293 0
M  V30 1399 H 129.263 1.22796 5.59995 0
M  V30 1400 H 127.66 2.01745 5.65172 0
M  V30 1401 H 128.73 2.30285 4.26728 0
M  V30 1402 N 130.073 -1.45103 0.615059 0
M  V30 1403 C 131.301 -2.06553 0.11977 0
M  V30 1404 C 131.716 -1.45842 -1.19898 0
M  V30 1405 O 131.073 -0.575325 -1.73194 0
M  V30 1406 C 131.124 -3.61495 -0.018364 0
M  V30 1407 O 130.845 -4.19942 1.24822 0
M  V30 1408 C 132.346 -4.39947 -0.544237 0
M  V30 1409 H 129.566 -0.667096 0.0722739 0
M  V30 1410 H 132.11 -1.8623 0.84491 0
M  V30 1411 H 130.265 -3.81135 -0.693865 0
M  V30 1412 H 130.679 -5.13204 1.0827 0
M  V30 1413 H 132.153 -5.48838 -0.589953 0
M  V30 1414 H 132.63 -4.10255 -1.56805 0
M  V30 1415 H 133.236 -4.25188 0.0974703 0
M  V30 1416 N 131.551 -0.354651 -1.53558 0
M  V30 1417 C 132.828 0.294281 -1.93374 0
M  V30 1418 C 133.208 1.67313 -1.28723 0
M  V30 1419 O 132.556 2.24179 -0.442247 0
M  V30 1420 C 132.766 0.355445 -3.47185 0
M  V30 1421 C 134.114 0.601007 -4.20325 0
M  V30 1422 O 135.138 0.437106 -3.53508 0
M  V30 1423 O 133.997 0.919322 -5.38712 0
M  V30 1424 H 131.091 0.174033 -0.808481 0
M  V30 1425 H 133.637 -0.406638 -1.64756 0
M  V30 1426 H 132.409 -0.611729 -3.86489 0
M  V30 1427 H 132.032 1.1027 -3.82003 0
M  V30 1428 N 133.029 1.57378 -0.0835403 0
M  V30 1429 C 133.939 2.16897 0.894021 0
M  V30 1430 C 134.955 1.13528 1.31861 0
M  V30 1431 O 136.131 1.45848 1.3889 0
M  V30 1432 C 133.196 2.72831 2.13925 0
M  V30 1433 C 132.257 3.91115 1.76997 0
M  V30 1434 C 131.49 4.44371 2.95584 0
M  V30 1435 O 131.713 3.96596 4.09961 0
M  V30 1436 O 130.647 5.35549 2.74719 0
M  V30 1437 H 134.473 3.00814 0.417679 0
M  V30 1438 H 132.058 1.48741 0.140181 0
M  V30 1439 H 133.94 3.0863 2.86924 0
M  V30 1440 H 132.615 1.91967 2.60635 0
M  V30 1441 H 131.522 3.60148 1.01214 0
M  V30 1442 H 132.855 4.73307 1.3506 0
M  V30 1443 N 134.507 -0.190092 1.56449 0
M  V30 1444 C 135.454 -1.23557 1.94942 0
M  V30 1445 C 136.424 -1.44972 0.810696 0
M  V30 1446 O 137.609 -1.58023 1.06927 0
M  V30 1447 C 134.749 -2.57416 2.2985 0
M  V30 1448 C 133.862 -2.43537 3.5681 0
M  V30 1449 C 132.997 -3.70134 3.81017 0
M  V30 1450 C 132.036 -3.51109 5.01387 0
M  V30 1451 N 131.173 -4.6973 5.21822 0
M  V30 1452 H 136.013 -0.900304 2.84075 0
M  V30 1453 H 133.55 -0.43318 1.40577 0
M  V30 1454 H 135.508 -3.35409 2.48106 0
M  V30 1455 H 134.138 -2.88975 1.43852 0
M  V30 1456 H 133.19 -1.56816 3.46573 0
M  V30 1457 H 134.502 -2.25415 4.4496 0
M  V30 1458 H 133.656 -4.56566 3.9954 0
M  V30 1459 H 132.395 -3.91215 2.91207 0
M  V30 1460 H 131.4 -2.63063 4.82782 0
M  V30 1461 H 132.625 -3.31468 5.9271 0
M  V30 1462 H 130.571 -4.91065 4.34961 0
M  V30 1463 H 130.488 -4.54452 6.0416 0
M  V30 1464 H 131.756 -5.57499 5.44808 0
M  V30 1465 N 135.985 -1.50799 -0.457987 0
M  V30 1466 C 137.215 -1.65977 -1.23025 0
M  V30 1467 C 137.623 -0.347918 -1.85974 0
M  V30 1468 O 136.966 0.68148 -1.70592 0
M  V30 1469 C 137.028 -2.70309 -2.3701 0
M  V30 1470 C 136.692 -4.135 -1.94594 0
M  V30 1471 C 137.689 -4.98949 -1.46101 0
M  V30 1472 C 135.374 -4.5949 -2.02915 0
M  V30 1473 C 137.368 -6.28442 -1.06489 0
M  V30 1474 C 135.055 -5.88984 -1.62914 0
M  V30 1475 C 136.053 -6.73286 -1.1478 0
M  V30 1476 O 135.741 -8.00362 -0.75339 0
M  V30 1477 H 135.473 -0.56064 -0.377702 0
M  V30 1478 H 138.027 -1.97857 -0.551537 0
M  V30 1479 H 136.257 -2.337 -3.08093 0
M  V30 1480 H 137.946 -2.74574 -2.98938 0
M  V30 1481 H 138.712 -4.6463 -1.39084 0
M  V30 1482 H 134.591 -3.94009 -2.39328 0
M  V30 1483 H 138.135 -6.94194 -0.688488 0
M  V30 1484 H 134.032 -6.22822 -1.69595 0
M  V30 1485 H 134.8 -8.13744 -0.88108 0
M  V30 1486 N 137.463 0.71206 -1.40597 0
M  V30 1487 C 138.71 1.47197 -1.39065 0
M  V30 1488 C 139.038 1.94499 0.00583891 0
M  V30 1489 O 138.293 1.68752 0.99102 0
M  V30 1490 C 138.592 2.71039 -2.32965 0
M  V30 1491 C 138.258 2.42484 -3.80148 0
M  V30 1492 C 136.92 2.34406 -4.20247 0
M  V30 1493 C 139.272 2.18598 -4.73143 0
M  V30 1494 C 136.6 2.00516 -5.51371 0
M  V30 1495 C 138.952 1.8622 -6.0457 0
M  V30 1496 C 137.616 1.76626 -6.43708 0
M  V30 1497 H 136.886 0.538634 -0.508876 0
M  V30 1498 H 139.533 0.815325 -1.73276 0
M  V30 1499 H 137.838 3.41558 -1.91951 0
M  V30 1500 H 139.535 3.29138 -2.29061 0
M  V30 1501 H 136.125 2.49659 -3.4838 0
M  V30 1502 H 140.309 2.23793 -4.42979 0
M  V30 1503 H 135.565 1.91628 -5.80593 0
M  V30 1504 H 139.739 1.66752 -6.76141 0
M  V30 1505 H 137.366 1.50133 -7.45228 0
M  V30 1506 N 138.941 1.26152 0.944643 0
M  V30 1507 C 139.873 1.03199 2.04652 0
M  V30 1508 C 140.886 -0.00642356 1.62799 0
M  V30 1509 O 142.075 0.233263 1.76969 0
M  V30 1510 C 139.175 0.540111 3.34568 0
M  V30 1511 C 138.348 1.64697 4.05208 0
M  V30 1512 C 137.407 1.15374 5.13396 0
M  V30 1513 O 136.433 1.85013 5.38293 0
M  V30 1514 N 137.635 0.00031529 5.805 0
M  V30 1515 H 140.4 1.9808 2.2491 0
M  V30 1516 H 137.961 1.17491 1.11389 0
M  V30 1517 H 139.953 0.194401 4.04233 0
M  V30 1518 H 138.523 -0.315021 3.11009 0
M  V30 1519 H 137.743 2.16379 3.29506 0
M  V30 1520 H 139.031 2.3903 4.49157 0
M  V30 1521 H 138.429 -0.581336 5.62705 0
M  V30 1522 H 136.986 -0.286346 6.51171 0
M  V30 1523 N 140.419 -1.14872 1.07899 0
M  V30 1524 C 141.667 -1.85422 0.803941 0
M  V30 1525 C 141.988 -1.83051 -0.67211 0
M  V30 1526 O 141.258 -1.27532 -1.48703 0
M  V30 1527 H 139.838 -0.686537 0.294408 0
M  V30 1528 H 142.5 -1.39226 1.3639 0
M  V30 1529 H 141.596 -2.90399 1.14346 0
M  V30 1530 N 141.898 -0.863906 -1.31812 0
M  V30 1531 C 143.123 -0.48527 -2.01643 0
M  V30 1532 C 143.548 0.913058 -1.64453 0
M  V30 1533 O 142.906 1.6014 -0.849985 0
M  V30 1534 C 142.954 -0.642625 -3.54828 0
M  V30 1535 O 142.058 0.320659 -4.11151 0
M  V30 1536 H 141.399 -0.193793 -0.635091 0
M  V30 1537 H 143.929 -1.16565 -1.68148 0
M  V30 1538 H 143.939 -0.533628 -4.04495 0
M  V30 1539 H 142.614 -1.66227 -3.81237 0
M  V30 1540 H 141.191 0.167126 -3.72525 0
M  V30 1541 N 143.376 1.44774 -0.622745 0
M  V30 1542 C 144.623 2.02121 -0.1239 0
M  V30 1543 C 144.951 1.48915 1.25118 0
M  V30 1544 O 144.206 0.660045 1.84233 0
M  V30 1545 C 144.505 3.57364 -0.0508323 0
M  V30 1546 C 144.171 4.29787 -1.36358 0
M  V30 1547 C 142.833 4.4929 -1.72314 0
M  V30 1548 C 145.185 4.71062 -2.23048 0
M  V30 1549 C 142.513 5.07325 -2.94682 0
M  V30 1550 C 144.865 5.30452 -3.44679 0
M  V30 1551 C 143.529 5.48175 -3.80868 0
M  V30 1552 H 142.799 0.739612 -0.0453381 0
M  V30 1553 H 145.446 1.73648 -0.807389 0
M  V30 1554 H 143.751 3.85202 0.715991 0
M  V30 1555 H 145.448 3.99456 0.351533 0
M  V30 1556 H 142.038 4.14932 -1.07375 0
M  V30 1557 H 146.222 4.55715 -1.96565 0
M  V30 1558 H 141.478 5.19235 -3.22809 0
M  V30 1559 H 145.652 5.61385 -4.12092 0
M  V30 1560 H 143.279 5.92912 -4.75773 0
M  V30 1561 N 144.854 0.36279 1.53368 0
M  V30 1562 C 145.802 -0.500155 2.27159 0
M  V30 1563 C 146.796 -1.08575 1.3003 0
M  V30 1564 O 148.002 -1.02927 1.47668 0
M  V30 1565 H 144.377 -0.180009 0.730138 0
M  V30 1566 H 146.348 0.14401 2.98052 0
M  V30 1567 C 145.097 -1.62937 3.07159 0
M  V30 1568 H 144.42 -1.18806 3.8174 0
M  V30 1569 H 145.86 -2.20795 3.61975 0
M  V30 1570 C 144.319 -2.57007 2.17829 0
M  V30 1571 O 144.849 -3.59752 1.78721 0
M  V30 1572 N 143.055 -2.26131 1.82518 0
M  V30 1573 H 142.602 -1.42616 2.14519 0
M  V30 1574 H 142.56 -2.89327 1.23034 0
M  V30 1575 N 146.332 -1.57332 0.0918853 0
M  V30 1576 C 147.579 -1.94236 -0.572577 0
M  V30 1577 C 147.907 -0.973398 -1.6839 0
M  V30 1578 O 147.162 0.00756912 -1.95699 0
M  V30 1579 C 147.461 -3.37689 -1.17051 0
M  V30 1580 C 147.127 -4.50527 -0.183304 0
M  V30 1581 C 145.789 -4.81119 0.0882276 0
M  V30 1582 C 148.141 -5.18883 0.49095 0
M  V30 1583 C 145.469 -5.77395 1.04076 0
M  V30 1584 C 147.821 -6.1618 1.43193 0
M  V30 1585 C 146.485 -6.45179 1.71173 0
M  V30 1586 H 145.755 -0.710762 -0.209521 0
M  V30 1587 H 148.402 -1.9077 0.167036 0
M  V30 1588 H 146.707 -3.37718 -1.9863 0
M  V30 1589 H 148.404 -3.63543 -1.69227 0
M  V30 1590 H 144.994 -4.26681 -0.405124 0
M  V30 1591 H 149.178 -4.95427 0.294312 0
M  V30 1592 H 144.434 -5.98179 1.26457 0
M  V30 1593 H 148.608 -6.68243 1.96023 0
M  V30 1594 H 146.235 -7.1959 2.4514 0
M  V30 1595 N 147.81 0.181792 -1.56548 0
M  V30 1596 C 148.74 1.22765 -1.98623 0
M  V30 1597 C 149.721 1.46747 -0.860189 0
M  V30 1598 O 150.906 1.58259 -1.12551 0
M  V30 1599 C 148.036 2.56894 -2.33715 0
M  V30 1600 C 146.99 2.475 -3.49182 0
M  V30 1601 C 146.316 3.86023 -3.69986 0
M  V30 1602 C 147.616 1.98866 -4.82959 0
M  V30 1603 H 149.31 0.877942 -2.86239 0
M  V30 1604 H 146.856 0.42088 -1.37712 0
M  V30 1605 H 148.809 3.30253 -2.61746 0
M  V30 1606 H 147.533 2.93632 -1.42997 0
M  V30 1607 H 146.192 1.76596 -3.21262 0
M  V30 1608 H 145.84 4.20136 -2.76576 0
M  V30 1609 H 145.54 3.80609 -4.47672 0
M  V30 1610 H 147.064 4.60984 -4.00407 0
M  V30 1611 H 148.478 2.61992 -5.09934 0
M  V30 1612 H 146.875 2.04424 -5.64208 0
M  V30 1613 H 147.945 0.942465 -4.75653 0
M  V30 1614 N 149.288 1.51039 0.449983 0
M  V30 1615 C 150.699 1.557 1.03026 0
M  V30 1616 C 151.05 0.372939 1.92623 0
M  V30 1617 O 150.175 -0.511771 2.10261 0
M  V30 1618 C 150.77 2.82171 1.87523 0
M  V30 1619 C 149.329 2.89444 2.40622 0
M  V30 1620 C 148.476 2.50228 1.19504 0
M  V30 1621 H 151.427 1.56999 0.231745 0
M  V30 1622 H 151.448 2.65219 2.72835 0
M  V30 1623 H 150.96 3.68331 1.22286 0
M  V30 1624 H 149.061 2.07685 3.0935 0
M  V30 1625 H 149.174 3.92816 2.74285 0
M  V30 1626 H 147.538 2.03139 1.53644 0
M  V30 1627 H 148.321 3.38719 0.558972 0
M  V30 1628 N 150.766 -0.704594 1.40972 0
M  V30 1629 C 152.015 -1.46018 1.39146 0
M  V30 1630 C 152.328 -1.956 0.000589254 0
M  V30 1631 O 153.534 -2.71137 -0.1403 0
M  V30 1632 C 151.99 -2.63996 2.4461 0
M  V30 1633 C 151.598 -2.21238 3.89561 0
M  V30 1634 C 153.342 -3.41677 2.51907 0
M  V30 1635 C 151.249 -3.3612 4.86598 0
M  V30 1636 H 150.179 -0.548444 0.517422 0
M  V30 1637 H 152.83 -0.765784 1.66757 0
M  V30 1638 H 151.212 -3.3566 2.10115 0
M  V30 1639 H 152.386 -1.56923 4.33257 0
M  V30 1640 H 150.701 -1.56574 3.85841 0
M  V30 1641 H 153.298 -4.27182 3.2159 0
M  V30 1642 H 153.641 -3.86247 1.55303 0
M  V30 1643 H 154.174 -2.77064 2.85448 0
M  V30 1644 H 150.913 -2.96572 5.84573 0
M  V30 1645 H 150.433 -3.99315 4.47557 0
M  V30 1646 H 152.112 -4.02029 5.06934 0
M  V30 1647 N 152.244 -1.26651 -0.937939 0
M  V30 1648 C 153.49 -1.12553 -1.687 0
M  V30 1649 C 153.823 0.329782 -1.91379 0
M  V30 1650 O 153.098 1.24202 -1.4968 0
M  V30 1651 C 153.381 -1.89862 -3.05981 0
M  V30 1652 C 153.234 -3.43318 -2.90607 0
M  V30 1653 C 154.553 -1.69499 -4.0615 0
M  V30 1654 H 151.672 -0.410257 -0.612257 0
M  V30 1655 H 154.314 -1.55685 -1.08913 0
M  V30 1656 H 152.464 -1.53204 -3.57017 0
M  V30 1657 H 154.136 -3.89747 -2.46769 0
M  V30 1658 H 152.379 -3.70179 -2.26164 0
M  V30 1659 H 153.05 -3.92642 -3.8799 0
M  V30 1660 H 155.526 -2.01442 -3.64088 0
M  V30 1661 H 154.402 -2.26002 -5.00214 0
M  V30 1662 H 154.663 -0.640365 -4.37438 0
M  V30 1663 N 153.722 1.14298 -1.08507 0
M  V30 1664 C 154.947 1.8976 -0.837001 0
M  V30 1665 C 155.372 1.78097 0.605228 0
M  V30 1666 O 154.73 1.12188 1.4242 0
M  V30 1667 C 154.778 3.37685 -1.26495 0
M  V30 1668 O 153.882 4.10281 -0.417514 0
M  V30 1669 H 153.223 0.590365 -0.303917 0
M  V30 1670 H 155.753 1.44672 -1.44676 0
M  V30 1671 H 155.763 3.88501 -1.24625 0
M  V30 1672 H 154.438 3.45492 -2.31534 0
M  V30 1673 H 153.015 3.69536 -0.499722 0
M  V30 1674 N 155.201 0.870884 1.31352 0
M  V30 1675 C 156.133 0.28455 2.27427 0
M  V30 1676 C 157.146 -0.552927 1.53123 0
M  V30 1677 O 158.335 -0.374771 1.74521 0
M  V30 1678 C 155.435 -0.615164 3.3327 0
M  V30 1679 C 154.608 0.190079 4.36987 0
M  V30 1680 C 153.667 -0.637917 5.22319 0
M  V30 1681 O 152.693 -0.065626 5.69162 0
M  V30 1682 N 153.895 -1.94973 5.46778 0
M  V30 1683 H 156.66 1.11017 2.7838 0
M  V30 1684 H 154.221 0.732458 1.44384 0
M  V30 1685 H 156.213 -1.1748 3.87273 0
M  V30 1686 H 154.783 -1.34146 2.82354 0
M  V30 1687 H 154.003 0.931165 3.83044 0
M  V30 1688 H 155.291 0.742579 5.03352 0
M  V30 1689 H 154.689 -2.4378 5.10478 0
M  V30 1690 H 153.246 -2.45713 6.03712 0
M  V30 1691 N 156.679 -1.44442 0.630414 0
M  V30 1692 C 157.928 -2.01267 0.132073 0
M  V30 1693 C 158.241 -1.50172 -1.25331 0
M  V30 1694 O 159.447 -1.9912 -1.84562 0
M  V30 1695 C 157.903 -3.59422 0.185362 0
M  V30 1696 C 157.511 -4.19514 1.57201 0
M  V30 1697 C 159.255 -4.23724 -0.256553 0
M  V30 1698 C 157.162 -5.69891 1.58045 0
M  V30 1699 H 156.092 -0.752619 0.0456092 0
M  V30 1700 H 158.743 -1.65666 0.789106 0
M  V30 1701 H 157.125 -3.92318 -0.538759 0
M  V30 1702 H 158.299 -3.98156 2.31966 0
M  V30 1703 H 156.614 -3.67496 1.95795 0
M  V30 1704 H 159.211 -5.34019 -0.269767 0
M  V30 1705 H 159.554 -3.96013 -1.28372 0
M  V30 1706 H 160.087 -3.95629 0.41505 0
M  V30 1707 H 156.826 -6.02336 2.58597 0
M  V30 1708 H 156.346 -5.93373 0.875725 0
M  V30 1709 H 158.025 -6.33515 1.31408 0
M  V30 1710 N 158.157 -0.370918 -1.53173 0
M  V30 1711 C 159.12 0.460778 -2.24521 0
M  V30 1712 C 160.12 1.00536 -1.25496 0
M  V30 1713 O 161.31 0.890266 -1.49733 0
M  V30 1714 C 158.442 1.64457 -2.98608 0
M  V30 1715 H 159.635 -0.163613 -2.99453 0
M  V30 1716 H 157.188 -0.122699 -1.55818 0
M  V30 1717 H 157.923 2.30691 -2.2793 0
M  V30 1718 H 157.708 1.26099 -3.7127 0
M  V30 1719 H 159.198 2.23384 -3.5283 0
M  V30 1720 N 159.635 1.57281 -0.100228 0
M  V30 1721 C 161.046 1.81725 0.428107 0
M  V30 1722 C 161.397 1.01619 1.67833 0
M  V30 1723 O 160.522 0.247098 2.14985 0
M  V30 1724 C 161.117 3.29617 0.78347 0
M  V30 1725 C 159.676 3.54808 1.25653 0
M  V30 1726 C 158.823 2.76118 0.255752 0
M  V30 1727 H 161.774 1.55324 -0.325608 0
M  V30 1728 H 161.795 3.4322 1.64256 0
M  V30 1729 H 161.307 3.87893 -0.12665 0
M  V30 1730 H 159.408 3.01868 2.18418 0
M  V30 1731 H 159.521 4.63443 1.21482 0
M  V30 1732 H 157.885 2.43745 0.738956 0
M  V30 1733 H 158.668 3.37145 -0.647136 0
M  V30 1734 N 161.113 -0.173488 1.56642 0
M  V30 1735 C 162.045 -1.23935 1.92802 0
M  V30 1736 C 163.058 -1.40589 0.820889 0
M  V30 1737 O 164.247 -1.40631 1.09933 0
M  V30 1738 C 161.347 -2.60837 2.16373 0
M  V30 1739 C 160.52 -2.6551 3.47596 0
M  V30 1740 C 159.579 -3.8376 3.60021 0
M  V30 1741 O 158.605 -3.69859 4.32658 0
M  V30 1742 N 159.807 -5.00127 2.94709 0
M  V30 1743 H 162.572 -0.932236 2.84832 0
M  V30 1744 H 160.133 -0.363268 1.57772 0
M  V30 1745 H 162.125 -3.38407 2.21952 0
M  V30 1746 H 160.695 -2.83948 1.30738 0
M  V30 1747 H 159.915 -1.74052 3.53694 0
M  V30 1748 H 161.203 -2.65641 4.33949 0
M  V30 1749 H 160.601 -5.14322 2.35563 0
M  V30 1750 H 159.158 -5.75567 3.05886 0
M  V30 1751 N 162.591 -1.51276 -0.441967 0
M  V30 1752 C 164.002 -1.56244 -1.02199 0
M  V30 1753 C 164.353 -0.383149 -1.92422 0
M  V30 1754 O 163.478 0.500613 -2.1053 0
M  V30 1755 C 164.073 -2.83162 -1.86024 0
M  V30 1756 C 162.632 -2.90716 -2.39084 0
M  V30 1757 C 161.779 -2.50858 -1.18175 0
M  V30 1758 H 164.73 -1.5712 -0.223416 0
M  V30 1759 H 164.751 -2.66663 -2.71425 0
M  V30 1760 H 164.263 -3.68974 -1.20331 0
M  V30 1761 H 162.364 -2.09323 -3.08244 0
M  V30 1762 H 162.477 -3.94266 -2.72198 0
M  V30 1763 H 160.841 -2.03951 -1.52565 0
M  V30 1764 H 161.624 -3.3901 -0.541001 0
M  V30 1765 N 164.069 0.697108 -1.41344 0
M  V30 1766 C 165.318 1.45279 -1.39918 0
M  V30 1767 C 165.631 1.95597 -0.0109624 0
M  V30 1768 O 166.837 2.71208 0.125919 0
M  V30 1769 C 165.293 2.62695 -2.46007 0
M  V30 1770 C 164.901 2.19169 -3.90729 0
M  V30 1771 C 166.645 3.40336 -2.53715 0
M  V30 1772 C 164.552 3.33535 -4.88373 0
M  V30 1773 H 163.482 0.545692 -0.520323 0
M  V30 1774 H 166.133 0.756929 -1.67161 0
M  V30 1775 H 164.515 3.34541 -2.11892 0
M  V30 1776 H 165.689 1.54623 -4.34083 0
M  V30 1777 H 164.004 1.54525 -3.86666 0
M  V30 1778 H 166.601 4.2547 -3.2385 0
M  V30 1779 H 166.944 3.85418 -1.5735 0
M  V30 1780 H 167.477 2.75546 -2.86913 0
M  V30 1781 H 164.216 2.93468 -5.86137 0
M  V30 1782 H 163.736 3.96936 -4.49668 0
M  V30 1783 H 165.415 3.99335 -5.09059 0
M  V30 1784 N 165.547 1.27147 0.931209 0
M  V30 1785 C 166.477 1.12081 2.04842 0
M  V30 1786 C 167.458 0.0232364 1.70084 0
M  V30 1787 O 168.643 0.197085 1.93197 0
M  V30 1788 C 165.773 0.76354 3.38803 0
M  V30 1789 C 164.727 1.81396 3.87659 0
M  V30 1790 C 164.053 1.31075 5.18385 0
M  V30 1791 C 165.353 3.21739 4.11438 0
M  V30 1792 H 167.047 2.05537 2.17703 0
M  V30 1793 H 164.593 0.989603 1.04608 0
M  V30 1794 H 166.546 0.644982 4.16435 0
M  V30 1795 H 165.27 -0.206727 3.25945 0
M  V30 1796 H 163.929 1.92136 3.12217 0
M  V30 1797 H 163.577 0.330037 5.01916 0
M  V30 1798 H 163.277 2.013 5.52044 0
M  V30 1799 H 164.801 1.20506 5.98591 0
M  V30 1800 H 166.215 3.14019 4.79651 0
M  V30 1801 H 164.612 3.89644 4.56397 0
M  V30 1802 H 165.682 3.67054 3.16859 0
M  V30 1803 N 167.025 -1.13721 1.09112 0
M  V30 1804 C 168.265 -1.86576 0.834801 0
M  V30 1805 C 168.629 -1.81435 -0.628122 0
M  V30 1806 O 169.83 -2.49497 -1.00024 0
M  V30 1807 C 168.101 -3.30872 1.35124 0
M  V30 1808 S 169.66 -4.21257 1.22832 0
M  V30 1809 H 166.478 -0.643666 0.302017 0
M  V30 1810 H 169.08 -1.37085 1.39385 0
M  V30 1811 H 167.784 -3.32166 2.41027 0
M  V30 1812 H 167.315 -3.85423 0.788185 0
M  V30 1813 H 169.33 -4.95884 0.177191 0
M  V30 1814 N 168.503 -0.877838 -1.30888 0
M  V30 1815 C 169.45 -0.337538 -2.28318 0
M  V30 1816 C 170.42 0.568346 -1.56074 0
M  V30 1817 O 171.605 0.498298 -1.84178 0
M  V30 1818 C 168.745 0.448142 -3.42178 0
M  V30 1819 C 167.858 -0.48615 -4.29256 0
M  V30 1820 C 166.993 0.314427 -5.30269 0
M  V30 1821 C 166.032 -0.615791 -6.08995 0
M  V30 1822 N 165.169 0.14902 -7.01942 0
M  V30 1823 H 170.009 -1.17356 -2.73919 0
M  V30 1824 H 167.546 -0.590094 -1.34745 0
M  V30 1825 H 169.504 0.919517 -4.06941 0
M  V30 1826 H 168.134 1.24879 -2.97666 0
M  V30 1827 H 167.186 -1.076 -3.64865 0
M  V30 1828 H 168.498 -1.19909 -4.84173 0
M  V30 1829 H 167.652 0.847969 -6.00745 0
M  V30 1830 H 166.391 1.06062 -4.76027 0
M  V30 1831 H 165.396 -1.16102 -5.37401 0
M  V30 1832 H 166.621 -1.36097 -6.65323 0
M  V30 1833 H 164.567 0.877884 -6.50099 0
M  V30 1834 H 164.484 -0.504433 -7.54315 0
M  V30 1835 H 165.752 0.663537 -7.76671 0
M  V30 1836 N 169.982 1.44106 -0.638065 0
M  V30 1837 C 171.259 1.95453 -0.0759321 0
M  V30 1838 C 171.639 1.57984 1.40015 0
M  V30 1839 O 170.987 0.857361 2.11806 0
M  V30 1840 C 171.197 3.47655 -0.306132 0
M  V30 1841 C 172.545 4.24114 -0.203008 0
M  V30 1842 O 173.569 3.55405 -0.237871 0
M  V30 1843 O 172.428 5.46381 -0.113827 0
M  V30 1844 H 169.522 0.826797 0.0183332 0
M  V30 1845 H 172.068 1.54122 -0.710251 0
M  V30 1846 H 170.84 3.68 -1.3301 0
M  V30 1847 H 170.463 3.95949 0.361991 0
M  V30 1848 N 171.46 0.379036 1.52974 0
M  V30 1849 C 172.707 -0.206421 2.01445 0
M  V30 1850 C 173.035 -1.47668 1.26587 0
M  V30 1851 O 172.29 -1.92514 0.351675 0
M  V30 1852 C 172.589 -0.53096 3.53434 0
M  V30 1853 C 172.255 0.646546 4.46241 0
M  V30 1854 C 170.917 0.969604 4.7133 0
M  V30 1855 C 173.269 1.43479 5.01062 0
M  V30 1856 C 170.597 2.08263 5.48492 0
M  V30 1857 C 172.949 2.53834 5.7944 0
M  V30 1858 C 171.613 2.86659 6.02812 0
M  V30 1859 H 170.883 -0.0755349 0.73714 0
M  V30 1860 H 173.53 0.514271 1.84465 0
M  V30 1861 H 171.835 -1.33285 3.68432 0
M  V30 1862 H 173.532 -0.996417 3.88423 0
M  V30 1863 H 170.122 0.384734 4.2687 0
M  V30 1864 H 174.306 1.19844 4.81613 0
M  V30 1865 H 169.562 2.34078 5.64816 0
M  V30 1866 H 173.736 3.15319 6.20924 0
M  V30 1867 H 171.363 3.73026 6.62387 0
M  V30 1868 N 172.938 -1.57226 0.108567 0
M  V30 1869 C 174.187 -1.94008 -0.551703 0
M  V30 1870 C 174.5 -0.993442 -1.68494 0
M  V30 1871 O 175.706 -1.25551 -2.40726 0
M  V30 1872 C 174.162 -3.44763 -1.03279 0
M  V30 1873 C 173.77 -4.47943 0.0714193 0
M  V30 1874 C 175.514 -3.90483 -1.66503 0
M  V30 1875 C 173.421 -5.89865 -0.425779 0
M  V30 1876 H 172.351 -0.724206 -0.209863 0
M  V30 1877 H 175.002 -1.82547 0.186741 0
M  V30 1878 H 173.384 -3.51422 -1.82533 0
M  V30 1879 H 174.558 -4.52942 0.847365 0
M  V30 1880 H 172.873 -4.11913 0.609669 0
M  V30 1881 H 175.47 -4.93925 -2.04798 0
M  V30 1882 H 175.813 -3.29877 -2.53942 0
M  V30 1883 H 176.346 -3.86581 -0.938074 0
M  V30 1884 H 173.085 -6.54202 0.412316 0
M  V30 1885 H 172.605 -5.88309 -1.16843 0
M  V30 1886 H 174.284 -6.40844 -0.890397 0
M  V30 1887 N 174.416 0.165178 -1.56732 0
M  V30 1888 C 175.665 0.879143 -1.81532 0
M  V30 1889 C 175.978 1.83144 -0.686842 0
M  V30 1890 O 177.184 2.58823 -0.819944 0
M  V30 1891 C 175.64 1.61388 -3.21686 0
M  V30 1892 C 175.248 0.704904 -4.4242 0
M  V30 1893 C 176.992 2.3157 -3.55774 0
M  V30 1894 C 174.899 1.44022 -5.73595 0
M  V30 1895 H 173.829 0.332033 -0.676957 0
M  V30 1896 H 176.48 0.132008 -1.83025 0
M  V30 1897 H 174.862 2.40599 -3.14529 0
M  V30 1898 H 176.036 -0.0506815 -4.60772 0
M  V30 1899 H 174.351 0.112419 -4.16248 0
M  V30 1900 H 176.948 2.8719 -4.51028 0
M  V30 1901 H 177.291 3.07201 -2.8095 0
M  V30 1902 H 177.824 1.59297 -3.64513 0
M  V30 1903 H 174.563 0.72612 -6.51466 0
M  V30 1904 H 174.083 2.16898 -5.5921 0
M  V30 1905 H 175.762 1.98606 -6.15764 0
M  V30 1906 N 175.894 1.51508 0.433938 0
M  V30 1907 C 177.171 1.54888 1.19453 0
M  V30 1908 C 177.551 0.315154 2.08734 0
M  V30 1909 O 176.899 -0.699558 2.17528 0
M  V30 1910 C 177.109 2.86467 1.99342 0
M  V30 1911 C 178.457 3.38545 2.56267 0
M  V30 1912 O 179.481 2.88041 2.0955 0
M  V30 1913 O 178.34 4.26675 3.41483 0
M  V30 1914 H 175.434 0.622863 0.544032 0
M  V30 1915 H 177.98 1.63823 0.442732 0
M  V30 1916 H 176.752 3.67718 1.33788 0
M  V30 1917 H 176.375 2.8071 2.8158 0
M  V30 1918 N 177.372 -0.689602 1.41712 0
M  V30 1919 C 178.783 -1.26973 1.36875 0
M  V30 1920 C 179.134 -1.96124 0.054748 0
M  V30 1921 O 178.259 -1.99141 -0.84687 0
M  V30 1922 C 178.854 -2.30912 2.47922 0
M  V30 1923 C 177.413 -2.84486 2.46464 0
M  V30 1924 C 176.56 -1.58603 2.27465 0
M  V30 1925 H 179.511 -0.48396 1.51141 0
M  V30 1926 H 179.532 -3.12331 2.17323 0
M  V30 1927 H 179.044 -1.80554 3.43543 0
M  V30 1928 H 177.145 -3.39005 1.54617 0
M  V30 1929 H 177.258 -3.34511 3.42986 0
M  V30 1930 H 175.622 -1.84632 1.75451 0
M  V30 1931 H 176.405 -1.10233 3.25121 0
M  V30 1932 N 178.85 -1.27639 -0.924453 0
M  V30 1933 C 180.08 -1.16819 -1.70402 0
M  V30 1934 C 180.488 0.277191 -1.87158 0
M  V30 1935 O 179.831 1.20025 -1.39067 0
M  V30 1936 C 179.893 -1.78305 -3.12166 0
M  V30 1937 C 179.557 -3.27502 -3.18734 0
M  V30 1938 C 180.554 -4.2409 -3.00738 0
M  V30 1939 C 178.239 -3.68269 -3.4159 0
M  V30 1940 C 180.233 -5.59422 -3.05492 0
M  V30 1941 C 177.92 -5.0373 -3.45977 0
M  V30 1942 C 178.918 -5.99116 -3.27946 0
M  V30 1943 O 178.606 -7.32108 -3.32074 0
M  V30 1944 H 178.338 -0.406931 -0.539799 0
M  V30 1945 H 180.892 -1.69078 -1.16626 0
M  V30 1946 H 179.122 -1.20528 -3.67437 0
M  V30 1947 H 180.811 -1.62154 -3.72103 0
M  V30 1948 H 181.577 -3.93931 -2.82919 0
M  V30 1949 H 177.456 -2.94496 -3.54673 0
M  V30 1950 H 181 -6.33852 -2.91337 0
M  V30 1951 H 176.897 -5.33543 -3.63321 0
M  V30 1952 H 177.665 -7.40598 -3.48507 0
M  V30 1953 N 180.328 1.1314 -1.09713 0
M  V30 1954 C 181.26 2.18343 -0.697056 0
M  V30 1955 C 182.273 1.60669 0.262551 0
M  V30 1956 O 183.462 1.78435 0.0481527 0
M  V30 1957 C 180.562 3.38899 -0.00684728 0
M  V30 1958 C 179.735 4.26078 -0.988741 0
M  V30 1959 C 178.794 5.25155 -0.331394 0
M  V30 1960 O 177.82 5.60701 -0.979926 0
M  V30 1961 N 179.022 5.73271 0.913261 0
M  V30 1962 H 181.787 2.5328 -1.60216 0
M  V30 1963 H 179.348 1.28491 -0.984971 0
M  V30 1964 H 181.34 4.02255 0.444191 0
M  V30 1965 H 179.91 3.02175 0.800551 0
M  V30 1966 H 179.13 3.59453 -1.61826 0
M  V30 1967 H 180.418 4.81178 -1.65364 0
M  V30 1968 H 179.816 5.46544 1.45966 0
M  V30 1969 H 178.373 6.3855 1.30757 0
M  V30 1970 N 181.806 0.884767 1.30421 0
M  V30 1971 C 183.055 0.499164 1.95426 0
M  V30 1972 C 183.368 -0.95645 1.70621 0
M  V30 1973 O 184.574 -1.44889 2.29607 0
M  V30 1974 C 183.03 0.84177 3.49917 0
M  V30 1975 C 182.638 2.31514 3.83543 0
M  V30 1976 C 184.382 0.525355 4.21237 0
M  V30 1977 C 182.289 2.59939 5.31212 0
M  V30 1978 H 181.219 0.182944 0.73147 0
M  V30 1979 H 183.87 1.07971 1.48373 0
M  V30 1980 H 182.252 0.190311 3.95542 0
M  V30 1981 H 183.426 3.0109 3.48829 0
M  V30 1982 H 181.741 2.59907 3.25326 0
M  V30 1983 H 184.338 0.714762 5.29901 0
M  V30 1984 H 184.681 -0.535222 4.12845 0
M  V30 1985 H 185.214 1.134 3.81294 0
M  V30 1986 H 181.953 3.64736 5.44654 0
M  V30 1987 H 181.473 1.94972 5.67227 0
M  V30 1988 H 183.152 2.45429 5.98643 0
M  V30 1989 N 183.284 -1.43765 0.645699 0
M  V30 1990 C 184.514 -2.05953 0.163318 0
M  V30 1991 C 184.922 -1.48432 -1.17322 0
M  V30 1992 O 184.265 -0.607295 -1.73371 0
M  V30 1993 C 184.327 -3.59499 -0.0103065 0
M  V30 1994 C 183.991 -4.39563 1.25035 0
M  V30 1995 C 184.988 -4.72108 2.17739 0
M  V30 1996 C 182.673 -4.79697 1.48983 0
M  V30 1997 C 184.667 -5.43688 3.3269 0
M  V30 1998 C 182.354 -5.51023 2.64229 0
M  V30 1999 C 183.352 -5.8294 3.55908 0
M  V30 2000 O 183.04 -6.5281 4.69142 0
M  V30 2001 H 182.772 -0.670798 0.0836986 0
M  V30 2002 H 185.326 -1.85384 0.884407 0
M  V30 2003 H 183.556 -3.78613 -0.78669 0
M  V30 2004 H 185.245 -4.03408 -0.449087 0
M  V30 2005 H 186.011 -4.41627 2.00476 0
M  V30 2006 H 181.89 -4.54266 0.785078 0
M  V30 2007 H 185.434 -5.68517 4.04269 0
M  V30 2008 H 181.331 -5.8092 2.81429 0
M  V30 2009 H 182.099 -6.71288 4.6831 0
M  V30 2010 N 184.763 -0.387143 -1.52771 0
M  V30 2011 C 185.693 0.440551 -2.29306 0
M  V30 2012 C 186.674 1.06535 -1.32606 0
M  V30 2013 O 187.859 1.07853 -1.61497 0
M  V30 2014 C 184.989 1.56919 -3.09829 0
M  V30 2015 C 183.943 1.07054 -4.14395 0
M  V30 2016 C 183.269 2.29109 -4.83129 0
M  V30 2017 C 184.569 0.140015 -5.22112 0
M  V30 2018 H 186.263 -0.198026 -2.98744 0
M  V30 2019 H 183.809 -0.09668 -1.43675 0
M  V30 2020 H 185.762 2.15503 -3.62128 0
M  V30 2021 H 184.486 2.23532 -2.3812 0
M  V30 2022 H 183.145 0.507247 -3.63074 0
M  V30 2023 H 182.793 2.94227 -4.0797 0
M  V30 2024 H 182.493 1.96406 -5.53804 0
M  V30 2025 H 184.017 2.88339 -5.38231 0
M  V30 2026 H 185.431 0.633978 -5.69784 0
M  V30 2027 H 183.828 -0.0971485 -6.00021 0
M  V30 2028 H 184.898 -0.811711 -4.78058 0
M  V30 2029 N 186.241 1.57166 -0.116904 0
M  V30 2030 C 187.204 2.14039 0.819742 0
M  V30 2031 C 188.204 1.07477 1.19605 0
M  V30 2032 O 189.394 1.33263 1.1219 0
M  V30 2033 C 186.526 2.67891 2.10826 0
M  V30 2034 H 187.719 2.98128 0.325511 0
M  V30 2035 H 185.272 1.55739 0.132312 0
M  V30 2036 H 186.007 1.87384 2.64685 0
M  V30 2037 H 185.792 3.45823 1.84793 0
M  V30 2038 H 187.282 3.11809 2.77785 0
M  V30 2039 N 187.719 -0.156864 1.56817 0
M  V30 2040 C 189.135 -0.50916 1.5126 0
M  V30 2041 C 189.335 -1.83897 0.823658 0
M  V30 2042 O 188.391 -2.49469 0.390055 0
M  V30 2043 C 189.704 -0.52857 2.96018 0
M  V30 2044 C 191.252 -0.614771 3.06903 0
M  V30 2045 C 191.727 -0.664938 4.53147 0
M  V30 2046 N 193.218 -0.727433 4.57452 0
M  V30 2047 C 193.953 -0.787067 5.67973 0
M  V30 2048 N 193.449 -0.806649 6.88088 0
M  V30 2049 N 195.242 -0.827195 5.5598 0
M  V30 2050 H 187.393 0.714935 2.00006 0
M  V30 2051 H 189.656 0.259526 0.911784 0
M  V30 2052 H 189.362 0.380154 3.49639 0
M  V30 2053 H 189.236 -1.36998 3.51442 0
M  V30 2054 H 191.623 -1.51392 2.53307 0
M  V30 2055 H 191.704 0.253597 2.5454 0
M  V30 2056 H 191.348 0.230011 5.07379 0
M  V30 2057 H 191.278 -1.54966 5.03282 0
M  V30 2058 H 193.769 -0.719998 3.70978 0
M  V30 2059 H 194.082 -0.853727 7.6807 0
M  V30 2060 H 192.427 -0.774687 6.90669 0
M  V30 2061 H 195.618 -0.808998 4.61056 0
M  V30 2062 H 195.791 -0.870206 6.4213 0
M  V30 2063 N 189.197 -1.51736 -0.425897 0
M  V30 2064 C 190.427 -1.68549 -1.19476 0
M  V30 2065 C 190.835 -0.387288 -1.85194 0
M  V30 2066 O 190.178 0.645142 -1.71999 0
M  V30 2067 C 190.24 -2.75275 -2.31223 0
M  V30 2068 C 189.904 -4.17534 -1.8578 0
M  V30 2069 C 190.901 -5.01936 -1.35485 0
M  V30 2070 C 188.586 -4.6369 -1.93123 0
M  V30 2071 C 190.58 -6.30559 -0.931347 0
M  V30 2072 C 188.267 -5.92307 -1.50384 0
M  V30 2073 C 189.265 -6.75569 -1.00473 0
M  V30 2074 O 188.953 -8.0178 -0.583452 0
M  V30 2075 H 188.685 -0.568525 -0.365725 0
M  V30 2076 H 191.239 -1.98982 -0.509444 0
M  V30 2077 H 189.469 -2.40182 -3.03067 0
M  V30 2078 H 191.158 -2.80853 -2.93047 0
M  V30 2079 H 191.924 -4.67475 -1.29197 0
M  V30 2080 H 187.803 -3.98997 -2.30916 0
M  V30 2081 H 191.347 -6.95498 -0.541084 0
M  V30 2082 H 187.244 -6.2628 -1.56346 0
M  V30 2083 H 188.012 -8.1543 -0.708275 0
M  V30 2084 N 190.675 0.682077 -1.42076 0
M  V30 2085 C 191.905 1.46844 -1.45329 0
M  V30 2086 C 192.313 1.89102 -0.0609328 0
M  V30 2087 O 191.656 1.58238 0.933082 0
M  V30 2088 C 191.718 2.75375 -2.31104 0
M  V30 2089 C 191.382 2.55238 -3.79081 0
M  V30 2090 C 192.379 2.20309 -4.70914 0
M  V30 2091 C 190.064 2.70459 -4.2327 0
M  V30 2092 C 192.058 2.00859 -6.04925 0
M  V30 2093 C 189.745 2.50624 -5.57343 0
M  V30 2094 C 190.743 2.15876 -6.47986 0
M  V30 2095 O 190.431 1.96227 -7.79583 0
M  V30 2096 H 190.163 0.4586 -0.496651 0
M  V30 2097 H 192.717 0.846131 -1.87162 0
M  V30 2098 H 190.947 3.40061 -1.84107 0
M  V30 2099 H 192.636 3.37231 -2.25898 0
M  V30 2100 H 193.402 2.08153 -4.38061 0
M  V30 2101 H 189.281 2.96485 -3.53012 0
M  V30 2102 H 192.825 1.7366 -6.75639 0
M  V30 2103 H 188.722 2.62375 -5.89771 0
M  V30 2104 H 189.49 2.10883 -7.90867 0
M  V30 2105 N 192.153 1.28127 0.917671 0
M  V30 2106 C 193.085 1.07517 2.02417 0
M  V30 2107 C 194.098 0.0281099 1.62776 0
M  V30 2108 O 195.287 0.270748 1.76435 0
M  V30 2109 C 192.387 0.610957 3.33347 0
M  V30 2110 C 191.56 1.73255 4.01624 0
M  V30 2111 C 190.619 1.26238 5.10833 0
M  V30 2112 O 189.645 1.96389 5.34247 0
M  V30 2113 N 190.847 0.123448 5.80369 0
M  V30 2114 H 193.612 2.02806 2.20658 0
M  V30 2115 H 191.173 1.19827 1.08871 0
M  V30 2116 H 193.165 0.280101 4.0373 0
M  V30 2117 H 191.735 -0.24898 3.11607 0
M  V30 2118 H 190.955 2.23319 3.24842 0
M  V30 2119 H 192.243 2.48503 4.43986 0
M  V30 2120 H 191.641 -0.461847 5.63812 0
M  V30 2121 H 190.198 -0.148158 6.51632 0
M  V30 2122 N 193.631 -1.12557 1.10312 0
M  V30 2123 C 194.594 -2.16434 0.75424 0
M  V30 2124 C 195.594 -1.59278 -0.220685 0
M  V30 2125 O 196.784 -1.742 0.00230591 0
M  V30 2126 C 193.916 -3.40699 0.116987 0
M  V30 2127 H 195.109 -2.48811 1.67431 0
M  V30 2128 H 192.662 -1.27542 0.903475 0
M  V30 2129 H 193.397 -3.13921 -0.813877 0
M  V30 2130 H 193.182 -3.83459 0.818613 0
M  V30 2131 H 194.672 -4.17451 -0.111387 0
M  V30 2132 N 195.109 -0.891671 -1.2995 0
M  V30 2133 C 196.386 -0.433307 -1.9074 0
M  V30 2134 C 196.766 1.08646 -1.80995 0
M  V30 2135 O 196.114 1.92476 -1.23147 0
M  V30 2136 C 196.324 -0.938895 -3.36134 0
M  V30 2137 C 197.672 -0.977829 -4.13187 0
M  V30 2138 O 198.696 -0.886015 -3.45005 0
M  V30 2139 O 197.555 -1.11453 -5.35015 0
M  V30 2140 H 194.649 -0.133699 -0.816121 0
M  V30 2141 H 197.195 -0.981011 -1.38471 0
M  V30 2142 H 195.967 -1.98281 -3.37343 0
M  V30 2143 H 195.59 -0.37074 -3.95868 0
M  V30 2144 N 196.587 1.43421 -0.653314 0
M  V30 2145 C 197.55 2.29182 0.0287951 0
M  V30 2146 C 198.55 1.42213 0.750465 0
M  V30 2147 O 199.74 1.63843 0.591701 0
M  V30 2148 C 196.872 3.24278 1.05151 0
M  V30 2149 H 198.065 2.90985 -0.725786 0
M  V30 2150 H 195.618 1.50702 -0.414545 0
M  V30 2151 H 196.353 2.6737 1.83532 0
M  V30 2152 H 196.138 3.88396 0.537687 0
M  V30 2153 H 197.628 3.88647 1.52786 0
M  V30 2154 N 198.065 0.39524 1.52563 0
M  V30 2155 C 199.305 -0.184744 2.03563 0
M  V30 2156 C 199.669 -1.43548 1.27507 0
M  V30 2157 O 200.87 -2.093 1.68662 0
M  V30 2158 C 199.141 -0.440294 3.54678 0
M  V30 2159 S 200.7 -0.989712 4.27493 0
M  V30 2160 H 197.518 -0.0515075 0.709132 0
M  V30 2161 H 200.12 0.544957 1.87751 0
M  V30 2162 H 198.824 0.477005 4.07618 0
M  V30 2163 H 198.355 -1.19825 3.74707 0
M  V30 2164 H 200.37 -2.27155 4.41152 0
M  V30 2165 N 199.544 -1.57102 0.125237 0
M  V30 2166 C 200.474 -2.18659 -0.819174 0
M  V30 2167 C 201.455 -1.12843 -1.27281 0
M  V30 2168 O 202.64 -1.41104 -1.33429 0
M  V30 2169 C 199.77 -2.79096 -2.06695 0
M  V30 2170 C 198.724 -3.90548 -1.75088 0
M  V30 2171 C 198.05 -4.37821 -3.06948 0
M  V30 2172 C 199.35 -5.12356 -1.01435 0
M  V30 2173 H 201.044 -2.9783 -0.306202 0
M  V30 2174 H 198.59 -1.4326 -0.145839 0
M  V30 2175 H 200.543 -3.2082 -2.73226 0
M  V30 2176 H 199.267 -1.97223 -2.60328 0
M  V30 2177 H 197.926 -3.49409 -1.10944 0
M  V30 2178 H 197.574 -3.52799 -3.58527 0
M  V30 2179 H 197.274 -5.12982 -2.86571 0
M  V30 2180 H 198.798 -4.822 -3.74587 0
M  V30 2181 H 200.212 -5.5106 -1.58132 0
M  V30 2182 H 198.609 -5.9314 -0.911319 0
M  V30 2183 H 199.679 -4.849 -0.00218681 0
M  V30 2184 N 201.022 0.148545 -1.56898 0
M  V30 2185 C 201.952 1.18524 -2.01182 0
M  V30 2186 C 202.933 1.4489 -0.891123 0
M  V30 2187 O 204.118 1.55836 -1.15882 0
M  V30 2188 C 201.248 2.51879 -2.39112 0
M  V30 2189 C 200.202 2.40038 -3.54353 0
M  V30 2190 C 199.528 3.78089 -3.78091 0
M  V30 2191 C 200.828 1.88577 -4.87069 0
M  V30 2192 H 202.522 0.817029 -2.88036 0
M  V30 2193 H 200.068 0.391575 -1.38574 0
M  V30 2194 H 202.021 3.24627 -2.68692 0
M  V30 2195 H 200.745 2.90532 -1.49193 0
M  V30 2196 H 199.404 1.69742 -3.24936 0
M  V30 2197 H 199.052 4.14175 -2.85426 0
M  V30 2198 H 198.752 3.71028 -4.55645 0
M  V30 2199 H 200.276 4.52387 -4.10095 0
M  V30 2200 H 201.69 2.51117 -5.15377 0
M  V30 2201 H 200.087 1.9241 -5.68417 0
M  V30 2202 H 201.157 0.84136 -4.77545 0
M  V30 2203 N 202.5 1.5196 0.417844 0
M  V30 2204 C 203.433 1.69387 1.52916 0
M  V30 2205 C 204.411 0.541419 1.53321 0
M  V30 2206 O 205.595 0.767695 1.72159 0
M  V30 2207 C 202.722 1.72525 2.91467 0
M  V30 2208 C 201.768 2.93967 3.09008 0
M  V30 2209 S 202.601 4.54461 2.83242 0
M  V30 2210 C 203.757 4.60372 4.24038 0
M  V30 2211 H 203.99 2.63382 1.37903 0
M  V30 2212 H 201.523 1.41889 0.608845 0
M  V30 2213 H 203.481 1.75018 3.7132 0
M  V30 2214 H 202.142 0.796733 3.03827 0
M  V30 2215 H 201.335 2.92619 4.10353 0
M  V30 2216 H 200.937 2.89316 2.37007 0
M  V30 2217 H 203.229 4.37213 5.17544 0
M  V30 2218 H 204.172 5.62273 4.30412 0
M  V30 2219 H 204.58 3.89492 4.08602 0
M  V30 2220 N 203.978 -0.674533 1.42435 0
M  V30 2221 C 204.908 -1.80009 1.48724 0
M  V30 2222 C 205.889 -1.6659 0.343793 0
M  V30 2223 O 207.074 -1.86007 0.558137 0
M  V30 2224 C 204.204 -3.18306 1.38919 0
M  V30 2225 C 203.158 -3.46461 2.51294 0
M  V30 2226 C 202.484 -4.84335 2.26547 0
M  V30 2227 C 203.784 -3.43328 3.93603 0
M  V30 2228 H 205.478 -1.75004 2.42928 0
M  V30 2229 H 203.024 -0.840533 1.16923 0
M  V30 2230 H 204.977 -3.9678 1.41927 0
M  V30 2231 H 203.701 -3.2399 0.412094 0
M  V30 2232 H 202.36 -2.70348 2.47604 0
M  V30 2233 H 202.008 -4.86669 1.2713 0
M  V30 2234 H 201.708 -5.04136 3.01861 0
M  V30 2235 H 203.232 -5.65094 2.31304 0
M  V30 2236 H 204.646 -4.11772 3.98894 0
M  V30 2237 H 203.043 -3.74664 4.68771 0
M  V30 2238 H 204.113 -2.41897 4.20255 0
M  V30 2239 N 205.456 -1.28612 -0.910864 0
M  V30 2240 C 206.681 -1.1891 -1.69927 0
M  V30 2241 C 207.106 0.248372 -1.86453 0
M  V30 2242 O 206.464 1.17961 -1.37676 0
M  V30 2243 C 206.512 -1.89578 -3.06745 0
M  V30 2244 O 205.616 -1.20521 -3.94396 0
M  V30 2245 H 204.957 -0.412632 -0.520222 0
M  V30 2246 H 207.487 -1.69985 -1.1387 0
M  V30 2247 H 207.497 -1.97597 -3.56958 0
M  V30 2248 H 206.172 -2.94136 -2.94035 0
M  V30 2249 H 204.749 -1.20684 -3.52831 0
M  V30 2250 N 206.934 1.1197 -1.10907 0
M  V30 2251 C 208.18 1.8386 -0.855773 0
M  V30 2252 C 208.513 1.84134 0.617103 0
M  V30 2253 O 207.788 1.29041 1.45529 0
M  V30 2254 C 208.071 3.31305 -1.411 0
M  V30 2255 C 207.924 3.39456 -2.9511 0
M  V30 2256 C 209.243 4.2721 -1.05736 0
M  V30 2257 H 206.362 0.667545 -0.312334 0
M  V30 2258 H 209.004 1.31331 -1.37303 0
M  V30 2259 H 207.154 3.76169 -0.97105 0
M  V30 2260 H 208.826 3.03191 -3.47668 0
M  V30 2261 H 207.069 2.79849 -3.31462 0
M  V30 2262 H 207.74 4.43209 -3.29044 0
M  V30 2263 H 210.216 3.90497 -1.43706 0
M  V30 2264 H 209.092 5.28775 -1.47269 0
M  V30 2265 H 209.353 4.42088 0.0325958 0
M  V30 2266 N 208.412 0.89855 1.29475 0
M  V30 2267 C 209.342 0.39201 2.30186 0
M  V30 2268 C 210.323 -0.532359 1.61555 0
M  V30 2269 O 211.508 -0.443331 1.89072 0
M  V30 2270 C 208.638 -0.382353 3.45189 0
M  V30 2271 C 207.592 0.451483 4.25612 0
M  V30 2272 C 206.918 -0.450307 5.328 0
M  V30 2273 C 208.218 1.70079 4.93832 0
M  V30 2274 H 209.912 1.23362 2.72804 0
M  V30 2275 H 207.458 0.594638 1.31149 0
M  V30 2276 H 209.411 -0.747451 4.14718 0
M  V30 2277 H 208.135 -1.25774 3.01411 0
M  V30 2278 H 206.794 0.798897 3.57789 0
M  V30 2279 H 206.442 -1.32379 4.85268 0
M  V30 2280 H 206.142 0.103902 5.87508 0
M  V30 2281 H 207.666 -0.811623 6.05182 0
M  V30 2282 H 209.08 1.40549 5.55805 0
M  V30 2283 H 207.477 2.19623 5.58467 0
M  V30 2284 H 208.547 2.43744 4.19186 0
M  V30 2285 N 209.89 -1.43072 0.660911 0
M  V30 2286 C 211.167 -1.95307 0.107017 0
M  V30 2287 C 211.547 -1.60192 -1.37484 0
M  V30 2288 O 210.895 -0.890949 -2.10415 0
M  V30 2289 C 211.105 -3.47124 0.361402 0
M  V30 2290 C 212.453 -4.23738 0.270455 0
M  V30 2291 O 213.477 -3.54981 0.294382 0
M  V30 2292 O 212.336 -5.46131 0.200737 0
M  V30 2293 H 209.43 -0.826984 -0.00517729 0
M  V30 2294 H 211.976 -1.52972 0.734681 0
M  V30 2295 H 210.748 -3.65837 1.38848 0
M  V30 2296 H 210.371 -3.96475 -0.298953 0
M  V30 2297 N 211.368 -0.403325 -1.52352 0
M  V30 2298 C 212.645 0.232611 -1.94212 0
M  V30 2299 C 213.025 1.63133 -1.33981 0
M  V30 2300 O 212.373 2.22659 -0.513344 0
M  V30 2301 C 212.583 0.244811 -3.4814 0
M  V30 2302 C 213.931 0.46698 -4.22024 0
M  V30 2303 O 214.955 0.324419 -3.5472 0
M  V30 2304 O 213.814 0.74747 -5.41364 0
M  V30 2305 H 210.908 0.148223 -0.813609 0
M  V30 2306 H 213.454 -0.458848 -1.63379 0
M  V30 2307 H 212.226 -0.734378 -3.84347 0
M  V30 2308 H 211.849 0.980611 -3.85318 0
M  V30 2309 N 212.846 1.57033 -0.133567 0
M  V30 2310 C 214.123 1.87256 0.56522 0
M  V30 2311 C 214.503 1.03726 1.83859 0
M  V30 2312 O 213.851 0.120247 2.28183 0
M  V30 2313 C 214.061 3.3865 0.843636 0
M  V30 2314 C 215.409 4.07574 1.19032 0
M  V30 2315 O 216.433 3.43752 0.933429 0
M  V30 2316 O 215.292 5.20259 1.67312 0
M  V30 2317 H 212.386 0.775678 0.286796 0
M  V30 2318 H 214.932 1.68855 -0.169168 0
M  V30 2319 H 213.704 3.91257 -0.0581149 0
M  V30 2320 H 213.327 3.62532 1.63268 0
M  V30 2321 N 214.325 -0.140222 1.56975 0
M  V30 2322 C 215.257 -1.19818 1.95388 0
M  V30 2323 C 216.27 -1.38816 0.850525 0
M  V30 2324 O 217.459 -1.38267 1.12891 0
M  V30 2325 C 214.559 -2.56189 2.21857 0
M  V30 2326 C 213.732 -2.58077 3.5315 0
M  V30 2327 C 212.791 -3.76037 3.6808 0
M  V30 2328 O 211.817 -3.60598 4.40406 0
M  V30 2329 N 213.019 -4.93763 3.05251 0
M  V30 2330 H 215.784 -0.871609 2.86746 0
M  V30 2331 H 213.345 -0.32972 1.58507 0
M  V30 2332 H 215.337 -3.33623 2.2908 0
M  V30 2333 H 213.907 -2.81111 1.36731 0
M  V30 2334 H 213.127 -1.6651 3.57307 0
M  V30 2335 H 214.415 -2.56377 4.39486 0
M  V30 2336 H 213.813 -5.09209 2.46419 0
M  V30 2337 H 212.37 -5.68949 3.18026 0
M  V30 2338 N 215.803 -1.52179 -0.40978 0
M  V30 2339 C 217.033 -1.69807 -1.17682 0
M  V30 2340 C 217.441 -0.406908 -1.84773 0
M  V30 2341 O 216.784 0.626863 -1.72673 0
M  V30 2342 C 216.846 -2.77712 -2.2829 0
M  V30 2343 C 216.51 -4.19481 -1.81341 0
M  V30 2344 C 217.507 -5.03345 -1.30154 0
M  V30 2345 C 215.192 -4.65713 -1.88194 0
M  V30 2346 C 217.186 -6.31511 -0.864416 0
M  V30 2347 C 214.873 -5.93869 -1.44093 0
M  V30 2348 C 215.871 -6.76597 -0.933023 0
M  V30 2349 O 215.559 -8.02354 -0.49838 0
M  V30 2350 H 215.291 -0.572372 -0.359675 0
M  V30 2351 H 217.845 -1.99511 -0.488311 0
M  V30 2352 H 216.075 -2.43383 -3.00502 0
M  V30 2353 H 217.764 -2.83946 -2.90051 0
M  V30 2354 H 218.53 -4.68819 -1.24232 0
M  V30 2355 H 214.409 -4.01424 -2.26671 0
M  V30 2356 H 217.953 -6.96033 -0.467286 0
M  V30 2357 H 213.85 -6.27903 -1.49694 0
M  V30 2358 H 214.618 -8.16135 -0.621747 0
M  V30 2359 N 217.281 0.66697 -1.42791 0
M  V30 2360 C 218.697 0.981027 -1.25889 0
M  V30 2361 C 218.897 2.00793 -0.168695 0
M  V30 2362 O 217.953 2.48321 0.45747 0
M  V30 2363 C 219.266 1.47838 -2.61848 0
M  V30 2364 C 220.814 1.59575 -2.69267 0
M  V30 2365 C 221.289 2.12704 -4.05612 0
M  V30 2366 N 222.78 2.20026 -4.07606 0
M  V30 2367 C 223.515 2.62227 -5.09926 0
M  V30 2368 N 223.011 3.03824 -6.22626 0
M  V30 2369 N 224.804 2.62045 -4.97281 0
M  V30 2370 H 216.955 -0.0127891 -2.12396 0
M  V30 2371 H 219.218 0.0568258 -0.946295 0
M  V30 2372 H 218.924 0.798299 -3.4252 0
M  V30 2373 H 218.798 2.45579 -2.86305 0
M  V30 2374 H 221.185 2.26687 -1.88936 0
M  V30 2375 H 221.266 0.60302 -2.48591 0
M  V30 2376 H 220.91 1.46198 -4.86404 0
M  V30 2377 H 220.84 3.12782 -4.23645 0
M  V30 2378 H 223.331 1.90708 -3.2625 0
M  V30 2379 H 223.644 3.34734 -6.96544 0
M  V30 2380 H 221.989 3.01662 -6.26119 0
M  V30 2381 H 225.18 2.28916 -4.08308 0
M  V30 2382 H 225.353 2.94613 -5.77154 0
M  V30 2383 N 218.759 1.29093 0.90403 0
M  V30 2384 C 219.691 1.09658 2.01266 0
M  V30 2385 C 220.704 0.0453729 1.62737 0
M  V30 2386 O 221.893 0.289446 1.76138 0
M  V30 2387 C 218.993 0.646278 3.32681 0
M  V30 2388 C 218.166 1.77505 3.99763 0
M  V30 2389 C 217.225 1.31649 5.09465 0
M  V30 2390 O 216.251 2.02045 5.32134 0
M  V30 2391 N 217.453 0.184997 5.80205 0
M  V30 2392 H 220.218 2.05135 2.18494 0
M  V30 2393 H 217.779 1.20975 1.07594 0
M  V30 2394 H 219.771 0.322906 4.0341 0
M  V30 2395 H 218.341 -0.215916 3.11853 0
M  V30 2396 H 217.561 2.26752 3.22455 0
M  V30 2397 H 218.849 2.53198 4.41325 0
M  V30 2398 H 218.247 -0.402021 5.6427 0
M  V30 2399 H 216.804 -0.0790358 6.51752 0
M  V30 2400 N 220.237 -1.11381 1.11499 0
M  V30 2401 C 221.167 -2.19509 0.796125 0
M  V30 2402 C 222.148 -1.68458 -0.235796 0
M  V30 2403 O 223.333 -1.93947 -0.0991344 0
M  V30 2404 C 220.463 -3.46475 0.239205 0
M  V30 2405 C 219.417 -4.10744 1.20307 0
M  V30 2406 C 218.743 -5.32293 0.50683 0
M  V30 2407 C 220.043 -4.55597 2.55399 0
M  V30 2408 H 221.737 -2.46439 1.70024 0
M  V30 2409 H 219.283 -1.18446 0.818935 0
M  V30 2410 H 221.236 -4.214 0.00392006 0
M  V30 2411 H 219.96 -3.19006 -0.700206 0
M  V30 2412 H 218.619 -3.37813 1.42399 0
M  V30 2413 H 218.267 -5.01095 -0.437408 0
M  V30 2414 H 217.967 -5.76243 1.1497 0
M  V30 2415 H 219.491 -6.09956 0.280351 0
M  V30 2416 H 220.905 -5.21841 2.37391 0
M  V30 2417 H 219.302 -5.10363 3.15673 0
M  V30 2418 H 220.372 -3.69013 3.14575 0
M  V30 2419 N 221.715 -0.905404 -1.28997 0
M  V30 2420 C 222.678 -0.392253 -2.25819 0
M  V30 2421 C 223.678 0.476753 -1.5357 0
M  V30 2422 O 224.868 0.280994 -1.71919 0
M  V30 2423 C 222 0.438588 -3.38067 0
M  V30 2424 H 223.193 -1.24743 -2.72725 0
M  V30 2425 H 220.746 -0.684051 -1.40536 0
M  V30 2426 H 221.481 1.31352 -2.96508 0
M  V30 2427 H 221.266 -0.184167 -3.91667 0
M  V30 2428 H 222.756 0.78873 -4.10084 0
M  V30 2429 N 223.193 1.4272 -0.668489 0
M  V30 2430 C 224.156 2.292 0.00448567 0
M  V30 2431 C 225.156 1.43001 0.735339 0
M  V30 2432 O 226.346 1.64461 0.57429 0
M  V30 2433 C 223.478 3.25375 1.01705 0
M  V30 2434 H 224.671 2.90199 -0.756608 0
M  V30 2435 H 222.224 1.50254 -0.430506 0
M  V30 2436 H 222.959 2.69301 1.80686 0
M  V30 2437 H 222.744 3.88944 0.496463 0
M  V30 2438 H 224.234 3.90245 1.48655 0
M  V30 2439 N 224.671 0.411399 1.52136 0
M  V30 2440 C 225.917 -0.163888 2.02137 0
M  V30 2441 C 226.25 -1.44597 1.29636 0
M  V30 2442 O 225.525 -1.90272 0.403353 0
M  V30 2443 C 225.808 -0.40927 3.57767 0
M  V30 2444 C 225.661 0.889643 4.40914 0
M  V30 2445 C 226.98 -1.19042 4.23694 0
M  V30 2446 H 224.099 -0.0580896 0.734707 0
M  V30 2447 H 226.741 0.54531 1.82007 0
M  V30 2448 H 224.891 -1.0134 3.7505 0
M  V30 2449 H 226.563 1.52575 4.35337 0
M  V30 2450 H 224.806 1.50011 4.07037 0
M  V30 2451 H 225.477 0.672314 5.4789 0
M  V30 2452 H 227.953 -0.678942 4.10524 0
M  V30 2453 H 226.829 -1.33086 5.32522 0
M  V30 2454 H 227.09 -2.21166 3.82803 0
M  V30 2455 N 226.149 -1.5696 0.141893 0
M  V30 2456 C 227.112 -2.15316 -0.785587 0
M  V30 2457 C 228.112 -1.09366 -1.1788 0
M  V30 2458 O 229.302 -1.35031 -1.10056 0
M  V30 2459 C 226.434 -2.71211 -2.06537 0
M  V30 2460 H 227.627 -2.98608 -0.278041 0
M  V30 2461 H 225.18 -1.5593 -0.107519 0
M  V30 2462 H 225.915 -1.91571 -2.6167 0
M  V30 2463 H 225.7 -3.4872 -1.79268 0
M  V30 2464 H 227.19 -3.16189 -2.72789 0
M  V30 2465 N 227.627 0.131896 -1.57047 0
M  V30 2466 C 228.577 1.1679 -1.95816 0
M  V30 2467 C 229.561 1.37756 -0.831393 0
M  V30 2468 O 230.753 1.39065 -1.09499 0
M  V30 2469 C 227.882 2.49778 -2.35512 0
M  V30 2470 C 226.968 2.32342 -3.54793 0
M  V30 2471 N 227.359 1.8469 -4.70875 0
M  V30 2472 C 225.657 2.63043 -3.60173 0
M  V30 2473 C 226.358 1.80656 -5.52936 0
M  V30 2474 N 225.334 2.24528 -4.95064 0
M  V30 2475 H 229.136 0.791818 -2.83033 0
M  V30 2476 H 226.65 0.339791 -1.58805 0
M  V30 2477 H 228.647 3.24692 -2.61498 0
M  V30 2478 H 227.307 2.88156 -1.49654 0
M  V30 2479 H 228.318 1.54429 -4.9434 0
M  V30 2480 H 224.995 3.05193 -2.84892 0
M  V30 2481 H 226.385 1.45178 -6.56028 0
M  V30 2482 N 229.106 1.52395 0.401703 0
M  V30 2483 C 230.331 1.70972 1.17403 0
M  V30 2484 C 230.756 0.421615 1.83314 0
M  V30 2485 O 230.114 -0.621564 1.70312 0
M  V30 2486 C 230.162 2.85151 2.20728 0
M  V30 2487 O 229.266 2.51238 3.27037 0
M  V30 2488 H 228.607 0.568927 0.342372 0
M  V30 2489 H 231.137 1.99131 0.469891 0
M  V30 2490 H 231.147 3.10279 2.64936 0
M  V30 2491 H 229.822 3.78603 1.7214 0
M  V30 2492 H 228.399 2.36808 2.88057 0
M  V30 2493 N 230.584 -0.659388 1.43143 0
M  V30 2494 C 231.514 -1.78422 1.50625 0
M  V30 2495 C 232.495 -1.66216 0.361443 0
M  V30 2496 O 233.68 -1.85404 0.577834 0
M  V30 2497 C 230.81 -3.16815 1.42287 0
M  V30 2498 C 229.764 -3.43777 2.54954 0
M  V30 2499 C 229.09 -4.81905 2.31671 0
M  V30 2500 C 230.39 -3.39134 3.97222 0
M  V30 2501 H 232.084 -1.72417 2.44771 0
M  V30 2502 H 229.63 -0.828084 1.17808 0
M  V30 2503 H 231.583 -3.95253 1.46127 0
M  V30 2504 H 230.307 -3.23534 0.446435 0
M  V30 2505 H 228.966 -2.67707 2.50457 0
M  V30 2506 H 228.614 -4.85294 1.32284 0
M  V30 2507 H 228.314 -5.00906 3.07192 0
M  V30 2508 H 229.838 -5.62609 2.37284 0
M  V30 2509 H 231.252 -4.07518 4.03239 0
M  V30 2510 H 229.649 -3.69671 4.72719 0
M  V30 2511 H 230.719 -2.37426 4.22797 0
M  V30 2512 N 232.062 -1.29571 -0.897171 0
M  V30 2513 C 232.972 -1.16808 -2.03453 0
M  V30 2514 C 233.988 -0.0907471 -1.73763 0
M  V30 2515 O 235.164 -0.303312 -1.99103 0
M  V30 2516 C 232.229 -0.848264 -3.36163 0
M  V30 2517 C 231.29 -2.0097 -3.79354 0
M  V30 2518 C 230.523 -1.70505 -5.05731 0
M  V30 2519 O 230.746 -0.62718 -5.66941 0
M  V30 2520 O 229.68 -2.5538 -5.45036 0
M  V30 2521 H 233.506 -2.12325 -2.17144 0
M  V30 2522 H 231.091 -1.09047 -1.02123 0
M  V30 2523 H 232.973 -0.684581 -4.15802 0
M  V30 2524 H 231.648 0.0771071 -3.23608 0
M  V30 2525 H 230.555 -2.22863 -3.00471 0
M  V30 2526 H 231.888 -2.91636 -3.96496 0
M  V30 2527 N 233.54 1.10788 -1.12088 0
M  V30 2528 C 234.473 2.16237 -0.729168 0
M  V30 2529 C 235.451 1.60207 0.277921 0
M  V30 2530 O 236.635 1.87707 0.172737 0
M  V30 2531 C 233.762 3.38609 -0.0786848 0
M  V30 2532 C 232.808 4.13322 -1.05201 0
M  V30 2533 S 233.641 4.69371 -2.57781 0
M  V30 2534 C 234.797 5.95058 -1.94053 0
M  V30 2535 H 235.03 2.4913 -1.62239 0
M  V30 2536 H 232.563 1.22519 -0.939603 0
M  V30 2537 H 234.521 4.09473 0.290254 0
M  V30 2538 H 233.182 3.03962 0.791593 0
M  V30 2539 H 232.375 5.01051 -0.544433 0
M  V30 2540 H 231.977 3.48251 -1.36371 0
M  V30 2541 H 234.269 6.65278 -1.28107 0
M  V30 2542 H 235.212 6.50472 -2.79807 0
M  V30 2543 H 235.62 5.46918 -1.39787 0
M  V30 2544 N 235.018 0.912232 1.28515 0
M  V30 2545 C 236.266 0.543523 1.94654 0
M  V30 2546 C 236.587 -0.9155 1.72173 0
M  V30 2547 O 235.857 -1.64708 1.06058 0
M  V30 2548 H 234.437 0.198017 0.720277 0
M  V30 2549 H 237.099 1.16126 1.56527 0
M  V30 2550 H 236.195 0.736684 3.03281 0
M  V30 2551 N 236.496 -1.42363 0.676048 0
M  V30 2552 C 237.742 -2.0182 0.199125 0
M  V30 2553 C 238.075 -1.53339 -1.19168 0
M  V30 2554 O 237.35 -0.736124 -1.80032 0
M  V30 2555 C 237.633 -3.59331 0.235144 0
M  V30 2556 C 237.486 -4.17989 1.66149 0
M  V30 2557 C 238.805 -4.3813 -0.41595 0
M  V30 2558 H 235.924 -0.733293 0.0738311 0
M  V30 2559 H 238.566 -1.69368 0.86107 0
M  V30 2560 H 236.716 -3.87109 -0.328487 0
M  V30 2561 H 238.388 -4.0116 2.27747 0
M  V30 2562 H 236.631 -3.7377 2.20178 0
M  V30 2563 H 237.302 -5.27126 1.63837 0
M  V30 2564 H 239.778 -4.16051 0.0638529 0
M  V30 2565 H 238.654 -5.47717 -0.360115 0
M  V30 2566 H 238.915 -4.16101 -1.49373 0
M  V30 2567 N 237.974 -0.419461 -1.51915 0
M  V30 2568 C 238.904 0.391813 -2.30189 0
M  V30 2569 C 239.885 1.03699 -1.34836 0
M  V30 2570 O 241.07 1.04403 -1.63748 0
M  V30 2571 C 238.2 1.50312 -3.13087 0
M  V30 2572 C 237.154 0.9824 -4.16573 0
M  V30 2573 C 236.48 2.18809 -4.8788 0
M  V30 2574 C 237.78 0.0292356 -5.22292 0
M  V30 2575 H 239.474 -0.26135 -2.98257 0
M  V30 2576 H 237.02 -0.127134 -1.43438 0
M  V30 2577 H 238.973 2.07773 -3.66617 0
M  V30 2578 H 237.697 2.18431 -2.42807 0
M  V30 2579 H 236.356 0.430119 -3.64068 0
M  V30 2580 H 236.004 2.85507 -4.14119 0
M  V30 2581 H 235.704 1.84615 -5.57845 0
M  V30 2582 H 237.228 2.76858 -5.44226 0
M  V30 2583 H 238.642 0.512976 -5.71 0
M  V30 2584 H 237.039 -0.2244 -5.9968 0
M  V30 2585 H 238.109 -0.912931 -4.76228 0
M  V30 2586 N 239.452 1.56882 -0.150215 0
M  V30 2587 C 240.68 2.00593 0.506948 0
M  V30 2588 C 241.095 1.03033 1.58208 0
M  V30 2589 O 240.452 0.0278396 1.82479 0
M  V30 2590 C 240.503 3.44209 1.10465 0
M  V30 2591 O 240.224 4.3804 0.0724636 0
M  V30 2592 C 241.725 4.03214 1.84211 0
M  V30 2593 H 238.945 0.65795 0.13169 0
M  V30 2594 H 241.489 2.03018 -0.245743 0
M  V30 2595 H 239.644 3.42625 1.80795 0
M  V30 2596 H 240.058 5.22007 0.510793 0
M  V30 2597 H 241.532 5.0569 2.21318 0
M  V30 2598 H 242.009 3.44107 2.72923 0
M  V30 2599 H 242.615 4.08437 1.18572 0
M  V30 2600 N 240.93 -0.123565 1.57115 0
M  V30 2601 C 241.84 -1.17074 2.033 0
M  V30 2602 C 242.856 -1.4561 0.952559 0
M  V30 2603 O 244.032 -1.56817 1.26374 0
M  V30 2604 C 241.097 -2.47857 2.42421 0
M  V30 2605 C 240.158 -2.26758 3.64526 0
M  V30 2606 C 239.391 -3.51305 4.01771 0
M  V30 2607 O 239.614 -4.5843 3.39409 0
M  V30 2608 O 238.548 -3.42578 4.94898 0
M  V30 2609 H 242.374 -0.808555 2.92739 0
M  V30 2610 H 239.959 -0.334027 1.45618 0
M  V30 2611 H 241.841 -3.2492 2.68338 0
M  V30 2612 H 240.516 -2.83558 1.5613 0
M  V30 2613 H 239.423 -1.47569 3.43765 0
M  V30 2614 H 240.756 -1.95963 4.51508 0
M  V30 2615 N 242.408 -1.52605 -0.393616 0
M  V30 2616 C 243.654 -1.67672 -1.14079 0
M  V30 2617 C 243.987 -0.413121 -1.89755 0
M  V30 2618 O 243.262 0.588952 -1.85369 0
M  V30 2619 C 243.545 -2.9088 -2.12276 0
M  V30 2620 C 243.398 -4.27329 -1.40394 0
M  V30 2621 C 244.717 -3.09628 -3.12759 0
M  V30 2622 H 241.836 -0.610168 -0.413356 0
M  V30 2623 H 244.478 -1.85193 -0.424696 0
M  V30 2624 H 242.628 -2.76073 -2.73342 0
M  V30 2625 H 244.3 -4.53894 -0.82327 0
M  V30 2626 H 242.543 -4.2802 -0.705801 0
M  V30 2627 H 243.214 -5.09615 -2.12123 0
M  V30 2628 H 245.69 -3.23436 -2.61779 0
M  V30 2629 H 244.566 -3.97322 -3.78717 0
M  V30 2630 H 244.827 -2.23637 -3.81365 0
M  V30 2631 N 243.887 0.651787 -1.4349 0
M  V30 2632 C 245.112 1.44434 -1.48841 0
M  V30 2633 C 245.537 1.8779 -0.107955 0
M  V30 2634 O 244.895 1.57464 0.898602 0
M  V30 2635 C 244.943 2.65458 -2.44059 0
M  V30 2636 O 244.047 3.64566 -1.92784 0
M  V30 2637 H 243.388 0.433005 -0.503391 0
M  V30 2638 H 245.918 0.797451 -1.88419 0
M  V30 2639 H 245.928 3.13255 -2.6141 0
M  V30 2640 H 244.603 2.33244 -3.4434 0
M  V30 2641 H 243.18 3.23716 -1.851 0
M  V30 2642 N 245.365 1.30045 0.890287 0
M  V30 2643 C 246.313 1.15873 2.01683 0
M  V30 2644 C 247.307 0.0719403 1.69247 0
M  V30 2645 O 248.513 0.232414 1.78493 0
M  V30 2646 H 244.888 0.358203 0.661207 0
M  V30 2647 H 246.859 2.11229 2.10772 0
M  V30 2648 C 245.608 0.861842 3.36849 0
M  V30 2649 H 244.931 1.69016 3.62317 0
M  V30 2650 H 246.371 0.802762 4.16331 0
M  V30 2651 C 244.83 -0.435132 3.34078 0
M  V30 2652 O 245.36 -1.4583 3.74295 0
M  V30 2653 N 243.566 -0.444377 2.87182 0
M  V30 2654 H 243.113 0.388723 2.5465 0
M  V30 2655 H 243.071 -1.31213 2.85711 0
M  V30 2656 N 246.843 -1.10192 1.12674 0
M  V30 2657 C 247.753 -2.20172 0.810026 0
M  V30 2658 C 248.769 -1.72821 -0.202188 0
M  V30 2659 O 249.945 -2.01369 -0.0351691 0
M  V30 2660 C 247.01 -3.45631 0.272007 0
M  V30 2661 C 246.071 -4.07704 1.34447 0
M  V30 2662 C 245.304 -5.27175 0.832029 0
M  V30 2663 O 245.527 -5.69425 -0.333284 0
M  V30 2664 O 244.461 -5.80168 1.60277 0
M  V30 2665 H 248.287 -2.49701 1.72867 0
M  V30 2666 H 245.872 -1.18977 0.903597 0
M  V30 2667 H 247.754 -4.21394 -0.0230219 0
M  V30 2668 H 246.429 -3.17723 -0.619164 0
M  V30 2669 H 245.336 -3.33614 1.6927 0
M  V30 2670 H 246.669 -4.3982 2.2095 0
M  V30 2671 N 248.321 -0.919034 -1.28029 0
M  V30 2672 C 249.231 -0.416756 -2.30869 0
M  V30 2673 C 250.247 0.498235 -1.66714 0
M  V30 2674 O 251.423 0.383144 -1.97722 0
M  V30 2675 C 248.488 0.330274 -3.45123 0
M  V30 2676 C 247.549 -0.618578 -4.2482 0
M  V30 2677 C 246.782 0.0928959 -5.33619 0
M  V30 2678 O 247.005 1.31375 -5.55065 0
M  V30 2679 O 245.939 -0.574499 -5.99152 0
M  V30 2680 H 249.765 -1.27043 -2.75851 0
M  V30 2681 H 247.35 -0.684052 -1.3282 0
M  V30 2682 H 249.232 0.751972 -4.14636 0
M  V30 2683 H 247.907 1.1597 -3.02213 0
M  V30 2684 H 246.814 -1.08978 -3.57875 0
M  V30 2685 H 248.147 -1.41497 -4.71423 0
M  V30 2686 N 249.799 1.42003 -0.683588 0
M  V30 2687 C 250.709 2.34597 -0.0109075 0
M  V30 2688 C 251.725 1.55576 0.779245 0
M  V30 2689 O 252.901 1.88107 0.719555 0
M  V30 2690 C 249.966 3.34199 0.922588 0
M  V30 2691 C 249.027 4.29115 0.125984 0
M  V30 2692 C 248.26 5.23959 1.01502 0
M  V30 2693 O 248.483 5.23952 2.25456 0
M  V30 2694 O 247.417 6.00053 0.47111 0
M  V30 2695 H 251.243 2.93675 -0.773853 0
M  V30 2696 H 248.828 1.42654 -0.443861 0
M  V30 2697 H 250.71 3.95365 1.45823 0
M  V30 2698 H 249.385 2.77582 1.66523 0
M  V30 2699 H 248.292 3.71335 -0.453969 0
M  V30 2700 H 249.625 4.88798 -0.577736 0
M  V30 2701 N 251.277 0.427512 1.51691 0
M  V30 2702 C 252.209 -0.424521 2.25234 0
M  V30 2703 C 253.222 -0.994671 1.2888 0
M  V30 2704 O 254.411 -0.890483 1.54702 0
M  V30 2705 C 251.511 -1.60479 2.98496 0
M  V30 2706 C 250.684 -1.15527 4.21868 0
M  V30 2707 C 249.743 -2.20454 4.77793 0
M  V30 2708 O 248.769 -1.8029 5.39893 0
M  V30 2709 N 249.971 -3.52831 4.60967 0
M  V30 2710 H 252.736 0.205749 2.98993 0
M  V30 2711 H 250.297 0.255867 1.59865 0
M  V30 2712 H 252.289 -2.30276 3.32799 0
M  V30 2713 H 250.859 -2.14061 2.27809 0
M  V30 2714 H 250.079 -0.284736 3.9317 0
M  V30 2715 H 251.367 -0.832173 5.01949 0
M  V30 2716 H 250.765 -3.88201 4.11481 0
M  V30 2717 H 249.322 -4.18551 4.99658 0
M  V30 2718 N 252.755 -1.56801 0.158532 0
M  V30 2719 C 253.665 -2.20916 -0.789518 0
M  V30 2720 C 254.681 -1.1969 -1.26294 0
M  V30 2721 O 255.857 -1.52308 -1.31773 0
M  V30 2722 C 252.922 -2.82727 -2.00665 0
M  V30 2723 C 251.983 -3.99114 -1.58134 0
M  V30 2724 C 251.216 -4.57968 -2.74045 0
M  V30 2725 O 251.439 -4.15704 -3.90572 0
M  V30 2726 O 250.373 -5.48047 -2.48855 0
M  V30 2727 H 254.199 -3.02464 -0.273681 0
M  V30 2728 H 251.784 -1.4924 -0.0690548 0
M  V30 2729 H 253.666 -3.21968 -2.71872 0
M  V30 2730 H 252.341 -2.04184 -2.51179 0
M  V30 2731 H 251.248 -3.64567 -0.839155 0
M  V30 2732 H 252.581 -4.79212 -1.12325 0
M  V30 2733 N 254.233 0.115231 -1.57178 0
M  V30 2734 C 255.649 0.468877 -1.52557 0
M  V30 2735 C 255.849 1.81649 -0.872125 0
M  V30 2736 O 254.905 2.48347 -0.45606 0
M  V30 2737 C 256.218 0.4499 -2.97315 0
M  V30 2738 C 257.766 0.533185 -3.08425 0
M  V30 2739 C 258.241 0.54456 -4.54751 0
M  V30 2740 N 259.732 0.605892 -4.5922 0
M  V30 2741 C 260.467 0.636203 -5.6986 0
M  V30 2742 N 259.963 0.623931 -6.89985 0
M  V30 2743 N 261.756 0.679496 -5.57978 0
M  V30 2744 H 253.907 -0.767712 -1.9804 0
M  V30 2745 H 256.17 -0.283609 -0.904583 0
M  V30 2746 H 255.876 -0.472721 -3.48509 0
M  V30 2747 H 255.75 1.27632 -3.5495 0
M  V30 2748 H 258.137 1.44623 -2.57232 0
M  V30 2749 H 258.218 -0.320995 -2.53778 0
M  V30 2750 H 257.862 -0.364452 -5.06591 0
M  V30 2751 H 257.792 1.41568 -5.07214 0
M  V30 2752 H 260.283 0.621386 -3.72756 0
M  V30 2753 H 260.596 0.649787 -7.70063 0
M  V30 2754 H 258.941 0.591296 -6.9248 0
M  V30 2755 H 262.132 0.686472 -4.63039 0
M  V30 2756 H 262.305 0.69965 -6.44212 0
M  V30 2757 N 255.711 1.52812 0.385517 0
M  V30 2758 C 256.674 1.77188 1.45386 0
M  V30 2759 C 257.674 0.641953 1.4743 0
M  V30 2760 O 258.864 0.910033 1.4854 0
M  V30 2761 C 255.996 1.87582 2.8465 0
M  V30 2762 H 257.189 2.72583 1.25054 0
M  V30 2763 H 254.742 1.43586 0.617467 0
M  V30 2764 H 255.477 0.941849 3.10322 0
M  V30 2765 H 255.262 2.69748 2.84567 0
M  V30 2766 H 256.752 2.08102 3.62054 0
M  V30 2767 N 257.189 -0.644168 1.43834 0
M  V30 2768 C 258.438 -1.39985 1.45214 0
M  V30 2769 C 258.751 -1.95421 0.0835494 0
M  V30 2770 O 259.957 -2.71488 -0.0251748 0
M  V30 2771 C 258.413 -2.53384 2.55587 0
M  V30 2772 C 258.021 -2.04517 3.98594 0
M  V30 2773 C 259.765 -3.30685 2.66172 0
M  V30 2774 C 257.672 -3.1518 5.00416 0
M  V30 2775 H 256.602 -0.526005 0.540218 0
M  V30 2776 H 259.253 -0.694367 1.69855 0
M  V30 2777 H 257.635 -3.26446 2.24163 0
M  V30 2778 H 258.809 -1.38405 4.39523 0
M  V30 2779 H 257.124 -1.40068 3.92135 0
M  V30 2780 H 259.721 -4.13158 3.39418 0
M  V30 2781 H 260.064 -3.79312 1.71546 0
M  V30 2782 H 260.597 -2.64708 2.96942 0
M  V30 2783 H 257.336 -2.71511 5.96625 0
M  V30 2784 H 256.856 -3.79974 4.64091 0
M  V30 2785 H 258.535 -3.80166 5.23529 0
M  V30 2786 N 258.668 -1.30515 -0.883378 0
M  V30 2787 C 259.631 -1.1701 -1.97082 0
M  V30 2788 C 260.631 -0.10089 -1.60483 0
M  V30 2789 O 261.821 -0.349127 -1.70666 0
M  V30 2790 C 258.953 -0.793045 -3.31547 0
M  V30 2791 H 260.146 -2.13622 -2.10489 0
M  V30 2792 H 257.699 -1.13935 -1.06998 0
M  V30 2793 H 258.434 0.172499 -3.23841 0
M  V30 2794 H 258.219 -1.56576 -3.5948 0
M  V30 2795 H 259.709 -0.722073 -4.1131 0
M  V30 2796 N 260.146 1.09593 -1.13257 0
M  V30 2797 C 261.076 2.18214 -0.830946 0
M  V30 2798 C 262.057 1.68812 0.208966 0
M  V30 2799 O 263.242 1.9408 0.0682666 0
M  V30 2800 C 260.372 3.46051 -0.294296 0
M  V30 2801 C 259.326 4.08778 -1.26826 0
M  V30 2802 C 258.652 5.31419 -0.591449 0
M  V30 2803 C 259.952 4.51476 -2.62615 0
M  V30 2804 H 261.646 2.43703 -1.73923 0
M  V30 2805 H 259.192 1.17128 -0.837675 0
M  V30 2806 H 261.145 4.2134 -0.0709606 0
M  V30 2807 H 259.869 3.20079 0.649366 0
M  V30 2808 H 258.528 3.35505 -1.47756 0
M  V30 2809 H 258.176 5.01727 0.357633 0
M  V30 2810 H 257.876 5.74341 -1.24123 0
M  V30 2811 H 259.4 6.09433 -0.377355 0
M  V30 2812 H 260.814 5.17999 -2.45663 0
M  V30 2813 H 259.211 5.05277 -3.23752 0
M  V30 2814 H 260.281 3.63962 -3.20406 0
M  V30 2815 N 261.624 0.925811 1.2754 0
M  V30 2816 C 262.872 0.564138 1.94067 0
M  V30 2817 C 263.193 -0.897188 1.73134 0
M  V30 2818 O 262.463 -1.63573 1.07799 0
M  V30 2819 H 261.043 0.205645 0.718136 0
M  V30 2820 H 263.705 1.1778 1.55287 0
M  V30 2821 H 262.801 0.76881 3.02483 0
M  V30 2822 N 263.102 -1.41638 0.69111 0
M  V30 2823 C 264.065 -2.29178 0.0319786 0
M  V30 2824 C 265.065 -1.44153 -0.712496 0
M  V30 2825 O 266.255 -1.65354 -0.548053 0
M  V30 2826 C 263.387 -3.26952 -0.965161 0
M  V30 2827 H 264.58 -2.88959 0.802681 0
M  V30 2828 H 262.133 -1.4955 0.454356 0
M  V30 2829 H 262.868 -2.72142 -1.76378 0
M  V30 2830 H 262.653 -3.89685 -0.434522 0
M  V30 2831 H 264.143 -3.92561 -1.42428 0
M  V30 2832 N 264.58 -0.43555 -1.51462 0
M  V30 2833 C 265.527 0.376797 -2.27703 0
M  V30 2834 C 266.497 1.01838 -1.31219 0
M  V30 2835 O 267.682 1.03762 -1.60119 0
M  V30 2836 C 264.822 1.47301 -3.12084 0
M  V30 2837 C 263.935 0.849744 -4.2356 0
M  V30 2838 C 263.07 1.92086 -4.95254 0
M  V30 2839 C 262.109 1.27593 -5.98654 0
M  V30 2840 N 261.246 2.28833 -6.63762 0
M  V30 2841 H 266.086 -0.279734 -2.96684 0
M  V30 2842 H 263.623 -0.149795 -1.46335 0
M  V30 2843 H 265.581 2.11984 -3.59331 0
M  V30 2844 H 264.211 2.0992 -2.45221 0
M  V30 2845 H 263.263 0.0912529 -3.80291 0
M  V30 2846 H 264.575 0.338878 -4.97648 0
M  V30 2847 H 263.729 2.64435 -5.46039 0
M  V30 2848 H 262.468 2.46545 -4.20793 0
M  V30 2849 H 261.473 0.537893 -5.47162 0
M  V30 2850 H 262.698 0.738693 -6.7507 0
M  V30 2851 H 260.644 2.82375 -5.92115 0
M  V30 2852 H 260.561 1.82632 -7.33608 0
M  V30 2853 H 261.829 3.00671 -7.19178 0
M  V30 2854 N 266.058 1.56714 -0.166846 0
M  V30 2855 C 267.304 1.97039 0.479962 0
M  V30 2856 C 267.637 1.05264 1.63197 0
M  V30 2857 O 266.912 0.0988833 1.94248 0
M  V30 2858 C 267.195 3.46867 0.967212 0
M  V30 2859 C 267.048 4.49421 -0.18466 0
M  V30 2860 C 268.367 3.9968 1.84238 0
M  V30 2861 H 265.486 0.71641 0.172992 0
M  V30 2862 H 268.128 1.8832 -0.252079 0
M  V30 2863 H 266.278 3.54428 1.59101 0
M  V30 2864 H 267.95 4.53924 -0.821621 0
M  V30 2865 H 266.193 4.25573 -0.840837 0
M  V30 2866 H 266.864 5.51644 0.198317 0
M  V30 2867 H 269.34 3.94723 1.31655 0
M  V30 2868 H 268.216 5.04941 2.15234 0
M  V30 2869 H 268.477 3.43226 2.78654 0
M  V30 2870 N 267.536 -0.106894 1.57237 0
M  V30 2871 C 268.782 -0.81373 1.85759 0
M  V30 2872 C 269.115 -1.78952 0.754315 0
M  V30 2873 O 268.39 -1.93029 -0.23879 0
M  V30 2874 C 268.673 -1.55293 3.24894 0
M  V30 2875 C 268.526 -0.595929 4.45835 0
M  V30 2876 C 269.845 -2.5063 3.61763 0
M  V30 2877 H 266.964 -0.294369 0.67566 0
M  V30 2878 H 269.606 -0.0776472 1.89841 0
M  V30 2879 H 267.756 -2.1804 3.21544 0
M  V30 2880 H 269.428 0.0236262 4.61294 0
M  V30 2881 H 267.671 0.0916191 4.33703 0
M  V30 2882 H 268.342 -1.15004 5.39887 0
M  V30 2883 H 270.818 -1.97982 3.65981 0
M  V30 2884 H 269.694 -2.99376 4.60071 0
M  V30 2885 H 269.955 -3.3385 2.89821 0
M  V30 2886 N 269.014 -1.53014 -0.377408 0
M  V30 2887 C 270.262 -1.6829 -1.11906 0
M  V30 2888 C 270.583 -0.431206 -1.90173 0
M  V30 2889 O 269.853 0.554595 -1.87886 0
M  V30 2890 H 268.433 -0.620371 -0.416112 0
M  V30 2891 H 271.095 -1.90167 -0.426893 0
M  V30 2892 H 270.191 -2.53862 -1.8155 0
M  V30 2893 N 270.492 0.636531 -1.44174 0
M  V30 2894 C 271.741 1.39213 -1.45954 0
M  V30 2895 C 272.054 1.95374 -0.0939119 0
M  V30 2896 O 273.26 2.71498 0.0107767 0
M  V30 2897 C 271.716 2.52025 -2.56927 0
M  V30 2898 C 271.324 2.024 -3.99673 0
M  V30 2899 C 273.068 3.29269 -2.67922 0
M  V30 2900 C 270.975 3.12521 -5.0208 0
M  V30 2901 H 269.905 0.523132 -0.542999 0
M  V30 2902 H 272.556 0.685349 -1.70221 0
M  V30 2903 H 270.938 3.25253 -2.25891 0
M  V30 2904 H 272.112 1.36073 -4.40251 0
M  V30 2905 H 270.427 1.37987 -3.92872 0
M  V30 2906 H 273.024 4.11352 -3.41605 0
M  V30 2907 H 273.367 3.78397 -1.73555 0
M  V30 2908 H 273.9 2.63129 -2.98342 0
M  V30 2909 H 270.639 2.68343 -5.98057 0
M  V30 2910 H 270.159 3.77507 -4.66099 0
M  V30 2911 H 271.838 3.77385 -5.25538 0
M  V30 2912 N 271.97 1.30982 0.876444 0
M  V30 2913 C 272.918 1.18006 2.00443 0
M  V30 2914 C 273.912 0.0898871 1.69161 0
M  V30 2915 O 275.118 0.251333 1.78237 0
M  V30 2916 H 271.493 0.365196 0.65737 0
M  V30 2917 H 273.464 2.13453 2.0852 0
M  V30 2918 C 272.213 0.897521 3.35916 0
M  V30 2919 H 271.536 1.7285 3.60504 0
M  V30 2920 H 272.976 0.846874 4.15456 0
M  V30 2921 C 271.435 -0.399674 3.34521 0
M  V30 2922 O 271.965 -1.41852 3.7582 0
M  V30 2923 N 270.171 -0.413893 2.87637 0
M  V30 2924 H 269.718 0.41571 2.54224 0
M  V30 2925 H 269.676 -1.28175 2.87086 0
M  V30 2926 N 273.449 -1.08991 1.13837 0
M  V30 2927 C 274.397 -2.17841 0.815347 0
M  V30 2928 C 275.391 -1.68164 -0.204233 0
M  V30 2929 O 276.597 -1.79897 -0.0609304 0
M  V30 2930 H 272.972 -0.710654 0.245915 0
M  V30 2931 H 274.943 -2.42315 1.74143 0
M  V30 2932 C 273.692 -3.46381 0.302614 0
M  V30 2933 H 273.015 -3.84979 1.0785 0
M  V30 2934 H 274.455 -4.23844 0.115074 0
M  V30 2935 C 272.914 -3.22556 -0.972591 0
M  V30 2936 O 273.444 -3.45599 -2.04754 0
M  V30 2937 N 271.65 -2.76134 -0.905455 0
M  V30 2938 H 271.197 -2.57582 -0.0305421 0
M  V30 2939 H 271.155 -2.60571 -1.75926 0
M  V30 2940 N 274.927 -0.932562 -1.27047 0
M  V30 2941 C 276.343 -0.633544 -1.46487 0
M  V30 2942 C 276.543 0.815746 -1.84249 0
M  V30 2943 O 275.599 1.59319 -1.95892 0
M  V30 2944 C 276.912 -1.58758 -2.55375 0
M  V30 2945 C 278.46 -1.59634 -2.69232 0
M  V30 2946 C 278.935 -2.53747 -3.81283 0
M  V30 2947 N 280.426 -2.51982 -3.88664 0
M  V30 2948 C 281.161 -3.21491 -4.74796 0
M  V30 2949 N 280.657 -4.00395 -5.65381 0
M  V30 2950 N 282.45 -3.10485 -4.68568 0
M  V30 2951 H 274.601 -1.86946 -1.00821 0
M  V30 2952 H 276.864 -0.802897 -0.504044 0
M  V30 2953 H 276.57 -2.62172 -2.34432 0
M  V30 2954 H 276.444 -1.33301 -3.52861 0
M  V30 2955 H 278.831 -0.569488 -2.89553 0
M  V30 2956 H 278.912 -1.89142 -1.72218 0
M  V30 2957 H 278.556 -3.56545 -3.61715 0
M  V30 2958 H 278.486 -2.21532 -4.77735 0
M  V30 2959 H 280.977 -1.94681 -3.23895 0
M  V30 2960 H 281.29 -4.50406 -6.27976 0
M  V30 2961 H 279.635 -4.04498 -5.65161 0
M  V30 2962 H 282.826 -2.48331 -3.96799 0
M  V30 2963 H 282.999 -3.64925 -5.35475 0
M  V30 2964 N 276.405 1.4127 -0.698611 0
M  V30 2965 C 277.682 1.94955 -0.158762 0
M  V30 2966 C 278.062 1.63781 1.33188 0
M  V30 2967 O 277.41 0.946423 2.07979 0
M  V30 2968 C 277.62 3.46044 -0.453309 0
M  V30 2969 C 278.968 4.22872 -0.382707 0
M  V30 2970 O 279.992 3.54076 -0.388396 0
M  V30 2971 O 278.851 5.45407 -0.345463 0
M  V30 2972 H 275.945 0.82683 -0.0167505 0
M  V30 2973 H 278.491 1.50971 -0.77498 0
M  V30 2974 H 277.263 3.62028 -1.48498 0
M  V30 2975 H 276.886 3.97128 0.19373 0
M  V30 2976 N 277.883 0.443576 1.51229 0
M  V30 2977 C 278.813 -0.355142 2.30783 0
M  V30 2978 C 279.794 -1.0154 1.36468 0
M  V30 2979 O 280.979 -1.01785 1.65389 0
M  V30 2980 C 278.109 -1.45312 3.15439 0
M  V30 2981 C 277.063 -0.916002 4.18083 0
M  V30 2982 C 276.389 -2.1102 4.91299 0
M  V30 2983 C 277.689 0.0538602 5.22272 0
M  V30 2984 H 279.383 0.308767 2.97804 0
M  V30 2985 H 276.929 0.149937 1.43217 0
M  V30 2986 H 278.882 -2.01914 3.69876 0
M  V30 2987 H 277.606 -2.14541 2.46252 0
M  V30 2988 H 276.265 -0.372145 3.64706 0
M  V30 2989 H 275.913 -2.78882 4.18609 0
M  V30 2990 H 275.613 -1.75717 5.60712 0
M  V30 2991 H 277.137 -2.68164 5.48562 0
M  V30 2992 H 278.551 -0.422069 5.71744 0
M  V30 2993 H 276.948 0.319776 5.99247 0
M  V30 2994 H 278.018 0.98858 4.74716 0
M  V30 2995 N 279.361 -1.56624 0.175154 0
M  V30 2996 C 280.777 -1.58571 -0.180966 0
M  V30 2997 C 280.977 -1.19065 -1.6256 0
M  V30 2998 O 280.033 -0.904044 -2.35761 0
M  V30 2999 C 281.346 -3.00522 0.103326 0
M  V30 3000 C 282.894 -3.12972 0.0418426 0
M  V30 3001 C 283.369 -4.57022 0.299175 0
M  V30 3002 N 284.86 -4.62541 0.247086 0
M  V30 3003 C 285.595 -5.71857 0.420318 0
M  V30 3004 N 285.091 -6.89717 0.652816 0
M  V30 3005 N 286.884 -5.60972 0.355957 0
M  V30 3006 H 279.035 -1.80589 1.11809 0
M  V30 3007 H 281.298 -0.837178 0.444788 0
M  V30 3008 H 281.004 -3.33916 1.10422 0
M  V30 3009 H 280.878 -3.72344 -0.603299 0
M  V30 3010 H 283.265 -2.79403 -0.949636 0
M  V30 3011 H 283.346 -2.43578 0.781238 0
M  V30 3012 H 282.99 -4.913 1.28788 0
M  V30 3013 H 282.92 -5.24579 -0.460876 0
M  V30 3014 H 285.411 -3.77829 0.0731895 0
M  V30 3015 H 285.724 -7.68911 0.774347 0
M  V30 3016 H 284.069 -6.91572 0.689476 0
M  V30 3017 H 287.26 -4.67773 0.174882 0
M  V30 3018 H 287.433 -6.46111 0.494388 0
M  V30 3019 N 280.839 0.0985539 -1.57292 0
M  V30 3020 C 282.116 0.834155 -1.76921 0
M  V30 3021 C 282.496 1.97101 -0.755928 0
M  V30 3022 O 281.844 2.27474 0.216245 0
M  V30 3023 C 282.054 1.33194 -3.22584 0
M  V30 3024 C 283.402 1.77611 -3.85668 0
M  V30 3025 O 284.426 1.42825 -3.26312 0
M  V30 3026 O 283.285 2.4192 -4.90038 0
M  V30 3027 H 280.379 0.397628 -0.725135 0
M  V30 3028 H 282.925 0.0807044 -1.69508 0
M  V30 3029 H 281.697 0.517248 -3.87866 0
M  V30 3030 H 281.32 2.1475 -3.34616 0
M  V30 3031 N 282.317 1.53212 0.369288 0
M  V30 3032 C 283.247 1.82365 1.45826 0
M  V30 3033 C 284.228 0.676907 1.56051 0
M  V30 3034 O 285.413 0.926401 1.70679 0
M  V30 3035 C 282.543 2.01023 2.83208 0
M  V30 3036 C 281.497 3.1678 2.8781 0
M  V30 3037 C 280.823 3.20724 4.27832 0
M  V30 3038 C 282.123 4.55447 2.55667 0
M  V30 3039 H 283.817 2.73559 1.21678 0
M  V30 3040 H 281.363 1.3163 0.583911 0
M  V30 3041 H 283.316 2.20001 3.59413 0
M  V30 3042 H 282.04 1.06536 3.08736 0
M  V30 3043 H 280.699 2.97616 2.14056 0
M  V30 3044 H 280.347 2.23882 4.50429 0
M  V30 3045 H 280.047 3.98496 4.31827 0
M  V30 3046 H 281.571 3.41881 5.05915 0
M  V30 3047 H 282.985 4.74611 3.21586 0
M  V30 3048 H 281.382 5.35432 2.70984 0
M  V30 3049 H 282.452 4.60812 1.5093 0
M  V30 3050 N 283.795 -0.628877 1.44509 0
M  V30 3051 C 285.02 -1.42048 1.5112 0
M  V30 3052 C 285.445 -1.87594 0.137818 0
M  V30 3053 O 284.803 -1.58873 -0.873437 0
M  V30 3054 C 284.851 -2.61541 2.48251 0
M  V30 3055 O 283.955 -3.61453 1.98559 0
M  V30 3056 H 283.296 -0.424942 0.510216 0
M  V30 3057 H 285.826 -0.767374 1.89664 0
M  V30 3058 H 285.836 -3.09057 2.66361 0
M  V30 3059 H 284.511 -2.27736 3.48007 0
M  V30 3060 H 283.088 -3.20731 1.90227 0
M  V30 3061 N 285.273 -1.31445 -0.869486 0
M  V30 3062 C 286.522 -1.20517 -1.61736 0
M  V30 3063 C 286.835 0.235341 -1.94179 0
M  V30 3064 O 288.041 0.466312 -2.67465 0
M  V30 3065 C 286.497 -2.10982 -2.91573 0
M  V30 3066 C 286.105 -3.60032 -2.66611 0
M  V30 3067 C 287.849 -2.08856 -3.69567 0
M  V30 3068 C 285.756 -4.42503 -3.92358 0
M  V30 3069 H 284.686 -0.447493 -0.606849 0
M  V30 3070 H 287.337 -1.56303 -0.96133 0
M  V30 3071 H 285.719 -1.68095 -3.58553 0
M  V30 3072 H 286.893 -4.11167 -2.08035 0
M  V30 3073 H 285.208 -3.64139 -2.0197 0
M  V30 3074 H 287.805 -2.67716 -4.62852 0
M  V30 3075 H 288.148 -1.07582 -4.02159 0
M  V30 3076 H 288.681 -2.49945 -3.09471 0
M  V30 3077 H 285.42 -5.44533 -3.64916 0
M  V30 3078 H 284.94 -3.96125 -4.50383 0
M  V30 3079 H 286.619 -4.54741 -4.60238 0
M  V30 3080 N 286.751 1.08385 -1.14413 0
M  V30 3081 C 288.028 1.77429 -0.823297 0
M  V30 3082 C 288.408 1.9974 0.683163 0
M  V30 3083 O 287.756 1.60739 1.62405 0
M  V30 3084 C 287.966 3.09004 -1.62227 0
M  V30 3085 C 289.314 3.83532 -1.82177 0
M  V30 3086 O 290.338 3.18786 -1.58915 0
M  V30 3087 O 289.197 4.99792 -2.21067 0
M  V30 3088 H 286.291 0.769999 -0.301712 0
M  V30 3089 H 288.837 1.14846 -1.24934 0
M  V30 3090 H 287.609 2.88316 -2.64555 0
M  V30 3091 H 287.232 3.79316 -1.19187 0
M  V30 3092 N 288.23 0.939286 1.26551 0
M  V30 3093 C 289.16 0.465044 2.28822 0
M  V30 3094 C 290.141 -0.480692 1.63167 0
M  V30 3095 O 291.326 -0.382955 1.90387 0
M  V30 3096 C 288.456 -0.27234 3.46231 0
M  V30 3097 C 287.41 0.58666 4.2396 0
M  V30 3098 C 286.736 -0.280573 5.33963 0
M  V30 3099 C 288.036 1.85704 4.88171 0
M  V30 3100 H 289.73 1.31979 2.68741 0
M  V30 3101 H 287.276 0.636061 1.29191 0
M  V30 3102 H 289.229 -0.615133 4.16886 0
M  V30 3103 H 287.953 -1.16121 3.0526 0
M  V30 3104 H 286.612 0.91232 3.55067 0
M  V30 3105 H 286.26 -1.16874 4.89234 0
M  V30 3106 H 285.96 0.29076 5.8688 0
M  V30 3107 H 287.484 -0.618678 6.07458 0
M  V30 3108 H 288.898 1.58161 5.51052 0
M  V30 3109 H 287.295 2.37279 5.51197 0
M  V30 3110 H 288.365 2.56957 4.11219 0
M  V30 3111 N 289.708 -1.40897 0.706093 0
M  V30 3112 C 290.656 -2.32572 0.0361893 0
M  V30 3113 C 291.65 -1.51532 -0.757266 0
M  V30 3114 O 292.856 -1.67396 -0.661703 0
M  V30 3115 H 289.231 -0.751966 -0.00709935 0
M  V30 3116 H 291.202 -2.86733 0.826249 0
M  V30 3117 C 289.951 -3.36418 -0.87854 0
M  V30 3118 H 289.274 -3.98836 -0.277401 0
M  V30 3119 H 290.714 -4.0308 -1.3154 0
M  V30 3120 C 289.173 -2.71141 -1.99961 0
M  V30 3121 O 289.703 -2.56735 -3.0895 0
M  V30 3122 N 287.909 -2.29671 -1.78043 0
M  V30 3123 H 287.456 -2.41588 -0.894042 0
M  V30 3124 H 287.414 -1.86332 -2.53235 0
M  V30 3125 N 291.186 -0.45159 -1.50991 0
M  V30 3126 C 292.602 -0.104647 -1.59257 0
M  V30 3127 C 292.802 1.38728 -1.4614 0
M  V30 3128 O 291.858 2.15866 -1.30989 0
M  V30 3129 C 293.171 -0.637468 -2.93865 0
M  V30 3130 C 294.719 -0.599166 -3.07212 0
M  V30 3131 C 295.194 -1.1092 -4.44366 0
M  V30 3132 N 296.685 -1.06778 -4.50725 0
M  V30 3133 C 297.42 -1.43314 -5.55201 0
M  V30 3134 N 296.916 -1.87204 -6.67028 0
M  V30 3135 N 298.709 -1.3504 -5.45638 0
M  V30 3136 H 290.86 -1.42214 -1.57762 0
M  V30 3137 H 293.123 -0.586921 -0.744465 0
M  V30 3138 H 292.829 -1.68187 -3.08879 0
M  V30 3139 H 292.703 -0.0702139 -3.77135 0
M  V30 3140 H 295.09 0.436277 -2.91857 0
M  V30 3141 H 295.171 -1.20299 -2.25747 0
M  V30 3142 H 294.815 -2.14318 -4.60467 0
M  V30 3143 H 294.745 -0.481773 -5.24392 0
M  V30 3144 H 297.236 -0.745643 -3.70471 0
M  V30 3145 H 297.549 -2.13282 -7.42786 0
M  V30 3146 H 295.894 -1.91142 -6.68199 0
M  V30 3147 H 299.085 -1.00607 -4.57161 0
M  V30 3148 H 299.258 -1.63841 -6.26945 0
M  V30 3149 N 292.664 1.56529 -0.183458 0
M  V30 3150 C 293.892 2.01623 0.464285 0
M  V30 3151 C 294.307 1.06366 1.55986 0
M  V30 3152 O 293.664 0.0665398 1.82379 0
M  V30 3153 C 293.715 3.46475 1.03139 0
M  V30 3154 O 293.436 4.38095 -0.0204675 0
M  V30 3155 C 294.937 4.0703 1.75617 0
M  V30 3156 H 292.157 0.660596 0.117704 0
M  V30 3157 H 294.701 2.02451 -0.288751 0
M  V30 3158 H 292.856 3.46383 1.73486 0
M  V30 3159 H 293.27 5.22973 0.399952 0
M  V30 3160 H 294.744 5.10271 2.10542 0
M  V30 3161 H 295.221 3.49819 2.65563 0
M  V30 3162 H 295.827 4.1086 1.09882 0
M  V30 3163 N 294.142 -0.090211 1.57342 0
M  V30 3164 C 295.558 -0.444547 1.53284 0
M  V30 3165 C 295.758 -1.80238 0.900914 0
M  V30 3166 O 294.814 -2.4759 0.495513 0
M  V30 3167 C 296.127 -0.402543 2.97993 0
M  V30 3168 C 297.675 -0.48405 3.09234 0
M  V30 3169 C 298.15 -0.472144 4.5556 0
M  V30 3170 N 299.641 -0.532757 4.60126 0
M  V30 3171 C 300.376 -0.545462 5.708 0
M  V30 3172 N 299.872 -0.514082 6.9089 0
M  V30 3173 N 301.665 -0.59064 5.58988 0
M  V30 3174 H 293.816 0.799121 1.96794 0
M  V30 3175 H 296.079 0.297965 0.899956 0
M  V30 3176 H 295.785 0.528106 3.47712 0
M  V30 3177 H 295.659 -1.21969 3.56936 0
M  V30 3178 H 298.046 -1.40512 2.595 0
M  V30 3179 H 298.127 0.361328 2.53235 0
M  V30 3180 H 297.771 0.445 5.05947 0
M  V30 3181 H 297.701 -1.3348 5.09402 0
M  V30 3182 H 300.192 -0.562006 3.73698 0
M  V30 3183 H 300.505 -0.527195 7.71 0
M  V30 3184 H 298.85 -0.481054 6.93333 0
M  V30 3185 H 302.041 -0.61272 4.64073 0
M  V30 3186 H 302.214 -0.597073 6.45243 0
M  V30 3187 N 295.62 -1.53406 -0.361157 0
M  V30 3188 C 296.53 -1.83122 -1.4664 0
M  V30 3189 C 297.546 -0.719943 -1.58407 0
M  V30 3190 O 298.722 -1.01046 -1.74218 0
M  V30 3191 C 295.787 -2.01891 -2.81853 0
M  V30 3192 C 294.848 -3.25784 -2.79577 0
M  V30 3193 C 294.081 -3.43648 -4.0834 0
M  V30 3194 O 294.304 -2.65714 -5.0473 0
M  V30 3195 O 293.238 -4.37018 -4.13883 0
M  V30 3196 H 297.064 -2.7703 -1.24451 0
M  V30 3197 H 294.649 -1.38841 -0.551678 0
M  V30 3198 H 296.531 -2.15782 -3.61962 0
M  V30 3199 H 295.206 -1.11173 -3.0401 0
M  V30 3200 H 294.113 -3.17312 -1.98151 0
M  V30 3201 H 295.446 -4.16439 -2.62373 0
M  V30 3202 N 297.098 0.621204 -1.44841 0
M  V30 3203 C 298.028 1.74366 -1.55303 0
M  V30 3204 C 299.009 1.65199 -0.405385 0
M  V30 3205 O 300.194 1.83807 -0.626787 0
M  V30 3206 C 297.324 3.12931 -1.50637 0
M  V30 3207 C 296.278 3.36896 -2.63979 0
M  V30 3208 C 295.604 4.75594 -2.44366 0
M  V30 3209 C 296.904 3.28483 -4.06074 0
M  V30 3210 H 298.598 1.65867 -2.49256 0
M  V30 3211 H 296.144 0.796558 -1.19962 0
M  V30 3212 H 298.097 3.9124 -1.56555 0
M  V30 3213 H 296.821 3.22237 -0.532057 0
M  V30 3214 H 295.48 2.60972 -2.57467 0
M  V30 3215 H 295.128 4.81616 -1.45105 0
M  V30 3216 H 294.828 4.92586 -3.20364 0
M  V30 3217 H 296.352 5.5612 -2.52117 0
M  V30 3218 H 297.766 3.96684 -4.13902 0
M  V30 3219 H 296.163 3.57008 -4.82354 0
M  V30 3220 H 297.233 2.26133 -4.28943 0
M  V30 3221 N 298.576 1.31904 0.862503 0
M  V30 3222 C 299.539 1.20131 1.95195 0
M  V30 3223 C 300.539 0.126409 1.60302 0
M  V30 3224 O 301.729 0.376234 1.70089 0
M  V30 3225 C 298.861 0.845691 3.30244 0
M  V30 3226 H 300.054 2.16943 2.07064 0
M  V30 3227 H 297.607 1.15622 1.05172 0
M  V30 3228 H 298.342 -0.120957 3.24074 0
M  V30 3229 H 298.127 1.62276 3.56944 0
M  V30 3230 H 299.617 0.787418 4.10109 0
M  V30 3231 N 300.054 -1.07777 1.14986 0
M  V30 3232 C 301.465 -1.61766 0.932127 0
M  V30 3233 C 301.816 -1.88974 -0.527581 0
M  V30 3234 O 300.941 -1.65198 -1.39781 0
M  V30 3235 C 301.536 -2.93891 1.68563 0
M  V30 3236 C 300.095 -3.44639 1.5133 0
M  V30 3237 C 299.242 -2.18767 1.704 0
M  V30 3238 H 302.193 -0.909201 1.30074 0
M  V30 3239 H 302.214 -3.62623 1.15259 0
M  V30 3240 H 301.726 -2.74057 2.74799 0
M  V30 3241 H 299.827 -3.69564 0.474702 0
M  V30 3242 H 299.94 -4.20966 2.28746 0
M  V30 3243 H 298.304 -2.28253 1.13016 0
M  V30 3244 H 299.087 -2.01433 2.77992 0
M  V30 3245 N 301.532 -0.945985 -1.26051 0
M  V30 3246 C 302.479 -0.45809 -2.26208 0
M  V30 3247 C 303.449 0.484816 -1.58867 0
M  V30 3248 O 304.634 0.399969 -1.86561 0
M  V30 3249 C 301.774 0.266131 -3.44072 0
M  V30 3250 C 300.887 -0.713005 -4.26075 0
M  V30 3251 C 300.022 0.0329013 -5.3119 0
M  V30 3252 C 299.061 -0.93774 -6.04874 0
M  V30 3253 N 298.198 -0.223274 -7.01745 0
M  V30 3254 H 303.038 -1.3171 -2.67313 0
M  V30 3255 H 300.575 -0.66069 -1.31428 0
M  V30 3256 H 302.533 0.702514 -4.11243 0
M  V30 3257 H 301.163 1.08925 -3.03867 0
M  V30 3258 H 300.215 -1.26789 -3.58648 0
M  V30 3259 H 301.527 -1.45406 -4.77136 0
M  V30 3260 H 300.681 0.528335 -6.04395 0
M  V30 3261 H 299.42 0.806801 -4.8098 0
M  V30 3262 H 298.425 -1.44425 -5.30492 0
M  V30 3263 H 299.65 -1.71172 -6.57173 0
M  V30 3264 H 297.596 0.532046 -6.53839 0
M  V30 3265 H 297.513 -0.90357 -7.50581 0
M  V30 3266 H 298.781 0.250907 -7.79096 0
M  V30 3267 N 303.011 1.40521 -0.713556 0
M  V30 3268 C 303.941 2.33381 -0.0743864 0
M  V30 3269 C 304.922 1.52784 0.747735 0
M  V30 3270 O 306.107 1.81258 0.697071 0
M  V30 3271 C 303.237 3.36748 0.849598 0
M  V30 3272 C 302.191 4.27793 0.133247 0
M  V30 3273 C 301.517 5.21679 1.17281 0
M  V30 3274 C 302.817 5.12415 -1.01134 0
M  V30 3275 H 304.511 2.87081 -0.850007 0
M  V30 3276 H 302.057 1.38034 -0.410201 0
M  V30 3277 H 304.01 4.00648 1.30612 0
M  V30 3278 H 302.734 2.81439 1.65709 0
M  V30 3279 H 301.393 3.65342 -0.303426 0
M  V30 3280 H 301.041 4.62677 1.9733 0
M  V30 3281 H 300.741 5.83435 0.698397 0
M  V30 3282 H 302.265 5.88456 1.62947 0
M  V30 3283 H 303.679 5.69781 -0.634274 0
M  V30 3284 H 302.076 5.83203 -1.41399 0
M  V30 3285 H 303.146 4.48514 -1.84292 0
M  V30 3286 N 304.489 0.459591 1.5075 0
M  V30 3287 C 305.737 -0.0991532 2.01857 0
M  V30 3288 C 306.058 -1.41247 1.34441 0
M  V30 3289 O 305.328 -1.89775 0.486022 0
M  V30 3290 H 303.908 -0.039633 0.745948 0
M  V30 3291 H 306.57 0.607387 1.85194 0
M  V30 3292 H 305.666 -0.258998 3.11023 0
M  V30 3293 N 305.967 -1.56429 0.191757 0
M  V30 3294 C 306.917 -2.15548 -0.743184 0
M  V30 3295 C 307.901 -1.09531 -1.17863 0
M  V30 3296 O 309.093 -1.35602 -1.13759 0
M  V30 3297 C 306.222 -2.81577 -1.96391 0
M  V30 3298 C 305.308 -3.9478 -1.54951 0
M  V30 3299 N 305.699 -4.98677 -0.845876 0
M  V30 3300 C 303.997 -4.06319 -1.83905 0
M  V30 3301 C 304.698 -5.78183 -0.638724 0
M  V30 3302 N 303.674 -5.30495 -1.18643 0
M  V30 3303 H 307.476 -2.9324 -0.196839 0
M  V30 3304 H 304.99 -1.62398 -0.0081603 0
M  V30 3305 H 306.987 -3.22321 -2.64415 0
M  V30 3306 H 305.647 -2.05371 -2.51501 0
M  V30 3307 H 306.658 -5.15464 -0.501704 0
M  V30 3308 H 303.335 -3.41238 -2.40548 0
M  V30 3309 H 304.725 -6.71851 -0.0807929 0
M  V30 3310 N 307.445 0.0818655 -1.57387 0
M  V30 3311 C 308.393 1.11712 -2.04018 0
M  V30 3312 C 309.387 1.40683 -0.94364 0
M  V30 3313 O 310.593 1.40209 -1.12878 0
M  V30 3314 H 306.968 0.377542 -0.650358 0
M  V30 3315 H 308.939 0.697614 -2.90131 0
M  V30 3316 C 307.688 2.42537 -2.49141 0
M  V30 3317 H 307.011 2.21092 -3.33104 0
M  V30 3318 H 308.451 3.13446 -2.85531 0
M  V30 3319 C 306.91 3.0778 -1.37014 0
M  V30 3320 O 307.44 3.95436 -0.706621 0
M  V30 3321 N 305.646 2.68242 -1.11779 0
M  V30 3322 H 305.193 1.97052 -1.65917 0
M  V30 3323 H 305.151 3.1222 -0.369594 0
M  V30 3324 N 308.923 1.53595 0.353017 0
M  V30 3325 C 310.169 1.70638 1.09593 0
M  V30 3326 C 310.502 0.463286 1.88593 0
M  V30 3327 O 309.777 -0.539597 1.86865 0
M  V30 3328 C 310.06 2.96406 2.04489 0
M  V30 3329 C 309.913 4.30901 1.29014 0
M  V30 3330 C 311.232 3.17812 3.0444 0
M  V30 3331 H 308.351 0.620913 0.397034 0
M  V30 3332 H 310.993 1.86254 0.375446 0
M  V30 3333 H 309.143 2.83223 2.65927 0
M  V30 3334 H 310.815 4.55917 0.702638 0
M  V30 3335 H 309.058 4.29741 0.592071 0
M  V30 3336 H 309.729 5.1506 1.98537 0
M  V30 3337 H 312.205 3.30263 2.53112 0
M  V30 3338 H 311.081 4.07223 3.6805 0
M  V30 3339 H 311.342 2.33669 3.75301 0
M  V30 3340 N 310.401 -0.613514 1.45168 0
M  V30 3341 C 311.629 -1.39946 1.5239 0
M  V30 3342 C 312.044 -1.88167 0.154531 0
M  V30 3343 O 311.401 -1.61872 -0.842843 0
M  V30 3344 C 311.452 -2.60795 2.50337 0
M  V30 3345 O 311.173 -2.1458 3.81952 0
M  V30 3346 C 312.674 -3.53723 2.67198 0
M  V30 3347 H 309.894 -0.428593 0.516284 0
M  V30 3348 H 312.438 -0.748753 1.903 0
M  V30 3349 H 310.593 -3.21919 2.15515 0
M  V30 3350 H 311.007 -2.93055 4.34993 0
M  V30 3351 H 312.481 -4.35079 3.39721 0
M  V30 3352 H 312.958 -4.0368 1.73029 0
M  V30 3353 H 313.564 -2.98456 3.02992 0
M  V30 3354 N 311.879 -1.3236 -0.855495 0
M  V30 3355 C 313.125 -1.23054 -1.612 0
M  V30 3356 C 313.458 0.207404 -1.93089 0
M  V30 3357 O 312.733 1.14432 -1.57275 0
M  V30 3358 C 313.016 -2.08937 -2.93287 0
M  V30 3359 C 312.869 -3.61105 -2.68185 0
M  V30 3360 C 314.188 -1.94986 -3.94549 0
M  V30 3361 H 311.307 -0.448364 -0.584926 0
M  V30 3362 H 313.949 -1.62297 -0.987917 0
M  V30 3363 H 312.099 -1.75599 -3.46551 0
M  V30 3364 H 313.771 -4.04652 -2.21483 0
M  V30 3365 H 312.014 -3.83813 -2.02164 0
M  V30 3366 H 312.685 -4.16522 -3.62234 0
M  V30 3367 H 315.161 -2.24189 -3.5054 0
M  V30 3368 H 314.037 -2.57356 -4.84829 0
M  V30 3369 H 314.298 -0.917263 -4.3248 0
M  V30 3370 N 313.357 1.07166 -1.15556 0
M  V30 3371 C 314.606 1.79181 -0.926132 0
M  V30 3372 C 314.919 1.87768 0.547967 0
M  V30 3373 O 316.125 2.56323 0.895036 0
M  V30 3374 C 314.581 3.22 -1.60761 0
M  V30 3375 C 314.189 3.21607 -3.11886 0
M  V30 3376 C 315.933 3.9861 -1.4598 0
M  V30 3377 C 313.84 4.59092 -3.72812 0
M  V30 3378 H 312.77 0.67154 -0.342856 0
M  V30 3379 H 315.421 1.2027 -1.3859 0
M  V30 3380 H 313.803 3.81115 -1.07553 0
M  V30 3381 H 314.977 2.72127 -3.71865 0
M  V30 3382 H 313.292 2.58495 -3.2645 0
M  V30 3383 H 315.889 5.00225 -1.88888 0
M  V30 3384 H 316.232 4.143 -0.407541 0
M  V30 3385 H 316.765 3.45996 -1.96295 0
M  V30 3386 H 313.504 4.48606 -4.77946 0
M  V30 3387 H 313.024 5.08803 -3.17616 0
M  V30 3388 H 314.703 5.28059 -3.73848 0
M  V30 3389 N 314.835 0.952656 1.25548 0
M  V30 3390 C 316.06 0.623025 1.97821 0
M  V30 3391 C 316.485 -0.7976 1.70352 0
M  V30 3392 O 315.843 -1.53905 0.958283 0
M  V30 3393 C 315.891 0.885532 3.49558 0
M  V30 3394 O 314.995 -0.0366641 4.12384 0
M  V30 3395 H 314.336 0.237082 0.620232 0
M  V30 3396 H 316.866 1.27871 1.59719 0
M  V30 3397 H 316.876 0.811009 3.99858 0
M  V30 3398 H 315.551 1.92094 3.6888 0
M  V30 3399 H 314.128 0.0898954 3.72792 0
M  V30 3400 N 316.313 -1.40141 0.720998 0
M  V30 3401 C 317.223 -2.34486 0.0731031 0
M  V30 3402 C 318.239 -1.57587 -0.737723 0
M  V30 3403 O 319.415 -1.89949 -0.669429 0
M  V30 3404 C 316.48 -3.36528 -0.833656 0
M  V30 3405 C 315.541 -4.29298 -0.0121673 0
M  V30 3406 C 314.774 -5.26466 -0.875742 0
M  V30 3407 O 314.997 -5.29745 -2.11485 0
M  V30 3408 O 313.931 -6.01092 -0.31185 0
M  V30 3409 H 317.757 -2.9152 0.851444 0
M  V30 3410 H 315.342 -1.41427 0.481527 0
M  V30 3411 H 317.224 -3.99093 -1.35289 0
M  V30 3412 H 315.899 -2.81899 -1.59105 0
M  V30 3413 H 314.806 -3.70001 0.552262 0
M  V30 3414 H 316.139 -4.87094 0.707129 0
M  V30 3415 N 317.792 -0.46758 -1.50504 0
M  V30 3416 C 319.017 0.0886943 -2.0721 0
M  V30 3417 C 319.442 1.33057 -1.32956 0
M  V30 3418 O 318.8 1.77354 -0.376197 0
M  V30 3419 C 318.848 0.359202 -3.58806 0
M  V30 3420 O 317.952 1.44034 -3.8643 0
M  V30 3421 H 317.293 -0.0114349 -0.663902 0
M  V30 3422 H 319.823 -0.657613 -1.93744 0
M  V30 3423 H 319.833 0.600742 -4.03553 0
M  V30 3424 H 318.508 -0.548311 -4.1227 0
M  V30 3425 H 317.085 1.18638 -3.53524 0
M  V30 3426 N 319.27 1.56325 -0.20005 0
M  V30 3427 C 320.518 1.97329 0.436547 0
M  V30 3428 C 320.839 1.08826 1.61808 0
M  V30 3429 O 320.109 0.160604 1.95241 0
M  V30 3430 H 318.689 0.728714 0.164272 0
M  V30 3431 H 321.351 1.92761 -0.287937 0
M  V30 3432 H 320.447 3.02264 0.777353 0
M  V30 3433 N 320.748 -0.0735177 1.57428 0
M  V30 3434 C 321.997 -0.771809 1.86349 0
M  V30 3435 C 322.31 -1.78828 0.792452 0
M  V30 3436 O 323.516 -2.53602 0.96945 0
M  V30 3437 C 321.972 -1.42358 3.30548 0
M  V30 3438 C 321.58 -0.445761 4.45777 0
M  V30 3439 C 323.324 -2.10434 3.6867 0
M  V30 3440 C 321.231 -1.10335 5.81016 0
M  V30 3441 H 320.161 -0.291999 0.695164 0
M  V30 3442 H 322.812 -0.0250749 1.83483 0
M  V30 3443 H 321.194 -2.21852 3.28021 0
M  V30 3444 H 322.368 0.319239 4.59693 0
M  V30 3445 H 320.683 0.130457 4.16196 0
M  V30 3446 H 323.28 -2.60405 4.67004 0
M  V30 3447 H 323.623 -2.90298 2.98383 0
M  V30 3448 H 324.156 -1.37773 3.7318 0
M  V30 3449 H 320.895 -0.345061 6.54591 0
M  V30 3450 H 320.415 -1.83925 5.70904 0
M  V30 3451 H 322.094 -1.62367 6.26295 0
M  V30 3452 N 322.226 -1.5378 -0.344866 0
M  V30 3453 C 323.174 -1.82373 -1.4437 0
M  V30 3454 C 324.168 -0.694128 -1.54526 0
M  V30 3455 O 325.374 -0.877442 -1.57165 0
M  V30 3456 H 321.749 -0.577765 -0.481344 0
M  V30 3457 H 323.72 -2.74306 -1.17468 0
M  V30 3458 C 322.469 -2.04898 -2.80913 0
M  V30 3459 H 321.792 -2.9127 -2.73865 0
M  V30 3460 H 323.232 -2.28871 -3.56923 0
M  V30 3461 C 321.691 -0.834116 -3.26411 0
M  V30 3462 O 322.221 -0.0328885 -4.01687 0
M  V30 3463 N 320.427 -0.65171 -2.83198 0
M  V30 3464 H 319.974 -1.30489 -2.22104 0
M  V30 3465 H 319.932 0.159686 -3.13994 0
M  V30 3466 N 323.704 0.605807 -1.45491 0
M  V30 3467 C 324.932 1.39136 -1.5313 0
M  V30 3468 C 325.347 1.88082 -0.164507 0
M  V30 3469 O 324.704 1.62316 0.834247 0
M  V30 3470 C 324.755 2.59463 -2.51716 0
M  V30 3471 O 324.476 2.12551 -3.83084 0
M  V30 3472 C 325.977 3.52301 -2.6907 0
M  V30 3473 H 323.197 0.425849 -0.51855 0
M  V30 3474 H 325.741 0.73865 -1.90694 0
M  V30 3475 H 323.896 3.20772 -2.17219 0
M  V30 3476 H 324.31 2.90744 -4.36541 0
M  V30 3477 H 325.784 4.33271 -3.42024 0
M  V30 3478 H 326.261 4.02757 -1.75167 0
M  V30 3479 H 326.867 2.96845 -3.04571 0
M  V30 3480 N 325.182 1.32811 0.848464 0
M  V30 3481 C 326.412 1.26556 1.63301 0
M  V30 3482 C 326.82 -0.1676 1.88456 0
M  V30 3483 O 326.163 -1.11713 1.45828 0
M  V30 3484 C 326.225 1.96202 3.01239 0
M  V30 3485 C 325.889 3.45528 2.99098 0
M  V30 3486 C 326.886 4.40903 2.75501 0
M  V30 3487 C 324.571 3.87558 3.19537 0
M  V30 3488 C 326.565 5.76282 2.72356 0
M  V30 3489 C 324.252 5.23044 3.16019 0
M  V30 3490 C 325.25 6.17217 2.92458 0
M  V30 3491 O 324.938 7.50223 2.88825 0
M  V30 3492 H 324.67 0.43771 0.515156 0
M  V30 3493 H 327.224 1.7559 1.0657 0
M  V30 3494 H 325.454 1.41746 3.59785 0
M  V30 3495 H 327.143 1.83573 3.62016 0
M  V30 3496 H 327.909 4.09756 2.5947 0
M  V30 3497 H 323.788 3.14674 3.369 0
M  V30 3498 H 327.332 6.4976 2.53886 0
M  V30 3499 H 323.229 5.53818 3.31596 0
M  V30 3500 H 323.997 7.59657 3.04735 0
M  V30 3501 N 326.66 -1.06551 1.16123 0
M  V30 3502 C 327.623 -2.12132 0.867906 0
M  V30 3503 C 328.623 -1.60224 -0.135944 0
M  V30 3504 O 329.813 -1.73943 0.0946422 0
M  V30 3505 C 326.945 -3.396 0.297419 0
M  V30 3506 H 328.138 -2.39586 1.80385 0
M  V30 3507 H 325.691 -1.22574 0.969812 0
M  V30 3508 H 326.426 -3.17794 -0.64633 0
M  V30 3509 H 326.211 -3.78581 1.02073 0
M  V30 3510 H 327.701 -4.17455 0.110052 0
M  V30 3511 N 328.138 -0.959301 -1.25041 0
M  V30 3512 C 329.07 -0.440543 -2.24926 0
M  V30 3513 C 330.083 0.446131 -1.56568 0
M  V30 3514 O 331.272 0.253657 -1.76689 0
M  V30 3515 C 328.372 0.38412 -3.36716 0
M  V30 3516 C 327.545 -0.490658 -4.34639 0
M  V30 3517 C 326.604 0.276587 -5.25473 0
M  V30 3518 O 325.63 -0.326614 -5.68262 0
M  V30 3519 N 326.832 1.56844 -5.5891 0
M  V30 3520 H 329.597 -1.29931 -2.70071 0
M  V30 3521 H 327.158 -0.830181 -1.38995 0
M  V30 3522 H 329.15 0.905228 -3.94446 0
M  V30 3523 H 327.72 1.14377 -2.90924 0
M  V30 3524 H 326.94 -1.19282 -3.7572 0
M  V30 3525 H 328.228 -1.08756 -4.97041 0
M  V30 3526 H 327.626 2.08036 -5.26059 0
M  V30 3527 H 326.183 2.03541 -6.19205 0
M  V30 3528 N 329.616 1.39756 -0.72842 0
M  V30 3529 C 330.862 2.00942 -0.273892 0
M  V30 3530 C 331.195 1.57656 1.13394 0
M  V30 3531 O 330.47 0.802434 1.77176 0
M  V30 3532 C 330.753 3.58211 -0.368346 0
M  V30 3533 C 330.606 4.11534 -1.81548 0
M  V30 3534 C 331.925 4.39372 0.253054 0
M  V30 3535 H 329.044 0.730047 -0.100996 0
M  V30 3536 H 331.686 1.66056 -0.923337 0
M  V30 3537 H 329.836 3.88061 0.184588 0
M  V30 3538 H 331.508 3.92431 -2.42478 0
M  V30 3539 H 329.751 3.65341 -2.33898 0
M  V30 3540 H 330.422 5.20682 -1.83288 0
M  V30 3541 H 332.898 4.15527 -0.218224 0
M  V30 3542 H 331.774 5.48677 0.156585 0
M  V30 3543 H 332.035 4.21358 1.33826 0
M  V30 3544 N 331.094 0.475555 1.50254 0
M  V30 3545 C 332.51 0.12997 1.5907 0
M  V30 3546 C 332.71 -1.36385 1.48328 0
M  V30 3547 O 331.766 -2.13754 1.34407 0
M  V30 3548 C 333.079 0.684139 2.92814 0
M  V30 3549 C 334.627 0.647965 3.0622 0
M  V30 3550 C 335.102 1.17975 4.42545 0
M  V30 3551 N 336.593 1.13936 4.48969 0
M  V30 3552 C 337.328 1.52129 5.52851 0
M  V30 3553 N 336.824 1.97793 6.63965 0
M  V30 3554 N 338.617 1.43704 5.4342 0
M  V30 3555 H 330.768 1.44706 1.55479 0
M  V30 3556 H 333.031 0.598691 0.735033 0
M  V30 3557 H 332.737 1.73079 3.06164 0
M  V30 3558 H 332.611 0.130204 3.76975 0
M  V30 3559 H 334.998 -0.38979 2.92514 0
M  V30 3560 H 335.079 1.23876 2.23805 0
M  V30 3561 H 334.723 2.21616 4.57 0
M  V30 3562 H 334.653 0.565138 5.23559 0
M  V30 3563 H 337.144 0.804488 3.69238 0
M  V30 3564 H 337.457 2.25072 7.39299 0
M  V30 3565 H 335.802 2.01749 6.65073 0
M  V30 3566 H 338.993 1.07867 4.55502 0
M  V30 3567 H 339.166 1.73794 6.24259 0
M  V30 3568 N 332.573 -1.56217 0.208337 0
M  V30 3569 C 333.483 -2.23316 -0.718836 0
M  V30 3570 C 334.499 -1.23648 -1.22422 0
M  V30 3571 O 335.675 -1.56423 -1.26861 0
M  V30 3572 C 332.74 -2.88968 -1.91568 0
M  V30 3573 C 331.801 -4.03943 -1.45357 0
M  V30 3574 C 331.034 -4.66455 -2.59337 0
M  V30 3575 O 331.257 -4.27919 -3.77149 0
M  V30 3576 O 330.191 -5.55686 -2.31293 0
M  V30 3577 H 334.017 -3.03182 -0.177315 0
M  V30 3578 H 331.602 -1.49384 -0.0215402 0
M  V30 3579 H 333.484 -3.30455 -2.61491 0
M  V30 3580 H 332.159 -2.12071 -2.44556 0
M  V30 3581 H 331.066 -3.67052 -0.722746 0
M  V30 3582 H 332.399 -4.82543 -0.970219 0
M  V30 3583 N 334.051 0.0651679 -1.57465 0
M  V30 3584 C 334.981 1.07693 -2.07182 0
M  V30 3585 C 335.962 1.39962 -0.966673 0
M  V30 3586 O 337.147 1.49475 -1.2398 0
M  V30 3587 C 334.277 2.3885 -2.52127 0
M  V30 3588 C 333.231 2.20917 -3.66579 0
M  V30 3589 C 332.557 3.57515 -3.97601 0
M  V30 3590 C 333.857 1.62493 -4.9638 0
M  V30 3591 H 335.551 0.663199 -2.91962 0
M  V30 3592 H 333.097 0.317569 -1.40455 0
M  V30 3593 H 335.05 3.09928 -2.85522 0
M  V30 3594 H 333.774 2.82215 -1.64384 0
M  V30 3595 H 332.433 1.52279 -3.33477 0
M  V30 3596 H 332.081 3.98463 -3.06979 0
M  V30 3597 H 331.781 3.46353 -4.74672 0
M  V30 3598 H 333.305 4.30013 -4.33499 0
M  V30 3599 H 334.719 2.23445 -5.27963 0
M  V30 3600 H 333.116 1.62009 -5.77818 0
M  V30 3601 H 334.186 0.587041 -4.81333 0
M  V30 3602 N 335.529 1.53961 0.336706 0
M  V30 3603 C 336.754 1.75797 1.10046 0
M  V30 3604 C 337.179 0.498985 1.81361 0
M  V30 3605 O 336.537 -0.548769 1.72795 0
M  V30 3606 C 336.585 2.94257 2.08436 0
M  V30 3607 O 335.689 2.64883 3.16087 0
M  V30 3608 H 335.03 0.582936 0.317934 0
M  V30 3609 H 337.56 2.00945 0.38501 0
M  V30 3610 H 337.57 3.21237 2.51537 0
M  V30 3611 H 336.245 3.85564 1.55927 0
M  V30 3612 H 334.822 2.48812 2.77753 0
M  V30 3613 N 337.007 -0.598083 1.45811 0
M  V30 3614 C 337.957 -1.70272 1.51629 0
M  V30 3615 C 338.941 -1.56382 0.378629 0
M  V30 3616 O 340.133 -1.65557 0.626087 0
M  V30 3617 C 337.262 -3.09042 1.49493 0
M  V30 3618 C 336.348 -3.28284 2.68496 0
M  V30 3619 N 336.739 -3.17748 3.93535 0
M  V30 3620 C 335.037 -3.59182 2.64394 0
M  V30 3621 C 335.738 -3.38579 4.7301 0
M  V30 3622 N 334.714 -3.63016 4.04624 0
M  V30 3623 H 338.516 -1.60634 2.46118 0
M  V30 3624 H 336.03 -0.801642 1.41235 0
M  V30 3625 H 338.027 -3.88302 1.51747 0
M  V30 3626 H 336.687 -3.19823 0.560683 0
M  V30 3627 H 337.698 -2.95944 4.25014 0
M  V30 3628 H 334.375 -3.76742 1.79922 0
M  V30 3629 H 335.765 -3.35747 5.82 0
M  V30 3630 N 338.485 -1.33259 -0.841409 0
M  V30 3631 C 339.732 -1.24572 -1.5965 0
M  V30 3632 C 340.06 0.189137 -1.93578 0
M  V30 3633 O 339.315 1.14566 -1.5866 0
M  V30 3634 C 339.614 -2.06381 -2.9179 0
M  V30 3635 C 339.28 -3.556 -2.77235 0
M  V30 3636 C 337.942 -3.96282 -2.72973 0
M  V30 3637 C 340.294 -4.50433 -2.62221 0
M  V30 3638 C 337.622 -5.30017 -2.51592 0
M  V30 3639 C 339.974 -5.84327 -2.42374 0
M  V30 3640 C 338.638 -6.24194 -2.36512 0
M  V30 3641 H 337.908 -0.455842 -0.5842 0
M  V30 3642 H 340.555 -1.6482 -0.975016 0
M  V30 3643 H 338.86 -1.58903 -3.5813 0
M  V30 3644 H 340.557 -1.97019 -3.49263 0
M  V30 3645 H 337.147 -3.23298 -2.81384 0
M  V30 3646 H 341.331 -4.19914 -2.64549 0
M  V30 3647 H 336.587 -5.59947 -2.45499 0
M  V30 3648 H 340.761 -6.57414 -2.29739 0
M  V30 3649 H 338.388 -7.27759 -2.19706 0
M  V30 3650 N 339.963 1.05934 -1.16686 0
M  V30 3651 C 340.926 2.11669 -0.879144 0
M  V30 3652 C 341.926 1.60294 0.127445 0
M  V30 3653 O 343.116 1.7389 -0.103865 0
M  V30 3654 C 340.248 3.39438 -0.315425 0
M  V30 3655 H 341.441 2.38626 -1.81653 0
M  V30 3656 H 338.994 1.22058 -0.976299 0
M  V30 3657 H 339.729 3.18132 0.629468 0
M  V30 3658 H 339.514 3.78034 -1.04079 0
M  V30 3659 H 341.004 4.17391 -0.132189 0
M  V30 3660 N 341.441 0.965919 1.2453 0
M  V30 3661 C 342.389 0.486506 2.27455 0
M  V30 3662 C 343.383 -0.449041 1.6334 0
M  V30 3663 O 344.589 -0.324527 1.7705 0
M  V30 3664 H 340.964 0.138857 0.739069 0
M  V30 3665 H 342.935 1.3666 2.65267 0
M  V30 3666 C 341.684 -0.209481 3.47068 0
M  V30 3667 H 341.007 0.50129 3.96645 0
M  V30 3668 H 342.447 -0.508775 4.20936 0
M  V30 3669 C 340.906 -1.43586 3.0477 0
M  V30 3670 O 341.436 -2.53299 3.11773 0
M  V30 3671 N 339.642 -1.30126 2.59838 0
M  V30 3672 H 339.189 -0.408583 2.54339 0
M  V30 3673 H 339.147 -2.12294 2.31902 0
M  V30 3674 N 342.919 -1.39368 0.735821 0
M  V30 3675 C 344.167 -2.00101 0.283562 0
M  V30 3676 C 344.488 -1.5868 -1.13338 0
M  V30 3677 O 343.758 -0.835423 -1.77193 0
M  V30 3678 H 342.338 -0.740024 0.101851 0
M  V30 3679 H 345 -1.70404 0.945962 0
M  V30 3680 H 344.096 -3.10323 0.332604 0
M  V30 3681 N 344.397 -0.483516 -1.5 0
M  V30 3682 C 345.644 0.0671597 -2.02389 0
M  V30 3683 C 345.972 1.38597 -1.36459 0
M  V30 3684 O 345.227 1.89634 -0.483458 0
M  V30 3685 C 345.526 0.286226 -3.56252 0
M  V30 3686 C 345.192 -0.952416 -4.40726 0
M  V30 3687 C 343.854 -1.29199 -4.63531 0
M  V30 3688 C 346.206 -1.77655 -4.89988 0
M  V30 3689 C 343.534 -2.45553 -5.32842 0
M  V30 3690 C 345.886 -2.93147 -5.60578 0
M  V30 3691 C 344.55 -3.27505 -5.81633 0
M  V30 3692 H 343.82 0.0245755 -0.740592 0
M  V30 3693 H 346.467 -0.640124 -1.80485 0
M  V30 3694 H 344.772 1.07587 -3.76739 0
M  V30 3695 H 346.469 0.726473 -3.94365 0
M  V30 3696 H 343.059 -0.677881 -4.23205 0
M  V30 3697 H 347.243 -1.52737 -4.72213 0
M  V30 3698 H 342.499 -2.72431 -5.47349 0
M  V30 3699 H 346.673 -3.57344 -5.97727 0
M  V30 3700 H 344.3 -4.1777 -6.35116 0
M  V30 3701 N 345.875 1.56104 -0.216619 0
M  V30 3702 C 346.805 2.23063 0.690296 0
M  V30 3703 C 347.786 1.20072 1.20485 0
M  V30 3704 O 348.971 1.48643 1.24976 0
M  V30 3705 C 346.101 2.90672 1.90072 0
M  V30 3706 C 345.055 4.00092 1.5202 0
M  V30 3707 C 344.381 4.54972 2.80899 0
M  V30 3708 C 345.681 5.17398 0.71391 0
M  V30 3709 H 347.375 2.99109 0.132038 0
M  V30 3710 H 344.921 1.43866 0.0620664 0
M  V30 3711 H 346.874 3.36204 2.54057 0
M  V30 3712 H 345.598 2.12066 2.48386 0
M  V30 3713 H 344.257 3.55283 0.903839 0
M  V30 3714 H 343.905 3.73102 3.37348 0
M  V30 3715 H 343.605 5.28817 2.56176 0
M  V30 3716 H 345.129 5.0322 3.45836 0
M  V30 3717 H 346.543 5.59342 1.25735 0
M  V30 3718 H 344.94 5.97444 0.563951 0
M  V30 3719 H 346.01 4.84088 -0.280527 0
M  V30 3720 N 347.353 -0.0568162 1.57498 0
M  V30 3721 C 348.602 -0.752001 1.87157 0
M  V30 3722 C 348.915 -1.77978 0.811375 0
M  V30 3723 O 350.121 -2.52559 0.996293 0
M  V30 3724 C 348.577 -1.38844 3.3204 0
M  V30 3725 C 348.185 -0.398456 4.46225 0
M  V30 3726 C 349.929 -2.06512 3.70882 0
M  V30 3727 C 347.836 -1.04166 5.82154 0
M  V30 3728 H 346.766 -0.28461 0.698222 0
M  V30 3729 H 349.417 -0.00561272 1.83499 0
M  V30 3730 H 347.799 -2.1836 3.30356 0
M  V30 3731 H 348.973 0.367977 4.59328 0
M  V30 3732 H 347.288 0.174592 4.16034 0
M  V30 3733 H 349.885 -2.55437 4.6974 0
M  V30 3734 H 350.228 -2.87117 3.01445 0
M  V30 3735 H 350.761 -1.33808 3.7462 0
M  V30 3736 H 347.5 -0.275614 6.5492 0
M  V30 3737 H 347.02 -1.7786 5.72823 0
M  V30 3738 H 348.699 -1.55715 6.27982 0
M  V30 3739 N 348.832 -1.54138 -0.328536 0
M  V30 3740 C 350.08 -1.71765 -1.06496 0
M  V30 3741 C 350.401 -0.49149 -1.88704 0
M  V30 3742 O 349.671 0.494539 -1.89555 0
M  V30 3743 H 348.251 -0.633295 -0.396164 0
M  V30 3744 H 350.913 -1.91429 -0.366176 0
M  V30 3745 H 350.009 -2.5951 -1.73381 0
M  V30 3746 N 350.31 0.590341 -1.46126 0
M  V30 3747 C 351.535 1.37991 -1.54833 0
M  V30 3748 C 351.96 1.87163 -0.187506 0
M  V30 3749 O 351.318 1.61133 0.831008 0
M  V30 3750 C 351.366 2.54867 -2.55098 0
M  V30 3751 O 350.47 3.56061 -2.08073 0
M  V30 3752 H 349.811 0.411265 -0.521303 0
M  V30 3753 H 352.341 0.716819 -1.91632 0
M  V30 3754 H 352.351 3.01886 -2.74461 0
M  V30 3755 H 351.026 2.18429 -3.53923 0
M  V30 3756 H 349.603 3.15574 -1.98664 0
M  V30 3757 N 351.788 1.33704 0.83433 0
M  V30 3758 C 352.751 1.24244 1.92603 0
M  V30 3759 C 353.751 0.160383 1.59998 0
M  V30 3760 O 354.941 0.412228 1.69252 0
M  V30 3761 C 352.073 0.91555 3.28376 0
M  V30 3762 H 353.266 2.21287 2.02416 0
M  V30 3763 H 350.819 1.17827 1.02696 0
M  V30 3764 H 351.554 -0.0521886 3.24258 0
M  V30 3765 H 351.339 1.69811 3.53422 0
M  V30 3766 H 352.829 0.874231 4.08347 0
M  V30 3767 N 353.266 -1.05314 1.17247 0
M  V30 3768 C 354.196 -2.1498 0.911362 0
M  V30 3769 C 355.177 -1.69471 -0.146169 0
M  V30 3770 O 356.362 -1.942 0.003812 0
M  V30 3771 C 353.492 -3.4472 0.422528 0
M  V30 3772 C 352.446 -4.03789 1.4191 0
M  V30 3773 C 351.772 -5.28858 0.788274 0
M  V30 3774 C 353.072 -4.41418 2.7919 0
M  V30 3775 H 354.766 -2.3708 1.82848 0
M  V30 3776 H 352.312 -1.13938 0.880569 0
M  V30 3777 H 354.265 -4.20787 0.227289 0
M  V30 3778 H 352.989 -3.22269 -0.530123 0
M  V30 3779 H 351.648 -3.2979 1.60106 0
M  V30 3780 H 351.296 -5.02709 -0.171173 0
M  V30 3781 H 350.996 -5.69338 1.45353 0
M  V30 3782 H 352.52 -6.07612 0.603282 0
M  V30 3783 H 353.934 -5.08524 2.64719 0
M  V30 3784 H 352.331 -4.92913 3.42282 0
M  V30 3785 H 353.401 -3.51819 3.33693 0
M  V30 3786 N 354.744 -0.972509 -1.24016 0
M  V30 3787 C 355.677 -0.45117 -2.23696 0
M  V30 3788 C 356.655 0.477378 -1.55434 0
M  V30 3789 O 357.839 0.407647 -1.84039 0
M  V30 3790 C 354.966 0.34818 -3.36906 0
M  V30 3791 C 354.012 -0.523355 -4.23277 0
M  V30 3792 S 354.845 -1.96647 -4.98087 0
M  V30 3793 C 356.001 -1.17604 -6.14752 0
M  V30 3794 H 356.234 -1.29588 -2.67571 0
M  V30 3795 H 353.767 -0.777903 -1.33372 0
M  V30 3796 H 355.725 0.803387 -4.02562 0
M  V30 3797 H 354.386 1.16792 -2.91579 0
M  V30 3798 H 353.579 0.0906181 -5.03919 0
M  V30 3799 H 353.181 -0.914485 -3.62647 0
M  V30 3800 H 355.473 -0.433434 -6.76112 0
M  V30 3801 H 356.416 -1.95701 -6.8052 0
M  V30 3802 H 356.824 -0.698295 -5.60164 0
M  V30 3803 N 356.222 1.38976 -0.743202 0
M  V30 3804 C 357.185 2.28901 -0.117014 0
M  V30 3805 C 358.185 1.46698 0.658503 0
M  V30 3806 O 359.375 1.67274 0.486305 0
M  V30 3807 C 356.507 3.30309 0.84315 0
M  V30 3808 H 357.7 2.8578 -0.909373 0
M  V30 3809 H 355.253 1.47761 -0.509547 0
M  V30 3810 H 355.988 2.785 1.66157 0
M  V30 3811 H 355.773 3.91029 0.289594 0
M  V30 3812 H 357.263 3.97577 1.2776 0
M  V30 3813 N 357.7 0.491464 1.49741 0
M  V30 3814 C 358.65 -0.311086 2.25868 0
M  V30 3815 C 359.634 -0.943857 1.30308 0
M  V30 3816 O 360.826 -0.853035 1.55088 0
M  V30 3817 C 357.955 -1.38059 3.14316 0
M  V30 3818 C 357.041 -0.754541 4.17334 0
M  V30 3819 N 357.432 0.137216 5.05614 0
M  V30 3820 C 355.73 -1.01621 4.34269 0
M  V30 3821 C 356.431 0.494614 5.79593 0
M  V30 3822 N 355.407 -0.135169 5.43432 0
M  V30 3823 H 359.209 0.37555 2.91491 0
M  V30 3824 H 356.723 0.306917 1.59473 0
M  V30 3825 H 358.72 -1.96891 3.67477 0
M  V30 3826 H 357.38 -2.06901 2.50244 0
M  V30 3827 H 358.391 0.50741 5.15408 0
M  V30 3828 H 355.068 -1.69808 3.81407 0
M  V30 3829 H 356.458 1.2236 6.60665 0
M  V30 3830 N 359.178 -1.55987 0.224894 0
M  V30 3831 C 360.455 -1.90232 -0.455083 0
M  V30 3832 C 360.835 -1.14269 -1.77499 0
M  V30 3833 O 360.183 -0.253079 -2.27094 0
M  V30 3834 C 360.393 -3.42993 -0.644758 0
M  V30 3835 C 361.741 -4.13821 -0.950669 0
M  V30 3836 O 362.765 -3.4861 -0.731423 0
M  V30 3837 O 361.624 -5.29128 -1.36695 0
M  V30 3838 H 358.718 -0.79108 -0.241084 0
M  V30 3839 H 361.264 -1.67581 0.267327 0
M  V30 3840 H 360.036 -3.90252 0.28613 0
M  V30 3841 H 359.659 -3.71434 -1.41853 0
M  V30 3842 N 360.656 0.0484629 -1.57525 0
M  V30 3843 C 361.933 0.777447 -1.79486 0
M  V30 3844 C 362.313 1.94597 -0.818251 0
M  V30 3845 O 361.661 2.28047 0.143767 0
M  V30 3846 C 361.871 1.22864 -3.26658 0
M  V30 3847 C 363.219 1.65251 -3.91123 0
M  V30 3848 O 364.243 1.32372 -3.3069 0
M  V30 3849 O 363.102 2.26207 -4.97486 0
M  V30 3850 H 360.196 0.374357 -0.737419 0
M  V30 3851 H 362.742 0.0267359 -1.69679 0
M  V30 3852 H 361.514 0.393589 -3.89316 0
M  V30 3853 H 361.137 2.03996 -3.41279 0
M  V30 3854 N 362.134 1.5431 0.320358 0
M  V30 3855 C 363.064 1.86912 1.3995 0
M  V30 3856 C 364.045 0.726211 1.53819 0
M  V30 3857 O 365.23 0.980233 1.67646 0
M  V30 3858 C 362.36 2.09932 2.7667 0
M  V30 3859 C 361.314 3.25776 2.77586 0
M  V30 3860 C 360.64 3.34173 4.17412 0
M  V30 3861 C 361.94 4.6335 2.41048 0
M  V30 3862 H 363.634 2.77292 1.12914 0
M  V30 3863 H 361.18 1.33421 0.541738 0
M  V30 3864 H 363.133 2.31324 3.52232 0
M  V30 3865 H 361.857 1.16304 3.0519 0
M  V30 3866 H 360.516 3.04276 2.04479 0
M  V30 3867 H 360.164 2.38098 4.43078 0
M  V30 3868 H 359.864 4.12033 4.18931 0
M  V30 3869 H 361.388 3.57803 4.94782 0
M  V30 3870 H 362.802 4.84602 3.06324 0
M  V30 3871 H 361.199 5.43782 2.53813 0
M  V30 3872 H 362.269 4.65381 1.36193 0
M  V30 3873 N 363.613 -0.582584 1.46437 0
M  V30 3874 C 364.563 -1.68654 1.53426 0
M  V30 3875 C 365.547 -1.55971 0.395194 0
M  V30 3876 O 366.739 -1.64884 0.643612 0
M  V30 3877 C 363.868 -3.07439 1.52762 0
M  V30 3878 C 362.954 -3.25418 2.71963 0
M  V30 3879 N 363.345 -3.13556 3.96883 0
M  V30 3880 C 361.643 -3.56357 2.68189 0
M  V30 3881 C 362.344 -3.33543 4.76575 0
M  V30 3882 N 361.32 -3.58704 4.08451 0
M  V30 3883 H 365.122 -1.58014 2.47808 0
M  V30 3884 H 362.636 -0.786617 1.42078 0
M  V30 3885 H 364.633 -3.86671 1.55857 0
M  V30 3886 H 363.293 -3.1921 0.594573 0
M  V30 3887 H 364.304 -2.9142 4.28129 0
M  V30 3888 H 360.981 -3.74812 1.83908 0
M  V30 3889 H 362.371 -3.29555 5.85528 0
M  V30 3890 N 365.091 -1.34144 -0.827227 0
M  V30 3891 C 366.054 -1.25264 -1.91942 0
M  V30 3892 C 367.054 -0.168866 -1.59911 0
M  V30 3893 O 368.244 -0.421198 -1.69031 0
M  V30 3894 C 365.376 -0.932952 -3.27885 0
M  V30 3895 H 366.569 -2.22357 -2.0124 0
M  V30 3896 H 364.122 -1.1837 -1.0207 0
M  V30 3897 H 364.857 0.0349917 -3.24281 0
M  V30 3898 H 364.642 -1.71682 -3.52516 0
M  V30 3899 H 366.132 -0.895874 -4.07877 0
M  V30 3900 N 366.569 1.04691 -1.17803 0
M  V30 3901 C 367.532 2.10724 -0.901545 0
M  V30 3902 C 368.532 1.6042 0.110437 0
M  V30 3903 O 369.722 1.7377 -0.122303 0
M  V30 3904 C 366.854 3.39084 -0.351409 0
M  V30 3905 H 368.047 2.36686 -1.84174 0
M  V30 3906 H 365.6 1.21015 -0.98919 0
M  V30 3907 H 366.335 3.18782 0.59569 0
M  V30 3908 H 366.12 3.76909 -1.08083 0
M  V30 3909 H 367.61 4.17227 -0.176451 0
M  V30 3910 N 368.047 0.979072 1.23499 0
M  V30 3911 C 369.293 0.648178 1.92163 0
M  V30 3912 C 369.626 -0.816049 1.76222 0
M  V30 3913 O 368.901 -1.58849 1.12237 0
M  V30 3914 C 369.184 1.03773 3.44824 0
M  V30 3915 C 369.037 2.55948 3.69879 0
M  V30 3916 C 370.356 0.580653 4.36253 0
M  V30 3917 H 367.475 0.236952 0.69787 0
M  V30 3918 H 370.117 1.22012 1.45647 0
M  V30 3919 H 368.267 0.551058 3.84572 0
M  V30 3920 H 369.939 3.12179 3.3962 0
M  V30 3921 H 368.182 2.98641 3.14636 0
M  V30 3922 H 368.853 2.78255 4.76737 0
M  V30 3923 H 371.329 0.998465 4.03943 0
M  V30 3924 H 370.205 0.881663 5.41773 0
M  V30 3925 H 370.466 -0.519052 4.39042 0
M  V30 3926 N 369.525 -1.3858 0.750561 0
M  V30 3927 C 370.941 -1.53759 0.427824 0
M  V30 3928 C 371.141 -1.71401 -1.05943 0
M  V30 3929 O 370.197 -1.72331 -1.84549 0
M  V30 3930 C 371.51 -2.74642 1.22443 0
M  V30 3931 C 373.058 -2.88489 1.2142 0
M  V30 3932 C 373.533 -4.12329 1.9937 0
M  V30 3933 N 375.024 -4.194 1.96616 0
M  V30 3934 C 375.759 -5.14209 2.53727 0
M  V30 3935 N 375.255 -6.14709 3.19539 0
M  V30 3936 N 377.048 -5.06537 2.43673 0
M  V30 3937 H 369.199 -1.25377 1.71447 0
M  V30 3938 H 371.462 -0.608844 0.726645 0
M  V30 3939 H 371.168 -2.68 2.27747 0
M  V30 3940 H 371.042 -3.67745 0.839273 0
M  V30 3941 H 373.429 -2.94614 0.169232 0
M  V30 3942 H 373.51 -1.96406 1.63885 0
M  V30 3943 H 373.154 -4.06966 3.03877 0
M  V30 3944 H 373.084 -5.03486 1.54302 0
M  V30 3945 H 375.575 -3.47421 1.48684 0
M  V30 3946 H 375.888 -6.8354 3.60545 0
M  V30 3947 H 374.233 -6.1505 3.23633 0
M  V30 3948 H 377.424 -4.26962 1.91889 0
M  V30 3949 H 377.597 -5.80245 2.88479 0
M  V30 3950 N 371.003 -0.499398 -1.49478 0
M  V30 3951 C 372.419 -0.155261 -1.58843 0
M  V30 3952 C 372.619 1.34008 -1.50479 0
M  V30 3953 O 371.675 2.11589 -1.37791 0
M  V30 3954 C 372.988 -0.730636 -2.91689 0
M  V30 3955 C 374.536 -0.696599 -3.0515 0
M  V30 3956 C 375.011 -1.25001 -4.40612 0
M  V30 3957 N 376.502 -1.21064 -4.47099 0
M  V30 3958 C 377.237 -1.60905 -5.50361 0
M  V30 3959 N 376.733 -2.08331 -6.60735 0
M  V30 3960 N 378.526 -1.52331 -5.41065 0
M  V30 3961 H 370.677 -1.47162 -1.53158 0
M  V30 3962 H 372.94 -0.610309 -0.725415 0
M  V30 3963 H 372.646 -1.77928 -3.03372 0
M  V30 3964 H 372.52 -0.190161 -3.7672 0
M  V30 3965 H 374.907 0.343204 -2.93097 0
M  V30 3966 H 374.988 -1.2742 -2.21806 0
M  V30 3967 H 374.632 -2.28859 -4.53416 0
M  V30 3968 H 374.562 -0.64836 -5.22593 0
M  V30 3969 H 377.053 -0.863128 -3.67911 0
M  V30 3970 H 377.366 -2.36805 -7.35624 0
M  V30 3971 H 375.711 -2.12304 -6.6178 0
M  V30 3972 H 378.902 -1.151 -4.53729 0
M  V30 3973 H 379.075 -1.83704 -6.21415 0
M  V30 3974 N 372.481 1.55866 -0.233164 0
M  V30 3975 C 373.727 1.98897 0.395959 0
M  V30 3976 C 374.06 1.12091 1.58585 0
M  V30 3977 O 373.335 0.181182 1.93654 0
M  V30 3978 C 373.618 3.50658 0.819224 0
M  V30 3979 C 373.471 4.48233 -0.375109 0
M  V30 3980 C 374.79 4.07135 1.67121 0
M  V30 3981 H 371.909 0.723102 0.142451 0
M  V30 3982 H 374.551 1.87082 -0.331725 0
M  V30 3983 H 372.701 3.60857 1.43925 0
M  V30 3984 H 374.373 4.50031 -1.01341 0
M  V30 3985 H 372.616 4.21624 -1.02058 0
M  V30 3986 H 373.287 5.51988 -0.0358328 0
M  V30 3987 H 375.763 3.99952 1.14795 0
M  V30 3988 H 374.639 5.13615 1.93625 0
M  V30 3989 H 374.9 3.54736 2.63846 0
M  V30 3990 N 373.959 -0.0401083 1.57549 0
M  V30 3991 C 374.889 -1.04384 2.08869 0
M  V30 3992 C 375.87 -1.38407 0.988817 0
M  V30 3993 O 377.055 -1.47483 1.26342 0
M  V30 3994 C 374.185 -2.34808 2.55895 0
M  V30 3995 C 373.139 -2.15057 3.70047 0
M  V30 3996 C 372.465 -3.51145 4.03239 0
M  V30 3997 C 373.765 -1.54576 4.98902 0
M  V30 3998 H 375.459 -0.616666 2.92981 0
M  V30 3999 H 373.005 -0.295184 1.40942 0
M  V30 4000 H 374.958 -3.05346 2.90417 0
M  V30 4001 H 373.682 -2.79565 1.68853 0
M  V30 4002 H 372.341 -1.46954 3.35857 0
M  V30 4003 H 371.989 -3.93529 3.13279 0
M  V30 4004 H 371.689 -3.38758 4.80122 0
M  V30 4005 H 373.213 -4.23062 4.40285 0
M  V30 4006 H 374.627 -2.15017 5.31451 0
M  V30 4007 H 373.024 -1.52796 5.80322 0
M  V30 4008 H 374.094 -0.51039 4.82206 0
M  V30 4009 N 375.437 -1.54477 -0.31217 0
M  V30 4010 C 376.367 -1.87652 -1.38957 0
M  V30 4011 C 377.348 -0.734358 -1.53431 0
M  V30 4012 O 378.533 -0.98911 -1.67123 0
M  V30 4013 C 375.663 -2.11396 -2.75552 0
M  V30 4014 C 374.617 -3.27243 -2.75855 0
M  V30 4015 C 373.943 -3.36382 -4.15633 0
M  V30 4016 C 375.243 -4.64622 -2.38587 0
M  V30 4017 H 376.937 -2.77887 -1.11442 0
M  V30 4018 H 374.483 -1.33707 -0.534655 0
M  V30 4019 H 376.436 -2.33189 -3.51 0
M  V30 4020 H 375.16 -1.17921 -3.04569 0
M  V30 4021 H 373.819 -3.05356 -2.02863 0
M  V30 4022 H 373.467 -2.40445 -4.41809 0
M  V30 4023 H 373.167 -4.14249 -4.1674 0
M  V30 4024 H 374.691 -3.60422 -4.92877 0
M  V30 4025 H 376.105 -4.86219 -3.03749 0
M  V30 4026 H 374.502 -5.45121 -2.50925 0
M  V30 4027 H 375.572 -4.66097 -1.33723 0
M  V30 4028 N 376.915 0.57481 -1.46744 0
M  V30 4029 C 378.163 1.33009 -1.52161 0
M  V30 4030 C 378.484 1.94185 -0.178092 0
M  V30 4031 O 377.754 1.7899 0.796196 0
M  V30 4032 H 376.334 0.493873 -0.560445 0
M  V30 4033 H 378.996 0.672589 -1.82927 0
M  V30 4034 H 378.092 2.13273 -2.27862 0
M  V30 4035 N 378.394 1.34581 0.820102 0
M  V30 4036 C 379.304 1.28471 1.96297 0
M  V30 4037 C 380.32 0.191902 1.72939 0
M  V30 4038 O 381.496 0.418879 1.96996 0
M  V30 4039 C 378.561 1.04281 3.30645 0
M  V30 4040 C 377.622 2.22745 3.66992 0
M  V30 4041 C 376.855 1.997 4.9493 0
M  V30 4042 O 377.078 0.956656 5.6232 0
M  V30 4043 O 376.012 2.86723 5.2922 0
M  V30 4044 H 379.838 2.24624 2.04396 0
M  V30 4045 H 377.423 1.14816 0.955913 0
M  V30 4046 H 379.305 0.925841 4.11104 0
M  V30 4047 H 377.98 0.111697 3.23507 0
M  V30 4048 H 376.887 2.40003 2.86966 0
M  V30 4049 H 378.22 3.14257 3.78819 0
M  V30 4050 N 379.872 -1.04064 1.18357 0
M  V30 4051 C 380.82 -2.14187 0.907007 0
M  V30 4052 C 381.814 -1.68879 -0.132725 0
M  V30 4053 O 383.02 -1.79993 0.0154248 0
M  V30 4054 H 379.395 -0.699585 0.275835 0
M  V30 4055 H 381.366 -2.34711 1.84264 0
M  V30 4056 C 380.115 -3.44785 0.449254 0
M  V30 4057 H 379.438 -3.80058 1.24081 0
M  V30 4058 H 380.878 -4.22974 0.294737 0
M  V30 4059 C 379.337 -3.26391 -0.834909 0
M  V30 4060 O 379.867 -3.53973 -1.89911 0
M  V30 4061 N 378.073 -2.79726 -0.787523 0
M  V30 4062 H 377.62 -2.5748 0.0787347 0
M  V30 4063 H 377.578 -2.67798 -1.64716 0
M  V30 4064 N 381.35 -0.985608 -1.22978 0
M  V30 4065 C 382.297 -0.529825 -2.24636 0
M  V30 4066 C 383.267 0.434028 -1.60329 0
M  V30 4067 O 384.452 0.340414 -1.87739 0
M  V30 4068 C 381.592 0.156533 -3.44745 0
M  V30 4069 C 380.705 -0.848197 -4.23591 0
M  V30 4070 C 379.84 -0.136109 -5.31026 0
M  V30 4071 C 378.879 -1.1297 -6.01585 0
M  V30 4072 N 378.016 -0.446415 -7.00679 0
M  V30 4073 H 382.856 -1.40148 -2.62988 0
M  V30 4074 H 380.393 -0.702168 -1.29259 0
M  V30 4075 H 382.351 0.571324 -4.1327 0
M  V30 4076 H 380.981 0.992025 -3.07179 0
M  V30 4077 H 380.033 -1.38135 -3.54433 0
M  V30 4078 H 381.345 -1.60512 -4.72268 0
M  V30 4079 H 380.499 0.335784 -6.0577 0
M  V30 4080 H 379.238 0.653373 -4.83304 0
M  V30 4081 H 378.243 -1.6123 -5.25628 0
M  V30 4082 H 379.468 -1.91993 -6.51395 0
M  V30 4083 H 377.414 0.323763 -6.55201 0
M  V30 4084 H 377.331 -1.1419 -7.47326 0
M  V30 4085 H 378.599 0.00291697 -7.795 0
M  V30 4086 N 382.828 1.3818 -0.7579 0
M  V30 4087 C 384.074 2.00316 -0.316453 0
M  V30 4088 C 384.407 1.60026 1.10025 0
M  V30 4089 O 383.682 0.839835 1.75434 0
M  V30 4090 C 383.965 3.57349 -0.444245 0
M  V30 4091 C 383.818 4.07591 -1.90236 0
M  V30 4092 C 385.137 4.3981 0.1598 0
M  V30 4093 H 382.256 0.727741 -0.116459 0
M  V30 4094 H 384.898 1.6406 -0.958352 0
M  V30 4095 H 383.048 3.88365 0.102233 0
M  V30 4096 H 384.72 3.87199 -2.50748 0
M  V30 4097 H 382.963 3.60297 -2.41595 0
M  V30 4098 H 383.634 5.16677 -1.94291 0
M  V30 4099 H 386.11 4.14971 -0.306314 0
M  V30 4100 H 384.986 5.48885 0.0401675 0
M  V30 4101 H 385.247 4.24102 1.24859 0
M  V30 4102 N 384.306 0.507319 1.49211 0
M  V30 4103 C 385.546 -0.0332372 2.04373 0
M  V30 4104 C 385.91 -1.33694 1.37804 0
M  V30 4105 O 387.111 -1.96213 1.83722 0
M  V30 4106 C 385.382 -0.17599 3.56966 0
M  V30 4107 S 386.941 -0.669882 4.33657 0
M  V30 4108 H 383.759 0.00123603 0.710999 0
M  V30 4109 H 386.361 0.682725 1.83191 0
M  V30 4110 H 385.065 0.778053 4.02957 0
M  V30 4111 H 384.596 -0.917005 3.82563 0
M  V30 4112 H 386.611 -1.93806 4.56786 0
M  V30 4113 N 385.784 -1.5574 0.241426 0
M  V30 4114 C 387.032 -1.98417 -0.384075 0
M  V30 4115 C 387.353 -1.13078 -1.58866 0
M  V30 4116 O 386.623 -0.212312 -1.94746 0
M  V30 4117 H 385.203 -0.732813 -0.144894 0
M  V30 4118 H 387.865 -1.9193 0.338943 0
M  V30 4119 H 386.961 -3.04219 -0.696939 0
M  V30 4120 N 387.262 0.0317525 -1.57568 0
M  V30 4121 C 388.192 1.03274 -2.0942 0
M  V30 4122 C 389.173 1.3788 -0.996143 0
M  V30 4123 O 390.358 1.46811 -1.27122 0
M  V30 4124 C 387.488 2.33448 -2.57137 0
M  V30 4125 C 386.442 2.13091 -3.71182 0
M  V30 4126 C 385.768 3.49001 -4.05095 0
M  V30 4127 C 387.068 1.51928 -4.99715 0
M  V30 4128 H 388.762 0.60112 -2.93303 0
M  V30 4129 H 386.308 0.287705 -1.41097 0
M  V30 4130 H 388.261 3.03802 -2.92032 0
M  V30 4131 H 386.985 2.78665 -1.70333 0
M  V30 4132 H 385.644 1.45171 -3.36632 0
M  V30 4133 H 385.292 3.91862 -3.15362 0
M  V30 4134 H 384.992 3.36207 -4.81911 0
M  V30 4135 H 386.516 4.20721 -4.42522 0
M  V30 4136 H 387.93 2.12196 -5.32584 0
M  V30 4137 H 386.327 1.49716 -5.81124 0
M  V30 4138 H 387.397 0.484811 -4.8247 0
M  V30 4139 N 388.74 1.54641 0.303973 0
M  V30 4140 C 389.968 1.77768 1.05858 0
M  V30 4141 C 390.383 0.535722 1.8104 0
M  V30 4142 O 389.74 -0.494337 1.75677 0
M  V30 4143 C 389.791 2.9834 2.04146 0
M  V30 4144 O 389.512 4.17736 1.32015 0
M  V30 4145 C 391.013 3.33832 2.91669 0
M  V30 4146 H 388.233 0.592961 0.314067 0
M  V30 4147 H 390.777 2.01583 0.344149 0
M  V30 4148 H 388.932 2.76742 2.71096 0
M  V30 4149 H 389.346 4.85693 1.97998 0
M  V30 4150 H 390.82 4.21448 3.56491 0
M  V30 4151 H 391.297 2.51857 3.59812 0
M  V30 4152 H 391.903 3.57579 2.30254 0
M  V30 4153 N 390.218 -0.567019 1.47046 0
M  V30 4154 C 391.634 -0.891975 1.32348 0
M  V30 4155 C 391.834 -1.99154 0.306616 0
M  V30 4156 O 390.89 -2.50883 -0.28532 0
M  V30 4157 C 392.203 -1.29449 2.7141 0
M  V30 4158 C 393.751 -1.40646 2.79621 0
M  V30 4159 C 394.226 -1.84257 4.19301 0
M  V30 4160 N 395.717 -1.91424 4.21795 0
M  V30 4161 C 396.452 -2.26476 5.26779 0
M  V30 4162 N 395.948 -2.60211 6.42077 0
M  V30 4163 N 397.741 -2.27166 5.14152 0
M  V30 4164 H 389.892 0.159074 2.11803 0
M  V30 4165 H 392.155 0.00849752 0.947962 0
M  V30 4166 H 391.861 -0.560448 3.47206 0
M  V30 4167 H 391.735 -2.25273 3.02542 0
M  V30 4168 H 394.122 -2.13133 2.04104 0
M  V30 4169 H 394.203 -0.430339 2.52154 0
M  V30 4170 H 393.847 -1.12343 4.95319 0
M  V30 4171 H 393.777 -2.82855 4.44185 0
M  V30 4172 H 396.268 -1.6778 3.38612 0
M  V30 4173 H 396.581 -2.85956 7.17948 0
M  V30 4174 H 394.926 -2.57813 6.45413 0
M  V30 4175 H 398.117 -2.00244 4.23107 0
M  V30 4176 H 398.29 -2.54154 5.96079 0
M  V30 4177 N 391.696 -1.35014 -0.812953 0
M  V30 4178 C 392.944 -1.27678 -1.56661 0
M  V30 4179 C 393.265 0.150359 -1.94419 0
M  V30 4180 O 392.535 1.08532 -1.63088 0
M  V30 4181 H 391.115 -0.469602 -0.580933 0
M  V30 4182 H 393.777 -1.69043 -0.970076 0
M  V30 4183 H 392.873 -1.88833 -2.48492 0
M  V30 4184 N 393.175 1.03435 -1.18907 0
M  V30 4185 C 394.107 2.1165 -0.879595 0
M  V30 4186 C 395.12 1.62316 0.125439 0
M  V30 4187 O 396.309 1.78201 -0.103245 0
M  V30 4188 C 393.409 3.37622 -0.294042 0
M  V30 4189 C 392.582 4.16166 -1.34629 0
M  V30 4190 C 391.641 5.20457 -0.775274 0
M  V30 4191 O 390.667 5.50379 -1.4516 0
M  V30 4192 N 391.869 5.78949 0.424126 0
M  V30 4193 H 394.634 2.38791 -1.81105 0
M  V30 4194 H 392.195 1.19681 -1.09032 0
M  V30 4195 H 394.187 4.04572 0.101679 0
M  V30 4196 H 392.757 3.07873 0.541575 0
M  V30 4197 H 391.977 3.44444 -1.91707 0
M  V30 4198 H 393.265 4.65432 -2.05549 0
M  V30 4199 H 392.663 5.56948 0.991209 0
M  V30 4200 H 391.22 6.47334 0.761691 0
M  V30 4201 N 394.653 0.992116 1.22453 0
M  V30 4202 C 395.93 0.583508 1.86694 0
M  V30 4203 C 396.31 -0.9392 1.89056 0
M  V30 4204 O 395.658 -1.82081 1.38053 0
M  V30 4205 C 395.868 1.20304 3.2761 0
M  V30 4206 C 397.216 1.30308 4.0411 0
M  V30 4207 O 398.24 1.15737 3.36873 0
M  V30 4208 O 397.099 1.53615 5.24466 0
M  V30 4209 H 394.193 0.198129 0.802916 0
M  V30 4210 H 396.739 1.08794 1.30238 0
M  V30 4211 H 395.511 2.24461 3.2052 0
M  V30 4212 H 395.134 0.684144 3.9167 0
M  V30 4213 N 396.131 -1.37776 0.765217 0
M  V30 4214 C 397.094 -2.28686 0.153416 0
M  V30 4215 C 398.094 -1.47727 -0.635081 0
M  V30 4216 O 399.284 -1.68027 -0.459632 0
M  V30 4217 C 396.416 -3.31608 -0.790495 0
M  V30 4218 H 397.609 -2.84297 0.954723 0
M  V30 4219 H 395.162 -1.46932 0.53299 0
M  V30 4220 H 395.897 -2.81109 -1.61705 0
M  V30 4221 H 395.682 -3.9144 -0.227348 0
M  V30 4222 H 397.172 -3.99559 -1.21419 0
M  V30 4223 N 397.609 -0.515225 -1.4894 0
M  V30 4224 C 398.556 0.255567 -2.29381 0
M  V30 4225 C 399.526 0.947387 -1.36432 0
M  V30 4226 O 400.711 0.951288 -1.65394 0
M  V30 4227 C 397.851 1.30551 -3.19453 0
M  V30 4228 C 396.964 0.624029 -4.27469 0
M  V30 4229 C 396.099 1.65563 -5.0474 0
M  V30 4230 C 395.138 0.956802 -6.04576 0
M  V30 4231 N 394.275 1.93326 -6.74959 0
M  V30 4232 H 399.115 -0.436607 -2.94784 0
M  V30 4233 H 396.652 -0.227154 -1.45336 0
M  V30 4234 H 398.61 1.92639 -3.70062 0
M  V30 4235 H 397.24 1.96626 -2.56004 0
M  V30 4236 H 396.292 -0.110459 -3.8024 0
M  V30 4237 H 397.604 0.0746092 -4.98744 0
M  V30 4238 H 396.758 2.35119 -5.59289 0
M  V30 4239 H 395.497 2.23893 -4.3327 0
M  V30 4240 H 394.502 0.247097 -5.49244 0
M  V30 4241 H 395.727 0.379814 -6.78037 0
M  V30 4242 H 393.673 2.50591 -6.06251 0
M  V30 4243 H 393.59 1.43489 -7.42258 0
M  V30 4244 H 394.858 2.62126 -7.34105 0
M  V30 4245 N 399.087 1.5561 -0.249682 0
M  V30 4246 C 400.05 2.20217 0.635394 0
M  V30 4247 C 401.05 1.17227 1.10066 0
M  V30 4248 O 402.24 1.42292 1.00492 0
M  V30 4249 C 399.372 2.84794 1.87363 0
M  V30 4250 H 400.565 2.99814 0.0716752 0
M  V30 4251 H 398.118 1.563 -0.000153234 0
M  V30 4252 H 398.853 2.09142 2.47851 0
M  V30 4253 H 398.638 3.60241 1.5482 0
M  V30 4254 H 400.128 3.3423 2.5036 0
M  V30 4255 N 400.565 -0.0233959 1.57583 0
M  V30 4256 C 401.528 -1.00693 2.05897 0
M  V30 4257 C 402.528 -1.28693 0.964092 0
M  V30 4258 O 403.718 -1.23602 1.22753 0
M  V30 4259 C 400.85 -2.33825 2.4807 0
M  V30 4260 H 402.043 -0.589476 2.9405 0
M  V30 4261 H 399.596 -0.270354 1.53944 0
M  V30 4262 H 400.331 -2.80307 1.6309 0
M  V30 4263 H 400.116 -2.1483 3.2801 0
M  V30 4264 H 401.606 -3.04426 2.85857 0
M  V30 4265 N 402.043 -1.548 -0.295768 0
M  V30 4266 C 403.273 -1.78069 -1.04762 0
M  V30 4267 C 403.681 -0.542847 -1.81245 0
M  V30 4268 O 403.024 0.497051 -1.76848 0
M  V30 4269 C 403.086 -2.93881 -2.07061 0
M  V30 4270 C 402.75 -4.31777 -1.49725 0
M  V30 4271 C 403.747 -5.11613 -0.924581 0
M  V30 4272 C 401.432 -4.78389 -1.5313 0
M  V30 4273 C 403.426 -6.36184 -0.393594 0
M  V30 4274 C 401.113 -6.02921 -0.996447 0
M  V30 4275 C 402.111 -6.81654 -0.428569 0
M  V30 4276 O 401.799 -8.0384 0.0981593 0
M  V30 4277 H 401.531 -0.597475 -0.316226 0
M  V30 4278 H 404.085 -2.02584 -0.338973 0
M  V30 4279 H 402.315 -2.65003 -2.81621 0
M  V30 4280 H 404.004 -3.04679 -2.6819 0
M  V30 4281 H 404.77 -4.76743 -0.891136 0
M  V30 4282 H 400.649 -4.17132 -1.9627 0
M  V30 4283 H 404.193 -6.97582 0.0503014 0
M  V30 4284 H 400.09 -6.37277 -1.02706 0
M  V30 4285 H 400.858 -8.18499 -0.0146455 0
M  V30 4286 N 403.521 0.559213 -1.47345 0
M  V30 4287 C 404.798 1.31997 -1.44348 0
M  V30 4288 C 405.178 2.1064 -0.139358 0
M  V30 4289 O 404.526 2.1091 0.879153 0
M  V30 4290 C 404.736 2.22618 -2.68779 0
M  V30 4291 C 406.084 2.83701 -3.1591 0
M  V30 4292 O 407.108 2.32921 -2.69493 0
M  V30 4293 O 405.967 3.75993 -3.966 0
M  V30 4294 H 403.061 0.594251 -0.575147 0
M  V30 4295 H 405.607 0.578282 -1.59543 0
M  V30 4296 H 404.379 1.64093 -3.55231 0
M  V30 4297 H 404.002 3.04085 -2.5616 0
M  V30 4298 N 404.999 1.35443 0.805782 0
M  V30 4299 C 405.962 1.28301 1.89925 0
M  V30 4300 C 406.962 0.194285 1.59622 0
M  V30 4301 O 408.152 0.448036 1.6834 0
M  V30 4302 C 405.284 0.984997 3.2636 0
M  V30 4303 H 406.477 2.2553 1.97677 0
M  V30 4304 H 404.03 1.19979 1.00173 0
M  V30 4305 H 404.765 0.016603 3.24296 0
M  V30 4306 H 404.55 1.77269 3.4974 0
M  V30 4307 H 406.04 0.960651 4.064 0
M  V30 4308 N 406.477 -1.02803 1.19454 0
M  V30 4309 C 407.725 -1.75869 0.995722 0
M  V30 4310 C 408.046 -1.89138 -0.474543 0
M  V30 4311 O 407.316 -1.42558 -1.34366 0
M  V30 4312 H 405.896 -0.651511 0.365435 0
M  V30 4313 H 408.558 -1.24004 1.50363 0
M  V30 4314 H 407.654 -2.76661 1.44447 0
M  V30 4315 N 407.956 -0.998596 -1.21925 0
M  V30 4316 C 408.919 -0.558679 -2.22287 0
M  V30 4317 C 409.919 0.361525 -1.56683 0
M  V30 4318 O 411.109 0.152695 -1.73529 0
M  V30 4319 C 408.241 0.18661 -3.40389 0
M  V30 4320 H 409.434 -1.4463 -2.62721 0
M  V30 4321 H 406.987 -0.786413 -1.35075 0
M  V30 4322 H 407.722 1.08996 -3.05435 0
M  V30 4323 H 407.507 -0.474188 -3.89222 0
M  V30 4324 H 408.997 0.482367 -4.14805 0
M  V30 4325 N 409.434 1.37368 -0.772513 0
M  V30 4326 C 410.683 1.98918 -0.333861 0
M  V30 4327 C 410.996 1.62017 1.09589 0
M  V30 4328 O 412.202 2.16676 1.63596 0
M  V30 4329 C 410.658 3.55735 -0.545971 0
M  V30 4330 C 410.266 4.01573 -1.98603 0
M  V30 4331 C 412.01 4.24156 -0.170979 0
M  V30 4332 C 409.917 5.51102 -2.1457 0
M  V30 4333 H 408.847 0.744214 -0.121085 0
M  V30 4334 H 411.498 1.56888 -0.95175 0
M  V30 4335 H 409.88 3.95748 0.141387 0
M  V30 4336 H 411.054 3.72803 -2.7084 0
M  V30 4337 H 409.369 3.45937 -2.31769 0
M  V30 4338 H 411.966 5.34024 -0.26878 0
M  V30 4339 H 412.309 4.06917 0.878855 0
M  V30 4340 H 412.842 3.89447 -0.810914 0
M  V30 4341 H 409.581 5.73268 -3.17875 0
M  V30 4342 H 409.101 5.81554 -1.46817 0
M  V30 4343 H 410.78 6.17083 -1.94468 0
M  V30 4344 N 410.912 0.523116 1.48665 0
M  V30 4345 C 412.142 -0.00961724 2.06598 0
M  V30 4346 C 412.55 -1.29333 1.38093 0
M  V30 4347 O 411.893 -1.77846 0.46007 0
M  V30 4348 C 411.955 -0.311135 3.58151 0
M  V30 4349 C 411.619 0.878092 4.48485 0
M  V30 4350 C 412.616 1.77464 4.88674 0
M  V30 4351 C 410.301 1.08315 4.90483 0
M  V30 4352 C 412.295 2.86021 5.69623 0
M  V30 4353 C 409.982 2.17187 5.71203 0
M  V30 4354 C 410.98 3.05873 6.10681 0
M  V30 4355 O 410.668 4.12862 6.89783 0
M  V30 4356 H 410.4 0.0272658 0.67545 0
M  V30 4357 H 412.954 0.726156 1.92136 0
M  V30 4358 H 411.184 -1.10079 3.70701 0
M  V30 4359 H 412.873 -0.785125 3.98234 0
M  V30 4360 H 413.639 1.62813 4.56855 0
M  V30 4361 H 409.518 0.402149 4.59243 0
M  V30 4362 H 413.062 3.55272 6.00356 0
M  V30 4363 H 408.959 2.31824 6.02435 0
M  V30 4364 H 409.727 4.10487 7.08126 0
M  V30 4365 N 412.39 -1.55475 0.257931 0
M  V30 4366 C 413.638 -1.98813 -0.363009 0
M  V30 4367 C 413.959 -1.14757 -1.57657 0
M  V30 4368 O 413.229 -0.232956 -1.9451 0
M  V30 4369 H 411.809 -0.734308 -0.137113 0
M  V30 4370 H 414.471 -1.9156 0.359281 0
M  V30 4371 H 413.567 -3.04941 -0.664634 0
M  V30 4372 N 413.868 0.0150385 -1.57593 0
M  V30 4373 C 415.116 0.701613 -1.8953 0
M  V30 4374 C 415.437 1.75139 -0.857396 0
M  V30 4375 O 414.707 1.95607 0.107194 0
M  V30 4376 H 413.287 0.26213 -0.699498 0
M  V30 4377 H 415.949 -0.0223304 -1.94887 0
M  V30 4378 H 415.045 1.18236 -2.88837 0
M  V30 4379 N 415.346 1.54954 0.287554 0
M  V30 4380 C 416.276 1.89839 1.35954 0
M  V30 4381 C 417.257 0.758675 1.52244 0
M  V30 4382 O 418.442 1.01557 1.65529 0
M  V30 4383 C 415.572 2.15753 2.72154 0
M  V30 4384 C 414.526 3.3159 2.70614 0
M  V30 4385 C 413.852 3.42952 4.10229 0
M  V30 4386 C 415.152 4.68359 2.31165 0
M  V30 4387 H 416.846 2.79625 1.07007 0
M  V30 4388 H 414.392 1.3454 0.513316 0
M  V30 4389 H 416.345 2.38743 3.47246 0
M  V30 4390 H 415.069 1.22752 3.02654 0
M  V30 4391 H 413.728 3.08545 1.97979 0
M  V30 4392 H 413.376 2.47443 4.37928 0
M  V30 4393 H 413.076 4.20826 4.10097 0
M  V30 4394 H 414.6 3.68218 4.87081 0
M  V30 4395 H 416.014 4.9099 2.95976 0
M  V30 4396 H 414.411 5.49044 2.42221 0
M  V30 4397 H 415.481 4.68165 1.26291 0
M  V30 4398 N 416.824 -0.551391 1.4764 0
M  V30 4399 C 418.073 -1.30467 1.53822 0
M  V30 4400 C 418.386 -1.94495 0.207661 0
M  V30 4401 O 419.592 -2.71099 0.147533 0
M  V30 4402 C 418.048 -2.36616 2.71184 0
M  V30 4403 C 417.656 -1.78754 4.10793 0
M  V30 4404 C 419.4 -3.13088 2.86663 0
M  V30 4405 C 417.307 -2.82717 5.19447 0
M  V30 4406 H 416.237 -0.490584 0.572576 0
M  V30 4407 H 418.888 -0.58494 1.73927 0
M  V30 4408 H 417.27 -3.11529 2.4447 0
M  V30 4409 H 418.444 -1.10173 4.47435 0
M  V30 4410 H 416.759 -1.14846 4.00249 0
M  V30 4411 H 419.356 -3.90736 3.65007 0
M  V30 4412 H 419.699 -3.67635 1.95321 0
M  V30 4413 H 420.232 -2.45288 3.13175 0
M  V30 4414 H 416.971 -2.33018 6.12685 0
M  V30 4415 H 416.491 -3.4969 4.87316 0
M  V30 4416 H 418.17 -3.46102 5.46646 0
M  V30 4417 N 418.302 -1.35869 -0.798587 0
M  V30 4418 C 419.549 -1.29588 -1.55606 0
M  V30 4419 C 419.877 0.127456 -1.94082 0
M  V30 4420 O 419.132 1.09461 -1.62225 0
M  V30 4421 C 419.431 -2.1556 -2.85077 0
M  V30 4422 C 419.097 -3.6424 -2.65781 0
M  V30 4423 C 417.759 -4.04766 -2.60227 0
M  V30 4424 C 420.111 -4.58547 -2.47758 0
M  V30 4425 C 417.439 -5.37753 -2.34603 0
M  V30 4426 C 419.791 -5.91742 -2.23662 0
M  V30 4427 C 418.455 -6.31402 -2.16534 0
M  V30 4428 H 417.725 -0.474197 -0.569402 0
M  V30 4429 H 420.372 -1.67839 -0.922086 0
M  V30 4430 H 418.677 -1.70216 -3.52893 0
M  V30 4431 H 420.374 -2.08031 -3.42818 0
M  V30 4432 H 416.964 -3.32086 -2.70956 0
M  V30 4433 H 421.148 -4.28117 -2.51056 0
M  V30 4434 H 416.404 -5.67474 -2.2756 0
M  V30 4435 H 420.578 -6.6439 -2.08708 0
M  V30 4436 H 418.205 -7.34381 -1.96441 0
M  V30 4437 N 419.78 1.02168 -1.19998 0
M  V30 4438 C 421.026 1.75945 -1.00852 0
M  V30 4439 C 421.359 1.88702 0.458828 0
M  V30 4440 O 420.634 1.40911 1.34069 0
M  V30 4441 C 420.917 3.18154 -1.68671 0
M  V30 4442 C 420.77 3.13224 -3.22817 0
M  V30 4443 C 422.089 4.16711 -1.41561 0
M  V30 4444 H 419.208 0.638673 -0.367785 0
M  V30 4445 H 421.85 1.19222 -1.4794 0
M  V30 4446 H 420 3.66586 -1.28636 0
M  V30 4447 H 421.672 2.72635 -3.72112 0
M  V30 4448 H 419.915 2.50751 -3.53986 0
M  V30 4449 H 420.586 4.13728 -3.65422 0
M  V30 4450 H 423.062 3.76913 -1.76284 0
M  V30 4451 H 421.938 5.14391 -1.91553 0
M  V30 4452 H 422.199 4.40774 -0.342193 0
M  V30 4453 N 421.258 1.00505 1.21394 0
M  V30 4454 C 422.221 0.570459 2.21987 0
M  V30 4455 C 423.221 -0.353211 1.56873 0
M  V30 4456 O 424.411 -0.14349 1.73608 0
M  V30 4457 C 421.543 -0.168555 3.40483 0
M  V30 4458 H 422.736 1.46021 2.6195 0
M  V30 4459 H 420.289 0.793565 1.34656 0
M  V30 4460 H 421.024 -1.07374 3.06009 0
M  V30 4461 H 420.809 0.494823 3.88965 0
M  V30 4462 H 422.299 -0.460362 4.15055 0
M  V30 4463 N 422.737 -1.36956 0.779787 0
M  V30 4464 C 423.965 -2.03755 0.359398 0
M  V30 4465 C 424.38 -1.58807 -1.02106 0
M  V30 4466 O 423.737 -0.773024 -1.6532 0
M  V30 4467 C 423.788 -3.59251 0.402568 0
M  V30 4468 O 423.509 -4.02557 1.72858 0
M  V30 4469 C 425.01 -4.43291 -0.0284068 0
M  V30 4470 H 422.23 -0.654148 0.149437 0
M  V30 4471 H 424.774 -1.75128 1.05595 0
M  V30 4472 H 422.929 -3.86621 -0.245478 0
M  V30 4473 H 423.343 -4.97111 1.67275 0
M  V30 4474 H 424.817 -5.51975 0.0529466 0
M  V30 4475 H 425.294 -4.25719 -1.07982 0
M  V30 4476 H 425.9 -4.21163 0.591758 0
M  V30 4477 N 424.215 -0.530993 -1.48385 0
M  V30 4478 C 425.44 0.000729535 -2.074 0
M  V30 4479 C 425.865 1.27298 -1.3848 0
M  V30 4480 O 425.223 1.75599 -0.451081 0
M  V30 4481 C 425.271 0.206697 -3.60007 0
M  V30 4482 O 424.375 1.27514 -3.92191 0
M  V30 4483 H 423.716 -0.039583 -0.662819 0
M  V30 4484 H 426.246 -0.739194 -1.9078 0
M  V30 4485 H 426.256 0.42904 -4.05738 0
M  V30 4486 H 424.931 -0.722675 -4.09573 0
M  V30 4487 H 423.508 1.03537 -3.58238 0
M  V30 4488 N 425.693 1.55336 -0.266172 0
M  V30 4489 C 427.104 1.85236 0.233315 0
M  V30 4490 C 427.455 1.18816 1.56132 0
M  V30 4491 O 426.58 0.473307 2.11161 0
M  V30 4492 C 427.175 3.36059 0.430113 0
M  V30 4493 C 425.734 3.66116 0.873842 0
M  V30 4494 C 424.881 2.77274 -0.0380016 0
M  V30 4495 H 427.832 1.51004 -0.488214 0
M  V30 4496 H 427.853 3.58681 1.26998 0
M  V30 4497 H 427.365 3.84373 -0.536588 0
M  V30 4498 H 425.466 3.23295 1.85233 0
M  V30 4499 H 425.579 4.73699 0.717358 0
M  V30 4500 H 423.943 2.50198 0.476759 0
M  V30 4501 H 424.726 3.284 -1.00042 0
M  V30 4502 N 427.171 -0.0066808 1.57599 0
M  V30 4503 C 428.587 -0.36267 1.55425 0
M  V30 4504 C 428.787 -1.75209 0.995187 0
M  V30 4505 O 427.843 -2.44616 0.626058 0
M  V30 4506 C 429.156 -0.244017 2.99708 0
M  V30 4507 C 430.704 -0.319451 3.11366 0
M  V30 4508 C 431.179 -0.229998 4.57422 0
M  V30 4509 N 432.67 -0.288105 4.62303 0
M  V30 4510 C 433.405 -0.242127 5.72889 0
M  V30 4511 N 432.901 -0.147133 6.92644 0
M  V30 4512 N 434.694 -0.293502 5.61333 0
M  V30 4513 H 426.845 0.902314 1.92281 0
M  V30 4514 H 429.108 0.34525 0.882896 0
M  V30 4515 H 428.814 0.711678 3.44424 0
M  V30 4516 H 428.688 -1.02877 3.629 0
M  V30 4517 H 431.075 -1.26559 2.66584 0
M  V30 4518 H 431.156 0.495055 2.50964 0
M  V30 4519 H 430.8 0.712566 5.02877 0
M  V30 4520 H 430.73 -1.0629 5.15761 0
M  V30 4521 H 433.221 -0.363126 3.76151 0
M  V30 4522 H 433.534 -0.117763 7.7271 0
M  V30 4523 H 431.879 -0.112857 6.94908 0
M  V30 4524 H 435.07 -0.365864 4.66668 0
M  V30 4525 H 435.243 -0.254204 6.47501 0
M  V30 4526 N 428.649 -1.55105 -0.279332 0
M  V30 4527 C 429.889 -1.7716 -1.01949 0
M  V30 4528 C 430.253 -0.557511 -1.83728 0
M  V30 4529 O 431.454 -0.656198 -2.60667 0
M  V30 4530 C 429.725 -3.0372 -1.88385 0
M  V30 4531 S 431.284 -3.46868 -2.68752 0
M  V30 4532 H 428.102 -0.62253 -0.343478 0
M  V30 4533 H 430.704 -1.93329 -0.290572 0
M  V30 4534 H 429.408 -3.90184 -1.2722 0
M  V30 4535 H 428.939 -2.902 -2.65608 0
M  V30 4536 H 430.954 -3.05643 -3.90892 0
M  V30 4537 N 430.127 0.543554 -1.4793 0
M  V30 4538 C 431.373 1.30201 -1.55485 0
M  V30 4539 C 431.706 1.92925 -0.222201 0
M  V30 4540 O 430.981 1.78586 0.77053 0
M  V30 4541 C 431.264 2.40174 -2.68307 0
M  V30 4542 C 431.117 1.8223 -4.11233 0
M  V30 4543 C 432.436 3.42024 -2.76961 0
M  V30 4544 H 429.555 0.472036 -0.565996 0
M  V30 4545 H 432.197 0.606914 -1.80046 0
M  V30 4546 H 430.347 2.99463 -2.47495 0
M  V30 4547 H 432.019 1.27096 -4.43446 0
M  V30 4548 H 430.262 1.12832 -4.18869 0
M  V30 4549 H 430.933 2.61793 -4.85972 0
M  V30 4550 H 433.409 2.92672 -2.95774 0
M  V30 4551 H 432.285 4.16383 -3.57654 0
M  V30 4552 H 432.546 4.0173 -1.84568 0
M  V30 4553 N 431.605 1.3629 0.791371 0
M  V30 4554 C 432.553 1.30514 1.92533 0
M  V30 4555 C 433.547 0.197285 1.68247 0
M  V30 4556 O 434.753 0.364176 1.76278 0
M  V30 4557 H 431.128 0.406263 0.632815 0
M  V30 4558 H 433.099 2.26282 1.94523 0
M  V30 4559 C 431.848 1.10933 3.29529 0
M  V30 4560 H 431.171 1.95427 3.48781 0
M  V30 4561 H 432.611 1.10937 4.0923 0
M  V30 4562 C 431.07 -0.186123 3.36385 0
M  V30 4563 O 431.6 -1.17664 3.84081 0
M  V30 4564 N 429.806 -0.230128 2.89687 0
M  V30 4565 H 429.353 0.576545 2.51065 0
M  V30 4566 H 429.311 -1.09658 2.94657 0
M  V30 4567 N 433.083 -1.0153 1.20538 0
M  V30 4568 C 434.329 -1.75408 1.01783 0
M  V30 4569 C 434.662 -1.88943 -0.448814 0
M  V30 4570 O 433.937 -1.4162 -1.33319 0
M  V30 4571 C 434.22 -3.17255 1.70356 0
M  V30 4572 C 434.073 -3.11508 3.24473 0
M  V30 4573 C 435.392 -4.15955 1.43769 0
M  V30 4574 H 432.511 -0.636713 0.371167 0
M  V30 4575 H 435.153 -1.18436 1.4857 0
M  V30 4576 H 433.303 -3.65898 1.30578 0
M  V30 4577 H 434.975 -2.70658 3.73553 0
M  V30 4578 H 433.218 -2.4887 3.55311 0
M  V30 4579 H 433.889 -4.11784 3.67611 0
M  V30 4580 H 436.365 -3.75973 1.7828 0
M  V30 4581 H 435.241 -5.13368 1.94279 0
M  V30 4582 H 435.502 -4.40586 0.365564 0
M  V30 4583 N 434.561 -1.01147 -1.20859 0
M  V30 4584 C 435.471 -0.58686 -2.27141 0
M  V30 4585 C 436.487 0.373198 -1.69951 0
M  V30 4586 O 437.663 0.235423 -2.00019 0
M  V30 4587 C 434.728 0.0733602 -3.46622 0
M  V30 4588 C 433.789 -0.931995 -4.19061 0
M  V30 4589 C 433.022 -0.303186 -5.32838 0
M  V30 4590 O 433.245 0.898395 -5.63281 0
M  V30 4591 O 432.179 -1.01735 -5.9324 0
M  V30 4592 H 436.005 -1.47155 -2.65667 0
M  V30 4593 H 433.59 -0.780689 -1.2738 0
M  V30 4594 H 435.472 0.442333 -4.19072 0
M  V30 4595 H 434.147 0.932329 -3.09983 0
M  V30 4596 H 433.054 -1.35224 -3.48805 0
M  V30 4597 H 434.387 -1.76076 -4.59628 0
M  V30 4598 N 436.039 1.36541 -0.78704 0
M  V30 4599 C 436.971 2.28761 -0.141773 0
M  V30 4600 C 437.984 1.49365 0.647599 0
M  V30 4601 O 439.173 1.71836 0.483173 0
M  V30 4602 C 436.273 3.28771 0.822368 0
M  V30 4603 C 435.446 4.3732 0.0835594 0
M  V30 4604 C 434.505 5.17307 0.963296 0
M  V30 4605 O 433.531 5.67638 0.421419 0
M  V30 4606 N 434.733 5.33515 2.28784 0
M  V30 4607 H 437.498 2.84777 -0.933919 0
M  V30 4608 H 435.059 1.48682 -0.640735 0
M  V30 4609 H 437.051 3.79169 1.41468 0
M  V30 4610 H 435.621 2.73412 1.5154 0
M  V30 4611 H 434.841 3.88118 -0.689809 0
M  V30 4612 H 436.129 5.0701 -0.426358 0
M  V30 4613 H 435.527 4.94234 2.75226 0
M  V30 4614 H 434.084 5.87165 2.82985 0
M  V30 4615 N 437.518 0.538854 1.48102 0
M  V30 4616 C 438.481 -0.208395 2.28251 0
M  V30 4617 C 439.481 -0.859656 1.35892 0
M  V30 4618 O 440.671 -0.71834 1.58699 0
M  V30 4619 C 437.803 -1.30252 3.15035 0
M  V30 4620 H 438.996 0.495407 2.9578 0
M  V30 4621 H 436.549 0.295112 1.53489 0
M  V30 4622 H 437.284 -2.0393 2.52157 0
M  V30 4623 H 437.069 -0.840551 3.82985 0
M  V30 4624 H 438.559 -1.82787 3.75471 0
M  V30 4625 N 438.996 -1.55193 0.274407 0
M  V30 4626 C 439.928 -2.1989 -0.646595 0
M  V30 4627 C 440.941 -1.1834 -1.11801 0
M  V30 4628 O 442.13 -1.4507 -1.04004 0
M  V30 4629 C 439.23 -2.8104 -1.89393 0
M  V30 4630 C 438.403 -4.08274 -1.56943 0
M  V30 4631 C 437.462 -4.53478 -2.66916 0
M  V30 4632 O 436.488 -5.19267 -2.33132 0
M  V30 4633 N 437.69 -4.2356 -3.9696 0
M  V30 4634 H 440.455 -2.99556 -0.0928686 0
M  V30 4635 H 438.016 -1.61618 0.0954783 0
M  V30 4636 H 440.008 -3.08226 -2.62257 0
M  V30 4637 H 438.578 -2.05372 -2.35672 0
M  V30 4638 H 437.798 -3.88384 -0.674655 0
M  V30 4639 H 439.086 -4.91173 -1.32764 0
M  V30 4640 H 438.484 -3.70799 -4.27229 0
M  V30 4641 H 437.041 -4.55518 -4.66205 0
M  V30 4642 N 440.474 -0.00167713 -1.576 0
M  V30 4643 C 441.384 1.00548 -2.1196 0
M  V30 4644 C 442.4 1.3758 -1.06526 0
M  V30 4645 O 443.576 1.46278 -1.38436 0
M  V30 4646 C 440.641 2.27809 -2.6135 0
M  V30 4647 C 439.702 1.97074 -3.81393 0
M  V30 4648 C 438.935 3.18267 -4.28417 0
M  V30 4649 O 439.158 4.30009 -3.74765 0
M  V30 4650 O 438.092 3.02167 -5.20556 0
M  V30 4651 H 441.918 0.573373 -2.98238 0
M  V30 4652 H 439.503 0.217255 -1.47812 0
M  V30 4653 H 441.385 3.02568 -2.93309 0
M  V30 4654 H 440.06 2.70254 -1.78169 0
M  V30 4655 H 438.967 1.19785 -3.54404 0
M  V30 4656 H 440.3 1.59464 -4.65652 0
M  V30 4657 N 441.952 1.55251 0.271103 0
M  V30 4658 C 443.198 1.76207 1.00394 0
M  V30 4659 C 443.531 0.562604 1.85872 0
M  V30 4660 O 442.806 -0.439785 1.89463 0
M  V30 4661 C 443.089 3.06828 1.8849 0
M  V30 4662 C 442.942 4.37134 1.05992 0
M  V30 4663 C 444.261 3.33503 2.87165 0
M  V30 4664 H 441.38 0.641086 0.363562 0
M  V30 4665 H 444.022 1.87982 0.276189 0
M  V30 4666 H 442.172 2.96921 2.5054 0
M  V30 4667 H 443.844 4.59001 0.459978 0
M  V30 4668 H 442.087 4.32275 0.363443 0
M  V30 4669 H 442.758 5.2486 1.70955 0
M  V30 4670 H 445.234 3.43215 2.3525 0
M  V30 4671 H 444.11 4.2616 3.45946 0
M  V30 4672 H 444.371 2.53235 3.62387 0
M  V30 4673 N 443.43 -0.535701 1.48216 0
M  V30 4674 C 444.363 -1.65726 1.56876 0
M  V30 4675 C 445.341 -1.57094 0.419542 0
M  V30 4676 O 446.525 -1.77648 0.630352 0
M  V30 4677 C 443.652 -3.04096 1.49142 0
M  V30 4678 C 442.698 -3.31105 2.68834 0
M  V30 4679 S 443.531 -3.18001 4.30854 0
M  V30 4680 C 444.687 -4.58828 4.25709 0
M  V30 4681 H 444.92 -1.58129 2.51759 0
M  V30 4682 H 442.453 -0.718218 1.36678 0
M  V30 4683 H 444.411 -3.839 1.45366 0
M  V30 4684 H 443.072 -3.09139 0.556067 0
M  V30 4685 H 442.265 -4.32033 2.59545 0
M  V30 4686 H 441.867 -2.58961 2.69843 0
M  V30 4687 H 444.159 -5.5023 3.95289 0
M  V30 4688 H 445.102 -4.73172 5.26796 0
M  V30 4689 H 445.51 -4.37883 3.56257 0
M  V30 4690 N 444.908 -1.36708 -0.784132 0
M  V30 4691 C 445.871 -1.31307 -1.87859 0
M  V30 4692 C 446.871 -0.219654 -1.59293 0
M  V30 4693 O 448.061 -0.47476 -1.67606 0
M  V30 4694 C 445.193 -1.03679 -3.24751 0
M  V30 4695 H 446.386 -2.28647 -1.94064 0
M  V30 4696 H 443.939 -1.21558 -0.98252 0
M  V30 4697 H 444.674 -0.0681936 -3.24228 0
M  V30 4698 H 444.459 -1.82811 -3.46876 0
M  V30 4699 H 445.949 -1.02518 -4.04821 0
M  V30 4700 N 446.386 1.0089 -1.21074 0
M  V30 4701 C 447.349 2.0775 -0.968129 0
M  V30 4702 C 448.349 1.6069 0.0593445 0
M  V30 4703 O 449.539 1.73293 -0.177525 0
M  V30 4704 C 446.671 3.37794 -0.459108 0
M  V30 4705 H 447.864 2.30707 -1.9161 0
M  V30 4706 H 445.417 1.17807 -1.02719 0
M  V30 4707 H 446.152 3.20516 0.49397 0
M  V30 4708 H 445.937 3.7328 -1.20019 0
M  V30 4709 H 447.427 4.16454 -0.309099 0
M  V30 4710 N 447.864 1.01787 1.20321 0
M  V30 4711 C 448.827 0.593972 2.2137 0
M  V30 4712 C 449.827 -0.336553 1.57239 0
M  V30 4713 O 451.017 -0.125069 1.7375 0
M  V30 4714 C 448.149 -0.132433 3.40643 0
M  V30 4715 H 449.342 1.48791 2.60387 0
M  V30 4716 H 446.895 0.807803 1.33807 0
M  V30 4717 H 447.63 -1.04123 3.0713 0
M  V30 4718 H 447.415 0.53605 3.88418 0
M  V30 4719 H 448.905 -0.416314 4.1552 0
M  V30 4720 N 449.342 -1.36122 0.79427 0
M  V30 4721 C 450.753 -1.81646 0.431446 0
M  V30 4722 C 451.104 -1.66043 -1.04518 0
M  V30 4723 O 450.229 -1.1841 -1.8113 0
M  V30 4724 C 450.824 -3.29785 0.776341 0
M  V30 4725 C 449.383 -3.73501 0.466282 0
M  V30 4726 C 448.53 -2.58313 1.00844 0
M  V30 4727 H 451.481 -1.24274 0.986995 0
M  V30 4728 H 451.502 -3.80437 0.0692413 0
M  V30 4729 H 451.014 -3.4111 1.8511 0
M  V30 4730 H 449.115 -3.67733 -0.600245 0
M  V30 4731 H 449.228 -4.68754 0.990288 0
M  V30 4732 H 447.592 -2.5102 0.431406 0
M  V30 4733 H 448.375 -2.72421 2.08906 0
M  V30 4734 N 450.82 -0.546701 -1.47814 0
M  V30 4735 C 451.75 0.195317 -2.32682 0
M  V30 4736 C 452.731 0.918981 -1.43139 0
M  V30 4737 O 453.916 0.901501 -1.72008 0
M  V30 4738 C 451.046 1.23237 -3.247 0
M  V30 4739 C 450 0.625818 -4.234 0
M  V30 4740 C 449.326 1.76674 -5.04669 0
M  V30 4741 C 450.626 -0.413515 -5.2066 0
M  V30 4742 H 452.32 -0.513184 -2.94969 0
M  V30 4743 H 449.866 -0.248241 -1.41844 0
M  V30 4744 H 451.819 1.75955 -3.82907 0
M  V30 4745 H 450.543 1.97067 -2.60446 0
M  V30 4746 H 449.202 0.120023 -3.66403 0
M  V30 4747 H 448.85 2.49383 -4.36826 0
M  V30 4748 H 448.55 1.36673 -5.71484 0
M  V30 4749 H 450.074 2.29738 -5.65732 0
M  V30 4750 H 451.488 0.0272042 -5.73294 0
M  V30 4751 H 449.885 -0.731825 -5.95621 0
M  V30 4752 H 450.955 -1.31325 -4.66778 0
M  V30 4753 N 452.299 1.55045 -0.282633 0
M  V30 4754 C 453.231 2.2023 0.634924 0
M  V30 4755 C 454.244 1.18931 1.11172 0
M  V30 4756 O 455.433 1.4562 1.03233 0
M  V30 4757 C 452.533 2.82041 1.87899 0
M  V30 4758 C 451.706 4.091 1.54776 0
M  V30 4759 C 450.765 4.54887 2.64507 0
M  V30 4760 O 449.791 5.20496 2.30375 0
M  V30 4761 N 450.993 4.25659 3.94709 0
M  V30 4762 H 453.758 2.99601 0.0769811 0
M  V30 4763 H 451.319 1.61565 -0.104048 0
M  V30 4764 H 453.311 3.09613 2.60619 0
M  V30 4765 H 451.881 2.06618 2.3458 0
M  V30 4766 H 451.101 3.88736 0.654049 0
M  V30 4767 H 452.389 4.9187 1.30158 0
M  V30 4768 H 451.787 3.7306 4.25256 0
M  V30 4769 H 450.344 4.57984 4.63782 0
M  V30 4770 N 453.777 0.010035 1.57597 0
M  V30 4771 C 455.007 -0.682422 1.95004 0
M  V30 4772 C 455.415 -1.67278 0.884014 0
M  V30 4773 O 454.758 -1.83129 -0.144672 0
M  V30 4774 C 454.82 -1.46141 3.28456 0
M  V30 4775 C 454.484 -0.631523 4.52615 0
M  V30 4776 C 455.481 0.0850905 5.1983 0
M  V30 4777 C 453.166 -0.574539 4.99003 0
M  V30 4778 C 455.16 0.847566 6.3174 0
M  V30 4779 C 452.847 0.191655 6.10799 0
M  V30 4780 C 453.845 0.901432 6.77025 0
M  V30 4781 O 453.533 1.65511 7.86677 0
M  V30 4782 H 453.265 -0.194361 0.647456 0
M  V30 4783 H 455.819 0.060312 2.05311 0
M  V30 4784 H 454.049 -2.24885 3.14585 0
M  V30 4785 H 455.738 -2.04016 3.50902 0
M  V30 4786 H 456.504 0.0502812 4.84974 0
M  V30 4787 H 452.383 -1.11654 4.47274 0
M  V30 4788 H 455.927 1.4021 6.83364 0
M  V30 4789 H 451.824 0.228249 6.45096 0
M  V30 4790 H 452.592 1.57287 8.03245 0
M  V30 4791 N 455.255 -1.55392 -0.262866 0
M  V30 4792 C 456.501 -1.76737 -0.99458 0
M  V30 4793 C 456.834 -0.572453 -1.85571 0
M  V30 4794 O 456.109 0.429732 -1.89693 0
M  V30 4795 C 456.392 -3.07824 -1.8686 0
M  V30 4796 C 456.245 -4.3769 -1.03672 0
M  V30 4797 C 457.564 -3.35021 -2.85393 0
M  V30 4798 H 454.683 -0.643005 -0.360157 0
M  V30 4799 H 457.325 -1.88126 -0.266216 0
M  V30 4800 H 455.475 -2.98245 -2.48962 0
M  V30 4801 H 457.147 -4.59238 -0.43563 0
M  V30 4802 H 455.39 -4.32461 -0.340513 0
M  V30 4803 H 456.061 -5.25759 -1.6817 0
M  V30 4804 H 458.537 -3.44458 -2.33426 0
M  V30 4805 H 457.413 -4.27989 -3.43681 0
M  V30 4806 H 457.674 -2.55153 -3.61039 0
M  V30 4807 N 456.733 0.527833 -1.48498 0
M  V30 4808 C 457.981 1.28101 -1.56316 0
M  V30 4809 C 458.302 1.9352 -0.239781 0
M  V30 4810 O 457.572 1.81433 0.738849 0
M  V30 4811 H 456.152 0.475793 -0.575873 0
M  V30 4812 H 458.814 0.614052 -1.84974 0
M  V30 4813 H 457.91 2.05916 -2.34532 0
M  V30 4814 N 458.211 1.37122 0.776871 0
M  V30 4815 C 459.457 1.32243 1.53752 0
M  V30 4816 C 459.79 -0.0944745 1.9397 0
M  V30 4817 O 459.065 -1.05068 1.6368 0
M  V30 4818 C 459.348 2.25681 2.80607 0
M  V30 4819 C 459.201 3.76127 2.46676 0
M  V30 4820 C 460.52 2.17657 3.82509 0
M  V30 4821 H 457.639 0.481704 0.557791 0
M  V30 4822 H 460.281 1.6778 0.891612 0
M  V30 4823 H 458.431 1.95505 3.35723 0
M  V30 4824 H 460.103 4.16877 1.97513 0
M  V30 4825 H 458.346 3.94946 1.79443 0
M  V30 4826 H 459.017 4.36933 3.37333 0
M  V30 4827 H 461.493 2.44245 3.36873 0
M  V30 4828 H 460.369 2.85185 4.69 0
M  V30 4829 H 460.63 1.16785 4.26396 0
M  V30 4830 N 459.689 -1.00246 1.21608 0
M  V30 4831 C 460.936 -1.74061 1.03485 0
M  V30 4832 C 461.264 -1.89658 -0.431308 0
M  V30 4833 O 460.519 -1.42976 -1.33627 0
M  V30 4834 C 460.818 -3.15448 1.68009 0
M  V30 4835 C 460.484 -3.19792 3.17874 0
M  V30 4836 C 459.146 -3.20685 3.58768 0
M  V30 4837 C 461.498 -3.16835 4.13842 0
M  V30 4838 C 458.826 -3.16309 4.94131 0
M  V30 4839 C 461.178 -3.14001 5.49169 0
M  V30 4840 C 459.842 -3.13204 5.89457 0
M  V30 4841 H 459.112 -0.636934 0.378677 0
M  V30 4842 H 461.759 -1.17473 1.51236 0
M  V30 4843 H 460.064 -3.75284 1.12557 0
M  V30 4844 H 461.761 -3.71285 1.51487 0
M  V30 4845 H 458.351 -3.19842 2.85305 0
M  V30 4846 H 462.535 -3.15303 3.83272 0
M  V30 4847 H 457.791 -3.14032 5.24589 0
M  V30 4848 H 461.965 -3.10667 6.23265 0
M  V30 4849 H 459.592 -3.09568 6.94314 0
M  V30 4850 N 461.167 -1.02423 -1.1978 0
M  V30 4851 C 462.583 -0.740459 -1.41384 0
M  V30 4852 C 462.783 0.676827 -1.89793 0
M  V30 4853 O 461.839 1.4435 -2.0717 0
M  V30 4854 C 463.152 -1.77264 -2.42895 0
M  V30 4855 C 464.7 -1.79165 -2.56649 0
M  V30 4856 C 465.175 -2.8133 -3.6141 0
M  V30 4857 N 466.666 -2.80118 -3.68901 0
M  V30 4858 C 467.401 -3.55824 -4.49641 0
M  V30 4859 N 466.897 -4.41231 -5.34123 0
M  V30 4860 N 468.69 -3.44387 -4.44246 0
M  V30 4861 H 460.841 -1.9391 -0.866764 0
M  V30 4862 H 463.104 -0.838074 -0.443098 0
M  V30 4863 H 462.81 -2.7884 -2.14339 0
M  V30 4864 H 462.684 -1.59108 -3.42001 0
M  V30 4865 H 465.071 -0.782702 -2.84531 0
M  V30 4866 H 465.152 -2.01396 -1.57713 0
M  V30 4867 H 464.796 -3.82394 -3.34271 0
M  V30 4868 H 464.726 -2.56359 -4.59986 0
M  V30 4869 H 467.217 -2.1817 -3.08562 0
M  V30 4870 H 467.53 -4.95747 -5.92836 0
M  V30 4871 H 465.875 -4.45306 -5.33599 0
M  V30 4872 H 469.066 -2.7708 -3.77285 0
M  V30 4873 H 469.239 -4.0364 -5.06931 0
M  V30 4874 N 462.645 1.35699 -0.801477 0
M  V30 4875 C 463.593 2.3177 -0.196317 0
M  V30 4876 C 464.587 1.56388 0.651081 0
M  V30 4877 O 465.793 1.71557 0.544815 0
M  V30 4878 H 462.168 0.750669 -0.0447189 0
M  V30 4879 H 464.139 2.8036 -1.02181 0
M  V30 4880 C 462.888 3.41671 0.644702 0
M  V30 4881 H 462.211 3.998 0.0019921 0
M  V30 4882 H 463.651 4.11184 1.0346 0
M  V30 4883 C 462.11 2.84271 1.80808 0
M  V30 4884 O 462.64 2.77408 2.9053 0
M  V30 4885 N 460.846 2.41391 1.61799 0
M  V30 4886 H 460.393 2.47173 0.725493 0
M  V30 4887 H 460.351 2.03334 2.39797 0
M  V30 4888 N 464.123 0.554532 1.47522 0
M  V30 4889 C 465.073 -0.215008 2.26984 0
M  V30 4890 C 466.057 -0.88774 1.34194 0
M  V30 4891 O 467.249 -0.786489 1.58567 0
M  V30 4892 C 464.378 -1.24604 3.19889 0
M  V30 4893 C 463.464 -0.576857 4.20159 0
M  V30 4894 N 463.855 0.351541 5.04577 0
M  V30 4895 C 462.153 -0.831104 4.38188 0
M  V30 4896 C 462.854 0.739995 5.76974 0
M  V30 4897 N 461.83 0.0954407 5.43516 0
M  V30 4898 H 465.632 0.498843 2.89636 0
M  V30 4899 H 463.146 0.374279 1.58028 0
M  V30 4900 H 465.143 -1.81128 3.75498 0
M  V30 4901 H 463.803 -1.96101 2.58794 0
M  V30 4902 H 464.814 0.725556 5.12792 0
M  V30 4903 H 461.491 -1.53479 3.88266 0
M  V30 4904 H 462.881 1.50271 6.5488 0
M  V30 4905 N 465.601 -1.54893 0.290851 0
M  V30 4906 C 466.878 -1.91991 -0.373989 0
M  V30 4907 C 467.258 -1.21694 -1.72493 0
M  V30 4908 O 466.606 -0.34917 -2.25816 0
M  V30 4909 C 466.816 -3.45419 -0.498703 0
M  V30 4910 C 468.164 -4.1748 -0.774298 0
M  V30 4911 O 469.188 -3.51398 -0.582908 0
M  V30 4912 O 468.047 -5.3445 -1.14129 0
M  V30 4913 H 465.141 -0.800593 -0.207315 0
M  V30 4914 H 467.687 -1.66297 0.338164 0
M  V30 4915 H 466.459 -3.88688 0.451392 0
M  V30 4916 H 466.082 -3.77117 -1.25972 0
M  V30 4917 N 467.08 -0.0183926 -1.57589 0
M  V30 4918 C 468.329 0.66185 -1.90532 0
M  V30 4919 C 468.642 1.73904 -0.895366 0
M  V30 4920 O 469.848 2.47518 -1.11566 0
M  V30 4921 C 468.304 1.22844 -3.38286 0
M  V30 4922 C 467.912 0.185103 -4.47617 0
M  V30 4923 C 469.656 1.88581 -3.80312 0
M  V30 4924 C 467.563 0.762723 -5.86461 0
M  V30 4925 H 466.493 0.250972 -0.711006 0
M  V30 4926 H 469.144 -0.0819435 -1.83317 0
M  V30 4927 H 467.526 2.0235 -3.40398 0
M  V30 4928 H 468.7 -0.58671 -4.5705 0
M  V30 4929 H 467.015 -0.372889 -4.14727 0
M  V30 4930 H 469.612 2.32735 -4.81392 0
M  V30 4931 H 469.955 2.72408 -3.14801 0
M  V30 4932 H 470.488 1.15782 -3.80578 0
M  V30 4933 H 467.227 -0.0371713 -6.55489 0
M  V30 4934 H 466.747 1.50327 -5.80656 0
M  V30 4935 H 468.426 1.25576 -6.34697 0
M  V30 4936 N 468.558 1.5553 0.254621 0
M  V30 4937 C 469.521 1.88872 1.29846 0
M  V30 4938 C 470.521 0.764591 1.41459 0
M  V30 4939 O 471.711 1.03265 1.40293 0
M  V30 4940 C 468.843 2.11032 2.67728 0
M  V30 4941 H 470.036 2.82201 1.01502 0
M  V30 4942 H 467.589 1.48303 0.493556 0
M  V30 4943 H 468.324 1.20146 3.01223 0
M  V30 4944 H 468.109 2.92895 2.60682 0
M  V30 4945 H 469.599 2.38038 3.43115 0
M  V30 4946 N 470.036 -0.519951 1.48776 0
M  V30 4947 C 471.313 -1.28123 1.47797 0
M  V30 4948 C 471.693 -2.10196 0.195157 0
M  V30 4949 O 471.041 -2.13167 -0.822925 0
M  V30 4950 C 471.251 -2.15413 2.74587 0
M  V30 4951 C 472.599 -2.75225 3.23321 0
M  V30 4952 O 473.623 -2.25694 2.75574 0
M  V30 4953 O 472.482 -3.65346 4.06429 0
M  V30 4954 H 469.576 -0.578793 0.590701 0
M  V30 4955 H 472.122 -0.535779 1.6102 0
M  V30 4956 H 470.894 -1.54617 3.59457 0
M  V30 4957 H 470.517 -2.97186 2.64132 0
M  V30 4958 N 471.514 -1.37532 -0.769588 0
M  V30 4959 C 472.76 -1.33057 -1.53048 0
M  V30 4960 C 473.093 0.0841865 -1.94017 0
M  V30 4961 O 472.368 1.04198 -1.64235 0
M  V30 4962 C 472.651 -2.27166 -2.79406 0
M  V30 4963 C 472.504 -3.77429 -2.44677 0
M  V30 4964 C 473.823 -2.19683 -3.81349 0
M  V30 4965 H 470.942 -0.484655 -0.555228 0
M  V30 4966 H 473.584 -1.68251 -0.882702 0
M  V30 4967 H 471.734 -1.97283 -3.34682 0
M  V30 4968 H 473.406 -4.17918 -1.953 0
M  V30 4969 H 471.649 -3.95892 -1.77346 0
M  V30 4970 H 472.32 -4.38716 -3.35011 0
M  V30 4971 H 474.796 -2.46029 -3.35573 0
M  V30 4972 H 473.672 -2.87668 -4.67481 0
M  V30 4973 H 473.933 -1.19045 -4.25771 0
M  V30 4974 N 472.992 0.995999 -1.22138 0
M  V30 4975 C 474.238 1.73767 -1.04561 0
M  V30 4976 C 474.571 1.89633 0.418698 0
M  V30 4977 O 473.846 1.43723 1.3105 0
M  V30 4978 C 474.129 3.14505 -1.75382 0
M  V30 4979 C 473.982 3.06306 -3.29388 0
M  V30 4980 C 475.301 4.13615 -1.50369 0
M  V30 4981 H 472.42 0.630728 -0.38125 0
M  V30 4982 H 475.062 1.16057 -1.50435 0
M  V30 4983 H 473.212 3.63775 -1.36383 0
M  V30 4984 H 474.884 2.64681 -3.77812 0
M  V30 4985 H 473.127 2.43186 -3.59226 0
M  V30 4986 H 473.798 4.05884 -3.74116 0
M  V30 4987 H 476.274 3.73089 -1.84239 0
M  V30 4988 H 475.15 5.10212 -2.02421 0
M  V30 4989 H 475.411 4.39949 -0.435611 0
M  V30 4990 N 474.47 1.03057 1.19235 0
M  V30 4991 C 475.747 0.642608 1.84743 0
M  V30 4992 C 476.127 -0.878577 1.91948 0
M  V30 4993 O 475.475 -1.77597 1.43776 0
M  V30 4994 C 475.685 1.30665 3.23616 0
M  V30 4995 C 477.033 1.43098 3.9976 0
M  V30 4996 O 478.057 1.26396 3.3302 0
M  V30 4997 O 476.916 1.70223 5.19313 0
M  V30 4998 H 474.01 0.223573 0.796206 0
M  V30 4999 H 476.556 1.12883 1.26711 0
M  V30 5000 H 475.328 2.34544 3.13217 0
M  V30 5001 H 474.951 0.808405 3.89295 0
M  V30 5002 N 475.948 -1.35272 0.808662 0
M  V30 5003 C 476.895 -2.29764 0.218482 0
M  V30 5004 C 477.865 -1.52911 -0.648652 0
M  V30 5005 O 479.05 -1.81341 -0.593297 0
M  V30 5006 C 476.19 -3.39388 -0.625282 0
M  V30 5007 C 475.303 -4.31202 0.262516 0
M  V30 5008 C 474.438 -5.27919 -0.589451 0
M  V30 5009 C 473.477 -6.11371 0.298617 0
M  V30 5010 N 472.614 -7.0022 -0.513443 0
M  V30 5011 H 477.454 -2.79645 1.02968 0
M  V30 5012 H 474.991 -1.37629 0.519303 0
M  V30 5013 H 476.949 -4.01615 -1.12966 0
M  V30 5014 H 475.579 -2.90777 -1.40173 0
M  V30 5015 H 474.631 -3.69962 0.885013 0
M  V30 5016 H 475.943 -4.89748 0.945971 0
M  V30 5017 H 475.097 -5.95529 -1.15888 0
M  V30 5018 H 473.836 -4.69875 -1.30647 0
M  V30 5019 H 472.841 -5.42707 0.880301 0
M  V30 5020 H 474.066 -6.71494 1.01352 0
M  V30 5021 H 472.012 -6.44662 -1.21439 0
M  V30 5022 H 471.929 -7.55917 0.111922 0
M  V30 5023 H 473.197 -7.72175 -1.06608 0
M  V30 5024 N 477.426 -0.562348 -1.47226 0
M  V30 5025 C 478.389 0.172056 -2.28553 0
M  V30 5026 C 479.389 0.837928 -1.37242 0
M  V30 5027 O 480.579 0.693001 -1.59822 0
M  V30 5028 C 477.711 1.25223 -3.17068 0
M  V30 5029 H 478.904 -0.542401 -2.94954 0
M  V30 5030 H 476.457 -0.319493 -1.53 0
M  V30 5031 H 477.192 1.99892 -2.55369 0
M  V30 5032 H 476.977 0.779515 -3.84273 0
M  V30 5033 H 478.467 1.76791 -3.78332 0
M  V30 5034 N 478.904 1.54736 -0.299062 0
M  V30 5035 C 479.851 2.23448 0.577899 0
M  V30 5036 C 480.821 1.21637 1.13109 0
M  V30 5037 O 482.006 1.50252 1.17597 0
M  V30 5038 C 479.146 2.9774 1.74484 0
M  V30 5039 C 478.259 4.1432 1.22323 0
M  V30 5040 C 477.394 4.76199 2.35388 0
M  V30 5041 C 476.433 5.84927 1.80351 0
M  V30 5042 N 475.57 6.4077 2.86982 0
M  V30 5043 H 480.41 2.97996 -0.0146545 0
M  V30 5044 H 477.947 1.47088 -0.0190013 0
M  V30 5045 H 479.905 3.39045 2.43114 0
M  V30 5046 H 478.535 2.25572 2.30905 0
M  V30 5047 H 477.587 3.7797 0.429249 0
M  V30 5048 H 478.899 4.92659 0.780309 0
M  V30 5049 H 478.053 5.20346 3.11969 0
M  V30 5050 H 476.792 3.97188 2.83006 0
M  V30 5051 H 475.797 5.40207 1.02259 0
M  V30 5052 H 477.022 6.65821 1.3364 0
M  V30 5053 H 474.968 5.64643 3.33938 0
M  V30 5054 H 474.885 7.1445 2.4718 0
M  V30 5055 H 476.153 6.89574 3.63466 0
M  V30 5056 N 480.382 0.0267497 1.57577 0
M  V30 5057 C 481.628 -0.653371 1.91987 0
M  V30 5058 C 481.961 -1.71915 0.903263 0
M  V30 5059 O 481.236 -1.94358 -0.0743387 0
M  V30 5060 C 481.519 -1.272 3.36886 0
M  V30 5061 C 481.372 -0.215938 4.49281 0
M  V30 5062 C 482.691 -2.19069 3.81703 0
M  V30 5063 H 479.81 -0.236047 0.698177 0
M  V30 5064 H 482.452 0.0835236 1.89816 0
M  V30 5065 H 480.602 -1.90005 3.38866 0
M  V30 5066 H 482.274 0.41449 4.59434 0
M  V30 5067 H 480.517 0.458855 4.31366 0
M  V30 5068 H 481.188 -0.688347 5.47691 0
M  V30 5069 H 483.664 -1.66253 3.81444 0
M  V30 5070 H 482.54 -2.59307 4.83788 0
M  V30 5071 H 482.801 -3.08087 3.17072 0
M  V30 5072 N 481.861 -1.55662 -0.24637 0
M  V30 5073 C 482.791 -1.93377 -1.30873 0
M  V30 5074 C 483.772 -0.798773 -1.50179 0
M  V30 5075 O 484.957 -1.0591 -1.62778 0
M  V30 5076 C 482.087 -2.22893 -2.66338 0
M  V30 5077 C 481.041 -3.38649 -2.61727 0
M  V30 5078 C 480.367 -3.53708 -4.00992 0
M  V30 5079 C 481.667 -4.74323 -2.18666 0
M  V30 5080 H 483.361 -2.82363 -0.995552 0
M  V30 5081 H 480.907 -1.35854 -0.477464 0
M  V30 5082 H 482.86 -2.47866 -3.40794 0
M  V30 5083 H 481.584 -1.30733 -2.99293 0
M  V30 5084 H 480.243 -3.13685 -1.89729 0
M  V30 5085 H 479.891 -2.58967 -4.31214 0
M  V30 5086 H 479.591 -4.31551 -3.98795 0
M  V30 5087 H 481.115 -3.81003 -4.77147 0
M  V30 5088 H 482.529 -4.98665 -2.82854 0
M  V30 5089 H 480.926 -5.55273 -2.27579 0
M  V30 5090 H 481.996 -4.71349 -1.13834 0
M  V30 5091 N 483.339 0.512053 -1.4905 0
M  V30 5092 C 484.564 1.2959 -1.6193 0
M  V30 5093 C 484.989 1.85906 -0.286454 0
M  V30 5094 O 484.347 1.65312 0.744426 0
M  V30 5095 C 484.395 2.40987 -2.68249 0
M  V30 5096 O 483.499 3.44531 -2.26654 0
M  V30 5097 H 482.84 0.383053 -0.542371 0
M  V30 5098 H 485.37 0.614231 -1.95162 0
M  V30 5099 H 485.38 2.86913 -2.90078 0
M  V30 5100 H 484.055 1.99361 -3.65004 0
M  V30 5101 H 482.632 3.046 -2.15112 0
M  V30 5102 N 484.817 1.37938 0.762283 0
M  V30 5103 C 485.747 1.37176 1.88958 0
M  V30 5104 C 486.728 0.238945 1.68413 0
M  V30 5105 O 487.913 0.440726 1.89133 0
M  V30 5106 C 485.043 1.18742 3.2637 0
M  V30 5107 C 483.997 2.29136 3.61498 0
M  V30 5108 C 483.323 1.95816 4.97554 0
M  V30 5109 C 484.623 3.71363 3.6727 0
M  V30 5110 H 486.317 2.31509 1.89853 0
M  V30 5111 H 483.863 1.11438 0.912005 0
M  V30 5112 H 485.816 1.16837 4.04879 0
M  V30 5113 H 484.54 0.208683 3.25933 0
M  V30 5114 H 483.199 2.30213 2.85303 0
M  V30 5115 H 482.847 0.964475 4.93667 0
M  V30 5116 H 482.547 2.69745 5.22026 0
M  V30 5117 H 484.071 1.95513 5.78452 0
M  V30 5118 H 485.485 3.72364 4.35911 0
M  V30 5119 H 483.882 4.44425 4.03245 0
M  V30 5120 H 484.952 4.04305 2.67704 0
M  V30 5121 N 486.295 -0.989507 1.22664 0
M  V30 5122 C 487.258 -2.06183 1.00106 0
M  V30 5123 C 488.258 -1.60765 -0.0337726 0
M  V30 5124 O 489.448 -1.72989 0.205072 0
M  V30 5125 C 486.58 -3.37021 0.51279 0
M  V30 5126 H 487.773 -2.27629 1.95256 0
M  V30 5127 H 485.326 -1.16158 1.0458 0
M  V30 5128 H 486.061 -3.21261 -0.442917 0
M  V30 5129 H 485.846 -3.71323 1.25942 0
M  V30 5130 H 487.336 -4.1591 0.375315 0
M  V30 5131 N 487.773 -1.03688 -1.18687 0
M  V30 5132 C 488.736 -0.629115 -2.20397 0
M  V30 5133 C 489.736 0.311495 -1.57754 0
M  V30 5134 O 490.926 0.0974107 -1.73927 0
M  V30 5135 C 488.058 0.0782231 -3.4081 0
M  V30 5136 H 489.251 -1.52915 -2.57987 0
M  V30 5137 H 486.804 -0.828988 -1.32505 0
M  V30 5138 H 487.539 0.992233 -3.08748 0
M  V30 5139 H 487.324 -0.597776 -3.87517 0
M  V30 5140 H 488.814 0.350156 -4.16129 0
M  V30 5141 N 489.251 1.34841 -0.815825 0
M  V30 5142 C 490.497 1.98793 -0.401129 0
M  V30 5143 C 490.83 1.64548 1.03139 0
M  V30 5144 O 490.105 0.913487 1.71714 0
M  V30 5145 C 490.388 3.55143 -0.595409 0
M  V30 5146 C 490.241 3.99155 -2.07352 0
M  V30 5147 C 491.56 4.40092 -0.0268823 0
M  V30 5148 H 488.679 0.722146 -0.14722 0
M  V30 5149 H 491.321 1.59847 -1.02707 0
M  V30 5150 H 489.471 3.8845 -0.0625779 0
M  V30 5151 H 491.143 3.76216 -2.66945 0
M  V30 5152 H 489.386 3.49726 -2.56659 0
M  V30 5153 H 490.057 5.07971 -2.1603 0
M  V30 5154 H 492.533 4.13298 -0.482042 0
M  V30 5155 H 491.409 5.48562 -0.19267 0
M  V30 5156 H 491.67 4.29016 1.06759 0
M  V30 5157 N 490.729 0.570148 1.46925 0
M  V30 5158 C 491.661 -0.207909 2.28255 0
M  V30 5159 C 492.674 -0.867301 1.37774 0
M  V30 5160 O 493.863 -0.738976 1.62485 0
M  V30 5161 C 490.963 -1.31298 3.12433 0
M  V30 5162 C 490.136 -0.747915 4.30958 0
M  V30 5163 C 489.195 -1.7391 4.9663 0
M  V30 5164 O 488.221 -1.2801 5.54619 0
M  V30 5165 N 489.423 -3.07288 4.92498 0
M  V30 5166 H 492.188 0.489794 2.95671 0
M  V30 5167 H 489.749 0.407076 1.56699 0
M  V30 5168 H 491.741 -1.97507 3.53232 0
M  V30 5169 H 490.311 -1.91373 2.47175 0
M  V30 5170 H 489.531 0.0913066 3.94094 0
M  V30 5171 H 490.819 -0.349958 5.07595 0
M  V30 5172 H 490.217 -3.47213 4.46609 0
M  V30 5173 H 488.774 -3.69021 5.37277 0
M  V30 5174 N 492.207 -1.54576 0.307264 0
M  V30 5175 C 493.137 -2.26708 -0.55907 0
M  V30 5176 C 494.118 -1.26893 -1.1328 0
M  V30 5177 O 495.303 -1.55677 -1.16097 0
M  V30 5178 C 492.433 -3.01259 -1.72801 0
M  V30 5179 C 491.387 -4.08275 -1.28435 0
M  V30 5180 C 490.713 -4.70575 -2.53895 0
M  V30 5181 C 492.013 -5.2068 -0.411038 0
M  V30 5182 H 493.707 -2.9937 0.042576 0
M  V30 5183 H 491.253 -1.43983 0.0219173 0
M  V30 5184 H 493.206 -3.50444 -2.34023 0
M  V30 5185 H 491.93 -2.26187 -2.356 0
M  V30 5186 H 490.589 -3.59949 -0.695161 0
M  V30 5187 H 490.237 -3.92136 -3.15021 0
M  V30 5188 H 489.937 -5.42854 -2.24908 0
M  V30 5189 H 491.461 -5.22527 -3.15908 0
M  V30 5190 H 492.875 -5.65721 -0.929097 0
M  V30 5191 H 491.272 -5.99716 -0.214664 0
M  V30 5192 H 492.342 -4.81629 0.562287 0
M  V30 5193 N 493.685 -0.035106 -1.57561 0
M  V30 5194 C 494.635 0.954034 -2.0708 0
M  V30 5195 C 495.619 1.2818 -0.972558 0
M  V30 5196 O 496.811 1.26691 -1.23606 0
M  V30 5197 C 493.94 2.23442 -2.60631 0
M  V30 5198 C 493.026 1.93475 -3.77396 0
M  V30 5199 N 493.417 1.33802 -4.87781 0
M  V30 5200 C 491.715 2.23434 -3.85996 0
M  V30 5201 C 492.416 1.21103 -5.68954 0
M  V30 5202 N 491.392 1.70855 -5.16052 0
M  V30 5203 H 495.194 0.487731 -2.89825 0
M  V30 5204 H 492.708 0.169759 -1.6151 0
M  V30 5205 H 494.705 2.95183 -2.94402 0
M  V30 5206 H 493.365 2.70693 -1.79319 0
M  V30 5207 H 494.376 1.01227 -5.07911 0
M  V30 5208 H 491.053 2.73317 -3.15601 0
M  V30 5209 H 492.443 0.749105 -6.67711 0
M  V30 5210 N 495.163 1.55791 0.238111 0
M  V30 5211 C 496.411 1.77681 0.963001 0
M  V30 5212 C 496.732 0.600674 1.85518 0
M  V30 5213 O 496.002 -0.383182 1.92116 0
M  V30 5214 H 494.582 0.655315 0.358568 0
M  V30 5215 H 497.244 1.93239 0.253945 0
M  V30 5216 H 496.34 2.69177 1.57956 0
M  V30 5217 N 496.642 -0.504142 1.49319 0
M  V30 5218 C 497.59 -1.62689 1.66238 0
M  V30 5219 C 498.584 -1.6095 0.528349 0
M  V30 5220 O 499.79 -1.65496 0.707887 0
M  V30 5221 H 496.165 -0.539247 0.524134 0
M  V30 5222 H 498.136 -1.45571 2.60484 0
M  V30 5223 C 496.885 -3.00841 1.74328 0
M  V30 5224 H 496.208 -3.02884 2.60963 0
M  V30 5225 H 497.648 -3.78945 1.90202 0
M  V30 5226 C 496.107 -3.33355 0.487416 0
M  V30 5227 O 496.637 -3.99819 -0.388294 0
M  V30 5228 N 494.843 -2.88469 0.351306 0
M  V30 5229 H 494.39 -2.34557 1.06492 0
M  V30 5230 H 494.348 -3.10591 -0.487899 0
M  V30 5231 N 498.12 -1.38341 -0.754957 0
M  V30 5232 C 499.03 -1.3769 -1.89944 0
M  V30 5233 C 500.046 -0.274194 -1.71826 0
M  V30 5234 O 501.222 -0.512391 -1.94773 0
M  V30 5235 C 498.287 -1.19938 -3.25293 0
M  V30 5236 C 497.348 -2.40001 -3.55946 0
M  V30 5237 C 496.581 -2.23087 -4.84838 0
M  V30 5238 O 496.804 -1.22386 -5.57116 0
M  V30 5239 O 495.738 -3.11646 -5.14937 0
M  V30 5240 H 499.564 -2.3412 -1.93446 0
M  V30 5241 H 497.149 -1.19246 -0.900044 0
M  V30 5242 H 499.031 -1.12093 -4.06218 0
M  V30 5243 H 497.706 -0.265919 -3.22606 0
M  V30 5244 H 496.613 -2.53421 -2.75188 0
M  V30 5245 H 497.946 -3.31973 -3.63394 0
M  V30 5246 N 499.598 0.982988 -1.23187 0
M  V30 5247 C 500.508 2.10907 -1.02739 0
M  V30 5248 C 501.524 1.73979 0.0273188 0
M  V30 5249 O 502.7 2.00702 -0.16757 0
M  V30 5250 C 499.765 3.41142 -0.618304 0
M  V30 5251 C 498.826 3.92112 -1.74777 0
M  V30 5252 C 498.059 5.16131 -1.3581 0
M  V30 5253 O 498.282 5.6989 -0.241201 0
M  V30 5254 O 497.216 5.61103 -2.17824 0
M  V30 5255 H 501.042 2.31046 -1.97108 0
M  V30 5256 H 498.627 1.09284 -1.01869 0
M  V30 5257 H 500.509 4.19488 -0.400982 0
M  V30 5258 H 499.184 3.2234 0.296421 0
M  V30 5259 H 498.091 3.14895 -2.0197 0
M  V30 5260 H 499.424 4.15364 -2.64071 0
M  V30 5261 N 501.076 1.04316 1.18135 0
M  V30 5262 C 502.008 0.594444 2.21357 0
M  V30 5263 C 503.021 -0.337215 1.59269 0
M  V30 5264 O 504.21 -0.131337 1.78016 0
M  V30 5265 C 501.31 -0.151251 3.38562 0
M  V30 5266 C 500.483 0.788907 4.30227 0
M  V30 5267 C 499.542 0.0860572 5.2613 0
M  V30 5268 O 498.568 0.717302 5.64662 0
M  V30 5269 N 499.77 -1.17969 5.68387 0
M  V30 5270 H 502.535 1.48227 2.60478 0
M  V30 5271 H 500.096 0.92396 1.32946 0
M  V30 5272 H 502.088 -0.631352 3.99745 0
M  V30 5273 H 500.658 -0.940639 2.98112 0
M  V30 5274 H 499.878 1.44882 3.6661 0
M  V30 5275 H 501.166 1.42738 4.88368 0
M  V30 5276 H 500.564 -1.71302 5.3914 0
M  V30 5277 H 499.121 -1.60402 6.31755 0
M  V30 5278 N 502.554 -1.34406 0.822964 0
M  V30 5279 C 503.484 -2.32052 0.259608 0
M  V30 5280 C 504.465 -1.58243 -0.623961 0
M  V30 5281 O 505.65 -1.86224 -0.55083 0
M  V30 5282 C 502.78 -3.42434 -0.579314 0
M  V30 5283 C 501.734 -4.27499 0.20712 0
M  V30 5284 C 501.06 -5.29349 -0.754547 0
M  V30 5285 C 502.36 -5.02758 1.41533 0
M  V30 5286 H 504.054 -2.79418 1.07545 0
M  V30 5287 H 501.6 -1.34338 0.518593 0
M  V30 5288 H 503.553 -4.0976 -0.983612 0
M  V30 5289 H 502.277 -2.93717 -1.4282 0
M  V30 5290 H 500.936 -3.61776 0.592787 0
M  V30 5291 H 500.584 -4.76895 -1.59939 0
M  V30 5292 H 500.284 -5.8714 -0.232561 0
M  V30 5293 H 501.808 -5.99544 -1.1567 0
M  V30 5294 H 503.222 -5.62938 1.08504 0
M  V30 5295 H 501.619 -5.70123 1.87296 0
M  V30 5296 H 502.689 -4.32451 2.1935 0
M  V30 5297 N 504.032 -0.577932 -1.46621 0
M  V30 5298 C 505.262 -0.0670668 -2.06491 0
M  V30 5299 C 505.67 1.24119 -1.42798 0
M  V30 5300 O 505.013 1.76016 -0.525759 0
M  V30 5301 C 505.075 0.177995 -3.59059 0
M  V30 5302 C 504.739 -1.04394 -4.44917 0
M  V30 5303 C 505.736 -1.95479 -4.81751 0
M  V30 5304 C 503.421 -1.26444 -4.86125 0
M  V30 5305 C 505.415 -3.06965 -5.58615 0
M  V30 5306 C 503.102 -2.38237 -5.62749 0
M  V30 5307 C 504.1 -3.28327 -5.98908 0
M  V30 5308 O 503.788 -4.38179 -6.73984 0
M  V30 5309 H 503.52 -0.0523159 -0.673973 0
M  V30 5310 H 506.074 -0.796966 -1.89308 0
M  V30 5311 H 504.304 0.962451 -3.74531 0
M  V30 5312 H 505.993 0.636782 -4.00874 0
M  V30 5313 H 506.759 -1.79657 -4.50498 0
M  V30 5314 H 502.638 -0.572316 -4.57434 0
M  V30 5315 H 506.182 -3.77309 -5.86757 0
M  V30 5316 H 502.079 -2.54023 -5.93416 0
M  V30 5317 H 502.847 -4.36486 -6.92403 0
M  V30 5318 N 505.51 1.54411 -0.315457 0
M  V30 5319 C 506.759 1.99599 0.290395 0
M  V30 5320 C 507.072 1.20746 1.53882 0
M  V30 5321 O 508.278 1.56272 2.22017 0
M  V30 5322 C 506.734 3.5539 0.56797 0
M  V30 5323 C 506.342 4.43068 -0.662945 0
M  V30 5324 C 508.086 4.09067 1.13422 0
M  V30 5325 C 505.993 5.90317 -0.357722 0
M  V30 5326 H 504.923 0.745592 0.112286 0
M  V30 5327 H 507.574 1.78477 -0.426418 0
M  V30 5328 H 505.956 3.72468 1.34476 0
M  V30 5329 H 507.13 4.37765 -1.43869 0
M  V30 5330 H 505.445 4.00238 -1.14884 0
M  V30 5331 H 508.042 5.16663 1.37707 0
M  V30 5332 H 508.385 3.60552 2.08106 0
M  V30 5333 H 508.918 3.95589 0.418805 0
M  V30 5334 H 505.657 6.4301 -1.27351 0
M  V30 5335 H 505.177 5.98592 0.380472 0
M  V30 5336 H 506.856 6.4699 0.0354284 0
M  V30 5337 N 506.988 0.0434614 1.5754 0
M  V30 5338 C 508.265 -0.671479 1.83713 0
M  V30 5339 C 508.645 -1.89495 0.930315 0
M  V30 5340 O 507.993 -2.28498 -0.0105639 0
M  V30 5341 C 508.203 -1.0361 3.33266 0
M  V30 5342 C 509.551 -1.42167 4.00092 0
M  V30 5343 O 510.575 -1.12866 3.37846 0
M  V30 5344 O 509.434 -1.96817 5.09829 0
M  V30 5345 H 506.528 -0.330726 0.75799 0
M  V30 5346 H 509.074 0.0722373 1.69546 0
M  V30 5347 H 507.846 -0.165938 3.90948 0
M  V30 5348 H 507.469 -1.83751 3.52592 0
M  V30 5349 N 508.466 -1.55915 -0.229846 0
M  V30 5350 C 509.694 -1.82617 -0.972562 0
M  V30 5351 C 510.109 -0.621488 -1.78278 0
M  V30 5352 O 509.466 0.409956 -1.77836 0
M  V30 5353 C 509.517 -3.0774 -1.89679 0
M  V30 5354 O 509.238 -4.23559 -1.11934 0
M  V30 5355 C 510.739 -3.47368 -2.75409 0
M  V30 5356 H 507.959 -0.60727 -0.285419 0
M  V30 5357 H 510.503 -2.02996 -0.247579 0
M  V30 5358 H 508.658 -2.89361 -2.57583 0
M  V30 5359 H 509.072 -4.94586 -1.74599 0
M  V30 5360 H 510.546 -4.37977 -3.35977 0
M  V30 5361 H 511.023 -2.68737 -3.47386 0
M  V30 5362 H 511.629 -3.68158 -2.12931 0
M  V30 5363 N 509.944 0.496216 -1.49584 0
M  V30 5364 C 510.874 1.60576 -1.69521 0
M  V30 5365 C 511.855 1.61169 -0.543933 0
M  V30 5366 O 513.04 1.77834 -0.78031 0
M  V30 5367 C 510.17 2.99038 -1.76616 0
M  V30 5368 C 509.124 3.13312 -2.91581 0
M  V30 5369 C 508.45 4.53172 -2.83794 0
M  V30 5370 C 509.75 2.92886 -4.32452 0
M  V30 5371 H 511.444 1.44146 -2.62416 0
M  V30 5372 H 508.99 0.692024 -1.26282 0
M  V30 5373 H 510.943 3.76564 -1.8915 0
M  V30 5374 H 509.667 3.16568 -0.80324 0
M  V30 5375 H 508.326 2.38213 -2.78658 0
M  V30 5376 H 507.974 4.67585 -1.854 0
M  V30 5377 H 507.674 4.63662 -3.60958 0
M  V30 5378 H 509.198 5.32752 -2.98342 0
M  V30 5379 H 510.612 3.60178 -4.46032 0
M  V30 5380 H 509.009 3.14844 -5.10875 0
M  V30 5381 H 510.079 1.88966 -4.46565 0
M  V30 5382 N 511.423 1.38739 0.74761 0
M  V30 5383 C 512.839 1.20067 1.05148 0
M  V30 5384 C 513.039 0.0534835 2.01429 0
M  V30 5385 O 512.095 -0.59886 2.45296 0
M  V30 5386 C 513.408 2.52957 1.62584 0
M  V30 5387 C 514.956 2.59692 1.74726 0
M  V30 5388 C 515.431 3.92772 2.35573 0
M  V30 5389 N 516.922 3.94343 2.42997 0
M  V30 5390 C 517.657 4.9408 2.90985 0
M  V30 5391 N 517.153 6.04214 3.38965 0
M  V30 5392 N 518.946 4.81466 2.9008 0
M  V30 5393 H 511.097 2.12121 0.108808 0
M  V30 5394 H 513.36 0.941491 0.110899 0
M  V30 5395 H 513.066 3.37389 0.993051 0
M  V30 5396 H 512.94 2.71779 2.61565 0
M  V30 5397 H 515.327 1.75651 2.3713 0
M  V30 5398 H 515.408 2.44731 0.744326 0
M  V30 5399 H 515.052 4.77238 1.738 0
M  V30 5400 H 514.982 4.05046 3.36519 0
M  V30 5401 H 517.473 3.14799 2.0907 0
M  V30 5402 H 517.786 6.76241 3.74056 0
M  V30 5403 H 516.131 6.07825 3.37007 0
M  V30 5404 H 519.322 3.94535 2.51912 0
M  V30 5405 H 519.495 5.59344 3.27166 0
M  V30 5406 N 512.901 -0.976442 1.23707 0
M  V30 5407 C 513.811 -2.10359 1.03856 0
M  V30 5408 C 514.827 -1.73991 -0.0180919 0
M  V30 5409 O 516.003 -2.0061 0.178211 0
M  V30 5410 C 513.068 -3.40809 0.636387 0
M  V30 5411 C 512.129 -3.91179 1.76854 0
M  V30 5412 C 511.362 -5.15404 1.38546 0
M  V30 5413 O 511.585 -5.69754 0.27142 0
M  V30 5414 O 510.519 -5.5994 2.20797 0
M  V30 5415 H 514.345 -2.29997 1.98331 0
M  V30 5416 H 511.93 -1.08742 1.02448 0
M  V30 5417 H 513.812 -4.19269 0.423223 0
M  V30 5418 H 512.487 -3.22493 -0.279322 0
M  V30 5419 H 511.394 -3.13819 2.03638 0
M  V30 5420 H 512.727 -4.13958 2.6627 0
M  V30 5421 N 514.379 -1.04941 -1.1758 0
M  V30 5422 C 515.342 -0.652456 -2.19717 0
M  V30 5423 C 516.342 0.294745 -1.58076 0
M  V30 5424 O 517.532 0.0789579 -1.74021 0
M  V30 5425 C 514.664 0.0420712 -3.40874 0
M  V30 5426 H 515.857 -1.55642 -2.5635 0
M  V30 5427 H 513.41 -0.842995 -1.31618 0
M  V30 5428 H 514.145 0.95943 -3.09783 0
M  V30 5429 H 513.93 -0.638844 -3.86861 0
M  V30 5430 H 515.42 0.306 -4.16477 0
M  V30 5431 N 515.857 1.33968 -0.830081 0
M  V30 5432 C 516.787 2.31911 -0.271911 0
M  V30 5433 C 517.768 1.58571 0.61556 0
M  V30 5434 O 518.953 1.86514 0.540946 0
M  V30 5435 C 516.083 3.42737 0.561146 0
M  V30 5436 C 515.037 4.27383 -0.229789 0
M  V30 5437 C 514.363 5.29742 0.726463 0
M  V30 5438 C 515.663 5.02 -1.44197 0
M  V30 5439 H 517.357 2.78844 -1.09025 0
M  V30 5440 H 514.903 1.34061 -0.52571 0
M  V30 5441 H 516.856 4.10276 0.961867 0
M  V30 5442 H 515.58 2.94471 1.41261 0
M  V30 5443 H 514.239 3.61456 -0.611964 0
M  V30 5444 H 513.887 4.77736 1.57408 0
M  V30 5445 H 513.587 5.87255 0.20142 0
M  V30 5446 H 515.111 6.00149 1.12489 0
M  V30 5447 H 516.525 5.62355 -1.11488 0
M  V30 5448 H 514.922 5.69122 -1.90317 0
M  V30 5449 H 515.992 4.31281 -2.2164 0
M  V30 5450 N 517.335 0.585699 1.46312 0
M  V30 5451 C 518.746 0.159938 1.86014 0
M  V30 5452 C 519.097 -1.27775 1.48889 0
M  V30 5453 O 518.222 -1.96559 0.90519 0
M  V30 5454 C 518.817 0.283485 3.37612 0
M  V30 5455 C 517.376 -0.0874256 3.76298 0
M  V30 5456 C 516.523 0.618055 2.70325 0
M  V30 5457 H 519.474 0.793737 1.37425 0
M  V30 5458 H 519.495 -0.490348 3.77327 0
M  V30 5459 H 519.007 1.32995 3.64601 0
M  V30 5460 H 517.108 -1.13391 3.54927 0
M  V30 5461 H 517.221 0.290975 4.78216 0
M  V30 5462 H 515.585 0.057993 2.54634 0
M  V30 5463 H 516.368 1.66623 3.00153 0
M  V30 5464 N 518.813 -1.54241 0.323641 0
M  V30 5465 C 519.776 -2.22997 -0.529602 0
M  V30 5466 C 520.776 -1.22345 -1.04347 0
M  V30 5467 O 521.966 -1.46924 -0.935889 0
M  V30 5468 C 519.098 -2.93409 -1.73562 0
M  V30 5469 H 520.291 -2.99815 0.0714518 0
M  V30 5470 H 517.844 -1.56121 0.0747258 0
M  V30 5471 H 518.579 -2.20729 -2.37591 0
M  V30 5472 H 518.364 -3.67217 -1.37456 0
M  V30 5473 H 519.854 -3.45794 -2.34128 0
M  V30 5474 N 520.291 -0.0518155 -1.57515 0
M  V30 5475 C 521.241 0.932017 -2.0808 0
M  V30 5476 C 522.225 1.27141 -0.986098 0
M  V30 5477 O 523.417 1.25373 -1.24943 0
M  V30 5478 C 520.546 2.20665 -2.62986 0
M  V30 5479 C 519.632 1.89462 -3.79427 0
M  V30 5480 N 520.023 1.28621 -4.89173 0
M  V30 5481 C 518.321 2.19327 -3.88345 0
M  V30 5482 C 519.022 1.15062 -5.70207 0
M  V30 5483 N 517.998 1.65372 -5.17835 0
M  V30 5484 H 521.8 0.456964 -2.90326 0
M  V30 5485 H 519.314 0.152619 -1.61681 0
M  V30 5486 H 521.311 2.92044 -2.97516 0
M  V30 5487 H 519.971 2.68776 -1.8218 0
M  V30 5488 H 520.982 0.958341 -5.08956 0
M  V30 5489 H 517.659 2.69955 -3.18482 0
M  V30 5490 H 519.049 0.678243 -6.68468 0
M  V30 5491 N 521.769 1.56035 0.221574 0
M  V30 5492 C 523.015 1.79312 0.947372 0
M  V30 5493 C 523.348 0.621453 1.83988 0
M  V30 5494 O 522.623 -0.379287 1.90766 0
M  V30 5495 C 522.906 3.1267 1.78633 0
M  V30 5496 C 522.759 4.40284 0.920312 0
M  V30 5497 C 524.078 3.4247 2.7641 0
M  V30 5498 H 521.197 0.652328 0.342982 0
M  V30 5499 H 523.839 1.88765 0.216244 0
M  V30 5500 H 521.989 3.04741 2.40967 0
M  V30 5501 H 523.661 4.60232 0.313718 0
M  V30 5502 H 521.904 4.33212 0.225734 0
M  V30 5503 H 522.575 5.30033 1.54171 0
M  V30 5504 H 525.051 3.50526 2.24211 0
M  V30 5505 H 523.927 4.3695 3.32213 0
M  V30 5506 H 524.188 2.64635 3.54148 0
M  V30 5507 N 523.247 -0.488276 1.49845 0
M  V30 5508 C 524.21 -1.57069 1.66919 0
M  V30 5509 C 525.21 -1.51445 0.540479 0
M  V30 5510 O 526.4 -1.5437 0.807188 0
M  V30 5511 C 523.532 -2.96718 1.67844 0
M  V30 5512 H 524.725 -1.43254 2.63474 0
M  V30 5513 H 522.278 -0.713435 1.39068 0
M  V30 5514 H 523.013 -3.15996 0.7292 0
M  V30 5515 H 522.798 -3.02208 2.49826 0
M  V30 5516 H 524.288 -3.75335 1.83066 0
M  V30 5517 N 524.725 -1.39134 -0.740242 0
M  V30 5518 C 525.974 -1.35384 -1.49512 0
M  V30 5519 C 526.287 0.04919 -1.95538 0
M  V30 5520 O 527.493 0.209257 -2.70692 0
M  V30 5521 C 525.949 -2.37812 -2.70136 0
M  V30 5522 C 525.557 -3.83804 -2.31081 0
M  V30 5523 C 527.301 -2.4313 -3.47977 0
M  V30 5524 C 525.208 -4.77886 -3.48395 0
M  V30 5525 H 524.138 -0.503297 -0.561434 0
M  V30 5526 H 526.789 -1.64754 -0.807974 0
M  V30 5527 H 525.171 -2.01505 -3.40899 0
M  V30 5528 H 526.345 -4.29123 -1.67898 0
M  V30 5529 H 524.66 -3.81732 -1.66343 0
M  V30 5530 H 527.257 -3.10614 -4.35228 0
M  V30 5531 H 527.6 -1.45423 -3.90074 0
M  V30 5532 H 528.133 -2.78304 -2.84239 0
M  V30 5533 H 524.872 -5.76836 -3.11353 0
M  V30 5534 H 524.392 -4.3725 -4.10576 0
M  V30 5535 H 526.071 -4.96538 -4.148 0
M  V30 5536 N 526.204 0.969867 -1.24223 0
M  V30 5537 C 527.45 1.71582 -1.09231 0
M  V30 5538 C 527.805 1.88898 0.365432 0
M  V30 5539 O 527.098 1.43781 1.2664 0
M  V30 5540 C 527.292 3.10883 -1.76314 0
M  V30 5541 C 527.121 3.07155 -3.2846 0
M  V30 5542 C 525.891 3.11757 -3.97663 0
M  V30 5543 C 528.089 2.895 -4.25082 0
M  V30 5544 N 526.071 2.98025 -5.36707 0
M  V30 5545 C 527.442 2.84041 -5.51109 0
M  V30 5546 C 529.497 2.74064 -4.15684 0
M  V30 5547 C 528.2 2.64725 -6.68815 0
M  V30 5548 C 530.226 2.56115 -5.33066 0
M  V30 5549 C 529.588 2.51363 -6.58024 0
M  V30 5550 H 525.687 0.636496 -0.454309 0
M  V30 5551 H 528.271 1.15004 -1.57106 0
M  V30 5552 H 526.442 3.65657 -1.30955 0
M  V30 5553 H 528.174 3.74171 -1.54201 0
M  V30 5554 H 524.929 3.20352 -3.48814 0
M  V30 5555 H 525.353 2.94405 -6.09635 0
M  V30 5556 H 529.995 2.76521 -3.19837 0
M  V30 5557 H 527.713 2.61011 -7.64787 0
M  V30 5558 H 531.299 2.45119 -5.27644 0
M  V30 5559 H 530.179 2.37651 -7.47323 0
M  V30 5560 N 527.682 1.05563 1.17022 0
M  V30 5561 C 528.629 0.659893 2.21165 0
M  V30 5562 C 529.599 -0.339813 1.62587 0
M  V30 5563 O 530.784 -0.230378 1.89404 0
M  V30 5564 C 527.924 0.0447297 3.45071 0
M  V30 5565 C 527.037 1.09372 4.17926 0
M  V30 5566 C 526.172 0.445481 5.29329 0
M  V30 5567 C 525.211 1.47852 5.93975 0
M  V30 5568 N 524.348 0.854172 6.96885 0
M  V30 5569 H 529.188 1.55243 2.54369 0
M  V30 5570 H 526.725 0.776336 1.24946 0
M  V30 5571 H 528.683 -0.329404 4.15898 0
M  V30 5572 H 527.313 -0.811244 3.1244 0
M  V30 5573 H 526.365 1.58564 3.45777 0
M  V30 5574 H 527.677 1.87773 4.62107 0
M  V30 5575 H 526.831 0.0179688 6.06697 0
M  V30 5576 H 525.57 -0.370481 4.86291 0
M  V30 5577 H 524.575 1.91601 5.15334 0
M  V30 5578 H 525.8 2.29645 6.39093 0
M  V30 5579 H 523.746 0.0587882 6.55974 0
M  V30 5580 H 523.663 1.57567 7.39397 0
M  V30 5581 H 524.931 0.451559 7.78191 0
M  V30 5582 N 529.16 -1.33526 0.837174 0
M  V30 5583 C 530.123 -2.27551 0.274421 0
M  V30 5584 C 531.123 -1.50886 -0.555881 0
M  V30 5585 O 532.313 -1.70227 -0.369918 0
M  V30 5586 C 529.445 -3.35332 -0.613605 0
M  V30 5587 H 530.638 -2.78837 1.10408 0
M  V30 5588 H 528.191 -1.439 0.610126 0
M  V30 5589 H 528.926 -2.89285 -1.46577 0
M  V30 5590 H 528.711 -3.92095 -0.0195341 0
M  V30 5591 H 530.201 -4.05433 -1.00068 0
M  V30 5592 N 530.638 -0.59345 -1.46 0
M  V30 5593 C 531.568 0.121192 -2.33185 0
M  V30 5594 C 532.549 0.872977 -1.4599 0
M  V30 5595 O 533.734 0.846321 -1.74789 0
M  V30 5596 C 530.864 1.12844 -3.28456 0
M  V30 5597 C 529.818 0.4908 -4.25177 0
M  V30 5598 C 529.144 1.60529 -5.10034 0
M  V30 5599 C 530.444 -0.578949 -5.19081 0
M  V30 5600 H 532.138 -0.606767 -2.93187 0
M  V30 5601 H 529.684 -0.293242 -1.40983 0
M  V30 5602 H 531.637 1.63684 -3.88311 0
M  V30 5603 H 530.361 1.88681 -2.66584 0
M  V30 5604 H 529.02 0.00339328 -3.666 0
M  V30 5605 H 528.668 2.35359 -4.44539 0
M  V30 5606 H 528.368 1.18422 -5.75543 0
M  V30 5607 H 529.892 2.11623 -5.72755 0
M  V30 5608 H 531.306 -0.155199 -5.7309 0
M  V30 5609 H 529.703 -0.920947 -5.92991 0
M  V30 5610 H 530.773 -1.46109 -4.62364 0
M  V30 5611 N 532.116 1.54067 -0.331816 0
M  V30 5612 C 533.341 2.05599 0.272705 0
M  V30 5613 C 533.766 1.2059 1.44359 0
M  V30 5614 O 533.124 0.216907 1.79998 0
M  V30 5615 C 533.172 3.54188 0.677021 0
M  V30 5616 O 532.276 3.72082 1.77844 0
M  V30 5617 H 531.617 0.662286 0.0476801 0
M  V30 5618 H 534.147 1.98826 -0.482624 0
M  V30 5619 H 534.157 3.96608 0.957415 0
M  V30 5620 H 532.832 4.15513 -0.179325 0
M  V30 5621 H 531.409 3.41566 1.49622 0
M  V30 5622 N 533.594 0.0601682 1.57485 0
M  V30 5623 C 534.84 -0.612501 1.93329 0
M  V30 5624 C 535.173 -1.6996 0.939526 0
M  V30 5625 O 534.448 -1.94472 -0.0330957 0
M  V30 5626 C 534.731 -1.20025 3.39508 0
M  V30 5627 C 534.584 -0.12059 4.49638 0
M  V30 5628 C 535.903 -2.10923 3.86264 0
M  V30 5629 H 533.022 -0.221185 0.703027 0
M  V30 5630 H 535.664 0.123768 1.89596 0
M  V30 5631 H 533.814 -1.82774 3.42821 0
M  V30 5632 H 535.486 0.51185 4.58452 0
M  V30 5633 H 533.729 0.550251 4.30296 0
M  V30 5634 H 534.4 -0.572019 5.49028 0
M  V30 5635 H 536.876 -1.58124 3.84884 0
M  V30 5636 H 535.752 -2.48987 4.8918 0
M  V30 5637 H 536.013 -3.01292 3.23536 0
M  V30 5638 N 535.072 -1.5615 -0.213296 0
M  V30 5639 C 536.32 -1.79191 -0.934612 0
M  V30 5640 C 536.641 -0.630112 -1.84539 0
M  V30 5641 O 535.911 0.35257 -1.92701 0
M  V30 5642 H 534.491 -0.660937 -0.348097 0
M  V30 5643 H 537.153 -1.93618 -0.22317 0
M  V30 5644 H 536.249 -2.71656 -1.53654 0
M  V30 5645 N 536.55 0.480323 -1.50102 0
M  V30 5646 C 537.46 1.60547 -1.71061 0
M  V30 5647 C 538.476 1.63564 -0.593529 0
M  V30 5648 O 539.652 1.81604 -0.870751 0
M  V30 5649 C 536.717 2.96814 -1.79171 0
M  V30 5650 C 535.778 3.04259 -3.02861 0
M  V30 5651 C 535.011 4.34027 -3.10574 0
M  V30 5652 O 535.234 5.24009 -2.25323 0
M  V30 5653 O 534.168 4.46873 -4.03223 0
M  V30 5654 H 537.994 1.45788 -2.6642 0
M  V30 5655 H 535.579 0.658838 -1.34088 0
M  V30 5656 H 537.461 3.77765 -1.86738 0
M  V30 5657 H 536.136 3.11791 -0.869947 0
M  V30 5658 H 535.043 2.22419 -3.008 0
M  V30 5659 H 536.376 2.94216 -3.94586 0
M  V30 5660 N 538.028 1.39524 0.732853 0
M  V30 5661 C 539.256 1.40143 1.52209 0
M  V30 5662 C 539.671 -0.00348836 1.888 0
M  V30 5663 O 539.028 -0.975357 1.5425 0
M  V30 5664 C 539.079 2.27632 2.8083 0
M  V30 5665 O 538.8 3.62654 2.45792 0
M  V30 5666 C 540.301 2.36658 3.74844 0
M  V30 5667 H 537.521 0.478604 0.470297 0
M  V30 5668 H 540.065 1.83366 0.905388 0
M  V30 5669 H 538.22 1.87818 3.38826 0
M  V30 5670 H 538.634 4.08941 3.28431 0
M  V30 5671 H 540.108 3.02118 4.61984 0
M  V30 5672 H 540.585 1.38638 4.16745 0
M  V30 5673 H 541.191 2.76951 3.22766 0
M  V30 5674 N 539.506 -0.963266 1.24736 0
M  V30 5675 C 540.436 -2.07628 1.06832 0
M  V30 5676 C 541.417 -1.70088 -0.0200566 0
M  V30 5677 O 542.602 -1.93636 0.147854 0
M  V30 5678 C 539.732 -3.40636 0.677069 0
M  V30 5679 C 538.686 -3.9215 1.71471 0
M  V30 5680 C 538.012 -5.21553 1.1784 0
M  V30 5681 C 539.312 -4.19493 3.11164 0
M  V30 5682 H 541.006 -2.22864 1.9993 0
M  V30 5683 H 538.552 -1.07093 0.96266 0
M  V30 5684 H 540.505 -4.17941 0.538792 0
M  V30 5685 H 539.229 -3.25313 -0.289612 0
M  V30 5686 H 537.888 -3.17005 1.84128 0
M  V30 5687 H 537.536 -5.02593 0.202195 0
M  V30 5688 H 537.236 -5.56988 1.87185 0
M  V30 5689 H 538.76 -6.01463 1.05233 0
M  V30 5690 H 540.174 -4.87487 3.01711 0
M  V30 5691 H 538.571 -4.66165 3.77902 0
M  V30 5692 H 539.641 -3.26097 3.58871 0
M  V30 5693 N 540.985 -1.06182 -1.16461 0
M  V30 5694 C 542.396 -0.802426 -1.68576 0
M  V30 5695 C 542.747 0.67412 -1.84255 0
M  V30 5696 O 541.872 1.52303 -1.5373 0
M  V30 5697 C 542.467 -1.45002 -3.06202 0
M  V30 5698 C 541.026 -1.23843 -3.55443 0
M  V30 5699 C 540.173 -1.52724 -2.31454 0
M  V30 5700 H 543.124 -1.22545 -1.00839 0
M  V30 5701 H 543.145 -0.864731 -3.70544 0
M  V30 5702 H 542.657 -2.52466 -2.94759 0
M  V30 5703 H 540.758 -0.183487 -3.72148 0
M  V30 5704 H 540.871 -1.95036 -4.37604 0
M  V30 5705 H 539.235 -0.947726 -2.36411 0
M  V30 5706 H 540.018 -2.61343 -2.22609 0
M  V30 5707 N 542.463 1.3308 -0.844243 0
M  V30 5708 C 543.426 2.27403 -0.286485 0
M  V30 5709 C 544.426 1.51179 0.547872 0
M  V30 5710 O 545.616 1.70421 0.360886 0
M  V30 5711 C 542.748 3.35653 0.595813 0
M  V30 5712 H 543.941 2.78248 -1.11885 0
M  V30 5713 H 541.494 1.43574 -0.617749 0
M  V30 5714 H 542.229 2.90058 1.4504 0
M  V30 5715 H 542.014 3.921 -0.00125994 0
M  V30 5716 H 543.504 4.05958 0.979168 0
M  V30 5717 N 543.941 0.601185 1.45683 0
M  V30 5718 C 545.357 0.264315 1.57396 0
M  V30 5719 C 545.557 -1.23324 1.59353 0
M  V30 5720 O 544.613 -2.01594 1.52039 0
M  V30 5721 C 545.926 0.929839 2.85962 0
M  V30 5722 C 547.474 0.905156 2.99626 0
M  V30 5723 C 547.949 1.55057 4.30954 0
M  V30 5724 N 549.44 1.51576 4.37697 0
M  V30 5725 C 550.175 1.98436 5.37969 0
M  V30 5726 N 549.671 2.53352 6.44813 0
M  V30 5727 N 551.464 1.89242 5.29286 0
M  V30 5728 H 543.615 1.57363 1.42656 0
M  V30 5729 H 545.878 0.658831 0.681649 0
M  V30 5730 H 545.584 1.98404 2.90394 0
M  V30 5731 H 545.458 0.449224 3.74515 0
M  V30 5732 H 547.845 -0.14048 2.94765 0
M  V30 5733 H 547.926 1.42397 2.12501 0
M  V30 5734 H 547.57 2.5955 4.36573 0
M  V30 5735 H 547.5 1.00682 5.16886 0
M  V30 5736 H 549.991 1.11452 3.61091 0
M  V30 5737 H 550.304 2.86918 7.17564 0
M  V30 5738 H 548.649 2.57388 6.45582 0
M  V30 5739 H 551.84 1.46083 4.44722 0
M  V30 5740 H 552.013 2.26075 6.07284 0
M  V30 5741 N 545.419 -1.53889 0.339982 0
M  V30 5742 C 546.329 -2.28604 -0.526988 0
M  V30 5743 C 547.345 -1.33578 -1.11503 0
M  V30 5744 O 548.521 -1.66612 -1.13148 0
M  V30 5745 C 545.586 -3.04164 -1.66389 0
M  V30 5746 C 544.647 -4.14809 -1.10599 0
M  V30 5747 C 543.88 -4.86756 -2.18871 0
M  V30 5748 O 544.103 -4.58343 -3.39526 0
M  V30 5749 O 543.037 -5.73289 -1.83366 0
M  V30 5750 H 546.863 -3.03594 0.0802707 0
M  V30 5751 H 544.448 -1.4903 0.105141 0
M  V30 5752 H 546.33 -3.51427 -2.32544 0
M  V30 5753 H 545.005 -2.32035 -2.25703 0
M  V30 5754 H 543.912 -3.71857 -0.409067 0
M  V30 5755 H 545.245 -4.89029 -0.557771 0
M  V30 5756 N 546.897 -0.0685191 -1.57451 0
M  V30 5757 C 548.144 0.601348 -1.93365 0
M  V30 5758 C 548.472 1.69816 -0.948294 0
M  V30 5759 O 547.727 1.95666 0.0366199 0
M  V30 5760 C 548.026 1.22051 -3.35914 0
M  V30 5761 C 547.692 0.250165 -4.50205 0
M  V30 5762 C 546.354 -0.0167954 -4.81197 0
M  V30 5763 C 548.706 -0.413867 -5.19554 0
M  V30 5764 C 546.034 -0.95493 -5.78876 0
M  V30 5765 C 548.386 -1.3403 -6.18238 0
M  V30 5766 C 547.05 -1.61576 -6.47649 0
M  V30 5767 H 546.32 0.220049 -0.707573 0
M  V30 5768 H 548.967 -0.138697 -1.90997 0
M  V30 5769 H 547.272 2.03622 -3.34732 0
M  V30 5770 H 548.969 1.74605 -3.6099 0
M  V30 5771 H 545.559 0.468421 -4.26033 0
M  V30 5772 H 549.743 -0.220733 -4.95809 0
M  V30 5773 H 544.999 -1.17563 -5.99991 0
M  V30 5774 H 549.173 -1.86081 -6.71079 0
M  V30 5775 H 546.8 -2.34431 -7.2315 0
M  V30 5776 N 548.375 1.56261 0.205012 0
M  V30 5777 C 549.307 1.90266 1.27795 0
M  V30 5778 C 550.32 0.792397 1.42214 0
M  V30 5779 O 551.509 1.07077 1.42817 0
M  V30 5780 C 548.609 2.11074 2.65143 0
M  V30 5781 C 547.782 3.42176 2.7246 0
M  V30 5782 C 546.841 3.52216 3.90936 0
M  V30 5783 O 545.867 4.25119 3.78501 0
M  V30 5784 N 547.069 2.84573 5.05963 0
M  V30 5785 H 549.834 2.82896 0.989434 0
M  V30 5786 H 547.395 1.57008 0.394981 0
M  V30 5787 H 549.387 2.15089 3.4281 0
M  V30 5788 H 547.957 1.2499 2.86524 0
M  V30 5789 H 547.177 3.50116 1.81142 0
M  V30 5790 H 548.465 4.28509 2.74331 0
M  V30 5791 H 547.863 2.25152 5.18963 0
M  V30 5792 H 546.42 2.94228 5.81613 0
M  V30 5793 N 549.853 -0.472356 1.50355 0
M  V30 5794 C 550.803 -1.56809 1.65514 0
M  V30 5795 C 551.787 -1.5261 0.509801 0
M  V30 5796 O 552.979 -1.59655 0.764145 0
M  V30 5797 C 550.108 -2.9526 1.75146 0
M  V30 5798 C 549.194 -3.04348 2.95353 0
M  V30 5799 N 549.585 -2.83253 4.19048 0
M  V30 5800 C 547.883 -3.35482 2.93884 0
M  V30 5801 C 548.584 -2.97273 5.00003 0
M  V30 5802 N 547.56 -3.27418 4.33934 0
M  V30 5803 H 551.362 -1.39197 2.58846 0
M  V30 5804 H 548.876 -0.67906 1.47521 0
M  V30 5805 H 550.873 -3.74044 1.8411 0
M  V30 5806 H 549.533 -3.1392 0.829717 0
M  V30 5807 H 550.544 -2.5886 4.48567 0
M  V30 5808 H 547.221 -3.60138 2.11204 0
M  V30 5809 H 548.611 -2.85214 6.08361 0
M  V30 5810 N 551.331 -1.39911 -0.725443 0
M  V30 5811 C 552.577 -1.37858 -1.48738 0
M  V30 5812 C 552.91 0.0224187 -1.94187 0
M  V30 5813 O 552.185 0.989204 -1.67466 0
M  V30 5814 C 552.468 -2.3594 -2.72038 0
M  V30 5815 C 552.321 -3.85023 -2.32546 0
M  V30 5816 C 553.64 -2.31704 -3.74167 0
M  V30 5817 H 550.759 -0.502074 -0.539528 0
M  V30 5818 H 553.401 -1.70974 -0.828728 0
M  V30 5819 H 551.551 -2.0783 -3.28236 0
M  V30 5820 H 553.223 -4.2392 -1.81905 0
M  V30 5821 H 551.466 -4.01334 -1.64661 0
M  V30 5822 H 552.137 -4.49152 -3.20884 0
M  V30 5823 H 554.613 -2.5658 -3.27576 0
M  V30 5824 H 553.489 -3.02395 -4.58092 0
M  V30 5825 H 553.75 -1.3253 -4.21768 0
M  V30 5826 N 552.809 0.956637 -1.25245 0
M  V30 5827 C 554.086 1.67716 -1.00651 0
M  V30 5828 C 554.466 2.0585 0.467866 0
M  V30 5829 O 553.814 1.77029 1.44475 0
M  V30 5830 C 554.024 2.90093 -1.94028 0
M  V30 5831 C 555.372 3.6209 -2.21756 0
M  V30 5832 O 556.396 3.00171 -1.9177 0
M  V30 5833 O 555.255 4.7358 -2.72735 0
M  V30 5834 H 552.349 0.733731 -0.381533 0
M  V30 5835 H 554.895 1.00974 -1.3639 0
M  V30 5836 H 553.667 2.58689 -2.93591 0
M  V30 5837 H 553.29 3.64566 -1.58674 0
M  V30 5838 N 554.287 1.06798 1.15896 0
M  V30 5839 C 555.234 0.683314 2.20453 0
M  V30 5840 C 556.204 -0.32255 1.62938 0
M  V30 5841 O 557.389 -0.210276 1.89638 0
M  V30 5842 C 554.529 0.0813266 3.45004 0
M  V30 5843 C 553.642 1.13799 4.16742 0
M  V30 5844 C 552.777 0.501598 5.28826 0
M  V30 5845 C 551.816 1.54144 5.92373 0
M  V30 5846 N 550.953 0.928038 6.9594 0
M  V30 5847 H 555.793 1.57932 2.52708 0
M  V30 5848 H 553.33 0.789544 1.24115 0
M  V30 5849 H 555.288 -0.285274 4.16224 0
M  V30 5850 H 553.918 -0.77806 3.13283 0
M  V30 5851 H 552.97 1.62223 3.44075 0
M  V30 5852 H 554.282 1.92664 4.60089 0
M  V30 5853 H 553.436 0.0823162 6.06644 0
M  V30 5854 H 552.175 -0.318883 4.86656 0
M  V30 5855 H 551.18 1.97056 5.13273 0
M  V30 5856 H 552.405 2.3641 6.36621 0
M  V30 5857 H 550.351 0.12836 6.55874 0
M  V30 5858 H 550.268 1.65401 7.37685 0
M  V30 5859 H 551.536 0.534071 7.77668 0
M  V30 5860 N 555.766 -1.3263 0.851289 0
M  V30 5861 C 556.996 -2.01271 0.466222 0
M  V30 5862 C 557.404 -1.64156 -0.940714 0
M  V30 5863 O 556.747 -0.857109 -1.62479 0
M  V30 5864 C 556.809 -3.55695 0.521672 0
M  V30 5865 C 556.473 -4.16227 1.88691 0
M  V30 5866 C 557.47 -4.34699 2.85189 0
M  V30 5867 C 555.155 -4.52377 2.18313 0
M  V30 5868 C 557.149 -4.88484 4.09465 0
M  V30 5869 C 554.836 -5.05868 3.42843 0
M  V30 5870 C 555.834 -5.23869 4.38235 0
M  V30 5871 O 555.522 -5.76218 5.6056 0
M  V30 5872 H 555.254 -0.651034 0.18202 0
M  V30 5873 H 557.808 -1.7026 1.14894 0
M  V30 5874 H 556.038 -3.86086 -0.217888 0
M  V30 5875 H 557.727 -4.05613 0.152682 0
M  V30 5876 H 558.493 -4.07107 2.63607 0
M  V30 5877 H 554.372 -4.37652 1.44851 0
M  V30 5878 H 557.916 -5.02451 4.83931 0
M  V30 5879 H 553.813 -5.32891 3.64277 0
M  V30 5880 H 554.581 -5.94616 5.62471 0
M  V30 5881 N 557.244 -0.608902 -1.45362 0
M  V30 5882 C 558.49 -0.104762 -2.02529 0
M  V30 5883 C 558.823 1.26191 -1.47613 0
M  V30 5884 O 558.098 1.8327 -0.65134 0
M  V30 5885 C 558.381 -0.0672661 -3.60037 0
M  V30 5886 C 558.234 -1.4647 -4.25284 0
M  V30 5887 C 559.553 0.619877 -4.35713 0
M  V30 5888 H 556.672 -0.0395438 -0.735938 0
M  V30 5889 H 559.314 -0.781126 -1.73201 0
M  V30 5890 H 557.464 0.50871 -3.85155 0
M  V30 5891 H 559.136 -2.08785 -4.11347 0
M  V30 5892 H 557.379 -2.02502 -3.83634 0
M  V30 5893 H 558.05 -1.39069 -5.34195 0
M  V30 5894 H 560.526 0.130297 -4.15896 0
M  V30 5895 H 559.402 0.615224 -5.45441 0
M  V30 5896 H 559.663 1.68621 -4.0868 0
M  V30 5897 N 558.722 1.53707 -0.348139 0
M  V30 5898 C 559.652 2.28111 0.498766 0
M  V30 5899 C 560.633 1.29851 1.09876 0
M  V30 5900 O 561.818 1.587 1.11928 0
M  V30 5901 C 558.948 3.05735 1.64753 0
M  V30 5902 C 557.902 4.11537 1.17565 0
M  V30 5903 C 557.228 4.77142 2.4133 0
M  V30 5904 C 558.528 5.21587 0.272844 0
M  V30 5905 H 560.222 2.99152 -0.121934 0
M  V30 5906 H 557.768 1.43875 -0.0600842 0
M  V30 5907 H 559.721 3.56526 2.24649 0
M  V30 5908 H 558.445 2.32354 2.2952 0
M  V30 5909 H 557.104 3.61665 0.599483 0
M  V30 5910 H 556.752 4.0035 3.04514 0
M  V30 5911 H 556.452 5.48626 2.10436 0
M  V30 5912 H 557.976 5.30719 3.01943 0
M  V30 5913 H 559.39 5.67986 0.778779 0
M  V30 5914 H 557.787 6.00074 0.0555849 0
M  V30 5915 H 558.857 4.79969 -0.689785 0
M  V30 5916 N 560.2 0.0768682 1.57412 0
M  V30 5917 C 561.477 -0.632359 1.85096 0
M  V30 5918 C 561.857 -1.87479 0.9703 0
M  V30 5919 O 561.205 -2.28469 0.0379062 0
M  V30 5920 C 561.415 -0.965174 3.35388 0
M  V30 5921 C 562.763 -1.33648 4.03018 0
M  V30 5922 O 563.787 -1.05675 3.40164 0
M  V30 5923 O 562.646 -1.85959 5.13889 0
M  V30 5924 H 559.74 -0.314574 0.764835 0
M  V30 5925 H 562.286 0.108184 1.69355 0
M  V30 5926 H 561.058 -0.0829745 3.91212 0
M  V30 5927 H 560.681 -1.76231 3.5641 0
M  V30 5928 N 561.678 -1.56367 -0.196722 0
M  V30 5929 C 562.626 -1.95304 -1.2633 0
M  V30 5930 C 563.62 -0.838252 -1.47206 0
M  V30 5931 O 564.826 -1.02325 -1.48087 0
M  V30 5932 H 561.201 -0.621013 -0.424083 0
M  V30 5933 H 563.172 -2.84254 -0.907879 0
M  V30 5934 C 561.921 -2.3074 -2.60104 0
M  V30 5935 H 561.244 -3.16047 -2.44856 0
M  V30 5936 H 562.684 -2.61849 -3.33484 0
M  V30 5937 C 561.143 -1.14143 -3.16975 0
M  V30 5938 O 561.673 -0.415602 -3.99544 0
M  V30 5939 N 559.879 -0.91867 -2.75697 0
M  V30 5940 H 559.426 -1.51065 -2.08656 0
M  V30 5941 H 559.384 -0.140321 -3.14087 0
M  V30 5942 N 563.156 0.464375 -1.50603 0
M  V30 5943 C 564.404 1.21356 -1.61608 0
M  V30 5944 C 564.725 1.92329 -0.321643 0
M  V30 5945 O 563.995 1.84403 0.661232 0
M  V30 5946 H 562.575 0.45094 -0.595535 0
M  V30 5947 H 565.237 0.535046 -1.87412 0
M  V30 5948 H 564.333 1.95783 -2.43054 0
M  V30 5949 N 564.634 1.40294 0.718013 0
M  V30 5950 C 565.566 1.36281 1.84283 0
M  V30 5951 C 566.579 0.268621 1.60569 0
M  V30 5952 O 567.768 0.528798 1.70487 0
M  V30 5953 C 564.868 1.09741 3.2064 0
M  V30 5954 C 564.041 2.30767 3.71571 0
M  V30 5955 C 563.1 2.00424 4.86535 0
M  V30 5956 O 562.126 2.73268 4.99313 0
M  V30 5957 N 563.328 0.980724 5.72156 0
M  V30 5958 H 566.093 2.3322 1.88225 0
M  V30 5959 H 563.654 1.34616 0.899453 0
M  V30 5960 H 565.646 0.874322 3.95143 0
M  V30 5961 H 564.216 0.214771 3.11861 0
M  V30 5962 H 563.436 2.68921 2.88228 0
M  V30 5963 H 564.724 3.11455 4.02335 0
M  V30 5964 H 564.122 0.377375 5.6444 0
M  V30 5965 H 562.679 0.817538 6.46653 0
M  V30 5966 N 566.112 -0.949982 1.2575 0
M  V30 5967 C 567.36 -1.6918 1.10555 0
M  V30 5968 C 567.681 -1.91773 -0.353298 0
M  V30 5969 O 566.951 -1.50814 -1.25027 0
M  V30 5970 H 565.531 -0.626952 0.406129 0
M  V30 5971 H 568.193 -1.1419 1.57945 0
M  V30 5972 H 567.289 -2.66915 1.61749 0
M  V30 5973 N 567.59 -1.07411 -1.15328 0
M  V30 5974 C 568.838 -0.796073 -1.85761 0
M  V30 5975 C 569.159 0.679864 -1.82764 0
M  V30 5976 O 568.429 1.49242 -1.269 0
M  V30 5977 H 567.009 -0.291495 -0.687779 0
M  V30 5978 H 569.671 -1.35799 -1.39802 0
M  V30 5979 H 568.767 -1.13114 -2.90881 0
M  V30 5980 N 569.068 1.32177 -0.85831 0
M  V30 5981 C 570.293 2.01847 -0.476718 0
M  V30 5982 C 570.718 1.64065 0.920021 0
M  V30 5983 O 570.076 0.843189 1.60499 0
M  V30 5984 C 570.124 3.55097 -0.627578 0
M  V30 5985 O 569.228 4.11012 0.338086 0
M  V30 5986 H 568.569 0.635907 -0.191099 0
M  V30 5987 H 571.099 1.68641 -1.15851 0
M  V30 5988 H 571.109 4.04718 -0.516476 0
M  V30 5989 H 569.784 3.81938 -1.64609 0
M  V30 5990 H 568.361 3.72451 0.182917 0
M  V30 5991 N 570.547 0.616602 1.45037 0
M  V30 5992 C 571.795 0.115103 2.01772 0
M  V30 5993 C 572.116 -1.2622 1.48639 0
M  V30 5994 O 571.386 -1.83563 0.684199 0
M  V30 5995 H 569.966 0.0395607 0.745952 0
M  V30 5996 H 572.628 0.800032 1.77723 0
M  V30 5997 H 571.724 0.0717274 3.12018 0
M  V30 5998 N 572.025 -1.5352 0.356285 0
M  V30 5999 C 572.957 -2.23009 -0.529127 0
M  V30 6000 C 573.97 -1.241 -1.05371 0
M  V30 6001 O 575.159 -1.50379 -0.961679 0
M  V30 6002 C 572.259 -2.90685 -1.74229 0
M  V30 6003 C 571.432 -4.16019 -1.35081 0
M  V30 6004 C 570.491 -4.66989 -2.42502 0
M  V30 6005 O 569.517 -5.30895 -2.05279 0
M  V30 6006 N 570.719 -4.44006 -3.7395 0
M  V30 6007 H 573.484 -2.99627 0.0660501 0
M  V30 6008 H 571.045 -1.60885 0.181014 0
M  V30 6009 H 573.037 -3.21695 -2.4555 0
M  V30 6010 H 571.607 -2.17575 -2.24454 0
M  V30 6011 H 570.827 -3.91414 -0.467833 0
M  V30 6012 H 572.115 -4.9752 -1.06542 0
M  V30 6013 H 571.513 -3.92924 -4.06973 0
M  V30 6014 H 570.07 -4.7959 -4.41403 0
M  V30 6015 N 573.503 -0.0852151 -1.57369 0
M  V30 6016 C 574.919 0.271436 -1.57275 0
M  V30 6017 C 575.119 1.69109 -1.09565 0
M  V30 6018 O 574.175 2.40549 -0.767611 0
M  V30 6019 C 575.488 0.0688638 -3.00621 0
M  V30 6020 C 577.036 0.137373 -3.12698 0
M  V30 6021 C 577.511 -0.0370832 -4.57985 0
M  V30 6022 N 579.002 0.0180794 -4.63196 0
M  V30 6023 C 579.737 -0.0922953 -5.73326 0
M  V30 6024 N 579.233 -0.256948 -6.92323 0
M  V30 6025 N 581.026 -0.0342702 -5.6209 0
M  V30 6026 H 573.177 -1.01288 -1.86693 0
M  V30 6027 H 575.44 -0.396138 -0.861266 0
M  V30 6028 H 575.146 -0.911277 -3.39689 0
M  V30 6029 H 575.02 0.815442 -3.6828 0
M  V30 6030 H 577.407 1.10801 -2.73509 0
M  V30 6031 H 577.488 -0.640532 -2.47651 0
M  V30 6032 H 577.132 -1.00455 -4.97867 0
M  V30 6033 H 577.062 0.760392 -5.21081 0
M  V30 6034 H 579.553 0.143202 -3.77629 0
M  V30 6035 H 579.866 -0.332949 -7.72082 0
M  V30 6036 H 578.211 -0.292487 -6.94384 0
M  V30 6037 H 581.402 0.0931605 -4.68007 0
M  V30 6038 H 581.575 -0.12374 -6.47882 0
M  V30 6039 N 574.981 1.5647 0.188427 0
M  V30 6040 C 576.228 1.81013 0.907779 0
M  V30 6041 C 576.556 0.65953 1.82977 0
M  V30 6042 O 575.811 -0.354308 1.92466 0
M  V30 6043 C 576.11 3.11596 1.7505 0
M  V30 6044 C 575.776 4.40145 0.978922 0
M  V30 6045 C 574.438 4.75066 0.765912 0
M  V30 6046 C 576.79 5.19369 0.436498 0
M  V30 6047 C 574.118 5.867 -0.00089868 0
M  V30 6048 C 576.47 6.31805 -0.317136 0
M  V30 6049 C 575.134 6.65303 -0.541103 0
M  V30 6050 H 574.404 0.662373 0.33218 0
M  V30 6051 H 577.051 1.9071 0.173732 0
M  V30 6052 H 575.356 2.97165 2.55343 0
M  V30 6053 H 577.053 3.27793 2.30983 0
M  V30 6054 H 573.643 4.12745 1.15497 0
M  V30 6055 H 577.827 4.92799 0.588449 0
M  V30 6056 H 573.083 6.11122 -0.184329 0
M  V30 6057 H 577.257 6.92406 -0.744788 0
M  V30 6058 H 574.884 7.51646 -1.13718 0
M  V30 6059 N 576.459 -0.456382 1.50847 0
M  V30 6060 C 577.736 -1.21739 1.53098 0
M  V30 6061 C 578.116 -2.09179 0.284132 0
M  V30 6062 O 577.464 -2.16466 -0.731773 0
M  V30 6063 C 577.674 -2.03573 2.83477 0
M  V30 6064 C 579.022 -2.61264 3.34703 0
M  V30 6065 O 580.046 -2.13802 2.84898 0
M  V30 6066 O 578.905 -3.47779 4.21559 0
M  V30 6067 H 575.999 -0.553219 0.614718 0
M  V30 6068 H 578.545 -0.467003 1.63148 0
M  V30 6069 H 577.317 -1.39232 3.65691 0
M  V30 6070 H 576.94 -2.85716 2.76499 0
M  V30 6071 N 577.937 -1.40673 -0.710563 0
M  V30 6072 C 579.183 -1.4043 -1.47142 0
M  V30 6073 C 579.538 -0.00781557 -1.92398 0
M  V30 6074 O 578.831 0.963535 -1.6561 0
M  V30 6075 C 579.025 -2.33253 -2.70791 0
M  V30 6076 C 578.854 -3.81789 -2.37629 0
M  V30 6077 C 577.624 -4.5057 -2.28724 0
M  V30 6078 C 579.822 -4.73152 -2.01572 0
M  V30 6079 N 577.804 -5.84312 -1.88289 0
M  V30 6080 C 579.175 -5.95728 -1.71778 0
M  V30 6081 C 581.23 -4.6094 -1.88252 0
M  V30 6082 C 579.933 -7.07454 -1.30003 0
M  V30 6083 C 581.959 -5.72613 -1.47881 0
M  V30 6084 C 581.321 -6.94278 -1.18987 0
M  V30 6085 H 577.42 -0.569115 -0.536314 0
M  V30 6086 H 580.004 -1.76425 -0.823547 0
M  V30 6087 H 578.175 -1.99378 -3.33321 0
M  V30 6088 H 579.907 -2.23833 -3.37166 0
M  V30 6089 H 576.662 -4.04315 -2.46629 0
M  V30 6090 H 577.086 -6.55153 -1.70596 0
M  V30 6091 H 581.728 -3.67389 -2.09249 0
M  V30 6092 H 579.446 -8.00884 -1.07749 0
M  V30 6093 H 583.032 -5.65161 -1.38145 0
M  V30 6094 H 581.912 -7.79222 -0.88219 0
M  V30 6095 N 579.415 0.9433 -1.26252 0
M  V30 6096 C 580.64 1.72898 -1.14547 0
M  V30 6097 C 581.065 1.85761 0.295743 0
M  V30 6098 O 580.423 1.3463 1.21427 0
M  V30 6099 C 580.471 3.11471 -1.8171 0
M  V30 6100 O 579.575 3.97336 -1.10445 0
M  V30 6101 H 578.916 0.530555 -0.399259 0
M  V30 6102 H 581.446 1.18159 -1.67032 0
M  V30 6103 H 581.456 3.61872 -1.88449 0
M  V30 6104 H 580.131 3.01425 -2.86558 0
M  V30 6105 H 578.708 3.55788 -1.11666 0
M  V30 6106 N 580.893 1.08022 1.14757 0
M  V30 6107 C 581.823 0.728248 2.21853 0
M  V30 6108 C 582.804 -0.287486 1.67653 0
M  V30 6109 O 583.989 -0.158727 1.9355 0
M  V30 6110 C 581.119 0.132549 3.47047 0
M  V30 6111 C 580.073 1.07619 4.14249 0
M  V30 6112 C 579.399 0.342907 5.33599 0
M  V30 6113 C 580.699 2.41268 4.63235 0
M  V30 6114 H 582.393 1.62365 2.51551 0
M  V30 6115 H 579.939 0.782125 1.20908 0
M  V30 6116 H 581.892 -0.125665 4.21213 0
M  V30 6117 H 580.616 -0.797971 3.16702 0
M  V30 6118 H 579.275 1.31944 3.42033 0
M  V30 6119 H 578.923 -0.59129 4.99513 0
M  V30 6120 H 578.623 0.971955 5.79506 0
M  V30 6121 H 580.147 0.0926538 6.1053 0
M  V30 6122 H 581.561 2.21232 5.28894 0
M  V30 6123 H 579.958 2.9983 5.19829 0
M  V30 6124 H 581.028 3.03079 3.78512 0
M  V30 6125 N 582.371 -1.3172 0.865308 0
M  V30 6126 C 583.301 -2.31109 0.333302 0
M  V30 6127 C 584.282 -1.60148 -0.573301 0
M  V30 6128 O 585.467 -1.87882 -0.491305 0
M  V30 6129 C 582.597 -3.44104 -0.470078 0
M  V30 6130 C 581.551 -4.26623 0.343021 0
M  V30 6131 C 580.877 -5.31482 -0.585756 0
M  V30 6132 C 582.177 -4.98001 1.57456 0
M  V30 6133 H 583.871 -2.75855 1.1638 0
M  V30 6134 H 581.417 -1.3262 0.561069 0
M  V30 6135 H 583.37 -4.12682 -0.852752 0
M  V30 6136 H 582.094 -2.98112 -1.33404 0
M  V30 6137 H 580.753 -3.59707 0.707583 0
M  V30 6138 H 580.401 -4.81741 -1.44686 0
M  V30 6139 H 580.101 -5.87582 -0.0456494 0
M  V30 6140 H 581.625 -6.0292 -0.965375 0
M  V30 6141 H 583.039 -5.59201 1.26359 0
M  V30 6142 H 581.436 -5.63876 2.05339 0
M  V30 6143 H 582.506 -4.25253 2.32997 0
M  V30 6144 N 583.85 -0.624285 -1.44708 0
M  V30 6145 C 584.798 0.0969952 -2.32398 0
M  V30 6146 C 585.792 0.842762 -1.46949 0
M  V30 6147 O 586.998 0.756436 -1.63334 0
M  V30 6148 H 583.373 0.0501306 -0.750327 0
M  V30 6149 H 585.344 -0.660767 -2.90992 0
M  V30 6150 C 584.093 1.06967 -3.30837 0
M  V30 6151 H 583.416 0.505242 -3.96595 0
M  V30 6152 H 584.856 1.54397 -3.94889 0
M  V30 6153 C 583.315 2.15153 -2.5925 0
M  V30 6154 O 583.845 3.23139 -2.3863 0
M  V30 6155 N 582.051 1.90898 -2.19103 0
M  V30 6156 H 581.598 1.03086 -2.36074 0
M  V30 6157 H 581.556 2.63485 -1.71531 0
M  V30 6158 N 585.328 1.53329 -0.364422 0
M  V30 6159 C 586.576 2.00842 0.225189 0
M  V30 6160 C 586.897 1.25345 1.49378 0
M  V30 6161 O 586.167 0.366396 1.92443 0
M  V30 6162 H 584.747 0.742009 0.0862027 0
M  V30 6163 H 587.409 1.8863 -0.490389 0
M  V30 6164 H 586.505 3.08795 0.452987 0
M  V30 6165 N 586.806 0.0935595 1.57322 0
M  V30 6166 C 587.738 -0.895923 2.10964 0
M  V30 6167 C 588.751 -1.24705 1.04654 0
M  V30 6168 O 589.94 -1.20044 1.32105 0
M  V30 6169 C 587.04 -2.20546 2.57318 0
M  V30 6170 C 586.213 -2.0299 3.87445 0
M  V30 6171 C 585.272 -3.17443 4.19662 0
M  V30 6172 O 584.298 -2.91474 4.88909 0
M  V30 6173 N 585.5 -4.43168 3.74943 0
M  V30 6174 H 588.265 -0.437788 2.96485 0
M  V30 6175 H 585.826 -0.0915863 1.61641 0
M  V30 6176 H 587.818 -2.9606 2.75917 0
M  V30 6177 H 586.388 -2.57789 1.76816 0
M  V30 6178 H 585.608 -1.11815 3.78009 0
M  V30 6179 H 586.896 -1.88535 4.7258 0
M  V30 6180 H 586.294 -4.67149 3.19043 0
M  V30 6181 H 584.851 -5.15637 3.987 0
M  V30 6182 N 588.284 -1.56567 -0.180126 0
M  V30 6183 C 589.509 -1.85975 -0.918041 0
M  V30 6184 C 589.934 -0.678888 -1.75422 0
M  V30 6185 O 589.292 0.372168 -1.77439 0
M  V30 6186 C 589.34 -3.13731 -1.77779 0
M  V30 6187 O 588.444 -2.95335 -2.87838 0
M  V30 6188 H 587.785 -0.61196 -0.257683 0
M  V30 6189 H 590.315 -2.03798 -0.180923 0
M  V30 6190 H 590.325 -3.4491 -2.17948 0
M  V30 6191 H 589 -3.99293 -1.16352 0
M  V30 6192 H 587.577 -2.7549 -2.51316 0
M  V30 6193 N 589.762 0.448376 -1.51087 0
M  V30 6194 C 590.692 1.55102 -1.74544 0
M  V30 6195 C 591.673 1.59357 -0.594932 0
M  V30 6196 O 592.858 1.75261 -0.836491 0
M  V30 6197 C 589.988 2.93268 -1.86041 0
M  V30 6198 C 588.942 3.03877 -3.01402 0
M  V30 6199 C 588.268 4.43914 -2.98068 0
M  V30 6200 C 589.568 2.7898 -4.41551 0
M  V30 6201 H 591.262 1.35724 -2.66869 0
M  V30 6202 H 588.808 0.651498 -1.28419 0
M  V30 6203 H 590.761 3.70356 -2.01034 0
M  V30 6204 H 589.485 3.13853 -0.903548 0
M  V30 6205 H 588.144 2.29227 -2.86096 0
M  V30 6206 H 587.792 4.6145 -2.00182 0
M  V30 6207 H 587.492 4.51944 -3.75527 0
M  V30 6208 H 589.016 5.22991 -3.1514 0
M  V30 6209 H 590.43 3.45805 -4.57265 0
M  V30 6210 H 588.827 2.98431 -5.20633 0
M  V30 6211 H 589.897 1.74663 -4.5235 0
M  V30 6212 N 591.24 1.41047 0.703093 0
M  V30 6213 C 592.488 1.39723 1.4602 0
M  V30 6214 C 592.809 0.00461257 1.94999 0
M  V30 6215 O 592.079 -0.952292 1.71196 0
M  V30 6216 H 590.659 0.514281 0.541779 0
M  V30 6217 H 593.321 1.76217 0.832678 0
M  V30 6218 H 592.417 2.07982 2.32701 0
M  V30 6219 N 592.718 -0.936591 1.26751 0
M  V30 6220 C 593.666 -2.0573 1.08527 0
M  V30 6221 C 594.66 -1.69397 0.0108784 0
M  V30 6222 O 595.866 -1.79215 0.167915 0
M  V30 6223 H 592.241 -0.673691 0.334133 0
M  V30 6224 H 594.212 -2.1825 2.03493 0
M  V30 6225 C 592.961 -3.39738 0.739845 0
M  V30 6226 H 592.284 -3.68174 1.55845 0
M  V30 6227 H 593.724 -4.18955 0.652149 0
M  V30 6228 C 592.183 -3.32292 -0.555288 0
M  V30 6229 O 592.713 -3.68794 -1.59229 0
M  V30 6230 N 590.919 -2.85394 -0.54762 0
M  V30 6231 H 590.466 -2.55886 0.296667 0
M  V30 6232 H 590.424 -2.80795 -1.41427 0
M  V30 6233 N 594.196 -1.08629 -1.14182 0
M  V30 6234 C 595.442 -0.818556 -1.85546 0
M  V30 6235 C 595.775 0.654076 -1.82854 0
M  V30 6236 O 595.05 1.48099 -1.26083 0
M  V30 6237 C 595.333 -1.34397 -3.3408 0
M  V30 6238 C 595.186 -2.8821 -3.45333 0
M  V30 6239 C 596.505 -0.971069 -4.29253 0
M  V30 6240 H 593.624 -0.298821 -0.673702 0
M  V30 6241 H 596.266 -1.34629 -1.34071 0
M  V30 6242 H 594.416 -0.895064 -3.78049 0
M  V30 6243 H 596.088 -3.41488 -3.10134 0
M  V30 6244 H 594.331 -3.25756 -2.86471 0
M  V30 6245 H 595.002 -3.20047 -4.49749 0
M  V30 6246 H 597.478 -1.35809 -3.93313 0
M  V30 6247 H 596.354 -1.36586 -5.31635 0
M  V30 6248 H 596.615 0.121659 -4.41933 0
M  V30 6249 N 595.674 1.31259 -0.872281 0
M  V30 6250 C 596.604 2.30929 -0.345554 0
M  V30 6251 C 597.585 1.60449 0.5648 0
M  V30 6252 O 598.77 1.8814 0.481335 0
M  V30 6253 C 595.9 3.44348 0.451823 0
M  V30 6254 C 594.854 4.26435 -0.365641 0
M  V30 6255 C 594.18 5.31785 0.557562 0
M  V30 6256 C 595.48 4.97159 -1.60095 0
M  V30 6257 H 597.174 2.75234 -1.17841 0
M  V30 6258 H 594.72 1.3232 -0.568094 0
M  V30 6259 H 596.673 4.13128 0.830854 0
M  V30 6260 H 595.397 2.98816 1.31821 0
M  V30 6261 H 594.056 3.59326 -0.726649 0
M  V30 6262 H 593.704 4.82502 1.4213 0
M  V30 6263 H 593.404 5.87598 0.0144878 0
M  V30 6264 H 594.928 6.03424 0.933387 0
M  V30 6265 H 596.342 5.58523 -1.29323 0
M  V30 6266 H 594.739 5.62779 -2.08327 0
M  V30 6267 H 595.809 4.24012 -2.35249 0
M  V30 6268 N 597.152 0.631951 1.44375 0
M  V30 6269 C 598.082 -0.0593243 2.33425 0
M  V30 6270 C 599.063 -0.833964 1.48253 0
M  V30 6271 O 600.248 -0.799682 1.76971 0
M  V30 6272 C 597.378 -1.04096 3.31333 0
M  V30 6273 C 596.332 -0.377899 4.26328 0
M  V30 6274 C 595.658 -1.4695 5.14111 0
M  V30 6275 C 596.958 0.716371 5.17364 0
M  V30 6276 H 598.652 0.684287 2.91475 0
M  V30 6277 H 596.198 0.330518 1.40156 0
M  V30 6278 H 598.151 -1.53331 3.92514 0
M  V30 6279 H 596.875 -1.81547 2.71493 0
M  V30 6280 H 595.534 0.0938054 3.6648 0
M  V30 6281 H 595.182 -2.2349 4.50623 0
M  V30 6282 H 594.882 -1.03121 5.78481 0
M  V30 6283 H 596.406 -1.96363 5.78164 0
M  V30 6284 H 597.82 0.307089 5.72477 0
M  V30 6285 H 596.217 1.07784 5.90341 0
M  V30 6286 H 597.287 1.58316 4.58327 0
M  V30 6287 N 598.631 -1.53133 0.372548 0
M  V30 6288 C 599.594 -2.24569 -0.458389 0
M  V30 6289 C 600.594 -1.25603 -1.00402 0
M  V30 6290 O 601.784 -1.49827 -0.888672 0
M  V30 6291 C 598.916 -2.98783 -1.6414 0
M  V30 6292 H 600.109 -2.99436 0.166799 0
M  V30 6293 H 597.662 -1.55805 0.124357 0
M  V30 6294 H 598.397 -2.28176 -2.30448 0
M  V30 6295 H 598.182 -3.71404 -1.25704 0
M  V30 6296 H 599.672 -3.53068 -2.23008 0
M  V30 6297 N 600.109 -0.101901 -1.5727 0
M  V30 6298 C 601.357 0.559091 -1.94213 0
M  V30 6299 C 601.678 1.68297 -0.984948 0
M  V30 6300 O 600.948 1.95863 -0.0381975 0
M  V30 6301 H 599.528 0.20952 -0.717015 0
M  V30 6302 H 602.19 -0.166831 -1.94185 0
M  V30 6303 H 601.286 0.96485 -2.96811 0
M  V30 6304 N 601.587 1.56661 0.17182 0
M  V30 6305 C 602.835 1.81606 0.886774 0
M  V30 6306 C 603.156 0.678818 1.82803 0
M  V30 6307 O 602.426 -0.301354 1.93568 0
M  V30 6308 H 601.006 0.669934 0.330451 0
M  V30 6309 H 603.668 1.94142 0.171757 0
M  V30 6310 H 602.764 2.75634 1.46398 0
M  V30 6311 N 603.065 -0.440357 1.51323 0
M  V30 6312 C 603.995 -1.54174 1.75364 0
M  V30 6313 C 604.976 -1.59039 0.603375 0
M  V30 6314 O 606.161 -1.74815 0.845774 0
M  V30 6315 C 603.291 -2.92277 1.87593 0
M  V30 6316 C 602.245 -3.02274 3.03009 0
M  V30 6317 C 601.571 -4.42327 3.00418 0
M  V30 6318 C 602.871 -2.76634 4.43024 0
M  V30 6319 H 604.565 -1.34307 2.67585 0
M  V30 6320 H 602.111 -0.644678 1.28763 0
M  V30 6321 H 604.064 -3.69284 2.02995 0
M  V30 6322 H 602.788 -3.13369 0.920179 0
M  V30 6323 H 601.447 -2.27706 2.87307 0
M  V30 6324 H 601.095 -4.60382 2.02626 0
M  V30 6325 H 600.795 -4.49946 3.77918 0
M  V30 6326 H 602.319 -5.21312 3.17909 0
M  V30 6327 H 603.733 -3.43376 4.59093 0
M  V30 6328 H 602.13 -2.95666 5.22208 0
M  V30 6329 H 603.2 -1.72262 4.5327 0
M  V30 6330 N 604.543 -1.41418 -0.695603 0
M  V30 6331 C 605.791 -1.40496 -1.45277 0
M  V30 6332 C 606.112 -0.0149538 -1.94994 0
M  V30 6333 O 605.382 0.9432 -1.71699 0
M  V30 6334 H 603.962 -0.517147 -0.539044 0
M  V30 6335 H 606.624 -1.76656 -0.823321 0
M  V30 6336 H 605.72 -2.09214 -2.31595 0
M  V30 6337 N 606.021 0.929856 -1.27246 0
M  V30 6338 C 606.984 2.01172 -1.09829 0
M  V30 6339 C 607.984 1.60743 -0.0429687 0
M  V30 6340 O 609.174 1.71813 -0.287373 0
M  V30 6341 C 606.306 3.34191 -0.673003 0
M  V30 6342 H 607.499 2.18054 -2.05895 0
M  V30 6343 H 605.052 1.11036 -1.10003 0
M  V30 6344 H 605.787 3.23009 0.289134 0
M  V30 6345 H 605.572 3.64892 -1.43515 0
M  V30 6346 H 607.062 4.13646 -0.573323 0
M  V30 6347 N 607.499 1.09233 1.13605 0
M  V30 6348 C 608.776 0.739633 1.81077 0
M  V30 6349 C 609.156 -0.775595 1.96336 0
M  V30 6350 O 608.504 -1.69726 1.52988 0
M  V30 6351 C 608.714 1.47636 3.16235 0
M  V30 6352 C 610.062 1.64087 3.91613 0
M  V30 6353 O 611.086 1.43871 3.25852 0
M  V30 6354 O 609.945 1.97511 5.0956 0
M  V30 6355 H 607.039 0.265464 0.783236 0
M  V30 6356 H 609.585 1.19441 1.20549 0
M  V30 6357 H 608.357 2.50818 3.00344 0
M  V30 6358 H 607.98 1.01362 3.84462 0
M  V30 6359 N 608.977 -1.30795 0.87923 0
M  V30 6360 C 609.925 -2.30231 0.331112 0
M  V30 6361 C 610.919 -1.59918 -0.558794 0
M  V30 6362 O 612.125 -1.74441 -0.443866 0
M  V30 6363 H 608.5 -0.746785 0.088409 0
M  V30 6364 H 610.471 -2.73925 1.18353 0
M  V30 6365 C 609.22 -3.44848 -0.444401 0
M  V30 6366 H 608.543 -3.99131 0.231106 0
M  V30 6367 H 609.983 -4.16516 -0.793109 0
M  V30 6368 C 608.442 -2.94329 -1.63926 0
M  V30 6369 O 608.972 -2.93875 -2.73862 0
M  V30 6370 N 607.178 -2.50413 -1.4745 0
M  V30 6371 H 606.725 -2.50982 -0.58015 0
M  V30 6372 H 606.683 -2.16969 -2.27534 0
M  V30 6373 N 610.455 -0.639598 -1.44038 0
M  V30 6374 C 611.695 -0.150902 -2.03842 0
M  V30 6375 C 612.059 1.20744 -1.49281 0
M  V30 6376 O 613.26 1.78875 -2.00642 0
M  V30 6377 C 611.531 -0.146114 -3.57101 0
M  V30 6378 S 613.09 0.276725 -4.37927 0
M  V30 6379 H 609.908 -0.0652447 -0.708 0
M  V30 6380 H 612.51 -0.844886 -1.76301 0
M  V30 6381 H 611.214 -1.13769 -3.94316 0
M  V30 6382 H 610.745 0.568846 -3.89266 0
M  V30 6383 H 612.76 1.51893 -4.7238 0
M  V30 6384 N 611.933 1.52934 -0.380664 0
M  V30 6385 C 613.179 2.01765 0.20458 0
M  V30 6386 C 613.512 1.26696 1.47179 0
M  V30 6387 O 612.787 0.364936 1.91046 0
M  V30 6388 C 613.07 3.56869 0.481269 0
M  V30 6389 C 612.923 4.42617 -0.800629 0
M  V30 6390 C 614.242 4.2121 1.27554 0
M  V30 6391 H 611.361 0.733388 0.0728803 0
M  V30 6392 H 614.003 1.83068 -0.50853 0
M  V30 6393 H 612.153 3.72932 1.08875 0
M  V30 6394 H 613.825 4.38323 -1.43773 0
M  V30 6395 H 612.068 4.09977 -1.4178 0
M  V30 6396 H 612.739 5.49134 -0.561791 0
M  V30 6397 H 615.215 4.09072 0.761514 0
M  V30 6398 H 614.091 5.29732 1.43788 0
M  V30 6399 H 614.352 3.78269 2.28833 0
M  V30 6400 N 613.412 0.11024 1.57214 0
M  V30 6401 C 614.322 -0.857077 2.18383 0
M  V30 6402 C 615.338 -1.29915 1.1575 0
M  V30 6403 O 616.514 -1.36394 1.48184 0
M  V30 6404 C 613.579 -2.09264 2.76423 0
M  V30 6405 C 612.64 -1.70333 3.94063 0
M  V30 6406 C 611.873 -2.87999 4.49324 0
M  V30 6407 O 612.096 -4.0317 4.03497 0
M  V30 6408 O 611.03 -2.6559 5.40135 0
M  V30 6409 H 614.856 -0.366561 3.0148 0
M  V30 6410 H 612.441 -0.114914 1.48957 0
M  V30 6411 H 614.323 -2.81644 3.13456 0
M  V30 6412 H 612.998 -2.57339 1.96363 0
M  V30 6413 H 611.905 -0.950864 3.61814 0
M  V30 6414 H 613.238 -1.27007 4.75531 0
M  V30 6415 N 614.89 -1.56749 -0.16351 0
M  V30 6416 C 615.853 -1.96121 -1.18613 0
M  V30 6417 C 616.853 -0.845765 -1.36761 0
M  V30 6418 O 618.043 -1.11268 -1.34033 0
M  V30 6419 C 615.175 -2.26282 -2.54969 0
M  V30 6420 H 616.368 -2.87639 -0.848764 0
M  V30 6421 H 613.921 -1.50928 -0.406251 0
M  V30 6422 H 614.656 -1.37504 -2.93706 0
M  V30 6423 H 614.441 -3.07595 -2.43162 0
M  V30 6424 H 615.931 -2.57638 -3.28653 0
M  V30 6425 N 616.368 0.432326 -1.51554 0
M  V30 6426 C 617.331 1.50765 -1.72634 0
M  V30 6427 C 618.331 1.49334 -0.596314 0
M  V30 6428 O 619.521 1.51268 -0.863925 0
M  V30 6429 C 616.653 2.90284 -1.7874 0
M  V30 6430 H 617.846 1.33377 -2.68609 0
M  V30 6431 H 615.399 0.661329 -1.4162 0
M  V30 6432 H 616.134 3.13071 -0.845977 0
M  V30 6433 H 615.919 2.92727 -2.6087 0
M  V30 6434 H 617.409 3.68282 -1.96871 0
M  V30 6435 N 617.846 1.41785 0.688094 0
M  V30 6436 C 618.778 1.40159 1.81351 0
M  V30 6437 C 619.791 0.30262 1.59963 0
M  V30 6438 O 620.98 0.564841 1.69327 0
M  V30 6439 C 618.08 1.16517 3.1824 0
M  V30 6440 C 617.253 2.38597 3.66593 0
M  V30 6441 C 616.312 2.10699 4.82174 0
M  V30 6442 O 615.338 2.83798 4.93404 0
M  V30 6443 N 616.54 1.10187 5.69947 0
M  V30 6444 H 619.305 2.3716 1.83236 0
M  V30 6445 H 616.866 1.36494 0.870697 0
M  V30 6446 H 618.858 0.957941 3.93199 0
M  V30 6447 H 617.428 0.280873 3.11336 0
M  V30 6448 H 616.648 2.74974 2.82459 0
M  V30 6449 H 617.936 3.19919 3.95638 0
M  V30 6450 H 617.334 0.497016 5.63512 0
M  V30 6451 H 615.891 0.954518 6.44773 0
M  V30 6452 N 619.324 -0.923095 1.27737 0
M  V30 6453 C 620.552 -1.70525 1.17171 0
M  V30 6454 C 620.967 -1.86847 -0.270881 0
M  V30 6455 O 620.324 -1.38879 -1.18401 0
M  V30 6456 C 620.375 -3.10242 1.85559 0
M  V30 6457 O 620.096 -2.94683 3.24182 0
M  V30 6458 C 621.597 -4.04586 1.81176 0
M  V30 6459 H 618.817 -0.533347 0.407163 0
M  V30 6460 H 621.361 -1.15599 1.68692 0
M  V30 6461 H 619.516 -3.62014 1.3793 0
M  V30 6462 H 619.93 -3.83045 3.58297 0
M  V30 6463 H 621.404 -5.00119 2.33633 0
M  V30 6464 H 621.881 -4.3218 0.782099 0
M  V30 6465 H 622.487 -3.58741 2.2844 0
M  V30 6466 N 620.802 -1.09834 -1.13024 0
M  V30 6467 C 622.05 -0.835297 -1.8403 0
M  V30 6468 C 622.371 0.640944 -1.84165 0
M  V30 6469 O 621.641 1.46517 -1.30037 0
M  V30 6470 H 620.221 -0.306018 -0.681441 0
M  V30 6471 H 622.883 -1.38734 -1.36891 0
M  V30 6472 H 621.979 -1.19258 -2.88416 0
M  V30 6473 N 622.28 1.30327 -0.886154 0
M  V30 6474 C 623.52 1.97886 -0.511912 0
M  V30 6475 C 623.884 1.68417 0.921944 0
M  V30 6476 O 625.085 2.29319 1.40237 0
M  V30 6477 C 623.356 3.48775 -0.780444 0
M  V30 6478 S 624.915 4.35844 -0.508482 0
M  V30 6479 H 621.733 0.685024 -0.190428 0
M  V30 6480 H 624.335 1.58413 -1.14567 0
M  V30 6481 H 623.039 3.67714 -1.82248 0
M  V30 6482 H 622.57 3.93171 -0.134284 0
M  V30 6483 H 624.585 4.91893 0.65239 0
M  V30 6484 N 623.758 0.647228 1.43697 0
M  V30 6485 C 624.721 -0.0385101 2.29168 0
M  V30 6486 C 625.721 -0.756487 1.41894 0
M  V30 6487 O 626.911 -0.598641 1.63591 0
M  V30 6488 C 624.043 -1.06524 3.23829 0
M  V30 6489 H 625.236 0.713445 2.9129 0
M  V30 6490 H 622.789 0.408153 1.50877 0
M  V30 6491 H 623.524 -1.84664 2.66589 0
M  V30 6492 H 623.309 -0.554147 3.88164 0
M  V30 6493 H 624.799 -1.54432 3.87996 0
M  V30 6494 N 625.236 -1.5273 0.388769 0
M  V30 6495 C 626.484 -2.01174 -0.193208 0
M  V30 6496 C 626.805 -1.27705 -1.47365 0
M  V30 6497 O 626.075 -0.396966 -1.91836 0
M  V30 6498 H 624.655 -0.743287 -0.0743871 0
M  V30 6499 H 627.317 -1.87826 0.520336 0
M  V30 6500 H 626.413 -3.09477 -0.403803 0
M  V30 6501 N 626.714 -0.118576 -1.57153 0
M  V30 6502 C 627.644 0.828436 -2.1831 0
M  V30 6503 C 628.625 1.27758 -1.12303 0
M  V30 6504 O 629.81 1.34026 -1.40537 0
M  V30 6505 C 626.94 2.07876 -2.78217 0
M  V30 6506 C 625.894 1.76742 -3.89803 0
M  V30 6507 C 625.22 3.08801 -4.36516 0
M  V30 6508 C 626.52 1.03606 -5.11921 0
M  V30 6509 H 628.214 0.318824 -2.97698 0
M  V30 6510 H 625.76 0.151911 -1.43196 0
M  V30 6511 H 627.713 2.74584 -3.19659 0
M  V30 6512 H 626.437 2.61161 -1.96118 0
M  V30 6513 H 625.096 1.12424 -3.48936 0
M  V30 6514 H 624.744 3.6002 -3.51276 0
M  V30 6515 H 624.444 2.88743 -5.11763 0
M  V30 6516 H 625.968 3.76627 -4.80608 0
M  V30 6517 H 627.382 1.60467 -5.50385 0
M  V30 6518 H 625.779 0.936454 -5.92748 0
M  V30 6519 H 626.849 0.0227421 -4.84895 0
M  V30 6520 N 628.193 1.56834 0.155195 0
M  V30 6521 C 629.47 1.73799 0.897395 0
M  V30 6522 C 629.85 0.684379 1.99698 0
M  V30 6523 O 629.198 -0.298111 2.26547 0
M  V30 6524 C 629.408 3.17572 1.44737 0
M  V30 6525 C 630.756 3.79014 1.91399 0
M  V30 6526 O 631.78 3.20951 1.54496 0
M  V30 6527 O 630.639 4.80998 2.59429 0
M  V30 6528 H 627.733 0.710329 0.423511 0
M  V30 6529 H 630.279 1.69107 0.141761 0
M  V30 6530 H 629.051 3.85749 0.656741 0
M  V30 6531 H 628.674 3.26657 2.26674 0
M  V30 6532 N 629.671 -0.424282 1.51781 0
M  V30 6533 C 630.918 -1.1726 1.65095 0
M  V30 6534 C 631.246 -1.90881 0.373477 0
M  V30 6535 O 630.501 -1.84835 -0.642997 0
M  V30 6536 C 630.8 -2.20418 2.81337 0
M  V30 6537 C 630.466 -1.63715 4.20129 0
M  V30 6538 C 629.128 -1.47975 4.57883 0
M  V30 6539 C 631.48 -1.22157 5.06682 0
M  V30 6540 C 628.808 -0.891703 5.79884 0
M  V30 6541 C 631.16 -0.647767 6.29275 0
M  V30 6542 C 629.824 -0.477371 6.65791 0
M  V30 6543 H 629.094 -0.429085 0.604125 0
M  V30 6544 H 631.741 -0.461852 1.85847 0
M  V30 6545 H 630.046 -2.97581 2.54859 0
M  V30 6546 H 631.743 -2.78163 2.88836 0
M  V30 6547 H 628.333 -1.76946 3.90369 0
M  V30 6548 H 632.517 -1.33133 4.7811 0
M  V30 6549 H 627.773 -0.747563 6.06813 0
M  V30 6550 H 631.947 -0.317291 6.95677 0
M  V30 6551 H 629.574 -0.0195936 7.60197 0
M  V30 6552 N 631.149 -1.42148 -0.680565 0
M  V30 6553 C 632.097 -1.45401 -1.81552 0
M  V30 6554 C 633.091 -0.33036 -1.66147 0
M  V30 6555 O 634.297 -0.503103 -1.72826 0
M  V30 6556 H 630.672 -0.455265 -0.59853 0
M  V30 6557 H 632.643 -2.41024 -1.75926 0
M  V30 6558 C 631.392 -1.36769 -3.19671 0
M  V30 6559 H 630.715 -2.22525 -3.32149 0
M  V30 6560 H 632.155 -1.43106 -3.9912 0
M  V30 6561 C 630.614 -0.0817752 -3.36801 0
M  V30 6562 O 631.144 0.867707 -3.92216 0
M  V30 6563 N 629.35 -0.000799811 -2.906 0
M  V30 6564 H 628.897 -0.774231 -2.4569 0
M  V30 6565 H 628.855 0.858961 -3.02439 0
M  V30 6566 N 632.627 0.916307 -1.28225 0
M  V30 6567 C 633.852 1.7043 -1.18188 0
M  V30 6568 C 634.277 1.86346 0.256274 0
M  V30 6569 O 633.635 1.37175 1.18544 0
M  V30 6570 C 633.683 3.07546 -1.88275 0
M  V30 6571 O 632.787 3.94904 -1.18848 0
M  V30 6572 H 632.128 0.521967 -0.410423 0
M  V30 6573 H 634.658 1.14589 -1.69501 0
M  V30 6574 H 634.668 3.57793 -1.96082 0
M  V30 6575 H 633.343 2.95279 -2.92887 0
M  V30 6576 H 631.92 3.53339 -1.19187 0
M  V30 6577 N 634.105 1.10431 1.1244 0
M  V30 6578 C 635.068 0.756542 2.16354 0
M  V30 6579 C 636.068 -0.21899 1.59302 0
M  V30 6580 O 637.258 0.00415969 1.742 0
M  V30 6581 C 634.39 0.120612 3.40687 0
M  V30 6582 H 635.583 1.67696 2.48632 0
M  V30 6583 H 633.136 0.904832 1.27446 0
M  V30 6584 H 633.871 -0.810536 3.14008 0
M  V30 6585 H 633.656 0.822693 3.83372 0
M  V30 6586 H 635.146 -0.106945 4.17463 0
M  V30 6587 N 635.583 -1.29855 0.893053 0
M  V30 6588 C 636.829 -1.96116 0.516349 0
M  V30 6589 C 637.162 -1.70281 -0.933695 0
M  V30 6590 O 636.437 -1.01205 -1.66096 0
M  V30 6591 C 636.72 -3.51068 0.801455 0
M  V30 6592 C 636.573 -3.86387 2.30272 0
M  V30 6593 C 637.892 -4.39186 0.283423 0
M  V30 6594 H 635.011 -0.712335 0.189072 0
M  V30 6595 H 637.653 -1.53587 1.11852 0
M  V30 6596 H 635.803 -3.87424 0.288949 0
M  V30 6597 H 637.475 -3.60012 2.88425 0
M  V30 6598 H 635.718 -3.34167 2.76613 0
M  V30 6599 H 636.389 -4.94512 2.45279 0
M  V30 6600 H 638.865 -4.09785 0.722187 0
M  V30 6601 H 637.741 -5.46505 0.512169 0
M  V30 6602 H 638.002 -4.34511 -0.815643 0
M  V30 6603 N 637.061 -0.65484 -1.43351 0
M  V30 6604 C 637.971 0.0363603 -2.34572 0
M  V30 6605 C 638.987 0.810432 -1.53974 0
M  V30 6606 O 640.163 0.757308 -1.86619 0
M  V30 6607 C 637.228 0.989733 -3.32273 0
M  V30 6608 C 636.289 0.212414 -4.28774 0
M  V30 6609 C 635.522 1.12038 -5.21808 0
M  V30 6610 O 635.745 2.35967 -5.19303 0
M  V30 6611 O 634.679 0.59191 -5.98982 0
M  V30 6612 H 638.505 -0.714527 -2.95175 0
M  V30 6613 H 636.09 -0.415029 -1.4352 0
M  V30 6614 H 637.972 1.53759 -3.92347 0
M  V30 6615 H 636.647 1.72082 -2.74171 0
M  V30 6616 H 635.554 -0.379062 -3.72175 0
M  V30 6617 H 636.887 -0.479138 -4.89862 0
M  V30 6618 N 638.539 1.52521 -0.396863 0
M  V30 6619 C 639.764 2.06571 0.185258 0
M  V30 6620 C 640.189 1.26605 1.39115 0
M  V30 6621 O 639.547 0.293055 1.78916 0
M  V30 6622 C 639.595 3.5674 0.526189 0
M  V30 6623 O 638.699 3.7929 1.61903 0
M  V30 6624 H 638.04 0.663712 0.0195474 0
M  V30 6625 H 640.57 1.966 -0.566519 0
M  V30 6626 H 640.58 4.00311 0.788338 0
M  V30 6627 H 639.255 4.14379 -0.355397 0
M  V30 6628 H 637.832 3.47605 1.35 0
M  V30 6629 N 640.017 0.126909 1.57088 0
M  V30 6630 C 640.949 -0.850973 2.12817 0
M  V30 6631 C 641.962 -1.22457 1.07276 0
M  V30 6632 O 643.151 -1.17215 1.34622 0
M  V30 6633 C 640.251 -2.15039 2.61938 0
M  V30 6634 C 639.424 -1.94726 3.91664 0
M  V30 6635 C 638.483 -3.0847 4.26301 0
M  V30 6636 O 637.509 -2.81038 4.94981 0
M  V30 6637 N 638.711 -4.35116 3.84259 0
M  V30 6638 H 641.476 -0.3748 2.97347 0
M  V30 6639 H 639.037 -0.0572793 1.61799 0
M  V30 6640 H 641.029 -2.90141 2.82135 0
M  V30 6641 H 639.599 -2.5398 1.82244 0
M  V30 6642 H 638.819 -1.03772 3.80296 0
M  V30 6643 H 640.107 -1.78469 4.76473 0
M  V30 6644 H 639.505 -4.60276 3.2888 0
M  V30 6645 H 638.062 -5.07064 4.09548 0
M  V30 6646 N 641.495 -1.56914 -0.146875 0
M  V30 6647 C 642.906 -1.72799 -0.706928 0
M  V30 6648 C 643.257 -0.741329 -1.81656 0
M  V30 6649 O 642.382 0.0920162 -2.16204 0
M  V30 6650 C 642.977 -3.13317 -1.28911 0
M  V30 6651 C 641.536 -3.30803 -1.79573 0
M  V30 6652 C 640.683 -2.68725 -0.684252 0
M  V30 6653 H 643.634 -1.58504 0.0787931 0
M  V30 6654 H 643.655 -3.13323 -2.15891 0
M  V30 6655 H 643.167 -3.85104 -0.481284 0
M  V30 6656 H 641.268 -2.64012 -2.62923 0
M  V30 6657 H 641.381 -4.38754 -1.92436 0
M  V30 6658 H 639.745 -2.29196 -1.11091 0
M  V30 6659 H 640.528 -3.43117 0.112134 0
M  V30 6660 N 642.974 0.416227 -1.52004 0
M  V30 6661 C 644.222 1.16153 -1.65387 0
M  V30 6662 C 644.543 1.91208 -0.382669 0
M  V30 6663 O 643.813 1.86413 0.602231 0
M  V30 6664 H 642.393 0.431765 -0.60958 0
M  V30 6665 H 645.055 0.475151 -1.89019 0
M  V30 6666 H 644.151 1.87952 -2.4916 0
M  V30 6667 N 644.452 1.42507 0.673017 0
M  V30 6668 C 645.701 1.42364 1.42883 0
M  V30 6669 C 646.014 0.0441598 1.9555 0
M  V30 6670 O 647.22 -0.0798679 2.71382 0
M  V30 6671 C 645.676 2.5043 2.58482 0
M  V30 6672 C 645.284 3.94392 2.12506 0
M  V30 6673 C 647.028 2.59455 3.35981 0
M  V30 6674 C 644.935 4.93964 3.25198 0
M  V30 6675 H 643.865 0.52951 0.536782 0
M  V30 6676 H 646.516 1.68422 0.728448 0
M  V30 6677 H 644.898 2.1754 3.30896 0
M  V30 6678 H 646.072 4.36645 1.47233 0
M  V30 6679 H 644.387 3.89233 1.4794 0
M  V30 6680 H 646.984 3.31025 4.19912 0
M  V30 6681 H 647.327 1.63869 3.82691 0
M  V30 6682 H 647.86 2.91549 2.70637 0
M  V30 6683 H 644.599 5.91034 2.83477 0
M  V30 6684 H 644.119 4.56341 3.89247 0
M  V30 6685 H 645.798 5.15763 3.90637 0
M  V30 6686 N 645.93 -0.909495 1.28709 0
M  V30 6687 C 646.877 -2.01245 1.13 0
M  V30 6688 C 647.847 -1.6608 0.0259684 0
M  V30 6689 O 649.032 -1.89835 0.191687 0
M  V30 6690 C 646.172 -3.35644 0.802315 0
M  V30 6691 C 645.285 -3.83653 1.98582 0
M  V30 6692 C 644.42 -5.06582 1.59837 0
M  V30 6693 C 643.459 -5.46934 2.74827 0
M  V30 6694 N 642.596 -6.61053 2.36546 0
M  V30 6695 H 647.436 -2.14013 2.0737 0
M  V30 6696 H 644.973 -1.0482 1.03205 0
M  V30 6697 H 646.931 -4.12963 0.593057 0
M  V30 6698 H 645.561 -3.22631 -0.104457 0
M  V30 6699 H 644.613 -3.02454 2.30708 0
M  V30 6700 H 645.925 -4.09515 2.84779 0
M  V30 6701 H 645.079 -5.91457 1.35143 0
M  V30 6702 H 643.818 -4.82537 0.707753 0
M  V30 6703 H 642.823 -4.60599 3.00215 0
M  V30 6704 H 644.048 -5.72965 3.64538 0
M  V30 6705 H 641.994 -6.3863 1.49959 0
M  V30 6706 H 641.911 -6.86662 3.16277 0
M  V30 6707 H 643.179 -7.49221 2.15146 0
M  V30 6708 N 647.408 -1.11026 -1.11852 0
M  V30 6709 C 648.685 -0.768347 -1.79877 0
M  V30 6710 C 649.065 0.744261 -1.97545 0
M  V30 6711 O 648.413 1.67271 -1.55669 0
M  V30 6712 C 648.623 -1.52648 -3.13846 0
M  V30 6713 C 649.971 -1.70297 -3.88953 0
M  V30 6714 O 650.995 -1.49037 -3.23522 0
M  V30 6715 O 649.854 -2.05593 -5.06353 0
M  V30 6716 H 646.948 -0.277891 -0.778913 0
M  V30 6717 H 649.494 -1.21343 -1.18633 0
M  V30 6718 H 648.266 -2.55564 -2.96315 0
M  V30 6719 H 647.889 -1.07466 -3.82801 0
M  V30 6720 N 648.886 1.2938 -0.899927 0
M  V30 6721 C 649.849 2.25983 -0.382677 0
M  V30 6722 C 650.849 1.53366 0.483259 0
M  V30 6723 O 652.039 1.71798 0.28828 0
M  V30 6724 C 649.171 3.37878 0.452915 0
M  V30 6725 H 650.364 2.73252 -1.23586 0
M  V30 6726 H 647.917 1.40825 -0.678088 0
M  V30 6727 H 648.652 2.95949 1.32608 0
M  V30 6728 H 648.437 3.91742 -0.167562 0
M  V30 6729 H 649.927 4.09746 0.806107 0
M  V30 6730 N 650.364 0.662433 1.43002 0
M  V30 6731 C 651.78 0.330835 1.56133 0
M  V30 6732 C 651.98 -1.16454 1.64441 0
M  V30 6733 O 651.036 -1.94964 1.60453 0
M  V30 6734 C 652.349 1.05029 2.81761 0
M  V30 6735 C 653.897 1.03142 2.95518 0
M  V30 6736 C 654.372 1.73196 4.2399 0
M  V30 6737 N 655.863 1.70004 4.30875 0
M  V30 6738 C 656.598 2.21074 5.29069 0
M  V30 6739 N 656.094 2.80473 6.33488 0
M  V30 6740 N 657.887 2.1152 5.20784 0
M  V30 6741 H 650.038 1.63272 1.35853 0
M  V30 6742 H 652.301 0.687149 0.653092 0
M  V30 6743 H 652.007 2.10542 2.81718 0
M  V30 6744 H 651.881 0.607664 3.72273 0
M  V30 6745 H 654.268 -0.0153339 2.95096 0
M  V30 6746 H 654.349 1.51282 2.0627 0
M  V30 6747 H 653.993 2.77833 4.25172 0
M  V30 6748 H 653.923 1.22515 5.1215 0
M  V30 6749 H 656.414 1.26667 3.56039 0
M  V30 6750 H 656.727 3.17094 7.04749 0
M  V30 6751 H 655.072 2.84538 6.34085 0
M  V30 6752 H 658.263 1.64814 4.38126 0
M  V30 6753 H 658.436 2.51629 5.97149 0
M  V30 6754 N 651.842 -1.52309 0.404946 0
M  V30 6755 C 652.772 -2.29805 -0.41376 0
M  V30 6756 C 653.753 -1.3384 -1.0498 0
M  V30 6757 O 654.938 -1.62745 -1.05961 0
M  V30 6758 C 652.068 -3.11639 -1.53292 0
M  V30 6759 C 651.022 -4.15616 -1.02211 0
M  V30 6760 C 650.348 -4.8577 -2.23455 0
M  V30 6761 C 651.648 -5.2224 -0.0790725 0
M  V30 6762 H 653.342 -2.98493 0.232878 0
M  V30 6763 H 650.888 -1.43552 0.113441 0
M  V30 6764 H 652.841 -3.64618 -2.11262 0
M  V30 6765 H 651.565 -2.40712 -2.20738 0
M  V30 6766 H 650.224 -3.63641 -0.46484 0
M  V30 6767 H 649.872 -4.11376 -2.89445 0
M  V30 6768 H 649.572 -5.56058 -1.89929 0
M  V30 6769 H 651.096 -5.4156 -2.82038 0
M  V30 6770 H 652.51 -5.70485 -0.567438 0
M  V30 6771 H 650.907 -5.99867 0.167167 0
M  V30 6772 H 651.977 -4.77078 0.867447 0
M  V30 6773 N 653.32 -0.135238 -1.57019 0
M  V30 6774 C 654.25 0.805235 -2.19176 0
M  V30 6775 C 655.231 1.2656 -1.13651 0
M  V30 6776 O 656.416 1.32528 -1.4195 0
M  V30 6777 C 653.546 2.04914 -2.80406 0
M  V30 6778 C 652.5 1.72598 -3.91655 0
M  V30 6779 C 651.826 3.04154 -4.39766 0
M  V30 6780 C 653.126 0.981709 -5.12991 0
M  V30 6781 H 654.82 0.287232 -2.98019 0
M  V30 6782 H 652.366 0.136714 -1.4335 0
M  V30 6783 H 654.319 2.71178 -3.22553 0
M  V30 6784 H 653.043 2.59067 -1.98877 0
M  V30 6785 H 651.702 1.08717 -3.50109 0
M  V30 6786 H 651.35 3.56274 -3.55075 0
M  V30 6787 H 651.05 2.83299 -5.14796 0
M  V30 6788 H 652.574 3.71509 -4.84576 0
M  V30 6789 H 653.988 1.5462 -5.52056 0
M  V30 6790 H 652.385 0.873533 -5.93708 0
M  V30 6791 H 653.455 -0.0286887 -4.84892 0
M  V30 6792 N 654.798 1.5699 0.138552 0
M  V30 6793 C 655.761 1.97984 1.15478 0
M  V30 6794 C 656.761 0.867416 1.35398 0
M  V30 6795 O 657.951 1.13387 1.32246 0
M  V30 6796 C 655.083 2.3031 2.51337 0
M  V30 6797 H 656.276 2.88953 0.802896 0
M  V30 6798 H 653.829 1.51555 0.382189 0
M  V30 6799 H 654.564 1.42159 2.91481 0
M  V30 6800 H 654.349 3.11425 2.38237 0
M  V30 6801 H 655.839 2.62834 3.24512 0
M  V30 6802 N 656.276 -0.40816 1.52223 0
M  V30 6803 C 657.501 -1.18127 1.70472 0
M  V30 6804 C 657.926 -1.83491 0.41384 0
M  V30 6805 O 657.284 -1.70047 -0.628778 0
M  V30 6806 C 657.332 -2.21935 2.84213 0
M  V30 6807 O 656.436 -3.28099 2.4985 0
M  V30 6808 H 655.777 -0.344781 0.56747 0
M  V30 6809 H 658.307 -0.478328 1.9893 0
M  V30 6810 H 658.317 -2.66248 3.09153 0
M  V30 6811 H 656.992 -1.73744 3.7787 0
M  V30 6812 H 655.569 -2.89058 2.35584 0
M  V30 6813 N 657.755 -1.42862 -0.66545 0
M  V30 6814 C 659.001 -1.44043 -1.42757 0
M  V30 6815 C 659.334 -0.0599629 -1.94107 0
M  V30 6816 O 658.609 0.917286 -1.71511 0
M  V30 6817 C 658.892 -2.47266 -2.61786 0
M  V30 6818 C 658.745 -3.94539 -2.16007 0
M  V30 6819 C 660.064 -2.47365 -3.64003 0
M  V30 6820 H 657.183 -0.524506 -0.517748 0
M  V30 6821 H 659.825 -1.74335 -0.755466 0
M  V30 6822 H 657.975 -2.21565 -3.19126 0
M  V30 6823 H 659.647 -4.31254 -1.63762 0
M  V30 6824 H 657.89 -4.07957 -1.47491 0
M  V30 6825 H 658.561 -4.62357 -3.01546 0
M  V30 6826 H 661.037 -2.70243 -3.16399 0
M  V30 6827 H 659.913 -3.21552 -4.44854 0
M  V30 6828 H 660.174 -1.50299 -4.15767 0
M  V30 6829 N 659.233 0.902656 -1.29189 0
M  V30 6830 C 660.48 1.65287 -1.16989 0
M  V30 6831 C 660.808 1.92485 0.279232 0
M  V30 6832 O 660.063 1.53143 1.21843 0
M  V30 6833 C 660.362 3.011 -1.92545 0
M  V30 6834 C 660.028 2.93521 -3.42281 0
M  V30 6835 C 658.69 2.91161 -3.83117 0
M  V30 6836 C 661.042 2.82947 -4.3771 0
M  V30 6837 C 658.37 2.76043 -5.17704 0
M  V30 6838 C 660.722 2.69368 -5.72384 0
M  V30 6839 C 659.386 2.65373 -6.12482 0
M  V30 6840 H 658.656 0.604828 -0.428094 0
M  V30 6841 H 661.303 1.05084 -1.60092 0
M  V30 6842 H 659.608 3.65153 -1.42024 0
M  V30 6843 H 661.305 3.58073 -1.80512 0
M  V30 6844 H 657.895 2.96158 -3.09819 0
M  V30 6845 H 662.079 2.83849 -4.07116 0
M  V30 6846 H 657.335 2.71352 -5.47885 0
M  V30 6847 H 661.509 2.60156 -6.45981 0
M  V30 6848 H 659.136 2.53415 -7.16718 0
M  V30 6849 N 660.711 1.11618 1.11262 0
M  V30 6850 C 661.643 0.734015 2.17129 0
M  V30 6851 C 662.656 -0.235243 1.61091 0
M  V30 6852 O 663.845 -0.0178597 1.78491 0
M  V30 6853 C 660.945 0.0643682 3.38839 0
M  V30 6854 C 660.118 1.06092 4.24339 0
M  V30 6855 C 659.177 0.420482 5.24517 0
M  V30 6856 O 658.203 1.07495 5.58957 0
M  V30 6857 N 659.405 -0.815828 5.74739 0
M  V30 6858 H 662.17 1.64492 2.50524 0
M  V30 6859 H 659.731 1.00664 1.26801 0
M  V30 6860 H 661.723 -0.375851 4.02951 0
M  V30 6861 H 660.293 -0.749147 3.03491 0
M  V30 6862 H 659.513 1.67903 3.56654 0
M  V30 6863 H 660.801 1.73507 4.78302 0
M  V30 6864 H 660.199 -1.36668 5.48943 0
M  V30 6865 H 658.756 -1.199 6.40677 0
M  V30 6866 N 662.189 -1.289 0.906776 0
M  V30 6867 C 663.417 -1.99401 0.551969 0
M  V30 6868 C 663.832 -1.67816 -0.865048 0
M  V30 6869 O 663.189 -0.927078 -1.57199 0
M  V30 6870 C 663.24 -3.53779 0.743152 0
M  V30 6871 O 662.961 -3.84248 2.1044 0
M  V30 6872 C 664.462 -4.41543 0.39424 0
M  V30 6873 H 661.682 -0.636926 0.211106 0
M  V30 6874 H 664.226 -1.64266 1.21807 0
M  V30 6875 H 662.381 -3.87201 0.124143 0
M  V30 6876 H 662.795 -4.78904 2.13895 0
M  V30 6877 H 664.269 -5.48957 0.578814 0
M  V30 6878 H 664.746 -4.34073 -0.669137 0
M  V30 6879 H 665.352 -4.13605 0.990491 0
M  V30 6880 N 663.667 -0.670007 -1.42649 0
M  V30 6881 C 664.597 -0.00258501 -2.335 0
M  V30 6882 C 665.578 0.794364 -1.50412 0
M  V30 6883 O 666.763 0.75248 -1.79029 0
M  V30 6884 C 663.893 0.952748 -3.33976 0
M  V30 6885 C 662.847 0.264733 -4.2718 0
M  V30 6886 C 662.173 1.33267 -5.17826 0
M  V30 6887 C 663.473 -0.853289 -5.15283 0
M  V30 6888 H 665.167 -0.761326 -2.89559 0
M  V30 6889 H 662.713 -0.367561 -1.3923 0
M  V30 6890 H 664.666 1.4287 -3.96442 0
M  V30 6891 H 663.39 1.74285 -2.7621 0
M  V30 6892 H 662.049 -0.190938 -3.66102 0
M  V30 6893 H 661.697 2.11464 -4.5639 0
M  V30 6894 H 661.397 0.877476 -5.81011 0
M  V30 6895 H 662.921 1.80965 -5.83167 0
M  V30 6896 H 664.335 -0.458763 -5.71462 0
M  V30 6897 H 662.732 -1.23398 -5.87276 0
M  V30 6898 H 663.802 -1.70412 -4.53969 0
M  V30 6899 N 665.145 1.52092 -0.413018 0
M  V30 6900 C 666.561 1.59471 -0.0640836 0
M  V30 6901 C 666.761 1.42562 1.42402 0
M  V30 6902 O 665.817 1.25453 2.19129 0
M  V30 6903 C 667.13 2.95392 -0.562474 0
M  V30 6904 C 668.678 3.08637 -0.520788 0
M  V30 6905 C 669.153 4.47044 -0.995752 0
M  V30 6906 N 670.644 4.53296 -0.952732 0
M  V30 6907 C 671.379 5.58669 -1.29138 0
M  V30 6908 N 670.875 6.71576 -1.70168 0
M  V30 6909 N 672.668 5.48898 -1.2111 0
M  V30 6910 H 664.819 1.6133 -1.38153 0
M  V30 6911 H 667.082 0.75916 -0.567785 0
M  V30 6912 H 666.788 3.13059 -1.60271 0
M  V30 6913 H 666.662 3.77191 0.0257875 0
M  V30 6914 H 669.049 2.90652 0.510412 0
M  V30 6915 H 669.13 2.28735 -1.14515 0
M  V30 6916 H 668.774 4.65773 -2.0253 0
M  V30 6917 H 668.704 5.25448 -0.348162 0
M  V30 6918 H 671.195 3.72248 -0.651119 0
M  V30 6919 H 671.508 7.47973 -1.9431 0
M  V30 6920 H 669.853 6.72847 -1.74075 0
M  V30 6921 H 673.044 4.59573 -0.889396 0
M  V30 6922 H 673.217 6.30912 -1.47833 0
M  V30 6923 N 666.623 0.143563 1.56945 0
M  V30 6924 C 667.586 -0.783295 2.154 0
M  V30 6925 C 668.586 -1.17763 1.09492 0
M  V30 6926 O 669.776 -1.09912 1.35148 0
M  V30 6927 C 666.908 -2.06248 2.7143 0
M  V30 6928 H 668.101 -0.274863 2.98638 0
M  V30 6929 H 665.654 -0.105859 1.55941 0
M  V30 6930 H 666.389 -2.61466 1.91849 0
M  V30 6931 H 666.174 -1.78897 3.4891 0
M  V30 6932 H 667.664 -2.72453 3.16479 0
M  V30 6933 N 668.101 -1.57061 -0.130224 0
M  V30 6934 C 669.331 -1.88159 -0.853217 0
M  V30 6935 C 669.739 -0.731675 -1.7448 0
M  V30 6936 O 669.082 0.307035 -1.81116 0
M  V30 6937 C 669.144 -3.1415 -1.74785 0
M  V30 6938 C 668.808 -4.45202 -1.03173 0
M  V30 6939 C 669.805 -5.18526 -0.377759 0
M  V30 6940 C 667.49 -4.91912 -1.01624 0
M  V30 6941 C 669.484 -6.36775 0.282123 0
M  V30 6942 C 667.171 -6.10082 -0.352555 0
M  V30 6943 C 668.169 -6.82361 0.295483 0
M  V30 6944 O 667.857 -7.98284 0.948606 0
M  V30 6945 H 667.589 -0.627596 -0.251197 0
M  V30 6946 H 670.143 -2.05034 -0.1226 0
M  V30 6947 H 668.373 -2.93328 -2.51983 0
M  V30 6948 H 670.062 -3.31359 -2.34427 0
M  V30 6949 H 670.828 -4.83498 -0.381417 0
M  V30 6950 H 666.707 -4.35566 -1.51007 0
M  V30 6951 H 670.251 -6.93129 0.788525 0
M  V30 6952 H 666.148 -6.44569 -0.346621 0
M  V30 6953 H 666.916 -8.14054 0.851954 0
M  V30 6954 O 669.618 0.274706 -1.59147 0
M  V30 6955 H 670.309 0.920013 -1.70457 0
M  V30 END ATOM
M  V30 BEGIN BOND
M  V30 END BOND
M  V30 END CTAB
M  END
$$$$
