drugbank_drug|DB09037 Heavy Chain Sequence
 OpenBabel12092119133D

  0  0  0     0  0            999 V3000
M  V30 BEGIN CTAB
M  V30 COUNTS 6864 6958 0 0 0
M  V30 BEGIN ATOM
M  V30 1 H -0.908 1.98254 -0.117106 0
M  V30 2 N 0 1.576 0 0
M  V30 3 C 0.932 2.05273 1.01958 0
M  V30 4 C 1.945 0.970662 1.30698 0
M  V30 5 O 3.134 1.24746 1.27674 0
M  V30 6 C 0.234 2.43771 2.35433 0
M  V30 7 C -0.593 3.74711 2.25633 0
M  V30 8 C -1.534 4.00077 3.41796 0
M  V30 9 O -2.508 4.70743 3.19984 0
M  V30 10 N -1.306 3.47973 4.64645 0
M  V30 11 H 1.459 2.93363 0.613025 0
M  V30 12 H -0.98 1.60812 0.187383 0
M  V30 13 H 1.012 2.57855 3.11918 0
M  V30 14 H -0.418 1.612 2.67831 0
M  V30 15 H -1.198 3.70705 1.34059 0
M  V30 16 H 0.09 4.60554 2.16258 0
M  V30 17 H -0.512 2.90748 4.85265 0
M  V30 18 H -1.955 3.67386 5.38396 0
M  V30 19 N 1.4781 -0.272755 1.55222 0
M  V30 20 C 2.7241 -1.00581 1.761 0
M  V30 21 C 3.0571 -1.85932 0.560625 0
M  V30 22 O 2.3321 -1.89416 -0.441801 0
M  V30 23 C 2.6151 -1.88816 3.06628 0
M  V30 24 C 2.4681 -1.06457 4.37021 0
M  V30 25 C 3.7871 -2.8752 3.33197 0
M  V30 26 H 0.9061 -0.364244 0.640699 0
M  V30 27 H 3.5481 -0.278189 1.87952 0
M  V30 28 H 1.6981 -2.50856 2.96654 0
M  V30 29 H 3.3701 -0.464863 4.58952 0
M  V30 30 H 1.6131 -0.368043 4.32236 0
M  V30 31 H 2.2841 -1.71514 5.24678 0
M  V30 32 H 4.7601 -2.35615 3.42965 0
M  V30 33 H 3.6361 -3.46399 4.25792 0
M  V30 34 H 3.8971 -3.62657 2.52849 0
M  V30 35 N 2.9562 -1.48159 -0.537278 0
M  V30 36 C 3.8882 -1.58218 -1.65831 0
M  V30 37 C 4.9012 -0.466948 -1.5596 0
M  V30 38 O 6.0902 -0.73747 -1.62553 0
M  V30 39 C 3.1902 -1.48906 -3.04434 0
M  V30 40 C 2.3632 -2.75343 -3.3986 0
M  V30 41 C 1.4222 -2.59588 -4.57712 0
M  V30 42 O 0.4482 -3.33457 -4.61297 0
M  V30 43 N 1.6502 -1.68724 -5.55439 0
M  V30 44 H 4.4152 -2.54891 -1.57641 0
M  V30 45 H 1.9762 -1.4479 -0.724386 0
M  V30 46 H 3.9682 -1.36072 -3.81139 0
M  V30 47 H 2.5382 -0.602368 -3.06741 0
M  V30 48 H 1.7582 -3.02795 -2.52406 0
M  V30 49 H 3.0462 -3.5924 -3.60311 0
M  V30 50 H 2.4442 -1.07898 -5.55315 0
M  V30 51 H 1.0012 -1.61832 -6.3139 0
M  V30 52 N 4.4343 0.785586 -1.36625 0
M  V30 53 C 5.3643 1.91259 -1.33949 0
M  V30 54 C 6.3453 1.68795 -0.210325 0
M  V30 55 O 7.5303 1.89854 -0.408561 0
M  V30 56 C 4.6603 3.28339 -1.13186 0
M  V30 57 C 3.6143 3.65335 -2.22967 0
M  V30 58 C 2.9403 5.00806 -1.87342 0
M  V30 59 C 4.2403 3.7352 -3.65075 0
M  V30 60 H 5.9343 1.93755 -2.28253 0
M  V30 61 H 3.4803 0.930788 -1.09874 0
M  V30 62 H 5.4333 4.06804 -1.09948 0
M  V30 63 H 4.1573 3.2624 -0.153332 0
M  V30 64 H 2.8163 2.89169 -2.25337 0
M  V30 65 H 2.4643 4.95233 -0.880545 0
M  V30 66 H 2.1643 5.26529 -2.60846 0
M  V30 67 H 3.6883 5.81687 -1.85667 0
M  V30 68 H 5.1023 4.42168 -3.64911 0
M  V30 69 H 3.4993 4.10731 -4.37516 0
M  V30 70 H 4.5693 2.74527 -3.99703 0
M  V30 71 N 5.9124 1.20967 1.01018 0
M  V30 72 C 7.1584 1.02526 1.74975 0
M  V30 73 C 7.4914 -0.4408 1.89131 0
M  V30 74 O 6.7664 -1.32718 1.42184 0
M  V30 75 C 7.0494 1.71699 3.1653 0
M  V30 76 C 6.9024 3.25791 3.10129 0
M  V30 77 C 8.2214 1.45531 4.15342 0
M  V30 78 H 5.3404 0.373863 0.635134 0
M  V30 79 H 7.9824 1.49071 1.17805 0
M  V30 80 H 6.1324 1.32128 3.65341 0
M  V30 81 H 7.8044 3.74697 2.69072 0
M  V30 82 H 6.0474 3.56363 2.47362 0
M  V30 83 H 6.7184 3.69353 4.10222 0
M  V30 84 H 9.1944 1.79872 3.75213 0
M  V30 85 H 8.0704 1.96453 5.1254 0
M  V30 86 H 8.3314 0.384237 4.40427 0
M  V30 87 N 7.3905 -1.2043 1.01659 0
M  V30 88 C 8.3225 -2.22626 0.544988 0
M  V30 89 C 9.3355 -1.58479 -0.372609 0
M  V30 90 O 10.5245 -1.77679 -0.170958 0
M  V30 91 C 7.6245 -3.38141 -0.22663 0
M  V30 92 C 6.7975 -4.31877 0.692876 0
M  V30 93 C 5.8565 -5.26191 -0.0311616 0
M  V30 94 O 4.8825 -5.6612 0.591343 0
M  V30 95 N 6.0845 -5.65618 -1.30601 0
M  V30 96 H 8.8495 -2.63716 1.42388 0
M  V30 97 H 6.4105 -1.34971 0.894116 0
M  V30 98 H 8.4025 -3.98239 -0.72024 0
M  V30 99 H 6.9725 -2.95943 -1.00681 0
M  V30 100 H 6.1925 -3.69746 1.36679 0
M  V30 101 H 7.4805 -4.91426 1.31824 0
M  V30 102 H 6.8785 -5.3519 -1.83269 0
M  V30 103 H 5.4355 -6.28025 -1.74435 0
M  V30 104 N 8.8686 -0.792821 -1.36206 0
M  V30 105 C 10.0936 -0.377701 -2.03932 0
M  V30 106 C 10.5186 0.998947 -1.59382 0
M  V30 107 O 9.8766 1.64421 -0.763903 0
M  V30 108 C 9.9246 -0.453635 -3.57735 0
M  V30 109 O 9.0286 0.538151 -4.08874 0
M  V30 110 H 8.3696 -0.159855 -0.644471 0
M  V30 111 H 10.8996 -1.07488 -1.7409 0
M  V30 112 H 10.9096 -0.318464 -4.06755 0
M  V30 113 H 9.5846 -1.45784 -3.89512 0
M  V30 114 H 8.1616 0.364359 -3.71116 0
M  V30 115 N 10.3467 1.47872 -0.545128 0
M  V30 116 C 11.5947 2.02093 -0.016553 0
M  V30 117 C 11.9157 1.42305 1.3332 0
M  V30 118 O 11.1857 0.593853 1.86682 0
M  V30 119 H 9.7657 0.746993 -0.00313038 0
M  V30 120 H 12.4277 1.81414 -0.712397 0
M  V30 121 H 11.5237 3.11996 0.0805422 0
M  V30 122 N 11.8248 0.280983 1.55075 0
M  V30 123 C 13.0708 -0.33461 2.00021 0
M  V30 124 C 13.4038 -1.55063 1.16915 0
M  V30 125 O 12.6788 -1.93006 0.240646 0
M  V30 126 C 12.9618 -0.711007 3.53011 0
M  V30 127 C 12.8148 0.512766 4.46868 0
M  V30 128 C 14.1338 -1.54522 4.12081 0
M  V30 129 H 11.2528 -0.120147 0.727141 0
M  V30 130 H 13.8948 0.389097 1.85973 0
M  V30 131 H 12.0448 -1.32761 3.65112 0
M  V30 132 H 13.7168 1.15131 4.46702 0
M  V30 133 H 11.9598 1.14975 4.18286 0
M  V30 134 H 12.6308 0.205556 5.51617 0
M  V30 135 H 15.1068 -1.02442 4.03293 0
M  V30 136 H 13.9828 -1.77739 5.19327 0
M  V30 137 H 14.2438 -2.52813 3.62682 0
M  V30 138 N 13.3029 -1.57598 0.00835791 0
M  V30 139 C 14.2129 -2.12385 -0.996487 0
M  V30 140 C 15.2289 -1.07108 -1.37127 0
M  V30 141 O 16.4049 -1.39055 -1.4569 0
M  V30 142 C 13.4699 -2.62314 -2.26699 0
M  V30 143 C 12.5309 -3.82225 -1.95456 0
M  V30 144 C 11.7639 -4.29763 -3.16449 0
M  V30 145 O 11.9869 -3.76584 -4.28416 0
M  V30 146 O 10.9209 -5.21832 -2.99958 0
M  V30 147 H 14.7469 -2.98479 -0.560725 0
M  V30 148 H 12.3319 -1.47903 -0.210987 0
M  V30 149 H 14.2139 -2.94589 -3.01322 0
M  V30 150 H 12.8889 -1.79313 -2.69497 0
M  V30 151 H 11.7959 -3.54909 -1.18282 0
M  V30 152 H 13.1289 -4.66324 -1.57489 0
M  V30 153 N 14.781 0.264519 -1.55364 0
M  V30 154 C 16.027 0.99646 -1.76631 0
M  V30 155 C 16.36 1.85632 -0.570478 0
M  V30 156 O 15.635 1.89647 0.43175 0
M  V30 157 C 15.918 1.87187 -3.07625 0
M  V30 158 C 15.771 1.04138 -4.37579 0
M  V30 159 C 17.09 2.85749 -3.34717 0
M  V30 160 H 14.209 0.360841 -0.642622 0
M  V30 161 H 16.851 0.268218 -1.88097 0
M  V30 162 H 15.001 2.49279 -2.9798 0
M  V30 163 H 16.673 0.440517 -4.59192 0
M  V30 164 H 14.916 0.345115 -4.32425 0
M  V30 165 H 15.587 1.68729 -5.2558 0
M  V30 166 H 18.063 2.33793 -3.4421 0
M  V30 167 H 16.939 3.44136 -4.27623 0
M  V30 168 H 17.2 3.61311 -2.54768 0
M  V30 169 N 16.2591 1.48442 0.529413 0
M  V30 170 C 17.2061 1.63007 1.63394 0
M  V30 171 C 18.1761 0.47212 1.59249 0
M  V30 172 O 19.3611 0.695673 1.77666 0
M  V30 173 C 16.5011 1.6763 3.01653 0
M  V30 174 C 15.6141 2.94535 3.16027 0
M  V30 175 C 14.7491 2.90316 4.44849 0
M  V30 176 C 13.7881 4.11923 4.52754 0
M  V30 177 N 12.9251 4.05777 5.72965 0
M  V30 178 H 17.7651 2.5733 1.50285 0
M  V30 179 H 15.3021 1.27613 0.731656 0
M  V30 180 H 17.2601 1.68292 3.81751 0
M  V30 181 H 15.8901 0.76797 3.13532 0
M  V30 182 H 14.9421 3.03615 2.29177 0
M  V30 183 H 16.2541 3.84512 3.17729 0
M  V30 184 H 15.4081 2.89382 5.33238 0
M  V30 185 H 14.1471 1.98068 4.45668 0
M  V30 186 H 13.1521 4.13131 3.62771 0
M  V30 187 H 14.3771 5.0533 4.53672 0
M  V30 188 H 12.3231 3.16351 5.74681 0
M  V30 189 H 12.2401 4.8946 5.76164 0
M  V30 190 H 13.5081 4.08904 6.6364 0
M  V30 191 N 17.7372 -0.778329 1.37039 0
M  V30 192 C 18.6842 -1.89139 1.32269 0
M  V30 193 C 19.6542 -1.65017 0.189387 0
M  V30 194 O 20.8392 -1.87024 0.377693 0
M  V30 195 C 17.9792 -3.26112 1.12894 0
M  V30 196 C 17.0922 -3.62233 2.35396 0
M  V30 197 C 16.2272 -4.8838 2.08946 0
M  V30 198 C 15.2662 -5.17212 3.2735 0
M  V30 199 N 14.4032 -6.34546 3.00492 0
M  V30 200 H 19.2432 -1.92552 2.27437 0
M  V30 201 H 16.7802 -0.941473 1.13025 0
M  V30 202 H 18.7382 -4.05116 0.996835 0
M  V30 203 H 17.3682 -3.22091 0.213758 0
M  V30 204 H 16.4202 -2.78265 2.5937 0
M  V30 205 H 17.7322 -3.79481 3.23721 0
M  V30 206 H 16.8862 -5.75274 1.92729 0
M  V30 207 H 15.6252 -4.73222 1.17949 0
M  V30 208 H 14.6302 -4.28796 3.44113 0
M  V30 209 H 15.8552 -5.34283 4.19188 0
M  V30 210 H 13.8012 -6.20759 2.12118 0
M  V30 211 H 13.7182 -6.52179 3.82358 0
M  V30 212 H 14.9862 -7.24394 2.87879 0
M  V30 213 N 19.2153 -1.21501 -1.00376 0
M  V30 214 C 20.6263 -1.03146 -1.55621 0
M  V30 215 C 20.9773 0.408375 -1.91903 0
M  V30 216 O 20.1023 1.29177 -1.73616 0
M  V30 217 C 20.6973 -1.86612 -2.82775 0
M  V30 218 C 19.2563 -1.72586 -3.34501 0
M  V30 219 C 18.4033 -1.83747 -2.07683 0
M  V30 220 H 21.3543 -1.35505 -0.826081 0
M  V30 221 H 21.3753 -1.3771 -3.54706 0
M  V30 222 H 20.8873 -2.91399 -2.56336 0
M  V30 223 H 18.9883 -0.704877 -3.65872 0
M  V30 224 H 19.1013 -2.54623 -4.05837 0
M  V30 225 H 17.4653 -1.27069 -2.20739 0
M  V30 226 H 18.2483 -2.90044 -1.83655 0
M  V30 227 N 20.6934 1.19889 -1.02296 0
M  V30 228 C 21.9414 1.89046 -0.714558 0
M  V30 229 C 22.2624 1.79636 0.758681 0
M  V30 230 O 21.5324 1.20292 1.54618 0
M  V30 231 H 20.1124 0.699802 -0.261317 0
M  V30 232 H 22.7744 1.45574 -1.29592 0
M  V30 233 H 21.8704 2.95524 -1.0036 0
M  V30 234 N 22.1715 0.800033 1.35784 0
M  V30 235 C 23.1345 0.211565 2.28221 0
M  V30 236 C 24.1345 -0.59728 1.49296 0
M  V30 237 O 25.3245 -0.416721 1.69142 0
M  V30 238 C 22.4565 -0.705846 3.33513 0
M  V30 239 H 23.6495 1.02677 2.81776 0
M  V30 240 H 21.2025 0.570211 1.45528 0
M  V30 241 H 21.9375 -1.54498 2.85133 0
M  V30 242 H 21.7225 -0.127655 3.91892 0
M  V30 243 H 23.2125 -1.11211 4.02519 0
M  V30 244 N 23.6496 -1.47581 0.552962 0
M  V30 245 C 24.8746 -2.07378 0.0300593 0
M  V30 246 C 25.2996 -1.40355 -1.25229 0
M  V30 247 O 24.6576 -0.477099 -1.7491 0
M  V30 248 C 24.7056 -3.60274 -0.153231 0
M  V30 249 O 23.8096 -3.94041 -1.21678 0
M  V30 250 H 23.1506 -0.662158 0.0494182 0
M  V30 251 H 25.6806 -1.89662 0.767434 0
M  V30 252 H 25.6906 -4.0633 -0.368761 0
M  V30 253 H 24.3656 -4.08455 0.783397 0
M  V30 254 H 22.9426 -3.59735 -0.982079 0
M  V30 255 N 25.1277 -0.289203 -1.54924 0
M  V30 256 C 26.3737 0.323998 -2.00195 0
M  V30 257 C 26.7067 1.54441 -1.17735 0
M  V30 258 O 25.9817 1.92875 -0.250878 0
M  V30 259 C 26.2647 0.692276 -3.53383 0
M  V30 260 C 26.1177 -0.536457 -4.46589 0
M  V30 261 C 27.4367 1.52335 -4.12895 0
M  V30 262 H 24.5557 0.116289 -0.727768 0
M  V30 263 H 27.1977 -0.398954 -1.85764 0
M  V30 264 H 25.3477 1.30822 -3.65811 0
M  V30 265 H 27.0197 -1.17499 -4.46085 0
M  V30 266 H 25.2627 -1.17192 -4.1767 0
M  V30 267 H 25.9337 -0.234806 -5.515 0
M  V30 268 H 28.4097 1.00302 -4.0383 0
M  V30 269 H 27.2857 1.74982 -5.20262 0
M  V30 270 H 27.5467 2.50886 -3.64018 0
M  V30 271 N 26.6058 1.57591 -0.0167156 0
M  V30 272 C 27.5528 2.09462 0.969251 0
M  V30 273 C 28.5228 0.99381 1.33089 0
M  V30 274 O 29.7078 1.26726 1.42636 0
M  V30 275 C 26.8478 2.61622 2.25051 0
M  V30 276 C 25.9608 3.85666 1.94642 0
M  V30 277 C 25.0958 4.26266 3.16972 0
M  V30 278 C 24.1348 5.43101 2.82326 0
M  V30 279 N 23.2718 5.78915 3.97243 0
M  V30 280 H 28.1118 2.93428 0.519997 0
M  V30 281 H 25.6488 1.45044 0.245087 0
M  V30 282 H 27.6068 2.89949 2.99976 0
M  V30 283 H 26.2368 1.80505 2.67615 0
M  V30 284 H 25.2888 3.64145 1.10013 0
M  V30 285 H 26.6008 4.70678 1.65117 0
M  V30 286 H 25.7548 4.55963 4.00228 0
M  V30 287 H 24.4938 3.39996 3.49648 0
M  V30 288 H 23.4988 5.1311 1.97479 0
M  V30 289 H 24.7238 6.3106 2.50879 0
M  V30 290 H 22.6698 4.95602 4.29785 0
M  V30 291 H 22.5868 6.58539 3.71299 0
M  V30 292 H 23.8548 6.13212 4.81239 0
M  V30 293 N 28.0839 -0.256276 1.55502 0
M  V30 294 C 29.3299 -0.987079 1.77157 0
M  V30 295 C 29.6629 -1.85327 0.580315 0
M  V30 296 O 28.9379 -1.89874 -0.421686 0
M  V30 297 C 29.2209 -1.85553 3.08613 0
M  V30 298 C 29.0739 -1.01816 4.38125 0
M  V30 299 C 30.3929 -2.8397 3.36228 0
M  V30 300 H 27.5119 -0.357428 0.644526 0
M  V30 301 H 30.1539 -0.258239 1.88237 0
M  V30 302 H 28.3039 -2.47695 2.99298 0
M  V30 303 H 29.9759 -0.416159 4.59419 0
M  V30 304 H 28.2189 -0.322178 4.32602 0
M  V30 305 H 28.8899 -1.65939 5.26468 0
M  V30 306 H 31.3659 -2.31964 3.45445 0
M  V30 307 H 30.2419 -3.41864 4.29442 0
M  V30 308 H 30.5029 -3.59955 2.56681 0
M  V30 309 N 29.562 -1.4872 -0.521534 0
M  V30 310 C 30.787 -1.61101 -1.30618 0
M  V30 311 C 31.212 -0.274611 -1.86085 0
M  V30 312 O 30.57 0.754937 -1.64834 0
M  V30 313 C 30.618 -2.66709 -2.4269 0
M  V30 314 O 29.722 -2.24456 -3.45967 0
M  V30 315 H 29.063 -0.539921 -0.386499 0
M  V30 316 H 31.593 -1.94767 -0.626645 0
M  V30 317 H 31.603 -2.88245 -2.88754 0
M  V30 318 H 30.278 -3.63727 -2.01682 0
M  V30 319 H 28.855 -2.13168 -3.05964 0
M  V30 320 N 31.0401 0.771051 -1.3745 0
M  V30 321 C 32.2801 1.54264 -1.34096 0
M  V30 322 C 32.6441 1.91858 0.0737639 0
M  V30 323 O 33.8451 2.67797 0.23203 0
M  V30 324 C 32.1161 2.77326 -2.25445 0
M  V30 325 S 33.6751 3.67383 -2.39948 0
M  V30 326 H 30.4931 0.528122 -0.476034 0
M  V30 327 H 33.0951 0.906633 -1.73206 0
M  V30 328 H 31.7991 2.47788 -3.27153 0
M  V30 329 H 31.3301 3.45886 -1.87421 0
M  V30 330 H 33.3451 4.69334 -1.61059 0
M  V30 331 N 32.5182 1.22032 0.997298 0
M  V30 332 C 33.4652 0.986467 2.08656 0
M  V30 333 C 34.4352 -0.0902671 1.65855 0
M  V30 334 O 35.6202 0.0584294 1.90711 0
M  V30 335 C 32.7602 0.565569 3.40434 0
M  V30 336 C 31.8732 1.71259 3.96604 0
M  V30 337 C 31.0082 1.24011 5.16522 0
M  V30 338 C 30.0472 2.35896 5.64818 0
M  V30 339 N 29.1842 1.89726 6.7598 0
M  V30 340 H 34.0242 1.91892 2.27994 0
M  V30 341 H 31.5612 0.956199 1.11782 0
M  V30 342 H 33.5192 0.302738 4.161 0
M  V30 343 H 32.1492 -0.329879 3.2111 0
M  V30 344 H 31.2012 2.08986 3.17851 0
M  V30 345 H 32.5132 2.55436 4.28432 0
M  V30 346 H 31.6672 0.934395 5.99461 0
M  V30 347 H 30.4062 0.368487 4.86306 0
M  V30 348 H 29.4112 2.67261 4.8047 0
M  V30 349 H 30.6362 3.23567 5.97061 0
M  V30 350 H 28.5822 1.0492 6.47555 0
M  V30 351 H 28.4992 2.67471 7.07103 0
M  V30 352 H 29.7672 1.62211 7.62435 0
M  V30 353 N 33.9963 -1.19345 1.0293 0
M  V30 354 C 34.9593 -2.20793 0.615069 0
M  V30 355 C 35.9593 -1.57553 -0.321533 0
M  V30 356 O 37.1493 -1.73862 -0.108483 0
M  V30 357 C 34.2813 -3.40754 -0.0999222 0
M  V30 358 H 35.4743 -2.58955 1.51269 0
M  V30 359 H 33.0273 -1.3303 0.820534 0
M  V30 360 H 33.7623 -3.0811 -1.01187 0
M  V30 361 H 33.5473 -3.87889 0.57309 0
M  V30 362 H 35.0373 -4.15898 -0.376645 0
M  V30 363 N 35.4744 -0.807222 -1.35358 0
M  V30 364 C 36.6994 -0.399309 -2.0352 0
M  V30 365 C 37.1244 0.981986 -1.60433 0
M  V30 366 O 36.4824 1.63601 -0.781299 0
M  V30 367 C 36.5304 -0.491552 -3.57234 0
M  V30 368 O 35.6344 0.494754 -4.09421 0
M  V30 369 H 34.9754 -0.166682 -0.642739 0
M  V30 370 H 37.5054 -1.09328 -1.72941 0
M  V30 371 H 37.5154 -0.361588 -4.06395 0
M  V30 372 H 36.1904 -1.49907 -3.87944 0
M  V30 373 H 34.7674 0.324977 -3.71481 0
M  V30 374 N 36.9525 1.47285 -0.560781 0
M  V30 375 C 38.2005 2.02064 -0.0379868 0
M  V30 376 C 38.5215 1.43711 1.31803 0
M  V30 377 O 37.7915 0.61362 1.86042 0
M  V30 378 H 36.3715 0.746918 -0.0110531 0
M  V30 379 H 39.0335 1.80648 -0.731598 0
M  V30 380 H 38.1295 3.12064 0.0474463 0
M  V30 381 N 38.4306 0.297415 1.54768 0
M  V30 382 C 39.6606 -0.315165 2.04182 0
M  V30 383 C 40.0686 -1.4834 1.17439 0
M  V30 384 O 39.4116 -1.82695 0.191891 0
M  V30 385 C 39.4736 -0.837583 3.49607 0
M  V30 386 C 39.1376 0.204912 4.5654 0
M  V30 387 C 40.1346 1.03214 5.09552 0
M  V30 388 C 37.8196 0.345578 5.0111 0
M  V30 389 C 39.8136 1.986 6.05671 0
M  V30 390 C 37.5006 1.30289 5.97049 0
M  V30 391 C 38.4986 2.12159 6.49213 0
M  V30 392 O 38.1866 3.06268 7.43273 0
M  V30 393 H 37.9186 -0.0729646 0.672051 0
M  V30 394 H 40.4726 0.433907 2.00765 0
M  V30 395 H 38.7026 -1.63712 3.50336 0
M  V30 396 H 40.3916 -1.36566 3.82236 0
M  V30 397 H 41.1576 0.934312 4.75916 0
M  V30 398 H 37.0366 -0.28171 4.60138 0
M  V30 399 H 40.5806 2.62542 6.46311 0
M  V30 400 H 36.4776 1.40145 6.30103 0
M  V30 401 H 37.2456 3.01205 7.61064 0
M  V30 402 N 39.9087 -1.5758 0.0250728 0
M  V30 403 C 41.1367 -1.9593 -0.664747 0
M  V30 404 C 41.5517 -0.901352 -1.65895 0
M  V30 405 O 40.9087 0.117255 -1.82123 0
M  V30 406 C 40.9597 -3.34342 -1.37468 0
M  V30 407 O 40.6807 -4.36079 -0.420324 0
M  V30 408 C 42.1817 -3.873 -2.1567 0
M  V30 409 H 39.4017 -0.645405 -0.183557 0
M  V30 410 H 41.9457 -2.04329 0.0836372 0
M  V30 411 H 40.1007 -3.27175 -2.0745 0
M  V30 412 H 40.5147 -5.16297 -0.923991 0
M  V30 413 H 41.9887 -4.86504 -2.60803 0
M  V30 414 H 42.4657 -3.21331 -2.99405 0
M  V30 415 H 43.0717 -3.97723 -1.50654 0
M  V30 416 N 41.3868 0.248026 -1.55636 0
M  V30 417 C 42.6338 0.976224 -1.77415 0
M  V30 418 C 42.9618 1.85361 -0.589193 0
M  V30 419 O 42.2168 1.90973 0.427529 0
M  V30 420 C 42.5158 1.86819 -3.04686 0
M  V30 421 C 42.1818 1.14625 -4.36087 0
M  V30 422 C 40.8438 0.946723 -4.71795 0
M  V30 423 C 43.1958 0.634463 -5.17324 0
M  V30 424 C 40.5238 0.223091 -5.86276 0
M  V30 425 C 42.8758 -0.0756959 -6.32555 0
M  V30 426 C 41.5398 -0.286711 -6.66884 0
M  V30 427 H 40.8098 0.357226 -0.649208 0
M  V30 428 H 43.4568 0.246415 -1.89908 0
M  V30 429 H 41.7618 2.66502 -2.872 0
M  V30 430 H 43.4588 2.43329 -3.18735 0
M  V30 431 H 40.0488 1.3117 -4.08035 0
M  V30 432 H 44.2328 0.77616 -4.90193 0
M  V30 433 H 39.4888 0.0491185 -6.1138 0
M  V30 434 H 43.6628 -0.479899 -6.94745 0
M  V30 435 H 41.2898 -0.849389 -7.5544 0
M  V30 436 N 42.8649 1.48995 0.513639 0
M  V30 437 C 44.0929 1.61531 1.29288 0
M  V30 438 C 44.5079 0.281801 1.86685 0
M  V30 439 O 43.8649 -0.731111 1.67215 0
M  V30 440 C 43.9159 2.67449 2.43215 0
M  V30 441 O 43.6369 3.95626 1.88179 0
M  V30 442 C 45.1379 2.90575 3.34785 0
M  V30 443 H 42.3579 0.544165 0.392588 0
M  V30 444 H 44.9019 1.9494 0.617956 0
M  V30 445 H 43.0569 2.36853 3.0656 0
M  V30 446 H 43.4709 4.53868 2.62876 0
M  V30 447 H 44.9449 3.68449 4.11035 0
M  V30 448 H 45.4219 2.00011 3.91015 0
M  V30 449 H 46.0279 3.22538 2.77218 0
M  V30 450 N 44.343 -0.763751 1.37857 0
M  V30 451 C 45.291 -1.89864 1.34367 0
M  V30 452 C 46.285 -1.67816 0.231143 0
M  V30 453 O 47.491 -1.75508 0.399617 0
M  V30 454 H 43.866 -0.624501 0.41893 0
M  V30 455 H 45.837 -1.89925 2.30155 0
M  V30 456 C 44.586 -3.27227 1.1755 0
M  V30 457 H 43.909 -3.44773 2.02414 0
M  V30 458 H 45.349 -4.06911 1.1916 0
M  V30 459 C 43.808 -3.36692 -0.118311 0
M  V30 460 O 44.338 -3.86374 -1.09902 0
M  V30 461 N 42.544 -2.90092 -0.171717 0
M  V30 462 H 42.091 -2.49853 0.627012 0
M  V30 463 H 42.049 -2.96806 -1.03699 0
M  V30 464 N 45.8211 -1.22559 -0.990812 0
M  V30 465 C 47.0511 -1.07623 -1.76355 0
M  V30 466 C 47.4591 0.37601 -1.85426 0
M  V30 467 O 46.8021 1.27228 -1.32509 0
M  V30 468 C 46.8641 -1.61507 -3.21179 0
M  V30 469 C 46.5281 -3.10146 -3.35646 0
M  V30 470 C 47.5251 -4.07553 -3.22796 0
M  V30 471 C 45.2101 -3.49644 -3.60631 0
M  V30 472 C 47.2041 -5.42442 -3.34716 0
M  V30 473 C 44.8911 -4.84682 -3.72192 0
M  V30 474 C 45.8891 -5.8089 -3.59243 0
M  V30 475 O 45.5771 -7.13476 -3.70415 0
M  V30 476 H 45.3091 -0.377745 -0.560611 0
M  V30 477 H 47.8631 -1.62658 -1.25425 0
M  V30 478 H 46.0931 -1.00881 -3.73309 0
M  V30 479 H 47.7821 -1.42202 -3.80175 0
M  V30 480 H 48.5481 -3.78381 -3.03403 0
M  V30 481 H 44.4271 -2.75282 -3.69785 0
M  V30 482 H 47.9711 -6.17518 -3.24526 0
M  V30 483 H 43.8681 -5.13534 -3.91092 0
M  V30 484 H 44.6361 -7.21083 -3.87275 0
M  V30 485 N 47.2992 1.18797 -1.03562 0
M  V30 486 C 48.5292 1.92319 -0.754773 0
M  V30 487 C 48.9372 1.7612 0.691248 0
M  V30 488 O 48.2802 1.08491 1.48241 0
M  V30 489 C 48.3422 3.44284 -1.03484 0
M  V30 490 C 48.0062 3.84258 -2.47376 0
M  V30 491 C 49.0032 3.88459 -3.45537 0
M  V30 492 C 46.6882 4.15701 -2.81954 0
M  V30 493 C 48.6822 4.23545 -4.76328 0
M  V30 494 C 46.3692 4.50458 -4.12954 0
M  V30 495 C 47.3672 4.54356 -5.09951 0
M  V30 496 O 47.0552 4.88305 -6.38603 0
M  V30 497 H 46.7872 0.617527 -0.275021 0
M  V30 498 H 49.3412 1.51683 -1.38497 0
M  V30 499 H 47.5712 3.85135 -0.347513 0
M  V30 500 H 49.2602 3.99049 -0.7426 0
M  V30 501 H 50.0262 3.6431 -3.20162 0
M  V30 502 H 45.9052 4.11847 -2.0713 0
M  V30 503 H 49.4492 4.26502 -5.52035 0
M  V30 504 H 45.3462 4.74067 -4.38099 0
M  V30 505 H 46.1142 5.06227 -6.43177 0
M  V30 506 N 48.7773 0.814389 1.34928 0
M  V30 507 C 49.7103 0.175641 2.27523 0
M  V30 508 C 50.6883 -0.662953 1.48471 0
M  V30 509 O 51.8723 -0.628545 1.77712 0
M  V30 510 C 48.9993 -0.755516 3.30166 0
M  V30 511 C 48.0453 0.00445305 4.265 0
M  V30 512 S 48.8783 1.34582 5.18313 0
M  V30 513 C 50.0343 0.419315 6.24494 0
M  V30 514 H 50.2673 0.960691 2.8135 0
M  V30 515 H 47.8003 0.609846 1.41846 0
M  V30 516 H 49.7583 -1.28723 3.89796 0
M  V30 517 H 48.4193 -1.51402 2.75202 0
M  V30 518 H 47.6123 -0.703077 4.99072 0
M  V30 519 H 47.2143 0.466447 3.7108 0
M  V30 520 H 49.5063 -0.392432 6.76362 0
M  V30 521 H 50.4493 1.11446 6.99275 0
M  V30 522 H 50.8573 0.0115389 5.64499 0
M  V30 523 N 50.2554 -1.46986 0.568584 0
M  V30 524 C 51.4854 -2.0653 0.0539173 0
M  V30 525 C 51.8934 -1.42004 -1.25026 0
M  V30 526 O 51.2364 -0.514541 -1.76347 0
M  V30 527 C 51.2984 -3.58938 -0.200854 0
M  V30 528 C 50.9624 -4.45572 1.01559 0
M  V30 529 C 51.9594 -4.82986 1.92407 0
M  V30 530 C 49.6444 -4.8692 1.23346 0
M  V30 531 C 51.6384 -5.60559 3.03402 0
M  V30 532 C 49.3254 -5.64255 2.34649 0
M  V30 533 C 50.3234 -6.00986 3.24507 0
M  V30 534 O 50.0114 -6.76761 4.33878 0
M  V30 535 H 49.7434 -0.674292 0.0480234 0
M  V30 536 H 52.2974 -1.89812 0.784896 0
M  V30 537 H 50.5274 -3.73911 -0.986279 0
M  V30 538 H 52.2164 -4.0046 -0.662294 0
M  V30 539 H 52.9824 -4.51633 1.76785 0
M  V30 540 H 48.8614 -4.57789 0.543178 0
M  V30 541 H 52.4054 -5.89147 3.73565 0
M  V30 542 H 48.3024 -5.95021 2.5024 0
M  V30 543 H 49.0704 -6.95168 4.32068 0
M  V30 544 N 51.7335 -0.305618 -1.54608 0
M  V30 545 C 52.9795 0.295595 -2.01241 0
M  V30 546 C 53.3345 1.51171 -1.19018 0
M  V30 547 O 52.6275 1.89832 -0.259684 0
M  V30 548 C 52.8215 0.698983 -3.50498 0
M  V30 549 C 52.6505 -0.476491 -4.47168 0
M  V30 550 C 51.4205 -0.969963 -4.95903 0
M  V30 551 C 53.6185 -1.32294 -4.96994 0
M  V30 552 N 51.6005 -2.11172 -5.76437 0
M  V30 553 C 52.9715 -2.31212 -5.75275 0
M  V30 554 C 55.0265 -1.35278 -4.7917 0
M  V30 555 C 53.7295 -3.32896 -6.37631 0
M  V30 556 C 55.7555 -2.35823 -5.42348 0
M  V30 557 C 55.1175 -3.33469 -6.20466 0
M  V30 558 H 51.2165 0.0724992 -0.778632 0
M  V30 559 H 53.8005 -0.436583 -1.89742 0
M  V30 560 H 51.9715 1.40032 -3.62278 0
M  V30 561 H 53.7035 1.28013 -3.8392 0
M  V30 562 H 50.4585 -0.544178 -4.70463 0
M  V30 563 H 50.8825 -2.68714 -6.21387 0
M  V30 564 H 55.5245 -0.61157 -4.18354 0
M  V30 565 H 53.2425 -4.07933 -6.97579 0
M  V30 566 H 56.8285 -2.38911 -5.30484 0
M  V30 567 H 55.7085 -4.09996 -6.68485 0
M  V30 568 N 53.2116 1.57565 -0.0334293 0
M  V30 569 C 54.4576 1.92262 0.645226 0
M  V30 570 C 54.7906 0.910543 1.71531 0
M  V30 571 O 54.0656 -0.066099 1.94388 0
M  V30 572 C 54.3486 3.37422 1.2577 0
M  V30 573 C 54.2016 4.49369 0.196891 0
M  V30 574 C 55.5206 3.82628 2.17449 0
M  V30 575 H 52.6396 0.699171 0.233085 0
M  V30 576 H 55.2816 1.89779 -0.0915694 0
M  V30 577 H 53.4316 3.39669 1.88566 0
M  V30 578 H 55.1036 4.59254 -0.433962 0
M  V30 579 H 53.3466 4.31168 -0.477137 0
M  V30 580 H 54.0176 5.47978 0.665124 0
M  V30 581 H 56.4936 3.82145 1.64634 0
M  V30 582 H 55.3696 4.84883 2.57254 0
M  V30 583 H 55.6306 3.18376 3.0674 0
M  V30 584 N 54.6897 -0.239769 1.55765 0
M  V30 585 C 56.1057 -0.588624 1.48349 0
M  V30 586 C 56.3057 -1.88005 0.72502 0
M  V30 587 O 55.3617 -2.51186 0.257269 0
M  V30 588 C 56.6747 -0.68474 2.928 0
M  V30 589 C 58.2227 -0.77659 3.03213 0
M  V30 590 C 58.6977 -0.904207 4.48986 0
M  V30 591 N 60.1887 -0.968896 4.52953 0
M  V30 592 C 60.9237 -1.08703 5.63002 0
M  V30 593 N 60.4197 -1.17026 6.82845 0
M  V30 594 N 62.2127 -1.12074 5.50814 0
M  V30 595 H 54.3637 0.607911 2.03515 0
M  V30 596 H 56.6267 0.21083 0.924259 0
M  V30 597 H 56.3327 0.194284 3.51163 0
M  V30 598 H 56.2067 -1.55435 3.43686 0
M  V30 599 H 58.5937 -1.64606 2.44926 0
M  V30 600 H 58.6747 0.118315 2.55526 0
M  V30 601 H 58.3187 -0.0392633 5.07885 0
M  V30 602 H 58.2487 -1.81426 4.9436 0
M  V30 603 H 60.7397 -0.915633 3.6664 0
M  V30 604 H 61.0527 -1.25966 7.62465 0
M  V30 605 H 59.3977 -1.13971 6.85591 0
M  V30 606 H 62.5887 -1.05226 4.5612 0
M  V30 607 H 62.7617 -1.20936 6.36615 0
M  V30 608 N 56.1678 -1.49265 -0.50573 0
M  V30 609 C 57.0998 -1.617 -1.62437 0
M  V30 610 C 58.1128 -0.499924 -1.54934 0
M  V30 611 O 59.3018 -0.771785 -1.60953 0
M  V30 612 C 56.4018 -1.5533 -3.01207 0
M  V30 613 C 55.5748 -2.8249 -3.33943 0
M  V30 614 C 54.6338 -2.69238 -4.52103 0
M  V30 615 O 53.6598 -3.43167 -4.5412 0
M  V30 616 N 54.8618 -1.80468 -5.51735 0
M  V30 617 H 57.6268 -2.58177 -1.52199 0
M  V30 618 H 55.1878 -1.46294 -0.693511 0
M  V30 619 H 57.1798 -1.44125 -3.78167 0
M  V30 620 H 55.7498 -0.667297 -3.05395 0
M  V30 621 H 54.9698 -3.08081 -2.45926 0
M  V30 622 H 56.2578 -3.66802 -3.5261 0
M  V30 623 H 55.6558 -1.19653 -5.52901 0
M  V30 624 H 54.2128 -1.75188 -6.27816 0
M  V30 625 N 57.6459 0.756429 -1.3826 0
M  V30 626 C 58.6089 1.85176 -1.35065 0
M  V30 627 C 59.6089 1.58818 -0.251703 0
M  V30 628 O 60.7989 1.66615 -0.508433 0
M  V30 629 C 57.9309 3.22596 -1.10201 0
M  V30 630 H 59.1239 1.89417 -2.3251 0
M  V30 631 H 56.6769 0.95783 -1.23512 0
M  V30 632 H 57.4119 3.24025 -0.133504 0
M  V30 633 H 57.1969 3.43122 -1.89762 0
M  V30 634 H 58.6869 4.02673 -1.10654 0
M  V30 635 N 59.124 1.23083 0.984299 0
M  V30 636 C 60.535 1.05609 1.5396 0
M  V30 637 C 60.886 -0.377793 1.92528 0
M  V30 638 O 60.011 -1.26398 1.75649 0
M  V30 639 C 60.606 1.91087 2.7977 0
M  V30 640 C 59.165 1.77885 3.31713 0
M  V30 641 C 58.312 1.87028 2.04733 0
M  V30 642 H 61.263 1.36802 0.804419 0
M  V30 643 H 61.284 1.43336 3.5247 0
M  V30 644 H 60.796 2.9544 2.51668 0
M  V30 645 H 58.897 0.762995 3.64704 0
M  V30 646 H 59.01 2.61047 4.01735 0
M  V30 647 H 57.374 1.30565 2.18689 0
M  V30 648 H 58.157 2.92929 1.79017 0
M  V30 649 N 60.6021 -1.18246 1.0419 0
M  V30 650 C 61.8501 -1.87886 0.744543 0
M  V30 651 C 62.1711 -1.8082 -0.730006 0
M  V30 652 O 61.4411 -1.22736 -1.52685 0
M  V30 653 H 60.0211 -0.695556 0.272417 0
M  V30 654 H 62.6831 -1.43494 1.31892 0
M  V30 655 H 61.7791 -2.9389 1.05049 0
M  V30 656 N 62.0802 -0.821533 -1.34494 0
M  V30 657 C 63.0122 -0.199946 -2.28326 0
M  V30 658 C 64.0252 0.609377 -1.50965 0
M  V30 659 O 65.2142 0.439285 -1.7301 0
M  V30 660 C 62.3142 0.738431 -3.30757 0
M  V30 661 C 61.4872 -0.0277632 -4.37391 0
M  V30 662 C 60.5462 0.831332 -5.19591 0
M  V30 663 O 59.5722 0.276822 -5.68526 0
M  V30 664 N 60.7742 2.15132 -5.39165 0
M  V30 665 H 63.5392 -1.00609 -2.82308 0
M  V30 666 H 61.1002 -0.678366 -1.47003 0
M  V30 667 H 63.0922 1.31773 -3.82646 0
M  V30 668 H 61.6622 1.44533 -2.7718 0
M  V30 669 H 60.8822 -0.788359 -3.86236 0
M  V30 670 H 62.1702 -0.555251 -5.05761 0
M  V30 671 H 61.5682 2.62559 -5.01078 0
M  V30 672 H 60.1252 2.6795 -5.94177 0
M  V30 673 N 63.5583 1.46682 -0.576371 0
M  V30 674 C 64.8063 2.02013 -0.0594163 0
M  V30 675 C 65.1273 1.45101 1.30271 0
M  V30 676 O 64.3973 0.633317 1.8538 0
M  V30 677 H 62.9773 0.746759 -0.0189745 0
M  V30 678 H 65.6393 1.79862 -0.750717 0
M  V30 679 H 64.7353 3.12097 0.014345 0
M  V30 680 N 65.0364 0.313813 1.54444 0
M  V30 681 C 65.9664 -0.549454 2.26943 0
M  V30 682 C 66.9474 -1.12741 1.27372 0
M  V30 683 O 68.1324 -1.15436 1.56167 0
M  V30 684 C 65.2624 -1.71523 3.01989 0
M  V30 685 C 64.2164 -1.26703 4.08816 0
M  V30 686 C 63.5424 -2.51898 4.71647 0
M  V30 687 C 64.8424 -0.388962 5.2085 0
M  V30 688 H 66.5364 0.0552661 2.99349 0
M  V30 689 H 64.0824 0.0280207 1.43973 0
M  V30 690 H 66.0354 -2.32535 3.51433 0
M  V30 691 H 64.7594 -2.34639 2.27183 0
M  V30 692 H 63.4184 -0.679896 3.6024 0
M  V30 693 H 63.0664 -3.13356 3.93468 0
M  V30 694 H 62.7664 -2.22605 5.43802 0
M  V30 695 H 64.2904 -3.1369 5.23861 0
M  V30 696 H 65.7044 -0.905107 5.6611 0
M  V30 697 H 64.1014 -0.18924 5.99802 0
M  V30 698 H 65.1714 0.582699 4.81386 0
M  V30 699 N 66.5145 -1.57545 0.0417849 0
M  V30 700 C 67.4245 -2.14451 -0.951213 0
M  V30 701 C 68.4405 -1.09992 -1.34825 0
M  V30 702 O 69.6165 -1.42114 -1.42708 0
M  V30 703 C 66.6815 -2.67063 -2.21084 0
M  V30 704 C 65.7425 -3.86284 -1.87304 0
M  V30 705 C 64.9755 -4.36378 -3.07261 0
M  V30 706 O 65.1985 -3.85587 -4.20332 0
M  V30 707 O 64.1325 -5.28077 -2.88822 0
M  V30 708 H 67.9585 -2.99601 -0.497287 0
M  V30 709 H 65.5435 -1.48317 -0.179567 0
M  V30 710 H 67.4255 -3.00914 -2.95006 0
M  V30 711 H 66.1005 -1.84989 -2.65633 0
M  V30 712 H 65.0075 -3.57338 -1.10727 0
M  V30 713 H 66.3405 -4.6956 -1.47562 0
M  V30 714 N 67.9926 0.231505 -1.5589 0
M  V30 715 C 69.2386 0.954429 -1.79617 0
M  V30 716 C 69.5936 1.82367 -0.613199 0
M  V30 717 O 68.8866 1.87524 0.393094 0
M  V30 718 C 69.0806 1.83577 -3.0665 0
M  V30 719 C 68.9096 1.05334 -4.3719 0
M  V30 720 C 67.6796 0.75225 -4.99669 0
M  V30 721 C 69.8776 0.423444 -5.12554 0
M  V30 722 N 67.8596 -0.052627 -6.13877 0
M  V30 723 C 69.2306 -0.245287 -6.19515 0
M  V30 724 C 71.2856 0.335466 -4.96769 0
M  V30 725 C 69.9886 -0.993566 -7.12405 0
M  V30 726 C 72.0146 -0.399321 -5.9005 0
M  V30 727 C 71.3766 -1.05663 -6.9643 0
M  V30 728 H 67.4756 0.329846 -0.709031 0
M  V30 729 H 70.0596 0.226172 -1.93382 0
M  V30 730 H 68.2306 2.53592 -2.94186 0
M  V30 731 H 69.9626 2.49541 -3.18608 0
M  V30 732 H 66.7176 1.06783 -4.61405 0
M  V30 733 H 67.1416 -0.443609 -6.75545 0
M  V30 734 H 71.7836 0.829311 -4.14587 0
M  V30 735 H 69.5016 -1.49896 -7.94076 0
M  V30 736 H 73.0876 -0.468265 -5.79913 0
M  V30 737 H 71.9676 -1.61612 -7.67366 0
M  V30 738 N 69.4707 1.49531 0.497807 0
M  V30 739 C 70.4037 1.61043 1.6168 0
M  V30 740 C 71.3817 0.459386 1.55976 0
M  V30 741 O 72.5657 0.675358 1.75986 0
M  V30 742 C 69.6927 1.56833 3.00202 0
M  V30 743 C 68.7387 2.77173 3.24156 0
M  V30 744 S 69.5717 4.38808 3.06933 0
M  V30 745 C 70.7277 4.37248 4.47845 0
M  V30 746 H 70.9607 2.55702 1.51671 0
M  V30 747 H 68.4937 1.38462 0.683201 0
M  V30 748 H 70.4517 1.55089 3.80076 0
M  V30 749 H 69.1127 0.634561 3.07623 0
M  V30 750 H 68.3057 2.70456 4.25288 0
M  V30 751 H 67.9077 2.76346 2.5201 0
M  V30 752 H 70.1997 4.09164 5.39992 0
M  V30 753 H 71.1427 5.38668 4.59612 0
M  V30 754 H 71.5507 3.67286 4.28674 0
M  V30 755 N 70.9488 -0.749086 1.3866 0
M  V30 756 C 72.1968 -1.50535 1.34847 0
M  V30 757 C 72.5178 -1.94909 -0.0595016 0
M  V30 758 O 71.7878 -1.67973 -1.00806 0
M  V30 759 H 70.3678 -0.558395 0.49619 0
M  V30 760 H 73.0298 -0.890165 1.73384 0
M  V30 761 H 72.1258 -2.39413 2.00219 0
M  V30 762 N 72.4269 -1.23603 -0.977757 0
M  V30 763 C 73.6749 -1.06759 -1.71601 0
M  V30 764 C 73.9959 0.395929 -1.90938 0
M  V30 765 O 73.2659 1.28356 -1.47992 0
M  V30 766 H 71.8459 -0.392062 -0.635843 0
M  V30 767 H 74.5079 -1.55362 -1.1768 0
M  V30 768 H 73.6039 -1.55763 -2.70452 0
M  V30 769 N 73.905 1.17692 -1.04816 0
M  V30 770 C 75.154 1.87192 -0.751132 0
M  V30 771 C 75.467 1.8169 0.724441 0
M  V30 772 O 76.673 2.46625 1.13527 0
M  V30 773 C 75.129 3.35857 -1.29338 0
M  V30 774 C 74.737 3.4987 -2.79812 0
M  V30 775 C 76.481 4.10709 -1.07322 0
M  V30 776 C 74.388 4.92536 -3.27356 0
M  V30 777 H 73.318 0.701162 -0.277288 0
M  V30 778 H 75.969 1.32932 -1.26496 0
M  V30 779 H 74.351 3.89631 -0.707376 0
M  V30 780 H 75.525 3.06332 -3.44235 0
M  V30 781 H 73.84 2.88433 -3.00325 0
M  V30 782 H 76.437 5.15952 -1.4035 0
M  V30 783 H 76.78 4.16299 -0.0108001 0
M  V30 784 H 77.313 3.6313 -1.62423 0
M  V30 785 H 74.052 4.92119 -4.33012 0
M  V30 786 H 73.572 5.3676 -2.67673 0
M  V30 787 H 75.251 5.61288 -3.21815 0
M  V30 788 N 75.3831 0.828654 1.34056 0
M  V30 789 C 76.3311 0.242973 2.31327 0
M  V30 790 C 77.3251 -0.61944 1.57668 0
M  V30 791 O 78.5311 -0.51014 1.7262 0
M  V30 792 H 74.9061 0.059834 0.749616 0
M  V30 793 H 76.8771 1.07809 2.78244 0
M  V30 794 C 75.6261 -0.575733 3.429 0
M  V30 795 H 74.9491 0.0785582 3.99723 0
M  V30 796 H 76.3891 -0.951547 4.13185 0
M  V30 797 C 74.8481 -1.75044 2.87856 0
M  V30 798 O 75.3781 -2.84882 2.83205 0
M  V30 799 N 73.5841 -1.56903 2.44602 0
M  V30 800 H 73.1311 -0.675547 2.48584 0
M  V30 801 H 73.0891 -2.35652 2.08124 0
M  V30 802 N 76.8612 -1.46375 0.584142 0
M  V30 803 C 78.2722 -1.86031 0.157959 0
M  V30 804 C 78.6232 -1.48753 -1.27933 0
M  V30 805 O 77.7482 -0.903098 -1.96655 0
M  V30 806 C 78.3432 -3.37642 0.279892 0
M  V30 807 C 76.9022 -3.76289 -0.09143 0
M  V30 808 C 76.0492 -2.7039 0.615178 0
M  V30 809 H 79.0002 -1.37509 0.792274 0
M  V30 810 H 79.0212 -3.77275 -0.494364 0
M  V30 811 H 78.5332 -3.64742 1.32607 0
M  V30 812 H 76.6342 -3.54806 -1.13769 0
M  V30 813 H 76.7472 -4.78246 0.285886 0
M  V30 814 H 75.1112 -2.5464 0.0552833 0
M  V30 815 H 75.8942 -3.0033 1.66303 0
M  V30 816 N 78.3393 -0.321999 -1.54275 0
M  V30 817 C 79.5643 0.285791 -2.05422 0
M  V30 818 C 79.9893 1.45124 -1.19669 0
M  V30 819 O 79.3473 1.80132 -0.205441 0
M  V30 820 C 79.3953 0.69956 -3.53749 0
M  V30 821 O 78.4993 1.8021 -3.70942 0
M  V30 822 H 77.8403 0.0518962 -0.661969 0
M  V30 823 H 80.3703 -0.469954 -1.9913 0
M  V30 824 H 80.3803 0.982649 -3.9599 0
M  V30 825 H 79.0553 -0.152864 -4.15619 0
M  V30 826 H 77.6323 1.51794 -3.40607 0
M  V30 827 N 79.8174 1.5752 -0.0501392 0
M  V30 828 C 80.7654 2.12651 0.942459 0
M  V30 829 C 81.7594 1.05807 1.32292 0
M  V30 830 O 82.9654 1.24217 1.3027 0
M  V30 831 H 79.3404 0.679673 0.321789 0
M  V30 832 H 81.3114 2.94951 0.452356 0
M  V30 833 C 80.0604 2.68565 2.20836 0
M  V30 834 H 79.3834 3.50439 1.92439 0
M  V30 835 H 80.8234 3.10761 2.8845 0
M  V30 836 C 79.2824 1.62291 2.95234 0
M  V30 837 O 79.8124 1.03508 3.88135 0
M  V30 838 N 78.0184 1.33836 2.57946 0
M  V30 839 H 77.5654 1.81826 1.82475 0
M  V30 840 H 77.5234 0.629595 3.08032 0
M  V30 841 N 81.2955 -0.223234 1.56011 0
M  V30 842 C 82.5435 -0.946003 1.78592 0
M  V30 843 C 82.8645 -1.84936 0.618349 0
M  V30 844 O 82.1345 -1.92473 -0.364833 0
M  V30 845 H 80.7145 -0.352298 0.658707 0
M  V30 846 H 83.3765 -0.235494 1.93472 0
M  V30 847 H 82.4725 -1.55381 2.70672 0
M  V30 848 N 82.7736 -1.49793 -0.48987 0
M  V30 849 C 84.0216 -1.59525 -1.24081 0
M  V30 850 C 84.3426 -0.288953 -1.92847 0
M  V30 851 O 83.6126 0.692436 -1.83254 0
M  V30 852 H 82.1926 -0.587796 -0.460983 0
M  V30 853 H 84.8546 -1.86477 -0.566778 0
M  V30 854 H 83.9506 -2.39696 -1.99881 0
M  V30 855 N 84.2517 0.741722 -1.39055 0
M  V30 856 C 85.4797 1.53098 -1.39171 0
M  V30 857 C 85.8947 1.88794 0.0155099 0
M  V30 858 O 85.2517 1.53626 0.985159 0
M  V30 859 C 85.3027 2.82274 -2.2584 0
M  V30 860 O 85.0237 2.48097 -3.61081 0
M  V30 861 C 86.5247 3.76343 -2.34266 0
M  V30 862 H 83.7447 0.473335 -0.4756 0
M  V30 863 H 86.2887 0.917045 -1.82785 0
M  V30 864 H 84.4437 3.40015 -1.85656 0
M  V30 865 H 84.8577 3.31029 -4.06842 0
M  V30 866 H 86.3317 4.63898 -2.9917 0
M  V30 867 H 86.8087 4.17619 -1.35982 0
M  V30 868 H 87.4147 3.24523 -2.74891 0
M  V30 869 N 85.7298 1.2412 0.971189 0
M  V30 870 C 86.6778 1.02812 2.08644 0
M  V30 871 C 87.6718 -0.0358403 1.69362 0
M  V30 872 O 88.8778 0.118429 1.7961 0
M  V30 873 H 85.2528 0.315428 0.682649 0
M  V30 874 H 87.2238 1.97397 2.23779 0
M  V30 875 C 85.9728 0.645874 3.41649 0
M  V30 876 H 85.2958 1.45632 3.72332 0
M  V30 877 H 86.7358 0.536366 4.20594 0
M  V30 878 C 85.1948 -0.646713 3.30635 0
M  V30 879 O 85.7248 -1.69338 3.64263 0
M  V30 880 N 83.9308 -0.626115 2.83775 0
M  V30 881 H 83.4778 0.225988 2.56607 0
M  V30 882 H 83.4358 -1.49117 2.76788 0
M  V30 883 N 87.2079 -1.17134 1.05439 0
M  V30 884 C 88.4549 -1.87456 0.765942 0
M  V30 885 C 88.7829 -1.81189 -0.707153 0
M  V30 886 O 88.0379 -1.21633 -1.5331 0
M  V30 887 C 88.3369 -3.36833 1.19491 0
M  V30 888 C 88.0029 -3.63301 2.67063 0
M  V30 889 C 86.6649 -3.70234 3.07376 0
M  V30 890 C 89.0169 -3.74575 3.62413 0
M  V30 891 C 86.3449 -3.85933 4.41896 0
M  V30 892 C 88.6969 -3.91793 4.9667 0
M  V30 893 C 87.3609 -3.96966 5.36633 0
M  V30 894 H 86.6309 -0.685948 0.280278 0
M  V30 895 H 89.2779 -1.38556 1.32192 0
M  V30 896 H 87.5829 -3.87807 0.557969 0
M  V30 897 H 89.2799 -3.89611 0.948893 0
M  V30 898 H 85.8699 -3.58532 2.34846 0
M  V30 899 H 90.0539 -3.68537 3.32406 0
M  V30 900 H 85.3099 -3.88187 4.72357 0
M  V30 901 H 89.4839 -3.99458 5.70444 0
M  V30 902 H 87.1109 -4.08883 6.40874 0
M  V30 903 N 88.686 -0.835752 -1.33615 0
M  V30 904 C 89.634 -0.255238 -2.31195 0
M  V30 905 C 90.628 0.61107 -1.57995 0
M  V30 906 O 91.834 0.500979 -1.72888 0
M  V30 907 H 88.209 -0.0638085 -0.749288 0
M  V30 908 H 90.18 -1.09283 -2.77669 0
M  V30 909 C 88.929 0.55754 -3.43201 0
M  V30 910 H 88.252 -0.0997553 -3.99676 0
M  V30 911 H 89.692 0.929622 -4.13683 0
M  V30 912 C 88.151 1.73515 -2.88781 0
M  V30 913 O 88.681 2.83376 -2.84712 0
M  V30 914 N 86.887 1.55603 -2.4543 0
M  V30 915 H 86.434 0.662354 -2.48939 0
M  V30 916 H 86.392 2.34545 -2.09371 0
M  V30 917 N 90.1641 1.46063 -0.591896 0
M  V30 918 C 91.0741 2.34192 0.13831 0
M  V30 919 C 92.0901 1.50305 0.876608 0
M  V30 920 O 93.2661 1.8315 0.837728 0
M  V30 921 C 90.3311 3.27656 1.13326 0
M  V30 922 C 89.3921 4.27445 0.39863 0
M  V30 923 C 88.6251 5.16443 1.34618 0
M  V30 924 O 88.8481 5.08553 2.58321 0
M  V30 925 O 87.7821 5.95843 0.851768 0
M  V30 926 H 91.6081 2.98002 -0.58552 0
M  V30 927 H 89.1931 1.45188 -0.352239 0
M  V30 928 H 91.0751 3.85291 1.70671 0
M  V30 929 H 89.7501 2.6643 1.83839 0
M  V30 930 H 88.6571 3.73471 -0.216895 0
M  V30 931 H 89.9901 4.91482 -0.265709 0
M  V30 932 N 91.6422 0.330177 1.54103 0
M  V30 933 C 92.5892 -0.532762 2.24567 0
M  V30 934 C 93.5592 -1.10635 1.23892 0
M  V30 935 O 94.7442 -1.14546 1.5259 0
M  V30 936 C 91.8842 -1.6845 3.01195 0
M  V30 937 C 90.9972 -1.13951 4.167 0
M  V30 938 C 90.1322 -2.25746 4.80845 0
M  V30 939 C 89.1712 -1.6853 5.88442 0
M  V30 940 N 88.3082 -2.74014 6.46421 0
M  V30 941 H 93.1482 0.0746905 2.97906 0
M  V30 942 H 90.6852 0.048632 1.4702 0
M  V30 943 H 92.6432 -2.36234 3.43874 0
M  V30 944 H 91.2732 -2.26314 2.30178 0
M  V30 945 H 90.3252 -0.35301 3.78758 0
M  V30 946 H 91.6372 -0.680892 4.94131 0
M  V30 947 H 90.7912 -3.01422 5.26526 0
M  V30 948 H 89.5302 -2.74947 4.0281 0
M  V30 949 H 88.5352 -0.913543 5.42157 0
M  V30 950 H 89.7602 -1.20198 6.68378 0
M  V30 951 H 87.7062 -3.22494 5.71256 0
M  V30 952 H 87.6232 -2.32735 7.19285 0
M  V30 953 H 88.8912 -3.49499 6.96757 0
M  V30 954 N 93.1203 -1.57491 0.0584922 0
M  V30 955 C 94.3673 -1.92978 -0.613648 0
M  V30 956 C 94.6953 -0.937461 -1.70417 0
M  V30 957 O 93.9503 0.049078 -1.95638 0
M  V30 958 C 94.2493 -3.3513 -1.24188 0
M  V30 959 C 93.9153 -4.50037 -0.278826 0
M  V30 960 C 92.5773 -4.81198 -0.0138447 0
M  V30 961 C 94.9293 -5.19807 0.380777 0
M  V30 962 C 92.2573 -5.79473 0.918052 0
M  V30 963 C 94.6093 -6.19079 1.30091 0
M  V30 964 C 93.2733 -6.48665 1.57449 0
M  V30 965 H 92.5433 -0.706157 -0.22455 0
M  V30 966 H 95.1903 -1.91082 0.126533 0
M  V30 967 H 93.4953 -3.33429 -2.05749 0
M  V30 968 H 95.1923 -3.59871 -1.769 0
M  V30 969 H 91.7823 -4.25726 -0.495539 0
M  V30 970 H 95.9663 -4.95939 0.189158 0
M  V30 971 H 91.2223 -6.00727 1.1374 0
M  V30 972 H 95.3963 -6.7225 1.81804 0
M  V30 973 H 93.0233 -7.24628 2.29822 0
M  V30 974 N 94.5984 0.214957 -1.56127 0
M  V30 975 C 95.5454 1.26642 -1.92952 0
M  V30 976 C 96.5154 1.46244 -0.78753 0
M  V30 977 O 97.7004 1.59704 -1.04399 0
M  V30 978 C 94.8404 2.6104 -2.25726 0
M  V30 979 C 93.9534 2.49183 -3.52891 0
M  V30 980 C 93.0884 3.76149 -3.7508 0
M  V30 981 C 92.1274 3.59041 -4.95738 0
M  V30 982 N 91.2644 4.77972 -5.14283 0
M  V30 983 H 96.1044 0.945384 -2.82607 0
M  V30 984 H 93.6414 0.455489 -1.3987 0
M  V30 985 H 95.5994 3.39313 -2.42739 0
M  V30 986 H 94.2294 2.91227 -1.39236 0
M  V30 987 H 93.2814 1.6231 -3.44034 0
M  V30 988 H 94.5934 2.32466 -4.41318 0
M  V30 989 H 93.7474 4.62865 -3.92226 0
M  V30 990 H 92.4864 3.95799 -2.84947 0
M  V30 991 H 91.4914 2.7071 -4.78535 0
M  V30 992 H 92.7164 3.40856 -5.87362 0
M  V30 993 H 90.6624 4.97923 -4.27093 0
M  V30 994 H 90.5794 4.64006 -5.96853 0
M  V30 995 H 91.8474 5.66096 -5.35869 0
M  V30 996 N 96.0765 1.50051 0.48192 0
M  V30 997 C 97.0245 1.68635 1.60203 0
M  V30 998 C 98.0185 0.552184 1.60148 0
M  V30 999 O 99.2245 0.732377 1.64427 0
M  V30 1000 H 95.5995 0.532081 0.531407 0
M  V30 1001 H 97.5705 2.62616 1.41688 0
M  V30 1002 C 96.3195 1.78775 2.9822 0
M  V30 1003 H 95.6425 2.6543 2.98976 0
M  V30 1004 H 97.0825 1.95806 3.7608 0
M  V30 1005 C 95.5415 0.536849 3.32595 0
M  V30 1006 O 96.0715 -0.328897 4.00351 0
M  V30 1007 N 94.2775 0.394091 2.87915 0
M  V30 1008 H 93.8245 1.09962 2.32951 0
M  V30 1009 H 93.7825 -0.441737 3.11281 0
M  V30 1010 N 97.5546 -0.734337 1.39446 0
M  V30 1011 C 98.9706 -1.03997 1.21065 0
M  V30 1012 C 99.1706 -2.01369 0.0727019 0
M  V30 1013 O 98.2266 -2.45856 -0.575426 0
M  V30 1014 C 99.5396 -1.60163 2.54496 0
M  V30 1015 C 101.088 -1.7224 2.61347 0
M  V30 1016 C 101.563 -2.31814 3.95002 0
M  V30 1017 N 103.054 -2.39223 3.96644 0
M  V30 1018 C 103.789 -2.86258 4.96834 0
M  V30 1019 N 103.285 -3.33184 6.07421 0
M  V30 1020 N 105.078 -2.85473 4.84213 0
M  V30 1021 H 97.2286 -0.0885624 2.12215 0
M  V30 1022 H 99.4916 -0.10191 0.942506 0
M  V30 1023 H 99.1976 -0.960811 3.38321 0
M  V30 1024 H 99.0716 -2.5896 2.74262 0
M  V30 1025 H 101.459 -2.35443 1.77906 0
M  V30 1026 H 101.54 -0.720939 2.4543 0
M  V30 1027 H 101.184 -1.69238 4.78875 0
M  V30 1028 H 101.114 -3.32638 4.08239 0
M  V30 1029 H 103.605 -2.06057 3.16779 0
M  V30 1030 H 103.918 -3.67586 6.7978 0
M  V30 1031 H 102.263 -3.31191 6.11013 0
M  V30 1032 H 105.454 -2.48136 3.96921 0
M  V30 1033 H 105.627 -3.21814 5.62441 0
M  V30 1034 N 99.0327 -1.24633 -0.964593 0
M  V30 1035 C 100.279 -1.08949 -1.71049 0
M  V30 1036 C 100.612 0.370302 -1.90637 0
M  V30 1037 O 99.8867 1.27349 -1.47011 0
M  V30 1038 C 100.17 -1.83329 -3.0994 0
M  V30 1039 C 100.023 -3.37077 -2.97824 0
M  V30 1040 C 101.342 -1.60846 -4.09654 0
M  V30 1041 H 98.4607 -0.397178 -0.620821 0
M  V30 1042 H 101.103 -1.5334 -1.12191 0
M  V30 1043 H 99.2527 -1.45597 -3.60186 0
M  V30 1044 H 100.925 -3.84425 -2.5498 0
M  V30 1045 H 99.1677 -3.65298 -2.33965 0
M  V30 1046 H 99.8387 -3.84324 -3.96231 0
M  V30 1047 H 102.315 -1.93674 -3.68279 0
M  V30 1048 H 101.191 -2.1534 -5.04896 0
M  V30 1049 H 101.452 -0.547434 -4.38698 0
M  V30 1050 N 100.511 1.16574 -1.06058 0
M  V30 1051 C 101.739 1.90952 -0.796552 0
M  V30 1052 C 102.154 1.77302 0.648808 0
M  V30 1053 O 101.511 1.11605 1.44397 0
M  V30 1054 C 101.562 3.41736 -1.17894 0
M  V30 1055 O 101.283 3.54975 -2.56758 0
M  V30 1056 C 102.784 4.33169 -0.942308 0
M  V30 1057 H 100.004 0.605594 -0.288959 0
M  V30 1058 H 102.548 1.47777 -1.41358 0
M  V30 1059 H 100.703 3.82623 -0.606491 0
M  V30 1060 H 101.117 4.4846 -2.72 0
M  V30 1061 H 102.591 5.37439 -1.25952 0
M  V30 1062 H 103.068 4.3903 0.122078 0
M  V30 1063 H 103.674 3.98007 -1.49902 0
M  V30 1064 N 101.989 0.842826 1.3317 0
M  V30 1065 C 102.919 0.294028 2.31641 0
M  V30 1066 C 103.9 -0.600401 1.59151 0
M  V30 1067 O 105.085 -0.523124 1.87022 0
M  V30 1068 C 102.215 -0.528416 3.43257 0
M  V30 1069 C 101.169 0.27056 4.27144 0
M  V30 1070 C 100.495 -0.675881 5.30411 0
M  V30 1071 C 101.795 1.48981 5.00602 0
M  V30 1072 H 103.489 1.11681 2.77791 0
M  V30 1073 H 101.035 0.538478 1.33553 0
M  V30 1074 H 102.988 -0.922674 4.11175 0
M  V30 1075 H 101.712 -1.38445 2.95805 0
M  V30 1076 H 100.371 0.646427 3.60856 0
M  V30 1077 H 100.019 -1.52842 4.79216 0
M  V30 1078 H 99.7189 -0.145374 5.8742 0
M  V30 1079 H 101.243 -1.06757 6.01195 0
M  V30 1080 H 102.657 1.16849 5.61266 0
M  V30 1081 H 101.054 1.95739 5.6728 0
M  V30 1082 H 102.124 2.25746 4.29147 0
M  V30 1083 N 103.467 -1.45747 0.599634 0
M  V30 1084 C 104.695 -2.06668 0.0978551 0
M  V30 1085 C 105.11 -1.44562 -1.21439 0
M  V30 1086 O 104.467 -0.556923 -1.73795 0
M  V30 1087 C 104.518 -3.61456 -0.0567044 0
M  V30 1088 O 104.239 -4.21242 1.20361 0
M  V30 1089 C 105.74 -4.39345 -0.590869 0
M  V30 1090 H 102.96 -0.667825 0.0651943 0
M  V30 1091 H 105.504 -1.87115 0.82511 0
M  V30 1092 H 103.659 -3.80378 -0.734251 0
M  V30 1093 H 104.073 -5.14323 1.02821 0
M  V30 1094 H 105.547 -5.48182 -0.648131 0
M  V30 1095 H 106.024 -4.08568 -1.61147 0
M  V30 1096 H 106.63 -4.25268 0.0523679 0
M  V30 1097 N 104.945 -0.338344 -1.53925 0
M  V30 1098 C 106.173 0.261298 -2.05243 0
M  V30 1099 C 106.588 1.44625 -1.21363 0
M  V30 1100 O 105.945 1.80811 -0.247736 0
M  V30 1101 C 105.996 0.681412 -3.5502 0
M  V30 1102 O 105.717 -0.456414 -4.35716 0
M  V30 1103 C 107.218 1.34232 -4.22489 0
M  V30 1104 H 104.438 0.0513685 -0.669031 0
M  V30 1105 H 106.982 -0.488822 -1.98572 0
M  V30 1106 H 105.137 1.38148 -3.61931 0
M  V30 1107 H 105.551 -0.122564 -5.24357 0
M  V30 1108 H 107.025 1.58708 -5.28693 0
M  V30 1109 H 107.502 2.29426 -3.74514 0
M  V30 1110 H 108.108 0.684424 -4.19757 0
M  V30 1111 N 106.423 1.57458 -0.0668435 0
M  V30 1112 C 107.7 1.8469 0.644132 0
M  V30 1113 C 108.08 0.958343 1.88093 0
M  V30 1114 O 107.428 0.0233579 2.28488 0
M  V30 1115 C 107.638 3.34767 0.986509 0
M  V30 1116 C 108.986 4.02159 1.36212 0
M  V30 1117 O 110.01 3.39484 1.07839 0
M  V30 1118 O 108.869 5.12694 1.89227 0
M  V30 1119 H 105.963 0.762816 0.319437 0
M  V30 1120 H 108.509 1.6942 -0.0973986 0
M  V30 1121 H 107.281 3.91151 0.107883 0
M  V30 1122 H 106.904 3.55281 1.78497 0
M  V30 1123 N 107.901 -0.206675 1.56239 0
M  V30 1124 C 109.126 -0.949474 1.8439 0
M  V30 1125 C 109.551 -1.76549 0.649016 0
M  V30 1126 O 108.909 -1.76782 -0.402231 0
M  V30 1127 C 108.957 -1.83078 3.10668 0
M  V30 1128 O 108.061 -2.9281 2.90407 0
M  V30 1129 H 107.402 -0.268033 0.607499 0
M  V30 1130 H 109.932 -0.215488 2.03462 0
M  V30 1131 H 109.942 -2.2377 3.41161 0
M  V30 1132 H 108.617 -1.23112 3.97261 0
M  V30 1133 H 107.194 -2.55956 2.71184 0
M  V30 1134 N 109.379 -1.50304 -0.473955 0
M  V30 1135 C 110.604 -1.65175 -1.25427 0
M  V30 1136 C 111.029 -0.333673 -1.85117 0
M  V30 1137 O 110.387 0.702114 -1.67153 0
M  V30 1138 C 110.435 -2.74295 -2.34082 0
M  V30 1139 O 109.539 -2.35349 -3.38651 0
M  V30 1140 H 108.88 -0.551944 -0.369126 0
M  V30 1141 H 111.41 -1.96662 -0.564364 0
M  V30 1142 H 111.42 -2.97285 -2.79438 0
M  V30 1143 H 110.095 -3.69959 -1.90008 0
M  V30 1144 H 108.672 -2.22794 -2.99027 0
M  V30 1145 N 110.857 0.726932 -1.39834 0
M  V30 1146 C 112.085 1.51613 -1.40787 0
M  V30 1147 C 112.5 1.88799 -0.00451505 0
M  V30 1148 O 111.857 1.54662 0.968809 0
M  V30 1149 C 111.908 2.79863 -2.28821 0
M  V30 1150 O 111.629 2.44253 -3.63692 0
M  V30 1151 C 113.13 3.73837 -2.38245 0
M  V30 1152 H 110.35 0.468264 -0.480593 0
M  V30 1153 H 112.894 0.897607 -1.83748 0
M  V30 1154 H 111.049 3.38027 -1.89252 0
M  V30 1155 H 111.463 3.26695 -4.1033 0
M  V30 1156 H 112.937 4.60699 -3.04073 0
M  V30 1157 H 113.414 4.16153 -1.40403 0
M  V30 1158 H 114.02 3.21589 -2.78317 0
M  V30 1159 N 112.336 1.25143 0.95797 0
M  V30 1160 C 113.564 1.12424 1.73691 0
M  V30 1161 C 113.979 -0.322304 1.86029 0
M  V30 1162 O 113.336 -1.22186 1.35561 0
M  V30 1163 C 113.387 1.76933 3.15241 0
M  V30 1164 O 113.108 3.15932 3.03511 0
M  V30 1165 C 114.609 1.6995 4.09429 0
M  V30 1166 H 111.829 0.3923 0.544373 0
M  V30 1167 H 114.373 1.6544 1.20207 0
M  V30 1168 H 112.528 1.27895 3.6568 0
M  V30 1169 H 112.942 3.47598 3.9278 0
M  V30 1170 H 114.416 2.19753 5.06372 0
M  V30 1171 H 114.893 0.662619 4.34173 0
M  V30 1172 H 115.499 2.18461 3.64904 0
M  V30 1173 N 113.814 -1.1601 1.06675 0
M  V30 1174 C 115.042 -1.90527 0.806667 0
M  V30 1175 C 115.457 -1.77643 -0.639396 0
M  V30 1176 O 114.814 -1.12369 -1.43803 0
M  V30 1177 C 114.865 -3.41106 1.19705 0
M  V30 1178 O 114.586 -3.53608 2.58636 0
M  V30 1179 C 116.087 -4.32663 0.965266 0
M  V30 1180 H 113.307 -0.604053 0.292166 0
M  V30 1181 H 115.851 -1.47026 1.4214 0
M  V30 1182 H 114.006 -3.82296 0.626774 0
M  V30 1183 H 114.42 -4.47011 2.74375 0
M  V30 1184 H 115.894 -5.36763 1.288 0
M  V30 1185 H 116.371 -4.39089 -0.0987936 0
M  V30 1186 H 116.977 -3.97206 1.52011 0
M  V30 1187 N 115.292 -0.849877 -1.32721 0
M  V30 1188 C 116.255 -0.296122 -2.27279 0
M  V30 1189 C 117.255 0.541458 -1.5141 0
M  V30 1190 O 118.445 0.353658 -1.70572 0
M  V30 1191 C 115.577 0.581579 -3.35902 0
M  V30 1192 H 116.77 -1.13064 -2.77771 0
M  V30 1193 H 114.323 -0.62383 -1.43311 0
M  V30 1194 H 115.058 1.43809 -2.9067 0
M  V30 1195 H 114.843 -0.0178814 -3.92096 0
M  V30 1196 H 116.333 0.961951 -4.0637 0
M  V30 1197 N 116.77 1.45427 -0.607355 0
M  V30 1198 C 118 2.06314 -0.108656 0
M  V30 1199 C 118.408 1.45269 1.21217 0
M  V30 1200 O 117.751 0.561115 1.74921 0
M  V30 1201 C 117.813 3.59345 0.105618 0
M  V30 1202 C 117.477 4.42723 -1.13337 0
M  V30 1203 C 118.474 4.77715 -2.05145 0
M  V30 1204 C 116.159 4.83478 -1.36213 0
M  V30 1205 C 118.153 5.52317 -3.18158 0
M  V30 1206 C 115.84 5.57835 -2.49527 0
M  V30 1207 C 116.838 5.92171 -3.40327 0
M  V30 1208 O 116.526 6.65019 -4.51669 0
M  V30 1209 H 116.258 0.672782 -0.0658842 0
M  V30 1210 H 118.812 1.87664 -0.834945 0
M  V30 1211 H 117.042 3.76394 0.886796 0
M  V30 1212 H 118.731 4.02076 0.555886 0
M  V30 1213 H 119.497 4.46787 -1.88697 0
M  V30 1214 H 115.376 4.56188 -0.664362 0
M  V30 1215 H 118.92 5.79036 -3.89054 0
M  V30 1216 H 114.817 5.88177 -2.65928 0
M  V30 1217 H 115.585 6.83469 -4.50348 0
M  V30 1218 N 118.248 0.346503 1.53744 0
M  V30 1219 C 119.181 -0.552023 2.21423 0
M  V30 1220 C 120.159 -1.09798 1.19929 0
M  V30 1221 O 121.343 -1.1577 1.4876 0
M  V30 1222 C 118.47 -1.75972 2.89398 0
M  V30 1223 C 117.516 -1.34295 4.04805 0
M  V30 1224 S 118.349 -0.360263 5.34287 0
M  V30 1225 C 119.505 -1.57473 6.05767 0
M  V30 1226 H 119.738 0.0228119 2.97291 0
M  V30 1227 H 117.271 0.130579 1.53847 0
M  V30 1228 H 119.229 -2.45256 3.2918 0
M  V30 1229 H 117.89 -2.30578 2.1329 0
M  V30 1230 H 117.083 -2.24349 4.51313 0
M  V30 1231 H 116.685 -0.729555 3.66815 0
M  V30 1232 H 118.977 -2.50875 6.29339 0
M  V30 1233 H 119.92 -1.15138 6.98676 0
M  V30 1234 H 120.328 -1.77212 5.35963 0
M  V30 1235 N 119.726 -1.57421 0.075193 0
M  V30 1236 C 120.636 -2.1642 -0.905511 0
M  V30 1237 C 121.652 -1.12828 -1.32461 0
M  V30 1238 O 122.828 -1.45109 -1.39661 0
M  V30 1239 C 119.893 -2.71693 -2.15369 0
M  V30 1240 C 118.954 -3.90171 -1.79068 0
M  V30 1241 C 118.187 -4.42798 -2.97936 0
M  V30 1242 O 118.41 -3.94416 -4.12058 0
M  V30 1243 O 117.344 -5.34085 -2.77555 0
M  V30 1244 H 121.17 -3.00588 -0.433626 0
M  V30 1245 H 118.755 -1.48664 -0.148067 0
M  V30 1246 H 120.637 -3.07104 -2.88557 0
M  V30 1247 H 119.312 -1.90582 -2.61649 0
M  V30 1248 H 118.219 -3.59606 -1.03122 0
M  V30 1249 H 119.552 -4.72584 -1.37569 0
M  V30 1250 N 121.204 0.198386 -1.56346 0
M  V30 1251 C 122.134 1.24865 -1.9731 0
M  V30 1252 C 123.115 1.47651 -0.844576 0
M  V30 1253 O 124.3 1.59444 -1.10866 0
M  V30 1254 C 121.43 2.59358 -2.30977 0
M  V30 1255 C 120.384 2.5119 -3.46537 0
M  V30 1256 C 119.71 3.89926 -3.65871 0
M  V30 1257 C 121.01 2.03977 -4.80823 0
M  V30 1258 H 122.704 0.908252 -2.85291 0
M  V30 1259 H 120.25 0.435462 -1.37258 0
M  V30 1260 H 122.203 3.33011 -2.58228 0
M  V30 1261 H 120.927 2.95132 -1.39874 0
M  V30 1262 H 119.586 1.79993 -3.19371 0
M  V30 1263 H 119.234 4.23046 -2.72105 0
M  V30 1264 H 118.934 3.85336 -4.4361 0
M  V30 1265 H 120.458 4.65205 -3.95495 0
M  V30 1266 H 121.872 2.67386 -5.07127 0
M  V30 1267 H 120.269 2.10397 -5.62008 0
M  V30 1268 H 121.339 0.992861 -4.74626 0
M  V30 1269 N 122.682 1.50554 0.465978 0
M  V30 1270 C 123.629 1.6979 1.56333 0
M  V30 1271 C 124.599 0.539239 1.57103 0
M  V30 1272 O 125.784 0.770401 1.74555 0
M  V30 1273 C 122.924 1.80273 2.94271 0
M  V30 1274 C 122.037 3.07674 3.0325 0
M  V30 1275 C 121.172 3.08922 4.32135 0
M  V30 1276 C 120.211 4.30755 4.34875 0
M  V30 1277 N 119.348 4.29714 5.55239 0
M  V30 1278 H 124.188 2.63472 1.39235 0
M  V30 1279 H 121.725 1.30602 0.676873 0
M  V30 1280 H 123.683 1.84332 3.74269 0
M  V30 1281 H 122.313 0.900258 3.09992 0
M  V30 1282 H 121.365 3.13062 2.16094 0
M  V30 1283 H 122.677 3.97642 3.01135 0
M  V30 1284 H 121.831 3.11738 5.20485 0
M  V30 1285 H 120.57 2.16792 4.36866 0
M  V30 1286 H 119.575 4.28146 3.44922 0
M  V30 1287 H 120.8 5.24117 4.31831 0
M  V30 1288 H 118.746 3.4044 5.60746 0
M  V30 1289 H 118.663 5.13456 5.54886 0
M  V30 1290 H 119.931 4.36683 6.457 0
M  V30 1291 N 124.16 -0.719506 1.40217 0
M  V30 1292 C 125.385 -1.51371 1.4178 0
M  V30 1293 C 125.81 -1.88091 0.0182355 0
M  V30 1294 O 125.168 -1.52997 -0.972707 0
M  V30 1295 C 125.216 -2.768 2.31115 0
M  V30 1296 O 124.32 -3.73349 1.7517 0
M  V30 1297 H 123.661 -0.456529 0.482159 0
M  V30 1298 H 126.191 -0.88644 1.844 0
M  V30 1299 H 126.201 -3.25371 2.46167 0
M  V30 1300 H 124.876 -2.49407 3.3282 0
M  V30 1301 H 123.453 -3.32179 1.69444 0
M  V30 1302 N 125.638 -1.25649 -0.95132 0
M  V30 1303 C 126.568 -1.08808 -2.06599 0
M  V30 1304 C 127.549 0.00382547 -1.701 0
M  V30 1305 O 128.734 -0.166325 -1.93486 0
M  V30 1306 C 125.864 -0.709542 -3.39975 0
M  V30 1307 C 124.818 -1.75206 -3.90496 0
M  V30 1308 C 124.144 -1.22811 -5.20405 0
M  V30 1309 C 125.444 -3.15153 -4.16504 0
M  V30 1310 H 127.138 -2.02048 -2.20946 0
M  V30 1311 H 124.684 -0.972835 -1.06169 0
M  V30 1312 H 126.637 -0.578649 -4.17408 0
M  V30 1313 H 125.361 0.258556 -3.25575 0
M  V30 1314 H 124.02 -1.87145 -3.15234 0
M  V30 1315 H 123.668 -0.250145 -5.02378 0
M  V30 1316 H 123.368 -1.92492 -5.55176 0
M  V30 1317 H 124.892 -1.10968 -6.00432 0
M  V30 1318 H 126.306 -3.06349 -4.84586 0
M  V30 1319 H 124.703 -3.82333 -4.62538 0
M  V30 1320 H 125.773 -3.61966 -3.22658 0
M  V30 1321 N 127.117 1.15442 -1.07289 0
M  V30 1322 C 128.049 2.19773 -0.650585 0
M  V30 1323 C 129.062 1.60076 0.296572 0
M  V30 1324 O 130.251 1.78293 0.0859905 0
M  V30 1325 C 127.351 3.38838 0.0650398 0
M  V30 1326 C 126.524 4.2808 -0.898141 0
M  V30 1327 C 125.583 5.2574 -0.219926 0
M  V30 1328 O 124.609 5.62654 -0.860773 0
M  V30 1329 N 125.811 5.71205 1.03466 0
M  V30 1330 H 128.576 2.56622 -1.54808 0
M  V30 1331 H 126.137 1.30551 -0.957494 0
M  V30 1332 H 128.129 4.01222 0.529415 0
M  V30 1333 H 126.699 3.00409 0.864466 0
M  V30 1334 H 125.919 3.62804 -1.54165 0
M  V30 1335 H 127.207 4.84577 -1.5512 0
M  V30 1336 H 126.605 5.43325 1.57526 0
M  V30 1337 H 125.162 6.35633 1.44272 0
M  V30 1338 N 128.595 0.856903 1.32268 0
M  V30 1339 C 129.842 0.461386 1.97174 0
M  V30 1340 C 130.17 -0.983491 1.67803 0
M  V30 1341 O 129.425 -1.70541 0.959903 0
M  V30 1342 C 129.724 0.649919 3.51441 0
M  V30 1343 C 129.39 2.0656 4.00804 0
M  V30 1344 C 128.052 2.45279 4.13995 0
M  V30 1345 C 130.404 2.98947 4.26943 0
M  V30 1346 C 127.732 3.75653 4.50668 0
M  V30 1347 C 130.084 4.28822 4.65075 0
M  V30 1348 C 128.748 4.67472 4.76472 0
M  V30 1349 H 128.018 0.168833 0.72151 0
M  V30 1350 H 130.665 1.08739 1.57633 0
M  V30 1351 H 128.97 -0.0593018 3.91755 0
M  V30 1352 H 130.667 0.32391 3.9969 0
M  V30 1353 H 127.257 1.75495 3.91024 0
M  V30 1354 H 131.441 2.70265 4.16258 0
M  V30 1355 H 126.697 4.05379 4.57688 0
M  V30 1356 H 130.871 5.0047 4.84255 0
M  V30 1357 H 128.498 5.68539 5.04646 0
M  V30 1358 N 130.073 -1.45103 0.615059 0
M  V30 1359 C 131.35 -1.95549 0.0448276 0
M  V30 1360 C 131.73 -1.55737 -1.4251 0
M  V30 1361 O 131.078 -0.823556 -2.13143 0
M  V30 1362 C 131.288 -3.48098 0.250785 0
M  V30 1363 C 132.636 -4.24384 0.135509 0
M  V30 1364 O 133.66 -3.55738 0.181299 0
M  V30 1365 O 132.519 -5.46493 0.0268878 0
M  V30 1366 H 129.613 -0.8264 -0.0314845 0
M  V30 1367 H 132.159 -1.55232 0.685642 0
M  V30 1368 H 130.931 -3.7007 1.27139 0
M  V30 1369 H 130.554 -3.95323 -0.424937 0
M  V30 1370 N 131.551 -0.354651 -1.53558 0
M  V30 1371 C 132.828 0.294281 -1.93374 0
M  V30 1372 C 133.208 1.67313 -1.28723 0
M  V30 1373 O 132.556 2.24179 -0.442247 0
M  V30 1374 C 132.766 0.355445 -3.47185 0
M  V30 1375 C 134.114 0.601007 -4.20325 0
M  V30 1376 O 135.138 0.437106 -3.53508 0
M  V30 1377 O 133.997 0.919322 -5.38712 0
M  V30 1378 H 131.091 0.174033 -0.808481 0
M  V30 1379 H 133.637 -0.406638 -1.64756 0
M  V30 1380 H 132.409 -0.611729 -3.86489 0
M  V30 1381 H 132.032 1.1027 -3.82003 0
M  V30 1382 N 133.029 1.57378 -0.0835403 0
M  V30 1383 C 134.257 1.98263 0.59157 0
M  V30 1384 C 134.672 0.962302 1.62435 0
M  V30 1385 O 134.029 -0.049581 1.82433 0
M  V30 1386 C 134.08 3.39214 1.24965 0
M  V30 1387 O 133.801 4.37339 0.258186 0
M  V30 1388 C 135.302 3.95038 2.01147 0
M  V30 1389 H 132.522 0.651773 0.159477 0
M  V30 1390 H 135.066 2.03878 -0.159415 0
M  V30 1391 H 133.221 3.34649 1.95164 0
M  V30 1392 H 133.635 5.19371 0.731734 0
M  V30 1393 H 135.109 4.95848 2.42567 0
M  V30 1394 H 135.586 3.32222 2.87272 0
M  V30 1395 H 136.192 4.0304 1.35789 0
M  V30 1396 N 134.507 -0.190092 1.56449 0
M  V30 1397 C 135.47 -1.21925 1.9408 0
M  V30 1398 C 136.47 -1.38176 0.822431 0
M  V30 1399 O 137.66 -1.35903 1.08977 0
M  V30 1400 C 134.792 -2.58773 2.21922 0
M  V30 1401 H 135.985 -0.897464 2.86157 0
M  V30 1402 H 133.538 -0.43181 1.50217 0
M  V30 1403 H 134.273 -2.95998 1.32499 0
M  V30 1404 H 134.058 -2.48348 3.03424 0
M  V30 1405 H 135.548 -3.32978 2.52022 0
M  V30 1406 N 135.985 -1.50799 -0.457987 0
M  V30 1407 C 137.231 -1.62683 -1.21088 0
M  V30 1408 C 137.564 -0.332268 -1.91336 0
M  V30 1409 O 136.839 0.667043 -1.82704 0
M  V30 1410 C 137.122 -2.81615 -2.24422 0
M  V30 1411 C 136.975 -4.20989 -1.58392 0
M  V30 1412 C 138.294 -2.96085 -3.2561 0
M  V30 1413 H 135.413 -0.592087 -0.438864 0
M  V30 1414 H 138.055 -1.83225 -0.50286 0
M  V30 1415 H 136.205 -2.64231 -2.84806 0
M  V30 1416 H 137.877 -4.49994 -1.01504 0
M  V30 1417 H 136.12 -4.24641 -0.886704 0
M  V30 1418 H 136.791 -5.0016 -2.33547 0
M  V30 1419 H 139.267 -3.12042 -2.75262 0
M  V30 1420 H 138.143 -3.80902 -3.95228 0
M  V30 1421 H 138.404 -2.0726 -3.90507 0
M  V30 1422 N 137.463 0.71206 -1.40597 0
M  V30 1423 C 138.693 1.49894 -1.42181 0
M  V30 1424 C 139.101 1.89189 -0.0208078 0
M  V30 1425 O 138.444 1.56223 0.966436 0
M  V30 1426 C 138.506 2.80215 -2.25211 0
M  V30 1427 C 138.17 2.63221 -3.73582 0
M  V30 1428 C 139.167 2.30249 -4.66135 0
M  V30 1429 C 136.852 2.79376 -4.17438 0
M  V30 1430 C 138.846 2.13645 -6.00529 0
M  V30 1431 C 136.533 2.6239 -5.51901 0
M  V30 1432 C 137.531 2.29573 -6.43262 0
M  V30 1433 O 137.219 2.12719 -7.75246 0
M  V30 1434 H 136.951 0.469031 -0.486812 0
M  V30 1435 H 139.505 0.88564 -1.85326 0
M  V30 1436 H 137.735 3.4389 -1.76852 0
M  V30 1437 H 139.424 3.41947 -2.18694 0
M  V30 1438 H 140.19 2.17398 -4.33547 0
M  V30 1439 H 136.069 3.03906 -3.46644 0
M  V30 1440 H 139.613 1.87953 -6.71803 0
M  V30 1441 H 135.51 2.74826 -5.84073 0
M  V30 1442 H 136.278 2.27611 -7.86216 0
M  V30 1443 N 138.941 1.26152 0.944643 0
M  V30 1444 C 140.171 1.14094 1.72239 0
M  V30 1445 C 140.579 -0.306931 1.86694 0
M  V30 1446 O 139.922 -1.22222 1.3714 0
M  V30 1447 C 139.984 1.73316 3.14963 0
M  V30 1448 C 139.648 3.2239 3.23904 0
M  V30 1449 C 140.645 4.19252 3.07447 0
M  V30 1450 C 138.33 3.62788 3.47405 0
M  V30 1451 C 140.324 5.54491 3.14353 0
M  V30 1452 C 138.011 4.98162 3.53947 0
M  V30 1453 C 139.009 5.93823 3.37436 0
M  V30 1454 O 138.697 7.26732 3.43679 0
M  V30 1455 H 138.429 0.398292 0.546205 0
M  V30 1456 H 140.983 1.67201 1.19301 0
M  V30 1457 H 139.213 1.14667 3.69308 0
M  V30 1458 H 140.902 1.56214 3.74636 0
M  V30 1459 H 141.668 3.8938 2.8915 0
M  V30 1460 H 137.547 2.88816 3.59313 0
M  V30 1461 H 141.091 6.29137 3.01384 0
M  V30 1462 H 136.988 5.27695 3.71763 0
M  V30 1463 H 137.756 7.3496 3.60245 0
M  V30 1464 N 140.419 -1.14872 1.07899 0
M  V30 1465 C 141.659 -1.8745 0.814965 0
M  V30 1466 C 142.023 -1.80758 -0.64733 0
M  V30 1467 O 143.224 -2.48422 -1.02664 0
M  V30 1468 C 141.495 -3.32286 1.31607 0
M  V30 1469 S 143.054 -4.22537 1.18357 0
M  V30 1470 H 139.872 -0.646833 0.295174 0
M  V30 1471 H 142.474 -1.38555 1.37923 0
M  V30 1472 H 141.178 -3.34703 2.37491 0
M  V30 1473 H 140.709 -3.86238 0.747261 0
M  V30 1474 H 142.724 -4.96044 0.124586 0
M  V30 1475 N 141.898 -0.863906 -1.31812 0
M  V30 1476 C 142.861 -0.320212 -2.26952 0
M  V30 1477 C 143.861 0.525369 -1.51975 0
M  V30 1478 O 145.051 0.335547 -1.70938 0
M  V30 1479 C 142.183 0.545919 -3.365 0
M  V30 1480 H 143.376 -1.16004 -2.76556 0
M  V30 1481 H 140.929 -0.638995 -1.42641 0
M  V30 1482 H 141.664 1.40718 -2.92179 0
M  V30 1483 H 141.449 -0.0594674 -3.92055 0
M  V30 1484 H 142.939 0.918796 -4.07367 0
M  V30 1485 N 143.376 1.44774 -0.622745 0
M  V30 1486 C 144.792 1.56986 -0.287652 0
M  V30 1487 C 144.992 1.61167 1.20944 0
M  V30 1488 O 144.048 1.55015 1.99315 0
M  V30 1489 C 145.361 2.84551 -0.972188 0
M  V30 1490 C 146.909 2.9825 -0.949536 0
M  V30 1491 C 147.384 4.28605 -1.61437 0
M  V30 1492 N 148.875 4.35399 -1.58057 0
M  V30 1493 C 149.61 5.34964 -2.064 0
M  V30 1494 N 149.106 6.40981 -2.62897 0
M  V30 1495 N 150.899 5.26419 -1.97078 0
M  V30 1496 H 143.05 1.40304 -1.59463 0
M  V30 1497 H 145.313 0.671794 -0.668878 0
M  V30 1498 H 145.019 2.87417 -2.02693 0
M  V30 1499 H 144.893 3.73807 -0.504771 0
M  V30 1500 H 147.28 2.94941 0.0967067 0
M  V30 1501 H 147.361 2.10364 -1.45536 0
M  V30 1502 H 147.005 4.32672 -2.66002 0
M  V30 1503 H 146.935 5.15334 -1.08344 0
M  V30 1504 H 149.426 3.59397 -1.16801 0
M  V30 1505 H 149.739 7.13225 -2.97539 0
M  V30 1506 H 148.084 6.4169 -2.66943 0
M  V30 1507 H 151.275 4.42504 -1.52669 0
M  V30 1508 H 151.448 6.03861 -2.35066 0
M  V30 1509 N 144.854 0.36279 1.53368 0
M  V30 1510 C 146.27 0.0116182 1.59596 0
M  V30 1511 C 146.47 -1.47012 1.37803 0
M  V30 1512 O 145.526 -2.23136 1.18181 0
M  V30 1513 C 146.839 0.465052 2.97082 0
M  V30 1514 C 148.387 0.419033 3.10182 0
M  V30 1515 C 148.862 0.848235 4.50077 0
M  V30 1516 N 150.353 0.803183 4.56183 0
M  V30 1517 C 151.088 1.107 5.62613 0
M  V30 1518 N 150.584 1.47996 6.76808 0
M  V30 1519 N 152.377 1.02998 5.52583 0
M  V30 1520 H 144.528 1.32775 1.65785 0
M  V30 1521 H 146.791 0.542518 0.777417 0
M  V30 1522 H 146.497 1.49892 3.18159 0
M  V30 1523 H 146.371 -0.149786 3.76902 0
M  V30 1524 H 148.758 -0.605696 2.88817 0
M  V30 1525 H 148.839 1.06933 2.32377 0
M  V30 1526 H 148.483 1.87107 4.7218 0
M  V30 1527 H 148.413 0.175218 5.26308 0
M  V30 1528 H 150.904 0.52838 3.74188 0
M  V30 1529 H 151.217 1.69613 7.53957 0
M  V30 1530 H 149.562 1.51859 6.78206 0
M  V30 1531 H 152.753 0.737817 4.62249 0
M  V30 1532 H 152.926 1.2701 6.35431 0
M  V30 1533 N 146.332 -1.57332 0.0918853 0
M  V30 1534 C 147.609 -1.85691 -0.614668 0
M  V30 1535 C 147.989 -0.988146 -1.86545 0
M  V30 1536 O 147.337 -0.0597055 -2.28422 0
M  V30 1537 C 147.547 -3.36294 -0.933126 0
M  V30 1538 C 148.895 -4.04275 -1.29796 0
M  V30 1539 O 149.919 -3.41157 -1.02424 0
M  V30 1540 O 148.778 -5.1564 -1.81047 0
M  V30 1541 H 145.872 -0.767802 -0.307261 0
M  V30 1542 H 148.418 -1.69244 0.12434 0
M  V30 1543 H 147.19 -3.91273 -0.0456404 0
M  V30 1544 H 146.813 -3.58076 -1.72822 0
M  V30 1545 N 147.81 0.181792 -1.56548 0
M  V30 1546 C 149.04 0.914618 -1.85252 0
M  V30 1547 C 149.448 1.76791 -0.673914 0
M  V30 1548 O 148.791 1.80009 0.366416 0
M  V30 1549 C 148.853 1.85019 -3.08234 0
M  V30 1550 C 148.517 1.17754 -4.41569 0
M  V30 1551 C 149.514 0.548035 -5.17003 0
M  V30 1552 C 147.199 1.17742 -4.88305 0
M  V30 1553 C 149.193 -0.0726128 -6.37359 0
M  V30 1554 C 146.88 0.552946 -6.08593 0
M  V30 1555 C 147.878 -0.070978 -6.82963 0
M  V30 1556 O 147.566 -0.685635 -8.00971 0
M  V30 1557 H 147.298 0.271695 -0.618998 0
M  V30 1558 H 149.852 0.189944 -2.0452 0
M  V30 1559 H 148.082 2.61491 -2.84885 0
M  V30 1560 H 149.771 2.45195 -3.23472 0
M  V30 1561 H 150.537 0.540174 -4.81982 0
M  V30 1562 H 146.416 1.65246 -4.30366 0
M  V30 1563 H 149.96 -0.560213 -6.95347 0
M  V30 1564 H 145.857 0.558354 -6.43081 0
M  V30 1565 H 146.625 -0.58385 -8.16415 0
M  V30 1566 N 149.288 1.51039 0.449983 0
M  V30 1567 C 150.704 1.38934 0.785462 0
M  V30 1568 C 150.904 0.461817 1.96136 0
M  V30 1569 O 149.96 -0.0877389 2.52348 0
M  V30 1570 C 151.273 2.80724 1.0777 0
M  V30 1571 C 152.821 2.89787 1.1829 0
M  V30 1572 C 153.296 4.32457 1.50815 0
M  V30 1573 N 154.787 4.35505 1.57764 0
M  V30 1574 C 155.522 5.42914 1.84477 0
M  V30 1575 N 155.018 6.60502 2.09068 0
M  V30 1576 N 156.811 5.3038 1.86155 0
M  V30 1577 H 148.962 2.09904 -0.324647 0
M  V30 1578 H 151.225 0.944378 -0.0827957 0
M  V30 1579 H 150.931 3.50531 0.286498 0
M  V30 1580 H 150.805 3.19273 2.00859 0
M  V30 1581 H 153.192 2.20186 1.96474 0
M  V30 1582 H 153.273 2.54752 0.231314 0
M  V30 1583 H 152.917 5.02603 0.731622 0
M  V30 1584 H 152.847 4.64995 2.47158 0
M  V30 1585 H 155.338 3.50724 1.40715 0
M  V30 1586 H 155.651 7.38158 2.28785 0
M  V30 1587 H 153.996 6.63639 2.06416 0
M  V30 1588 H 157.187 4.37505 1.66454 0
M  V30 1589 H 157.36 6.1417 2.06637 0
M  V30 1590 N 150.766 -0.704594 1.40972 0
M  V30 1591 C 152.013 -1.46458 1.39844 0
M  V30 1592 C 152.341 -1.94499 0.00447594 0
M  V30 1593 O 151.596 -1.69275 -0.982057 0
M  V30 1594 C 151.895 -2.698 2.34399 0
M  V30 1595 C 151.561 -2.40464 3.81429 0
M  V30 1596 C 150.223 -2.32174 4.21484 0
M  V30 1597 C 152.575 -2.16086 4.74296 0
M  V30 1598 C 149.903 -1.97589 5.52427 0
M  V30 1599 C 152.255 -1.83011 6.05549 0
M  V30 1600 C 150.919 -1.7321 6.44635 0
M  V30 1601 H 150.189 -0.535927 0.511725 0
M  V30 1602 H 152.836 -0.806124 1.73706 0
M  V30 1603 H 151.141 -3.40536 1.93759 0
M  V30 1604 H 152.838 -3.27919 2.30804 0
M  V30 1605 H 149.428 -2.47808 3.49699 0
M  V30 1606 H 153.612 -2.2144 4.4416 0
M  V30 1607 H 148.868 -1.88547 5.81601 0
M  V30 1608 H 153.042 -1.63164 6.77016 0
M  V30 1609 H 150.669 -1.46179 7.46013 0
M  V30 1610 N 152.244 -1.26651 -0.937939 0
M  V30 1611 C 153.521 -1.0313 -1.66204 0
M  V30 1612 C 153.901 0.437256 -2.06522 0
M  V30 1613 O 153.249 1.41831 -1.79154 0
M  V30 1614 C 153.459 -1.98314 -2.87181 0
M  V30 1615 C 154.807 -2.27107 -3.58758 0
M  V30 1616 O 155.831 -1.96205 -2.97291 0
M  V30 1617 O 154.69 -2.79736 -4.69479 0
M  V30 1618 H 151.784 -0.392384 -0.727986 0
M  V30 1619 H 154.33 -1.37874 -0.989382 0
M  V30 1620 H 153.102 -2.97399 -2.54302 0
M  V30 1621 H 152.725 -1.64068 -3.6217 0
M  V30 1622 N 153.722 1.14298 -1.08507 0
M  V30 1623 C 154.655 2.18447 -0.660004 0
M  V30 1624 C 155.633 1.59242 0.328749 0
M  V30 1625 O 156.817 1.87062 0.232367 0
M  V30 1626 C 153.944 3.38688 0.0290807 0
M  V30 1627 C 152.99 4.1646 -0.919982 0
M  V30 1628 S 153.823 4.77334 -2.42718 0
M  V30 1629 C 154.979 6.00931 -1.75024 0
M  V30 1630 H 155.212 2.54166 -1.54231 0
M  V30 1631 H 152.745 1.25446 -0.900149 0
M  V30 1632 H 154.703 4.08342 0.420378 0
M  V30 1633 H 153.364 3.01289 0.887895 0
M  V30 1634 H 152.557 5.02529 -0.384751 0
M  V30 1635 H 152.159 3.52414 -1.25223 0
M  V30 1636 H 154.451 6.69017 -1.06877 0
M  V30 1637 H 155.394 6.59044 -2.58971 0
M  V30 1638 H 155.802 5.51089 -1.22317 0
M  V30 1639 N 155.201 0.870884 1.31352 0
M  V30 1640 C 156.449 0.48132 1.96285 0
M  V30 1641 C 156.77 -0.969813 1.69173 0
M  V30 1642 O 156.04 -1.67998 1.00764 0
M  V30 1643 H 154.62 0.175002 0.726212 0
M  V30 1644 H 157.282 1.11087 1.60143 0
M  V30 1645 H 156.378 0.639825 3.05471 0
M  V30 1646 N 156.679 -1.44442 0.630414 0
M  V30 1647 C 157.926 -2.02052 0.134617 0
M  V30 1648 C 158.254 -1.49576 -1.24327 0
M  V30 1649 O 157.509 -0.669806 -1.83881 0
M  V30 1650 C 157.808 -3.57332 0.0697835 0
M  V30 1651 C 157.474 -4.29058 1.38635 0
M  V30 1652 C 156.136 -4.4837 1.74694 0
M  V30 1653 C 158.488 -4.69872 2.25543 0
M  V30 1654 C 155.816 -5.05756 2.97369 0
M  V30 1655 C 158.168 -5.28616 3.47487 0
M  V30 1656 C 156.832 -5.46147 3.8377 0
M  V30 1657 H 156.102 -0.739361 0.0492598 0
M  V30 1658 H 158.749 -1.73217 0.816586 0
M  V30 1659 H 157.054 -3.85577 -0.695553 0
M  V30 1660 H 158.751 -3.99637 -0.330344 0
M  V30 1661 H 155.341 -4.14357 1.09574 0
M  V30 1662 H 159.525 -4.54666 1.98979 0
M  V30 1663 H 154.781 -5.17515 3.25558 0
M  V30 1664 H 158.955 -5.59192 4.15063 0
M  V30 1665 H 156.582 -5.9038 4.7891 0
M  V30 1666 N 158.157 -0.370918 -1.53173 0
M  V30 1667 C 159.434 0.273754 -1.93675 0
M  V30 1668 C 159.814 1.65938 -1.3049 0
M  V30 1669 O 159.162 2.23698 -0.465999 0
M  V30 1670 C 159.372 0.318602 -3.47543 0
M  V30 1671 C 160.72 0.556392 -4.20939 0
M  V30 1672 O 161.744 0.399587 -3.53952 0
M  V30 1673 O 160.603 0.862133 -5.39657 0
M  V30 1674 H 157.697 0.165448 -0.810281 0
M  V30 1675 H 160.243 -0.42409 -1.64315 0
M  V30 1676 H 159.015 -0.652687 -3.85818 0
M  V30 1677 H 158.638 1.06212 -3.83151 0
M  V30 1678 N 159.635 1.57281 -0.100228 0
M  V30 1679 C 160.865 1.98591 0.569681 0
M  V30 1680 C 161.273 0.978315 1.61943 0
M  V30 1681 O 160.616 -0.0396108 1.83657 0
M  V30 1682 C 160.678 3.36282 1.271 0
M  V30 1683 C 160.342 4.55488 0.371409 0
M  V30 1684 C 161.339 5.18491 -0.382504 0
M  V30 1685 C 159.024 5.01474 0.287965 0
M  V30 1686 C 161.018 6.25852 -1.20779 0
M  V30 1687 C 158.705 6.08701 -0.540965 0
M  V30 1688 C 159.703 6.70755 -1.28749 0
M  V30 1689 O 159.391 7.75914 -2.10269 0
M  V30 1690 H 159.123 0.65752 0.156982 0
M  V30 1691 H 161.677 2.0463 -0.177734 0
M  V30 1692 H 159.907 3.26941 2.0651 0
M  V30 1693 H 161.596 3.62005 1.83595 0
M  V30 1694 H 162.362 4.83891 -0.3278 0
M  V30 1695 H 158.241 4.52932 0.858689 0
M  V30 1696 H 161.785 6.74218 -1.79096 0
M  V30 1697 H 157.682 6.42732 -0.597131 0
M  V30 1698 H 158.45 7.92925 -2.03007 0
M  V30 1699 N 161.113 -0.173488 1.56642 0
M  V30 1700 C 162.359 -0.887108 1.83035 0
M  V30 1701 C 162.714 -1.79965 0.680461 0
M  V30 1702 O 162.007 -1.88854 -0.323225 0
M  V30 1703 C 162.201 -1.72069 3.13252 0
M  V30 1704 C 162.03 -0.89035 4.40798 0
M  V30 1705 C 160.8 -0.566282 5.02117 0
M  V30 1706 C 162.998 -0.232921 5.13772 0
M  V30 1707 N 160.98 0.280427 6.13259 0
M  V30 1708 C 162.351 0.475046 6.18177 0
M  V30 1709 C 164.406 -0.150863 4.97671 0
M  V30 1710 C 163.109 1.25729 7.08227 0
M  V30 1711 C 165.135 0.618039 5.88162 0
M  V30 1712 C 164.497 1.31438 6.92029 0
M  V30 1713 H 160.596 -0.303303 0.720785 0
M  V30 1714 H 163.18 -0.154244 1.94088 0
M  V30 1715 H 161.351 -2.42499 3.03395 0
M  V30 1716 H 163.083 -2.37545 3.2765 0
M  V30 1717 H 159.838 -0.895852 4.6505 0
M  V30 1718 H 160.262 0.694027 6.73433 0
M  V30 1719 H 164.904 -0.674868 4.17379 0
M  V30 1720 H 162.622 1.79265 7.87966 0
M  V30 1721 H 166.208 0.683173 5.77775 0
M  V30 1722 H 165.088 1.89981 7.6084 0
M  V30 1723 N 162.591 -1.51276 -0.441967 0
M  V30 1724 C 163.839 -1.63392 -1.18943 0
M  V30 1725 C 164.16 -0.350159 -1.9183 0
M  V30 1726 O 163.43 0.633784 -1.85364 0
M  V30 1727 H 162.01 -0.602164 -0.442049 0
M  V30 1728 H 164.672 -1.88186 -0.507165 0
M  V30 1729 H 163.768 -2.45934 -1.92154 0
M  V30 1730 N 164.069 0.697108 -1.41344 0
M  V30 1731 C 165.001 1.8224 -1.39001 0
M  V30 1732 C 166.014 1.60152 -0.292428 0
M  V30 1733 O 167.203 1.69684 -0.554048 0
M  V30 1734 C 164.303 3.18976 -1.14489 0
M  V30 1735 C 163.476 3.68105 -2.36258 0
M  V30 1736 C 162.535 4.83506 -2.07625 0
M  V30 1737 O 161.561 4.95201 -2.8065 0
M  V30 1738 N 162.763 5.70637 -1.06555 0
M  V30 1739 H 165.528 1.84742 -2.35988 0
M  V30 1740 H 163.089 0.87937 -1.35936 0
M  V30 1741 H 165.081 3.93801 -0.932885 0
M  V30 1742 H 163.651 3.11508 -0.261043 0
M  V30 1743 H 162.871 2.84204 -2.7317 0
M  V30 1744 H 164.159 3.97667 -3.17393 0
M  V30 1745 H 163.557 5.63817 -0.461125 0
M  V30 1746 H 162.114 6.45368 -0.913444 0
M  V30 1747 N 165.547 1.27147 0.931209 0
M  V30 1748 C 166.795 1.13055 1.6752 0
M  V30 1749 C 167.116 -0.324791 1.92276 0
M  V30 1750 O 166.386 -1.22775 1.52654 0
M  V30 1751 H 164.966 0.415391 0.620854 0
M  V30 1752 H 167.628 1.59623 1.11833 0
M  V30 1753 H 166.724 1.65694 2.64485 0
M  V30 1754 N 167.025 -1.13721 1.09112 0
M  V30 1755 C 168.253 -1.88773 0.846899 0
M  V30 1756 C 168.668 -1.7896 -0.601572 0
M  V30 1757 O 168.025 -1.15394 -1.41388 0
M  V30 1758 C 168.076 -3.3849 1.26913 0
M  V30 1759 O 167.797 -3.48043 2.66079 0
M  V30 1760 C 169.298 -4.30518 1.05682 0
M  V30 1761 H 166.518 -0.59772 0.304914 0
M  V30 1762 H 169.062 -1.43977 1.45227 0
M  V30 1763 H 167.217 -3.80881 0.707723 0
M  V30 1764 H 167.631 -4.4109 2.83795 0
M  V30 1765 H 169.105 -5.3391 1.40156 0
M  V30 1766 H 169.582 -4.392 -0.00563416 0
M  V30 1767 H 170.188 -3.93893 1.60402 0
M  V30 1768 N 168.503 -0.877838 -1.30888 0
M  V30 1769 C 169.731 -0.507414 -2.00581 0
M  V30 1770 C 170.146 0.902216 -1.65848 0
M  V30 1771 O 169.503 1.59225 -0.891831 0
M  V30 1772 C 169.554 -0.664162 -3.55347 0
M  V30 1773 O 169.275 -2.01829 -3.8884 0
M  V30 1774 C 170.776 -0.295787 -4.42312 0
M  V30 1775 H 167.996 -0.196866 -0.641471 0
M  V30 1776 H 170.54 -1.18117 -1.66939 0
M  V30 1777 H 168.695 -0.0378619 -3.87381 0
M  V30 1778 H 169.109 -2.03174 -4.8355 0
M  V30 1779 H 170.583 -0.456388 -5.5011 0
M  V30 1780 H 171.06 0.765663 -4.32475 0
M  V30 1781 H 171.666 -0.898113 -4.15709 0
M  V30 1782 N 169.982 1.44106 -0.638065 0
M  V30 1783 C 171.228 2.02277 -0.145546 0
M  V30 1784 C 171.561 1.50125 1.23191 0
M  V30 1785 O 170.836 0.688133 1.8192 0
M  V30 1786 C 171.119 3.59829 -0.139791 0
M  V30 1787 C 170.972 4.22247 -1.55008 0
M  V30 1788 C 172.291 4.36873 0.531966 0
M  V30 1789 H 169.41 0.734992 -0.0543632 0
M  V30 1790 H 172.052 1.71592 -0.815863 0
M  V30 1791 H 170.202 3.86102 0.431007 0
M  V30 1792 H 171.874 4.07057 -2.1703 0
M  V30 1793 H 170.117 3.79476 -2.10191 0
M  V30 1794 H 170.788 5.31284 -1.49804 0
M  V30 1795 H 173.264 4.16074 0.0464781 0
M  V30 1796 H 172.14 5.4657 0.505206 0
M  V30 1797 H 172.401 4.11995 1.60352 0
M  V30 1798 N 171.46 0.379036 1.52974 0
M  V30 1799 C 172.688 -0.20679 2.05864 0
M  V30 1800 C 173.103 -1.41356 1.25155 0
M  V30 1801 O 172.46 -1.8009 0.295588 0
M  V30 1802 C 172.511 -0.587045 3.56702 0
M  V30 1803 O 172.232 0.571776 4.34353 0
M  V30 1804 C 173.733 -1.22983 4.25899 0
M  V30 1805 H 170.953 -0.0336123 0.670158 0
M  V30 1806 H 173.497 0.541298 1.97206 0
M  V30 1807 H 171.652 -1.28504 3.65466 0
M  V30 1808 H 172.066 0.261544 5.23847 0
M  V30 1809 H 173.54 -1.44635 5.32715 0
M  V30 1810 H 174.017 -2.19416 3.80465 0
M  V30 1811 H 174.623 -0.572892 4.21424 0
M  V30 1812 N 172.938 -1.57226 0.108567 0
M  V30 1813 C 174.184 -1.95121 -0.552761 0
M  V30 1814 C 174.517 -0.991345 -1.66991 0
M  V30 1815 O 173.792 -0.0267211 -1.94482 0
M  V30 1816 C 174.075 -3.43039 -1.09528 0
M  V30 1817 C 173.928 -4.49797 0.0177332 0
M  V30 1818 C 175.247 -3.92567 -1.98945 0
M  V30 1819 H 172.366 -0.709496 -0.199461 0
M  V30 1820 H 175.008 -1.89126 0.182011 0
M  V30 1821 H 173.158 -3.48279 -1.72146 0
M  V30 1822 H 174.83 -4.56661 0.652584 0
M  V30 1823 H 173.073 -4.284 0.682309 0
M  V30 1824 H 173.744 -5.50528 -0.402919 0
M  V30 1825 H 176.22 -3.89565 -1.46214 0
M  V30 1826 H 175.096 -4.96605 -2.33827 0
M  V30 1827 H 175.357 -3.32648 -2.91201 0
M  V30 1828 N 174.416 0.165178 -1.56732 0
M  V30 1829 C 175.641 0.900253 -1.86843 0
M  V30 1830 C 176.066 1.74766 -0.695596 0
M  V30 1831 O 175.424 1.77786 0.35522 0
M  V30 1832 C 175.472 1.74777 -3.15413 0
M  V30 1833 O 174.576 2.85007 -2.98068 0
M  V30 1834 H 173.917 0.251832 -0.614391 0
M  V30 1835 H 176.447 0.161468 -2.03962 0
M  V30 1836 H 176.457 2.14646 -3.46974 0
M  V30 1837 H 175.132 1.12537 -4.00385 0
M  V30 1838 H 173.709 2.48676 -2.77875 0
M  V30 1839 N 175.894 1.51508 0.433938 0
M  V30 1840 C 177.119 1.68443 1.21003 0
M  V30 1841 C 177.544 0.382636 1.84167 0
M  V30 1842 O 176.902 -0.65755 1.68956 0
M  V30 1843 C 176.95 2.80405 2.26727 0
M  V30 1844 O 176.054 2.44245 3.32292 0
M  V30 1845 H 175.395 0.561536 0.354363 0
M  V30 1846 H 177.925 1.9809 0.512024 0
M  V30 1847 H 177.935 3.0459 2.71457 0
M  V30 1848 H 176.61 3.74867 1.80132 0
M  V30 1849 H 175.187 2.30644 2.93015 0
M  V30 1850 N 177.372 -0.689602 1.41712 0
M  V30 1851 C 178.335 -1.78521 1.43746 0
M  V30 1852 C 179.335 -1.57436 0.327191 0
M  V30 1853 O 180.525 -1.64 0.587348 0
M  V30 1854 C 177.657 -3.16971 1.25467 0
M  V30 1855 H 178.85 -1.78108 2.41283 0
M  V30 1856 H 176.403 -0.89781 1.27942 0
M  V30 1857 H 177.138 -3.23019 0.287948 0
M  V30 1858 H 176.923 -3.33678 2.05917 0
M  V30 1859 H 178.413 -3.96935 1.2974 0
M  V30 1860 N 178.85 -1.27639 -0.924453 0
M  V30 1861 C 180.075 -1.17101 -1.71179 0
M  V30 1862 C 180.5 0.268134 -1.86179 0
M  V30 1863 O 179.858 1.19415 -1.36418 0
M  V30 1864 C 179.906 -1.86313 -3.08739 0
M  V30 1865 O 179.01 -1.16331 -3.95652 0
M  V30 1866 H 178.351 -0.407091 -0.524569 0
M  V30 1867 H 180.881 -1.68767 -1.15666 0
M  V30 1868 H 180.891 -1.938 -3.59034 0
M  V30 1869 H 179.566 -2.91001 -2.97138 0
M  V30 1870 H 178.143 -1.16935 -3.54091 0
M  V30 1871 N 180.328 1.1314 -1.09713 0
M  V30 1872 C 181.556 1.88321 -0.856898 0
M  V30 1873 C 181.971 1.79276 0.592073 0
M  V30 1874 O 181.328 1.16142 1.40774 0
M  V30 1875 C 181.379 3.37812 -1.28706 0
M  V30 1876 O 181.1 3.46627 -2.67921 0
M  V30 1877 C 182.601 4.29952 -1.07964 0
M  V30 1878 H 179.821 0.596094 -0.308079 0
M  V30 1879 H 182.365 1.43205 -1.45988 0
M  V30 1880 H 180.52 3.805 -0.727912 0
M  V30 1881 H 180.934 4.39579 -2.8613 0
M  V30 1882 H 182.408 5.33159 -1.42986 0
M  V30 1883 H 182.885 4.39196 -0.0176577 0
M  V30 1884 H 183.491 3.93036 -1.62489 0
M  V30 1885 N 181.806 0.884767 1.30421 0
M  V30 1886 C 182.753 0.349642 2.28136 0
M  V30 1887 C 183.723 -0.560061 1.56373 0
M  V30 1888 O 184.908 -0.488524 1.8444 0
M  V30 1889 C 182.048 -0.42999 3.42411 0
M  V30 1890 C 181.161 0.508907 4.28992 0
M  V30 1891 C 180.296 -0.286301 5.30428 0
M  V30 1892 C 179.335 0.648079 6.08659 0
M  V30 1893 N 178.472 -0.111792 7.02011 0
M  V30 1894 H 183.312 1.18807 2.73293 0
M  V30 1895 H 180.849 0.597231 1.3443 0
M  V30 1896 H 182.807 -0.897923 4.07423 0
M  V30 1897 H 181.437 -1.23299 2.98324 0
M  V30 1898 H 180.489 1.09533 3.64289 0
M  V30 1899 H 181.801 1.22475 4.8353 0
M  V30 1900 H 180.955 -0.816098 6.01186 0
M  V30 1901 H 179.694 -1.03536 4.76583 0
M  V30 1902 H 178.699 1.18951 5.36778 0
M  V30 1903 H 179.924 1.39623 6.64592 0
M  V30 1904 H 177.87 -0.843395 6.50556 0
M  V30 1905 H 177.787 0.544429 7.54037 0
M  V30 1906 H 179.055 -0.622339 7.77012 0
M  V30 1907 N 183.284 -1.43765 0.645699 0
M  V30 1908 C 184.532 -2.01499 0.155731 0
M  V30 1909 C 184.853 -1.51151 -1.232 0
M  V30 1910 O 184.123 -0.721044 -1.82148 0
M  V30 1911 H 182.703 -0.745003 0.0545817 0
M  V30 1912 H 185.365 -1.76075 0.835677 0
M  V30 1913 H 184.461 -3.1181 0.134577 0
M  V30 1914 N 184.763 -0.387143 -1.52771 0
M  V30 1915 C 186.174 0.0873634 -1.86495 0
M  V30 1916 C 186.525 1.46336 -1.30691 0
M  V30 1917 O 185.65 2.068 -0.637409 0
M  V30 1918 C 186.245 0.165305 -3.38396 0
M  V30 1919 C 184.804 0.584101 -3.7184 0
M  V30 1920 C 183.951 -0.255279 -2.76122 0
M  V30 1921 H 186.902 -0.605104 -1.46711 0
M  V30 1922 H 186.923 0.984848 -3.67534 0
M  V30 1923 H 186.435 -0.836301 -3.78982 0
M  V30 1924 H 184.536 1.59315 -3.36823 0
M  V30 1925 H 184.649 0.343749 -4.77865 0
M  V30 1926 H 183.013 0.279126 -2.53166 0
M  V30 1927 H 183.796 -1.25482 -3.19545 0
M  V30 1928 N 186.241 1.57166 -0.116904 0
M  V30 1929 C 187.466 1.999 0.55271 0
M  V30 1930 C 187.891 0.996039 1.59564 0
M  V30 1931 O 187.249 -0.032556 1.81271 0
M  V30 1932 C 187.297 3.4152 1.15742 0
M  V30 1933 O 186.401 3.44106 2.27299 0
M  V30 1934 H 185.742 0.649447 0.138258 0
M  V30 1935 H 188.272 2.03573 -0.204759 0
M  V30 1936 H 188.282 3.79684 1.49346 0
M  V30 1937 H 186.957 4.14034 0.393493 0
M  V30 1938 H 185.534 3.17759 1.9515 0
M  V30 1939 N 187.719 -0.156864 1.56817 0
M  V30 1940 C 188.965 -0.872416 1.83076 0
M  V30 1941 C 189.298 -1.81261 0.697001 0
M  V30 1942 O 188.573 -1.92171 -0.30008 0
M  V30 1943 C 188.856 -1.65551 3.19789 0
M  V30 1944 C 188.709 -0.737467 4.43713 0
M  V30 1945 C 190.028 -2.62012 3.53606 0
M  V30 1946 H 187.147 -0.315715 0.665953 0
M  V30 1947 H 189.789 -0.138004 1.89498 0
M  V30 1948 H 187.939 -2.28159 3.14445 0
M  V30 1949 H 189.611 -0.123143 4.61136 0
M  V30 1950 H 187.854 -0.0464067 4.33775 0
M  V30 1951 H 188.525 -1.32122 5.35955 0
M  V30 1952 H 191.001 -2.09525 3.59497 0
M  V30 1953 H 189.877 -3.13861 4.50314 0
M  V30 1954 H 190.138 -3.42902 2.79053 0
M  V30 1955 N 189.197 -1.51736 -0.425897 0
M  V30 1956 C 190.444 -1.6497 -1.17436 0
M  V30 1957 C 190.772 -0.371445 -1.9092 0
M  V30 1958 O 190.027 0.644963 -1.84767 0
M  V30 1959 C 190.326 -2.81103 -2.20717 0
M  V30 1960 C 189.992 -4.19954 -1.64162 0
M  V30 1961 C 188.654 -4.57725 -1.48462 0
M  V30 1962 C 191.006 -5.06552 -1.22696 0
M  V30 1963 C 188.334 -5.79789 -0.897873 0
M  V30 1964 C 190.686 -6.29205 -0.654464 0
M  V30 1965 C 189.35 -6.6574 -0.484456 0
M  V30 1966 H 188.62 -0.603668 -0.429727 0
M  V30 1967 H 191.267 -1.85798 -0.463829 0
M  V30 1968 H 189.572 -2.54542 -2.97852 0
M  V30 1969 H 191.269 -2.8854 -2.78471 0
M  V30 1970 H 187.859 -3.90181 -1.77361 0
M  V30 1971 H 192.043 -4.77968 -1.33642 0
M  V30 1972 H 187.299 -6.06733 -0.75402 0
M  V30 1973 H 191.473 -6.95643 -0.324694 0
M  V30 1974 H 189.1 -7.60195 -0.0276833 0
M  V30 1975 N 190.675 0.682077 -1.42076 0
M  V30 1976 C 192.086 1.26246 -1.37546 0
M  V30 1977 C 192.437 1.96092 -0.0651481 0
M  V30 1978 O 191.562 1.99587 0.836297 0
M  V30 1979 C 192.157 2.29594 -2.49143 0
M  V30 1980 C 190.716 2.83175 -2.47969 0
M  V30 1981 C 189.863 1.57395 -2.28303 0
M  V30 1982 H 192.814 0.475937 -1.51395 0
M  V30 1983 H 192.835 3.11175 -2.18976 0
M  V30 1984 H 192.347 1.78729 -3.44496 0
M  V30 1985 H 190.448 3.3818 -1.56413 0
M  V30 1986 H 190.561 3.32687 -3.44755 0
M  V30 1987 H 188.925 1.83699 -1.76428 0
M  V30 1988 H 189.708 1.08507 -3.25701 0
M  V30 1989 N 192.153 1.28127 0.917671 0
M  V30 1990 C 193.083 1.14248 2.03641 0
M  V30 1991 C 194.064 0.0412748 1.7005 0
M  V30 1992 O 195.249 0.217566 1.92977 0
M  V30 1993 C 192.379 0.799431 3.37974 0
M  V30 1994 C 191.333 1.85497 3.85713 0
M  V30 1995 C 190.659 1.36565 5.16966 0
M  V30 1996 C 191.959 3.26085 4.08002 0
M  V30 1997 H 193.653 2.07835 2.15511 0
M  V30 1998 H 191.199 1.00064 1.03553 0
M  V30 1999 H 193.152 0.689114 4.15727 0
M  V30 2000 H 191.876 -0.172145 3.26146 0
M  V30 2001 H 190.535 1.95437 3.10161 0
M  V30 2002 H 190.183 0.383253 5.01538 0
M  V30 2003 H 189.883 2.07143 5.49878 0
M  V30 2004 H 191.407 1.26848 5.97279 0
M  V30 2005 H 192.821 3.19089 4.76293 0
M  V30 2006 H 191.218 3.94462 4.52238 0
M  V30 2007 H 192.288 3.70394 3.12948 0
M  V30 2008 N 193.631 -1.12557 1.10312 0
M  V30 2009 C 194.594 -2.16434 0.75424 0
M  V30 2010 C 195.594 -1.59278 -0.220685 0
M  V30 2011 O 196.784 -1.742 0.00230591 0
M  V30 2012 C 193.916 -3.40699 0.116987 0
M  V30 2013 H 195.109 -2.48811 1.67431 0
M  V30 2014 H 192.662 -1.27542 0.903475 0
M  V30 2015 H 193.397 -3.13921 -0.813877 0
M  V30 2016 H 193.182 -3.83459 0.818613 0
M  V30 2017 H 194.672 -4.17451 -0.111387 0
M  V30 2018 N 195.109 -0.891671 -1.2995 0
M  V30 2019 C 196.52 -0.563104 -1.78006 0
M  V30 2020 C 196.871 0.920978 -1.73241 0
M  V30 2021 O 195.996 1.71987 -1.31337 0
M  V30 2022 C 196.591 -1.01539 -3.23226 0
M  V30 2023 C 195.15 -0.738124 -3.69092 0
M  V30 2024 C 194.297 -1.19461 -2.50249 0
M  V30 2025 H 197.248 -1.07522 -1.16725 0
M  V30 2026 H 197.269 -0.347217 -3.78912 0
M  V30 2027 H 196.781 -2.09555 -3.26662 0
M  V30 2028 H 194.882 0.329766 -3.71138 0
M  V30 2029 H 194.995 -1.33037 -4.60259 0
M  V30 2030 H 193.359 -0.613787 -2.47194 0
M  V30 2031 H 194.142 -2.28265 -2.56417 0
M  V30 2032 N 196.587 1.43421 -0.653314 0
M  V30 2033 C 197.827 2.03689 -0.170346 0
M  V30 2034 C 198.191 1.50427 1.19314 0
M  V30 2035 O 199.392 2.0234 1.76952 0
M  V30 2036 C 197.663 3.56946 -0.180183 0
M  V30 2037 S 199.222 4.38171 0.234925 0
M  V30 2038 H 196.04 0.707345 -0.0719976 0
M  V30 2039 H 198.642 1.75486 -0.86167 0
M  V30 2040 H 197.346 3.93212 -1.17526 0
M  V30 2041 H 196.877 3.89791 0.531675 0
M  V30 2042 H 198.892 4.73808 1.47378 0
M  V30 2043 N 198.065 0.39524 1.52563 0
M  V30 2044 C 199.29 -0.187456 2.06551 0
M  V30 2045 C 199.715 -1.39249 1.26457 0
M  V30 2046 O 199.073 -1.78947 0.291151 0
M  V30 2047 C 199.121 -0.529985 3.56684 0
M  V30 2048 O 198.225 -1.62307 3.79118 0
M  V30 2049 H 197.566 -0.0202537 0.663691 0
M  V30 2050 H 200.096 0.564426 1.96661 0
M  V30 2051 H 200.106 -0.792598 4.00227 0
M  V30 2052 H 198.781 0.350987 4.14416 0
M  V30 2053 H 197.358 -1.3537 3.47461 0
M  V30 2054 N 199.544 -1.57102 0.125237 0
M  V30 2055 C 200.96 -1.57915 -0.231322 0
M  V30 2056 C 201.16 -1.13833 -1.66266 0
M  V30 2057 O 200.216 -0.828581 -2.38518 0
M  V30 2058 C 201.529 -3.00699 0.00766489 0
M  V30 2059 C 203.077 -3.12947 -0.0577483 0
M  V30 2060 C 203.552 -4.57742 0.153626 0
M  V30 2061 N 205.043 -4.63092 0.0998073 0
M  V30 2062 C 205.778 -5.72905 0.238174 0
M  V30 2063 N 205.274 -6.91445 0.433057 0
M  V30 2064 N 207.067 -5.6182 0.177308 0
M  V30 2065 H 199.218 -1.84055 1.06007 0
M  V30 2066 H 201.481 -0.850905 0.417929 0
M  V30 2067 H 201.187 -3.3726 0.997431 0
M  V30 2068 H 201.061 -3.70236 -0.721452 0
M  V30 2069 H 203.448 -2.7624 -1.03804 0
M  V30 2070 H 203.529 -2.4594 0.70335 0
M  V30 2071 H 203.173 -4.95149 1.13092 0
M  V30 2072 H 203.103 -5.22848 -0.627534 0
M  V30 2073 H 205.594 -3.77871 -0.047051 0
M  V30 2074 H 205.907 -7.70985 0.529332 0
M  V30 2075 H 204.252 -6.93415 0.469109 0
M  V30 2076 H 207.443 -4.68093 0.0259748 0
M  V30 2077 H 207.616 -6.47357 0.288582 0
M  V30 2078 N 201.022 0.148545 -1.56898 0
M  V30 2079 C 202.247 0.880385 -1.87787 0
M  V30 2080 C 202.672 1.74018 -0.714093 0
M  V30 2081 O 202.03 1.78153 0.336343 0
M  V30 2082 C 202.078 1.71422 -3.17249 0
M  V30 2083 O 201.182 2.8183 -3.01074 0
M  V30 2084 H 200.523 0.245301 -0.617028 0
M  V30 2085 H 203.053 0.139826 -2.04122 0
M  V30 2086 H 203.063 2.10954 -3.49231 0
M  V30 2087 H 201.738 1.08284 -4.01556 0
M  V30 2088 H 200.315 2.45715 -2.80497 0
M  V30 2089 N 202.5 1.5196 0.417844 0
M  V30 2090 C 203.728 1.69426 1.18753 0
M  V30 2091 C 204.143 0.399955 1.84515 0
M  V30 2092 O 203.5 -0.623288 1.71527 0
M  V30 2093 C 203.551 2.82375 2.25714 0
M  V30 2094 O 203.272 4.06793 1.62638 0
M  V30 2095 C 204.773 3.11277 3.15628 0
M  V30 2096 H 201.993 0.568031 0.357186 0
M  V30 2097 H 204.537 1.98475 0.49273 0
M  V30 2098 H 202.692 2.5587 2.90877 0
M  V30 2099 H 203.106 4.69667 2.3348 0
M  V30 2100 H 204.58 3.93843 3.86771 0
M  V30 2101 H 205.057 2.24473 3.77503 0
M  V30 2102 H 205.663 3.39515 2.56144 0
M  V30 2103 N 203.978 -0.674533 1.42435 0
M  V30 2104 C 205.203 -1.46784 1.46524 0
M  V30 2105 C 205.628 -1.87938 0.078066 0
M  V30 2106 O 204.986 -1.56014 -0.92354 0
M  V30 2107 C 205.034 -2.69307 2.39805 0
M  V30 2108 O 204.138 -3.67587 1.86959 0
M  V30 2109 H 203.479 -0.440959 0.496439 0
M  V30 2110 H 206.009 -0.827326 1.87127 0
M  V30 2111 H 206.019 -3.17374 2.56393 0
M  V30 2112 H 204.694 -2.38692 3.40586 0
M  V30 2113 H 203.271 -3.2662 1.79927 0
M  V30 2114 N 205.456 -1.28612 -0.910864 0
M  V30 2115 C 206.366 -1.14643 -2.0468 0
M  V30 2116 C 207.382 -0.0723121 -1.7385 0
M  V30 2117 O 208.558 -0.282178 -1.99413 0
M  V30 2118 C 205.623 -0.812561 -3.37044 0
M  V30 2119 C 204.684 -1.96935 -3.81465 0
M  V30 2120 C 203.917 -1.65131 -5.07511 0
M  V30 2121 O 204.14 -0.567013 -5.67575 0
M  V30 2122 O 203.074 -2.49585 -5.47714 0
M  V30 2123 H 206.9 -2.1001 -2.19384 0
M  V30 2124 H 204.485 -1.07958 -1.03274 0
M  V30 2125 H 206.367 -0.640441 -4.16505 0
M  V30 2126 H 205.042 0.111426 -3.23508 0
M  V30 2127 H 203.949 -2.19664 -3.02818 0
M  V30 2128 H 205.282 -2.87414 -3.99567 0
M  V30 2129 N 206.934 1.1197 -1.10907 0
M  V30 2130 C 208.159 1.87942 -0.877064 0
M  V30 2131 C 208.584 1.79341 0.567314 0
M  V30 2132 O 207.942 1.15184 1.40009 0
M  V30 2133 C 207.99 3.34926 -1.33629 0
M  V30 2134 O 207.094 4.09303 -0.504447 0
M  V30 2135 H 206.435 0.583785 -0.316371 0
M  V30 2136 H 208.965 1.4157 -1.47712 0
M  V30 2137 H 208.975 3.8577 -1.32837 0
M  V30 2138 H 207.65 3.40504 -2.3881 0
M  V30 2139 H 206.227 3.68393 -0.577993 0
M  V30 2140 N 208.412 0.89855 1.29475 0
M  V30 2141 C 209.64 0.539261 1.99749 0
M  V30 2142 C 210.055 -0.875716 1.67262 0
M  V30 2143 O 209.412 -1.57786 0.917049 0
M  V30 2144 C 209.463 0.72061 3.54245 0
M  V30 2145 O 209.184 2.07989 3.8558 0
M  V30 2146 C 210.685 0.366118 4.41786 0
M  V30 2147 H 207.905 0.207047 0.638258 0
M  V30 2148 H 210.449 1.20758 1.65039 0
M  V30 2149 H 208.604 0.0994862 3.87272 0
M  V30 2150 H 209.018 2.10841 4.80257 0
M  V30 2151 H 210.492 0.543848 5.49314 0
M  V30 2152 H 210.969 -0.696763 4.33638 0
M  V30 2153 H 211.575 0.964135 4.14228 0
M  V30 2154 N 209.89 -1.43072 0.660911 0
M  V30 2155 C 210.853 -2.29194 -0.0166406 0
M  V30 2156 C 211.853 -1.42609 -0.742912 0
M  V30 2157 O 213.043 -1.64155 -0.583004 0
M  V30 2158 C 210.175 -3.24831 -1.0343 0
M  V30 2159 H 211.368 -2.90596 0.741208 0
M  V30 2160 H 208.921 -1.5048 0.422532 0
M  V30 2161 H 209.656 -2.68339 -1.82111 0
M  V30 2162 H 209.441 -3.88676 -0.517082 0
M  V30 2163 H 210.931 -3.89451 -1.50723 0
M  V30 2164 N 211.368 -0.403325 -1.52352 0
M  V30 2165 C 212.331 0.413051 -2.25447 0
M  V30 2166 C 213.331 0.978513 -1.276 0
M  V30 2167 O 214.521 0.858305 -1.51587 0
M  V30 2168 C 211.653 1.58087 -3.02029 0
M  V30 2169 H 212.846 -0.227094 -2.99039 0
M  V30 2170 H 210.399 -0.155722 -1.55522 0
M  V30 2171 H 211.134 2.25804 -2.32772 0
M  V30 2172 H 210.919 1.18195 -3.73861 0
M  V30 2173 H 212.409 2.1585 -3.57489 0
M  V30 2174 N 212.846 1.57033 -0.133567 0
M  V30 2175 C 213.776 2.1909 0.807567 0
M  V30 2176 C 214.757 1.13517 1.26681 0
M  V30 2177 O 215.942 1.41809 1.32679 0
M  V30 2178 C 213.072 2.80188 2.05212 0
M  V30 2179 C 212.026 3.91471 1.73015 0
M  V30 2180 C 211.352 4.39443 3.04622 0
M  V30 2181 C 212.652 5.12886 0.987168 0
M  V30 2182 H 214.346 2.97988 0.290403 0
M  V30 2183 H 211.892 1.43335 0.138239 0
M  V30 2184 H 213.845 3.22264 2.71521 0
M  V30 2185 H 212.569 1.98601 2.59278 0
M  V30 2186 H 211.228 3.49993 1.0909 0
M  V30 2187 H 210.876 3.54695 3.56651 0
M  V30 2188 H 210.576 5.14495 2.83847 0
M  V30 2189 H 212.1 4.8418 3.72024 0
M  V30 2190 H 213.514 5.51891 1.55208 0
M  V30 2191 H 211.911 5.93615 0.87985 0
M  V30 2192 H 212.981 4.84894 -0.0235286 0
M  V30 2193 N 214.325 -0.140222 1.56975 0
M  V30 2194 C 215.573 -0.850005 1.83356 0
M  V30 2195 C 215.894 -1.81399 0.71551 0
M  V30 2196 O 215.164 -1.94136 -0.262294 0
M  V30 2197 H 213.744 -0.316886 0.676456 0
M  V30 2198 H 216.406 -0.132608 1.94448 0
M  V30 2199 H 215.502 -1.40814 2.78528 0
M  V30 2200 N 215.803 -1.52179 -0.40978 0
M  V30 2201 C 217.043 -1.67882 -1.16597 0
M  V30 2202 C 217.407 -0.399795 -1.87791 0
M  V30 2203 O 218.608 -0.43292 -2.65291 0
M  V30 2204 C 216.879 -2.86662 -2.13448 0
M  V30 2205 S 218.438 -3.22843 -2.97183 0
M  V30 2206 H 215.256 -0.59118 -0.395002 0
M  V30 2207 H 217.858 -1.9017 -0.453373 0
M  V30 2208 H 216.562 -3.77998 -1.59831 0
M  V30 2209 H 216.093 -2.66645 -2.89247 0
M  V30 2210 H 218.108 -2.71415 -4.15389 0
M  V30 2211 N 217.281 0.66697 -1.42791 0
M  V30 2212 C 218.211 1.79218 -1.49677 0
M  V30 2213 C 219.192 1.66405 -0.352623 0
M  V30 2214 O 220.377 1.85708 -0.567993 0
M  V30 2215 C 217.507 3.17565 -1.40605 0
M  V30 2216 C 216.461 3.45124 -2.53127 0
M  V30 2217 C 215.787 4.83127 -2.29112 0
M  V30 2218 C 217.087 3.41236 -3.95418 0
M  V30 2219 H 218.781 1.73713 -2.43853 0
M  V30 2220 H 216.327 0.83432 -1.17367 0
M  V30 2221 H 218.28 3.96022 -1.44029 0
M  V30 2222 H 217.004 3.23767 -0.429271 0
M  V30 2223 H 215.663 2.69031 -2.49034 0
M  V30 2224 H 215.311 4.85988 -1.29709 0
M  V30 2225 H 215.011 5.02528 -3.04531 0
M  V30 2226 H 216.535 5.63859 -2.34297 0
M  V30 2227 H 217.949 4.09651 -4.01073 0
M  V30 2228 H 216.346 3.72173 -4.70752 0
M  V30 2229 H 217.416 2.39665 -4.21532 0
M  V30 2230 N 218.759 1.29093 0.90403 0
M  V30 2231 C 220.005 1.16986 1.65656 0
M  V30 2232 C 220.338 -0.278925 1.92186 0
M  V30 2233 O 219.613 -1.2019 1.5292 0
M  V30 2234 C 219.896 1.97908 3.0084 0
M  V30 2235 C 219.749 3.50903 2.81403 0
M  V30 2236 C 221.068 1.80208 4.01513 0
M  V30 2237 H 218.187 0.426346 0.601164 0
M  V30 2238 H 220.829 1.58518 1.04747 0
M  V30 2239 H 218.979 1.62616 3.52829 0
M  V30 2240 H 220.651 3.96153 2.36348 0
M  V30 2241 H 218.894 3.76045 2.1627 0
M  V30 2242 H 219.565 4.02791 3.77443 0
M  V30 2243 H 222.041 2.11025 3.58619 0
M  V30 2244 H 220.917 2.39184 4.94047 0
M  V30 2245 H 221.178 0.756119 4.35586 0
M  V30 2246 N 220.237 -1.11381 1.11499 0
M  V30 2247 C 221.184 -2.17439 0.773887 0
M  V30 2248 C 222.154 -1.64132 -0.254899 0
M  V30 2249 O 223.339 -1.90345 -0.13168 0
M  V30 2250 C 220.479 -3.44373 0.223917 0
M  V30 2251 C 219.592 -4.1168 1.30934 0
M  V30 2252 C 218.727 -5.263 0.71984 0
M  V30 2253 C 217.766 -5.85493 1.78507 0
M  V30 2254 N 216.903 -6.91507 1.21502 0
M  V30 2255 H 221.743 -2.45962 1.68246 0
M  V30 2256 H 219.28 -1.20744 0.840191 0
M  V30 2257 H 221.238 -4.17047 -0.112921 0
M  V30 2258 H 219.868 -3.16232 -0.647851 0
M  V30 2259 H 218.92 -3.37073 1.76312 0
M  V30 2260 H 220.232 -4.51729 2.11524 0
M  V30 2261 H 219.386 -6.05785 0.333094 0
M  V30 2262 H 218.125 -4.87559 -0.117377 0
M  V30 2263 H 217.13 -5.04686 2.18111 0
M  V30 2264 H 218.355 -6.26301 2.62533 0
M  V30 2265 H 216.301 -6.54783 0.399455 0
M  V30 2266 H 216.218 -7.30214 1.95763 0
M  V30 2267 H 217.486 -7.74795 0.855181 0
M  V30 2268 N 221.715 -0.905404 -1.28997 0
M  V30 2269 C 222.992 -0.453513 -1.9027 0
M  V30 2270 C 223.372 1.06721 -1.82137 0
M  V30 2271 O 222.72 1.91159 -1.25182 0
M  V30 2272 C 222.93 -0.974494 -3.35119 0
M  V30 2273 C 224.278 -1.0216 -4.12127 0
M  V30 2274 O 225.302 -0.922557 -3.44046 0
M  V30 2275 O 224.161 -1.17121 -5.33802 0
M  V30 2276 H 221.255 -0.142347 -0.814657 0
M  V30 2277 H 223.801 -0.995642 -1.37423 0
M  V30 2278 H 222.573 -2.01848 -3.35221 0
M  V30 2279 H 222.196 -0.412706 -3.95452 0
M  V30 2280 N 223.193 1.4272 -0.668489 0
M  V30 2281 C 224.423 2.05668 -0.196063 0
M  V30 2282 C 224.831 1.5028 1.14946 0
M  V30 2283 O 224.174 0.6348 1.72383 0
M  V30 2284 C 224.236 3.59469 -0.0468879 0
M  V30 2285 C 223.9 4.37518 -1.32012 0
M  V30 2286 C 224.897 4.68584 -2.25222 0
M  V30 2287 C 222.582 4.77266 -1.56596 0
M  V30 2288 C 224.576 5.38326 -3.41297 0
M  V30 2289 C 222.263 5.4675 -2.72962 0
M  V30 2290 C 223.261 5.77204 -3.65137 0
M  V30 2291 O 222.949 6.45264 -4.79468 0
M  V30 2292 H 222.681 0.669382 -0.0943599 0
M  V30 2293 H 225.235 1.83954 -0.913788 0
M  V30 2294 H 223.465 3.79817 0.726357 0
M  V30 2295 H 225.154 4.04071 0.384852 0
M  V30 2296 H 225.92 4.38382 -2.07477 0
M  V30 2297 H 221.799 4.52959 -0.857249 0
M  V30 2298 H 225.343 5.62014 -4.13263 0
M  V30 2299 H 221.24 5.76369 -2.90635 0
M  V30 2300 H 222.008 6.63753 -4.78931 0
M  V30 2301 N 224.671 0.411399 1.52136 0
M  V30 2302 C 225.918 -0.163645 2.01838 0
M  V30 2303 C 226.246 -1.4495 1.29691 0
M  V30 2304 O 225.501 -1.91725 0.392431 0
M  V30 2305 C 225.8 -0.455872 3.54481 0
M  V30 2306 C 225.466 0.741055 4.44769 0
M  V30 2307 C 224.128 1.06936 4.69167 0
M  V30 2308 C 226.48 1.54075 4.97906 0
M  V30 2309 C 223.808 2.19851 5.43951 0
M  V30 2310 C 226.16 2.66067 5.73926 0
M  V30 2311 C 224.824 2.99381 5.96596 0
M  V30 2312 H 224.094 -0.0598821 0.738576 0
M  V30 2313 H 226.741 0.553283 1.83333 0
M  V30 2314 H 225.046 -1.2544 3.71177 0
M  V30 2315 H 226.743 -0.913802 3.90449 0
M  V30 2316 H 223.333 0.475192 4.25958 0
M  V30 2317 H 227.517 1.30033 4.78963 0
M  V30 2318 H 222.773 2.46006 5.59724 0
M  V30 2319 H 226.947 3.28419 6.14096 0
M  V30 2320 H 224.574 3.86992 6.54325 0
M  V30 2321 N 226.149 -1.5696 0.141893 0
M  V30 2322 C 227.56 -1.82797 -0.379776 0
M  V30 2323 C 227.911 -1.06033 -1.6508 0
M  V30 2324 O 227.036 -0.304011 -2.14254 0
M  V30 2325 C 227.631 -3.31578 -0.695802 0
M  V30 2326 C 226.19 -3.58014 -1.16201 0
M  V30 2327 C 225.337 -2.76699 -0.182455 0
M  V30 2328 H 228.288 -1.54406 0.366675 0
M  V30 2329 H 228.309 -3.47454 -1.55099 0
M  V30 2330 H 227.821 -3.87421 0.229449 0
M  V30 2331 H 225.922 -3.07553 -2.10338 0
M  V30 2332 H 226.035 -4.66501 -1.09151 0
M  V30 2333 H 224.399 -2.45618 -0.674072 0
M  V30 2334 H 225.182 -3.35311 0.736297 0
M  V30 2335 N 227.627 0.131896 -1.57047 0
M  V30 2336 C 228.537 1.1815 -2.02676 0
M  V30 2337 C 229.553 1.46113 -0.944824 0
M  V30 2338 O 230.729 1.57485 -1.25541 0
M  V30 2339 C 227.794 2.49139 -2.41103 0
M  V30 2340 C 226.855 2.28688 -3.63318 0
M  V30 2341 C 226.088 3.53431 -3.99903 0
M  V30 2342 O 226.311 4.60223 -3.36973 0
M  V30 2343 O 225.245 3.45198 -4.93074 0
M  V30 2344 H 229.071 0.824069 -2.92306 0
M  V30 2345 H 226.656 0.341745 -1.45439 0
M  V30 2346 H 228.538 3.26338 -2.66611 0
M  V30 2347 H 227.213 2.84382 -1.54624 0
M  V30 2348 H 226.12 1.4939 -3.42977 0
M  V30 2349 H 227.453 1.98355 -4.50462 0
M  V30 2350 N 229.106 1.52395 0.401703 0
M  V30 2351 C 230.517 1.58899 0.980202 0
M  V30 2352 C 230.868 0.434032 1.91339 0
M  V30 2353 O 229.993 -0.444619 2.11783 0
M  V30 2354 C 230.588 2.87994 1.78451 0
M  V30 2355 C 229.147 2.96953 2.31292 0
M  V30 2356 C 228.294 2.53903 1.11483 0
M  V30 2357 H 231.245 1.57657 0.18168 0
M  V30 2358 H 231.266 2.73765 2.64259 0
M  V30 2359 H 230.778 3.72035 1.10506 0
M  V30 2360 H 228.879 2.17422 3.02586 0
M  V30 2361 H 228.992 4.01344 2.61649 0
M  V30 2362 H 227.356 2.07925 1.47104 0
M  V30 2363 H 228.139 3.40326 0.450928 0
M  V30 2364 N 230.584 -0.659388 1.43143 0
M  V30 2365 C 231.83 -1.42145 1.44647 0
M  V30 2366 C 232.163 -1.9408 0.0681907 0
M  V30 2367 O 231.438 -1.71899 -0.910007 0
M  V30 2368 C 231.721 -2.60735 2.48373 0
M  V30 2369 C 231.574 -2.14332 3.95451 0
M  V30 2370 C 232.893 -3.62951 2.48906 0
M  V30 2371 H 230.012 -0.51552 0.526696 0
M  V30 2372 H 232.654 -0.748069 1.74654 0
M  V30 2373 H 230.804 -3.18184 2.22916 0
M  V30 2374 H 232.476 -1.61932 4.31944 0
M  V30 2375 H 230.719 -1.4576 4.08578 0
M  V30 2376 H 231.39 -2.99583 4.63631 0
M  V30 2377 H 233.866 -3.1525 2.71582 0
M  V30 2378 H 232.742 -4.43487 3.23435 0
M  V30 2379 H 233.003 -4.15126 1.52061 0
M  V30 2380 N 232.062 -1.29571 -0.897171 0
M  V30 2381 C 233.29 -1.20583 -1.68129 0
M  V30 2382 C 233.705 0.233181 -1.87354 0
M  V30 2383 O 233.062 1.15579 -1.41236 0
M  V30 2384 C 233.113 -1.91772 -3.06441 0
M  V30 2385 O 232.834 -3.30053 -2.88091 0
M  V30 2386 C 234.335 -1.89291 -4.00854 0
M  V30 2387 H 231.555 -0.417826 -0.525036 0
M  V30 2388 H 234.099 -1.70987 -1.12177 0
M  V30 2389 H 232.254 -1.45196 -3.59161 0
M  V30 2390 H 232.668 -3.65942 -3.75748 0
M  V30 2391 H 234.142 -2.43662 -4.95311 0
M  V30 2392 H 234.619 -0.869014 -4.30517 0
M  V30 2393 H 235.225 -2.35622 -3.54066 0
M  V30 2394 N 233.54 1.10788 -1.12088 0
M  V30 2395 C 234.786 1.82942 -0.875226 0
M  V30 2396 C 235.119 1.84779 0.597538 0
M  V30 2397 O 234.394 1.30578 1.44152 0
M  V30 2398 C 234.677 3.29789 -1.44606 0
M  V30 2399 C 234.53 3.36307 -2.98693 0
M  V30 2400 C 235.849 4.26064 -1.10261 0
M  V30 2401 H 232.968 0.664195 -0.319397 0
M  V30 2402 H 235.61 1.29867 -1.38689 0
M  V30 2403 H 233.76 3.75118 -1.01089 0
M  V30 2404 H 235.432 2.99487 -3.50864 0
M  V30 2405 H 233.675 2.76318 -3.34411 0
M  V30 2406 H 234.346 4.39694 -3.33726 0
M  V30 2407 H 236.822 3.88951 -1.4784 0
M  V30 2408 H 235.698 5.27183 -1.52869 0
M  V30 2409 H 235.959 4.42098 -0.0142953 0
M  V30 2410 N 235.018 0.912232 1.28515 0
M  V30 2411 C 236.243 0.559774 1.99703 0
M  V30 2412 C 236.668 -0.851393 1.67729 0
M  V30 2413 O 236.026 -1.56875 0.908834 0
M  V30 2414 C 236.074 0.773874 3.52198 0
M  V30 2415 O 235.178 -0.167842 4.12058 0
M  V30 2416 H 234.519 0.21723 0.627461 0
M  V30 2417 H 237.049 1.22725 1.63706 0
M  V30 2418 H 237.059 0.683386 4.02236 0
M  V30 2419 H 235.734 1.80261 3.74805 0
M  V30 2420 H 234.311 -0.0287509 3.72889 0
M  V30 2421 N 236.496 -1.42363 0.676048 0
M  V30 2422 C 237.742 -2.02336 0.207809 0
M  V30 2423 C 238.097 -1.52506 -1.17302 0
M  V30 2424 O 237.39 -0.718048 -1.77636 0
M  V30 2425 C 237.584 -3.56929 0.183431 0
M  V30 2426 C 237.413 -4.21762 1.56036 0
M  V30 2427 C 236.183 -4.56881 2.15842 0
M  V30 2428 C 238.381 -4.49267 2.50327 0
M  V30 2429 N 236.363 -5.069 3.46303 0
M  V30 2430 C 237.734 -5.00851 3.65443 0
M  V30 2431 C 239.789 -4.31257 2.48841 0
M  V30 2432 C 238.492 -5.36317 4.79329 0
M  V30 2433 C 240.518 -4.678 3.61824 0
M  V30 2434 C 239.88 -5.19537 4.75668 0
M  V30 2435 H 235.979 -0.772583 0.120993 0
M  V30 2436 H 238.563 -1.73203 0.889306 0
M  V30 2437 H 236.734 -3.85576 -0.467483 0
M  V30 2438 H 238.466 -4.03603 -0.297808 0
M  V30 2439 H 235.221 -4.4268 1.68319 0
M  V30 2440 H 235.645 -5.36338 4.13123 0
M  V30 2441 H 240.287 -3.90511 1.62051 0
M  V30 2442 H 238.005 -5.75995 5.66794 0
M  V30 2443 H 241.591 -4.55541 3.61903 0
M  V30 2444 H 240.471 -5.47287 5.61646 0
M  V30 2445 N 237.974 -0.419461 -1.51915 0
M  V30 2446 C 238.922 0.415502 -2.28859 0
M  V30 2447 C 239.916 1.03674 -1.3397 0
M  V30 2448 O 241.122 0.973757 -1.51387 0
M  V30 2449 H 237.497 0.152786 -0.736315 0
M  V30 2450 H 239.468 -0.254531 -2.97312 0
M  V30 2451 C 238.217 1.51425 -3.12995 0
M  V30 2452 H 237.54 1.04556 -3.85886 0
M  V30 2453 H 238.98 2.07208 -3.6992 0
M  V30 2454 C 237.439 2.48745 -2.27217 0
M  V30 2455 O 237.969 3.52871 -1.9195 0
M  V30 2456 N 236.175 2.19202 -1.90785 0
M  V30 2457 H 235.722 1.34556 -2.19664 0
M  V30 2458 H 235.68 2.84561 -1.33687 0
M  V30 2459 N 239.452 1.56882 -0.150215 0
M  V30 2460 C 240.677 2.01027 0.510184 0
M  V30 2461 C 241.102 1.02966 1.57415 0
M  V30 2462 O 240.46 0.00590158 1.81299 0
M  V30 2463 C 240.508 3.43899 1.08472 0
M  V30 2464 O 239.612 3.4885 2.19948 0
M  V30 2465 H 238.953 0.652233 0.124451 0
M  V30 2466 H 241.483 2.03093 -0.247894 0
M  V30 2467 H 241.493 3.82766 1.41259 0
M  V30 2468 H 240.168 4.14776 0.305582 0
M  V30 2469 H 238.745 3.21827 1.88366 0
M  V30 2470 N 240.93 -0.123565 1.57115 0
M  V30 2471 C 242.178 -0.83051 1.84247 0
M  V30 2472 C 242.499 -1.80629 0.73471 0
M  V30 2473 O 241.769 -1.94403 -0.241688 0
M  V30 2474 H 240.349 -0.309694 0.679778 0
M  V30 2475 H 243.011 -0.111976 1.94578 0
M  V30 2476 H 242.107 -1.37852 2.80006 0
M  V30 2477 N 242.408 -1.52605 -0.393616 0
M  V30 2478 C 243.371 -1.76415 -1.46323 0
M  V30 2479 C 244.371 -0.634126 -1.47768 0
M  V30 2480 O 245.561 -0.902142 -1.4902 0
M  V30 2481 C 242.693 -1.8607 -2.85641 0
M  V30 2482 H 243.886 -2.71916 -1.26498 0
M  V30 2483 H 241.439 -1.43257 -0.625073 0
M  V30 2484 H 242.174 -0.925378 -3.10817 0
M  V30 2485 H 241.959 -2.68235 -2.85993 0
M  V30 2486 H 243.449 -2.06179 -3.63153 0
M  V30 2487 N 243.887 0.651787 -1.4349 0
M  V30 2488 C 244.817 1.77621 -1.51569 0
M  V30 2489 C 245.798 1.66022 -0.370253 0
M  V30 2490 O 246.983 1.85095 -0.587658 0
M  V30 2491 C 244.113 3.16056 -1.43966 0
M  V30 2492 C 243.067 3.4242 -2.56774 0
M  V30 2493 C 242.393 4.8067 -2.34223 0
M  V30 2494 C 243.693 3.37023 -3.99015 0
M  V30 2495 H 245.387 1.71117 -2.45681 0
M  V30 2496 H 242.933 0.821825 -1.18246 0
M  V30 2497 H 244.886 3.94472 -1.48221 0
M  V30 2498 H 243.61 3.23293 -0.463586 0
M  V30 2499 H 242.269 2.66375 -2.51873 0
M  V30 2500 H 241.917 4.84585 -1.34856 0
M  V30 2501 H 241.617 4.9927 -3.09844 0
M  V30 2502 H 243.141 5.61342 -2.40265 0
M  V30 2503 H 244.555 4.05374 -4.05395 0
M  V30 2504 H 242.952 3.67159 -4.74673 0
M  V30 2505 H 244.022 2.3518 -4.2405 0
M  V30 2506 N 245.365 1.30045 0.890287 0
M  V30 2507 C 246.593 1.21472 1.67487 0
M  V30 2508 C 247.008 -0.223241 1.87476 0
M  V30 2509 O 246.365 -1.14828 1.41847 0
M  V30 2510 C 246.416 1.93394 3.05419 0
M  V30 2511 O 246.137 3.31576 2.86337 0
M  V30 2512 C 247.638 1.91414 3.99844 0
M  V30 2513 H 244.858 0.420604 0.522813 0
M  V30 2514 H 247.402 1.7158 1.11268 0
M  V30 2515 H 245.557 1.47099 3.58386 0
M  V30 2516 H 245.971 3.67929 3.73802 0
M  V30 2517 H 247.445 2.46285 4.94012 0
M  V30 2518 H 247.922 0.891833 4.3005 0
M  V30 2519 H 248.528 2.37496 3.52811 0
M  V30 2520 N 246.843 -1.10192 1.12674 0
M  V30 2521 C 248.068 -1.86523 0.906853 0
M  V30 2522 C 248.493 -1.80221 -0.538711 0
M  V30 2523 O 247.851 -1.17396 -1.38158 0
M  V30 2524 C 247.899 -3.32758 1.3894 0
M  V30 2525 O 247.003 -4.08449 0.5695 0
M  V30 2526 H 246.344 -0.578678 0.325619 0
M  V30 2527 H 248.874 -1.39203 1.49946 0
M  V30 2528 H 248.884 -3.83608 1.38958 0
M  V30 2529 H 247.559 -3.36661 2.44197 0
M  V30 2530 H 246.136 -3.67427 0.636528 0
M  V30 2531 N 248.321 -0.919034 -1.28029 0
M  V30 2532 C 249.569 -0.553838 -1.94363 0
M  V30 2533 C 249.89 0.906357 -1.72656 0
M  V30 2534 O 249.16 1.64143 -1.0693 0
M  V30 2535 H 247.74 -0.201834 -0.719216 0
M  V30 2536 H 250.402 -1.16954 -1.55909 0
M  V30 2537 H 249.498 -0.752758 -3.02886 0
M  V30 2538 N 249.799 1.42003 -0.683588 0
M  V30 2539 C 251.045 2.01712 -0.209825 0
M  V30 2540 C 251.378 1.53968 1.18353 0
M  V30 2541 O 250.653 0.745661 1.79639 0
M  V30 2542 C 250.936 3.59202 -0.254197 0
M  V30 2543 C 250.789 4.17102 -1.68363 0
M  V30 2544 C 252.108 4.38344 0.392709 0
M  V30 2545 H 249.227 0.732891 -0.0777189 0
M  V30 2546 H 251.869 1.68909 -0.87004 0
M  V30 2547 H 250.019 3.87278 0.307954 0
M  V30 2548 H 251.691 3.99946 -2.29871 0
M  V30 2549 H 249.934 3.72597 -2.22157 0
M  V30 2550 H 250.605 5.26249 -1.6663 0
M  V30 2551 H 253.081 4.16011 -0.0859162 0
M  V30 2552 H 251.957 5.47901 0.331063 0
M  V30 2553 H 252.218 4.16887 1.47164 0
M  V30 2554 N 251.277 0.427512 1.51691 0
M  V30 2555 C 252.227 -0.406604 2.24345 0
M  V30 2556 C 253.211 -0.998276 1.26187 0
M  V30 2557 O 254.403 -0.918045 1.51331 0
M  V30 2558 C 251.532 -1.51266 3.08177 0
M  V30 2559 C 250.618 -0.930868 4.13758 0
M  V30 2560 N 251.009 -0.0773552 5.05741 0
M  V30 2561 C 249.307 -1.19948 4.29568 0
M  V30 2562 C 250.008 0.248344 5.8117 0
M  V30 2563 N 248.984 -0.365535 5.4237 0
M  V30 2564 H 252.786 0.251581 2.92821 0
M  V30 2565 H 250.3 0.239003 1.60632 0
M  V30 2566 H 252.297 -2.123 3.58796 0
M  V30 2567 H 250.957 -2.17328 2.41244 0
M  V30 2568 H 251.968 0.288351 5.17097 0
M  V30 2569 H 248.645 -1.85832 3.73862 0
M  V30 2570 H 250.035 0.942286 6.6526 0
M  V30 2571 N 252.755 -1.56801 0.158532 0
M  V30 2572 C 253.983 -2.00859 -0.496303 0
M  V30 2573 C 254.398 -1.03871 -1.57659 0
M  V30 2574 O 253.755 -0.0375165 -1.82461 0
M  V30 2575 C 253.806 -3.4479 -1.08638 0
M  V30 2576 O 253.527 -4.38072 -0.0492322 0
M  V30 2577 C 255.028 -4.04185 -1.8207 0
M  V30 2578 H 252.248 -0.65864 -0.128199 0
M  V30 2579 H 254.792 -2.02885 0.256506 0
M  V30 2580 H 252.947 -3.43579 -1.78975 0
M  V30 2581 H 253.361 -5.2227 -0.483102 0
M  V30 2582 H 254.835 -5.06857 -2.18633 0
M  V30 2583 H 255.312 -3.45549 -2.71095 0
M  V30 2584 H 255.918 -4.0906 -1.16405 0
M  V30 2585 N 254.233 0.115231 -1.57178 0
M  V30 2586 C 255.48 0.822351 -1.8505 0
M  V30 2587 C 255.808 1.79701 -0.744168 0
M  V30 2588 O 255.063 1.93909 0.26414 0
M  V30 2589 C 255.362 1.60324 -3.19423 0
M  V30 2590 C 255.028 0.772536 -4.44233 0
M  V30 2591 C 253.69 0.543468 -4.78121 0
M  V30 2592 C 256.042 0.193746 -5.2084 0
M  V30 2593 C 253.37 -0.274583 -5.86057 0
M  V30 2594 C 255.722 -0.611517 -6.29637 0
M  V30 2595 C 254.386 -0.850867 -6.62055 0
M  V30 2596 H 253.656 0.30092 -0.677147 0
M  V30 2597 H 256.303 0.0845802 -1.91313 0
M  V30 2598 H 254.608 2.41203 -3.08753 0
M  V30 2599 H 256.305 2.1544 -3.38211 0
M  V30 2600 H 252.895 0.96117 -4.17683 0
M  V30 2601 H 257.079 0.357926 -4.95008 0
M  V30 2602 H 252.335 -0.469206 -6.09597 0
M  V30 2603 H 256.509 -1.06697 -6.88178 0
M  V30 2604 H 254.136 -1.48657 -7.45523 0
M  V30 2605 N 255.711 1.52812 0.385517 0
M  V30 2606 C 257.122 1.5993 0.963293 0
M  V30 2607 C 257.473 0.454302 1.90868 0
M  V30 2608 O 256.598 -0.422132 2.12243 0
M  V30 2609 C 257.193 2.89871 1.75387 0
M  V30 2610 C 255.752 2.99389 2.28129 0
M  V30 2611 C 254.899 2.55071 1.08783 0
M  V30 2612 H 257.85 1.5784 0.164948 0
M  V30 2613 H 257.871 2.76553 2.61341 0
M  V30 2614 H 257.383 3.73186 1.06554 0
M  V30 2615 H 255.484 2.20619 3.00263 0
M  V30 2616 H 255.597 4.04096 2.57377 0
M  V30 2617 H 253.961 2.09473 1.4489 0
M  V30 2618 H 254.744 3.40785 0.414807 0
M  V30 2619 N 257.189 -0.644168 1.43834 0
M  V30 2620 C 258.152 -1.73857 1.49353 0
M  V30 2621 C 259.152 -1.56315 0.377112 0
M  V30 2622 O 260.342 -1.62048 0.639226 0
M  V30 2623 C 257.474 -3.12819 1.35488 0
M  V30 2624 H 258.667 -1.70342 2.46827 0
M  V30 2625 H 256.22 -0.856652 1.30733 0
M  V30 2626 H 256.955 -3.2194 0.390569 0
M  V30 2627 H 256.74 -3.26958 2.16428 0
M  V30 2628 H 258.23 -3.92606 1.42302 0
M  V30 2629 N 258.668 -1.30515 -0.883378 0
M  V30 2630 C 259.914 -1.19607 -1.63774 0
M  V30 2631 C 260.247 0.248314 -1.92606 0
M  V30 2632 O 259.522 1.17742 -1.54813 0
M  V30 2633 C 259.805 -2.02669 -2.97653 0
M  V30 2634 C 259.658 -3.55335 -2.75784 0
M  V30 2635 C 260.977 -1.86573 -3.98596 0
M  V30 2636 H 258.096 -0.435856 -0.594305 0
M  V30 2637 H 260.738 -1.60165 -1.02212 0
M  V30 2638 H 258.888 -1.68208 -3.50197 0
M  V30 2639 H 260.56 -3.99863 -2.30016 0
M  V30 2640 H 258.803 -3.79438 -2.1026 0
M  V30 2641 H 259.474 -4.08745 -3.70988 0
M  V30 2642 H 261.95 -2.16703 -3.55217 0
M  V30 2643 H 260.826 -2.47014 -4.90179 0
M  V30 2644 H 261.087 -0.825321 -4.34328 0
M  V30 2645 N 260.146 1.09593 -1.13257 0
M  V30 2646 C 261.076 2.18214 -0.830946 0
M  V30 2647 C 262.057 1.68812 0.208966 0
M  V30 2648 O 263.242 1.9408 0.0682666 0
M  V30 2649 C 260.372 3.46051 -0.294296 0
M  V30 2650 C 259.326 4.08778 -1.26826 0
M  V30 2651 C 258.652 5.31419 -0.591449 0
M  V30 2652 C 259.952 4.51476 -2.62615 0
M  V30 2653 H 261.646 2.43703 -1.73923 0
M  V30 2654 H 259.192 1.17128 -0.837675 0
M  V30 2655 H 261.145 4.2134 -0.0709606 0
M  V30 2656 H 259.869 3.20079 0.649366 0
M  V30 2657 H 258.528 3.35505 -1.47756 0
M  V30 2658 H 258.176 5.01727 0.357633 0
M  V30 2659 H 257.876 5.74341 -1.24123 0
M  V30 2660 H 259.4 6.09433 -0.377355 0
M  V30 2661 H 260.814 5.17999 -2.45663 0
M  V30 2662 H 259.211 5.05277 -3.23752 0
M  V30 2663 H 260.281 3.63962 -3.20406 0
M  V30 2664 N 261.624 0.925811 1.2754 0
M  V30 2665 C 262.556 0.380753 2.26015 0
M  V30 2666 C 263.569 -0.487485 1.5533 0
M  V30 2667 O 264.758 -0.300413 1.75954 0
M  V30 2668 C 261.858 -0.473259 3.35579 0
M  V30 2669 C 261.031 0.375249 4.35787 0
M  V30 2670 C 260.09 -0.415809 5.24555 0
M  V30 2671 O 259.116 0.175834 5.68928 0
M  V30 2672 N 260.318 -1.71607 5.54555 0
M  V30 2673 H 263.083 1.22725 2.73421 0
M  V30 2674 H 260.644 0.793037 1.41147 0
M  V30 2675 H 262.636 -1.00949 3.91907 0
M  V30 2676 H 261.206 -1.2205 2.87789 0
M  V30 2677 H 260.426 1.09279 3.7875 0
M  V30 2678 H 261.714 0.955399 4.99749 0
M  V30 2679 H 261.112 -2.2191 5.20358 0
M  V30 2680 H 259.669 -2.19887 6.1359 0
M  V30 2681 N 263.102 -1.41638 0.69111 0
M  V30 2682 C 264.327 -2.06148 0.227583 0
M  V30 2683 C 264.752 -1.51652 -1.11281 0
M  V30 2684 O 264.11 -0.64164 -1.69566 0
M  V30 2685 C 264.158 -3.60095 0.190858 0
M  V30 2686 O 263.262 -4.03845 -0.835664 0
M  V30 2687 H 262.603 -0.654434 0.112306 0
M  V30 2688 H 265.133 -1.81484 0.944714 0
M  V30 2689 H 265.143 -4.07995 0.020207 0
M  V30 2690 H 263.818 -3.99129 1.16915 0
M  V30 2691 H 262.395 -3.67458 -0.63473 0
M  V30 2692 N 264.58 -0.43555 -1.51462 0
M  V30 2693 C 265.805 0.132627 -2.06976 0
M  V30 2694 C 266.23 1.35848 -1.30104 0
M  V30 2695 O 265.588 1.78112 -0.338493 0
M  V30 2696 C 265.636 0.43523 -3.57964 0
M  V30 2697 O 264.74 1.52198 -3.83288 0
M  V30 2698 H 264.081 0.00265 -0.663995 0
M  V30 2699 H 266.611 -0.616369 -1.95095 0
M  V30 2700 H 266.621 0.686206 -4.02188 0
M  V30 2701 H 265.296 -0.460739 -4.1334 0
M  V30 2702 H 263.873 1.2611 -3.50928 0
M  V30 2703 N 266.058 1.56714 -0.166846 0
M  V30 2704 C 267.306 1.96358 0.478305 0
M  V30 2705 C 267.627 1.0537 1.6408 0
M  V30 2706 O 266.897 0.119154 1.95537 0
M  V30 2707 H 265.477 0.725065 0.179692 0
M  V30 2708 H 268.139 1.93329 -0.246985 0
M  V30 2709 H 267.235 3.00547 0.841292 0
M  V30 2710 N 267.536 -0.106894 1.57237 0
M  V30 2711 C 268.466 -1.13148 2.04254 0
M  V30 2712 C 269.447 -1.42476 0.929224 0
M  V30 2713 O 270.632 -1.52709 1.19973 0
M  V30 2714 C 267.762 -2.4545 2.45706 0
M  V30 2715 C 266.716 -2.30558 3.60592 0
M  V30 2716 C 266.042 -3.67931 3.87983 0
M  V30 2717 C 267.342 -1.75597 4.91897 0
M  V30 2718 H 269.036 -0.740374 2.90101 0
M  V30 2719 H 266.582 -0.354696 1.39563 0
M  V30 2720 H 268.535 -3.17389 2.77205 0
M  V30 2721 H 267.259 -2.86475 1.56843 0
M  V30 2722 H 265.918 -1.61067 3.29322 0
M  V30 2723 H 265.566 -4.06462 2.96306 0
M  V30 2724 H 265.266 -3.58817 4.65322 0
M  V30 2725 H 266.79 -4.41356 4.21945 0
M  V30 2726 H 268.204 -2.37364 5.21854 0
M  V30 2727 H 266.601 -1.77272 5.73319 0
M  V30 2728 H 267.671 -0.714451 4.79608 0
M  V30 2729 N 269.014 -1.53014 -0.377408 0
M  V30 2730 C 270.244 -1.72265 -1.14054 0
M  V30 2731 C 270.652 -0.44601 -1.83868 0
M  V30 2732 O 269.995 0.590095 -1.73964 0
M  V30 2733 C 270.057 -2.82492 -2.22348 0
M  V30 2734 C 269.721 -4.23233 -1.72402 0
M  V30 2735 C 270.718 -5.05992 -1.19448 0
M  V30 2736 C 268.403 -4.696 -1.78273 0
M  V30 2737 C 270.397 -6.33203 -0.730268 0
M  V30 2738 C 268.084 -5.96792 -1.31464 0
M  V30 2739 C 269.082 -6.78424 -0.789297 0
M  V30 2740 O 268.77 -8.0323 -0.328077 0
M  V30 2741 H 268.502 -0.579873 -0.347453 0
M  V30 2742 H 271.056 -2.00502 -0.445882 0
M  V30 2743 H 269.286 -2.49702 -2.95272 0
M  V30 2744 H 270.975 -2.90034 -2.83963 0
M  V30 2745 H 271.741 -4.71349 -1.14259 0
M  V30 2746 H 267.62 -4.06142 -2.18106 0
M  V30 2747 H 271.164 -6.96868 -0.319542 0
M  V30 2748 H 267.061 -6.30937 -1.36342 0
M  V30 2749 H 267.829 -8.1727 -0.448493 0
M  V30 2750 N 270.492 0.636531 -1.44174 0
M  V30 2751 C 271.717 1.42847 -1.50364 0
M  V30 2752 C 272.142 1.87665 -0.127867 0
M  V30 2753 O 271.5 1.58408 0.88185 0
M  V30 2754 C 271.548 2.62854 -2.4686 0
M  V30 2755 O 270.652 3.62501 -1.9664 0
M  V30 2756 H 269.993 0.427642 -0.507955 0
M  V30 2757 H 272.523 0.777422 -1.89255 0
M  V30 2758 H 272.533 3.10465 -2.64718 0
M  V30 2759 H 271.208 2.29578 -3.46795 0
M  V30 2760 H 269.785 3.21735 -1.88523 0
M  V30 2761 N 271.97 1.30982 0.876444 0
M  V30 2762 C 272.9 1.20668 1.99903 0
M  V30 2763 C 273.881 0.095354 1.69833 0
M  V30 2764 O 275.066 0.27885 1.92188 0
M  V30 2765 C 272.196 0.90655 3.3526 0
M  V30 2766 C 271.15 1.97675 3.79617 0
M  V30 2767 C 270.476 1.52943 5.1236 0
M  V30 2768 C 271.776 3.389 3.97422 0
M  V30 2769 H 273.47 2.14586 2.0879 0
M  V30 2770 H 271.016 1.03308 1.00317 0
M  V30 2771 H 272.969 0.821025 4.13324 0
M  V30 2772 H 271.693 -0.0682969 3.26529 0
M  V30 2773 H 270.352 2.05205 3.03787 0
M  V30 2774 H 270 0.54262 5.00065 0
M  V30 2775 H 269.7 2.24532 5.43009 0
M  V30 2776 H 271.224 1.45786 5.92941 0
M  V30 2777 H 272.638 3.34081 4.659 0
M  V30 2778 H 271.035 4.0865 4.3946 0
M  V30 2779 H 272.105 3.80163 3.01006 0
M  V30 2780 N 273.449 -1.08991 1.13837 0
M  V30 2781 C 274.674 -1.85551 0.926585 0
M  V30 2782 C 275.099 -1.80782 -0.519566 0
M  V30 2783 O 274.457 -1.18855 -1.36906 0
M  V30 2784 C 274.505 -3.31266 1.42462 0
M  V30 2785 O 273.609 -4.07822 0.612789 0
M  V30 2786 H 272.95 -0.575192 0.331738 0
M  V30 2787 H 275.48 -1.37604 1.51414 0
M  V30 2788 H 275.49 -3.82112 1.43019 0
M  V30 2789 H 274.165 -3.34052 2.47754 0
M  V30 2790 H 272.742 -3.66731 0.675463 0
M  V30 2791 N 274.927 -0.932562 -1.27047 0
M  V30 2792 C 276.152 -0.591474 -1.98787 0
M  V30 2793 C 276.577 0.824601 -1.69062 0
M  V30 2794 O 275.935 1.5541 -0.933677 0
M  V30 2795 C 275.983 -0.829808 -3.50922 0
M  V30 2796 O 275.087 0.102266 -4.12273 0
M  V30 2797 H 274.428 -0.227185 -0.623926 0
M  V30 2798 H 276.958 -1.25314 -1.61733 0
M  V30 2799 H 276.968 -0.747292 -4.01098 0
M  V30 2800 H 275.643 -1.86201 -3.7189 0
M  V30 2801 H 274.22 -0.0305761 -3.72887 0
M  V30 2802 N 276.405 1.4127 -0.698611 0
M  V30 2803 C 277.651 2.01478 -0.231207 0
M  V30 2804 C 277.984 1.55215 1.16713 0
M  V30 2805 O 277.259 0.764672 1.78838 0
M  V30 2806 C 277.542 3.58912 -0.292281 0
M  V30 2807 C 277.395 4.15293 -1.72778 0
M  V30 2808 C 278.714 4.38736 0.346194 0
M  V30 2809 H 275.833 0.732025 -0.0854878 0
M  V30 2810 H 278.475 1.67977 -0.887906 0
M  V30 2811 H 276.625 3.87582 0.26686 0
M  V30 2812 H 278.297 3.97486 -2.341 0
M  V30 2813 H 276.54 3.7022 -2.26096 0
M  V30 2814 H 277.211 5.24452 -1.72202 0
M  V30 2815 H 279.687 4.15897 -0.130035 0
M  V30 2816 H 278.563 5.48221 0.272932 0
M  V30 2817 H 278.824 4.18425 1.42734 0
M  V30 2818 N 277.883 0.443576 1.51229 0
M  V30 2819 C 279.129 -0.120975 2.02439 0
M  V30 2820 C 279.462 -1.41815 1.32674 0
M  V30 2821 O 278.737 -1.89373 0.443622 0
M  V30 2822 C 279.02 -0.333291 3.58554 0
M  V30 2823 C 278.873 0.982968 4.38928 0
M  V30 2824 C 280.192 -1.10028 4.26124 0
M  V30 2825 H 277.311 -0.0424923 0.735774 0
M  V30 2826 H 279.953 0.583794 1.80809 0
M  V30 2827 H 278.103 -0.933614 3.77115 0
M  V30 2828 H 279.775 1.61775 4.32003 0
M  V30 2829 H 278.018 1.58611 4.03763 0
M  V30 2830 H 278.689 0.788379 5.46341 0
M  V30 2831 H 281.165 -0.591711 4.11871 0
M  V30 2832 H 280.041 -1.21761 5.35225 0
M  V30 2833 H 280.302 -2.12996 3.87408 0
M  V30 2834 N 279.361 -1.56624 0.175154 0
M  V30 2835 C 280.589 -2.01374 -0.474971 0
M  V30 2836 C 281.004 -1.05537 -1.56548 0
M  V30 2837 O 280.361 -0.0568668 -1.82411 0
M  V30 2838 C 280.412 -3.45923 -1.04975 0
M  V30 2839 O 280.133 -4.381 -0.00276605 0
M  V30 2840 C 281.634 -4.06093 -1.77773 0
M  V30 2841 H 278.854 -0.659962 -0.121206 0
M  V30 2842 H 281.398 -2.02601 0.27801 0
M  V30 2843 H 279.553 -3.45458 -1.75321 0
M  V30 2844 H 279.967 -5.22753 -0.427681 0
M  V30 2845 H 281.441 -5.09147 -2.13245 0
M  V30 2846 H 281.918 -3.48405 -2.67414 0
M  V30 2847 H 282.524 -4.10272 -1.12059 0
M  V30 2848 N 280.839 0.0985539 -1.57292 0
M  V30 2849 C 282.085 0.803867 -1.86188 0
M  V30 2850 C 282.418 1.78549 -0.763794 0
M  V30 2851 O 281.693 1.93153 0.22855 0
M  V30 2852 C 281.976 1.53568 -3.25713 0
M  V30 2853 C 281.829 0.572277 -4.46145 0
M  V30 2854 C 283.148 2.48708 -3.63087 0
M  V30 2855 H 280.267 0.290781 -0.677211 0
M  V30 2856 H 282.909 0.0675783 -1.8988 0
M  V30 2857 H 281.059 2.16332 -3.22696 0
M  V30 2858 H 282.731 -0.0480894 -4.61275 0
M  V30 2859 H 280.974 -0.114618 -4.33649 0
M  V30 2860 H 281.645 1.12139 -5.40489 0
M  V30 2861 H 284.121 1.96039 -3.67026 0
M  V30 2862 H 282.997 2.96932 -4.61652 0
M  V30 2863 H 283.258 3.32309 -2.91588 0
M  V30 2864 N 282.317 1.53212 0.369288 0
M  V30 2865 C 283.728 1.60943 0.946276 0
M  V30 2866 C 284.079 0.47452 1.90375 0
M  V30 2867 O 283.204 -0.399597 2.12679 0
M  V30 2868 C 283.799 2.91715 1.72302 0
M  V30 2869 C 282.358 3.01792 2.24941 0
M  V30 2870 C 281.505 2.56211 1.06072 0
M  V30 2871 H 284.456 1.58007 0.148198 0
M  V30 2872 H 284.477 2.79309 2.58393 0
M  V30 2873 H 283.989 3.74295 1.0259 0
M  V30 2874 H 282.09 2.23791 2.97906 0
M  V30 2875 H 282.203 4.06803 2.53077 0
M  V30 2876 H 280.567 2.10998 1.4266 0
M  V30 2877 H 281.35 3.41206 0.378639 0
M  V30 2878 N 283.795 -0.628877 1.44509 0
M  V30 2879 C 285.02 -1.42048 1.5112 0
M  V30 2880 C 285.445 -1.87594 0.137818 0
M  V30 2881 O 284.803 -1.58873 -0.873437 0
M  V30 2882 C 284.851 -2.61541 2.48251 0
M  V30 2883 O 283.955 -3.61453 1.98559 0
M  V30 2884 H 283.296 -0.424942 0.510216 0
M  V30 2885 H 285.826 -0.767374 1.89664 0
M  V30 2886 H 285.836 -3.09057 2.66361 0
M  V30 2887 H 284.511 -2.27736 3.48007 0
M  V30 2888 H 283.088 -3.20731 1.90227 0
M  V30 2889 N 285.273 -1.31445 -0.869486 0
M  V30 2890 C 286.498 -1.24256 -1.66058 0
M  V30 2891 C 286.923 0.188928 -1.87149 0
M  V30 2892 O 286.281 1.13522 -1.4136 0
M  V30 2893 C 286.329 -1.9924 -3.00559 0
M  V30 2894 O 285.433 -1.33007 -3.90362 0
M  V30 2895 H 284.774 -0.428973 -0.506831 0
M  V30 2896 H 287.304 -1.73521 -1.08404 0
M  V30 2897 H 287.314 -2.08854 -3.50491 0
M  V30 2898 H 285.989 -3.03342 -2.84528 0
M  V30 2899 H 284.566 -1.31848 -3.48813 0
M  V30 2900 N 286.751 1.08385 -1.14413 0
M  V30 2901 C 287.976 1.85057 -0.936413 0
M  V30 2902 C 288.401 1.81055 0.509971 0
M  V30 2903 O 287.759 1.1958 1.36273 0
M  V30 2904 C 287.807 3.30505 -1.44217 0
M  V30 2905 O 286.911 4.07491 -0.634409 0
M  V30 2906 H 286.252 0.573425 -0.334784 0
M  V30 2907 H 288.782 1.36799 -1.52142 0
M  V30 2908 H 288.792 3.81348 -1.45043 0
M  V30 2909 H 287.467 3.32734 -2.49522 0
M  V30 2910 H 286.044 3.66368 -0.694902 0
M  V30 2911 N 288.23 0.939286 1.26551 0
M  V30 2912 C 289.16 0.465044 2.28822 0
M  V30 2913 C 290.141 -0.480692 1.63167 0
M  V30 2914 O 291.326 -0.382955 1.90387 0
M  V30 2915 C 288.456 -0.27234 3.46231 0
M  V30 2916 C 287.41 0.58666 4.2396 0
M  V30 2917 C 286.736 -0.280573 5.33963 0
M  V30 2918 C 288.036 1.85704 4.88171 0
M  V30 2919 H 289.73 1.31979 2.68741 0
M  V30 2920 H 287.276 0.636061 1.29191 0
M  V30 2921 H 289.229 -0.615133 4.16886 0
M  V30 2922 H 287.953 -1.16121 3.0526 0
M  V30 2923 H 286.612 0.91232 3.55067 0
M  V30 2924 H 286.26 -1.16874 4.89234 0
M  V30 2925 H 285.96 0.29076 5.8688 0
M  V30 2926 H 287.484 -0.618678 6.07458 0
M  V30 2927 H 288.898 1.58161 5.51052 0
M  V30 2928 H 287.295 2.37279 5.51197 0
M  V30 2929 H 288.365 2.56957 4.11219 0
M  V30 2930 N 289.708 -1.40897 0.706093 0
M  V30 2931 C 290.956 -2.00657 0.241054 0
M  V30 2932 C 291.277 -1.56241 -1.16678 0
M  V30 2933 O 290.547 -0.79765 -1.78926 0
M  V30 2934 H 289.127 -0.742018 0.0861308 0
M  V30 2935 H 291.789 -1.72372 0.909604 0
M  V30 2936 H 290.885 -3.10958 0.266705 0
M  V30 2937 N 291.186 -0.45159 -1.50991 0
M  V30 2938 C 292.414 0.108334 -2.06616 0
M  V30 2939 C 292.829 1.35224 -1.31757 0
M  V30 2940 O 292.186 1.78475 -0.381174 0
M  V30 2941 C 292.237 0.41619 -3.59096 0
M  V30 2942 O 291.958 -0.778361 -4.3113 0
M  V30 2943 C 293.459 1.02523 -4.31282 0
M  V30 2944 H 290.679 0.00159995 -0.670998 0
M  V30 2945 H 293.223 -0.634771 -1.94399 0
M  V30 2946 H 291.378 1.10921 -3.71181 0
M  V30 2947 H 291.792 -0.511181 -5.22003 0
M  V30 2948 H 293.266 1.19053 -5.39009 0
M  V30 2949 H 293.743 2.01013 -3.905 0
M  V30 2950 H 294.349 0.371173 -4.23677 0
M  V30 2951 N 292.664 1.56529 -0.183458 0
M  V30 2952 C 293.611 2.18546 0.742055 0
M  V30 2953 C 294.581 1.12912 1.2182 0
M  V30 2954 O 295.766 1.41115 1.28418 0
M  V30 2955 C 292.906 2.83977 1.96089 0
M  V30 2956 C 292.019 4.04105 1.52719 0
M  V30 2957 C 291.154 4.57427 2.70063 0
M  V30 2958 C 290.193 5.69938 2.23243 0
M  V30 2959 N 289.33 6.17717 3.33722 0
M  V30 2960 H 294.17 2.97284 0.206432 0
M  V30 2961 H 291.707 1.46823 0.0901571 0
M  V30 2962 H 293.665 3.20077 2.67594 0
M  V30 2963 H 292.295 2.07822 2.47002 0
M  V30 2964 H 291.347 3.73745 0.708436 0
M  V30 2965 H 292.659 4.85513 1.1436 0
M  V30 2966 H 291.813 4.95772 3.49708 0
M  V30 2967 H 290.552 3.75101 3.11689 0
M  V30 2968 H 289.557 5.31133 1.42048 0
M  V30 2969 H 290.782 6.54073 1.82661 0
M  V30 2970 H 288.728 5.38317 3.74902 0
M  V30 2971 H 288.645 6.94146 2.99495 0
M  V30 2972 H 289.913 6.60713 4.13616 0
M  V30 2973 N 294.142 -0.090211 1.57342 0
M  V30 2974 C 295.37 -0.806224 1.90546 0
M  V30 2975 C 295.785 -1.72041 0.777644 0
M  V30 2976 O 295.142 -1.80778 -0.250103 0
M  V30 2977 C 295.193 -1.61546 3.23396 0
M  V30 2978 O 294.914 -0.738043 4.31839 0
M  V30 2979 C 296.415 -2.4341 3.70495 0
M  V30 2980 H 293.635 -0.230256 0.630257 0
M  V30 2981 H 296.179 -0.0659843 2.04394 0
M  V30 2982 H 294.334 -2.30816 3.11131 0
M  V30 2983 H 294.748 -1.29901 5.08159 0
M  V30 2984 H 296.222 -2.95676 4.66133 0
M  V30 2985 H 296.699 -3.22098 2.98579 0
M  V30 2986 H 297.305 -1.79331 3.85643 0
M  V30 2987 N 295.62 -1.53406 -0.361157 0
M  V30 2988 C 296.85 -1.73465 -1.1222 0
M  V30 2989 C 297.258 -0.465486 -1.83384 0
M  V30 2990 O 296.601 0.571611 -1.7458 0
M  V30 2991 C 296.663 -2.84834 -2.19339 0
M  V30 2992 C 296.327 -4.25038 -1.67903 0
M  V30 2993 C 297.324 -5.07231 -1.14074 0
M  V30 2994 C 295.009 -4.71464 -1.73282 0
M  V30 2995 C 297.003 -6.33942 -0.663068 0
M  V30 2996 C 294.69 -5.98153 -1.25127 0
M  V30 2997 C 295.688 -6.79223 -0.717296 0
M  V30 2998 O 295.376 -8.03533 -0.242865 0
M  V30 2999 H 295.108 -0.583526 -0.341283 0
M  V30 3000 H 297.662 -2.00964 -0.424591 0
M  V30 3001 H 295.892 -2.5282 -2.92607 0
M  V30 3002 H 297.581 -2.9303 -2.80871 0
M  V30 3003 H 298.347 -4.72534 -1.09254 0
M  V30 3004 H 294.226 -4.08432 -2.13786 0
M  V30 3005 H 297.77 -6.97167 -0.245612 0
M  V30 3006 H 293.667 -6.32347 -1.29642 0
M  V30 3007 H 294.435 -8.177 -0.361786 0
M  V30 3008 N 297.098 0.621204 -1.44841 0
M  V30 3009 C 298.326 1.40752 -1.51646 0
M  V30 3010 C 298.741 1.88246 -0.144549 0
M  V30 3011 O 298.098 1.61422 0.851416 0
M  V30 3012 C 298.149 2.62119 -2.4895 0
M  V30 3013 O 297.87 2.16602 -3.80808 0
M  V30 3014 C 299.371 3.55135 -2.65319 0
M  V30 3015 H 296.591 0.431325 -0.514004 0
M  V30 3016 H 299.135 0.758835 -1.899 0
M  V30 3017 H 297.29 3.23058 -2.13805 0
M  V30 3018 H 297.704 2.95358 -4.33433 0
M  V30 3019 H 299.178 4.36874 -3.37409 0
M  V30 3020 H 299.655 4.04592 -1.70886 0
M  V30 3021 H 300.261 3.00058 -3.01405 0
M  V30 3022 N 298.576 1.31904 0.862503 0
M  V30 3023 C 299.816 1.23324 1.63004 0
M  V30 3024 C 300.18 -0.203724 1.90916 0
M  V30 3025 O 301.381 -0.413132 2.65606 0
M  V30 3026 C 299.652 2.06116 2.91978 0
M  V30 3027 S 301.211 2.14478 3.82812 0
M  V30 3028 H 298.029 0.439117 0.559193 0
M  V30 3029 H 300.631 1.66658 1.02202 0
M  V30 3030 H 299.335 3.09593 2.69407 0
M  V30 3031 H 298.866 1.6353 3.57801 0
M  V30 3032 H 300.881 1.28855 4.79177 0
M  V30 3033 N 300.054 -1.07777 1.14986 0
M  V30 3034 C 301.002 -2.16964 0.838406 0
M  V30 3035 C 301.996 -1.68372 -0.186386 0
M  V30 3036 O 303.202 -1.79951 -0.0418465 0
M  V30 3037 H 299.577 -0.708006 0.253439 0
M  V30 3038 H 301.548 -2.40454 1.76704 0
M  V30 3039 C 300.297 -3.4604 0.339335 0
M  V30 3040 H 299.62 -3.83813 1.11927 0
M  V30 3041 H 301.06 -4.23698 0.160021 0
M  V30 3042 C 299.519 -3.23569 -0.938325 0
M  V30 3043 O 300.049 -3.47752 -2.01077 0
M  V30 3044 N 298.255 -2.77079 -0.876117 0
M  V30 3045 H 297.802 -2.576 -0.00322037 0
M  V30 3046 H 297.76 -2.62422 -1.73153 0
M  V30 3047 N 301.532 -0.945985 -1.26051 0
M  V30 3048 C 302.778 -0.597002 -1.93814 0
M  V30 3049 C 303.111 0.862484 -1.73997 0
M  V30 3050 O 302.386 1.61769 -1.07986 0
M  V30 3051 C 302.669 -0.945937 -3.47454 0
M  V30 3052 C 302.522 -2.46052 -3.76535 0
M  V30 3053 C 303.841 -0.464785 -4.37639 0
M  V30 3054 H 300.96 -0.218366 -0.703907 0
M  V30 3055 H 303.602 -1.18107 -1.48831 0
M  V30 3056 H 301.752 -0.448902 -3.85898 0
M  V30 3057 H 303.424 -3.03065 -3.47778 0
M  V30 3058 H 301.667 -2.90194 -3.22444 0
M  V30 3059 H 302.338 -2.65517 -4.83947 0
M  V30 3060 H 304.814 -0.891016 -4.06448 0
M  V30 3061 H 303.69 -0.737712 -5.4392 0
M  V30 3062 H 303.951 0.635274 -4.37512 0
M  V30 3063 N 303.011 1.40521 -0.713556 0
M  V30 3064 C 304.288 1.94775 -0.17943 0
M  V30 3065 C 304.668 1.65184 1.31444 0
M  V30 3066 O 304.016 0.968429 2.06963 0
M  V30 3067 C 304.226 3.45543 -0.489986 0
M  V30 3068 C 305.574 4.22442 -0.427536 0
M  V30 3069 O 306.598 3.53644 -0.425929 0
M  V30 3070 O 305.457 5.4501 -0.403292 0
M  V30 3071 H 302.551 0.826606 -0.0255192 0
M  V30 3072 H 305.097 1.5014 -0.790949 0
M  V30 3073 H 303.869 3.60432 -1.5233 0
M  V30 3074 H 303.492 3.97311 0.151598 0
M  V30 3075 N 304.489 0.459591 1.5075 0
M  V30 3076 C 305.439 -0.358926 2.25157 0
M  V30 3077 C 306.423 -0.971285 1.28276 0
M  V30 3078 O 307.615 -0.885739 1.53244 0
M  V30 3079 C 304.744 -1.44695 3.11317 0
M  V30 3080 C 303.83 -0.842894 4.15639 0
M  V30 3081 N 304.221 0.0299373 5.05791 0
M  V30 3082 C 302.519 -1.10809 4.32015 0
M  V30 3083 C 303.22 0.371563 5.80512 0
M  V30 3084 N 302.196 -0.250409 5.43023 0
M  V30 3085 H 305.998 0.313636 2.92222 0
M  V30 3086 H 303.512 0.273021 1.60089 0
M  V30 3087 H 305.509 -2.04641 3.63218 0
M  V30 3088 H 304.169 -2.12162 2.45799 0
M  V30 3089 H 305.18 0.39797 5.16369 0
M  V30 3090 H 301.857 -1.7786 3.77719 0
M  V30 3091 H 303.247 1.08319 6.63111 0
M  V30 3092 N 305.967 -1.56429 0.191757 0
M  V30 3093 C 306.914 -2.18936 -0.730454 0
M  V30 3094 C 307.884 -1.13557 -1.21219 0
M  V30 3095 O 309.069 -1.41794 -1.27668 0
M  V30 3096 C 306.209 -2.85013 -1.9458 0
M  V30 3097 C 305.322 -4.04909 -1.50574 0
M  V30 3098 C 304.457 -4.58853 -2.67634 0
M  V30 3099 C 303.496 -5.71114 -2.20217 0
M  V30 3100 N 302.633 -6.19478 -3.30442 0
M  V30 3101 H 307.473 -2.97389 -0.190664 0
M  V30 3102 H 305.01 -1.46869 -0.0823694 0
M  V30 3103 H 306.968 -3.21492 -2.65893 0
M  V30 3104 H 305.598 -2.09129 -2.45896 0
M  V30 3105 H 304.65 -3.74115 -0.688605 0
M  V30 3106 H 305.962 -4.86113 -1.11784 0
M  V30 3107 H 305.116 -4.97619 -3.47074 0
M  V30 3108 H 303.855 -3.76749 -3.09696 0
M  V30 3109 H 302.86 -5.31879 -1.3923 0
M  V30 3110 H 304.085 -6.55033 -1.79189 0
M  V30 3111 H 302.031 -5.40297 -3.72041 0
M  V30 3112 H 301.948 -6.95725 -2.9581 0
M  V30 3113 H 303.216 -6.62898 -4.10106 0
M  V30 3114 N 307.445 0.0818655 -1.57387 0
M  V30 3115 C 308.856 0.634871 -1.75574 0
M  V30 3116 C 309.207 1.78435 -0.815809 0
M  V30 3117 O 308.332 2.164 0.0025366 0
M  V30 3118 C 308.927 1.15845 -3.18379 0
M  V30 3119 C 307.486 1.65741 -3.37945 0
M  V30 3120 C 306.633 0.572549 -2.71325 0
M  V30 3121 H 309.584 -0.144268 -1.58043 0
M  V30 3122 H 309.605 2.02751 -3.21982 0
M  V30 3123 H 309.117 0.321631 -3.86765 0
M  V30 3124 H 307.218 2.51781 -2.74658 0
M  V30 3125 H 307.331 1.74129 -4.46336 0
M  V30 3126 H 305.695 1.01518 -2.33594 0
M  V30 3127 H 306.478 -0.253918 -3.4236 0
M  V30 3128 N 308.923 1.53595 0.353017 0
M  V30 3129 C 310.148 1.7462 1.11904 0
M  V30 3130 C 310.573 0.479721 1.8188 0
M  V30 3131 O 309.931 -0.567066 1.72204 0
M  V30 3132 C 309.979 2.92029 2.11545 0
M  V30 3133 O 309.083 2.61516 3.18878 0
M  V30 3134 H 308.424 0.579531 0.324099 0
M  V30 3135 H 310.954 2.00525 0.406301 0
M  V30 3136 H 310.964 3.18551 2.5493 0
M  V30 3137 H 309.639 3.83888 1.60008 0
M  V30 3138 H 308.216 2.45852 2.80377 0
M  V30 3139 N 310.401 -0.613514 1.45168 0
M  V30 3140 C 311.349 -1.74572 1.53712 0
M  V30 3141 C 312.343 -1.64426 0.407505 0
M  V30 3142 O 313.549 -1.70291 0.583176 0
M  V30 3143 H 309.924 -0.576641 0.48269 0
M  V30 3144 H 311.895 -1.64492 2.48968 0
M  V30 3145 C 310.644 -3.12943 1.51532 0
M  V30 3146 H 309.967 -3.21407 2.37776 0
M  V30 3147 H 311.407 -3.9201 1.61569 0
M  V30 3148 C 309.866 -3.36053 0.238798 0
M  V30 3149 O 310.396 -3.95837 -0.6838 0
M  V30 3150 N 308.602 -2.9028 0.136359 0
M  V30 3151 H 308.149 -2.41811 0.887999 0
M  V30 3152 H 308.107 -3.06116 -0.716944 0
M  V30 3153 N 311.879 -1.3236 -0.855495 0
M  V30 3154 C 313.107 -1.2587 -1.64208 0
M  V30 3155 C 313.522 0.173457 -1.88002 0
M  V30 3156 O 312.879 1.11027 -1.44842 0
M  V30 3157 C 312.93 -2.01424 -3.00184 0
M  V30 3158 O 312.651 -3.39051 -2.77445 0
M  V30 3159 C 314.152 -2.01948 -3.94629 0
M  V30 3160 H 311.372 -0.434318 -0.511477 0
M  V30 3161 H 313.916 -1.74469 -1.0668 0
M  V30 3162 H 312.071 -1.56549 -3.5436 0
M  V30 3163 H 312.485 -3.77711 -3.63916 0
M  V30 3164 H 313.959 -2.59297 -4.87308 0
M  V30 3165 H 314.436 -1.00554 -4.27534 0
M  V30 3166 H 315.042 -2.46767 -3.4639 0
M  V30 3167 N 313.357 1.07166 -1.15556 0
M  V30 3168 C 314.304 2.14417 -0.854055 0
M  V30 3169 C 315.274 1.64965 0.193806 0
M  V30 3170 O 316.459 1.90703 0.0609443 0
M  V30 3171 C 313.599 3.43304 -0.351574 0
M  V30 3172 C 312.712 4.06537 -1.46123 0
M  V30 3173 C 311.847 5.23266 -0.914677 0
M  V30 3174 C 310.886 5.78464 -2.00114 0
M  V30 3175 N 310.023 6.86521 -1.47083 0
M  V30 3176 H 314.863 2.39548 -1.77259 0
M  V30 3177 H 312.4 1.17543 -0.884425 0
M  V30 3178 H 314.358 4.17179 -0.0419409 0
M  V30 3179 H 312.988 3.18419 0.530037 0
M  V30 3180 H 312.04 3.30297 -1.88701 0
M  V30 3181 H 313.352 4.43567 -2.28144 0
M  V30 3182 H 312.506 6.04131 -0.557698 0
M  V30 3183 H 311.245 4.87658 -0.0636583 0
M  V30 3184 H 310.25 4.96243 -2.36692 0
M  V30 3185 H 311.475 6.16126 -2.85597 0
M  V30 3186 H 309.421 6.52849 -0.642198 0
M  V30 3187 H 309.338 7.22446 -2.22729 0
M  V30 3188 H 310.606 7.71087 -1.14215 0
M  V30 3189 N 314.835 0.952656 1.25548 0
M  V30 3190 C 316.081 0.607272 1.93494 0
M  V30 3191 C 316.414 -0.853245 1.74452 0
M  V30 3192 O 315.689 -1.61194 1.08843 0
M  V30 3193 C 315.972 0.96435 3.46947 0
M  V30 3194 C 315.825 2.48045 3.75225 0
M  V30 3195 C 317.144 0.487987 4.37386 0
M  V30 3196 H 314.263 0.222096 0.702739 0
M  V30 3197 H 316.905 1.18895 1.48203 0
M  V30 3198 H 315.055 0.469361 3.85654 0
M  V30 3199 H 316.727 3.04905 3.46166 0
M  V30 3200 H 314.97 2.919 3.209 0
M  V30 3201 H 315.641 2.6808 4.82532 0
M  V30 3202 H 318.117 0.912558 4.0597 0
M  V30 3203 H 316.993 0.766547 5.43521 0
M  V30 3204 H 317.254 -0.612063 4.37843 0
M  V30 3205 N 316.313 -1.40141 0.720998 0
M  V30 3206 C 317.59 -1.94677 0.189757 0
M  V30 3207 C 317.97 -1.65879 -1.30566 0
M  V30 3208 O 317.318 -0.979391 -2.06447 0
M  V30 3209 C 317.528 -3.45279 0.508304 0
M  V30 3210 C 318.876 -4.22209 0.449934 0
M  V30 3211 O 319.9 -3.53413 0.444677 0
M  V30 3212 O 318.759 -5.44788 0.432189 0
M  V30 3213 H 315.853 -0.826459 0.0299026 0
M  V30 3214 H 318.399 -1.49719 0.7989 0
M  V30 3215 H 317.171 -3.59619 1.54239 0
M  V30 3216 H 316.794 -3.97386 -0.130525 0
M  V30 3217 N 317.792 -0.46758 -1.50504 0
M  V30 3218 C 318.739 0.328413 -2.28452 0
M  V30 3219 C 319.709 0.990313 -1.33349 0
M  V30 3220 O 320.894 1.00343 -1.62284 0
M  V30 3221 C 318.034 1.40648 -3.15138 0
M  V30 3222 C 317.147 0.759709 -4.25267 0
M  V30 3223 C 316.282 1.81537 -4.99217 0
M  V30 3224 C 315.321 1.14866 -6.01226 0
M  V30 3225 N 314.458 2.14702 -6.68467 0
M  V30 3226 H 319.298 -0.342603 -2.96024 0
M  V30 3227 H 316.835 -0.180801 -1.45985 0
M  V30 3228 H 318.793 2.04315 -3.63746 0
M  V30 3229 H 317.423 2.04671 -2.49619 0
M  V30 3230 H 316.475 0.0105671 -3.80399 0
M  V30 3231 H 317.787 0.233243 -4.98254 0
M  V30 3232 H 316.941 2.52793 -5.51526 0
M  V30 3233 H 315.68 2.37564 -4.25928 0
M  V30 3234 H 314.685 0.42171 -5.4818 0
M  V30 3235 H 315.91 0.595334 -6.76485 0
M  V30 3236 H 313.856 2.69752 -5.97972 0
M  V30 3237 H 313.773 1.6703 -7.37317 0
M  V30 3238 H 315.041 2.85348 -7.25394 0
M  V30 3239 N 319.27 1.56325 -0.20005 0
M  V30 3240 C 320.686 1.58839 0.155716 0
M  V30 3241 C 320.886 1.21636 1.60645 0
M  V30 3242 O 319.942 0.941437 2.34293 0
M  V30 3243 C 321.255 3.0032 -0.151124 0
M  V30 3244 C 322.803 3.12866 -0.0916284 0
M  V30 3245 C 323.278 4.56488 -0.371845 0
M  V30 3246 N 324.769 4.62089 -0.320641 0
M  V30 3247 C 325.504 5.71116 -0.511243 0
M  V30 3248 N 325 6.88592 -0.762461 0
M  V30 3249 N 326.793 5.60335 -0.445157 0
M  V30 3250 H 318.944 1.78788 -1.14668 0
M  V30 3251 H 321.207 0.829996 -0.458051 0
M  V30 3252 H 320.913 3.32117 -1.15721 0
M  V30 3253 H 320.787 3.73257 0.543986 0
M  V30 3254 H 323.174 2.80878 0.905065 0
M  V30 3255 H 323.255 2.42304 -0.81989 0
M  V30 3256 H 322.899 4.89189 -1.36588 0
M  V30 3257 H 322.829 5.25246 0.377362 0
M  V30 3258 H 325.32 3.77665 -0.13329 0
M  V30 3259 H 325.633 7.67581 -0.896576 0
M  V30 3260 H 323.978 6.90387 -0.799412 0
M  V30 3261 H 327.169 4.67436 -0.249278 0
M  V30 3262 H 327.342 6.45243 -0.597116 0
M  V30 3263 N 320.748 -0.0735177 1.57428 0
M  V30 3264 C 321.994 -0.774145 1.87443 0
M  V30 3265 C 322.327 -1.77311 0.792103 0
M  V30 3266 O 321.602 -1.93492 -0.197793 0
M  V30 3267 C 321.885 -1.48367 3.28115 0
M  V30 3268 C 321.738 -0.501227 4.46999 0
M  V30 3269 C 323.057 -2.429 3.66998 0
M  V30 3270 H 320.176 -0.279971 0.681752 0
M  V30 3271 H 322.818 -0.0373616 1.89963 0
M  V30 3272 H 320.968 -2.11171 3.26097 0
M  V30 3273 H 322.64 0.121468 4.6114 0
M  V30 3274 H 320.883 0.183593 4.33411 0
M  V30 3275 H 321.554 -1.03526 5.42205 0
M  V30 3276 H 324.03 -1.90175 3.70098 0
M  V30 3277 H 322.906 -2.89549 4.66318 0
M  V30 3278 H 323.167 -3.27628 2.96837 0
M  V30 3279 N 322.226 -1.5378 -0.344866 0
M  V30 3280 C 323.136 -1.84667 -1.4469 0
M  V30 3281 C 324.152 -0.736704 -1.57635 0
M  V30 3282 O 325.328 -1.02888 -1.73136 0
M  V30 3283 C 322.393 -2.04869 -2.79696 0
M  V30 3284 C 321.454 -3.28731 -2.76106 0
M  V30 3285 C 320.687 -3.4796 -4.04673 0
M  V30 3286 O 320.91 -2.71052 -5.01883 0
M  V30 3287 O 319.844 -4.41383 -4.09224 0
M  V30 3288 H 323.67 -2.78334 -1.21506 0
M  V30 3289 H 321.255 -1.39418 -0.536921 0
M  V30 3290 H 323.137 -2.19609 -3.59652 0
M  V30 3291 H 321.812 -1.14391 -3.02814 0
M  V30 3292 H 320.719 -3.19396 -1.94774 0
M  V30 3293 H 322.052 -4.19198 -2.57941 0
M  V30 3294 N 323.704 0.605807 -1.45491 0
M  V30 3295 C 324.929 1.39625 -1.53361 0
M  V30 3296 C 325.354 1.87351 -0.167645 0
M  V30 3297 O 324.712 1.60243 0.848051 0
M  V30 3298 C 324.76 2.57559 -2.5238 0
M  V30 3299 O 323.864 3.58248 -2.04285 0
M  V30 3300 H 323.205 0.416771 -0.516912 0
M  V30 3301 H 325.735 0.737103 -1.90861 0
M  V30 3302 H 325.745 3.0478 -2.71244 0
M  V30 3303 H 324.42 2.22171 -3.51586 0
M  V30 3304 H 322.997 3.17664 -1.95305 0
M  V30 3305 N 325.182 1.32811 0.848464 0
M  V30 3306 C 326.129 1.22265 1.95755 0
M  V30 3307 C 327.099 0.103413 1.65778 0
M  V30 3308 O 328.284 0.280033 1.88734 0
M  V30 3309 C 325.424 0.958014 3.31536 0
M  V30 3310 C 324.537 2.16262 3.73971 0
M  V30 3311 C 323.672 1.83295 4.98575 0
M  V30 3312 C 322.711 3.00041 5.33518 0
M  V30 3313 N 321.848 2.67125 6.49299 0
M  V30 3314 H 326.688 2.17128 2.04107 0
M  V30 3315 H 324.225 1.07982 0.998913 0
M  V30 3316 H 326.183 0.785052 4.09747 0
M  V30 3317 H 324.813 0.046159 3.22767 0
M  V30 3318 H 323.865 2.44565 2.91362 0
M  V30 3319 H 325.177 3.03572 3.95785 0
M  V30 3320 H 324.331 1.62586 5.84509 0
M  V30 3321 H 323.07 0.932078 4.7871 0
M  V30 3322 H 322.075 3.21374 4.46093 0
M  V30 3323 H 323.3 3.90869 5.55336 0
M  V30 3324 H 321.246 1.79586 6.3094 0
M  V30 3325 H 321.163 3.47965 6.71161 0
M  V30 3326 H 322.431 2.49861 7.3837 0
M  V30 3327 N 326.66 -1.06551 1.16123 0
M  V30 3328 C 327.89 -1.8274 0.963838 0
M  V30 3329 C 328.298 -1.82712 -0.491228 0
M  V30 3330 O 327.641 -1.24294 -1.35265 0
M  V30 3331 C 327.703 -3.3065 1.41106 0
M  V30 3332 C 327.367 -3.54384 2.88549 0
M  V30 3333 C 328.364 -3.4765 3.86569 0
M  V30 3334 C 326.049 -3.81789 3.26408 0
M  V30 3335 C 328.043 -3.67982 5.2045 0
M  V30 3336 C 325.73 -4.01772 4.60459 0
M  V30 3337 C 326.728 -3.94866 5.57288 0
M  V30 3338 O 326.416 -4.14306 6.88916 0
M  V30 3339 H 326.148 -0.583136 0.341948 0
M  V30 3340 H 328.702 -1.35351 1.54497 0
M  V30 3341 H 326.932 -3.78887 0.773394 0
M  V30 3342 H 328.621 -3.88324 1.1815 0
M  V30 3343 H 329.387 -3.2647 3.58667 0
M  V30 3344 H 325.266 -3.86276 2.51619 0
M  V30 3345 H 328.81 -3.62507 5.96015 0
M  V30 3346 H 324.707 -4.2244 4.88072 0
M  V30 3347 H 325.475 -4.31609 6.95454 0
M  V30 3348 N 328.138 -0.959301 -1.25041 0
M  V30 3349 C 329.386 -0.615393 -1.92503 0
M  V30 3350 C 329.707 0.850969 -1.75452 0
M  V30 3351 O 328.977 1.60658 -1.12098 0
M  V30 3352 H 327.557 -0.224613 -0.712431 0
M  V30 3353 H 330.219 -1.21855 -1.5211 0
M  V30 3354 H 329.315 -0.848738 -3.00338 0
M  V30 3355 N 329.616 1.39756 -0.72842 0
M  V30 3356 C 331.027 1.83498 -0.344289 0
M  V30 3357 C 331.378 1.60868 1.12321 0
M  V30 3358 O 330.503 1.09634 1.86573 0
M  V30 3359 C 331.098 3.33114 -0.618112 0
M  V30 3360 C 329.657 3.753 -0.287549 0
M  V30 3361 C 328.804 2.62831 -0.884048 0
M  V30 3362 H 331.755 1.28842 -0.926578 0
M  V30 3363 H 331.776 3.80334 0.112349 0
M  V30 3364 H 331.288 3.49553 -1.68625 0
M  V30 3365 H 329.389 3.64451 0.775012 0
M  V30 3366 H 329.502 4.72945 -0.765512 0
M  V30 3367 H 327.866 2.52792 -0.311149 0
M  V30 3368 H 328.649 2.82078 -1.95671 0
M  V30 3369 N 331.094 0.475555 1.50254 0
M  V30 3370 C 332.505 0.0215174 1.86688 0
M  V30 3371 C 332.856 -1.38467 1.39001 0
M  V30 3372 O 331.981 -2.02732 0.756894 0
M  V30 3373 C 332.576 0.0322715 3.38785 0
M  V30 3374 C 331.135 -0.366314 3.74613 0
M  V30 3375 C 330.282 0.415832 2.74164 0
M  V30 3376 H 333.233 0.689612 1.42934 0
M  V30 3377 H 333.254 -0.76889 3.7265 0
M  V30 3378 H 332.766 1.05584 3.73462 0
M  V30 3379 H 330.867 -1.39406 3.45538 0
M  V30 3380 H 330.98 -0.064555 4.79057 0
M  V30 3381 H 329.344 -0.131048 2.54363 0
M  V30 3382 H 330.127 1.43899 3.11686 0
M  V30 3383 N 332.573 -1.56217 0.208337 0
M  V30 3384 C 333.813 -1.99849 -0.428927 0
M  V30 3385 C 334.177 -1.09262 -1.57879 0
M  V30 3386 O 335.378 -1.42185 -2.28116 0
M  V30 3387 C 333.649 -3.46777 -0.864879 0
M  V30 3388 S 335.208 -4.12434 -1.49811 0
M  V30 3389 H 332.026 -0.697742 -0.136665 0
M  V30 3390 H 334.628 -1.92953 0.314519 0
M  V30 3391 H 333.332 -4.10396 -0.0181326 0
M  V30 3392 H 332.863 -3.57518 -1.64147 0
M  V30 3393 H 334.878 -4.10532 -2.78707 0
M  V30 3394 N 334.051 0.0651679 -1.57465 0
M  V30 3395 C 335.462 0.616213 -1.76238 0
M  V30 3396 C 335.813 1.7756 -0.834689 0
M  V30 3397 O 334.938 2.1639 -0.0204156 0
M  V30 3398 C 335.533 1.12462 -3.1959 0
M  V30 3399 C 334.092 1.62147 -3.39684 0
M  V30 3400 C 333.239 0.543739 -2.71917 0
M  V30 3401 H 336.19 -0.161022 -1.57881 0
M  V30 3402 H 336.211 1.99324 -3.24114 0
M  V30 3403 H 335.723 0.280592 -3.87084 0
M  V30 3404 H 333.824 2.48854 -2.77313 0
M  V30 3405 H 333.937 1.69385 -4.48158 0
M  V30 3406 H 332.301 0.990352 -2.34657 0
M  V30 3407 H 333.084 -0.290216 -3.42071 0
M  V30 3408 N 335.529 1.53961 0.336706 0
M  V30 3409 C 336.94 1.62914 0.911925 0
M  V30 3410 C 337.291 0.514795 1.89326 0
M  V30 3411 O 336.416 -0.354395 2.13478 0
M  V30 3412 C 337.011 2.95304 1.66076 0
M  V30 3413 C 335.57 3.06496 2.18489 0
M  V30 3414 C 334.717 2.58403 1.00613 0
M  V30 3415 H 337.668 1.58285 0.114649 0
M  V30 3416 H 337.689 2.84727 2.5241 0
M  V30 3417 H 337.201 3.76387 0.946276 0
M  V30 3418 H 335.302 2.3006 2.93092 0
M  V30 3419 H 335.415 4.1208 2.44391 0
M  V30 3420 H 333.779 2.13977 1.38152 0
M  V30 3421 H 334.562 3.41932 0.306179 0
M  V30 3422 N 337.007 -0.598083 1.45811 0
M  V30 3423 C 338.247 -1.36802 1.5187 0
M  V30 3424 C 338.611 -1.9133 0.160224 0
M  V30 3425 O 339.812 -2.6863 0.0955302 0
M  V30 3426 C 338.083 -2.47835 2.57513 0
M  V30 3427 S 339.642 -3.35458 2.82866 0
M  V30 3428 H 336.46 -0.466278 0.536755 0
M  V30 3429 H 339.062 -0.689152 1.82951 0
M  V30 3430 H 337.766 -2.06141 3.54872 0
M  V30 3431 H 337.297 -3.20512 2.28114 0
M  V30 3432 H 339.312 -4.46251 2.16967 0
M  V30 3433 N 338.485 -1.33259 -0.841409 0
M  V30 3434 C 339.896 -1.22066 -1.41269 0
M  V30 3435 C 340.247 0.161479 -1.95534 0
M  V30 3436 O 339.372 1.06094 -1.88608 0
M  V30 3437 C 339.967 -2.20996 -2.568 0
M  V30 3438 C 338.526 -2.13649 -3.09888 0
M  V30 3439 C 337.673 -2.08623 -1.82679 0
M  V30 3440 H 340.624 -1.44895 -0.647395 0
M  V30 3441 H 340.645 -1.81621 -3.34356 0
M  V30 3442 H 340.157 -3.2158 -2.17274 0
M  V30 3443 H 338.258 -1.16359 -3.53965 0
M  V30 3444 H 338.371 -3.04079 -3.70234 0
M  V30 3445 H 336.735 -1.54061 -2.02824 0
M  V30 3446 H 337.518 -3.1101 -1.45353 0
M  V30 3447 N 339.963 1.05934 -1.16686 0
M  V30 3448 C 340.926 2.11669 -0.879144 0
M  V30 3449 C 341.926 1.60294 0.127445 0
M  V30 3450 O 343.116 1.7389 -0.103865 0
M  V30 3451 C 340.248 3.39438 -0.315425 0
M  V30 3452 H 341.441 2.38626 -1.81653 0
M  V30 3453 H 338.994 1.22058 -0.976299 0
M  V30 3454 H 339.729 3.18132 0.629468 0
M  V30 3455 H 339.514 3.78034 -1.04079 0
M  V30 3456 H 341.004 4.17391 -0.132189 0
M  V30 3457 N 341.441 0.965919 1.2453 0
M  V30 3458 C 342.852 0.665929 1.7442 0
M  V30 3459 C 343.203 -0.818407 1.78316 0
M  V30 3460 O 342.328 -1.64037 1.41141 0
M  V30 3461 C 342.923 1.20211 3.16757 0
M  V30 3462 C 341.482 0.952059 3.6416 0
M  V30 3463 C 340.629 1.33848 2.42858 0
M  V30 3464 H 343.58 1.14144 1.10258 0
M  V30 3465 H 343.601 0.567544 3.76244 0
M  V30 3466 H 343.113 2.28244 3.13889 0
M  V30 3467 H 341.214 -0.112821 3.72429 0
M  V30 3468 H 341.327 1.59645 4.51719 0
M  V30 3469 H 339.691 0.756864 2.43195 0
M  V30 3470 H 340.474 2.42827 2.42673 0
M  V30 3471 N 342.919 -1.39368 0.735821 0
M  V30 3472 C 343.829 -2.34395 0.0979693 0
M  V30 3473 C 344.845 -1.58361 -0.720968 0
M  V30 3474 O 346.021 -1.90648 -0.649245 0
M  V30 3475 C 343.086 -3.37393 -0.797916 0
M  V30 3476 C 342.147 -4.29287 0.0333662 0
M  V30 3477 C 341.38 -5.27365 -0.819854 0
M  V30 3478 O 341.603 -5.31959 -2.05855 0
M  V30 3479 O 340.537 -6.01389 -0.248079 0
M  V30 3480 H 344.363 -2.90601 0.882315 0
M  V30 3481 H 341.948 -1.40909 0.4965 0
M  V30 3482 H 343.83 -4.00505 -1.31048 0
M  V30 3483 H 342.505 -2.83571 -1.56106 0
M  V30 3484 H 341.412 -3.69395 0.591475 0
M  V30 3485 H 342.745 -4.86317 0.758752 0
M  V30 3486 N 344.397 -0.483516 -1.5 0
M  V30 3487 C 345.644 0.0671597 -2.02389 0
M  V30 3488 C 345.972 1.38597 -1.36459 0
M  V30 3489 O 345.227 1.89634 -0.483458 0
M  V30 3490 C 345.526 0.286226 -3.56252 0
M  V30 3491 C 345.192 -0.952416 -4.40726 0
M  V30 3492 C 343.854 -1.29199 -4.63531 0
M  V30 3493 C 346.206 -1.77655 -4.89988 0
M  V30 3494 C 343.534 -2.45553 -5.32842 0
M  V30 3495 C 345.886 -2.93147 -5.60578 0
M  V30 3496 C 344.55 -3.27505 -5.81633 0
M  V30 3497 H 343.82 0.0245755 -0.740592 0
M  V30 3498 H 346.467 -0.640124 -1.80485 0
M  V30 3499 H 344.772 1.07587 -3.76739 0
M  V30 3500 H 346.469 0.726473 -3.94365 0
M  V30 3501 H 343.059 -0.677881 -4.23205 0
M  V30 3502 H 347.243 -1.52737 -4.72213 0
M  V30 3503 H 342.499 -2.72431 -5.47349 0
M  V30 3504 H 346.673 -3.57344 -5.97727 0
M  V30 3505 H 344.3 -4.1777 -6.35116 0
M  V30 3506 N 345.875 1.56104 -0.216619 0
M  V30 3507 C 346.805 2.23063 0.690296 0
M  V30 3508 C 347.786 1.20072 1.20485 0
M  V30 3509 O 348.971 1.48643 1.24976 0
M  V30 3510 C 346.101 2.90672 1.90072 0
M  V30 3511 C 345.055 4.00092 1.5202 0
M  V30 3512 C 344.381 4.54972 2.80899 0
M  V30 3513 C 345.681 5.17398 0.71391 0
M  V30 3514 H 347.375 2.99109 0.132038 0
M  V30 3515 H 344.921 1.43866 0.0620664 0
M  V30 3516 H 346.874 3.36204 2.54057 0
M  V30 3517 H 345.598 2.12066 2.48386 0
M  V30 3518 H 344.257 3.55283 0.903839 0
M  V30 3519 H 343.905 3.73102 3.37348 0
M  V30 3520 H 343.605 5.28817 2.56176 0
M  V30 3521 H 345.129 5.0322 3.45836 0
M  V30 3522 H 346.543 5.59342 1.25735 0
M  V30 3523 H 344.94 5.97444 0.563951 0
M  V30 3524 H 346.01 4.84088 -0.280527 0
M  V30 3525 N 347.353 -0.0568162 1.57498 0
M  V30 3526 C 348.601 -0.751617 1.87604 0
M  V30 3527 C 348.922 -1.77351 0.81066 0
M  V30 3528 O 348.192 -1.95254 -0.159018 0
M  V30 3529 H 346.772 -0.280583 0.692302 0
M  V30 3530 H 349.434 -0.0293483 1.94878 0
M  V30 3531 H 348.53 -1.25852 2.856 0
M  V30 3532 N 348.832 -1.54138 -0.328536 0
M  V30 3533 C 350.08 -1.71765 -1.06496 0
M  V30 3534 C 350.401 -0.49149 -1.88704 0
M  V30 3535 O 349.671 0.494539 -1.89555 0
M  V30 3536 H 348.251 -0.633295 -0.396164 0
M  V30 3537 H 350.913 -1.91429 -0.366176 0
M  V30 3538 H 350.009 -2.5951 -1.73381 0
M  V30 3539 N 350.31 0.590341 -1.46126 0
M  V30 3540 C 351.721 1.17243 -1.45296 0
M  V30 3541 C 352.072 1.95281 -0.189723 0
M  V30 3542 O 351.197 2.04502 0.707674 0
M  V30 3543 C 351.792 2.13284 -2.6324 0
M  V30 3544 C 350.351 2.66832 -2.65476 0
M  V30 3545 C 349.498 1.42557 -2.3785 0
M  V30 3546 H 352.449 0.378692 -1.54116 0
M  V30 3547 H 352.47 2.96619 -2.38323 0
M  V30 3548 H 351.982 1.56459 -3.55165 0
M  V30 3549 H 350.083 3.27548 -1.77603 0
M  V30 3550 H 350.196 3.10088 -3.65215 0
M  V30 3551 H 348.56 1.72107 -1.87753 0
M  V30 3552 H 349.343 0.875741 -3.31942 0
M  V30 3553 N 351.788 1.33704 0.83433 0
M  V30 3554 C 353.013 1.28615 1.62705 0
M  V30 3555 C 353.438 -0.139242 1.87584 0
M  V30 3556 O 352.796 -1.09734 1.4432 0
M  V30 3557 C 352.844 2.07139 2.95171 0
M  V30 3558 O 351.948 1.4331 3.86699 0
M  V30 3559 H 351.289 0.44226 0.49528 0
M  V30 3560 H 353.819 1.76335 1.03766 0
M  V30 3561 H 353.829 2.18073 3.44831 0
M  V30 3562 H 352.504 3.10779 2.76386 0
M  V30 3563 H 351.081 1.4105 3.45195 0
M  V30 3564 N 353.266 -1.05314 1.17247 0
M  V30 3565 C 354.512 -1.78557 0.961513 0
M  V30 3566 C 354.845 -1.87419 -0.508697 0
M  V30 3567 O 354.12 -1.37307 -1.37757 0
M  V30 3568 C 354.403 -3.22514 1.60176 0
M  V30 3569 C 354.256 -3.21673 3.14399 0
M  V30 3570 C 355.575 -4.20318 1.30463 0
M  V30 3571 H 352.694 -0.6482 0.350723 0
M  V30 3572 H 355.336 -1.23102 1.44727 0
M  V30 3573 H 353.486 -3.69867 1.18871 0
M  V30 3574 H 355.158 -2.82405 3.64753 0
M  V30 3575 H 353.401 -2.60048 3.47214 0
M  V30 3576 H 354.072 -4.23271 3.54324 0
M  V30 3577 H 356.548 -3.81454 1.66229 0
M  V30 3578 H 355.424 -5.19289 1.77848 0
M  V30 3579 H 355.685 -4.41526 0.22521 0
M  V30 3580 N 354.744 -0.972509 -1.24016 0
M  V30 3581 C 355.991 -0.637034 -1.92219 0
M  V30 3582 C 356.319 0.828418 -1.75976 0
M  V30 3583 O 355.574 1.61206 -1.10955 0
M  V30 3584 C 355.873 -0.963694 -3.44162 0
M  V30 3585 C 355.539 -2.41807 -3.80579 0
M  V30 3586 C 354.201 -2.81556 -3.9023 0
M  V30 3587 C 356.553 -3.36172 -3.98293 0
M  V30 3588 C 353.881 -4.14702 -4.15017 0
M  V30 3589 C 356.233 -4.68952 -4.24578 0
M  V30 3590 C 354.897 -5.08472 -4.32449 0
M  V30 3591 H 354.167 -0.233107 -0.703379 0
M  V30 3592 H 356.814 -1.2249 -1.47202 0
M  V30 3593 H 355.119 -0.29365 -3.90698 0
M  V30 3594 H 356.816 -0.682449 -3.9515 0
M  V30 3595 H 353.406 -2.09988 -3.73635 0
M  V30 3596 H 357.59 -3.06644 -3.90234 0
M  V30 3597 H 352.846 -4.4494 -4.19331 0
M  V30 3598 H 357.02 -5.42037 -4.37229 0
M  V30 3599 H 354.647 -6.11665 -4.51409 0
M  V30 3600 N 356.222 1.38976 -0.743202 0
M  V30 3601 C 357.152 2.33171 -0.123873 0
M  V30 3602 C 358.133 1.54336 0.71516 0
M  V30 3603 O 359.318 1.82696 0.658467 0
M  V30 3604 C 356.448 3.38474 0.777978 0
M  V30 3605 C 355.402 4.27979 0.0424758 0
M  V30 3606 C 354.728 5.2405 1.06189 0
M  V30 3607 C 356.028 5.10155 -1.1198 0
M  V30 3608 H 357.722 2.85213 -0.910709 0
M  V30 3609 H 355.268 1.37133 -0.439388 0
M  V30 3610 H 357.221 4.03328 1.22084 0
M  V30 3611 H 355.945 2.84891 1.59702 0
M  V30 3612 H 354.604 3.64616 -0.380853 0
M  V30 3613 H 354.252 4.66758 1.87472 0
M  V30 3614 H 353.952 5.84785 0.574485 0
M  V30 3615 H 355.476 5.9178 1.50428 0
M  V30 3616 H 356.89 5.68307 -0.75499 0
M  V30 3617 H 355.287 5.80073 -1.53738 0
M  V30 3618 H 356.357 4.44504 -1.93764 0
M  V30 3619 N 357.7 0.491464 1.49741 0
M  V30 3620 C 358.947 -0.0564256 2.02421 0
M  V30 3621 C 359.275 -1.37872 1.37192 0
M  V30 3622 O 358.53 -1.89375 0.493508 0
M  V30 3623 C 358.829 -0.267329 3.56399 0
M  V30 3624 C 358.495 0.975775 4.40215 0
M  V30 3625 C 357.157 1.31655 4.62839 0
M  V30 3626 C 359.509 1.80251 4.89039 0
M  V30 3627 C 356.837 2.48375 5.31532 0
M  V30 3628 C 359.189 2.96116 5.59015 0
M  V30 3629 C 357.853 3.30585 5.79888 0
M  V30 3630 H 357.123 -0.0206476 0.740712 0
M  V30 3631 H 359.77 0.649686 1.80143 0
M  V30 3632 H 358.075 -1.05588 3.77304 0
M  V30 3633 H 359.772 -0.705549 3.94744 0
M  V30 3634 H 356.362 0.700315 4.2284 0
M  V30 3635 H 360.546 1.55239 4.71396 0
M  V30 3636 H 355.802 2.7533 5.45897 0
M  V30 3637 H 359.976 3.60509 5.95824 0
M  V30 3638 H 357.603 4.21132 6.32892 0
M  V30 3639 N 359.178 -1.55987 0.224894 0
M  V30 3640 C 360.589 -1.84553 -0.282345 0
M  V30 3641 C 360.94 -1.14634 -1.59227 0
M  V30 3642 O 360.065 -0.417155 -2.12341 0
M  V30 3643 C 360.66 -3.348 -0.519062 0
M  V30 3644 C 359.219 -3.63671 -0.970604 0
M  V30 3645 C 358.366 -2.77277 -0.0355261 0
M  V30 3646 H 361.317 -1.52245 0.448006 0
M  V30 3647 H 361.338 -3.55187 -1.36463 0
M  V30 3648 H 360.85 -3.8566 0.43449 0
M  V30 3649 H 358.951 -3.1827 -1.9374 0
M  V30 3650 H 359.064 -4.71631 -0.842698 0
M  V30 3651 H 357.428 -2.48846 -0.542927 0
M  V30 3652 H 358.211 -3.30937 0.913003 0
M  V30 3653 N 360.656 0.0484629 -1.57525 0
M  V30 3654 C 362.067 0.597486 -1.76881 0
M  V30 3655 C 362.418 1.76664 -0.853475 0
M  V30 3656 O 361.543 2.16357 -0.0433656 0
M  V30 3657 C 362.138 1.09066 -3.20765 0
M  V30 3658 C 360.697 1.58535 -3.41385 0
M  V30 3659 C 359.844 0.514868 -2.72478 0
M  V30 3660 H 362.795 -0.177758 -1.57701 0
M  V30 3661 H 362.816 1.95875 -3.2621 0
M  V30 3662 H 362.328 0.239521 -3.8736 0
M  V30 3663 H 360.429 2.45898 -2.79937 0
M  V30 3664 H 360.542 1.64622 -4.49929 0
M  V30 3665 H 358.906 0.965407 -2.35695 0
M  V30 3666 H 359.689 -0.32648 -3.41744 0
M  V30 3667 N 362.134 1.5431 0.320358 0
M  V30 3668 C 363.081 1.83918 1.39438 0
M  V30 3669 C 364.051 0.686525 1.51248 0
M  V30 3670 O 365.236 0.933269 1.66417 0
M  V30 3671 C 362.376 2.075 2.75749 0
M  V30 3672 C 361.489 3.35177 2.72544 0
M  V30 3673 C 360.624 3.48704 4.00723 0
M  V30 3674 C 359.663 4.70244 3.91838 0
M  V30 3675 N 358.8 4.80679 5.11754 0
M  V30 3676 H 363.64 2.75544 1.13489 0
M  V30 3677 H 361.177 1.36459 0.549309 0
M  V30 3678 H 363.135 2.19166 3.54996 0
M  V30 3679 H 361.765 1.19163 3 0
M  V30 3680 H 360.817 3.32233 1.85271 0
M  V30 3681 H 362.129 4.24534 2.61863 0
M  V30 3682 H 361.283 3.59928 4.88402 0
M  V30 3683 H 360.022 2.57445 4.14214 0
M  V30 3684 H 359.027 4.59072 3.02544 0
M  V30 3685 H 360.252 5.6289 3.7991 0
M  V30 3686 H 358.198 3.92337 5.25745 0
M  V30 3687 H 358.115 5.64007 5.0342 0
M  V30 3688 H 359.383 4.96239 6.01138 0
M  V30 3689 N 363.613 -0.582584 1.46437 0
M  V30 3690 C 365.024 -1.1647 1.45916 0
M  V30 3691 C 365.375 -1.95177 0.200077 0
M  V30 3692 O 364.5 -2.04874 -0.696819 0
M  V30 3693 C 365.095 -2.11885 2.64367 0
M  V30 3694 C 363.654 -2.65421 2.66887 0
M  V30 3695 C 362.801 -1.41294 2.38603 0
M  V30 3696 H 365.752 -0.370514 1.54314 0
M  V30 3697 H 365.773 -2.9535 2.39892 0
M  V30 3698 H 365.285 -1.54573 3.5599 0
M  V30 3699 H 363.386 -3.26602 1.79338 0
M  V30 3700 H 363.499 -3.08147 3.66854 0
M  V30 3701 H 361.863 -1.71109 1.88663 0
M  V30 3702 H 362.646 -0.858125 3.32402 0
M  V30 3703 N 365.091 -1.34144 -0.827227 0
M  V30 3704 C 366.038 -1.25364 -1.93785 0
M  V30 3705 C 367.008 -0.129774 -1.65592 0
M  V30 3706 O 368.193 -0.310024 -1.88264 0
M  V30 3707 C 365.333 -1.01064 -3.2997 0
M  V30 3708 C 364.446 -2.22185 -3.70484 0
M  V30 3709 C 363.581 -1.91203 -4.95595 0
M  V30 3710 C 362.62 -3.08491 -5.28677 0
M  V30 3711 N 361.757 -2.77421 -6.44967 0
M  V30 3712 H 366.597 -2.20347 -2.00627 0
M  V30 3713 H 364.134 -1.09558 -0.981608 0
M  V30 3714 H 366.092 -0.850139 -4.08446 0
M  V30 3715 H 364.722 -0.0975026 -3.22653 0
M  V30 3716 H 363.774 -2.4917 -2.87434 0
M  V30 3717 H 365.086 -3.0983 -3.90905 0
M  V30 3718 H 364.24 -1.71864 -5.81848 0
M  V30 3719 H 362.979 -1.00812 -4.77167 0
M  V30 3720 H 361.984 -3.28431 -4.40923 0
M  V30 3721 H 363.209 -3.99655 -5.49047 0
M  V30 3722 H 361.155 -1.89601 -6.28003 0
M  V30 3723 H 361.072 -3.58598 -6.6554 0
M  V30 3724 H 362.34 -2.61577 -7.34301 0
M  V30 3725 N 366.569 1.04691 -1.17803 0
M  V30 3726 C 367.846 1.7472 -0.879328 0
M  V30 3727 C 368.226 2.01812 0.619271 0
M  V30 3728 O 367.574 1.65824 1.57209 0
M  V30 3729 C 367.784 3.03686 -1.71976 0
M  V30 3730 C 369.132 3.77542 -1.94286 0
M  V30 3731 O 370.156 3.13569 -1.68976 0
M  V30 3732 O 369.015 4.92506 -2.36855 0
M  V30 3733 H 366.109 0.760011 -0.326056 0
M  V30 3734 H 368.655 1.10813 -1.28525 0
M  V30 3735 H 367.427 2.79754 -2.73594 0
M  V30 3736 H 367.05 3.75332 -1.31194 0
M  V30 3737 N 368.047 0.979072 1.23499 0
M  V30 3738 C 369.275 0.665202 1.95915 0
M  V30 3739 C 369.69 -0.767571 1.72493 0
M  V30 3740 O 369.047 -1.51635 1.01554 0
M  V30 3741 C 369.098 0.944438 3.48945 0
M  V30 3742 O 368.819 2.3209 3.71572 0
M  V30 3743 C 370.32 0.646336 4.38563 0
M  V30 3744 H 367.54 0.247218 0.623798 0
M  V30 3745 H 370.084 1.31009 1.57025 0
M  V30 3746 H 368.239 0.345575 3.85856 0
M  V30 3747 H 368.653 2.40957 4.65876 0
M  V30 3748 H 370.127 0.892091 5.44744 0
M  V30 3749 H 370.604 -0.419575 4.37191 0
M  V30 3750 H 371.21 1.22562 4.07258 0
M  V30 3751 N 369.525 -1.3858 0.750561 0
M  V30 3752 C 370.455 -2.33102 0.136237 0
M  V30 3753 C 371.436 -1.54713 -0.706965 0
M  V30 3754 O 372.621 -1.83043 -0.648769 0
M  V30 3755 C 369.751 -3.38882 -0.760017 0
M  V30 3756 C 368.705 -4.27995 -0.0197785 0
M  V30 3757 C 368.031 -5.24605 -1.03408 0
M  V30 3758 C 369.331 -5.09554 1.14684 0
M  V30 3759 H 371.025 -2.84726 0.925822 0
M  V30 3760 H 368.571 -1.36898 0.446654 0
M  V30 3761 H 370.524 -4.0397 -1.19943 0
M  V30 3762 H 369.248 -2.85734 -1.58189 0
M  V30 3763 H 367.907 -3.64409 0.400184 0
M  V30 3764 H 367.555 -4.67746 -1.84994 0
M  V30 3765 H 367.255 -5.85081 -0.543464 0
M  V30 3766 H 368.779 -5.9257 -1.47288 0
M  V30 3767 H 370.193 -5.67899 0.785118 0
M  V30 3768 H 368.59 -5.7925 1.56812 0
M  V30 3769 H 369.66 -4.4347 1.96118 0
M  V30 3770 N 371.003 -0.499398 -1.49478 0
M  V30 3771 C 371.936 0.326491 -2.25852 0
M  V30 3772 C 372.914 0.971776 -1.30366 0
M  V30 3773 O 374.098 1.00219 -1.59651 0
M  V30 3774 C 371.225 1.45969 -3.05632 0
M  V30 3775 C 370.271 0.928938 -4.16261 0
M  V30 3776 S 371.104 -0.179012 -5.35201 0
M  V30 3777 C 372.26 0.957389 -6.18534 0
M  V30 3778 H 372.493 -0.321746 -2.95554 0
M  V30 3779 H 370.026 -0.284674 -1.51753 0
M  V30 3780 H 371.984 2.109 -3.52181 0
M  V30 3781 H 370.645 2.07953 -2.35402 0
M  V30 3782 H 369.838 1.77813 -4.71592 0
M  V30 3783 H 369.44 0.356869 -3.72293 0
M  V30 3784 H 371.732 1.86296 -6.51383 0
M  V30 3785 H 372.675 0.442733 -7.06715 0
M  V30 3786 H 373.083 1.224 -5.5107 0
M  V30 3787 N 372.481 1.55866 -0.233164 0
M  V30 3788 C 373.73 1.97779 0.39579 0
M  V30 3789 C 374.043 1.12419 1.60066 0
M  V30 3790 O 375.249 1.44283 2.29988 0
M  V30 3791 C 373.705 3.5188 0.755556 0
M  V30 3792 C 373.313 4.45959 -0.427152 0
M  V30 3793 C 375.057 4.02479 1.34946 0
M  V30 3794 C 372.964 5.91383 -0.0443043 0
M  V30 3795 H 371.894 0.738592 0.15165 0
M  V30 3796 H 374.545 1.80486 -0.331212 0
M  V30 3797 H 372.927 3.64816 1.5403 0
M  V30 3798 H 374.101 4.44776 -1.20462 0
M  V30 3799 H 372.416 4.05765 -0.935068 0
M  V30 3800 H 375.013 5.08637 1.649 0
M  V30 3801 H 375.356 3.49014 2.26925 0
M  V30 3802 H 375.889 3.92813 0.62791 0
M  V30 3803 H 372.628 6.48857 -0.930874 0
M  V30 3804 H 372.148 5.95734 0.697238 0
M  V30 3805 H 373.827 6.45893 0.378334 0
M  V30 3806 N 373.959 -0.0401083 1.57549 0
M  V30 3807 C 375.184 -0.748931 1.93406 0
M  V30 3808 C 375.609 -1.68686 0.832274 0
M  V30 3809 O 374.967 -1.80047 -0.212818 0
M  V30 3810 C 375.015 -1.4916 3.28304 0
M  V30 3811 O 374.119 -2.6042 3.19774 0
M  V30 3812 H 373.46 -0.202212 0.63246 0
M  V30 3813 H 375.99 0.00112086 2.046 0
M  V30 3814 H 376 -1.86395 3.62934 0
M  V30 3815 H 374.675 -0.80364 4.08062 0
M  V30 3816 H 373.252 -2.25808 2.96758 0
M  V30 3817 N 375.437 -1.54477 -0.31217 0
M  V30 3818 C 376.853 -1.45442 -0.657185 0
M  V30 3819 C 377.053 -0.63653 -1.91182 0
M  V30 3820 O 376.109 -0.139815 -2.52113 0
M  V30 3821 C 377.422 -2.89287 -0.82058 0
M  V30 3822 C 378.97 -2.9926 -0.917188 0
M  V30 3823 C 379.445 -4.44279 -1.11267 0
M  V30 3824 N 380.936 -4.4794 -1.17914 0
M  V30 3825 C 381.671 -5.57318 -1.34848 0
M  V30 3826 N 381.167 -6.76642 -1.48752 0
M  V30 3827 N 382.96 -5.44986 -1.37647 0
M  V30 3828 H 375.111 -2.06129 0.512313 0
M  V30 3829 H 377.374 -0.933088 0.167485 0
M  V30 3830 H 377.08 -3.51687 0.0302604 0
M  V30 3831 H 376.954 -3.36061 -1.71298 0
M  V30 3832 H 379.341 -2.36981 -1.75852 0
M  V30 3833 H 379.422 -2.558 -0.00101257 0
M  V30 3834 H 379.066 -5.07149 -0.27614 0
M  V30 3835 H 378.996 -4.85359 -2.04289 0
M  V30 3836 H 381.487 -3.61969 -1.08567 0
M  V30 3837 H 381.8 -7.55758 -1.61397 0
M  V30 3838 H 380.145 -6.79529 -1.45828 0
M  V30 3839 H 383.336 -4.50715 -1.26388 0
M  V30 3840 H 383.509 -6.3028 -1.50501 0
M  V30 3841 N 376.915 0.57481 -1.46744 0
M  V30 3842 C 378.143 1.35856 -1.56047 0
M  V30 3843 C 378.558 1.87691 -0.204365 0
M  V30 3844 O 377.915 1.64049 0.79963 0
M  V30 3845 C 377.966 2.54066 -2.57163 0
M  V30 3846 O 377.687 2.04377 -3.87507 0
M  V30 3847 C 379.188 3.46514 -2.76483 0
M  V30 3848 H 376.408 0.414754 -0.527466 0
M  V30 3849 H 378.952 0.698035 -1.92218 0
M  V30 3850 H 377.107 3.16092 -2.23974 0
M  V30 3851 H 377.521 2.81419 -4.4261 0
M  V30 3852 H 378.995 4.25919 -3.51137 0
M  V30 3853 H 379.472 3.98951 -1.83671 0
M  V30 3854 H 380.078 2.90318 -3.10799 0
M  V30 3855 N 378.394 1.34581 0.820102 0
M  V30 3856 C 379.805 1.24298 1.39309 0
M  V30 3857 C 380.156 -0.130351 1.95767 0
M  V30 3858 O 379.281 -1.0308 1.90272 0
M  V30 3859 C 379.876 2.25054 2.53251 0
M  V30 3860 C 378.435 2.18552 3.0645 0
M  V30 3861 C 377.582 2.11503 1.79337 0
M  V30 3862 H 380.533 1.45906 0.624262 0
M  V30 3863 H 380.554 1.86917 3.31425 0
M  V30 3864 H 380.066 3.24996 2.1213 0
M  V30 3865 H 378.167 1.21976 3.52069 0
M  V30 3866 H 378.28 3.0993 3.65349 0
M  V30 3867 H 376.644 1.57268 2.00347 0
M  V30 3868 H 377.427 3.13284 1.40386 0
M  V30 3869 N 379.872 -1.04064 1.18357 0
M  V30 3870 C 380.782 -2.15569 0.925596 0
M  V30 3871 C 381.798 -1.7365 -0.110295 0
M  V30 3872 O 382.974 -2.01273 0.0716218 0
M  V30 3873 C 380.039 -3.43704 0.454836 0
M  V30 3874 C 379.1 -4.00004 1.55869 0
M  V30 3875 C 378.333 -5.22023 1.1103 0
M  V30 3876 O 378.556 -5.70392 -0.0309756 0
M  V30 3877 O 377.49 -5.70856 1.90805 0
M  V30 3878 H 381.316 -2.40187 1.8586 0
M  V30 3879 H 378.901 -1.1402 0.965394 0
M  V30 3880 H 380.783 -4.20923 0.200382 0
M  V30 3881 H 379.458 -3.20559 -0.449876 0
M  V30 3882 H 378.365 -3.24172 1.86716 0
M  V30 3883 H 379.698 -4.2749 2.43953 0
M  V30 3884 N 381.35 -0.985608 -1.22978 0
M  V30 3885 C 382.596 -0.65836 -1.91816 0
M  V30 3886 C 382.929 0.806692 -1.76653 0
M  V30 3887 O 382.204 1.58252 -1.13078 0
M  V30 3888 C 382.487 -1.056 -3.44268 0
M  V30 3889 C 382.34 -2.57906 -3.68516 0
M  V30 3890 C 383.659 -0.603781 -4.35939 0
M  V30 3891 H 380.778 -0.24065 -0.696604 0
M  V30 3892 H 383.42 -1.22783 -1.44998 0
M  V30 3893 H 381.57 -0.571445 -3.84274 0
M  V30 3894 H 383.242 -3.13976 -3.3796 0
M  V30 3895 H 381.485 -3.00305 -3.13048 0
M  V30 3896 H 382.156 -2.80779 -4.75255 0
M  V30 3897 H 384.632 -1.01987 -4.03408 0
M  V30 3898 H 383.508 -0.910383 -5.41298 0
M  V30 3899 H 383.769 0.495761 -4.39312 0
M  V30 3900 N 382.828 1.3818 -0.7579 0
M  V30 3901 C 384.056 2.04301 -0.326937 0
M  V30 3902 C 384.471 1.57163 1.0462 0
M  V30 3903 O 383.828 0.746626 1.66529 0
M  V30 3904 C 383.879 3.59846 -0.345363 0
M  V30 3905 O 383.6 4.05256 -1.66432 0
M  V30 3906 C 385.101 4.4319 0.098927 0
M  V30 3907 H 382.321 0.656443 -0.139012 0
M  V30 3908 H 384.865 1.76786 -1.02796 0
M  V30 3909 H 383.02 3.86182 0.306955 0
M  V30 3910 H 383.434 4.99709 -1.59345 0
M  V30 3911 H 384.908 5.51989 0.0348745 0
M  V30 3912 H 385.385 4.23947 1.14741 0
M  V30 3913 H 385.991 4.22051 -0.52468 0
M  V30 3914 N 384.306 0.507319 1.49211 0
M  V30 3915 C 385.546 -0.0332372 2.04373 0
M  V30 3916 C 385.91 -1.33694 1.37804 0
M  V30 3917 O 387.111 -1.96213 1.83722 0
M  V30 3918 C 385.382 -0.17599 3.56966 0
M  V30 3919 S 386.941 -0.669882 4.33657 0
M  V30 3920 H 383.759 0.00123603 0.710999 0
M  V30 3921 H 386.361 0.682725 1.83191 0
M  V30 3922 H 385.065 0.778053 4.02957 0
M  V30 3923 H 384.596 -0.917005 3.82563 0
M  V30 3924 H 386.611 -1.93806 4.56786 0
M  V30 3925 N 385.784 -1.5574 0.241426 0
M  V30 3926 C 387.03 -1.99104 -0.385406 0
M  V30 3927 C 387.363 -1.1293 -1.57988 0
M  V30 3928 O 386.638 -0.191449 -1.93555 0
M  V30 3929 C 386.921 -3.51087 -0.800616 0
M  V30 3930 C 386.774 -4.48028 0.398874 0
M  V30 3931 C 388.093 -4.08015 -1.64959 0
M  V30 3932 H 385.212 -0.723848 -0.138614 0
M  V30 3933 H 387.854 -1.86903 0.341642 0
M  V30 3934 H 386.004 -3.61615 -1.4201 0
M  V30 3935 H 387.676 -4.49487 1.03726 0
M  V30 3936 H 385.919 -4.21077 1.04293 0
M  V30 3937 H 386.59 -5.51962 0.0651056 0
M  V30 3938 H 389.066 -4.00555 -1.12672 0
M  V30 3939 H 387.942 -5.14635 -1.90898 0
M  V30 3940 H 388.203 -3.56131 -2.61961 0
M  V30 3941 N 387.262 0.0317525 -1.57568 0
M  V30 3942 C 388.508 0.724175 -1.8943 0
M  V30 3943 C 388.841 1.75149 -0.838836 0
M  V30 3944 O 388.116 1.93948 0.146422 0
M  V30 3945 C 388.399 1.39615 -3.31933 0
M  V30 3946 C 388.252 0.382537 -4.4817 0
M  V30 3947 C 389.571 2.33084 -3.73309 0
M  V30 3948 H 386.69 0.261797 -0.688935 0
M  V30 3949 H 389.332 -0.013017 -1.89996 0
M  V30 3950 H 387.482 2.02451 -3.31581 0
M  V30 3951 H 389.154 -0.243689 -4.60656 0
M  V30 3952 H 387.397 -0.29844 -4.32772 0
M  V30 3953 H 388.068 0.891145 -5.44759 0
M  V30 3954 H 390.544 1.80295 -3.7501 0
M  V30 3955 H 389.42 2.77084 -4.73831 0
M  V30 3956 H 389.681 3.19643 -3.05419 0
M  V30 3957 N 388.74 1.54641 0.303973 0
M  V30 3958 C 389.986 1.74038 1.04109 0
M  V30 3959 C 390.319 0.523051 1.87024 0
M  V30 3960 O 389.594 -0.479874 1.88487 0
M  V30 3961 C 389.877 3.02761 1.94955 0
M  V30 3962 C 389.73 4.34787 1.1524 0
M  V30 3963 C 391.049 3.27336 2.94175 0
M  V30 3964 H 388.168 0.63323 0.377079 0
M  V30 3965 H 390.81 1.87354 0.316001 0
M  V30 3966 H 388.96 2.9154 2.56782 0
M  V30 3967 H 390.632 4.57922 0.557236 0
M  V30 3968 H 388.875 4.31407 0.455053 0
M  V30 3969 H 389.546 5.21116 1.8205 0
M  V30 3970 H 392.022 3.38148 2.42477 0
M  V30 3971 H 390.898 4.18726 3.54908 0
M  V30 3972 H 391.159 2.45491 3.67677 0
M  V30 3973 N 390.218 -0.567019 1.47046 0
M  V30 3974 C 391.495 -1.3276 1.43646 0
M  V30 3975 C 391.875 -2.1071 0.128186 0
M  V30 3976 O 391.223 -2.10441 -0.890326 0
M  V30 3977 C 391.433 -2.2404 2.67595 0
M  V30 3978 C 392.781 -2.85372 3.14401 0
M  V30 3979 O 393.805 -2.34346 2.68254 0
M  V30 3980 O 392.664 -3.78091 3.946 0
M  V30 3981 H 389.758 -0.597293 0.571988 0
M  V30 3982 H 392.304 -0.586735 1.59234 0
M  V30 3983 H 391.076 -1.65975 3.54356 0
M  V30 3984 H 390.699 -3.05439 2.54544 0
M  V30 3985 N 391.696 -1.35014 -0.812953 0
M  V30 3986 C 392.942 -1.2812 -1.57204 0
M  V30 3987 C 393.275 0.145869 -1.93651 0
M  V30 3988 O 392.55 1.0937 -1.60836 0
M  V30 3989 C 392.833 -2.18162 -2.86492 0
M  V30 3990 C 392.686 -3.69454 -2.56561 0
M  V30 3991 C 394.005 -2.07439 -3.88145 0
M  V30 3992 H 391.124 -0.466746 -0.570366 0
M  V30 3993 H 393.766 -1.65357 -0.935783 0
M  V30 3994 H 391.916 -1.86535 -3.40789 0
M  V30 3995 H 393.588 -4.11493 -2.08497 0
M  V30 3996 H 391.831 -3.9005 -1.89851 0
M  V30 3997 H 392.502 -4.27835 -3.48799 0
M  V30 3998 H 394.978 -2.35228 -3.4323 0
M  V30 3999 H 393.854 -2.7265 -4.76396 0
M  V30 4000 H 394.115 -1.05439 -4.29343 0
M  V30 4001 N 393.175 1.03435 -1.18907 0
M  V30 4002 C 394.4 1.80919 -1.01406 0
M  V30 4003 C 394.825 1.83055 0.432721 0
M  V30 4004 O 394.183 1.25252 1.31079 0
M  V30 4005 C 394.231 3.24091 -1.58105 0
M  V30 4006 O 393.335 4.04434 -0.806669 0
M  V30 4007 H 392.676 0.558709 -0.358803 0
M  V30 4008 H 395.206 1.30223 -1.57807 0
M  V30 4009 H 395.216 3.74853 -1.61087 0
M  V30 4010 H 393.891 3.21851 -2.6341 0
M  V30 4011 H 392.468 3.63091 -0.849666 0
M  V30 4012 N 394.653 0.992116 1.22453 0
M  V30 4013 C 395.585 0.500024 2.23679 0
M  V30 4014 C 396.598 -0.404463 1.57696 0
M  V30 4015 O 397.787 -0.206722 1.77299 0
M  V30 4016 C 394.887 -0.294711 3.37616 0
M  V30 4017 C 394.06 0.605723 4.33186 0
M  V30 4018 C 393.119 -0.13717 5.26021 0
M  V30 4019 O 392.145 0.477164 5.67196 0
M  V30 4020 N 393.347 -1.4197 5.62872 0
M  V30 4021 H 396.112 1.37045 2.66531 0
M  V30 4022 H 393.673 0.866741 1.36745 0
M  V30 4023 H 395.665 -0.800329 3.96707 0
M  V30 4024 H 394.235 -1.06623 2.93854 0
M  V30 4025 H 393.455 1.29202 3.72425 0
M  V30 4026 H 394.743 1.21896 4.93983 0
M  V30 4027 H 394.141 -1.94015 5.31389 0
M  V30 4028 H 392.698 -1.87052 6.24383 0
M  V30 4029 N 396.131 -1.37776 0.765217 0
M  V30 4030 C 397.041 -2.34135 0.147666 0
M  V30 4031 C 398.057 -1.59854 -0.687215 0
M  V30 4032 O 399.233 -1.91983 -0.608659 0
M  V30 4033 C 396.298 -3.3901 -0.72617 0
M  V30 4034 C 395.359 -4.2912 0.124417 0
M  V30 4035 C 394.592 -5.28986 -0.707807 0
M  V30 4036 O 394.815 -5.36205 -1.94525 0
M  V30 4037 O 393.749 -6.01779 -0.12046 0
M  V30 4038 H 397.575 -2.88664 0.943758 0
M  V30 4039 H 395.16 -1.39824 0.526277 0
M  V30 4040 H 397.042 -4.03195 -1.22524 0
M  V30 4041 H 395.717 -2.86819 -1.50056 0
M  V30 4042 H 394.624 -3.68057 0.669696 0
M  V30 4043 H 395.957 -4.84598 0.861736 0
M  V30 4044 N 397.609 -0.515225 -1.4894 0
M  V30 4045 C 398.886 0.0879088 -1.95402 0
M  V30 4046 C 399.266 1.52745 -1.45712 0
M  V30 4047 O 398.614 2.18238 -0.677093 0
M  V30 4048 C 398.824 -0.0141055 -3.48997 0
M  V30 4049 C 400.172 0.152646 -4.24326 0
M  V30 4050 O 401.196 0.0604025 -3.56149 0
M  V30 4051 O 400.055 0.34384 -5.45417 0
M  V30 4052 H 397.149 0.0874636 -0.822362 0
M  V30 4053 H 399.695 -0.578775 -1.59525 0
M  V30 4054 H 398.467 -1.01745 -3.77841 0
M  V30 4055 H 398.09 0.692091 -3.9153 0
M  V30 4056 N 399.087 1.5561 -0.249682 0
M  V30 4057 C 400.498 1.84979 0.252949 0
M  V30 4058 C 400.849 1.17153 1.57384 0
M  V30 4059 O 399.974 0.450884 2.11651 0
M  V30 4060 C 400.569 3.35584 0.465732 0
M  V30 4061 C 399.128 3.65169 0.912624 0
M  V30 4062 C 398.275 2.77299 -0.00859085 0
M  V30 4063 H 401.226 1.51513 -0.47217 0
M  V30 4064 H 401.247 3.57313 1.30795 0
M  V30 4065 H 400.759 3.8492 -0.49579 0
M  V30 4066 H 398.86 3.21312 1.88652 0
M  V30 4067 H 398.973 4.72912 0.767559 0
M  V30 4068 H 397.337 2.49678 0.50327 0
M  V30 4069 H 398.12 3.29442 -0.965537 0
M  V30 4070 N 400.565 -0.0233959 1.57583 0
M  V30 4071 C 401.475 -1.03907 2.10334 0
M  V30 4072 C 402.491 -1.39257 1.04323 0
M  V30 4073 O 403.667 -1.48462 1.36091 0
M  V30 4074 C 400.732 -2.31938 2.57693 0
M  V30 4075 C 399.793 -2.03117 3.78209 0
M  V30 4076 C 399.026 -3.25043 4.233 0
M  V30 4077 O 399.249 -4.35916 3.67876 0
M  V30 4078 O 398.183 -3.10411 5.15683 0
M  V30 4079 H 402.009 -0.620748 2.97288 0
M  V30 4080 H 399.594 -0.240743 1.47448 0
M  V30 4081 H 401.476 -3.07196 2.88458 0
M  V30 4082 H 400.151 -2.73055 1.73847 0
M  V30 4083 H 399.058 -1.25408 3.52454 0
M  V30 4084 H 400.391 -1.66852 4.63056 0
M  V30 4085 N 402.043 -1.548 -0.295768 0
M  V30 4086 C 403.289 -1.74588 -1.03184 0
M  V30 4087 C 403.622 -0.532962 -1.86744 0
M  V30 4088 O 402.897 0.469872 -1.88739 0
M  V30 4089 C 403.18 -3.03791 -1.93347 0
M  V30 4090 C 403.033 -4.35392 -1.12933 0
M  V30 4091 C 404.352 -3.28892 -2.92435 0
M  V30 4092 H 401.471 -0.635221 -0.373715 0
M  V30 4093 H 404.113 -1.87519 -0.30606 0
M  V30 4094 H 402.263 -2.92898 -2.55232 0
M  V30 4095 H 403.935 -4.58211 -0.532943 0
M  V30 4096 H 402.178 -4.31642 -0.432168 0
M  V30 4097 H 402.849 -5.22074 -1.79284 0
M  V30 4098 H 405.325 -3.39429 -2.4068 0
M  V30 4099 H 404.201 -4.20603 -3.52682 0
M  V30 4100 H 404.462 -2.47437 -3.6637 0
M  V30 4101 N 403.521 0.559213 -1.47345 0
M  V30 4102 C 404.453 1.68161 -1.55738 0
M  V30 4103 C 405.466 1.56636 -0.443744 0
M  V30 4104 O 406.655 1.6363 -0.713258 0
M  V30 4105 C 403.755 3.06611 -1.4437 0
M  V30 4106 C 402.928 3.4391 -2.70268 0
M  V30 4107 C 401.987 4.61515 -2.52765 0
M  V30 4108 O 401.013 4.66197 -3.26572 0
M  V30 4109 N 402.215 5.57883 -1.6046 0
M  V30 4110 H 404.98 1.61408 -2.52522 0
M  V30 4111 H 402.541 0.7458 -1.43699 0
M  V30 4112 H 404.533 3.83117 -1.30398 0
M  V30 4113 H 403.103 3.07602 -0.556766 0
M  V30 4114 H 402.323 2.56873 -2.99015 0
M  V30 4115 H 403.611 3.65605 -3.53851 0
M  V30 4116 H 403.009 5.56855 -0.996422 0
M  V30 4117 H 401.566 6.33723 -1.52441 0
M  V30 4118 N 404.999 1.35443 0.805782 0
M  V30 4119 C 406.246 1.28761 1.56291 0
M  V30 4120 C 406.574 -0.137747 1.94012 0
M  V30 4121 O 405.829 -1.1032 1.61642 0
M  V30 4122 C 406.128 2.14045 2.86216 0
M  V30 4123 C 405.794 3.62826 2.67709 0
M  V30 4124 C 404.456 4.0338 2.6237 0
M  V30 4125 C 406.808 4.57227 2.50186 0
M  V30 4126 C 404.136 5.36501 2.37451 0
M  V30 4127 C 406.488 5.90547 2.26797 0
M  V30 4128 C 405.152 6.30245 2.1988 0
M  V30 4129 H 404.422 0.471171 0.571908 0
M  V30 4130 H 407.069 1.67347 0.930974 0
M  V30 4131 H 405.374 1.68342 3.53791 0
M  V30 4132 H 407.071 2.0621 3.43917 0
M  V30 4133 H 403.661 3.30644 2.72713 0
M  V30 4134 H 407.845 4.2678 2.53323 0
M  V30 4135 H 403.101 5.66259 2.30567 0
M  V30 4136 H 407.275 6.63274 2.12228 0
M  V30 4137 H 404.902 7.33328 2.00333 0
M  V30 4138 N 406.477 -1.02803 1.19454 0
M  V30 4139 C 407.425 -2.13213 0.929673 0
M  V30 4140 C 408.419 -1.69011 -0.114806 0
M  V30 4141 O 409.625 -1.79967 0.0345147 0
M  V30 4142 H 406 -0.69662 0.28324 0
M  V30 4143 H 407.971 -2.32744 1.86743 0
M  V30 4144 C 406.72 -3.4429 0.485797 0
M  V30 4145 H 406.043 -3.7872 1.28105 0
M  V30 4146 H 407.483 -4.22638 0.339582 0
M  V30 4147 C 405.942 -3.27258 -0.800244 0
M  V30 4148 O 406.472 -3.55967 -1.86146 0
M  V30 4149 N 404.678 -2.80545 -0.75781 0
M  V30 4150 H 404.225 -2.57382 0.106039 0
M  V30 4151 H 404.183 -2.6953 -1.61867 0
M  V30 4152 N 407.956 -0.998596 -1.21925 0
M  V30 4153 C 409.202 -0.688337 -1.91399 0
M  V30 4154 C 409.557 0.771805 -1.76241 0
M  V30 4155 O 408.85 1.55153 -1.1242 0
M  V30 4156 C 409.044 -1.03648 -3.42041 0
M  V30 4157 C 408.873 -2.52892 -3.71855 0
M  V30 4158 C 407.643 -3.19389 -3.91559 0
M  V30 4159 C 409.841 -3.5103 -3.75875 0
M  V30 4160 N 407.823 -4.5805 -4.08734 0
M  V30 4161 C 409.194 -4.75174 -3.98259 0
M  V30 4162 C 411.249 -3.45257 -3.58751 0
M  V30 4163 C 409.952 -5.94247 -4.05294 0
M  V30 4164 C 411.978 -4.63712 -3.67049 0
M  V30 4165 C 411.34 -5.86658 -3.89887 0
M  V30 4166 H 407.439 -0.303251 -0.720807 0
M  V30 4167 H 410.023 -1.27977 -1.46731 0
M  V30 4168 H 408.194 -0.473569 -3.85502 0
M  V30 4169 H 409.926 -0.681619 -3.98919 0
M  V30 4170 H 406.681 -2.69846 -3.89205 0
M  V30 4171 H 407.105 -5.29989 -4.21237 0
M  V30 4172 H 411.747 -2.51215 -3.40075 0
M  V30 4173 H 409.465 -6.88687 -4.22772 0
M  V30 4174 H 413.051 -4.6084 -3.5513 0
M  V30 4175 H 411.931 -6.76786 -3.96144 0
M  V30 4176 N 409.434 1.37368 -0.772513 0
M  V30 4177 C 410.664 2.03647 -0.348082 0
M  V30 4178 C 411.072 1.58392 1.03482 0
M  V30 4179 O 410.415 0.760921 1.672 0
M  V30 4180 C 410.477 3.58131 -0.313404 0
M  V30 4181 C 410.141 4.2652 -1.64102 0
M  V30 4182 C 411.138 4.50587 -2.5936 0
M  V30 4183 C 408.823 4.64335 -1.91567 0
M  V30 4184 C 410.817 5.11526 -3.80289 0
M  V30 4185 C 408.504 5.24996 -3.12766 0
M  V30 4186 C 409.502 5.48529 -4.06946 0
M  V30 4187 O 409.19 6.07921 -5.26011 0
M  V30 4188 H 408.922 0.660538 -0.143753 0
M  V30 4189 H 411.476 1.76669 -1.04772 0
M  V30 4190 H 409.706 3.84159 0.442617 0
M  V30 4191 H 411.395 4.05813 0.0840613 0
M  V30 4192 H 412.161 4.21784 -2.39423 0
M  V30 4193 H 408.04 4.45353 -1.19088 0
M  V30 4194 H 411.584 5.29811 -4.53813 0
M  V30 4195 H 407.481 5.53223 -3.32588 0
M  V30 4196 H 408.249 6.26398 -5.26847 0
M  V30 4197 N 410.912 0.523116 1.48665 0
M  V30 4198 C 412.158 -0.0134963 2.02796 0
M  V30 4199 C 412.491 -1.34582 1.40004 0
M  V30 4200 O 411.766 -1.86756 0.543381 0
M  V30 4201 C 412.049 -0.14276 3.59817 0
M  V30 4202 C 411.902 1.21425 4.331 0
M  V30 4203 C 413.221 -0.872856 4.31357 0
M  V30 4204 H 410.34 -0.00343074 0.736992 0
M  V30 4205 H 412.982 0.678816 1.7746 0
M  V30 4206 H 411.132 -0.732401 3.81534 0
M  V30 4207 H 412.804 1.84447 4.2282 0
M  V30 4208 H 411.047 1.79791 3.94788 0
M  V30 4209 H 411.718 1.07687 5.41394 0
M  V30 4210 H 414.194 -0.372555 4.14429 0
M  V30 4211 H 413.07 -0.932185 5.40927 0
M  V30 4212 H 413.331 -1.92161 3.98154 0
M  V30 4213 N 412.39 -1.55475 0.257931 0
M  V30 4214 C 413.667 -1.91155 -0.414629 0
M  V30 4215 C 414.047 -1.18008 -1.75035 0
M  V30 4216 O 413.395 -0.301193 -2.26506 0
M  V30 4217 C 413.605 -3.44283 -0.571859 0
M  V30 4218 C 414.953 -4.15744 -0.862678 0
M  V30 4219 O 415.977 -3.50083 -0.657314 0
M  V30 4220 O 414.836 -5.31909 -1.2544 0
M  V30 4221 H 411.93 -0.796016 -0.22425 0
M  V30 4222 H 414.476 -1.66976 0.302814 0
M  V30 4223 H 413.248 -3.89558 0.368844 0
M  V30 4224 H 412.871 -3.7436 -1.33943 0
M  V30 4225 N 413.868 0.0150385 -1.57593 0
M  V30 4226 C 415.116 0.701613 -1.8953 0
M  V30 4227 C 415.437 1.75139 -0.857396 0
M  V30 4228 O 414.707 1.95607 0.107194 0
M  V30 4229 H 413.287 0.26213 -0.699498 0
M  V30 4230 H 415.949 -0.0223304 -1.94887 0
M  V30 4231 H 415.045 1.18236 -2.88837 0
M  V30 4232 N 415.346 1.54954 0.287554 0
M  V30 4233 C 416.592 1.75132 1.02257 0
M  V30 4234 C 416.925 0.542858 1.86458 0
M  V30 4235 O 416.2 -0.459856 1.88986 0
M  V30 4236 C 416.483 3.04812 1.91733 0
M  V30 4237 C 416.336 4.35985 1.10622 0
M  V30 4238 C 417.655 3.30438 2.90687 0
M  V30 4239 H 414.774 0.637194 0.370341 0
M  V30 4240 H 417.416 1.87678 0.296111 0
M  V30 4241 H 415.566 2.94247 2.53675 0
M  V30 4242 H 417.238 4.58487 0.508636 0
M  V30 4243 H 415.481 4.31865 0.409271 0
M  V30 4244 H 416.152 5.23017 1.76513 0
M  V30 4245 H 418.628 3.40701 2.38877 0
M  V30 4246 H 417.504 4.22467 3.50447 0
M  V30 4247 H 417.765 2.49377 3.65053 0
M  V30 4248 N 416.824 -0.551391 1.4764 0
M  V30 4249 C 417.734 -1.68525 1.63207 0
M  V30 4250 C 418.75 -1.6621 0.514815 0
M  V30 4251 O 419.926 -1.85551 0.783113 0
M  V30 4252 C 416.991 -3.05025 1.64805 0
M  V30 4253 C 416.052 -3.18362 2.88 0
M  V30 4254 C 415.285 -4.4835 2.89513 0
M  V30 4255 O 415.508 -5.34163 2.00065 0
M  V30 4256 O 414.442 -4.65602 3.81443 0
M  V30 4257 H 418.268 -1.58333 2.59161 0
M  V30 4258 H 415.853 -0.722063 1.30792 0
M  V30 4259 H 417.735 -3.86245 1.68502 0
M  V30 4260 H 416.41 -3.15587 0.720197 0
M  V30 4261 H 415.317 -2.36518 2.89845 0
M  V30 4262 H 416.65 -3.12707 3.80099 0
M  V30 4263 N 418.302 -1.35869 -0.798587 0
M  V30 4264 C 419.548 -1.2978 -1.55836 0
M  V30 4265 C 419.881 0.125322 -1.93795 0
M  V30 4266 O 419.156 1.07658 -1.61987 0
M  V30 4267 C 419.439 -2.21188 -2.84162 0
M  V30 4268 C 419.292 -3.72155 -2.52628 0
M  V30 4269 C 420.611 -2.11545 -3.85923 0
M  V30 4270 H 417.73 -0.472769 -0.565383 0
M  V30 4271 H 420.372 -1.66341 -0.918192 0
M  V30 4272 H 418.522 -1.90139 -3.38791 0
M  V30 4273 H 420.194 -4.13682 -2.04121 0
M  V30 4274 H 418.437 -3.92042 -1.85704 0
M  V30 4275 H 419.108 -4.31511 -3.44242 0
M  V30 4276 H 421.584 -2.38855 -3.40716 0
M  V30 4277 H 420.46 -2.77688 -4.73477 0
M  V30 4278 H 420.721 -1.09987 -4.282 0
M  V30 4279 N 419.78 1.02168 -1.19998 0
M  V30 4280 C 420.73 2.08969 -0.911921 0
M  V30 4281 C 421.714 1.60404 0.12621 0
M  V30 4282 O 422.906 1.76817 -0.0804706 0
M  V30 4283 C 420.035 3.402 -0.460277 0
M  V30 4284 C 419.121 3.9548 -1.53155 0
M  V30 4285 N 419.512 4.24332 -2.75275 0
M  V30 4286 C 417.81 4.23572 -1.39653 0
M  V30 4287 C 418.511 4.68834 -3.44339 0
M  V30 4288 N 417.487 4.70804 -2.71744 0
M  V30 4289 H 421.289 2.29178 -1.83997 0
M  V30 4290 H 418.803 1.20094 -1.09322 0
M  V30 4291 H 420.8 4.16235 -0.235337 0
M  V30 4292 H 419.46 3.21408 0.4612 0
M  V30 4293 H 420.471 4.13393 -3.11973 0
M  V30 4294 H 417.148 4.14005 -0.539067 0
M  V30 4295 H 418.538 5.00019 -4.4881 0
M  V30 4296 N 421.258 1.00505 1.21394 0
M  V30 4297 C 422.206 0.558623 2.25792 0
M  V30 4298 C 423.2 -0.396848 1.64686 0
M  V30 4299 O 424.406 -0.268035 1.77993 0
M  V30 4300 H 420.781 0.1623 0.734277 0
M  V30 4301 H 422.752 1.4503 2.60785 0
M  V30 4302 C 421.501 -0.0989574 3.47559 0
M  V30 4303 H 420.824 0.627225 3.94849 0
M  V30 4304 H 422.264 -0.3746 4.22342 0
M  V30 4305 C 420.723 -1.33817 3.09184 0
M  V30 4306 O 421.253 -2.43252 3.19674 0
M  V30 4307 N 419.459 -1.21793 2.63846 0
M  V30 4308 H 419.006 -0.32746 2.5551 0
M  V30 4309 H 418.964 -2.04809 2.38539 0
M  V30 4310 N 422.737 -1.36956 0.779787 0
M  V30 4311 C 423.7 -2.2851 0.177662 0
M  V30 4312 C 424.7 -1.48393 -0.619377 0
M  V30 4313 O 425.89 -1.68505 -0.441785 0
M  V30 4314 C 423.022 -3.32428 -0.755279 0
M  V30 4315 H 424.215 -2.83269 0.984823 0
M  V30 4316 H 421.768 -1.46358 0.548544 0
M  V30 4317 H 422.503 -2.82808 -1.58714 0
M  V30 4318 H 422.288 -3.91659 -0.185817 0
M  V30 4319 H 423.778 -4.00824 -1.17174 0
M  V30 4320 N 424.215 -0.530993 -1.48385 0
M  V30 4321 C 425.162 0.231223 -2.29639 0
M  V30 4322 C 426.132 0.932864 -1.37429 0
M  V30 4323 O 427.317 0.933692 -1.66394 0
M  V30 4324 C 424.457 1.27155 -3.2082 0
M  V30 4325 C 423.57 0.578655 -4.28107 0
M  V30 4326 C 422.705 1.602 -5.06467 0
M  V30 4327 C 421.744 0.892625 -6.05556 0
M  V30 4328 N 420.881 1.86157 -6.76971 0
M  V30 4329 H 425.721 -0.467848 -2.94305 0
M  V30 4330 H 423.258 -0.242556 -1.45086 0
M  V30 4331 H 425.216 1.88703 -3.72085 0
M  V30 4332 H 423.846 1.939 -2.58075 0
M  V30 4333 H 422.898 -0.150782 -3.80101 0
M  V30 4334 H 424.21 0.0217065 -4.98795 0
M  V30 4335 H 423.364 2.29173 -5.61751 0
M  V30 4336 H 422.103 2.19285 -4.35621 0
M  V30 4337 H 421.108 0.188829 -5.49476 0
M  V30 4338 H 422.333 0.307878 -6.78402 0
M  V30 4339 H 420.279 2.44147 -6.08875 0
M  V30 4340 H 420.196 1.35608 -7.43738 0
M  V30 4341 H 421.464 2.54325 -7.36844 0
M  V30 4342 N 425.693 1.55336 -0.266172 0
M  V30 4343 C 426.921 2.03801 0.356756 0
M  V30 4344 C 427.336 1.14485 1.50129 0
M  V30 4345 O 426.693 0.163121 1.8177 0
M  V30 4346 C 426.744 3.51455 0.846281 0
M  V30 4347 O 426.465 4.37371 -0.252663 0
M  V30 4348 C 427.966 4.15767 1.53794 0
M  V30 4349 H 425.186 0.665906 0.0825218 0
M  V30 4350 H 427.73 2.00636 -0.39566 0
M  V30 4351 H 425.885 3.55092 1.54881 0
M  V30 4352 H 426.299 5.24358 0.122173 0
M  V30 4353 H 427.773 5.20714 1.83198 0
M  V30 4354 H 428.25 3.63404 2.46646 0
M  V30 4355 H 428.856 4.16107 0.879488 0
M  V30 4356 N 427.171 -0.0066808 1.57599 0
M  V30 4357 C 428.118 -1.00024 2.08 0
M  V30 4358 C 429.088 -1.34549 0.973943 0
M  V30 4359 O 430.273 -1.44502 1.24595 0
M  V30 4360 C 427.413 -2.2891 2.58252 0
M  V30 4361 C 426.526 -2.00346 3.82734 0
M  V30 4362 C 425.661 -3.23265 4.21513 0
M  V30 4363 C 424.7 -2.90357 5.3885 0
M  V30 4364 N 423.837 -4.05793 5.72954 0
M  V30 4365 H 428.677 -0.563499 2.92624 0
M  V30 4366 H 426.214 -0.266592 1.44664 0
M  V30 4367 H 428.172 -3.04247 2.85464 0
M  V30 4368 H 426.802 -2.70265 1.76512 0
M  V30 4369 H 425.854 -1.15406 3.62471 0
M  V30 4370 H 427.166 -1.72086 4.68175 0
M  V30 4371 H 426.32 -4.06953 4.49971 0
M  V30 4372 H 425.059 -3.54657 3.34768 0
M  V30 4373 H 424.064 -2.05075 5.10122 0
M  V30 4374 H 425.289 -2.60219 6.27266 0
M  V30 4375 H 423.235 -4.37094 4.89167 0
M  V30 4376 H 423.152 -3.81034 6.52954 0
M  V30 4377 H 424.42 -4.90289 6.06001 0
M  V30 4378 N 428.649 -1.55105 -0.279332 0
M  V30 4379 C 430.06 -1.66186 -0.850832 0
M  V30 4380 C 430.411 -0.584707 -1.87285 0
M  V30 4381 O 429.536 0.274919 -2.14647 0
M  V30 4382 C 430.131 -3.01264 -1.55001 0
M  V30 4383 C 428.69 -3.14394 -2.06963 0
M  V30 4384 C 427.837 -2.61959 -0.909536 0
M  V30 4385 H 430.788 -1.58602 -0.0558235 0
M  V30 4386 H 430.809 -2.93899 -2.41669 0
M  V30 4387 H 430.321 -3.7964 -0.805931 0
M  V30 4388 H 428.422 -2.4078 -2.84352 0
M  V30 4389 H 428.535 -4.20867 -2.28928 0
M  V30 4390 H 426.899 -2.18957 -1.30116 0
M  V30 4391 H 427.682 -3.42833 -0.179062 0
M  V30 4392 N 430.127 0.543554 -1.4793 0
M  V30 4393 C 431.543 0.870806 -1.3375 0
M  V30 4394 C 431.743 1.9864 -0.338261 0
M  V30 4395 O 430.799 2.51305 0.245371 0
M  V30 4396 C 432.112 1.25114 -2.73435 0
M  V30 4397 C 433.66 1.3618 -2.81823 0
M  V30 4398 C 434.135 1.77563 -4.22179 0
M  V30 4399 N 435.626 1.8469 -4.24787 0
M  V30 4400 C 436.361 2.18067 -5.30315 0
M  V30 4401 N 435.857 2.49963 -6.46135 0
M  V30 4402 N 437.65 2.18958 -5.17701 0
M  V30 4403 H 429.801 -0.19275 -2.11524 0
M  V30 4404 H 432.064 -0.0235777 -0.947707 0
M  V30 4405 H 431.77 0.50514 -3.48053 0
M  V30 4406 H 431.644 2.20431 -3.06088 0
M  V30 4407 H 434.031 2.09859 -2.07468 0
M  V30 4408 H 434.112 0.390169 -2.52807 0
M  V30 4409 H 433.756 1.04449 -4.97044 0
M  V30 4410 H 433.686 2.75753 -4.48629 0
M  V30 4411 H 436.177 1.62372 -3.41239 0
M  V30 4412 H 436.49 2.74497 -7.22406 0
M  V30 4413 H 434.835 2.47513 -6.49432 0
M  V30 4414 H 438.026 1.93488 -4.2624 0
M  V30 4415 H 438.199 2.44639 -6.00047 0
M  V30 4416 N 431.605 1.3629 0.791371 0
M  V30 4417 C 432.515 1.32606 1.93527 0
M  V30 4418 C 433.531 0.228541 1.72493 0
M  V30 4419 O 434.707 0.460571 1.96063 0
M  V30 4420 C 431.772 1.11271 3.28359 0
M  V30 4421 C 430.833 2.3048 3.62185 0
M  V30 4422 C 430.066 2.10154 4.90583 0
M  V30 4423 O 430.289 1.07572 5.60165 0
M  V30 4424 O 429.223 2.97884 5.23019 0
M  V30 4425 H 433.049 2.28909 1.99585 0
M  V30 4426 H 430.634 1.16818 0.931344 0
M  V30 4427 H 432.516 1.01283 4.09047 0
M  V30 4428 H 431.191 0.180292 3.23198 0
M  V30 4429 H 430.098 2.46036 2.81811 0
M  V30 4430 H 431.431 3.22221 3.72068 0
M  V30 4431 N 433.083 -1.0153 1.20538 0
M  V30 4432 C 433.993 -2.13557 0.971113 0
M  V30 4433 C 435.009 -1.73845 -0.0734366 0
M  V30 4434 O 436.185 -2.01075 0.114299 0
M  V30 4435 C 433.25 -3.42661 0.527639 0
M  V30 4436 C 432.311 -3.96608 1.64319 0
M  V30 4437 C 431.544 -5.1955 1.22078 0
M  V30 4438 O 431.767 -5.70329 0.0900198 0
M  V30 4439 O 430.701 -5.66681 2.02871 0
M  V30 4440 H 434.527 -2.3619 1.90913 0
M  V30 4441 H 432.112 -1.11946 0.989362 0
M  V30 4442 H 433.994 -4.20404 0.289621 0
M  V30 4443 H 432.669 -3.21441 -0.381779 0
M  V30 4444 H 431.576 -3.20139 1.93551 0
M  V30 4445 H 432.909 -4.22219 2.52966 0
M  V30 4446 N 434.561 -1.01147 -1.20859 0
M  V30 4447 C 435.493 -0.535546 -2.22855 0
M  V30 4448 C 436.506 0.379323 -1.58319 0
M  V30 4449 O 437.695 0.178489 -1.77605 0
M  V30 4450 C 434.795 0.240962 -3.38042 0
M  V30 4451 C 433.968 -0.674562 -4.32167 0
M  V30 4452 C 433.027 0.053467 -5.26173 0
M  V30 4453 O 432.053 -0.567339 -5.66366 0
M  V30 4454 N 433.255 1.32997 -5.65059 0
M  V30 4455 H 436.02 -1.41268 -2.64317 0
M  V30 4456 H 433.581 -0.888386 -1.35349 0
M  V30 4457 H 435.573 0.737115 -3.97931 0
M  V30 4458 H 434.143 1.01935 -2.95513 0
M  V30 4459 H 433.363 -1.35111 -3.70322 0
M  V30 4460 H 434.651 -1.2974 -4.91981 0
M  V30 4461 H 434.049 1.85536 -5.34409 0
M  V30 4462 H 432.606 1.77095 -6.2728 0
M  V30 4463 N 436.039 1.36541 -0.78704 0
M  V30 4464 C 437.286 1.99304 -0.358341 0
M  V30 4465 C 437.614 1.62467 1.06933 0
M  V30 4466 O 436.869 0.870019 1.75297 0
M  V30 4467 C 437.168 3.54343 -0.466485 0
M  V30 4468 C 436.834 4.10993 -1.85461 0
M  V30 4469 C 435.496 4.26177 -2.23443 0
M  V30 4470 C 437.848 4.41895 -2.76366 0
M  V30 4471 C 435.176 4.69573 -3.51736 0
M  V30 4472 C 437.528 4.86722 -4.04084 0
M  V30 4473 C 436.192 5.00112 -4.42091 0
M  V30 4474 H 435.462 0.729306 -0.131126 0
M  V30 4475 H 438.109 1.63068 -1.00404 0
M  V30 4476 H 436.414 3.90918 0.262719 0
M  V30 4477 H 438.111 4.00833 -0.115854 0
M  V30 4478 H 434.701 3.99612 -1.54946 0
M  V30 4479 H 438.885 4.29735 -2.48277 0
M  V30 4480 H 434.141 4.78127 -3.81057 0
M  V30 4481 H 438.315 5.09598 -4.7464 0
M  V30 4482 H 435.942 5.33498 -5.41557 0
M  V30 4483 N 437.518 0.538854 1.48102 0
M  V30 4484 C 438.466 -0.232325 2.31437 0
M  V30 4485 C 439.46 -0.927004 1.41785 0
M  V30 4486 O 440.666 -0.850378 1.58646 0
M  V30 4487 H 437.041 -0.0937916 0.746128 0
M  V30 4488 H 439.012 0.489986 2.9435 0
M  V30 4489 C 437.761 -1.26074 3.24038 0
M  V30 4490 H 437.084 -0.735609 3.92974 0
M  V30 4491 H 438.524 -1.77157 3.85216 0
M  V30 4492 C 436.983 -2.29902 2.46265 0
M  V30 4493 O 437.513 -3.36502 2.19384 0
M  V30 4494 N 435.719 -2.03348 2.07601 0
M  V30 4495 H 435.266 -1.16675 2.29662 0
M  V30 4496 H 435.224 -2.73038 1.55877 0
M  V30 4497 N 438.996 -1.55193 0.274407 0
M  V30 4498 C 440.221 -2.04446 -0.348824 0
M  V30 4499 C 440.646 -1.15149 -1.48735 0
M  V30 4500 O 440.004 -0.149952 -1.80679 0
M  V30 4501 C 440.052 -3.51431 -0.808009 0
M  V30 4502 O 439.156 -3.65225 -1.91531 0
M  V30 4503 H 438.497 -0.66006 -0.0722276 0
M  V30 4504 H 441.027 -2.00481 0.408498 0
M  V30 4505 H 441.037 -3.92781 -1.10395 0
M  V30 4506 H 439.712 -4.15892 0.0249865 0
M  V30 4507 H 438.289 -3.35778 -1.62196 0
M  V30 4508 N 440.474 -0.00167713 -1.576 0
M  V30 4509 C 441.702 0.693759 -1.94922 0
M  V30 4510 C 442.117 1.67215 -0.876626 0
M  V30 4511 O 441.474 1.81929 0.144279 0
M  V30 4512 C 441.525 1.42416 -3.32265 0
M  V30 4513 O 441.246 0.485014 -4.35407 0
M  V30 4514 C 442.747 2.21395 -3.84056 0
M  V30 4515 H 439.967 0.193118 -0.642609 0
M  V30 4516 H 442.511 -0.0532952 -2.04431 0
M  V30 4517 H 440.666 2.12284 -3.24059 0
M  V30 4518 H 441.08 1.00053 -5.14868 0
M  V30 4519 H 442.554 2.67996 -4.82578 0
M  V30 4520 H 443.031 3.04142 -3.16851 0
M  V30 4521 H 443.637 1.56542 -3.95443 0
M  V30 4522 N 441.952 1.55251 0.271103 0
M  V30 4523 C 443.182 1.79713 1.01916 0
M  V30 4524 C 443.59 0.571613 1.80359 0
M  V30 4525 O 442.933 -0.468853 1.77616 0
M  V30 4526 C 442.995 2.97138 2.02359 0
M  V30 4527 C 442.659 4.34104 1.42837 0
M  V30 4528 C 443.656 5.13019 0.843071 0
M  V30 4529 C 441.341 4.80765 1.455 0
M  V30 4530 C 443.335 6.36729 0.292333 0
M  V30 4531 C 441.022 6.0443 0.900402 0
M  V30 4532 C 442.02 6.8225 0.32007 0
M  V30 4533 O 441.708 8.03582 -0.226031 0
M  V30 4534 H 441.44 0.602431 0.306681 0
M  V30 4535 H 443.994 2.03097 0.306701 0
M  V30 4536 H 442.224 2.6945 2.77369 0
M  V30 4537 H 443.913 3.08907 2.63309 0
M  V30 4538 H 444.679 4.781 0.815178 0
M  V30 4539 H 440.558 4.20202 1.89609 0
M  V30 4540 H 444.102 6.97414 -0.161274 0
M  V30 4541 H 439.999 6.3883 0.925541 0
M  V30 4542 H 440.767 8.18418 -0.115572 0
M  V30 4543 N 443.43 -0.535701 1.48216 0
M  V30 4544 C 444.846 -0.863701 1.3421 0
M  V30 4545 C 445.046 -1.98458 0.34879 0
M  V30 4546 O 444.102 -2.51432 -0.23204 0
M  V30 4547 C 445.415 -1.23662 2.74095 0
M  V30 4548 C 446.963 -1.34683 2.82541 0
M  V30 4549 C 447.438 -1.75322 4.23115 0
M  V30 4550 N 448.929 -1.82434 4.2576 0
M  V30 4551 C 449.664 -2.15252 5.31464 0
M  V30 4552 N 449.16 -2.46533 6.47452 0
M  V30 4553 N 450.953 -2.16209 5.18855 0
M  V30 4554 H 443.104 0.203965 2.11418 0
M  V30 4555 H 445.367 0.0286033 0.947568 0
M  V30 4556 H 445.073 -0.486674 3.48316 0
M  V30 4557 H 444.947 -2.18805 3.07253 0
M  V30 4558 H 447.334 -2.08756 2.08579 0
M  V30 4559 H 447.415 -0.376756 2.5301 0
M  V30 4560 H 447.059 -1.01812 4.97591 0
M  V30 4561 H 446.989 -2.7337 4.50085 0
M  V30 4562 H 449.48 -1.6056 3.42095 0
M  V30 4563 H 449.793 -2.70662 7.23852 0
M  V30 4564 H 448.138 -2.44065 6.50736 0
M  V30 4565 H 451.329 -1.91224 4.2726 0
M  V30 4566 H 451.502 -2.41453 6.01335 0
M  V30 4567 N 444.908 -1.36708 -0.784132 0
M  V30 4568 C 446.154 -1.31426 -1.54451 0
M  V30 4569 C 446.487 0.10476 -1.93917 0
M  V30 4570 O 445.762 1.05934 -1.6312 0
M  V30 4571 C 446.045 -2.24189 -2.818 0
M  V30 4572 C 445.898 -3.74813 -2.48667 0
M  V30 4573 C 447.217 -2.15626 -3.83658 0
M  V30 4574 H 444.336 -0.478739 -0.560337 0
M  V30 4575 H 446.978 -1.67305 -0.900498 0
M  V30 4576 H 445.128 -1.93722 -3.36755 0
M  V30 4577 H 446.8 -4.15823 -1.99722 0
M  V30 4578 H 445.043 -3.93989 -1.81535 0
M  V30 4579 H 445.714 -4.35138 -3.39646 0
M  V30 4580 H 448.19 -2.42456 -3.38163 0
M  V30 4581 H 447.066 -2.82694 -4.70506 0
M  V30 4582 H 447.327 -1.14522 -4.27009 0
M  V30 4583 N 446.386 1.0089 -1.21074 0
M  V30 4584 C 447.632 1.74866 -1.02712 0
M  V30 4585 C 447.965 1.89178 0.438787 0
M  V30 4586 O 447.24 1.42325 1.32567 0
M  V30 4587 C 447.523 3.16347 -1.72036 0
M  V30 4588 C 447.376 3.09782 -3.26121 0
M  V30 4589 C 448.695 4.15187 -1.45973 0
M  V30 4590 H 445.814 0.634736 -0.374539 0
M  V30 4591 H 448.456 1.17646 -1.49196 0
M  V30 4592 H 446.606 3.65201 -1.32517 0
M  V30 4593 H 448.278 2.68673 -3.74983 0
M  V30 4594 H 446.521 2.46982 -3.56626 0
M  V30 4595 H 447.192 4.09829 -3.6979 0
M  V30 4596 H 449.668 3.75022 -1.80272 0
M  V30 4597 H 448.544 5.12331 -1.96999 0
M  V30 4598 H 448.805 4.40386 -0.388924 0
M  V30 4599 N 447.864 1.01787 1.20321 0
M  V30 4600 C 449.089 0.727009 1.9424 0
M  V30 4601 C 449.514 -0.706179 1.74341 0
M  V30 4602 O 448.872 -1.48609 1.03852 0
M  V30 4603 C 448.92 1.06958 3.44372 0
M  V30 4604 O 448.024 0.181983 4.11998 0
M  V30 4605 H 447.365 0.269626 0.606793 0
M  V30 4606 H 449.895 1.36158 1.52716 0
M  V30 4607 H 449.905 1.02182 3.94997 0
M  V30 4608 H 448.58 2.11378 3.58179 0
M  V30 4609 H 447.157 0.287378 3.71791 0
M  V30 4610 N 449.342 -1.36122 0.79427 0
M  V30 4611 C 450.588 -1.99406 0.369452 0
M  V30 4612 C 450.921 -1.62886 -1.05743 0
M  V30 4613 O 450.196 -0.886053 -1.73145 0
M  V30 4614 C 450.479 -3.56046 0.538833 0
M  V30 4615 C 450.332 -4.02404 2.00976 0
M  V30 4616 C 451.651 -4.40079 -0.0431359 0
M  V30 4617 H 448.77 -0.724397 0.135712 0
M  V30 4618 H 451.412 -1.61461 1.00151 0
M  V30 4619 H 449.562 -3.885 0.000771004 0
M  V30 4620 H 451.234 -3.80415 2.60926 0
M  V30 4621 H 449.477 -3.53765 2.51063 0
M  V30 4622 H 450.148 -5.11344 2.07922 0
M  V30 4623 H 452.624 -4.14013 0.416228 0
M  V30 4624 H 451.5 -5.48799 0.105374 0
M  V30 4625 H 451.761 -4.27264 -1.13571 0
M  V30 4626 N 450.82 -0.546701 -1.47814 0
M  V30 4627 C 451.75 0.195317 -2.32682 0
M  V30 4628 C 452.731 0.918981 -1.43139 0
M  V30 4629 O 453.916 0.901501 -1.72008 0
M  V30 4630 C 451.046 1.23237 -3.247 0
M  V30 4631 C 450 0.625818 -4.234 0
M  V30 4632 C 449.326 1.76674 -5.04669 0
M  V30 4633 C 450.626 -0.413515 -5.2066 0
M  V30 4634 H 452.32 -0.513184 -2.94969 0
M  V30 4635 H 449.866 -0.248241 -1.41844 0
M  V30 4636 H 451.819 1.75955 -3.82907 0
M  V30 4637 H 450.543 1.97067 -2.60446 0
M  V30 4638 H 449.202 0.120023 -3.66403 0
M  V30 4639 H 448.85 2.49383 -4.36826 0
M  V30 4640 H 448.55 1.36673 -5.71484 0
M  V30 4641 H 450.074 2.29738 -5.65732 0
M  V30 4642 H 451.488 0.0272042 -5.73294 0
M  V30 4643 H 449.885 -0.731825 -5.95621 0
M  V30 4644 H 450.955 -1.31325 -4.66778 0
M  V30 4645 N 452.299 1.55045 -0.282633 0
M  V30 4646 C 453.527 2.04168 0.33512 0
M  V30 4647 C 453.942 1.16071 1.48906 0
M  V30 4648 O 453.299 0.182391 1.81586 0
M  V30 4649 C 453.35 3.52332 0.808957 0
M  V30 4650 O 453.071 4.37078 -0.299038 0
M  V30 4651 C 454.572 4.17375 1.49375 0
M  V30 4652 H 451.792 0.666744 0.0754543 0
M  V30 4653 H 454.336 2.00205 -0.416918 0
M  V30 4654 H 452.491 3.56715 1.51106 0
M  V30 4655 H 452.905 5.24458 0.0665514 0
M  V30 4656 H 454.379 5.22627 1.77664 0
M  V30 4657 H 454.856 3.65999 2.42778 0
M  V30 4658 H 455.462 4.17016 0.835305 0
M  V30 4659 N 453.777 0.010035 1.57597 0
M  V30 4660 C 455.023 -0.673697 1.91283 0
M  V30 4661 C 455.356 -1.72863 0.884979 0
M  V30 4662 O 454.631 -1.94268 -0.0949487 0
M  V30 4663 C 454.914 -1.30766 3.35518 0
M  V30 4664 C 454.767 -0.263578 4.49027 0
M  V30 4665 C 456.086 -2.23105 3.79358 0
M  V30 4666 H 453.205 -0.243439 0.695634 0
M  V30 4667 H 455.847 0.0633864 1.89894 0
M  V30 4668 H 453.997 -1.93588 3.36832 0
M  V30 4669 H 455.669 0.365738 4.59848 0
M  V30 4670 H 453.912 0.413077 4.31829 0
M  V30 4671 H 454.583 -0.746398 5.4693 0
M  V30 4672 H 457.059 -1.70289 3.79659 0
M  V30 4673 H 455.935 -2.64424 4.81011 0
M  V30 4674 H 456.196 -3.11433 3.13787 0
M  V30 4675 N 455.255 -1.55392 -0.262866 0
M  V30 4676 C 456.185 -1.91978 -1.32917 0
M  V30 4677 C 457.166 -0.7828 -1.51017 0
M  V30 4678 O 458.351 -1.04178 -1.63892 0
M  V30 4679 C 455.481 -2.20055 -2.68687 0
M  V30 4680 C 454.435 -3.35854 -2.65304 0
M  V30 4681 C 453.761 -3.49435 -4.04721 0
M  V30 4682 C 455.061 -4.71977 -2.23685 0
M  V30 4683 H 456.755 -2.81292 -1.02544 0
M  V30 4684 H 454.301 -1.3534 -0.491846 0
M  V30 4685 H 456.254 -2.44237 -3.43404 0
M  V30 4686 H 454.978 -1.27551 -3.00663 0
M  V30 4687 H 453.637 -3.11655 -1.93045 0
M  V30 4688 H 453.285 -2.54379 -4.33936 0
M  V30 4689 H 452.985 -4.27297 -4.0335 0
M  V30 4690 H 454.509 -3.7592 -4.81161 0
M  V30 4691 H 455.923 -4.95637 -2.88127 0
M  V30 4692 H 454.32 -5.52828 -2.33456 0
M  V30 4693 H 455.39 -4.70115 -1.18827 0
M  V30 4694 N 456.733 0.527833 -1.48498 0
M  V30 4695 C 457.683 1.62844 -1.5958 0
M  V30 4696 C 458.667 1.54397 -0.452809 0
M  V30 4697 O 459.859 1.62381 -0.704364 0
M  V30 4698 C 456.988 3.01557 -1.64067 0
M  V30 4699 C 456.074 3.151 -2.83853 0
M  V30 4700 N 456.465 2.9861 -4.08247 0
M  V30 4701 C 454.763 3.46158 -2.8123 0
M  V30 4702 C 455.464 3.15626 -4.88626 0
M  V30 4703 N 454.44 3.43298 -4.21483 0
M  V30 4704 H 458.242 1.48708 -2.53502 0
M  V30 4705 H 455.756 0.733343 -1.44899 0
M  V30 4706 H 457.753 3.8062 -1.70101 0
M  V30 4707 H 456.413 3.16783 -0.712636 0
M  V30 4708 H 457.424 2.75329 -4.3865 0
M  V30 4709 H 454.101 3.67728 -1.97692 0
M  V30 4710 H 455.491 3.07596 -5.97356 0
M  V30 4711 N 458.211 1.37122 0.776871 0
M  V30 4712 C 459.143 1.28342 1.89897 0
M  V30 4713 C 460.156 0.200277 1.61563 0
M  V30 4714 O 461.345 0.456012 1.72577 0
M  V30 4715 C 458.445 0.960427 3.25006 0
M  V30 4716 C 457.618 2.148 3.81025 0
M  V30 4717 C 456.677 1.79608 4.94598 0
M  V30 4718 O 455.703 2.51845 5.10454 0
M  V30 4719 N 456.905 0.737171 5.758 0
M  V30 4720 H 459.67 2.25027 1.97947 0
M  V30 4721 H 457.231 1.3068 0.955739 0
M  V30 4722 H 459.223 0.705942 3.98495 0
M  V30 4723 H 457.793 0.0823066 3.12492 0
M  V30 4724 H 457.013 2.56454 2.99374 0
M  V30 4725 H 458.301 2.9411 4.15183 0
M  V30 4726 H 457.699 0.137637 5.65533 0
M  V30 4727 H 456.256 0.542534 6.49538 0
M  V30 4728 N 459.689 -1.00246 1.21608 0
M  V30 4729 C 460.966 -1.71336 0.943568 0
M  V30 4730 C 461.346 -2.03972 -0.543943 0
M  V30 4731 O 460.694 -1.71545 -1.50946 0
M  V30 4732 C 460.904 -2.97094 1.83128 0
M  V30 4733 C 462.252 -3.70071 2.08165 0
M  V30 4734 O 463.276 -3.07081 1.80498 0
M  V30 4735 O 462.135 -4.83376 2.54971 0
M  V30 4736 H 459.229 -0.747386 0.354039 0
M  V30 4737 H 461.775 -1.05967 1.32549 0
M  V30 4738 H 460.547 -2.69407 2.83788 0
M  V30 4739 H 460.17 -3.70204 1.45034 0
M  V30 4740 N 461.167 -1.02423 -1.1978 0
M  V30 4741 C 462.413 -0.72878 -1.89896 0
M  V30 4742 C 462.768 0.734248 -1.77839 0
M  V30 4743 O 462.061 1.52733 -1.15685 0
M  V30 4744 C 462.255 -1.1088 -3.39765 0
M  V30 4745 C 462.084 -2.60722 -3.66407 0
M  V30 4746 C 460.854 -3.27623 -3.84696 0
M  V30 4747 C 463.052 -3.58924 -3.68345 0
M  V30 4748 N 461.034 -4.66617 -3.98926 0
M  V30 4749 C 462.405 -4.83514 -3.8809 0
M  V30 4750 C 464.46 -3.52788 -3.51347 0
M  V30 4751 C 463.163 -6.0271 -3.92598 0
M  V30 4752 C 465.189 -4.71394 -3.5713 0
M  V30 4753 C 464.551 -5.94796 -3.77356 0
M  V30 4754 H 460.65 -0.318473 -0.714212 0
M  V30 4755 H 463.234 -1.3106 -1.43984 0
M  V30 4756 H 461.405 -0.555233 -3.84411 0
M  V30 4757 H 463.137 -0.766082 -3.97383 0
M  V30 4758 H 459.892 -2.7804 -3.83393 0
M  V30 4759 H 460.316 -5.38805 -4.099 0
M  V30 4760 H 464.958 -2.58372 -3.3467 0
M  V30 4761 H 462.676 -6.97499 -4.08069 0
M  V30 4762 H 466.262 -4.6827 -3.45275 0
M  V30 4763 H 465.142 -6.85037 -3.81699 0
M  V30 4764 N 462.645 1.35699 -0.801477 0
M  V30 4765 C 463.575 2.32436 -0.222658 0
M  V30 4766 C 464.556 1.5723 0.649057 0
M  V30 4767 O 465.741 1.85324 0.580387 0
M  V30 4768 C 462.871 3.41469 0.633719 0
M  V30 4769 C 461.825 4.27774 -0.139083 0
M  V30 4770 C 461.151 5.28082 0.838666 0
M  V30 4771 C 462.451 5.04946 -1.33517 0
M  V30 4772 H 464.145 2.81094 -1.03086 0
M  V30 4773 H 461.691 1.35146 -0.497155 0
M  V30 4774 H 463.644 4.08143 1.04868 0
M  V30 4775 H 462.368 2.91408 1.47475 0
M  V30 4776 H 461.027 3.62673 -0.535156 0
M  V30 4777 H 460.675 4.7429 1.67506 0
M  V30 4778 H 460.375 5.86695 0.32594 0
M  V30 4779 H 461.899 5.97628 1.25194 0
M  V30 4780 H 463.313 5.64593 -0.995349 0
M  V30 4781 H 461.71 5.7303 -1.78202 0
M  V30 4782 H 462.78 4.35886 -2.12442 0
M  V30 4783 N 464.123 0.554532 1.47522 0
M  V30 4784 C 465.071 -0.207765 2.3167 0
M  V30 4785 C 466.065 -0.911914 1.4276 0
M  V30 4786 O 467.271 -0.833504 1.59539 0
M  V30 4787 H 463.646 -0.0858726 0.747081 0
M  V30 4788 H 465.617 0.521178 2.93813 0
M  V30 4789 C 464.366 -1.2263 3.25357 0
M  V30 4790 H 463.689 -0.693887 3.93732 0
M  V30 4791 H 465.129 -1.73062 3.87073 0
M  V30 4792 C 463.588 -2.27278 2.4869 0
M  V30 4793 O 464.118 -3.34156 2.22941 0
M  V30 4794 N 462.324 -2.01134 2.09746 0
M  V30 4795 H 461.871 -1.14232 2.30887 0
M  V30 4796 H 461.829 -2.71369 1.58765 0
M  V30 4797 N 465.601 -1.54893 0.290851 0
M  V30 4798 C 466.849 -1.99538 -0.320756 0
M  V30 4799 C 467.17 -1.18075 -1.55188 0
M  V30 4800 O 466.44 -0.274162 -1.93972 0
M  V30 4801 H 465.02 -0.737052 -0.121507 0
M  V30 4802 H 467.682 -1.90755 0.399832 0
M  V30 4803 H 466.778 -3.06282 -0.599802 0
M  V30 4804 N 467.08 -0.0183926 -1.57589 0
M  V30 4805 C 468.027 0.967022 -2.09565 0
M  V30 4806 C 468.997 1.32983 -0.995225 0
M  V30 4807 O 470.182 1.42501 -1.26878 0
M  V30 4808 C 467.322 2.24772 -2.61861 0
M  V30 4809 C 466.435 1.94232 -3.85873 0
M  V30 4810 C 465.57 3.16518 -4.26603 0
M  V30 4811 C 464.609 2.81748 -5.43401 0
M  V30 4812 N 463.746 3.96626 -5.79338 0
M  V30 4813 H 468.586 0.516874 -2.93483 0
M  V30 4814 H 466.123 0.243544 -1.4507 0
M  V30 4815 H 468.081 2.99667 -2.90268 0
M  V30 4816 H 466.711 2.67423 -1.8079 0
M  V30 4817 H 465.763 1.09625 -3.64262 0
M  V30 4818 H 467.075 1.64616 -4.70853 0
M  V30 4819 H 466.229 3.99743 -4.56389 0
M  V30 4820 H 464.968 3.49286 -3.40368 0
M  V30 4821 H 463.973 1.96933 -5.1332 0
M  V30 4822 H 465.198 2.50207 -6.31327 0
M  V30 4823 H 463.144 4.29257 -4.96059 0
M  V30 4824 H 463.061 3.70598 -6.58933 0
M  V30 4825 H 464.329 4.80586 -6.13724 0
M  V30 4826 N 468.558 1.5553 0.254621 0
M  V30 4827 C 469.468 1.92789 1.33677 0
M  V30 4828 C 470.484 0.827356 1.53071 0
M  V30 4829 O 471.66 1.12807 1.66843 0
M  V30 4830 C 468.725 2.20827 2.67275 0
M  V30 4831 C 467.786 3.4427 2.5647 0
M  V30 4832 C 467.019 3.70961 3.83697 0
M  V30 4833 O 467.242 2.99852 4.85227 0
M  V30 4834 O 466.176 4.64491 3.82794 0
M  V30 4835 H 470.002 2.84945 1.05071 0
M  V30 4836 H 467.587 1.42312 0.454723 0
M  V30 4837 H 469.469 2.40204 3.46237 0
M  V30 4838 H 468.144 1.31851 2.9563 0
M  V30 4839 H 467.051 3.30209 1.75821 0
M  V30 4840 H 468.384 4.33524 2.33062 0
M  V30 4841 N 470.036 -0.519951 1.48776 0
M  V30 4842 C 471.266 -1.29783 1.60748 0
M  V30 4843 C 471.674 -1.87253 0.27072 0
M  V30 4844 O 471.017 -1.67628 -0.751438 0
M  V30 4845 C 471.079 -2.47984 2.60277 0
M  V30 4846 C 470.743 -2.11526 4.051 0
M  V30 4847 C 471.74 -1.66608 4.92481 0
M  V30 4848 C 469.425 -2.21742 4.50706 0
M  V30 4849 C 471.419 -1.32384 6.23501 0
M  V30 4850 C 469.106 -1.87129 5.81744 0
M  V30 4851 C 470.104 -1.42523 6.67964 0
M  V30 4852 O 469.792 -1.0837 7.96562 0
M  V30 4853 H 469.524 -0.400562 0.544542 0
M  V30 4854 H 472.078 -0.632879 1.95407 0
M  V30 4855 H 470.308 -3.17493 2.2076 0
M  V30 4856 H 471.997 -3.10036 2.61978 0
M  V30 4857 H 472.763 -1.58178 4.58481 0
M  V30 4858 H 468.642 -2.55415 3.83776 0
M  V30 4859 H 472.186 -0.974949 6.90754 0
M  V30 4860 H 468.083 -1.95204 6.15277 0
M  V30 4861 H 468.851 -1.21681 8.09405 0
M  V30 4862 N 471.514 -1.37532 -0.769588 0
M  V30 4863 C 472.461 -1.3347 -1.88293 0
M  V30 4864 C 473.431 -0.199891 -1.64893 0
M  V30 4865 O 474.616 -0.389594 -1.8678 0
M  V30 4866 C 471.756 -1.14968 -3.25387 0
M  V30 4867 C 470.869 -2.37698 -3.60727 0
M  V30 4868 C 470.004 -2.12051 -4.8704 0
M  V30 4869 C 469.043 -3.30636 -5.15117 0
M  V30 4870 N 468.18 -3.04527 -6.3262 0
M  V30 4871 H 473.02 -2.28658 -1.911 0
M  V30 4872 H 470.557 -1.13622 -0.934257 0
M  V30 4873 H 472.515 -1.02261 -4.04473 0
M  V30 4874 H 471.145 -0.234263 -3.21949 0
M  V30 4875 H 470.197 -2.61137 -2.76608 0
M  V30 4876 H 471.509 -3.26131 -3.77413 0
M  V30 4877 H 470.663 -1.96388 -5.74035 0
M  V30 4878 H 469.402 -1.20959 -4.72462 0
M  V30 4879 H 468.407 -3.46836 -4.26597 0
M  V30 4880 H 469.632 -4.22582 -5.31603 0
M  V30 4881 H 467.578 -2.16067 -6.19396 0
M  V30 4882 H 467.495 -3.86503 -6.49732 0
M  V30 4883 H 468.763 -2.92485 -7.22546 0
M  V30 4884 N 472.992 0.995999 -1.22138 0
M  V30 4885 C 474.232 1.75032 -1.05561 0
M  V30 4886 C 474.596 1.87729 0.402698 0
M  V30 4887 O 475.797 2.59813 0.689234 0
M  V30 4888 C 474.068 3.11973 -1.74379 0
M  V30 4889 S 475.627 4.03182 -1.73175 0
M  V30 4890 H 472.445 0.602137 -0.37809 0
M  V30 4891 H 475.047 1.19107 -1.55028 0
M  V30 4892 H 473.751 3.00371 -2.79652 0
M  V30 4893 H 473.282 3.7297 -1.25128 0
M  V30 4894 H 475.297 4.90043 -0.77923 0
M  V30 4895 N 474.47 1.03057 1.19235 0
M  V30 4896 C 475.417 0.612832 2.22515 0
M  V30 4897 C 476.387 -0.374224 1.61829 0
M  V30 4898 O 477.572 -0.270501 1.88873 0
M  V30 4899 C 474.712 -0.028475 3.45088 0
M  V30 4900 C 473.825 1.00483 4.20151 0
M  V30 4901 C 472.96 0.333102 5.30155 0
M  V30 4902 C 471.999 1.3522 5.96977 0
M  V30 4903 N 471.136 0.70616 6.9854 0
M  V30 4904 H 475.976 1.49812 2.57605 0
M  V30 4905 H 473.513 0.749658 1.26564 0
M  V30 4906 H 475.471 -0.417548 4.15105 0
M  V30 4907 H 474.101 -0.877334 3.10649 0
M  V30 4908 H 473.153 1.51194 3.49062 0
M  V30 4909 H 474.465 1.77929 4.65986 0
M  V30 4910 H 473.619 -0.110725 6.06599 0
M  V30 4911 H 472.358 -0.473547 4.85396 0
M  V30 4912 H 471.363 1.80627 5.19282 0
M  V30 4913 H 472.588 2.16037 6.4382 0
M  V30 4914 H 470.534 -0.0803667 6.55951 0
M  V30 4915 H 470.451 1.41848 7.42573 0
M  V30 4916 H 471.719 0.286391 7.78974 0
M  V30 4917 N 475.948 -1.35272 0.808662 0
M  V30 4918 C 477.194 -1.99003 0.390581 0
M  V30 4919 C 477.527 -1.63999 -1.0401 0
M  V30 4920 O 476.802 -0.904368 -1.72196 0
M  V30 4921 C 477.085 -3.55454 0.576566 0
M  V30 4922 C 476.938 -4.00249 2.05233 0
M  V30 4923 C 478.257 -4.401 0.00354277 0
M  V30 4924 H 475.376 -0.722917 0.143388 0
M  V30 4925 H 478.018 -1.6039 1.01858 0
M  V30 4926 H 476.168 -3.88477 0.0419766 0
M  V30 4927 H 477.84 -3.77626 2.64946 0
M  V30 4928 H 476.083 -3.51082 2.54801 0
M  V30 4929 H 476.754 -5.0911 2.13333 0
M  V30 4930 H 479.23 -4.13548 0.460117 0
M  V30 4931 H 478.106 -5.48656 0.163575 0
M  V30 4932 H 478.367 -4.28444 -1.09032 0
M  V30 4933 N 477.426 -0.562348 -1.47226 0
M  V30 4934 C 478.651 -0.0432632 -2.07355 0
M  V30 4935 C 479.076 1.24332 -1.41149 0
M  V30 4936 O 478.434 1.74603 -0.488226 0
M  V30 4937 C 478.482 0.130288 -3.60365 0
M  V30 4938 O 477.586 1.19166 -3.94808 0
M  V30 4939 H 476.927 -0.0536334 -0.66183 0
M  V30 4940 H 479.457 -0.779495 -1.89169 0
M  V30 4941 H 479.467 0.342881 -4.06557 0
M  V30 4942 H 478.142 -0.809389 -4.07948 0
M  V30 4943 H 476.719 0.959153 -3.60354 0
M  V30 4944 N 478.904 1.54736 -0.299062 0
M  V30 4945 C 479.852 2.24897 0.593658 0
M  V30 4946 C 480.846 1.25429 1.13859 0
M  V30 4947 O 482.052 1.43286 1.08945 0
M  V30 4948 H 478.427 0.72207 0.210046 0
M  V30 4949 H 480.398 2.98393 -0.0206421 0
M  V30 4950 C 479.147 3.00159 1.75499 0
M  V30 4951 H 478.47 3.76501 1.34489 0
M  V30 4952 H 479.91 3.52535 2.35574 0
M  V30 4953 C 478.369 2.07015 2.65794 0
M  V30 4954 O 478.899 1.63692 3.66835 0
M  V30 4955 N 477.105 1.73012 2.33485 0
M  V30 4956 H 476.652 2.08439 1.51364 0
M  V30 4957 H 476.61 1.10965 2.94167 0
M  V30 4958 N 480.382 0.0267497 1.57577 0
M  V30 4959 C 481.329 -0.955894 2.10075 0
M  V30 4960 C 482.299 -1.32453 1.00226 0
M  V30 4961 O 483.484 -1.41826 1.27632 0
M  V30 4962 C 480.624 -2.2338 2.6305 0
M  V30 4963 C 479.737 -1.92183 3.86898 0
M  V30 4964 C 478.872 -3.14251 4.28275 0
M  V30 4965 C 477.911 -2.78862 5.44888 0
M  V30 4966 N 477.048 -3.93548 5.81433 0
M  V30 4967 H 481.888 -0.501303 2.93753 0
M  V30 4968 H 479.425 -0.235847 1.45197 0
M  V30 4969 H 481.383 -2.98124 2.91853 0
M  V30 4970 H 480.013 -2.6646 1.82205 0
M  V30 4971 H 479.065 -1.07692 3.64838 0
M  V30 4972 H 480.377 -1.62117 4.7172 0
M  V30 4973 H 479.531 -3.97317 4.58502 0
M  V30 4974 H 478.27 -3.47476 3.42215 0
M  V30 4975 H 477.275 -1.94208 5.14357 0
M  V30 4976 H 478.5 -2.46855 6.32645 0
M  V30 4977 H 476.446 -4.2662 4.98328 0
M  V30 4978 H 476.363 -3.67098 6.6089 0
M  V30 4979 H 477.631 -4.77325 6.16264 0
M  V30 4980 N 481.861 -1.55662 -0.24637 0
M  V30 4981 C 483.109 -1.77168 -0.972411 0
M  V30 4982 C 483.43 -0.590827 -1.85834 0
M  V30 4983 O 482.7 0.393365 -1.9191 0
M  V30 4984 H 481.28 -0.653405 -0.362038 0
M  V30 4985 H 483.942 -1.93101 -0.264189 0
M  V30 4986 H 483.038 -2.68335 -1.59382 0
M  V30 4987 N 483.339 0.512053 -1.4905 0
M  V30 4988 C 484.269 1.62365 -1.67809 0
M  V30 4989 C 485.25 1.61737 -0.526809 0
M  V30 4990 O 486.435 1.78651 -0.761404 0
M  V30 4991 C 483.565 3.00895 -1.73435 0
M  V30 4992 C 482.519 3.16387 -2.88242 0
M  V30 4993 C 481.845 4.56157 -2.78971 0
M  V30 4994 C 483.145 2.97457 -4.29321 0
M  V30 4995 H 484.839 1.46921 -2.60873 0
M  V30 4996 H 482.385 0.705379 -1.2554 0
M  V30 4997 H 484.338 3.78549 -1.85145 0
M  V30 4998 H 483.062 3.17403 -0.769619 0
M  V30 4999 H 481.721 2.41155 -2.76116 0
M  V30 5000 H 481.369 4.69525 -1.8043 0
M  V30 5001 H 481.069 4.67465 -3.5602 0
M  V30 5002 H 482.593 5.35886 -2.92675 0
M  V30 5003 H 484.007 3.64888 -4.42187 0
M  V30 5004 H 482.404 3.20245 -5.07507 0
M  V30 5005 H 483.474 1.93692 -4.44535 0
M  V30 5006 N 484.817 1.37938 0.762283 0
M  V30 5007 C 486.228 1.30094 1.33912 0
M  V30 5008 C 486.579 -0.0472026 1.96143 0
M  V30 5009 O 485.704 -0.94917 1.94473 0
M  V30 5010 C 486.299 2.35592 2.43478 0
M  V30 5011 C 484.858 2.31353 2.96905 0
M  V30 5012 C 484.005 2.18919 1.70205 0
M  V30 5013 H 486.956 1.48423 0.561816 0
M  V30 5014 H 486.977 2.00806 3.23199 0
M  V30 5015 H 486.489 3.33701 1.98155 0
M  V30 5016 H 484.59 1.36799 3.46579 0
M  V30 5017 H 484.703 3.25147 3.51875 0
M  V30 5018 H 483.067 1.65624 1.93496 0
M  V30 5019 H 483.85 3.18956 1.26973 0
M  V30 5020 N 486.295 -0.989507 1.22664 0
M  V30 5021 C 487.52 -1.77031 1.08051 0
M  V30 5022 C 487.945 -1.84535 -0.364483 0
M  V30 5023 O 487.303 -1.3003 -1.2634 0
M  V30 5024 C 487.351 -3.18 1.70024 0
M  V30 5025 O 486.455 -4.01161 0.956216 0
M  V30 5026 H 485.796 -0.545008 0.379292 0
M  V30 5027 H 488.326 -1.24277 1.62531 0
M  V30 5028 H 488.336 -3.68616 1.74888 0
M  V30 5029 H 487.011 -3.11853 2.75174 0
M  V30 5030 H 485.588 -3.59687 0.98384 0
M  V30 5031 N 487.773 -1.03688 -1.18687 0
M  V30 5032 C 488.998 -0.757819 -1.93059 0
M  V30 5033 C 489.423 0.678353 -1.75442 0
M  V30 5034 O 488.781 1.46938 -1.06203 0
M  V30 5035 C 488.829 -1.12423 -3.42627 0
M  V30 5036 O 487.933 -0.247505 -4.11657 0
M  V30 5037 H 487.274 -0.279245 -0.602427 0
M  V30 5038 H 489.804 -1.3857 -1.5053 0
M  V30 5039 H 489.814 -1.08454 -3.93322 0
M  V30 5040 H 488.489 -2.17049 -3.54771 0
M  V30 5041 H 487.066 -0.34649 -3.71287 0
M  V30 5042 N 489.251 1.34841 -0.815825 0
M  V30 5043 C 490.5 1.97755 -0.396976 0
M  V30 5044 C 490.813 1.65422 1.04379 0
M  V30 5045 O 492.019 2.21771 1.5662 0
M  V30 5046 C 490.475 3.53818 -0.658869 0
M  V30 5047 C 490.083 3.95051 -2.11278 0
M  V30 5048 C 491.827 4.23397 -0.305834 0
M  V30 5049 C 489.734 5.43997 -2.31994 0
M  V30 5050 H 488.664 0.739985 -0.1447 0
M  V30 5051 H 491.315 1.53781 -1.00118 0
M  V30 5052 H 489.697 3.95997 0.0154112 0
M  V30 5053 H 490.871 3.63998 -2.82564 0
M  V30 5054 H 489.186 3.38388 -2.42657 0
M  V30 5055 H 491.783 5.32899 -0.43854 0
M  V30 5056 H 492.126 4.09508 0.748952 0
M  V30 5057 H 492.659 3.8667 -0.934403 0
M  V30 5058 H 489.398 5.62865 -3.35952 0
M  V30 5059 H 488.918 5.76589 -1.65244 0
M  V30 5060 H 490.597 6.10584 -2.14001 0
M  V30 5061 N 490.729 0.570148 1.46925 0
M  V30 5062 C 491.639 -0.173061 2.33961 0
M  V30 5063 C 492.655 -0.898825 1.48987 0
M  V30 5064 O 493.831 -0.864825 1.81887 0
M  V30 5065 C 490.896 -1.18177 3.25937 0
M  V30 5066 C 489.957 -0.462041 4.26806 0
M  V30 5067 C 489.19 -1.4227 5.14388 0
M  V30 5068 O 489.413 -2.65842 5.04662 0
M  V30 5069 O 488.347 -0.940127 5.94513 0
M  V30 5070 H 492.173 0.541216 2.98839 0
M  V30 5071 H 489.758 0.330647 1.45695 0
M  V30 5072 H 491.64 -1.76372 3.82715 0
M  V30 5073 H 490.315 -1.87774 2.63671 0
M  V30 5074 H 489.222 0.161429 3.73752 0
M  V30 5075 H 490.555 0.192719 4.91823 0
M  V30 5076 N 492.207 -1.54576 0.307264 0
M  V30 5077 C 493.154 -2.23751 -0.56604 0
M  V30 5078 C 494.124 -1.22235 -1.12462 0
M  V30 5079 O 495.309 -1.50873 -1.16799 0
M  V30 5080 C 492.449 -2.98661 -1.72903 0
M  V30 5081 C 491.562 -4.14963 -1.20124 0
M  V30 5082 C 490.697 -4.77441 -2.3286 0
M  V30 5083 C 489.736 -5.85875 -1.77247 0
M  V30 5084 N 488.873 -6.42282 -2.8358 0
M  V30 5085 H 493.713 -2.97984 0.0304578 0
M  V30 5086 H 491.25 -1.47076 0.0268015 0
M  V30 5087 H 493.208 -3.40329 -2.41313 0
M  V30 5088 H 491.838 -2.26793 -2.29706 0
M  V30 5089 H 490.89 -3.78193 -0.409198 0
M  V30 5090 H 492.202 -4.93066 -0.754171 0
M  V30 5091 H 491.356 -5.21993 -3.09205 0
M  V30 5092 H 490.095 -3.98684 -2.80896 0
M  V30 5093 H 489.1 -5.40741 -0.993926 0
M  V30 5094 H 490.325 -6.6652 -1.30107 0
M  V30 5095 H 488.271 -5.66406 -3.30939 0
M  V30 5096 H 488.188 -7.1575 -2.43388 0
M  V30 5097 H 489.456 -6.91492 -3.59804 0
M  V30 5098 N 493.685 -0.035106 -1.57561 0
M  V30 5099 C 494.913 0.652258 -1.9635 0
M  V30 5100 C 495.328 1.65317 -0.911897 0
M  V30 5101 O 494.685 1.82194 0.105657 0
M  V30 5102 C 494.736 1.35337 -3.35211 0
M  V30 5103 O 494.457 0.392548 -4.36338 0
M  V30 5104 C 495.958 2.13199 -3.88666 0
M  V30 5105 H 493.178 0.179444 -0.646561 0
M  V30 5106 H 495.722 -0.0966459 -2.04271 0
M  V30 5107 H 493.877 2.05362 -3.28489 0
M  V30 5108 H 494.291 0.891097 -5.16875 0
M  V30 5109 H 495.765 2.577 -4.88154 0
M  V30 5110 H 496.242 2.97353 -3.23231 0
M  V30 5111 H 496.848 1.48118 -3.98674 0
M  V30 5112 N 495.163 1.55791 0.238111 0
M  V30 5113 C 496.412 1.77234 0.962868 0
M  V30 5114 C 496.725 0.600661 1.86149 0
M  V30 5115 O 497.931 0.698315 2.62366 0
M  V30 5116 C 496.387 3.13808 1.76218 0
M  V30 5117 C 495.995 4.3865 0.910518 0
M  V30 5118 C 497.739 3.44585 2.47914 0
M  V30 5119 C 495.646 5.66252 1.70623 0
M  V30 5120 H 494.576 0.660731 0.36325 0
M  V30 5121 H 497.227 1.8221 0.217242 0
M  V30 5122 H 495.609 3.02963 2.55009 0
M  V30 5123 H 496.783 4.60507 0.164316 0
M  V30 5124 H 495.098 4.15271 0.30647 0
M  V30 5125 H 497.695 4.3714 3.07917 0
M  V30 5126 H 498.038 2.66314 3.19973 0
M  V30 5127 H 498.571 3.56685 1.76127 0
M  V30 5128 H 495.31 6.47369 1.02923 0
M  V30 5129 H 494.83 5.48483 2.42748 0
M  V30 5130 H 496.509 6.05829 2.27114 0
M  V30 5131 N 496.642 -0.504142 1.49319 0
M  V30 5132 C 497.867 -1.28729 1.62615 0
M  V30 5133 C 498.292 -1.85752 0.296309 0
M  V30 5134 O 497.65 -1.65704 -0.735649 0
M  V30 5135 C 497.698 -2.39561 2.69524 0
M  V30 5136 O 496.802 -3.43324 2.28478 0
M  V30 5137 H 496.143 -0.380172 0.544395 0
M  V30 5138 H 498.673 -0.603872 1.95485 0
M  V30 5139 H 498.683 -2.8537 2.91595 0
M  V30 5140 H 497.358 -1.97423 3.66056 0
M  V30 5141 H 495.935 -3.03455 2.16725 0
M  V30 5142 N 498.12 -1.38341 -0.754957 0
M  V30 5143 C 499.067 -1.3546 -1.86867 0
M  V30 5144 C 500.037 -0.217369 -1.64672 0
M  V30 5145 O 501.222 -0.409383 -1.86356 0
M  V30 5146 C 498.362 -1.18413 -3.24149 0
M  V30 5147 C 497.475 -2.41511 -3.58185 0
M  V30 5148 C 496.61 -2.17205 -4.84763 0
M  V30 5149 C 495.649 -3.36081 -5.11582 0
M  V30 5150 N 494.786 -3.11219 -6.29354 0
M  V30 5151 H 499.626 -2.30672 -1.88664 0
M  V30 5152 H 497.163 -1.14607 -0.922154 0
M  V30 5153 H 499.121 -1.06545 -4.03366 0
M  V30 5154 H 497.751 -0.268397 -3.21682 0
M  V30 5155 H 496.803 -2.64056 -2.73822 0
M  V30 5156 H 498.115 -3.30115 -3.73932 0
M  V30 5157 H 497.269 -2.02465 -5.7192 0
M  V30 5158 H 496.008 -1.25964 -4.71152 0
M  V30 5159 H 495.013 -3.51341 -4.22894 0
M  V30 5160 H 496.238 -4.28196 -5.27091 0
M  V30 5161 H 494.184 -2.22624 -6.17069 0
M  V30 5162 H 494.101 -3.93373 -6.45596 0
M  V30 5163 H 495.369 -3.00132 -7.19403 0
M  V30 5164 N 499.598 0.982988 -1.23187 0
M  V30 5165 C 500.561 2.05649 -1.01198 0
M  V30 5166 C 501.561 1.6078 0.0252464 0
M  V30 5167 O 502.751 1.72878 -0.214243 0
M  V30 5168 C 499.883 3.36744 -0.530656 0
M  V30 5169 H 501.076 2.2659 -1.96461 0
M  V30 5170 H 498.629 1.15602 -1.05195 0
M  V30 5171 H 499.364 3.21492 0.425873 0
M  V30 5172 H 499.149 3.7065 -1.2791 0
M  V30 5173 H 500.639 4.15705 -0.397366 0
M  V30 5174 N 501.076 1.04316 1.18135 0
M  V30 5175 C 502.023 0.636398 2.21853 0
M  V30 5176 C 502.993 -0.357039 1.62217 0
M  V30 5177 O 504.178 -0.250453 1.89149 0
M  V30 5178 C 501.318 0.00812779 3.45099 0
M  V30 5179 C 500.431 1.04933 4.19062 0
M  V30 5180 C 499.566 0.389313 5.29771 0
M  V30 5181 C 498.605 1.41544 5.9551 0
M  V30 5182 N 497.742 0.78021 6.97751 0
M  V30 5183 H 502.582 1.52536 2.56002 0
M  V30 5184 H 500.119 0.76304 1.25762 0
M  V30 5185 H 502.077 -0.373497 4.15525 0
M  V30 5186 H 500.707 -0.844336 3.11562 0
M  V30 5187 H 499.759 1.54888 3.47439 0
M  V30 5188 H 501.071 1.82862 4.64072 0
M  V30 5189 H 500.225 -0.0463805 6.06682 0
M  V30 5190 H 498.964 -0.422038 4.8587 0
M  V30 5191 H 497.969 1.86124 5.17337 0
M  V30 5192 H 499.194 2.22854 6.41493 0
M  V30 5193 H 497.14 -0.0107899 6.55999 0
M  V30 5194 H 497.057 1.49716 7.41027 0
M  V30 5195 H 498.325 0.368996 7.78626 0
M  V30 5196 N 502.554 -1.34406 0.822964 0
M  V30 5197 C 503.802 -1.97892 0.410245 0
M  V30 5198 C 504.123 -1.65567 -1.03017 0
M  V30 5199 O 503.393 -0.94642 -1.71522 0
M  V30 5200 H 501.973 -0.732049 0.148707 0
M  V30 5201 H 504.635 -1.64043 1.05242 0
M  V30 5202 H 503.731 -3.07579 0.529284 0
M  V30 5203 N 504.032 -0.577932 -1.46621 0
M  V30 5204 C 504.964 0.195801 -2.28362 0
M  V30 5205 C 505.977 0.859983 -1.38232 0
M  V30 5206 O 507.166 0.730349 -1.62875 0
M  V30 5207 C 504.266 1.29639 -3.13124 0
M  V30 5208 C 503.439 0.725049 -4.31349 0
M  V30 5209 C 502.498 1.71274 -4.97546 0
M  V30 5210 O 501.524 1.25067 -5.5529 0
M  V30 5211 N 502.726 3.04672 -4.94121 0
M  V30 5212 H 505.491 -0.505468 -2.95407 0
M  V30 5213 H 503.052 -0.415381 -1.56481 0
M  V30 5214 H 505.044 1.95631 -3.54275 0
M  V30 5215 H 503.614 1.90059 -2.48186 0
M  V30 5216 H 502.834 -0.112205 -3.9404 0
M  V30 5217 H 504.122 0.323034 -5.07774 0
M  V30 5218 H 503.52 3.4484 -4.48444 0
M  V30 5219 H 502.077 3.66166 -5.39227 0
M  V30 5220 N 505.51 1.54411 -0.315457 0
M  V30 5221 C 506.921 1.85885 0.174265 0
M  V30 5222 C 507.272 1.23723 1.52273 0
M  V30 5223 O 506.397 0.540246 2.09548 0
M  V30 5224 C 506.992 3.37257 0.322981 0
M  V30 5225 C 505.551 3.68711 0.756922 0
M  V30 5226 C 504.698 2.77013 -0.126195 0
M  V30 5227 H 507.649 1.49374 -0.536007 0
M  V30 5228 H 507.67 3.62539 1.15522 0
M  V30 5229 H 507.182 3.82471 -0.658602 0
M  V30 5230 H 505.283 3.29024 1.74854 0
M  V30 5231 H 505.396 4.75741 0.566291 0
M  V30 5232 H 503.76 2.51588 0.39692 0
M  V30 5233 H 504.543 3.25051 -1.1044 0
M  V30 5234 N 506.988 0.0434614 1.5754 0
M  V30 5235 C 508.404 -0.313039 1.565 0
M  V30 5236 C 508.604 -1.71954 1.05043 0
M  V30 5237 O 507.66 -2.425 0.703564 0
M  V30 5238 C 508.973 -0.148544 3.00333 0
M  V30 5239 C 510.521 -0.220231 3.12224 0
M  V30 5240 C 510.996 -0.0843565 4.57922 0
M  V30 5241 N 512.487 -0.140881 4.62986 0
M  V30 5242 C 513.222 -0.0597443 5.73369 0
M  V30 5243 N 512.718 0.0733004 6.92761 0
M  V30 5244 N 514.511 -0.11477 5.61983 0
M  V30 5245 H 506.662 0.96303 1.89313 0
M  V30 5246 H 508.925 0.373164 0.871466 0
M  V30 5247 H 508.631 0.820894 3.41986 0
M  V30 5248 H 508.505 -0.912798 3.65989 0
M  V30 5249 H 510.892 -1.18014 2.70475 0
M  V30 5250 H 510.973 0.574646 2.49262 0
M  V30 5251 H 510.617 0.872192 5.00355 0
M  V30 5252 H 510.547 -0.898281 5.18882 0
M  V30 5253 H 513.038 -0.243273 3.77116 0
M  V30 5254 H 513.351 0.128128 7.72694 0
M  V30 5255 H 511.696 0.10828 6.94916 0
M  V30 5256 H 514.887 -0.217212 4.67596 0
M  V30 5257 H 515.06 -0.0480779 6.47982 0
M  V30 5258 N 508.466 -1.55915 -0.229846 0
M  V30 5259 C 509.376 -1.94891 -1.30593 0
M  V30 5260 C 510.392 -0.851604 -1.51736 0
M  V30 5261 O 511.568 -1.15447 -1.65027 0
M  V30 5262 C 508.633 -2.25052 -2.63728 0
M  V30 5263 C 507.694 -3.48306 -2.5096 0
M  V30 5264 C 506.927 -3.77019 -3.77747 0
M  V30 5265 O 507.15 -3.07534 -4.80395 0
M  V30 5266 O 506.084 -4.70523 -3.75356 0
M  V30 5267 H 509.91 -2.86581 -1.00525 0
M  V30 5268 H 507.495 -1.43017 -0.432025 0
M  V30 5269 H 509.377 -2.45682 -3.42372 0
M  V30 5270 H 508.052 -1.36538 -2.93495 0
M  V30 5271 H 506.959 -3.32964 -1.70546 0
M  V30 5272 H 508.292 -4.37177 -2.26136 0
M  V30 5273 N 509.944 0.496216 -1.49584 0
M  V30 5274 C 511.355 1.07765 -1.52459 0
M  V30 5275 C 511.706 1.93679 -0.31353 0
M  V30 5276 O 510.831 2.08588 0.576186 0
M  V30 5277 C 511.426 1.96111 -2.76271 0
M  V30 5278 C 509.985 2.49409 -2.81908 0
M  V30 5279 C 509.132 1.27142 -2.46435 0
M  V30 5280 H 512.083 0.279914 -1.56212 0
M  V30 5281 H 512.104 2.80862 -2.56704 0
M  V30 5282 H 511.616 1.33555 -3.64396 0
M  V30 5283 H 509.717 3.1559 -1.98074 0
M  V30 5284 H 509.83 2.86234 -3.84196 0
M  V30 5285 H 508.194 1.59818 -1.98319 0
M  V30 5286 H 508.977 0.662866 -3.3684 0
M  V30 5287 N 511.423 1.38739 0.74761 0
M  V30 5288 C 512.355 1.32341 1.87132 0
M  V30 5289 C 513.368 0.234502 1.61102 0
M  V30 5290 O 514.557 0.492516 1.71571 0
M  V30 5291 C 511.657 1.02915 3.22896 0
M  V30 5292 C 510.83 2.22834 3.76383 0
M  V30 5293 C 509.889 1.90059 4.90677 0
M  V30 5294 O 508.915 2.62615 5.04997 0
M  V30 5295 N 510.117 0.859141 5.74107 0
M  V30 5296 H 512.882 2.29175 1.93129 0
M  V30 5297 H 510.443 1.32678 0.927805 0
M  V30 5298 H 512.435 0.79031 3.96908 0
M  V30 5299 H 511.005 0.148572 3.12247 0
M  V30 5300 H 510.225 2.62747 2.93867 0
M  V30 5301 H 511.513 3.02851 4.08851 0
M  V30 5302 H 510.911 0.257564 5.65113 0
M  V30 5303 H 509.468 0.680189 6.48241 0
M  V30 5304 N 512.901 -0.976442 1.23707 0
M  V30 5305 C 514.147 -1.72081 1.07312 0
M  V30 5306 C 514.48 -1.90275 -0.388476 0
M  V30 5307 O 513.755 -1.4579 -1.28746 0
M  V30 5308 C 514.038 -3.11675 1.80363 0
M  V30 5309 C 513.891 -3.01027 3.3422 0
M  V30 5310 C 515.21 -4.1117 1.5693 0
M  V30 5311 H 512.329 -0.624583 0.391236 0
M  V30 5312 H 514.971 -1.13649 1.52263 0
M  V30 5313 H 513.121 -3.61559 1.42153 0
M  V30 5314 H 514.793 -2.58637 3.81975 0
M  V30 5315 H 513.036 -2.3744 3.63049 0
M  V30 5316 H 513.707 -3.9988 3.80525 0
M  V30 5317 H 516.183 -3.7011 1.90151 0
M  V30 5318 H 515.059 -5.06928 2.10513 0
M  V30 5319 H 515.32 -4.392 0.505548 0
M  V30 5320 N 514.379 -1.04941 -1.1758 0
M  V30 5321 C 515.609 -0.777166 -1.91425 0
M  V30 5322 C 516.017 0.670647 -1.76915 0
M  V30 5323 O 515.36 1.46965 -1.10213 0
M  V30 5324 C 515.422 -1.07495 -3.43052 0
M  V30 5325 C 515.086 -2.51844 -3.81345 0
M  V30 5326 C 516.083 -3.50047 -3.844 0
M  V30 5327 C 513.768 -2.86787 -4.12382 0
M  V30 5328 C 515.762 -4.81239 -4.17957 0
M  V30 5329 C 513.449 -4.18182 -4.45608 0
M  V30 5330 C 514.447 -5.15219 -4.48373 0
M  V30 5331 O 514.135 -6.44258 -4.80819 0
M  V30 5332 H 513.867 -0.282209 -0.614275 0
M  V30 5333 H 516.421 -1.40258 -1.50056 0
M  V30 5334 H 514.651 -0.392437 -3.84704 0
M  V30 5335 H 516.34 -0.78912 -3.98155 0
M  V30 5336 H 517.106 -3.24391 -3.60548 0
M  V30 5337 H 512.985 -2.11922 -4.09402 0
M  V30 5338 H 516.529 -5.56974 -4.2003 0
M  V30 5339 H 512.426 -4.43602 -4.68922 0
M  V30 5340 H 513.194 -6.49041 -4.98686 0
M  V30 5341 N 515.857 1.33968 -0.830081 0
M  V30 5342 C 517.085 2.0228 -0.434773 0
M  V30 5343 C 517.5 1.62487 0.961419 0
M  V30 5344 O 516.857 0.833849 1.62337 0
M  V30 5345 C 516.908 3.5751 -0.535625 0
M  V30 5346 O 516.629 3.95864 -1.87679 0
M  V30 5347 C 518.13 4.43091 -0.136137 0
M  V30 5348 H 515.35 0.648151 -0.173613 0
M  V30 5349 H 517.894 1.71089 -1.12022 0
M  V30 5350 H 516.049 3.87266 0.101817 0
M  V30 5351 H 516.463 4.9056 -1.85609 0
M  V30 5352 H 517.937 5.51398 -0.257772 0
M  V30 5353 H 518.414 4.29433 0.921076 0
M  V30 5354 H 519.02 4.18677 -0.747662 0
M  V30 5355 N 517.335 0.585699 1.46312 0
M  V30 5356 C 518.265 -0.133556 2.33118 0
M  V30 5357 C 519.246 -0.880707 1.45525 0
M  V30 5358 O 520.431 -0.855579 1.74337 0
M  V30 5359 C 517.561 -1.14585 3.27853 0
M  V30 5360 C 516.515 -0.513341 4.2491 0
M  V30 5361 C 515.841 -1.63231 5.09175 0
M  V30 5362 C 517.141 0.551413 5.19381 0
M  V30 5363 H 518.835 0.59121 2.93505 0
M  V30 5364 H 516.381 0.285761 1.41136 0
M  V30 5365 H 518.334 -1.65741 3.87438 0
M  V30 5366 H 517.058 -1.90093 2.65579 0
M  V30 5367 H 515.717 -0.0228349 3.66593 0
M  V30 5368 H 515.365 -2.37713 4.43285 0
M  V30 5369 H 515.065 -1.21473 5.74907 0
M  V30 5370 H 516.589 -2.14658 5.71624 0
M  V30 5371 H 518.003 0.124804 5.73164 0
M  V30 5372 H 516.4 0.889486 5.93471 0
M  V30 5373 H 517.47 1.43655 4.63132 0
M  V30 5374 N 518.813 -1.54241 0.323641 0
M  V30 5375 C 520.224 -1.85975 -0.164405 0
M  V30 5376 C 520.575 -1.24529 -1.51615 0
M  V30 5377 O 519.7 -0.551351 -2.09258 0
M  V30 5378 C 520.295 -3.37424 -0.305091 0
M  V30 5379 C 518.854 -3.69107 -0.737358 0
M  V30 5380 C 518.001 -2.76942 0.140884 0
M  V30 5381 H 520.952 -1.49088 0.543922 0
M  V30 5382 H 520.973 -3.63147 -1.13598 0
M  V30 5383 H 520.485 -3.82116 0.678876 0
M  V30 5384 H 518.586 -3.29947 -1.73107 0
M  V30 5385 H 518.699 -4.76035 -0.541053 0
M  V30 5386 H 517.063 -2.51795 -0.383572 0
M  V30 5387 H 517.846 -3.24461 1.12162 0
M  V30 5388 N 520.291 -0.0518155 -1.57515 0
M  V30 5389 C 521.702 0.483787 -1.80323 0
M  V30 5390 C 522.053 1.70879 -0.964099 0
M  V30 5391 O 521.178 2.15643 -0.180872 0
M  V30 5392 C 521.773 0.884459 -3.27052 0
M  V30 5393 C 520.332 1.36504 -3.50776 0
M  V30 5394 C 519.479 0.340539 -2.75201 0
M  V30 5395 H 522.43 -0.277691 -1.56252 0
M  V30 5396 H 522.451 1.74733 -3.38007 0
M  V30 5397 H 521.963 -0.00731093 -3.88099 0
M  V30 5398 H 520.064 2.27598 -2.95009 0
M  V30 5399 H 520.177 1.35675 -4.59488 0
M  V30 5400 H 518.541 0.81356 -2.41357 0
M  V30 5401 H 519.324 -0.543156 -3.38976 0
M  V30 5402 N 521.769 1.56035 0.221574 0
M  V30 5403 C 522.994 1.83476 0.967026 0
M  V30 5404 C 523.419 0.632139 1.7716 0
M  V30 5405 O 522.777 -0.419082 1.7639 0
M  V30 5406 C 522.825 3.08907 1.86034 0
M  V30 5407 O 521.929 2.876 2.95567 0
M  V30 5408 H 521.27 0.604913 0.273817 0
M  V30 5409 H 523.8 2.03247 0.234893 0
M  V30 5410 H 523.81 3.3901 2.27016 0
M  V30 5411 H 522.485 3.96068 1.26898 0
M  V30 5412 H 521.062 2.6873 2.58532 0
M  V30 5413 N 523.247 -0.488276 1.49845 0
M  V30 5414 C 524.179 -1.60539 1.63584 0
M  V30 5415 C 525.192 -1.5434 0.517972 0
M  V30 5416 O 526.381 -1.60041 0.790516 0
M  V30 5417 C 523.481 -2.99374 1.58835 0
M  V30 5418 C 522.654 -3.30624 2.86368 0
M  V30 5419 C 521.713 -4.4893 2.74496 0
M  V30 5420 O 520.739 -4.50085 3.48443 0
M  V30 5421 N 521.941 -5.49591 1.86894 0
M  V30 5422 H 524.706 -1.49176 2.59936 0
M  V30 5423 H 522.267 -0.67639 1.47094 0
M  V30 5424 H 524.259 -3.76459 1.48529 0
M  V30 5425 H 522.829 -3.04595 0.702892 0
M  V30 5426 H 522.049 -2.42314 3.1093 0
M  V30 5427 H 523.337 -3.48305 3.70892 0
M  V30 5428 H 522.735 -5.51467 1.26097 0
M  V30 5429 H 521.292 -6.25728 1.82503 0
M  V30 5430 N 524.725 -1.39134 -0.740242 0
M  V30 5431 C 525.635 -1.39697 -1.88473 0
M  V30 5432 C 526.651 -0.292403 -1.71526 0
M  V30 5433 O 527.827 -0.533021 -1.94219 0
M  V30 5434 C 524.892 -1.23382 -3.24003 0
M  V30 5435 C 523.953 -2.43763 -3.53381 0
M  V30 5436 C 523.186 -2.28216 -4.82445 0
M  V30 5437 O 523.409 -1.28288 -5.55786 0
M  V30 5438 O 522.343 -3.1709 -5.11603 0
M  V30 5439 H 526.169 -2.36159 -1.90952 0
M  V30 5440 H 523.754 -1.20194 -0.887346 0
M  V30 5441 H 525.636 -1.16395 -4.05006 0
M  V30 5442 H 524.311 -0.300121 -3.22306 0
M  V30 5443 H 523.218 -2.56325 -2.72485 0
M  V30 5444 H 524.551 -3.35808 -3.59852 0
M  V30 5445 N 526.204 0.969867 -1.24223 0
M  V30 5446 C 527.114 2.09806 -1.0497 0
M  V30 5447 C 528.13 1.73998 0.00886455 0
M  V30 5448 O 529.306 2.00513 -0.188848 0
M  V30 5449 C 526.371 3.40467 -0.654452 0
M  V30 5450 C 525.432 3.90236 -1.78926 0
M  V30 5451 C 524.665 5.14662 -1.41277 0
M  V30 5452 O 524.888 5.69602 -0.301632 0
M  V30 5453 O 523.822 5.58761 -2.23763 0
M  V30 5454 H 527.648 2.28942 -1.99548 0
M  V30 5455 H 525.233 1.08197 -1.03023 0
M  V30 5456 H 527.115 4.19039 -0.445452 0
M  V30 5457 H 525.79 3.22636 0.262216 0
M  V30 5458 H 524.697 3.12735 -2.05299 0
M  V30 5459 H 526.03 4.1254 -2.68462 0
M  V30 5460 N 527.682 1.05563 1.17022 0
M  V30 5461 C 528.615 0.604197 2.20056 0
M  V30 5462 C 529.593 -0.369169 1.58354 0
M  V30 5463 O 530.777 -0.279898 1.8641 0
M  V30 5464 C 527.904 -0.115265 3.38504 0
M  V30 5465 C 526.95 0.813698 4.18666 0
M  V30 5466 S 527.783 2.30492 4.83357 0
M  V30 5467 C 528.939 1.59674 6.0519 0
M  V30 5468 H 529.172 1.47713 2.58008 0
M  V30 5469 H 526.705 0.867932 1.27696 0
M  V30 5470 H 528.663 -0.524162 4.0714 0
M  V30 5471 H 527.324 -0.964284 2.98932 0
M  V30 5472 H 526.517 0.256736 5.03346 0
M  V30 5473 H 526.119 1.16213 3.55486 0
M  V30 5474 H 528.411 0.898164 6.7152 0
M  V30 5475 H 529.354 2.42115 6.65422 0
M  V30 5476 H 529.762 1.08252 5.54023 0
M  V30 5477 N 529.16 -1.33526 0.837174 0
M  V30 5478 C 530.388 -2.02047 0.445494 0
M  V30 5479 C 530.803 -1.62995 -0.952788 0
M  V30 5480 O 530.16 -0.842447 -1.61892 0
M  V30 5481 C 530.211 -3.57221 0.554577 0
M  V30 5482 O 529.932 -3.94863 1.89776 0
M  V30 5483 C 531.433 -4.43012 0.159634 0
M  V30 5484 H 528.653 -0.647221 0.177048 0
M  V30 5485 H 531.197 -1.70492 1.12928 0
M  V30 5486 H 529.352 -3.87315 -0.0812781 0
M  V30 5487 H 529.766 -4.89569 1.88208 0
M  V30 5488 H 531.24 -5.51253 0.28701 0
M  V30 5489 H 531.717 -4.29916 -0.898289 0
M  V30 5490 H 532.323 -4.18274 0.769855 0
M  V30 5491 N 530.638 -0.59345 -1.46 0
M  V30 5492 C 531.585 0.133618 -2.30413 0
M  V30 5493 C 532.555 0.873736 -1.41262 0
M  V30 5494 O 533.74 0.862279 -1.70204 0
M  V30 5495 C 530.88 1.13434 -3.25924 0
M  V30 5496 C 529.993 0.39656 -4.30176 0
M  V30 5497 C 529.128 1.38575 -5.12806 0
M  V30 5498 C 528.167 0.634984 -6.08797 0
M  V30 5499 N 527.304 1.57276 -6.84258 0
M  V30 5500 H 532.144 -0.592252 -2.92055 0
M  V30 5501 H 529.681 -0.303874 -1.43927 0
M  V30 5502 H 531.639 1.72752 -3.79753 0
M  V30 5503 H 530.269 1.82779 -2.66067 0
M  V30 5504 H 529.321 -0.311861 -3.79119 0
M  V30 5505 H 530.633 -0.189869 -4.98438 0
M  V30 5506 H 529.787 2.05141 -5.70966 0
M  V30 5507 H 528.526 2.00611 -4.44529 0
M  V30 5508 H 527.531 -0.0443925 -5.49782 0
M  V30 5509 H 528.756 0.0198678 -6.79097 0
M  V30 5510 H 526.702 2.18103 -6.18682 0
M  V30 5511 H 526.619 1.03941 -7.48821 0
M  V30 5512 H 527.887 2.22844 -7.46968 0
M  V30 5513 N 532.116 1.54067 -0.331816 0
M  V30 5514 C 533.064 2.26105 0.54582 0
M  V30 5515 C 534.058 1.27816 1.11173 0
M  V30 5516 O 535.264 1.45565 1.05882 0
M  V30 5517 H 531.639 0.726363 0.194683 0
M  V30 5518 H 533.61 2.98282 -0.083931 0
M  V30 5519 C 532.359 3.03814 1.69092 0
M  V30 5520 H 531.682 3.79269 1.26473 0
M  V30 5521 H 533.122 3.57453 2.28043 0
M  V30 5522 C 531.581 2.12606 2.61343 0
M  V30 5523 O 532.111 1.71437 3.6328 0
M  V30 5524 N 530.317 1.77925 2.29763 0
M  V30 5525 H 529.864 2.11602 1.46909 0
M  V30 5526 H 529.822 1.1718 2.91747 0
M  V30 5527 N 533.594 0.0601682 1.57485 0
M  V30 5528 C 534.526 -0.94047 2.09016 0
M  V30 5529 C 535.539 -1.26897 1.01985 0
M  V30 5530 O 536.728 -1.22819 1.29529 0
M  V30 5531 C 533.828 -2.25955 2.52582 0
M  V30 5532 C 533.001 -2.11163 3.83052 0
M  V30 5533 C 532.06 -3.26273 4.12835 0
M  V30 5534 O 531.086 -3.01779 4.82616 0
M  V30 5535 N 532.288 -4.51022 3.65458 0
M  V30 5536 H 535.053 -0.500578 2.9549 0
M  V30 5537 H 532.614 -0.125852 1.6141 0
M  V30 5538 H 534.606 -3.01846 2.69575 0
M  V30 5539 H 533.176 -2.61481 1.71308 0
M  V30 5540 H 532.396 -1.19808 3.75552 0
M  V30 5541 H 533.684 -1.98517 4.68475 0
M  V30 5542 H 533.082 -4.73811 3.09062 0
M  V30 5543 H 531.639 -5.23978 3.87673 0
M  V30 5544 N 535.072 -1.5615 -0.213296 0
M  V30 5545 C 536.318 -1.79812 -0.937849 0
M  V30 5546 C 536.651 -0.631201 -1.83656 0
M  V30 5547 O 535.926 0.369165 -1.90964 0
M  V30 5548 C 536.209 -3.13613 -1.76972 0
M  V30 5549 C 536.062 -4.40766 -0.89695 0
M  V30 5550 C 537.381 -3.43931 -2.7459 0
M  V30 5551 H 534.5 -0.654138 -0.339518 0
M  V30 5552 H 537.142 -1.88877 -0.20623 0
M  V30 5553 H 535.292 -3.06015 -2.39347 0
M  V30 5554 H 536.964 -4.60392 -0.289306 0
M  V30 5555 H 535.207 -4.33326 -0.202756 0
M  V30 5556 H 535.878 -5.30843 -1.51358 0
M  V30 5557 H 538.354 -3.5171 -2.22349 0
M  V30 5558 H 537.23 -4.38706 -3.29891 0
M  V30 5559 H 537.491 -2.6651 -3.52739 0
M  V30 5560 N 536.55 0.480323 -1.50102 0
M  V30 5561 C 537.775 1.26126 -1.64642 0
M  V30 5562 C 538.2 1.85257 -0.325823 0
M  V30 5563 O 537.558 1.66854 0.709194 0
M  V30 5564 C 537.606 2.35243 -2.73301 0
M  V30 5565 O 536.71 3.39646 -2.33911 0
M  V30 5566 H 536.051 0.371463 -0.550374 0
M  V30 5567 H 538.581 0.572696 -1.96421 0
M  V30 5568 H 538.591 2.80695 -2.96098 0
M  V30 5569 H 537.266 1.91574 -3.6915 0
M  V30 5570 H 535.843 2.99969 -2.21525 0
M  V30 5571 N 538.028 1.39524 0.732853 0
M  V30 5572 C 538.958 1.41153 1.86005 0
M  V30 5573 C 539.939 0.274614 1.67869 0
M  V30 5574 O 541.124 0.480745 1.88155 0
M  V30 5575 C 538.254 1.25638 3.23778 0
M  V30 5576 C 537.208 2.36752 3.56556 0
M  V30 5577 C 536.534 2.06326 4.93289 0
M  V30 5578 C 537.834 3.79069 3.5931 0
M  V30 5579 H 539.528 2.35484 1.84899 0
M  V30 5580 H 537.074 1.13348 0.888162 0
M  V30 5581 H 539.027 1.25398 4.0231 0
M  V30 5582 H 537.751 0.277772 3.25417 0
M  V30 5583 H 536.41 2.36213 2.80355 0
M  V30 5584 H 536.058 1.06897 4.9151 0
M  V30 5585 H 535.758 2.80757 5.16187 0
M  V30 5586 H 537.282 2.07739 5.74175 0
M  V30 5587 H 538.696 3.81526 4.27914 0
M  V30 5588 H 537.093 4.52878 3.93728 0
M  V30 5589 H 538.163 4.09893 2.59068 0
M  V30 5590 N 539.506 -0.963266 1.24736 0
M  V30 5591 C 540.734 -1.74166 1.11686 0
M  V30 5592 C 541.149 -1.8589 -0.330187 0
M  V30 5593 O 540.506 -1.35042 -1.2276 0
M  V30 5594 C 540.557 -3.15989 1.75595 0
M  V30 5595 O 540.278 -3.04847 3.14642 0
M  V30 5596 C 541.779 -4.10145 1.68213 0
M  V30 5597 H 538.999 -0.546031 0.389989 0
M  V30 5598 H 541.543 -1.20907 1.64929 0
M  V30 5599 H 539.698 -3.66219 1.26343 0
M  V30 5600 H 540.112 -3.9425 3.4593 0
M  V30 5601 H 541.586 -5.07299 2.17604 0
M  V30 5602 H 542.063 -4.3445 0.644208 0
M  V30 5603 H 542.669 -3.65827 2.16912 0
M  V30 5604 N 540.985 -1.06182 -1.16461 0
M  V30 5605 C 542.225 -0.787048 -1.8864 0
M  V30 5606 C 542.589 0.674093 -1.79778 0
M  V30 5607 O 543.79 1.06341 -2.46871 0
M  V30 5608 C 542.061 -1.2666 -3.34203 0
M  V30 5609 S 543.62 -1.12071 -4.24247 0
M  V30 5610 H 540.438 -0.285539 -0.651144 0
M  V30 5611 H 543.04 -1.35851 -1.40587 0
M  V30 5612 H 541.744 -2.32496 -3.38192 0
M  V30 5613 H 541.275 -0.689841 -3.87304 0
M  V30 5614 H 543.29 -0.0509341 -4.96174 0
M  V30 5615 N 542.463 1.3308 -0.844243 0
M  V30 5616 C 543.393 2.3161 -0.296493 0
M  V30 5617 C 544.374 1.59215 0.598707 0
M  V30 5618 O 545.559 1.87077 0.521134 0
M  V30 5619 C 542.689 3.43313 0.524762 0
M  V30 5620 C 541.643 4.27115 -0.275106 0
M  V30 5621 C 540.969 5.30483 0.670236 0
M  V30 5622 C 542.269 5.00443 -1.49514 0
M  V30 5623 H 543.963 2.77672 -1.11976 0
M  V30 5624 H 541.509 1.33496 -0.539899 0
M  V30 5625 H 543.462 4.11273 0.918298 0
M  V30 5626 H 542.186 2.95952 1.3813 0
M  V30 5627 H 540.845 3.60787 -0.650267 0
M  V30 5628 H 540.493 4.79379 1.52332 0
M  V30 5629 H 540.193 5.87435 0.139123 0
M  V30 5630 H 541.717 6.01308 1.06117 0
M  V30 5631 H 543.131 5.61141 -1.17447 0
M  V30 5632 H 541.528 5.67071 -1.96343 0
M  V30 5633 H 542.598 4.28906 -2.26202 0
M  V30 5634 N 543.941 0.601185 1.45683 0
M  V30 5635 C 545.187 0.0940202 2.02582 0
M  V30 5636 C 545.52 -1.26972 1.46941 0
M  V30 5637 O 544.795 -1.83613 0.641612 0
M  V30 5638 C 545.078 0.0481715 3.60068 0
M  V30 5639 C 544.931 1.44212 4.26055 0
M  V30 5640 C 546.25 -0.642975 4.35378 0
M  V30 5641 H 543.369 0.0356404 0.736138 0
M  V30 5642 H 546.011 0.771929 1.73612 0
M  V30 5643 H 544.161 -0.529128 3.8488 0
M  V30 5644 H 545.833 2.06601 4.12449 0
M  V30 5645 H 544.076 2.00465 3.84703 0
M  V30 5646 H 544.747 1.36234 5.34925 0
M  V30 5647 H 547.223 -0.152351 4.15821 0
M  V30 5648 H 546.099 -0.644141 5.45107 0
M  V30 5649 H 546.36 -1.70785 4.0778 0
M  V30 5650 N 545.419 -1.53889 0.339982 0
M  V30 5651 C 546.366 -2.24902 -0.518452 0
M  V30 5652 C 547.336 -1.24593 -1.09844 0
M  V30 5653 O 548.521 -1.53317 -1.13572 0
M  V30 5654 C 545.661 -3.02262 -1.66529 0
M  V30 5655 C 544.774 -4.17418 -1.11295 0
M  V30 5656 C 543.909 -4.82273 -2.2268 0
M  V30 5657 C 542.948 -5.89503 -1.6478 0
M  V30 5658 N 542.085 -6.48153 -2.69893 0
M  V30 5659 H 546.925 -2.97853 0.0936579 0
M  V30 5660 H 544.462 -1.46986 0.0579924 0
M  V30 5661 H 546.42 -3.45371 -2.3404 0
M  V30 5662 H 545.05 -2.31614 -2.24844 0
M  V30 5663 H 544.102 -3.78976 -0.328886 0
M  V30 5664 H 545.414 -4.94554 -0.649414 0
M  V30 5665 H 544.568 -5.28435 -2.98063 0
M  V30 5666 H 543.307 -4.04552 -2.72376 0
M  V30 5667 H 542.312 -5.42728 -0.879004 0
M  V30 5668 H 543.537 -6.6913 -1.1594 0
M  V30 5669 H 541.483 -5.73298 -3.1885 0
M  V30 5670 H 541.4 -7.20752 -2.28151 0
M  V30 5671 H 542.668 -6.98968 -3.45056 0
M  V30 5672 N 546.897 -0.0685191 -1.57451 0
M  V30 5673 C 548.145 0.60016 -1.92983 0
M  V30 5674 C 548.466 1.70348 -0.949028 0
M  V30 5675 O 547.736 1.959 0.00335647 0
M  V30 5676 H 546.316 0.224682 -0.712409 0
M  V30 5677 H 548.978 -0.125605 -1.94495 0
M  V30 5678 H 548.074 1.02759 -2.94698 0
M  V30 5679 N 548.375 1.56261 0.205012 0
M  V30 5680 C 549.622 1.8004 0.926927 0
M  V30 5681 C 549.95 0.640086 1.83666 0
M  V30 5682 O 549.205 -0.374702 1.92079 0
M  V30 5683 C 549.504 3.09722 1.78345 0
M  V30 5684 C 549.17 4.39082 1.02555 0
M  V30 5685 C 547.832 4.74226 0.816256 0
M  V30 5686 C 550.184 5.18877 0.491559 0
M  V30 5687 C 547.512 5.86668 0.0613287 0
M  V30 5688 C 549.864 6.32105 -0.250107 0
M  V30 5689 C 548.528 6.6584 -0.470508 0
M  V30 5690 H 547.798 0.658812 0.339187 0
M  V30 5691 H 550.445 1.90515 0.19395 0
M  V30 5692 H 548.75 2.9444 2.5848 0
M  V30 5693 H 550.447 3.25324 2.34446 0
M  V30 5694 H 547.037 4.11497 1.19868 0
M  V30 5695 H 551.221 4.92147 0.640684 0
M  V30 5696 H 546.477 6.11283 -0.119501 0
M  V30 5697 H 550.651 6.93157 -0.671307 0
M  V30 5698 H 548.278 7.5281 -1.05739 0
M  V30 5699 N 549.853 -0.472356 1.50355 0
M  V30 5700 C 551.083 -1.24603 1.64796 0
M  V30 5701 C 551.491 -1.86297 0.330156 0
M  V30 5702 O 550.834 -1.69934 -0.697728 0
M  V30 5703 C 550.896 -2.39578 2.68035 0
M  V30 5704 C 550.56 -1.98531 4.11624 0
M  V30 5705 C 551.557 -1.50856 4.97532 0
M  V30 5706 C 549.242 -2.0729 4.57532 0
M  V30 5707 C 551.236 -1.12481 6.27397 0
M  V30 5708 C 548.923 -1.68527 5.87403 0
M  V30 5709 C 549.921 -1.212 6.7216 0
M  V30 5710 O 549.609 -0.829728 7.99607 0
M  V30 5711 H 549.341 -0.383035 0.55701 0
M  V30 5712 H 551.895 -0.570392 1.97321 0
M  V30 5713 H 550.125 -3.10309 2.30749 0
M  V30 5714 H 551.814 -3.01544 2.71709 0
M  V30 5715 H 552.58 -1.43511 4.63281 0
M  V30 5716 H 548.459 -2.43076 3.91708 0
M  V30 5717 H 552.003 -0.754698 6.93506 0
M  V30 5718 H 547.9 -1.7553 6.21176 0
M  V30 5719 H 548.668 -0.958689 8.12866 0
M  V30 5720 N 551.331 -1.39911 -0.725443 0
M  V30 5721 C 552.742 -1.33599 -1.30415 0
M  V30 5722 C 553.093 -0.00481792 -1.96199 0
M  V30 5723 O 552.218 0.897275 -1.96921 0
M  V30 5724 C 552.813 -2.41965 -2.37146 0
M  V30 5725 C 551.372 -2.39144 -2.90667 0
M  V30 5726 C 550.519 -2.23355 -1.64341 0
M  V30 5727 H 553.47 -1.4986 -0.522267 0
M  V30 5728 H 553.491 -2.09304 -3.17761 0
M  V30 5729 H 553.003 -3.38837 -1.89238 0
M  V30 5730 H 551.104 -1.4594 -3.4283 0
M  V30 5731 H 551.217 -3.34362 -3.43131 0
M  V30 5732 H 549.581 -1.70696 -1.89037 0
M  V30 5733 H 550.364 -3.2221 -1.18471 0
M  V30 5734 N 552.809 0.956637 -1.25245 0
M  V30 5735 C 554.034 1.74104 -1.12706 0
M  V30 5736 C 554.459 1.85436 0.315429 0
M  V30 5737 O 553.817 1.33334 1.22848 0
M  V30 5738 C 553.865 3.1338 -1.78396 0
M  V30 5739 O 552.969 3.98485 -1.06224 0
M  V30 5740 H 552.31 0.53476 -0.393609 0
M  V30 5741 H 554.84 1.19924 -1.65769 0
M  V30 5742 H 554.85 3.6385 -1.846 0
M  V30 5743 H 553.525 3.04448 -2.83345 0
M  V30 5744 H 552.102 3.56952 -1.07886 0
M  V30 5745 N 554.287 1.06798 1.15896 0
M  V30 5746 C 555.564 0.701057 1.82605 0
M  V30 5747 C 555.944 -0.817066 1.94646 0
M  V30 5748 O 555.292 -1.72933 1.49353 0
M  V30 5749 C 555.502 1.40895 3.19296 0
M  V30 5750 C 556.85 1.55744 3.95005 0
M  V30 5751 O 557.874 1.36927 3.28831 0
M  V30 5752 O 556.733 1.86658 5.13635 0
M  V30 5753 H 553.827 0.248791 0.78869 0
M  V30 5754 H 556.373 1.16857 1.23055 0
M  V30 5755 H 555.145 2.4439 3.05596 0
M  V30 5756 H 554.768 0.931847 3.86526 0
M  V30 5757 N 555.766 -1.3263 0.851289 0
M  V30 5758 C 557.015 -1.96633 0.449267 0
M  V30 5759 C 557.328 -1.68131 -0.999562 0
M  V30 5760 O 558.534 -2.25845 -1.50685 0
M  V30 5761 C 556.99 -3.51946 0.752446 0
M  V30 5762 C 556.598 -3.89311 2.21678 0
M  V30 5763 C 558.342 -4.22437 0.417983 0
M  V30 5764 C 556.249 -5.37655 2.46336 0
M  V30 5765 H 555.179 -0.735888 0.164269 0
M  V30 5766 H 557.83 -1.51073 1.0416 0
M  V30 5767 H 556.212 -3.95899 0.0895858 0
M  V30 5768 H 557.386 -3.56378 2.92115 0
M  V30 5769 H 555.701 -3.31836 2.51543 0
M  V30 5770 H 558.298 -5.31549 0.579674 0
M  V30 5771 H 558.641 -4.11349 -0.640115 0
M  V30 5772 H 559.174 -3.84057 1.03659 0
M  V30 5773 H 555.913 -5.5376 3.50757 0
M  V30 5774 H 555.433 -5.72005 1.80473 0
M  V30 5775 H 557.112 -6.04695 2.30115 0
M  V30 5776 N 557.244 -0.608902 -1.45362 0
M  V30 5777 C 558.207 0.0992563 -2.28985 0
M  V30 5778 C 559.207 0.793841 -1.39838 0
M  V30 5779 O 560.397 0.641804 -1.61946 0
M  V30 5780 C 557.529 1.15073 -3.20891 0
M  V30 5781 H 558.722 -0.635964 -2.93079 0
M  V30 5782 H 556.275 -0.368007 -1.51906 0
M  V30 5783 H 557.01 1.91667 -2.616 0
M  V30 5784 H 556.795 0.656867 -3.86559 0
M  V30 5785 H 558.285 1.64665 -3.83765 0
M  V30 5786 N 558.722 1.53707 -0.348139 0
M  V30 5787 C 559.968 2.01286 0.247332 0
M  V30 5788 C 560.301 1.23546 1.49834 0
M  V30 5789 O 559.576 0.324331 1.91777 0
M  V30 5790 C 559.859 3.55768 0.556858 0
M  V30 5791 C 559.712 4.44216 -0.706564 0
M  V30 5792 C 561.031 4.1841 1.3646 0
M  V30 5793 H 558.15 0.731677 0.0884201 0
M  V30 5794 H 560.792 1.84106 -0.469584 0
M  V30 5795 H 558.942 3.70539 1.16761 0
M  V30 5796 H 560.614 4.41274 -1.34444 0
M  V30 5797 H 558.857 4.12892 -1.33052 0
M  V30 5798 H 559.528 5.50202 -0.445186 0
M  V30 5799 H 562.004 4.07365 0.848113 0
M  V30 5800 H 560.88 5.26563 1.54992 0
M  V30 5801 H 561.141 3.7333 2.36805 0
M  V30 5802 N 560.2 0.0768682 1.57412 0
M  V30 5803 C 561.11 -0.903207 2.16516 0
M  V30 5804 C 562.126 -1.32341 1.12968 0
M  V30 5805 O 563.302 -1.39507 1.45258 0
M  V30 5806 C 560.367 -2.1508 2.71922 0
M  V30 5807 C 559.428 -1.78653 3.90361 0
M  V30 5808 C 558.661 -2.97465 4.43114 0
M  V30 5809 O 558.884 -4.11638 3.94854 0
M  V30 5810 O 557.818 -2.76987 5.3438 0
M  V30 5811 H 561.644 -0.430427 3.00634 0
M  V30 5812 H 559.229 -0.146485 1.4868 0
M  V30 5813 H 561.111 -2.8823 3.07411 0
M  V30 5814 H 559.786 -2.61446 1.9086 0
M  V30 5815 H 558.693 -1.0274 3.59716 0
M  V30 5816 H 560.026 -1.37066 4.7273 0
M  V30 5817 N 561.678 -1.56367 -0.196722 0
M  V30 5818 C 562.924 -1.81698 -0.914182 0
M  V30 5819 C 563.279 -0.65367 -1.80956 0
M  V30 5820 O 562.572 0.351224 -1.88353 0
M  V30 5821 C 562.766 -3.10663 -1.767 0
M  V30 5822 C 562.595 -4.39428 -0.955689 0
M  V30 5823 C 561.365 -5.01221 -0.64076 0
M  V30 5824 C 563.563 -5.1337 -0.309165 0
M  V30 5825 N 561.545 -6.13608 0.189358 0
M  V30 5826 C 562.916 -6.18815 0.383225 0
M  V30 5827 C 564.971 -4.97393 -0.224726 0
M  V30 5828 C 563.674 -7.10015 1.15201 0
M  V30 5829 C 565.7 -5.89014 0.530658 0
M  V30 5830 C 565.062 -6.93903 1.2115 0
M  V30 5831 H 561.161 -0.716203 -0.31397 0
M  V30 5832 H 563.745 -1.93838 -0.18304 0
M  V30 5833 H 561.916 -2.99762 -2.46976 0
M  V30 5834 H 563.648 -3.24088 -2.42382 0
M  V30 5835 H 560.403 -4.63669 -0.96479 0
M  V30 5836 H 560.827 -6.74389 0.593979 0
M  V30 5837 H 565.469 -4.16331 -0.736754 0
M  V30 5838 H 563.187 -7.9054 1.67547 0
M  V30 5839 H 566.773 -5.78726 0.597326 0
M  V30 5840 H 565.653 -7.63576 1.78665 0
M  V30 5841 N 563.156 0.464375 -1.50603 0
M  V30 5842 C 564.066 1.58723 -1.72754 0
M  V30 5843 C 565.082 1.62925 -0.610844 0
M  V30 5844 O 566.258 1.8067 -0.889963 0
M  V30 5845 C 563.323 2.94897 -1.82309 0
M  V30 5846 C 562.384 3.0103 -3.06071 0
M  V30 5847 C 561.617 4.30708 -3.1516 0
M  V30 5848 O 561.84 5.2159 -2.30868 0
M  V30 5849 O 560.774 4.42571 -4.0794 0
M  V30 5850 H 564.6 1.42954 -2.67951 0
M  V30 5851 H 562.185 0.644579 -1.3478 0
M  V30 5852 H 564.067 3.75764 -1.90735 0
M  V30 5853 H 562.742 3.10851 -0.902967 0
M  V30 5854 H 561.649 2.19217 -3.03142 0
M  V30 5855 H 562.982 2.90014 -3.97684 0
M  V30 5856 N 564.634 1.40294 0.718013 0
M  V30 5857 C 565.859 1.41941 1.5122 0
M  V30 5858 C 566.284 0.0202371 1.88089 0
M  V30 5859 O 565.642 -0.971078 1.53101 0
M  V30 5860 C 565.69 2.3141 2.76554 0
M  V30 5861 O 564.794 1.75567 3.73162 0
M  V30 5862 H 564.135 0.482644 0.456016 0
M  V30 5863 H 566.665 1.84494 0.884478 0
M  V30 5864 H 566.675 2.46513 3.25108 0
M  V30 5865 H 565.35 3.33085 2.49053 0
M  V30 5866 H 563.927 1.69798 3.31999 0
M  V30 5867 N 566.112 -0.949982 1.2575 0
M  V30 5868 C 567.06 -2.06869 1.06339 0
M  V30 5869 C 568.054 -1.69399 -0.00708901 0
M  V30 5870 O 569.26 -1.79383 0.148897 0
M  V30 5871 H 565.635 -0.677197 0.326969 0
M  V30 5872 H 567.606 -2.20396 2.01167 0
M  V30 5873 C 566.355 -3.40503 0.703769 0
M  V30 5874 H 565.678 -3.69807 1.51931 0
M  V30 5875 H 567.118 -4.19623 0.607677 0
M  V30 5876 C 565.577 -3.31685 -0.5905 0
M  V30 5877 O 566.107 -3.67085 -1.63131 0
M  V30 5878 N 564.313 -2.84797 -0.577859 0
M  V30 5879 H 563.86 -2.56186 0.26951 0
M  V30 5880 H 563.818 -2.79279 -1.44398 0
M  V30 5881 N 567.59 -1.07411 -1.15328 0
M  V30 5882 C 568.838 -0.796073 -1.85761 0
M  V30 5883 C 569.159 0.679864 -1.82764 0
M  V30 5884 O 568.429 1.49242 -1.269 0
M  V30 5885 H 567.009 -0.291495 -0.687779 0
M  V30 5886 H 569.671 -1.35799 -1.39802 0
M  V30 5887 H 568.767 -1.13114 -2.90881 0
M  V30 5888 N 569.068 1.32177 -0.85831 0
M  V30 5889 C 570 2.27688 -0.262835 0
M  V30 5890 C 571.013 1.52588 0.567513 0
M  V30 5891 O 572.202 1.74156 0.391407 0
M  V30 5892 C 569.302 3.32668 0.646937 0
M  V30 5893 C 568.475 4.37148 -0.148372 0
M  V30 5894 C 567.534 5.21686 0.687728 0
M  V30 5895 O 566.56 5.69074 0.119934 0
M  V30 5896 N 567.762 5.44892 2.00182 0
M  V30 5897 H 570.527 2.79426 -1.08356 0
M  V30 5898 H 568.088 1.45076 -0.718647 0
M  V30 5899 H 570.08 3.86134 1.2117 0
M  V30 5900 H 568.65 2.81061 1.36834 0
M  V30 5901 H 567.87 3.83915 -0.894572 0
M  V30 5902 H 569.158 5.04038 -0.694514 0
M  V30 5903 H 568.556 5.08128 2.4864 0
M  V30 5904 H 567.113 6.0134 2.51463 0
M  V30 5905 N 570.547 0.616602 1.45037 0
M  V30 5906 C 571.958 0.199359 1.85633 0
M  V30 5907 C 572.309 -1.24588 1.51566 0
M  V30 5908 O 571.434 -1.94594 0.94668 0
M  V30 5909 C 572.029 0.355033 3.36935 0
M  V30 5910 C 570.588 -0.00758748 3.76399 0
M  V30 5911 C 569.735 0.675256 2.68953 0
M  V30 5912 H 572.686 0.822708 1.3571 0
M  V30 5913 H 572.707 -0.410201 3.78282 0
M  V30 5914 H 572.219 1.40699 3.61698 0
M  V30 5915 H 570.32 -1.05837 3.57252 0
M  V30 5916 H 570.433 0.392346 4.77491 0
M  V30 5917 H 568.797 0.111992 2.54454 0
M  V30 5918 H 569.58 1.72952 2.96551 0
M  V30 5919 N 572.025 -1.5352 0.356285 0
M  V30 5920 C 572.935 -2.29151 -0.502712 0
M  V30 5921 C 573.951 -1.34753 -1.1008 0
M  V30 5922 O 575.127 -1.67803 -1.11374 0
M  V30 5923 C 572.192 -3.05911 -1.63154 0
M  V30 5924 C 571.253 -4.15958 -1.06194 0
M  V30 5925 C 570.486 -4.8905 -2.13696 0
M  V30 5926 O 570.709 -4.61919 -3.34645 0
M  V30 5927 O 569.643 -5.75202 -1.77275 0
M  V30 5928 H 573.469 -3.03492 0.112466 0
M  V30 5929 H 571.054 -1.4891 0.120942 0
M  V30 5930 H 572.936 -3.53874 -2.28804 0
M  V30 5931 H 571.611 -2.34415 -2.23229 0
M  V30 5932 H 570.518 -3.7227 -0.369603 0
M  V30 5933 H 571.851 -4.89593 -0.505872 0
M  V30 5934 N 573.503 -0.0852151 -1.57369 0
M  V30 5935 C 574.451 0.894856 -2.14698 0
M  V30 5936 C 575.445 1.29903 -1.08727 0
M  V30 5937 O 576.651 1.27471 -1.27088 0
M  V30 5938 H 573.026 0.306569 -0.686673 0
M  V30 5939 H 574.997 0.386542 -2.95886 0
M  V30 5940 C 573.746 2.14798 -2.73417 0
M  V30 5941 H 573.069 1.84585 -3.54638 0
M  V30 5942 H 574.509 2.81456 -3.1711 0
M  V30 5943 C 572.968 2.91546 -1.68828 0
M  V30 5944 O 573.498 3.85733 -1.12129 0
M  V30 5945 N 571.704 2.54901 -1.39549 0
M  V30 5946 H 571.251 1.7838 -1.85845 0
M  V30 5947 H 571.209 3.06553 -0.698054 0
M  V30 5948 N 574.981 1.5647 0.188427 0
M  V30 5949 C 575.929 1.95971 1.25293 0
M  V30 5950 C 576.923 0.846047 1.4676 0
M  V30 5951 O 578.129 1.03109 1.47542 0
M  V30 5952 H 574.504 0.623253 0.420784 0
M  V30 5953 H 576.475 2.84731 0.892792 0
M  V30 5954 C 575.224 2.32116 2.58877 0
M  V30 5955 H 574.547 3.17341 2.43176 0
M  V30 5956 H 575.987 2.63613 3.3209 0
M  V30 5957 C 574.446 1.15823 3.16365 0
M  V30 5958 O 574.976 0.436785 3.99318 0
M  V30 5959 N 573.182 0.933278 2.75206 0
M  V30 5960 H 572.729 1.52169 2.07852 0
M  V30 5961 H 572.687 0.156976 3.14008 0
M  V30 5962 N 576.459 -0.456382 1.50847 0
M  V30 5963 C 577.689 -1.22848 1.66108 0
M  V30 5964 C 578.097 -1.85936 0.349897 0
M  V30 5965 O 577.44 -1.70664 -0.679665 0
M  V30 5966 C 577.502 -2.36722 2.70561 0
M  V30 5967 C 577.166 -1.94154 4.13707 0
M  V30 5968 C 578.163 -1.4557 4.99105 0
M  V30 5969 C 575.848 -2.02426 4.59705 0
M  V30 5970 C 577.842 -1.0582 6.28555 0
M  V30 5971 C 575.529 -1.62287 5.89157 0
M  V30 5972 C 576.527 -1.14064 6.73408 0
M  V30 5973 O 576.215 -0.744873 8.00442 0
M  V30 5974 H 575.947 -0.377105 0.561042 0
M  V30 5975 H 578.501 -0.549431 1.97915 0
M  V30 5976 H 576.731 -3.07844 2.34027 0
M  V30 5977 H 578.42 -2.98646 2.74892 0
M  V30 5978 H 579.186 -1.38589 4.64777 0
M  V30 5979 H 575.065 -2.38908 3.94264 0
M  V30 5980 H 578.609 -0.6811 6.94267 0
M  V30 5981 H 574.506 -1.68932 6.23003 0
M  V30 5982 H 575.274 -0.87242 8.13837 0
M  V30 5983 N 577.937 -1.40673 -0.710563 0
M  V30 5984 C 578.884 -1.41336 -1.82463 0
M  V30 5985 C 579.854 -0.269648 -1.63897 0
M  V30 5986 O 581.039 -0.468463 -1.8496 0
M  V30 5987 C 578.179 -1.28665 -3.20218 0
M  V30 5988 C 577.292 -2.52784 -3.5032 0
M  V30 5989 C 576.427 -2.32517 -4.77608 0
M  V30 5990 C 575.466 -3.52187 -5.0063 0
M  V30 5991 N 574.603 -3.31084 -6.19135 0
M  V30 5992 H 579.443 -2.36558 -1.8123 0
M  V30 5993 H 576.98 -1.17483 -0.885226 0
M  V30 5994 H 578.938 -1.19324 -3.99772 0
M  V30 5995 H 577.568 -0.370602 -3.20666 0
M  V30 5996 H 576.62 -2.72634 -2.65283 0
M  V30 5997 H 577.932 -3.41845 -3.63241 0
M  V30 5998 H 577.086 -2.20558 -5.65189 0
M  V30 5999 H 575.825 -1.40889 -4.66906 0
M  V30 6000 H 574.83 -3.64617 -4.11502 0
M  V30 6001 H 576.055 -4.44749 -5.13201 0
M  V30 6002 H 574.001 -2.42143 -6.09674 0
M  V30 6003 H 573.918 -4.13713 -6.32754 0
M  V30 6004 H 575.186 -3.22868 -7.0949 0
M  V30 6005 N 579.415 0.9433 -1.26252 0
M  V30 6006 C 580.643 1.72367 -1.14443 0
M  V30 6007 C 581.058 1.86392 0.300572 0
M  V30 6008 O 580.415 1.36978 1.20596 0
M  V30 6009 C 580.466 3.13155 -1.806 0
M  V30 6010 O 580.187 2.99803 -3.19452 0
M  V30 6011 C 581.688 4.07417 -1.74717 0
M  V30 6012 H 578.908 0.539758 -0.398626 0
M  V30 6013 H 581.452 1.18268 -1.66832 0
M  V30 6014 H 579.607 3.64162 -1.32154 0
M  V30 6015 H 580.021 3.88697 -3.52158 0
M  V30 6016 H 581.495 5.03773 -2.25647 0
M  V30 6017 H 581.972 4.3337 -0.713244 0
M  V30 6018 H 582.578 3.6233 -2.22704 0
M  V30 6019 N 580.893 1.08022 1.14757 0
M  V30 6020 C 582.121 0.828847 1.89572 0
M  V30 6021 C 582.536 -0.618621 1.78377 0
M  V30 6022 O 581.893 -1.42482 1.1404 0
M  V30 6023 C 581.944 1.23677 3.39685 0
M  V30 6024 O 581.665 2.62746 3.50566 0
M  V30 6025 C 583.166 1.01569 4.31507 0
M  V30 6026 H 580.386 0.299196 0.600602 0
M  V30 6027 H 582.93 1.43846 1.45357 0
M  V30 6028 H 581.085 0.671347 3.81539 0
M  V30 6029 H 581.499 2.79573 4.43778 0
M  V30 6030 H 582.973 1.35055 5.35223 0
M  V30 6031 H 583.45 -0.0475433 4.39174 0
M  V30 6032 H 584.056 1.56636 3.95405 0
M  V30 6033 N 582.371 -1.3172 0.865308 0
M  V30 6034 C 583.782 -1.79104 0.527126 0
M  V30 6035 C 584.133 -1.7135 -0.955695 0
M  V30 6036 O 583.258 -1.27845 -1.74598 0
M  V30 6037 C 583.853 -3.25207 0.950061 0
M  V30 6038 C 582.412 -3.70504 0.663611 0
M  V30 6039 C 581.559 -2.52605 1.14395 0
M  V30 6040 H 584.51 -1.18868 1.05148 0
M  V30 6041 H 584.531 -3.79535 0.270805 0
M  V30 6042 H 584.043 -3.30818 2.02931 0
M  V30 6043 H 582.144 -3.70398 -0.404474 0
M  V30 6044 H 582.257 -4.62845 1.23737 0
M  V30 6045 H 580.621 -2.4838 0.563859 0
M  V30 6046 H 581.404 -2.60964 2.23053 0
M  V30 6047 N 583.85 -0.624285 -1.44708 0
M  V30 6048 C 585.26 -0.2092 -1.85524 0
M  V30 6049 C 585.611 1.23783 -1.52225 0
M  V30 6050 O 584.736 1.94089 -0.956986 0
M  V30 6051 C 585.332 -0.372897 -3.36742 0
M  V30 6052 C 583.891 -0.012374 -3.76398 0
M  V30 6053 C 583.038 -0.68951 -2.68591 0
M  V30 6054 H 585.989 -0.829894 -1.35272 0
M  V30 6055 H 586.01 0.390134 -3.78495 0
M  V30 6056 H 585.522 -1.42615 -3.60947 0
M  V30 6057 H 583.623 1.03941 -3.57809 0
M  V30 6058 H 583.736 -0.417663 -4.77276 0
M  V30 6059 H 582.1 -0.125484 -2.54391 0
M  V30 6060 H 582.883 -1.74522 -2.9563 0
M  V30 6061 N 585.328 1.53329 -0.364422 0
M  V30 6062 C 586.574 2.01537 0.225969 0
M  V30 6063 C 586.907 1.25128 1.48515 0
M  V30 6064 O 586.182 0.344653 1.91422 0
M  V30 6065 C 586.465 3.56339 0.519092 0
M  V30 6066 C 586.318 4.43441 -0.753639 0
M  V30 6067 C 587.637 4.19833 1.32015 0
M  V30 6068 H 584.756 0.732573 0.0806548 0
M  V30 6069 H 587.398 1.83597 -0.489084 0
M  V30 6070 H 585.548 3.71756 1.12825 0
M  V30 6071 H 587.22 4.39823 -1.39116 0
M  V30 6072 H 585.463 4.11457 -1.37424 0
M  V30 6073 H 586.134 5.49699 -0.503517 0
M  V30 6074 H 588.61 4.08242 0.804859 0
M  V30 6075 H 587.486 5.28177 1.49399 0
M  V30 6076 H 587.747 3.75821 2.32832 0
M  V30 6077 N 586.806 0.0935595 1.57322 0
M  V30 6078 C 587.736 -0.863062 2.16964 0
M  V30 6079 C 588.717 -1.29528 1.10256 0
M  V30 6080 O 589.902 -1.36245 1.38387 0
M  V30 6081 C 587.032 -2.12276 2.74875 0
M  V30 6082 C 585.986 -1.82921 3.86942 0
M  V30 6083 C 585.312 -3.15707 4.31548 0
M  V30 6084 C 586.612 -1.11737 5.10208 0
M  V30 6085 H 588.306 -0.366145 2.97153 0
M  V30 6086 H 585.852 -0.174673 1.42937 0
M  V30 6087 H 587.805 -2.79634 3.1525 0
M  V30 6088 H 586.529 -2.64248 1.91938 0
M  V30 6089 H 585.188 -1.17961 3.47103 0
M  V30 6090 H 584.836 -3.65563 3.45504 0
M  V30 6091 H 584.536 -2.96849 5.07104 0
M  V30 6092 H 586.06 -3.84226 4.74555 0
M  V30 6093 H 587.474 -1.69203 5.47762 0
M  V30 6094 H 585.871 -1.03064 5.91183 0
M  V30 6095 H 586.941 -0.0998818 4.84797 0
M  V30 6096 N 588.284 -1.56567 -0.180126 0
M  V30 6097 C 589.561 -1.7235 -0.924931 0
M  V30 6098 C 589.941 -0.652523 -2.00762 0
M  V30 6099 O 589.289 0.334115 -2.26044 0
M  V30 6100 C 589.499 -3.1523 -1.49771 0
M  V30 6101 C 590.847 -3.75921 -1.97405 0
M  V30 6102 O 591.871 -3.18452 -1.59583 0
M  V30 6103 O 590.73 -4.7681 -2.67048 0
M  V30 6104 H 587.824 -0.703502 -0.434758 0
M  V30 6105 H 590.37 -1.6886 -0.168647 0
M  V30 6106 H 589.142 -3.84656 -0.718027 0
M  V30 6107 H 588.765 -3.23009 -2.31842 0
M  V30 6108 N 589.762 0.448376 -1.51087 0
M  V30 6109 C 590.987 1.22605 -1.6728 0
M  V30 6110 C 591.412 1.84524 -0.365045 0
M  V30 6111 O 590.77 1.6832 0.673642 0
M  V30 6112 C 590.818 2.29393 -2.78229 0
M  V30 6113 O 589.922 3.34608 -2.41063 0
M  V30 6114 H 589.263 0.359705 -0.558129 0
M  V30 6115 H 591.793 0.530903 -1.97592 0
M  V30 6116 H 591.803 2.74352 -3.01986 0
M  V30 6117 H 590.478 1.83701 -3.73131 0
M  V30 6118 H 589.055 2.95202 -2.27838 0
M  V30 6119 N 591.24 1.41047 0.703093 0
M  V30 6120 C 592.517 1.30493 1.45708 0
M  V30 6121 C 592.897 -0.0709892 2.10981 0
M  V30 6122 O 592.245 -1.08471 2.01113 0
M  V30 6123 C 592.455 2.45287 2.48265 0
M  V30 6124 C 593.803 2.86104 3.13735 0
M  V30 6125 O 594.827 2.44971 2.58587 0
M  V30 6126 O 593.686 3.57206 4.13601 0
M  V30 6127 H 590.78 0.513144 0.648546 0
M  V30 6128 H 593.326 1.52995 0.734208 0
M  V30 6129 H 592.098 3.37135 1.98635 0
M  V30 6130 H 591.721 2.24622 3.28071 0
M  V30 6131 N 592.718 -0.936591 1.26751 0
M  V30 6132 C 593.966 -1.67998 1.12343 0
M  V30 6133 C 594.287 -1.92137 -0.332938 0
M  V30 6134 O 593.557 -1.52132 -1.23421 0
M  V30 6135 H 592.137 -0.622609 0.412756 0
M  V30 6136 H 594.799 -1.12509 1.59147 0
M  V30 6137 H 593.895 -2.65185 1.64571 0
M  V30 6138 N 594.196 -1.08629 -1.14182 0
M  V30 6139 C 595.421 -0.83902 -1.89671 0
M  V30 6140 C 595.846 0.603332 -1.78161 0
M  V30 6141 O 595.204 1.42301 -1.12339 0
M  V30 6142 C 595.252 -1.26854 -3.37551 0
M  V30 6143 O 594.356 -0.42188 -4.10236 0
M  V30 6144 H 593.697 -0.304545 -0.590041 0
M  V30 6145 H 596.227 -1.4483 -1.44518 0
M  V30 6146 H 596.237 -1.25038 -3.88368 0
M  V30 6147 H 594.912 -2.31901 -3.45246 0
M  V30 6148 H 593.489 -0.503654 -3.69483 0
M  V30 6149 N 595.674 1.31259 -0.872281 0
M  V30 6150 C 596.921 1.96622 -0.484365 0
M  V30 6151 C 597.249 1.68939 0.963841 0
M  V30 6152 O 596.504 0.97974 1.6941 0
M  V30 6153 C 596.803 3.50659 -0.690889 0
M  V30 6154 C 596.469 3.98366 -2.11224 0
M  V30 6155 C 595.131 4.11104 -2.50094 0
M  V30 6156 C 597.483 4.23425 -3.0391 0
M  V30 6157 C 594.811 4.46254 -3.80887 0
M  V30 6158 C 597.163 4.60039 -4.3422 0
M  V30 6159 C 595.827 4.70984 -4.73001 0
M  V30 6160 H 595.097 0.71949 -0.177242 0
M  V30 6161 H 597.744 1.56353 -1.10571 0
M  V30 6162 H 596.049 3.91798 0.0135782 0
M  V30 6163 H 597.746 3.99284 -0.370534 0
M  V30 6164 H 594.336 3.88949 -1.80047 0
M  V30 6165 H 598.52 4.13075 -2.75104 0
M  V30 6166 H 593.776 4.52926 -4.10692 0
M  V30 6167 H 597.95 4.78381 -5.06088 0
M  V30 6168 H 595.577 4.97977 -5.7439 0
M  V30 6169 N 597.152 0.631951 1.44375 0
M  V30 6170 C 598.399 0.136767 2.02038 0
M  V30 6171 C 598.727 -1.24168 1.49709 0
M  V30 6172 O 597.982 -1.83809 0.671763 0
M  V30 6173 C 598.281 0.0735861 3.57324 0
M  V30 6174 C 597.947 1.39092 4.28911 0
M  V30 6175 C 596.609 1.75171 4.48184 0
M  V30 6176 C 598.961 2.26042 4.69632 0
M  V30 6177 C 596.289 2.97907 5.05439 0
M  V30 6178 C 598.641 3.4805 5.28246 0
M  V30 6179 C 597.305 3.84351 5.45738 0
M  V30 6180 H 596.575 0.0500466 0.739308 0
M  V30 6181 H 599.222 0.818429 1.7313 0
M  V30 6182 H 597.527 -0.691449 3.8565 0
M  V30 6183 H 599.224 -0.326091 3.99672 0
M  V30 6184 H 595.814 1.10015 4.1424 0
M  V30 6185 H 599.998 1.99463 4.54454 0
M  V30 6186 H 595.254 3.26108 5.17169 0
M  V30 6187 H 599.428 4.15658 5.5875 0
M  V30 6188 H 597.055 4.79538 5.8987 0
M  V30 6189 N 598.631 -1.53133 0.372548 0
M  V30 6190 C 599.561 -2.28876 -0.462412 0
M  V30 6191 C 600.542 -1.31583 -1.07796 0
M  V30 6192 O 601.727 -1.60461 -1.09389 0
M  V30 6193 C 598.857 -3.08317 -1.59868 0
M  V30 6194 C 597.811 -4.13355 -1.11003 0
M  V30 6195 C 597.137 -4.8092 -2.33708 0
M  V30 6196 C 598.437 -5.21955 -0.18983 0
M  V30 6197 H 600.131 -2.9892 0.169511 0
M  V30 6198 H 597.677 -1.43761 0.0829658 0
M  V30 6199 H 599.63 -3.60055 -2.18949 0
M  V30 6200 H 598.354 -2.35976 -2.25794 0
M  V30 6201 H 597.013 -3.62573 -0.541869 0
M  V30 6202 H 596.661 -4.05144 -2.98106 0
M  V30 6203 H 596.361 -5.51904 -2.01682 0
M  V30 6204 H 597.885 -5.35455 -2.93462 0
M  V30 6205 H 599.299 -5.69153 -0.688319 0
M  V30 6206 H 597.696 -6.00087 0.0398887 0
M  V30 6207 H 598.766 -4.78811 0.766057 0
M  V30 6208 N 600.109 -0.101901 -1.5727 0
M  V30 6209 C 601.339 0.567568 -1.98651 0
M  V30 6210 C 601.747 1.61839 -0.980037 0
M  V30 6211 O 601.09 1.83661 0.0376564 0
M  V30 6212 C 601.152 1.26742 -3.36417 0
M  V30 6213 C 600.816 0.366561 -4.55528 0
M  V30 6214 C 601.813 -0.388022 -5.1845 0
M  V30 6215 C 599.498 0.282629 -5.01504 0
M  V30 6216 C 601.492 -1.21445 -6.25724 0
M  V30 6217 C 599.179 -0.547443 -6.08643 0
M  V30 6218 C 600.177 -1.29462 -6.70618 0
M  V30 6219 O 599.865 -2.11095 -7.7569 0
M  V30 6220 H 599.597 0.156282 -0.657687 0
M  V30 6221 H 602.151 -0.179912 -2.04611 0
M  V30 6222 H 600.381 2.06162 -3.27161 0
M  V30 6223 H 602.07 1.8321 -3.622 0
M  V30 6224 H 602.836 -0.332949 -4.83856 0
M  V30 6225 H 598.715 0.853868 -4.53023 0
M  V30 6226 H 602.259 -1.79814 -6.74027 0
M  V30 6227 H 598.156 -0.603971 -6.42668 0
M  V30 6228 H 598.924 -2.03851 -7.92709 0
M  V30 6229 N 601.587 1.56661 0.17182 0
M  V30 6230 C 602.812 1.86459 0.908165 0
M  V30 6231 C 603.237 0.688181 1.75059 0
M  V30 6232 O 602.595 -0.362753 1.77634 0
M  V30 6233 C 602.643 3.14669 1.76112 0
M  V30 6234 O 601.747 2.96858 2.86268 0
M  V30 6235 H 601.088 0.613318 0.254434 0
M  V30 6236 H 603.618 2.03892 0.170113 0
M  V30 6237 H 603.628 3.46061 2.16115 0
M  V30 6238 H 602.303 3.99905 1.14233 0
M  V30 6239 H 600.88 2.76819 2.49852 0
M  V30 6240 N 603.065 -0.440357 1.51323 0
M  V30 6241 C 604.481 -0.7766 1.39431 0
M  V30 6242 C 604.681 -1.95838 0.474296 0
M  V30 6243 O 603.737 -2.52398 -0.0716692 0
M  V30 6244 C 605.05 -1.05981 2.81405 0
M  V30 6245 C 606.598 -1.16442 2.90534 0
M  V30 6246 C 607.073 -1.48058 4.33408 0
M  V30 6247 N 608.564 -1.54988 4.36501 0
M  V30 6248 C 609.299 -1.81017 5.44078 0
M  V30 6249 N 608.795 -2.04858 6.61819 0
M  V30 6250 N 610.588 -1.82774 5.31554 0
M  V30 6251 H 602.739 0.338006 2.09693 0
M  V30 6252 H 605.002 0.0888072 0.943831 0
M  V30 6253 H 604.708 -0.264173 3.50706 0
M  V30 6254 H 604.582 -1.98822 3.20546 0
M  V30 6255 H 606.969 -1.95068 2.21432 0
M  V30 6256 H 607.05 -0.215088 2.54894 0
M  V30 6257 H 606.694 -0.699605 5.03059 0
M  V30 6258 H 606.624 -2.44192 4.66559 0
M  V30 6259 H 609.115 -1.38479 3.51613 0
M  V30 6260 H 609.428 -2.2408 7.396 0
M  V30 6261 H 607.773 -2.02187 6.6494 0
M  V30 6262 H 610.964 -1.63665 4.38556 0
M  V30 6263 H 611.137 -2.02722 6.15474 0
M  V30 6264 N 604.543 -1.41418 -0.695603 0
M  V30 6265 C 605.473 -1.46035 -1.82197 0
M  V30 6266 C 606.454 -0.319025 -1.67082 0
M  V30 6267 O 607.639 -0.530462 -1.86815 0
M  V30 6268 C 604.769 -1.34179 -3.20333 0
M  V30 6269 C 603.723 -2.46123 -3.50154 0
M  V30 6270 C 603.049 -2.19332 -4.87645 0
M  V30 6271 C 604.349 -3.88463 -3.49133 0
M  V30 6272 H 606.043 -2.40303 -1.78591 0
M  V30 6273 H 603.589 -1.15663 -0.857797 0
M  V30 6274 H 605.542 -1.36021 -3.98844 0
M  V30 6275 H 604.266 -0.363952 -3.24566 0
M  V30 6276 H 602.925 -2.43563 -2.73994 0
M  V30 6277 H 602.573 -1.19891 -4.88503 0
M  V30 6278 H 602.273 -2.94344 -5.08562 0
M  V30 6279 H 603.797 -2.22889 -5.68465 0
M  V30 6280 H 605.211 -3.92738 -4.17648 0
M  V30 6281 H 603.608 -4.63158 -3.81582 0
M  V30 6282 H 604.678 -4.16617 -2.48109 0
M  V30 6283 N 606.021 0.929856 -1.27246 0
M  V30 6284 C 607.249 1.71144 -1.16265 0
M  V30 6285 C 607.664 1.867 0.280786 0
M  V30 6286 O 607.021 1.38249 1.19136 0
M  V30 6287 C 607.072 3.11222 -1.83911 0
M  V30 6288 O 606.793 2.96398 -3.22614 0
M  V30 6289 C 608.294 4.05541 -1.79028 0
M  V30 6290 H 605.514 0.535499 -0.404328 0
M  V30 6291 H 608.058 1.16492 -1.68077 0
M  V30 6292 H 606.213 3.6274 -1.36009 0
M  V30 6293 H 606.627 3.8494 -3.56261 0
M  V30 6294 H 608.101 5.01351 -2.30978 0
M  V30 6295 H 608.578 4.32589 -0.759168 0
M  V30 6296 H 609.184 3.59947 -2.26535 0
M  V30 6297 N 607.499 1.09233 1.13605 0
M  V30 6298 C 608.745 0.828385 1.8511 0
M  V30 6299 C 609.078 -0.64437 1.83198 0
M  V30 6300 O 608.353 -1.47428 1.26867 0
M  V30 6301 C 608.636 1.36167 3.33363 0
M  V30 6302 C 608.489 2.90038 3.438 0
M  V30 6303 C 609.808 0.993819 4.28732 0
M  V30 6304 H 606.927 0.30239 0.672108 0
M  V30 6305 H 609.569 1.35339 1.33355 0
M  V30 6306 H 607.719 0.9151 3.77569 0
M  V30 6307 H 609.391 3.43128 3.08319 0
M  V30 6308 H 607.634 3.27271 2.84739 0
M  V30 6309 H 608.305 3.22428 4.48045 0
M  V30 6310 H 610.781 1.37893 3.92587 0
M  V30 6311 H 609.657 1.39403 5.30903 0
M  V30 6312 H 609.918 -0.0982206 4.41991 0
M  V30 6313 N 608.977 -1.30795 0.87923 0
M  V30 6314 C 610.254 -1.91145 0.415086 0
M  V30 6315 C 610.634 -1.7995 -1.10368 0
M  V30 6316 O 609.982 -1.21305 -1.93642 0
M  V30 6317 C 610.192 -3.37014 0.906778 0
M  V30 6318 C 611.54 -4.14101 0.938358 0
M  V30 6319 O 612.564 -3.45834 0.853053 0
M  V30 6320 O 611.423 -5.36054 1.06342 0
M  V30 6321 H 608.517 -0.81736 0.125905 0
M  V30 6322 H 611.063 -1.39401 0.967753 0
M  V30 6323 H 609.835 -3.3922 1.95053 0
M  V30 6324 H 609.458 -3.96204 0.332948 0
M  V30 6325 N 610.455 -0.639598 -1.44038 0
M  V30 6326 C 611.402 0.0602458 -2.30721 0
M  V30 6327 C 612.372 0.828352 -1.43971 0
M  V30 6328 O 613.557 0.807693 -1.72861 0
M  V30 6329 C 610.697 1.03008 -3.29368 0
M  V30 6330 C 609.81 0.259502 -4.3122 0
M  V30 6331 C 608.945 1.22191 -5.16955 0
M  V30 6332 C 607.984 0.440978 -6.10509 0
M  V30 6333 N 607.121 1.35428 -6.88915 0
M  V30 6334 H 611.961 -0.684867 -2.90023 0
M  V30 6335 H 609.498 -0.349509 -1.42888 0
M  V30 6336 H 611.456 1.60583 -3.85057 0
M  V30 6337 H 610.086 1.74222 -2.71747 0
M  V30 6338 H 609.138 -0.432317 -3.77935 0
M  V30 6339 H 610.45 -0.348347 -4.97582 0
M  V30 6340 H 609.604 1.86873 -5.77203 0
M  V30 6341 H 608.343 1.86367 -4.50687 0
M  V30 6342 H 607.348 -0.219279 -5.49363 0
M  V30 6343 H 608.573 -0.196192 -6.78817 0
M  V30 6344 H 606.519 1.9831 -6.25307 0
M  V30 6345 H 606.436 0.800657 -7.51748 0
M  V30 6346 H 607.704 1.98967 -7.53679 0
M  V30 6347 N 611.933 1.52934 -0.380664 0
M  V30 6348 C 613.158 2.06363 0.207157 0
M  V30 6349 C 613.583 1.25122 1.4045 0
M  V30 6350 O 612.941 0.274062 1.79217 0
M  V30 6351 C 612.989 3.56162 0.563996 0
M  V30 6352 O 612.093 3.77552 1.65917 0
M  V30 6353 H 611.434 0.663468 0.0265859 0
M  V30 6354 H 613.964 1.9719 -0.545635 0
M  V30 6355 H 613.974 3.99453 0.830752 0
M  V30 6356 H 612.649 4.14732 -0.311427 0
M  V30 6357 H 611.226 3.46154 1.3868 0
M  V30 6358 N 613.412 0.11024 1.57214 0
M  V30 6359 C 614.828 -0.24638 1.57687 0
M  V30 6360 C 615.028 -1.67344 1.12241 0
M  V30 6361 O 614.084 -2.39298 0.805783 0
M  V30 6362 C 615.397 -0.0210288 3.00693 0
M  V30 6363 C 616.945 -0.0876077 3.12877 0
M  V30 6364 C 617.42 0.10994 4.57868 0
M  V30 6365 N 618.911 0.0556135 4.63167 0
M  V30 6366 C 619.646 0.183495 5.73106 0
M  V30 6367 N 619.142 0.367058 6.91827 0
M  V30 6368 N 620.935 0.123689 5.61964 0
M  V30 6369 H 613.086 1.04246 1.85058 0
M  V30 6370 H 615.349 0.40979 0.854854 0
M  V30 6371 H 615.055 0.965203 3.38196 0
M  V30 6372 H 614.929 -0.756748 3.69531 0
M  V30 6373 H 617.316 -1.06436 2.75237 0
M  V30 6374 H 617.397 0.67985 2.466 0
M  V30 6375 H 617.041 1.08362 4.96206 0
M  V30 6376 H 616.971 -0.677397 5.22225 0
M  V30 6377 H 619.462 -0.0831062 3.77809 0
M  V30 6378 H 619.775 0.455739 7.71455 0
M  V30 6379 H 618.12 0.40292 6.93831 0
M  V30 6380 H 621.311 -0.0186928 4.68096 0
M  V30 6381 H 621.484 0.226797 6.47603 0
M  V30 6382 N 614.89 -1.56749 -0.16351 0
M  V30 6383 C 616.136 -1.83597 -0.875436 0
M  V30 6384 C 616.491 -0.691907 -1.79528 0
M  V30 6385 O 615.784 0.311193 -1.89056 0
M  V30 6386 C 615.978 -3.14342 -1.70071 0
M  V30 6387 C 615.807 -4.41356 -0.862265 0
M  V30 6388 C 614.577 -5.02467 -0.534299 0
M  V30 6389 C 616.775 -5.1391 -0.200203 0
M  V30 6390 N 614.757 -6.13068 0.31947 0
M  V30 6391 C 616.128 -6.17862 0.514398 0
M  V30 6392 C 618.183 -4.97757 -0.119171 0
M  V30 6393 C 616.886 -7.07412 1.30236 0
M  V30 6394 C 618.912 -5.87756 0.655477 0
M  V30 6395 C 618.274 -6.91178 1.35842 0
M  V30 6396 H 614.373 -0.722702 -0.298708 0
M  V30 6397 H 616.957 -1.94182 -0.141883 0
M  V30 6398 H 615.128 -3.04933 -2.40562 0
M  V30 6399 H 616.86 -3.29156 -2.35453 0
M  V30 6400 H 613.615 -4.65611 -0.866222 0
M  V30 6401 H 614.039 -6.72978 0.736893 0
M  V30 6402 H 618.681 -4.178 -0.648278 0
M  V30 6403 H 616.399 -7.86808 1.84278 0
M  V30 6404 H 619.985 -5.77328 0.719948 0
M  V30 6405 H 618.865 -7.59614 1.94822 0
M  V30 6406 N 616.368 0.432326 -1.51554 0
M  V30 6407 C 617.3 1.54357 -1.6943 0
M  V30 6408 C 618.313 1.52311 -0.574897 0
M  V30 6409 O 619.502 1.56997 -0.849369 0
M  V30 6410 C 616.602 2.93273 -1.69836 0
M  V30 6411 C 615.775 3.19768 -2.98442 0
M  V30 6412 C 614.834 4.38433 -2.90969 0
M  V30 6413 O 613.86 4.36842 -3.64908 0
M  V30 6414 N 615.062 5.42276 -2.07163 0
M  V30 6415 H 617.827 1.39426 -2.65293 0
M  V30 6416 H 615.388 0.621331 -1.49503 0
M  V30 6417 H 617.38 3.70687 -1.62399 0
M  V30 6418 H 615.95 3.01777 -0.815456 0
M  V30 6419 H 615.17 2.30607 -3.19709 0
M  V30 6420 H 616.458 3.343 -3.83563 0
M  V30 6421 H 615.856 5.46407 -1.46477 0
M  V30 6422 H 614.413 6.18524 -2.05601 0
M  V30 6423 N 617.846 1.41785 0.688094 0
M  V30 6424 C 618.756 1.46596 1.83158 0
M  V30 6425 C 619.772 0.355862 1.70322 0
M  V30 6426 O 620.948 0.604737 1.92106 0
M  V30 6427 C 618.013 1.35322 3.192 0
M  V30 6428 C 617.074 2.56711 3.4409 0
M  V30 6429 C 616.307 2.45965 4.73642 0
M  V30 6430 O 616.53 1.48827 5.50642 0
M  V30 6431 O 615.464 3.35859 4.99482 0
M  V30 6432 H 619.29 2.43083 1.82056 0
M  V30 6433 H 616.875 1.23404 0.842126 0
M  V30 6434 H 618.757 1.31347 4.00407 0
M  V30 6435 H 617.432 0.419536 3.2097 0
M  V30 6436 H 616.339 2.66262 2.62784 0
M  V30 6437 H 617.672 3.48933 3.47141 0
M  V30 6438 N 619.324 -0.923095 1.27737 0
M  V30 6439 C 620.572 -1.66797 1.14119 0
M  V30 6440 C 620.893 -1.92479 -0.312541 0
M  V30 6441 O 620.163 -1.53432 -1.218 0
M  V30 6442 H 618.743 -0.618196 0.419336 0
M  V30 6443 H 621.405 -1.10815 1.60331 0
M  V30 6444 H 620.501 -2.63424 1.67374 0
M  V30 6445 N 620.802 -1.09834 -1.13024 0
M  V30 6446 C 621.75 -0.736283 -2.20639 0
M  V30 6447 C 622.744 0.264725 -1.67319 0
M  V30 6448 O 623.95 0.125745 -1.7956 0
M  V30 6449 H 620.325 -0.220136 -0.719058 0
M  V30 6450 H 622.296 -1.65295 -2.48436 0
M  V30 6451 C 621.045 -0.177544 -3.47246 0
M  V30 6452 H 620.368 -0.939009 -3.88616 0
M  V30 6453 H 621.808 0.0378007 -4.23983 0
M  V30 6454 C 620.267 1.08824 -3.1884 0
M  V30 6455 O 620.797 2.1708 -3.37993 0
M  V30 6456 N 619.003 1.00442 -2.7269 0
M  V30 6457 H 618.55 0.123383 -2.57304 0
M  V30 6458 H 618.508 1.85206 -2.5406 0
M  V30 6459 N 622.28 1.30327 -0.886154 0
M  V30 6460 C 623.526 1.96388 -0.505941 0
M  V30 6461 C 623.859 1.69784 0.942712 0
M  V30 6462 O 623.134 1.00322 1.6663 0
M  V30 6463 C 623.417 3.51488 -0.782826 0
M  V30 6464 C 623.27 3.87603 -2.28219 0
M  V30 6465 C 624.589 4.39331 -0.260128 0
M  V30 6466 H 621.708 0.713327 -0.185292 0
M  V30 6467 H 624.35 1.54178 -1.11036 0
M  V30 6468 H 622.5 3.87572 -0.268399 0
M  V30 6469 H 624.172 3.61537 -2.86512 0
M  V30 6470 H 622.415 3.3563 -2.74837 0
M  V30 6471 H 623.086 4.95806 -2.42653 0
M  V30 6472 H 625.562 4.10162 -0.700444 0
M  V30 6473 H 624.438 5.46769 -0.483179 0
M  V30 6474 H 624.699 4.34072 0.838674 0
M  V30 6475 N 623.758 0.647228 1.43697 0
M  V30 6476 C 625.005 0.158188 2.01881 0
M  V30 6477 C 625.333 -1.22573 1.51017 0
M  V30 6478 O 624.588 -1.83086 0.69122 0
M  V30 6479 C 624.887 0.111481 3.57226 0
M  V30 6480 C 624.553 1.43633 4.27411 0
M  V30 6481 C 623.215 1.79915 4.463 0
M  V30 6482 C 625.567 2.31011 4.67208 0
M  V30 6483 C 622.895 3.03251 5.02251 0
M  V30 6484 C 625.247 3.53633 5.24525 0
M  V30 6485 C 623.911 3.90118 5.41631 0
M  V30 6486 H 623.181 0.0578851 0.738736 0
M  V30 6487 H 625.828 0.836746 1.72252 0
M  V30 6488 H 624.133 -0.650507 3.86362 0
M  V30 6489 H 625.83 -0.283682 3.99995 0
M  V30 6490 H 622.42 1.14403 4.1305 0
M  V30 6491 H 626.604 2.04272 4.52313 0
M  V30 6492 H 621.86 3.31575 5.13681 0
M  V30 6493 H 626.034 4.21561 5.5431 0
M  V30 6494 H 623.661 4.85768 5.84751 0
M  V30 6495 N 625.236 -1.5273 0.388769 0
M  V30 6496 C 626.461 -2.0647 -0.19621 0
M  V30 6497 C 626.886 -1.25865 -1.39784 0
M  V30 6498 O 626.244 -0.283562 -1.79069 0
M  V30 6499 C 626.292 -3.56456 -0.5451 0
M  V30 6500 O 625.396 -3.78426 -1.63912 0
M  V30 6501 H 624.737 -0.663599 -0.023067 0
M  V30 6502 H 627.267 -1.96898 0.556084 0
M  V30 6503 H 627.277 -3.99888 -0.809557 0
M  V30 6504 H 625.952 -4.14561 0.333417 0
M  V30 6505 H 624.529 -3.46884 -1.36842 0
M  V30 6506 N 626.714 -0.118576 -1.57153 0
M  V30 6507 C 627.954 0.542618 -1.97066 0
M  V30 6508 C 628.318 1.63874 -1.00046 0
M  V30 6509 O 629.519 2.3588 -1.28895 0
M  V30 6510 C 627.79 1.06196 -3.41258 0
M  V30 6511 S 629.349 1.73174 -4.03183 0
M  V30 6512 H 626.167 0.17638 -0.688775 0
M  V30 6513 H 628.769 -0.203556 -1.94437 0
M  V30 6514 H 627.473 0.253016 -4.09619 0
M  V30 6515 H 627.004 1.84342 -3.47536 0
M  V30 6516 H 629.019 3.01749 -3.93906 0
M  V30 6517 N 628.193 1.56834 0.155195 0
M  V30 6518 C 629.418 1.87412 0.888337 0
M  V30 6519 C 629.843 0.70671 1.74319 0
M  V30 6520 O 629.201 -0.343892 1.78009 0
M  V30 6521 C 629.249 3.1652 1.72765 0
M  V30 6522 O 628.353 2.99877 2.83103 0
M  V30 6523 H 627.694 0.615983 0.247914 0
M  V30 6524 H 630.224 2.04061 0.148478 0
M  V30 6525 H 630.234 3.48334 2.12433 0
M  V30 6526 H 628.909 4.01094 1.09985 0
M  V30 6527 H 627.486 2.79453 2.46902 0
M  V30 6528 N 629.671 -0.424282 1.51781 0
M  V30 6529 C 630.917 -1.17434 1.6534 0
M  V30 6530 C 631.25 -1.90549 0.374806 0
M  V30 6531 O 630.525 -1.84145 -0.626179 0
M  V30 6532 C 630.808 -2.18093 2.86544 0
M  V30 6533 C 630.661 -1.48975 4.24413 0
M  V30 6534 C 631.98 -3.18934 3.03264 0
M  V30 6535 H 629.099 -0.425566 0.601716 0
M  V30 6536 H 631.741 -0.461921 1.84299 0
M  V30 6537 H 629.891 -2.78849 2.7051 0
M  V30 6538 H 631.563 -0.914551 4.52143 0
M  V30 6539 H 629.806 -0.791893 4.26511 0
M  V30 6540 H 630.477 -2.22347 5.05238 0
M  V30 6541 H 632.953 -2.68243 3.18096 0
M  V30 6542 H 631.829 -3.86645 3.89611 0
M  V30 6543 H 632.09 -3.85793 2.15908 0
M  V30 6544 N 631.149 -1.42148 -0.680565 0
M  V30 6545 C 632.082 -1.39602 -1.80517 0
M  V30 6546 C 633.06 -0.261098 -1.6049 0
M  V30 6547 O 634.244 -0.450404 -1.8304 0
M  V30 6548 C 631.371 -1.18134 -3.1743 0
M  V30 6549 C 630.417 -2.34543 -3.56219 0
M  V30 6550 S 631.25 -3.97063 -3.59306 0
M  V30 6551 C 632.406 -3.77926 -4.98921 0
M  V30 6552 H 632.639 -2.3477 -1.82402 0
M  V30 6553 H 630.172 -1.28851 -0.850691 0
M  V30 6554 H 632.13 -1.06434 -3.96462 0
M  V30 6555 H 630.791 -0.245611 -3.13138 0
M  V30 6556 H 629.984 -2.15255 -4.55721 0
M  V30 6557 H 629.586 -2.42728 -2.84533 0
M  V30 6558 H 631.878 -3.3856 -5.86842 0
M  V30 6559 H 632.821 -4.77084 -5.23256 0
M  V30 6560 H 633.229 -3.10904 -4.71167 0
M  V30 6561 N 632.627 0.916307 -1.28225 0
M  V30 6562 C 633.577 2.00488 -1.08574 0
M  V30 6563 C 634.561 1.60897 -0.0101874 0
M  V30 6564 O 635.753 1.75499 -0.230034 0
M  V30 6565 C 632.882 3.35076 -0.746943 0
M  V30 6566 C 631.968 3.81077 -1.86121 0
M  V30 6567 N 632.359 3.99475 -3.10247 0
M  V30 6568 C 630.657 4.10212 -1.75048 0
M  V30 6569 C 631.358 4.37965 -3.82834 0
M  V30 6570 N 630.334 4.4608 -3.10667 0
M  V30 6571 H 634.136 2.1276 -2.02757 0
M  V30 6572 H 631.65 1.10397 -1.19107 0
M  V30 6573 H 633.647 4.12743 -0.587252 0
M  V30 6574 H 632.307 3.2416 0.187146 0
M  V30 6575 H 633.318 3.85466 -3.45885 0
M  V30 6576 H 629.995 4.07947 -0.887999 0
M  V30 6577 H 631.385 4.60183 -4.89572 0
M  V30 6578 N 634.105 1.10431 1.1244 0
M  V30 6579 C 635.015 0.765502 2.21759 0
M  V30 6580 C 636.031 -0.236966 1.72379 0
M  V30 6581 O 637.207 -0.0757329 2.01258 0
M  V30 6582 C 634.272 0.202316 3.46109 0
M  V30 6583 C 633.333 1.26205 4.1033 0
M  V30 6584 C 632.566 0.725648 5.28744 0
M  V30 6585 O 632.789 -0.447942 5.68638 0
M  V30 6586 O 631.723 1.48555 5.83279 0
M  V30 6587 H 635.549 1.67801 2.53133 0
M  V30 6588 H 633.134 0.879443 1.20773 0
M  V30 6589 H 635.016 -0.107918 4.21262 0
M  V30 6590 H 633.691 -0.683052 3.16411 0
M  V30 6591 H 632.598 1.62514 3.36957 0
M  V30 6592 H 633.931 2.12044 4.44183 0
M  V30 6593 N 635.583 -1.29855 0.893053 0
M  V30 6594 C 636.546 -2.26183 0.370687 0
M  V30 6595 C 637.546 -1.53108 -0.491385 0
M  V30 6596 O 638.736 -1.71643 -0.297386 0
M  V30 6597 C 635.868 -3.37633 -0.470827 0
M  V30 6598 H 637.061 -2.73903 1.22135 0
M  V30 6599 H 634.614 -1.41183 0.67061 0
M  V30 6600 H 635.349 -2.95241 -1.34175 0
M  V30 6601 H 635.134 -3.91825 0.146784 0
M  V30 6602 H 636.624 -4.09313 -0.827825 0
M  V30 6603 N 637.061 -0.65484 -1.43351 0
M  V30 6604 C 637.991 0.0221809 -2.33489 0
M  V30 6605 C 638.972 0.810272 -1.49561 0
M  V30 6606 O 640.157 0.771426 -1.78221 0
M  V30 6607 C 637.287 0.988117 -3.32947 0
M  V30 6608 C 636.241 0.310026 -4.26876 0
M  V30 6609 C 635.567 1.38752 -5.16384 0
M  V30 6610 C 636.867 -0.798589 -5.16159 0
M  V30 6611 H 638.561 -0.730571 -2.9035 0
M  V30 6612 H 636.107 -0.352773 -1.39612 0
M  V30 6613 H 638.06 1.47067 -3.94904 0
M  V30 6614 H 636.784 1.77205 -2.74346 0
M  V30 6615 H 635.443 -0.152097 -3.66284 0
M  V30 6616 H 635.091 2.16293 -4.54121 0
M  V30 6617 H 634.791 0.939051 -5.80048 0
M  V30 6618 H 636.315 1.87141 -5.81215 0
M  V30 6619 H 637.729 -0.398126 -5.71916 0
M  V30 6620 H 636.126 -1.17163 -5.88552 0
M  V30 6621 H 637.196 -1.65588 -4.55751 0
M  V30 6622 N 638.539 1.52521 -0.396863 0
M  V30 6623 C 639.489 2.2348 0.451722 0
M  V30 6624 C 640.473 1.2415 1.0235 0
M  V30 6625 O 641.665 1.4945 0.948348 0
M  V30 6626 C 638.794 3.05067 1.57445 0
M  V30 6627 C 637.88 4.11799 1.01404 0
M  V30 6628 N 638.271 5.05482 0.179234 0
M  V30 6629 C 636.569 4.27064 1.28578 0
M  V30 6630 C 637.27 5.81552 -0.131202 0
M  V30 6631 N 636.246 5.41523 0.474735 0
M  V30 6632 H 640.048 2.93269 -0.192534 0
M  V30 6633 H 637.562 1.61081 -0.206591 0
M  V30 6634 H 639.559 3.54446 2.19485 0
M  V30 6635 H 638.219 2.36816 2.22145 0
M  V30 6636 H 639.23 5.17573 -0.18411 0
M  V30 6637 H 635.907 3.70042 1.93327 0
M  V30 6638 H 637.297 6.67023 -0.808061 0
M  V30 6639 N 640.017 0.126909 1.57088 0
M  V30 6640 C 640.965 -0.837618 2.16995 0
M  V30 6641 C 641.959 -1.26974 1.12133 0
M  V30 6642 O 643.165 -1.24056 1.30423 0
M  V30 6643 H 639.54 -0.288256 0.694559 0
M  V30 6644 H 641.511 -0.307957 2.96807 0
M  V30 6645 C 640.26 -2.07474 2.79016 0
M  V30 6646 H 639.583 -1.75117 3.59408 0
M  V30 6647 H 641.023 -2.72949 3.24461 0
M  V30 6648 C 639.482 -2.86967 1.76498 0
M  V30 6649 O 640.012 -3.82625 1.22316 0
M  V30 6650 N 638.218 -2.51111 1.46258 0
M  V30 6651 H 637.765 -1.73389 1.90509 0
M  V30 6652 H 637.723 -3.04594 0.779085 0
M  V30 6653 N 641.495 -1.56914 -0.146875 0
M  V30 6654 C 642.445 -1.94693 -1.18653 0
M  V30 6655 C 643.429 -0.81821 -1.38543 0
M  V30 6656 O 644.621 -1.08167 -1.40103 0
M  V30 6657 C 641.75 -2.33117 -2.52014 0
M  V30 6658 C 640.836 -3.5256 -2.35717 0
M  V30 6659 N 641.227 -4.69091 -1.89175 0
M  V30 6660 C 639.525 -3.57647 -2.66467 0
M  V30 6661 C 640.226 -5.51187 -1.85924 0
M  V30 6662 N 639.202 -4.92899 -2.29242 0
M  V30 6663 H 643.004 -2.82264 -0.81879 0
M  V30 6664 H 640.518 -1.58474 -0.354929 0
M  V30 6665 H 642.515 -2.58387 -3.27172 0
M  V30 6666 H 641.175 -1.46898 -2.89571 0
M  V30 6667 H 642.186 -4.92844 -1.59139 0
M  V30 6668 H 638.863 -2.81967 -3.07898 0
M  V30 6669 H 640.253 -6.54613 -1.51431 0
M  V30 6670 N 642.974 0.416227 -1.52004 0
M  V30 6671 C 644.204 1.18401 -1.69307 0
M  V30 6672 C 644.612 1.84943 -0.399072 0
M  V30 6673 O 643.955 1.72406 0.634177 0
M  V30 6674 C 644.017 2.29465 -2.76742 0
M  V30 6675 C 643.681 1.83117 -4.18709 0
M  V30 6676 C 644.678 1.32286 -5.02789 0
M  V30 6677 C 642.363 1.90167 -4.64911 0
M  V30 6678 C 644.357 0.891178 -6.31139 0
M  V30 6679 C 642.044 1.4661 -5.93253 0
M  V30 6680 C 643.042 0.961696 -6.76196 0
M  V30 6681 O 642.73 0.532388 -8.02135 0
M  V30 6682 H 642.462 0.362098 -0.570843 0
M  V30 6683 H 645.016 0.496764 -1.99302 0
M  V30 6684 H 643.246 3.01531 -2.42107 0
M  V30 6685 H 644.935 2.91252 -2.82713 0
M  V30 6686 H 645.701 1.26218 -4.68288 0
M  V30 6687 H 641.58 2.28371 -4.00459 0
M  V30 6688 H 645.124 0.496788 -6.95829 0
M  V30 6689 H 641.021 1.52355 -6.27263 0
M  V30 6690 H 641.789 0.656339 -8.15864 0
M  V30 6691 N 644.452 1.42507 0.673017 0
M  V30 6692 C 645.68 1.46473 1.46128 0
M  V30 6693 C 646.095 0.0765912 1.88645 0
M  V30 6694 O 645.452 -0.909057 1.58248 0
M  V30 6695 C 645.503 2.39339 2.70923 0
M  V30 6696 O 645.224 3.72752 2.3019 0
M  V30 6697 C 646.725 2.52343 3.64469 0
M  V30 6698 H 643.945 0.49812 0.449575 0
M  V30 6699 H 646.489 1.87041 0.826802 0
M  V30 6700 H 644.644 2.02019 3.30556 0
M  V30 6701 H 645.058 4.22503 3.10791 0
M  V30 6702 H 646.532 3.2144 4.48754 0
M  V30 6703 H 647.009 1.56189 4.1049 0
M  V30 6704 H 647.615 2.90392 3.10729 0
M  V30 6705 N 645.93 -0.909495 1.28709 0
M  V30 6706 C 646.862 -2.01729 1.08804 0
M  V30 6707 C 647.875 -1.62755 0.0384739 0
M  V30 6708 O 649.064 -1.76259 0.281977 0
M  V30 6709 C 646.164 -3.32952 0.63217 0
M  V30 6710 C 645.337 -4.00512 1.75809 0
M  V30 6711 C 644.396 -5.10019 1.29488 0
M  V30 6712 O 643.422 -5.32986 1.99787 0
M  V30 6713 N 644.624 -5.80278 0.1604 0
M  V30 6714 H 647.389 -2.19362 2.04207 0
M  V30 6715 H 644.95 -1.08106 1.20518 0
M  V30 6716 H 646.942 -4.03543 0.305802 0
M  V30 6717 H 645.512 -3.11759 -0.229134 0
M  V30 6718 H 644.732 -3.23413 2.25383 0
M  V30 6719 H 646.02 -4.42395 2.51325 0
M  V30 6720 H 645.418 -5.64094 -0.425937 0
M  V30 6721 H 643.975 -6.51713 -0.106663 0
M  V30 6722 N 647.408 -1.11026 -1.11852 0
M  V30 6723 C 648.355 -0.764662 -2.17765 0
M  V30 6724 C 649.325 0.261854 -1.64023 0
M  V30 6725 O 650.51 0.139748 -1.90288 0
M  V30 6726 C 647.65 -0.209317 -3.44465 0
M  V30 6727 C 646.763 -1.29187 -4.12231 0
M  V30 6728 C 645.898 -0.697523 -5.266 0
M  V30 6729 C 644.937 -1.76023 -5.86244 0
M  V30 6730 N 644.074 -1.18569 -6.92016 0
M  V30 6731 H 648.914 -1.67202 -2.46673 0
M  V30 6732 H 646.451 -0.835065 -1.21099 0
M  V30 6733 H 648.409 0.130599 -4.16996 0
M  V30 6734 H 647.039 0.661251 -3.15955 0
M  V30 6735 H 646.091 -1.74881 -3.37818 0
M  V30 6736 H 647.403 -2.09607 -4.52622 0
M  V30 6737 H 646.557 -0.307412 -6.05921 0
M  V30 6738 H 645.296 0.138044 -4.87505 0
M  V30 6739 H 644.301 -2.1597 -5.05606 0
M  V30 6740 H 645.526 -2.59875 -6.27409 0
M  V30 6741 H 643.472 -0.371695 -6.54946 0
M  V30 6742 H 643.389 -1.92666 -7.31038 0
M  V30 6743 H 644.657 -0.82233 -7.7515 0
M  V30 6744 N 648.886 1.2938 -0.899927 0
M  V30 6745 C 650.111 2.00228 -0.540692 0
M  V30 6746 C 650.536 1.66909 0.867359 0
M  V30 6747 O 649.894 0.893824 1.57735 0
M  V30 6748 C 649.942 3.52921 -0.740232 0
M  V30 6749 O 649.046 4.11879 0.207154 0
M  V30 6750 H 648.387 0.629505 -0.211233 0
M  V30 6751 H 650.917 1.6487 -1.21158 0
M  V30 6752 H 650.927 4.0287 -0.644973 0
M  V30 6753 H 649.602 3.76508 -1.76677 0
M  V30 6754 H 648.179 3.72845 0.0643315 0
M  V30 6755 N 650.364 0.662433 1.43002 0
M  V30 6756 C 651.294 -0.00979809 2.33498 0
M  V30 6757 C 652.275 -0.802329 1.49989 0
M  V30 6758 O 653.46 -0.761964 1.78627 0
M  V30 6759 C 650.59 -0.970446 3.33466 0
M  V30 6760 C 649.544 -0.287383 4.27034 0
M  V30 6761 C 648.87 -1.36012 5.17112 0
M  V30 6762 C 650.17 0.82595 5.15728 0
M  V30 6763 H 651.864 0.745959 2.89958 0
M  V30 6764 H 649.41 0.360172 1.39423 0
M  V30 6765 H 651.363 -1.44971 3.95679 0
M  V30 6766 H 650.087 -1.75748 2.75282 0
M  V30 6767 H 648.746 0.17152 3.66199 0
M  V30 6768 H 648.394 -2.13882 4.55262 0
M  V30 6769 H 648.094 -0.908276 5.80538 0
M  V30 6770 H 649.618 -1.84056 5.82199 0
M  V30 6771 H 651.032 0.42845 5.71697 0
M  V30 6772 H 649.429 1.20282 5.87922 0
M  V30 6773 H 650.499 1.68003 4.54866 0
M  V30 6774 N 651.842 -1.52309 0.404946 0
M  V30 6775 C 653.067 -2.06666 -0.1743 0
M  V30 6776 C 653.492 -1.27341 -1.38441 0
M  V30 6777 O 652.85 -0.302539 -1.78758 0
M  V30 6778 C 652.898 -3.57014 -0.507262 0
M  V30 6779 O 652.002 -3.80144 -1.59889 0
M  V30 6780 H 651.343 -0.663807 -0.0160273 0
M  V30 6781 H 653.873 -1.96297 0.576937 0
M  V30 6782 H 653.883 -4.00724 -0.767098 0
M  V30 6783 H 652.558 -4.14184 0.377368 0
M  V30 6784 H 651.135 -3.48316 -1.33155 0
M  V30 6785 N 653.32 -0.135238 -1.57019 0
M  V30 6786 C 654.25 0.805235 -2.19176 0
M  V30 6787 C 655.231 1.2656 -1.13651 0
M  V30 6788 O 656.416 1.32528 -1.4195 0
M  V30 6789 C 653.546 2.04914 -2.80406 0
M  V30 6790 C 652.5 1.72598 -3.91655 0
M  V30 6791 C 651.826 3.04154 -4.39766 0
M  V30 6792 C 653.126 0.981709 -5.12991 0
M  V30 6793 H 654.82 0.287232 -2.98019 0
M  V30 6794 H 652.366 0.136714 -1.4335 0
M  V30 6795 H 654.319 2.71178 -3.22553 0
M  V30 6796 H 653.043 2.59067 -1.98877 0
M  V30 6797 H 651.702 1.08717 -3.50109 0
M  V30 6798 H 651.35 3.56274 -3.55075 0
M  V30 6799 H 651.05 2.83299 -5.14796 0
M  V30 6800 H 652.574 3.71509 -4.84576 0
M  V30 6801 H 653.988 1.5462 -5.52056 0
M  V30 6802 H 652.385 0.873533 -5.93708 0
M  V30 6803 H 653.455 -0.0286887 -4.84892 0
M  V30 6804 N 654.798 1.5699 0.138552 0
M  V30 6805 C 656.023 1.88344 0.86841 0
M  V30 6806 C 656.448 0.725159 1.7356 0
M  V30 6807 O 655.806 -0.324992 1.78363 0
M  V30 6808 C 655.854 3.18334 1.69398 0
M  V30 6809 O 654.958 3.02863 2.79907 0
M  V30 6810 H 654.299 0.618577 0.241367 0
M  V30 6811 H 656.829 2.04207 0.126826 0
M  V30 6812 H 656.839 3.50567 2.08726 0
M  V30 6813 H 655.514 4.02238 1.05725 0
M  V30 6814 H 654.091 2.82056 2.43924 0
M  V30 6815 N 656.276 -0.40816 1.52223 0
M  V30 6816 C 657.206 -1.5042 1.78595 0
M  V30 6817 C 658.187 -1.57723 0.636974 0
M  V30 6818 O 659.372 -1.72982 0.882664 0
M  V30 6819 C 656.502 -2.88232 1.93751 0
M  V30 6820 C 655.456 -2.95779 3.09352 0
M  V30 6821 C 654.782 -4.35855 3.09732 0
M  V30 6822 C 656.082 -2.67175 4.48793 0
M  V30 6823 H 657.776 -1.28601 2.70374 0
M  V30 6824 H 655.322 -0.617221 1.30101 0
M  V30 6825 H 657.275 -3.64895 2.10783 0
M  V30 6826 H 655.999 -3.11347 0.986443 0
M  V30 6827 H 654.658 -2.21561 2.92072 0
M  V30 6828 H 654.306 -4.55981 2.12346 0
M  V30 6829 H 654.006 -4.41829 3.87377 0
M  V30 6830 H 655.53 -5.14451 3.28895 0
M  V30 6831 H 656.944 -3.3356 4.66273 0
M  V30 6832 H 655.341 -2.84523 5.28362 0
M  V30 6833 H 656.411 -1.62609 4.56822 0
M  V30 6834 N 657.755 -1.42862 -0.66545 0
M  V30 6835 C 659.003 -1.43546 -1.42264 0
M  V30 6836 C 659.324 -0.0563116 -1.94919 0
M  V30 6837 O 658.594 0.906568 -1.73661 0
M  V30 6838 H 657.174 -0.528464 -0.527953 0
M  V30 6839 H 659.836 -1.78363 -0.785665 0
M  V30 6840 H 658.932 -2.14079 -2.27105 0
M  V30 6841 N 659.233 0.902656 -1.29189 0
M  V30 6842 C 660.18 2.00643 -1.14066 0
M  V30 6843 C 661.15 1.66064 -0.0347756 0
M  V30 6844 O 662.335 1.8973 -0.201752 0
M  V30 6845 C 659.475 3.35214 -0.820104 0
M  V30 6846 C 658.588 3.82594 -2.00614 0
M  V30 6847 C 657.723 5.05727 -1.62522 0
M  V30 6848 C 656.762 5.45469 -2.77724 0
M  V30 6849 N 655.899 6.59789 -2.40048 0
M  V30 6850 H 660.739 2.1291 -2.08502 0
M  V30 6851 H 658.276 1.04271 -1.03759 0
M  V30 6852 H 660.234 4.12643 -0.614949 0
M  V30 6853 H 658.864 3.22682 0.0873452 0
M  V30 6854 H 657.916 3.01226 -2.32308 0
M  V30 6855 H 659.228 4.07999 -2.86946 0
M  V30 6856 H 658.382 5.90732 -1.38277 0
M  V30 6857 H 657.121 4.82155 -0.733333 0
M  V30 6858 H 656.126 4.59 -3.02653 0
M  V30 6859 H 657.351 5.71024 -3.67572 0
M  V30 6860 H 655.297 6.37826 -1.53343 0
M  V30 6861 H 655.214 6.84975 -3.19914 0
M  V30 6862 H 656.482 7.4807 -2.19116 0
M  V30 6863 O 660.75 1.23723 1.03802 0
M  V30 6864 H 661.441 1.01035 1.65262 0
M  V30 END ATOM
M  V30 BEGIN BOND
M  V30 END BOND
M  V30 END CTAB
M  END
$$$$
